44
  This energy is -8.1393 and Call times are: 1850
C	-1.96357	2.65798	-1.09188
C	-0.875662	2.0973	-0.259275
O	-0.0994762	2.8263	0.342809
H	-1.91092	3.76814	-1.06607
H	-2.95086	2.3358	-0.699199
H	-1.85514	2.31743	-2.14324
N	-0.793359	0.765753	-0.208433
C	0.237757	0.0745451	0.524775
C	0.48725	-1.25933	-0.153529
O	-0.252603	-1.65753	-1.05117
H	-1.40716	0.186095	-0.736746
H	1.1581	0.642344	0.468181
C	-0.178931	-0.136163	1.99692
H	-1.1174	-0.727636	2.05585
H	0.612558	-0.655145	2.57548
H	-0.364015	0.852421	2.47105
N	1.54848	-1.98102	0.257528
C	1.86767	-3.25972	-0.333435
H	2.13795	-1.64028	0.98244
H	2.77511	-3.6959	0.139328
H	2.05939	-3.15081	-1.42552
H	1.0244	-3.97554	-0.200671
C	5.83553	-2.04253	2.81791
C	5.13962	-1.30077	1.74243
O	3.94514	-1.46156	1.5332
H	5.11309	-2.7188	3.32446
H	6.2494	-1.33378	3.56566
H	6.65968	-2.65206	2.39092
N	5.8858	-0.459018	1.02336
C	5.35973	0.30019	-0.0836263
C	6.49065	0.555205	-1.06218
O	7.6523	0.280407	-0.767634
H	6.86539	-0.369423	1.17898
H	4.61369	-0.291063	-0.599829
C	4.75239	1.63467	0.401714
H	5.52002	2.24619	0.922123
H	4.33149	2.22221	-0.439806
H	3.93243	1.42405	1.12257
N	6.17325	1.08277	-2.2609
C	7.18213	1.35489	-3.25803
H	5.22714	1.29461	-2.48245
H	6.72285	1.78629	-4.17465
H	7.71705	0.41945	-3.54104
H	7.93446	2.07848	-2.86872
