44
  This energy is -3.5332 and Call times are: 459
C	-2.61747	0.510679	2.23623
C	-1.2451	0.782031	1.75237
O	-0.58941	1.7136	2.19808
H	-2.8956	1.27145	2.99765
H	-2.66754	-0.49689	2.69996
H	-3.33829	0.565661	1.39333
N	-0.774425	-0.0394992	0.811138
C	0.526632	0.123595	0.211795
C	0.472816	-0.43933	-1.19596
O	-0.507447	-1.07179	-1.58428
H	-1.3353	-0.768387	0.429031
H	0.751769	1.17954	0.128563
C	1.6109	-0.597507	1.04222
H	1.386	-1.68266	1.11903
H	2.61927	-0.467697	0.598518
H	1.62699	-0.175025	2.07062
N	1.52993	-0.213283	-2.0006
C	1.5656	-0.70559	-3.358
H	2.31214	0.304161	-1.66973
H	2.5172	-0.416719	-3.85622
H	0.719228	-0.287585	-3.94979
H	1.4836	-1.8165	-3.37548
C	4.96766	0.805652	-3.34369
C	5.35111	-0.147344	-2.2779
O	5.48657	-1.33998	-2.51389
H	4.82666	0.252529	-4.29765
H	5.76548	1.56511	-3.48316
H	4.01636	1.31353	-3.07879
N	5.53514	0.367196	-1.0598
C	5.86854	-0.440564	0.0869014
C	5.32534	0.248192	1.32469
O	4.86514	1.38656	1.26118
H	5.38121	1.33357	-0.874631
H	5.37034	-1.39862	0.00600952
C	7.39672	-0.632745	0.200827
H	7.90746	0.34931	0.294439
H	7.66539	-1.2646	1.07209
H	7.77352	-1.13111	-0.718953
N	5.359	-0.434819	2.48588
C	4.8594	0.137572	3.71427
H	5.73144	-1.35646	2.51654
H	4.97459	-0.578807	4.55734
H	3.77953	0.394068	3.61739
H	5.41426	1.06979	3.96772
