44
  This energy is 0 and Call times are: 7477
C	1.0142	-1.06763	3.15345
C	-0.0369836	-0.721223	2.17052
O	-1.21312	-0.981696	2.38327
H	0.548872	-1.57905	4.02397
H	1.52482	-0.147651	3.50793
H	1.75953	-1.74951	2.69236
N	0.372015	-0.117615	1.05215
C	-0.528039	0.241693	-0.0152619
C	0.250309	0.221234	-1.3173
O	1.47313	0.0931266	-1.3181
H	1.33751	0.0508863	0.875219
H	-1.3067	-0.506807	-0.0931357
C	-1.14152	1.63819	0.226969
H	-0.343666	2.40803	0.296416
H	-1.84705	1.92046	-0.581159
H	-1.69952	1.63212	1.18871
N	-0.44686	0.339515	-2.46447
C	0.207891	0.325167	-3.75182
H	-1.43626	0.438156	-2.4437
H	-0.535234	0.434437	-4.57222
H	0.757715	-0.632098	-3.90219
H	0.941186	1.16029	-3.82916
C	114.772	-3.26859	-0.687852
C	115.688	-2.28572	-0.0657513
O	116.539	-2.63532	0.74051
H	114.994	-4.28168	-0.287398
H	114.913	-3.2788	-1.78916
H	113.718	-3.0119	-0.452336
N	115.528	-1.01176	-0.431793
C	116.315	0.0633968	0.119352
C	115.481	1.3299	0.0764623
O	114.406	1.35644	-0.520595
H	114.804	-0.737227	-1.05818
H	116.528	-0.147175	1.15989
C	117.626	0.251257	-0.675174
H	117.407	0.477721	-1.74053
H	118.247	1.06723	-0.252052
H	118.216	-0.690136	-0.636854
N	115.956	2.41381	0.720757
C	115.229	3.66162	0.739151
H	116.826	2.37171	1.20175
H	115.783	4.43133	1.32009
H	114.227	3.52514	1.2056
H	115.079	4.04432	-0.296282
