44
  This energy is -1.7202 and Call times are: 755
C	-0.362045	-1.43442	3.15025
C	-0.28331	-1.53161	1.67529
O	-0.17463	-2.61472	1.1172
H	-0.288566	-2.45285	3.58988
H	-1.32946	-0.981319	3.45282
H	0.473622	-0.814457	3.53806
N	-0.335109	-0.380449	1.0011
C	-0.227218	-0.310979	-0.4349
C	0.37406	1.03329	-0.799553
O	0.526305	1.90695	0.0520573
H	-0.382449	0.496146	1.47142
H	0.458592	-1.07511	-0.778989
C	-1.60976	-0.484373	-1.10105
H	-2.31063	0.305593	-0.756415
H	-1.53803	-0.446629	-2.20737
H	-2.03427	-1.47116	-0.814019
N	0.739763	1.2275	-2.08196
C	1.32554	2.47273	-2.52065
H	0.612453	0.507175	-2.75575
H	1.55754	2.43671	-3.60789
H	2.27034	2.6788	-1.96733
H	0.626938	3.32129	-2.33892
C	5.29724	3.21203	1.03364
C	5.21016	2.08402	0.0790901
O	4.37386	2.07333	-0.813605
H	4.50647	3.95632	0.795776
H	6.28937	3.70419	0.954988
H	5.14697	2.84738	2.07168
N	6.08664	1.0918	0.251366
C	6.09738	-0.0922253	-0.571138
C	6.64789	-1.2382	0.256665
O	7.14469	-1.03431	1.3627
H	6.73463	1.09561	1.00764
H	5.0806	-0.34877	-0.841258
C	6.95607	0.122934	-1.83668
H	8.00183	0.375811	-1.56014
H	6.96102	-0.777063	-2.48514
H	6.53967	0.97106	-2.42289
N	6.56383	-2.47982	-0.260364
C	7.05623	-3.63244	0.4574
H	6.15476	-2.6253	-1.15511
H	6.89598	-4.56138	-0.133042
H	6.52955	-3.74208	1.43304
H	8.14645	-3.53117	0.663081
