44
  This energy is -1.9727 and Call times are: 1807
C	0.0451776	-2.4997	2.42118
C	-0.360909	-1.97379	1.09844
O	-0.862666	-2.70307	0.254163
H	-0.166624	-3.59022	2.46365
H	-0.525155	-1.99121	3.22672
H	1.13232	-2.33834	2.57983
N	-0.146732	-0.673322	0.885633
C	-0.449633	-0.0267451	-0.366864
C	0.500038	1.14411	-0.536534
O	1.23172	1.50023	0.385169
H	0.300137	-0.101323	1.56754
H	-0.259958	-0.716366	-1.17993
C	-1.91613	0.456656	-0.397698
H	-2.10844	1.17228	0.429916
H	-2.16567	0.943976	-1.36246
H	-2.59289	-0.415365	-0.263814
N	0.516076	1.76821	-1.7308
C	1.39098	2.88864	-1.98647
H	-0.0803576	1.46293	-2.46574
H	1.2569	3.26327	-3.02517
H	2.45701	2.59241	-1.85562
H	1.17585	3.72416	-1.28166
C	5.01355	-0.524862	3.31064
C	4.70634	-0.459539	1.86409
O	3.64086	-0.868941	1.42413
H	4.16074	-0.995631	3.84633
H	5.17176	0.497084	3.71479
H	5.92569	-1.13482	3.48096
N	5.65131	0.0641596	1.07977
C	5.51521	0.155218	-0.35262
C	6.90262	0.101045	-0.963948
O	7.90575	0.160961	-0.255535
H	6.52986	0.35549	1.44737
H	4.96913	-0.70678	-0.715079
C	4.79612	1.46096	-0.756572
H	5.36148	2.34583	-0.394054
H	4.67288	1.53629	-1.85642
H	3.78631	1.48275	-0.291657
N	6.99153	-0.0229703	-2.30288
C	8.26949	-0.0881974	-2.97275
H	6.16854	-0.0740077	-2.8589
H	8.13262	-0.189811	-4.07192
H	8.85861	-0.961782	-2.61071
H	8.86343	0.833772	-2.77693
