44
  This energy is -3.6098 and Call times are: 1165
C	-1.65594	2.76484	1.31386
C	-1.62911	1.52324	0.508347
O	-2.66275	1.00688	0.106625
H	-2.711	3.07777	1.47132
H	-1.11558	3.57689	0.783449
H	-1.18163	2.58989	2.30255
N	-0.424482	1.00755	0.252799
C	-0.240077	-0.219502	-0.481307
C	1.04668	-0.866783	-0.00504096
O	1.81464	-0.26543	0.743514
H	0.405363	1.41677	0.621251
H	-1.0492	-0.900355	-0.24808
C	-0.18033	0.050339	-2.0008
H	0.656134	0.740464	-2.24182
H	-0.0524403	-0.888335	-2.57791
H	-1.12874	0.531289	-2.3257
N	1.30863	-2.12031	-0.424656
C	2.50609	-2.81856	-0.0188093
H	0.673135	-2.5921	-1.02685
H	2.53952	-3.83567	-0.46779
H	2.54299	-2.92343	1.08976
H	3.41484	-2.26177	-0.34334
C	7.0485	-2.84999	-1.85204
C	6.48501	-2.18346	-0.65648
O	5.80545	-2.8014	0.151457
H	6.73398	-3.91622	-1.86059
H	8.15755	-2.80262	-1.82955
H	6.67636	-2.35813	-2.77544
N	6.75825	-0.884089	-0.517331
C	6.24478	-0.0903522	0.571192
C	6.11847	1.34365	0.0924008
O	6.58222	1.68842	-0.992852
H	7.27863	-0.385454	-1.20466
H	5.25002	-0.434212	0.825817
C	7.17669	-0.17079	1.80014
H	8.19457	0.191765	1.54221
H	6.78503	0.42519	2.64981
H	7.26071	-1.22984	2.12831
N	5.47545	2.21596	0.893414
C	5.30202	3.60002	0.518624
H	5.10345	1.91726	1.76604
H	4.74861	4.15484	1.30802
H	4.72891	3.6803	-0.433412
H	6.28961	4.09363	0.369728
