44
  This energy is -1.4852 and Call times are: 1505
C	-1.98455	2.68846	0.97285
C	-1.69351	1.53501	0.0919454
O	-2.53168	1.10871	-0.690449
H	-3.02765	3.03058	0.797422
H	-1.28961	3.52519	0.749933
H	-1.87756	2.39313	2.03795
N	-0.477841	0.994645	0.203932
C	-0.0629576	-0.158614	-0.555294
C	0.979105	-0.907653	0.253779
O	1.4498	-0.420209	1.27972
H	0.179363	1.32694	0.874402
H	-0.908085	-0.822814	-0.686552
C	0.51391	0.261021	-1.9251
H	1.38747	0.934006	-1.79085
H	0.824207	-0.619043	-2.52487
H	-0.263035	0.814297	-2.49658
N	1.35931	-2.12259	-0.188255
C	2.34111	-2.91115	0.519153
H	0.964113	-2.50202	-1.01827
H	2.51831	-3.87795	-0.00153854
H	1.99658	-3.12947	1.55593
H	3.31013	-2.36544	0.5851
C	4.3718	-0.462932	-1.97477
C	5.83468	-0.308977	-1.80918
O	6.60336	-0.531747	-2.73434
H	4.15348	-0.80749	-3.00892
H	3.86303	0.509208	-1.80493
H	3.98229	-1.21432	-1.2559
N	6.25783	0.0802206	-0.604252
C	7.65401	0.232053	-0.278388
C	7.82352	-0.0240899	1.20729
O	6.84455	-0.143934	1.94142
H	5.6229	0.218128	0.150529
H	8.22736	-0.521922	-0.803184
C	8.15542	1.64614	-0.644723
H	7.57451	2.41963	-0.0985545
H	9.23267	1.77103	-0.411375
H	8.01438	1.81459	-1.73471
N	9.07956	-0.122826	1.68545
C	9.3384	-0.370879	3.0846
H	9.85893	-0.0270693	1.07513
H	10.4324	-0.418478	3.27974
H	8.88327	-1.33665	3.40306
H	8.90466	0.439398	3.71425
