44
  This energy is 0 and Call times are: 7393
C	2.10415	-2.47038	1.25796
C	1.32378	-1.22174	1.40983
O	1.13452	-0.723547	2.51092
H	2.42752	-2.82564	2.26051
H	3.00417	-2.28576	0.634574
H	1.48014	-3.25618	0.782314
N	0.843947	-0.681555	0.287185
C	0.0303624	0.508644	0.278987
C	-0.885673	0.44708	-0.928756
O	-0.739233	-0.421418	-1.78665
H	0.971682	-1.12092	-0.597412
H	-0.598379	0.517644	1.1606
C	0.909411	1.77746	0.227744
H	1.54699	1.77379	-0.681933
H	0.294945	2.70098	0.234969
H	1.57702	1.79755	1.1167
N	-1.86397	1.36946	-1.0192
C	-2.78698	1.38594	-2.13004
H	-1.96916	2.06178	-0.313008
H	-3.51655	2.21867	-2.02281
H	-3.35371	0.428243	-2.18404
H	-2.24158	1.51907	-3.0923
C	110.614	3.39813	-0.235074
C	111.033	1.98001	-0.167464
O	112.188	1.64952	-0.397893
H	111.484	4.02453	-0.529098
H	110.247	3.73629	0.756548
H	109.81	3.52384	-0.989862
N	110.086	1.09596	0.153657
C	110.331	-0.323314	0.216929
C	109.034	-1.0423	-0.102309
O	107.976	-0.421971	-0.195265
H	109.141	1.3756	0.298336
H	111.048	-0.596344	-0.547537
C	110.847	-0.732216	1.61396
H	110.108	-0.461847	2.39753
H	111.053	-1.82073	1.67116
H	111.793	-0.188155	1.82966
N	109.087	-2.37611	-0.286978
C	107.905	-3.14389	-0.599859
H	109.953	-2.85988	-0.211681
H	108.154	-4.22175	-0.714288
H	107.445	-2.78776	-1.55033
H	107.146	-3.04364	0.209319
