44
  This energy is -4.1491 and Call times are: 1333
C	2.93895	-1.23706	1.39462
C	1.7321	-1.38884	0.551049
O	1.5935	-2.35391	-0.187753
H	3.62483	-2.09263	1.21179
H	2.65646	-1.226	2.46831
H	3.46644	-0.293205	1.14165
N	0.818063	-0.420097	0.643063
C	-0.387878	-0.406739	-0.146929
C	-0.805081	1.03782	-0.348807
O	-0.244295	1.94639	0.260888
H	0.963873	0.379712	1.21831
H	-0.178819	-0.821811	-1.12501
C	-1.51285	-1.2029	0.550078
H	-1.73498	-0.771031	1.54917
H	-2.44259	-1.21171	-0.054917
H	-1.18265	-2.25475	0.694732
N	-1.80107	1.28476	-1.22233
C	-2.26175	2.62858	-1.48331
H	-2.23985	0.536774	-1.70923
H	-3.08558	2.62371	-2.23064
H	-1.43244	3.258	-1.87998
H	-2.63877	3.10331	-0.548625
C	8.10038	0.916762	2.83389
C	7.14618	1.2165	1.74264
O	6.47741	2.24075	1.75011
H	8.06289	1.73197	3.5888
H	9.13272	0.847082	2.43117
H	7.83032	-0.0413711	3.32594
N	7.05981	0.311793	0.764667
C	6.1454	0.443259	-0.34219
C	5.78306	-0.94882	-0.824264
O	6.3742	-1.93771	-0.394902
H	7.5807	-0.536561	0.793356
H	5.23261	0.913051	0.00239467
C	6.77873	1.26476	-1.48643
H	7.70957	0.777649	-1.84742
H	6.07933	1.38483	-2.33903
H	7.0431	2.27666	-1.10895
N	4.78968	-1.05864	-1.72823
C	4.37225	-2.34304	-2.24033
H	4.3204	-0.247276	-2.06072
H	3.54296	-2.22404	-2.97201
H	4.01799	-2.99954	-1.41281
H	5.21901	-2.85691	-2.75029
