44
  This energy is -3.9543 and Call times are: 394
C	0.767176	-3.39447	-0.0408252
C	0.261235	-2.18083	0.639058
O	-0.314948	-2.25217	1.71578
H	0.51641	-4.28902	0.569735
H	1.86982	-3.33639	-0.157192
H	0.295116	-3.49794	-1.0406
N	0.467448	-1.02009	0.0125466
C	-0.00464859	0.240553	0.52876
C	-0.252648	1.16922	-0.644965
O	0.10306	0.858355	-1.78011
H	0.901766	-0.982264	-0.882889
H	-0.954249	0.0895204	1.02684
C	1.02426	0.858896	1.50048
H	1.99549	1.02381	0.987112
H	0.666246	1.82332	1.9155
H	1.1962	0.158925	2.34714
N	-0.880937	2.33546	-0.397659
C	-1.16469	3.27983	-1.45304
H	-1.1648	2.56753	0.526807
H	-1.68599	4.1757	-1.04945
H	-1.81473	2.8166	-2.23031
H	-0.222741	3.61406	-1.94515
C	5.5359	-2.19419	-2.67383
C	4.99832	-1.84874	-1.3386
O	4.15124	-2.54594	-0.797516
H	5.03778	-3.11701	-3.04279
H	6.62927	-2.37668	-2.61067
H	5.33987	-1.36894	-3.39049
N	5.48624	-0.743663	-0.770158
C	5.02979	-0.255932	0.507467
C	5.20425	1.25095	0.528274
O	5.81525	1.82666	-0.370027
H	6.14546	-0.164196	-1.24081
H	3.97119	-0.459538	0.610091
C	5.82124	-0.908647	1.66194
H	6.90612	-0.69123	1.56295
H	5.46969	-0.551594	2.65161
H	5.68554	-2.01153	1.62238
N	4.66003	1.92925	1.55771
C	4.77029	3.36584	1.65894
H	4.16578	1.44627	2.27291
H	4.25813	3.73604	2.57428
H	4.30623	3.85872	0.774067
H	5.83939	3.67568	1.7055
