44
  This energy is -3.1664 and Call times are: 2379
C	-0.730489	0.369504	3.38268
C	0.0832936	-0.186692	2.27835
O	1.14612	-0.751321	2.49746
H	-0.207356	0.195614	4.34807
H	-1.72191	-0.129199	3.41625
H	-0.871058	1.46197	3.24182
N	-0.406003	-0.0342858	1.04557
C	0.292202	-0.484197	-0.132836
C	-0.112041	0.407731	-1.29154
O	-1.02721	1.22001	-1.17158
H	-1.25244	0.463627	0.879753
H	1.35782	-0.359357	0.0138297
C	-0.0426137	-1.95967	-0.442842
H	-1.13443	-2.0864	-0.603796
H	0.499667	-2.32204	-1.34014
H	0.254303	-2.59283	0.421627
N	0.571796	0.281597	-2.44588
C	0.261536	1.09179	-3.60066
H	1.31181	-0.378396	-2.52239
H	0.934157	0.83989	-4.44998
H	0.384028	2.17393	-3.36561
H	-0.791099	0.926109	-3.9257
C	6.20623	0.796175	3.35719
C	6.7105	0.643323	1.9739
O	7.81153	1.06748	1.65104
H	6.96113	1.34044	3.96527
H	6.02923	-0.20094	3.81236
H	5.25904	1.37576	3.35734
N	5.90018	0.0248397	1.11179
C	6.23399	-0.160211	-0.278494
C	4.94223	-0.210195	-1.07248
O	3.85425	-0.26452	-0.502339
H	4.99007	-0.278479	1.37929
H	6.79474	0.697522	-0.628459
C	7.04579	-1.45806	-0.482929
H	6.46673	-2.33944	-0.133765
H	7.32085	-1.60472	-1.54752
H	7.98265	-1.40271	0.113367
N	5.03315	-0.184284	-2.41676
C	3.85738	-0.222526	-3.25477
H	5.92224	-0.136077	-2.85978
H	4.13979	-0.192197	-4.33021
H	3.19476	0.647444	-3.04177
H	3.27409	-1.1538	-3.07136
