44
  This energy is -3.5524 and Call times are: 1477
C	-2.20773	-0.361833	2.66603
C	-1.18674	0.401716	1.91388
O	-0.953705	1.57397	2.1745
H	-2.67757	0.301455	3.42443
H	-1.7365	-1.22316	3.18448
H	-2.99463	-0.731833	1.97538
N	-0.546497	-0.257742	0.945595
C	0.44226	0.363205	0.0998136
C	0.434874	-0.350382	-1.23895
O	-0.209117	-1.38573	-1.39721
H	-0.776087	-1.19977	0.718156
H	0.160919	1.39297	-0.0819885
C	1.84382	0.290436	0.744467
H	2.13735	-0.766224	0.921509
H	2.61172	0.777501	0.109161
H	1.82369	0.811896	1.72631
N	1.14956	0.195646	-2.2425
C	1.19746	-0.409923	-3.55291
H	1.6609	1.03602	-2.09632
H	1.8366	0.188038	-4.23933
H	0.176026	-0.475261	-3.99299
H	1.61473	-1.44123	-3.4943
C	5.2776	2.7176	0.0897136
C	5.654	1.36501	-0.379278
O	4.85303	0.654511	-0.970923
H	4.21471	2.91391	-0.170281
H	5.91479	3.48359	-0.400173
H	5.39686	2.78754	1.19151
N	6.90319	0.972733	-0.11844
C	7.40223	-0.332259	-0.474126
C	8.48749	-0.709774	0.516456
O	8.91586	0.111735	1.32474
H	7.53095	1.54625	0.400079
H	6.60593	-1.05906	-0.372709
C	7.95885	-0.336242	-1.91475
H	8.78289	0.401754	-2.01657
H	8.33353	-1.33907	-2.2054
H	7.14983	-0.0495003	-2.62157
N	8.95385	-1.97362	0.481483
C	9.98247	-2.42516	1.38935
H	8.5919	-2.62512	-0.177013
H	10.2298	-3.49358	1.20342
H	9.64619	-2.32211	2.44651
H	10.911	-1.82287	1.26218
