44
  This energy is -4.2264 and Call times are: 1086
C	0.738426	1.89014	2.8275
C	1.06015	1.39585	1.46982
O	1.97589	1.88119	0.819989
H	1.42718	2.72301	3.08794
H	0.862918	1.07501	3.57102
H	-0.30658	2.26422	2.86091
N	0.298617	0.403283	1.00371
C	0.462677	-0.153099	-0.316172
C	-0.883251	-0.678677	-0.778556
O	-1.83598	-0.738461	-0.00367542
H	-0.469121	0.0463683	1.52817
H	0.75474	0.6329	-1.0014
C	1.51328	-1.28511	-0.311011
H	1.20892	-2.09659	0.383895
H	1.65876	-1.71236	-1.32433
H	2.48797	-0.879617	0.0381324
N	-0.994908	-1.06643	-2.06433
C	-2.23823	-1.57476	-2.5953
H	-0.213927	-1.00673	-2.67717
H	-2.12795	-1.83929	-3.67005
H	-3.04556	-0.812534	-2.50303
H	-2.55899	-2.48623	-2.04079
C	4.87186	2.99819	1.04117
C	6.02183	2.07334	0.925509
O	7.15693	2.43723	1.20038
H	5.23376	3.9939	1.37797
H	4.14251	2.61098	1.78338
H	4.37168	3.1119	0.0563066
N	5.7482	0.835673	0.506363
C	6.76769	-0.163325	0.303415
C	6.28853	-1.11562	-0.775985
O	5.13515	-1.05994	-1.19826
H	4.82503	0.566408	0.247294
H	7.66757	0.314102	-0.0638955
C	7.05711	-0.93008	1.61245
H	6.13665	-1.42877	1.98406
H	7.85032	-1.69282	1.47254
H	7.39857	-0.212571	2.39022
N	7.1725	-2.01237	-1.25605
C	6.80816	-2.95498	-2.288
H	8.1025	-2.03936	-0.904714
H	7.67119	-3.6069	-2.54764
H	6.48216	-2.42136	-3.21009
H	5.96806	-3.6035	-1.94917
