44
  This energy is -5.3241 and Call times are: 847
C	-0.87491	3.36856	-0.00483426
C	-0.12668	2.21725	0.548131
O	0.765276	2.37771	1.36976
H	-0.475325	4.30989	0.431188
H	-1.95208	3.28316	0.250423
H	-0.75863	3.40604	-1.10854
N	-0.478635	1.01007	0.0995473
C	0.186234	-0.200765	0.512332
C	0.075848	-1.20912	-0.615757
O	-0.642267	-0.989008	-1.58919
H	-1.17891	0.898838	-0.599817
H	1.23935	0.00286183	0.661065
C	-0.444447	-0.763263	1.80503
H	-1.52241	-0.982227	1.64986
H	0.0677618	-1.68815	2.14081
H	-0.359466	-0.00577579	2.61456
N	0.796914	-2.343	-0.513677
C	0.759463	-3.35766	-1.54092
H	1.37539	-2.50132	0.279651
H	1.41944	-4.21224	-1.27381
H	1.1018	-2.94198	-2.51626
H	-0.277089	-3.74339	-1.67478
C	7.38592	-3.01149	0.606158
C	6.22471	-2.1059	0.756653
O	5.16796	-2.50437	1.22666
H	7.10698	-4.02814	0.958976
H	8.24001	-2.64256	1.2121
H	7.68848	-3.07175	-0.460566
N	6.39843	-0.845757	0.351384
C	5.34761	0.140369	0.394779
C	5.59919	1.1486	-0.710553
O	6.6503	1.13482	-1.34826
H	7.25135	-0.546779	-0.0669409
H	4.39937	-0.338577	0.184812
C	5.30679	0.842952	1.76953
H	6.27582	1.34337	1.98077
H	4.49284	1.59491	1.82026
H	5.1296	0.0852574	2.56379
N	4.62919	2.04749	-0.969609
C	4.77734	3.04163	-2.00686
H	3.78394	2.04023	-0.445613
H	3.8731	3.68674	-2.06534
H	4.92587	2.55567	-2.99836
H	5.65949	3.69151	-1.80532
