44
  This energy is -4.9435 and Call times are: 1779
C	0.857438	1.70193	-2.9122
C	0.963074	1.48199	-1.4522
O	1.82954	2.03582	-0.789691
H	1.66539	2.39203	-3.23908
H	-0.125019	2.15549	-3.1608
H	0.967046	0.738434	-3.45327
N	0.0685633	0.651812	-0.910867
C	0.0711629	0.305864	0.48873
C	-0.522228	-1.0828	0.633798
O	-1.05434	-1.64334	-0.322425
H	-0.605096	0.176725	-1.46974
H	1.09332	0.258502	0.843101
C	-0.740432	1.33019	1.31172
H	-1.79182	1.3715	0.955469
H	-0.734443	1.08248	2.39298
H	-0.293224	2.3402	1.18434
N	-0.436203	-1.67661	1.84046
C	-0.967796	-2.99956	2.0715
H	0.00168392	-1.20879	2.60103
H	-0.7991	-3.31264	3.12542
H	-0.47662	-3.74263	1.40227
H	-2.0631	-3.02387	1.86934
C	2.94104	-1.89432	-0.796288
C	3.74665	-1.09357	0.152903
O	3.28539	-0.732249	1.22673
H	1.92762	-2.05899	-0.370009
H	3.42223	-2.87968	-0.970228
H	2.84138	-1.35615	-1.76247
N	4.9894	-0.792168	-0.230644
C	5.87823	0.0161059	0.566366
C	6.83368	0.73206	-0.369644
O	6.87415	0.449149	-1.56548
H	5.33675	-1.05862	-1.12519
H	5.30408	0.774797	1.08343
C	6.65911	-0.853804	1.57569
H	7.25655	-1.62559	1.04515
H	7.33685	-0.241129	2.20483
H	5.93987	-1.37434	2.24507
N	7.62408	1.68884	0.155566
C	8.56053	2.4272	-0.659333
H	7.57401	1.90645	1.1247
H	9.11713	3.16873	-0.0448702
H	8.02864	2.97376	-1.47152
H	9.29814	1.73895	-1.13197
