44
  This energy is 0 and Call times are: 7701
C	-2.56814	-2.33429	0.26151
C	-1.65956	-1.48024	-0.536117
O	-1.56433	-1.61633	-1.74807
H	-3.07432	-3.06048	-0.41103
H	-3.33847	-1.71069	0.761973
H	-1.99204	-2.89511	1.02746
N	-0.958493	-0.566666	0.139356
C	-0.0023248	0.307956	-0.492577
C	1.05948	0.665781	0.530204
O	0.923	0.359652	1.71315
H	-1.0163	-0.49537	1.13104
H	0.490747	-0.223459	-1.29701
C	-0.690335	1.58298	-1.02755
H	-1.1874	2.13407	-0.200959
H	0.0331602	2.25822	-1.52868
H	-1.46869	1.29674	-1.76822
N	2.15362	1.31979	0.0929769
C	3.21882	1.69674	0.992665
H	2.24794	1.55523	-0.86866
H	4.02911	2.22488	0.443369
H	3.65632	0.796704	1.48235
H	2.83768	2.3734	1.79142
C	132.082	1.76464	-2.73519
C	132.277	0.966043	-1.50422
O	133.378	0.525574	-1.20341
H	133.05	1.84861	-3.27586
H	131.725	2.78379	-2.47752
H	131.341	1.27022	-3.39862
N	131.193	0.75698	-0.754188
C	131.217	-0.0367143	0.449153
C	129.841	-0.648412	0.639712
O	128.896	-0.304585	-0.0668795
H	130.296	1.08732	-1.03336
H	131.918	-0.852311	0.325242
C	131.6	0.826015	1.67155
H	130.874	1.65669	1.80537
H	131.635	0.223382	2.6022
H	132.606	1.26987	1.50675
N	129.7	-1.58242	1.60082
C	128.43	-2.22357	1.85109
H	130.478	-1.85043	2.15965
H	128.519	-2.96101	2.67912
H	128.075	-2.75918	0.941195
H	127.659	-1.47089	2.13237
