44
  This energy is 0 and Call times are: 7757
C	-1.4822	2.82388	1.39337
C	-1.55908	1.46827	0.803824
O	-2.59519	0.819116	0.842282
H	-2.46359	3.08352	1.84652
H	-1.24068	3.56991	0.607344
H	-0.702395	2.85395	2.18337
N	-0.443072	1.00324	0.237557
C	-0.350921	-0.314731	-0.339519
C	1.08948	-0.778612	-0.231708
O	1.97466	-0.00566204	0.129832
H	0.403913	1.527	0.250292
H	-0.955207	-1.00149	0.239993
C	-0.807382	-0.304132	-1.81491
H	-0.180963	0.392347	-2.41203
H	-0.75419	-1.31594	-2.2665
H	-1.86125	0.0460272	-1.87051
N	1.3571	-2.06355	-0.537238
C	2.69749	-2.59584	-0.458568
H	0.626872	-2.67484	-0.823886
H	2.71186	-3.66961	-0.748458
H	3.09497	-2.50745	0.578484
H	3.3819	-2.03951	-1.13918
C	135.06	0.250469	-3.4337
C	135.384	-0.317932	-2.10606
O	136.126	-1.28459	-1.99551
H	135.569	-0.344679	-4.22256
H	135.409	1.30255	-3.49542
H	133.963	0.21439	-3.6077
N	134.824	0.279442	-1.05164
C	135.011	-0.185716	0.300069
C	133.782	0.191065	1.10455
O	132.921	0.930234	0.630467
H	134.19	1.03987	-1.16054
H	135.078	-1.26654	0.299902
C	136.279	0.434996	0.926471
H	136.207	1.54346	0.936491
H	136.442	0.0738473	1.96261
H	137.166	0.152845	0.317095
N	133.666	-0.319243	2.34645
C	132.528	-0.0205821	3.18371
H	134.371	-0.91881	2.71114
H	132.617	-0.534049	4.16639
H	131.584	-0.356415	2.69713
H	132.451	1.07572	3.3664
