44
  This energy is -4.8328 and Call times are: 1222
C	2.73871	-0.595805	-2.06329
C	1.28005	-0.51932	-1.82331
O	0.48281	-0.565709	-2.74996
H	2.92746	-0.676224	-3.15589
H	3.16328	-1.48896	-1.55855
H	3.23827	0.318294	-1.67864
N	0.893544	-0.39596	-0.551392
C	-0.489252	-0.266547	-0.164498
C	-0.546818	0.528419	1.12634
O	0.480345	0.799649	1.74528
H	1.55585	-0.318401	0.18834
H	-1.0192	0.302828	-0.917885
C	-1.14144	-1.65372	0.0243277
H	-0.60456	-2.23421	0.804603
H	-2.21015	-1.5676	0.308877
H	-1.08081	-2.22076	-0.930207
N	-1.75796	0.929795	1.56001
C	-1.91013	1.69556	2.77518
H	-2.57723	0.704157	1.04334
H	-2.98158	1.92924	2.96118
H	-1.34871	2.65551	2.70741
H	-1.51807	1.12732	3.64955
C	6.47614	-2.08534	-2.69014
C	6.86719	-1.07363	-1.68283
O	8.04125	-0.781962	-1.50136
H	7.38947	-2.49049	-3.1775
H	5.82983	-1.62326	-3.4657
H	5.92904	-2.91947	-2.2023
N	5.87385	-0.508657	-0.992554
C	6.10037	0.460626	0.0503903
C	4.96059	0.358761	1.04643
O	3.97297	-0.332561	0.804821
H	4.9263	-0.786163	-1.12293
H	7.01277	0.211389	0.577665
C	6.18434	1.88848	-0.53222
H	5.24448	2.14859	-1.06423
H	6.37239	2.64251	0.259351
H	7.01988	1.93762	-1.2642
N	5.07624	1.04374	2.20118
C	4.04434	1.00272	3.21098
H	5.88477	1.59442	2.38038
H	4.32485	1.63008	4.08561
H	3.88315	-0.0410622	3.56567
H	3.07949	1.38144	2.8026
