44
  This energy is -2.4089 and Call times are: 213
C	2.02267	2.79946	-0.429544
C	0.766844	2.15508	0.0163404
O	-0.049436	2.76202	0.695839
H	2.06257	3.83817	-0.035365
H	2.06218	2.83419	-1.53859
H	2.89916	2.23568	-0.04612
N	0.583493	0.887776	-0.361426
C	-0.568613	0.114901	0.0308457
C	-0.165091	-1.34689	0.0742267
O	0.927966	-1.7115	-0.354733
H	1.27585	0.394191	-0.879965
H	-0.864079	0.397862	1.03347
C	-1.73655	0.325122	-0.957576
H	-1.43733	0.0250544	-1.98445
H	-2.63422	-0.253999	-0.658704
H	-2.00974	1.40274	-0.979018
N	-1.04162	-2.22203	0.605133
C	-0.742214	-3.63225	0.693562
H	-1.91946	-1.9074	0.950782
H	-1.58722	-4.18519	1.15987
H	0.170326	-3.80215	1.30974
H	-0.559565	-4.05953	-0.318965
C	6.56673	-0.0185401	3.29061
C	6.75913	-0.668878	1.97486
O	6.56169	-1.86691	1.826
H	6.25574	-0.782499	4.03593
H	5.77677	0.758592	3.22151
H	7.51568	0.448342	3.62912
N	7.15809	0.120948	0.97516
C	7.42873	-0.374773	-0.351327
C	8.47274	0.523172	-0.987957
O	8.81627	1.57199	-0.446043
H	7.35411	1.08636	1.12146
H	7.85621	-1.36724	-0.281463
C	6.14172	-0.398297	-1.20474
H	5.70854	0.621447	-1.28548
H	6.33435	-0.791146	-2.22409
H	5.38921	-1.05492	-0.715953
N	9.01079	0.124814	-2.1575
C	10.0152	0.911663	-2.83438
H	8.72298	-0.729009	-2.57848
H	10.3321	0.416676	-3.77874
H	10.9135	1.0417	-2.18834
H	9.62007	1.92299	-3.08384
