44
  This energy is -0.8806 and Call times are: 1591
C	2.11373	2.75173	0.269788
C	1.87422	1.31118	0.0277391
O	2.75611	0.58863	-0.415664
H	3.15431	3.00608	-0.0274976
H	1.98017	2.98623	1.34678
H	1.4085	3.36328	-0.331682
N	0.652961	0.855858	0.316842
C	0.256828	-0.512428	0.0945046
C	-1.23811	-0.536193	-0.162719
O	-1.92177	0.472199	0.00300355
H	-0.0665446	1.46472	0.638496
H	0.743702	-0.884716	-0.798237
C	0.610834	-1.39407	1.31214
H	0.103205	-1.01879	2.2262
H	0.323321	-2.45274	1.14762
H	1.70829	-1.35534	1.48661
N	-1.78158	-1.69481	-0.584928
C	-3.19467	-1.81074	-0.860478
H	-1.21147	-2.49891	-0.717142
H	-3.44661	-2.84072	-1.19647
H	-3.49877	-1.09703	-1.66011
H	-3.7929	-1.58299	0.0513223
C	5.9184	3.20839	1.06179
C	6.51776	2.2742	0.0824044
O	6.85205	2.65347	-1.03151
H	5.83153	4.21676	0.601895
H	6.56005	3.27944	1.96511
H	4.90597	2.85845	1.35437
N	6.6668	1.00943	0.483078
C	7.19506	-0.0236768	-0.3726
C	6.59933	-1.34916	0.0630241
O	5.94084	-1.43391	1.09787
H	6.35223	0.70687	1.37826
H	6.87242	0.155974	-1.39056
C	8.73674	-0.0708199	-0.293451
H	9.06803	-0.265584	0.748832
H	9.15642	-0.853197	-0.958486
H	9.15063	0.911776	-0.608944
N	6.81148	-2.41989	-0.727246
C	6.27889	-3.72104	-0.396266
H	7.34344	-2.33067	-1.56279
H	6.56144	-4.46976	-1.1688
H	5.16715	-3.68576	-0.332476
H	6.67032	-4.0673	0.587616
