44
  This energy is -1.5881 and Call times are: 1044
C	-1.3322	-1.10433	-3.01966
C	-1.43861	-0.367847	-1.74005
O	-2.38383	0.375022	-1.51397
H	-2.19848	-0.844479	-3.66613
H	-1.33863	-2.1988	-2.83298
H	-0.394879	-0.82472	-3.54534
N	-0.452175	-0.559693	-0.861116
C	-0.394724	0.120203	0.408923
C	1.06281	0.255406	0.807526
O	1.94507	-0.320444	0.173718
H	0.331314	-1.13573	-1.07604
H	-0.792606	1.12106	0.296643
C	-1.18103	-0.657389	1.48703
H	-0.76654	-1.68066	1.61008
H	-1.15594	-0.136874	2.46629
H	-2.24286	-0.751168	1.17069
N	1.35093	1.03236	1.87023
C	2.71004	1.22459	2.31973
H	0.623764	1.49348	2.3679
H	2.73989	1.89614	3.20594
H	3.3296	1.6803	1.51366
H	3.17222	0.250917	2.60167
C	8.23519	2.91558	0.968655
C	8.08784	1.44268	0.968349
O	8.96991	0.71819	1.40822
H	9.22643	3.18544	1.39347
H	7.43991	3.37961	1.58909
H	8.17014	3.30688	-0.0685179
N	6.95003	0.960195	0.463405
C	6.68026	-0.451983	0.356012
C	5.74349	-0.666637	-0.817857
O	5.21925	0.288233	-1.38804
H	6.25887	1.56077	0.0716495
H	7.60154	-0.975745	0.133466
C	6.0501	-0.993831	1.65776
H	5.09952	-0.464074	1.88089
H	5.85042	-2.08305	1.59265
H	6.74931	-0.818944	2.50444
N	5.51708	-1.93483	-1.21336
C	4.64467	-2.23578	-2.32445
H	5.95361	-2.69406	-0.742102
H	4.58822	-3.33365	-2.49399
H	5.01781	-1.75573	-3.25805
H	3.6151	-1.85751	-2.12946
