44
  This energy is -5.9897 and Call times are: 1361
C	-2.9347	-1.37437	-1.26937
C	-1.54748	-0.88471	-1.43362
O	-0.924021	-1.08411	-2.46704
H	-3.24236	-1.92097	-2.18722
H	-3.62592	-0.520003	-1.1112
H	-2.99655	-2.06507	-0.402073
N	-1.02508	-0.223378	-0.398192
C	0.327416	0.275912	-0.392614
C	0.814274	0.306784	1.0439
O	0.0395874	0.100023	1.97601
H	-1.53055	-0.104596	0.451665
H	0.964425	-0.412084	-0.934381
C	0.397499	1.68608	-1.01852
H	-0.247664	2.39471	-0.4567
H	1.43596	2.07584	-1.03267
H	0.0291261	1.6411	-2.06667
N	2.12089	0.559357	1.25598
C	2.67568	0.603183	2.58883
H	2.73296	0.72009	0.488774
H	3.76525	0.824238	2.5542
H	2.53241	-0.37307	3.1062
H	2.17672	1.39243	3.1965
C	5.65317	3.41104	-0.473692
C	5.03323	2.12056	-0.849863
O	4.12697	2.06888	-1.66988
H	5.15239	4.23444	-1.02785
H	6.73257	3.40728	-0.733746
H	5.53637	3.58838	0.616253
N	5.51562	1.03204	-0.245874
C	4.98539	-0.288649	-0.476506
C	5.20778	-1.11322	0.777364
O	5.9002	-0.684503	1.69848
H	6.22565	1.09465	0.449676
H	3.91599	-0.221897	-0.633217
C	5.67017	-0.953817	-1.69054
H	6.76596	-1.0321	-1.52578
H	5.26077	-1.96592	-1.8869
H	5.50115	-0.329364	-2.59488
N	4.61411	-2.32112	0.844848
C	4.76443	-3.17371	2.00099
H	4.05424	-2.64906	0.0911408
H	4.20067	-4.12296	1.86557
H	4.38143	-2.6661	2.91582
H	5.83714	-3.42358	2.1683
