44
  This energy is -6.0874 and Call times are: 550
C	0.716411	-2.41268	-2.40384
C	0.395225	-1.02314	-2.0074
O	0.485765	-0.100277	-2.80524
H	1.04154	-2.42551	-3.46685
H	-0.179866	-3.05877	-2.29434
H	1.53818	-2.81069	-1.77188
N	0.00833354	-0.841213	-0.742651
C	-0.296119	0.458688	-0.198476
C	-0.000855503	0.429591	1.28932
O	0.265747	-0.627447	1.85792
H	-0.021113	-1.59632	-0.0939519
H	0.361326	1.19515	-0.643466
C	-1.77405	0.82973	-0.45005
H	-2.44906	0.08016	0.0152896
H	-2.01739	1.83449	-0.0478602
H	-1.96937	0.83716	-1.54465
N	-0.0336653	1.60009	1.95631
C	0.239291	1.67079	3.37288
H	-0.247318	2.44552	1.4781
H	0.163456	2.71937	3.73613
H	1.265	1.29647	3.5944
H	-0.486394	1.04812	3.94455
C	9.86712	-1.67359	1.38892
C	8.519	-1.6594	0.777766
O	7.97918	-2.69418	0.411356
H	10.2457	-2.71838	1.41906
H	9.82167	-1.27777	2.42527
H	10.5664	-1.05515	0.787585
N	7.93758	-0.464338	0.650648
C	6.6456	-0.285901	0.0362413
C	6.60043	1.10157	-0.57568
O	7.4964	1.9151	-0.3586
H	8.40658	0.373177	0.916107
H	6.5326	-0.998437	-0.771314
C	5.51342	-0.457787	1.07252
H	5.62289	0.279937	1.89582
H	4.51302	-0.336435	0.608843
H	5.57071	-1.47712	1.51298
N	5.55204	1.402	-1.36728
C	5.42686	2.69566	-1.99732
H	4.83902	0.729124	-1.53437
H	4.49841	2.74765	-2.60766
H	6.29665	2.89321	-2.66495
H	5.38896	3.50384	-1.23145
