44
  This energy is -0.8366 and Call times are: 1704
C	1.13592	1.91388	2.67571
C	1.30975	0.831512	1.68102
O	2.39659	0.296397	1.51125
H	2.11161	2.12216	3.16615
H	0.402357	1.60725	3.4507
H	0.780144	2.83945	2.17588
N	0.223188	0.481741	0.988611
C	0.245356	-0.524779	-0.0433704
C	-0.841717	-0.195186	-1.04895
O	-1.6622	0.691798	-0.821392
H	-0.64499	0.954606	1.10916
H	1.19268	-0.479705	-0.566041
C	0.0224659	-1.93172	0.553344
H	-0.954012	-1.98157	1.08064
H	0.0511703	-2.71702	-0.229608
H	0.824759	-2.14837	1.29209
N	-0.867223	-0.90163	-2.19626
C	-1.86164	-0.654447	-3.2142
H	-0.192392	-1.61262	-2.3641
H	-1.71535	-1.33636	-4.0807
H	-1.79664	0.39592	-3.57996
H	-2.88694	-0.816283	-2.8096
C	4.24162	2.10896	-0.773356
C	5.17395	1.48848	0.194597
O	5.24744	1.88853	1.34827
H	3.69712	2.9414	-0.276947
H	3.50433	1.35895	-1.12922
H	4.80427	2.51429	-1.64066
N	5.92093	0.481056	-0.263125
C	6.90382	-0.193422	0.547766
C	7.99293	-0.718795	-0.368423
O	7.85965	-0.683083	-1.59017
H	5.87925	0.193641	-1.21576
H	7.36389	0.520758	1.21926
C	6.26185	-1.35022	1.34459
H	5.79889	-2.08858	0.655724
H	7.00583	-1.8687	1.9835
H	5.46264	-0.943734	2.00213
N	9.10717	-1.21448	0.204979
C	10.1988	-1.73162	-0.586886
H	9.19834	-1.23115	1.19517
H	11.0228	-2.09245	0.0673825
H	10.6053	-0.94145	-1.25892
H	9.85647	-2.58139	-1.2208
