44
  This energy is -2.9375 and Call times are: 1619
C	2.76704	0.756754	-1.97066
C	1.51566	1.13996	-1.27903
O	1.19557	2.31397	-1.15392
H	3.30187	1.67483	-2.29773
H	2.53689	0.137705	-2.86316
H	3.42425	0.183705	-1.28307
N	0.769471	0.139638	-0.80477
C	-0.452813	0.356787	-0.0716757
C	-0.647108	-0.808765	0.879793
O	0.0750777	-1.80173	0.815059
H	1.06367	-0.808986	-0.878449
H	-0.354199	1.25156	0.530234
C	-1.65706	0.479322	-1.03085
H	-1.76503	-0.442588	-1.64114
H	-2.60222	0.660566	-0.479174
H	-1.48963	1.33337	-1.72289
N	-1.62931	-0.710027	1.79716
C	-1.88484	-1.76705	2.74773
H	-2.20061	0.103073	1.83663
H	-2.73109	-1.4976	3.41741
H	-0.985327	-1.95463	3.37777
H	-2.14174	-2.71498	2.22181
C	9.66774	-0.891643	-3.23659
C	8.67968	-0.812461	-2.13721
O	7.49589	-1.05178	-2.33159
H	9.14705	-1.16782	-4.17917
H	10.4325	-1.66372	-3.00895
H	10.1652	0.0913732	-3.37557
N	9.15291	-0.466349	-0.937772
C	8.30721	-0.305858	0.218766
C	8.95298	0.712589	1.13926
O	10.0923	1.12214	0.924817
H	10.1123	-0.234773	-0.804117
H	7.35182	0.099183	-0.0907525
C	8.11319	-1.65156	0.951359
H	9.09214	-2.06235	1.27837
H	7.45253	-1.54385	1.83592
H	7.64672	-2.38372	0.256602
N	8.23109	1.15365	2.18824
C	8.76094	2.12677	3.11478
H	7.3094	0.813587	2.34292
H	8.01657	2.36109	3.90739
H	9.01922	3.07272	2.58587
H	9.68473	1.74143	3.60393
