44
  This energy is -2.6395 and Call times are: 1114
C	1.83432	-2.35322	1.79173
C	0.636773	-1.50422	1.60141
O	-0.364677	-1.65959	2.28652
H	1.63462	-3.09515	2.59519
H	2.70328	-1.72851	2.08734
H	2.0719	-2.89586	0.852485
N	0.714907	-0.57309	0.647855
C	-0.383829	0.299677	0.316769
C	-0.258361	0.684268	-1.14539
O	0.749626	0.396633	-1.78799
H	1.52199	-0.485828	0.0709108
H	-1.31558	-0.240485	0.429421
C	-0.376552	1.55921	1.21051
H	0.574809	2.11938	1.08738
H	-1.22588	2.23266	0.974657
H	-0.461299	1.25351	2.27621
N	-1.29082	1.34097	-1.71001
C	-1.26335	1.74268	-3.09712
H	-2.09967	1.56123	-1.17493
H	-2.20364	2.26905	-3.3728
H	-1.15107	0.854992	-3.76096
H	-0.407398	2.42899	-3.29069
C	5.45275	-2.40301	2.28945
C	5.55682	-1.87451	0.910677
O	5.25631	-2.56233	-0.0552447
H	5.098	-3.45596	2.25337
H	4.72895	-1.79984	2.87687
H	6.44563	-2.37513	2.78591
N	5.99492	-0.619384	0.787717
C	6.18958	0.0180484	-0.490698
C	7.2885	1.05315	-0.340663
O	7.73202	1.34455	0.768424
H	6.27453	-0.0859762	1.58091
H	6.53431	-0.716812	-1.20747
C	4.88393	0.681625	-0.980791
H	4.53552	1.44308	-0.250829
H	5.01722	1.16404	-1.97075
H	4.09181	-0.0928946	-1.07573
N	7.76164	1.62993	-1.46292
C	8.81082	2.62161	-1.41858
H	7.39297	1.37809	-2.35159
H	9.06125	2.97525	-2.44301
H	9.73292	2.19756	-0.959028
H	8.49533	3.50072	-0.811313
