44
  This energy is -2.9836 and Call times are: 970
C	-0.877876	3.15268	1.18433
C	-0.296267	2.263	0.154117
O	-0.0248445	2.68091	-0.963061
H	-1.01589	4.16931	0.756194
H	-0.197956	3.22054	2.05946
H	-1.86491	2.76398	1.51262
N	-0.091198	0.99365	0.513402
C	0.428046	-0.000250548	-0.392747
C	-0.107135	-1.35436	0.0332995
O	-0.714715	-1.48606	1.09406
H	-0.355246	0.658615	1.41335
H	0.0538933	0.195262	-1.38995
C	1.97244	-0.00134407	-0.384328
H	2.35681	-0.212314	0.636355
H	2.3845	-0.75298	-1.08844
H	2.34183	1.00143	-0.691483
N	0.1006	-2.39739	-0.794325
C	-0.377054	-3.72255	-0.474961
H	0.590824	-2.27027	-1.65024
H	-0.107858	-4.44207	-1.27935
H	-1.48526	-3.72357	-0.360298
H	0.0692176	-4.08152	0.480612
C	5.91581	1.55863	-3.11178
C	5.44106	0.508792	-2.18248
O	4.48683	-0.202493	-2.46522
H	5.26965	1.56797	-4.01635
H	6.96236	1.35227	-3.41982
H	5.86408	2.55432	-2.62291
N	6.1075	0.389177	-1.03185
C	5.73692	-0.557484	-0.00957096
C	6.16382	0.00505201	1.33314
O	6.86571	1.01235	1.39955
H	6.85646	1.00267	-0.798325
H	4.65888	-0.657636	0.0106805
C	6.40356	-1.9281	-0.259092
H	7.50984	-1.82767	-0.269464
H	6.11499	-2.66972	0.513726
H	6.08329	-2.31695	-1.25033
N	5.73962	-0.632922	2.44177
C	6.09114	-0.167292	3.76305
H	5.16895	-1.44406	2.36786
H	5.64669	-0.824371	4.54276
H	5.71943	0.870336	3.92565
H	7.19714	-0.16273	3.89687
