44
  This energy is 0.1051 and Call times are: 1449
C	3.46019	0.106636	-0.358279
C	2.16082	-0.595516	-0.45704
O	2.06328	-1.66777	-1.0377
H	4.23824	-0.484266	-0.888721
H	3.7559	0.216486	0.706255
H	3.3893	1.11058	-0.827503
N	1.11608	0.00609697	0.116501
C	-0.219909	-0.533546	0.0666536
C	-1.19992	0.622095	0.141721
O	-0.811909	1.76164	0.391916
H	1.20322	0.898472	0.550022
H	-0.37178	-1.02385	-0.886848
C	-0.459074	-1.52266	1.22842
H	-0.3137	-1.01745	2.20702
H	-1.47977	-1.95562	1.19305
H	0.27412	-2.35562	1.15806
N	-2.50126	0.353984	-0.0833074
C	-3.50547	1.39116	-0.0384062
H	-2.79541	-0.573665	-0.288291
H	-4.51368	0.971821	-0.250275
H	-3.28854	2.18087	-0.793772
H	-3.52947	1.87178	0.966366
C	10.0069	0.896267	-1.69098
C	9.29396	0.149986	-0.629876
O	9.85435	-0.727133	0.0128
H	11.0458	0.510028	-1.77697
H	10.0449	1.97697	-1.43921
H	9.49173	0.761867	-2.66546
N	8.0189	0.486683	-0.421888
C	7.18344	-0.178963	0.546337
C	5.74598	-0.0938269	0.068791
O	5.44249	0.609381	-0.893029
H	7.5647	1.17449	-0.98088
H	7.44863	-1.22812	0.58579
C	7.33022	0.469528	1.94031
H	7.04818	1.54334	1.90262
H	6.7023	-0.0429342	2.69768
H	8.3912	0.402881	2.2662
N	4.82341	-0.820342	0.72989
C	3.43169	-0.806489	0.343764
H	5.08892	-1.38654	1.5032
H	2.83261	-1.46739	1.00825
H	3.31152	-1.16234	-0.705145
H	3.0162	0.2252	0.408041
