44
  This energy is -0.9823 and Call times are: 1390
C	-1.67805	3.00979	0.487866
C	-1.3883	1.60506	0.853848
O	-1.78882	1.12996	1.90754
H	-2.26044	3.48942	1.30436
H	-2.27421	3.04625	-0.448087
H	-0.730703	3.57111	0.34457
N	-0.671042	0.899108	-0.0233853
C	-0.273442	-0.466518	0.212284
C	1.023	-0.717294	-0.53465
O	1.46546	0.114161	-1.32498
H	-0.317353	1.31177	-0.857939
H	-0.069444	-0.602225	1.26708
C	-1.36826	-1.44892	-0.258355
H	-1.57044	-1.31734	-1.34272
H	-1.07988	-2.5033	-0.0695932
H	-2.30986	-1.24191	0.29561
N	1.66993	-1.87455	-0.293239
C	2.91339	-2.19735	-0.953375
H	1.29831	-2.53307	0.352761
H	3.28816	-3.19083	-0.622064
H	3.69108	-1.43413	-0.721082
H	2.77603	-2.22496	-2.0586
C	7.15214	-0.657658	3.3939
C	7.64224	-0.669234	1.99718
O	8.81228	-0.915696	1.73893
H	7.99708	-0.879418	4.08146
H	6.36592	-1.42972	3.52999
H	6.73676	0.340976	3.64541
N	6.74196	-0.395667	1.05006
C	7.07792	-0.327452	-0.350313
C	6.1189	0.638466	-1.02028
O	5.14513	1.08124	-0.414119
H	5.80255	-0.156799	1.27877
H	8.07507	0.0805797	-0.458982
C	6.98889	-1.72219	-1.00759
H	5.96331	-2.13671	-0.905611
H	7.25875	-1.68527	-2.08292
H	7.69304	-2.41443	-0.496394
N	6.37911	0.995918	-2.29328
C	5.52526	1.91418	-3.01015
H	7.17418	0.63025	-2.76575
H	5.90649	2.0821	-4.04151
H	5.48061	2.89767	-2.48857
H	4.4882	1.51328	-3.0804
