44
  This energy is 0 and Call times are: 7785
C	0.816827	1.90718	2.79431
C	0.71172	0.611553	2.08618
O	1.22621	-0.401318	2.53983
H	1.41868	1.77245	3.71924
H	-0.193353	2.27398	3.07312
H	1.31667	2.65791	2.14649
N	0.0324124	0.616808	0.936876
C	-0.118754	-0.557161	0.113768
C	-0.271304	-0.108019	-1.32726
O	-0.417183	1.08098	-1.60425
H	-0.345739	1.45753	0.559982
H	0.783595	-1.15297	0.172133
C	-1.34469	-1.3863	0.555177
H	-2.2721	-0.778769	0.485442
H	-1.46379	-2.30021	-0.0621607
H	-1.2151	-1.69741	1.61478
N	-0.232367	-1.05533	-2.28492
C	-0.363503	-0.721583	-3.68406
H	-0.109445	-2.01172	-2.04145
H	-0.305569	-1.63666	-4.31374
H	0.448215	-0.0268631	-3.9999
H	-1.3403	-0.22267	-3.87926
C	137.364	-1.08186	-2.82941
C	137.332	-0.58194	-1.43648
O	138.338	-0.586241	-0.739691
H	138.388	-1.4409	-3.06785
H	137.095	-0.267287	-3.53447
H	136.651	-1.92456	-2.94963
N	136.155	-0.134522	-0.992826
C	135.958	0.342796	0.353261
C	134.511	0.095227	0.73596
O	133.693	-0.278571	-0.102359
H	135.337	-0.175419	-1.55838
H	136.575	-0.234906	1.03086
C	136.298	1.84571	0.460809
H	135.658	2.43992	-0.226467
H	136.163	2.22199	1.49564
H	137.359	2.00442	0.168589
N	134.163	0.291412	2.02277
C	132.81	0.0757225	2.48056
H	134.84	0.590035	2.68733
H	132.724	0.28985	3.56869
H	132.5	-0.97993	2.30559
H	132.1	0.739065	1.93544
