44
  This energy is -1.3603 and Call times are: 305
C	0.0600184	2.68134	-2.21799
C	-0.664286	1.68061	-1.40248
O	-1.87258	1.76021	-1.22901
H	-0.658093	3.44826	-2.58136
H	0.53494	2.19039	-3.0933
H	0.840463	3.18107	-1.60622
N	0.0722827	0.700861	-0.873389
C	-0.483514	-0.321257	-0.0219639
C	0.604166	-0.790217	0.925973
O	1.76939	-0.427464	0.776352
H	1.06098	0.672521	-0.98972
H	-1.27428	0.107234	0.581121
C	-1.02018	-1.50387	-0.85782
H	-0.206974	-1.9505	-1.46876
H	-1.46329	-2.29136	-0.214367
H	-1.80909	-1.13611	-1.54973
N	0.244201	-1.60688	1.93569
C	1.20971	-2.09947	2.89032
H	-0.704278	-1.88614	2.04279
H	0.719219	-2.75534	3.64297
H	1.6978	-1.25401	3.42721
H	2.00475	-2.68766	2.37741
C	5.43277	-1.77565	2.99035
C	5.80015	-0.617317	2.1451
O	6.35202	0.364667	2.62214
H	5.72128	-1.5679	4.04365
H	5.96593	-2.68611	2.64458
H	4.33699	-1.9498	2.94557
N	5.49434	-0.707936	0.848701
C	5.75028	0.355794	-0.0901974
C	4.72001	0.265072	-1.2001
O	3.96526	-0.702121	-1.28127
H	5.00831	-1.49644	0.482786
H	5.60965	1.30937	0.4033
C	7.17885	0.250244	-0.66751
H	7.32026	-0.723552	-1.18304
H	7.39292	1.07183	-1.38144
H	7.9157	0.310995	0.162965
N	4.65942	1.2825	-2.08168
C	3.70728	1.2859	-3.16777
H	5.27574	2.05844	-1.99719
H	3.81414	2.20735	-3.78157
H	2.66495	1.24439	-2.77648
H	3.86293	0.403432	-3.82971
