44
  This energy is -4.1365 and Call times are: 999
C	2.55083	-0.309882	2.34732
C	1.98892	-0.533316	0.996222
O	2.68986	-0.934893	0.0776207
H	3.63749	-0.544249	2.33654
H	2.04809	-0.970176	3.08489
H	2.41487	0.750465	2.64777
N	0.688827	-0.271051	0.843379
C	0.00987382	-0.399115	-0.421999
C	-1.14487	0.584632	-0.440859
O	-1.46653	1.19776	0.575172
H	0.140551	0.0942576	1.59025
H	0.68581	-0.118432	-1.2201
C	-0.503617	-1.84087	-0.629134
H	-1.20529	-2.12559	0.183661
H	-1.01621	-1.95579	-1.60615
H	0.357185	-2.54424	-0.603721
N	-1.79369	0.764931	-1.60815
C	-2.90136	1.68473	-1.72305
H	-1.51616	0.262766	-2.42048
H	-3.30055	1.69185	-2.76123
H	-2.58094	2.71978	-1.46367
H	-3.72594	1.39525	-1.03211
C	6.73754	3.39202	-0.644619
C	6.44464	2.00916	-1.08401
O	6.01872	1.77872	-2.20735
H	6.49208	4.09849	-1.46712
H	7.81412	3.49364	-0.392861
H	6.12429	3.64893	0.244761
N	6.66852	1.04263	-0.190641
C	6.39071	-0.346729	-0.457192
C	6.06964	-1.02617	0.8607
O	6.23479	-0.439355	1.92844
H	6.97651	1.2497	0.733547
H	5.50923	-0.421337	-1.08173
C	7.5967	-1.02959	-1.13875
H	8.49869	-0.962553	-0.493792
H	7.39006	-2.09641	-1.36175
H	7.81867	-0.511162	-2.09703
N	5.59192	-2.28542	0.814888
C	5.2534	-3.00968	2.01781
H	5.46123	-2.74217	-0.0588209
H	4.87783	-4.02731	1.77162
H	4.46221	-2.47301	2.58989
H	6.14508	-3.11486	2.67736
