44
  This energy is 0 and Call times are: 7505
C	3.09751	-1.48976	-0.546574
C	1.61779	-1.52692	-0.53288
O	1.00318	-2.45503	-1.0401
H	3.4825	-2.38604	-1.07981
H	3.49005	-1.4933	0.492003
H	3.45257	-0.578556	-1.07262
N	1.00376	-0.498478	0.0567486
C	-0.431444	-0.372817	0.111072
C	-0.775197	1.10378	0.166175
O	0.103183	1.94942	0.324515
H	1.51682	0.269677	0.429004
H	-0.859574	-0.769865	-0.800898
C	-1.0034	-1.10826	1.34283
H	-0.572435	-0.69421	2.27924
H	-2.10903	-1.03056	1.38832
H	-0.733008	-2.18527	1.2855
N	-2.07016	1.44992	0.0272647
C	-2.49119	2.83115	0.0609102
H	-2.766	0.75162	-0.104088
H	-3.59284	2.90978	-0.0710189
H	-1.9985	3.41187	-0.752284
H	-2.21994	3.30115	1.03388
C	115.095	0.551285	2.75421
C	115.651	-0.323484	1.69755
O	115.477	-1.53402	1.72107
H	114.559	-0.0719833	3.50237
H	114.38	1.27751	2.31294
H	115.913	1.10173	3.26516
N	116.347	0.281184	0.732077
C	116.985	-0.441217	-0.340139
C	118.193	0.356479	-0.794986
O	118.387	1.4972	-0.379368
H	116.515	1.26267	0.748712
H	117.348	-1.39015	0.0347436
C	116.008	-0.661228	-1.51539
H	115.643	0.312322	-1.9072
H	116.483	-1.22854	-2.34168
H	115.128	-1.23993	-1.15777
N	119.042	-0.233098	-1.65919
C	120.221	0.446818	-2.14294
H	118.871	-1.15828	-1.98103
H	120.791	-0.203193	-2.84341
H	120.892	0.72127	-1.29638
H	119.943	1.38227	-2.68013
