44
  This energy is -3.5477 and Call times are: 1421
C	0.908416	-2.72717	-1.96215
C	0.231398	-2.13566	-0.786177
O	-0.533049	-2.79676	-0.0969827
H	0.586698	-3.78502	-2.0776
H	2.0097	-2.69953	-1.82376
H	0.63745	-2.16676	-2.88172
N	0.50079	-0.853618	-0.528947
C	-0.114334	-0.128648	0.554844
C	-0.177768	1.33684	0.167724
O	0.397968	1.7481	-0.837815
H	1.09345	-0.317269	-1.12304
H	-1.13307	-0.473024	0.682207
C	0.685861	-0.308873	1.86345
H	1.72809	0.0540038	1.73648
H	0.214595	0.233338	2.70869
H	0.726108	-1.38928	2.12318
N	-0.891546	2.16214	0.958565
C	-1.01297	3.57141	0.666343
H	-1.35379	1.81002	1.76567
H	-1.63933	4.07935	1.43244
H	-1.48467	3.72652	-0.33101
H	-0.010851	4.05798	0.653704
C	3.90936	1.79315	2.73492
C	4.98505	1.073	2.01697
O	6.14591	1.12474	2.39925
H	4.34766	2.34671	3.59359
H	3.15641	1.07286	3.11832
H	3.41433	2.51817	2.05495
N	4.61593	0.375229	0.940277
C	5.55544	-0.341908	0.114681
C	4.99978	-0.396779	-1.29593
O	3.85187	-0.0271509	-1.53545
H	3.67367	0.376001	0.61781
H	6.48716	0.208353	0.0731752
C	5.79227	-1.76762	0.6592
H	4.83841	-2.33606	0.692072
H	6.52443	-2.32528	0.0399449
H	6.19124	-1.70327	1.69507
N	5.81053	-0.855043	-2.26993
C	5.37035	-0.938094	-3.64307
H	6.73754	-1.14572	-2.05726
H	6.17996	-1.33887	-4.29203
H	5.08125	0.0680311	-4.02441
H	4.48506	-1.60852	-3.73217
