44
  This energy is -4.1089 and Call times are: 2089
C	-2.82027	1.25955	1.60383
C	-1.36042	1.23797	1.35992
O	-0.633073	2.12074	1.79362
H	-3.08157	2.16827	2.18849
H	-3.12524	0.361154	2.18057
H	-3.36919	1.28296	0.638829
N	-0.893221	0.211458	0.645508
C	0.497459	0.0760774	0.290207
C	0.579657	-0.696152	-1.01304
O	-0.418845	-1.22907	-1.49337
H	-1.50316	-0.477542	0.264555
H	0.917442	1.05788	0.110434
C	1.2825	-0.653431	1.40231
H	0.858623	-1.66479	1.57981
H	2.35747	-0.751612	1.1467
H	1.20193	-0.0748352	2.34839
N	1.77914	-0.767226	-1.62315
C	1.95229	-1.4758	-2.86979
H	2.57467	-0.326084	-1.22117
H	3.00957	-1.41935	-3.21065
H	1.30433	-1.0383	-3.66353
H	1.67814	-2.54928	-2.75311
C	6.41867	-2.29652	2.56315
C	6.36149	-0.91026	2.04723
O	6.39167	0.0491301	2.80557
H	6.46975	-2.27338	3.67343
H	7.3204	-2.81332	2.17259
H	5.51009	-2.85662	2.25681
N	6.2738	-0.773354	0.722106
C	6.16673	0.510577	0.0751026
C	5.40517	0.323721	-1.22362
O	5.14037	-0.80165	-1.6421
H	6.20895	-1.56445	0.120593
H	5.58333	1.177	0.698119
C	7.56408	1.10903	-0.197873
H	8.1592	0.430617	-0.845656
H	7.49486	2.10404	-0.683353
H	8.10625	1.22956	0.76538
N	5.02586	1.43133	-1.89096
C	4.29245	1.35167	-3.13271
H	5.2458	2.33329	-1.53437
H	4.07325	2.36881	-3.52593
H	3.32605	0.817449	-2.98452
H	4.87901	0.797487	-3.9008
