44
  This energy is -2.5756 and Call times are: 1675
C	-1.80936	-2.94758	0.388163
C	-0.54795	-2.21706	0.130616
O	0.529537	-2.79622	0.127082
H	-1.5813	-4.01922	0.576445
H	-2.48167	-2.87253	-0.492236
H	-2.32004	-2.5268	1.27992
N	-0.656753	-0.905222	-0.0921286
C	0.485051	-0.0536903	-0.315145
C	0.135125	1.34213	0.16526
O	-1.01555	1.62534	0.493079
H	-1.53658	-0.440892	-0.0454782
H	1.31453	-0.403481	0.286721
C	0.872449	-0.0305952	-1.81001
H	0.0253548	0.338177	-2.42684
H	1.75891	0.610772	-1.99267
H	1.11671	-1.06335	-2.14183
N	1.12918	2.24997	0.226177
C	0.89181	3.60173	0.676258
H	2.05465	2.00085	-0.0393905
H	1.83295	4.19421	0.655199
H	0.498695	3.60529	1.71872
H	0.144048	4.10771	0.0235894
C	7.88922	-0.115866	3.28657
C	8.12354	-0.12437	1.825
O	9.25095	-0.0110666	1.364
H	8.85863	0.0212367	3.81316
H	7.43888	-1.07863	3.60755
H	7.21028	0.719071	3.56042
N	7.04366	-0.259042	1.05162
C	7.10758	-0.242098	-0.388587
C	5.78644	0.286667	-0.914476
O	4.83168	0.459221	-0.159242
H	6.12822	-0.30908	1.44061
H	7.87984	0.44847	-0.703785
C	7.38513	-1.65575	-0.945173
H	6.58756	-2.36225	-0.63085
H	7.45041	-1.65349	-2.05254
H	8.35259	-2.02588	-0.541002
N	5.70386	0.56569	-2.23028
C	4.48877	1.07803	-2.81953
H	6.48841	0.423374	-2.82468
H	4.62079	1.244	-3.91144
H	4.20264	2.04695	-2.34985
H	3.64828	0.361676	-2.67267
