44
  This energy is -1.4982 and Call times are: 819
C	-2.77378	1.50689	-1.46563
C	-2.13963	0.706819	-0.393777
O	-2.74157	0.439658	0.6371
H	-3.79998	1.79556	-1.15025
H	-2.83931	0.911009	-2.40018
H	-2.18369	2.42821	-1.65554
N	-0.887075	0.302377	-0.617176
C	-0.124165	-0.446763	0.349943
C	1.34528	-0.13534	0.137092
O	1.7171	0.509227	-0.84168
H	-0.396081	0.562441	-1.44371
H	-0.38377	-0.112044	1.34654
C	-0.383325	-1.96217	0.202949
H	-0.107244	-2.30809	-0.815951
H	0.187853	-2.549	0.951222
H	-1.46584	-2.16579	0.354737
N	2.21928	-0.582229	1.06037
C	3.63659	-0.329304	0.944419
H	1.8989	-1.09856	1.84766
H	4.18731	-0.776959	1.80089
H	3.84029	0.765955	0.930748
H	4.03812	-0.766922	0.00186963
C	6.48195	-3.20923	-0.276349
C	6.99129	-1.95377	-0.872629
O	7.2306	-1.873	-2.06955
H	6.39394	-3.98324	-1.06945
H	5.48115	-3.04058	0.173876
H	7.18196	-3.5733	0.504996
N	7.17312	-0.930065	-0.0351556
C	7.70333	0.341577	-0.459841
C	8.42231	0.971478	0.718237
O	8.33943	0.480429	1.84238
H	7.0127	-1.02364	0.943294
H	8.43902	0.180004	-1.23783
C	6.57589	1.26853	-0.964695
H	5.82636	1.44311	-0.163588
H	6.97307	2.24589	-1.30754
H	6.0585	0.784098	-1.82141
N	9.1566	2.07695	0.484227
C	9.87998	2.74198	1.54282
H	9.21482	2.45711	-0.432924
H	10.4225	3.63028	1.15062
H	10.6238	2.05235	2.0037
H	9.18247	3.0817	2.34234
