44
  This energy is 0 and Call times are: 7449
C	2.13673	2.60159	-0.882486
C	1.38063	1.81982	0.121646
O	1.57101	1.97618	1.31986
H	2.85183	3.27466	-0.361439
H	1.44141	3.21757	-1.49065
H	2.70564	1.91968	-1.54914
N	0.49226	0.944174	-0.354195
C	-0.287586	0.081626	0.498102
C	-0.610544	-1.18225	-0.276408
O	-0.361869	-1.26564	-1.47762
H	0.377821	0.798987	-1.33281
H	0.308501	-0.208256	1.35442
C	-1.58539	0.783646	0.954304
H	-2.20225	1.07183	0.0765386
H	-2.18796	0.134745	1.6224
H	-1.32515	1.70977	1.51191
N	-1.16856	-2.20511	0.400649
C	-1.50547	-3.44896	-0.251657
H	-1.3585	-2.12024	1.37317
H	-1.95343	-4.16424	0.472866
H	-0.597162	-3.91971	-0.692844
H	-2.23827	-3.27625	-1.07282
C	111.804	1.75777	2.15176
C	113.12	1.17836	1.79867
O	114.124	1.4499	2.44191
H	111.924	2.43588	3.02452
H	111.09	0.950818	2.41888
H	111.401	2.34024	1.29677
N	113.143	0.354591	0.748309
C	114.355	-0.252173	0.258219
C	114.193	-0.498361	-1.22994
O	113.104	-0.343271	-1.77882
H	112.324	0.175387	0.209752
H	115.177	0.441511	0.382626
C	114.647	-1.57637	0.997424
H	113.809	-2.29223	0.861351
H	115.586	-2.04633	0.638633
H	114.754	-1.37344	2.0854
N	115.283	-0.882487	-1.92273
C	115.226	-1.13448	-3.34377
H	116.157	-0.998678	-1.46178
H	116.223	-1.43932	-3.72978
H	114.902	-0.220138	-3.89206
H	114.499	-1.94781	-3.56965
