44
  This energy is -4.863 and Call times are: 2135
C	-1.85795	1.8666	-2.2752
C	-0.867395	0.814681	-1.95361
O	-0.471287	0.0353555	-2.80927
H	-2.14457	1.78609	-3.3463
H	-1.42148	2.87138	-2.09452
H	-2.7667	1.74062	-1.64958
N	-0.440624	0.767935	-0.689468
C	0.489642	-0.226359	-0.215607
C	0.223114	-0.458414	1.25975
O	-0.548545	0.268687	1.88231
H	-0.803015	1.38299	0.0049727
H	0.3041	-1.16212	-0.728001
C	1.94767	0.232395	-0.436845
H	2.14156	1.18694	0.0972762
H	2.67357	-0.530734	-0.0886726
H	2.11778	0.403837	-1.52221
N	0.854003	-1.4901	1.85441
C	0.657853	-1.79103	3.25339
H	1.47152	-2.06977	1.33312
H	1.2626	-2.67482	3.55409
H	-0.41407	-2.01282	3.46091
H	0.960587	-0.926571	3.88759
C	4.18888	2.66307	1.85214
C	4.85829	2.11101	0.652854
O	5.04371	2.79886	-0.341575
H	3.90586	3.72091	1.66053
H	4.87516	2.62695	2.72418
H	3.27101	2.08112	2.08001
N	5.23977	0.833448	0.721391
C	5.86438	0.144814	-0.38052
C	5.52543	-1.32979	-0.269938
O	4.96736	-1.77435	0.731377
H	5.04521	0.274746	1.52255
H	5.44286	0.503771	-1.31116
C	7.39484	0.351353	-0.363897
H	7.82911	-0.0263475	0.586256
H	7.88592	-0.162626	-1.21548
H	7.61936	1.43785	-0.437801
N	5.84991	-2.12551	-1.308
C	5.56145	-3.5407	-1.29464
H	6.29741	-1.74666	-2.1113
H	5.90422	-4.02084	-2.23761
H	4.46648	-3.7174	-1.1893
H	6.0752	-4.03852	-0.440594
