44
  This energy is -1.6821 and Call times are: 1286
C	1.48889	0.15306	-3.14205
C	0.941888	-0.605567	-1.9947
O	0.748599	-1.81129	-2.06742
H	1.6487	-0.538976	-3.99728
H	2.46037	0.615023	-2.86719
H	0.776405	0.946986	-3.4505
N	0.674009	0.0975648	-0.89187
C	0.09825	-0.493444	0.290403
C	-0.699835	0.575506	1.01287
O	-0.638891	1.75221	0.661632
H	0.79828	1.08525	-0.86169
H	-0.595474	-1.27217	-0.00109451
C	1.19734	-1.06476	1.21281
H	1.90325	-0.264162	1.52066
H	0.765821	-1.53495	2.12013
H	1.77362	-1.83918	0.660973
N	-1.47874	0.186251	2.04137
C	-2.27805	1.13231	2.7845
H	-1.51806	-0.771015	2.30815
H	-2.84806	0.618602	3.58975
H	-3.00452	1.64532	2.11343
H	-1.63233	1.9099	3.25306
C	5.1946	0.66032	-3.23339
C	6.25926	0.601429	-2.20665
O	7.43827	0.721849	-2.50971
H	5.65702	0.803146	-4.2342
H	4.51175	1.51142	-3.02824
H	4.61417	-0.286332	-3.23751
N	5.8594	0.409144	-0.947476
C	6.78101	0.286796	0.154443
C	6.13596	-0.58407	1.21608
O	4.9552	-0.915126	1.12705
H	4.89912	0.271999	-0.721842
H	7.67467	-0.223705	-0.182286
C	7.13544	1.67385	0.733832
H	6.22021	2.19365	1.08907
H	7.85521	1.59405	1.57412
H	7.59871	2.29666	-0.0623027
N	6.90447	-0.984442	2.24812
C	6.37857	-1.81946	3.3028
H	7.85884	-0.709695	2.30062
H	7.16447	-2.04044	4.05829
H	6.00715	-2.78559	2.89059
H	5.52931	-1.31445	3.81744
