44
  This energy is -9.0305 and Call times are: 2106
C	0.778295	-1.04743	3.22643
C	-0.0702286	-0.307033	2.26572
O	-1.15545	0.148115	2.59969
H	0.256924	-1.10761	4.20644
H	1.74635	-0.521958	3.36605
H	0.966929	-2.0771	2.85591
N	0.413852	-0.170484	1.02903
C	-0.315096	0.487317	-0.0266663
C	0.118256	-0.117586	-1.34873
O	1.0704	-0.893497	-1.40431
H	1.2804	-0.581894	0.761247
H	-1.37253	0.284885	0.0894965
C	-0.0504657	2.00885	-0.0147431
H	1.03292	2.21738	-0.144452
H	-0.617042	2.52855	-0.814388
H	-0.36764	2.42886	0.964718
N	-0.581431	0.219762	-2.44994
C	-0.245631	-0.310559	-3.75078
H	-1.3513	0.84591	-2.38431
H	-0.936946	0.0850682	-4.52717
H	-0.316708	-1.42241	-3.75196
H	0.795302	-0.0308709	-4.03251
C	5.0294	3.07528	1.43108
C	4.43696	2.25242	0.352608
O	3.72975	2.75394	-0.510373
H	4.70705	4.13184	1.30612
H	6.13768	3.02952	1.38244
H	4.68772	2.71019	2.42256
N	4.71609	0.947168	0.380619
C	4.17771	0.0127863	-0.576267
C	4.07624	-1.3446	0.0936506
O	4.5736	-1.53907	1.20113
H	5.25981	0.547107	1.11286
H	3.17343	0.315656	-0.845184
C	5.07331	-0.0686569	-1.83186
H	6.10093	-0.389524	-1.55785
H	4.66202	-0.774598	-2.5822
H	5.13972	0.937173	-2.30115
N	3.41723	-2.3188	-0.564103
C	3.2653	-3.6408	-0.00250078
H	3.01804	-2.14114	-1.4575
H	2.69373	-4.29848	-0.693878
H	2.72038	-3.59495	0.968193
H	4.26052	-4.10626	0.181937
