44
  This energy is -0.8545 and Call times are: 572
C	-1.39185	2.11069	2.39174
C	-0.627968	0.902949	2.00575
O	-0.0131202	0.250117	2.83772
H	-1.27801	2.28377	3.48397
H	-2.46888	1.97257	2.1601
H	-1.00723	2.99761	1.84536
N	-0.649081	0.575881	0.711543
C	0.0808123	-0.547079	0.177899
C	0.429287	-0.241359	-1.26663
O	-0.0445839	0.740828	-1.83449
H	-1.12047	1.14038	0.0399781
H	1.01279	-0.656744	0.718288
C	-0.75476	-1.84262	0.270813
H	-1.70624	-1.73433	-0.292206
H	-0.198283	-2.71712	-0.124282
H	-1.00496	-2.04238	1.33563
N	1.27879	-1.07748	-1.89534
C	1.67222	-0.863503	-3.26851
H	1.65503	-1.86463	-1.41794
H	2.37526	-1.65731	-3.60442
H	2.17688	0.123113	-3.38332
H	0.782487	-0.876243	-3.93885
C	5.28979	0.180834	-2.87013
C	6.20689	0.785758	-1.87809
O	6.71791	1.87993	-2.07319
H	5.19526	0.860173	-3.74501
H	4.28538	0.0310182	-2.42127
H	5.68968	-0.795948	-3.21518
N	6.44062	0.0727176	-0.773851
C	7.3433	0.510184	0.26169
C	7.91361	-0.719712	0.942624
O	7.46723	-1.83893	0.69808
H	6.04946	-0.834481	-0.647961
H	8.17167	1.04311	-0.188206
C	6.61453	1.4073	1.28605
H	5.7711	0.857554	1.75557
H	7.3022	1.76194	2.08095
H	6.19857	2.29681	0.764421
N	8.92658	-0.539433	1.81291
C	9.53605	-1.65149	2.50433
H	9.27694	0.373418	1.99464
H	10.3504	-1.29897	3.17498
H	9.96962	-2.37598	1.77741
H	8.78207	-2.19133	3.12177
