44
  This energy is -4.8619 and Call times are: 1593
C	-3.45323	0.39621	0.175787
C	-2.13497	0.704014	-0.423029
O	-2.04613	1.32804	-1.47142
H	-4.25686	0.797981	-0.478922
H	-3.5375	0.866479	1.17803
H	-3.58309	-0.702489	0.271131
N	-1.06401	0.262858	0.240901
C	0.282947	0.44764	-0.238816
C	1.1327	-0.694417	0.285759
O	0.687242	-1.47863	1.1214
H	-1.1538	-0.279084	1.07163
H	0.289022	0.384123	-1.31982
C	0.853155	1.80521	0.227127
H	0.856935	1.8667	1.33629
H	1.88492	1.96541	-0.147461
H	0.211262	2.62573	-0.16155
N	2.38237	-0.819595	-0.202787
C	3.26188	-1.87904	0.233361
H	2.72359	-0.177699	-0.881471
H	4.24441	-1.8124	-0.283758
H	2.81612	-2.87578	0.0118128
H	3.43845	-1.81622	1.33155
C	4.87387	2.5456	-1.05463
C	5.51656	1.22478	-1.23775
O	5.14335	0.455006	-2.11215
H	4.0532	2.66062	-1.79566
H	5.61547	3.357	-1.21083
H	4.4485	2.62571	-0.032021
N	6.51304	0.928439	-0.400139
C	7.20607	-0.335501	-0.427141
C	7.70998	-0.62863	0.973472
O	7.64597	0.223916	1.85709
H	6.7783	1.54843	0.332737
H	6.50761	-1.12033	-0.689494
C	8.38107	-0.29913	-1.42878
H	9.1033	0.498958	-1.15402
H	8.91417	-1.2711	-1.46894
H	7.99	-0.0752716	-2.44529
N	8.21874	-1.85362	1.21133
C	8.71732	-2.22495	2.51505
H	8.25836	-2.53144	0.484642
H	9.09315	-3.27182	2.50884
H	7.91175	-2.14634	3.28066
H	9.55218	-1.5543	2.82226
