44
  This energy is 0.1048 and Call times are: 3168
C	3.02156	-0.163209	1.71936
C	2.22793	-0.217146	0.471011
O	2.77112	-0.213561	-0.625047
H	4.10229	-0.105226	1.4653
H	2.84344	-1.07601	2.32584
H	2.74297	0.73394	2.31148
N	0.901359	-0.266876	0.612836
C	-0.00398008	-0.279766	-0.509106
C	-1.30935	0.357011	-0.0708507
O	-1.51251	0.62743	1.11123
H	0.472391	-0.227759	1.51079
H	0.403095	0.333082	-1.30367
C	-0.245202	-1.72176	-1.00682
H	-0.672662	-2.3482	-0.195098
H	-0.929864	-1.74385	-1.87933
H	0.724317	-2.17074	-1.3147
N	-2.22692	0.620364	-1.02204
C	-3.49599	1.23018	-0.699902
H	-2.04266	0.398076	-1.97372
H	-4.1113	1.36535	-1.6166
H	-3.34385	2.22863	-0.229546
H	-4.06698	0.594995	0.0153905
C	4.69525	-2.5036	1.50093
C	3.53732	-2.04978	0.698182
O	2.83905	-2.84714	0.0873986
H	4.7896	-3.60814	1.41766
H	4.54985	-2.23477	2.56832
H	5.62879	-2.03388	1.1255
N	3.30652	-0.734944	0.680093
C	2.24326	-0.139281	-0.0901136
C	2.663	1.26946	-0.46542
O	3.67333	1.7757	0.0189935
H	3.90815	-0.094714	1.14914
H	2.11543	-0.693984	-1.0113
C	0.92548	-0.11529	0.714939
H	1.05317	0.462579	1.65505
H	0.0956789	0.328473	0.12755
H	0.641747	-1.15577	0.985553
N	1.89551	1.93575	-1.3503
C	2.21953	3.27892	-1.77111
H	1.08407	1.5079	-1.73446
H	1.46919	3.65399	-2.50155
H	3.22332	3.30796	-2.25367
H	2.23593	3.97108	-0.898305
