44
  This energy is 0.1119 and Call times are: 6472
C	-3.23127	-1.07798	0.713811
C	-2.26086	-0.328448	-0.115429
O	-2.57738	0.123622	-1.20715
H	-4.20007	-1.14738	0.17298
H	-3.39516	-0.553945	1.67884
H	-2.85487	-2.10412	0.909903
N	-1.03543	-0.180251	0.393238
C	0.0283415	0.487577	-0.314546
C	1.34715	-0.104832	0.145176
O	1.39104	-0.880272	1.09832
H	-0.781124	-0.589191	1.265
H	-0.0647621	0.284155	-1.37407
C	-0.00325812	2.00891	-0.050351
H	0.102813	2.21855	1.03539
H	0.802589	2.5362	-0.600895
H	-0.98012	2.41966	-0.38706
N	2.45887	0.242986	-0.532413
C	3.75771	-0.275037	-0.170654
H	2.40271	0.868557	-1.3035
H	4.54397	0.127984	-0.846365
H	3.77083	-1.38682	-0.241588
H	4.01594	0.00720613	0.875671
C	1.1833	-1.97119	1.37601
C	1.67064	-0.70366	0.786916
O	0.892548	0.17785	0.449375
H	0.0726375	-1.95264	1.41999
H	1.58174	-2.09299	2.40516
H	1.50389	-2.83158	0.751489
N	2.99291	-0.584284	0.646425
C	3.61356	0.572277	0.0500093
C	4.91816	0.132958	-0.587636
O	5.3606	-0.998903	-0.400976
H	3.61083	-1.32703	0.888002
H	2.97867	0.949988	-0.74174
C	3.86989	1.66795	1.10786
H	4.52976	1.28419	1.91492
H	4.33491	2.56922	0.65843
H	2.90272	1.9684	1.56683
N	5.56361	1.02243	-1.36754
C	6.80894	0.691704	-2.02018
H	5.18779	1.93213	-1.50993
H	7.18172	1.55379	-2.61607
H	6.67474	-0.176266	-2.70567
H	7.58655	0.421714	-1.26946
