44
  This energy is -2.1518 and Call times are: 1216
C	-0.975224	3.32043	-0.369285
C	-0.0672958	2.28055	0.165004
O	0.997909	2.57811	0.687699
H	-0.513909	4.32125	-0.222898
H	-1.9476	3.29117	0.16586
H	-1.1458	3.15863	-1.45456
N	-0.47564	1.01554	0.0409846
C	0.318269	-0.1073	0.473989
C	-0.037573	-1.30046	-0.392792
O	-0.98807	-1.25226	-1.17122
H	-1.32634	0.786715	-0.423566
H	1.36592	0.110833	0.308201
C	0.0600952	-0.423832	1.96342
H	-1.01262	-0.657999	2.13218
H	0.675944	-1.27788	2.3125
H	0.319729	0.465672	2.57801
N	0.728451	-2.40371	-0.282985
C	0.469038	-3.58563	-1.07163
H	1.49574	-2.42222	0.349469
H	1.20746	-4.38404	-0.838205
H	0.535166	-3.35427	-2.15946
H	-0.55186	-3.98038	-0.86408
C	12.3435	0.0243267	1.1248
C	10.922	0.41893	1.24618
O	10.4963	0.94707	2.26418
H	12.8749	0.270496	2.06968
H	12.8234	0.574901	0.288575
H	12.4231	-1.06803	0.941813
N	10.1433	0.164413	0.191984
C	8.7306	0.45176	0.177124
C	8.05727	-0.533934	-0.759146
O	8.72402	-1.28034	-1.47331
H	10.4953	-0.303202	-0.613826
H	8.32222	0.287436	1.16649
C	8.46746	1.90227	-0.283331
H	8.87696	2.06834	-1.30254
H	7.38399	2.14016	-0.285723
H	8.97596	2.60584	0.411478
N	6.71008	-0.564887	-0.770869
C	5.98229	-1.47389	-1.62539
H	6.18798	0.043966	-0.182836
H	4.88546	-1.34752	-1.49037
H	6.24504	-2.5305	-1.3891
H	6.22764	-1.28831	-2.69614
