44
  This energy is 0.1125 and Call times are: 7114
C	3.2458	0.941038	0.831813
C	2.2584	-0.0554888	0.359451
O	2.61588	-1.12137	-0.122739
H	4.27252	0.55457	0.65191
H	3.1157	1.12291	1.91935
H	3.11953	1.89625	0.279796
N	0.97179	0.276864	0.488067
C	-0.102752	-0.570711	0.0347084
C	-1.28053	0.31314	-0.330252
O	-1.27319	1.5136	-0.0646261
H	0.697169	1.16522	0.844835
H	0.204938	-1.08645	-0.866387
C	-0.504849	-1.58434	1.12837
H	-0.830626	-1.05564	2.04945
H	-1.32209	-2.25194	0.786372
H	0.374153	-2.21496	1.38534
N	-2.32337	-0.263203	-0.959809
C	-3.48579	0.499751	-1.35079
H	-2.30916	-1.23518	-1.16989
H	-4.23275	-0.152204	-1.85499
H	-3.20165	1.31592	-2.05393
H	-3.96911	0.96363	-0.460642
C	3.39227	-3.26962	0.0291833
C	3.57868	-1.81632	-0.181402
O	4.69376	-1.33647	-0.332232
H	4.38507	-3.76974	0.0382097
H	2.78057	-3.69986	-0.791462
H	2.88823	-3.45386	1.00133
N	2.47072	-1.07158	-0.194067
C	2.49509	0.361953	-0.345525
C	1.28038	0.932992	0.361566
O	0.396419	0.19411	0.790947
H	1.57349	-1.4711	-0.0290391
H	3.37265	0.758606	0.149622
C	2.48934	0.759208	-1.83797
H	1.58394	0.36144	-2.34401
H	2.52194	1.86037	-1.96797
H	3.38258	0.324004	-2.33703
N	1.21309	2.27103	0.506919
C	0.097668	2.90406	1.17121
H	1.94012	2.85211	0.156412
H	0.226639	4.0087	1.19019
H	0.00996245	2.54336	2.22168
H	-0.856545	2.67124	0.645461
