44
  This energy is 0.1016 and Call times are: 7394
C	-3.20074	1.2989	0.425227
C	-2.25859	0.16164	0.324513
O	-2.60512	-0.975042	0.614825
H	-4.18046	0.932015	0.801276
H	-3.3495	1.76216	-0.572769
H	-2.80724	2.06047	1.1311
N	-1.02402	0.449087	-0.0945255
C	0.015189	-0.544395	-0.202181
C	1.35127	0.144727	0.00164797
O	1.4262	1.37091	0.0523954
H	-0.745159	1.38541	-0.287927
H	-0.099079	-1.26867	0.594687
C	-0.0295012	-1.24254	-1.57908
H	0.0982393	-0.501316	-2.39658
H	0.757153	-2.01944	-1.66916
H	-1.01872	-1.73314	-1.70987
N	2.4431	-0.634274	0.132421
C	3.75608	-0.0676042	0.335238
H	2.36185	-1.62467	0.092704
H	4.52191	-0.869863	0.419561
H	3.78151	0.540652	1.26832
H	4.03414	0.594734	-0.516309
C	6.76655	0.351691	3.1595
C	5.84903	-0.317132	2.20977
O	5.30236	-1.37357	2.49527
H	6.85335	-0.263544	4.08135
H	6.37215	1.35325	3.43167
H	7.77371	0.462226	2.70508
N	5.65929	0.29374	1.03793
C	4.82887	-0.256673	-0.00418709
C	5.35893	0.232003	-1.33903
O	6.23237	1.09574	-1.39175
H	6.14315	1.13221	0.804051
H	4.91631	-1.336	0.00200656
C	3.35581	0.168412	0.181886
H	3.26416	1.27537	0.165054
H	2.70391	-0.260468	-0.606541
H	2.99139	-0.19283	1.16832
N	4.8448	-0.319757	-2.45583
C	5.29163	0.0784241	-3.77035
H	4.14164	-1.02023	-2.3928
H	4.75001	-0.489506	-4.5586
H	6.383	-0.111885	-3.8886
H	5.11099	1.16544	-3.93437
