44
  This energy is 0.11 and Call times are: 3766
C	-2.84622	1.72156	1.02371
C	-2.1599	0.736669	0.157624
O	-2.7934	-0.026641	-0.558229
H	-3.94608	1.61099	0.905597
H	-2.55566	2.75343	0.734629
H	-2.57968	1.547	2.08747
N	-0.825758	0.731144	0.20686
C	-0.0204167	-0.198183	-0.545693
C	1.27135	-0.42901	0.215622
O	1.55559	0.256257	1.1961
H	-0.325557	1.33071	0.825074
H	-0.534241	-1.14954	-0.605087
C	0.274737	0.347145	-1.96017
H	0.811207	1.31802	-1.89982
H	0.882566	-0.365566	-2.5544
H	-0.684803	0.516078	-2.49598
N	2.08466	-1.41274	-0.216626
C	3.33228	-1.70885	0.448155
H	1.83556	-1.9592	-1.00934
H	3.85676	-2.55002	-0.0563978
H	3.15342	-1.99399	1.51022
H	4.00382	-0.819991	0.43774
C	6.9009	-0.863286	1.79996
C	6.22413	-0.145878	0.696119
O	6.80947	0.706312	0.0422416
H	7.94008	-0.482079	1.9031
H	6.93718	-1.95168	1.58354
H	6.35972	-0.694296	2.75475
N	4.9527	-0.479723	0.462846
C	4.15019	0.160929	-0.549125
C	2.69926	0.101442	-0.11
O	2.36317	-0.568673	0.864526
H	4.47739	-1.14613	1.03015
H	4.42494	1.20635	-0.614095
C	4.33072	-0.532509	-1.91726
H	4.03898	-1.60251	-1.85376
H	3.72849	-0.0397795	-2.70787
H	5.40094	-0.483952	-2.21494
N	1.80156	0.813308	-0.819502
C	0.399484	0.821832	-0.472668
H	2.09327	1.35274	-1.60244
H	-0.175302	1.46566	-1.17434
H	0.252849	1.21165	0.560688
H	-0.0224456	-0.208327	-0.516138
