44
  This energy is 0.9919 and Call times are: 1398
C	0.144557	-1.63453	3.06922
C	-0.539789	-1.30676	1.79824
O	-1.53618	-1.91913	1.43961
H	-0.380619	-2.48186	3.56124
H	0.128105	-0.757556	3.74995
H	1.1968	-1.92961	2.87224
N	-0.0087771	-0.317165	1.07637
C	-0.53746	0.0870727	-0.202555
C	0.602311	0.654319	-1.02761
O	1.70412	0.859938	-0.522177
H	0.826309	0.144533	1.36156
H	-0.912031	-0.783923	-0.725714
C	-1.65614	1.13778	-0.0299208
H	-1.26972	2.03592	0.497396
H	-2.0809	1.44687	-1.00694
H	-2.47578	0.703786	0.583423
N	0.363848	0.913932	-2.32828
C	1.38955	1.44984	-3.19253
H	-0.532945	0.737077	-2.72015
H	0.999067	1.59357	-4.22407
H	2.26243	0.759199	-3.24127
H	1.74865	2.43382	-2.81307
C	6.6337	-1.70288	-2.01912
C	6.95579	-0.855917	-0.848618
O	6.07463	-0.297962	-0.209363
H	5.53389	-1.70251	-2.18121
H	6.97038	-2.7458	-1.84109
H	7.13108	-1.30422	-2.92838
N	8.24916	-0.73815	-0.539237
C	8.72063	0.0857857	0.545841
C	10.1213	0.559447	0.206031
O	10.7225	0.102514	-0.764217
H	8.95763	-1.1653	-1.09374
H	8.09331	0.964837	0.625556
C	8.72255	-0.700531	1.87511
H	9.37431	-1.59674	1.79723
H	9.07049	-0.0727316	2.72087
H	7.68919	-1.0441	2.09975
N	10.6728	1.49965	0.998383
C	11.999	2.01491	0.749432
H	10.1691	1.86019	1.77643
H	12.2729	2.7794	1.50952
H	12.0542	2.48706	-0.258194
H	12.7527	1.19551	0.788477
