44
  This energy is -1.0041 and Call times are: 5162
C	2.7329	1.78426	1.20844
C	2.13112	0.769493	0.314436
O	2.76922	0.279642	-0.607132
H	3.77391	1.99301	0.878897
H	2.7551	1.40897	2.25315
H	2.14699	2.72663	1.16679
N	0.86611	0.428247	0.570699
C	0.13224	-0.513334	-0.237645
C	-1.3405	-0.157989	-0.158086
O	-1.74213	0.687754	0.63886
H	0.34668	0.865756	1.29915
H	0.434172	-0.407487	-1.27218
C	0.367346	-1.95982	0.24985
H	0.0479546	-2.07161	1.30793
H	-0.181465	-2.69542	-0.37322
H	1.45241	-2.19532	0.190445
N	-2.18344	-0.794743	-0.994759
C	-3.60104	-0.517991	-0.99465
H	-1.83907	-1.47301	-1.63541
H	-4.12356	-1.14178	-1.75299
H	-3.79198	0.55395	-1.23078
H	-4.04393	-0.735674	0.00415056
C	4.15104	-0.395926	-2.85614
C	5.46242	-0.306289	-2.1754
O	6.49859	-0.597576	-2.7567
H	4.30043	-0.765481	-3.89391
H	3.67162	0.604711	-2.8965
H	3.48661	-1.10238	-2.31527
N	5.44481	0.104	-0.90507
C	6.63625	0.200285	-0.0989867
C	6.24454	-0.0117577	1.35125
O	5.06177	-0.0591033	1.68368
H	4.58968	0.298256	-0.432983
H	7.31606	-0.598014	-0.369528
C	7.31577	1.57521	-0.280858
H	6.62233	2.3941	0.00657949
H	8.24199	1.6566	0.324121
H	7.58651	1.71214	-1.35057
N	7.23634	-0.153611	2.25248
C	6.95943	-0.364854	3.65422
H	8.18729	-0.116473	1.96371
H	7.90519	-0.457785	4.23227
H	6.36583	-1.29613	3.80134
H	6.37508	0.486637	4.07212
