44
  This energy is 0.1626 and Call times are: 4064
C	2.5112	0.234438	-2.39825
C	1.94384	-0.33918	-1.15719
O	2.44422	-1.32183	-0.627642
H	3.38605	-0.3729	-2.71709
H	2.84432	1.27845	-2.21988
H	1.75115	0.222357	-3.20773
N	0.866161	0.271874	-0.659613
C	0.177313	-0.195456	0.517524
C	-1.28036	0.209508	0.404573
O	-1.65624	0.966865	-0.488086
H	0.446029	1.04597	-1.12451
H	0.21031	-1.27749	0.544777
C	0.806572	0.397948	1.79703
H	0.76346	1.50775	1.77437
H	0.293675	0.0347113	2.7111
H	1.87498	0.0954505	1.85487
N	-2.14176	-0.296422	1.30903
C	-3.54874	0.0284666	1.277
H	-1.81944	-0.910918	2.02148
H	-4.0899	-0.485492	2.10175
H	-4.0028	-0.287086	0.309772
H	-3.70123	1.12645	1.38803
C	1.14675	-1.47245	-0.0406986
C	2.51965	-1.31751	-0.572017
O	2.97768	-2.11034	-1.38321
H	0.683083	-2.38196	-0.480767
H	0.530404	-0.588914	-0.309474
H	1.17401	-1.58163	1.06402
N	3.21833	-0.275229	-0.11608
C	4.58169	-0.0175779	-0.507753
C	5.27003	0.714501	0.628831
O	4.62704	1.13143	1.59031
H	2.84649	0.338038	0.574932
H	5.09818	-0.959481	-0.64442
C	4.63433	0.821853	-1.80306
H	4.11371	1.79271	-1.66013
H	5.67884	1.01522	-2.12265
H	4.11795	0.270473	-2.61895
N	6.60484	0.881009	0.547796
C	7.34615	1.56051	1.58458
H	7.10832	0.533019	-0.236095
H	8.42951	1.59547	1.33492
H	7.22809	1.03561	2.56019
H	6.98077	2.60564	1.70843
