44
  This energy is 0.1059 and Call times are: 3460
C	-3.08922	1.53542	-0.46033
C	-2.21816	0.527475	0.184993
O	-2.60296	-0.115699	1.15177
H	-4.05787	1.58549	0.0828822
H	-3.28361	1.2533	-1.51644
H	-2.60687	2.53511	-0.42777
N	-1.00292	0.36741	-0.344105
C	-0.0280457	-0.544506	0.200502
C	1.35375	-0.00599226	-0.119169
O	1.49694	0.949149	-0.880035
H	-0.689254	0.927381	-1.10563
H	-0.123737	-0.567537	1.2789
C	-0.207168	-1.96053	-0.38945
H	-0.0986216	-1.93918	-1.4948
H	0.528855	-2.67521	0.0324663
H	-1.22777	-2.33135	-0.150262
N	2.4093	-0.605692	0.465823
C	3.76153	-0.158591	0.225518
H	2.27309	-1.37456	1.08175
H	4.48783	-0.777818	0.796718
H	3.88524	0.903793	0.537464
H	4.01321	-0.232004	-0.857259
C	6.0198	-1.66694	2.15082
C	4.69962	-1.50157	1.50204
O	3.8443	-2.37298	1.57617
H	6.06233	-2.65973	2.64922
H	6.17319	-0.874959	2.91371
H	6.82873	-1.61075	1.39217
N	4.50338	-0.359929	0.83832
C	3.28643	-0.0733217	0.120374
C	3.6227	0.861385	-1.02628
O	4.73768	1.37166	-1.11658
H	5.22385	0.322284	0.752448
H	2.90257	-0.988995	-0.311846
C	2.23466	0.568519	1.05154
H	2.62402	1.51342	1.48698
H	1.28811	0.781261	0.513672
H	2.00983	-0.129446	1.88738
N	2.66136	1.10175	-1.93954
C	2.89169	1.9734	-3.06797
H	1.76669	0.676398	-1.8517
H	1.98155	2.04262	-3.70365
H	3.7291	1.59076	-3.69536
H	3.15846	2.99903	-2.72437
