44
  This energy is 0.1003 and Call times are: 5936
C	2.49843	-2.08649	1.23172
C	1.98825	-0.751765	0.845218
O	2.59909	0.267669	1.1351
H	3.44686	-1.96696	1.79923
H	2.69612	-2.6976	0.326075
H	1.75814	-2.60766	1.87472
N	0.835416	-0.729135	0.172281
C	0.192433	0.495564	-0.234222
C	-1.30246	0.245588	-0.300287
O	-1.75623	-0.891874	-0.190794
H	0.329187	-1.56484	-0.0205717
H	0.359584	1.25424	0.520163
C	0.723408	0.968746	-1.60514
H	0.542693	0.19512	-2.38159
H	0.245995	1.91833	-1.92276
H	1.82019	1.13778	-1.53544
N	-2.1077	1.31213	-0.473815
C	-3.54355	1.17184	-0.543282
H	-1.72214	2.22516	-0.556247
H	-4.02887	2.16212	-0.68835
H	-3.94006	0.721377	0.395406
H	-3.83332	0.511385	-1.39238
C	0.582128	0.20194	-2.49517
C	1.753	0.742181	-1.76829
O	2.38008	1.69935	-2.20074
H	0.429017	0.784555	-3.4295
H	-0.32962	0.284114	-1.86691
H	0.753811	-0.862786	-2.75966
N	2.07944	0.127703	-0.628889
C	3.21879	0.511669	0.166735
C	3.71155	-0.715433	0.910359
O	3.0598	-1.75799	0.906688
H	1.58427	-0.675716	-0.310809
H	4.0187	0.835174	-0.487565
C	2.84494	1.63322	1.16052
H	2.03157	1.29814	1.8389
H	3.71734	1.9473	1.76946
H	2.47964	2.51804	0.594861
N	4.88682	-0.621062	1.56293
C	5.4377	-1.73872	2.29338
H	5.40173	0.229701	1.55096
H	6.40902	-1.46316	2.7601
H	5.6084	-2.60568	1.61477
H	4.74068	-2.06335	3.09956
