44
  This energy is 0.1083 and Call times are: 6843
C	-3.20074	0.141848	1.35935
C	-2.25859	-0.230301	0.279996
O	-2.60512	-0.959199	-0.639261
H	-4.18046	-0.351183	1.17786
H	-3.3495	1.24201	1.37502
H	-2.80724	-0.191789	2.34268
N	-1.02402	0.269561	0.371417
C	0.015189	-0.0375781	-0.579509
C	1.35127	0.0575562	0.132801
O	1.4262	0.51161	1.27295
H	-0.745159	0.828222	1.1473
H	-0.099079	-1.06064	-0.915546
C	-0.0295012	0.934553	-1.77876
H	0.0982393	1.98337	-1.43568
H	0.757153	0.69975	-2.52479
H	-1.01872	0.853752	-2.28003
N	2.4431	-0.379729	-0.525019
C	3.75608	-0.333642	0.0750855
H	2.36185	-0.747634	-1.44541
H	4.52191	-0.738011	-0.622922
H	3.78151	-0.937281	1.01117
H	4.03414	0.714062	0.332263
C	4.28101	-0.344115	-2.87499
C	3.02707	0.0332132	-2.18476
O	2.14677	0.653172	-2.7654
H	4.25476	0.0373268	-3.91886
H	4.38724	-1.44906	-2.89868
H	5.1542	0.09985	-2.35201
N	2.91843	-0.337426	-0.906787
C	1.77641	-0.00549793	-0.0918333
C	2.23497	0.082681	1.3516
O	3.36613	-0.273698	1.67593
H	3.66067	-0.805867	-0.436142
H	1.40868	0.973215	-0.373823
C	0.663981	-1.06615	-0.242735
H	1.03764	-2.0686	0.0564664
H	-0.226351	-0.814598	0.369271
H	0.349497	-1.11915	-1.30792
N	1.36336	0.571206	2.25584
C	1.71325	0.697274	3.6515
H	0.453966	0.858256	1.97357
H	0.864085	1.11879	4.23329
H	2.59225	1.37027	3.77683
H	1.97488	-0.296202	4.08242
