44
  This energy is -4.3024 and Call times are: 4313
C	2.96574	0.888791	-1.58969
C	2.16302	0.645877	-0.369946
O	2.68884	0.589941	0.733138
H	4.03826	0.979464	-1.31153
H	2.64091	1.83029	-2.0804
H	2.84887	0.042849	-2.29949
N	0.848606	0.491416	-0.545543
C	-0.0560701	0.206241	0.54018
C	-1.23039	-0.576858	-0.0159471
O	-1.37384	-0.720659	-1.22857
H	0.440769	0.498823	-1.4541
H	0.44176	-0.428459	1.26264
C	-0.543019	1.51014	1.20949
H	-1.06309	2.15696	0.471118
H	-1.22949	1.30339	2.05597
H	0.333393	2.07064	1.60203
N	-2.09867	-1.11173	0.864975
C	-3.24286	-1.87759	0.428529
H	-1.96356	-0.988028	1.84248
H	-3.83472	-2.2322	1.30098
H	-2.91921	-2.76648	-0.160024
H	-3.90675	-1.25879	-0.217604
C	8.5804	2.45812	-1.84722
C	7.40272	1.60747	-1.56326
O	6.32486	1.8184	-2.1019
H	8.29245	3.25602	-2.56575
H	9.3939	1.84869	-2.29394
H	8.94492	2.93177	-0.911346
N	7.58605	0.611293	-0.693541
C	6.52391	-0.273695	-0.284626
C	6.82826	-0.760668	1.11958
O	7.91466	-0.526777	1.64563
H	8.45851	0.477416	-0.232302
H	5.59466	0.280458	-0.239536
C	6.3959	-1.46761	-1.25593
H	7.3456	-2.0426	-1.29454
H	5.57232	-2.1491	-0.959617
H	6.18114	-1.0874	-2.27851
N	5.86528	-1.447	1.76582
C	6.06258	-1.94501	3.10717
H	4.9912	-1.6228	1.32519
H	5.15635	-2.48185	3.46463
H	6.27356	-1.10689	3.81026
H	6.92451	-2.65	3.14189
