44
  This energy is -2.4005 and Call times are: 1483
C	2.3971	-1.53479	-2.00275
C	1.56748	-0.368606	-1.62475
O	1.78004	0.739357	-2.09767
H	3.18276	-1.2099	-2.71903
H	1.76811	-2.31106	-2.48702
H	2.88637	-1.96408	-1.10308
N	0.588187	-0.596684	-0.746488
C	-0.274495	0.446534	-0.250467
C	-0.734656	0.0576469	1.14186
O	-0.502907	-1.06292	1.59169
H	0.453533	-1.49555	-0.339338
H	0.291981	1.36481	-0.158238
C	-1.4875	0.649997	-1.18453
H	-2.07493	-0.288865	-1.27114
H	-2.15215	1.46019	-0.820736
H	-1.12691	0.926046	-2.19948
N	-1.39484	0.984438	1.86383
C	-1.86606	0.706537	3.20058
H	-1.56929	1.88698	1.4843
H	-2.38376	1.59367	3.62743
H	-1.01558	0.441483	3.86969
H	-2.58077	-0.148043	3.19567
C	11.4553	-2.91864	0.389948
C	10.8327	-1.68843	0.928578
O	10.7507	-1.49602	2.13384
H	11.7784	-3.56645	1.23363
H	12.3428	-2.66059	-0.225329
H	10.7241	-3.47677	-0.232095
N	10.3707	-0.81509	0.0307188
C	9.70137	0.406584	0.402352
C	8.73282	0.77155	-0.706829
O	8.73992	0.162447	-1.77484
H	10.4079	-1.00463	-0.946288
H	9.11681	0.235529	1.2977
C	10.7189	1.54604	0.629372
H	11.3116	1.72902	-0.29216
H	10.2168	2.48856	0.92955
H	11.4223	1.25395	1.43949
N	7.86539	1.77623	-0.474018
C	6.9032	2.18985	-1.46865
H	7.87214	2.25448	0.397935
H	6.28072	3.02957	-1.08835
H	6.22717	1.34562	-1.73613
H	7.41808	2.52733	-2.39717
