44
  This energy is 0.1019 and Call times are: 7049
C	-3.23485	-0.428387	-1.21035
C	-2.23035	0.304242	-0.406984
O	-2.47553	1.40842	0.0589479
H	-4.15402	0.190178	-1.3019
H	-3.49502	-1.38761	-0.715428
H	-2.83674	-0.633071	-2.22657
N	-1.05597	-0.304602	-0.226693
C	0.0349045	0.301139	0.495551
C	1.33425	-0.251235	-0.0595546
O	1.33117	-1.18866	-0.85513
H	-0.856823	-1.18545	-0.646601
H	0.0345058	1.36868	0.313901
C	-0.0752569	0.0091231	2.00811
H	-0.0642721	-1.08572	2.19582
H	0.751459	0.481876	2.57694
H	-1.03694	0.415051	2.39117
N	2.48258	0.327127	0.343995
C	3.76704	-0.127541	-0.135209
H	2.46456	1.0872	0.985111
H	4.58895	0.47408	0.311707
H	3.82786	-0.0350473	-1.24382
H	3.92999	-1.19688	0.131456
C	5.7577	-2.2571	-2.45006
C	4.76081	-1.33907	-1.85458
O	3.75168	-1.01727	-2.46655
H	5.42961	-2.54181	-3.47336
H	5.84848	-3.17575	-1.83314
H	6.747	-1.75709	-2.51598
N	5.02817	-0.88833	-0.62668
C	4.17454	0.0446281	0.0657453
C	5.03432	0.857504	1.01526
O	6.20962	0.556608	1.21486
H	5.87371	-1.12691	-0.157637
H	3.74404	0.733915	-0.649924
C	3.06269	-0.695579	0.841069
H	3.50379	-1.39514	1.58275
H	2.39036	0.0126582	1.36728
H	2.45113	-1.28999	0.127621
N	4.46594	1.91919	1.62005
C	5.20797	2.75443	2.53545
H	3.51478	2.14925	1.44273
H	4.56682	3.57449	2.92743
H	6.0877	3.21036	2.02607
H	5.58034	2.15699	3.3989
