44
  This energy is 0.1982 and Call times are: 7441
C	-2.67304	-1.89816	1.16815
C	-1.97142	-0.607158	0.988709
O	-2.52711	0.454693	1.23384
H	-3.71062	-1.70671	1.51835
H	-2.147	-2.51771	1.92457
H	-2.71479	-2.4482	0.2044
N	-0.713269	-0.671901	0.546842
C	0.0829293	0.500652	0.282744
C	1.08414	0.157543	-0.804185
O	1.22748	-1.00272	-1.18492
H	-0.288283	-1.54163	0.312702
H	-0.554996	1.28625	-0.102636
C	0.811161	0.972271	1.56043
H	1.47377	0.170388	1.95026
H	1.41671	1.88267	1.37332
H	0.0595988	1.21018	2.34459
N	1.79855	1.16794	-1.33779
C	2.77062	0.937832	-2.38102
H	1.66557	2.10072	-1.0195
H	3.2523	1.89252	-2.68724
H	2.28588	0.486685	-3.27699
H	3.56558	0.24039	-2.03064
C	-0.998022	0.161634	0.936686
C	0.101743	0.421496	-0.0194231
O	-0.127634	0.789729	-1.16319
H	-1.97276	0.337773	0.43199
H	-0.916303	0.844086	1.80865
H	-0.959796	-0.891445	1.28688
N	1.34192	0.229696	0.436172
C	2.51196	0.400135	-0.388762
C	3.5981	-0.520534	0.134919
O	3.45617	-1.12073	1.19856
H	1.5111	-0.1096	1.3571
H	2.2844	0.0878194	-1.40034
C	2.99107	1.86824	-0.370066
H	3.2347	2.18588	0.666175
H	3.88331	2.01523	-1.01258
H	2.17778	2.52457	-0.749725
N	4.71233	-0.660116	-0.610065
C	5.79674	-1.51895	-0.19457
H	4.80709	-0.169385	-1.46988
H	6.62168	-1.49957	-0.940445
H	5.44574	-2.57091	-0.0874931
H	6.20467	-1.18939	0.788346
