44
  This energy is 0.119 and Call times are: 6626
C	3.05394	-1.02136	1.32021
C	2.23392	-0.430438	0.238769
O	2.75427	0.130222	-0.715857
H	4.12988	-0.843773	1.10413
H	2.87552	-2.11551	1.38147
H	2.80041	-0.550637	2.29347
N	0.910001	-0.543343	0.368668
C	-0.0184919	0.0186735	-0.58033
C	-1.30536	0.345414	0.153682
O	-1.48011	-0.0238565	1.31334
H	0.500335	-0.966508	1.17177
H	0.380659	0.950188	-0.961892
C	-0.290366	-0.968125	-1.73686
H	-0.709733	-1.92004	-1.34695
H	-0.993211	-0.54147	-2.4815
H	0.66611	-1.19916	-2.25466
N	-2.23862	1.05814	-0.507427
C	-3.49198	1.42079	0.112055
H	-2.07729	1.35147	-1.44391
H	-4.12419	2.00517	-0.592245
H	-3.31601	2.04002	1.02138
H	-4.05696	0.510713	0.418151
C	4.03751	2.92803	-0.831714
C	3.71788	1.83026	0.108446
O	4.37087	1.66047	1.12883
H	4.91935	3.48986	-0.45416
H	3.17639	3.62402	-0.914333
H	4.27667	2.51552	-1.83457
N	2.68902	1.04638	-0.222251
C	2.28524	-0.0880796	0.570546
C	1.64624	-1.10753	-0.353559
O	1.39724	-0.827217	-1.52451
H	2.19288	1.17207	-1.0766
H	3.16272	-0.551247	1.00428
C	1.29429	0.336368	1.67648
H	0.389205	0.802049	1.23149
H	0.986576	-0.526099	2.30257
H	1.78025	1.08831	2.33584
N	1.37225	-2.32574	0.153299
C	0.769318	-3.36163	-0.652661
H	1.58478	-2.53505	1.10203
H	0.623956	-4.28929	-0.0563764
H	1.41527	-3.60481	-1.52724
H	-0.223145	-3.03273	-1.03735
