44
  This energy is 1.5036 and Call times are: 1077
C	1.61122	1.48037	-2.7065
C	1.5883	0.55854	-1.54855
O	2.48773	-0.250066	-1.36529
H	2.51932	1.28167	-3.31622
H	1.63669	2.53378	-2.35662
H	0.712182	1.32278	-3.33895
N	0.539173	0.660845	-0.729257
C	0.355611	-0.196519	0.415204
C	-1.1334	-0.325681	0.675447
O	-1.94171	0.37556	0.0699666
H	-0.205341	1.29593	-0.914293
H	0.729671	-1.18607	0.183897
C	1.07429	0.377822	1.65572
H	0.683501	1.38865	1.89975
H	0.951997	-0.28041	2.54019
H	2.16105	0.4711	1.43984
N	-1.53266	-1.23819	1.58316
C	-2.92964	-1.43552	1.89252
H	-0.863983	-1.79915	2.05988
H	-3.05374	-2.22898	2.66209
H	-3.49454	-1.73939	0.981574
H	-3.38261	-0.495153	2.28196
C	7.60477	-3.09058	1.35892
C	7.2526	-1.83357	0.661031
O	6.159	-1.68793	0.132593
H	6.75354	-3.8019	1.28628
H	7.8133	-2.8879	2.43046
H	8.49924	-3.55139	0.889202
N	8.18962	-0.882764	0.642
C	8.00975	0.377414	-0.0348733
C	9.37336	0.878174	-0.472354
O	10.4008	0.318789	-0.0940474
H	9.08983	-1.03154	1.04117
H	7.42102	0.221167	-0.930194
C	7.32571	1.40779	0.890135
H	7.93453	1.57632	1.8039
H	7.16908	2.37812	0.375888
H	6.33324	1.01703	1.20423
N	9.41349	1.94675	-1.29244
C	10.6654	2.49027	-1.76507
H	8.5713	2.38336	-1.59104
H	10.4888	3.3658	-2.428
H	11.234	1.72412	-2.34042
H	11.2987	2.81993	-0.909797
