44
  This energy is -4.0678 and Call times are: 999
C	0.705757	-1.71178	-2.94693
C	-0.22527	-1.28786	-1.87706
O	-1.43148	-1.46253	-1.98173
H	0.125223	-2.15768	-3.78361
H	1.41596	-2.47119	-2.55749
H	1.27311	-0.837122	-3.32926
N	0.32447	-0.709134	-0.8069
C	-0.455915	-0.205349	0.295715
C	0.307035	0.942491	0.929691
O	1.46503	1.18854	0.59769
H	1.30397	-0.536855	-0.754299
H	-1.38853	0.196112	-0.0806925
C	-0.724538	-1.31621	1.3345
H	0.231838	-1.72112	1.72875
H	-1.33637	-0.944244	2.18175
H	-1.27664	-2.14905	0.846746
N	-0.332395	1.68136	1.85771
C	0.311768	2.79689	2.51104
H	-1.2707	1.46939	2.11015
H	-0.377319	3.27677	3.24049
H	0.621406	3.56383	1.76459
H	1.22212	2.45994	3.05774
C	7.38409	-2.28284	1.92832
C	6.12243	-1.62017	1.528
O	5.03795	-2.0451	1.90185
H	7.15005	-3.16761	2.5594
H	8.01598	-1.58154	2.51281
H	7.94123	-2.62018	1.02896
N	6.2391	-0.546661	0.742929
C	5.1002	0.177994	0.236634
C	5.49139	0.80967	-1.08607
O	6.65981	0.797591	-1.46862
H	7.12653	-0.237119	0.413503
H	4.29463	-0.517369	0.0362792
C	4.6445	1.26026	1.23977
H	5.46726	1.97998	1.43758
H	3.75958	1.816	0.86749
H	4.3708	0.776239	2.20265
N	4.51396	1.37264	-1.82344
C	4.79071	1.99289	-3.09815
H	3.57383	1.36891	-1.49908
H	3.85795	2.39715	-3.54956
H	5.23158	1.25471	-3.80668
H	5.51449	2.8313	-2.97843
