44
  This energy is 0.1058 and Call times are: 6899
C	1.60477	1.8321	-2.48613
C	1.2634	1.5798	-1.06804
O	1.83836	2.17002	-0.163895
H	2.42432	2.58138	-2.53892
H	0.720327	2.22811	-3.02806
H	1.94493	0.892712	-2.97083
N	0.304521	0.679391	-0.839604
C	-0.106775	0.296411	0.488072
C	-0.617576	-1.13098	0.431692
O	-0.783464	-1.6984	-0.64638
H	-0.125696	0.177316	-1.58439
H	0.753906	0.305292	1.14517
C	-1.20433	1.24365	1.02038
H	-2.09169	1.22691	0.352287
H	-1.51967	0.967538	2.04744
H	-0.811173	2.28343	1.04553
N	-0.872235	-1.7506	1.60099
C	-1.35597	-3.11081	1.64601
H	-0.727945	-1.27643	2.4632
H	-1.50408	-3.44091	2.69782
H	-0.629614	-3.80227	1.16066
H	-2.32856	-3.20003	1.11005
C	-0.114916	0.925971	-2.16253
C	0.423589	0.693405	-0.803457
O	-0.186761	1.06134	0.19078
H	-1.08259	1.46788	-2.0864
H	-0.285064	-0.0427414	-2.67769
H	0.595173	1.54008	-2.75559
N	1.60099	0.0682586	-0.730586
C	2.27177	-0.190373	0.519101
C	3.76534	-0.226928	0.255508
O	4.20253	-0.215222	-0.893595
H	2.10514	-0.188639	-1.55016
H	2.0846	0.629458	1.20135
C	1.79757	-1.52549	1.13378
H	1.99897	-2.36827	0.438652
H	2.29665	-1.72921	2.10329
H	0.700826	-1.479	1.31077
N	4.58784	-0.263819	1.32235
C	6.0237	-0.294942	1.16908
H	4.2154	-0.268568	2.24449
H	6.52466	-0.322729	2.1618
H	6.37997	0.607801	0.621893
H	6.33801	-1.1947	0.592203
