44
  This energy is 0.1025 and Call times are: 2904
C	-0.672587	1.73632	2.94032
C	-1.05274	1.26316	1.59023
O	-2.20202	1.36557	1.18394
H	-1.57102	2.143	3.45347
H	0.0913816	2.53833	2.86373
H	-0.266092	0.894964	3.5403
N	-0.0783463	0.723201	0.854448
C	-0.303587	0.179408	-0.461651
C	0.716093	-0.918143	-0.700793
O	1.64503	-1.09677	0.0846301
H	0.843235	0.609503	1.21449
H	-1.28433	-0.278408	-0.495963
C	-0.180422	1.27741	-1.54075
H	0.829093	1.74017	-1.51294
H	-0.365417	0.873959	-2.55738
H	-0.930412	2.07372	-1.34135
N	0.559928	-1.6891	-1.79499
C	1.47784	-2.76134	-2.10146
H	-0.200329	-1.53186	-2.41656
H	1.17997	-3.27767	-3.04055
H	1.49357	-3.51219	-1.27851
H	2.51235	-2.36841	-2.23009
C	9.80539	0.364069	-0.849459
C	8.73535	-0.026359	0.0959142
O	8.98865	-0.655631	1.11388
H	10.7811	-0.0177618	-0.477866
H	9.85961	1.47007	-0.930534
H	9.60764	-0.0706054	-1.85197
N	7.49388	0.343279	-0.227388
C	6.3438	-0.000556643	0.571135
C	5.13859	-0.0837148	-0.346537
O	5.21186	0.284602	-1.5173
H	7.29832	0.819573	-1.07989
H	6.48922	-0.983125	1.00245
C	6.10862	1.0483	1.68012
H	5.9489	2.05466	1.23767
H	5.23397	0.78746	2.31056
H	7.00609	1.09785	2.33467
N	3.99578	-0.581279	0.165746
C	2.79919	-0.703475	-0.633891
H	3.95715	-0.877928	1.11421
H	1.9674	-1.13383	-0.0337677
H	2.97871	-1.36716	-1.51057
H	2.4778	0.292758	-1.01517
