44
  This energy is 0.1009 and Call times are: 3874
C	-3.23485	0.0390753	1.28333
C	-2.23035	-0.413817	0.294881
O	-2.47553	-1.32343	-0.485443
H	-4.15402	-0.577961	1.18198
H	-3.49502	1.10351	1.10434
H	-2.83674	-0.0757372	2.31358
N	-1.05597	0.221008	0.308751
C	0.0349045	-0.135759	-0.56376
C	1.33425	0.221127	0.1333
O	1.33117	0.871442	1.17675
H	-0.856823	0.931943	0.977167
H	0.0345058	-1.20786	-0.71615
C	-0.0752569	0.603404	-1.91533
H	-0.0642721	1.70336	-1.76039
H	0.751459	0.326534	-2.60119
H	-1.03694	0.333554	-2.40389
N	2.48258	-0.206707	-0.427337
C	3.76704	0.0802585	0.167651
H	2.46456	-0.735195	-1.26962
H	4.58895	-0.356508	-0.441379
H	3.82786	-0.34575	1.19531
H	3.92999	1.17999	0.23962
C	8.4198	2.2432	-1.54037
C	7.09962	1.88796	-0.972865
O	6.2443	2.74049	-0.777852
H	8.46233	3.34067	-1.71244
H	8.57319	1.72145	-2.50836
H	9.22873	1.95845	-0.834947
N	6.90338	0.59833	-0.688716
C	5.68643	0.106524	-0.0922962
C	6.0227	-1.13322	0.714884
O	7.13768	-1.64673	0.645353
H	7.62385	-0.0775934	-0.814877
H	5.30257	0.846878	0.598463
C	4.63466	-0.220945	-1.17479
H	5.02402	-0.988153	-1.87752
H	3.68811	-0.587511	-0.727365
H	4.40983	0.698579	-1.75811
N	5.06136	-1.64051	1.51142
C	5.29169	-2.81464	2.32046
H	4.16669	-1.20863	1.55741
H	4.38155	-3.07433	2.90479
H	6.1291	-2.64145	3.03463
H	5.55846	-3.68673	1.68059
