44
  This energy is 0.1344 and Call times are: 4100
C	-1.51237	-2.71302	1.57001
C	-1.33357	-1.25748	1.36858
O	-2.11091	-0.450355	1.8592
H	-2.42259	-2.88985	2.1833
H	-0.633786	-3.13675	2.10037
H	-1.63409	-3.22273	0.590999
N	-0.287768	-0.885061	0.626973
C	-0.00801407	0.49273	0.307615
C	0.719542	0.531488	-1.02307
O	1.11689	-0.503868	-1.55398
H	0.312544	-1.55553	0.200401
H	-0.941525	1.02662	0.180517
C	0.847102	1.1523	1.41169
H	1.80944	0.611286	1.5352
H	1.05764	2.21739	1.18411
H	0.298684	1.10544	2.37781
N	0.904176	1.73531	-1.59992
C	1.58101	1.86964	-2.86879
H	0.571877	2.56142	-1.15699
H	1.63284	2.9375	-3.17573
H	1.04327	1.30247	-3.66278
H	2.61983	1.47238	-2.80414
C	7.55547	-0.536265	-0.477416
C	6.41756	0.00196248	0.301441
O	6.57134	0.418561	1.44127
H	8.47629	-0.499323	0.144345
H	7.71493	0.0722686	-1.3923
H	7.35793	-1.59054	-0.76474
N	5.22929	0.00259258	-0.307173
C	4.02183	0.454893	0.337814
C	2.85111	-0.292342	-0.27262
O	3.00412	-0.99735	-1.26824
H	5.1123	-0.377605	-1.2202
H	4.05865	0.194044	1.38816
C	3.84128	1.97888	0.164279
H	3.79286	2.24577	-0.912971
H	2.92213	2.34161	0.668382
H	4.71304	2.50495	0.611053
N	1.64792	-0.160731	0.319848
C	0.477527	-0.838456	-0.187152
H	1.54475	0.410944	1.12708
H	-0.413461	-0.60417	0.436133
H	0.629206	-1.94219	-0.180866
H	0.264924	-0.525168	-1.23491
