44
  This energy is 0.1068 and Call times are: 3738
C	1.52418	-1.06605	-2.94161
C	0.466644	-0.327655	-2.2153
O	-0.284629	0.440497	-2.80006
H	1.4983	-0.782393	-4.01621
H	1.35581	-2.16004	-2.85455
H	2.52233	-0.811714	-2.52675
N	0.385815	-0.546722	-0.900823
C	-0.563535	0.130656	-0.0532064
C	0.0298842	0.225985	1.33975
O	1.06466	-0.373272	1.62584
H	1.03079	-1.14372	-0.432337
H	-0.70577	1.14202	-0.413138
C	-1.9095	-0.625884	-0.0177582
H	-1.76578	-1.66011	0.361391
H	-2.65347	-0.106788	0.620662
H	-2.32139	-0.690601	-1.04854
N	-0.612209	0.994234	2.24171
C	-0.118805	1.14922	3.59031
H	-1.44591	1.47466	1.99029
H	-0.784353	1.81921	4.178
H	0.905108	1.58837	3.5859
H	-0.0693161	0.163185	4.10648
C	1.12274	-1.32616	-1.09075
C	2.52667	-0.919037	-1.32396
O	3.11347	-1.22962	-2.35138
H	0.766485	-1.92802	-1.95487
H	0.476481	-0.429356	-0.98659
H	1.05093	-1.94227	-0.169709
N	3.10575	-0.20407	-0.356549
C	4.47979	0.227753	-0.420526
C	5.00418	0.348432	0.99793
O	4.2448	0.253942	1.96028
H	2.62831	0.00598584	0.491854
H	5.06987	-0.531086	-0.919111
C	4.59964	1.57892	-1.15892
H	4.00288	2.36029	-0.641822
H	5.65447	1.9154	-1.22692
H	4.20285	1.46915	-2.1918
N	6.32618	0.55316	1.16053
C	6.91635	0.675239	2.47315
H	6.92524	0.622776	0.36974
H	8.01382	0.839627	2.39716
H	6.74092	-0.248916	3.07018
H	6.47054	1.5334	3.02629
