44
  This energy is 0 and Call times are: 7617
C	2.3931	1.45638	-2.06512
C	1.89773	0.337794	-1.23174
O	2.44718	-0.75503	-1.24765
H	3.26827	1.11286	-2.65838
H	2.70642	2.30433	-1.42049
H	1.59778	1.79605	-2.76167
N	0.827993	0.590703	-0.474065
C	0.205617	-0.409535	0.357039
C	-1.2658	-0.064971	0.490324
O	-1.70144	1.0077	0.0764158
H	0.367079	1.47309	-0.502779
H	0.268209	-1.37217	-0.134945
C	0.876328	-0.467108	1.74703
H	0.803114	0.51731	2.25654
H	0.415027	-1.24313	2.39163
H	1.95383	-0.712804	1.6247
N	-2.07182	-0.97742	1.06808
C	-3.48685	-0.739392	1.23299
H	-1.70157	-1.84136	1.39304
H	-3.97646	-1.60678	1.72811
H	-3.97577	-0.57797	0.244976
H	-3.66293	0.166296	1.85739
C	121.723	-1.48779	0.350103
C	122.595	-0.296122	0.24313
O	122.123	0.820376	0.0779388
H	120.662	-1.17744	0.23919
H	121.855	-1.97048	1.34127
H	121.97	-2.21582	-0.45112
N	123.909	-0.512042	0.334379
C	124.884	0.541996	0.206231
C	126.164	-0.0616029	-0.341358
O	126.293	-1.28024	-0.44121
H	124.28	-1.43162	0.427801
H	124.534	1.26681	-0.517966
C	125.146	1.22058	1.56878
H	125.515	0.479436	2.30917
H	125.885	2.04318	1.48074
H	124.194	1.64812	1.95421
N	127.143	0.784276	-0.719059
C	128.393	0.301468	-1.25671
H	127.018	1.76733	-0.634479
H	129.067	1.15006	-1.50778
H	128.219	-0.293567	-2.18241
H	128.912	-0.352107	-0.51868
