44
  This energy is -2.9654 and Call times are: 1691
C	1.4191	2.35059	2.13859
C	1.24524	0.960217	1.66134
O	1.98228	0.0624551	2.04501
H	2.28656	2.39499	2.83243
H	0.50914	2.68633	2.67896
H	1.61037	3.02871	1.28029
N	0.250007	0.749641	0.796727
C	-0.0160463	-0.540818	0.2115
C	-0.651585	-0.321455	-1.14847
O	-1.00535	0.800907	-1.50466
H	-0.315643	1.49804	0.462351
H	0.920565	-1.05975	0.0499343
C	-0.94846	-1.37542	1.11664
H	-1.91354	-0.848289	1.2741
H	-1.14973	-2.37664	0.683541
H	-0.466778	-1.51666	2.1088
N	-0.80412	-1.39551	-1.94795
C	-1.39386	-1.28237	-3.26156
H	-0.50795	-2.29487	-1.6438
H	-1.43142	-2.27474	-3.76258
H	-0.799769	-0.589467	-3.90047
H	-2.43215	-0.88431	-3.19332
C	4.81067	-3.19915	1.3699
C	5.42841	-1.86605	1.18995
O	6.3613	-1.50073	1.89186
H	5.31604	-3.72818	2.20691
H	4.92339	-3.80132	0.443917
H	3.73222	-3.09168	1.6117
N	4.91055	-1.09676	0.229537
C	5.37723	0.241279	-0.0358268
C	4.22131	1.04081	-0.606928
O	3.16904	0.488849	-0.922812
H	4.12465	-1.39197	-0.306245
H	5.66468	0.710853	0.896641
C	6.56486	0.225717	-1.02302
H	6.26748	-0.246432	-1.98358
H	6.94219	1.24918	-1.22467
H	7.39589	-0.371356	-0.587998
N	4.38894	2.37076	-0.745311
C	3.34223	3.21351	-1.27477
H	5.24613	2.7998	-0.480334
H	3.67208	4.27521	-1.30975
H	2.42881	3.15106	-0.639911
H	3.06744	2.89732	-2.30708
