44
  This energy is -2.5715 and Call times are: 1133
C	0.54308	-1.31758	-3.17517
C	-0.00399895	-1.40815	-1.80272
O	-0.776925	-2.30223	-1.48711
H	0.124779	-2.14212	-3.79246
H	1.64924	-1.41071	-3.15315
H	0.263175	-0.346531	-3.6354
N	0.390634	-0.465893	-0.94318
C	-0.0893066	-0.39703	0.414567
C	-0.0509506	1.05367	0.856777
O	0.492638	1.90981	0.161611
H	0.988102	0.27899	-1.22611
H	-1.12368	-0.716115	0.444437
C	0.774355	-1.27126	1.35
H	1.8337	-0.93761	1.32777
H	0.406472	-1.23758	2.39597
H	0.737957	-2.32698	1.00289
N	-0.639054	1.36598	2.02837
C	-0.65713	2.72125	2.52747
H	-1.07739	0.660103	2.57488
H	-1.18722	2.77368	3.50394
H	-1.17647	3.39713	1.81002
H	0.380291	3.10126	2.67061
C	3.59887	1.9362	-1.61197
C	4.06107	1.12057	-0.466425
O	3.43385	1.09081	0.583397
H	2.66698	2.47222	-1.32893
H	3.38726	1.28415	-2.48536
H	4.37335	2.6828	-1.88735
N	5.19	0.430929	-0.646097
C	5.78709	-0.373467	0.390722
C	7.28497	-0.414883	0.153677
O	7.77156	0.0368906	-0.881138
H	5.71114	0.497464	-1.49217
H	5.62533	0.102483	1.34985
C	5.19886	-1.80148	0.388706
H	5.37383	-2.29403	-0.591512
H	5.64063	-2.42664	1.19154
H	4.10098	-1.74639	0.555872
N	8.05599	-0.954424	1.11827
C	9.49192	-1.03203	0.983112
H	7.64429	-1.31106	1.95037
H	9.94624	-1.50738	1.88025
H	9.93089	-0.0148335	0.865264
H	9.7705	-1.63407	0.0880776
