44
  This energy is -8.5254 and Call times are: 7550
C	-1.85992	-2.70814	-1.14863
C	-0.847276	-1.64619	-1.34345
O	-0.123699	-1.63479	-2.32971
H	-1.8079	-3.42525	-1.99652
H	-2.87741	-2.26509	-1.11458
H	-1.66342	-3.25538	-0.202584
N	-0.771664	-0.715961	-0.388811
C	0.192598	0.355465	-0.417162
C	0.496519	0.756258	1.01411
O	-0.165318	0.307199	1.94794
H	-1.33945	-0.761641	0.428135
H	1.11532	-0.00583492	-0.853828
C	-0.34754	1.56284	-1.2145
H	-1.28856	1.94048	-0.76073
H	0.391319	2.38924	-1.25536
H	-0.570541	1.24454	-2.25628
N	1.51801	1.61059	1.22074
C	1.88407	2.04398	2.54903
H	2.04453	1.95995	0.452755
H	2.74755	2.74406	2.51027
H	2.16772	1.17236	3.18235
H	1.03146	2.56545	3.04125
C	5.69165	3.14257	-0.833858
C	4.64424	2.09811	-0.890444
O	3.53354	2.33934	-1.34274
H	5.28163	4.09587	-1.23255
H	6.56551	2.84195	-1.44927
H	6.01649	3.30227	0.215927
N	4.98082	0.894133	-0.421896
C	4.05586	-0.210604	-0.371182
C	4.46023	-1.11363	0.778866
O	5.5206	-0.936877	1.37559
H	5.87571	0.724205	-0.0192248
H	3.06347	0.164098	-0.153543
C	4.05904	-0.99433	-1.70197
H	5.07462	-1.38792	-1.92044
H	3.34064	-1.83929	-1.68043
H	3.76803	-0.312101	-2.53035
N	3.61399	-2.10415	1.12348
C	3.912	-3.00959	2.20863
H	2.75875	-2.22879	0.631438
H	3.09438	-3.75281	2.33647
H	4.03037	-2.45078	3.16519
H	4.8597	-3.56104	2.01141
