44
  This energy is -2.4822 and Call times are: 1303
C	-1.9914	0.677315	2.77277
C	-1.6472	-0.131556	1.58181
O	-2.1781	-1.21444	1.3771
H	-2.74343	0.131245	3.3828
H	-2.42078	1.65285	2.46178
H	-1.08584	0.852547	3.39111
N	-0.7328	0.385094	0.757592
C	-0.263982	-0.303754	-0.418952
C	1.1573	0.148231	-0.696822
O	1.65371	1.08445	-0.0732987
H	-0.279662	1.24876	0.959115
H	-0.231133	-1.36781	-0.220614
C	-1.17346	-0.00666788	-1.63132
H	-1.19914	1.08379	-1.84174
H	-0.830903	-0.542399	-2.54026
H	-2.20984	-0.338257	-1.40263
N	1.85181	-0.517197	-1.6407
C	3.2126	-0.161614	-1.96932
H	1.43445	-1.27472	-2.13166
H	3.61045	-0.825262	-2.76839
H	3.87029	-0.256654	-1.07507
H	3.26791	0.891622	-2.32817
C	9.05298	0.936733	-2.8257
C	8.72861	-0.0217072	-1.74527
O	9.15489	-1.1681	-1.767
H	9.68517	0.43111	-3.58762
H	9.61107	1.80356	-2.4135
H	8.12116	1.29476	-3.31212
N	7.95115	0.434831	-0.76062
C	7.51513	-0.391796	0.337161
C	6.18095	0.13832	0.827584
O	5.73631	1.20646	0.41155
H	7.57839	1.3582	-0.77778
H	7.34996	-1.40094	-0.0191835
C	8.55393	-0.384232	1.48
H	8.71592	0.649518	1.85304
H	8.23613	-1.02817	2.3255
H	9.52429	-0.768464	1.09646
N	5.50363	-0.606028	1.7238
C	4.22336	-0.184554	2.24288
H	5.87777	-1.46951	2.04549
H	3.82733	-0.930867	2.96635
H	3.48359	-0.0695015	1.41779
H	4.31408	0.795722	2.76439
