44
  This energy is -2.3201 and Call times are: 1105
C	-2.94461	-0.400728	1.81146
C	-1.82114	0.426534	1.31688
O	-1.83287	1.64427	1.4326
H	-3.72469	0.261364	2.24619
H	-2.58824	-1.09995	2.59684
H	-3.39016	-0.980159	0.975495
N	-0.809529	-0.228696	0.742698
C	0.333494	0.442192	0.175276
C	0.879729	-0.420817	-0.946507
O	0.457744	-1.56161	-1.12607
H	-0.833104	-1.21664	0.619072
H	0.0157496	1.37946	-0.264267
C	1.41793	0.686892	1.24736
H	1.75181	-0.275194	1.69115
H	2.29752	1.21528	0.825858
H	0.993813	1.31366	2.062
N	1.83222	0.111155	-1.73758
C	2.40727	-0.633396	-2.83354
H	2.15795	1.03736	-1.57912
H	3.17222	-0.0245861	-3.36405
H	1.62032	-0.923854	-3.56677
H	2.89472	-1.56427	-2.46339
C	8.47275	1.84849	2.23582
C	7.19468	1.5546	1.54929
O	6.14797	2.07456	1.91048
H	8.28567	2.55485	3.07361
H	9.18979	2.31347	1.52702
H	8.91113	0.913848	2.64488
N	7.25334	0.697364	0.527483
C	6.08681	0.280644	-0.210155
C	6.34185	-1.114	-0.750053
O	7.45716	-1.6255	-0.671555
H	8.10593	0.250893	0.271351
H	5.242	0.21598	0.464193
C	5.78456	1.26123	-1.36443
H	6.64689	1.31993	-2.06227
H	4.88039	0.958818	-1.93147
H	5.60911	2.2767	-0.946853
N	5.3038	-1.76838	-1.30705
C	5.45043	-3.10172	-1.84265
H	4.4079	-1.33958	-1.35774
H	4.48485	-3.46792	-2.2559
H	5.78289	-3.80945	-1.04901
H	6.2092	-3.11644	-2.65825
