44
  This energy is 0.1181 and Call times are: 6927
C	1.41755	-2.74663	-1.59976
C	1.33067	-1.80201	-0.463417
O	1.93169	-2.0115	0.581236
H	2.06456	-3.60477	-1.31539
H	1.85894	-2.24146	-2.48448
H	0.407311	-3.12841	-1.85814
N	0.564892	-0.723648	-0.645345
C	0.348331	0.26289	0.383442
C	-1.01361	0.891592	0.156691
O	-1.6524	0.65807	-0.867575
H	0.0493053	-0.587693	-1.48651
H	0.320575	-0.227543	1.3485
C	1.45383	1.341	0.355439
H	1.47577	1.85167	-0.63085
H	1.30595	2.09886	1.15187
H	2.44221	0.857404	0.515436
N	-1.49566	1.70306	1.11855
C	-2.78509	2.34158	0.992673
H	-0.965875	1.87664	1.94212
H	-3.00263	2.96791	1.88576
H	-3.59241	1.58021	0.893495
H	-2.81386	2.99476	0.090638
C	4.93263	0.371209	-2.30325
C	4.00731	0.915181	-1.28392
O	4.16094	2.03855	-0.82473
H	5.72311	1.12227	-2.51984
H	4.38125	0.149155	-3.24102
H	5.4123	-0.557327	-1.928
N	3.01012	0.114723	-0.900176
C	2.05553	0.487648	0.113846
C	1.56519	-0.778607	0.790411
O	1.85623	-1.88565	0.341581
H	2.92214	-0.812424	-1.25304
H	2.55124	1.0854	0.868555
C	0.872017	1.26562	-0.502029
H	0.356645	0.648874	-1.26888
H	0.13688	1.57045	0.27074
H	1.25504	2.1839	-0.998414
N	0.81104	-0.643381	1.899
C	0.304195	-1.79197	2.61316
H	0.589517	0.26067	2.24928
H	-0.292608	-1.47403	3.49632
H	1.14205	-2.43426	2.96919
H	-0.347458	-2.40908	1.95311
