44
  This energy is -2.8805 and Call times are: 1044
C	-0.665229	-1.18952	-3.20237
C	-0.796936	-0.169842	-2.13746
O	-1.27286	0.932405	-2.37188
H	-1.03677	-0.768612	-4.16189
H	-1.26533	-2.08834	-2.94792
H	0.399736	-1.47902	-3.32539
N	-0.368215	-0.521355	-0.922955
C	-0.391479	0.377701	0.203862
C	0.732313	-0.0139778	1.14473
O	1.36814	-1.05153	0.96885
H	0.0544507	-1.40772	-0.756888
H	-0.189222	1.38492	-0.138536
C	-1.75267	0.315943	0.930897
H	-1.95582	-0.714913	1.29159
H	-1.78803	1.01401	1.79227
H	-2.56083	0.598583	0.221431
N	1.00968	0.817933	2.16797
C	2.0653	0.530546	3.11098
H	0.486866	1.65488	2.29147
H	2.13723	1.33339	3.87746
H	3.04723	0.454257	2.59014
H	1.87478	-0.435677	3.6318
C	8.20273	3.24027	-0.210005
C	7.96845	1.89417	-0.779473
O	8.17139	1.66371	-1.96358
H	8.54775	3.92473	-1.01519
H	8.98243	3.19163	0.57895
H	7.26249	3.64111	0.223992
N	7.526	0.960761	0.0663248
C	7.21172	-0.383572	-0.349068
C	6.13692	-0.924973	0.574648
O	5.80371	-0.306569	1.58374
H	7.32653	1.17408	1.01846
H	6.79626	-0.360628	-1.34881
C	8.46689	-1.28237	-0.304702
H	8.88739	-1.31467	0.723003
H	8.24083	-2.31673	-0.63562
H	9.24277	-0.86289	-0.981743
N	5.56025	-2.09709	0.243595
C	4.52457	-2.68701	1.05939
H	5.84038	-2.58069	-0.579044
H	4.17803	-3.64851	0.620453
H	3.64925	-2.00231	1.13869
H	4.90098	-2.88674	2.08874
