44
  This energy is 0.1123 and Call times are: 6871
C	-2.86273	-1.97906	-0.0271551
C	-1.5351	-1.6004	-0.561133
O	-0.951046	-2.31097	-1.3676
H	-3.16788	-2.95624	-0.460629
H	-3.61813	-1.21283	-0.301041
H	-2.81753	-2.07471	1.07824
N	-1.02045	-0.452945	-0.112955
C	0.280632	0.026337	-0.507963
C	0.836986	0.870815	0.622914
O	0.133419	1.18087	1.58238
H	-1.48952	0.0941792	0.574425
H	0.947303	-0.816877	-0.639004
C	0.192106	0.85401	-1.80887
H	-0.483468	1.72512	-1.67176
H	1.18957	1.2171	-2.13099
H	-0.224904	0.218585	-2.62047
N	2.12518	1.25757	0.539178
C	2.74254	2.05839	1.57055
H	2.67969	0.993353	-0.242989
H	3.80479	2.27227	1.31936
H	2.71396	1.52772	2.54976
H	2.2076	3.02855	1.68791
C	2.11474	1.28071	-3.18277
C	1.65355	0.638756	-1.93123
O	0.461671	0.515021	-1.68523
H	1.23231	1.60703	-3.77495
H	2.7065	0.560952	-3.78652
H	2.73943	2.1687	-2.94969
N	2.60504	0.211216	-1.098
C	2.31198	-0.394391	0.177109
C	3.47174	-0.110825	1.11312
O	4.51149	0.393169	0.692885
H	3.57087	0.355865	-1.29323
H	1.43288	0.074283	0.601549
C	2.09585	-1.91637	0.0283575
H	3.00129	-2.39917	-0.397228
H	1.85577	-2.39213	1.00126
H	1.24784	-2.1004	-0.666877
N	3.31542	-0.422811	2.41475
C	4.36267	-0.18393	3.38035
H	2.46524	-0.826166	2.73658
H	4.04274	-0.506942	4.39551
H	4.61897	0.899522	3.42187
H	5.28469	-0.74658	3.10751
