44
  This energy is 0.2427 and Call times are: 6149
C	-3.25308	0.738527	-0.992336
C	-2.26784	0.29856	0.0210101
O	-2.57636	0.193695	1.20009
H	-4.22425	0.948196	-0.493587
H	-3.40334	-0.0579861	-1.75111
H	-2.89926	1.66414	-1.49347
N	-1.03841	0.0292614	-0.424366
C	0.0385806	-0.367863	0.447954
C	1.34477	0.0850163	-0.176816
O	1.37324	0.534062	-1.32105
H	-0.791562	0.158694	-1.38049
H	-0.061127	0.146525	1.39563
C	0.04142	-1.89768	0.659792
H	0.154282	-2.4257	-0.311032
H	0.85773	-2.21451	1.34081
H	-0.926707	-2.20759	1.11039
N	2.46262	-0.0155325	0.569049
C	3.7503	0.395916	0.0603404
H	2.41889	-0.377587	1.49429
H	4.54401	0.235123	0.822826
H	3.7385	1.47649	-0.210759
H	4.01682	-0.185904	-0.851576
C	4.24769	-3.31055	0.397062
C	4.53105	-1.89364	0.0757704
O	5.67948	-1.48719	-0.0352731
H	5.20724	-3.85812	0.520659
H	3.66876	-3.78104	-0.425268
H	3.66974	-3.38031	1.34268
N	3.47109	-1.09719	-0.0808475
C	3.58794	0.313715	-0.353343
C	2.36334	1.00775	0.212546
O	1.41152	0.356917	0.63937
H	2.54333	-1.43363	0.053048
H	4.45162	0.707813	0.167585
C	3.70528	0.574615	-1.87104
H	2.81454	0.179855	-2.4047
H	3.80978	1.65645	-2.09293
H	4.60352	0.0509347	-2.26508
N	2.36347	2.35513	0.236628
C	1.24419	3.10185	0.761787
H	3.14459	2.86416	-0.109494
H	1.43489	4.19563	0.694571
H	1.06555	2.84228	1.83043
H	0.315636	2.87188	0.190786
