44
  This energy is 0.1228 and Call times are: 4800
C	2.81314	0.953164	1.81395
C	1.5662	1.26893	1.08144
O	1.073	2.38757	1.12408
H	3.15302	1.85584	2.3667
H	3.60823	0.64719	1.10194
H	2.63276	0.133365	2.54092
N	1.0193	0.271154	0.383072
C	-0.216535	0.413705	-0.345593
C	-0.892392	-0.943403	-0.400641
O	-0.305484	-1.95509	-0.0215163
H	1.41022	-0.644807	0.391191
H	-0.875706	1.0806	0.196046
C	0.0421571	0.948012	-1.77137
H	0.709872	0.258822	-2.33102
H	-0.903011	1.07526	-2.33792
H	0.544332	1.93796	-1.70681
N	-2.15463	-0.994744	-0.869833
C	-2.87967	-2.24111	-0.953964
H	-2.61436	-0.16483	-1.1681
H	-3.90011	-2.07552	-1.36445
H	-2.97843	-2.70683	0.0533222
H	-2.34757	-2.96141	-1.61667
C	1.62024	-2.60746	-0.882069
C	1.8684	-1.19581	-0.512171
O	0.991661	-0.349607	-0.620237
H	0.578986	-2.71119	-1.25741
H	1.74989	-3.26374	0.00406737
H	2.32349	-2.92288	-1.68146
N	3.09149	-0.906516	-0.0618964
C	3.49582	0.430177	0.296332
C	4.99148	0.548204	0.0713424
O	5.66908	-0.443622	-0.191045
H	3.80679	-1.5981	-0.0182436
H	3.0132	1.13874	-0.365216
C	3.1438	0.737176	1.76843
H	3.64711	0.0170052	2.4482
H	3.43764	1.76844	2.05245
H	2.04573	0.637008	1.91177
N	5.54245	1.77472	0.161286
C	6.95683	1.98482	-0.0426158
H	4.97718	2.56579	0.370464
H	7.21535	3.06045	0.0732354
H	7.25887	1.6599	-1.06461
H	7.55157	1.39958	0.695567
