44
  This energy is -0.6548 and Call times are: 716
C	-0.310044	0.0535019	3.46608
C	-0.511659	-0.59224	2.14945
O	-0.872581	-1.75799	2.06481
H	-0.518235	-0.683186	4.2722
H	-1.00095	0.915199	3.57952
H	0.738644	0.40555	3.56307
N	-0.276407	0.164549	1.07506
C	-0.387704	-0.336147	-0.272332
C	0.56856	0.449814	-1.14947
O	1.14737	1.44442	-0.716507
H	0.0563369	1.09939	1.16004
H	-0.0705013	-1.37125	-0.296118
C	-1.83537	-0.201249	-0.793188
H	-2.1576	0.861768	-0.778905
H	-1.93706	-0.596125	-1.82482
H	-2.51856	-0.777598	-0.131809
N	0.763609	0.0133169	-2.40942
C	1.65957	0.694	-3.31501
H	0.289373	-0.795793	-2.74034
H	1.68412	0.182489	-4.30242
H	2.69486	0.711889	-2.90375
H	1.33283	1.74721	-3.47353
C	5.36039	-0.514418	-3.24799
C	6.43402	-0.510082	-2.22894
O	7.52518	-1.01387	-2.45691
H	5.72155	-1.03795	-4.15976
H	5.08397	0.5267	-3.51709
H	4.46596	-1.0454	-2.85925
N	6.14157	0.0672813	-1.06124
C	7.06863	0.111232	0.0420178
C	6.26884	0.152282	1.33052
O	5.0496	0.309583	1.31022
H	5.23542	0.436722	-0.87613
H	7.65307	-0.800307	0.0540365
C	7.99171	1.34507	-0.0618593
H	7.39322	2.28094	-0.0636063
H	8.71938	1.38272	0.774563
H	8.56116	1.29812	-1.01573
N	6.94109	0.00215668	2.48877
C	6.26341	0.0220124	3.76412
H	7.92703	-0.128139	2.48469
H	6.98777	-0.117733	4.59659
H	5.50528	-0.792567	3.81879
H	5.7384	0.992938	3.91518
