44
  This energy is 0.1007 and Call times are: 3380
C	2.87157	1.91573	0.443555
C	2.08346	0.899119	-0.288919
O	2.44018	0.491037	-1.38556
H	3.75299	2.20769	-0.167788
H	3.22631	1.50123	1.41056
H	2.25135	2.81708	0.633254
N	0.973681	0.462813	0.311428
C	0.0816378	-0.493236	-0.295851
C	-1.31579	-0.24213	0.238657
O	-1.50353	0.541778	1.16707
H	0.674723	0.83451	1.18569
H	0.0528566	-0.325757	-1.36531
C	0.528281	-1.93881	0.014111
H	0.547819	-2.11435	1.11085
H	-0.142734	-2.68439	-0.459565
H	1.55623	-2.09756	-0.378906
N	-2.3363	-0.900567	-0.345339
C	-3.70093	-0.720883	0.0924577
H	-2.16499	-1.52768	-1.09797
H	-4.39344	-1.34779	-0.5114
H	-4.01025	0.344231	-0.0130244
H	-3.81123	-1.00798	1.16323
C	6.88169	1.47888	-1.8057
C	6.33059	0.378727	-0.982833
O	6.92862	-0.681436	-0.861036
H	7.84545	1.15436	-2.25482
H	7.06259	2.37473	-1.17524
H	6.17426	1.73796	-2.62148
N	5.15606	0.610541	-0.391958
C	4.47397	-0.378733	0.404684
C	2.98341	-0.109677	0.318543
O	2.55798	0.914675	-0.211945
H	4.66181	1.46346	-0.533731
H	4.64949	-1.36034	-0.0175235
C	4.94938	-0.327939	1.87324
H	4.75991	0.67571	2.31008
H	4.44155	-1.09428	2.494
H	6.04398	-0.519628	1.91147
N	2.15024	-1.03453	0.834753
C	0.716217	-0.866971	0.793691
H	2.51321	-1.85892	1.25631
H	0.205265	-1.73363	1.2681
H	0.360481	-0.783595	-0.258822
H	0.412947	0.0583586	1.33492
