44
  This energy is -0.923 and Call times are: 943
C	-0.39479	-0.583987	-3.40819
C	-0.114872	-1.04725	-2.03045
O	-0.0760179	-2.23943	-1.75913
H	-0.562801	-1.46508	-4.06494
H	0.467039	-0.0034112	-3.79925
H	-1.30488	0.0521561	-3.42054
N	0.0874196	-0.0972489	-1.11451
C	0.328141	-0.391875	0.276101
C	-0.179718	0.775222	1.10164
O	-0.540628	1.81902	0.561317
H	0.0120616	0.86936	-1.34223
H	-0.24757	-1.26352	0.561439
C	1.83198	-0.626597	0.538011
H	2.42195	0.271213	0.25531
H	2.02864	-0.868032	1.6027
H	2.18375	-1.47975	-0.0822649
N	-0.227345	0.620929	2.43953
C	-0.701423	1.67513	3.30561
H	0.0651222	-0.232544	2.85801
H	-0.664237	1.35584	4.37045
H	-1.75355	1.94438	3.057
H	-0.0749336	2.58924	3.19137
C	9.52747	1.31724	-2.7801
C	9.52856	0.799279	-1.39343
O	10.5752	0.544719	-0.813621
H	10.5751	1.39586	-3.14362
H	9.0594	2.32353	-2.81237
H	8.96691	0.62752	-3.44578
N	8.3337	0.627197	-0.823264
C	8.17234	0.0905275	0.505082
C	6.83036	-0.613989	0.570782
O	6.02208	-0.516422	-0.350554
H	7.48941	0.800107	-1.3224
H	8.93709	-0.654841	0.684549
C	8.24835	1.21066	1.56564
H	7.45731	1.97014	1.38821
H	8.13933	0.808307	2.59362
H	9.23539	1.71756	1.49396
N	6.56467	-1.35216	1.66647
C	5.31589	-2.06263	1.81468
H	7.23292	-1.42235	2.39967
H	5.28776	-2.61086	2.78209
H	5.1832	-2.79994	0.99003
H	4.4556	-1.35532	1.78712
