44
  This energy is -0.5648 and Call times are: 5196
C	-1.25421	-2.78415	1.66977
C	-1.16531	-1.32173	1.45869
O	-1.94572	-0.554663	2.00547
H	-2.10764	-3.00634	2.34665
H	-0.319141	-3.16125	2.13473
H	-1.41975	-3.30125	0.701111
N	-0.196091	-0.897503	0.64442
C	-0.0111323	0.492237	0.308306
C	0.615813	0.565824	-1.07122
O	1.02654	-0.448754	-1.63126
H	0.405582	-1.53707	0.174508
H	-0.977538	0.977271	0.249713
C	0.886246	1.19687	1.34919
H	1.88147	0.70619	1.40212
H	1.02491	2.27093	1.10902
H	0.411915	1.12371	2.35219
N	0.696421	1.77646	-1.65763
C	1.27239	1.94301	-2.97167
H	0.354901	2.58525	-1.1904
H	1.24712	3.01156	-3.27958
H	0.708715	1.34752	-3.72595
H	2.33218	1.59971	-2.9827
C	5.1737	-1.46969	-3.15237
C	4.63127	-1.37668	-1.77823
O	3.63562	-2.00539	-1.44682
H	4.53255	-2.14901	-3.75512
H	6.20645	-1.87668	-3.1294
H	5.18234	-0.466812	-3.62906
N	5.28494	-0.573876	-0.935258
C	4.85258	-0.34775	0.421387
C	5.30895	1.03762	0.83856
O	6.07194	1.68977	0.128448
H	6.06981	-0.0370439	-1.23131
H	3.77032	-0.355295	0.457353
C	5.43348	-1.41809	1.37121
H	6.54389	-1.40365	1.34261
H	5.0966	-1.26296	2.41666
H	5.0931	-2.42423	1.04233
N	4.84198	1.52495	2.00495
C	5.21717	2.83608	2.48068
H	4.22219	0.983988	2.56379
H	4.72995	3.0547	3.45642
H	4.9102	3.62101	1.75202
H	6.32083	2.90392	2.61665
