44
  This energy is -1.9355 and Call times are: 5253
C	-1.9241	-0.554538	2.84658
C	-0.651339	-0.189884	2.18458
O	0.280043	0.283669	2.82073
H	-1.85822	-0.310202	3.92909
H	-2.11568	-1.64244	2.73473
H	-2.76515	0.0165438	2.39983
N	-0.584177	-0.404406	0.868581
C	0.57229	-0.0605113	0.0793528
C	0.108068	0.242655	-1.33279
O	-1.05045	0.0167094	-1.67704
H	-1.36509	-0.75237	0.35774
H	1.0177	0.844317	0.473723
C	1.60029	-1.21309	0.0756859
H	1.14697	-2.13878	-0.338598
H	2.50154	-0.955063	-0.517347
H	1.91996	-1.42306	1.11975
N	1.00626	0.773184	-2.18591
C	0.653795	1.09959	-3.54804
H	1.9379	0.95267	-1.88772
H	1.52751	1.52507	-4.08917
H	-0.171391	1.84777	-3.57172
H	0.311573	0.19079	-4.09404
C	5.06381	0.261838	3.03331
C	5.30214	-0.392296	1.72699
O	4.79645	-1.47339	1.4588
H	4.41	-0.387397	3.6553
H	4.56163	1.24091	2.88507
H	6.02635	0.417052	3.56481
N	6.09374	0.2599	0.872356
C	6.45244	-0.269955	-0.419594
C	7.81254	0.285716	-0.797667
O	8.33813	1.17361	-0.129012
H	6.53094	1.11956	1.12076
H	6.55178	-1.34597	-0.349345
C	5.39831	0.108314	-1.48305
H	5.3036	1.21226	-1.56299
H	5.65609	-0.305621	-2.47941
H	4.40962	-0.301716	-1.18186
N	8.42099	-0.234145	-1.88189
C	9.71919	0.228124	-2.31451
H	7.98168	-0.954889	-2.40783
H	10.0498	-0.321799	-3.2231
H	10.4786	0.0715688	-1.51444
H	9.68937	1.31571	-2.55413
