44
  This energy is 0.1267 and Call times are: 6196
C	3.46541	0.314724	0.0676886
C	2.22409	-0.469181	0.25682
O	2.2602	-1.67924	0.432477
H	4.34054	-0.370179	0.0980675
H	3.56982	1.06736	0.877242
H	3.44643	0.830133	-0.915716
N	1.07862	0.215692	0.222046
C	-0.21204	-0.414402	0.347539
C	-1.22446	0.426976	-0.406549
O	-0.919644	1.53298	-0.84876
H	1.06301	1.19421	0.0373193
H	-0.182588	-1.38682	-0.128035
C	-0.618122	-0.549367	1.83149
H	-0.658743	0.448903	2.31713
H	-1.60403	-1.04565	1.94196
H	0.140819	-1.16197	2.36541
N	-2.45894	-0.0853096	-0.578687
C	-3.48644	0.640697	-1.28815
H	-2.68547	-0.983663	-0.217138
H	-4.43006	0.052857	-1.3237
H	-3.16633	0.853232	-2.33392
H	-3.69761	1.6132	-0.787353
C	6.51697	2.52283	0.381537
C	6.05299	1.25076	-0.216573
O	6.64602	0.73988	-1.15664
H	7.415	2.88075	-0.167354
H	6.78518	2.36893	1.4479
H	5.72042	3.29305	0.30838
N	4.96144	0.704176	0.323933
C	4.36588	-0.509377	-0.177213
C	2.8798	-0.466762	0.124966
O	2.40847	0.411367	0.844996
H	4.46605	1.15299	1.06218
H	4.47526	-0.542756	-1.25403
C	5.01501	-1.75139	0.471834
H	4.89386	-1.72289	1.57572
H	4.5745	-2.69264	0.0838567
H	6.1034	-1.75775	0.244419
N	2.10148	-1.41692	-0.429511
C	0.675482	-1.45316	-0.202848
H	2.5006	-2.11673	-1.01265
H	0.21284	-2.30771	-0.744088
H	0.197074	-0.512227	-0.559297
H	0.452789	-1.56376	0.883116
