44
  This energy is 0.1118 and Call times are: 5908
C	3.37246	-0.829414	0.226447
C	2.22623	0.0591827	0.522575
O	2.3217	0.964457	1.33975
H	4.23851	-0.534578	0.858037
H	3.66002	-0.739868	-0.842213
H	3.10689	-1.88411	0.45044
N	1.09694	-0.18616	-0.145934
C	-0.114887	0.565639	0.0657811
C	-1.29271	-0.337177	-0.249195
O	-1.12102	-1.43811	-0.768976
H	1.02252	-0.952326	-0.777851
H	-0.188033	0.838381	1.1112
C	-0.145085	1.82611	-0.826153
H	-0.0806933	1.54624	-1.89926
H	-1.06701	2.42084	-0.66222
H	0.729941	2.46804	-0.58408
N	-2.52432	0.108043	0.0685175
C	-3.70421	-0.684299	-0.188835
H	-2.64278	0.999915	0.492313
H	-4.61936	-0.146228	0.143136
H	-3.65173	-1.65515	0.355186
H	-3.80113	-0.903068	-1.2769
C	0.565363	-0.941721	-2.9247
C	0.625977	-0.804073	-1.45211
O	-0.368311	-0.970873	-0.7593
H	-0.476109	-1.18464	-3.22831
H	1.23756	-1.75906	-3.26065
H	0.868784	0.00946708	-3.41076
N	1.81532	-0.48879	-0.933994
C	2.02135	-0.278691	0.477377
C	3.17007	0.697559	0.647516
O	3.85548	1.03748	-0.314966
H	2.60616	-0.316024	-1.51415
H	1.13924	0.183961	0.902174
C	2.33242	-1.61103	1.19386
H	3.24334	-2.08088	0.765479
H	2.47942	-1.46452	2.28356
H	1.48203	-2.31268	1.04938
N	3.40242	1.18033	1.88403
C	4.47026	2.11836	2.14093
H	2.83445	0.896635	2.64954
H	4.49889	2.39645	3.21753
H	4.32926	3.04754	1.54258
H	5.45563	1.67708	1.86624
