44
  This energy is 0.1103 and Call times are: 4725
C	-3.29321	-0.797894	-0.794243
C	-2.28657	0.00595341	-0.065101
O	-2.60431	1.02031	0.540317
H	-4.28993	-0.315507	-0.695634
H	-3.34604	-1.82217	-0.369025
H	-3.02804	-0.858064	-1.87088
N	-1.02783	-0.436665	-0.110165
C	0.0682193	0.261414	0.514279
C	1.33174	-0.0470028	-0.266706
O	1.33467	-0.906426	-1.14597
H	-0.778093	-1.24139	-0.641125
H	-0.101776	1.32858	0.444414
C	0.225714	-0.166432	1.98988
H	0.41063	-1.25946	2.06148
H	1.05774	0.374346	2.48567
H	-0.713235	0.0612519	2.54022
N	2.44002	0.658607	0.0330666
C	3.68729	0.438109	-0.661112
H	2.41696	1.35275	0.744898
H	4.47917	1.1152	-0.271619
H	3.56855	0.628962	-1.75233
H	4.02951	-0.613941	-0.529879
C	3.67181	-3.08171	-1.6075
C	3.93994	-1.62594	-1.60652
O	4.48111	-1.08133	-2.55886
H	4.04878	-3.52396	-2.55521
H	2.58016	-3.26983	-1.53237
H	4.18993	-3.56681	-0.753508
N	3.56226	-0.953678	-0.516659
C	3.79491	0.459487	-0.351157
C	3.92345	0.74706	1.13288
O	3.66635	-0.119073	1.96679
H	3.16003	-1.41772	0.26739
H	4.73799	0.722823	-0.81362
C	2.64202	1.28397	-0.964607
H	1.67582	1.02178	-0.483198
H	2.81619	2.37409	-0.855835
H	2.56126	1.05168	-2.04898
N	4.33554	1.97704	1.49804
C	4.4924	2.34024	2.88716
H	4.54275	2.66322	0.808624
H	4.83942	3.3928	2.98167
H	5.2389	1.67915	3.38412
H	3.52556	2.2394	3.43139
