44
  This energy is -1.9561 and Call times are: 1272
C	0.0616095	3.46752	-0.291909
C	0.705325	2.13896	-0.400069
O	1.78567	2.00252	-0.957429
H	0.700385	4.22703	-0.792901
H	-0.0602029	3.748	0.77544
H	-0.932893	3.45223	-0.785693
N	0.0425215	1.11277	0.138459
C	0.521079	-0.245711	0.0746789
C	-0.679968	-1.17211	0.103353
O	-1.80614	-0.736255	0.334603
H	-0.85511	1.2332	0.552731
H	1.02678	-0.40233	-0.869975
C	1.46975	-0.552388	1.25418
H	0.948261	-0.402036	2.22345
H	1.85594	-1.59128	1.20864
H	2.33706	0.142438	1.2178
N	-0.466743	-2.48008	-0.14116
C	-1.54987	-3.4356	-0.14036
H	0.451051	-2.81318	-0.330289
H	-1.17243	-4.45808	-0.362381
H	-2.31026	-3.16803	-0.909452
H	-2.05524	-3.45604	0.852276
C	3.52186	-2.02125	-1.97837
C	4.51532	-1.83214	-0.897434
O	4.80903	-2.74711	-0.140471
H	3.13087	-3.06121	-1.94005
H	3.99607	-1.85183	-2.96791
H	2.6756	-1.31415	-1.84833
N	5.0617	-0.617962	-0.799324
C	6.01123	-0.269642	0.228104
C	5.88414	1.21646	0.505438
O	5.19296	1.93461	-0.214446
H	4.78223	0.128047	-1.39701
H	5.75603	-0.791321	1.14208
C	7.45073	-0.617516	-0.210172
H	7.71675	-0.0744355	-1.14202
H	8.18985	-0.366779	0.578084
H	7.5184	-1.70822	-0.415411
N	6.54669	1.71301	1.56868
C	6.48068	3.11404	1.91355
H	7.09762	1.11543	2.14178
H	7.09196	3.32552	2.81846
H	5.42931	3.41815	2.12191
H	6.86273	3.74312	1.07723
