44
  This energy is -2.9974 and Call times are: 74
C	-2.97416	1.12344	1.41595
C	-1.50982	0.910949	1.45715
O	-0.819671	1.42595	2.32598
H	-3.27101	1.79776	2.24845
H	-3.5048	0.154998	1.53128
H	-3.26589	1.59209	0.452444
N	-0.99553	0.135459	0.49981
C	0.417048	-0.128447	0.383466
C	0.730798	-0.38874	-1.07782
O	-0.171913	-0.515138	-1.90296
H	-1.56458	-0.243359	-0.224443
H	0.970858	0.753542	0.680152
C	0.82494	-1.34068	1.24912
H	0.264758	-2.24817	0.938182
H	1.91289	-1.54551	1.17889
H	0.578955	-1.13125	2.31307
N	2.02798	-0.466853	-1.43455
C	2.42245	-0.706358	-2.8032
H	2.74427	-0.357839	-0.753289
H	3.53067	-0.736043	-2.89361
H	2.03792	0.0994893	-3.46955
H	2.01475	-1.67778	-3.16551
C	7.01046	-2.99102	1.20385
C	5.88255	-2.05889	0.979968
O	4.72552	-2.40847	1.16834
H	6.61296	-3.9776	1.52712
H	7.68128	-2.5968	1.99589
H	7.58732	-3.12625	0.26469
N	6.20106	-0.831126	0.56339
C	5.21096	0.172523	0.261814
C	5.7848	1.1016	-0.791317
O	6.96789	1.02894	-1.118
H	7.14467	-0.574123	0.375246
H	4.33907	-0.303865	-0.168872
C	4.82432	0.96466	1.52999
H	5.71659	1.46221	1.96627
H	4.0524	1.73134	1.31354
H	4.41432	0.263856	2.28967
N	4.95115	1.997	-1.35638
C	5.40663	2.91818	-2.37133
H	3.99614	2.03789	-1.08186
H	4.5737	3.57253	-2.71089
H	5.80077	2.36567	-3.25488
H	6.22289	3.56562	-1.97676
