44
  This energy is -3.5497 and Call times are: 7578
C	1.16219	-2.98759	1.3551
C	0.270177	-2.22606	0.452032
O	-0.400328	-2.79192	-0.4004
H	1.10721	-4.06826	1.10013
H	0.845601	-2.8508	2.41047
H	2.21123	-2.6433	1.23649
N	0.244561	-0.902005	0.621141
C	-0.54141	-0.0237864	-0.209246
C	0.148814	1.32639	-0.255785
O	1.10398	1.57106	0.478726
H	0.826917	-0.451935	1.29208
H	-0.561114	-0.411007	-1.22034
C	-1.9763	0.120382	0.343523
H	-1.95713	0.527514	1.37692
H	-2.59558	0.783275	-0.294902
H	-2.45932	-0.880605	0.376138
N	-0.317207	2.23696	-1.13312
C	0.279857	3.54676	-1.25191
H	-1.08847	2.01905	-1.72197
H	-0.243764	4.14882	-2.02687
H	1.35344	3.46455	-1.53815
H	0.221728	4.09451	-0.283549
C	3.36814	-2.39841	-1.49396
C	4.35387	-1.29657	-1.56756
O	4.93044	-1.03185	-2.61346
H	3.29204	-2.89015	-2.48807
H	2.37038	-2.0011	-1.21222
H	3.69109	-3.15135	-0.744386
N	4.57366	-0.620446	-0.437536
C	5.53519	0.449561	-0.342188
C	6.04304	0.503183	1.08637
O	5.51564	-0.172269	1.96803
H	4.12696	-0.874115	0.415676
H	6.38291	0.225723	-0.977707
C	4.90001	1.79933	-0.742078
H	4.03676	2.03449	-0.0836344
H	5.63412	2.62906	-0.68609
H	4.52832	1.73446	-1.78801
N	7.09229	1.30759	1.34719
C	7.64738	1.41902	2.67596
H	7.50822	1.8433	0.619807
H	8.50385	2.12865	2.68614
H	8.00891	0.428214	3.03497
H	6.87859	1.7867	3.39354
