44
  This energy is -3.4131 and Call times are: 7606
C	-1.34348	-2.05269	-2.46864
C	-0.432162	-0.974293	-2.02402
O	0.439168	-0.537099	-2.76298
H	-1.07544	-2.35654	-3.50387
H	-2.39409	-1.69368	-2.46012
H	-1.24875	-2.93388	-1.79958
N	-0.615557	-0.516189	-0.783504
C	0.219777	0.501041	-0.195269
C	0.238046	0.287869	1.30666
O	-0.517223	-0.524778	1.83664
H	-1.30247	-0.910393	-0.179664
H	1.23533	0.378959	-0.550772
C	-0.307129	1.91237	-0.535487
H	-1.3452	2.04178	-0.161712
H	0.335523	2.70462	-0.0997561
H	-0.319333	2.04326	-1.6396
N	1.11386	1.01251	2.03044
C	1.20659	0.873213	3.46508
H	1.7197	1.66212	1.58319
H	1.9846	1.55325	3.87674
H	1.47322	-0.172558	3.74174
H	0.233441	1.12057	3.94771
C	9.3275	1.39282	0.625732
C	8.20673	0.493459	0.980935
O	8.31697	-0.3318	1.87715
H	10.2023	1.16226	1.27176
H	9.03328	2.45171	0.78364
H	9.61582	1.24392	-0.436234
N	7.08468	0.634759	0.271415
C	5.9241	-0.196775	0.47184
C	5.17417	-0.287262	-0.843829
O	5.48931	0.420746	-1.79835
H	7.02393	1.28301	-0.482202
H	6.24294	-1.19868	0.730954
C	5.01318	0.384095	1.57549
H	4.67726	1.4079	1.30524
H	4.12295	-0.254622	1.74887
H	5.5849	0.44866	2.52696
N	4.16235	-1.17343	-0.92714
C	3.39549	-1.33323	-2.14063
H	3.92486	-1.74045	-0.145366
H	2.60939	-2.10922	-2.00976
H	4.05485	-1.6411	-2.98428
H	2.89998	-0.375745	-2.42142
