44
  This energy is 0.1015 and Call times are: 2961
C	-3.20081	-1.20898	-0.637066
C	-2.26396	-0.111219	-0.307858
O	-2.62386	1.0576	-0.335024
H	-4.19069	-0.779317	-0.904293
H	-3.32518	-1.88124	0.237769
H	-2.81772	-1.79306	-1.50031
N	-1.01889	-0.470019	0.0137431
C	0.0160662	0.487002	0.316298
C	1.35182	-0.126113	-0.0597505
O	1.43342	-1.31049	-0.379594
H	-0.729997	-1.42287	-0.00836547
H	-0.119871	1.36698	-0.299968
C	-0.0035028	0.865973	1.81337
H	0.146453	-0.0349154	2.44579
H	0.779954	1.61279	2.05623
H	-0.992783	1.30518	2.06787
N	2.43562	0.674466	-0.0378333
C	3.74752	0.180347	-0.385592
H	2.34896	1.63115	0.219671
H	4.50625	0.989887	-0.306894
H	3.75679	-0.208376	-1.42966
H	4.04799	-0.6494	0.294392
C	6.2872	-0.416716	-1.3345
C	5.01426	0.328221	-1.20854
O	4.89103	1.45375	-1.67159
H	7.0307	0.214221	-1.86832
H	6.12808	-1.35134	-1.91234
H	6.68497	-0.667494	-0.328533
N	4.02357	-0.294151	-0.565444
C	2.74096	0.319337	-0.326482
C	2.16027	-0.277198	0.941789
O	2.69194	-1.24437	1.48364
H	4.1521	-1.19394	-0.158366
H	2.87898	1.37891	-0.150766
C	1.78784	0.0878468	-1.51947
H	1.6376	-0.998974	-1.69352
H	0.801376	0.567287	-1.35352
H	2.23652	0.525391	-2.43794
N	1.05224	0.295632	1.45184
C	0.43205	-0.200094	2.6584
H	0.638861	1.08005	1.00141
H	-0.466198	0.40349	2.91545
H	1.14362	-0.151494	3.51432
H	0.117099	-1.26111	2.53111
