44
  This energy is 0.1496 and Call times are: 4772
C	-3.34733	0.201561	0.931375
C	-2.27965	-0.188668	-0.0167422
O	-2.51682	-0.911855	-0.974427
H	-4.30393	-0.273594	0.623131
H	-3.47674	1.30428	0.929273
H	-3.09134	-0.138415	1.95703
N	-1.05856	0.288575	0.235385
C	0.089808	-0.0383275	-0.57266
C	1.32331	0.0329092	0.307653
O	1.25746	0.486454	1.44856
H	-0.872915	0.842675	1.04184
H	0.00158868	-1.0594	-0.922314
C	0.219373	0.93347	-1.766
H	0.320501	1.98005	-1.40756
H	1.09203	0.683686	-2.40366
H	-0.697486	0.870387	-2.39189
N	2.48331	-0.424839	-0.203134
C	3.70762	-0.402311	0.562844
H	2.51586	-0.791954	-1.12684
H	4.55028	-0.821213	-0.0301726
H	3.59995	-1.00554	1.49332
H	3.96893	0.640336	0.855669
C	5.38394	2.30882	1.84899
C	4.58342	1.0686	1.73863
O	4.51863	0.272473	2.66512
H	5.87501	2.34152	2.8458
H	4.72818	3.19837	1.74206
H	6.16687	2.33025	1.06182
N	3.94729	0.873895	0.581125
C	3.16482	-0.306033	0.30896
C	3.19346	-0.55793	-1.1868
O	3.67329	0.27242	-1.95621
H	4.04273	1.51092	-0.178446
H	3.62706	-1.15971	0.788742
C	1.71141	-0.129711	0.800633
H	1.23332	0.739613	0.300883
H	1.10229	-1.03684	0.609265
H	1.71516	0.0613737	1.89599
N	2.68397	-1.72234	-1.63465
C	2.67301	-2.05146	-3.04097
H	2.30384	-2.38348	-0.996309
H	2.21354	-3.05066	-3.20745
H	3.70993	-2.07032	-3.44805
H	2.08978	-1.29681	-3.61672
