44
  This energy is -4.131 and Call times are: 212
C	-1.35068	-3.12067	0.741456
C	-1.38264	-1.82208	0.0316811
O	-2.17537	-1.61676	-0.877073
H	-2.11161	-3.79982	0.299151
H	-1.58168	-2.97443	1.81756
H	-0.34872	-3.58827	0.638912
N	-0.503837	-0.902428	0.437048
C	-0.385914	0.392752	-0.185175
C	1.04513	0.868448	-0.0196984
O	1.83184	0.259089	0.702445
H	0.162574	-1.09866	1.15067
H	-0.573257	0.29713	-1.24743
C	-1.36855	1.4012	0.449426
H	-1.16993	1.50758	1.53721
H	-1.29715	2.39875	-0.0304831
H	-2.4087	1.02891	0.323582
N	1.41955	1.97176	-0.696848
C	2.76253	2.49541	-0.605375
H	0.769889	2.44884	-1.27944
H	2.87337	3.4058	-1.23475
H	3.50361	1.73843	-0.950441
H	3.00861	2.76456	0.44731
C	6.84213	0.112243	-3.34851
C	6.43345	-0.62846	-2.13381
O	6.12603	-1.81128	-2.18713
H	6.79352	-0.567426	-4.22689
H	7.88275	0.483388	-3.23844
H	6.15979	0.97123	-3.52061
N	6.41892	0.0646525	-0.992863
C	6.00258	-0.507612	0.263213
C	5.43505	0.604698	1.12475
O	5.53812	1.78117	0.782713
H	6.63232	1.03722	-0.972303
H	5.20413	-1.21716	0.0853072
C	7.18799	-1.19392	0.97668
H	8.00309	-0.464042	1.16887
H	6.87716	-1.65053	1.93867
H	7.59244	-1.99882	0.324849
N	4.81084	0.25461	2.2666
C	4.23488	1.24405	3.14719
H	4.73385	-0.702823	2.52441
H	3.76699	0.758481	4.0318
H	3.45277	1.8342	2.61679
H	5.01613	1.95173	3.50773
