44
  This energy is -6.8365 and Call times are: 5842
C	-0.242211	-3.4321	0.524119
C	0.335642	-2.25668	-0.165533
O	1.32032	-2.36474	-0.883272
H	0.364249	-4.33275	0.28556
H	-1.28548	-3.60086	0.183763
H	-0.233228	-3.2736	1.62316
N	-0.273959	-1.08736	0.0428925
C	0.197345	0.151135	-0.525059
C	-0.208448	1.28132	0.402075
O	-0.96908	1.07876	1.3466
H	-1.04983	-1.00834	0.662288
H	1.27948	0.137788	-0.562977
C	-0.391327	0.37035	-1.93596
H	-1.50122	0.394663	-1.89609
H	-0.0249987	1.31403	-2.3896
H	-0.088311	-0.472344	-2.59505
N	0.300436	2.50475	0.156581
C	-0.0249794	3.63966	0.988603
H	0.917552	2.64811	-0.610027
H	0.491744	4.55502	0.624806
H	0.287003	3.45648	2.04235
H	-1.1226	3.83023	0.981697
C	4.73469	2.65666	2.2261
C	4.17777	1.73223	1.21296
O	2.97376	1.67142	1.00545
H	3.90334	3.2085	2.71618
H	5.41616	3.38818	1.74317
H	5.29233	2.08657	2.99883
N	5.05777	0.977797	0.550535
C	4.66393	0.00107674	-0.434076
C	5.70883	-1.09864	-0.453695
O	6.76243	-0.977452	0.168345
H	6.03104	1.00913	0.759422
H	3.72628	-0.450191	-0.134425
C	4.53198	0.647594	-1.83045
H	5.49655	1.10151	-2.14286
H	4.21571	-0.0914749	-2.59482
H	3.76802	1.45451	-1.79056
N	5.43513	-2.20854	-1.1673
C	6.3672	-3.30952	-1.23981
H	4.57545	-2.28988	-1.66066
H	5.96048	-4.128	-1.87377
H	6.56948	-3.72045	-0.224178
H	7.33629	-2.976	-1.67658
