44
  This energy is -2.1234 and Call times are: 5042
C	-0.521113	3.44109	0.000499482
C	0.106137	2.21794	0.549679
O	1.01344	2.28436	1.36748
H	-0.0242597	4.33555	0.435201
H	-1.60023	3.46755	0.260411
H	-0.406309	3.46732	-1.10369
N	-0.370949	1.05414	0.102088
C	0.166621	-0.219445	0.511425
C	-0.0525084	-1.20992	-0.616628
O	-0.748114	-0.915693	-1.58682
H	-1.08197	1.01671	-0.594267
H	1.23579	-0.126184	0.655658
C	-0.513409	-0.71472	1.80661
H	-1.60892	-0.820653	1.65604
H	-0.0983729	-1.68801	2.13973
H	-0.346913	0.0291528	2.6161
N	0.547598	-2.4125	-0.518203
C	0.400789	-3.4169	-1.54573
H	1.10995	-2.63064	0.272524
H	0.969786	-4.33551	-1.28188
H	0.780174	-3.03806	-2.52237
H	-0.670721	-3.69301	-1.67525
C	9.96318	-1.25312	-0.466844
C	8.51048	-1.4388	-0.251575
O	7.9883	-2.53853	-0.37127
H	10.4199	-2.22636	-0.749819
H	10.4444	-0.887591	0.464569
H	10.1386	-0.522595	-1.28455
N	7.81453	-0.347095	0.0743704
C	6.38666	-0.361733	0.273139
C	5.84641	1.01225	-0.0759645
O	6.60873	1.95171	-0.295008
H	8.24673	0.548554	0.127954
H	5.93768	-1.06882	-0.413206
C	6.0365	-0.726505	1.73244
H	6.48812	0.00462941	2.43638
H	4.93951	-0.754657	1.89477
H	6.44839	-1.73201	1.96834
N	4.5086	1.15924	-0.144369
C	3.90354	2.42841	-0.474975
H	3.90813	0.386356	0.0321423
H	2.79433	2.34557	-0.481041
H	4.2349	2.77106	-1.48199
H	4.19314	3.20712	0.267235
