44
  This energy is 0.1026 and Call times are: 3795
C	-3.10718	0.212873	-1.55332
C	-2.00362	-0.565861	-0.94763
O	-2.13264	-1.75593	-0.695646
H	-3.98935	-0.448776	-1.6943
H	-2.79618	0.612564	-2.54138
H	-3.39205	1.05456	-0.887362
N	-0.875428	0.101649	-0.694646
C	0.269938	-0.509889	-0.0679742
C	1.02556	0.566005	0.689023
O	0.727625	1.75217	0.5627
H	-0.799656	1.07951	-0.867597
H	-0.0670617	-1.23903	0.658262
C	1.1843	-1.17565	-1.11962
H	1.5388	-0.426007	-1.85881
H	2.06273	-1.66208	-0.648176
H	0.608444	-1.95377	-1.66666
N	2.02286	0.172739	1.50557
C	2.79368	1.12519	2.27033
H	2.24646	-0.791927	1.59774
H	3.56594	0.60678	2.88032
H	2.13397	1.70297	2.95751
H	3.3067	1.84798	1.5954
C	-1.0653	0.921622	0.775369
C	-0.0199491	0.517495	-0.191628
O	-0.305993	0.204871	-1.33917
H	-2.06124	0.864714	0.284734
H	-0.890641	1.96443	1.11418
H	-1.05784	0.241764	1.65333
N	1.2364	0.512963	0.259975
C	2.35595	0.102129	-0.550203
C	3.42597	-0.45541	0.369457
O	3.32478	-0.349628	1.59023
H	1.44907	0.730495	1.20829
H	2.04564	-0.700336	-1.20776
C	2.90992	1.28913	-1.36836
H	3.23817	2.10842	-0.693776
H	3.76363	0.982452	-2.00683
H	2.10783	1.68618	-2.02817
N	4.47935	-1.0739	-0.199641
C	5.54359	-1.64026	0.595845
H	4.54153	-1.15323	-1.18904
H	6.3168	-2.1046	-0.0551345
H	5.14702	-2.42323	1.28212
H	6.03261	-0.853855	1.21518
