44
  This energy is 0.1144 and Call times are: 5014
C	2.88437	-0.0270603	-1.9474
C	1.41409	-0.105678	-1.79495
O	0.673451	-0.0583804	-2.76739
H	3.13621	0.0913733	-3.0237
H	3.35874	-0.956225	-1.56745
H	3.28103	0.845921	-1.38736
N	0.952396	-0.227309	-0.548189
C	-0.454722	-0.272572	-0.237499
C	-0.649112	0.288333	1.15862
O	0.316582	0.531401	1.87978
H	1.56583	-0.223218	0.236383
H	-0.992543	0.371758	-0.921765
C	-0.991643	-1.71832	-0.319807
H	-0.447361	-2.37753	0.389582
H	-2.07718	-1.76454	-0.096186
H	-0.831756	-2.11123	-1.34762
N	-1.91177	0.515912	1.57083
C	-2.19376	1.05341	2.88147
H	-2.68	0.316744	0.971477
H	-3.28983	1.16848	3.03184
H	-1.71597	2.05194	3.00762
H	-1.79953	0.379208	3.67594
C	4.80157	1.44798	2.81392
C	5.97522	0.945575	2.06472
O	7.11471	1.16683	2.45074
H	5.14973	2.02481	3.69818
H	4.17745	0.598291	3.16212
H	4.19161	2.11401	2.16783
N	5.71733	0.247908	0.956055
C	6.75545	-0.268592	0.0992632
C	6.20742	-0.347277	-1.3132
O	5.01338	-0.157704	-1.53691
H	4.78541	0.111037	0.632567
H	7.58558	0.426602	0.0849065
C	7.22318	-1.66082	0.57693
H	6.3741	-2.37712	0.581781
H	8.03214	-2.06326	-0.0666054
H	7.61278	-1.5808	1.61527
N	7.07569	-0.622571	-2.30634
C	6.64639	-0.712073	-3.68251
H	8.0388	-0.768842	-2.10609
H	7.50622	-0.945946	-4.34828
H	6.19598	0.25054	-4.01686
H	5.88074	-1.51214	-3.80417
