44
  This energy is -3.0365 and Call times are: 1187
C	1.4925	3.11584	-0.420317
C	0.638032	2.17121	0.333809
O	0.261099	2.42667	1.46918
H	1.70756	4.00318	0.213922
H	0.971872	3.45062	-1.34206
H	2.45212	2.62882	-0.694217
N	0.310571	1.03812	-0.291695
C	-0.478828	0.00359269	0.328915
C	-0.0844819	-1.32574	-0.286661
O	0.653507	-1.37064	-1.26904
H	0.658831	0.826196	-1.20036
H	-0.238093	-0.0452471	1.38357
C	-1.9876	0.266353	0.129415
H	-2.23693	0.306055	-0.952387
H	-2.60642	-0.516022	0.614676
H	-2.25201	1.24766	0.580487
N	-0.56432	-2.44705	0.286427
C	-0.238443	-3.75724	-0.226802
H	-1.15678	-2.39061	1.08322
H	-0.728382	-4.55032	0.379988
H	0.862476	-3.92637	-0.201385
H	-0.579533	-3.86196	-1.28218
C	6.96876	1.09927	-3.00514
C	6.88686	0.133292	-1.88651
O	7.46087	-0.945695	-1.9386
H	7.58494	0.66417	-3.82176
H	7.44191	2.04319	-2.6618
H	5.95319	1.31671	-3.39809
N	6.15633	0.50584	-0.832984
C	5.94817	-0.344109	0.312796
C	4.60971	0.0142416	0.930605
O	3.98473	1.00229	0.549996
H	5.66156	1.3701	-0.82251
H	5.88723	-1.37488	-0.0134237
C	7.08473	-0.168602	1.34366
H	7.14085	0.886542	1.68654
H	6.94316	-0.828009	2.22437
H	8.05535	-0.428591	0.867599
N	4.13248	-0.791625	1.89954
C	2.86479	-0.532947	2.54159
H	4.65074	-1.58876	2.19118
H	2.6479	-1.30733	3.31005
H	2.03789	-0.538902	1.79494
H	2.87269	0.463371	3.04002
