44
  This energy is 0.2113 and Call times are: 2683
C	-0.215584	-2.65434	-2.24069
C	-0.828581	-1.69105	-1.29864
O	-2.04281	-1.56068	-1.22744
H	-1.01709	-3.16282	-2.81941
H	0.364902	-3.41877	-1.68264
H	0.456437	-2.12347	-2.94755
N	0.0134846	-0.981537	-0.543731
C	-0.431561	0.0245308	0.388107
C	0.665553	1.06377	0.521851
O	1.77341	0.877896	0.0220335
H	1.00062	-1.0695	-0.642224
H	-1.30265	0.525225	-0.0158091
C	-0.755241	-0.601096	1.76254
H	0.140972	-1.10583	2.18216
H	-1.11227	0.161377	2.48482
H	-1.55469	-1.36402	1.63938
N	0.377568	2.19362	1.19751
C	1.35691	3.24096	1.37117
H	-0.525793	2.32764	1.59128
H	0.929238	4.08664	1.95353
H	1.69443	3.63079	0.383554
H	2.25057	2.85726	1.91457
C	3.35301	3.06502	1.30858
C	2.47145	1.87591	1.30342
O	1.70947	1.6488	2.23306
H	3.19866	3.63256	2.25194
H	3.11109	3.72449	0.448737
H	4.4169	2.75292	1.24693
N	2.55956	1.07646	0.237822
C	1.79696	-0.140289	0.109269
C	2.58674	-1.10431	-0.755874
O	3.5999	-0.735215	-1.34662
H	3.21401	1.2526	-0.491919
H	1.68724	-0.597833	1.08458
C	0.412976	0.139537	-0.516451
H	0.525043	0.599267	-1.52151
H	-0.189225	-0.787557	-0.607954
H	-0.144103	0.853217	0.129042
N	2.14231	-2.37347	-0.843845
C	2.83194	-3.36244	-1.63915
H	1.32287	-2.6543	-0.355243
H	2.3121	-4.34422	-1.58327
H	3.87698	-3.49815	-1.27755
H	2.87424	-3.04816	-2.70713
