44
  This energy is -2.2171 and Call times are: 1535
C	1.06027	3.12421	-1.10806
C	0.929028	1.65892	-1.27184
O	1.18838	1.11524	-2.33653
H	1.39202	3.573	-2.06952
H	1.81238	3.35592	-0.324867
H	0.0823035	3.56659	-0.823511
N	0.513764	0.977013	-0.201821
C	0.297026	-0.448209	-0.219905
C	-0.775656	-0.776495	0.801435
O	-1.18218	0.0793227	1.58504
H	0.267323	1.43847	0.645639
H	-0.0825564	-0.739519	-1.19134
C	1.60206	-1.20883	0.101946
H	1.98623	-0.918159	1.10293
H	1.45143	-2.30757	0.077477
H	2.37505	-0.947358	-0.653352
N	-1.26765	-2.03104	0.810242
C	-2.29446	-2.43377	1.7428
H	-0.92902	-2.7085	0.165685
H	-2.56577	-3.50187	1.59188
H	-3.21206	-1.81657	1.60734
H	-1.94414	-2.30574	2.79257
C	4.31018	-0.0731466	2.43068
C	5.0576	0.609859	1.35085
O	4.66057	1.6648	0.875575
H	3.39707	0.512904	2.67281
H	4.93966	-0.150611	3.34199
H	4.00802	-1.09015	2.10283
N	6.17476	0.0109398	0.931767
C	6.98525	0.532367	-0.140511
C	7.68521	-0.632951	-0.814053
O	7.64331	-1.76043	-0.325433
H	6.46319	-0.868283	1.30005
H	6.34409	0.994898	-0.880511
C	8.01798	1.54934	0.392849
H	8.68276	1.07251	1.14434
H	8.63901	1.96844	-0.425192
H	7.4838	2.38917	0.888516
N	8.34243	-0.387218	-1.96457
C	9.03322	-1.43523	-2.67917
H	8.36163	0.530845	-2.3465
H	9.51089	-1.03434	-3.60022
H	8.32427	-2.24223	-2.97486
H	9.82626	-1.8889	-2.04167
