44
  This energy is -2.1417 and Call times are: 747
C	-1.79369	2.88072	0.77254
C	-0.611014	2.19483	0.205113
O	0.211317	2.80233	-0.46654
H	-1.77914	3.94995	0.468538
H	-1.77486	2.82201	1.88112
H	-2.72631	2.41203	0.393546
N	-0.499786	0.890205	0.465819
C	0.573091	0.0788863	-0.053079
C	0.0646552	-1.34344	-0.194585
O	-1.02869	-1.66991	0.263367
H	-1.19867	0.401011	0.97975
H	0.837253	0.427083	-1.04384
C	1.80122	0.124365	0.882271
H	1.53331	-0.242682	1.89595
H	2.63914	-0.485434	0.486612
H	2.15131	1.17542	0.977464
N	0.848751	-2.22601	-0.844427
C	0.445449	-3.60014	-1.03233
H	1.72833	-1.94205	-1.21155
H	1.22437	-4.16592	-1.58946
H	-0.506683	-3.65479	-1.60829
H	0.283877	-4.10019	-0.0499891
C	8.47533	-0.962804	-2.69886
C	7.36206	-1.1933	-1.75088
O	6.55509	-2.09515	-1.92942
H	8.40955	-1.69957	-3.52874
H	9.45007	-1.08921	-2.18247
H	8.41161	0.0618362	-3.12209
N	7.29243	-0.366508	-0.704958
C	6.24121	-0.438905	0.279038
C	6.03291	0.950414	0.85173
O	6.81144	1.86427	0.586257
H	7.93262	0.388441	-0.595147
H	5.3176	-0.7298	-0.205682
C	6.60259	-1.43804	1.39992
H	7.54449	-1.13425	1.90449
H	5.79493	-1.5131	2.1566
H	6.75825	-2.44596	0.956966
N	4.96447	1.14402	1.64982
C	4.68254	2.43369	2.23586
H	4.34355	0.39331	1.84975
H	3.76222	2.38978	2.85901
H	4.53226	3.20128	1.44245
H	5.5278	2.76534	2.88138
