44
  This energy is 0.1105 and Call times are: 6410
C	-3.24295	1.24788	0.196776
C	-2.27211	0.130976	0.2303
O	-2.60316	-0.984342	0.6083
H	-4.22727	0.890247	0.569728
H	-3.36534	1.6175	-0.843007
H	-2.89316	2.07857	0.845385
N	-1.0298	0.412329	-0.169543
C	0.0350102	-0.5595	-0.152341
C	1.34665	0.179288	0.0356604
O	1.39174	1.40671	-0.020217
H	-0.765365	1.33491	-0.435614
H	-0.0920421	-1.21355	0.701306
C	0.0569883	-1.37704	-1.46245
H	0.197875	-0.707591	-2.33767
H	0.863898	-2.13821	-1.45577
H	-0.915322	-1.90273	-1.58336
N	2.45035	-0.556616	0.272963
C	3.74174	0.0595478	0.47004
H	2.39318	-1.54844	0.318643
H	4.52199	-0.712055	0.651861
H	3.71892	0.748024	1.34569
H	4.03586	0.65135	-0.426847
C	4.32157	2.56743	-1.00995
C	3.21265	2.04312	-0.181362
O	2.76148	2.68905	0.754389
H	4.63164	3.56194	-0.621799
H	3.99154	2.68001	-2.06406
H	5.19082	1.8778	-0.966617
N	2.74332	0.837799	-0.511989
C	1.69574	0.178099	0.226873
C	1.88834	-1.32004	0.0852369
O	2.71436	-1.77712	-0.702457
H	3.14823	0.306616	-1.25074
H	1.79451	0.41805	1.2782
C	0.304098	0.596928	-0.295784
H	0.198384	0.341406	-1.37169
H	-0.511274	0.106267	0.274251
H	0.188284	1.69769	-0.189773
N	1.13029	-2.12364	0.856987
C	1.24789	-3.56186	0.794824
H	0.470231	-1.73504	1.49133
H	0.541271	-4.04528	1.50491
H	2.28215	-3.88305	1.0564
H	1.02104	-3.93078	-0.231616
