44
  This energy is -3.519 and Call times are: 1913
C	0.643236	3.37508	0.554778
C	0.890342	1.94024	0.821845
O	1.85418	1.57593	1.48116
H	1.45183	3.97982	1.01991
H	-0.33103	3.68297	0.989231
H	0.636425	3.56506	-0.539275
N	0.0102545	1.0801	0.304185
C	0.141083	-0.349004	0.442454
C	-0.515952	-1.00252	-0.758701
O	-1.17964	-0.338321	-1.55247
H	-0.746453	1.38934	-0.2647
H	1.19046	-0.615413	0.420798
C	-0.515136	-0.838948	1.75187
H	-1.59408	-0.575166	1.76993
H	-0.408936	-1.93607	1.87668
H	-0.0240828	-0.341876	2.61682
N	-0.337787	-2.32793	-0.924775
C	-0.920378	-3.03487	-2.04147
H	0.205963	-2.84762	-0.274137
H	-0.659538	-4.11544	-2.00213
H	-0.548874	-2.61956	-3.00624
H	-2.03045	-2.94128	-2.02997
C	2.67037	0.897037	-2.42506
C	4.03137	0.483867	-2.01503
O	4.86478	0.140564	-2.84206
H	2.57908	0.815604	-3.53
H	2.48351	1.94973	-2.12562
H	1.91174	0.238231	-1.95228
N	4.28905	0.506355	-0.705262
C	5.55352	0.0911458	-0.150936
C	5.30644	-0.43056	1.25204
O	4.20855	-0.297341	1.78924
H	3.5876	0.748947	-0.0412076
H	5.94744	-0.73058	-0.735928
C	6.55603	1.26564	-0.12316
H	6.15695	2.10482	0.485569
H	7.53808	0.955132	0.28878
H	6.7156	1.63653	-1.15917
N	6.32728	-1.04853	1.87815
C	6.18366	-1.58205	3.21266
H	7.207	-1.15035	1.42561
H	7.13295	-2.05151	3.55278
H	5.38059	-2.35371	3.24284
H	5.91408	-0.774955	3.93173
