44
  This energy is -2.3746 and Call times are: 2654
C	0.431973	-0.802747	3.35882
C	0.460322	-1.15348	1.921
O	0.96941	-2.1962	1.53373
H	0.938776	-1.60213	3.94194
H	-0.617403	-0.712086	3.71001
H	0.962778	0.15766	3.52898
N	-0.0940193	-0.273086	1.08435
C	-0.104828	-0.454854	-0.345822
C	-0.125213	0.915403	-0.996616
O	-0.2946	1.93002	-0.323134
H	-0.46797	0.590364	1.41067
H	0.812316	-0.943187	-0.650797
C	-1.33175	-1.28238	-0.787515
H	-2.27312	-0.776586	-0.484148
H	-1.34403	-1.44105	-1.88533
H	-1.30032	-2.27782	-0.293081
N	0.056761	0.976889	-2.33046
C	0.0584481	2.23731	-3.03581
H	0.196384	0.14531	-2.85777
H	0.223384	2.07859	-4.12431
H	0.866729	2.90112	-2.652
H	-0.913911	2.7642	-2.90148
C	4.16356	-2.54913	-2.329
C	4.90856	-1.38836	-1.79163
O	6.0249	-1.10637	-2.20476
H	4.78555	-3.06247	-3.09415
H	3.21788	-2.21103	-2.80242
H	3.93257	-3.26644	-1.51341
N	4.29678	-0.679462	-0.840015
C	4.91248	0.451026	-0.190809
C	4.33908	0.562457	1.20932
O	3.38326	-0.129205	1.55532
H	3.40508	-0.945643	-0.485213
H	5.97543	0.270137	-0.0906111
C	4.65679	1.7503	-0.985634
H	3.56661	1.94191	-1.07964
H	5.13759	2.62588	-0.503237
H	5.07762	1.64318	-2.00923
N	4.91956	1.43647	2.05499
C	4.44571	1.60679	3.40874
H	5.69459	1.98438	1.75802
H	5.05251	2.36949	3.94477
H	4.51174	0.64757	3.97161
H	3.38194	1.9377	3.41413
