44
  This energy is 0.122 and Call times are: 7363
C	-2.55158	0.484887	2.31668
C	-1.41064	0.977409	1.51243
O	-1.16669	2.17297	1.42564
H	-3.08978	1.35096	2.75956
H	-2.18771	-0.169514	3.1365
H	-3.25524	-0.0849204	1.67383
N	-0.675926	0.0497397	0.894365
C	0.439627	0.377423	0.0418835
C	0.579326	-0.719443	-0.996829
O	-0.0795951	-1.75407	-0.912723
H	-0.911522	-0.916776	0.941365
H	0.226436	1.29772	-0.487487
C	1.74027	0.514034	0.863401
H	1.96508	-0.433258	1.39832
H	2.60402	0.779848	0.220116
H	1.61245	1.31661	1.62227
N	1.4411	-0.513066	-2.0121
C	1.63621	-1.49831	-3.05008
H	1.96235	0.332246	-2.06527
H	2.38359	-1.14354	-3.79357
H	0.679625	-1.70098	-3.58407
H	2.00016	-2.45826	-2.61743
C	6.42963	-0.689942	1.2356
C	5.00994	-1.0482	1.01812
O	4.60149	-2.17973	1.24
H	6.98473	-1.58624	1.58826
H	6.50969	0.107667	2.00382
H	6.88464	-0.335838	0.286572
N	4.21431	-0.0747321	0.568989
C	2.81944	-0.28214	0.269233
C	2.41781	0.699219	-0.815757
O	3.18149	1.59624	-1.16769
H	4.5701	0.830311	0.354125
H	2.68457	-1.27905	-0.131512
C	1.94879	-0.0825621	1.52915
H	2.07876	0.943487	1.93458
H	0.873927	-0.2531	1.31443
H	2.26545	-0.805509	2.31236
N	1.20388	0.544993	-1.38019
C	0.738018	1.42775	-2.42416
H	0.601672	-0.189336	-1.08491
H	-0.282509	1.13761	-2.75819
H	1.41938	1.38855	-3.30478
H	0.702444	2.48064	-2.0618
