44
  This energy is 0.1107 and Call times are: 4257
C	-0.0484352	0.310924	-3.46607
C	-0.690676	0.430675	-2.13779
O	-1.75494	1.01783	-1.9999
H	-0.671652	0.833672	-4.22384
H	0.0433881	-0.758037	-3.75179
H	0.959676	0.776157	-3.44704
N	-0.0448814	-0.131614	-1.11351
C	-0.523334	-0.061068	0.244676
C	0.675115	-0.128515	1.17243
O	1.79487	-0.389494	0.736824
H	0.840782	-0.570624	-1.23491
H	-1.0022	0.896782	0.405429
C	-1.50557	-1.21465	0.544198
H	-1.01163	-2.19758	0.389607
H	-1.89176	-1.16336	1.58282
H	-2.37053	-1.15015	-0.151525
N	0.467094	0.1154	2.48134
C	1.54842	0.0790218	3.43821
H	-0.44542	0.328869	2.81424
H	1.17602	0.306552	4.46132
H	2.33073	0.82752	3.17548
H	2.02535	-0.927668	3.45427
C	8.01572	-0.950232	-2.36922
C	7.58247	-0.748939	-0.968173
O	8.24133	-1.1829	-0.0332999
H	8.96003	-1.53673	-2.38098
H	8.19531	0.0299552	-2.85884
H	7.23904	-1.50829	-2.93351
N	6.44317	-0.0761189	-0.790145
C	5.87185	0.16139	0.512063
C	4.36712	0.274039	0.355005
O	3.8526	0.327639	-0.760387
H	5.89687	0.235333	-1.56242
H	6.06668	-0.692573	1.14878
C	6.44849	1.44867	1.14106
H	6.23969	2.32668	0.49334
H	6.02666	1.63506	2.14994
H	7.55139	1.347	1.23914
N	3.62183	0.304196	1.47734
C	2.18187	0.404464	1.42603
H	4.05603	0.255597	2.37075
H	1.75154	0.414384	2.45168
H	1.74749	-0.459091	0.872066
H	1.87125	1.33957	0.906192
