44
  This energy is -1.0049 and Call times are: 1342
C	-0.586936	-1.75495	-2.9476
C	-0.701236	-1.5968	-1.48027
O	-1.43593	-2.31934	-0.821057
H	-1.25939	-2.57456	-3.28216
H	0.457254	-2.0111	-3.22472
H	-0.884651	-0.814856	-3.45817
N	0.0347069	-0.629118	-0.928571
C	-0.00300681	-0.326449	0.480516
C	0.325244	1.14411	0.65736
O	0.724132	1.81871	-0.290012
H	0.596752	-0.0225052	-1.48354
H	-1.00862	-0.479422	0.851958
C	1.00149	-1.20303	1.26015
H	2.03465	-1.03863	0.886559
H	0.972068	-0.989149	2.34823
H	0.746942	-2.27494	1.10992
N	0.155571	1.67974	1.88224
C	0.43709	3.072	2.14403
H	-0.172012	1.11886	2.63535
H	0.235129	3.32052	3.20924
H	-0.197233	3.72794	1.50477
H	1.50442	3.305	1.9257
C	8.2893	-0.675185	-3.07227
C	8.11195	-0.932527	-1.62539
O	8.58942	-1.92664	-1.09608
H	8.87281	-1.50645	-3.52434
H	8.84019	0.2763	-3.22703
H	7.30065	-0.615552	-3.57434
N	7.40672	-0.0268642	-0.943613
C	7.11352	-0.161819	0.461512
C	5.80576	0.553918	0.74267
O	5.27375	1.25425	-0.116514
H	6.98972	0.75606	-1.39638
H	6.96545	-1.20844	0.696614
C	8.25099	0.430834	1.32184
H	8.39625	1.50718	1.08856
H	8.04345	0.320565	2.40595
H	9.19962	-0.102513	1.09384
N	5.25014	0.386287	1.95889
C	4.00387	1.02365	2.31493
H	5.69349	-0.187542	2.6395
H	3.7123	0.763051	3.35623
H	3.18698	0.698761	1.63052
H	4.09442	2.13169	2.24284
