44
  This energy is 0.1286 and Call times are: 6103
C	3.3856	0.480864	0.647449
C	2.27978	-0.158915	-0.100205
O	2.49397	-0.808404	-1.11445
H	4.34669	0.277673	0.126983
H	3.44028	0.0687054	1.67695
H	3.22896	1.57909	0.697012
N	1.05125	0.0159906	0.392246
C	-0.128829	-0.509197	-0.248185
C	-1.29638	0.396365	0.0958182
O	-1.17752	1.28512	0.937064
H	0.888567	0.581436	1.19578
H	0.00174774	-0.473107	-1.32256
C	-0.410503	-1.9554	0.214854
H	-0.55499	-1.99135	1.3157
H	-1.30889	-2.37591	-0.281721
H	0.460102	-2.59844	-0.0398708
N	-2.45743	0.19533	-0.558071
C	-3.62097	1.01154	-0.300837
H	-2.53301	-0.526189	-1.23834
H	-4.4749	0.690732	-0.937321
H	-3.40509	2.08277	-0.517937
H	-3.92939	0.930986	0.76665
C	1.50584	1.62667	1.28817
C	2.91396	1.61856	0.831777
O	3.53105	2.66139	0.664111
H	1.16592	2.67785	1.41195
H	1.41651	1.10291	2.26308
H	0.857768	1.12531	0.538698
N	3.4607	0.420004	0.615146
C	4.80727	0.252477	0.128083
C	4.87039	-1.04834	-0.650033
O	3.92534	-1.83478	-0.639846
H	2.93299	-0.418486	0.716684
H	5.03942	1.05327	-0.562902
C	5.81804	0.234599	1.29567
H	5.58662	-0.593296	1.99929
H	6.85995	0.120036	0.932605
H	5.7488	1.19266	1.85573
N	5.99101	-1.30196	-1.35424
C	6.13916	-2.51173	-2.12927
H	6.74339	-0.651572	-1.35346
H	7.12919	-2.53553	-2.63575
H	5.34535	-2.57891	-2.90814
H	6.05799	-3.40995	-1.47524
