44
  This energy is 0 and Call times are: 7365
C	-0.988341	-0.824611	3.23356
C	-1.29064	-0.49808	1.82177
O	-2.41569	-0.645898	1.3648
H	-1.90721	-1.21049	3.72616
H	-0.646667	0.0843431	3.77189
H	-0.198608	-1.60353	3.28554
N	-0.273639	-0.0409601	1.08751
C	-0.402869	0.278508	-0.312416
C	0.947488	0.0701464	-0.971716
O	1.95088	-0.150167	-0.296151
H	0.645801	0.0351926	1.46261
H	-1.09721	-0.412538	-0.773908
C	-0.880133	1.73476	-0.504194
H	-0.162738	2.44468	-0.0400851
H	-0.996835	1.98863	-1.57772
H	-1.86597	1.86636	-0.00704858
N	1.00193	0.127132	-2.31701
C	2.24216	-0.0643005	-3.03211
H	0.178598	0.302407	-2.84661
H	2.08041	0.0195654	-4.12939
H	2.66848	-1.07082	-2.81662
H	2.99296	0.700798	-2.72868
C	105.212	-1.90142	1.12831
C	106.451	-1.12687	1.36521
O	106.796	-0.814092	2.49657
H	104.71	-2.09683	2.10049
H	105.454	-2.87239	0.647162
H	104.521	-1.32757	0.475494
N	107.159	-0.793269	0.283204
C	108.363	-0.00410427	0.350551
C	108.501	0.7611	-0.952176
O	107.757	0.525469	-1.90254
H	106.844	-1.01983	-0.634152
H	108.268	0.725739	1.14486
C	109.598	-0.901463	0.584484
H	109.702	-1.64354	-0.235618
H	110.531	-0.304188	0.652059
H	109.472	-1.45772	1.53896
N	109.457	1.70782	-1.02322
C	109.659	2.49043	-2.22035
H	110.047	1.88688	-0.242358
H	110.491	3.21531	-2.08093
H	108.736	3.06057	-2.47671
H	109.908	1.83155	-3.08332
