44
  This energy is -1.9761 and Call times are: 4369
C	2.35977	1.20621	-2.25593
C	1.82016	0.143509	-1.37808
O	2.25305	-0.999509	-1.42834
H	3.14657	0.775687	-2.91279
H	2.80684	2.0177	-1.64408
H	1.55102	1.62522	-2.89111
N	0.844044	0.503617	-0.541479
C	0.190293	-0.428437	0.34308
C	-1.22368	0.0638978	0.587722
O	-1.57931	1.17544	0.20078
H	0.47414	1.4283	-0.54099
H	0.116343	-1.39228	-0.14494
C	0.958222	-0.554367	1.67712
H	1.02521	0.432223	2.18327
H	0.472386	-1.27969	2.36152
H	1.9924	-0.908301	1.47327
N	-2.07045	-0.762066	1.23331
C	-3.43683	-0.381459	1.50592
H	-1.76546	-1.65928	1.53507
H	-3.97169	-1.19474	2.04419
H	-3.98254	-0.170835	0.557697
H	-3.47087	0.537231	2.1352
C	5.33405	-1.61785	-0.308667
C	6.81398	-1.62475	-0.27824
O	7.44102	-2.67347	-0.219755
H	4.96067	-2.66347	-0.252758
H	4.97282	-1.15721	-1.2521
H	4.93616	-1.04742	0.556991
N	7.41389	-0.432653	-0.315645
C	8.84562	-0.27656	-0.249821
C	9.14608	1.07023	0.380618
O	8.24764	1.8842	0.585453
H	6.88914	0.413782	-0.321823
H	9.25828	-1.03688	0.401527
C	9.47587	-0.368499	-1.6568
H	9.06057	0.417987	-2.32239
H	10.5795	-0.263656	-1.61795
H	9.23656	-1.35883	-2.10213
N	10.4253	1.33381	0.712526
C	10.8052	2.58687	1.32219
H	11.1377	0.660983	0.542723
H	11.8996	2.61236	1.51951
H	10.2713	2.73093	2.28937
H	10.5489	3.44195	0.655645
