44
  This energy is -0.1088 and Call times are: 4341
C	-2.1271	-2.52902	-1.09186
C	-0.777541	-2.00079	-0.79054
O	0.19916	-2.73687	-0.765033
H	-2.06418	-3.62722	-1.25276
H	-2.52765	-2.05341	-2.0117
H	-2.81464	-2.329	-0.243114
N	-0.693379	-0.690391	-0.549386
C	0.544161	-0.0386584	-0.199671
C	0.216716	1.16934	0.657687
O	-0.946196	1.54018	0.805448
H	-1.5035	-0.111319	-0.533504
H	1.14316	-0.709488	0.403507
C	1.31899	0.389527	-1.46519
H	0.708996	1.08604	-2.07904
H	2.2804	0.880216	-1.20935
H	1.54089	-0.509116	-2.08127
N	1.24196	1.80985	1.25321
C	1.0262	2.96582	2.09188
H	2.17569	1.49237	1.12504
H	1.99183	3.34927	2.48905
H	0.369961	2.70821	2.95458
H	0.534467	3.78295	1.516
C	7.54705	-1.1118	3.0507
C	7.59795	-1.14776	1.57176
O	7.04948	-2.04095	0.941043
H	6.97791	-1.9924	3.42013
H	7.03921	-0.185963	3.39374
H	8.57473	-1.14647	3.46992
N	8.27181	-0.160579	0.976968
C	8.44517	-0.0839687	-0.452238
C	9.74634	0.644032	-0.732507
O	10.3673	1.19556	0.174078
H	8.7475	0.536674	1.50556
H	8.54234	-1.08468	-0.854441
C	7.25941	0.652549	-1.11311
H	7.16579	1.68286	-0.708453
H	7.37438	0.705902	-2.21513
H	6.31711	0.106797	-0.888261
N	10.1956	0.655001	-2.00297
C	11.427	1.31806	-2.36357
H	9.68126	0.199653	-2.72214
H	11.6247	1.2149	-3.4533
H	12.287	0.878473	-1.80821
H	11.3757	2.40341	-2.11755
