44
  This energy is 0.1128 and Call times are: 6439
C	-2.19773	-0.306224	-2.68121
C	-1.90736	0.00187078	-1.26279
O	-2.74486	0.532063	-0.545925
H	-3.22747	0.0328037	-2.92734
H	-2.12786	-1.40024	-2.85727
H	-1.47812	0.221079	-3.34242
N	-0.691468	-0.327713	-0.820802
C	-0.247723	-0.0518147	0.522898
C	1.25886	0.124434	0.496653
O	1.90561	-0.133952	-0.516591
H	-0.00656091	-0.72137	-1.42727
H	-0.676388	0.885405	0.855309
C	-0.642254	-1.1976	1.48038
H	-0.194082	-2.15737	1.1457
H	-0.318268	-0.990578	2.52091
H	-1.74807	-1.31385	1.47759
N	1.85471	0.579944	1.61625
C	3.28303	0.784036	1.68289
H	1.31409	0.787409	2.4248
H	3.57985	1.16236	2.68588
H	3.61002	1.52511	0.917933
H	3.8257	-0.170248	1.49319
C	6.27981	-0.221243	-2.74367
C	4.96344	0.0783129	-2.13656
O	4.08662	0.645105	-2.77402
H	6.298	0.159955	-3.7878
H	6.45388	-1.31771	-2.7583
H	7.08901	0.273628	-2.16629
N	4.79512	-0.300707	-0.867543
C	3.58491	-0.0399522	-0.128655
C	3.94319	0.0729428	1.3412
O	5.0705	-0.215099	1.73856
H	5.53236	-0.724381	-0.349056
H	3.17771	0.915313	-0.435704
C	2.55064	-1.16556	-0.348976
H	2.96407	-2.14419	-0.0243217
H	1.6091	-0.969436	0.203793
H	2.30935	-1.23538	-1.43214
N	2.98711	0.506166	2.18633
C	3.23793	0.65041	3.60141
H	2.08216	0.738317	1.84539
H	2.32908	1.01873	4.12636
H	4.06475	1.37503	3.78191
H	3.53073	-0.32629	4.05027
