44
  This energy is -2.0773 and Call times are: 4285
C	1.05441	-2.27621	-2.41242
C	0.364237	-1.94647	-1.14511
O	-0.335419	-2.77042	-0.572405
H	0.805974	-3.31948	-2.70526
H	2.15384	-2.19148	-2.28273
H	0.7234	-1.58814	-3.2187
N	0.547835	-0.711087	-0.673403
C	-0.0921911	-0.229858	0.52549
C	-0.268254	1.27154	0.397622
O	0.253696	1.8903	-0.52781
H	1.08721	-0.0386535	-1.17218
H	-1.08075	-0.665196	0.602072
C	0.748513	-0.571985	1.77505
H	1.7592	-0.116803	1.70181
H	0.259447	-0.218834	2.70598
H	0.871224	-1.67495	1.84411
N	-1.02048	1.89423	1.3263
C	-1.24821	3.31987	1.2828
H	-1.43799	1.37594	2.06531
H	-1.89132	3.64145	2.13146
H	-1.75243	3.60825	0.332083
H	-0.28368	3.87402	1.34391
C	3.49297	1.68929	-0.717673
C	4.96697	1.56302	-0.768283
O	5.64138	2.29865	-1.4757
H	3.16998	2.50035	-1.40593
H	3.1656	1.94093	0.312983
H	3.01629	0.73782	-1.03477
N	5.50734	0.608751	-0.0068726
C	6.92299	0.336856	0.0168813
C	7.11745	-1.12899	0.356085
O	6.16866	-1.82349	0.715472
H	4.94198	-0.00896519	0.53225
H	7.33402	0.496353	-0.972178
C	7.63936	1.23179	1.05184
H	7.22523	1.06086	2.06837
H	8.73208	1.04167	1.06984
H	7.47697	2.29977	0.788409
N	8.35986	-1.63801	0.240641
C	8.63948	-3.02379	0.536622
H	9.11402	-1.06133	-0.0555863
H	9.71756	-3.24931	0.381334
H	8.04258	-3.69451	-0.123015
H	8.38046	-3.25986	1.59413
