44
  This energy is -4.2026 and Call times are: 5070
C	-1.12795	-1.68223	-2.83028
C	-0.0442746	-1.11281	-1.99809
O	1.13068	-1.35757	-2.23472
H	-0.684492	-2.32713	-3.61979
H	-1.70673	-0.867841	-3.31457
H	-1.80837	-2.29715	-2.20418
N	-0.422845	-0.328577	-0.986143
C	0.514144	0.262812	-0.063717
C	-0.188529	0.453105	1.2673
O	-1.40065	0.274809	1.37071
H	-1.38477	-0.171703	-0.78131
H	1.33548	-0.423562	0.100357
C	1.03637	1.61433	-0.598417
H	0.195208	2.3224	-0.756921
H	1.76924	2.07316	0.0964998
H	1.53968	1.45225	-1.57656
N	0.563721	0.814158	2.3255
C	-0.016875	1.01302	3.63299
H	1.54361	0.94973	2.22301
H	0.76356	1.306	4.36941
H	-0.504629	0.078079	3.9925
H	-0.78909	1.81545	3.60224
C	6.24793	1.90504	2.83968
C	6.10126	1.75887	1.37398
O	6.05761	2.73761	0.641458
H	6.28563	2.98538	3.09909
H	7.18704	1.42062	3.1805
H	5.38317	1.44073	3.35898
N	6.01833	0.510744	0.907401
C	5.83029	0.210375	-0.490087
C	5.09704	-1.11362	-0.5948
O	4.91444	-1.8128	0.399941
H	6.01421	-0.274414	1.52007
H	5.19604	0.96649	-0.935785
C	7.1861	0.138166	-1.22615
H	7.83313	-0.644621	-0.775995
H	7.05392	-0.078836	-2.30595
H	7.70857	1.11492	-1.12963
N	4.64971	-1.48622	-1.81015
C	3.93659	-2.72699	-2.00541
H	4.80352	-0.905147	-2.60247
H	3.65231	-2.85334	-3.07333
H	3.00759	-2.74702	-1.39072
H	4.56783	-3.59456	-1.7054
