44
  This energy is 0.2087 and Call times are: 4874
C	-3.0186	-1.27806	1.16931
C	-1.58176	-1.42103	0.84344
O	-0.947038	-2.40469	1.19833
H	-3.35048	-2.15889	1.76081
H	-3.619	-1.2244	0.236905
H	-3.18526	-0.358733	1.76945
N	-1.02835	-0.423302	0.150139
C	0.368974	-0.399604	-0.204081
C	0.804925	1.04945	-0.312473
O	-0.0201786	1.96008	-0.271728
H	-1.548	0.389814	-0.0961838
H	0.947071	-0.851674	0.592202
C	0.612691	-1.13958	-1.5376
H	0.0280014	-0.66967	-2.35697
H	1.68693	-1.14027	-1.81427
H	0.27913	-2.19556	-1.43764
N	2.12277	1.29765	-0.445563
C	2.63129	2.64546	-0.550439
H	2.77548	0.547771	-0.472402
H	3.73886	2.64104	-0.652841
H	2.36544	3.23716	0.355366
H	2.19891	3.1607	-1.43854
C	3.63382	2.52403	-2.3892
C	3.19409	2.00266	-1.07544
O	2.72395	2.74548	-0.224791
H	3.47659	3.62414	-2.41906
H	3.04391	2.05442	-3.2042
H	4.71257	2.31086	-2.54388
N	3.34224	0.690636	-0.877864
C	3.00001	0.044509	0.364696
C	3.88943	-1.17405	0.524806
O	4.60817	-1.55466	-0.397279
H	3.76436	0.105607	-1.56446
H	3.21866	0.713793	1.18742
C	1.5112	-0.365845	0.381379
H	1.28872	-1.06078	-0.456242
H	1.23192	-0.852028	1.33854
H	0.879326	0.540275	0.254788
N	3.86721	-1.81284	1.71117
C	4.68393	-2.97837	1.9575
H	3.28216	-1.48742	2.44662
H	4.5251	-3.35867	2.99064
H	5.7641	-2.73384	1.83626
H	4.43195	-3.79344	1.24104
