44
  This energy is -4.5026 and Call times are: 1621
C	-0.339823	-3.1503	1.43972
C	0.410875	-1.89462	1.21419
O	1.39747	-1.61822	1.88251
H	0.130562	-3.71463	2.27408
H	-0.318966	-3.77833	0.524355
H	-1.39318	-2.92346	1.7082
N	-0.0499283	-1.09244	0.251617
C	0.54866	0.182722	-0.0553079
C	-0.531715	1.09058	-0.612201
O	-1.64556	0.648654	-0.887441
H	-0.878121	-1.31179	-0.256172
H	0.9116	0.63621	0.858614
C	1.69853	0.0215791	-1.07367
H	1.32463	-0.433923	-2.01535
H	2.17667	0.994796	-1.30767
H	2.47359	-0.652795	-0.648402
N	-0.227498	2.39211	-0.783967
C	-1.19351	3.33204	-1.30314
H	0.677887	2.73179	-0.55165
H	-0.753615	4.35146	-1.37011
H	-2.08945	3.37965	-0.642603
H	-1.53045	3.0278	-2.32051
C	5.88069	0.952477	-3.23262
C	5.69817	1.00617	-1.76465
O	4.97295	1.84445	-1.24719
H	5.29127	1.76751	-3.70607
H	5.52628	-0.0230643	-3.6269
H	6.95235	1.08772	-3.49019
N	6.36618	0.0976847	-1.04994
C	6.32288	0.0513957	0.390383
C	7.63056	-0.538264	0.884189
O	8.43595	-1.03167	0.0970402
H	6.98465	-0.552186	-1.48241
H	6.25704	1.06023	0.77839
C	5.1279	-0.796007	0.879443
H	5.20053	-1.83394	0.49027
H	5.07555	-0.827909	1.98704
H	4.18243	-0.350726	0.499767
N	7.87651	-0.492605	2.20836
C	9.0968	-1.02405	2.76928
H	7.21452	-0.0856598	2.82903
H	9.11219	-0.891954	3.87361
H	9.98463	-0.504201	2.34174
H	9.19189	-2.11108	2.54463
