44
  This energy is 0.1255 and Call times are: 4846
C	2.87791	-0.103059	1.9544
C	2.18638	-0.180612	0.647914
O	2.81453	-0.18003	-0.401773
H	3.97448	-0.0321223	1.78591
H	2.66466	-1.01231	2.55485
H	2.54126	0.79579	2.51282
N	0.853538	-0.247918	0.685018
C	0.0401034	-0.284785	-0.504741
C	-1.30433	0.33753	-0.17798
O	-1.60404	0.616621	0.981329
H	0.35435	-0.206116	1.54579
H	0.500495	0.325984	-1.27131
C	-0.141501	-1.7349	-1.00416
H	-0.623386	-2.35938	-0.221959
H	-0.75459	-1.77536	-1.92775
H	0.855313	-2.17298	-1.22956
N	-2.14719	0.578368	-1.20151
C	-3.44588	1.1731	-0.987338
H	-1.8852	0.349395	-2.13318
H	-3.98847	1.29044	-1.95121
H	-3.34493	2.1782	-0.517373
H	-4.06309	0.536877	-0.312497
C	5.64111	-1.04955	-2.57652
C	5.41271	-0.400315	-1.26599
O	6.34679	-0.116235	-0.528964
H	6.7306	-1.22026	-2.71692
H	5.27085	-0.398249	-3.39596
H	5.11616	-2.02728	-2.61587
N	4.14225	-0.149513	-0.941342
C	3.7596	0.438548	0.318149
C	2.36462	-0.0480142	0.662927
O	1.69761	-0.678857	-0.154901
H	3.39011	-0.423763	-1.53374
H	4.42589	0.0843935	1.09484
C	3.79109	1.98063	0.239224
H	3.0998	2.345	-0.550326
H	3.51175	2.44523	1.20703
H	4.81924	2.31381	-0.0220197
N	1.89236	0.228922	1.89431
C	0.577919	-0.198458	2.31353
H	2.44851	0.737002	2.54363
H	0.373789	0.124886	3.35805
H	0.492402	-1.30833	2.2672
H	-0.206223	0.236118	1.65217
