44
  This energy is -2.5573 and Call times are: 5281
C	2.34695	-1.68929	-1.9367
C	1.70567	-1.38436	-0.637885
O	1.93434	-2.06094	0.355272
H	2.99644	-2.58452	-1.82444
H	2.97063	-0.831866	-2.26623
H	1.5736	-1.90046	-2.7051
N	0.872248	-0.341588	-0.617851
C	0.14137	0.0513715	0.561114
C	-1.14597	0.720866	0.118294
O	-1.338	0.996429	-1.06446
H	0.664774	0.174439	-1.44401
H	-0.131764	-0.832885	1.12336
C	0.978322	1.01146	1.4346
H	1.24986	1.92356	0.861568
H	0.43176	1.31038	2.35245
H	1.91899	0.503557	1.74044
N	-2.06718	0.991789	1.06381
C	-3.32443	1.62244	0.735509
H	-1.89538	0.757586	2.01497
H	-3.94534	1.7603	1.64803
H	-3.89877	1.00013	0.0115305
H	-3.15405	2.62147	0.272871
C	6.1831	3.11393	-1.54542
C	6.76783	1.76214	-1.39749
O	7.53363	1.30842	-2.23661
H	6.54103	3.56699	-2.4954
H	6.49539	3.76073	-0.698732
H	5.0748	3.05057	-1.5727
N	6.41121	1.0772	-0.308424
C	6.86388	-0.266623	-0.0480834
C	5.80593	-0.969751	0.781327
O	4.85716	-0.345472	1.2523
H	5.75495	1.44377	0.344882
H	6.94833	-0.802932	-0.985026
C	8.21766	-0.258481	0.695199
H	8.12893	0.282517	1.66137
H	8.58362	-1.28753	0.889212
H	8.97451	0.267835	0.0735021
N	5.94142	-2.29676	0.97288
C	4.98084	-3.05117	1.7438
H	6.7137	-2.78521	0.580363
H	5.26685	-4.12525	1.78592
H	3.96646	-2.97618	1.28915
H	4.92147	-2.6628	2.78629
