44
  This energy is -4.0335 and Call times are: 3048
C	-0.437503	0.57982	-3.40369
C	0.0935297	0.958535	-2.07488
O	0.901646	1.86863	-1.95208
H	0.0265134	1.22402	-4.18187
H	-1.5385	0.720706	-3.43017
H	-0.195413	-0.481218	-3.62433
N	-0.355633	0.254101	-1.03354
C	0.101315	0.477116	0.315546
C	-0.00909837	-0.831686	1.07476
O	-0.581013	-1.80082	0.579363
H	-0.982188	-0.510583	-1.15418
H	1.14857	0.751996	0.297147
C	-0.735028	1.57624	1.0067
H	-1.808	1.28996	1.03524
H	-0.383978	1.76696	2.04155
H	-0.645842	2.52258	0.429767
N	0.547497	-0.89237	2.30054
C	0.496971	-2.09767	3.09482
H	1.00958	-0.0990068	2.68281
H	1.01018	-1.94768	4.07019
H	0.995278	-2.94004	2.56249
H	-0.558552	-2.39224	3.29542
C	6.69334	-2.72633	-1.65484
C	6.32077	-1.29542	-1.58512
O	6.72756	-0.494229	-2.41519
H	7.36754	-2.88839	-2.52378
H	5.78537	-3.3524	-1.78278
H	7.22338	-3.02937	-0.727324
N	5.52651	-0.937603	-0.573437
C	5.11384	0.425444	-0.349022
C	4.87035	0.607292	1.13732
O	4.87137	-0.358321	1.89844
H	5.23687	-1.59363	0.117643
H	5.91946	1.09311	-0.627974
C	3.83572	0.754106	-1.15129
H	3.00594	0.0762878	-0.857913
H	3.51567	1.80506	-0.997718
H	4.0347	0.60653	-2.23524
N	4.66301	1.86015	1.58828
C	4.42821	2.13069	2.98751
H	4.66996	2.62915	0.95767
H	4.28063	3.21989	3.1581
H	5.29333	1.79358	3.60331
H	3.51999	1.59341	3.34473
