44
  This energy is -3.9996 and Call times are: 7634
C	1.5003	1.88087	2.51478
C	0.34389	1.54046	1.65572
O	-0.769116	1.99403	1.88353
H	1.16373	2.55173	3.33487
H	2.2785	2.40331	1.91963
H	1.93167	0.958998	2.9588
N	0.586427	0.71764	0.632721
C	-0.445916	0.261956	-0.264598
C	-0.0434162	-1.10104	-0.795426
O	1.07824	-1.55538	-0.578234
H	1.48923	0.324182	0.484377
H	-1.36832	0.133417	0.287926
C	-0.645548	1.25856	-1.42742
H	0.297657	1.38275	-2.00099
H	-1.44749	0.925779	-2.11783
H	-0.931735	2.25083	-1.0153
N	-0.959488	-1.79248	-1.50165
C	-0.668262	-3.10012	-2.04152
H	-1.86314	-1.41	-1.66347
H	-1.54796	-3.50427	-2.58927
H	-0.405801	-3.81226	-1.2259
H	0.192322	-3.05121	-2.74732
C	5.63201	3.3937	0.0758256
C	5.3755	1.99035	0.470747
O	4.5761	1.71781	1.35568
H	5.01751	4.07123	0.707649
H	5.35749	3.54792	-0.988882
H	6.70462	3.64199	0.220494
N	6.06235	1.05362	-0.187399
C	5.95209	-0.351929	0.11399
C	7.26787	-1.01701	-0.243718
O	8.1392	-0.40117	-0.854659
H	6.73967	1.29343	-0.877024
H	5.8059	-0.478405	1.17947
C	4.78885	-0.995182	-0.672365
H	4.94365	-0.874933	-1.76581
H	4.68485	-2.07451	-0.438382
H	3.83747	-0.487733	-0.400895
N	7.446	-2.29676	0.139056
C	8.66784	-3.00978	-0.152274
H	6.731	-2.77709	0.63618
H	8.6215	-4.04792	0.244416
H	9.54192	-2.49658	0.310219
H	8.84004	-3.0617	-1.25173
