44
  This energy is -2.2983 and Call times are: 3020
C	2.38162	0.629816	-2.45844
C	1.13843	-0.0186756	-1.98401
O	0.381065	-0.581275	-2.76266
H	2.45491	0.520132	-3.56228
H	3.26645	0.14977	-1.99006
H	2.37021	1.71082	-2.2047
N	0.896768	0.0492804	-0.672769
C	-0.292842	-0.496997	-0.0686414
C	-0.605963	0.312588	1.17558
O	0.191787	1.14504	1.60258
H	1.50201	0.546081	-0.0573496
H	-1.1264	-0.377503	-0.749476
C	-0.0955469	-1.98624	0.289799
H	0.752824	-2.10828	0.996489
H	-1.00937	-2.42208	0.7431
H	0.140357	-2.55798	-0.634218
N	-1.78746	0.0911599	1.78472
C	-2.17404	0.818135	2.97142
H	-2.42158	-0.583622	1.42191
H	-3.17894	0.494056	3.32124
H	-2.21026	1.91277	2.76711
H	-1.44329	0.644516	3.79422
C	5.79353	2.50132	-2.41929
C	6.0785	2.02004	-1.04877
O	6.71831	2.70079	-0.259072
H	6.2571	3.50175	-2.56105
H	4.69753	2.58785	-2.57435
H	6.2182	1.7992	-3.16746
N	5.60299	0.813226	-0.732726
C	5.83581	0.192968	0.547755
C	5.82003	-1.31166	0.354327
O	5.47058	-1.80538	-0.716106
H	5.11915	0.253768	-1.39962
H	6.82336	0.462449	0.900937
C	4.75994	0.618695	1.57075
H	3.74752	0.333035	1.21376
H	4.93613	0.158571	2.56461
H	4.78428	1.72387	1.69047
N	6.20927	-2.07948	1.39113
C	6.23205	-3.52064	1.29778
H	6.49248	-1.66147	2.24795
H	6.58117	-3.97113	2.25298
H	6.91718	-3.85073	0.483588
H	5.21478	-3.91619	1.07452
