44
  This energy is 0.1505 and Call times are: 3845
C	3.45232	0.131076	-0.420727
C	2.11789	-0.412644	-0.759568
O	1.95438	-1.12192	-1.74273
H	4.18805	-0.197331	-1.18671
H	3.77692	-0.24296	0.572991
H	3.4207	1.24097	-0.405412
N	1.11734	-0.0840324	0.0609814
C	-0.2445	-0.501478	-0.161907
C	-1.16417	0.540099	0.447097
O	-0.714706	1.44342	1.14975
H	1.25827	0.527658	0.834185
H	-0.44182	-0.523106	-1.22644
C	-0.506198	-1.88816	0.465674
H	-0.314065	-1.86381	1.55953
H	-1.54761	-2.22687	0.288878
H	0.183098	-2.63278	0.0109668
N	-2.48191	0.441943	0.182643
C	-3.43228	1.39086	0.714185
H	-2.82614	-0.29359	-0.391436
H	-4.46452	1.14067	0.383852
H	-3.19354	2.42226	0.367073
H	-3.40991	1.38762	1.82802
C	5.19057	-0.363894	3.44904
C	4.41389	-0.441191	2.19129
O	3.32142	-0.99035	2.15468
H	4.62918	-0.877524	4.25952
H	5.34778	0.696773	3.73717
H	6.17486	-0.86206	3.32221
N	4.97223	0.115414	1.11387
C	4.3571	0.0823111	-0.189618
C	5.4575	0.124496	-1.23312
O	6.62385	0.341146	-0.910022
H	5.88031	0.522732	1.15032
H	3.83151	-0.856409	-0.31285
C	3.3903	1.27253	-0.373796
H	3.93113	2.23592	-0.257903
H	2.89979	1.25055	-1.3685
H	2.59819	1.22586	0.405131
N	5.11021	-0.0916421	-2.51713
C	6.09014	-0.0761443	-3.57811
H	4.16192	-0.269329	-2.75848
H	5.60879	-0.274958	-4.56097
H	6.8685	-0.854323	-3.40528
H	6.59767	0.914244	-3.62997
