10
  This energy is -0.00955075 and Call times are: 499
C	-0.054327	-0.0399883	0.419452
O	-1.17041	0.0449382	-0.0626279
O	1.08223	-0.000229962	-0.356906
H	0.141187	-0.15373	1.49637
H	1.90514	-0.0796878	0.167598
C	4.32761	0.399893	0.0655136
O	3.78999	0.0397348	1.09822
O	4.4351	-0.42768	-1.02976
H	4.76636	1.39832	-0.0812381
H	4.8902	-0.00280264	-1.78538
