10
  This energy is -0.00748067 and Call times are: 805
C	0.303935	0.131794	0.265978
O	0.612862	0.546496	-0.837577
O	-0.837256	-0.609849	0.475063
H	0.897162	0.30923	1.17565
H	-0.954768	-0.87302	1.41076
C	5.79863	-0.146421	0.261208
O	6.85244	-0.608051	0.663245
O	5.73454	0.678326	-0.839583
H	4.82381	-0.343293	0.732226
H	4.82293	0.971388	-1.04378
