10
  This energy is 4.1732e-05 and Call times are: 2568
C	0.201234	0.369692	-0.0576464
O	-0.037282	-0.0661454	-1.17048
O	-0.164867	-0.304942	1.08555
H	0.719948	1.32196	0.129508
H	0.0922374	0.165613	1.90475
C	12.9665	-0.00594613	0.354866
O	13.9805	0.614155	0.623982
O	12.7432	-0.534046	-0.897053
H	12.155	-0.195536	1.07353
H	11.8875	-1.00505	-0.965032
