10
  This energy is -0.000115353 and Call times are: 3324
C	-0.151342	0.185506	-0.350961
O	-0.899383	0.508409	0.555359
O	0.939261	-0.629121	-0.143508
H	-0.27783	0.50939	-1.395
H	1.44694	-0.8024	-0.962555
C	15.4848	-0.324466	0.202661
O	14.2978	-0.593482	0.138758
O	15.9995	0.840384	-0.32102
H	16.2362	-0.975041	0.674936
H	16.9672	0.919889	-0.195364
