10
  This energy is -2.7891e-05 and Call times are: 3282
C	-0.266323	-0.298677	0.14267
O	-0.370078	0.644525	0.907427
O	0.586892	-0.273241	-0.937815
H	-0.83359	-1.23604	0.244974
H	0.56367	-1.10021	-1.46144
C	17.2316	-0.328236	0.210666
O	16.902	-0.465304	-0.954589
O	18.0032	0.731409	0.632248
H	16.9478	-1.02476	1.01394
H	18.1881	0.709737	1.59348
