10
  This energy is 8.817e-06 and Call times are: 3744
C	0.230838	0.00563188	-0.356612
O	1.00898	-0.235514	0.549803
O	-1.11368	0.201502	-0.133073
H	0.526899	0.0867994	-1.41334
H	-1.61378	0.385936	-0.954349
C	26.6175	-0.0911664	-0.267115
O	25.7615	-0.938452	-0.452855
O	26.4615	0.914504	0.660436
H	27.5724	-0.0546041	-0.812853
H	27.2298	1.52017	0.698883
