10
  This energy is 0.000338735 and Call times are: 2400
C	-0.300755	-0.274068	-0.122161
O	-0.449943	0.723493	-0.806165
O	0.690916	-0.366829	0.828655
H	-0.932265	-1.17174	-0.20146
H	0.688893	-1.2255	1.29907
C	9.74518	-0.392214	0.0746981
O	10.6919	0.246907	-0.350243
O	8.49759	0.16816	0.234525
H	9.80141	-1.45273	0.362867
H	7.83741	-0.464656	0.584251
