10
  This energy is -0.00682893 and Call times are: 347
C	0.213919	-0.36075	-0.0677385
O	-0.750908	-0.391327	-0.811661
O	0.450003	0.698311	0.780037
H	0.967509	-1.16041	-0.00806072
H	1.26097	0.583732	1.31652
C	6.09171	0.00590502	-0.414781
O	5.22622	0.846872	-0.244667
O	6.59013	-0.75026	0.622453
H	6.54324	-0.219911	-1.39255
H	7.27936	-1.3837	0.335547
