10
  This energy is -0.00867543 and Call times are: 854
C	0.127784	0.32822	0.237557
O	-1.08309	0.268101	0.361698
O	0.826614	-0.558038	-0.551273
H	0.758307	1.08076	0.734573
H	1.79069	-0.387317	-0.554441
C	4.16268	0.325056	0.0763402
O	3.66961	0.0254081	1.14981
O	3.84454	-0.341586	-1.08574
H	4.89143	1.1386	-0.0577376
H	4.31751	0.00898777	-1.86804
