10
  This energy is -4.6901e-05 and Call times are: 3576
C	0.228804	-0.269337	-0.235788
O	-0.111067	0.632848	-0.981306
O	-0.127082	-0.291791	1.09422
H	0.838103	-1.1293	-0.552215
H	0.217158	-1.07656	1.56776
C	22.4283	0.325881	-0.0214328
O	22.0618	-0.36295	0.914767
O	23.5279	-0.00100268	-0.783096
H	21.9236	1.2519	-0.335576
H	23.7011	0.644072	-1.49895
