10
  This energy is -0.000196331 and Call times are: 2694
C	0.13998	0.383266	-0.118335
O	-0.582125	0.566534	0.846146
O	0.37425	-0.874444	-0.627601
H	0.658895	1.18997	-0.657651
H	0.973519	-0.86669	-1.40182
C	11.2686	0.0583614	0.203044
O	10.9538	-1.10331	0.394463
O	10.4907	0.91257	-0.546179
H	12.184	0.519342	0.603602
H	10.8694	1.81296	-0.613375
