10
  This energy is -9.5454e-05 and Call times are: 3030
C	-0.109972	0.0913679	0.400061
O	0.40598	-1.01228	0.431572
O	-0.248878	0.800134	-0.772298
H	-0.503051	0.609813	1.28754
H	-0.680863	1.66926	-0.643421
C	17.7601	-0.0231274	-0.349887
O	18.7888	0.541983	-0.678099
O	17.5422	-0.453727	0.939735
H	16.9303	-0.235583	-1.0406
H	16.673	-0.889724	1.05429
