10
  This energy is -4.796e-06 and Call times are: 2988
C	-0.269472	-0.317962	0.0823102
O	-0.912787	0.529247	-0.512358
O	1.06706	-0.152962	0.369559
H	-0.690428	-1.27125	0.435783
H	1.4505	-0.914731	0.850488
C	20.3485	0.0580243	-0.339651
O	20.7448	0.836544	0.510121
O	19.2891	-0.79237	-0.114848
H	20.7927	-0.0332537	-1.34227
H	19.0844	-1.35871	-0.886834
