10
  This energy is 4.9543e-05 and Call times are: 3408
C	0.236904	-0.251824	0.246884
O	0.50778	0.89248	0.56695
O	-0.679048	-0.537228	-0.740864
H	0.690749	-1.14136	0.709106
H	-0.79338	-1.49833	-0.888572
C	19.1231	-0.285243	-0.313992
O	19.4875	0.776042	-0.789553
O	18.7366	-0.402048	1.00246
H	19.0714	-1.22607	-0.882387
H	18.4701	-1.31315	1.24209
