10
  This energy is -0.00054222 and Call times are: 1663
C	-0.202928	0.0171731	-0.372848
O	-0.271911	-1.14099	0.000176768
O	0.438333	0.986145	0.366033
H	-0.638028	0.384862	-1.31434
H	0.413024	1.86816	-0.0582478
C	4.53025	-0.327322	-0.269138
O	3.39846	0.108748	-0.388021
O	5.43863	0.225879	0.605429
H	4.91974	-1.18472	-0.838413
H	6.3057	-0.228681	0.592566
