10
  This energy is -9.6564e-05 and Call times are: 2652
C	-0.386101	0.176983	0.00966879
O	-0.555812	-0.997141	-0.269398
O	0.867804	0.702737	0.227325
H	-1.20301	0.907301	0.110657
H	0.848721	1.65781	0.441962
C	12.9748	-0.422803	-0.0330764
O	12.5659	-0.142687	1.08029
O	13.4063	0.540684	-0.917164
H	13.0347	-1.44982	-0.423668
H	13.7058	0.167565	-1.77138
