10
  This energy is -4.4123e-05 and Call times are: 3156
C	-0.293148	-0.203109	-0.230871
O	-0.457631	-0.562394	0.921998
O	0.690202	0.693866	-0.583754
H	-0.90326	-0.556098	-1.0759
H	0.702647	0.887927	-1.54333
C	19.6681	0.42354	0.0091312
O	20.7614	0.17399	-0.467896
O	18.7983	-0.568926	0.402345
H	19.2857	1.44352	0.165189
H	17.9597	-0.218631	0.766417
