10
  This energy is 0.000117993 and Call times are: 3366
C	-0.2102	0.365165	0.0544097
O	0.868915	0.507661	0.602544
O	-0.557393	-0.804914	-0.583118
H	-0.987945	1.1429	0.0205216
H	-1.45333	-0.773249	-0.976686
C	17.4298	-0.35613	-0.0291219
O	16.2702	-0.682228	-0.214067
O	17.7917	0.949496	0.216782
H	18.2744	-1.06143	-0.0418045
H	18.7559	1.06007	0.345467
