10
  This energy is -0.000986112 and Call times are: 2736
C	0.0361376	-0.106693	-0.409635
O	1.08143	0.441593	-0.106322
O	-0.986144	-0.283404	0.495783
H	-0.180013	-0.501615	-1.41374
H	-1.76249	-0.738578	0.110156
C	8.51195	0.0499257	0.308264
O	9.57515	-0.160549	0.865532
O	8.40149	0.0920999	-1.06362
H	7.5643	0.221623	0.840599
H	7.48787	0.270255	-1.3672
