10
  This energy is 1.7025e-05 and Call times are: 2946
C	0.219251	0.223554	-0.287129
O	-0.956748	0.475584	-0.483989
O	0.625715	-0.637634	0.707462
H	1.04481	0.652838	-0.874555
H	1.59834	-0.742818	0.746676
C	17.9	0.199398	0.225195
O	17.9664	-0.932435	0.672162
O	18.7	0.62384	-0.812051
H	17.2088	0.967921	0.602748
H	18.5352	1.5555	-1.06396
