10
  This energy is -6.5172e-05 and Call times are: 3198
C	0.270201	-0.156831	-0.287899
O	-0.845732	-0.289436	-0.759446
O	0.478083	0.408464	0.950364
H	1.19286	-0.470556	-0.798967
H	1.42475	0.44884	1.19692
C	17.612	0.0232661	-0.424034
O	17.2044	-1.09331	-0.154915
O	17.936	0.938245	0.552642
H	17.7546	0.392788	-1.45068
H	18.2486	1.79115	0.187366
