10
  This energy is -0.00411531 and Call times are: 1705
C	-0.358539	0.221244	0.0546878
O	0.00803189	-0.114973	1.16727
O	0.345075	-0.116223	-1.07982
H	-1.26613	0.812564	-0.139023
H	-0.0688666	0.222369	-1.89995
C	3.42588	0.170452	0.388286
O	3.70689	1.06102	-0.394761
O	3.1048	-1.10012	-0.0343283
H	3.40401	0.299245	1.48092
H	2.90227	-1.70825	0.705782
