10
  This energy is 6.5e-08 and Call times are: 3660
C	-0.367748	0.0463286	-0.207618
O	0.114813	-1.00243	-0.598125
O	0.260251	0.835703	0.729705
H	-1.32894	0.44825	-0.561835
H	-0.244881	1.64614	0.945645
C	26.468	-0.25075	-0.341451
O	26.221	-0.954021	0.622745
O	26.7767	1.08492	-0.212085
H	26.4664	-0.612709	-1.38063
H	26.9511	1.52082	-1.07125
