10
  This energy is 7.993e-06 and Call times are: 3618
C	0.0831867	-0.412337	0.0595659
O	-1.13006	-0.314263	-0.000975678
O	0.911701	0.681232	-0.0576446
H	0.614453	-1.36416	0.210249
H	1.86055	0.449715	0.0108556
C	24.1775	-0.042973	-0.0110182
O	24.6223	-1.12788	0.321214
O	24.9954	1.03369	-0.271549
H	23.1043	0.169122	-0.130146
H	24.4979	1.83737	-0.52689
