10
  This energy is -0.00493688 and Call times are: 456
C	-0.0152919	-0.0377758	0.422882
O	1.0832	0.42028	0.160704
O	-0.937195	-0.332355	-0.5566
H	-0.361805	-0.252626	1.44498
H	-1.77339	-0.693021	-0.197011
C	3.88155	-0.00555978	-0.364333
O	3.88076	-1.15111	0.0515363
O	4.50728	1.01737	0.312522
H	3.39229	0.307608	-1.29892
H	4.4245	1.88118	-0.140896
