10
  This energy is -0.00956151 and Call times are: 614
C	0.202358	0.263642	-0.26464
O	-0.988789	0.433254	-0.458673
O	0.670473	-0.639794	0.66312
H	0.994373	0.806182	-0.802479
H	1.6481	-0.667377	0.70878
C	4.29037	-0.00701239	-0.379737
O	4.65733	1.01846	0.167058
O	3.4231	-0.888414	0.226099
H	4.61263	-0.314218	-1.38606
H	3.21838	-1.66625	-0.332166
