10
  This energy is -0.00369251 and Call times are: 2083
C	-0.20663	0.299424	0.219407
O	-1.06004	-0.346895	-0.363014
O	1.13479	0.0108689	0.103627
H	-0.427051	1.15408	0.876594
H	1.70101	0.613711	0.627625
C	4.18413	-0.385924	-0.176919
O	3.86432	0.40277	-1.04923
O	4.51067	0.0249683	1.09611
H	4.23947	-1.47487	-0.325391
H	4.74636	-0.71851	1.68796
