10
  This energy is 6.9801e-05 and Call times are: 2862
C	0.0604323	0.354961	-0.22548
O	0.36023	-0.570673	-0.959354
O	-0.376021	0.153041	1.06479
H	0.110629	1.41345	-0.522116
H	-0.579572	0.988213	1.53347
C	14.4906	0.424402	-0.0168865
O	13.4151	0.0772246	0.439064
O	15.4629	-0.484708	-0.369383
H	14.7754	1.47406	-0.184331
H	16.2724	-0.0602874	-0.720483
