10
  This energy is -0.00241375 and Call times are: 1621
C	0.0249272	-0.410369	0.107082
O	1.13551	0.0576379	0.288247
O	-1.02268	0.352372	-0.358558
H	-0.234902	-1.46293	0.295526
H	-1.85266	-0.158028	-0.454631
C	4.40965	-0.052667	-0.159186
O	4.65898	1.13654	-0.253335
O	5.30735	-0.947372	0.379042
H	3.46409	-0.508714	-0.489116
H	4.96989	-1.8664	0.38945
