10
  This energy is -0.00476512 and Call times are: 1791
C	-0.301017	0.113186	-0.277611
O	-0.500843	-1.0605	-0.0172513
O	0.735918	0.821087	0.287818
H	-0.918717	0.700427	-0.973674
H	0.772075	1.75148	-0.0149494
C	3.72678	-0.0139924	0.202479
O	3.47206	-0.079123	-0.987528
O	5.01857	0.0832972	0.669245
H	2.96288	-0.0268312	0.994444
H	5.06866	0.127189	1.64606
