10
  This energy is 0.000244937 and Call times are: 2358
C	-0.240119	0.0718104	0.34304
O	0.653758	0.899666	0.372821
O	-0.33887	-0.861398	-0.66465
H	-1.03225	-0.00260107	1.10324
H	-1.1062	-1.45977	-0.556227
C	7.81872	0.332499	-0.236303
O	7.47375	0.785454	0.841224
O	7.78229	-1.01703	-0.507412
H	8.18281	0.948788	-1.07209
H	8.08837	-1.23251	-1.41211
