10
  This energy is -0.00869884 and Call times are: 896
C	0.155369	0.246048	-0.309534
O	-0.557767	0.96294	0.370722
O	0.337723	-1.08815	-0.0218858
H	0.70622	0.593599	-1.19648
H	0.936087	-1.53614	-0.654238
C	3.68307	-0.0654843	0.419422
O	3.16178	-1.03745	-0.0990205
O	4.18976	0.976305	-0.324885
H	3.79331	0.0640655	1.50661
H	4.57735	1.68602	0.227095
