10
  This energy is -0.00537098 and Call times are: 305
C	0.387389	0.135425	-0.109911
O	0.490677	-1.06074	0.0992988
O	-0.81181	0.79946	0.0206573
H	1.22607	0.778888	-0.41566
H	-0.742025	1.75533	-0.179435
C	4.38314	0.180346	0.0341519
O	3.58621	1.0936	-0.0928002
O	3.98745	-1.13847	0.048036
H	5.4682	0.324862	0.146763
H	4.73609	-1.75997	0.157035
