10
  This energy is 2.6059e-05 and Call times are: 2904
C	-0.244836	-0.0019147	0.347192
O	-0.91295	0.502079	-0.538732
O	1.04301	-0.439483	0.132593
H	-0.603536	-0.149464	1.37698
H	1.45459	-0.821182	0.934784
C	16.4435	-0.311439	-0.285664
O	17.5388	0.213022	-0.183186
O	15.3562	0.118615	0.441596
H	16.2296	-1.15837	-0.954892
H	14.5449	-0.396698	0.255099
