10
  This energy is -0.00129382 and Call times are: 2232
C	0.19859	0.372293	0.0494995
O	-0.681717	0.561659	-0.771748
O	0.404234	-0.859382	0.629806
H	0.893809	1.15268	0.393854
H	1.14546	-0.860427	1.26948
C	5.67779	-0.0425404	-0.273604
O	5.80358	1.15375	-0.0778804
O	6.48913	-0.972448	0.337179
H	4.92004	-0.47791	-0.942312
H	6.27106	-1.89297	0.0848007
