10
  This energy is -0.00967569 and Call times are: 1387
C	0.0667071	-0.171642	0.382857
O	0.476662	-0.981535	-0.43032
O	-0.484536	1.03142	0.00226304
H	0.0996485	-0.326035	1.47189
H	-0.768962	1.5781	0.763077
C	3.4964	0.283837	0.0880387
O	4.55525	0.819592	0.365575
O	3.43426	-0.999248	-0.407833
H	2.51512	0.767553	0.206421
H	2.51798	-1.29589	-0.584021
