10
  This energy is -0.0047863 and Call times are: 1344
C	-0.297482	-0.148816	-0.264289
O	-0.281321	1.06045	-0.414856
O	0.53947	-0.78605	0.624256
H	-0.968656	-0.826008	-0.813692
H	0.41371	-1.75694	0.637196
C	3.55526	0.0771974	0.235973
O	3.15013	-0.357528	-0.828039
O	4.89778	0.238474	0.496146
H	2.89794	0.373749	1.06718
H	5.07244	0.596549	1.39051
