29
  This energy is -0.0183776 and Call times are: 1156
C	-0.374383	-1.10136	0.372766
N	-0.829925	-2.43859	0.440303
H	-1.01236	-2.96731	-0.424907
H	-0.983576	-2.89634	1.35079
N	-0.177205	-0.513744	-0.837488
C	0.259941	0.769701	-0.929729
O	0.429253	1.27465	-2.02507
N	0.509842	1.4945	0.209847
C	0.323208	0.937723	1.43572
H	0.846075	2.48164	0.139601
C	-0.124818	-0.377746	1.54256
H	0.522234	1.51509	2.32973
H	-0.274981	-0.825631	2.51686
C	3.80772	0.863993	0.312161
O	3.18498	1.56052	0.894361
N	3.57155	0.627228	-0.996777
C	4.37487	-0.18499	-1.72517
H	2.80459	1.1051	-1.44416
N	4.18382	-0.293669	-3.12131
H	3.13161	-0.257036	-3.36104
H	4.59874	-1.22668	-3.47423
N	5.41511	-0.844185	-1.16956
C	5.66227	-0.656721	0.137798
C	4.88879	0.209198	0.89412
N	5.42357	0.272216	2.12791
C	6.5091	-0.52861	2.16164
N	6.6489	-1.08728	0.942228
H	7.14282	-0.704626	3.0238
H	7.38061	-1.72586	0.671569
