29
  This energy is -0.00339184 and Call times are: 1877
C	-1.06618	0.120579	0.583799
N	-2.31044	-0.107111	1.21646
H	-2.686	-1.06364	1.29012
H	-2.85217	0.677033	1.60858
N	-0.365308	-0.92631	0.0722504
C	0.832478	-0.734418	-0.540385
O	1.44199	-1.6878	-0.990907
N	1.35334	0.531665	-0.650618
C	0.678916	1.60049	-0.150263
H	2.27452	0.679937	-1.12167
C	-0.550365	1.41576	0.48009
H	1.09562	2.59567	-0.240797
H	-1.09135	2.26407	0.88025
C	6.63147	-0.550244	0.967552
O	7.35553	-0.604698	1.79502
N	5.99476	-1.65034	0.509779
C	5.06109	-1.57175	-0.468816
H	6.1926	-2.53918	0.942862
N	4.31288	-2.71834	-0.819577
H	4.93071	-3.60218	-0.764323
H	3.93137	-2.61095	-1.82464
N	4.76131	-0.402868	-1.07642
C	5.39707	0.708167	-0.667975
C	6.31783	0.664939	0.366636
N	6.71332	1.92607	0.622226
C	6.0642	2.75415	-0.222619
N	5.26072	2.00257	-1.00246
H	6.18453	3.83055	-0.275561
H	4.64884	2.35397	-1.72256
