29
  This energy is -0.00616972 and Call times are: 628
C	-0.789425	-0.69225	-0.624261
N	-1.87459	-1.16937	-1.39564
H	-2.59711	-0.516335	-1.73169
H	-1.95412	-2.1701	-1.62878
N	-0.700951	0.631519	-0.326453
C	0.331548	1.11533	0.412947
O	0.389379	2.3051	0.666921
N	1.30666	0.263974	0.872049
C	1.24885	-1.065	0.592629
H	2.10103	0.635429	1.44077
C	0.194636	-1.57249	-0.164789
H	2.02108	-1.73019	0.957866
H	0.14425	-2.6304	-0.389973
C	4.40908	-1.05277	-0.641221
O	3.94847	-2.04118	-0.792221
N	4.34566	-0.0897487	-1.58659
C	4.86218	1.14475	-1.37494
H	3.86178	-0.289038	-2.4485
N	4.64912	2.16796	-2.32634
H	4.6726	1.76231	-3.32677
H	5.41641	2.92218	-2.22817
N	5.51668	1.45831	-0.23536
C	5.62601	0.515601	0.715828
C	5.06121	-0.73844	0.547082
N	5.24062	-1.43051	1.68772
C	5.89985	-0.643026	2.563
N	6.12658	0.543068	1.96268
H	6.20837	-0.924218	3.56383
H	6.59487	1.33118	2.38221
