29
  This energy is -0.00308991 and Call times are: 591
C	0.743638	0.925216	0.288239
N	1.45551	2.14693	0.318659
H	1.29456	2.85775	-0.409511
H	2.13938	2.3385	1.06548
N	-0.154847	0.689878	-0.704849
C	-0.85169	-0.475689	-0.756801
O	-1.65124	-0.663783	-1.6561
N	-0.654052	-1.43826	0.202786
C	0.23654	-1.23548	1.20942
H	-1.18968	-2.33492	0.163412
C	0.956876	-0.0439752	1.27288
H	0.387157	-1.99874	1.96239
H	1.66743	0.122164	2.07283
C	7.19873	0.0407494	0.849351
O	7.94776	0.44466	1.54773
N	7.12793	-1.2796	0.572191
C	6.16814	-1.7813	-0.241855
H	7.78032	-1.90383	1.02106
N	6.03551	-3.18032	-0.392388
H	7.00621	-3.65323	-0.385051
H	5.53738	-3.40072	-1.3254
N	5.27151	-0.984145	-0.863091
C	5.33052	0.338696	-0.635008
C	6.2684	0.87267	0.234109
N	6.02877	2.19294	0.342059
C	4.96741	2.49674	-0.433866
N	4.54601	1.35879	-1.02218
H	4.54347	3.48513	-0.572721
H	3.76249	1.28103	-1.65184
