29
  This energy is -0.00490539 and Call times are: 357
C	-0.802486	-0.464189	0.795392
N	-1.88457	-1.13785	1.40821
H	-2.56199	-1.6591	0.833037
H	-2.00669	-1.11484	2.43128
N	-0.657289	-0.505598	-0.555935
C	0.373597	0.133133	-1.16923
O	0.482894	0.0817219	-2.38118
N	1.28917	0.834443	-0.423375
C	1.17373	0.896296	0.929561
H	2.08227	1.32591	-0.894443
C	0.12056	0.245146	1.56944
H	1.89921	1.45102	1.51109
H	0.024388	0.291526	2.64694
C	6.61553	-0.454353	-1.18491
O	7.36778	-0.619905	-1.97144
N	5.41828	-1.07986	-1.20675
C	4.51782	-0.919604	-0.207214
H	5.21706	-1.71314	-1.96519
N	3.34005	-1.7007	-0.190825
H	2.97534	-1.85262	-1.19574
H	2.58045	-1.20221	0.393757
N	4.74461	-0.0839839	0.829918
C	5.91276	0.578784	0.86961
C	6.87314	0.393247	-0.111898
N	7.96426	1.10019	0.23721
C	7.71179	1.71984	1.40902
N	6.45992	1.3923	1.78871
H	8.39038	2.37929	1.93868
H	6.00376	1.70416	2.63197
