29
  This energy is 0.00109313 and Call times are: 479
C	-0.596817	0.936804	-0.508242
N	-1.05691	1.95311	-1.37756
H	-0.626027	2.07441	-2.30548
H	-1.82406	2.58012	-1.0939
N	0.416439	0.118833	-0.899543
C	0.876863	-0.865217	-0.0831544
O	1.78559	-1.58554	-0.455661
N	0.318175	-1.04607	1.15845
C	-0.696269	-0.246133	1.58104
H	0.671817	-1.80273	1.78682
C	-1.17663	0.766344	0.752342
H	-1.13186	-0.394523	2.56107
H	-1.98456	1.40612	1.08455
C	6.22539	1.34852	-0.285085
O	5.82714	2.2593	-0.758153
N	7.06913	1.40832	0.768331
C	7.51123	0.286137	1.38545
H	7.33489	2.31343	1.12455
N	8.27358	0.390323	2.57098
H	8.93008	1.24623	2.52213
H	8.86289	-0.505204	2.705
N	7.17994	-0.947526	0.945384
C	6.36635	-1.04626	-0.119384
C	5.85737	0.0849761	-0.736921
N	5.0045	-0.316023	-1.69817
C	4.96634	-1.66487	-1.69633
N	5.79678	-2.10075	-0.727319
H	4.38493	-2.28541	-2.36924
H	5.96379	-3.06639	-0.49049
