29
  This energy is -0.00367317 and Call times are: 849
C	0.140762	1.21234	-0.0502891
N	0.204242	2.59356	0.247117
H	-0.0195437	2.92949	1.195
H	0.473568	3.2755	-0.477146
N	-0.216503	0.327149	0.918053
C	-0.285082	-1.00498	0.658135
O	-0.607515	-1.77869	1.54177
N	0.00865815	-1.47642	-0.598001
C	0.369247	-0.619036	-1.58919
H	-0.0438863	-2.50085	-0.798564
C	0.442966	0.749235	-1.33424
H	0.599393	-0.997817	-2.577
H	0.729736	1.43615	-2.12057
C	4.43633	0.538801	-1.17307
O	3.83348	1.17719	-1.83713
N	5.40076	-0.274628	-1.65615
C	6.18046	-1.01499	-0.831828
H	5.56678	-0.290718	-2.65059
N	7.27195	-1.74028	-1.36109
H	7.02285	-2.13894	-2.33319
H	7.52637	-2.55268	-0.695886
N	5.99663	-1.0236	0.50663
C	5.0261	-0.249555	1.02077
C	4.24893	0.557633	0.205573
N	3.43777	1.28571	0.995594
C	3.68828	0.956329	2.27996
N	4.66128	0.02259	2.28521
H	3.18137	1.35873	3.15003
H	5.05829	-0.404181	3.10781
