29
  This energy is -0.00103509 and Call times are: 234
C	-0.563023	-1.0547	-0.250427
N	-1.18641	-2.15249	-0.888007
H	-1.29346	-2.16314	-1.91263
H	-1.53854	-2.94952	-0.337668
N	-0.104471	-0.0118766	-0.992807
C	0.498128	1.05478	-0.404622
O	0.900838	1.97717	-1.0905
N	0.652083	1.09146	0.959699
C	0.205216	0.0657925	1.73165
H	1.11546	1.91152	1.4127
C	-0.414345	-1.03331	1.13945
H	0.33	0.10154	2.80653
H	-0.771968	-1.85277	1.75019
C	4.92779	-1.27938	0.388236
O	5.18133	-2.12451	1.04657
N	4.80267	-1.43493	-0.947916
C	4.43315	-0.406333	-1.74855
H	4.94571	-2.35121	-1.3438
N	4.17106	-0.640724	-3.11745
H	4.85132	-1.38217	-3.50918
H	4.28573	0.27878	-3.67295
N	4.22841	0.837657	-1.26284
C	4.37343	1.03707	0.0579978
C	4.69898	-0.00863975	0.906889
N	4.67787	0.46009	2.16865
C	4.34703	1.76773	2.13041
N	4.15919	2.1092	0.839391
H	4.26669	2.42855	2.98643
H	3.8953	3.02428	0.508605
