29
  This energy is -0.00307868 and Call times are: 438
C	-0.225437	1.01333	-0.643769
N	-0.676767	1.95096	-1.60159
H	-1.26658	1.64365	-2.38842
H	-0.421982	2.9465	-1.52344
N	-0.571656	-0.296167	-0.76303
C	-0.151125	-1.21693	0.143718
O	-0.474175	-2.38428	0.0159223
N	0.636018	-0.830994	1.20102
C	1.00057	0.469941	1.35022
H	0.959781	-1.53865	1.89875
C	0.57522	1.42303	0.426471
H	1.62125	0.766914	2.18615
H	0.863023	2.46055	0.541086
C	6.84338	-0.346997	0.0720907
O	7.82837	-0.727041	-0.239798
N	6.66728	0.275321	1.2582
C	5.46725	0.793924	1.61394
H	7.46305	0.391352	1.86651
N	5.35664	1.56363	2.79412
H	5.99573	1.16221	3.56638
H	4.33259	1.55752	3.13838
N	4.37407	0.665074	0.83055
C	4.50436	0.0250424	-0.343672
C	5.73171	-0.468694	-0.755879
N	5.58279	-0.963976	-1.99874
C	4.29797	-0.791674	-2.37341
N	3.64939	-0.183929	-1.35921
H	3.86298	-1.10533	-3.31592
H	2.67579	0.0778562	-1.36065
