30
  This energy is -0.0100292 and Call times are: 408
C	0.520434	2.03682	0.630507
O	-0.174399	1.53463	-0.305423
O	1.53552	2.84964	0.441327
H	0.287415	1.82825	1.66941
H	1.77691	3.04215	-0.537046
C	1.37411	2.72622	-3.01965
O	2.0299	3.24555	-2.09105
O	0.331214	1.91229	-2.87372
H	1.61571	2.90805	-4.06602
H	0.0840186	1.72557	-1.90347
C	-2.11668	-0.127539	1.86773
O	-1.65522	0.773808	2.56341
O	-1.82622	-0.309556	0.546123
H	-2.81862	-0.886506	2.22083
H	-1.15642	0.371036	0.178276
C	-1.5775	-3.51546	-0.77771
O	-0.505162	-3.58204	-0.157159
O	-2.41726	-2.47849	-0.811136
H	-1.95236	-4.34339	-1.38199
H	-2.14756	-1.65612	-0.281515
C	1.82388	-1.58078	1.5866
O	1.14228	-0.625021	1.19017
O	1.57287	-2.87807	1.35251
H	2.72916	-1.46915	2.18808
H	0.761156	-3.0605	0.790827
C	4.45962	0.112575	-0.15898
O	4.51976	-0.656492	0.786912
O	3.28254	0.533373	-0.620411
H	5.37907	0.457956	-0.630191
H	2.56839	0.15562	-0.119337
