30
  This energy is -0.00292676 and Call times are: 367
C	-1.42639	1.58417	0.522322
O	-1.41334	0.318491	0.616288
O	-2.34942	2.26708	-0.116846
H	-0.66015	2.18515	1.00069
H	-3.07093	1.71011	-0.587742
C	-4.08756	-0.528465	-1.20471
O	-4.11315	0.719818	-1.2611
O	-3.18289	-1.25859	-0.556701
H	-4.83686	-1.14216	-1.70296
H	-2.46973	-0.708278	-0.0814172
C	1.41692	0.362617	2.41783
O	0.976764	1.49638	2.59161
O	0.814404	-0.590769	1.64829
H	2.33836	-0.0202441	2.86257
H	-0.045279	-0.26739	1.19716
C	2.72706	-2.82335	-0.209011
O	2.96191	-1.85463	-0.947825
O	1.96927	-2.82387	0.889804
H	3.143	-3.8143	-0.39909
H	1.5329	-1.94357	1.14314
C	1.9038	1.44664	-1.62035
O	0.995135	1.20915	-0.81217
O	2.89089	0.605564	-1.96533
H	2.00452	2.394	-2.15524
H	2.85688	-0.295357	-1.52394
C	6.85741	-0.294413	0.156721
O	7.2618	0.857117	0.171958
O	5.63367	-0.580331	-0.286267
H	7.50502	-1.09623	0.509413
H	5.18073	0.208963	-0.561288
