30
  This energy is -0.000214169 and Call times are: 2087
C	1.13784	-1.87073	-0.150735
O	-0.0794875	-1.54365	-0.299344
O	1.55803	-2.78673	0.692616
H	1.91502	-1.40798	-0.749886
H	0.835102	-3.22055	1.27718
C	-1.58492	-3.45742	1.99325
O	-0.388236	-3.79956	2.10694
O	-2.05565	-2.54807	1.14299
H	-2.36956	-3.8967	2.60783
H	-1.34142	-2.12126	0.55557
C	0.694388	0.733228	-2.63917
O	1.66672	-0.0170687	-2.67047
O	-0.374526	0.578579	-1.80392
H	0.565579	1.60908	-3.27927
H	-0.286433	-0.222071	-1.17277
C	-1.98853	3.35735	-0.47514
O	-0.982074	3.47687	0.240534
O	-2.2069	2.41444	-1.39431
H	-2.82951	4.05053	-0.416844
H	-1.47888	1.71805	-1.51499
C	1.92531	1.74881	1.25601
O	1.44235	0.787169	0.64184
O	1.38357	2.97252	1.35511
H	2.87249	1.70507	1.79885
H	0.50027	3.08634	0.891991
C	5.54409	0.156774	0.4151
O	6.04415	0.836768	-0.466568
O	4.81303	-0.916166	0.115326
H	5.69792	0.431149	1.45806
H	4.76132	-1.03771	-0.826125
