30
  This energy is 0.000109001 and Call times are: 2322
C	-1.10968	0.130236	-1.88909
O	-0.890845	-0.783099	-1.03535
O	-0.809504	0.034903	-3.16489
H	-1.59189	1.05801	-1.59954
H	-0.338026	-0.830836	-3.44905
C	0.63406	-3.10578	-2.89671
O	0.38148	-2.21626	-3.73754
O	0.333951	-3.05783	-1.60092
H	1.14107	-4.02973	-3.1716
H	-0.141436	-2.20295	-1.31714
C	-2.17786	1.06723	1.45016
O	-2.68864	1.57316	0.453921
O	-1.30563	0.0171798	1.42274
H	-2.3649	1.39209	2.47627
H	-1.08828	-0.307865	0.477085
C	1.316	-0.15535	3.70079
O	1.82561	0.758249	3.03366
O	0.144383	-0.752619	3.47228
H	1.80394	-0.57345	4.58297
H	-0.38052	-0.433014	2.6649
C	1.50182	2.46692	-0.0397438
O	0.641931	1.61481	-0.303783
O	2.19213	2.56029	1.10722
H	1.80017	3.25876	-0.730922
H	1.98257	1.85438	1.78943
C	4.83334	-0.286184	0.351511
O	5.61765	0.631499	0.531792
O	4.13582	-0.373052	-0.780496
H	4.70311	-1.0418	1.12533
H	4.34662	0.347596	-1.3636
