30
  This energy is 1.3621e-05 and Call times are: 2199
C	-0.517117	0.139487	2.12842
O	-1.13982	0.321301	1.03748
O	-0.394639	1.04944	3.06855
H	-0.0581356	-0.817413	2.35382
H	-0.809987	1.96432	2.8611
C	-2.08155	3.51841	1.31406
O	-1.49821	3.31902	2.40126
O	-2.24257	2.6226	0.342963
H	-2.52307	4.48287	1.06669
H	-1.83828	1.71081	0.549234
C	-0.449686	-2.78974	-0.0127601
O	-0.325607	-2.88974	1.20542
O	-0.781655	-1.63637	-0.663665
H	-0.315802	-3.61178	-0.719699
H	-0.899192	-0.83469	-0.0386491
C	0.58712	-0.91431	-3.77772
O	1.63682	-0.691241	-3.15499
O	-0.582531	-1.29552	-3.2598
H	0.52242	-0.81663	-4.8628
H	-0.620439	-1.40637	-2.25193
C	2.878	-0.215094	0.116556
O	1.68734	-0.232792	0.458962
O	3.3409	-0.377031	-1.13255
H	3.70515	-0.0623335	0.813867
H	2.63567	-0.508317	-1.83473
C	7.45164	-0.338753	-0.000151907
O	7.4423	0.280185	-1.05211
O	6.63566	0.0011675	0.996917
H	8.13502	-1.17802	0.123628
H	6.09739	0.746231	0.754168
