30
  This energy is -0.0014216 and Call times are: 880
C	-0.185207	2.00221	-0.879695
O	-0.988678	1.05274	-0.626929
O	-0.012917	2.52503	-2.07294
H	0.402948	2.45796	-0.0900741
H	-0.550921	2.09234	-2.83181
C	-2.20972	0.365546	-3.66364
O	-1.44361	1.32505	-3.89702
O	-2.42626	-0.183481	-2.4707
H	-2.78502	-0.116259	-4.45309
H	-1.89963	0.249113	-1.71382
C	-0.146359	1.04621	2.62089
O	0.179109	2.17677	2.26699
O	-0.698182	0.107446	1.79726
H	-0.0394149	0.659123	3.63684
H	-0.799892	0.42336	0.829269
C	0.0750983	-3.25933	2.19612
O	1.18041	-2.96071	1.71807
O	-0.950381	-2.43286	2.41288
H	-0.170747	-4.27791	2.5014
H	-0.816088	-1.4615	2.15221
C	2.86644	-0.353523	0.0357747
O	1.75382	0.188728	-0.0213525
O	3.14015	-1.53027	0.619819
H	3.7726	0.0795639	-0.39442
H	2.35061	-1.99802	1.02661
C	7.6306	0.220035	0.388365
O	8.64795	0.0181042	-0.255078
O	6.44634	-0.190335	-0.0640021
H	7.69287	0.741564	1.34274
H	6.53811	-0.628056	-0.902904
