30
  This energy is -0.00398023 and Call times are: 1503
C	2.14121	0.393842	0.277742
O	1.06971	1.02294	0.536741
O	3.11448	0.869293	-0.466271
H	2.32008	-0.593321	0.690835
H	2.9511	1.79526	-0.876692
C	1.4902	3.83834	-1.21869
O	2.55797	3.2271	-1.43846
O	0.487246	3.4023	-0.460157
H	1.28938	4.81837	-1.64944
H	0.649771	2.48669	-0.0447077
C	-0.115764	-1.51663	2.38148
O	1.09505	-1.72423	2.39532
O	-0.714177	-0.476836	1.72966
H	-0.857159	-2.13437	2.89351
H	-0.0557315	0.118439	1.2205
C	-3.82104	-0.894968	0.224732
O	-3.20883	-1.55526	-0.628869
O	-3.29784	-0.295622	1.2965
H	-4.90004	-0.73854	0.175507
H	-2.29466	-0.381119	1.42242
C	0.0563035	-2.296	-1.75155
O	0.419017	-1.43255	-0.940315
O	-1.20635	-2.69933	-1.96081
H	0.744209	-2.83982	-2.40332
H	-1.90045	-2.23207	-1.40626
C	6.91356	0.126167	0.302495
O	7.35975	0.052527	-0.831206
O	5.6334	-0.149068	0.549421
H	7.57015	0.420237	1.12049
H	5.17919	-0.390317	-0.250118
