30
  This energy is -0.00158925 and Call times are: 1863
C	1.92545	-0.926985	0.500369
O	1.5655	0.161311	-0.0446041
O	2.72069	-1.8074	-0.0647169
H	1.59902	-1.18113	1.50336
H	3.02348	-1.58711	-1.01988
C	3.02809	-0.061181	-3.04396
O	3.40725	-1.11309	-2.4856
O	2.23798	0.86381	-2.50401
H	3.32862	0.191149	-4.06
H	1.94213	0.65189	-1.55274
C	-0.284251	1.02163	2.61926
O	0.508936	0.215412	3.09907
O	-0.312517	1.38907	1.30459
H	-1.05672	1.54525	3.18719
H	0.385102	0.90744	0.731435
C	-3.33845	2.05716	-0.273262
O	-3.51669	0.829902	-0.234757
O	-2.27752	2.7244	0.185927
H	-4.07293	2.73842	-0.706336
H	-1.53584	2.1709	0.601969
C	-1.82391	-2.20433	0.396267
O	-0.804349	-1.5027	0.454846
O	-3.07351	-1.76209	0.18725
H	-1.81742	-3.29069	0.512592
H	-3.15825	-0.770551	0.0556394
C	5.62379	0.436303	-0.121209
O	6.04161	-0.275126	-1.0207
O	5.29961	-0.082739	1.06244
H	5.5152	1.50713	-0.289241
H	5.44272	-1.02255	1.07007
