30
  This energy is -0.00614625 and Call times are: 2490
C	0.573931	2.11648	-0.0901844
O	1.14804	1.01646	-0.357206
O	1.03727	3.00264	0.762398
H	-0.348853	2.39701	-0.587077
H	1.90075	2.7425	1.25155
C	3.78607	1.10755	1.69641
O	3.23353	2.20483	1.92603
O	3.3612	0.189624	0.831346
H	4.69833	0.804663	2.20862
H	2.50846	0.448412	0.33818
C	-1.26206	0.14787	-2.52396
O	-1.37938	1.36987	-2.47596
O	-0.342381	-0.568699	-1.81342
H	-1.87425	-0.510388	-3.14473
H	0.241858	0.0089582	-1.2034
C	-1.13899	-3.7183	-0.573393
O	-1.83964	-3.10877	0.249396
O	-0.394134	-3.18004	-1.54143
H	-1.06666	-4.80725	-0.582404
H	-0.393498	-2.16748	-1.60661
C	-2.45748	0.130692	1.51209
O	-1.48963	0.472753	0.818206
O	-2.9704	-1.10668	1.59324
H	-3.01594	0.818584	2.15138
H	-2.49856	-1.80059	1.04234
C	7.32055	0.256697	-0.050367
O	6.58469	0.665244	0.833596
O	7.00445	-0.832307	-0.750128
H	8.24554	0.789123	-0.268596
H	6.17586	-1.19416	-0.456396
