30
  This energy is -0.00128402 and Call times are: 2031
C	1.12585	-0.842586	1.68509
O	-0.100756	-0.626277	1.44098
O	1.76815	-0.357367	2.72378
H	1.71818	-1.47881	1.03586
H	1.22392	0.259377	3.33696
C	-0.93944	1.43688	3.93594
O	0.259125	1.1888	4.18881
O	-1.63218	0.955199	2.90661
H	-1.53598	2.09489	4.5664
H	-1.09686	0.336107	2.30038
C	0.00573301	-2.48066	-1.35327
O	0.964505	-2.90974	-0.716089
O	-0.8216	-1.4821	-0.926004
H	-0.303264	-2.85033	-2.33372
H	-0.556654	-1.09389	-0.0170256
C	-2.15058	0.795554	-3.19279
O	-1.00428	1.26804	-3.23951
O	-2.55636	-0.243412	-2.45963
H	-2.97363	1.20653	-3.78001
H	-1.85792	-0.688094	-1.87314
C	2.11667	1.15339	-1.59126
O	1.52945	0.458975	-0.749733
O	1.57667	1.65843	-2.71112
H	3.16857	1.438	-1.51217
H	0.603904	1.45086	-2.84635
C	6.91754	0.160037	0.416327
O	8.06651	-0.229962	0.283812
O	6.05446	0.0919116	-0.596568
H	6.59546	0.568048	1.37367
H	6.46644	-0.282621	-1.36713
