30
  This energy is -0.00379631 and Call times are: 1289
C	1.06976	-0.226654	-1.90296
O	0.0955108	-0.816519	-1.34275
O	2.16847	-0.829392	-2.29846
H	1.03127	0.837932	-2.10864
H	2.22477	-1.8334	-2.09513
C	1.22899	-3.95584	-1.13125
O	2.16813	-3.37385	-1.71549
O	0.094079	-3.38894	-0.728707
H	1.26828	-5.01871	-0.896563
H	0.0317094	-2.39377	-0.936311
C	-1.63225	2.04625	-1.06474
O	-0.847395	2.30002	-1.97521
O	-1.68472	0.855305	-0.399122
H	-2.38539	2.73963	-0.683376
H	-0.982189	0.181013	-0.713643
C	-2.42478	0.766542	2.99745
O	-1.28216	1.22275	3.15783
O	-3.00945	0.46885	1.83505
H	-3.09143	0.559067	3.83629
H	-2.46047	0.623247	0.995813
C	1.7458	1.79911	1.43461
O	1.21463	1.17539	0.505068
O	1.17779	2.08743	2.61571
H	2.76336	2.19484	1.39315
H	0.242852	1.74189	2.73464
C	4.42165	0.0458124	0.432628
O	4.52269	1.11806	-0.141718
O	4.6769	-1.09533	-0.20624
H	4.11942	0.0229193	1.47897
H	4.92835	-0.929051	-1.10785
