30
  This energy is -0.00219649 and Call times are: 2255
C	-0.34233	0.473372	-2.1156
O	0.664998	0.137144	-1.42048
O	-0.409111	1.57098	-2.83508
H	-1.21946	-0.163081	-2.16757
H	0.4073	2.19	-2.78182
C	2.7163	2.73648	-1.89003
O	1.73474	3.04175	-2.60095
O	2.83255	1.62985	-1.15977
H	3.59102	3.38051	-1.81011
H	2.02693	1.00931	-1.21684
C	-0.84503	-2.67042	-0.373923
O	-1.46069	-2.40905	-1.40445
O	0.179077	-1.91863	0.12624
H	-1.03851	-3.53776	0.26146
H	0.382092	-1.08425	-0.430305
C	0.585893	-1.55836	3.56091
O	-0.410944	-0.821945	3.50235
O	1.17006	-2.19334	2.54249
H	1.1008	-1.76688	4.50034
H	0.762681	-2.05316	1.62383
C	-2.47783	0.876896	1.19754
O	-1.65033	0.516549	0.348667
O	-2.44139	0.584847	2.5068
H	-3.35328	1.48847	0.966615
H	-1.65379	0.0354195	2.79913
C	5.41009	0.0316107	0.438886
O	6.21254	0.596534	-0.286864
O	4.34879	-0.590052	-0.0736508
H	5.56441	0.0364536	1.51725
H	4.33851	-0.515724	-1.02136
