30
  This energy is -0.00455615 and Call times are: 1531
C	-1.85337	-0.999145	0.619482
O	-0.868732	-0.474259	1.22441
O	-2.24154	-2.24387	0.783312
H	-2.45611	-0.417851	-0.0703938
H	-1.67013	-2.80945	1.42062
C	0.296479	-3.05732	3.00061
O	-0.69683	-3.55561	2.4287
O	0.714839	-1.79994	2.87645
H	0.923709	-3.63897	3.67484
H	0.144865	-1.23359	2.25058
C	-1.33778	2.46876	-0.317184
O	-2.44303	1.94135	-0.415203
O	-0.257219	1.89234	0.286377
H	-1.08904	3.4632	-0.694886
H	-0.441969	0.949886	0.639631
C	2.94603	2.41878	-0.960354
O	2.60269	1.66731	-1.88601
O	2.20192	2.79081	0.0834523
H	3.93889	2.86965	-0.914832
H	1.26101	2.4139	0.130086
C	0.069023	-0.607067	-2.82302
O	-0.352655	-0.452102	-1.66829
O	1.13428	0.0061193	-3.36152
H	-0.393802	-1.27821	-3.55042
H	1.62297	0.630471	-2.74588
C	5.22217	0.0561995	-0.38817
O	5.5151	1.11666	0.140423
O	5.56763	-1.10218	0.172476
H	4.67228	0.0581918	-1.32856
H	6.04023	-0.957084	0.984496
