30
  This energy is -0.00262953 and Call times are: 1447
C	-0.850993	-1.56102	1.28687
O	0.164995	-0.802472	1.34447
O	-0.795917	-2.87305	1.3361
H	-1.85091	-1.14647	1.21316
H	0.144937	-3.27865	1.38923
C	2.66449	-3.01971	1.49019
O	1.65623	-3.75799	1.47003
O	2.654	-1.68917	1.4587
H	3.67394	-3.42598	1.53772
H	1.72097	-1.28318	1.41405
C	-1.73019	1.95396	1.08329
O	-2.53333	1.1206	1.49538
O	-0.414732	1.6969	0.823207
H	-1.97022	3.00051	0.88192
H	-0.150763	0.721047	0.981891
C	1.19669	3.26789	-1.82775
O	0.528678	2.51376	-2.55195
O	1.17511	3.31948	-0.494139
H	1.89724	3.99774	-2.23722
H	0.55494	2.66937	-0.0226767
C	-1.52261	-0.358027	-2.42821
O	-1.18408	-0.421086	-1.23799
O	-1.15138	0.588852	-3.30364
H	-2.17985	-1.08648	-2.90898
H	-0.531894	1.28864	-2.93733
C	5.45211	-0.109436	-0.413068
O	5.70923	-0.962138	0.421545
O	4.79256	0.997687	-0.0742702
H	5.76584	-0.256358	-1.44588
H	4.5816	0.9952	0.852697
