30
  This energy is -0.00106165 and Call times are: 1793
C	-0.473538	-0.163132	-2.13686
O	-0.701046	0.692828	-1.22773
O	-1.40924	-0.747268	-2.85108
H	0.542134	-0.447466	-2.39121
H	-2.3751	-0.499635	-2.60956
C	-4.04383	0.793735	-1.20674
O	-3.8091	-0.0206206	-2.12531
O	-3.12856	1.41966	-0.470578
H	-5.06018	1.06648	-0.925741
H	-2.16838	1.18201	-0.713315
C	2.57013	1.03117	-0.562283
O	2.57929	0.58544	-1.70709
O	1.43933	1.27716	0.162236
H	3.46395	1.28979	0.0101034
H	0.577245	1.0314	-0.331281
C	1.39747	0.743211	3.59813
O	1.39008	-0.463846	3.31111
O	1.41522	1.7671	2.74199
H	1.39272	1.09565	4.63104
H	1.41398	1.53549	1.75412
C	0.929998	-2.66968	0.592134
O	0.609814	-1.65478	-0.0424264
O	1.32562	-2.70511	1.87393
H	0.926183	-3.67549	0.165406
H	1.34036	-1.81623	2.34011
C	6.82122	0.320131	0.00856962
O	6.87751	-0.425414	0.973342
O	5.88952	0.151083	-0.928913
H	7.54115	1.13222	-0.0858826
H	5.33161	-0.590132	-0.721268
