30
  This energy is -0.000833959 and Call times are: 1624
C	0.611971	1.14937	-1.76677
O	1.16045	0.828059	-0.668185
O	0.461781	2.38698	-2.18222
H	0.247214	0.38904	-2.4494
H	0.787571	3.11653	-1.53867
C	1.84302	3.82268	0.655139
O	1.335	4.12872	-0.444997
O	2.02879	2.5849	1.10773
H	2.18863	4.57847	1.35916
H	1.71369	1.85809	0.467579
C	0.681364	-2.44175	-1.24846
O	0.628732	-1.96349	-2.37888
O	0.8814	-1.71468	-0.110257
H	0.580999	-3.50516	-1.01929
H	0.96301	-0.708536	-0.278095
C	-0.701036	-2.61093	2.85367
O	-1.73247	-2.17436	2.31983
O	0.521524	-2.64465	2.31902
H	-0.700478	-3.03165	3.86071
H	0.620226	-2.26667	1.38258
C	-2.83996	-0.279313	-0.446477
O	-1.63605	-0.0741532	-0.655594
O	-3.35103	-1.03241	0.539634
H	-3.64019	0.14153	-1.05989
H	-2.67418	-1.44274	1.15701
C	4.42283	-0.208253	0.292485
O	4.7636	0.89869	0.677638
O	4.85789	-0.687533	-0.872216
H	3.75569	-0.809918	0.90862
H	5.42923	-0.0616748	-1.30308
