30
  This energy is 0.000391781 and Call times are: 1566
C	-0.580045	-0.603441	-2.0289
O	-0.134657	-1.20525	-1.00401
O	0.00182135	-0.623083	-3.20699
H	-1.50714	-0.0415951	-1.98465
H	0.888119	-1.13724	-3.2586
C	2.70511	-2.5309	-2.17157
O	2.24021	-1.96592	-3.18483
O	2.14224	-2.55012	-0.965649
H	3.64795	-3.07556	-2.19846
H	1.25809	-2.04727	-0.913097
C	-2.67954	-0.11274	0.890156
O	-3.13829	-0.0198573	-0.245746
O	-1.42197	-0.557282	1.18177
H	-3.22407	0.142709	1.80211
H	-0.869645	-0.791243	0.352706
C	0.3652	0.822491	3.82648
O	0.491401	1.81586	3.09388
O	-0.275833	-0.310514	3.5315
H	0.786679	0.784197	4.83247
H	-0.696429	-0.369787	2.61003
C	0.0568286	2.87732	-0.245983
O	-0.18842	1.68616	-0.483042
O	0.337952	3.39921	0.957912
H	0.0705793	3.65568	-1.01261
H	0.358558	2.73943	1.71416
C	5.98747	-0.0234307	-0.444454
O	5.69108	1.10458	-0.0845308
O	6.02909	-1.02806	0.429902
H	6.22029	-0.209527	-1.49225
H	5.80517	-0.725828	1.30299
