30
  This energy is -0.00375691 and Call times are: 1737
C	-0.453115	1.21173	1.77297
O	-0.856128	0.0976173	1.31769
O	-1.24191	2.22792	2.04134
H	0.597027	1.37651	1.99018
H	-2.2354	2.09113	1.82501
C	-4.13444	0.653005	0.958507
O	-3.73394	1.73394	1.44144
O	-3.37471	-0.405489	0.686798
H	-5.18227	0.486224	0.712395
H	-2.38902	-0.275687	0.907968
C	2.2623	-1.13893	1.25293
O	2.35665	-0.230216	2.07433
O	1.11505	-1.46311	0.587458
H	3.08206	-1.79967	0.961629
H	0.324363	-0.855812	0.817999
C	1.24144	-2.56394	-2.70867
O	1.5035	-1.38407	-2.98911
O	1.0155	-3.06385	-1.49184
H	1.17099	-3.34138	-3.4714
H	1.05337	-2.41067	-0.716311
C	1.51788	1.8634	-1.60203
O	0.967814	1.33586	-0.625129
O	1.9285	1.23038	-2.71174
H	1.736	2.93192	-1.66869
H	1.74801	0.243108	-2.73071
C	5.32649	-0.0287609	0.4181
O	4.47114	0.161386	-0.431611
O	6.61133	-0.130264	0.0798463
H	5.03496	-0.116251	1.46407
H	6.7221	-0.0352236	-0.859554
