30
  This energy is 0.000347861 and Call times are: 2003
C	1.49543	-0.306466	1.57695
O	1.53687	-0.019782	0.341216
O	2.09684	-1.34402	2.11421
H	0.959893	0.326338	2.27687
H	2.59323	-1.95994	1.46093
C	3.33079	-2.56022	-0.888766
O	3.31547	-2.81463	0.334788
O	2.75038	-1.5142	-1.47221
H	3.84328	-3.20282	-1.60343
H	2.26347	-0.896391	-0.825228
C	-0.39747	2.68605	0.782409
O	0.0596934	2.50314	1.90797
O	-0.118992	1.90372	-0.30136
H	-1.07548	3.49903	0.512592
H	0.500305	1.11742	-0.088414
C	-2.56207	1.27508	-2.69477
O	-3.07353	0.539101	-1.83677
O	-1.44383	1.99259	-2.5669
H	-3.00504	1.41187	-3.6828
H	-0.956377	1.92298	-1.67973
C	-2.3967	-0.985268	1.27586
O	-1.24594	-0.553365	1.11955
O	-3.4289	-0.797658	0.439126
H	-2.70634	-1.58234	2.13689
H	-3.21713	-0.267971	-0.386847
C	8.60462	-0.0218893	-0.0830645
O	8.85543	0.050191	1.10928
O	9.58488	-0.030324	-0.985584
H	7.56762	-0.0799076	-0.411639
H	10.4344	0.0252367	-0.562499
