30
  This energy is -0.00354114 and Call times are: 1709
C	1.04491	-1.45802	-1.26466
O	1.0359	-0.192361	-1.16991
O	0.766774	-2.11738	-2.36681
H	1.31325	-2.07727	-0.415156
H	0.495327	-1.54435	-3.17335
C	0.0486671	0.714191	-4.23395
O	0.0958791	-0.531157	-4.32842
O	0.337227	1.42227	-3.14455
H	-0.244629	1.3439	-5.07286
H	0.614866	0.856656	-2.34434
C	1.8977	-0.310015	2.07067
O	2.28021	-1.40174	1.65693
O	1.27694	0.633097	1.30298
H	2.01389	0.0391996	3.09925
H	1.13161	0.33888	0.333719
C	-1.23191	2.62884	2.65018
O	-1.93275	1.60591	2.607
O	0.0410743	2.74104	2.26474
H	-1.61196	3.57886	3.02985
H	0.479159	1.90623	1.88963
C	-2.00658	-1.65558	1.25516
O	-0.982003	-1.31467	0.647509
O	-2.69499	-0.899905	2.12454
H	-2.47472	-2.63691	1.14753
H	-2.33238	0.0255091	2.26512
C	4.5386	0.391488	-0.162562
O	4.75876	-0.425413	-1.04233
O	4.77136	0.0949196	1.11548
H	4.14755	1.3734	-0.42646
H	5.10908	-0.789604	1.20116
