30
  This energy is 0.000333871 and Call times are: 852
C	-0.108241	2.12494	-0.538469
O	0.422172	1.09256	-1.05208
O	0.555334	3.2122	-0.215389
H	-1.17669	2.16827	-0.355
H	1.56922	3.17841	-0.368453
C	3.65296	1.95311	-1.13139
O	3.11696	2.97914	-0.660206
O	3.01848	0.838415	-1.48681
H	4.72786	1.88932	-1.29524
H	2.01065	0.871748	-1.34356
C	-2.52336	-0.510239	-1.16505
O	-2.86688	0.668265	-1.11536
O	-1.22684	-0.938193	-1.15922
H	-3.21273	-1.3555	-1.22622
H	-0.54657	-0.177386	-1.08469
C	-0.352451	-3.8877	0.461908
O	-0.529005	-3.24808	1.51031
O	-0.496246	-3.43252	-0.784593
H	-0.0504183	-4.93647	0.464095
H	-0.769939	-2.46079	-0.886408
C	-0.985777	0.0399417	2.71466
O	-0.748319	0.388357	1.54957
O	-1.04033	-1.22355	3.1634
H	-1.18333	0.743002	3.52733
H	-0.853797	-1.92905	2.47411
C	9.80441	-0.377486	0.146496
O	9.85354	-0.259492	-1.06736
O	9.19891	0.542957	0.895944
H	10.261	-1.24526	0.621089
H	8.84697	1.24114	0.355149
