30
  This energy is -0.00171197 and Call times are: 311
C	0.520434	1.40681	-1.60221
O	-0.174399	0.347421	-1.52567
O	1.53552	1.5658	-2.42147
H	0.287415	2.27016	-0.98783
H	1.77691	0.751155	-2.99648
C	1.37411	-1.64425	-3.72116
O	2.0299	-0.584568	-3.81633
O	0.331214	-1.84318	-2.91852
H	1.61571	-2.52533	-4.31416
H	0.0840186	-1.03359	-2.35212
C	-2.11668	1.65309	0.878623
O	-1.65522	2.65603	0.339639
O	-1.82622	0.372256	0.505471
H	-2.81862	1.66573	1.71561
H	-1.15642	0.314169	-0.265984
C	-1.5775	-2.1446	2.89206
O	-0.505162	-1.60525	3.20608
O	-2.41726	-1.75195	1.93172
H	-1.95236	-3.03414	3.40131
H	-2.14756	-0.93284	1.39706
C	1.82388	0.803395	2.09063
O	1.14228	0.831504	1.0563
O	1.57287	0.0602763	3.17945
H	2.72916	1.39806	2.23417
H	0.761156	-0.526952	3.11679
C	5.50776	-0.0599285	0.18941
O	5.58049	0.27914	-0.980861
O	4.32383	-0.217296	0.780214
H	6.42152	-0.235491	0.755926
H	3.6159	-0.0324489	0.173218
