30
  This energy is -0.00180124 and Call times are: 339
C	0.926819	-1.51398	1.2907
O	-0.143688	-0.833124	1.32817
O	1.83595	-1.51218	2.23956
H	1.13957	-2.16983	0.453014
H	1.65498	-0.883647	3.02997
C	0.206746	0.831248	4.20774
O	1.24058	0.129503	4.1798
O	-0.745922	0.848569	3.27846
H	-0.00396131	1.51235	5.03117
H	-0.573098	0.219607	2.49623
C	-1.12269	-1.98672	-1.66659
O	-0.32721	-2.84823	-1.30005
O	-1.44046	-0.871453	-0.945935
H	-1.67517	-2.01277	-2.60867
H	-0.930494	-0.798192	-0.0617861
C	-2.07899	2.14382	-2.5561
O	-0.855922	2.17988	-2.7616
O	-2.75235	1.18777	-1.91254
H	-2.75078	2.93059	-2.90371
H	-2.2075	0.41439	-1.54571
C	2.16924	0.633333	-1.79889
O	1.47624	0.0334266	-0.965182
O	1.72261	1.51585	-2.70578
H	3.25044	0.50533	-1.89041
H	0.735954	1.69779	-2.67344
C	5.85253	0.155178	0.37771
O	7.02556	0.482102	0.294526
O	5.28115	-0.578892	-0.576325
H	5.26746	0.467605	1.24188
H	5.90311	-0.779166	-1.26686
