30
  This energy is 0.000161341 and Call times are: 2171
C	-0.0242373	-2.00876	-0.883932
O	-0.178272	-0.829179	-1.32645
O	-0.912759	-2.96798	-1.01539
H	0.890384	-2.29726	-0.376621
H	-1.78923	-2.70414	-1.47878
C	-3.25985	-0.981601	-2.61699
O	-3.08465	-2.15046	-2.21066
O	-2.38263	0.0145951	-2.51946
H	-4.18434	-0.674584	-3.1042
H	-1.5082	-0.246217	-2.06701
C	2.81841	0.127517	-0.159187
O	2.94297	-1.09233	-0.235337
O	1.68315	0.810518	-0.489094
H	3.60184	0.811616	0.174981
H	0.9159	0.20455	-0.791224
C	0.738212	3.63137	1.3115
O	0.434053	2.83374	2.21189
O	1.24593	3.32844	0.114798
H	0.614282	4.70991	1.42338
H	1.39051	2.34384	-0.0831784
C	-0.0598229	-0.609094	2.82279
O	0.0829389	-0.740399	1.59903
O	0.0187026	0.543312	3.50584
H	-0.270319	-1.44079	3.49935
H	0.195936	1.35846	2.94747
C	7.01148	-0.0190779	0.233301
O	7.87962	-0.732029	0.710621
O	7.25139	0.708558	-0.856885
H	6.03025	0.0218917	0.704692
H	8.14247	0.577766	-1.16127
