30
  This energy is 0.00101969 and Call times are: 1652
C	0.945607	1.86523	0.666152
O	-0.0570825	1.57243	-0.054839
O	1.95374	2.6052	0.262447
H	1.00999	1.52391	1.69401
H	1.91334	2.92086	-0.712882
C	0.746798	3.01866	-2.96122
O	1.71261	3.33286	-2.23284
O	-0.300744	2.28654	-2.58961
H	0.6848	3.33402	-4.0019
H	-0.267514	1.9783	-1.61944
C	-1.45656	-0.221272	2.41132
O	-0.694646	0.521191	3.0258
O	-1.60222	-0.227059	1.05379
H	-2.11259	-0.960302	2.87705
H	-0.991176	0.439827	0.575214
C	-2.18084	-3.20655	-0.643288
O	-0.989901	-3.45942	-0.404235
O	-2.84977	-2.10683	-0.290026
H	-2.82396	-3.89805	-1.19042
H	-2.32915	-1.40035	0.219264
C	1.99431	-1.95515	0.736769
O	1.35539	-0.894637	0.688852
O	1.51832	-3.17541	0.444907
H	3.04479	-2.01504	1.03114
H	0.559	-3.19942	0.150345
C	5.76804	0.342166	-0.129679
O	6.36247	-0.492854	0.533033
O	4.47191	0.197635	-0.402943
H	6.30419	1.21465	-0.501197
H	4.13284	-0.603412	-0.0193668
