30
  This energy is -0.00134852 and Call times are: 1475
C	-1.08276	1.73575	-0.794868
O	-1.26777	0.480092	-0.800663
O	-1.00817	2.47554	-1.87839
H	-0.995689	2.28062	0.1393
H	-1.07247	1.97045	-2.76906
C	-1.33327	-0.184782	-4.07762
O	-1.18784	1.05645	-4.06196
O	-1.42968	-0.969368	-3.00685
H	-1.39564	-0.744814	-5.00972
H	-1.37426	-0.469896	-2.12095
C	-1.17198	0.330763	2.54992
O	-1.45802	1.50822	2.34714
O	-0.959454	-0.593161	1.5674
H	-1.05983	-0.119101	3.5391
H	-1.03729	-0.208678	0.622276
C	1.43719	-3.07945	1.97567
O	2.26559	-2.17143	1.80635
O	0.107921	-2.95845	1.96976
H	1.73613	-4.1133	2.15715
H	-0.264636	-2.02987	1.801
C	2.52977	1.18351	0.736398
O	1.33469	1.0706	0.429393
O	3.28861	0.236833	1.30975
H	3.11317	2.09223	0.570177
H	2.82376	-0.636253	1.48087
C	5.98231	-0.081378	-0.357015
O	6.21383	-1.08785	0.293526
O	6.49495	1.09471	0.00290161
H	5.3495	-0.146693	-1.24132
H	7.02421	1.00683	0.787724
