30
  This energy is -0.00342802 and Call times are: 652
C	0.0358087	-2.1811	-0.241965
O	-0.148816	-1.3867	0.730554
O	0.965617	-3.10928	-0.27017
H	-0.6021	-2.14425	-1.1188
H	1.58643	-3.14417	0.545871
C	2.31202	-2.27505	2.8138
O	2.46327	-3.07748	1.86762
O	1.37578	-1.33221	2.89089
H	2.96298	-2.28619	3.68699
H	0.752762	-1.30025	2.08579
C	-2.69486	0.133153	-0.839663
O	-2.64933	-0.956233	-1.4058
O	-1.853	0.518364	0.163843
H	-3.41727	0.920629	-1.06645
H	-1.14694	-0.184894	0.396352
C	-0.806195	3.82506	0.413295
O	-0.101286	3.57332	-0.576228
O	-1.63065	2.98357	1.04083
H	-0.818772	4.81	0.88325
H	-1.68033	2.03769	0.676994
C	1.08877	0.880492	-2.52627
O	0.568592	0.160795	-1.66217
O	1.06668	2.22199	-2.55174
H	1.63722	0.490873	-3.38717
H	0.591063	2.65511	-1.78113
C	4.0417	0.18832	0.334451
O	4.31604	0.653053	-0.760331
O	3.12086	-0.76694	0.457121
H	4.55602	0.559452	1.22013
H	2.75466	-0.994284	-0.390223
