30
  This energy is -0.00470895 and Call times are: 2378
C	-0.628981	0.682839	-1.98875
O	-1.18426	0.593478	-0.850936
O	-1.08527	0.109302	-3.07949
H	0.269344	1.27601	-2.12398
H	-1.92511	-0.46818	-2.96231
C	-3.75326	-1.44586	-1.50376
O	-3.22072	-1.32241	-2.62768
O	-3.33505	-0.8712	-0.37846
H	-4.64001	-2.05979	-1.35181
H	-2.50604	-0.290707	-0.49302
C	1.17251	2.50443	0.581463
O	1.26102	2.82075	-0.602368
O	0.29528	1.57967	1.07079
H	1.77964	2.92903	1.38429
H	-0.282294	1.14285	0.347778
C	1.21101	-0.495276	3.70675
O	1.92356	-1.07544	2.87302
O	0.420926	0.557767	3.48651
H	1.16546	-0.808143	4.75134
H	0.392974	0.91629	2.53771
C	2.50289	-1.30965	-0.602571
O	1.50409	-0.58473	-0.712586
O	3.04879	-1.72903	0.549327
H	3.06526	-1.69716	-1.4554
H	2.57607	-1.42431	1.38079
C	6.59148	0.19611	-0.383751
O	7.29918	0.472297	0.571584
O	5.53411	-0.601818	-0.239495
H	6.82798	0.607109	-1.36449
H	5.44616	-0.886569	0.663255
