30
  This energy is -0.00557491 and Call times are: 1975
C	-2.07562	-0.623231	0.347002
O	-1.30743	0.259939	0.837763
O	-2.67172	-1.55748	1.0532
H	-2.30164	-0.636058	-0.714072
H	-2.45357	-1.56682	2.05563
C	-1.23885	-0.612797	4.06553
O	-2.02301	-1.45605	3.57965
O	-0.627245	0.358379	3.39159
H	-0.984693	-0.606973	5.12463
H	-0.848045	0.375302	2.39746
C	-0.765506	1.63313	-2.1753
O	-1.82645	1.03728	-2.34473
O	-0.0670009	1.64927	-1.00228
H	-0.25775	2.22585	-2.93969
H	-0.49949	1.09015	-0.262354
C	3.41029	1.66616	-1.02258
O	3.31584	0.47978	-1.3733
O	2.40433	2.5052	-0.766292
H	4.37524	2.15784	-0.887487
H	1.46506	2.13285	-0.859389
C	0.984697	-2.15858	-1.64731
O	0.205383	-1.39182	-1.06424
O	2.24848	-1.87815	-2.00083
H	0.720731	-3.17558	-1.94695
H	2.5695	-0.962258	-1.74446
C	6.91232	-0.231089	-0.263773
O	6.43609	0.816685	0.142628
O	8.15018	-0.591866	0.0724781
H	6.3178	-0.877427	-0.908362
H	8.55146	0.0609119	0.635173
