30
  This energy is -0.00214826 and Call times are: 142
C	0.827797	0.388961	-1.99511
O	1.09488	0.781557	-0.818048
O	0.53832	1.1932	-2.99325
H	0.847539	-0.666114	-2.24722
H	0.500065	2.1926	-2.76459
C	0.704143	4.09124	-1.0976
O	0.478575	3.69849	-2.26246
O	1.01623	3.31484	-0.062594
H	0.661396	5.1456	-0.827747
H	1.06289	2.32272	-0.28817
C	1.52248	-2.36604	0.262519
O	1.69328	-2.47831	-0.948916
O	1.2258	-1.19338	0.895757
H	1.59367	-3.18845	0.978071
H	1.13196	-0.398198	0.258558
C	-0.905286	-1.1651	3.64346
O	-1.80975	-1.3726	2.81987
O	0.396107	-1.02573	3.38157
H	-1.10184	-1.07585	4.71329
H	0.674359	-1.0872	2.40775
C	-2.46227	-1.36258	-0.650623
O	-1.32324	-0.88687	-0.757935
O	-3.05832	-1.72875	0.494547
H	-3.12477	-1.54211	-1.50069
H	-2.51438	-1.57924	1.32487
C	4.41724	0.227311	-0.326919
O	4.36458	-0.972195	-0.546473
O	3.87309	0.742173	0.77505
H	4.91483	0.883006	-1.04048
H	3.47482	0.0610603	1.30537
