30
  This energy is -0.000429659 and Call times are: 188
C	2.01412	0.868387	-0.0789237
O	0.873308	1.27502	0.300727
O	2.7449	1.46796	-0.9918
H	2.4657	-0.0133126	0.363591
H	2.32247	2.29375	-1.43018
C	0.405079	3.93386	-1.67314
O	1.54357	3.54755	-2.01466
O	-0.361275	3.36762	-0.743893
H	-0.0684444	4.80223	-2.12925
H	0.0586752	2.5522	-0.301085
C	0.553301	-1.27113	2.46234
O	1.77014	-1.21207	2.30372
O	-0.347188	-0.451046	1.84531
H	0.0469918	-1.98151	3.11994
H	0.0845668	0.220001	1.20466
C	-3.45338	-1.66749	0.863422
O	-2.82901	-2.2598	-0.0303045
O	-2.93915	-0.87016	1.80229
H	-4.53628	-1.75143	0.970196
H	-1.93504	-0.726185	1.77828
C	0.336368	-2.38742	-1.59054
O	0.600833	-1.3927	-0.900747
O	-0.818825	-3.07016	-1.57801
H	1.03474	-2.83097	-2.30419
H	-1.51901	-2.71165	-0.954428
C	5.8975	-0.155415	-0.139939
O	5.84868	1.00813	0.225524
O	7.04438	-0.832808	-0.103526
H	4.99285	-0.644244	-0.499592
H	7.74847	-0.287784	0.229616
