30
  This energy is 0.00207503 and Call times are: 1835
C	0.986922	-0.454922	-1.90684
O	-0.0962011	0.113035	-1.56741
O	1.0552	-1.49597	-2.70586
H	1.94382	-0.0811344	-1.55789
H	0.156386	-1.86968	-3.02991
C	-2.37687	-1.80234	-3.08883
O	-1.30356	-2.3328	-3.44751
O	-2.49138	-0.739563	-2.29584
H	-3.34389	-2.18531	-3.41213
H	-1.60043	-0.361273	-1.97887
C	1.53277	2.35107	0.328775
O	2.40844	1.97706	-0.447538
O	0.248774	1.88686	0.327109
H	1.67442	3.10338	1.10813
H	0.0768757	1.16535	-0.377887
C	-1.48862	1.50011	3.31444
O	-0.74867	0.522366	3.50393
O	-1.47933	2.31511	2.2574
H	-2.25244	1.79981	4.03409
H	-0.80338	2.10959	1.52913
C	1.56288	-1.57355	1.85042
O	1.22523	-0.963333	0.826293
O	1.10908	-1.34089	3.09167
H	2.28836	-2.3905	1.85561
H	0.424522	-0.610395	3.16522
C	5.81021	-0.269516	-0.353607
O	6.80738	-0.617026	0.258515
O	5.111	0.796714	0.0333891
H	5.48946	-0.83814	-1.22567
H	5.50094	1.19545	0.80328
