30
  This energy is -0.00162876 and Call times are: 2574
C	-0.383933	2.12311	0.402492
O	0.65442	1.41223	0.236905
O	-0.61718	2.85068	1.47166
H	-1.14559	2.18273	-0.367866
H	0.0873714	2.79048	2.21498
C	2.26431	1.87118	3.13215
O	1.25664	2.59731	3.2713
O	2.54768	1.13211	2.06214
H	3.02197	1.7837	3.90972
H	1.85408	1.19597	1.31905
C	-0.396004	0.367656	-2.77363
O	-1.03095	1.40812	-2.61992
O	0.485541	-0.141329	-1.86371
H	-0.455626	-0.270773	-3.6581
H	0.558773	0.417923	-1.00988
C	0.779106	-3.57873	-1.42742
O	-0.322869	-3.50183	-0.862478
O	1.473	-2.57252	-1.96378
H	1.30739	-4.52639	-1.5457
H	1.06158	-1.64753	-1.89544
C	-2.60412	-1.15811	0.469091
O	-1.71704	-0.322899	0.243883
O	-2.53975	-2.46964	0.192478
H	-3.56362	-0.911327	0.929756
H	-1.67787	-2.77622	-0.220831
C	5.52625	0.0397462	0.250185
O	5.30723	1.03156	-0.426663
O	4.7049	-1.00861	0.207319
H	6.40316	0.0126215	0.89595
H	3.98557	-0.850125	-0.393704
