30
  This energy is 1.2761e-05 and Call times are: 1947
C	-0.36428	1.95058	-0.937848
O	0.409061	0.971223	-1.16969
O	0.0456606	3.18267	-0.735927
H	-1.44063	1.816	-0.915833
H	1.06225	3.32083	-0.737741
C	3.41889	2.41411	-0.960254
O	2.6484	3.37946	-0.76925
O	3.04726	1.15591	-1.18444
H	4.50153	2.53326	-0.958461
H	2.03831	1.01691	-1.19124
C	-2.16829	-1.16604	-1.38705
O	-2.70511	-0.0832523	-1.60783
O	-0.839142	-1.32971	-1.1211
H	-2.68792	-2.12698	-1.38336
H	-0.316686	-0.450154	-1.09719
C	0.220951	-3.75826	1.1307
O	-0.23497	-3.00566	2.00542
O	0.218644	-3.54419	-0.186804
H	0.68719	-4.71515	1.37178
H	-0.190354	-2.67233	-0.506355
C	-1.4271	0.282054	2.4953
O	-1.0553	0.479178	1.32992
O	-1.34794	-0.880155	3.16146
H	-1.87371	1.05441	3.12599
H	-0.932679	-1.6373	2.64967
C	9.45487	0.363558	-0.17775
O	9.26124	0.475311	1.02217
O	9.07811	-0.736466	-0.82853
H	9.9411	1.17272	-0.72139
H	8.66927	-1.35681	-0.235407
