30
  This energy is -0.00278055 and Call times are: 2603
C	-1.46153	-0.604478	-1.5217
O	-1.11101	-1.04703	-0.384931
O	-1.42845	-1.30952	-2.63015
H	-1.83894	0.406669	-1.63246
H	-1.05803	-2.26222	-2.54234
C	-0.0841468	-4.13821	-1.1432
O	-0.466016	-3.70638	-2.25214
O	-0.114976	-3.46577	0.00497007
H	0.320643	-5.14251	-1.02549
H	-0.489721	-2.5223	-0.0774282
C	-1.79776	1.88254	1.09961
O	-2.4786	1.93908	0.0785269
O	-0.990583	0.833076	1.43313
H	-1.76144	2.66107	1.86512
H	-0.981037	0.0872087	0.732605
C	2.02743	1.38275	3.07073
O	2.42746	1.81672	1.97937
O	0.811396	0.903858	3.34196
H	2.66637	1.35442	3.95508
H	0.147495	0.884399	2.5749
C	1.55813	1.95972	-1.44029
O	0.630097	1.20004	-1.12909
O	2.46844	2.47641	-0.600561
H	1.74181	2.30278	-2.46123
H	2.37322	2.19344	0.357828
C	4.98496	0.388669	0.233344
O	5.43096	-0.536392	0.892995
O	4.60353	0.202282	-1.0297
H	4.89832	1.37696	0.683317
H	4.7333	-0.702216	-1.29204
