30
  This energy is -0.00274044 and Call times are: 2059
C	0.794565	-1.70026	-1.1379
O	0.525146	-1.48193	0.0830414
O	1.97704	-2.06717	-1.57834
H	0.0282065	-1.61189	-1.9008
H	2.71509	-2.13849	-0.869299
C	3.50068	-1.95733	1.53391
O	3.74803	-2.20613	0.334346
O	2.31663	-1.59917	2.02501
H	4.2686	-2.01757	2.30397
H	1.57984	-1.53527	1.32472
C	-2.66036	-0.710397	-0.634698
O	-2.32685	-1.38244	-1.60757
O	-1.84064	-0.410785	0.415269
H	-3.6531	-0.277963	-0.490121
H	-0.892879	-0.782517	0.311742
C	-2.06989	2.67341	2.00506
O	-1.53352	3.12926	0.983331
O	-2.3805	1.39704	2.24177
H	-2.35383	3.30862	2.8459
H	-2.14647	0.728533	1.51522
C	0.158851	2.12571	-1.94907
O	0.125948	0.990091	-1.45459
O	-0.364516	3.23624	-1.40725
H	0.630071	2.35385	-2.90806
H	-0.80376	3.10828	-0.513752
C	6.68414	0.140001	-0.196411
O	6.88689	-0.532208	0.801997
O	5.44163	0.394038	-0.605243
H	7.52911	0.53599	-0.758484
H	4.80572	-0.0100851	-0.0255092
