30
  This energy is -0.00223891 and Call times are: 1020
C	-0.14173	0.0555085	-2.18949
O	0.352068	0.814817	-1.30035
O	-1.04605	0.434702	-3.06429
H	0.186952	-0.973892	-2.28662
H	-1.37769	1.40126	-2.97304
C	-1.33707	3.65521	-1.81396
O	-1.791	2.9113	-2.70984
O	-0.410991	3.31822	-0.919402
H	-1.67892	4.68203	-1.69106
H	-0.0738407	2.36165	-1.01242
C	2.29319	-1.64773	-0.106292
O	2.0555	-2.03082	-1.24914
O	1.8171	-0.488116	0.434791
H	2.91818	-2.18488	0.610844
H	1.21064	0.0388108	-0.199009
C	0.950308	-0.339532	3.79914
O	-0.0346522	-1.02038	3.47398
O	1.91862	0.0995387	2.99216
H	1.12485	-0.0237395	4.82916
H	1.83723	-0.140584	2.00969
C	-1.81836	-2.14998	0.643328
O	-1.06222	-1.40842	0.000243034
O	-1.78619	-2.34831	1.97013
H	-2.61624	-2.74124	0.18775
H	-1.08531	-1.82482	2.46243
C	5.57604	-0.179606	-0.259191
O	4.69532	0.351908	-0.916176
O	5.5189	-0.192045	1.07201
H	6.41743	-0.648577	-0.767944
H	4.73596	0.249966	1.3809
