18
  This energy is -2.6986 and Call times are: 4079
C	-0.052574	1.12402	0.142172
C	0.280656	0.274365	1.15579
C	0.238758	-1.03864	0.59508
C	-0.116376	-0.875426	-0.711678
O	-0.298309	0.438935	-1.00556
H	-0.148656	2.22174	0.110122
H	0.530864	0.545068	2.19416
H	0.450022	-1.98836	1.11228
H	-0.270755	-1.60461	-1.5239
C	3.35895	-0.650714	-0.817878
C	4.47013	-1.00338	-0.0816373
N	4.8261	-0.01206	0.771052
C	3.93913	0.951929	0.564581
N	3.03356	0.615057	-0.384132
H	2.79551	-1.19283	-1.59389
H	5.02136	-1.95536	-0.15043
H	3.90663	1.92492	1.08078
H	2.23561	1.20559	-0.72444
