18
  This energy is -1.6906 and Call times are: 414
C	-0.993684	0.115323	0.534503
C	-0.597313	0.959612	-0.460706
C	0.688316	0.497016	-0.876974
C	0.964083	-0.589122	-0.0993947
O	-0.0522649	-0.83657	0.768256
H	-1.91004	0.0859579	1.14662
H	-1.15438	1.82168	-0.861479
H	1.32623	0.9291	-1.66467
H	1.83656	-1.26214	-0.0664771
C	4.30465	0.970925	0.443875
C	5.17256	0.115666	1.08918
N	5.54828	-0.902837	0.278005
C	4.91586	-0.680275	-0.866171
N	4.15333	0.437616	-0.816629
H	3.8008	1.89065	0.781198
H	5.53437	0.215261	2.12552
H	4.97564	-1.3043	-1.7724
H	3.55991	0.824394	-1.59091
