18
  This energy is -1.3786 and Call times are: 216
C	-1.01543	0.272247	0.425657
C	-0.0996743	-0.454157	1.12858
C	1.03432	-0.588917	0.270661
C	0.711419	0.0670342	-0.880789
O	-0.536782	0.599058	-0.803612
H	-2.02969	0.617485	0.685154
H	-0.2115	-0.85489	2.14888
H	1.97652	-1.11491	0.493527
H	1.27499	0.224768	-1.815
C	4.60006	1.01839	-0.581372
C	4.39449	0.811218	0.766205
N	4.59722	-0.487113	1.09749
C	4.92731	-1.08313	-0.0402438
N	4.94301	-0.217839	-1.0817
H	4.52896	1.92771	-1.19911
H	4.10352	1.5753	1.50537
H	5.16747	-2.15104	-0.167192
H	5.17267	-0.445338	-2.08007
