44
  This energy is -2.9745 and Call times are: 4065
C	-1.39877	3.06513	0.872402
C	-1.4946	1.70702	0.291473
O	-2.57863	1.21068	0.017742
H	-2.42136	3.47975	1.00764
H	-0.827342	3.73236	0.193422
H	-0.894127	3.02388	1.86069
N	-0.341477	1.06517	0.0896473
C	-0.276057	-0.278615	-0.428533
C	0.982424	-0.93252	0.110159
O	1.82311	-0.273844	0.719347
H	0.530511	1.46617	0.355552
H	-1.11946	-0.846566	-0.0560514
C	-0.265574	-0.274467	-1.97291
H	0.605373	0.299193	-2.35554
H	-0.229355	-1.30406	-2.38418
H	-1.1917	0.215708	-2.34489
N	1.13732	-2.25517	-0.0963066
C	2.30011	-2.96423	0.384662
H	0.444211	-2.77193	-0.587873
H	2.24245	-4.04207	0.116051
H	2.37909	-2.88299	1.49301
H	3.23006	-2.54121	-0.0596297
C	3.16659	2.61151	-1.1657
C	4.11009	1.49257	-1.38691
O	4.34005	1.07155	-2.5122
H	2.74513	2.93505	-2.1422
H	3.6939	3.47027	-0.69962
H	2.33511	2.28612	-0.50553
N	4.68481	0.976791	-0.297847
C	5.59159	-0.142877	-0.349373
C	5.49268	-0.892528	0.96585
O	4.85852	-0.426244	1.91038
H	4.45642	1.30319	0.614927
H	5.27679	-0.82177	-1.13208
C	7.04072	0.331629	-0.59452
H	7.36782	1.01986	0.213801
H	7.74656	-0.52232	-0.650065
H	7.08784	0.884382	-1.55815
N	6.11532	-2.08436	1.0546
C	6.07165	-2.87174	2.26468
H	6.62012	-2.44701	0.278237
H	6.64295	-3.81783	2.13909
H	5.02019	-3.12957	2.52779
H	6.51225	-2.30643	3.11757
