44
  This energy is -4.045 and Call times are: 3893
C	0.235687	-2.18411	-2.69941
C	-0.0754873	-0.858431	-2.11898
O	-0.272981	0.114772	-2.83332
H	0.265796	-2.10191	-3.80766
H	-0.545857	-2.91954	-2.4147
H	1.22455	-2.53741	-2.33828
N	-0.124346	-0.790654	-0.786539
C	-0.373096	0.438782	-0.0757857
C	0.309256	0.349848	1.27626
O	0.799228	-0.708318	1.66604
H	0.0790344	-1.58238	-0.217612
H	0.0825691	1.26081	-0.613621
C	-1.88887	0.67891	0.0974204
H	-2.35497	-0.159058	0.658311
H	-2.09375	1.62953	0.631152
H	-2.36876	0.732582	-0.904169
N	0.364277	1.46978	2.02376
C	0.998448	1.48207	3.3214
H	-0.0342549	2.31747	1.68958
H	0.9407	2.49481	3.77775
H	2.07203	1.19657	3.23662
H	0.502114	0.758921	4.00831
C	8.54888	-1.83485	0.224019
C	7.36585	-1.35577	-0.525699
O	7.27539	-1.5159	-1.73507
H	9.26685	-2.30379	-0.483418
H	8.24362	-2.58941	0.979136
H	9.04952	-0.984359	0.733047
N	6.41801	-0.744624	0.188779
C	5.22921	-0.186796	-0.406318
C	4.76798	0.972881	0.456232
O	5.28491	1.18822	1.55082
H	6.52467	-0.585421	1.16609
H	5.47267	0.21403	-1.38237
C	4.11723	-1.25249	-0.520487
H	3.8597	-1.65645	0.481784
H	3.20126	-0.838803	-0.989933
H	4.47951	-2.09501	-1.14918
N	3.78287	1.7567	-0.0246016
C	3.28285	2.88664	0.723316
H	3.37986	1.56898	-0.914215
H	2.47557	3.4048	0.160242
H	4.09867	3.61939	0.920262
H	2.87046	2.55719	1.70441
