44
  This energy is -2.5843 and Call times are: 3786
C	-0.421212	-2.23664	2.63301
C	-0.320467	-0.861404	2.09475
O	-0.608292	0.10956	2.78089
H	-0.794803	-2.19512	3.67923
H	0.576321	-2.72411	2.62669
H	-1.12905	-2.83576	2.02218
N	0.0957556	-0.747624	0.831342
C	0.203026	0.521514	0.155811
C	-0.00445595	0.286286	-1.3285
O	-0.0573158	-0.854516	-1.78401
H	0.287121	-1.54946	0.272498
H	-0.592459	1.17417	0.493266
C	1.58112	1.16916	0.413973
H	2.39719	0.504614	0.058365
H	1.67095	2.15346	-0.0896053
H	1.71459	1.32471	1.50683
N	-0.136058	1.36848	-2.12069
C	-0.342287	1.24228	-3.54467
H	-0.0945954	2.28342	-1.73308
H	-0.426781	2.2443	-4.02012
H	-1.2764	0.673544	-3.75739
H	0.507663	0.699751	-4.01836
C	6.61858	-2.47451	-2.33948
C	6.92979	-1.20091	-1.65229
O	8.01617	-0.655929	-1.79079
H	7.50317	-2.79929	-2.92929
H	5.75822	-2.33767	-3.02781
H	6.37452	-3.26137	-1.59492
N	5.96626	-0.691905	-0.880973
C	6.13612	0.518027	-0.115619
C	5.24132	0.434101	1.10661
O	4.41646	-0.470295	1.22234
H	5.10211	-1.16816	-0.745826
H	7.15842	0.57742	0.236512
C	5.78176	1.76044	-0.96184
H	4.72983	1.70506	-1.31455
H	5.92181	2.69936	-0.387961
H	6.44338	1.79719	-1.85473
N	5.39092	1.37766	2.05705
C	4.58747	1.3756	3.25731
H	6.06656	2.09916	1.94739
H	4.85996	2.2307	3.91442
H	4.73873	0.431736	3.82961
H	3.5052	1.45727	3.00598
