44
  This energy is -1.8704 and Call times are: 4682
C	-2.69073	1.45874	1.65673
C	-1.36835	1.53868	0.996365
O	-0.863917	2.61785	0.718255
H	-3.08799	2.48583	1.80885
H	-2.59583	0.960212	2.64426
H	-3.40163	0.888826	1.02198
N	-0.769517	0.376814	0.724634
C	0.499823	0.292425	0.0462428
C	0.54711	-1.02377	-0.706724
O	-0.323447	-1.87597	-0.540629
H	-1.21111	-0.494204	0.920047
H	0.56631	1.08625	-0.68728
C	1.66937	0.383907	1.05075
H	1.60753	-0.436489	1.79719
H	2.65239	0.334051	0.539192
H	1.61018	1.35125	1.59582
N	1.56831	-1.21707	-1.56452
C	1.69297	-2.43624	-2.32888
H	2.26083	-0.514122	-1.68844
H	2.59686	-2.40381	-2.97631
H	0.800928	-2.58479	-2.97962
H	1.7774	-3.31738	-1.65241
C	4.15579	1.77527	-2.46796
C	5.14178	1.69184	-1.36705
O	5.92287	2.60699	-1.14614
H	4.28325	2.74151	-3.00273
H	3.12367	1.72255	-2.06213
H	4.31318	0.943388	-3.18649
N	5.12797	0.571108	-0.641672
C	6.05531	0.326124	0.434702
C	6.25838	-1.17272	0.552128
O	5.5569	-1.95521	-0.0861046
H	4.51371	-0.181952	-0.859488
H	7.01445	0.763104	0.186287
C	5.52375	0.906287	1.76365
H	4.54476	0.450583	2.02432
H	6.23529	0.736232	2.5975
H	5.37506	2.00255	1.6521
N	7.23597	-1.60903	1.37065
C	7.50614	-3.01755	1.54164
H	7.79581	-0.960441	1.87561
H	8.34617	-3.17323	2.25393
H	7.78036	-3.48585	0.568617
H	6.60815	-3.54479	1.9376
