44
  This energy is -1.6766 and Call times are: 3397
C	0.234604	-1.93489	-2.88337
C	0.487825	-1.70667	-1.44291
O	0.893526	-2.60711	-0.721093
H	0.452963	-2.99644	-3.131
H	0.890462	-1.28082	-3.49557
H	-0.828257	-1.72114	-3.12365
N	0.247344	-0.475551	-0.985856
C	0.40559	-0.112482	0.400398
C	-0.560491	1.01636	0.706931
O	-1.18487	1.57307	-0.194139
H	-0.121629	0.235946	-1.57704
H	0.127647	-0.953149	1.02382
C	1.85792	0.322923	0.694334
H	2.14004	1.192	0.0625515
H	1.99596	0.591766	1.76166
H	2.54794	-0.515593	0.455358
N	-0.712543	1.37634	1.99663
C	-1.61387	2.43629	2.38433
H	-0.201686	0.911327	2.71207
H	-1.59854	2.58189	3.48696
H	-2.65755	2.19645	2.07697
H	-1.32321	3.39635	1.89961
C	4.44901	2.66561	-1.39331
C	5.35827	2.09373	-0.374801
O	5.98627	2.81397	0.38893
H	4.47664	3.77508	-1.3288
H	3.40882	2.32101	-1.21437
H	4.77078	2.35664	-2.4102
N	5.45132	0.762297	-0.342959
C	6.32698	0.0621639	0.563459
C	6.72935	-1.24875	-0.0855208
O	6.19032	-1.62945	-1.12293
H	4.96518	0.191064	-0.998105
H	7.23035	0.64184	0.706678
C	5.62859	-0.195469	1.91665
H	4.70738	-0.799083	1.77148
H	6.29741	-0.721761	2.62813
H	5.33592	0.776912	2.36959
N	7.6993	-1.96976	0.51059
C	8.15159	-3.22723	-0.0374781
H	8.12643	-1.64325	1.34727
H	8.95373	-3.6664	0.595708
H	8.55547	-3.08483	-1.06601
H	7.31103	-3.95617	-0.0945145
