44
  This energy is -1.8462 and Call times are: 2846
C	-0.754881	-3.37222	0.413521
C	-1.08968	-2.01038	-0.0602517
O	-2.04912	-1.81316	-0.793046
H	-1.47946	-4.09853	-0.0146513
H	-0.813161	-3.41711	1.52137
H	0.26899	-3.65045	0.0858541
N	-0.289972	-1.02473	0.353671
C	-0.462942	0.346133	-0.0578811
C	0.895017	1.0221	-0.0339107
O	1.87217	0.455297	0.451496
H	0.511107	-1.20658	0.916759
H	-0.817131	0.370002	-1.08092
C	-1.45044	1.08162	0.874403
H	-1.08231	1.06656	1.9224
H	-1.60271	2.13438	0.559695
H	-2.43476	0.565172	0.847195
N	0.989172	2.25525	-0.569153
C	2.24176	2.97392	-0.596188
H	0.188259	2.69588	-0.960893
H	2.11402	3.96884	-1.07686
H	3.00924	2.40412	-1.16853
H	2.62747	3.13048	0.437185
C	5.38066	1.71445	3.02769
C	5.76356	1.56158	1.60601
O	6.30866	2.47104	0.995952
H	5.65185	2.73565	3.37333
H	5.91833	0.969437	3.65107
H	4.28555	1.57394	3.14628
N	5.47927	0.387405	1.03779
C	5.75217	0.104726	-0.349351
C	4.74042	-0.917689	-0.831637
O	3.98588	-1.47909	-0.0396733
H	4.99839	-0.328586	1.53576
H	5.60457	1.00478	-0.933081
C	7.19002	-0.428928	-0.531115
H	7.33876	-1.35813	0.0592287
H	7.41702	-0.637274	-1.59675
H	7.91302	0.33207	-0.16438
N	4.69583	-1.17801	-2.1531
C	3.76192	-2.13191	-2.7045
H	5.31165	-0.710654	-2.77873
H	3.88018	-2.20523	-3.80808
H	2.71317	-1.8274	-2.48389
H	3.92745	-3.14259	-2.26602
