44
  This energy is -3.3844 and Call times are: 3558
C	-2.06733	-1.03857	-2.60004
C	-1.51749	-1.18655	-1.23369
O	-2.00889	-1.97237	-0.435299
H	-2.94295	-1.71317	-2.71865
H	-1.2988	-1.31143	-3.35346
H	-2.3951	0.00881694	-2.76928
N	-0.46847	-0.418728	-0.929754
C	0.148441	-0.419616	0.373312
C	0.757776	0.949575	0.609072
O	0.819751	1.77617	-0.299012
H	-0.105284	0.245633	-1.57674
H	-0.612892	-0.568309	1.12889
C	1.23004	-1.51773	0.47089
H	2.01685	-1.35961	-0.297207
H	1.70289	-1.53771	1.47416
H	0.763209	-2.51003	0.28716
N	1.21712	1.22504	1.84566
C	1.80821	2.50363	2.16502
H	1.15447	0.544796	2.56844
H	2.12353	2.5358	3.23121
H	1.07941	3.32796	1.99006
H	2.70287	2.69297	1.52872
C	5.41323	2.12747	2.75414
C	5.66398	1.85531	1.32089
O	5.8825	2.76489	0.53264
H	5.44502	3.22459	2.93069
H	6.19178	1.64035	3.37809
H	4.41259	1.74523	3.04687
N	5.63504	0.574239	0.946174
C	5.81795	0.156352	-0.421478
C	5.06117	-1.14277	-0.624332
O	4.57101	-1.74185	0.330944
H	5.41533	-0.151687	1.59163
H	5.37744	0.892778	-1.08197
C	7.31619	-0.0336275	-0.744632
H	7.76611	-0.796683	-0.0742862
H	7.47103	-0.342005	-1.79888
H	7.85148	0.927221	-0.581649
N	4.94096	-1.60623	-1.884
C	4.23337	-2.83146	-2.17433
H	5.34089	-1.10532	-2.64441
H	4.24454	-3.04275	-3.26633
H	3.17235	-2.76051	-1.84194
H	4.70394	-3.69184	-1.6457
