44
  This energy is -4.3555 and Call times are: 2290
C	-1.46679	0.111198	3.15418
C	-0.28146	0.108203	2.26754
O	0.832318	0.37254	2.69886
H	-1.15533	0.395477	4.1828
H	-1.92503	-0.899681	3.18391
H	-2.21558	0.845673	2.78955
N	-0.499974	-0.194193	0.985674
C	0.546854	-0.195942	-0.00564186
C	-0.0750646	0.128454	-1.35083
O	-1.2963	0.177301	-1.48471
H	-1.41832	-0.367028	0.641234
H	1.25464	0.591695	0.220857
C	1.25832	-1.56587	-0.054264
H	0.534556	-2.37289	-0.296986
H	2.07568	-1.57556	-0.804169
H	1.69895	-1.78615	0.942566
N	0.757413	0.367503	-2.38324
C	0.256602	0.689582	-3.69916
H	1.74273	0.327355	-2.25438
H	1.0961	0.851713	-4.41061
H	-0.360746	1.61652	-3.66845
H	-0.380249	-0.136547	-4.0904
C	3.98632	0.350118	2.78054
C	5.29509	0.0471713	2.15884
O	6.30779	-0.0612539	2.8364
H	4.1188	0.463975	3.87842
H	3.27091	-0.477015	2.58874
H	3.57653	1.29614	2.36801
N	5.30261	-0.0961143	0.831509
C	6.50669	-0.349938	0.0803018
C	6.32706	0.228251	-1.31074
O	5.23276	0.648659	-1.68153
H	4.47759	0.0355532	0.289418
H	7.33362	0.17409	0.54312
C	6.80013	-1.86428	0.00350985
H	5.95663	-2.40099	-0.480749
H	7.73239	-2.07189	-0.560671
H	6.91997	-2.26754	1.03276
N	7.40774	0.270414	-2.1147
C	7.33364	0.808321	-3.45311
H	8.28564	-0.0707801	-1.79539
H	8.32551	0.755319	-3.95373
H	7.00884	1.87382	-3.43078
H	6.6001	0.236589	-4.06645
