44
  This energy is -2.0825 and Call times are: 4034
C	1.98285	2.66789	-1.0312
C	0.819795	1.76761	-1.1984
O	-0.054745	2.00904	-2.01895
H	1.88439	3.52842	-1.7281
H	2.92345	2.12476	-1.26147
H	2.02323	3.05155	0.010082
N	0.783273	0.69226	-0.408043
C	-0.305713	-0.252406	-0.424623
C	-0.414451	-0.873121	0.955393
O	0.449129	-0.67067	1.80684
H	1.48166	0.530935	0.283406
H	-1.23252	0.274152	-0.615416
C	-0.0731535	-1.34372	-1.49242
H	0.87223	-1.89123	-1.29113
H	-0.91153	-2.06941	-1.52453
H	0.0112704	-0.866113	-2.49297
N	-1.49085	-1.64224	1.21202
C	-1.68197	-2.26983	2.49879
H	-2.18104	-1.79104	0.511619
H	-2.62492	-2.85965	2.51249
H	-1.73632	-1.50329	3.30547
H	-0.835568	-2.95599	2.73104
C	6.03154	-2.99861	-1.73527
C	6.54796	-1.68219	-1.29765
O	7.72036	-1.37512	-1.46374
H	6.8612	-3.5886	-2.18187
H	5.2358	-2.86333	-2.49766
H	5.62068	-3.55625	-0.867343
N	5.66838	-0.86301	-0.716554
C	6.03148	0.433107	-0.200034
C	5.09429	0.765123	0.945837
O	4.11331	0.0622147	1.18098
H	4.72704	-1.14313	-0.551441
H	7.03424	0.387645	0.20621
C	5.9421	1.51111	-1.30238
H	4.911	1.56544	-1.71215
H	6.23267	2.51125	-0.920534
H	6.63001	1.24356	-2.13396
N	5.38191	1.84754	1.69528
C	4.55032	2.23787	2.80985
H	6.18241	2.40159	1.49203
H	4.9526	3.15202	3.29949
H	4.50484	1.42442	3.5698
H	3.51114	2.45068	2.46934
