44
  This energy is -3.0887 and Call times are: 2906
C	1.19799	2.4976	2.10701
C	0.325658	2.02783	1.00724
O	-0.56994	2.73354	0.564197
H	0.87932	3.51588	2.41917
H	2.25389	2.54012	1.76642
H	1.11798	1.81328	2.97786
N	0.571465	0.80283	0.536779
C	-0.219656	0.192112	-0.502313
C	-0.175127	-1.31189	-0.308501
O	0.588926	-1.81899	0.510514
H	1.27761	0.224556	0.935315
H	-1.25186	0.500936	-0.393591
C	0.315583	0.574065	-1.89976
H	1.37121	0.248076	-2.01564
H	-0.293634	0.121149	-2.70862
H	0.281185	1.6793	-2.01645
N	-1.00566	-2.06371	-1.0575
C	-1.03723	-3.50278	-0.937999
H	-1.61956	-1.63487	-1.71194
H	-1.78462	-3.93911	-1.63674
H	-1.30909	-3.80489	0.099349
H	-0.0396339	-3.93878	-1.17432
C	6.27013	1.1373	3.12708
C	6.06449	0.0564205	2.13685
O	6.5317	-1.06038	2.31262
H	6.89251	0.754367	3.96485
H	5.29337	1.47706	3.53113
H	6.79285	1.99526	2.65406
N	5.34978	0.371573	1.05414
C	5.10177	-0.561448	-0.0166128
C	4.92976	0.227417	-1.30101
O	4.84661	1.45394	-1.28043
H	5.01075	1.29616	0.905658
H	5.96813	-1.19867	-0.14301
C	3.84324	-1.40923	0.270804
H	2.9522	-0.756643	0.390109
H	3.64951	-2.14112	-0.539955
H	3.98825	-1.97161	1.21898
N	4.88065	-0.463191	-2.45715
C	4.72443	0.202665	-3.72932
H	4.95376	-1.45502	-2.45391
H	4.70686	-0.536344	-4.56045
H	5.56572	0.910938	-3.90786
H	3.77354	0.782544	-3.7553
