44
  This energy is -2.1183 and Call times are: 3501
C	1.70832	-0.273178	3.01989
C	0.574509	0.216039	2.20362
O	-0.410864	0.718833	2.72578
H	1.48029	-0.11645	4.0966
H	2.63331	0.28485	2.76351
H	1.86918	-1.3572	2.84072
N	0.690796	0.0746382	0.881175
C	-0.347748	0.463616	-0.0400645
C	-0.245058	-0.419875	-1.26907
O	0.71384	-1.17357	-1.42455
H	1.48108	-0.373802	0.473481
H	-1.31412	0.277003	0.411517
C	-0.210431	1.9517	-0.429926
H	0.776662	2.14155	-0.902831
H	-1.01261	2.26699	-1.12823
H	-0.280579	2.5789	0.485522
N	-1.24274	-0.352814	-2.17248
C	-1.23368	-1.16033	-3.36998
H	-2.01233	0.260116	-2.02716
H	-2.13936	-0.962425	-3.98463
H	-1.21469	-2.24418	-3.11271
H	-0.334336	-0.936461	-3.98822
C	11.2888	0.209533	1.25658
C	10.2727	0.49461	0.218623
O	10.4976	1.28549	-0.687099
H	12.1954	0.822601	1.06125
H	11.5693	-0.864484	1.23279
H	10.8916	0.465459	2.26146
N	9.11102	-0.153629	0.331477
C	8.01076	0.0515919	-0.577297
C	6.72075	-0.224682	0.17178
O	6.7397	-0.716062	1.29868
H	8.92786	-0.763385	1.09731
H	7.98965	1.08992	-0.883976
C	8.13139	-0.874145	-1.80762
H	8.14247	-1.93986	-1.49431
H	7.29736	-0.715777	-2.52165
H	9.08613	-0.660037	-2.3358
N	5.56258	0.095131	-0.438442
C	4.28578	-0.126551	0.19939
H	5.56771	0.495671	-1.34873
H	3.45364	0.201257	-0.461901
H	4.21967	0.443228	1.15451
H	4.14467	-1.207	0.43147
