44
  This energy is -1.7208 and Call times are: 4001
C	-2.38432	-1.87968	1.70133
C	-1.56498	-0.658414	1.53297
O	-1.78772	0.348871	2.19037
H	-3.17325	-1.69078	2.46145
H	-1.74865	-2.72263	2.04498
H	-2.86924	-2.15073	0.739834
N	-0.583214	-0.722193	0.630506
C	0.270346	0.398724	0.324663
C	0.734723	0.261173	-1.11304
O	0.513271	-0.766405	-1.75081
H	-0.440288	-1.53564	0.0739622
H	-0.304291	1.3141	0.391856
C	1.48097	0.447742	1.28238
H	2.07675	-0.486748	1.20613
H	2.13853	1.31452	1.06595
H	1.11738	0.54047	2.32907
N	1.38695	1.30484	-1.66202
C	1.86137	1.26705	-3.02572
H	1.5531	2.1294	-1.13139
H	2.37132	2.21925	-3.29122
H	1.01366	1.1146	-3.73242
H	2.58371	0.43084	-3.16756
C	3.92108	-2.49251	-0.0221898
C	4.91935	-1.63953	-0.705595
O	5.26205	-1.86539	-1.85797
H	3.60215	-3.30666	-0.708699
H	3.0316	-1.89039	0.258934
H	4.36445	-2.94466	0.889975
N	5.41748	-0.624206	0.00388251
C	6.42807	0.266159	-0.51043
C	7.24207	0.784348	0.660237
O	6.89046	0.565239	1.81785
H	5.15908	-0.477695	0.954472
H	7.1016	-0.289741	-1.15071
C	5.78777	1.43837	-1.28579
H	5.10476	2.01531	-0.62648
H	6.55624	2.12358	-1.69864
H	5.19066	1.03546	-2.13282
N	8.36159	1.48155	0.383491
C	9.20233	2.00908	1.4328
H	8.63192	1.64508	-0.559511
H	10.0739	2.55074	1.00352
H	9.58488	1.18702	2.08023
H	8.631	2.7173	2.07555
