44
  This energy is -5.6667 and Call times are: 3196
C	1.09385	-0.47538	3.26959
C	0.801713	0.39204	2.10624
O	0.793736	1.61075	2.21153
H	1.2661	0.158617	4.16639
H	2.00471	-1.08028	3.07678
H	0.235948	-1.15213	3.46734
N	0.548707	-0.228834	0.951733
C	0.205796	0.478793	-0.25667
C	-0.666717	-0.427782	-1.10425
O	-0.830404	-1.60794	-0.800705
H	0.518596	-1.22246	0.891162
H	-0.384433	1.35099	-0.00462628
C	1.47522	0.890141	-1.03422
H	2.07576	-0.00516543	-1.30222
H	1.22482	1.44794	-1.95979
H	2.10235	1.54647	-0.392122
N	-1.25756	0.109399	-2.18978
C	-2.10968	-0.675187	-3.05262
H	-1.1164	1.06731	-2.41682
H	-2.50032	-0.0548812	-3.88919
H	-2.97674	-1.08229	-2.48363
H	-1.54704	-1.53377	-3.48552
C	4.16935	-3.30163	0.722488
C	4.42822	-1.90319	1.13297
O	4.16111	-1.51509	2.26189
H	3.71007	-3.85435	1.57068
H	5.12072	-3.80038	0.441605
H	3.4715	-3.32405	-0.140985
N	4.96148	-1.10211	0.207612
C	5.23025	0.294338	0.444776
C	5.13531	1.02605	-0.880801
O	5.03016	0.405128	-1.93679
H	5.13538	-1.42183	-0.719423
H	4.46386	0.700543	1.09305
C	6.62841	0.488382	1.07146
H	7.41586	0.0812794	0.401962
H	6.84166	1.55841	1.27168
H	6.67771	-0.0620177	2.03633
N	5.16197	2.37313	-0.854736
C	5.07184	3.15453	-2.06613
H	5.24343	2.85783	0.00985039
H	5.11099	4.24215	-1.83637
H	4.11691	2.9432	-2.59972
H	5.9132	2.91088	-2.75453
