44
  This energy is -2.8366 and Call times are: 4076
C	-0.600223	1.50017	-3.08252
C	-1.00872	1.14345	-1.70519
O	-2.00394	1.63639	-1.1924
H	-1.31128	2.24903	-3.49419
H	-0.612233	0.598886	-3.73081
H	0.420158	1.93822	-3.07771
N	-0.233749	0.264744	-1.06513
C	-0.478556	-0.14711	0.294647
C	0.850718	-0.52363	0.921399
O	1.86872	-0.60656	0.236927
H	0.595952	-0.0966641	-1.48088
H	-0.874094	0.690303	0.855825
C	-1.45697	-1.34114	0.341777
H	-1.04688	-2.20409	-0.224963
H	-1.66433	-1.65877	1.3842
H	-2.41982	-1.04545	-0.129223
N	0.873239	-0.75349	2.24906
C	2.09353	-1.11206	2.93352
H	0.0400602	-0.677462	2.78675
H	1.90638	-1.25899	4.02008
H	2.85998	-0.312206	2.81493
H	2.51363	-2.05695	2.51898
C	6.14228	-3.3024	1.08165
C	5.78914	-1.88044	1.29258
O	5.11928	-1.53053	2.25449
H	5.69493	-3.91624	1.8934
H	7.24507	-3.42976	1.1009
H	5.74673	-3.65418	0.105508
N	6.23838	-1.01572	0.379988
C	5.9403	0.394076	0.426713
C	5.95146	0.927201	-0.993577
O	6.34613	0.228793	-1.92534
H	6.74781	-1.321	-0.419474
H	4.93978	0.534927	0.816266
C	6.97093	1.14737	1.29596
H	7.99632	1.01185	0.890667
H	6.74427	2.23185	1.35111
H	6.95104	0.735462	2.32856
N	5.5072	2.18368	-1.19332
C	5.47576	2.77375	-2.51128
H	5.18801	2.73189	-0.427385
H	5.07825	3.81171	-2.46807
H	4.8265	2.17792	-3.193
H	6.49873	2.80787	-2.95116
