44
  This energy is -3.0615 and Call times are: 3362
C	-1.58845	3.02124	0.679412
C	-1.27693	1.88545	-0.217283
O	-1.89021	1.7173	-1.26228
H	-2.42588	3.61121	0.247518
H	-0.701195	3.6804	0.784484
H	-1.89118	2.64694	1.68008
N	-0.300772	1.06598	0.180165
C	0.0863905	-0.106217	-0.564561
C	0.635974	-1.12767	0.413272
O	0.844311	-0.827182	1.58716
H	0.161464	1.19257	1.05319
H	-0.790754	-0.5416	-1.02683
C	1.14458	0.243946	-1.63361
H	2.04887	0.680912	-1.1589
H	1.44071	-0.647874	-2.22309
H	0.723591	0.99862	-2.33332
N	0.876904	-2.37005	-0.049836
C	1.39507	-3.40952	0.80876
H	0.698134	-2.59525	-1.00188
H	1.52489	-4.35844	0.243146
H	0.699878	-3.60016	1.65825
H	2.38307	-3.11463	1.23071
C	8.63388	1.80495	1.17508
C	7.34606	1.10597	1.38508
O	6.93636	0.858509	2.51083
H	9.10322	2.01417	2.16088
H	8.46563	2.76638	0.645851
H	9.32111	1.16961	0.577483
N	6.66977	0.764905	0.28567
C	5.4228	0.0425557	0.328554
C	5.30145	-0.767763	-0.94825
O	6.0974	-0.610432	-1.87205
H	7.03581	0.936737	-0.624465
H	5.44385	-0.657727	1.15426
C	4.22854	1.01149	0.470512
H	4.20036	1.72337	-0.381823
H	3.26354	0.466534	0.5186
H	4.34237	1.59951	1.40732
N	4.29978	-1.66588	-1.026
C	4.10919	-2.4859	-2.19964
H	3.66823	-1.78176	-0.266532
H	3.23423	-3.1604	-2.07027
H	5.0099	-3.11309	-2.39107
H	3.9331	-1.85127	-3.09818
