44
  This energy is -5.3097 and Call times are: 2877
C	-1.60168	-1.94956	2.39719
C	-0.669691	-1.789	1.25844
O	0.0834261	-2.69327	0.924501
H	-1.46503	-2.95819	2.84425
H	-2.65142	-1.84974	2.0496
H	-1.3946	-1.18187	3.17235
N	-0.699511	-0.612262	0.628538
C	0.177941	-0.291945	-0.469658
C	0.401229	1.20861	-0.474506
O	-0.254208	1.94524	0.26
H	-1.28903	0.128488	0.937769
H	1.14034	-0.760745	-0.306414
C	-0.428393	-0.7535	-1.813
H	-1.41088	-0.264768	-1.98592
H	0.244162	-0.524927	-2.66502
H	-0.590608	-1.85313	-1.7839
N	1.34489	1.69768	-1.30297
C	1.63097	3.11175	-1.37189
H	1.86778	1.08542	-1.88674
H	2.43756	3.31425	-2.11056
H	1.96087	3.49459	-0.378974
H	0.723979	3.68181	-1.67772
C	5.22742	2.91388	-1.84357
C	5.20223	1.44024	-1.70606
O	4.67462	0.734262	-2.55437
H	4.7001	3.20462	-2.77805
H	6.27588	3.27556	-1.89514
H	4.71526	3.38763	-0.979666
N	5.78057	0.936194	-0.613422
C	5.79794	-0.475151	-0.319551
C	5.85119	-0.643921	1.18719
O	6.03654	0.323437	1.9231
H	6.16983	1.5261	0.0882527
H	4.87318	-0.922706	-0.661787
C	7.01075	-1.16225	-0.984565
H	7.96011	-0.710513	-0.625824
H	7.02768	-2.25185	-0.77716
H	6.95529	-1.01918	-2.08583
N	5.68013	-1.88494	1.68379
C	5.70944	-2.14109	3.10495
H	5.52725	-2.65446	1.07261
H	5.54912	-3.22192	3.31314
H	4.91223	-1.56202	3.62496
H	6.69143	-1.84229	3.53803
