44
  This energy is -1.6804 and Call times are: 2697
C	0.766055	-0.62469	3.33701
C	0.0272615	0.108853	2.28475
O	-0.910785	0.842536	2.56437
H	0.314556	-0.399547	4.32763
H	1.83071	-0.309804	3.34738
H	0.706055	-1.71847	3.15497
N	0.440353	-0.0787112	1.02914
C	-0.206063	0.53287	-0.105175
C	-0.00518187	-0.370064	-1.30764
O	0.755079	-1.33469	-1.25086
H	1.17916	-0.71081	0.813542
H	-1.27143	0.591702	0.0796359
C	0.37433	1.93749	-0.379801
H	1.46533	1.87646	-0.579863
H	-0.124837	2.42451	-1.24245
H	0.223339	2.57856	0.516067
N	-0.694027	-0.0804333	-2.42908
C	-0.570976	-0.886596	-3.6212
H	-1.30754	0.701893	-2.45443
H	-1.21632	-0.487204	-4.43436
H	-0.875339	-1.93871	-3.41701
H	0.482904	-0.895973	-3.98229
C	4.61529	1.6119	-3.08437
C	4.25193	0.481408	-2.20056
O	3.43739	-0.360692	-2.55242
H	4.03162	1.54271	-4.02797
H	5.69791	1.57464	-3.32789
H	4.38147	2.57686	-2.58712
N	4.85759	0.439241	-1.01154
C	4.57545	-0.575488	-0.0270193
C	4.82831	0.0154769	1.34717
O	5.36165	1.11636	1.47087
H	5.48772	1.15449	-0.723089
H	3.52641	-0.839439	-0.0765891
C	5.4588	-1.82237	-0.251126
H	6.53505	-1.55406	-0.189901
H	5.2412	-2.61642	0.492277
H	5.26302	-2.23331	-1.26559
N	4.44057	-0.704375	2.41838
C	4.6353	-0.220181	3.76516
H	4.00695	-1.59126	2.29802
H	4.25054	-0.954652	4.5066
H	4.09929	0.744659	3.91702
H	5.71723	-0.0498522	3.96902
