44
  This energy is -2.4659 and Call times are: 4355
C	1.74659	-1.9775	-2.26972
C	1.25641	-0.664928	-1.7922
O	1.66953	0.379515	-2.27684
H	2.50545	-1.81847	-3.0664
H	0.906243	-2.57104	-2.68717
H	2.21537	-2.53816	-1.43366
N	0.350164	-0.69064	-0.812183
C	-0.188034	0.505986	-0.214698
C	-0.575174	0.186848	1.21702
O	-0.564186	-0.971497	1.62913
H	0.0540404	-1.54748	-0.399872
H	0.583204	1.26528	-0.178703
C	-1.41267	1.01504	-1.00613
H	-2.20836	0.24037	-1.03437
H	-1.82778	1.94387	-0.563998
H	-1.10789	1.23466	-2.05266
N	-0.920673	1.21593	2.01555
C	-1.29858	1.00916	3.39417
H	-0.919556	2.14668	1.66514
H	-1.547	1.9768	3.88322
H	-0.466932	0.532727	3.96219
H	-2.18898	0.343028	3.46198
C	7.11121	-0.311472	-3.09489
C	6.77371	-0.824447	-1.74801
O	7.00144	-1.98553	-1.43748
H	7.55161	-1.13278	-3.70099
H	7.8504	0.513236	-3.01615
H	6.19642	0.0596259	-3.60334
N	6.2112	0.0451687	-0.905542
C	5.78809	-0.317762	0.424048
C	4.63055	0.581959	0.814143
O	4.31701	1.54359	0.115091
H	5.99464	0.975791	-1.18643
H	5.41726	-1.33513	0.415679
C	6.94974	-0.173032	1.43145
H	7.32358	0.872919	1.4481
H	6.64032	-0.46285	2.45652
H	7.78847	-0.834129	1.1219
N	3.95933	0.282947	1.94378
C	2.84046	1.07912	2.39144
H	4.22534	-0.501621	2.49403
H	2.42244	0.672533	3.33863
H	2.0314	1.08535	1.6255
H	3.15453	2.13291	2.57041
