44
  This energy is -3.1573 and Call times are: 3751
C	0.102501	-2.62546	2.28235
C	0.256476	-2.081	0.914509
O	0.777405	-2.74051	0.0256345
H	0.536423	-3.64823	2.32156
H	-0.972755	-2.68063	2.55351
H	0.635155	-1.98086	3.01302
N	-0.199622	-0.842399	0.71397
C	-0.0818199	-0.162264	-0.55177
C	-0.0133728	1.3292	-0.282708
O	-0.223202	1.77631	0.843249
H	-0.584113	-0.302902	1.45759
H	0.849247	-0.447664	-1.02536
C	-1.27956	-0.492581	-1.46913
H	-2.23423	-0.190343	-0.988198
H	-1.1935	0.0142247	-2.45211
H	-1.31474	-1.58977	-1.64599
N	0.292491	2.13769	-1.31655
C	0.385674	3.56988	-1.15427
H	0.462974	1.75691	-2.21933
H	0.64729	4.05871	-2.11854
H	1.16861	3.83023	-0.405605
H	-0.583766	3.98921	-0.80003
C	3.5005	-0.771483	1.26422
C	4.93275	-0.44392	1.44454
O	5.38476	-0.166635	2.54691
H	2.98072	-0.697938	2.24415
H	3.39044	-1.80576	0.875752
H	3.03129	-0.0582513	0.554137
N	5.68981	-0.467082	0.345127
C	7.09138	-0.129324	0.354874
C	7.45383	0.42493	-1.01004
O	6.65579	0.371101	-1.94382
H	5.29917	-0.65461	-0.551583
H	7.26423	0.657298	1.07873
C	7.95484	-1.36695	0.683447
H	7.78575	-2.17035	-0.0648834
H	9.03528	-1.1168	0.707599
H	7.66704	-1.7604	1.6828
N	8.6723	0.981949	-1.15527
C	9.10278	1.54032	-2.41586
H	9.30266	1.0199	-0.386974
H	10.1334	1.95033	-2.33288
H	8.42263	2.36359	-2.73351
H	9.09804	0.76176	-3.2127
