44
  This energy is -3.9552 and Call times are: 3266
C	-3.09838	-0.68137	1.43124
C	-1.61888	-0.726967	1.4434
O	-1.00387	-1.05231	2.44954
H	-3.48269	-0.959474	2.43665
H	-3.49722	-1.39829	0.68312
H	-3.44764	0.343271	1.18382
N	-1.00551	-0.393586	0.30542
C	0.429695	-0.349131	0.175908
C	0.777327	0.679156	-0.883966
O	-0.0995774	1.18726	-1.58008
H	-1.51862	-0.0914663	-0.492895
H	0.862214	-0.00967855	1.10882
C	0.992066	-1.73502	-0.209166
H	0.556608	-2.07903	-1.17149
H	2.09762	-1.71712	-0.298378
H	0.718945	-2.47309	0.576339
N	2.07409	1.01739	-1.02549
C	2.49886	1.99099	-2.00419
H	2.76872	0.598407	-0.450148
H	3.60151	2.13206	-1.96567
H	2.01277	2.97555	-1.8154
H	2.22305	1.66125	-3.03198
C	6.91858	-3.4012	-0.168026
C	7.22979	-1.98679	-0.474226
O	8.31617	-1.66286	-0.933849
H	7.80317	-4.03148	-0.404883
H	6.05822	-3.74487	-0.779917
H	6.67452	-3.51476	0.90929
N	6.26626	-1.09852	-0.219294
C	6.43612	0.318341	-0.424711
C	5.54132	1.04942	0.558358
O	4.71646	0.437635	1.23441
H	5.40211	-1.37244	0.193089
H	7.45842	0.592454	-0.195832
C	6.08176	0.711853	-1.87551
H	5.02983	0.44041	-2.10744
H	6.22181	1.79832	-2.05014
H	6.74338	0.159121	-2.57771
N	5.69092	2.38429	0.666764
C	4.88747	3.16326	1.57991
H	6.36656	2.86107	0.114263
H	5.15996	4.24018	1.52302
H	5.03873	2.81841	2.62847
H	3.8052	3.06186	1.33587
