44
  This energy is -2.6017 and Call times are: 2476
C	2.51801	2.38857	-0.258923
C	1.09255	2.0039	-0.152954
O	0.2263	2.83894	0.067825
H	2.61644	3.48322	-0.0917493
H	2.90655	2.14301	-1.2696
H	3.11696	1.85273	0.507379
N	0.814586	0.707415	-0.308632
C	-0.520102	0.175258	-0.190402
C	-0.415823	-1.2629	0.281165
O	0.673687	-1.82998	0.336889
H	1.53507	0.0339268	-0.447124
H	-1.05818	0.726149	0.570926
C	-1.26529	0.249524	-1.54111
H	-0.719183	-0.324239	-2.31996
H	-2.29903	-0.144559	-1.45983
H	-1.32278	1.3099	-1.87072
N	-1.55454	-1.88678	0.641886
C	-1.55236	-3.25365	1.10861
H	-2.42603	-1.41006	0.593816
H	-2.58446	-3.58626	1.35636
H	-0.922495	-3.35585	2.0219
H	-1.14209	-3.93478	0.3283
C	4.88796	0.761704	3.24166
C	5.11866	-0.200353	2.14058
O	5.07189	-1.40728	2.33434
H	4.70248	0.203018	4.18469
H	4.00289	1.39381	3.0184
H	5.77977	1.40932	3.37711
N	5.3796	0.322808	0.940325
C	5.66763	-0.485722	-0.218066
C	6.56606	0.314718	-1.14203
O	6.78979	1.50457	-0.927758
H	5.45475	1.3069	0.80701
H	6.2211	-1.36457	0.0883822
C	4.36679	-0.891187	-0.945146
H	3.80381	0.0100324	-1.26903
H	4.57444	-1.52563	-1.83108
H	3.72141	-1.46884	-0.247901
N	7.11183	-0.326949	-2.19389
C	7.98394	0.351826	-3.12386
H	6.92228	-1.29094	-2.34839
H	8.33034	-0.345147	-3.91851
H	8.87901	0.757176	-2.59866
H	7.45416	1.20275	-3.61007
