44
  This energy is -2.7818 and Call times are: 2346
C	-2.21533	2.66602	-0.311991
C	-1.14831	1.93574	0.408636
O	-0.55709	2.44575	1.35031
H	-2.33264	3.67806	0.132864
H	-3.17863	2.12098	-0.224124
H	-1.94824	2.77366	-1.38445
N	-0.873113	0.704376	-0.0277092
C	0.167969	-0.112406	0.544633
C	0.683796	-1.04585	-0.53433
O	0.109481	-1.13433	-1.61787
H	-1.33474	0.318454	-0.82133
H	0.993651	0.52032	0.84553
C	-0.363375	-0.918993	1.74976
H	-1.20357	-1.5761	1.43941
H	0.432389	-1.54146	2.20782
H	-0.74287	-0.216079	2.52322
N	1.79259	-1.7623	-0.263593
C	2.35958	-2.67231	-1.23137
H	2.24563	-1.67408	0.617339
H	3.26795	-3.16638	-0.821524
H	2.64543	-2.12893	-2.16105
H	1.62393	-3.46267	-1.50579
C	3.89079	-1.26326	2.9444
C	4.42959	-0.150785	2.13
O	4.32363	1.01137	2.49687
H	3.40433	-0.850035	3.85459
H	4.71175	-1.94398	3.25326
H	3.13715	-1.83393	2.36179
N	5.02783	-0.488836	0.985352
C	5.56286	0.484929	0.0666106
C	5.50229	-0.100702	-1.33158
O	5.20652	-1.28104	-1.50772
H	5.07011	-1.436	0.680473
H	4.93427	1.36665	0.0745265
C	7.01637	0.852702	0.437127
H	7.66384	-0.0497933	0.418874
H	7.4349	1.61209	-0.254743
H	7.03781	1.27173	1.46683
N	5.77499	0.719572	-2.36541
C	5.73681	0.252274	-3.73155
H	6.00832	1.67262	-2.20314
H	5.99006	1.0751	-4.43586
H	4.72176	-0.128697	-3.98814
H	6.46537	-0.576654	-3.88394
