44
  This energy is -5.2919 and Call times are: 3053
C	1.46888	-2.27927	-2.18175
C	1.17628	-1.78317	-0.818144
O	1.42209	-2.46262	0.168936
H	1.89687	-3.30318	-2.1161
H	2.20388	-1.6139	-2.68155
H	0.536304	-2.3175	-2.78336
N	0.633061	-0.566589	-0.73311
C	0.253235	0.0330287	0.521781
C	-0.898686	0.98533	0.261484
O	-1.24054	1.26122	-0.886877
H	0.401058	-0.0424224	-1.54754
H	-0.109991	-0.737452	1.1904
C	1.4438	0.784187	1.15704
H	1.81007	1.58168	0.475939
H	1.16782	1.23866	2.13059
H	2.27772	0.0696505	1.33129
N	-1.53304	1.50625	1.33025
C	-2.64379	2.41721	1.18007
H	-1.24455	1.26789	2.25168
H	-3.02979	2.73394	2.17401
H	-3.47574	1.93307	0.619056
H	-2.33239	3.3275	0.61833
C	7.27951	1.77939	-2.54002
C	6.08042	1.15412	-1.93804
O	4.9634	1.36075	-2.39189
H	6.96957	2.42366	-3.39131
H	7.97179	0.996597	-2.91517
H	7.80315	2.40576	-1.78734
N	6.2898	0.363736	-0.882649
C	5.21826	-0.279985	-0.164335
C	5.66118	-0.471646	1.27395
O	6.8233	-0.25153	1.60969
H	7.20045	0.23781	-0.499605
H	4.35419	0.372586	-0.151525
C	4.86149	-1.63844	-0.806638
H	5.74481	-2.31208	-0.810473
H	4.0283	-2.13766	-0.270823
H	4.54794	-1.4749	-1.86081
N	4.73582	-0.88127	2.16386
C	5.06383	-1.08546	3.55558
H	3.79961	-1.05028	1.87402
H	4.1695	-1.42154	4.12519
H	5.43668	-0.140906	4.01393
H	5.85889	-1.85848	3.66271
