44
  This energy is -4.5404 and Call times are: 2541
C	1.06269	-3.27931	0.479084
C	0.227071	-2.11355	0.844997
O	-0.689864	-2.21905	1.64781
H	0.697906	-4.17779	1.02271
H	2.121	-3.09467	0.759495
H	0.997598	-3.46907	-0.61309
N	0.529923	-0.956639	0.25152
C	-0.219711	0.254669	0.473651
C	-0.116574	1.11039	-0.774814
O	0.65512	0.808624	-1.68319
H	1.25304	-0.895559	-0.430565
H	-1.26522	0.00780643	0.610048
C	0.320527	1.02052	1.70119
H	1.39025	1.28324	1.55726
H	-0.257322	1.9482	1.89098
H	0.242672	0.372576	2.60144
N	-0.904193	2.20113	-0.85208
C	-0.878616	3.07188	-2.00417
H	-1.52517	2.42664	-0.108703
H	-1.59686	3.91183	-1.87831
H	-1.15355	2.51092	-2.92667
H	0.139456	3.49984	-2.15088
C	6.48433	-3.10205	0.368643
C	6.18096	-1.88301	-0.414352
O	6.778	-1.63243	-1.45222
H	7.30033	-3.66679	-0.132411
H	5.58496	-3.75005	0.431699
H	6.81398	-2.82691	1.3927
N	5.23066	-1.08382	0.0761634
C	4.85535	0.159083	-0.550642
C	4.3468	1.09775	0.527253
O	4.15406	0.695494	1.67301
H	4.78228	-1.28034	0.943452
H	5.73297	0.61715	-0.989479
C	3.7698	-0.0705512	-1.62493
H	2.86524	-0.530794	-1.17328
H	3.48224	0.877185	-2.12456
H	4.16089	-0.766433	-2.39897
N	4.1245	2.38184	0.184185
C	3.6455	3.34871	1.14434
H	4.2902	2.68948	-0.746933
H	3.5259	4.34778	0.67022
H	4.36058	3.4469	1.99305
H	2.65939	3.03644	1.55813
