44
  This energy is -2.5601 and Call times are: 243336
C	-1.56168	-2.90241	-1.11796
C	-1.22689	-1.46705	-1.25507
O	-1.45993	-0.858811	-2.29051
H	-2.0056	-3.2685	-2.06917
H	-2.29719	-3.0473	-0.298948
H	-0.645087	-3.49	-0.899603
N	-0.660729	-0.885836	-0.194861
C	-0.239636	0.493016	-0.19231
C	0.921819	0.63107	0.773876
O	1.23989	-0.298408	1.51321
H	-0.439902	-1.40415	0.626389
H	0.126618	0.756498	-1.17672
C	-1.40093	1.42374	0.220477
H	-1.77006	1.16064	1.23465
H	-1.09311	2.48944	0.212868
H	-2.24253	1.30023	-0.495615
N	1.59135	1.80054	0.783723
C	2.71367	2.0216	1.66561
H	1.32167	2.53949	0.175206
H	3.12957	3.04349	1.52424
H	3.52297	1.28288	1.46414
H	2.40428	1.91295	2.73032
C	6.90416	0.937931	3.08743
C	6.84067	1.04566	1.61246
O	7.40253	1.95622	1.01951
H	7.49547	1.78765	3.49263
H	7.39501	-0.0137571	3.38086
H	5.8813	0.974185	3.51814
N	6.14034	0.102489	0.978143
C	5.95245	0.0979993	-0.451274
C	4.63342	-0.588153	-0.752789
O	4.00891	-1.16919	0.132704
H	5.65453	-0.609058	1.47769
H	5.87324	1.11862	-0.804362
C	7.11604	-0.630916	-1.15837
H	7.19109	-1.68114	-0.804206
H	6.98999	-0.62906	-2.26047
H	8.07188	-0.116542	-0.91728
N	4.17257	-0.528864	-2.01775
C	2.9239	-1.1478	-2.39711
H	4.69006	-0.0505898	-2.71955
H	2.71862	-0.988478	-3.47864
H	2.07862	-0.717226	-1.81282
H	2.95405	-2.24451	-2.20358
