44
  This energy is -3.2323 and Call times are: 244397
C	0.347473	-1.40136	3.16672
C	0.859119	-1.104	1.80991
O	2.03224	-1.29417	1.52003
H	1.18097	-1.77651	3.79951
H	-0.443154	-2.17921	3.11562
H	-0.0686605	-0.481417	3.62892
N	-0.0255324	-0.620054	0.934944
C	0.332287	-0.243096	-0.409834
C	-0.613232	0.854212	-0.860902
O	-1.5949	1.15678	-0.18526
H	-0.96763	-0.432191	1.19767
H	1.33227	0.172424	-0.410258
C	0.249119	-1.45528	-1.36321
H	-0.779198	-1.87545	-1.37117
H	0.535722	-1.18097	-2.39913
H	0.943115	-2.24873	-1.00943
N	-0.33223	1.48516	-2.01804
C	-1.17202	2.54581	-2.52395
H	0.468928	1.22906	-2.54873
H	-0.774336	2.93726	-3.48615
H	-1.22168	3.38829	-1.7966
H	-2.2091	2.17745	-2.69689
C	4.10685	-0.992654	-3.29126
C	4.78655	-1.13111	-1.98359
O	5.47084	-2.11199	-1.72659
H	4.3183	-1.89035	-3.91197
H	4.47978	-0.0921181	-3.82296
H	3.00941	-0.907295	-3.14496
N	4.60746	-0.134729	-1.11323
C	5.16951	-0.147075	0.214364
C	4.26514	0.669175	1.11847
O	3.34441	1.33688	0.651427
H	4.01441	0.637736	-1.32167
H	5.17192	-1.16203	0.591834
C	6.6006	0.433629	0.213009
H	6.59723	1.47848	-0.164245
H	7.0495	0.416799	1.22727
H	7.24272	-0.174329	-0.461093
N	4.50357	0.627121	2.44414
C	3.69167	1.36696	3.38203
H	5.25071	0.0778348	2.8035
H	4.04563	1.20271	4.42364
H	2.62686	1.04528	3.3189
H	3.73596	2.45869	3.16449
