44
  This energy is 0.1105 and Call times are: 244332
C	-2.68685	1.9831	-0.980231
C	-2.12397	0.722003	-0.44736
O	-2.8452	-0.135462	0.0435567
H	-3.78872	1.98473	-0.832719
H	-2.46943	2.07078	-2.06549
H	-2.25131	2.85295	-0.444736
N	-0.799098	0.580945	-0.532151
C	-0.102028	-0.57161	-0.0180783
C	1.29894	-0.141159	0.373787
O	1.71909	0.976847	0.0818019
H	-0.221168	1.30526	-0.897162
H	-0.596865	-0.916628	0.881216
C	-0.047137	-1.69879	-1.07245
H	0.469757	-1.34861	-1.99127
H	0.475077	-2.59698	-0.683761
H	-1.08303	-1.99233	-1.35014
N	2.05583	-1.02253	1.05667
C	3.39943	-0.69909	1.47657
H	1.69692	-1.92089	1.2873
H	3.85651	-1.55258	2.02416
H	3.39757	0.188608	2.14982
H	4.04033	-0.463425	0.596311
C	8.18897	1.54774	0.418943
C	7.057	1.10517	-0.425992
O	6.94498	1.48449	-1.58357
H	8.83309	2.24145	-0.16392
H	8.79596	0.673166	0.734284
H	7.81077	2.07846	1.31804
N	6.17685	0.279993	0.145693
C	5.00117	-0.201551	-0.535802
C	3.93057	-0.474952	0.503735
O	4.19422	-0.438016	1.70408
H	6.25932	0.012629	1.1015
H	4.62457	0.574637	-1.19027
C	5.31516	-1.48244	-1.33953
H	5.69159	-2.28247	-0.667005
H	4.42108	-1.85531	-1.88001
H	6.10648	-1.26094	-2.08859
N	2.68691	-0.749352	0.0632569
C	1.60257	-1.01712	0.97906
H	2.49207	-0.770664	-0.911761
H	0.660128	-1.21985	0.424145
H	1.4325	-0.145614	1.65199
H	1.83368	-1.90324	1.61351
