44
  This energy is -8.9477 and Call times are: 243419
C	1.11147	-2.42045	-2.24025
C	0.154947	-1.3696	-1.82561
O	-0.683743	-0.934736	-2.60272
H	0.929699	-2.68311	-3.30508
H	0.974985	-3.32948	-1.61753
H	2.15383	-2.05274	-2.13372
N	0.263853	-0.930097	-0.569684
C	-0.567471	0.119341	-0.0347642
C	0.214773	0.836018	1.04968
O	1.28922	0.391598	1.44939
H	0.978122	-1.26464	0.0384012
H	-0.775573	0.842271	-0.813671
C	-1.88243	-0.455368	0.536062
H	-1.66977	-1.18926	1.34242
H	-2.53735	0.344414	0.938492
H	-2.43441	-0.982055	-0.272804
N	-0.306231	1.97467	1.54773
C	0.369779	2.72785	2.57822
H	-1.1748	2.32065	1.20868
H	-0.217143	3.63159	2.85391
H	1.37551	3.0562	2.22899
H	0.507689	2.10666	3.49268
C	2.77992	3.02078	-0.822818
C	3.97789	2.1671	-0.65774
O	5.07079	2.52205	-1.07727
H	3.06113	3.94631	-1.37069
H	2.3702	3.30142	0.170217
H	2.00269	2.48122	-1.40408
N	3.79439	1.00123	-0.033673
C	4.85563	0.0454537	0.163354
C	4.24022	-1.34015	0.217521
O	3.02032	-1.48602	0.265224
H	2.89094	0.708082	0.265813
H	5.52122	0.069632	-0.690478
C	5.63255	0.344101	1.46429
H	4.95218	0.309028	2.34174
H	6.46118	-0.376738	1.62015
H	6.06742	1.36577	1.40573
N	5.0765	-2.39676	0.202781
C	4.58169	-3.75304	0.245775
H	6.06046	-2.25871	0.159798
H	5.4236	-4.47967	0.224759
H	3.92026	-3.9577	-0.627098
H	3.99139	-3.92683	1.17447
