44
  This energy is 0.1003 and Call times are: 245090
C	-3.31137	-0.682464	-0.82568
C	-1.88433	-1.06603	-0.738607
O	-1.52749	-2.22215	-0.918812
H	-3.92138	-1.58494	-1.04773
H	-3.45923	0.0599913	-1.63786
H	-3.65033	-0.247881	0.13834
N	-1.02299	-0.0868051	-0.452993
C	0.391797	-0.313338	-0.292897
C	0.932552	0.731017	0.665466
O	0.232184	1.67317	1.03091
H	-1.33317	0.84145	-0.268607
H	0.548951	-1.28249	0.163918
C	1.12102	-0.230495	-1.65179
H	0.968842	0.767216	-2.11596
H	2.20919	-0.416905	-1.54376
H	0.70379	-0.998085	-2.33959
N	2.19814	0.58185	1.10372
C	2.79604	1.52306	2.02177
H	2.74786	-0.189262	0.799972
H	3.84091	1.22758	2.26293
H	2.21614	1.5673	2.97205
H	2.8137	2.54573	1.58019
C	-0.183066	2.84128	1.40933
C	0.847835	1.77942	1.38008
O	1.84101	1.84164	2.09151
H	0.123431	3.63101	2.12922
H	-1.15798	2.41937	1.73225
H	-0.292704	3.29602	0.402222
N	0.631249	0.765016	0.539568
C	1.56473	-0.320306	0.368544
C	1.41402	-0.855816	-1.04287
O	0.492618	-0.47889	-1.76443
H	-0.161652	0.748856	-0.0628466
H	2.57461	0.0587892	0.463595
C	1.30638	-1.43826	1.40231
H	0.273916	-1.83478	1.29824
H	2.02761	-2.27355	1.28988
H	1.41419	-1.02199	2.42771
N	2.32769	-1.74755	-1.47418
C	2.26815	-2.30754	-2.80423
H	3.06841	-2.03729	-0.877133
H	3.10634	-3.01998	-2.96886
H	2.33574	-1.50338	-3.57237
H	1.30892	-2.85267	-2.95861
