44
  This energy is 0.1192 and Call times are: 244237
C	-2.75893	0.628893	-2.02619
C	-2.12278	-0.0101534	-0.852284
O	-2.7941	-0.555201	0.0129705
H	-3.86325	0.530539	-1.94443
H	-2.42224	0.133357	-2.96098
H	-2.49603	1.7071	-2.06426
N	-0.790118	0.0461678	-0.795501
C	-0.0319943	-0.492738	0.306039
C	1.25109	0.306695	0.433116
O	1.57109	1.12496	-0.426972
H	-0.259965	0.529011	-1.48664
H	-0.589542	-0.355965	1.22422
C	0.28177	-1.98805	0.0806012
H	0.862845	-2.12783	-0.855802
H	0.853321	-2.41812	0.928481
H	-0.671305	-2.5523	-0.0174927
N	2.01608	0.0924451	1.52166
C	3.25162	0.810775	1.73053
H	1.73844	-0.570804	2.20874
H	3.73436	0.494675	2.68146
H	3.06449	1.90794	1.7803
H	3.96351	0.619525	0.895199
C	5.31146	-2.97978	-1.41362
C	5.08118	-1.5185	-1.46642
O	5.56041	-0.834042	-2.35987
H	5.96227	-3.27997	-2.26344
H	4.34592	-3.52241	-1.49125
H	5.81382	-3.25387	-0.461996
N	4.33077	-1.00037	-0.491324
C	4.0547	0.410625	-0.38438
C	3.83749	0.740385	1.08042
O	3.74766	-0.152906	1.92046
H	3.98166	-1.56411	0.251764
H	4.92046	0.970154	-0.716044
C	2.81099	0.794014	-1.21591
H	1.92025	0.228008	-0.869104
H	2.59618	1.88048	-1.15286
H	2.98923	0.536596	-2.28283
N	3.75607	2.04113	1.42311
C	3.55578	2.45063	2.79365
H	3.83521	2.74971	0.729766
H	3.51642	3.55955	2.87102
H	4.38673	2.08359	3.43869
H	2.60106	2.03706	3.19192
