44
  This energy is 0.1044 and Call times are: 245347
C	3.12191	-1.40061	-0.636123
C	1.97325	-1.12824	0.256931
O	1.85681	-1.70163	1.33121
H	3.7732	-2.17265	-0.171745
H	3.71532	-0.474827	-0.789561
H	2.76298	-1.77626	-1.61752
N	1.0834	-0.232618	-0.177117
C	-0.10805	0.105328	0.560986
C	-1.1731	0.534066	-0.430678
O	-0.896693	0.707258	-1.61614
H	1.17042	0.195488	-1.07211
H	-0.476412	-0.777564	1.06837
C	0.173399	1.23521	1.57557
H	0.541313	2.14468	1.05447
H	-0.733018	1.49499	2.15991
H	0.961192	0.902486	2.28623
N	-2.42615	0.707975	0.0337172
C	-3.50608	1.10979	-0.837186
H	-2.63118	0.559056	0.995412
H	-4.45776	1.19867	-0.268296
H	-3.65274	0.363307	-1.65114
H	-3.28548	2.09508	-1.30801
C	6.8346	1.54297	-1.40643
C	6.21299	0.544693	-0.507421
O	6.87815	-0.341807	0.0103606
H	7.91864	1.31939	-1.50988
H	6.71672	2.56337	-0.984969
H	6.36161	1.50093	-2.41021
N	4.89975	0.668171	-0.301184
C	4.14732	-0.252667	0.513966
C	2.72128	-0.285285	-0.00265424
O	2.34073	0.517816	-0.852312
H	4.36457	1.37031	-0.762099
H	4.55555	-1.24883	0.397254
C	4.17597	0.173903	1.99804
H	3.74759	1.19161	2.11971
H	3.61161	-0.534915	2.63803
H	5.22957	0.198588	2.35252
N	1.89688	-1.22733	0.496286
C	0.524342	-1.33835	0.0604134
H	2.22424	-1.87092	1.18017
H	0.0109931	-2.17324	0.586402
H	0.474725	-1.53151	-1.03572
H	-0.0321942	-0.396396	0.270504
