44
  This energy is -0.6289 and Call times are: 243169
C	0.753839	-2.82215	1.89206
C	-0.186291	-1.77705	1.42831
O	-1.3853	-1.85762	1.65698
H	0.185999	-3.61903	2.41971
H	1.49601	-2.38554	2.59299
H	1.28368	-3.27186	1.02596
N	0.347037	-0.756603	0.752566
C	-0.445519	0.313992	0.200987
C	0.275528	0.856354	-1.01864
O	1.42072	0.496703	-1.28492
H	1.31928	-0.725687	0.538888
H	-1.39569	-0.0817136	-0.135488
C	-0.663293	1.43269	1.24326
H	0.310872	1.84621	1.58095
H	-1.28387	2.25654	0.834994
H	-1.18517	1.01147	2.13014
N	-0.386611	1.73454	-1.79735
C	0.217148	2.29965	-2.98154
H	-1.31415	2.01034	-1.56782
H	-0.48565	2.99894	-3.48581
H	0.49139	1.49694	-3.70385
H	1.14362	2.86074	-2.72083
C	5.02529	3.03713	1.68467
C	5.50839	1.64256	1.57097
O	6.36216	1.20457	2.32969
H	5.56685	3.54723	2.51071
H	3.93758	3.04839	1.90717
H	5.21445	3.58601	0.738082
N	4.96436	0.903219	0.601534
C	5.36323	-0.457299	0.339899
C	5.13528	-0.742151	-1.13267
O	4.53277	0.0600611	-1.84341
H	4.3002	1.28616	-0.0341509
H	6.42461	-0.560836	0.527948
C	4.55955	-1.44549	1.2133
H	3.47131	-1.34703	1.01309
H	4.86723	-2.49557	1.03109
H	4.73515	-1.21338	2.28644
N	5.62287	-1.89621	-1.62909
C	5.45901	-2.24985	-3.01986
H	6.11122	-2.53077	-1.03924
H	5.92898	-3.23519	-3.2331
H	5.93287	-1.48582	-3.67789
H	4.37874	-2.31168	-3.28506
