44
  This energy is 0.1599 and Call times are: 245450
C	-1.50734	3.09767	-0.495049
C	-0.921388	1.83725	-1.00411
O	-1.03486	1.51557	-2.17887
H	-2.03281	3.61958	-1.32413
H	-0.707617	3.76047	-0.102789
H	-2.23735	2.88126	0.313248
N	-0.27256	1.08254	-0.114272
C	0.3134	-0.191172	-0.45023
C	0.31409	-1.05514	0.796809
O	0.0171235	-0.580971	1.89165
H	-0.223832	1.33782	0.847146
H	-0.307472	-0.687103	-1.1859
C	1.7508	-0.0129717	-0.986298
H	2.39085	0.486271	-0.227923
H	2.20788	-0.985508	-1.26156
H	1.72705	0.628886	-1.89393
N	0.642189	-2.35469	0.656959
C	0.664704	-3.25442	1.78663
H	0.875526	-2.72093	-0.237746
H	0.957824	-4.2789	1.46765
H	-0.340221	-3.3102	2.26443
H	1.39271	-2.90406	2.55371
C	7.33284	0.490103	0.296887
C	6.09985	-0.2862	0.558089
O	6.15014	-1.41704	1.02187
H	8.21837	-0.1247	0.568387
H	7.33801	1.41718	0.907828
H	7.39657	0.75646	-0.779247
N	4.94577	0.31437	0.258388
C	3.6659	-0.33015	0.416741
C	2.71039	0.258459	-0.6041
O	3.02801	1.2418	-1.27033
H	4.92278	1.21937	-0.156701
H	3.76701	-1.38489	0.193315
C	3.12046	-0.129534	1.84765
H	3.00658	0.952142	2.0736
H	2.14175	-0.632937	1.98632
H	3.83932	-0.560622	2.57822
N	1.51241	-0.339484	-0.756783
C	0.540551	0.147005	-1.70809
H	1.27514	-1.13662	-0.211484
H	-0.379431	-0.477756	-1.68482
H	0.955638	0.121221	-2.74169
H	0.256194	1.19896	-1.47641
