44
  This energy is -4.6806 and Call times are: 244129
C	1.78638	-1.61596	2.51201
C	0.690805	-0.732099	2.05414
O	-0.198935	-0.380055	2.81627
H	1.62638	-1.87559	3.58106
H	2.76344	-1.09853	2.4102
H	1.79935	-2.551	1.91317
N	0.731578	-0.350027	0.775573
C	-0.286916	0.474206	0.174017
C	-0.350646	0.14322	-1.30515
O	0.496358	-0.580194	-1.8257
H	1.43985	-0.678012	0.156992
H	-1.2491	0.222849	0.602554
C	0.0230591	1.97303	0.380635
H	1.00528	2.23368	-0.0680656
H	-0.761164	2.61797	-0.0660891
H	0.0728613	2.19073	1.46989
N	-1.36911	0.662387	-2.01875
C	-1.51454	0.397755	-3.43119
H	-2.047	1.24219	-1.57901
H	-2.41279	0.912907	-3.83737
H	-1.62354	-0.695377	-3.61682
H	-0.621103	0.755789	-3.9922
C	5.75218	-2.09538	2.62835
C	5.7764	-1.7143	1.19819
O	6.54338	-2.25339	0.412363
H	6.51686	-2.8811	2.81208
H	4.75302	-2.49557	2.90089
H	5.98286	-1.21399	3.26318
N	4.9233	-0.757809	0.824372
C	4.86034	-0.250926	-0.523835
C	4.38272	1.18788	-0.466373
O	3.96873	1.67251	0.585029
H	4.3339	-0.29978	1.48367
H	5.856	-0.24353	-0.949548
C	3.90738	-1.10362	-1.38987
H	2.88333	-1.10293	-0.959328
H	3.86097	-0.731691	-2.43392
H	4.27178	-2.1539	-1.41123
N	4.43768	1.91078	-1.60233
C	4.00981	3.28973	-1.6422
H	4.77959	1.50239	-2.44221
H	4.13272	3.71023	-2.66461
H	4.6091	3.90755	-0.934788
H	2.93733	3.377	-1.35357
