44
  This energy is 0.1024 and Call times are: 244999
C	-1.43094	0.827306	3.06278
C	-1.35958	0.929094	1.58776
O	-2.25365	1.46331	0.946144
H	-2.38365	1.27807	3.41639
H	-0.581771	1.37273	3.52556
H	-1.39982	-0.237945	3.37482
N	-0.275768	0.407238	1.00864
C	-0.0847558	0.391975	-0.420293
C	0.777561	-0.806385	-0.769433
O	1.3198	-1.47029	0.111996
H	0.42403	-0.0606977	1.54079
H	-1.04201	0.253368	-0.907197
C	0.583483	1.69853	-0.901547
H	1.5703	1.83587	-0.410251
H	0.723366	1.70482	-2.00196
H	-0.0609343	2.56253	-0.628442
N	0.917776	-1.11723	-2.07318
C	1.71473	-2.24357	-2.50024
H	0.467908	-0.570571	-2.77165
H	1.7059	-2.33378	-3.60884
H	1.31877	-3.19118	-2.06834
H	2.7711	-2.12683	-2.16616
C	6.68497	-1.12558	-1.15275
C	5.7227	-0.850287	-0.0621431
O	5.91684	-1.26372	1.07267
H	7.52189	-1.74129	-0.757383
H	7.09563	-0.173633	-1.55011
H	6.18488	-1.683	-1.97266
N	4.64383	-0.135072	-0.389107
C	3.59835	0.176416	0.553488
C	2.29905	0.329166	-0.214678
O	2.293	0.350436	-1.44399
H	4.47943	0.159547	-1.32614
H	3.47362	-0.65482	1.23621
C	3.92358	1.47108	1.33021
H	4.04123	2.32629	0.631059
H	3.13262	1.71413	2.06901
H	4.88203	1.33931	1.87825
N	1.15975	0.431244	0.497774
C	-0.124752	0.574189	-0.14704
H	1.18443	0.407859	1.49172
H	-0.938537	0.642016	0.6082
H	-0.331792	-0.298556	-0.807897
H	-0.149796	1.49514	-0.773425
