44
  This energy is 0.2812 and Call times are: 244362
C	0.380315	-3.13136	1.47059
C	-0.421182	-1.9264	1.15942
O	-1.62538	-1.89482	1.37229
H	-0.287288	-3.92141	1.87803
H	1.15559	-2.89023	2.22792
H	0.869484	-3.51383	0.549984
N	0.241285	-0.891562	0.637291
C	-0.40905	0.333271	0.243069
C	0.393554	0.952953	-0.88537
O	1.4931	0.500529	-1.19845
H	1.2142	-0.946985	0.4318
H	-1.39282	0.105532	-0.148037
C	-0.512772	1.31093	1.43414
H	0.496894	1.55314	1.82905
H	-1.02413	2.25245	1.14679
H	-1.09714	0.833656	2.25089
N	-0.14575	2.00532	-1.53167
C	0.542425	2.65633	-2.62198
H	-1.03841	2.35456	-1.2666
H	-0.0634649	3.49887	-3.02229
H	0.733511	1.93712	-3.45114
H	1.52358	3.06016	-2.28227
C	5.24865	1.82293	-2.94966
C	4.81364	0.62538	-2.19613
O	4.07572	-0.208106	-2.70327
H	4.78917	1.80693	-3.96183
H	6.35376	1.8272	-3.05667
H	4.92494	2.74515	-2.4226
N	5.26789	0.513619	-0.945714
C	4.89733	-0.573711	-0.0745367
C	4.95898	-0.0749747	1.35691
O	5.43831	1.02626	1.62004
H	5.83474	1.2209	-0.533044
H	3.8713	-0.857079	-0.273481
C	5.84004	-1.78162	-0.268159
H	6.89147	-1.49411	-0.0539571
H	5.55657	-2.63052	0.387229
H	5.78469	-2.12475	-1.32435
N	4.46374	-0.87668	2.32025
C	4.47447	-0.483812	3.71011
H	4.07624	-1.76248	2.08728
H	4.02361	-1.27692	4.34646
H	3.89399	0.455703	3.8572
H	5.51686	-0.303886	4.05967
