44
  This energy is 0.1098 and Call times are: 244006
C	2.90464	0.945108	-1.66809
C	1.96721	-0.0837876	-1.16437
O	2.06463	-1.25289	-1.51094
H	3.62572	0.472826	-2.37014
H	3.46767	1.39595	-0.824014
H	2.34695	1.7401	-2.20667
N	1.02067	0.337143	-0.322191
C	0.0106106	-0.538345	0.218051
C	-1.22841	0.288939	0.504401
O	-1.19793	1.51574	0.42858
H	0.928985	1.29918	-0.0814705
H	-0.259101	-1.27567	-0.527766
C	0.510381	-1.22863	1.50606
H	0.77724	-0.472889	2.27527
H	-0.25333	-1.91602	1.92411
H	1.42194	-1.82176	1.27454
N	-2.35718	-0.369154	0.834254
C	-3.58644	0.333913	1.1185
H	-2.36324	-1.36229	0.886455
H	-4.40013	-0.382008	1.36868
H	-3.90758	0.935543	0.237487
H	-3.45235	1.02758	1.97989
C	5.38591	-3.25711	0.81758
C	5.82509	-2.23222	-0.156012
O	6.20143	-2.54443	-1.27731
H	5.48268	-4.26501	0.358642
H	4.3244	-3.08975	1.09675
H	6.01869	-3.21505	1.72911
N	5.78798	-0.96413	0.25986
C	6.22459	0.139288	-0.558916
C	6.71784	1.2426	0.358139
O	6.54975	1.17301	1.57412
H	5.51808	-0.72919	1.18927
H	7.06475	-0.176116	-1.16496
C	5.07424	0.652006	-1.45281
H	4.21614	0.985537	-0.831147
H	5.40167	1.49275	-2.09815
H	4.72381	-0.173896	-2.10964
N	7.35013	2.28972	-0.207339
C	7.85876	3.38401	0.586378
H	7.48025	2.32619	-1.19264
H	8.34543	4.14643	-0.0609998
H	8.61032	3.01866	1.32323
H	7.03409	3.87724	1.15009
