44
  This energy is 0.1521 and Call times are: 244922
C	-3.31381	-1.00391	0.351455
C	-2.23001	-0.324229	-0.393226
O	-2.39102	0.0458583	-1.54801
H	-4.20271	-1.10878	-0.307889
H	-3.59695	-0.407696	1.24427
H	-2.98276	-2.01431	0.671745
N	-1.08129	-0.144577	0.262947
C	0.0775555	0.462299	-0.343131
C	1.31396	-0.100721	0.332057
O	1.21833	-0.802262	1.33725
H	-0.951921	-0.487923	1.18882
H	0.12357	0.180016	-1.38756
C	0.0343613	1.99937	-0.198962
H	-0.00220808	2.28976	0.872659
H	0.91448	2.47934	-0.673874
H	-0.882397	2.38872	-0.693237
N	2.51137	0.189085	-0.214048
C	3.74219	-0.307047	0.356144
H	2.56824	0.754986	-1.02989
H	4.6177	0.0396704	-0.235881
H	3.74758	-1.42107	0.370143
H	3.86278	0.0519594	1.40386
C	8.29446	-1.92177	-2.10753
C	7.33762	-1.78404	-0.986528
O	6.78396	-2.76189	-0.503113
H	8.37362	-2.99318	-2.39331
H	9.29732	-1.55633	-1.80177
H	7.94143	-1.34079	-2.98554
N	7.11733	-0.544132	-0.543262
C	6.18129	-0.246969	0.512238
C	5.653	1.15835	0.294144
O	6.14985	1.89282	-0.557561
H	7.54441	0.245798	-0.97392
H	5.33815	-0.922922	0.442763
C	6.85585	-0.363075	1.8967
H	7.71443	0.337757	1.97227
H	6.14178	-0.150112	2.71845
H	7.24186	-1.3971	2.0313
N	4.62015	1.56377	1.05891
C	4.04762	2.88237	0.91861
H	4.22888	0.953716	1.73995
H	3.20897	3.02524	1.63518
H	3.65614	3.03281	-0.113567
H	4.81417	3.66662	1.11481
