44
  This energy is 0.1086 and Call times are: 244101
C	0.2009	1.03336	-3.3173
C	0.676453	1.05139	-1.91564
O	1.74146	1.57285	-1.6152
H	0.954869	1.52818	-3.96735
H	-0.761322	1.5808	-3.40204
H	0.0618864	-0.0134329	-3.66081
N	-0.116204	0.469644	-1.01251
C	0.231643	0.370218	0.383085
C	-0.43664	-0.868134	0.950039
O	-1.26208	-1.4964	0.290011
H	-0.960595	0.0134507	-1.27851
H	1.30147	0.230364	0.475503
C	-0.218536	1.6299	1.15496
H	-1.31746	1.76794	1.06922
H	0.0559719	1.57153	2.22816
H	0.276534	2.52452	0.718017
N	-0.0862925	-1.2543	2.19268
C	-0.66546	-2.42335	2.81241
H	0.586489	-0.735387	2.70957
H	-0.249225	-2.57453	3.83276
H	-0.451897	-3.33472	2.20821
H	-1.77116	-2.31641	2.89687
C	4.17026	0.985348	-2.57023
C	4.83851	-0.0568848	-1.75884
O	4.50527	-1.23123	-1.83803
H	3.37211	0.516163	-3.18558
H	4.90406	1.47387	-3.24523
H	3.71119	1.74974	-1.90839
N	5.81204	0.358078	-0.944942
C	6.52473	-0.532016	-0.0626903
C	6.98791	0.266227	1.1414
O	6.88265	1.49103	1.16341
H	6.04422	1.32294	-0.861335
H	5.84706	-1.29579	0.297914
C	7.73053	-1.17416	-0.783057
H	8.43135	-0.391449	-1.14397
H	8.27937	-1.87233	-0.11833
H	7.36886	-1.74647	-1.66509
N	7.50737	-0.415488	2.18133
C	7.96951	0.258856	3.37206
H	7.58056	-1.40671	2.1466
H	8.36124	-0.473593	4.11186
H	7.13872	0.828057	3.8486
H	8.7838	0.978075	3.12549
