44
  This energy is 0.1866 and Call times are: 245062
C	1.95469	1.16526	-2.63326
C	1.79767	0.47968	-1.33077
O	2.72129	-0.146653	-0.829727
H	2.98118	0.986642	-3.02094
H	1.8017	2.25818	-2.51136
H	1.21998	0.768762	-3.36544
N	0.602095	0.583521	-0.745805
C	0.284537	-0.0644018	0.502359
C	-1.20514	-0.350889	0.520964
O	-1.94517	0.105681	-0.348292
H	-0.152301	1.06249	-1.18551
H	0.796878	-1.01719	0.55074
C	0.679978	0.824651	1.70171
H	0.146618	1.79814	1.65824
H	0.453185	0.33091	2.66883
H	1.77247	1.02798	1.66337
N	-1.68033	-1.12653	1.51525
C	-3.08302	-1.45732	1.61131
H	-1.06532	-1.49008	2.20709
H	-3.27487	-2.1041	2.49567
H	-3.42176	-2.00073	0.699592
H	-3.69857	-0.534187	1.71167
C	6.15029	0.311898	1.44607
C	5.22103	-0.290649	0.463952
O	5.63364	-0.98676	-0.453432
H	7.19418	0.0365038	1.18089
H	5.92698	-0.0658989	2.46595
H	6.05618	1.41826	1.4331
N	3.92328	-0.0293935	0.63712
C	2.90335	-0.50961	-0.261592
C	1.74697	0.471975	-0.232492
O	1.71392	1.38191	0.593727
H	3.60639	0.572478	1.36457
H	3.29307	-0.519084	-1.27187
C	2.4266	-1.92029	0.148216
H	2.017	-1.90895	1.18076
H	1.65101	-2.30684	-0.544285
H	3.29047	-2.62002	0.12758
N	0.76926	0.313641	-1.14629
C	-0.367808	1.20276	-1.19847
H	0.815681	-0.42616	-1.80933
H	-1.06006	0.908225	-2.01779
H	-0.0382523	2.25174	-1.37823
H	-0.93082	1.17766	-0.237469
