44
  This energy is -2.6931 and Call times are: 244644
C	-0.229803	2.71145	-2.16977
C	-0.606011	2.00181	-0.92638
O	-1.24421	2.56227	-0.0460362
H	-0.599573	3.75873	-2.12119
H	-0.685293	2.20996	-3.04941
H	0.874742	2.72525	-2.28328
N	-0.209514	0.731011	-0.825207
C	-0.462995	-0.0754618	0.342658
C	0.642667	-1.10834	0.45327
O	1.45565	-1.26052	-0.456465
H	0.344524	0.301097	-1.53237
H	-0.410862	0.54873	1.226
C	-1.84132	-0.765743	0.247876
H	-1.8916	-1.41444	-0.652514
H	-2.05419	-1.37873	1.14757
H	-2.63432	0.00867396	0.159688
N	0.703315	-1.84086	1.58276
C	1.72415	-2.84354	1.77952
H	0.0390384	-1.70041	2.30946
H	1.60561	-3.33642	2.76959
H	2.73864	-2.38513	1.73545
H	1.6642	-3.62595	0.988708
C	6.7399	-1.90629	2.40615
C	6.01707	-0.686877	1.97987
O	5.62315	0.133709	2.7971
H	6.81868	-1.9178	3.51498
H	7.76222	-1.91623	1.9731
H	6.18981	-2.81246	2.07554
N	5.82215	-0.540907	0.667204
C	5.09817	0.571499	0.104207
C	4.46236	0.113277	-1.19477
O	4.7411	-0.981225	-1.68065
H	6.11269	-1.23759	0.0175385
H	4.29554	0.851592	0.774993
C	6.0379	1.77119	-0.146567
H	6.85552	1.48732	-0.842967
H	5.48961	2.63895	-0.567139
H	6.49798	2.08446	0.815994
N	3.58042	0.943078	-1.78607
C	2.92132	0.589628	-3.02172
H	3.36465	1.82287	-1.37559
H	2.2341	1.40148	-3.34707
H	2.32634	-0.343959	-2.89643
H	3.66815	0.417154	-3.8302
