29
  This energy is -0.00327462 and Call times are: 518
C	0.391268	0.8297	-0.806605
N	0.686714	2.02525	-1.50204
H	0.387438	2.93379	-1.11942
H	1.2018	2.00089	-2.39435
N	-0.28926	0.881224	0.369451
C	-0.585615	-0.252842	1.05713
O	-1.19621	-0.181525	2.10856
N	-0.197096	-1.47558	0.56685
C	0.484628	-1.56306	-0.605834
H	-0.424701	-2.34817	1.09526
C	0.794112	-0.406713	-1.31975
H	0.787695	-2.53036	-0.986247
H	1.337	-0.471312	-2.25437
C	7.2626	-0.90461	-0.606517
O	7.62694	-1.84521	-1.04748
N	7.992	0.231368	-0.658349
C	7.51618	1.40087	-0.166979
H	8.89079	0.208796	-1.11488
N	8.24371	2.59559	-0.369119
H	9.30485	2.40424	-0.311512
H	7.96971	3.32071	0.383441
N	6.31714	1.47985	0.450585
C	5.57649	0.362986	0.547825
C	6.0158	-0.8349	0.00729751
N	5.03631	-1.74472	0.165443
C	3.99854	-1.14763	0.787812
N	4.33583	0.138523	1.01293
H	3.06767	-1.62543	1.07258
H	3.7496	0.828035	1.45716
