29
  This energy is -0.00229201 and Call times are: 429
C	1.08133	-0.423169	0.379166
N	2.44344	-0.571133	0.729907
H	3.096	0.217721	0.614605
H	2.7963	-1.46483	1.10264
N	0.633636	0.763471	-0.111079
C	-0.670186	0.931534	-0.455521
O	-1.04783	2.00382	-0.892544
N	-1.55877	-0.105712	-0.310755
C	-1.14468	-1.30526	0.176289
H	-2.56168	0.0228876	-0.575472
C	0.190103	-1.4892	0.532824
H	-1.85075	-2.11844	0.287686
H	0.524716	-2.44292	0.92125
C	6.09272	-1.12822	0.803659
O	6.11732	-2.18747	1.10252
N	5.90227	-0.141589	1.70667
C	5.93104	1.1638	1.34514
H	5.78146	-0.390027	2.67643
N	5.87395	2.16888	2.33715
H	5.21612	1.86897	3.13919
H	5.51165	3.08933	1.90272
N	6.09237	1.54428	0.0588517
C	6.25445	0.588895	-0.871943
C	6.28198	-0.751699	-0.522443
N	6.55545	-1.46352	-1.63182
C	6.70056	-0.604673	-2.66243
N	6.51944	0.644706	-2.18823
H	6.9067	-0.875909	-3.69192
H	6.57697	1.49128	-2.73268
