29
  This energy is -0.0121551 and Call times are: 853
C	-0.743354	0.932888	0.263153
N	-1.38051	2.19351	0.334733
H	-1.01768	2.98832	-0.211205
H	-2.21023	2.33018	0.930563
N	0.350317	0.771199	-0.528442
C	0.980748	-0.429607	-0.614796
O	1.9587	-0.550168	-1.33067
N	0.51544	-1.50369	0.103716
C	-0.575373	-1.37677	0.90472
H	0.999841	-2.42751	0.0377436
C	-1.23001	-0.150087	1.00115
H	-0.936548	-2.22779	1.46822
H	-2.09934	-0.0440668	1.63789
C	8.64867	0.372071	0.687304
O	9.47073	1.00525	1.05505
N	8.45019	-0.877321	1.16141
C	7.40315	-1.63229	0.74994
H	9.07432	-1.23064	1.8702
N	7.14439	-2.87393	1.37356
H	8.07052	-3.36832	1.62619
H	6.57279	-3.50396	0.707563
N	6.53999	-1.20004	-0.195278
C	6.72392	0.0265437	-0.712067
C	7.75527	0.840228	-0.27124
N	7.63455	2.03178	-0.885922
C	6.55654	1.98436	-1.69615
N	6.00546	0.759027	-1.57996
H	6.20937	2.78488	-2.34001
H	5.18075	0.440021	-2.06423
