29
  This energy is 9.06821e-05 and Call times are: 1756
C	-0.367814	0.617363	0.987765
N	-1.06469	1.43949	1.90359
H	-1.91996	1.93263	1.60905
H	-0.726464	1.5537	2.87038
N	-0.828965	0.478519	-0.283826
C	-0.177938	-0.305371	-1.183
O	-0.610193	-0.414267	-2.31645
N	0.964302	-0.972571	-0.813472
C	1.45269	-0.855917	0.449644
H	1.46548	-1.57563	-1.50454
C	0.793411	-0.0547817	1.38031
H	2.35364	-1.3848	0.733879
H	1.1786	0.041284	2.38769
C	18.0005	0.395712	0.286914
O	18.8678	1.05699	0.437022
N	18.051	-0.919274	0.592557
C	16.9647	-1.7183	0.462113
H	18.9076	-1.29618	0.96788
N	17.0134	-3.05173	0.928081
H	17.991	-3.47578	0.753562
H	16.2698	-3.64427	0.4151
N	15.7956	-1.25726	-0.0337728
C	15.7171	0.0393779	-0.377271
C	16.7966	0.890756	-0.204771
N	16.4009	2.134	-0.536348
C	15.1051	2.08194	-0.909183
N	14.6959	0.801232	-0.804702
H	14.5076	2.91997	-1.25057
H	13.7681	0.46478	-1.0106
