29
  This energy is -0.0028735 and Call times are: 298
C	-0.784824	-0.121656	0.928092
N	-1.81353	-0.547885	1.80008
H	-2.39586	-1.36151	1.5545
H	-1.99097	-0.0519656	2.68592
N	-0.565166	-0.788278	-0.236489
C	0.416759	-0.399024	-1.09156
O	0.594633	-1.0119	-2.12893
N	1.20585	0.682736	-0.785692
C	1.01329	1.37161	0.370147
H	1.96122	0.982627	-1.44289
C	0.00927989	0.981541	1.25469
H	1.63915	2.22337	0.604689
H	-0.147946	1.52714	2.17666
C	5.38878	1.2573	0.0528055
O	5.86205	2.1574	0.474432
N	5.28902	1.06815	-1.28114
C	4.75921	-0.0669851	-1.79723
H	5.66063	1.77318	-1.89888
N	4.80456	-0.292591	-3.1917
H	4.663	0.634111	-3.72756
H	4.02936	-0.990477	-3.47321
N	4.2514	-1.03966	-1.00896
C	4.30571	-0.872525	0.323153
C	4.88981	0.254635	0.878529
N	4.89057	0.104405	2.2163
C	4.32491	-1.08487	2.51039
N	3.97548	-1.67502	1.34925
H	4.16364	-1.48341	3.50592
H	3.53802	-2.57903	1.26078
