29
  This energy is -0.00180311 and Call times are: 2625
C	0.393126	0.069904	-1.15441
N	0.867678	-0.216909	-2.45549
H	1.04895	-1.19124	-2.73697
H	1.03647	0.541457	-3.13263
N	0.176109	-0.943633	-0.274341
C	-0.27955	-0.694824	0.981568
O	-0.466448	-1.6192	1.75229
N	-0.528312	0.595961	1.37957
C	-0.32211	1.63269	0.525018
H	-0.878778	0.788004	2.34535
C	0.14501	1.38954	-0.76544
H	-0.520363	2.64763	0.845655
H	0.310799	2.21211	-1.44978
C	4.45321	0.0534463	-1.38053
O	4.1798	-0.255599	-2.40115
N	4.90694	1.29789	-1.11476
C	5.18683	1.69387	0.150324
H	4.99341	1.95405	-1.8755
N	5.51857	3.04358	0.406772
H	6.10774	3.44667	-0.403384
H	6.08116	3.11199	1.32658
N	5.08352	0.850754	1.20095
C	4.66408	-0.404801	0.970606
C	4.32063	-0.820435	-0.305871
N	3.8472	-2.07761	-0.218873
C	3.88445	-2.45678	1.07561
N	4.38003	-1.42846	1.79364
H	3.58642	-3.42458	1.46349
H	4.51425	-1.42348	2.79284
