29
  This energy is -0.00664542 and Call times are: 2558
C	0.483841	0.161116	-1.10997
N	1.1473	-0.00446556	-2.34798
H	1.58571	-0.90657	-2.58341
H	1.19925	0.77123	-3.02454
N	0.425303	-0.873549	-0.229677
C	-0.206058	-0.740347	0.966349
O	-0.245452	-1.68137	1.73857
N	-0.797803	0.452703	1.30234
C	-0.757949	1.5073	0.445694
H	-1.28355	0.555808	2.22204
C	-0.113259	1.38231	-0.783678
H	-1.2266	2.44476	0.717254
H	-0.0788672	2.21957	-1.46942
C	6.09321	-1.33598	0.377076
O	6.42767	-2.36442	0.582957
N	4.85012	-0.917197	0.700347
C	4.46077	0.364855	0.499552
H	4.21963	-1.56869	1.14171
N	3.20662	0.802009	0.982784
H	2.47146	0.017163	0.885218
H	2.8822	1.66745	0.423326
N	5.27165	1.27318	-0.0859035
C	6.50559	0.884423	-0.448774
C	6.94795	-0.406322	-0.20712
N	8.23921	-0.4785	-0.580773
C	8.61461	0.730844	-1.04705
N	7.55188	1.5563	-0.95849
H	9.59254	0.984941	-1.44073
H	7.54142	2.52771	-1.2281
