29
  This energy is -0.0154447 and Call times are: 1004
C	-1.07073	-0.262769	0.525925
N	-2.12451	-0.48237	1.44331
H	-1.97075	-0.338908	2.45187
H	-3.05273	-0.786676	1.11479
N	0.147352	0.138617	0.977647
C	1.17628	0.356464	0.117021
O	2.2584	0.715688	0.545264
N	0.995238	0.171741	-1.23187
C	-0.209525	-0.229019	-1.71718
H	1.78618	0.339121	-1.89432
C	-1.272	-0.455481	-0.843989
H	-0.344947	-0.372619	-2.78173
H	-2.23358	-0.774812	-1.22583
C	5.18663	-0.0260768	-0.452376
O	4.33519	0.00926277	-1.14932
N	5.02496	-0.357281	0.847363
C	6.08202	-0.457183	1.68892
H	4.09842	-0.577077	1.17897
N	5.89151	-0.9467	3.00102
H	4.94642	-0.605452	3.39638
H	6.6919	-0.600494	3.63878
N	7.34127	-0.174909	1.289
C	7.53669	0.187657	0.0100299
C	6.48064	0.246618	-0.885168
N	6.98301	0.536457	-2.1
C	8.32218	0.658376	-1.98769
N	8.65065	0.439689	-0.698158
H	9.00747	0.907567	-2.79031
H	9.58557	0.457806	-0.321309
