29
  This energy is -0.000264387 and Call times are: 1948
C	1.03767	-0.167635	-0.622291
N	2.38766	-0.346109	-1.00432
H	3.13011	-0.358572	-0.290155
H	2.64216	-0.46499	-1.99589
N	0.720646	-0.0123661	0.690824
C	-0.568627	0.160716	1.08408
O	-0.828109	0.297732	2.26616
N	-1.57551	0.180892	0.150169
C	-1.29363	0.0286236	-1.1708
H	-2.5673	0.313964	0.451961
C	0.0249329	-0.149575	-1.5858
H	-2.09248	0.0455955	-1.90139
H	0.254446	-0.271294	-2.63696
C	13.6054	-0.937104	-0.892568
O	14.1564	-1.35101	-1.75108
N	13.0316	-1.73656	0.0330365
C	12.4047	-1.22452	1.11953
H	13.1155	-2.7359	-0.0719398
N	11.9452	-2.0898	2.13816
H	11.5719	-3.00869	1.71123
H	11.1555	-1.60818	2.69647
N	12.2699	0.107129	1.3036
C	12.8019	0.933397	0.38727
C	13.494	0.437262	-0.705884
N	13.9937	1.48369	-1.3896
C	13.634	2.61776	-0.752923
N	12.9112	2.27165	0.331701
H	13.8695	3.62743	-1.07079
H	12.5162	2.91392	1.00092
