29
  This energy is -0.000298899 and Call times are: 1980
C	0.0111744	1.06757	-0.593524
N	0.390447	2.25841	-1.25558
H	1.38748	2.48522	-1.38163
H	-0.322484	2.90885	-1.61723
N	0.965738	0.221229	-0.122998
C	0.627763	-0.929214	0.516604
O	1.5006	-1.67165	0.929345
N	-0.69486	-1.25282	0.696514
C	-1.67448	-0.42923	0.238645
H	-0.955475	-2.13747	1.18834
C	-1.33975	0.753287	-0.418785
H	-2.71499	-0.690764	0.384055
H	-2.11656	1.41257	-0.785308
C	12.2861	1.0917	0.347028
O	13.0062	1.91806	0.244393
N	11.5578	0.922324	1.47221
C	10.6303	-0.0600179	1.5736
H	11.6822	1.57386	2.23167
N	9.7874	-0.116036	2.70668
H	10.3293	0.17685	3.59356
H	9.41242	-1.12142	2.83241
N	10.4272	-0.95432	0.581488
C	11.1552	-0.835428	-0.541526
C	12.0731	0.191649	-0.692511
N	12.5737	0.119785	-1.94006
C	11.993	-0.921901	-2.57133
N	11.1265	-1.49542	-1.7118
H	12.2029	-1.249	-3.5837
H	10.5434	-2.29278	-1.91357
