29
  This energy is 0.00186541 and Call times are: 1532
C	-0.337214	-1.06171	0.501153
N	-0.89418	-2.33687	0.754229
H	-1.45617	-2.80873	0.0310899
H	-0.744822	-2.80551	1.65987
N	-0.544792	-0.458618	-0.699709
C	-0.0207367	0.766237	-0.967913
O	-0.220305	1.28649	-2.05092
N	0.731789	1.41478	-0.0194878
C	0.958786	0.840469	1.19139
H	1.13513	2.35684	-0.225129
C	0.426365	-0.415393	1.47764
H	1.55296	1.35759	1.9342
H	0.60444	-0.876957	2.4408
C	9.50964	0.726245	-1.11824
O	9.58229	1.25751	-2.0797
N	8.31745	0.485893	-0.529966
C	8.22682	-0.219225	0.623363
H	7.47822	0.803423	-0.989979
N	6.95681	-0.575631	1.13087
H	6.24433	0.215635	0.951368
H	7.02742	-0.75907	2.19322
N	9.32318	-0.666589	1.27389
C	10.5286	-0.419785	0.73397
C	10.6472	0.253024	-0.471583
N	11.9495	0.266364	-0.81219
C	12.6457	-0.380205	0.145989
N	11.77	-0.798628	1.0823
H	13.7209	-0.51955	0.166146
H	12.0058	-1.31829	1.91342
