29
  This energy is 0.00018837 and Call times are: 1820
C	0.675571	-0.226027	-0.99228
N	1.73645	-0.444663	-1.90168
H	2.71328	-0.401816	-1.57703
H	1.54508	-0.648118	-2.8937
N	0.947132	0.0411217	0.313005
C	-0.0539424	0.25494	1.20686
O	0.213996	0.492513	2.37097
N	-1.36395	0.203003	0.79746
C	-1.6707	-0.061589	-0.500031
H	-2.13435	0.36735	1.48442
C	-0.652336	-0.282521	-1.42562
H	-2.70563	-0.100963	-0.815599
H	-0.891713	-0.493653	-2.46029
C	16.0687	0.774232	1.06995
O	15.6657	1.63728	1.62195
N	16.2937	-0.412023	1.67603
C	16.734	-1.48902	0.981951
H	16.0837	-0.500981	2.65825
N	16.8182	-2.74827	1.61813
H	17.1324	-2.63099	2.64454
H	17.5281	-3.3734	1.09608
N	17.026	-1.41801	-0.335243
C	16.8434	-0.245409	-0.965362
C	16.3441	0.857607	-0.291419
N	16.1744	1.84837	-1.18685
C	16.5523	1.3938	-2.39986
N	16.9546	0.114772	-2.25526
H	16.5503	1.96474	-3.32177
H	17.2843	-0.482404	-2.99762
