29
  This energy is 0.000210478 and Call times are: 1468
C	0.47628	0.433013	-1.03815
N	0.986678	0.583036	-2.34859
H	1.0313	-0.227947	-2.98242
H	1.3178	1.50025	-2.68206
N	0.0438683	-0.784865	-0.615454
C	-0.450832	-0.95561	0.638721
O	-0.832182	-2.05616	0.994775
N	-0.520124	0.110742	1.50157
C	-0.0964506	1.34192	1.11132
H	-0.900499	-0.0198986	2.46629
C	0.412765	1.52892	-0.172556
H	-0.154066	2.17793	1.79686
H	0.751496	2.50778	-0.488019
C	7.47157	0.0980549	1.33514
O	8.08809	0.0106664	2.24299
N	6.29563	0.763125	1.33867
C	5.56762	0.919357	0.20679
H	5.98263	1.18788	2.19796
N	4.41931	1.74324	0.218243
H	3.89814	1.64919	1.15925
H	3.758	1.45762	-0.586928
N	5.94833	0.370519	-0.967591
C	7.09793	-0.324183	-1.00247
C	7.88835	-0.454753	0.128145
N	9.01168	-1.10727	-0.224781
C	8.94451	-1.3858	-1.5434
N	7.77583	-0.900523	-2.00956
H	9.69089	-1.92226	-2.11876
H	7.45858	-0.956191	-2.96491
