29
  This energy is 0.000822345 and Call times are: 2115
C	-0.210659	0.656094	-1.0086
N	-0.0852549	1.41107	-2.19795
H	0.847252	1.61319	-2.58653
H	-0.920749	1.76542	-2.68632
N	0.902906	0.196692	-0.37788
C	0.80969	-0.530877	0.766144
O	1.82138	-0.931647	1.31319
N	-0.422602	-0.812914	1.30311
C	-1.55606	-0.36906	0.698243
H	-0.494992	-1.37244	2.18295
C	-1.47269	0.377996	-0.475451
H	-2.52407	-0.595208	1.12724
H	-2.37278	0.733766	-0.960935
C	5.3537	0.315135	0.526974
O	4.59356	0.636863	1.2554
N	5.04485	0.0983322	-0.770239
C	5.99335	-0.240475	-1.6764
H	4.09247	0.237874	-1.07066
N	5.65967	-0.316061	-3.0477
H	4.66233	-0.711113	-3.17101
H	6.36371	-0.956334	-3.55917
N	7.28204	-0.435913	-1.32085
C	7.62077	-0.258846	-0.0327073
C	6.68122	0.139016	0.904873
N	7.31897	0.331079	2.07474
C	8.62939	0.0656602	1.89261
N	8.8042	-0.289047	0.603328
H	9.39932	0.111413	2.65486
H	9.68466	-0.535371	0.178431
