29
  This energy is -0.00617938 and Call times are: 2928
C	0.31919	-1.1558	-0.233118
N	0.4022	-2.56687	-0.28064
H	-0.270345	-3.14272	0.246145
H	1.1324	-3.03206	-0.839685
N	-0.650983	-0.559452	0.509859
C	-0.752339	0.79431	0.572243
O	-1.6298	1.30566	1.24454
N	0.132886	1.58275	-0.121408
C	1.11473	1.01928	-0.873789
H	0.0554795	2.624	-0.0738594
C	1.22834	-0.36801	-0.945252
H	1.80901	1.64707	-1.41792
H	2.00882	-0.821515	-1.54326
C	4.94466	0.373932	-1.029
O	4.27866	0.282667	-1.9008
N	5.09535	1.54481	-0.37211
C	5.86979	1.64025	0.735458
H	4.58075	2.34993	-0.694163
N	5.88771	2.84227	1.47865
H	5.82304	3.69401	0.81811
H	6.80162	2.90268	2.05166
N	6.57554	0.588265	1.20513
C	6.47408	-0.585591	0.559236
C	5.64818	-0.724545	-0.544706
N	5.66981	-2.01771	-0.918135
C	6.4845	-2.6889	-0.0775183
N	6.96672	-1.80788	0.822415
H	6.72241	-3.74551	-0.13111
H	7.5959	-2.02894	1.57852
