29
  This energy is -0.00033071 and Call times are: 1852
C	-1.11053	0.230645	-0.453453
N	-2.2048	0.71922	-1.20456
H	-2.04887	1.39546	-1.966
H	-3.16496	0.405879	-0.999551
N	0.149407	0.655301	-0.738227
C	1.21775	0.20123	-0.0316141
O	2.33697	0.596105	-0.305155
N	1.03466	-0.700555	0.988033
C	-0.211383	-1.14577	1.29907
H	1.8559	-1.05018	1.53188
C	-1.3145	-0.687032	0.581236
H	-0.348154	-1.85667	2.10415
H	-2.30905	-1.03878	0.82529
C	15.6686	-1.14208	0.187435
O	16.4925	-1.86202	0.0655055
N	14.7347	-1.29095	1.15219
C	13.756	-0.372547	1.33741
H	14.8017	-2.08323	1.77231
N	12.8866	-0.486285	2.44587
H	12.6662	-1.52419	2.64621
H	11.9663	0.04199	2.24275
N	13.6281	0.705575	0.533276
C	14.5214	0.8707	-0.45675
C	15.5634	-0.0250996	-0.635614
N	16.3463	0.442401	-1.62593
C	15.8227	1.60473	-2.06835
N	14.7126	1.85963	-1.34636
H	16.2165	2.21324	-2.87493
H	14.1184	2.66721	-1.45215
