29
  This energy is -0.00164305 and Call times are: 2147
C	-1.14315	-0.234984	-0.360678
N	-2.41605	-0.198506	-0.976036
H	-2.65281	0.5613	-1.63029
H	-3.11695	-0.92759	-0.777807
N	-0.230984	0.73557	-0.634275
C	0.998909	0.723474	-0.0563013
O	1.7993	1.60373	-0.316918
N	1.33733	-0.279211	0.819205
C	0.449379	-1.26496	1.11491
H	2.28308	-0.289103	1.26406
C	-0.814881	-1.26284	0.528182
H	0.723066	-2.05218	1.80599
H	-1.52564	-2.04592	0.760607
C	5.09553	-1.08887	0.856574
O	5.10795	-1.67057	1.79113
N	4.66186	-1.62435	-0.305471
C	4.5924	-0.888851	-1.44116
H	4.34246	-2.58077	-0.308002
N	3.99808	-1.43929	-2.59931
H	4.23036	-2.49088	-2.67785
H	4.36477	-0.925606	-3.47617
N	5.00659	0.396395	-1.48503
C	5.47281	0.953793	-0.354828
C	5.50541	0.240631	0.83279
N	5.9206	1.0739	1.80515
C	6.14629	2.28639	1.25764
N	5.8663	2.20422	-0.0589712
H	6.5076	3.16378	1.78258
H	5.93639	2.96179	-0.720491
