29
  This energy is -0.00243555 and Call times are: 1596
C	-0.754165	-0.580791	0.765519
N	-1.54135	-0.970241	1.87409
H	-1.55493	-0.392939	2.72729
H	-2.10695	-1.83112	1.84081
N	-0.0142942	0.558344	0.827507
C	0.750382	0.95461	-0.223721
O	1.40463	1.97888	-0.144719
N	0.784552	0.201301	-1.37167
C	0.0571034	-0.942937	-1.4672
H	1.37245	0.505513	-2.18053
C	-0.730755	-1.35918	-0.395462
H	0.0889155	-1.53174	-2.37523
H	-1.31199	-2.26994	-0.466818
C	9.95988	-0.450067	1.28848
O	10.4642	-0.971759	2.1164
N	8.93182	0.398648	1.50745
C	8.35162	1.084	0.492942
H	8.62566	0.553248	2.45567
N	7.37924	2.06962	0.776763
H	6.76601	1.76383	1.61127
H	6.75281	2.22353	-0.0899014
N	8.72986	0.911355	-0.792541
C	9.72953	0.0518118	-1.0519
C	10.3757	-0.622427	-0.0281691
N	11.3864	-1.32756	-0.569762
C	11.3895	-1.11084	-1.90163
N	10.3782	-0.265074	-2.18536
H	12.0732	-1.55519	-2.61651
H	10.1447	0.0807756	-3.10312
