29
  This energy is -0.000129493 and Call times are: 2903
C	-0.0886079	-0.818765	-0.902151
N	-0.280558	-1.99249	-1.66752
H	-0.551817	-2.87262	-1.20577
H	-0.151876	-1.98035	-2.68997
N	-0.262917	-0.853672	0.445914
C	-0.0846925	0.260054	1.20399
O	-0.246617	0.204249	2.40984
N	0.277038	1.44486	0.610858
C	0.459538	1.51484	-0.734277
H	0.414263	2.30179	1.19332
C	0.279565	0.379058	-1.52181
H	0.744678	2.45221	-1.19497
H	0.423785	0.42984	-2.59375
C	6.44846	-1.35456	-0.0671264
O	6.59226	-2.43742	-0.203714
N	5.28255	-0.846677	0.388794
C	5.12798	0.480731	0.611653
H	4.53089	-1.48206	0.607966
N	3.94728	0.95722	1.22519
H	3.09348	0.386027	0.89243
H	3.801	1.99791	0.974606
N	6.10757	1.3692	0.335303
C	7.27137	0.903427	-0.148473
C	7.47482	-0.454335	-0.33606
N	8.74979	-0.631666	-0.730024
C	9.34711	0.576726	-0.791908
N	8.43877	1.50599	-0.431362
H	10.3705	0.76523	-1.09692
H	8.60689	2.4986	-0.377548
