29
  This energy is -0.0038035 and Call times are: 2979
C	0.722443	-0.698859	-0.694101
N	1.33412	-1.77586	-1.37689
H	0.961046	-2.7309	-1.27628
H	2.1553	-1.61802	-1.97928
N	-0.360324	-0.926065	0.0963892
C	-0.966298	0.0913446	0.763104
O	-1.93491	-0.13673	1.46537
N	-0.486885	1.37296	0.64455
C	0.59362	1.63518	-0.137328
H	-0.952484	2.1559	1.15705
C	1.2232	0.599685	-0.825787
H	0.966033	2.64793	-0.226049
H	2.08424	0.803618	-1.44984
C	7.46736	0.229441	-0.0890971
O	8.5456	0.019456	-0.161459
N	6.98099	1.48481	-0.20154
C	5.64948	1.73321	-0.170855
H	7.62822	2.24234	-0.356448
N	5.17168	3.03639	-0.437206
H	5.84488	3.77487	-0.0280734
H	4.19279	3.16238	0.00225352
N	4.74501	0.750241	0.0317707
C	5.19414	-0.507627	0.178277
C	6.5469	-0.797067	0.0984083
N	6.69031	-2.13302	0.181172
C	5.46541	-2.68451	0.308884
N	4.55938	-1.68567	0.301751
H	5.25252	-3.74223	0.417591
H	3.56044	-1.80126	0.373718
