29
  This energy is -0.00148588 and Call times are: 240
C	0.461908	0.101492	1.12625
N	1.22472	-0.0455132	2.3081
H	1.99416	-0.72961	2.34549
H	1.02039	0.526933	3.14037
N	0.745975	-0.662427	0.0378519
C	0.0282222	-0.54058	-1.10968
O	0.301364	-1.23586	-2.07164
N	-1.0022	0.364533	-1.18331
C	-1.31286	1.14389	-0.113882
H	-1.55461	0.458747	-2.06558
C	-0.583657	1.02763	1.06821
H	-2.12647	1.85523	-0.179163
H	-0.827367	1.64628	1.92279
C	6.76653	0.93078	-0.741958
O	7.57148	1.35786	-1.35969
N	5.62504	1.61057	-0.496898
C	4.61214	1.05959	0.214458
H	5.51522	2.53083	-0.89415
N	3.37968	1.74229	0.32624
H	3.54466	2.80678	0.401065
H	2.85177	1.39962	1.20437
N	4.71298	-0.170689	0.763612
C	5.84644	-0.864788	0.566349
C	6.8771	-0.346554	-0.201285
N	7.83037	-1.29118	-0.306945
C	7.42253	-2.38384	0.371736
N	6.20982	-2.11559	0.897078
H	7.98202	-3.30539	0.488429
H	5.6573	-2.75305	1.44916
