29
  This energy is 0.00566747 and Call times are: 1500
C	-1.00138	-0.694415	0.0844805
N	-2.07116	-1.4989	0.541242
H	-2.15583	-1.7275	1.54224
H	-2.77395	-1.86332	-0.11862
N	-0.0834985	-0.222401	0.969684
C	0.95366	0.552474	0.556516
O	1.7634	0.963652	1.3681
N	1.08738	0.870458	-0.772929
C	0.187656	0.415267	-1.68446
H	1.88483	1.46638	-1.09135
C	-0.880046	-0.38018	-1.2723
H	0.299393	0.669943	-2.73082
H	-1.59932	-0.74516	-1.99469
C	7.11371	0.0774322	0.0497983
O	6.08513	-0.0698536	0.41347
N	7.38627	0.889381	-0.995002
C	8.65839	1.11461	-1.40312
H	6.62313	1.36937	-1.44664
N	8.91492	2.08057	-2.40243
H	8.1281	2.075	-3.14191
H	9.8586	1.86608	-2.88271
N	9.71237	0.49612	-0.826976
C	9.47688	-0.342453	0.196135
C	8.1907	-0.550364	0.667946
N	8.26977	-1.35048	1.74765
C	9.56867	-1.64596	1.96303
N	10.2973	-1.0232	1.01438
H	9.95312	-2.28687	2.74874
H	11.3014	-1.05757	0.931228
