29
  This energy is 0.000276461 and Call times are: 1692
C	0.8415	0.841696	-0.274826
N	1.75595	1.69358	-0.936902
H	1.86909	1.63643	-1.95932
H	2.31615	2.37714	-0.406768
N	0.110784	-0.054091	-0.990718
C	-0.774522	-0.883821	-0.378657
O	-1.41787	-1.67803	-1.04104
N	-0.942512	-0.826044	0.983275
C	-0.228095	0.0576835	1.72908
H	-1.62324	-1.46391	1.45463
C	0.68273	0.913548	1.11224
H	-0.36574	0.0976299	2.80224
H	1.25413	1.61922	1.7021
C	15.1809	-0.51745	0.147552
O	16.0803	-0.919506	0.638788
N	15.0574	-0.497532	-1.19763
C	13.9257	-0.0565213	-1.79787
H	15.8118	-0.862746	-1.75818
N	13.7763	-0.186398	-3.19727
H	14.7216	-0.0238065	-3.69323
H	13.056	0.534817	-3.55523
N	12.8885	0.439149	-1.08804
C	12.9878	0.463288	0.251723
C	14.1123	-0.0302354	0.893724
N	13.8921	0.0307043	2.22038
C	12.662	0.546781	2.42343
N	12.1168	0.803333	1.21694
H	12.204	0.738245	3.38753
H	11.1978	1.18683	1.05971
