29
  This energy is 0.000480421 and Call times are: 2375
C	0.132101	-0.715319	-0.981311
N	0.0837623	-1.27785	-2.27804
H	-0.418874	-0.79154	-3.03453
H	0.548257	-2.17553	-2.47938
N	-0.486614	0.470008	-0.73418
C	-0.455085	1.0317	0.502892
O	-1.01675	2.09426	0.70013
N	0.208691	0.401954	1.52722
C	0.837826	-0.78405	1.31468
H	0.233326	0.833417	2.47888
C	0.812177	-1.36953	0.0501022
H	1.35912	-1.27477	2.12688
H	1.31186	-2.31419	-0.124097
C	7.81856	0.980857	0.672208
O	8.67993	1.52178	1.09336
N	6.57591	1.51086	0.68122
C	5.52858	0.868757	0.109916
H	6.4429	2.42534	1.08467
N	4.27684	1.51732	0.00980776
H	4.09641	2.12402	0.884634
H	3.49154	0.781177	-0.0830381
N	5.65941	-0.35632	-0.444526
C	6.87526	-0.928266	-0.444816
C	7.974	-0.271198	0.0854104
N	9.06101	-1.03226	-0.141287
C	8.67125	-2.14419	-0.798948
N	7.33742	-2.06954	-0.983183
H	9.31603	-2.96026	-1.10588
H	6.77233	-2.75882	-1.45436
