29
  This energy is 0.00194293 and Call times are: 2083
C	0.410812	-0.821121	-0.805666
N	0.932809	-1.97598	-1.43344
H	1.193	-2.79827	-0.869923
H	1.05799	-2.00747	-2.45591
N	0.252571	-0.79769	0.544627
C	-0.246775	0.299473	1.1721
O	-0.379433	0.296914	2.3828
N	-0.600581	1.40766	0.441927
C	-0.455408	1.4179	-0.90952
H	-0.984695	2.25181	0.923902
C	0.0556598	0.298407	-1.56385
H	-0.736409	2.29503	-1.47865
H	0.173153	0.3018	-2.64023
C	8.16931	0.12994	1.07595
O	8.53438	0.392703	2.08075
N	8.91743	-0.59806	0.218343
C	8.44271	-0.969792	-0.994931
H	9.83119	-0.905209	0.514057
N	9.19512	-1.85152	-1.8036
H	10.2505	-1.64731	-1.70185
H	8.90611	-1.73346	-2.83789
N	7.22414	-0.584159	-1.43278
C	6.46349	0.166661	-0.618481
C	6.90301	0.516737	0.648154
N	5.90474	1.17579	1.26563
C	4.85511	1.24516	0.420468
N	5.20401	0.623279	-0.724149
H	3.90762	1.73255	0.622033
H	4.61325	0.512835	-1.53362
