29
  This energy is -0.00238393 and Call times are: 602
C	0.216658	0.514938	-1.08628
N	0.216929	0.863503	-2.45696
H	-0.391615	0.360477	-3.11882
H	0.822585	1.62038	-2.80687
N	-0.589149	-0.486438	-0.642653
C	-0.60812	-0.840685	0.669211
O	-1.33834	-1.74094	1.04299
N	0.194419	-0.18456	1.57024
C	1.01194	0.821114	1.16052
H	0.1803	-0.456517	2.57934
C	1.03978	1.19304	-0.18242
H	1.64185	1.33389	1.87642
H	1.68935	1.99354	-0.513592
C	4.59108	-1.28758	-0.115779
O	4.0773	-2.2218	0.158421
N	5.02234	-1.05972	-1.37564
C	5.60159	0.114516	-1.72379
H	4.8649	-1.76753	-2.07633
N	5.90656	0.372637	-3.07948
H	6.23537	-0.531433	-3.56988
H	6.68672	1.1174	-3.14195
N	5.8307	1.09239	-0.820134
C	5.44247	0.888955	0.450025
C	4.80022	-0.281179	0.822065
N	4.44388	-0.165109	2.11502
C	4.84445	1.04456	2.55897
N	5.4485	1.68155	1.53525
H	4.71877	1.42573	3.56635
H	5.84112	2.60935	1.57341
