29
  This energy is -0.0264507 and Call times are: 2172
C	-0.534015	-0.183178	-1.08323
N	-1.12178	-0.750282	-2.23786
H	-1.21374	-1.77292	-2.32248
H	-1.46269	-0.15006	-3.00314
N	-0.0898962	-0.99079	-0.0835218
C	0.478549	-0.471042	1.0361
O	0.868889	-1.21457	1.91825
N	0.611985	0.889213	1.17145
C	0.178715	1.72527	0.191206
H	1.04908	1.2896	2.0323
C	-0.405849	1.20357	-0.961497
H	0.287177	2.79652	0.304746
H	-0.752512	1.86554	-1.74509
C	4.16514	0.967027	0.639802
O	3.55258	1.94813	1.09647
N	3.66499	-0.358194	0.920564
C	4.2264	-1.54489	0.489581
H	2.82583	-0.357821	1.48748
N	3.6169	-2.71099	0.851573
H	2.78401	-2.74542	1.4127
H	4.03366	-3.56977	0.533224
N	5.32427	-1.59486	-0.25455
C	5.83787	-0.364793	-0.548179
C	5.3491	0.889981	-0.163539
N	6.16287	1.90605	-0.66981
C	7.11572	1.2811	-1.3408
N	6.9631	-0.107991	-1.29765
H	7.92626	1.75524	-1.86804
H	7.55041	-0.806157	-1.72477
