29
  This energy is -0.00973766 and Call times are: 5661
C	-0.667243	-0.33044	-0.968352
N	-1.5915	-0.945253	-1.84471
H	-2.22125	-1.68315	-1.49781
H	-1.64492	-0.663436	-2.83459
N	-0.610976	-0.715169	0.334609
C	0.267984	-0.1403	1.19704
O	0.299929	-0.501592	2.35973
N	1.11752	0.845396	0.757604
C	1.08766	1.25383	-0.5385
H	1.79376	1.28795	1.42038
C	0.190411	0.671432	-1.43202
H	1.76031	2.03138	-0.877863
H	0.162894	0.99343	-2.46545
C	5.65874	-1.33015	-0.384364
O	6.16371	-2.35388	-0.877628
N	4.79132	-1.46493	0.762202
C	4.15548	-0.431887	1.42377
H	4.67473	-2.42404	1.06569
N	3.36828	-0.744389	2.49382
H	3.23165	-1.68483	2.82041
H	2.90915	0.0147947	2.96856
N	4.27843	0.83941	1.06287
C	5.09021	1.02073	-0.0193488
C	5.7773	0.048378	-0.756741
N	6.50248	0.643652	-1.79148
C	6.25914	1.93876	-1.68096
N	5.40171	2.22223	-0.613627
H	6.65748	2.70883	-2.31976
H	5.06335	3.12368	-0.317468
