29
  This energy is 0.0063755 and Call times are: 5072
C	-1.15822	0.21069	0.325956
N	-2.43699	0.777787	0.534315
H	-2.64727	1.72306	0.182664
H	-3.16854	0.254545	1.03748
N	-0.20539	0.91587	-0.340174
C	1.03102	0.393751	-0.553493
O	1.86813	1.04446	-1.15285
N	1.33469	-0.864449	-0.0940007
C	0.405666	-1.59659	0.575681
H	2.28543	-1.2666	-0.257739
C	-0.865677	-1.07138	0.800318
H	0.652117	-2.58773	0.935022
H	-1.60909	-1.65078	1.33328
C	7.75865	1.37624	-0.483064
O	7.57073	2.49151	-0.999971
N	8.92931	1.17831	0.33886
C	9.28057	0.00626773	0.98081
H	9.50827	2.0055	0.417142
N	10.428	-0.000837811	1.71958
H	11.0242	0.80203	1.81767
H	10.6754	-0.859198	2.18276
N	8.55372	-1.10183	0.907524
C	7.43328	-0.966677	0.139793
C	6.98932	0.169222	-0.548642
N	5.79453	-0.103152	-1.21888
C	5.52589	-1.36808	-0.942259
N	6.4964	-1.94183	-0.115433
H	4.67104	-1.91973	-1.29534
H	6.52572	-2.88465	0.238156
