29
  This energy is -0.0016632 and Call times are: 3779
C	0.217949	1.19153	-0.157663
N	0.285728	2.51353	-0.655642
H	-0.143383	2.74737	-1.56261
H	0.76253	3.25347	-0.119653
N	-0.415358	0.228243	-0.878695
C	-0.494424	-1.04946	-0.422577
O	-1.06694	-1.89516	-1.08622
N	0.070112	-1.38507	0.783691
C	0.710634	-0.446706	1.52987
H	0.00965036	-2.36757	1.13507
C	0.797968	0.866873	1.07217
H	1.15331	-0.718498	2.47982
H	1.30718	1.61788	1.66301
C	7.90245	1.37859	-0.163303
O	7.40764	2.518	-0.106494
N	8.75946	1.04661	-1.27709
C	9.38347	-0.168351	-1.48603
H	8.87877	1.80975	-1.93204
N	10.1614	-0.306372	-2.59873
H	10.3005	0.430402	-3.26774
H	10.6111	-1.19503	-2.74224
N	9.25689	-1.1962	-0.655935
C	8.45419	-0.932881	0.416167
C	7.7796	0.256422	0.71914
N	7.06141	0.119701	1.90929
C	7.29645	-1.11764	2.31238
N	8.14188	-1.8035	1.43512
H	6.89993	-1.57309	3.20405
H	8.47234	-2.75196	1.5128
