29
  This energy is -0.0106148 and Call times are: 6002
C	-0.9351	-0.414178	0.667947
N	-1.97944	-0.566407	1.60946
H	-2.18149	0.18558	2.28407
H	-2.54671	-1.42656	1.63095
N	-0.19711	0.727784	0.65437
C	0.811707	0.898858	-0.239976
O	1.45895	1.93056	-0.232896
N	1.09972	-0.08969	-1.14895
C	0.381749	-1.24378	-1.1629
H	1.87546	0.0412525	-1.83707
C	-0.65515	-1.43033	-0.250406
H	0.614426	-2.01872	-1.88231
H	-1.2299	-2.34795	-0.257628
C	7.37972	0.375124	1.3062
O	7.98977	0.534646	2.37798
N	6.21664	1.18836	1.03955
C	5.43291	1.1345	-0.0971203
H	6.00289	1.83858	1.78594
N	4.36598	1.98127	-0.180724
H	4.12667	2.63783	0.541363
H	3.80112	1.93404	-1.01214
N	5.67406	0.29976	-1.10042
C	6.76604	-0.493404	-0.89656
C	7.62161	-0.517666	0.211909
N	8.62331	-1.47459	0.0334819
C	8.37822	-2.01228	-1.14955
N	7.25393	-1.44785	-1.75957
H	8.9555	-2.7927	-1.61585
H	6.85835	-1.67874	-2.6568
