29
  This energy is -0.0056844 and Call times are: 10273
C	-1.17677	-0.213621	-0.248349
N	-2.40698	-0.789818	-0.641857
H	-2.43341	-1.75148	-1.01053
H	-3.28573	-0.256948	-0.564578
N	-0.0273273	-0.931791	-0.357408
C	1.16754	-0.40133	0.013719
O	2.18382	-1.064	-0.0932022
N	1.22775	0.878726	0.507936
C	0.0978091	1.62431	0.630169
H	2.14639	1.2873	0.79356
C	-1.13322	1.09074	0.252714
H	0.152856	2.63267	1.02056
H	-2.03607	1.68079	0.348218
C	7.33568	1.04398	-0.795917
O	7.75983	1.84325	-1.64891
N	7.79222	1.17414	0.567833
C	7.4184	0.370972	1.62818
H	8.44246	1.93897	0.701262
N	7.95189	0.639845	2.85514
H	8.59903	1.39042	3.02129
H	7.67386	0.0490059	3.62074
N	6.56997	-0.641799	1.5016
C	6.10827	-0.807624	0.227858
C	6.42206	-0.0538997	-0.910009
N	5.73828	-0.545806	-2.02419
C	5.03211	-1.5677	-1.57055
N	5.22259	-1.76993	-0.200313
H	4.37924	-2.18984	-2.15915
H	4.80357	-2.4767	0.382534
