29
  This energy is -0.00823248 and Call times are: 1470
C	0.531883	-0.942252	-0.566895
N	1.19068	-1.78384	-1.49316
H	1.48126	-1.41605	-2.41061
H	1.38625	-2.76892	-1.26184
N	0.282271	0.354878	-0.889441
C	-0.349109	1.18415	-0.0173802
O	-0.561726	2.34227	-0.328742
N	-0.745925	0.716459	1.21153
C	-0.512083	-0.574753	1.56604
H	-1.23155	1.35373	1.8827
C	0.134634	-1.43439	0.67982
H	-0.82772	-0.936518	2.53647
H	0.323131	-2.46379	0.957704
C	6.51105	0.321455	0.552515
O	7.57481	0.81177	0.970055
N	6.31555	-1.10571	0.65342
C	5.19674	-1.80219	0.23829
H	7.10004	-1.5887	1.07398
N	5.18343	-3.15574	0.411713
H	5.94461	-3.66501	0.825236
H	4.36447	-3.65394	0.105721
N	4.1454	-1.21272	-0.317381
C	4.28098	0.140287	-0.435939
C	5.3658	0.937198	-0.0494102
N	5.11328	2.27937	-0.342244
C	3.90981	2.2911	-0.890185
N	3.35748	1.00923	-0.97061
H	3.38936	3.16551	-1.24274
H	2.45908	0.747474	-1.34368
