29
  This energy is -0.00184414 and Call times are: 10672
C	-0.610858	0.703552	0.789922
N	-1.33036	1.20418	1.89985
H	-1.56351	0.58309	2.68808
H	-1.62773	2.19041	1.9322
N	-0.226683	-0.600543	0.764647
C	0.465453	-1.10622	-0.289902
O	0.798782	-2.27766	-0.28994
N	0.787685	-0.297503	-1.35224
C	0.419111	1.01081	-1.35929
H	1.32	-0.685785	-2.1636
C	-0.291012	1.54041	-0.283242
H	0.676579	1.6424	-2.20015
H	-0.58682	2.58199	-0.284291
C	7.48246	0.986166	0.73668
O	7.94605	1.91992	1.41456
N	8.3947	0.0367216	0.143741
C	8.04199	-1.05054	-0.632553
H	9.36677	0.233843	0.348181
N	9.04123	-1.84595	-1.11335
H	10.0148	-1.67835	-0.929164
H	8.77421	-2.63486	-1.67803
N	6.78247	-1.34844	-0.926554
C	5.87874	-0.478556	-0.388378
C	6.13008	0.646345	0.407068
N	4.93198	1.27319	0.757132
C	3.98484	0.546432	0.188374
N	4.51045	-0.535988	-0.523547
H	2.9267	0.73792	0.246852
H	4.00522	-1.23589	-1.04286
