29
  This energy is -0.00340563 and Call times are: 10339
C	-0.157572	-1.18199	-0.264929
N	-0.16167	-2.59621	-0.250757
H	0.2704	-3.107	0.532715
H	-0.594544	-3.12847	-1.01982
N	0.418226	-0.496469	0.758503
C	0.435496	0.862363	0.768814
O	0.957184	1.45445	1.69654
N	-0.134141	1.56508	-0.264688
C	-0.718192	0.911235	-1.30342
H	-0.121209	2.61016	-0.257366
C	-0.741871	-0.482177	-1.32472
H	-1.16527	1.47175	-2.11471
H	-1.20595	-1.00749	-2.15001
C	6.68633	1.18985	-0.832543
O	6.57575	2.18533	-1.56952
N	7.99526	0.830521	-0.339809
C	8.28581	-0.240322	0.483621
H	8.72773	1.45359	-0.657381
N	9.58574	-0.430834	0.852698
H	10.3356	0.168407	0.555453
H	9.78717	-1.21363	1.45202
N	7.35994	-1.08274	0.924816
C	6.10206	-0.78588	0.485857
C	5.70317	0.268607	-0.344956
N	4.32372	0.224768	-0.559733
C	3.90288	-0.826978	0.122508
N	4.95035	-1.47947	0.779619
H	2.88304	-1.1672	0.185187
H	4.89691	-2.30026	1.36121
