29
  This energy is -0.00191752 and Call times are: 2643
C	0.18962	0.949042	0.7453
N	0.0393261	2.05279	1.61674
H	-0.901494	2.37681	1.88373
H	0.864787	2.54245	1.99221
N	-0.910995	0.315195	0.259733
C	-0.793843	-0.747612	-0.579043
O	-1.79431	-1.29927	-1.0011
N	0.449929	-1.19759	-0.949131
C	1.57098	-0.587033	-0.482164
H	0.54073	-2.01495	-1.59419
C	1.46306	0.503854	0.378611
H	2.54816	-0.947207	-0.778169
H	2.35319	0.993509	0.753211
C	6.76465	-1.0986	-0.471943
O	6.11043	-2.13608	-0.676785
N	6.74914	-0.0570507	-1.472
C	7.41887	1.14918	-1.39688
H	6.18051	-0.284593	-2.27851
N	7.29062	2.01956	-2.4401
H	6.7347	1.82465	-3.25418
H	7.7826	2.89501	-2.37616
N	8.1748	1.49097	-0.360869
C	8.22274	0.537408	0.614576
C	7.58554	-0.709518	0.636119
N	7.88886	-1.39143	1.81676
C	8.68681	-0.578228	2.4881
N	8.92232	0.614189	1.79716
H	9.12024	-0.779809	3.45312
H	9.4905	1.3934	2.08836
