29
  This energy is -0.000433669 and Call times are: 10914
C	-0.220607	-0.897604	0.798592
N	-0.725882	-1.69583	1.85111
H	-1.47557	-1.336	2.4593
H	-0.351729	-2.64108	2.02034
N	-0.726498	0.347205	0.590229
C	-0.25845	1.1341	-0.414044
O	-0.727301	2.24569	-0.581192
N	0.740629	0.676041	-1.23772
C	1.26876	-0.563366	-1.05732
H	1.10105	1.28073	-2.0103
C	0.796619	-1.37921	-0.030632
H	2.05613	-0.917833	-1.71048
H	1.21418	-2.36726	0.117023
C	8.11013	-0.20966	0.101479
O	6.91996	-0.388727	0.414151
N	8.45724	-0.125911	-1.2977
C	9.72636	0.0692948	-1.80798
H	7.66039	-0.22549	-1.91471
N	9.87081	0.122457	-3.16394
H	9.10151	0.0274306	-3.80341
H	10.799	0.264418	-3.52572
N	10.7997	0.205172	-1.03915
C	10.5242	0.133012	0.295769
C	9.28192	-0.0607473	0.912531
N	9.42437	-0.0736424	2.30195
C	10.7166	0.107148	2.51668
N	11.4333	0.23909	1.32348
H	11.1921	0.152196	3.48192
H	12.4239	0.38436	1.21231
