29
  This energy is -0.000973376 and Call times are: 9272
C	-0.579403	0.566865	-0.913819
N	-1.11629	1.52496	-1.80492
H	-0.942711	2.5288	-1.65131
H	-1.68397	1.2311	-2.61332
N	0.16732	0.973135	0.147426
C	0.69447	0.0727885	1.01824
O	1.3601	0.460679	1.96157
N	0.476577	-1.27072	0.834062
C	-0.265195	-1.71111	-0.216376
H	0.881731	-1.9637	1.50343
C	-0.81083	-0.796921	-1.1159
H	-0.432824	-2.7717	-0.35529
H	-1.40242	-1.14291	-1.95419
C	8.47348	0.796774	0.667167
O	9.17303	1.61796	1.28572
N	9.10699	-0.371394	0.102163
C	8.47428	-1.37263	-0.60943
H	10.1044	-0.408531	0.273613
N	9.23343	-2.4079	-1.07232
H	10.2244	-2.47487	-0.91963
H	8.76352	-3.13174	-1.58979
N	7.17064	-1.36696	-0.858481
C	6.52416	-0.280328	-0.344308
C	7.06838	0.782934	0.386855
N	6.071	1.69767	0.732423
C	4.95663	1.1997	0.223567
N	5.1789	-0.00821494	-0.444465
H	3.97919	1.64579	0.296874
H	4.50122	-0.58577	-0.915614
