29
  This energy is -0.0176587 and Call times are: 7523
C	-0.0142364	0.710484	-0.993538
N	0.327125	1.5748	-2.05969
H	1.29281	1.92046	-2.15657
H	-0.382509	1.86678	-2.74766
N	0.935345	0.335805	-0.0953173
C	0.633252	-0.493623	0.937939
O	1.50079	-0.815363	1.72993
N	-0.647258	-0.967208	1.0877
C	-1.6207	-0.612532	0.207808
H	-0.880262	-1.60516	1.88215
C	-1.32253	0.237547	-0.855711
H	-2.62793	-0.989714	0.332108
H	-2.0946	0.522905	-1.5592
C	7.2506	0.636683	-0.174771
O	8.32414	1.26115	-0.112513
N	6.94569	-0.105582	-1.3753
C	5.80204	-0.847216	-1.60157
H	7.66975	-0.0417108	-2.08045
N	5.67989	-1.48715	-2.80069
H	6.3792	-1.44429	-3.52102
H	4.84324	-2.0242	-2.95606
N	4.82724	-0.960123	-0.707937
C	5.06769	-0.274669	0.447661
C	6.18651	0.50139	0.775206
N	6.0491	1.03763	2.05759
C	4.87992	0.597185	2.49088
N	4.23974	-0.209104	1.54493
H	4.44419	0.814767	3.45137
H	3.3452	-0.664873	1.62781
