29
  This energy is -0.00121998 and Call times are: 6483
C	-0.897365	-0.787369	0.258638
N	-1.66636	-1.94738	0.510223
H	-1.22794	-2.87859	0.465018
H	-2.66829	-1.87431	0.740273
N	0.423351	-0.903114	-0.0433586
C	1.18424	0.195706	-0.289276
O	2.36523	0.0669282	-0.557748
N	0.621913	1.44761	-0.23491
C	-0.695367	1.59919	0.0640701
H	1.20655	2.29312	-0.423928
C	-1.48549	0.479469	0.318115
H	-1.13187	2.58915	0.105141
H	-2.5353	0.59516	0.556698
C	6.47629	0.496827	1.36924
O	6.41349	1.0938	2.45828
N	7.21529	-0.741592	1.29589
C	7.37971	-1.52209	0.167638
H	7.62824	-1.01453	2.17939
N	8.11383	-2.66682	0.281571
H	8.53658	-2.96598	1.1427
H	8.22822	-3.22805	-0.545761
N	6.85759	-1.20525	-1.01074
C	6.14764	-0.0395864	-0.994516
C	5.92196	0.819755	0.0880315
N	5.14325	1.90929	-0.308772
C	4.90629	1.71223	-1.59475
N	5.49789	0.535114	-2.06286
H	4.33088	2.36094	-2.23338
H	5.46817	0.159635	-2.99717
