29
  This energy is -0.000885565 and Call times are: 7706
C	0.148827	-0.638281	-1.0308
N	0.394297	-1.04249	-2.3637
H	0.641331	-0.343528	-3.07913
H	0.329097	-2.03528	-2.63252
N	0.239542	0.676074	-0.694453
C	0.00855292	1.09043	0.57904
O	0.0958256	2.27316	0.856389
N	-0.322336	0.177029	1.54993
C	-0.421598	-1.14454	1.24794
H	-0.500105	0.495047	2.52957
C	-0.186919	-1.58108	-0.0547399
H	-0.682873	-1.8589	2.01842
H	-0.264789	-2.6328	-0.300155
C	5.93696	0.263112	1.42536
O	5.71472	0.274007	2.64881
N	6.50047	1.44152	0.809727
C	6.80488	1.58967	-0.529881
H	6.66711	2.19516	1.46534
N	7.33406	2.77912	-0.939186
H	7.51168	3.54624	-0.3149
H	7.55184	2.87735	-1.91666
N	6.60439	0.630699	-1.42528
C	6.07131	-0.507216	-0.892315
C	5.72876	-0.758224	0.442212
N	5.21141	-2.0485	0.578121
C	5.24114	-2.56089	-0.640609
N	5.75801	-1.6596	-1.57616
H	4.91408	-3.54996	-0.913612
H	5.88597	-1.80328	-2.56499
