29
  This energy is -0.00366996 and Call times are: 6880
C	-0.0250601	-1.07576	0.578111
N	0.298451	-2.33449	1.13597
H	1.24617	-2.72236	1.02281
H	-0.40644	-2.87464	1.65895
N	0.917928	-0.37724	-0.108713
C	0.632633	0.834233	-0.654395
O	1.49383	1.44131	-1.26529
N	-0.623819	1.37163	-0.516724
C	-1.59005	0.700012	0.163661
H	-0.843894	2.30333	-0.936154
C	-1.30895	-0.543214	0.727561
H	-2.57828	1.12978	0.268179
H	-2.07535	-1.08201	1.27045
C	6.91874	0.14787	1.44879
O	6.65321	0.384109	2.64044
N	8.13085	-0.571571	1.13512
C	8.56742	-0.911445	-0.130998
H	8.66974	-0.824744	1.95431
N	9.74317	-1.59535	-0.241474
H	10.3014	-1.8616	0.550525
H	10.0528	-1.83778	-1.1677
N	7.89544	-0.601614	-1.23282
C	6.73887	0.0812598	-0.98971
C	6.20973	0.472144	0.246625
N	5.00371	1.15347	0.0670501
C	4.81136	1.17286	-1.24114
N	5.84306	0.530888	-1.93266
H	3.97183	1.62087	-1.74536
H	5.93483	0.408565	-2.92836
