29
  This energy is 0.00110383 and Call times are: 856
C	0.986723	0.274161	-0.665824
N	2.3055	0.497615	-1.12535
H	3.10658	0.332564	-0.498902
H	2.4787	0.826232	-2.08667
N	0.777369	-0.159514	0.605784
C	-0.479763	-0.381767	1.07167
O	-0.642316	-0.77017	2.21453
N	-1.56334	-0.168653	0.255053
C	-1.38977	0.264748	-1.02152
H	-2.53046	-0.339406	0.612743
C	-0.105125	0.49605	-1.51018
H	-2.24862	0.430613	-1.65957
H	0.0381864	0.841335	-2.52637
C	8.06397	-0.781037	0.966335
O	8.57861	-1.34865	1.94577
N	8.58288	-1.06035	-0.35196
C	8.12457	-0.515232	-1.536
H	9.34983	-1.72168	-0.348685
N	8.73649	-0.894376	-2.69538
H	9.49927	-1.54778	-2.72679
H	8.39583	-0.491469	-3.55221
N	7.1232	0.354217	-1.58961
C	6.59673	0.652452	-0.366111
C	6.98529	0.158626	0.885475
N	6.19385	0.711793	1.89471
C	5.35179	1.51677	1.26888
N	5.55597	1.51685	-0.114251
H	4.58877	2.11441	1.73834
H	5.05149	2.04012	-0.811741
