29
  This energy is 3.0721e-05 and Call times are: 1767
C	-0.945082	-0.0523085	0.772135
N	-1.88962	0.200353	1.79403
H	-1.79298	1.03257	2.39361
H	-2.68064	-0.441752	1.94932
N	0.0921921	0.806028	0.581842
C	1.01319	0.586042	-0.392938
O	1.9337	1.36907	-0.544341
N	0.90525	-0.516655	-1.20462
C	-0.119295	-1.39492	-1.04165
H	1.61325	-0.686426	-1.95452
C	-1.06976	-1.17955	-0.0452379
H	-0.198032	-2.26202	-1.6852
H	-1.88769	-1.87634	0.0884417
C	6.70295	0.218043	-0.795513
O	7.77627	0.565662	-1.31846
N	5.93785	-0.839289	-1.41347
C	4.7322	-1.33923	-0.960013
H	6.371	-1.21077	-2.2501
N	4.14627	-2.34446	-1.67313
H	4.54933	-2.73514	-2.5066
H	3.26827	-2.70138	-1.3351
N	4.12734	-0.884536	0.130383
C	4.81199	0.118861	0.752887
C	6.03277	0.693837	0.378173
N	6.39748	1.695	1.28128
C	5.42354	1.72281	2.17537
N	4.42988	0.779114	1.89825
H	5.3715	2.38084	3.02628
H	3.58797	0.598861	2.42122
