29
  This energy is -0.00318381 and Call times are: 10295
C	-0.000768582	0.483691	-1.12167
N	0.00239473	0.687767	-2.52117
H	0.0131816	-0.11914	-3.16164
H	-0.00599626	1.6407	-2.91357
N	0.010397	-0.780858	-0.621992
C	0.00765752	-1.00401	0.71854
O	0.017828	-2.14574	1.14252
N	-0.00656692	0.0558647	1.59197
C	-0.017988	1.33279	1.12623
H	-0.00869229	-0.115072	2.62308
C	-0.0153059	1.57377	-0.246556
H	-0.0291654	2.1634	1.82064
H	-0.0243621	2.5892	-0.622348
C	7.20354	-0.969564	-0.736024
O	8.06324	-1.71306	-1.24047
N	5.83554	-1.08306	-1.18422
C	4.76774	-0.3349	-0.72681
H	5.70516	-1.78977	-1.89776
N	3.53764	-0.577327	-1.26573
H	3.37435	-1.27069	-1.97448
H	2.7666	-0.0269726	-0.926409
N	4.89012	0.601139	0.206151
C	6.16762	0.7481	0.663825
C	7.313	0.045266	0.269557
N	8.42888	0.494564	0.979392
C	7.96893	1.44197	1.77914
N	6.59289	1.63593	1.62543
H	8.55677	2.0144	2.47666
H	6.00473	2.29254	2.11302
