29
  This energy is 0.000131055 and Call times are: 1878
C	-0.818756	-0.889845	0.17298
N	-1.95224	-1.73358	0.11314
H	-2.7233	-1.51894	-0.535567
H	-2.01902	-2.56784	0.714531
N	-0.74801	0.206572	-0.628116
C	0.329958	1.03322	-0.589897
O	0.370728	2.0094	-1.31709
N	1.37008	0.76759	0.266844
C	1.33168	-0.319927	1.08135
H	2.19944	1.40296	0.296725
C	0.231264	-1.17477	1.05081
H	2.15524	-0.523075	1.75419
H	0.196108	-2.04232	1.69774
C	8.4041	0.268221	0.914596
O	9.43577	0.611889	1.51783
N	7.42353	-0.530391	1.61165
C	6.23152	-0.991295	1.08645
H	7.68462	-0.741206	2.56715
N	5.4216	-1.73701	1.89284
H	5.65087	-1.96387	2.84453
H	4.55605	-2.06841	1.50099
N	5.84736	-0.740379	-0.158953
C	6.74236	0.0130492	-0.86208
C	7.97004	0.526948	-0.42619
N	8.58798	1.24771	-1.45069
C	7.75598	1.17026	-2.47563
N	6.61262	0.426671	-2.16817
H	7.91048	1.61488	-3.44423
H	5.83149	0.220077	-2.76981
