29
  This energy is 8.6506e-05 and Call times are: 7662
C	0.703873	-0.752413	-0.656161
N	1.45505	-1.85218	-1.13207
H	1.51252	-2.71835	-0.577218
H	1.95053	-1.79951	-2.03421
N	0.0566492	-0.840083	0.536444
C	-0.671677	0.202194	1.01606
O	-1.24273	0.100092	2.08698
N	-0.76288	1.36711	0.294197
C	-0.128364	1.48844	-0.901738
H	-1.32288	2.16909	0.662492
C	0.621449	0.426102	-1.40357
H	-0.2047	2.40974	-1.4653
H	1.12869	0.518002	-2.35576
C	10.5127	-0.637983	0.694508
O	11.5165	-1.26291	1.07941
N	9.73865	0.100922	1.66407
C	8.60316	0.842578	1.39993
H	10.1068	0.0345329	2.60514
N	7.99619	1.47905	2.4434
H	8.33556	1.43363	3.38813
H	7.16972	2.01614	2.24089
N	8.08444	0.958711	0.183782
C	8.7812	0.276522	-0.771319
C	9.93592	-0.499244	-0.609766
N	10.3408	-1.03162	-1.83596
C	9.45472	-0.589187	-2.7122
N	8.48045	0.214695	-2.11278
H	9.45478	-0.803671	-3.76754
H	7.69971	0.671248	-2.55641
