29
  This energy is 0.00151179 and Call times are: 9559
C	-0.79505	-0.891934	0.253887
N	-1.58582	-1.87637	0.890934
H	-1.49414	-2.03746	1.90437
H	-2.25878	-2.44035	0.351324
N	0.0876018	-0.157302	0.981989
C	0.858995	0.794551	0.393978
O	1.64255	1.44	1.0669
N	0.754434	1.02722	-0.955596
C	-0.117769	0.310896	-1.71305
H	1.34741	1.75915	-1.40846
C	-0.913988	-0.667864	-1.12087
H	-0.194826	0.499747	-2.77636
H	-1.61024	-1.24107	-1.7201
C	9.30815	1.32205	-0.293338
O	8.86876	2.48509	-0.318159
N	9.38633	0.580942	-1.5302
C	9.84811	-0.713596	-1.67196
H	9.06097	1.10578	-2.33286
N	9.85077	-1.25982	-2.92255
H	9.53504	-0.76657	-3.73911
H	10.1884	-2.20318	-3.0153
N	10.2842	-1.43961	-0.650065
C	10.2305	-0.782557	0.545119
C	9.78308	0.520709	0.795397
N	9.89023	0.819955	2.15551
C	10.3882	-0.272602	2.70965
N	10.6143	-1.28173	1.76876
H	10.6052	-0.40225	3.75649
H	10.9855	-2.20401	1.93125
