29
  This energy is 0.00796237 and Call times are: 4013
C	0.107688	1.21587	0.0465411
N	0.569626	2.55025	-0.0328168
H	1.51941	2.74922	-0.378853
H	-0.0354712	3.33399	0.253087
N	0.920092	0.194498	-0.335147
C	0.50032	-1.09632	-0.268651
O	1.24602	-1.99439	-0.61618
N	-0.761666	-1.38619	0.189368
C	-1.59949	-0.389256	0.578944
H	-1.08514	-2.37874	0.24075
C	-1.17982	0.938307	0.515136
H	-2.59294	-0.625227	0.938951
H	-1.84363	1.7359	0.824357
C	6.33209	0.240401	-0.243348
O	5.0953	0.231842	-0.372237
N	7.06302	1.42738	-0.620205
C	8.43192	1.59667	-0.538809
H	6.46888	2.1701	-0.967965
N	8.95507	2.79116	-0.941108
H	8.39387	3.54787	-1.29067
H	9.95296	2.90445	-0.878458
N	9.24983	0.652716	-0.0898843
C	8.60623	-0.492703	0.280066
C	7.23305	-0.764554	0.237685
N	6.97722	-2.05562	0.705276
C	8.16321	-2.54831	1.02057
N	9.19238	-1.63315	0.779663
H	8.34868	-3.53216	1.41728
H	10.1796	-1.76109	0.934009
