29
  This energy is -0.00845228 and Call times are: 4696
C	-0.381972	1.15799	-0.0726132
N	-1.01881	2.36562	-0.441814
H	-1.67145	2.3837	-1.23878
H	-0.83801	3.23609	0.079468
N	-0.632733	0.019193	-0.772012
C	-0.0338271	-1.15399	-0.437677
O	-0.27419	-2.16109	-1.07906
N	0.839981	-1.2027	0.620863
C	1.11314	-0.0829036	1.34131
H	1.30093	-2.10467	0.878532
C	0.504824	1.1259	1.0076
H	1.80303	-0.128778	2.17448
H	0.719261	2.02059	1.57852
C	4.98601	-0.355911	0.0378837
O	3.7831	-0.560986	0.277216
N	5.53209	-0.806862	-1.22054
C	6.84121	-0.65725	-1.63647
H	4.85005	-1.26649	-1.81141
N	7.18399	-1.14734	-2.86311
H	6.53206	-1.60813	-3.47337
H	8.13975	-1.03394	-3.15671
N	7.76917	-0.0622331	-0.897279
C	7.30233	0.383066	0.305569
C	6.00334	0.282537	0.819212
N	5.93431	0.86431	2.08717
C	7.1577	1.30314	2.33107
N	8.03205	1.03412	1.27378
H	7.47549	1.81057	3.22621
H	9.01105	1.26286	1.21013
