29
  This energy is 0.0020096 and Call times are: 6307
C	-0.416193	-0.892103	0.723218
N	-1.21891	-1.74672	1.51413
H	-2.22512	-1.55523	1.62494
H	-0.808365	-2.56595	1.98577
N	-0.975231	0.18414	0.108346
C	-0.225979	1.02066	-0.65696
O	-0.74911	1.97833	-1.19787
N	1.11748	0.785782	-0.819327
C	1.70829	-0.280947	-0.218803
H	1.6943	1.42875	-1.4078
C	0.949843	-1.14564	0.568393
H	2.76785	-0.459883	-0.351247
H	1.41598	-1.99672	1.04879
C	10.8138	-1.39229	0.238092
O	11.3387	-2.50673	0.407634
N	9.37828	-1.2758	0.343142
C	8.64508	-0.115627	0.183241
H	8.91961	-2.15357	0.554631
N	7.28915	-0.190616	0.318025
H	6.80341	-1.045	0.527426
H	6.76409	0.659528	0.199235
N	9.20186	1.05684	-0.0940366
C	10.5612	1.00013	-0.204204
C	11.3939	-0.116805	-0.0613874
N	12.7299	0.244091	-0.250155
C	12.7033	1.5424	-0.499966
N	11.4019	2.05321	-0.483454
H	13.5623	2.16132	-0.696651
H	11.1111	3.00452	-0.642352
