29
  This energy is -0.00145815 and Call times are: 6121
C	-0.930015	-0.735327	0.294067
N	-2.19934	-1.27153	0.612772
H	-3.0258	-0.657533	0.650028
H	-2.31091	-2.27687	0.810187
N	-0.801873	0.593625	0.0364678
C	0.406415	1.13365	-0.272144
O	0.496391	2.32689	-0.499026
N	1.52244	0.335027	-0.327776
C	1.42982	-0.997462	-0.0758162
H	2.45203	0.749727	-0.56508
C	0.195854	-1.56236	0.241727
H	2.31382	-1.6209	-0.121493
H	0.117055	-2.6233	0.443236
C	7.77183	-0.620303	-0.770634
O	8.77834	-0.939509	-1.42743
N	6.78855	-1.63336	-0.46721
C	5.622	-1.44256	0.248278
H	7.02682	-2.54598	-0.835907
N	4.8047	-2.5184	0.440414
H	5.01166	-3.4365	0.0882596
H	3.95737	-2.36911	0.962226
N	5.26833	-0.265992	0.750447
C	6.16693	0.727917	0.490196
C	7.37073	0.640277	-0.220075
N	8.00269	1.88514	-0.263446
C	7.202	2.70047	0.402026
N	6.06597	2.04284	0.883369
H	7.37473	3.74994	0.570955
H	5.30676	2.43463	1.41713
