29
  This energy is -0.00574857 and Call times are: 9382
C	0.352519	-0.824077	-0.829901
N	1.07122	-1.77614	-1.5897
H	2.02874	-2.04021	-1.3161
H	0.647341	-2.21383	-2.42089
N	0.927935	-0.257015	0.26382
C	0.258839	0.660211	1.01071
O	0.795075	1.15446	1.98619
N	-1.01863	1.0281	0.665523
C	-1.62358	0.480828	-0.42173
H	-1.53379	1.73347	1.23953
C	-0.947071	-0.460834	-1.19518
H	-2.63081	0.775619	-0.687855
H	-1.42479	-0.899574	-2.06218
C	4.77614	0.534955	-1.34546
O	4.98265	0.775826	-2.54782
N	4.36906	1.61596	-0.478908
C	4.10196	1.51478	0.872973
H	4.28781	2.50446	-0.958011
N	3.72771	2.6457	1.53877
H	3.63761	3.54201	1.0935
H	3.53591	2.56179	2.523
N	4.19465	0.372744	1.54284
C	4.57752	-0.682707	0.766631
C	4.86993	-0.686908	-0.602962
N	5.22352	-1.97161	-1.02182
C	5.14654	-2.72089	0.0650936
N	4.75581	-1.9814	1.18546
H	5.35333	-3.77657	0.115427
H	4.62363	-2.31306	2.12744
