29
  This energy is -0.000291693 and Call times are: 6616
C	-0.550943	0.457828	-0.989426
N	-1.21715	0.630179	-2.22503
H	-1.4742	-0.19002	-2.79302
H	-1.45151	1.573	-2.56897
N	-0.249827	-0.793773	-0.551573
C	0.38978	-0.986502	0.631892
O	0.648916	-2.11714	1.00323
N	0.74254	0.0915609	1.40633
C	0.456663	1.35629	0.998497
H	1.23447	-0.0559737	2.31664
C	-0.198989	1.56609	-0.21341
H	0.737768	2.20137	1.61417
H	-0.428861	2.57169	-0.542526
C	8.84593	1.10776	0.0744841
O	9.80899	1.88834	0.172218
N	7.52925	1.65262	-0.15937
C	6.36224	0.924719	-0.291351
H	7.51966	2.66321	-0.224056
N	5.2016	1.60847	-0.509805
H	5.15767	2.60997	-0.579183
H	4.35712	1.06946	-0.604018
N	6.32587	-0.399778	-0.21424
C	7.54856	-0.964759	0.00688125
C	8.78379	-0.321507	0.154336
N	9.79845	-1.25764	0.366586
C	9.19166	-2.43246	0.347755
N	7.81595	-2.30895	0.131236
H	9.67025	-3.38807	0.480067
H	7.1324	-3.04667	0.0734732
