29
  This energy is -0.00470336 and Call times are: 6660
C	-0.00204544	1.03651	-0.646335
N	0.13375	2.01594	-1.65754
H	0.507778	1.75684	-2.58187
H	-0.138457	2.99429	-1.48185
N	0.362232	-0.249464	-0.896258
C	0.24175	-1.20937	0.0581494
O	0.57464	-2.35454	-0.189159
N	-0.254224	-0.887847	1.29793
C	-0.627798	0.387988	1.58126
H	-0.347154	-1.62564	2.03241
C	-0.508723	1.38077	0.610275
H	-1.01794	0.634151	2.56077
H	-0.804988	2.39851	0.831259
C	6.59027	0.130541	1.04444
O	5.87069	0.399815	2.02222
N	6.14286	-0.871521	0.105884
C	6.8213	-1.28354	-1.0251
H	5.24572	-1.27443	0.347472
N	6.24646	-2.24706	-1.80197
H	5.3583	-2.66692	-1.59064
H	6.74856	-2.54069	-2.62308
N	7.99834	-0.784627	-1.38177
C	8.46635	0.168944	-0.5246
C	7.86111	0.655156	0.640985
N	8.6642	1.63041	1.23669
C	9.72409	1.72917	0.452079
N	9.65244	0.857414	-0.638623
H	10.5594	2.39118	0.606209
H	10.3264	0.738424	-1.37787
