29
  This energy is 0.000828501 and Call times are: 5204
C	0.512812	-0.85224	0.709098
N	1.19594	-1.98772	1.20335
H	1.60611	-2.67	0.549398
H	1.29041	-2.14427	2.2176
N	0.39808	-0.662079	-0.632381
C	-0.253265	0.420553	-1.13287
O	-0.343154	0.569496	-2.33833
N	-0.808291	1.34365	-0.280669
C	-0.712007	1.18417	1.06576
H	-1.30936	2.17653	-0.664942
C	-0.0463445	0.0777312	1.59046
H	-1.15198	1.91589	1.73152
H	0.0329542	-0.0536491	2.66231
C	9.39818	-0.40478	-0.930022
O	10.2083	-0.583326	-1.85642
N	9.4832	-1.24575	0.240759
C	8.66282	-1.17612	1.3504
H	10.2287	-1.92923	0.189693
N	8.88806	-2.05457	2.37016
H	9.61861	-2.74427	2.35104
H	8.285	-1.99621	3.17356
N	7.67403	-0.29785	1.46217
C	7.55123	0.522659	0.378311
C	8.32557	0.534659	-0.788552
N	7.87818	1.53026	-1.66007
C	6.86233	2.10234	-1.03595
N	6.62133	1.52365	0.213753
H	6.27087	2.91783	-1.41661
H	5.91035	1.77393	0.882093
