29
  This energy is 0.000669887 and Call times are: 5160
C	0.976842	0.349876	-0.644573
N	2.21614	0.407656	-1.3236
H	2.82951	-0.419613	-1.35209
H	2.51763	1.27323	-1.79479
N	0.595515	-0.800791	-0.0285821
C	-0.590137	-0.882382	0.63051
O	-0.910174	-1.92392	1.17472
N	-1.4245	0.207382	0.682127
C	-1.07413	1.37308	0.0771731
H	-2.33653	0.145295	1.18886
C	0.139417	1.46844	-0.601674
H	-1.73686	2.22807	0.121994
H	0.422895	2.3949	-1.08512
C	7.62966	-1.03574	0.116679
O	6.66619	-1.77926	0.372125
N	8.59766	-1.46345	-0.865777
C	9.71794	-0.757771	-1.26094
H	8.38647	-2.36825	-1.26866
N	10.5273	-1.31721	-2.20661
H	10.3464	-2.21228	-2.626
H	11.3408	-0.795768	-2.48731
N	10.035	0.430408	-0.761673
C	9.14899	0.880352	0.174075
C	7.99072	0.247436	0.64218
N	7.35657	1.03958	1.60202
C	8.11169	2.11984	1.70958
N	9.21971	2.07228	0.858262
H	7.92405	2.95394	2.36443
H	9.94342	2.7645	0.749264
