29
  This energy is -0.0003163 and Call times are: 4520
C	0.439806	-0.879643	-0.724506
N	0.84115	-1.66531	-1.8299
H	0.692543	-1.32197	-2.78982
H	1.28425	-2.58492	-1.6881
N	-0.143252	0.331293	-0.93083
C	-0.537904	1.10547	0.11403
O	-1.05799	2.18663	-0.0957065
N	-0.35026	0.668856	1.40266
C	0.229458	-0.536554	1.64454
H	-0.653548	1.26379	2.20672
C	0.638194	-1.33908	0.580818
H	0.374191	-0.874276	2.66298
H	1.10046	-2.30007	0.768473
C	6.48758	-1.16679	-0.84909
O	6.51868	-2.11884	-1.64845
N	5.2964	-0.959349	-0.0596323
C	5.10339	0.0463617	0.867977
H	4.57054	-1.64131	-0.24303
N	3.90831	0.0913094	1.52532
H	3.168	-0.569452	1.36693
H	3.77728	0.827696	2.19845
N	6.02492	0.961475	1.14168
C	7.17306	0.809066	0.419454
C	7.46802	-0.169184	-0.538321
N	8.75385	0.0213382	-1.04948
C	9.22087	1.08493	-0.417505
N	8.29389	1.6043	0.491171
H	10.1936	1.52386	-0.562035
H	8.40267	2.40482	1.09295
