29
  This energy is -0.00325572 and Call times are: 1091
C	0.0275431	0.0646875	-1.21949
N	0.421036	0.190586	-2.57211
H	1.41059	0.350107	-2.81034
H	-0.273991	0.124515	-3.3302
N	0.958521	0.154555	-0.232532
C	0.606494	0.0370976	1.0748
O	1.45825	0.121115	1.94132
N	-0.706561	-0.175793	1.41682
C	-1.66267	-0.270675	0.455339
H	-0.977973	-0.266231	2.4221
C	-1.31336	-0.151795	-0.88871
H	-2.69577	-0.438563	0.732358
H	-2.07143	-0.226663	-1.65821
C	6.59797	-0.121023	1.43154
O	6.54555	-0.385792	2.64541
N	5.72095	0.896955	0.902624
C	5.65619	1.30649	-0.415422
H	5.1224	1.31431	1.60486
N	4.76317	2.28636	-0.738997
H	4.15548	2.72082	-0.066898
H	4.72322	2.5773	-1.70144
N	6.42012	0.789288	-1.36961
C	7.2691	-0.180274	-0.919879
C	7.41259	-0.665396	0.38602
N	8.39229	-1.6599	0.431523
C	8.8271	-1.77124	-0.812373
N	8.17303	-0.889099	-1.67768
H	9.59159	-2.4497	-1.1515
H	8.31824	-0.776076	-2.66811
