29
  This energy is -0.00369021 and Call times are: 10072
C	-0.617131	1.01793	-0.273997
N	-1.25575	2.09122	-0.937688
H	-1.25186	2.13888	-1.96683
H	-1.72944	2.83341	-0.402061
N	0.00282601	0.0476249	-0.997219
C	0.623643	-0.994069	-0.383794
O	1.17228	-1.85125	-1.05284
N	0.631721	-1.079	0.987023
C	0.0215545	-0.126183	1.74031
H	1.109	-1.87991	1.45943
C	-0.618289	0.946709	1.12215
H	0.0319454	-0.199634	2.82046
H	-1.10572	1.70818	1.71796
C	5.04452	-0.490204	1.3418
O	5.24232	-0.695327	2.55223
N	5.2492	-1.57386	0.409601
C	5.07375	-1.50975	-0.95944
H	5.547	-2.4337	0.854082
N	5.31445	-2.63702	-1.68996
H	5.61068	-3.50542	-1.28024
H	5.18436	-2.58003	-2.68614
N	4.68487	-0.406064	-1.58571
C	4.47768	0.650293	-0.746512
C	4.62576	0.690011	0.645538
N	4.31582	1.96193	1.13247
C	3.99016	2.66922	0.0636397
N	4.07272	1.91423	-1.1102
H	3.69268	3.70424	0.0628538
H	3.87836	2.21534	-2.05167
