29
  This energy is -0.00508805 and Call times are: 8786
C	-0.599567	0.984767	0.403562
N	-1.57942	1.95943	0.703852
H	-2.55028	1.83293	0.383149
H	-1.33438	2.80234	1.24383
N	-0.941251	-0.121115	-0.309999
C	-0.0187421	-1.07231	-0.611722
O	-0.348557	-2.05438	-1.25215
N	1.28174	-0.925534	-0.195048
C	1.65725	0.167729	0.520048
H	1.99173	-1.65673	-0.426758
C	0.719768	1.14973	0.83536
H	2.6842	0.276763	0.845186
H	1.01412	2.02239	1.40477
C	6.76927	-0.582458	0.713913
O	5.75172	-1.17099	1.11954
N	7.53914	0.202444	1.65009
C	8.68817	0.91295	1.36014
H	7.15701	0.195559	2.58791
N	9.28818	1.60259	2.37342
H	8.93514	1.61643	3.31413
H	10.124	2.11725	2.15208
N	9.22556	0.95123	0.147168
C	8.53321	0.223283	-0.776856
C	7.36613	-0.527307	-0.587538
N	6.97187	-1.12589	-1.78637
C	7.87607	-0.74652	-2.67363
N	8.8522	0.0791064	-2.10774
H	7.8881	-1.02239	-3.71455
H	9.64512	0.499205	-2.56557
