29
  This energy is -0.000357738 and Call times are: 6946
C	0.697289	0.939274	-0.351655
N	1.24964	2.05328	-1.02557
H	0.786474	2.4325	-1.86407
H	2.11683	2.49553	-0.687148
N	-0.447632	0.368718	-0.812646
C	-0.998723	-0.70236	-0.183424
O	-2.02487	-1.19644	-0.615044
N	-0.399275	-1.22544	0.936159
C	0.746031	-0.679391	1.4237
H	-0.822606	-2.04919	1.42057
C	1.32028	0.41926	0.786664
H	1.21304	-1.09701	2.30672
H	2.23256	0.857691	1.17128
C	7.23329	-1.43981	0.00217915
O	7.28506	-2.66948	0.179802
N	8.02577	-0.855069	-1.05387
C	8.07978	0.486756	-1.37907
H	8.57034	-1.5355	-1.56966
N	8.88752	0.863835	-2.41236
H	9.44025	0.214495	-2.94397
H	8.92038	1.84319	-2.64109
N	7.38452	1.41404	-0.732288
C	6.61719	0.9112	0.278371
C	6.49182	-0.422558	0.686634
N	5.60461	-0.522031	1.76083
C	5.20643	0.71731	1.99368
N	5.7958	1.63147	1.11522
H	4.51283	1.02006	2.75985
H	5.66081	2.62921	1.08196
