29
  This energy is -0.00706297 and Call times are: 7204
C	0.3797	-0.913474	-0.71659
N	0.543211	-1.85208	-1.76184
H	-0.0812706	-1.82829	-2.58091
H	1.2848	-2.56627	-1.71592
N	-0.604283	0.0217325	-0.794413
C	-0.782405	0.93472	0.196323
O	-1.67071	1.76287	0.104266
N	0.0376998	0.922651	1.298
C	1.03118	0.00148294	1.40774
H	-0.09875	1.62456	2.06033
C	1.22325	-0.939742	0.397878
H	1.67384	-0.0020507	2.27906
H	2.0133	-1.67552	0.480788
C	4.02986	1.13464	0.287963
O	3.29258	2.02365	0.748845
N	4.34674	1.15407	-1.12072
C	5.14671	0.243776	-1.78449
H	3.91782	1.92554	-1.61715
N	5.33853	0.416573	-3.12452
H	4.92789	1.17072	-3.64643
H	5.92223	-0.251843	-3.59892
N	5.72952	-0.781978	-1.17644
C	5.46032	-0.845401	0.160188
C	4.66825	0.0207581	0.924192
N	4.64543	-0.389655	2.2591
C	5.40255	-1.47314	2.29858
N	5.92467	-1.79437	1.04202
H	5.61199	-2.06065	3.17649
H	6.52657	-2.56618	0.803625
