29
  This energy is 0.00334282 and Call times are: 1812
C	0.64431	0.121247	1.03067
N	1.64881	0.0863648	2.02566
H	2.56066	-0.349254	1.82521
H	1.48061	0.49409	2.95711
N	0.884169	-0.421716	-0.192669
C	-0.0641079	-0.401208	-1.1659
O	0.173944	-0.893944	-2.25399
N	-1.28729	0.173911	-0.922034
C	-1.56022	0.725798	0.289792
H	-2.01705	0.190027	-1.67011
C	-0.595383	0.710593	1.29551
H	-2.52666	1.17742	0.474904
H	-0.808125	1.14895	2.26246
C	6.94715	-1.44355	-0.0496894
O	6.70483	-2.63576	-0.307109
N	7.44317	-1.10169	1.26267
C	7.75908	0.168812	1.70447
H	7.55003	-1.90357	1.87188
N	8.21678	0.307619	2.98258
H	8.33424	-0.466735	3.61214
H	8.4436	1.23684	3.29506
N	7.63562	1.24864	0.9427
C	7.16868	0.978361	-0.311092
C	6.82146	-0.264788	-0.854528
N	6.38652	-0.115725	-2.17344
C	6.46912	1.18121	-2.41812
N	6.94173	1.89461	-1.31249
H	6.21121	1.6623	-3.34645
H	7.09477	2.88759	-1.23919
