29
  This energy is 0.0001679 and Call times are: 4233
C	0.314171	0.095921	-1.17652
N	0.329818	0.0929862	-2.59074
H	-0.511289	-0.184778	-3.11685
H	1.17816	0.367164	-3.10773
N	-0.814247	-0.268853	-0.511313
C	-0.855312	-0.274543	0.847035
O	-1.87756	-0.605147	1.42072
N	0.253568	0.0917474	1.56997
C	1.39794	0.461913	0.936732
H	0.222649	0.0875994	2.6147
C	1.45172	0.471556	-0.455973
H	2.2682	0.749424	1.51312
H	2.36105	0.765657	-0.964914
C	7.24541	0.874853	0.609315
O	8.15115	1.67109	0.912583
N	6.50808	0.223815	1.66652
C	5.47827	-0.681875	1.49805
H	6.81526	0.492568	2.59334
N	4.8918	-1.20077	2.6157
H	5.17248	-0.955289	3.54883
H	4.14318	-1.85983	2.48252
N	5.04181	-1.06364	0.30419
C	5.70837	-0.475293	-0.731474
C	6.75874	0.448918	-0.669273
N	7.16645	0.810535	-1.95533
C	6.38372	0.123282	-2.77003
N	5.47487	-0.678016	-2.07244
H	6.41644	0.154152	-3.84601
H	4.77505	-1.29314	-2.45543
