29
  This energy is 0.0044693 and Call times are: 8214
C	0.372106	0.919606	-0.712721
N	1.13687	1.84564	-1.45962
H	2.16416	1.77053	-1.48053
H	0.677432	2.60165	-1.9883
N	0.995571	-0.0714388	-0.0213364
C	0.283857	-0.973788	0.703963
O	0.864587	-1.8528	1.3151
N	-1.0866	-0.893774	0.746979
C	-1.74166	0.0844142	0.0675346
H	-1.63458	-1.58746	1.30461
C	-1.02218	1.01537	-0.679648
H	-2.82217	0.141357	0.106033
H	-1.53953	1.7964	-1.22256
C	5.80706	0.214087	-0.527403
O	4.62898	0.176162	-0.923663
N	6.53981	1.45327	-0.640062
C	7.84867	1.65978	-0.248378
H	5.99686	2.20387	-1.04918
N	8.38386	2.90183	-0.430582
H	7.8727	3.66761	-0.833143
H	9.33779	3.04201	-0.142633
N	8.59848	0.707265	0.292058
C	7.95024	-0.487052	0.420378
C	6.63411	-0.799256	0.0575677
N	6.35057	-2.13442	0.35402
C	7.46485	-2.61369	0.88071
N	8.47324	-1.64732	0.943872
H	7.61112	-3.62218	1.22902
H	9.40948	-1.75578	1.29954
