29
  This energy is -0.00266385 and Call times are: 9316
C	0.335904	0.0755311	-1.172
N	1.0609	0.203261	-2.3796
H	2.08218	0.337249	-2.35821
H	0.578199	0.163937	-3.28932
N	0.989697	0.129841	0.0190106
C	0.316445	0.00981949	1.19339
O	0.923841	0.0616531	2.24779
N	-1.04527	-0.16944	1.19005
C	-1.72992	-0.228302	0.0172828
H	-1.56367	-0.26183	2.09291
C	-1.05001	-0.10643	-1.19328
H	-2.80332	-0.369803	0.0223108
H	-1.59103	-0.15267	-2.13007
C	7.01514	-0.0859447	-0.802201
O	8.11605	0.0269865	-1.36927
N	6.14194	-1.16981	-1.18685
C	4.89334	-1.43234	-0.656541
H	6.53033	-1.75838	-1.91371
N	4.20327	-2.50484	-1.14222
H	4.55977	-3.10827	-1.86232
H	3.29477	-2.68737	-0.749984
N	4.34399	-0.689732	0.296513
C	5.13163	0.351001	0.695985
C	6.40341	0.702111	0.226298
N	6.87394	1.83498	0.894228
C	5.91246	2.15783	1.74278
N	4.82532	1.28246	1.66157
H	5.93279	2.98874	2.42757
H	3.97186	1.30835	2.19612
