29
  This energy is -0.000905328 and Call times are: 8742
C	1.11147	-0.429875	0.268247
N	2.28877	-1.20779	0.363509
H	2.35539	-2.1083	-0.132529
H	3.08861	-0.884169	0.927117
N	0.0661718	-0.872834	-0.480107
C	-1.07604	-0.144442	-0.587944
O	-1.99903	-0.561864	-1.26414
N	-1.18817	1.05907	0.0642808
C	-0.162343	1.53138	0.820714
H	-2.06637	1.61978	-0.0182471
C	1.01388	0.79299	0.938609
H	-0.257812	2.48094	1.33204
H	1.83378	1.16508	1.54004
C	7.81381	1.14495	0.816952
O	7.70944	2.14202	1.55268
N	6.61585	0.563803	0.258077
C	6.56104	-0.538675	-0.573008
H	5.76994	1.04811	0.532793
N	5.33585	-0.952436	-1.00895
H	4.47808	-0.49457	-0.755307
H	5.30643	-1.75645	-1.6133
N	7.642	-1.20471	-0.959642
C	8.80355	-0.693828	-0.456778
C	8.96734	0.411473	0.387492
N	10.3199	0.608907	0.674969
C	10.9537	-0.350789	0.0222699
N	10.0727	-1.17431	-0.685183
H	12.0191	-0.507173	0.0155219
H	10.2996	-1.9712	-1.25815
