29
  This energy is -0.00309811 and Call times are: 2665
C	-0.589479	0.983302	-0.421594
N	-1.30065	1.91387	-1.2144
H	-1.57127	1.67191	-2.17857
H	-1.55461	2.83921	-0.838396
N	-0.263021	-0.232942	-0.934494
C	0.419875	-1.14483	-0.193584
O	0.70105	-2.22782	-0.674694
N	0.791447	-0.844898	1.0942
C	0.481184	0.361632	1.63791
H	1.31667	-1.54578	1.66458
C	-0.218896	1.30469	0.887483
H	0.777339	0.591156	2.6537
H	-0.468329	2.26717	1.31624
C	5.90699	1.41748	0.341118
O	6.00119	2.56532	0.810093
N	5.13654	1.21896	-0.863953
C	4.93562	0.0134081	-1.50849
H	4.73054	2.07354	-1.22512
N	4.17525	0.0113769	-2.6417
H	3.75846	0.84097	-3.02617
H	4.03436	-0.871505	-3.10345
N	5.44733	-1.13118	-1.07301
C	6.18606	-0.997056	0.0668804
C	6.44946	0.170833	0.79349
N	7.24872	-0.11517	1.90269
C	7.46102	-1.41919	1.84631
N	6.83339	-2.00569	0.743209
H	8.04246	-1.99126	2.54947
H	6.83952	-2.97661	0.474732
