29
  This energy is 0.00317052 and Call times are: 8831
C	0.725797	-0.946151	0.264814
N	1.78645	-1.87996	0.322009
H	2.62139	-1.75128	-0.267674
H	1.73607	-2.69499	0.950759
N	0.809802	0.12328	-0.57074
C	-0.195416	1.03484	-0.644462
O	-0.0974403	1.98472	-1.40045
N	-1.31835	0.884348	0.131939
C	-1.43481	-0.173137	0.977961
H	-2.09182	1.58507	0.0757281
C	-0.410239	-1.11431	1.06197
H	-2.32291	-0.285344	1.58699
H	-0.49843	-1.95838	1.73441
C	7.26007	1.32779	0.352702
O	6.67356	2.41363	0.505369
N	8.46965	1.07875	1.10109
C	9.2355	-0.0699661	1.04551
H	8.7329	1.84827	1.70452
N	10.3533	-0.133421	1.82573
H	10.6422	0.611723	2.43488
H	10.9046	-0.973852	1.77779
N	8.93022	-1.10338	0.270632
C	7.79217	-0.917222	-0.459612
C	6.94932	0.201099	-0.476181
N	5.8866	-0.0026785	-1.35937
C	6.0835	-1.21017	-1.8613
N	7.23461	-1.81198	-1.34411
H	5.45231	-1.70017	-2.58328
H	7.6045	-2.72338	-1.56168
