29
  This energy is 0.00175818 and Call times are: 8412
C	1.14842	0.407988	-0.0823163
N	2.40165	1.01822	0.157088
H	2.57021	1.52559	1.03775
H	3.15592	0.962373	-0.54297
N	0.164965	0.491995	0.852906
C	-1.0479	-0.0855034	0.647294
O	-1.91329	0.00318073	1.49972
N	-1.29603	-0.767105	-0.519012
C	-0.335173	-0.870304	-1.47489
H	-2.22863	-1.2115	-0.677771
C	0.912474	-0.282059	-1.27499
H	-0.537865	-1.40915	-2.39183
H	1.68107	-0.361551	-2.03351
C	9.90822	-0.37955	0.018126
O	11.0428	-0.873377	-0.105013
N	9.74546	0.793191	0.844794
C	8.55834	1.45888	1.08303
H	10.6113	1.11272	1.26162
N	8.59005	2.55521	1.89506
H	9.43162	2.89817	2.3239
H	7.72036	3.03275	2.0628
N	7.40006	1.0776	0.559025
C	7.50032	-0.029852	-0.232534
C	8.64731	-0.773611	-0.536746
N	8.3281	-1.83666	-1.38466
C	7.02493	-1.73654	-1.5858
N	6.47091	-0.648881	-0.90404
H	6.43157	-2.39679	-2.19551
H	5.50738	-0.355213	-0.891533
