29
  This energy is 0.00259241 and Call times are: 10584
C	-0.111237	-0.187624	1.20189
N	-0.316416	-0.0428589	2.59372
H	-0.559912	0.877363	2.98782
H	-0.225095	-0.851891	3.22559
N	-0.23606	0.891036	0.383473
C	-0.0441219	0.778626	-0.957182
O	-0.161474	1.75908	-1.67016
N	0.281271	-0.437855	-1.50555
C	0.413951	-1.53647	-0.716222
H	0.429015	-0.524997	-2.53657
C	0.219469	-1.43316	0.660047
H	0.670657	-2.49219	-1.15545
H	0.324056	-2.30547	1.29292
C	7.03533	0.633394	-0.8347
O	6.3323	1.33027	-1.58733
N	6.46409	-0.559853	-0.25587
C	7.10879	-1.43682	0.595277
H	5.50314	-0.718976	-0.533028
N	6.41176	-2.5188	1.04894
H	5.45806	-2.70559	0.793357
H	6.88982	-3.15121	1.66866
N	8.36631	-1.26976	0.985527
C	8.9528	-0.152691	0.464702
C	8.39137	0.794421	-0.40079
N	9.32235	1.79094	-0.702732
C	10.4145	1.45394	-0.0376069
N	10.2414	0.273765	0.69173
H	11.3422	2.00082	-0.0363045
H	10.9149	-0.193324	1.27735
