29
  This energy is -0.00104056 and Call times are: 1677
C	-0.584698	0.997513	0.39396
N	-1.20639	1.99517	1.18037
H	-1.24789	1.89512	2.20491
H	-1.62248	2.82867	0.739606
N	-0.0410117	-0.0954266	0.992942
C	0.561953	-1.06816	0.260098
O	1.04184	-2.03802	0.819089
N	0.629435	-0.956802	-1.10719
C	0.0961501	0.122654	-1.73804
H	1.09304	-1.70457	-1.6714
C	-0.524687	1.12648	-0.996749
H	0.153047	0.203735	-2.81619
H	-0.950967	1.98826	-1.49478
C	7.58769	1.37088	-0.237865
O	8.17007	2.45843	-0.39406
N	6.15656	1.31489	-0.422058
C	5.36499	0.190517	-0.286566
H	5.74967	2.20791	-0.672149
N	4.02333	0.321828	-0.4988
H	3.58829	1.19269	-0.747986
H	3.45538	-0.502584	-0.397208
N	5.85304	-0.999984	0.0391263
C	7.20527	-1.00032	0.225017
C	8.0932	0.0768528	0.11284
N	9.39939	-0.338258	0.382098
C	9.30146	-1.62967	0.649299
N	7.98173	-2.08383	0.566935
H	10.12	-2.28171	0.903368
H	7.64073	-3.01875	0.723298
