29
  This energy is -0.00813143 and Call times are: 4344
C	0.426642	0.949641	-0.638958
N	0.576637	2.17558	-1.32803
H	-0.216492	2.82921	-1.39965
H	1.47608	2.4272	-1.76373
N	-0.767582	0.634509	-0.0702648
C	-0.937753	-0.536933	0.597265
O	-2.01686	-0.797248	1.09843
N	0.105052	-1.42417	0.705855
C	1.31223	-1.14055	0.149183
H	-0.0251561	-2.32529	1.21913
C	1.4984	0.0577917	-0.537782
H	2.12977	-1.84471	0.238772
H	2.45819	0.288162	-0.98292
C	6.14351	-0.347657	-1.22779
O	5.35193	-0.618671	-2.14773
N	7.56116	-0.363524	-1.50204
C	8.56572	-0.0873662	-0.59443
H	7.78098	-0.604544	-2.46077
N	9.85767	-0.150443	-1.02943
H	10.1096	-0.386253	-1.97319
H	10.582	0.0518311	-0.360849
N	8.32613	0.233006	0.671081
C	6.99736	0.26161	0.981918
C	5.90762	-5.84759e-05	0.142094
N	4.70774	0.135972	0.84403
C	5.06433	0.470172	2.0728
N	6.45279	0.560343	2.20992
H	4.3914	0.657326	2.89248
H	6.97637	0.796557	3.03749
