29
  This energy is -0.00218568 and Call times are: 7750
C	0.183992	-0.581302	-1.05846
N	0.471535	-0.912106	-2.40314
H	0.733764	-0.174325	-3.07271
H	0.422171	-1.8895	-2.72624
N	0.25431	0.713754	-0.650079
C	-0.0171037	1.05796	0.636268
O	0.0525528	2.22471	0.978651
N	-0.368897	0.0918553	1.54693
C	-0.448705	-1.21229	1.17221
H	-0.577757	0.355907	2.53642
C	-0.172572	-1.57707	-0.144343
H	-0.726654	-1.96849	1.89549
H	-0.234812	-2.61465	-0.447598
C	6.93947	-0.695493	-1.2215
O	7.04985	-1.34538	-2.27592
N	8.11696	-0.0784402	-0.657636
C	8.16283	0.672366	0.501394
H	8.95503	-0.243109	-1.20179
N	9.36846	1.18174	0.887822
H	10.218	1.03712	0.371042
H	9.39156	1.72664	1.73345
N	7.09151	0.914738	1.24644
C	5.94945	0.351411	0.755093
C	5.79607	-0.421732	-0.402504
N	4.46325	-0.810255	-0.555974
C	3.83088	-0.286018	0.480376
N	4.69384	0.433679	1.31229
H	2.77862	-0.382915	0.687994
H	4.46412	0.925717	2.16078
