29
  This energy is 0.00116376 and Call times are: 9052
C	0.974537	0.73328	-0.0684654
N	1.9525	1.72992	0.156352
H	1.86368	2.3703	0.958499
H	2.76035	1.82604	-0.476324
N	-0.0845846	0.621305	0.776883
C	-1.03783	-0.327678	0.583035
O	-1.97745	-0.40863	1.35372
N	-0.940881	-1.19264	-0.47944
C	0.104845	-1.10839	-1.3437
H	-1.67368	-1.92274	-0.629092
C	1.08844	-0.139118	-1.15486
H	0.174747	-1.7936	-2.17906
H	1.92334	-0.0680848	-1.84065
C	8.44989	-0.11544	-1.34602
O	9.05796	-0.370265	-2.40036
N	7.39579	0.87118	-1.37143
C	6.62883	1.26627	-0.292156
H	7.24871	1.27666	-2.28769
N	5.67179	2.21673	-0.499624
H	5.5004	2.6387	-1.39535
H	5.1189	2.49808	0.29265
N	6.78503	0.763354	0.926136
C	7.77226	-0.176032	1.0035
C	8.60152	-0.644672	-0.0231516
N	9.48512	-1.60941	0.466194
C	9.1966	-1.7191	1.75206
N	8.15691	-0.864665	2.13117
H	9.68458	-2.37752	2.4507
H	7.75085	-0.75642	3.0467
