29
  This energy is -0.0041487 and Call times are: 4101
C	-0.238373	-0.718327	0.958798
N	-0.294501	-1.78476	1.88606
H	0.223642	-2.65643	1.70403
H	-0.85131	-1.70211	2.74935
N	0.501561	-0.845322	-0.174895
C	0.572041	0.164384	-1.08173
O	1.24142	0.027342	-2.08997
N	-0.110139	1.33581	-0.860812
C	-0.859182	1.49606	0.262063
H	-0.0563488	2.11277	-1.55786
C	-0.93888	0.467359	1.1991
H	-1.39427	2.42226	0.429588
H	-1.53427	0.590311	2.09509
C	5.62459	0.918467	1.02853
O	5.36691	1.59148	2.04193
N	4.92519	1.21405	-0.199749
C	5.09522	0.562898	-1.4065
H	4.26363	1.97561	-0.110663
N	4.34575	0.976662	-2.46925
H	3.68118	1.72839	-2.41449
H	4.47647	0.495854	-3.34348
N	5.94963	-0.439342	-1.57098
C	6.63743	-0.758532	-0.436022
C	6.54054	-0.165138	0.828811
N	7.41635	-0.782214	1.72497
C	8.02411	-1.72153	1.01995
N	7.58411	-1.74894	-0.306839
H	8.77244	-2.40043	1.39259
H	7.88673	-2.36528	-1.04396
