29
  This energy is -0.00230811 and Call times are: 9713
C	-0.543461	1.08983	-0.0950594
N	-1.22975	2.23864	-0.55276
H	-1.5623	2.28892	-1.52656
H	-1.40377	3.0338	0.0793567
N	-0.322944	0.0502726	-0.943346
C	0.333861	-1.06475	-0.52843
O	0.519546	-1.98313	-1.30656
N	0.786596	-1.1547	0.765153
C	0.583081	-0.133855	1.63926
H	1.29181	-2.01199	1.08491
C	-0.0892662	1.01457	1.22492
H	0.942783	-0.211723	2.65748
H	-0.253779	1.83041	1.91757
C	8.12902	-0.0657262	-1.0792
O	9.08106	0.0296815	-1.87346
N	7.03443	-0.948523	-1.40746
C	5.90877	-1.16587	-0.636228
H	7.15588	-1.42508	-2.29274
N	4.96991	-2.03872	-1.10422
H	5.05983	-2.52747	-1.9776
H	4.1536	-2.18982	-0.535584
N	5.7064	-0.564838	0.529693
C	6.71517	0.282732	0.886172
C	7.89035	0.57202	0.181501
N	8.66758	1.49321	0.887377
C	7.97992	1.7521	1.98685
N	6.77897	1.03785	2.03488
H	8.28041	2.42672	2.77065
H	6.07959	1.05602	2.75968
