29
  This energy is 0.000965657 and Call times are: 1360
C	0.141684	-1.07262	-0.567021
N	0.563003	-2.12622	-1.41122
H	1.30698	-1.96665	-2.10581
H	0.132762	-3.0601	-1.34126
N	0.720855	0.152979	-0.673563
C	0.334231	1.18191	0.125591
O	0.867757	2.27084	0.0116643
N	-0.655591	0.993206	1.0589
C	-1.25559	-0.219195	1.19185
H	-0.953405	1.78414	1.67384
C	-0.86729	-1.28176	0.377723
H	-2.03517	-0.360636	1.92974
H	-1.3423	-2.2494	0.479897
C	7.38031	1.43327	-0.141986
O	7.66455	2.59935	-0.467242
N	6.76207	1.19979	1.14194
C	6.38659	-0.029236	1.64956
H	6.6138	2.04784	1.67524
N	5.81296	-0.0633334	2.88734
H	5.65184	0.75896	3.44199
H	5.54351	-0.963091	3.24842
N	6.56059	-1.16645	0.987722
C	7.14339	-0.999477	-0.235202
C	7.55879	0.194034	-0.838756
N	8.1087	-0.0618208	-2.09696
C	8.02717	-1.37308	-2.24753
N	7.44481	-1.99333	-1.13808
H	8.35999	-1.92772	-3.10855
H	7.26941	-2.97606	-1.00281
