29
  This energy is -0.00246433 and Call times are: 5006
C	-0.924503	-0.500476	0.622035
N	-1.80939	-0.944229	1.63214
H	-1.60888	-0.740079	2.62185
H	-2.65987	-1.47382	1.3906
N	0.192834	0.19705	0.959535
C	1.05905	0.634622	0.00820521
O	2.05334	1.25759	0.334849
N	0.812901	0.374491	-1.31775
C	-0.294627	-0.320113	-1.68991
H	1.4787	0.710752	-2.04992
C	-1.19005	-0.773848	-0.722977
H	-0.482222	-0.521485	-2.73704
H	-2.07367	-1.32758	-1.01454
C	7.91869	-0.367638	-0.712117
O	8.93339	-0.882905	-1.21333
N	7.58165	0.991507	-1.06471
C	6.49408	1.70442	-0.597694
H	8.23479	1.41015	-1.71566
N	6.32973	2.98519	-1.03922
H	6.95887	3.42981	-1.6844
H	5.53504	3.49618	-0.69295
N	5.61221	1.198	0.255191
C	5.88691	-0.0880466	0.620844
C	6.9551	-0.894319	0.208297
N	6.87845	-2.15138	0.812331
C	5.79431	-2.10406	1.56806
N	5.1518	-0.864992	1.48673
H	5.42337	-2.90571	2.18411
H	4.31202	-0.573848	1.96088
