29
  This energy is 0.00266832 and Call times are: 7280
C	-0.746175	0.815196	0.520371
N	-1.74857	1.77847	0.78033
H	-2.36821	2.09797	0.0217911
H	-1.86953	2.16927	1.72625
N	-0.601299	0.310623	-0.733944
C	0.353913	-0.615786	-1.00993
O	0.464545	-1.0532	-2.14122
N	1.19173	-1.05692	-0.0149997
C	1.07427	-0.573369	1.2499
H	1.92659	-1.76941	-0.226586
C	0.0983001	0.377011	1.54466
H	1.73822	-0.925704	2.02917
H	0.000862563	0.765169	2.55076
C	6.8202	-0.125622	-1.11676
O	6.09349	-0.0192945	-2.12022
N	6.79171	-1.35762	-0.364066
C	7.53412	-1.6334	0.768165
H	6.15359	-2.04533	-0.745433
N	7.37977	-2.85638	1.35368
H	6.75571	-3.56054	1.00087
H	7.92439	-3.0474	2.17796
N	8.38239	-0.764345	1.30363
C	8.44606	0.419643	0.627474
C	7.74101	0.797208	-0.522159
N	8.09031	2.09458	-0.90393
C	8.981	2.48812	-0.0092063
N	9.23378	1.50141	0.948519
H	9.4715	3.44668	0.00829943
H	9.8659	1.54986	1.73138
