29
  This energy is 0.00156288 and Call times are: 7816
C	-0.738239	-0.887519	-0.399276
N	-1.27856	-2.04441	-1.00748
H	-0.667554	-2.68551	-1.53387
H	-2.28395	-2.25769	-0.931231
N	0.590742	-0.622282	-0.510403
C	1.13468	0.482435	0.0645461
O	2.32786	0.698957	-0.0486716
N	0.340058	1.35172	0.771185
C	-0.99234	1.1167	0.901838
H	0.757769	2.20154	1.21363
C	-1.56123	-0.0130542	0.31648
H	-1.61261	1.80633	1.46032
H	-2.62211	-0.204536	0.417794
C	10.1993	-0.226681	1.38402
O	9.68963	-0.546139	2.47238
N	11.3671	0.62273	1.38486
C	12.0483	1.06564	0.267334
H	11.6699	0.886317	2.31457
N	13.1369	1.86672	0.455973
H	13.4635	2.14646	1.36419
H	13.6259	2.18444	-0.364058
N	11.689	0.746404	-0.969818
C	10.5871	-0.0572783	-1.02512
C	9.82899	-0.558749	0.0402647
N	8.7783	-1.34552	-0.437184
C	8.89966	-1.31888	-1.75373
N	9.98948	-0.545421	-2.16456
H	8.25372	-1.8214	-2.45372
H	10.2974	-0.365577	-3.1067
