29
  This energy is 0.00157707 and Call times are: 7056
C	0.341038	-0.285903	-1.13757
N	0.603991	-0.278965	-2.5272
H	0.357882	0.543883	-3.0962
H	1.04229	-1.09252	-2.98343
N	-0.237836	0.796606	-0.552787
C	-0.500979	0.815159	0.780345
O	-1.02012	1.79627	1.28165
N	-0.181907	-0.270113	1.55932
C	0.397642	-1.36857	1.00695
H	-0.384013	-0.256487	2.58469
C	0.672177	-1.3989	-0.359182
H	0.646409	-2.22044	1.62716
H	1.13374	-2.27167	-0.803765
C	7.52737	0.928667	-0.0688544
O	6.65489	1.80405	0.0683657
N	7.4637	0.0565322	-1.21799
C	8.35104	-0.96033	-1.51429
H	6.67885	0.25313	-1.82703
N	8.13615	-1.68832	-2.64839
H	7.36782	-1.51914	-3.27353
H	8.78753	-2.4269	-2.85514
N	9.39322	-1.25436	-0.746856
C	9.49819	-0.456526	0.355645
C	8.65821	0.594244	0.745036
N	9.10969	1.16239	1.93848
C	10.1916	0.473133	2.25959
N	10.4725	-0.527944	1.32488
H	10.8051	0.637446	3.12928
H	11.2348	-1.18635	1.33718
