29
  This energy is -0.00956594 and Call times are: 6395
C	-0.797233	0.305743	-0.873527
N	-1.89961	0.362168	-1.75774
H	-2.64679	-0.344703	-1.69883
H	-1.96724	1.10694	-2.46687
N	-0.724902	-0.684195	0.0558178
C	0.323567	-0.760769	0.917026
O	0.366402	-1.65667	1.74099
N	1.33163	0.170193	0.85751
C	1.29071	1.17287	-0.0593123
H	2.13828	0.111879	1.51958
C	0.220369	1.26141	-0.947654
H	2.08891	1.90321	-0.100432
H	0.18334	2.05832	-1.67975
C	5.96044	-0.224741	1.13387
O	5.03478	-0.366006	1.95212
N	7.31869	-0.436627	1.57597
C	8.45292	-0.320211	0.795492
H	7.3865	-0.691465	2.55374
N	9.66188	-0.557774	1.38226
H	9.76378	-0.812325	2.349
H	10.4819	-0.469931	0.805704
N	8.41338	0.010766	-0.489207
C	7.14867	0.222639	-0.956841
C	5.94084	0.131228	-0.253922
N	4.86446	0.424159	-1.09448
C	5.40838	0.685038	-2.27126
N	6.80189	0.575752	-2.24092
H	4.87111	0.952593	-3.16541
H	7.44831	0.722348	-2.99951
