29
  This energy is 0.000435149 and Call times are: 10606
C	0.555111	1.08293	0.105904
N	1.25495	2.28835	-0.133793
H	1.59157	2.51146	-1.08159
H	1.43492	2.95319	0.632843
N	0.326814	0.217704	-0.917888
C	-0.343031	-0.947023	-0.714058
O	-0.53551	-1.70625	-1.64675
N	-0.801296	-1.2661	0.540774
C	-0.590287	-0.423783	1.58651
H	-1.31655	-2.16173	0.698218
C	0.0954539	0.773507	1.38937
H	-0.954403	-0.681861	2.57295
H	0.265986	1.44772	2.21929
C	10.059	-0.0917621	-1.29799
O	10.5868	0.0564947	-2.41413
N	10.0004	-1.41642	-0.72611
C	9.4505	-1.74778	0.497382
H	10.4144	-2.12666	-1.31751
N	9.48229	-3.05707	0.880913
H	9.88518	-3.78565	0.318233
H	9.07883	-3.28831	1.77327
N	8.89765	-0.852069	1.30584
C	8.92749	0.419108	0.809567
C	9.45738	0.858373	-0.410091
N	9.2902	2.23849	-0.54522
C	8.67647	2.62044	0.562107
N	8.43185	1.54664	1.42341
H	8.38596	3.62919	0.802502
H	7.9815	1.56927	2.32423
