29
  This energy is -0.00374519 and Call times are: 5639
C	-0.566386	-0.824227	0.701402
N	-1.49408	-1.52783	1.50426
H	-2.41679	-1.11775	1.70882
H	-1.25855	-2.45345	1.89142
N	-0.894582	0.395973	0.19912
C	-0.0212922	1.09244	-0.574917
O	-0.337813	2.18368	-1.01356
N	1.21464	0.566182	-0.86116
C	1.57493	-0.651045	-0.375215
H	1.88676	1.10131	-1.45642
C	0.68752	-1.37438	0.419702
H	2.55089	-1.05964	-0.604963
H	0.96999	-2.34442	0.809109
C	5.12435	0.202462	1.34543
O	4.76312	0.167227	2.5348
N	4.80957	1.37034	0.556647
C	5.13795	1.56444	-0.771379
H	4.30265	2.07824	1.07382
N	4.75814	2.73505	-1.36107
H	4.25472	3.45726	-0.876559
H	5.00149	2.86669	-2.32854
N	5.80098	0.666116	-1.48899
C	6.12266	-0.459546	-0.787226
C	5.83901	-0.753263	0.552394
N	6.34061	-2.01181	0.892106
C	6.9106	-2.46416	-0.212078
N	6.80523	-1.5536	-1.26778
H	7.40487	-3.41497	-0.318902
H	7.15362	-1.65629	-2.2074
