29
  This energy is -0.00319099 and Call times are: 3801
C	0.180939	0.971135	0.718518
N	0.601728	1.8566	1.7379
H	1.23387	1.52653	2.48145
H	0.282367	2.83642	1.7481
N	0.612589	-0.318269	0.721222
C	0.223042	-1.18903	-0.246691
O	0.622877	-2.33924	-0.223253
N	-0.61929	-0.772024	-1.24819
C	-1.06961	0.510057	-1.28095
H	-0.919263	-1.44122	-1.99292
C	-0.676771	1.41193	-0.293577
H	-1.73342	0.831755	-2.07347
H	-1.03286	2.43425	-0.315428
C	6.83294	1.44744	0.121275
O	6.74943	2.68807	0.107402
N	7.96366	0.833178	0.776514
C	8.20232	-0.523889	0.879359
H	8.60652	1.50425	1.17896
N	9.32747	-0.928782	1.53694
H	9.98512	-0.289368	1.94732
H	9.49262	-1.91898	1.60603
N	7.38894	-1.43985	0.368483
C	6.30183	-0.90902	-0.263547
C	5.96895	0.441996	-0.422471
N	4.77202	0.568874	-1.13112
C	4.39404	-0.671164	-1.39222
N	5.2944	-1.61214	-0.88364
H	3.5054	-0.95631	-1.92959
H	5.2379	-2.61596	-0.946469
