29
  This energy is 0.00246256 and Call times are: 1610
C	-0.886094	0.621851	0.565904
N	-1.71319	1.63275	1.10836
H	-1.464	2.62511	0.987839
H	-2.5696	1.38914	1.62735
N	0.240046	0.96211	-0.115948
C	1.05159	0.0100937	-0.646878
O	2.05505	0.339255	-1.25361
N	0.740051	-1.31938	-0.499068
C	-0.378111	-1.69436	0.176727
H	1.36378	-2.05208	-0.907169
C	-1.21786	-0.726762	0.725534
H	-0.617398	-2.74426	0.289313
H	-2.10969	-1.02056	1.26472
C	6.84284	0.436791	0.30789
O	5.65912	0.59721	0.653462
N	7.54135	1.53658	-0.314792
C	8.85136	1.52056	-0.753861
H	6.9722	2.36847	-0.412809
N	9.35087	2.65637	-1.32199
H	8.81325	3.49789	-1.43404
H	10.3056	2.63449	-1.639
N	9.6349	0.454689	-0.646464
C	9.01982	-0.615019	-0.0629681
C	7.70587	-0.702081	0.413746
N	7.46218	-1.97202	0.941758
C	8.59762	-2.63211	0.787445
N	9.58177	-1.84782	0.178298
H	8.77592	-3.65186	1.0842
H	10.5267	-2.11208	-0.0500062
