29
  This energy is -0.00522146 and Call times are: 10049
C	0.402819	-1.09077	0.374266
N	0.796003	-2.21198	1.14143
H	0.729376	-2.18474	2.16916
H	1.15157	-3.06395	0.683324
N	-0.0639925	0.0247723	0.995998
C	-0.448187	1.11536	0.281964
O	-0.863122	2.10315	0.861173
N	-0.368363	1.10256	-1.08912
C	0.0936585	0.00381412	-1.74249
H	-0.663696	1.94099	-1.63888
C	0.490511	-1.12048	-1.02063
H	0.153829	0.000869733	-2.82351
H	0.859232	-1.99809	-1.53662
C	5.10712	-1.44379	-0.0052027
O	5.14119	-2.67445	0.169895
N	5.88234	-0.872043	-1.08099
C	5.95219	0.469032	-1.40627
H	6.40088	-1.56151	-1.6114
N	6.73949	0.832853	-2.45989
H	7.26634	0.174348	-3.00629
H	6.78414	1.81177	-2.68851
N	5.29092	1.40785	-0.740764
C	4.54115	0.917595	0.28907
C	4.40227	-0.414237	0.699245
N	3.54165	-0.499115	1.79609
C	3.17219	0.746909	2.04034
N	3.755	1.65146	1.14767
H	2.50436	1.0611	2.82458
H	3.6373	2.65152	1.11884
