29
  This energy is 0.000619526 and Call times are: 4740
C	0.574311	-0.8563	-0.655001
N	1.51734	-1.60422	-1.39767
H	2.45936	-1.22412	-1.56952
H	1.27389	-2.53262	-1.77309
N	0.913292	0.36689	-0.167366
C	0.0256877	1.10551	0.549177
O	0.352297	2.19854	0.975783
N	-1.23602	0.619698	0.79104
C	-1.6077	-0.599257	0.318184
H	-1.91915	1.18726	1.34207
C	-0.705801	-1.36563	-0.417927
H	-2.60399	-0.975828	0.512718
H	-0.997261	-2.33723	-0.796689
C	8.5067	-0.353129	-1.33947
O	8.98412	-0.442568	-2.48421
N	7.79516	-1.484	-0.791715
C	7.20869	-1.54507	0.457879
H	7.75355	-2.27494	-1.4228
N	6.57379	-2.69993	0.812184
H	6.51449	-3.50227	0.21011
H	6.14945	-2.73432	1.72394
N	7.23771	-0.534857	1.31822
C	7.90039	0.561305	0.846682
C	8.5259	0.724754	-0.395624
N	9.09312	1.99752	-0.49192
C	8.81703	2.58494	0.660225
N	8.08978	1.74995	1.51381
H	9.10315	3.585	0.939112
H	7.75749	1.95632	2.44215
