29
  This energy is -0.0108302 and Call times are: 173
C	0.710364	-0.324191	-0.939357
N	1.67152	-0.360318	-1.97625
H	2.28003	0.453461	-2.1462
H	1.7732	-1.19653	-2.57
N	0.590477	0.787729	-0.165955
C	-0.324994	0.847863	0.836606
O	-0.41383	1.85473	1.51611
N	-1.1473	-0.224514	1.08204
C	-1.05397	-1.35154	0.327926
H	-1.85159	-0.178921	1.85296
C	-0.118811	-1.4246	-0.702971
H	-1.70549	-2.19301	0.52713
H	-0.0407216	-2.32023	-1.30641
C	5.30308	0.370384	-0.659896
O	4.33568	0.593047	-1.40883
N	5.22375	0.784064	0.721324
C	6.20645	0.611351	1.67717
H	4.34759	1.23516	0.954646
N	5.95972	1.06692	2.93967
H	5.10174	1.51839	3.20387
H	6.68171	0.93691	3.62842
N	7.36932	0.0262972	1.41832
C	7.49442	-0.383903	0.122498
C	6.56484	-0.257881	-0.91736
N	7.07491	-0.806696	-2.09616
C	8.27852	-1.25101	-1.77577
N	8.58336	-1.01727	-0.431461
H	8.96627	-1.73867	-2.44581
H	9.42981	-1.25698	0.0593157
