29
  This energy is -0.000856813 and Call times are: 5448
C	1.20054	0.223964	0.0255368
N	2.60907	0.115742	0.0932594
H	3.05223	-0.807574	0.20513
H	3.20442	0.95474	0.031795
N	0.430994	-0.893995	0.108345
C	-0.924381	-0.817196	0.0459656
O	-1.59273	-1.83251	0.122388
N	-1.5378	0.402632	-0.10289
C	-0.798537	1.54004	-0.188897
H	-2.58017	0.462395	-0.150946
C	0.592233	1.47347	-0.126129
H	-1.28892	2.49816	-0.306154
H	1.18539	2.37676	-0.194183
C	8.81745	0.325192	0.734525
O	9.95618	0.45506	1.21699
N	7.72835	1.08055	1.30765
C	6.41172	1.04933	0.889707
H	8.01251	1.66892	2.08137
N	5.51068	1.83264	1.55069
H	5.75969	2.42726	2.32151
H	4.55434	1.8025	1.23916
N	5.99294	0.294747	-0.118656
C	6.98716	-0.441089	-0.695836
C	8.34386	-0.481526	-0.350818
N	9.03336	-1.36234	-1.1873
C	8.1177	-1.83965	-2.01341
N	6.85041	-1.30849	-1.75542
H	8.29374	-2.5528	-2.80093
H	5.98887	-1.50712	-2.23822
