29
  This energy is -0.000279173 and Call times are: 4410
C	-0.598924	1.06358	-0.0467748
N	-1.00142	2.41193	0.0954388
H	-0.408519	3.07703	0.61266
H	-1.88743	2.74217	-0.314512
N	0.573431	0.645779	0.500867
C	0.98286	-0.644274	0.378549
O	2.03696	-0.995112	0.877735
N	0.209248	-1.54915	-0.306395
C	-0.968306	-1.16497	-0.866189
H	0.523565	-2.54147	-0.400847
C	-1.39833	0.155455	-0.747173
H	-1.57297	-1.88374	-1.40469
H	-2.33562	0.46623	-1.19138
C	8.03025	-1.20954	-0.572525
O	8.44888	-2.34215	-0.869653
N	8.25822	-0.119789	-1.49212
C	7.85916	1.19064	-1.31135
H	8.75929	-0.398332	-2.32694
N	8.1614	2.09339	-2.28912
H	8.65682	1.84989	-3.12878
H	7.86697	3.04518	-2.14792
N	7.20067	1.60196	-0.234887
C	6.95992	0.60681	0.667771
C	7.31903	-0.744045	0.58096
N	6.887	-1.43693	1.71419
C	6.2844	-0.528936	2.46328
N	6.30137	0.73654	1.86914
H	5.82561	-0.709443	3.42072
H	5.91319	1.59271	2.23121
