29
  This energy is 0.00671321 and Call times are: 1544
C	-0.618345	-0.947114	-0.461232
N	-1.02106	-2.09295	-1.1859
H	-0.37411	-2.53644	-1.85388
H	-1.96099	-2.49468	-1.05448
N	0.625742	-0.43098	-0.64763
C	1.03704	0.669061	0.0361654
O	2.15613	1.11317	-0.147663
N	0.192173	1.27755	0.931911
C	-1.05815	0.78765	1.14236
H	0.507884	2.12361	1.45815
C	-1.49084	-0.339972	0.446758
H	-1.71873	1.27251	1.85001
H	-2.48594	-0.733918	0.610999
C	6.8829	1.39056	-0.349968
O	6.47167	2.55273	-0.512984
N	8.09084	0.978437	-1.02542
C	8.67647	-0.270728	-0.949357
H	8.5031	1.71036	-1.59102
N	9.82253	-0.485574	-1.65838
H	10.257	0.218607	-2.22858
H	10.241	-1.3986	-1.59687
N	8.1731	-1.26004	-0.221739
C	7.02755	-0.920498	0.438184
C	6.35683	0.308874	0.428662
N	5.21922	0.249613	1.23691
C	5.20456	-0.981284	1.72004
N	6.28804	-1.73732	1.26264
H	4.46192	-1.38456	2.38757
H	6.50621	-2.69634	1.48058
