29
  This energy is 0.00459415 and Call times are: 1069
C	-0.73997	0.613142	-0.754063
N	-1.28801	1.51514	-1.6955
H	-0.69308	2.23674	-2.12766
H	-2.2831	1.46082	-1.95814
N	0.575173	0.699803	-0.41973
C	1.12612	-0.154695	0.482003
O	2.30661	-0.0575937	0.765573
N	0.352853	-1.12482	1.07135
C	-0.965279	-1.23931	0.759875
H	0.775966	-1.78234	1.76494
C	-1.54117	-0.368516	-0.163531
H	-1.56874	-2.00647	1.22842
H	-2.59076	-0.45578	-0.414868
C	7.94002	0.398725	-1.28643
O	7.28613	0.604934	-2.32385
N	9.22327	1.04283	-1.13287
C	10.0683	0.918169	-0.0467714
H	9.47558	1.62611	-1.92135
N	11.2487	1.60254	-0.0711842
H	11.5288	2.18926	-0.837366
H	11.8573	1.50483	0.724138
N	9.78033	0.166228	1.00833
C	8.57451	-0.46605	0.911901
C	7.64936	-0.407042	-0.13782
N	6.53577	-1.19991	0.148915
C	6.78291	-1.72242	1.3383
N	8.01609	-1.30559	1.84845
H	6.1336	-2.3919	1.87677
H	8.43589	-1.55763	2.72882
