29
  This energy is -0.00152395 and Call times are: 3969
C	0.425924	0.580972	-0.986493
N	0.563796	1.23884	-2.23086
H	-0.260168	1.38884	-2.83086
H	1.485	1.57358	-2.5494
N	-0.797471	0.146181	-0.582573
C	-0.956805	-0.488616	0.608424
O	-2.0626	-0.86906	0.94883
N	0.126941	-0.700032	1.42526
C	1.36407	-0.27829	1.05211
H	0.00508325	-1.18818	2.34139
C	1.5395	0.373863	-0.167127
H	2.21382	-0.448402	1.70111
H	2.52304	0.711654	-0.46872
C	7.50382	1.21961	0.621438
O	7.92593	2.34539	0.938895
N	7.34978	0.218314	1.65045
C	6.89549	-1.07314	1.4636
H	7.61246	0.546953	2.57163
N	6.81341	-1.88797	2.55523
H	7.06592	-1.59321	3.48212
H	6.48195	-2.82669	2.40873
N	6.53995	-1.54779	0.276221
C	6.66779	-0.637719	-0.732984
C	7.11511	0.686826	-0.650607
N	7.09828	1.28621	-1.91211
C	6.65334	0.348966	-2.73207
N	6.3755	-0.845976	-2.06152
H	6.51072	0.460115	-3.7937
H	6.02787	-1.70634	-2.45361
