29
  This energy is -0.00076982 and Call times are: 5705
C	0.0299373	-0.768366	-0.949119
N	-0.235506	-1.46705	-2.1498
H	-1.03952	-1.2008	-2.73639
H	0.369121	-2.24598	-2.44952
N	-0.778689	0.256799	-0.569578
C	-0.545416	0.944062	0.579371
O	-1.28365	1.85868	0.898572
N	0.52028	0.607302	1.37768
C	1.34848	-0.412198	1.02798
H	0.700256	1.13548	2.26146
C	1.11903	-1.1241	-0.148097
H	2.18662	-0.6721	1.66218
H	1.776	-1.93702	-0.430875
C	5.2945	0.841775	1.18741
O	5.25687	1.71147	2.07542
N	5.96837	-0.405357	1.46263
C	6.09814	-1.46708	0.587956
H	6.36165	-0.450923	2.39475
N	6.77098	-2.57359	1.0184
H	7.1728	-2.65086	1.93618
H	6.86054	-3.34116	0.373922
N	5.59976	-1.45311	-0.642077
C	4.95142	-0.292724	-0.95228
C	4.76484	0.835577	-0.143929
N	4.04615	1.81522	-0.832937
C	3.80636	1.29202	-2.02352
N	4.33841	0.00508276	-2.14783
H	3.26907	1.77273	-2.82351
H	4.29433	-0.605479	-2.94788
