29
  This energy is 0.00199036 and Call times are: 3735
C	-0.559413	0.82877	0.701645
N	-1.51094	1.62213	1.38387
H	-2.51793	1.44271	1.26054
H	-1.20912	2.38431	2.00847
N	-0.976173	-0.1726	-0.118391
C	-0.0823066	-0.949206	-0.785261
O	-0.479569	-1.84031	-1.51431
N	1.26522	-0.728911	-0.636731
C	1.71606	0.263659	0.175142
H	1.95322	-1.32584	-1.14933
C	0.808589	1.06645	0.864074
H	2.77975	0.431549	0.287397
H	1.16291	1.85837	1.51195
C	9.60183	-0.643964	0.898225
O	10.5712	-1.11949	1.51502
N	8.27487	-0.831112	1.43615
C	7.09994	-0.368105	0.875505
H	8.2642	-1.35498	2.30277
N	5.93006	-0.639027	1.52382
H	5.8848	-1.15564	2.38452
H	5.0799	-0.298039	1.1073
N	7.06461	0.322238	-0.257517
C	8.29692	0.526443	-0.807781
C	9.54065	0.102559	-0.323256
N	10.5637	0.514969	-1.18009
C	9.95362	1.16909	-2.15406
N	8.56761	1.205	-1.97401
H	10.4367	1.63042	-2.99879
H	7.87974	1.63777	-2.56929
