29
  This energy is -0.0141641 and Call times are: 9427
C	-0.130449	0.12444	-1.20814
N	0.0213625	0.47765	-2.56919
H	0.799861	1.08551	-2.86221
H	-0.641494	0.132749	-3.27898
N	0.753887	0.588911	-0.285587
C	0.630268	0.264305	1.02825
O	1.43478	0.692469	1.83623
N	-0.399517	-0.544514	1.44271
C	-1.30118	-1.02614	0.546817
H	-0.495157	-0.794558	2.45303
C	-1.1844	-0.699889	-0.803195
H	-2.11042	-1.66321	0.88074
H	-1.90021	-1.08112	-1.52061
C	5.25506	1.15199	-0.294028
O	4.72273	2.22	-0.643769
N	4.46105	0.179317	0.41917
C	4.90034	-1.04895	0.87476
H	3.50486	0.476434	0.570824
N	4.00848	-1.84466	1.53337
H	3.05356	-1.57997	1.7002
H	4.33813	-2.73689	1.86167
N	6.14305	-1.48075	0.699373
C	6.9362	-0.595203	0.028706
C	6.59126	0.666319	-0.472181
N	7.69047	1.25973	-1.09711
C	8.67073	0.380427	-0.976113
N	8.26198	-0.770614	-0.29585
H	9.67457	0.504989	-1.34564
H	8.81328	-1.5841	-0.0742584
