29
  This energy is 0.000905682 and Call times are: 9405
C	0.492199	-0.58125	0.954985
N	1.37625	-1.18925	1.87642
H	2.38926	-1.20333	1.6893
H	1.01878	-1.62256	2.74048
N	0.981925	-0.014443	-0.179823
C	0.153831	0.57606	-1.08115
O	0.615826	1.07719	-2.09052
N	-1.20027	0.607095	-0.85341
C	-1.72315	0.0499486	0.270767
H	-1.83771	1.0611	-1.54621
C	-0.883545	-0.558419	1.2022
H	-2.79158	0.0781513	0.443684
H	-1.29538	-1.0036	2.0992
C	6.41018	-0.171227	-0.550494
O	5.25695	-0.498978	-0.880595
N	7.00847	0.988098	-1.16953
C	8.27363	1.48143	-0.914257
H	6.40176	1.44094	-1.84215
N	8.67764	2.5929	-1.59524
H	8.10066	3.06573	-2.26851
H	9.60075	2.9441	-1.40271
N	9.10325	0.922252	-0.0421231
C	8.58357	-0.180563	0.571725
C	7.32161	-0.758746	0.386082
N	7.17387	-1.87988	1.20594
C	8.31509	-1.97491	1.86724
N	9.21079	-0.960345	1.51636
H	8.55748	-2.73068	2.59512
H	10.1409	-0.808896	1.87251
