29
  This energy is -4.6575e-05 and Call times are: 2999
C	-0.0252708	-0.0104203	-1.22121
N	-0.315473	0.234662	-2.58356
H	-1.03137	0.928513	-2.84332
H	0.183267	-0.275362	-3.32737
N	-0.693412	0.67208	-0.253395
C	-0.433366	0.455206	1.06272
O	-1.0448	1.07874	1.91169
N	0.516628	-0.464884	1.43335
C	1.20303	-1.16453	0.491577
H	0.71712	-0.632153	2.4454
C	0.944786	-0.95048	-0.861237
H	1.95051	-1.88826	0.791108
H	1.48898	-1.50539	-1.61512
C	7.35633	-0.248063	1.43428
O	7.5031	-0.491706	2.64483
N	6.03161	0.0422425	0.938283
C	5.70176	0.331693	-0.371901
H	5.32004	0.0180218	1.65847
N	4.39214	0.581858	-0.662879
H	3.66228	0.565869	0.0276274
H	4.16202	0.791113	-1.61985
N	6.59922	0.374998	-1.34876
C	7.87054	0.106693	-0.930635
C	8.30836	-0.196151	0.364703
N	9.68921	-0.406098	0.375752
C	10.073	-0.234731	-0.878074
N	8.9997	0.0803245	-1.71683
H	11.0827	-0.320343	-1.2425
H	9.02362	0.257949	-2.70814
