29
  This energy is -0.00172871 and Call times are: 6209
C	0.397556	0.700644	0.918235
N	0.514976	1.45555	2.10844
H	-0.284691	1.53222	2.75347
H	1.39695	1.93467	2.3423
N	-0.773955	0.0752378	0.626142
C	-0.912665	-0.656124	-0.510827
O	-1.97186	-1.20733	-0.751
N	0.13943	-0.772718	-1.386
C	1.32452	-0.160447	-1.1247
H	0.0334142	-1.33507	-2.26061
C	1.47836	0.592233	0.0382316
H	2.14956	-0.256735	-1.81916
H	2.42047	1.08182	0.250719
C	5.48567	-0.708737	-0.701684
O	4.68901	-1.50215	-1.23288
N	5.24354	0.709305	-0.827074
C	6.02889	1.71581	-0.298547
H	4.41024	0.927815	-1.35946
N	5.64762	3.00783	-0.51684
H	4.82722	3.25851	-1.04015
H	6.22635	3.73354	-0.128328
N	7.12862	1.47798	0.405433
C	7.40237	0.148916	0.552815
C	6.67607	-0.942704	0.0607122
N	7.28898	-2.14221	0.430127
C	8.35514	-1.78357	1.12541
N	8.47035	-0.394121	1.22981
H	9.0689	-2.45566	1.57104
H	9.1876	0.131005	1.70373
