29
  This energy is -0.000156959 and Call times are: 6373
C	-0.283595	-0.648153	0.995781
N	-0.795493	-1.09001	2.23795
H	-1.38599	-0.465343	2.80586
H	-0.584591	-2.03656	2.58679
N	-0.572406	0.604083	0.551504
C	-0.0930264	1.05274	-0.63834
O	-0.365299	2.17841	-1.01536
N	0.69627	0.238111	-1.41281
C	1.00436	-1.01933	-0.998649
H	1.06528	0.582557	-2.32802
C	0.518372	-1.49021	0.219833
H	1.62712	-1.65593	-1.61439
H	0.761071	-2.49113	0.554001
C	7.7318	0.773972	0.968663
O	7.14784	1.27613	1.94497
N	7.60917	1.41347	-0.320211
C	8.19225	0.984272	-1.49706
H	7.03347	2.2464	-0.300911
N	7.96765	1.71514	-2.62742
H	7.40209	2.54561	-2.6424
H	8.39618	1.39413	-3.47939
N	8.95397	-0.100121	-1.57083
C	9.10134	-0.742696	-0.375648
C	8.55696	-0.392949	0.866382
N	8.94647	-1.31038	1.84492
C	9.7044	-2.18877	1.21032
N	9.83087	-1.88735	-0.149044
H	10.1816	-3.04451	1.65722
H	10.3502	-2.39498	-0.847227
