29
  This energy is -0.00164431 and Call times are: 10317
C	1.18743	0.28419	-0.0367063
N	2.43063	0.941066	-0.189095
H	2.46234	1.92304	-0.499138
H	3.31371	0.447341	0.00724477
N	0.0324399	0.951568	-0.300311
C	-1.17489	0.343317	-0.161735
O	-2.19594	0.961622	-0.403738
N	-1.24231	-0.965187	0.250201
C	-0.107128	-1.66161	0.522127
H	-2.17055	-1.43358	0.356993
C	1.13668	-1.04815	0.383533
H	-0.167913	-2.69282	0.846412
H	2.04375	-1.59881	0.598965
C	7.74857	-1.21858	0.533144
O	8.15412	-2.19829	1.18278
N	8.14155	-1.0898	-0.85039
C	7.77823	-0.0663169	-1.70458
H	8.73574	-1.84504	-1.16996
N	8.24448	-0.105424	-2.98654
H	8.8352	-0.83983	-3.33505
H	7.97476	0.644677	-3.60066
N	7.00201	0.943392	-1.33106
C	6.60261	0.868269	-0.0280209
C	6.91229	-0.119591	0.91513
N	6.30598	0.168849	2.13993
C	5.64924	1.29921	1.94061
N	5.79793	1.7686	0.632065
H	5.06131	1.82144	2.67638
H	5.40226	2.60201	0.227504
