29
  This energy is 0.00180364 and Call times are: 5028
C	0.52402	0.618294	0.913906
N	0.780725	1.43121	2.04242
H	0.0031181	1.89674	2.53233
H	1.74323	1.5661	2.38522
N	-0.752424	0.451778	0.475894
C	-1.02583	-0.324002	-0.605884
O	-2.17725	-0.458165	-0.979556
N	-0.00566903	-0.954606	-1.27523
C	1.28178	-0.809607	-0.864081
H	-0.215263	-1.55141	-2.10729
C	1.57414	-0.0164488	0.244088
H	2.08088	-1.30971	-1.3966
H	2.59815	0.102098	0.575393
C	7.9447	1.44578	-0.161526
O	8.02857	2.65324	-0.446757
N	6.94414	1.02319	0.790035
C	6.72272	-0.273891	1.21161
H	6.38335	1.78699	1.1474
N	5.72917	-0.491335	2.1215
H	5.15506	0.243683	2.49554
H	5.57609	-1.4392	2.42262
N	7.43145	-1.30611	0.771406
C	8.39325	-0.958598	-0.132609
C	8.6974	0.317366	-0.623238
N	9.75212	0.24968	-1.53642
C	10.0748	-1.03142	-1.59448
N	9.27447	-1.81258	-0.755481
H	10.855	-1.45497	-2.20414
H	9.31604	-2.80951	-0.616917
