29
  This energy is -0.00872813 and Call times are: 1201
C	0.256912	-1.0426	0.582323
N	0.666482	-2.3536	0.91962
H	1.05453	-2.97652	0.196568
H	0.581709	-2.69836	1.88714
N	0.376287	-0.604858	-0.699483
C	-0.0098606	0.650203	-1.04954
O	0.106764	1.01988	-2.20416
N	-0.530091	1.49864	-0.103003
C	-0.663263	1.09314	1.18751
H	-0.827259	2.46403	-0.371569
C	-0.270603	-0.191803	1.55812
H	-1.07419	1.76737	1.92831
H	-0.374743	-0.519369	2.5849
C	7.5253	-0.404417	1.39941
O	7.23548	-0.757533	2.55597
N	8.91365	-0.192469	1.06361
C	9.39901	0.198809	-0.16947
H	9.54336	-0.360404	1.83875
N	10.748	0.351772	-0.308178
H	11.3996	0.193241	0.44019
H	11.0915	0.637461	-1.20979
N	8.6129	0.429971	-1.21357
C	7.28726	0.243335	-0.94726
C	6.69529	-0.149586	0.259589
N	5.30769	-0.226243	0.119484
C	5.06989	0.111245	-1.13681
N	6.24613	0.407684	-1.83203
H	4.09897	0.161672	-1.59999
H	6.33874	0.689343	-2.79479
