29
  This energy is -0.000834347 and Call times are: 8720
C	-0.172082	-0.742147	-0.954837
N	-0.273917	-1.86038	-1.81474
H	-0.066064	-2.80549	-1.46123
H	-0.555617	-1.74275	-2.79909
N	0.201025	-0.916519	0.341032
C	0.306396	0.141274	1.18767
O	0.642393	-0.0397732	2.34427
N	0.0344574	1.41065	0.739181
C	-0.341077	1.62049	-0.550212
H	0.115295	2.22463	1.38982
C	-0.452495	0.543238	-1.42755
H	-0.553869	2.6239	-0.896787
H	-0.751292	0.705385	-2.45558
C	9.69984	-0.4538	0.315377
O	10.8825	-0.835907	0.357295
N	8.9725	-0.303734	1.55378
C	7.65972	0.108942	1.67819
H	9.52273	-0.534772	2.37198
N	7.13077	0.193908	2.93331
H	7.64918	-0.0277957	3.76509
H	6.17392	0.494862	3.01336
N	6.90042	0.422223	0.635659
C	7.54322	0.296224	-0.561844
C	8.86258	-0.111052	-0.795737
N	9.13823	-0.107393	-2.16502
C	8.01618	0.290849	-2.74046
N	7.01023	0.550509	-1.80485
H	7.86249	0.411088	-3.79956
H	6.06946	0.863971	-1.98229
