29
  This energy is 0.00140519 and Call times are: 10474
C	1.0998	0.426977	-0.31661
N	2.42427	0.571195	-0.791195
H	2.92283	-0.238543	-1.18765
H	2.90266	1.48291	-0.745889
N	0.484487	-0.783672	-0.384516
C	-0.787485	-0.948737	0.0645629
O	-1.3178	-2.04284	-0.00675891
N	-1.4722	0.116093	0.597217
C	-0.886942	1.3401	0.680086
H	-2.4505	-0.0101776	0.942774
C	0.417123	1.52124	0.222686
H	-1.43276	2.17497	1.10118
H	0.887575	2.49438	0.28659
C	7.12522	-1.39374	0.0643826
O	7.39164	-2.57957	0.327362
N	7.53514	-0.854524	-1.21093
C	7.31698	0.436122	-1.65342
H	8.02121	-1.52635	-1.79227
N	7.7763	0.77495	-2.893
H	8.26185	0.132818	-3.49439
H	7.61298	1.71725	-3.20595
N	6.68524	1.35021	-0.927536
C	6.27649	0.889161	0.290422
C	6.44618	-0.391589	0.830967
N	5.88232	-0.460611	2.10699
C	5.38669	0.745041	2.32944
N	5.60099	1.60767	1.25024
H	4.87406	1.05759	3.22346
H	5.32383	2.57267	1.16804
