29
  This energy is 0.000535232 and Call times are: 9162
C	-0.27201	0.313196	-1.14892
N	-0.670002	0.316298	-2.50607
H	-0.9842	-0.556109	-2.95507
H	-0.650191	1.18654	-3.05781
N	-0.304775	-0.84454	-0.436561
C	0.0723914	-0.874377	0.868693
O	0.034491	-1.92344	1.48628
N	0.49499	0.276005	1.48873
C	0.539952	1.45049	0.805973
H	0.785195	0.253749	2.49258
C	0.155542	1.49312	-0.533065
H	0.874175	2.3534	1.30123
H	0.189641	2.42633	-1.08112
C	10.9354	-0.746604	0.209464
O	11.9388	-1.48082	0.186765
N	10.7439	0.135765	1.33638
C	9.68761	1.00904	1.51207
H	11.4797	0.0666781	2.02876
N	9.66759	1.77125	2.64387
H	10.3814	1.72697	3.3498
H	8.89401	2.40368	2.76284
N	8.70142	1.1341	0.632663
C	8.83592	0.31893	-0.453834
C	9.86087	-0.595695	-0.72632
N	9.6305	-1.23673	-1.94572
C	8.49812	-0.722899	-2.39564
N	7.97159	0.232532	-1.5212
H	8.01297	-0.986719	-3.32018
H	7.12485	0.767342	-1.6299
