29
  This energy is -0.00790578 and Call times are: 7728
C	0.379937	0.308768	1.11912
N	0.548796	0.436311	2.5175
H	-0.0618526	-0.0861516	3.16213
H	1.28055	1.04996	2.90493
N	-0.590882	-0.505641	0.626024
C	-0.773777	-0.645664	-0.713294
O	-1.65004	-1.38106	-1.13133
N	0.0279741	0.0407389	-1.59219
C	1.00794	0.863236	-1.13311
H	-0.112155	-0.0665142	-2.62238
C	1.20474	1.01466	0.238368
H	1.63616	1.40119	-1.83181
H	1.98407	1.66871	0.608868
C	6.63285	0.946301	-0.544604
O	5.65501	1.63406	-0.886901
N	7.93754	1.28489	-1.06261
C	9.11809	0.624404	-0.781153
H	7.92706	2.08618	-1.68179
N	10.264	1.08406	-1.36246
H	10.288	1.87573	-1.98087
H	11.1184	0.596041	-1.15165
N	9.18079	-0.42912	0.0236562
C	7.97032	-0.790541	0.540578
C	6.72334	-0.192264	0.320574
N	5.72824	-0.862706	1.03557
C	6.35788	-1.83806	1.66879
N	7.72994	-1.838	1.40013
H	5.89872	-2.56226	2.32029
H	8.42758	-2.472	1.75531
