29
  This energy is -0.0048252 and Call times are: 309
C	0.733337	-0.0099457	-0.976846
N	1.83967	-0.0986985	-1.85344
H	2.7773	-0.311349	-1.48324
H	1.72073	0.0475883	-2.86664
N	0.909246	-0.206035	0.357132
C	-0.137209	-0.126308	1.2205
O	0.0449822	-0.305843	2.41128
N	-1.39646	0.156011	0.750389
C	-1.60751	0.357566	-0.577176
H	-2.20172	0.217462	1.41387
C	-0.541834	0.278304	-1.47198
H	-2.60289	0.579726	-0.940613
H	-0.704988	0.438094	-2.5304
C	5.22794	0.787482	0.365533
O	4.111	1.29522	0.568004
N	6.40046	1.45881	0.87514
C	7.70599	1.0282	0.736128
H	6.18764	2.3162	1.37028
N	8.6948	1.79246	1.2843
H	8.51769	2.64761	1.7814
H	9.64219	1.47068	1.17724
N	8.03297	-0.0878146	0.0964658
C	6.95711	-0.761092	-0.405818
C	5.60324	-0.413113	-0.320597
N	4.81321	-1.36778	-0.965108
C	5.66714	-2.26611	-1.42612
N	6.99027	-1.94223	-1.11123
H	5.40756	-3.15175	-1.98112
H	7.82342	-2.45813	-1.34472
