29
  This energy is -0.00118931 and Call times are: 1047
C	-1.12774	0.422262	0.204949
N	-2.26522	1.23857	0.405041
H	-2.17812	2.26457	0.371285
H	-3.18872	0.818333	0.585844
N	0.0827116	0.994398	-0.032445
C	1.19095	0.232548	-0.227955
O	2.26442	0.767826	-0.438972
N	1.09953	-1.13728	-0.187499
C	-0.0950323	-1.74177	0.047456
H	1.95149	-1.7238	-0.337794
C	-1.23833	-0.970612	0.249409
H	-0.159584	-2.82211	0.0779504
H	-2.19214	-1.44757	0.43692
C	8.37533	-0.176129	0.771366
O	9.49197	-0.446148	1.24734
N	7.45595	0.612787	1.5572
C	6.18496	0.996745	1.17468
H	7.82856	0.881001	2.45987
N	5.45108	1.74484	2.04882
H	5.79095	2.0276	2.9512
H	4.5266	2.019	1.76124
N	5.65488	0.669486	0.00273121
C	6.48632	-0.0787498	-0.779519
C	7.78374	-0.518136	-0.488038
N	8.29777	-1.26046	-1.55371
C	7.33686	-1.26843	-2.46218
N	6.20831	-0.560305	-2.03833
H	7.3856	-1.75263	-3.42287
H	5.34651	-0.416655	-2.53981
