29
  This energy is -0.00714782 and Call times are: 3669
C	0.207695	-0.954843	-0.73297
N	0.0795623	-2.05468	-1.61286
H	-0.851998	-2.35176	-1.93743
H	0.912113	-2.56825	-1.93725
N	-0.901996	-0.289119	-0.315492
C	-0.806099	0.770712	0.529726
O	-1.81433	1.35134	0.889909
N	0.425	1.1851	0.975926
C	1.5546	0.542082	0.578286
H	0.499453	2.00015	1.62598
C	1.46847	-0.546104	-0.288342
H	2.5217	0.874293	0.934085
H	2.36548	-1.06153	-0.607892
C	6.27798	0.82295	-1.05973
O	5.61359	1.37902	-1.95174
N	7.56753	1.36992	-0.708865
C	8.42417	0.872845	0.25459
H	7.81483	2.19043	-1.24847
N	9.6091	1.51976	0.453992
H	9.88452	2.33567	-0.0638783
H	10.2262	1.14978	1.15741
N	8.14312	-0.198471	0.985927
C	6.93176	-0.754438	0.691706
C	5.99491	-0.331359	-0.259418
N	4.87907	-1.17146	-0.251556
C	5.13626	-2.07585	0.678321
N	6.37824	-1.8659	1.28506
H	4.48846	-2.88911	0.958879
H	6.80642	-2.40966	2.01704
