29
  This energy is -0.00411737 and Call times are: 6187
C	-0.310485	0.935184	0.7219
N	-0.563611	1.78437	1.8242
H	-0.376864	1.45704	2.78305
H	-0.935643	2.73478	1.68118
N	0.180475	-0.315669	0.929787
C	0.432235	-1.15109	-0.112095
O	0.871938	-2.26711	0.0989928
N	0.191121	-0.736947	-1.39925
C	-0.299525	0.50709	-1.64262
H	0.384542	-1.37897	-2.20101
C	-0.561531	1.37251	-0.581952
H	-0.487178	0.826769	-2.65988
H	-0.952422	2.36445	-0.770807
C	8.18187	-0.527406	-1.33036
O	8.20181	-1.0401	-2.46309
N	9.39448	0.0595747	-0.810537
C	9.53798	0.665433	0.422957
H	10.1775	-0.00694977	-1.44932
N	10.7634	1.16815	0.751447
H	11.5601	1.11863	0.141073
H	10.8579	1.60694	1.65205
N	8.54123	0.776089	1.29233
C	7.36982	0.234909	0.847374
C	7.12008	-0.397233	-0.377099
N	5.78854	-0.813016	-0.448226
C	5.2507	-0.441958	0.701458
N	6.17484	0.202761	1.52913
H	4.22729	-0.601947	0.996076
H	6.01942	0.579471	2.4504
