29
  This energy is 0.00443756 and Call times are: 6814
C	0.322986	0.386628	-1.11279
N	0.968162	0.586854	-2.35534
H	1.80935	0.0425147	-2.59515
H	0.605915	1.27574	-3.03087
N	0.815213	-0.526714	-0.233925
C	0.214008	-0.738054	0.966374
O	0.673341	-1.5616	1.7372
N	-0.908536	-0.0243021	1.30824
C	-1.42692	0.896426	0.453179
H	-1.37141	-0.186366	2.23123
C	-0.818795	1.12165	-0.780543
H	-2.31208	1.45538	0.729379
H	-1.22804	1.85405	-1.46503
C	6.72596	-0.735056	-0.733828
O	5.81634	-1.4682	-1.15978
N	7.35316	0.195453	-1.64266
C	8.37206	1.07414	-1.32814
H	6.97257	0.157689	-2.58037
N	8.84733	1.88505	-2.31752
H	8.49199	1.87262	-3.25738
H	9.58965	2.52101	-2.07865
N	8.90177	1.15931	-0.114175
C	8.34209	0.297618	0.784332
C	7.31217	-0.626646	0.569114
N	7.02621	-1.32066	1.74704
C	7.86066	-0.828529	2.64716
N	8.6865	0.163485	2.10992
H	7.92249	-1.13316	3.67824
H	9.40246	0.691881	2.58214
