29
  This energy is -0.00100333 and Call times are: 8853
C	-0.240594	1.12793	-0.402491
N	-0.272102	2.34158	-1.12797
H	0.319124	2.4605	-1.96327
H	-0.883488	3.11613	-0.830648
N	0.572269	0.116821	-0.809681
C	0.621071	-1.05911	-0.13024
O	1.35702	-1.95038	-0.514181
N	-0.157891	-1.24092	0.986265
C	-0.981648	-0.250841	1.42074
H	-0.12084	-2.14508	1.50927
C	-1.03999	0.959417	0.731913
H	-1.59285	-0.401224	2.30168
H	-1.69464	1.75107	1.07416
C	8.34328	1.22742	0.26164
O	9.02227	2.17799	0.687926
N	7.7748	1.31681	-1.06276
C	7.00067	0.352755	-1.6796
H	7.99566	2.18464	-1.53569
N	6.54473	0.606994	-2.94048
H	6.74558	1.45707	-3.43725
H	5.98141	-0.100985	-3.38091
N	6.68575	-0.798862	-1.0998
C	7.20025	-0.932607	0.157363
C	7.99136	-0.0218574	0.868697
N	8.31424	-0.535595	2.12677
C	7.73377	-1.7229	2.17253
N	7.04022	-2.01355	0.993872
H	7.77114	-2.40806	3.00254
H	6.51716	-2.84644	0.775914
