29
  This energy is -0.000696594 and Call times are: 10003
C	-0.208991	-0.467287	-1.10909
N	-0.132828	-1.18466	-2.32557
H	0.66147	-1.81572	-2.50519
H	-0.867044	-1.08456	-3.04184
N	0.769021	-0.611966	-0.175571
C	0.719418	0.0658702	1.00125
O	1.60725	-0.0800214	1.82215
N	-0.329572	0.912894	1.26314
C	-1.32405	1.0808	0.351871
H	-0.368332	1.43451	2.16804
C	-1.28375	0.390847	-0.85848
H	-2.14788	1.75018	0.565129
H	-2.07361	0.521324	-1.58753
C	6.00266	0.415244	-1.30475
O	6.44349	0.544476	-2.4603
N	5.73068	1.60101	-0.526824
C	5.24123	1.62864	0.765009
H	5.93484	2.46048	-1.02202
N	5.04354	2.8458	1.34963
H	5.23578	3.71651	0.8863
H	4.68734	2.85534	2.29067
N	4.95917	0.529211	1.45294
C	5.19991	-0.621842	0.759984
C	5.69174	-0.75857	-0.54413
N	5.79537	-2.10867	-0.886814
C	5.37777	-2.76739	0.181096
N	5.00224	-1.90522	1.21569
H	5.32141	-3.8387	0.275254
H	4.65185	-2.15223	2.12729
