29
  This energy is -0.000868792 and Call times are: 11200
C	-0.037473	-1.03506	0.647577
N	0.2541	-2.12032	1.50633
H	1.15015	-2.15227	2.01376
H	-0.422878	-2.88695	1.63326
N	0.867836	-0.0324391	0.492472
C	0.611996	1.02137	-0.326583
O	1.43838	1.9076	-0.449441
N	-0.575625	1.08584	-1.01347
C	-1.50269	0.100595	-0.881402
H	-0.773022	1.89606	-1.64356
C	-1.25123	-0.985001	-0.0442257
H	-2.43669	0.158061	-1.42598
H	-1.98664	-1.77229	0.0642285
C	11.794	-0.39413	-0.407123
O	13.0034	-0.644836	-0.551183
N	10.8786	-0.749002	-1.46604
C	9.51288	-0.539536	-1.4613
H	11.3328	-1.18758	-2.25786
N	8.7992	-0.940089	-2.55334
H	9.2188	-1.37788	-3.35461
H	7.80541	-0.782711	-2.54049
N	8.8743	0.0306268	-0.447045
C	9.6974	0.385978	0.582181
C	11.0847	0.219173	0.676296
N	11.5537	0.716004	1.89454
C	10.4791	1.1698	2.51732
N	9.31853	0.992026	1.75817
H	10.4649	1.62683	3.49235
H	8.37605	1.24964	2.00348
