29
  This energy is 0.000252089 and Call times are: 6638
C	-0.878098	0.383823	0.757451
N	-1.62133	0.809438	1.88294
H	-1.16723	0.884086	2.80469
H	-2.6199	1.04828	1.79389
N	0.438566	0.072912	0.893904
C	1.17489	-0.338466	-0.171656
O	2.35274	-0.611433	-0.0248253
N	0.591361	-0.445736	-1.41037
C	-0.722566	-0.142837	-1.58195
H	1.15711	-0.762057	-2.2303
C	-1.48759	0.280094	-0.496369
H	-1.17587	-0.229735	-2.56133
H	-2.53463	0.522505	-0.628086
C	9.87051	-1.31779	-0.0765743
O	10.2938	-2.47928	0.0579538
N	10.2605	-0.565867	-1.24606
C	9.87856	0.728542	-1.54234
H	10.868	-1.08255	-1.87024
N	10.3449	1.28593	-2.69742
H	10.9485	0.800934	-3.33789
H	10.0615	2.2291	-2.90399
N	9.08456	1.4441	-0.755514
C	8.68715	0.776535	0.366754
C	9.01488	-0.527614	0.758032
N	8.40405	-0.839337	1.97485
C	7.72711	0.246762	2.30783
N	7.8668	1.26362	1.3585
H	7.13025	0.3664	3.1962
H	7.4561	2.18332	1.37544
