29
  This energy is 0.000826813 and Call times are: 9515
C	0.571915	-0.269587	1.04515
N	1.04718	-0.89896	2.21915
H	0.727497	-1.84742	2.46336
H	1.71488	-0.418346	2.8399
N	-0.30877	-0.919087	0.238037
C	-0.780527	-0.336536	-0.895501
O	-1.5688	-0.938076	-1.60273
N	-0.368796	0.927207	-1.24169
C	0.510701	1.60469	-0.457408
H	-0.731232	1.37581	-2.11337
C	1.00123	1.01725	0.707458
H	0.830853	2.60058	-0.736561
H	1.70199	1.55297	1.33543
C	6.93824	1.4016	0.343717
O	6.95643	2.63127	0.527905
N	5.82897	0.636374	0.862508
C	5.6603	-0.729845	0.743518
H	5.14351	1.20278	1.34718
N	4.54583	-1.28881	1.29836
H	3.84708	-0.755597	1.78539
H	4.43236	-2.28444	1.2068
N	6.53093	-1.51212	0.117722
C	7.6009	-0.835062	-0.392021
C	7.8649	0.538759	-0.327
N	9.06697	0.835128	-0.97363
C	9.51513	-0.327726	-1.41596
N	8.65605	-1.38056	-1.08692
H	10.4281	-0.48004	-1.96651
H	8.76683	-2.35771	-1.30532
