29
  This energy is -0.00243023 and Call times are: 6571
C	-0.663727	-0.132634	1.01685
N	-1.17171	-0.536684	2.27341
H	-0.682595	-1.25936	2.82107
H	-2.03206	-0.114956	2.65299
N	0.472809	-0.700136	0.531961
C	0.981569	-0.329646	-0.672502
O	2.00103	-0.852225	-1.08602
N	0.346996	0.631635	-1.42062
C	-0.791111	1.21929	-0.965678
H	0.737762	0.917044	-2.34705
C	-1.32209	0.847315	0.26814
H	-1.28597	1.97635	-1.56083
H	-2.22847	1.31258	0.634763
C	4.95938	-0.0706276	-1.35285
O	4.48257	0.0971803	-2.489
N	5.26828	-1.4128	-0.918861
C	5.79969	-1.76661	0.306531
H	5.05672	-2.11744	-1.61478
N	6.02837	-3.09015	0.547933
H	5.82986	-3.81372	-0.120499
H	6.41502	-3.33767	1.44335
N	6.09297	-0.879019	1.24872
C	5.81841	0.408103	0.886784
C	5.28314	0.87039	-0.321971
N	5.155	2.26105	-0.297971
C	5.60049	2.62679	0.8922
N	6.01798	1.53215	1.65521
H	5.6492	3.63759	1.26054
H	6.39532	1.53986	2.58921
