29
  This energy is -0.00092603 and Call times are: 2958
C	0.249134	0.363748	-1.13918
N	0.532004	0.420834	-2.52373
H	0.598454	-0.447346	-3.07442
H	0.67401	1.32659	-2.99444
N	0.0646783	-0.840379	-0.535071
C	-0.208206	-0.922554	0.793692
O	-0.369545	-2.01255	1.31261
N	-0.301598	0.22115	1.54843
C	-0.12279	1.44111	0.976313
H	-0.511458	0.15865	2.57043
C	0.157537	1.53762	-0.385566
H	-0.197877	2.33843	1.57748
H	0.300776	2.50719	-0.845824
C	6.66244	-0.550128	0.3199
O	7.77806	-1.09646	0.376867
N	6.16069	0.131646	1.48978
C	4.94721	0.784866	1.58948
H	6.7963	0.0962771	2.27739
N	4.63398	1.37731	2.77827
H	5.24172	1.36071	3.57834
H	3.74788	1.85001	2.84099
N	4.08275	0.857595	0.584995
C	4.5111	0.226607	-0.547011
C	5.71482	-0.45952	-0.751014
N	5.77372	-0.963982	-2.05216
C	4.63706	-0.592401	-2.61667
N	3.82975	0.13787	-1.73935
H	4.33836	-0.809775	-3.62824
H	2.92122	0.532898	-1.92194
