29
  This energy is -0.00354631 and Call times are: 410
C	0.0789622	-0.4438	1.1353
N	0.0302772	-0.626496	2.53691
H	-0.323763	0.126218	3.14477
H	0.346711	-1.50978	2.96331
N	-0.342852	0.728406	0.590422
C	-0.306415	0.929117	-0.753162
O	-0.689674	1.98759	-1.21806
N	0.161528	-0.0597111	-1.58362
C	0.590911	-1.24358	-1.07209
H	0.189807	0.0940078	-2.61706
C	0.558188	-1.46068	0.304285
H	0.958512	-2.01855	-1.73279
H	0.899164	-2.40209	0.716473
C	7.53671	-1.02346	-1.01192
O	7.50992	-1.91115	-1.88233
N	8.8163	-0.527191	-0.562958
C	9.01683	0.451487	0.391577
H	9.60182	-0.971241	-1.02269
N	10.3016	0.798152	0.694026
H	11.1026	0.377445	0.256688
H	10.4372	1.51142	1.39074
N	8.01929	1.0611	1.01995
C	6.7855	0.626302	0.630359
C	6.47518	-0.352871	-0.321602
N	5.09105	-0.505518	-0.430297
C	4.58127	0.357518	0.43227
N	5.57451	1.07433	1.10635
H	3.53202	0.514108	0.617473
H	5.45186	1.786	1.8087
