29
  This energy is -0.00175377 and Call times are: 10361
C	0.122672	0.648318	-1.02798
N	-0.0881337	1.29853	-2.26614
H	-1.00475	1.23836	-2.73263
H	0.668729	1.83673	-2.71294
N	-0.887661	-0.0572891	-0.453318
C	-0.710951	-0.691102	0.735751
O	-1.63085	-1.31712	1.23101
N	0.502165	-0.625207	1.3764
C	1.5334	0.0715142	0.829837
H	0.638733	-1.11244	2.29094
C	1.36378	0.725518	-0.389229
H	2.48691	0.119112	1.34051
H	2.18229	1.28176	-0.82858
C	6.77765	-1.29643	0.410275
O	7.12346	-2.35719	0.9594
N	7.19451	-1.04864	-0.94988
C	6.89576	0.0741679	-1.6977
H	7.75277	-1.79786	-1.34051
N	7.37577	0.140973	-2.97342
H	7.93201	-0.584423	-3.39074
H	7.15322	0.962837	-3.50966
N	6.16824	1.08033	-1.22875
C	5.74879	0.894364	0.0567713
C	5.99469	-0.199259	0.896316
N	5.38849	-0.0051503	2.13961
C	4.7939	1.17277	2.05196
N	4.98351	1.76423	0.799381
H	4.22445	1.64788	2.83283
H	4.63683	2.65422	0.479166
