29
  This energy is -0.000261462 and Call times are: 6231
C	-0.318403	-1.14257	0.291982
N	-0.716213	-2.49946	0.262794
H	-0.899536	-2.9656	-0.637498
H	-0.826502	-3.03395	1.13703
N	-0.177983	-0.453178	-0.871593
C	0.203023	0.851301	-0.870902
O	0.322089	1.44808	-1.92593
N	0.452907	1.49397	0.316933
C	0.32216	0.834505	1.49829
H	0.745983	2.49723	0.318165
C	-0.0680015	-0.503498	1.50984
H	0.520805	1.34753	2.4308
H	-0.173524	-1.03304	2.44838
C	4.1774	0.617916	-1.10612
O	3.69469	1.32633	-2.00694
N	3.66201	-0.71805	-0.919667
C	4.08801	-1.62617	0.0306049
H	2.92457	-0.957419	-1.57118
N	3.48515	-2.85002	0.0632585
H	2.75128	-3.11895	-0.568312
H	3.80203	-3.5041	0.759183
N	5.05025	-1.3576	0.904402
C	5.5717	-0.103403	0.769704
C	5.21363	0.886717	-0.153744
N	5.98724	2.03388	0.037244
C	6.78917	1.74336	1.0478
N	6.57563	0.449148	1.53169
H	7.52872	2.40173	1.47132
H	7.05205	-0.0116929	2.29027
