29
  This energy is -0.00155991 and Call times are: 1404
C	0.687602	-0.908359	0.440677
N	1.33411	-1.85261	1.27175
H	1.15349	-1.85846	2.28603
H	1.98945	-2.54145	0.874056
N	-0.173978	-0.00703048	0.983058
C	-0.807889	0.910538	0.206492
O	-1.57534	1.70786	0.715108
N	-0.582974	0.937753	-1.14816
C	0.272099	0.0511223	-1.72291
H	-1.0702	1.64319	-1.74599
C	0.927853	-0.894412	-0.936418
H	0.444545	0.0784673	-2.79143
H	1.60991	-1.60276	-1.38968
C	7.19258	-1.41759	0.0234249
O	7.46347	-2.6133	-0.184486
N	7.18252	-0.93244	1.38347
C	6.90298	0.361039	1.78088
H	7.4078	-1.64666	2.06517
N	6.93926	0.643507	3.11551
H	7.15911	-0.0414307	3.81714
H	6.73373	1.58811	3.39484
N	6.60306	1.32964	0.924484
C	6.59893	0.921132	-0.377887
C	6.86653	-0.357209	-0.883402
N	6.75896	-0.362893	-2.276
C	6.43537	0.877475	-2.60083
N	6.32513	1.70225	-1.47729
H	6.26952	1.24133	-3.60075
H	6.09164	2.68187	-1.45233
