29
  This energy is -0.00354969 and Call times are: 5426
C	0.196149	-0.427982	1.12715
N	0.0808204	-0.795091	2.4881
H	-0.78353	-0.586905	3.00865
H	0.855929	-1.27229	2.97145
N	-0.836936	0.200978	0.505833
C	-0.751416	0.564188	-0.800917
O	-1.68997	1.12657	-1.33592
N	0.390818	0.29727	-1.51539
C	1.44233	-0.330026	-0.925116
H	0.457237	0.576339	-2.52045
C	1.36597	-0.707171	0.414491
H	2.33959	-0.537198	-1.49452
H	2.20098	-1.20709	0.889079
C	5.84353	0.0768386	0.0163113
O	4.63511	0.368394	0.048628
N	6.22166	-1.31198	-0.099371
C	7.51372	-1.79918	-0.148197
H	5.42888	-1.94046	-0.145253
N	7.68623	-3.14838	-0.258857
H	6.92173	-3.79876	-0.306764
H	8.63088	-3.49334	-0.293118
N	8.58281	-1.01469	-0.0916993
C	8.27831	0.311269	0.018633
C	7.01124	0.905067	0.0758042
N	7.12786	2.29244	0.187787
C	8.42901	2.5283	0.197997
N	9.17639	1.35103	0.097002
H	8.89028	3.49847	0.273852
H	10.1793	1.25695	0.0823944
