29
  This energy is 0.00441637 and Call times are: 8986
C	-0.266378	0.587083	-1.03754
N	-0.311048	1.49709	-2.11927
H	0.316929	2.31368	-2.13466
H	-0.968701	1.35415	-2.89978
N	0.6079	0.791776	-0.0164454
C	0.67062	-0.0675835	1.03446
O	1.46197	0.136643	1.93748
N	-0.15663	-1.16315	1.07707
C	-1.04231	-1.39762	0.0729788
H	-0.108891	-1.82448	1.88502
C	-1.1155	-0.523108	-1.00984
H	-1.69133	-2.26328	0.113276
H	-1.81941	-0.705674	-1.81208
C	7.28146	0.431245	1.36465
O	7.33816	0.933828	2.50067
N	8.27175	-0.549605	0.987214
C	8.34744	-1.19834	-0.2304
H	8.94555	-0.740489	1.71874
N	9.3553	-2.09974	-0.414828
H	10.0395	-2.312	0.289875
H	9.40219	-2.56651	-1.30504
N	7.48763	-0.981123	-1.21788
C	6.52907	-0.0592927	-0.910511
C	6.36463	0.650414	0.285559
N	5.25951	1.50029	0.19992
C	4.77151	1.30831	-1.01405
N	5.51097	0.364793	-1.73356
H	3.90985	1.80304	-1.42944
H	5.34914	0.0417015	-2.6739
