29
  This energy is -0.0076621 and Call times are: 1632
C	-0.974457	-0.484759	-0.554572
N	-2.22628	-1.07339	-0.849022
H	-2.88031	-1.3063	-0.0878303
H	-2.49654	-1.27472	-1.82296
N	-0.634931	-0.226262	0.736471
C	0.561656	0.338684	1.04606
O	0.843544	0.560821	2.20993
N	1.44995	0.657898	0.0483325
C	1.14235	0.412976	-1.25282
H	2.37041	1.09243	0.285753
C	-0.0819049	-0.166072	-1.58224
H	1.8475	0.667246	-2.03406
H	-0.33144	-0.363096	-2.61728
C	5.39197	0.304677	-0.832826
O	4.49529	0.411636	-1.68773
N	5.30798	1.10283	0.367625
C	6.21743	1.10092	1.40785
H	4.4892	1.69811	0.396354
N	5.97824	1.9239	2.46984
H	5.17619	2.52632	2.52945
H	6.64659	1.91566	3.22203
N	7.30374	0.338399	1.41456
C	7.42984	-0.437176	0.298469
C	6.57051	-0.509769	-0.804976
N	7.0547	-1.42733	-1.74017
C	8.17479	-1.89467	-1.21509
N	8.44932	-1.32181	0.0303772
H	8.82102	-2.62846	-1.66642
H	9.23512	-1.50523	0.633444
