29
  This energy is -0.00370236 and Call times are: 4498
C	-0.95821	-0.709503	0.26561
N	-2.07471	-1.32349	0.87937
H	-2.40747	-0.993098	1.79672
H	-2.56504	-2.10391	0.418236
N	-0.323736	0.319011	0.888903
C	0.751202	0.925921	0.320573
O	1.30315	1.84531	0.898031
N	1.21305	0.502833	-0.901764
C	0.602231	-0.522558	-1.55219
H	2.03973	0.969184	-1.33942
C	-0.50103	-1.15253	-0.978987
H	0.971811	-0.850754	-2.51549
H	-0.990938	-1.96978	-1.49328
C	6.38988	-0.252057	-1.36096
O	6.1406	-0.645948	-2.51381
N	5.71438	0.924337	-0.866004
C	5.87903	1.4879	0.384778
H	5.07451	1.33105	-1.53737
N	5.15557	2.60554	0.68449
H	4.51275	3.03369	0.0416725
H	5.28288	3.00872	1.59761
N	6.70511	0.990469	1.29676
C	7.36984	-0.12518	0.876594
C	7.27563	-0.772082	-0.361933
N	8.12162	-1.88294	-0.397085
C	8.7095	-1.9049	0.787245
N	8.28484	-0.852107	1.60333
H	9.43281	-2.63218	1.11535
H	8.57773	-0.645148	2.54471
