29
  This energy is -0.00975824 and Call times are: 9360
C	-0.716173	-0.743767	0.652698
N	-1.30769	-1.51761	1.67815
H	-0.897529	-1.52433	2.62321
H	-2.15092	-2.08024	1.49231
N	0.396199	-0.00755558	0.916346
C	0.983721	0.744356	-0.0512677
O	1.97955	1.39558	0.208772
N	0.455064	0.769107	-1.31868
C	-0.656067	0.0449761	-1.61636
H	0.906433	1.3472	-2.06333
C	-1.26713	-0.729835	-0.632041
H	-1.06726	0.069297	-2.61764
H	-2.15242	-1.30838	-0.864364
C	7.55102	0.133011	-0.645852
O	8.64998	0.463829	-1.12459
N	7.0954	-1.22579	-0.822636
C	5.90527	-1.74925	-0.354931
H	7.74594	-1.80192	-1.3427
N	5.63563	-3.06131	-0.615964
H	6.25917	-3.65978	-1.12859
H	4.76624	-3.43297	-0.271623
N	5.02268	-1.03339	0.330733
C	5.40733	0.26173	0.525094
C	6.58449	0.887252	0.0957659
N	6.60037	2.22466	0.498276
C	5.46431	2.40042	1.15189
N	4.69874	1.23141	1.19697
H	5.13787	3.32041	1.60664
H	3.79937	1.09998	1.63134
