29
  This energy is -0.00122577 and Call times are: 2094
C	-0.134448	0.867989	-0.848897
N	-0.603828	1.93743	-1.64654
H	-1.49854	2.39629	-1.42215
H	-0.0589985	2.26767	-2.45663
N	-0.866782	0.445753	0.216136
C	-0.438085	-0.579566	0.998292
O	-1.11138	-0.940159	1.947
N	0.751422	-1.20675	0.718773
C	1.50823	-0.809867	-0.33826
H	1.08171	-1.99538	1.31994
C	1.07861	0.24054	-1.14739
H	2.44484	-1.30892	-0.552607
H	1.67801	0.560268	-1.99054
C	8.11157	-0.178613	-0.320984
O	9.25518	-0.256616	-0.803079
N	7.91049	-0.555324	1.05845
C	6.70893	-0.526164	1.74004
H	8.75985	-0.859546	1.51847
N	6.70358	-0.919539	3.04678
H	7.52801	-1.22656	3.53238
H	5.82364	-0.895225	3.53428
N	5.5712	-0.13517	1.17947
C	5.708	0.23209	-0.128003
C	6.87232	0.239498	-0.906211
N	6.59096	0.684651	-2.19989
C	5.29313	0.938342	-2.20146
N	4.70627	0.678309	-0.9594
H	4.72591	1.30224	-3.04145
H	3.73929	0.788591	-0.69939
