29
  This energy is -0.00645796 and Call times are: 3858
C	-0.484875	-0.562816	-0.969661
N	-0.957191	-1.51765	-1.89996
H	-0.874284	-2.52403	-1.69565
H	-1.38714	-1.21886	-2.78766
N	0.07955	-0.975593	0.196499
C	0.541161	-0.0784944	1.10697
O	1.0429	-0.472216	2.14458
N	0.441619	1.2683	0.856679
C	-0.117106	1.7152	-0.299046
H	0.796438	1.95879	1.55651
C	-0.593953	0.80439	-1.24014
H	-0.192239	2.77834	-0.489611
H	-1.03983	1.15556	-2.16224
C	5.66353	0.610293	-0.959413
O	6.51795	1.25033	-1.5971
N	4.84577	-0.350387	-1.66194
C	3.85778	-1.13755	-1.1021
H	5.05883	-0.411172	-2.65012
N	3.18095	-1.99492	-1.92012
H	3.36765	-2.07955	-2.90385
H	2.46305	-2.56344	-1.50306
N	3.54387	-1.09271	0.186704
C	4.29027	-0.197229	0.896696
C	5.30845	0.642581	0.428365
N	5.82646	1.41027	1.47395
C	5.13951	1.04351	2.54274
N	4.18812	0.0635187	2.24406
H	5.27196	1.43311	3.53794
H	3.54166	-0.380853	2.87605
