29
  This energy is -0.0055086 and Call times are: 10650
C	-0.954102	-0.423961	0.634078
N	-2.1489	-0.556171	1.37923
H	-2.7055	0.277639	1.61663
H	-2.47411	-1.483	1.69124
N	-0.540548	0.806997	0.230834
C	0.603601	0.961131	-0.486101
O	0.953746	2.07389	-0.836182
N	1.36226	-0.135697	-0.814467
C	0.977874	-1.38066	-0.427301
H	2.24232	-0.0178476	-1.36585
C	-0.193665	-1.55087	0.308321
H	1.58091	-2.24072	-0.689747
H	-0.503975	-2.54061	0.619006
C	5.27835	-0.430925	1.12546
O	4.55101	-0.991233	1.96413
N	5.76467	0.899858	1.40421
C	6.57734	1.65519	0.580676
H	5.45128	1.2621	2.29648
N	6.94161	2.89963	1.00613
H	6.64828	3.28841	1.88508
H	7.5331	3.44202	0.399094
N	7.01274	1.22274	-0.596174
C	6.57949	-0.0336604	-0.907346
C	5.75953	-0.877742	-0.148064
N	5.54754	-2.08415	-0.819317
C	6.22084	-1.97033	-1.95176
N	6.86938	-0.736013	-2.05472
H	6.28267	-2.71939	-2.72302
H	7.44336	-0.402641	-2.81248
