29
  This energy is 0.000986129 and Call times are: 5226
C	-1.1179	-0.201295	0.449321
N	-2.2852	-0.225801	1.24749
H	-2.30661	0.273815	2.14823
H	-3.12266	-0.740912	0.93854
N	-0.0223932	0.483671	0.873088
C	1.11149	0.522846	0.125017
O	2.08018	1.14306	0.525464
N	1.1638	-0.135554	-1.07922
C	0.0867331	-0.82976	-1.53266
H	2.03555	-0.105816	-1.65506
C	-1.08152	-0.876945	-0.773986
H	0.135185	-1.34639	-2.48291
H	-1.94209	-1.42864	-1.13099
C	8.80577	-1.15231	0.00284739
O	7.88012	-1.98138	-0.043507
N	10.1415	-1.61597	0.296209
C	11.2726	-0.827286	0.383481
H	10.1952	-2.61675	0.441592
N	12.4588	-1.43752	0.671421
H	12.5464	-2.42732	0.821093
H	13.2767	-0.854548	0.733313
N	11.2511	0.487135	0.200736
C	10.0081	0.976228	-0.079834
C	8.80532	0.267438	-0.190496
N	7.75352	1.13623	-0.490279
C	8.30691	2.33534	-0.558255
N	9.68308	2.29257	-0.315241
H	7.78835	3.25449	-0.772775
H	10.332	3.06305	-0.308379
