29
  This energy is -0.0101714 and Call times are: 9294
C	-0.633206	-0.911483	-0.510254
N	-1.4407	-2.04804	-0.747832
H	-1.84953	-2.56666	0.0429317
H	-1.628	-2.36823	-1.70936
N	-0.396956	-0.503631	0.765181
C	0.375306	0.585085	1.0204
O	0.572752	0.931275	2.1713
N	0.931126	1.29237	-0.0174942
C	0.71522	0.912055	-1.30448
H	1.52516	2.1298	0.178107
C	-0.0750759	-0.20288	-1.57828
H	1.1566	1.47439	-2.11762
H	-0.249931	-0.509724	-2.60184
C	4.68223	0.178757	-0.292315
O	3.53838	0.314742	-0.76077
N	4.85543	0.207827	1.14099
C	6.05347	0.0721175	1.81585
H	3.98826	0.341902	1.64658
N	6.03066	0.125207	3.1793
H	5.18811	0.256893	3.71083
H	6.90824	0.0258815	3.66151
N	7.21387	-0.105452	1.19657
C	7.10398	-0.140035	-0.1635
C	5.94562	-0.013503	-0.940348
N	6.2575	-0.104816	-2.29878
C	7.56743	-0.281311	-2.33959
N	8.13296	-0.310286	-1.06128
H	8.15804	-0.392709	-3.2332
H	9.10331	-0.431124	-0.819175
