29
  This energy is -0.00101132 and Call times are: 388
C	-1.08358	0.532802	-0.184634
N	-2.13548	1.37888	-0.606419
H	-1.94052	2.17478	-1.23087
H	-3.10333	1.20949	-0.295439
N	0.187251	0.771655	-0.60515
C	1.21563	-0.0262079	-0.214398
O	2.34558	0.207658	-0.604164
N	0.980203	-1.09317	0.61782
C	-0.278132	-1.36041	1.05687
H	1.77068	-1.7072	0.918713
C	-1.3406	-0.548999	0.662688
H	-0.456253	-2.20322	1.71275
H	-2.34473	-0.757868	1.00982
C	9.99757	-0.777603	-0.652232
O	10.9264	-1.52803	-0.999443
N	9.36827	0.0577028	-1.64794
C	8.32941	0.941265	-1.42603
H	9.76337	-0.0555148	-2.5735
N	7.85577	1.65373	-2.48923
H	8.22517	1.56503	-3.41952
H	7.09953	2.29488	-2.31729
N	7.77997	1.12295	-0.231598
C	8.34111	0.354427	0.746961
C	9.39005	-0.565837	0.628055
N	9.66983	-1.14852	1.86626
C	8.81345	-0.594756	2.7081
N	7.97889	0.330792	2.07438
H	8.74133	-0.808643	3.76109
H	7.24682	0.885254	2.48843
