29
  This energy is -9.758e-06 and Call times are: 6439
C	0.833017	0.644223	-0.619006
N	1.65007	1.21169	-1.62433
H	1.52295	0.938661	-2.60957
H	2.37764	1.90079	-1.3837
N	-0.121941	-0.263472	-0.955214
C	-0.919965	-0.823405	-0.00839723
O	-1.76852	-1.63425	-0.333774
N	-0.769121	-0.475101	1.31158
C	0.175666	0.429083	1.68229
H	-1.38256	-0.905365	2.04028
C	0.999821	1.00985	0.719949
H	0.288893	0.698867	2.7247
H	1.75386	1.7306	1.01038
C	8.98626	-1.31582	-0.2798
O	8.35334	-2.32206	-0.644792
N	10.1244	-1.48776	0.592168
C	10.9282	-0.477701	1.08489
H	10.3033	-2.45547	0.831137
N	11.9657	-0.824561	1.90083
H	12.1703	-1.77439	2.15712
H	12.5449	-0.0818137	2.2549
N	10.7328	0.803619	0.799257
C	9.66572	1.01998	-0.0239228
C	8.79347	0.0729744	-0.57498
N	7.8291	0.701106	-1.36642
C	8.1121	1.99085	-1.29428
N	9.22574	2.23918	-0.486272
H	7.57008	2.78068	-1.78635
H	9.64375	3.12975	-0.269589
