29
  This energy is 0.000576539 and Call times are: 8764
C	0.629736	0.823477	-0.646086
N	1.17922	1.62043	-1.6772
H	0.898245	1.4656	-2.65622
H	1.86302	2.36079	-1.46173
N	-0.271265	-0.148737	-0.949218
C	-0.813961	-0.928088	0.0228538
O	-1.61913	-1.79268	-0.273077
N	-0.454708	-0.740364	1.33515
C	0.443215	0.22252	1.67305
H	-0.871729	-1.33941	2.08325
C	1.00633	1.0278	0.684603
H	0.721717	0.364812	2.70959
H	1.72204	1.79613	0.948861
C	9.34949	0.000244554	1.44474
O	9.27092	-0.209164	2.66797
N	8.87277	1.25908	0.921995
C	8.88899	1.64434	-0.404833
H	8.50486	1.87575	1.6361
N	8.39475	2.87657	-0.720554
H	8.02289	3.51203	-0.0366957
H	8.41049	3.14766	-1.68947
N	9.36098	0.870826	-1.3746
C	9.82482	-0.333913	-0.931287
C	9.85387	-0.818353	0.382403
N	10.4084	-2.09986	0.417068
C	10.7051	-2.38012	-0.840755
N	10.3685	-1.33383	-1.70485
H	11.1528	-3.29483	-1.19104
H	10.4907	-1.29612	-2.70408
