29
  This energy is -0.00538854 and Call times are: 10980
C	-0.71582	-0.435973	-0.888616
N	-1.57481	-0.581987	-2.00265
H	-1.89103	0.248171	-2.52443
H	-1.89217	-1.51534	-2.3031
N	-0.307297	0.803445	-0.506721
C	0.517863	0.970883	0.560005
O	0.870382	2.09103	0.883123
N	0.952514	-0.120848	1.27108
C	0.563345	-1.37399	0.916433
H	1.58716	0.00723327	2.09159
C	-0.282736	-1.55786	-0.175791
H	0.909934	-2.22996	1.48161
H	-0.595479	-2.55415	-0.462139
C	6.85174	-0.983546	0.774735
O	6.41347	-1.93418	1.44597
N	5.94882	0.0797759	0.401548
C	6.27679	1.19976	-0.338203
H	5.0043	-0.0598377	0.739153
N	5.29124	2.10704	-0.598712
H	4.34489	1.9986	-0.278677
H	5.53995	2.91897	-1.13858
N	7.50002	1.42537	-0.801199
C	8.39345	0.446431	-0.474815
C	8.16485	-0.720285	0.265336
N	9.34173	-1.46397	0.378593
C	10.2543	-0.765039	-0.275244
N	9.72622	0.411261	-0.815818
H	11.2884	-1.04058	-0.395651
H	10.2084	1.11281	-1.35442
