29
  This energy is 0.0022512 and Call times are: 8610
C	-0.220325	-0.0100797	-1.20144
N	-0.187798	0.210888	-2.598
H	0.520003	0.83846	-3.00615
H	-0.868073	-0.250916	-3.21937
N	0.68528	0.607809	-0.39709
C	0.675423	0.41234	0.947724
O	1.49675	0.976808	1.64786
N	-0.258676	-0.419752	1.51473
C	-1.17841	-1.05313	0.739807
H	-0.266799	-0.570528	2.54896
C	-1.1779	-0.860236	-0.640556
H	-1.91179	-1.70763	1.19369
H	-1.90855	-1.36259	-1.262
C	10.0594	0.383186	1.2994
O	9.44573	0.828998	2.28476
N	11.1933	-0.483573	1.51927
C	11.9768	-1.05858	0.537129
H	11.3854	-0.650871	2.49941
N	13.0136	-1.85479	0.928727
H	13.2311	-2.04102	1.89195
H	13.5786	-2.26846	0.206083
N	11.7633	-0.868509	-0.758962
C	10.6997	-0.053946	-1.02052
C	9.84708	0.57484	-0.104608
N	8.87889	1.32511	-0.7759
C	9.1408	1.15346	-2.06069
N	10.244	0.319068	-2.26428
H	8.59024	1.58959	-2.87704
H	10.6461	0.0321232	-3.14224
