29
  This energy is -0.00526082 and Call times are: 8808
C	0.0362429	-0.288801	1.18633
N	-0.124111	-0.911281	2.44612
H	-0.660904	-1.78701	2.52589
H	0.291966	-0.497955	3.29357
N	-0.51984	-0.848674	0.0789932
C	-0.380492	-0.270587	-1.14298
O	-0.887701	-0.790767	-2.1205
N	0.330635	0.897111	-1.27412
C	0.899527	1.48346	-0.187775
H	0.438195	1.34223	-2.21366
C	0.763228	0.899633	1.07047
H	1.4587	2.40393	-0.298683
H	1.21458	1.36297	1.9388
C	5.04561	0.538456	0.0562849
O	3.96391	1.14092	-0.0589916
N	5.14514	-0.535981	1.0159
C	6.26941	-1.29993	1.26404
H	4.28443	-0.700694	1.52347
N	6.18315	-2.27844	2.21137
H	5.34496	-2.46758	2.73235
H	7.00734	-2.82894	2.38512
N	7.41843	-1.12102	0.624272
C	7.37658	-0.113879	-0.296041
C	6.29539	0.714404	-0.622058
N	6.66041	1.62265	-1.61844
C	7.92645	1.34952	-1.88545
N	8.4119	0.296326	-1.10452
H	8.53855	1.85806	-2.61104
H	9.33689	-0.102563	-1.11399
