29
  This energy is 0.00196088 and Call times are: 11090
C	0.571789	0.29889	-1.03722
N	1.50187	0.434584	-2.09401
H	2.41589	-0.0379967	-2.04264
H	1.27675	1.0046	-2.92258
N	0.886134	-0.457342	0.0482221
C	0.0102607	-0.603754	1.07693
O	0.314269	-1.28626	2.03878
N	-1.21421	0.0167042	1.03098
C	-1.56052	0.779939	-0.0391284
H	-1.88831	-0.0954995	1.82182
C	-0.670322	0.93727	-1.09998
H	-2.52749	1.26608	-0.0684974
H	-0.941668	1.54427	-1.95458
C	8.36067	-0.00987457	0.577557
O	7.31555	0.0969804	1.24287
N	8.31142	-0.699803	-0.690025
C	9.378	-0.902827	-1.54464
H	7.38799	-1.04412	-0.923027
N	9.1481	-1.5799	-2.70699
H	8.24474	-1.93431	-2.9679
H	9.93127	-1.72308	-3.32236
N	10.605	-0.470194	-1.28202
C	10.7049	0.190172	-0.0916403
C	9.69254	0.448093	0.841088
N	10.2038	1.15398	1.93252
C	11.4887	1.31686	1.66517
N	11.846	0.746298	0.439799
H	12.2012	1.82305	2.29426
H	12.7562	0.732288	0.00848749
