29
  This energy is 0.000541734 and Call times are: 3603
C	0.494404	0.299206	-1.07617
N	0.996833	0.290384	-2.3982
H	0.968873	-0.575013	-2.95652
H	1.3943	1.14488	-2.81532
N	-0.0264043	-0.837767	-0.542374
C	-0.515589	-0.855799	0.725381
O	-0.977204	-1.88629	1.18187
N	-0.489009	0.285579	1.4889
C	0.0245781	1.43935	0.986272
H	-0.865088	0.272393	2.464
C	0.529103	1.46972	-0.31263
H	0.0422657	2.33527	1.59393
H	0.939243	2.38642	-0.717417
C	7.31574	-0.164566	1.1233
O	7.95765	-0.157352	2.18831
N	7.78698	-0.98451	0.0320611
C	7.19152	-1.10279	-1.20915
H	8.6325	-1.49666	0.251996
N	7.77733	-1.92752	-2.12511
H	8.61562	-2.44939	-1.93889
H	7.33642	-2.00649	-3.02616
N	6.08382	-0.452056	-1.54249
C	5.59698	0.339264	-0.54256
C	6.12074	0.528249	0.742455
N	5.32559	1.41949	1.46657
C	4.34978	1.7584	0.640936
N	4.46921	1.12579	-0.600139
H	3.54471	2.4373	0.866097
H	3.85998	1.21314	-1.39765
