29
  This energy is -0.00131717 and Call times are: 7948
C	-0.0928751	-0.36208	1.16292
N	-0.431981	-0.493483	2.52967
H	-1.09029	0.16851	2.96534
H	-0.0264901	-1.24877	3.10172
N	-0.637807	0.640644	0.423673
C	-0.328455	0.788713	-0.89132
O	-0.829263	1.69466	-1.53307
N	0.546703	-0.0815236	-1.49398
C	1.10955	-1.09496	-0.784235
H	0.785042	0.0317917	-2.50531
C	0.799712	-1.25657	0.565023
H	1.79861	-1.77717	-1.26592
H	1.24554	-2.06234	1.13456
C	7.31017	-1.32147	-0.0942886
O	7.81083	-2.41763	-0.401026
N	7.18408	-0.980463	1.30321
C	6.65289	0.191302	1.80717
H	7.5322	-1.70069	1.92423
N	6.61192	0.345632	3.16247
H	6.94872	-0.348951	3.80581
H	6.22283	1.20213	3.51963
N	6.18515	1.16256	1.03295
C	6.28154	0.888155	-0.30065
C	6.79985	-0.260695	-0.91123
N	6.71825	-0.152708	-2.30141
C	6.16596	1.0283	-2.52261
N	5.87971	1.70467	-1.33294
H	5.94919	1.4483	-3.49027
H	5.46057	2.61453	-1.22672
