29
  This energy is -0.00271012 and Call times are: 9978
C	1.14217	0.375487	0.215801
N	2.42079	0.974825	0.137225
H	2.67586	1.544	-0.682771
H	3.1077	0.849466	0.895232
N	0.24871	0.551888	-0.793905
C	-0.986184	-0.0131336	-0.742745
O	-1.7695	0.159074	-1.65935
N	-1.34887	-0.776113	0.340187
C	-0.480066	-0.972729	1.36689
H	-2.29847	-1.21094	0.380163
C	0.789105	-0.398195	1.32534
H	-0.772828	-1.57539	2.21737
H	1.48466	-0.551965	2.14079
C	6.33557	1.11889	0.767276
O	6.79972	1.92287	1.59464
N	6.07637	1.57602	-0.577727
C	5.56469	0.812236	-1.60922
H	6.30922	2.5511	-0.72122
N	5.38328	1.41169	-2.82169
H	5.60398	2.37619	-2.99718
H	5.00968	0.847251	-3.56625
N	5.24537	-0.468314	-1.46856
C	5.47207	-0.949736	-0.211615
C	5.98418	-0.264131	0.896987
N	6.06377	-1.11483	2.00193
C	5.61205	-2.28072	1.57136
N	5.23733	-2.23343	0.225227
H	5.52968	-3.17822	2.16082
H	4.86497	-2.98137	-0.33756
