29
  This energy is 0.000913652 and Call times are: 11134
C	-0.297723	0.664058	0.981069
N	-0.501075	1.14198	2.29655
H	-0.215247	0.570366	3.10462
H	-0.935064	2.06227	2.46039
N	0.276461	-0.552666	0.784124
C	0.48289	-1.03475	-0.469597
O	0.999034	-2.12748	-0.620973
N	0.110093	-0.290827	-1.56231
C	-0.466453	0.929518	-1.40124
H	0.268586	-0.661006	-2.52682
C	-0.683091	1.43412	-0.120203
H	-0.757778	1.51039	-2.26724
H	-1.14203	2.40571	0.0131693
C	12.1563	-1.35521	0.481139
O	11.7615	-2.41995	0.98784
N	13.3781	-1.36163	-0.288528
C	13.9488	-0.269111	-0.912931
H	13.8127	-2.27476	-0.342517
N	15.112	-0.459235	-1.60079
H	15.5686	-1.35141	-1.67378
H	15.52	0.342579	-2.05156
N	13.416	0.945727	-0.870026
C	12.2566	1.00527	-0.15222
C	11.5987	-0.0357724	0.514618
N	10.4387	0.437403	1.13231
C	10.3987	1.72779	0.845902
N	11.4867	2.12542	0.0630862
H	9.63417	2.41728	1.16199
H	11.6893	3.04779	-0.287621
