29
  This energy is -0.000144269 and Call times are: 9625
C	-0.0854252	1.19778	0.223917
N	-0.504973	2.48351	0.637607
H	-1.40242	2.60144	1.12963
H	0.0792451	3.31208	0.452427
N	-0.869368	0.115972	0.47694
C	-0.489187	-1.13004	0.0899838
O	-1.20822	-2.08389	0.327803
N	0.702911	-1.31204	-0.567433
C	1.51061	-0.252365	-0.836319
H	0.995903	-2.27009	-0.865304
C	1.13103	1.03014	-0.444242
H	2.44894	-0.403355	-1.35495
H	1.77107	1.87738	-0.656197
C	11.0112	-1.42592	0.161185
O	11.0837	-2.66686	0.127332
N	11.8092	-0.70813	1.12723
C	11.8427	0.663253	1.29262
H	12.3755	-1.31405	1.70839
N	12.659	1.1724	2.26046
H	13.2332	0.599347	2.8535
H	12.6759	2.17214	2.37343
N	11.119	1.49639	0.555176
C	10.345	0.865635	-0.375427
C	10.2389	-0.508661	-0.623146
N	9.33675	-0.748331	-1.66219
C	8.91077	0.448205	-2.0304
N	9.49636	1.46883	-1.27532
H	8.19899	0.647261	-2.81366
H	9.34253	2.46112	-1.35601
