29
  This energy is -0.02002 and Call times are: 4938
C	-0.980413	0.202871	-0.699816
N	-2.10158	0.770419	-1.34877
H	-2.38459	1.73886	-1.14036
H	-2.64484	0.224441	-2.03353
N	-0.275528	0.938341	0.200801
C	0.805467	0.416495	0.837949
O	1.42114	1.09467	1.64071
N	1.20174	-0.872322	0.576537
C	0.519619	-1.6352	-0.318069
H	2.03305	-1.27428	1.06621
C	-0.590569	-1.1106	-0.977528
H	0.837747	-2.65039	-0.519135
H	-1.13715	-1.71443	-1.691
C	4.73897	-1.17948	-0.7237
O	4.23396	-2.23414	-1.14678
N	5.59574	-0.417033	-1.60109
C	6.23018	0.769097	-1.28526
H	5.70558	-0.835533	-2.51671
N	7.00665	1.35524	-2.24227
H	7.1364	0.966467	-3.15976
H	7.46484	2.21841	-2.00242
N	6.11582	1.3546	-0.0996561
C	5.31431	0.671284	0.768523
C	4.62955	-0.530481	0.549045
N	3.91599	-0.900404	1.69138
C	4.16389	0.0518136	2.57487
N	5.01315	1.03628	2.06076
H	3.77444	0.0938703	3.57802
H	5.35275	1.86216	2.52702
