29
  This energy is 0.00175435 and Call times are: 8368
C	0.983039	0.722997	0.0549345
N	1.918	1.73531	0.373255
H	1.68866	2.44709	1.0819
H	2.83401	1.77191	-0.0976116
N	-0.220682	0.690453	0.68651
C	-1.13645	-0.271564	0.398907
O	-2.208	-0.280213	0.977801
N	-0.853305	-1.23102	-0.542206
C	0.34039	-1.22781	-1.19234
H	-1.55718	-1.97119	-0.763863
C	1.28728	-0.246078	-0.905606
H	0.556709	-1.98729	-1.93304
H	2.23957	-0.239378	-1.42088
C	10.1203	-0.254225	-0.565331
O	11.1909	-0.305312	-1.19587
N	9.92647	-1.14961	0.550867
C	8.80088	-1.21823	1.3493
H	10.7181	-1.75864	0.717977
N	8.79015	-2.12952	2.36505
H	9.55842	-2.74793	2.55763
H	7.96577	-2.17212	2.9405
N	7.74024	-0.441051	1.16875
C	7.87365	0.425593	0.122711
C	8.9649	0.574467	-0.742339
N	8.70764	1.57362	-1.68385
C	7.49499	2.01461	-1.39445
N	6.94127	1.34593	-0.298549
H	6.96862	2.79355	-1.91974
H	6.03664	1.49207	0.11989
