29
  This energy is -0.00112216 and Call times are: 6924
C	0.375469	0.346001	-1.10969
N	0.795034	0.382764	-2.45983
H	0.876858	-0.490618	-3.00013
H	1.02231	1.27875	-2.91556
N	0.0797549	-0.845442	-0.524964
C	-0.325516	-0.908025	0.77067
O	-0.584861	-1.98694	1.27273
N	-0.441999	0.242957	1.511
C	-0.154339	1.45065	0.95753
H	-0.75365	0.195524	2.50752
C	0.262212	1.52704	-0.370349
H	-0.248416	2.35381	1.54717
H	0.492499	2.48677	-0.815647
C	7.3245	0.21862	-1.29988
O	7.81881	0.626964	-2.36535
N	7.30428	-1.20191	-1.04128
C	6.79393	-1.81332	0.0878316
H	7.71386	-1.75072	-1.78735
N	6.85856	-3.17431	0.164416
H	7.25817	-3.74771	-0.557583
H	6.4838	-3.61013	0.990346
N	6.24835	-1.13604	1.09042
C	6.24287	0.214683	0.894012
C	6.73145	0.929861	-0.206495
N	6.53713	2.30068	-0.0220541
C	5.94767	2.40875	1.15675
N	5.74516	1.16297	1.75821
H	5.64674	3.33031	1.62571
H	5.31945	0.971418	2.65089
