29
  This energy is -0.00655534 and Call times are: 5293
C	0.978087	-0.512583	-0.52222
N	2.16307	-0.762184	-1.25282
H	2.62561	0.00252027	-1.76536
H	2.57465	-1.70663	-1.28041
N	0.449478	0.739949	-0.497159
C	-0.688026	1.00605	0.197178
O	-1.14264	2.13595	0.204851
N	-1.32244	0.00275283	0.888062
C	-0.821042	-1.26064	0.884151
H	-2.19733	0.206744	1.42229
C	0.34493	-1.5453	0.175567
H	-1.3265	-2.04655	1.43104
H	0.748178	-2.55017	0.169461
C	5.33022	1.02282	-1.03967
O	5.48141	1.77128	-2.02114
N	4.3293	1.35984	-0.0549042
C	4.03871	0.636811	1.08613
H	3.82576	2.21154	-0.270857
N	3.05643	1.10575	1.90926
H	2.53823	1.94655	1.72414
H	2.85261	0.572441	2.73787
N	4.67124	-0.484111	1.41015
C	5.63002	-0.846738	0.508864
C	6.00015	-0.188852	-0.670753
N	7.02578	-0.884241	-1.31531
C	7.26724	-1.93203	-0.54553
N	6.44115	-1.95601	0.582177
H	8.00446	-2.69371	-0.735587
H	6.42449	-2.64217	1.31955
