29
  This energy is -0.00341675 and Call times are: 5094
C	-0.824607	0.366672	0.823215
N	-1.95562	0.911842	1.47426
H	-2.70346	1.359	0.924537
H	-2.04366	0.868047	2.50016
N	-0.725581	0.433609	-0.53126
C	0.350698	-0.0825101	-1.18093
O	0.417135	-0.0106352	-2.39494
N	1.36022	-0.683362	-0.46941
C	1.29306	-0.767327	0.885592
H	2.18825	-1.08052	-0.96846
C	0.194068	-0.241517	1.56262
H	2.09259	-1.24238	1.43994
H	0.136071	-0.305993	2.64192
C	6.11644	-0.654027	1.30363
O	6.03843	-1.01582	2.49079
N	6.66411	-1.57037	0.331229
C	6.81827	-1.32276	-1.01936
H	6.94316	-2.4583	0.730342
N	7.35698	-2.30844	-1.79431
H	7.64391	-3.19989	-1.42997
H	7.46562	-2.11826	-2.77644
N	6.46716	-0.17547	-1.58682
C	5.94268	0.727258	-0.707576
C	5.74458	0.576431	0.67058
N	5.18125	1.73443	1.21154
C	5.04377	2.56032	0.187949
N	5.49413	1.99311	-1.00795
H	4.63762	3.55657	0.235673
H	5.49939	2.41077	-1.92465
