29
  This energy is 0.0021978 and Call times are: 5958
C	0.0489634	-1.21928	0.0553924
N	-0.211859	-2.6038	-0.0684221
H	-1.05685	-2.92915	-0.559905
H	0.436935	-3.29869	0.329481
N	-0.818353	-0.316914	-0.476009
C	-0.59083	1.01875	-0.370777
O	-1.38215	1.80795	-0.85489
N	0.52881	1.47631	0.279957
C	1.41642	0.601595	0.822734
H	0.704397	2.50344	0.361235
C	1.19345	-0.770463	0.720986
H	2.29687	0.969505	1.33428
H	1.89764	-1.47115	1.15175
C	7.34701	0.419702	1.30549
O	7.9337	0.620176	2.38342
N	6.16973	1.19752	0.998585
C	5.40806	1.09683	-0.149843
H	5.92705	1.86034	1.72478
N	4.32279	1.91498	-0.272953
H	4.05485	2.58291	0.428352
H	3.77426	1.8337	-1.11262
N	5.68716	0.244007	-1.12778
C	6.79402	-0.517027	-0.885362
C	7.62989	-0.493333	0.23806
N	8.6573	-1.42956	0.10086
C	8.44648	-2.00177	-1.07254
N	7.32011	-1.48003	-1.71582
H	9.05062	-2.77899	-1.50924
H	6.94637	-1.74233	-2.61377
