29
  This energy is -0.00380823 and Call times are: 4961
C	0.0964573	0.998622	0.696821
N	0.481951	2.23384	1.26768
H	1.25604	2.77488	0.856004
H	-0.00458505	2.6043	2.09725
N	0.749887	0.525528	-0.397758
C	0.399014	-0.658394	-0.96525
O	0.999078	-1.06166	-1.9454
N	-0.629691	-1.39735	-0.434087
C	-1.30398	-0.953746	0.6596
H	-0.900058	-2.30798	-0.870068
C	-0.952919	0.258994	1.25005
H	-2.11384	-1.54157	1.0729
H	-1.4871	0.616521	2.12139
C	4.2587	0.934923	1.00599
O	3.76321	1.54408	1.97023
N	4.9129	1.69301	-0.0344528
C	5.51018	1.16998	-1.16532
H	4.90354	2.69196	0.131617
N	6.08361	2.03901	-2.04752
H	6.09168	3.03475	-1.91259
H	6.5155	1.64841	-2.86816
N	5.54728	-0.131072	-1.42505
C	4.94035	-0.893293	-0.469159
C	4.31013	-0.465214	0.70595
N	3.81348	-1.5589	1.41878
C	4.13525	-2.61676	0.69342
N	4.82511	-2.26461	-0.470543
H	3.90818	-3.63995	0.940946
H	5.17926	-2.87826	-1.18665
