29
  This energy is -0.0022026 and Call times are: 10452
C	-0.772424	-0.615626	0.718662
N	-1.43405	-1.60715	1.47983
H	-1.05587	-2.56452	1.52273
H	-2.29706	-1.38412	1.99713
N	0.3652	-0.928188	0.042639
C	1.01988	0.0060794	-0.695854
O	2.03717	-0.29758	-1.29277
N	0.534762	1.28899	-0.768154
C	-0.599924	1.63529	-0.104715
H	1.0378	2.00801	-1.33594
C	-1.27977	0.685508	0.655764
H	-0.976505	2.64852	-0.166289
H	-2.18406	0.956604	1.18602
C	5.24779	-1.18115	0.0780316
O	4.57759	-2.18803	0.366747
N	5.24858	-0.713777	-1.28826
C	5.93692	0.383386	-1.76949
H	4.67661	-1.27788	-1.90488
N	5.82234	0.680408	-3.09651
H	5.2636	0.141663	-3.73472
H	6.32783	1.48094	-3.43737
N	6.6979	1.15165	-0.999915
C	6.73091	0.750741	0.304407
C	6.07445	-0.338724	0.890441
N	6.36697	-0.407674	2.25448
C	7.17734	0.611771	2.4842
N	7.43141	1.35146	1.32531
H	7.60744	0.869045	3.43739
H	8.01156	2.1696	1.23109
