29
  This energy is 1.4139e-05 and Call times are: 6143
C	0.72241	0.618584	-0.766542
N	1.43971	1.08023	-1.89465
H	1.35315	0.592365	-2.79793
H	2.05353	1.90522	-1.82591
N	-0.0828147	-0.471606	-0.876043
C	-0.782636	-0.935293	0.192636
O	-1.49756	-1.9137	0.0701692
N	-0.683227	-0.301491	1.40706
C	0.112586	0.790959	1.55138
H	-1.2212	-0.657594	2.22938
C	0.834984	1.27546	0.462336
H	0.186075	1.2855	2.51172
H	1.47025	2.14537	0.57238
C	7.21446	-1.19554	-0.00265525
O	6.37503	-2.10056	0.14786
N	8.31046	-1.408	-0.918525
C	9.32067	-0.507375	-1.19693
H	8.28604	-2.31471	-1.36893
N	10.2804	-0.877754	-2.09361
H	10.2853	-1.76903	-2.55767
H	11.0121	-0.215182	-2.28921
N	9.39398	0.691363	-0.63194
C	8.37821	0.941631	0.244794
C	7.31296	0.102803	0.595378
N	6.48486	0.730842	1.52852
C	7.03575	1.91521	1.73478
N	8.19522	2.09409	0.974285
H	6.66172	2.67367	2.40155
H	8.79697	2.90157	0.948526
