29
  This energy is -0.00434627 and Call times are: 900
C	0.664133	0.802323	-0.638212
N	1.67377	1.45047	-1.38708
H	2.54383	0.951646	-1.62285
H	1.55093	2.42359	-1.70343
N	0.843682	-0.481999	-0.229346
C	-0.110867	-1.12729	0.491257
O	0.0726274	-2.27778	0.846334
N	-1.279	-0.482814	0.817661
C	-1.49089	0.801099	0.424901
H	-2.01355	-0.978535	1.37185
C	-0.519013	1.47291	-0.314513
H	-2.41414	1.30284	0.685843
H	-0.683233	2.49572	-0.629649
C	6.78084	0.981428	0.449693
O	7.64171	1.6793	1.01379
N	6.2423	1.42684	-0.813943
C	5.28544	0.770427	-1.56408
H	6.6373	2.30383	-1.13087
N	4.89108	1.33984	-2.73991
H	5.26283	2.2082	-3.08271
H	4.19347	0.854419	-3.27866
N	4.73987	-0.380096	-1.18964
C	5.2164	-0.844823	0.00200093
C	6.17892	-0.260535	0.834754
N	6.38951	-1.05201	1.9662
C	5.57643	-2.08454	1.81958
N	4.83713	-2.00612	0.635512
H	5.47201	-2.90405	2.51042
H	4.15324	-2.66084	0.291362
