29
  This energy is -0.000188118 and Call times are: 9603
C	-0.603285	0.0379283	1.06147
N	-1.3615	0.432381	2.18831
H	-1.72086	1.39535	2.25875
H	-1.56177	-0.235486	2.94724
N	-0.348998	0.932768	0.0697581
C	0.376894	0.578992	-1.02329
O	0.591699	1.39801	-1.89877
N	0.866464	-0.699001	-1.13937
C	0.630808	-1.61847	-0.166415
H	1.42481	-0.971742	-1.97978
C	-0.112374	-1.267	0.95909
H	1.01988	-2.62406	-0.264655
H	-0.30272	-1.99595	1.73678
C	13.4902	-0.205212	0.947011
O	14.3308	-0.590064	1.77867
N	13.5906	1.13789	0.426265
C	12.741	1.71471	-0.498175
H	14.3719	1.65774	0.80699
N	12.987	3.00183	-0.879163
H	13.7528	3.54489	-0.520959
H	12.3623	3.4131	-1.55239
N	11.7052	1.07302	-1.02444
C	11.566	-0.204075	-0.5632
C	12.3668	-0.879104	0.366534
N	11.8893	-2.17577	0.570419
C	10.8301	-2.27937	-0.214462
N	10.5894	-1.10193	-0.928894
H	10.2062	-3.15144	-0.314636
H	9.85024	-0.921837	-1.58925
