29
  This energy is 0.00266974 and Call times are: 5470
C	-0.0746042	1.08948	0.547329
N	-0.00583722	2.46583	0.865439
H	0.390489	3.13404	0.188804
H	-0.349542	2.81359	1.77267
N	0.383725	0.648822	-0.654604
C	0.329076	-0.668355	-0.984588
O	0.745815	-1.03933	-2.06722
N	-0.194924	-1.5779	-0.0988246
C	-0.661944	-1.17136	1.11122
H	-0.237258	-2.59108	-0.351997
C	-0.611019	0.176981	1.46051
H	-1.07366	-1.89397	1.80444
H	-0.981807	0.505642	2.42327
C	8.05741	-1.07967	-0.406282
O	7.14931	-1.83141	-0.801968
N	9.29517	-1.66496	0.052586
C	10.3951	-0.972135	0.520966
H	9.30203	-2.67649	0.00431653
N	11.4855	-1.69165	0.915388
H	11.5247	-2.69513	0.880238
H	12.2812	-1.17801	1.2554
N	10.4323	0.352098	0.602113
C	9.28284	0.954674	0.179257
C	8.11902	0.348624	-0.310156
N	7.16641	1.31625	-0.637529
C	7.74002	2.47333	-0.353194
N	9.03428	2.30786	0.149043
H	7.29179	3.44413	-0.481218
H	9.67915	3.02524	0.4394
