29
  This energy is -0.00198447 and Call times are: 10407
C	0.531854	0.274458	1.06485
N	1.07775	0.235973	2.36899
H	1.06224	-0.640236	2.91068
H	1.49477	1.07941	2.78951
N	-0.0141982	-0.848302	0.526217
C	-0.54525	-0.837834	-0.724665
O	-1.02882	-1.85607	-1.18592
N	-0.536105	0.318447	-1.46585
C	0.00181309	1.45867	-0.957779
H	-0.944363	0.327175	-2.42797
C	0.549305	1.45982	0.323964
H	0.0055278	2.36647	-1.54778
H	0.978945	2.36564	0.733
C	4.10546	-0.464359	-0.602462
O	3.14372	-0.802602	-1.31449
N	4.00232	-0.625096	0.828872
C	4.97599	-0.299486	1.7536
H	3.11626	-1.01577	1.12524
N	4.70598	-0.519513	3.07308
H	3.83773	-0.905409	3.40016
H	5.42116	-0.278656	3.7387
N	6.15135	0.214171	1.41265
C	6.29893	0.38652	0.0666965
C	5.38029	0.0909069	-0.948203
N	5.91391	0.41429	-2.19785
C	7.12056	0.891694	-1.94324
N	7.40488	0.896172	-0.574346
H	7.82436	1.24317	-2.67869
H	8.24901	1.20743	-0.121167
