29
  This energy is -8.8673e-05 and Call times are: 9250
C	-0.186135	-1.14698	0.376707
N	-0.716051	-2.43511	0.621974
H	-1.62955	-2.70242	0.227675
H	-0.19706	-3.11683	1.19472
N	-0.885063	-0.260604	-0.381406
C	-0.398105	0.983161	-0.631909
O	-1.04238	1.75985	-1.31387
N	0.817434	1.36222	-0.116939
C	1.54213	0.500891	0.644978
H	1.19253	2.31865	-0.30923
C	1.05273	-0.777252	0.908516
H	2.49956	0.806573	1.04763
H	1.62637	-1.46691	1.51491
C	9.30004	1.25006	-0.724427
O	9.2428	2.33645	-1.32678
N	10.5891	0.629134	-0.529794
C	10.8222	-0.570439	0.115076
H	11.3547	1.16451	-0.920735
N	12.1113	-1.00883	0.206975
H	12.893	-0.502126	-0.169764
H	12.2706	-1.88368	0.677945
N	9.8516	-1.30596	0.642789
C	8.61013	-0.761113	0.484818
C	8.26791	0.440445	-0.147995
N	6.88675	0.64216	-0.0965261
C	6.40973	-0.40866	0.549199
N	7.42177	-1.29649	0.926374
H	5.3721	-0.589251	0.773816
H	7.32437	-2.16614	1.4254
