29
  This energy is -0.00416574 and Call times are: 10804
C	0.42981	0.694241	0.908516
N	1.24241	1.4691	1.76847
H	2.23717	1.61778	1.54538
H	0.850554	1.89122	2.62311
N	0.964128	0.145072	-0.214787
C	0.204914	-0.60347	-1.05747
O	0.705842	-1.08515	-2.05769
N	-1.12361	-0.815561	-0.780949
C	-1.68963	-0.281223	0.333366
H	-1.70808	-1.39116	-1.42864
C	-0.920756	0.488171	1.20485
H	-2.73752	-0.452605	0.544962
H	-1.36716	0.915906	2.09377
C	4.43973	-0.903521	-0.432371
O	3.65309	-1.83291	-0.684898
N	4.15658	0.410711	-0.95945
C	4.9261	1.54281	-0.771403
H	3.30592	0.447646	-1.50771
N	4.50521	2.70668	-1.34637
H	3.66678	2.77728	-1.89574
H	5.07269	3.52537	-1.20405
N	6.0474	1.54279	-0.0613027
C	6.36024	0.320667	0.45987
C	5.65286	-0.880996	0.329776
N	6.30613	-1.90771	1.01537
C	7.37754	-1.34071	1.54386
N	7.45746	0.0203608	1.23429
H	8.11906	-1.83897	2.14523
H	8.17071	0.67497	1.51279
