29
  This energy is -0.000608294 and Call times are: 5182
C	-0.301998	1.15382	0.263848
N	-0.988663	2.34173	0.606793
H	-2.00136	2.31806	0.794671
H	-0.486298	3.23922	0.672159
N	-0.981323	-0.0212487	0.182412
C	-0.345065	-1.17655	-0.145135
O	-0.974805	-2.21692	-0.211856
N	1.00453	-1.1698	-0.400022
C	1.71396	-0.0126238	-0.3275
H	1.49448	-2.05799	-0.65198
C	1.07204	1.17832	0.00749384
H	2.77759	-0.0148443	-0.529739
H	1.63291	2.10263	0.0665167
C	6.34342	-0.84602	-0.990263
O	5.92395	-1.46477	-1.98401
N	5.76008	-1.12521	0.300844
C	6.11195	-0.527558	1.4959
H	5.0337	-1.8301	0.268199
N	5.45152	-0.915413	2.62539
H	4.72667	-1.61136	2.62741
H	5.71463	-0.473983	3.49052
N	7.05694	0.399877	1.5876
C	7.64082	0.700539	0.391035
C	7.35976	0.156622	-0.868514
N	8.17981	0.732046	-1.84183
C	8.93406	1.59881	-1.18718
N	8.64439	1.61831	0.180461
H	9.68962	2.22919	-1.6248
H	9.07383	2.18582	0.893423
