29
  This energy is -0.00797539 and Call times are: 7078
C	-0.606	-0.98333	-0.397411
N	-1.58525	-1.87899	-0.886411
H	-2.53638	-1.5423	-1.09472
H	-1.35938	-2.87291	-1.0389
N	-0.922135	0.324691	-0.202398
C	0.000386193	1.20557	0.266477
O	-0.306258	2.37244	0.433114
N	1.27482	0.780003	0.551318
C	1.62439	-0.520666	0.367868
H	1.98481	1.45697	0.911947
C	0.686623	-1.43306	-0.112497
H	2.63088	-0.84902	0.594541
H	0.960362	-2.47019	-0.260257
C	6.8458	-1.01893	1.03221
O	6.51986	-1.9392	1.80241
N	8.07488	-0.303671	1.28313
C	8.57579	0.738071	0.526142
H	8.5733	-0.637698	2.09896
N	9.75789	1.30024	0.912073
H	10.2771	0.992696	1.71558
H	10.1141	2.05851	0.354649
N	7.95855	1.20912	-0.55028
C	6.78834	0.564957	-0.830867
C	6.19642	-0.49493	-0.132595
N	4.99841	-0.872296	-0.74357
C	4.87166	-0.0622919	-1.78114
N	5.93914	0.835231	-1.87949
H	4.05661	-0.0670206	-2.48501
H	6.08109	1.55037	-2.57464
