29
  This energy is -0.00635515 and Call times are: 4674
C	-0.507591	1.04072	0.38906
N	-1.3022	2.01319	1.03956
H	-2.02943	1.72338	1.7093
H	-1.16326	3.01697	0.851785
N	-0.705101	-0.279187	0.649314
C	0.0448454	-1.23328	0.0376583
O	-0.150494	-2.40933	0.286906
N	1.02018	-0.871133	-0.858992
C	1.24397	0.43933	-1.14219
H	1.59733	-1.60442	-1.32976
C	0.480999	1.42653	-0.520963
H	2.01453	0.717417	-1.85009
H	0.655547	2.47176	-0.743317
C	6.40992	0.646003	0.939257
O	7.30688	1.25027	1.55297
N	5.32112	0.0668062	1.69043
C	4.2528	-0.632038	1.16177
H	5.39882	0.217097	2.6889
N	3.31061	-1.11169	2.02463
H	3.3579	-0.980046	3.01972
H	2.53683	-1.61969	1.62998
N	4.10863	-0.853459	-0.138899
C	5.11485	-0.324874	-0.894669
C	6.23467	0.395456	-0.460589
N	7.02964	0.762761	-1.54873
C	6.4064	0.277191	-2.60917
N	5.23083	-0.396345	-2.26406
H	6.73766	0.371504	-3.62953
H	4.57864	-0.853514	-2.88087
