29
  This energy is 0.00196591 and Call times are: 3713
C	0.394816	0.185723	-1.14094
N	0.518447	0.265384	-2.54757
H	-0.256639	-0.040961	-3.15322
H	1.38055	0.628762	-2.97986
N	-0.750185	-0.296406	-0.588292
C	-0.894173	-0.383252	0.760246
O	-1.92922	-0.818501	1.23208
N	0.125423	0.0190285	1.5879
C	1.28344	0.505823	1.06864
H	0.0153229	-0.0474912	2.62515
C	1.44239	0.599493	-0.312871
H	2.08293	0.82106	1.72717
H	2.36301	0.986602	-0.731218
C	6.44038	-0.451869	1.08827
O	5.90397	-0.868415	2.12995
N	5.60122	-0.0857325	-0.0283954
C	6.03859	0.391526	-1.24909
H	4.61311	-0.209671	0.15557
N	5.10045	0.688281	-2.1947
H	4.11317	0.576871	-2.04429
H	5.42899	1.03468	-3.08048
N	7.32215	0.570351	-1.53552
C	8.15903	0.237515	-0.509879
C	7.82015	-0.251451	0.757948
N	8.97042	-0.468418	1.52001
C	9.97469	-0.120077	0.733351
N	9.53276	0.318611	-0.518441
H	11.0187	-0.157793	0.994685
H	10.0927	0.637257	-1.29286
