29
  This energy is -0.010159 and Call times are: 4894
C	-0.0898339	-0.0508056	1.21715
N	-0.0378933	-0.441243	2.5755
H	0.355551	-1.35712	2.83587
H	-0.391134	0.18272	3.31579
N	0.381001	-0.887162	0.253973
C	0.342611	-0.535841	-1.05825
O	0.77036	-1.30178	-1.9031
N	-0.17736	0.679953	-1.42959
C	-0.656572	1.53997	-0.492404
H	-0.207171	0.950771	-2.43865
C	-0.622374	1.19039	0.856386
H	-1.06503	2.49671	-0.792469
H	-1.00293	1.87212	1.6066
C	7.38592	-0.0970757	-1.07051
O	8.37555	-0.110708	-1.82336
N	6.09858	-0.472559	-1.60619
C	4.90825	-0.50933	-0.905517
H	6.13021	-0.721786	-2.58724
N	3.78174	-0.889727	-1.57529
H	3.77885	-1.14309	-2.54769
H	2.91988	-0.912814	-1.05645
N	4.81813	-0.191927	0.380054
C	6.01117	0.171469	0.934732
C	7.2659	0.241339	0.316614
N	8.23693	0.656851	1.23061
C	7.58558	0.832698	2.36795
N	6.22235	0.549466	2.24099
H	8.02264	1.1546	3.29806
H	5.51246	0.604233	2.95364
