29
  This energy is 0.000711205 and Call times are: 10540
C	0.203726	-1.07895	0.535235
N	0.223652	-2.45032	0.880488
H	-0.295296	-3.13466	0.311473
H	0.754606	-2.77836	1.70061
N	-0.502311	-0.664436	-0.55039
C	-0.537635	0.647408	-0.903445
O	-1.17702	0.994789	-1.88013
N	0.146247	1.57813	-0.16015
C	0.861965	1.19797	0.931097
H	0.119502	2.58722	-0.431146
C	0.905435	-0.144652	1.3027
H	1.39861	1.93717	1.51232
H	1.47419	-0.452329	2.17118
C	7.41866	-1.33714	-0.32839
O	6.92691	-2.3781	-0.798409
N	8.09743	-1.40102	0.944549
C	8.69418	-0.340687	1.59934
H	8.10678	-2.33015	1.3473
N	9.29303	-0.584614	2.8011
H	9.32003	-1.49392	3.22793
H	9.72431	0.194099	3.27029
N	8.70729	0.8933	1.11081
C	8.07646	1.00712	-0.0942519
C	7.44446	0.00211422	-0.837106
N	6.91936	0.527564	-2.01995
C	7.22619	1.81354	-1.99078
N	7.93351	2.15803	-0.835039
H	6.97623	2.53564	-2.74963
H	8.28163	3.06637	-0.573209
