29
  This energy is -0.00182621 and Call times are: 1699
C	0.987601	-0.293463	0.656226
N	2.00758	-0.977136	1.35801
H	1.99593	-2.00571	1.41553
H	2.76954	-0.456769	1.81709
N	-0.00980889	-0.996704	0.0566287
C	-1.00152	-0.363841	-0.623686
O	-1.88435	-1.01519	-1.15259
N	-1.00721	1.00665	-0.713938
C	-0.0253297	1.74025	-0.126286
H	-1.76963	1.494	-1.23703
C	0.996851	1.10205	0.574047
H	-0.0362595	2.82027	-0.201562
H	1.78119	1.68214	1.04385
C	5.76922	-0.754647	-1.21881
O	5.95263	-1.20067	-2.365
N	5.93809	-1.64125	-0.0915926
C	5.77259	-1.30311	1.23786
H	6.20174	-2.58205	-0.357965
N	5.97408	-2.27356	2.17592
H	6.2361	-3.21585	1.94531
H	5.8506	-2.01755	3.1412
N	5.42829	-0.0841969	1.63443
C	5.25582	0.793856	0.603729
C	5.39804	0.554049	-0.768704
N	5.13358	1.71651	-1.49649
C	4.83997	2.63149	-0.588016
N	4.90027	2.11892	0.711353
H	4.58119	3.65695	-0.791072
H	4.7221	2.60599	1.57497
