29
  This energy is -0.0063394 and Call times are: 4872
C	-0.360925	0.755288	-0.889596
N	-0.817015	1.8658	-1.63726
H	-1.03878	2.75302	-1.16283
H	-0.93193	1.8001	-2.65932
N	-0.215284	0.860468	0.458223
C	0.221184	-0.191603	1.19949
O	0.343782	-0.0734135	2.40547
N	0.522968	-1.38448	0.589259
C	0.388639	-1.5239	-0.756145
H	0.858713	-2.19402	1.15878
C	-0.0581556	-0.451753	-1.52653
H	0.628389	-2.46722	-1.23038
H	-0.166763	-0.557975	-2.5986
C	6.68268	1.33458	-0.398951
O	7.2478	2.36858	-0.796191
N	5.33231	1.42866	0.103885
C	4.56939	0.379554	0.579806
H	4.96151	2.37079	0.082069
N	3.30629	0.652831	1.01826
H	2.90861	1.57562	1.01011
H	2.75889	-0.117731	1.36341
N	5.01231	-0.870693	0.627393
C	6.28759	-1.01322	0.162173
C	7.14062	-0.0217772	-0.338522
N	8.36623	-0.577147	-0.713178
C	8.25509	-1.86741	-0.445596
N	7.00399	-2.18603	0.0910092
H	9.01753	-2.61014	-0.609268
H	6.66881	-3.09172	0.377698
