29
  This energy is -0.000959193 and Call times are: 8258
C	0.0314275	0.496158	1.11577
N	0.339399	0.824197	2.45659
H	1.0861	0.318342	2.95455
H	-0.176936	1.5688	2.9476
N	0.723327	-0.489209	0.483936
C	0.446953	-0.823596	-0.803944
O	1.0803	-1.70976	-1.3489
N	-0.54412	-0.163318	-1.48821
C	-1.25515	0.82672	-0.886672
H	-0.757175	-0.419998	-2.47874
C	-0.980506	1.17822	0.433795
H	-2.035	1.34289	-1.43224
H	-1.5442	1.9662	0.917253
C	9.34911	-0.0668576	0.151938
O	10.5852	0.0684083	0.156663
N	8.76983	-1.19632	0.840368
C	7.42211	-1.48795	0.928603
H	9.45914	-1.79419	1.27965
N	7.05171	-2.60292	1.62285
H	7.70986	-3.21658	2.07008
H	6.06808	-2.80698	1.68093
N	6.48317	-0.7344	0.36994
C	6.98047	0.348903	-0.295052
C	8.31931	0.732174	-0.443139
N	8.40999	1.90508	-1.19614
C	7.16059	2.21992	-1.49378
N	6.2482	1.30096	-0.966736
H	6.84919	3.07425	-2.07076
H	5.24429	1.31251	-1.04944
