29
  This energy is -0.00416032 and Call times are: 6549
C	-0.852024	-0.477707	0.733457
N	-1.98223	-1.14432	1.26121
H	-2.65083	-1.60845	0.62956
H	-2.14853	-1.17297	2.27789
N	-0.648818	-0.450292	-0.610732
C	0.429111	0.183347	-1.14309
O	0.589984	0.19445	-2.35031
N	1.33405	0.809189	-0.321002
C	1.16117	0.801006	1.0272
H	2.1633	1.29669	-0.729792
C	0.0593961	0.154325	1.58443
H	1.87861	1.29645	1.6691
H	-0.0826022	0.145096	2.65782
C	5.72827	0.0202851	1.29113
O	6.36566	0.251237	2.33359
N	5.10491	-1.27203	1.12824
C	4.36608	-1.68394	0.0357076
H	5.25492	-1.89117	1.91548
N	3.8482	-2.94644	0.0513068
H	3.97834	-3.58516	0.816066
H	3.31215	-3.23717	-0.749107
N	4.14297	-0.908212	-1.01787
C	4.71302	0.327552	-0.912945
C	5.47532	0.840631	0.14391
N	5.8762	2.14928	-0.134809
C	5.36975	2.41746	-1.32658
N	4.64993	1.33723	-1.84589
H	5.47993	3.34608	-1.86069
H	4.16943	1.28455	-2.72971
