29
  This energy is -0.0030227 and Call times are: 1566
C	1.03263	0.115994	-0.642126
N	2.33953	-0.024433	-1.16419
H	2.97932	-0.731404	-0.773973
H	2.66448	0.575637	-1.9365
N	0.62119	-0.684631	0.376994
C	-0.629358	-0.569878	0.896409
O	-0.975291	-1.2983	1.80917
N	-1.49996	0.365353	0.392616
C	-1.12102	1.18176	-0.625952
H	-2.4619	0.454121	0.791638
C	0.15904	1.07313	-1.16656
H	-1.81263	1.91671	-1.01807
H	0.465489	1.72124	-1.97801
C	8.60765	-0.0263056	1.34752
O	9.28087	-0.0962216	2.39069
N	7.1975	0.268091	1.44754
C	6.31548	0.379694	0.389826
H	6.88144	0.394773	2.40129
N	5.01062	0.663958	0.670638
H	4.66486	0.795485	1.60493
H	4.37608	0.742674	-0.106347
N	6.68346	0.222343	-0.875636
C	8.01087	-0.0586079	-1.02438
C	8.98309	-0.192271	-0.0252691
N	10.2266	-0.482746	-0.591127
C	10.0099	-0.523205	-1.89502
N	8.67197	-0.270687	-2.21256
H	10.7526	-0.723848	-2.64861
H	8.24994	-0.243901	-3.12687
