29
  This energy is -0.00234035 and Call times are: 2577
C	-0.0231203	-1.0787	0.572701
N	0.0107743	-2.1162	1.53327
H	0.167753	-1.89593	2.52738
H	-0.120456	-3.09864	1.2509
N	0.151966	0.21178	0.963731
C	0.123852	1.22694	0.0606854
O	0.283199	2.37499	0.434819
N	-0.0837925	0.957833	-1.27006
C	-0.262423	-0.320859	-1.69506
H	-0.10554	1.73813	-1.96511
C	-0.235583	-1.37005	-0.777958
H	-0.42561	-0.52551	-2.74564
H	-0.377371	-2.3903	-1.11171
C	7.42676	0.940771	-0.688269
O	8.0719	1.90099	-1.14446
N	7.69264	-0.382802	-1.20076
C	7.0661	-1.54782	-0.801606
H	8.41167	-0.399283	-1.91372
N	7.44511	-2.71582	-1.39698
H	8.1545	-2.76667	-2.10686
H	6.9826	-3.55862	-1.09983
N	6.11937	-1.57535	0.128183
C	5.83023	-0.345779	0.645507
C	6.40293	0.888156	0.312763
N	5.83046	1.91157	1.07161
C	4.93742	1.31121	1.84024
N	4.89773	-0.0686968	1.61889
H	4.30117	1.79743	2.56033
H	4.30889	-0.748943	2.07203
