29
  This energy is 0.00174448 and Call times are: 7772
C	0.0652076	1.01717	-0.673217
N	0.469171	2.0532	-1.54712
H	1.38122	2.00198	-2.02352
H	-0.141035	2.86637	-1.71606
N	0.883478	-0.0481492	-0.46246
C	0.518893	-1.05668	0.372275
O	1.26872	-2.00073	0.545253
N	-0.692135	-1.01044	1.01857
C	-1.5342	0.0398624	0.830478
H	-0.973148	-1.78578	1.66068
C	-1.1709	1.07992	-0.0232797
H	-2.48729	0.0695942	1.34329
H	-1.83831	1.9187	-0.176304
C	7.48841	-0.0412812	-1.3987
O	7.23114	-0.285709	-2.5905
N	7.09051	1.23285	-0.84783
C	7.30091	1.65614	0.450522
H	6.61915	1.82898	-1.51718
N	6.85586	2.898	0.799877
H	6.38491	3.51377	0.160501
H	7.0143	3.19728	1.74744
N	7.9131	0.910343	1.36188
C	8.31031	-0.307181	0.889721
C	8.14663	-0.829423	-0.399379
N	8.69327	-2.11233	-0.478465
C	9.17324	-2.35651	0.729318
N	8.96489	-1.28514	1.6031
H	9.67035	-3.2613	1.03588
H	9.23309	-1.21872	2.57184
