29
  This energy is 0.00298765 and Call times are: 5338
C	-1.10363	-0.0721456	0.518551
N	-2.25027	-0.480106	1.23901
H	-2.25579	-1.38348	1.73428
H	-3.08834	0.118531	1.27628
N	-0.00694401	-0.875087	0.480517
C	1.10734	-0.506351	-0.204498
O	2.07754	-1.24237	-0.224115
N	1.13822	0.693321	-0.872519
C	0.0593415	1.51995	-0.855148
H	1.9949	0.977519	-1.39954
C	-1.08893	1.15225	-0.155945
H	0.0908376	2.46415	-1.38404
H	-1.95086	1.80738	-0.139194
C	8.57033	-0.161344	1.3494
O	8.00519	-0.477154	2.41111
N	9.46183	0.974614	1.34655
C	10.1627	1.45253	0.255899
H	9.54289	1.42243	2.25125
N	10.9633	2.5429	0.436154
H	11.0659	3.01015	1.31984
H	11.4691	2.88361	-0.364224
N	10.0883	0.898884	-0.948056
C	9.25586	-0.181634	-0.998516
C	8.50476	-0.743118	0.0416201
N	7.77973	-1.84406	-0.420118
C	8.0852	-1.9433	-1.70292
N	8.98372	-0.951089	-2.10652
H	7.70512	-2.68703	-2.38274
H	9.37113	-0.8071	-3.02521
