29
  This energy is -0.00445164 and Call times are: 834
C	-0.333168	0.190148	1.15972
N	-0.485087	0.130402	2.56457
H	0.0398979	-0.566397	3.11255
H	-1.11918	0.779689	3.05293
N	0.508048	-0.674604	0.532464
C	0.671841	-0.637959	-0.816113
O	1.43102	-1.42281	-1.35559
N	-0.0173859	0.282109	-1.56768
C	-0.866362	1.1612	-0.972674
H	0.108139	0.310833	-2.60491
C	-1.04232	1.13292	0.409662
H	-1.40638	1.88373	-1.57148
H	-1.71751	1.83116	0.888189
C	7.61946	-0.472365	1.23313
O	8.34448	-0.852057	2.16935
N	6.19037	-0.424533	1.43467
C	5.25261	-0.0281612	0.500514
H	5.90652	-0.7181	2.3614
N	3.93764	-0.0457948	0.865041
H	3.62284	-0.331264	1.77563
H	3.26243	0.244124	0.177597
N	5.57699	0.36451	-0.725107
C	6.92012	0.337074	-0.966601
C	7.94724	-0.0451413	-0.0946844
N	9.18874	0.0689836	-0.724436
C	8.91747	0.507625	-1.94211
N	7.54539	0.687826	-2.14125
H	9.64269	0.71152	-2.71168
H	7.08071	1.01085	-2.97464
