29
  This energy is 0.000665102 and Call times are: 1900
C	0.743534	0.349645	-0.903888
N	1.49797	0.432027	-2.09733
H	1.45274	-0.327918	-2.79148
H	2.09802	1.2487	-2.2847
N	-0.0427655	-0.735544	-0.673697
C	-0.777419	-0.838978	0.464906
O	-1.47443	-1.82067	0.648917
N	-0.733259	0.161447	1.40491
C	0.0422596	1.25999	1.20652
H	-1.29804	0.0825224	2.28082
C	0.799992	1.37694	0.0425705
H	0.0721488	2.0447	1.95189
H	1.41928	2.25014	-0.119955
C	6.5758	-0.92051	-0.650401
O	7.333	-1.83547	-1.01897
N	6.40225	0.227677	-1.50874
C	5.60122	1.3225	-1.24631
H	6.93875	0.171769	-2.36584
N	5.55726	2.32177	-2.17468
H	6.07674	2.29728	-3.0345
H	4.97146	3.11497	-1.97412
N	4.88063	1.43967	-0.137898
C	5.01047	0.377296	0.709198
C	5.79022	-0.773476	0.538838
N	5.64795	-1.62542	1.63651
C	4.80601	-1.00533	2.44605
N	4.38648	0.222783	1.92598
H	4.46431	-1.37433	3.39833
H	3.751	0.883947	2.34292
