29
  This energy is -0.00460184 and Call times are: 5892
C	0.189541	0.915602	-0.786038
N	0.725346	2.008	-1.50703
H	1.6452	2.39529	-1.2515
H	0.204361	2.42637	-2.29168
N	0.89126	0.376431	0.246326
C	0.398771	-0.673401	0.954942
O	1.0457	-1.1395	1.87561
N	-0.825318	-1.20659	0.632862
C	-1.55302	-0.691745	-0.393286
H	-1.20466	-2.01402	1.17745
C	-1.05801	0.384908	-1.12704
H	-2.5172	-1.11715	-0.641515
H	-1.63402	0.798462	-1.94533
C	7.02013	1.13146	0.0248051
O	7.75108	2.1075	0.268552
N	6.97536	0.614696	-1.32284
C	6.21869	-0.457468	-1.75537
H	7.57139	1.12124	-1.96606
N	6.29945	-0.809575	-3.07136
H	6.88055	-0.328352	-3.73507
H	5.74425	-1.59129	-3.37665
N	5.42404	-1.15099	-0.949689
C	5.43046	-0.700851	0.338878
C	6.15615	0.369373	0.876745
N	5.885	0.50571	2.24013
C	5.01982	-0.45549	2.51633
N	4.70899	-1.22146	1.38876
H	4.58734	-0.651768	3.48287
H	4.08128	-2.00727	1.33134
