29
  This energy is 0.00230183 and Call times are: 2621
C	-0.831766	-0.776485	0.444236
N	-1.74423	-1.84073	0.631435
H	-1.87937	-2.54286	-0.110297
H	-2.28108	-1.92513	1.50711
N	-0.132076	-0.681239	-0.717768
C	0.750623	0.331554	-0.922518
O	1.36589	0.395938	-1.97166
N	0.947585	1.27942	0.0517346
C	0.264589	1.21413	1.22513
H	1.62633	2.05861	-0.105098
C	-0.643257	0.179948	1.44624
H	0.424956	1.96485	1.98862
H	-1.18968	0.123712	2.37933
C	9.34051	-1.3451	-0.556762
O	9.18894	-2.49056	-1.01641
N	10.679	-0.819528	-0.424707
C	11.0156	0.427816	0.0651629
H	11.3952	-1.46525	-0.734049
N	12.3382	0.75964	0.119226
H	13.073	0.142679	-0.179534
H	12.5732	1.66995	0.477963
N	10.1125	1.30682	0.481524
C	8.82815	0.85673	0.377328
C	8.38259	-0.381367	-0.102149
N	6.98885	-0.45314	-0.0450077
C	6.60502	0.709292	0.455151
N	7.69068	1.54611	0.730479
H	5.58686	1.00714	0.640603
H	7.66933	2.47761	1.11345
