29
  This energy is -0.00304694 and Call times are: 7992
C	-0.546087	-0.70711	0.833002
N	-1.17423	-1.77138	1.52077
H	-1.34181	-2.66868	1.04309
H	-1.46963	-1.66162	2.50201
N	-0.16307	-0.87017	-0.461447
C	0.442287	0.136644	-1.1446
O	0.776449	-0.0330436	-2.30345
N	0.676159	1.34188	-0.528862
C	0.306068	1.53865	0.76416
H	1.14171	2.11662	-1.0537
C	-0.315516	0.513284	1.4747
H	0.493604	2.49137	1.24309
H	-0.612154	0.66527	2.5049
C	6.16023	1.16001	-0.354067
O	6.86325	2.18295	-0.429565
N	5.76383	0.496247	-1.57369
C	4.9883	-0.643963	-1.66107
H	6.1139	0.949989	-2.40864
N	4.70988	-1.13612	-2.90309
H	5.04148	-0.710336	-3.75074
H	4.14398	-1.96647	-2.9562
N	4.50785	-1.27269	-0.59551
C	4.85505	-0.683026	0.58551
C	5.63148	0.465765	0.782371
N	5.75614	0.741925	2.14587
C	5.07371	-0.213729	2.75393
N	4.50328	-1.11038	1.84544
H	4.95223	-0.317639	3.81892
H	3.93981	-1.92004	2.04979
