29
  This energy is -0.00123505 and Call times are: 9669
C	0.953189	0.742036	0.181446
N	2.21842	1.28705	0.501452
H	2.96862	0.678111	0.858961
H	2.40286	2.29385	0.381203
N	0.728044	-0.588738	0.346499
C	-0.478616	-1.13718	0.0464682
O	-0.656578	-2.33189	0.202616
N	-1.494	-0.345375	-0.431515
C	-1.30284	0.988703	-0.608392
H	-2.42228	-0.766549	-0.662471
C	-0.0695125	1.5622	-0.304055
H	-2.10782	1.60673	-0.985579
H	0.0875604	2.62444	-0.443277
C	9.64987	1.16796	0.350904
O	9.01428	2.23332	0.436693
N	9.68887	0.286682	1.49416
C	10.3468	-0.926506	1.56065
H	9.17058	0.639266	2.28954
N	10.2767	-1.63055	2.72759
H	9.77143	-1.30929	3.53456
H	10.7596	-2.51253	2.7662
N	11.0378	-1.42872	0.544827
C	11.0322	-0.631252	-0.56291
C	10.4011	0.60738	-0.732785
N	10.6368	1.10224	-2.0175
C	11.3892	0.187421	-2.60557
N	11.6595	-0.892391	-1.75961
H	11.7652	0.237515	-3.61346
H	12.2054	-1.714	-1.96411
