29
  This energy is 0.000240075 and Call times are: 1337
C	-0.373387	0.729674	0.905686
N	-0.657944	1.30827	2.16446
H	-0.379527	0.825122	3.03075
H	-1.1443	2.21462	2.22865
N	0.269171	-0.466883	0.84041
C	0.554298	-1.04409	-0.356403
O	1.13073	-2.11648	-0.38963
N	0.19295	-0.41891	-1.52473
C	-0.450573	0.778011	-1.49557
H	0.411952	-0.862296	-2.44553
C	-0.748215	1.37945	-0.273978
H	-0.732398	1.26505	-2.42056
H	-1.2607	2.33284	-0.245651
C	3.96451	0.208575	1.09946
O	3.05572	0.521266	1.88855
N	5.00497	-0.683477	1.5543
C	6.0789	-1.1252	0.805486
H	4.88623	-0.980399	2.51519
N	6.97071	-1.96988	1.40007
H	6.88201	-2.28339	2.35065
H	7.74959	-2.28552	0.846667
N	6.27563	-0.763576	-0.456293
C	5.31695	0.0820614	-0.934737
C	4.19612	0.58613	-0.263204
N	3.45899	1.42228	-1.10488
C	4.11729	1.42233	-2.25178
N	5.26031	0.618833	-2.20062
H	3.83413	1.96507	-3.13779
H	5.92843	0.449994	-2.93541
