29
  This energy is -0.000246498 and Call times are: 9228
C	0.795578	0.79847	0.470754
N	1.71096	1.4868	1.30054
H	1.9557	1.10778	2.22674
H	2.14089	2.37029	0.98952
N	0.238259	-0.365974	0.897784
C	-0.643908	-1.04663	0.119764
O	-1.13008	-2.08767	0.523821
N	-0.985565	-0.56096	-1.11871
C	-0.447097	0.60015	-1.57638
H	-1.66397	-1.08397	-1.71758
C	0.458699	1.30678	-0.787196
H	-0.721064	0.976998	-2.5537
H	0.890292	2.23218	-1.14744
C	10.1817	-0.110949	-1.33873
O	9.50879	-0.277434	-2.37111
N	11.5399	0.363746	-1.46211
C	12.4146	0.598897	-0.418652
H	11.8233	0.521877	-2.4214
N	13.6671	1.04819	-0.721141
H	13.9797	1.21517	-1.66146
H	14.2968	1.21595	0.0456019
N	12.088	0.40642	0.85331
C	10.8108	-0.043723	1.02407
C	9.85039	-0.311967	0.0407159
N	8.66342	-0.756843	0.627331
C	8.9018	-0.756905	1.92806
N	10.1997	-0.329351	2.22357
H	8.20225	-1.04576	2.69419
H	10.6274	-0.239521	3.1312
