29
  This energy is -0.00999601 and Call times are: 7390
C	0.710651	-0.194298	-0.974337
N	1.64485	-0.0741062	-2.02937
H	2.17946	0.798258	-2.15014
H	1.80023	-0.853601	-2.6854
N	0.518894	0.844665	-0.118372
C	-0.372649	0.754667	0.903334
O	-0.527168	1.69864	1.65728
N	-1.09694	-0.398188	1.08429
C	-0.929904	-1.4558	0.246946
H	-1.78278	-0.468063	1.86989
C	-0.018395	-1.37493	-0.804351
H	-1.50432	-2.36143	0.395655
H	0.11815	-2.21478	-1.474
C	5.20736	0.587833	-0.992529
O	4.43956	0.87749	-1.92683
N	5.60351	1.62561	-0.0698846
C	6.44553	1.46849	1.01431
H	5.19799	2.52845	-0.2844
N	6.71249	2.56429	1.78262
H	6.32672	3.47346	1.59732
H	7.32716	2.43972	2.56952
N	6.99977	0.30576	1.33437
C	6.65604	-0.710405	0.490372
C	5.81625	-0.657249	-0.629112
N	5.72023	-1.91616	-1.22648
C	6.4811	-2.70612	-0.487711
N	7.07582	-2.01828	0.574324
H	6.6444	-3.75711	-0.656513
H	7.69538	-2.38724	1.27776
