29
  This energy is -0.00817846 and Call times are: 331
C	-0.972959	-0.447532	0.587515
N	-1.84011	-1.09728	1.49644
H	-1.45526	-1.6006	2.30882
H	-2.86096	-1.07454	1.35687
N	0.371342	-0.488128	0.787755
C	1.22599	0.127903	-0.0706837
O	2.42632	0.0777442	0.129499
N	0.736342	0.804974	-1.16075
C	-0.601975	0.865294	-1.39067
H	1.3931	1.27899	-1.82135
C	-1.48799	0.237284	-0.517056
H	-0.980804	1.40083	-2.25201
H	-2.55492	0.282544	-0.696017
C	6.88157	-0.421167	-1.37041
O	6.83773	-0.655348	-2.59089
N	5.87564	-1.00322	-0.513379
C	5.78463	-0.841443	0.855822
H	5.20293	-1.57118	-1.01383
N	4.76323	-1.4681	1.50879
H	4.0797	-2.03824	1.04243
H	4.70525	-1.34371	2.50564
N	6.64241	-0.107568	1.55383
C	7.61542	0.46622	0.787616
C	7.79592	0.366045	-0.597552
N	8.91248	1.10347	-0.998077
C	9.39157	1.63352	0.114694
N	8.63523	1.27495	1.23456
H	10.258	2.26926	0.184534
H	8.78772	1.54413	2.19325
