29
  This energy is -0.0194954 and Call times are: 4211
C	0.831873	-0.83703	0.315398
N	2.026	-1.5193	0.645286
H	2.92458	-1.01541	0.652782
H	2.01051	-2.52258	0.880509
N	0.871568	0.486858	0.00777029
C	-0.261418	1.16547	-0.312631
O	-0.200855	2.35112	-0.584595
N	-1.47098	0.515016	-0.329376
C	-1.54642	-0.808035	-0.0269889
H	-2.34274	1.03635	-0.575701
C	-0.391039	-1.51426	0.303099
H	-2.50336	-1.31426	-0.042228
H	-0.446082	-2.5683	0.544711
C	4.75831	-0.714039	-0.906917
O	4.16765	-1.4766	-1.69175
N	4.09401	0.49427	-0.4781
C	4.61072	1.44074	0.385824
H	3.16991	0.606429	-0.876914
N	3.83954	2.5269	0.682246
H	2.91937	2.66816	0.30396
H	4.2249	3.21071	1.31188
N	5.81554	1.33649	0.932738
C	6.48644	0.208464	0.557878
C	6.05558	-0.806464	-0.305597
N	7.03883	-1.79072	-0.4297
C	8.03471	-1.38038	0.337498
N	7.74767	-0.163685	0.963595
H	8.96794	-1.89739	0.484198
H	8.3347	0.358731	1.5939
