29
  This energy is -0.00203204 and Call times are: 7457
C	0.759632	0.914604	0.280299
N	1.88798	1.69987	0.612624
H	2.81135	1.25708	0.725531
H	1.79943	2.71812	0.744793
N	0.895486	-0.427536	0.109722
C	-0.172808	-1.20438	-0.209801
O	-0.0264566	-2.40444	-0.357544
N	-1.41372	-0.636654	-0.365476
C	-1.58478	0.701881	-0.202205
H	-2.23576	-1.23355	-0.611228
C	-0.496412	1.5085	0.125553
H	-2.56592	1.14251	-0.326491
H	-0.627703	2.57526	0.25665
C	6.84748	-0.887434	1.11868
O	7.1581	-1.45127	2.1826
N	6.38825	-1.69343	0.0120272
C	6.00718	-1.22341	-1.23016
H	6.36293	-2.68395	0.221309
N	5.59833	-2.13291	-2.16182
H	5.5615	-3.12166	-1.98643
H	5.32337	-1.78078	-3.06346
N	6.02349	0.064635	-1.54991
C	6.45149	0.870826	-0.535048
C	6.85742	0.497755	0.752334
N	7.22232	1.62386	1.49373
C	7.04153	2.64721	0.675918
N	6.57136	2.24112	-0.576585
H	7.2249	3.68121	0.914611
H	6.35502	2.821	-1.3714
