29
  This energy is -0.00496343 and Call times are: 9074
C	0.682437	0.961886	0.318063
N	1.49377	2.12033	0.31968
H	1.77465	2.55648	-0.570431
H	1.81123	2.53865	1.20645
N	0.273011	0.423884	-0.861689
C	-0.506916	-0.688639	-0.890626
O	-0.861235	-1.1523	-1.95967
N	-0.893971	-1.2877	0.283143
C	-0.502483	-0.775985	1.48001
H	-1.49382	-2.14335	0.26159
C	0.297464	0.364602	1.52195
H	-0.811413	-1.25352	2.40128
H	0.611855	0.775933	2.47294
C	4.91645	-0.523776	0.273425
O	3.86738	-1.02899	0.709961
N	4.91827	0.0353722	-1.05794
C	5.9958	0.62978	-1.68625
H	4.02371	-0.0423425	-1.52623
N	5.81671	1.10575	-2.95263
H	4.94288	1.04455	-3.44502
H	6.60749	1.53638	-3.40181
N	7.18623	0.75429	-1.11271
C	7.23705	0.239599	0.150448
C	6.20952	-0.379034	0.873479
N	6.66684	-0.767732	2.13471
C	7.93479	-0.393936	2.17082
N	8.33283	0.226569	0.982856
H	8.60735	-0.535539	2.9999
H	9.2407	0.599971	0.756684
