29
  This energy is -0.00680323 and Call times are: 9912
C	-0.898529	-0.67414	-0.479885
N	-1.984	-1.15538	-1.24827
H	-2.40051	-0.564445	-1.98225
H	-2.36819	-2.09736	-1.08331
N	-0.404708	0.571376	-0.711661
C	0.63749	1.05728	0.0125952
O	1.06264	2.17604	-0.213273
N	1.20907	0.28794	0.996378
C	0.740027	-0.961519	1.25415
H	2.01065	0.661047	1.55376
C	-0.32836	-1.47033	0.51776
H	1.19552	-1.56232	2.03119
H	-0.705492	-2.46507	0.719432
C	5.23685	0.259228	0.579577
O	4.03761	0.369962	0.889226
N	6.23703	0.820127	1.4572
C	7.60378	0.782262	1.2579
H	5.8451	1.26868	2.27621
N	8.40468	1.36686	2.19552
H	8.04809	1.81972	3.01863
H	9.39848	1.33445	2.04107
N	8.16269	0.206091	0.200915
C	7.25727	-0.340618	-0.661868
C	5.8611	-0.356862	-0.553473
N	5.29512	-1.01727	-1.64639
C	6.32158	-1.3886	-2.39286
N	7.54341	-0.999439	-1.8357
H	6.25849	-1.92705	-3.32337
H	8.46742	-1.15906	-2.20384
