29
  This energy is -0.0073301 and Call times are: 1157
C	1.07742	-0.365315	-0.444764
N	2.19511	-1.12211	-0.867017
H	2.19585	-2.14691	-0.761159
H	3.01664	-0.659306	-1.28297
N	0.00227465	-0.993149	0.101837
C	-1.08402	-0.289096	0.515496
O	-2.03529	-0.873623	1.00211
N	-1.10799	1.07792	0.384659
C	-0.0501241	1.73717	-0.157458
H	-1.94315	1.62	0.702593
C	1.06937	1.02555	-0.585199
H	-0.0760197	2.81492	-0.257472
H	1.91449	1.54627	-1.01767
C	4.76513	0.61085	0.826664
O	3.84452	1.26407	1.34831
N	5.40717	-0.426437	1.59933
C	6.43937	-1.23749	1.16813
H	5.02659	-0.524351	2.53268
N	6.92771	-2.16979	2.03684
H	6.57276	-2.29271	2.96886
H	7.67964	-2.75518	1.71363
N	6.96964	-1.14608	-0.0451436
C	6.39617	-0.177336	-0.816977
C	5.3522	0.69239	-0.477849
N	5.05485	1.53788	-1.54914
C	5.8963	1.18764	-2.50727
N	6.7377	0.143798	-2.11082
H	5.95282	1.6326	-3.48634
H	7.46149	-0.303256	-2.65034
