29
  This energy is -0.00265238 and Call times are: 1179
C	-0.790901	0.322774	-0.873156
N	-1.4509	0.544659	-2.10418
H	-1.01629	0.238635	-2.98673
H	-2.36883	1.01238	-2.13179
N	0.419776	-0.295985	-0.856097
C	1.07461	-0.521048	0.313248
O	2.15812	-1.0772	0.303353
N	0.515117	-0.122002	1.50243
C	-0.693731	0.499222	1.52137
H	1.01822	-0.294804	2.40212
C	-1.3745	0.735339	0.328304
H	-1.12869	0.811032	2.46255
H	-2.33771	1.22985	0.33831
C	6.62402	1.33472	-0.267211
O	6.97858	2.44411	-0.702948
N	6.97109	0.975731	1.08773
C	6.65392	-0.212048	1.7184
H	7.49274	1.6962	1.57186
N	7.06513	-0.382495	3.00843
H	7.58377	0.311896	3.51695
H	6.82971	-1.25101	3.45877
N	5.97251	-1.18411	1.12482
C	5.61998	-0.893239	-0.161329
C	5.88994	0.272676	-0.888704
N	5.35603	0.178571	-2.17595
C	4.78041	-1.01104	-2.22321
N	4.91311	-1.70631	-1.01751
H	4.2635	-1.42471	-3.07258
H	4.56681	-2.62571	-0.794841
