29
  This energy is -0.0003045 and Call times are: 8566
C	-0.88544	-0.435808	0.719844
N	-2.08263	-0.990071	1.22953
H	-2.83889	-1.26737	0.5872
H	-2.21099	-1.12194	2.24357
N	-0.733783	-0.269272	-0.621109
C	0.406558	0.260913	-1.13624
O	0.519336	0.400399	-2.3409
N	1.42849	0.638069	-0.29968
C	1.30988	0.485434	1.04577
H	2.30579	1.04589	-0.695219
C	0.144981	-0.0571755	1.58539
H	2.11957	0.784979	1.69915
H	0.0458305	-0.18072	2.65652
C	10.3596	0.857881	1.04858
O	10.0711	1.50673	2.06941
N	9.5389	1.01225	-0.129447
C	9.72421	0.366824	-1.33703
H	8.77429	1.664	-0.00230169
N	8.84719	0.634088	-2.34784
H	8.07875	1.27484	-2.25458
H	8.99028	0.158708	-3.2231
N	10.7112	-0.494536	-1.55029
C	11.5177	-0.676236	-0.46419
C	11.4175	-0.0751404	0.796744
N	12.4392	-0.527582	1.63483
C	13.1357	-1.37786	0.899566
N	12.6142	-1.50464	-0.391418
H	14.005	-1.92355	1.22557
H	12.9573	-2.08398	-1.14068
