29
  This energy is -0.000371435 and Call times are: 9030
C	0.986023	0.491762	-0.527292
N	2.12997	0.739773	-1.3211
H	2.45898	0.0292808	-1.99071
H	2.64423	1.6291	-1.2389
N	0.320088	-0.687439	-0.649378
C	-0.781634	-0.950333	0.101571
O	-1.36155	-2.0138	-0.0254209
N	-1.23903	-0.0185307	1.00099
C	-0.597099	1.17052	1.14822
H	-2.08631	-0.220089	1.57884
C	0.533823	1.45113	0.383446
H	-0.963349	1.90031	1.8592
H	1.04857	2.39691	0.497186
C	7.51211	1.21088	0.0415195
O	8.25732	2.17504	0.289292
N	6.8711	1.14058	-1.25052
C	6.01917	0.140982	-1.67967
H	7.10264	1.9191	-1.8554
N	5.50157	0.236687	-2.93874
H	5.71096	0.995314	-3.56356
H	4.88184	-0.495884	-3.24176
N	5.6873	-0.897763	-0.923071
C	6.26851	-0.878023	0.311786
C	7.14054	0.0814708	0.841164
N	7.51356	-0.264027	2.1421
C	6.88375	-1.40008	2.39002
N	6.10945	-1.81855	1.30371
H	6.93904	-1.96086	3.30774
H	5.53734	-2.64498	1.23657
