29
  This energy is -0.00377557 and Call times are: 10496
C	0.199469	1.18361	-0.226691
N	0.185295	2.5978	-0.215522
H	-0.414144	3.10391	0.45226
H	0.771245	3.13467	-0.871697
N	-0.580284	0.49195	0.646511
C	-0.58494	-0.866989	0.656184
O	-1.29183	-1.46464	1.44771
N	0.205794	-1.56355	-0.224706
C	0.997305	-0.903471	-1.11094
H	0.20269	-2.60871	-0.217783
C	1.01027	0.490114	-1.13001
H	1.61803	-1.45915	-1.80242
H	1.63911	1.02038	-1.83413
C	8.10346	-1.27697	-0.698217
O	7.81385	-2.29116	-1.35691
N	9.38677	-1.21823	-0.0387804
C	9.85769	-0.168816	0.726806
H	9.95043	-2.0468	-0.184832
N	11.1007	-0.284772	1.27791
H	11.6851	-1.0926	1.15252
H	11.4345	0.484504	1.83413
N	9.15562	0.93608	0.945591
C	7.93127	0.930031	0.342266
C	7.36288	-0.075893	-0.44916
N	6.08979	0.304116	-0.880163
C	5.89614	1.50559	-0.36278
N	6.99156	1.93411	0.392977
H	5.01256	2.10817	-0.489006
H	7.09589	2.80518	0.888105
