29
  This energy is -0.00529927 and Call times are: 9846
C	-0.717565	0.960943	-0.231946
N	-1.5757	1.91161	-0.832026
H	-1.8846	1.78705	-1.80695
H	-1.89967	2.73495	-0.303545
N	-0.300294	-0.119271	-0.944627
C	0.52426	-1.04709	-0.391363
O	0.884703	-2.00639	-1.04954
N	0.949352	-0.902374	0.906626
C	0.551283	0.165554	1.64734
H	1.58351	-1.6156	1.33275
C	-0.294264	1.12343	1.09045
H	0.890375	0.273121	2.66993
H	-0.614067	1.97586	1.67653
C	6.75682	0.876311	1.11006
O	6.89675	1.51106	2.17017
N	7.60128	1.20446	-0.0143932
C	7.57177	0.597004	-1.25508
H	8.25451	1.95341	0.180382
N	8.44664	1.03742	-2.20533
H	9.10695	1.77762	-2.04457
H	8.41699	0.589071	-3.10569
N	6.7342	-0.38756	-1.55618
C	5.91187	-0.735888	-0.523947
C	5.86149	-0.187386	0.763654
N	4.87907	-0.823312	1.52614
C	4.35185	-1.72979	0.720484
N	4.94768	-1.71758	-0.544256
H	3.55799	-2.41097	0.976466
H	4.7302	-2.30428	-1.33374
