29
  This energy is -0.00750376 and Call times are: 10716
C	-0.0907119	-1.11725	0.485422
N	-0.459729	-2.24864	1.24965
H	-1.20524	-2.1745	1.95685
H	0.0105088	-3.15474	1.1083
N	-0.722259	0.0701597	0.685668
C	-0.386516	1.17207	-0.0353685
O	-0.966429	2.22479	0.161824
N	0.604243	1.09764	-0.983669
C	1.25584	-0.0737247	-1.20933
H	0.86294	1.94474	-1.53857
C	0.919997	-1.21033	-0.475885
H	2.03583	-0.124984	-1.95848
H	1.43622	-2.14568	-0.652051
C	5.39535	0.432998	-0.487726
O	4.22026	0.585094	-0.865018
N	6.29106	1.56497	-0.526899
C	7.61888	1.56185	-0.144758
H	5.85362	2.41006	-0.873387
N	8.31878	2.72868	-0.249645
H	7.91497	3.58394	-0.589095
H	9.28513	2.71602	0.0306254
N	8.23438	0.479598	0.315085
C	7.42868	-0.620739	0.371514
C	6.0793	-0.723106	0.0109646
N	5.6167	-2.02452	0.218948
C	6.65831	-2.68816	0.691554
N	7.79077	-1.87599	0.804003
H	6.66684	-3.72937	0.966422
H	8.70585	-2.1367	1.13487
