29
  This energy is 0.00413548 and Call times are: 5980
C	0.488815	-0.235235	1.09446
N	1.34544	-0.608416	2.15615
H	2.2936	-0.958845	1.95713
H	1.03232	-0.534331	3.13522
N	0.919112	-0.33972	-0.191164
C	0.115677	0.0122105	-1.22918
O	0.523257	-0.0901472	-2.37233
N	-1.15235	0.481954	-0.988603
C	-1.61413	0.598948	0.284449
H	-1.77077	0.752806	-1.78648
C	-0.799052	0.241028	1.3569
H	-2.61482	0.970004	0.46655
H	-1.16246	0.332452	2.37277
C	7.29468	-0.678867	-0.920324
O	6.43013	-1.04994	-1.73347
N	8.21018	-1.65757	-0.382571
C	9.22178	-1.40885	0.525164
H	8.05074	-2.59261	-0.737329
N	9.99492	-2.45915	0.926983
H	9.86323	-3.39824	0.594518
H	10.7286	-2.26789	1.58858
N	9.4683	-0.201069	1.01715
C	8.62768	0.762159	0.538996
C	7.57809	0.616166	-0.376618
N	6.95797	1.84628	-0.607252
C	7.61538	2.70968	0.148448
N	8.64556	2.09801	0.869101
H	7.4077	3.76376	0.222859
H	9.28941	2.53072	1.51177
