29
  This energy is 0.00190289 and Call times are: 6770
C	1.13945	0.387645	-0.208553
N	2.40052	0.677985	-0.779223
H	2.61563	0.375069	-1.74015
H	3.11426	1.19295	-0.24302
N	0.210006	-0.292793	-0.93107
C	-1.00906	-0.5843	-0.405958
O	-1.82534	-1.19492	-1.07245
N	-1.31869	-0.190877	0.873012
C	-0.412861	0.490906	1.62284
H	-2.25609	-0.414747	1.27747
C	0.840538	0.795447	1.09477
H	-0.663872	0.797857	2.63032
H	1.56544	1.33835	1.68822
C	9.2828	0.774527	0.0881476
O	10.4342	1.2442	0.0850502
N	8.19053	1.61214	0.524643
C	6.86046	1.24309	0.586848
H	8.4834	2.54242	0.797397
N	5.95853	2.16807	1.02647
H	6.21593	3.09882	1.30433
H	4.99252	1.88953	1.06866
N	6.42991	0.0365023	0.239961
C	7.42665	-0.795617	-0.180947
C	8.79641	-0.521692	-0.281029
N	9.4838	-1.64104	-0.755889
C	8.55424	-2.56403	-0.936835
N	7.27975	-2.09809	-0.60021
H	8.72484	-3.56397	-1.29845
H	6.40766	-2.60015	-0.647109
