29
  This energy is 0.001989 and Call times are: 10251
C	-1.13424	0.422741	-0.163982
N	-2.40165	0.76494	-0.690135
H	-2.64856	0.504024	-1.65573
H	-3.08842	1.27629	-0.116548
N	-0.240829	-0.252147	-0.935492
C	0.983418	-0.59276	-0.453793
O	1.76691	-1.1973	-1.16376
N	1.33515	-0.255678	0.830371
C	0.466067	0.418949	1.62859
H	2.27656	-0.517352	1.20146
C	-0.792238	0.773534	1.14532
H	0.75017	0.681362	2.63986
H	-1.48797	1.31097	1.7774
C	8.46075	1.26538	0.716955
O	8.74901	2.37054	1.20873
N	7.25276	0.604014	1.15119
C	6.7934	-0.620312	0.704896
H	6.73549	1.12987	1.84508
N	5.62605	-1.0962	1.22756
H	5.08902	-0.599859	1.91676
H	5.30019	-1.98882	0.896537
N	7.4365	-1.34467	-0.202448
C	8.58825	-0.761733	-0.646001
C	9.13859	0.467184	-0.261039
N	10.3301	0.704783	-0.950092
C	10.4935	-0.351608	-1.7286
N	9.45645	-1.2776	-1.58083
H	11.3152	-0.510561	-2.40633
H	9.34471	-2.15889	-2.05586
