29
  This energy is -0.000515756 and Call times are: 6505
C	0.251351	0.804109	-0.8845
N	0.392881	1.97306	-1.66794
H	0.0697381	2.88146	-1.30487
H	0.818489	1.92928	-2.60553
N	-0.312582	0.881046	0.350389
C	-0.460077	-0.227174	1.123
O	-0.968182	-0.133376	2.22591
N	-0.0369174	-1.44918	0.660332
C	0.531049	-1.56166	-0.569446
H	-0.150052	-2.3019	1.25405
C	0.687451	-0.431937	-1.37062
H	0.862283	-2.52821	-0.927633
H	1.13931	-0.516519	-2.35097
C	7.52155	-0.0718533	0.318613
O	8.71931	-0.346826	0.508581
N	7.04213	1.2403	0.684132
C	5.74732	1.7001	0.538482
H	7.7619	1.83466	1.07688
N	5.47084	2.97476	0.93989
H	6.16137	3.58983	1.3331
H	4.52497	3.3001	0.830187
N	4.77166	0.958252	0.0292709
C	5.1744	-0.294655	-0.332797
C	6.45354	-0.855133	-0.228097
N	6.4521	-2.1661	-0.710062
C	5.20669	-2.38965	-1.09442
N	4.38551	-1.2776	-0.885317
H	4.83665	-3.30666	-1.52093
H	3.40337	-1.18921	-1.09124
