29
  This energy is -0.000445942 and Call times are: 10958
C	-0.521784	-0.836319	0.721403
N	-1.34293	-1.85355	1.26104
H	-2.10221	-2.25992	0.695557
H	-1.19164	-2.19761	2.22066
N	-0.736163	-0.394865	-0.546687
C	0.0385913	0.58133	-1.08856
O	-0.172582	0.960411	-2.22659
N	1.05674	1.13822	-0.353944
C	1.29842	0.720301	0.916697
H	1.65298	1.88904	-0.770108
C	0.510321	-0.280195	1.48284
H	2.10275	1.16385	1.48988
H	0.69898	-0.616421	2.49466
C	9.36696	1.42647	0.280999
O	9.39801	2.6694	0.303511
N	9.73442	0.699285	1.47321
C	9.75222	-0.675407	1.6113
H	9.99272	1.30099	2.24574
N	10.1282	-1.19371	2.81643
H	10.3901	-0.62502	3.6024
H	10.1384	-2.19584	2.90681
N	9.422	-1.50327	0.627856
C	9.06602	-0.863559	-0.52415
C	9.0147	0.51478	-0.766749
N	8.60019	0.763842	-2.07713
C	8.40719	-0.431132	-2.60959
N	8.67787	-1.45974	-1.70216
H	8.08117	-0.623643	-3.61776
H	8.60928	-2.45269	-1.85758
