29
  This energy is 0.000626475 and Call times are: 8346
C	0.441405	-0.982632	-0.575937
N	1.05807	-2.21332	-0.900593
H	1.48893	-2.78701	-0.161238
H	1.08309	-2.54794	-1.87503
N	0.417927	-0.557139	0.7153
C	-0.168182	0.621367	1.05357
O	-0.176768	0.981593	2.217
N	-0.749007	1.4033	0.0852523
C	-0.743347	1.00786	-1.2152
H	-1.19996	2.30979	0.344747
C	-0.145186	-0.198859	-1.57389
H	-1.20313	1.62938	-1.97318
H	-0.138157	-0.518101	-2.60852
C	6.16642	-0.321055	0.613853
O	5.00786	-0.649465	0.924061
N	7.06149	0.136343	1.6506
C	8.37224	0.535438	1.47223
H	6.63799	0.144576	2.57047
N	9.07415	0.939992	2.57041
H	8.68398	0.959997	3.49621
H	10.0277	1.22919	2.43007
N	8.96929	0.541337	0.286884
C	8.16322	0.116536	-0.729416
C	6.83027	-0.306686	-0.655854
N	6.36115	-0.661913	-1.92261
C	7.38288	-0.458311	-2.73708
N	8.50853	0.0173635	-2.05785
H	7.3812	-0.628334	-3.80049
H	9.40926	0.249658	-2.44454
