29
  This energy is -0.000545094 and Call times are: 1223
C	1.07704	0.456322	-0.35195
N	2.15851	1.30616	-0.68126
H	2.06212	2.32731	-0.584488
H	3.05005	0.915425	-1.01982
N	-0.0917782	0.989747	0.0932662
C	-1.14586	0.195155	0.416306
O	-2.18276	0.696043	0.812987
N	-1.04105	-1.16896	0.295412
C	0.112921	-1.73517	-0.146581
H	-1.85136	-1.78065	0.543704
C	1.20054	-0.930201	-0.48082
H	0.188342	-2.81124	-0.239392
H	2.12187	-1.3766	-0.833366
C	5.51214	0.60053	0.989209
O	4.81212	1.3106	1.73225
N	5.5236	-0.827948	1.20018
C	6.244	-1.75028	0.465682
H	4.93292	-1.12425	1.96757
N	6.13502	-3.06716	0.806695
H	5.55828	-3.39411	1.56183
H	6.66392	-3.73096	0.266167
N	7.03028	-1.40936	-0.547776
C	7.05448	-0.0660151	-0.788429
C	6.36646	0.946312	-0.10789
N	6.6604	2.19368	-0.663401
C	7.5023	1.94028	-1.65119
N	7.77584	0.574334	-1.76995
H	7.94267	2.67464	-2.30429
H	8.38058	0.122553	-2.43703
