29
  This energy is -7.9038e-05 and Call times are: 10384
C	-0.330869	0.183355	-1.16147
N	-0.882986	0.0700119	-2.45861
H	-1.44959	-0.753014	-2.70961
H	-0.725443	0.805455	-3.16319
N	-0.549335	-0.796886	-0.244797
C	-0.0301301	-0.712028	1.00822
O	-0.239484	-1.60264	1.81219
N	0.72849	0.375615	1.36592
C	0.966391	1.37345	0.474112
H	1.12809	0.441501	2.32946
C	0.439039	1.29721	-0.813793
H	1.56533	2.22785	0.763079
H	0.625807	2.08958	-1.52771
C	6.08287	-0.960334	1.06076
O	6.22434	-1.62483	2.10228
N	6.57086	-1.50526	-0.184274
C	6.49158	-0.896575	-1.42217
H	6.99959	-2.417	-0.081734
N	7.00802	-1.5602	-2.49698
H	7.43959	-2.46516	-2.42951
H	6.94589	-1.10841	-3.39395
N	5.93907	0.296242	-1.60515
C	5.4612	0.855627	-0.455453
C	5.49123	0.325964	0.840643
N	4.8969	1.21133	1.74278
C	4.5193	2.24593	1.01083
N	4.84083	2.07853	-0.339474
H	4.02187	3.12713	1.37935
H	4.66292	2.71587	-1.09904
