29
  This energy is 0.000865069 and Call times are: 1856
C	0.157168	0.90929	-0.800374
N	0.396568	1.68126	-1.96098
H	0.603781	1.21736	-2.85724
H	0.366548	2.71072	-1.92313
N	0.200886	-0.447998	-0.86929
C	-0.0254213	-1.21256	0.231191
O	0.0191141	-2.42663	0.144833
N	-0.303544	-0.616718	1.43702
C	-0.354948	0.737577	1.54112
H	-0.477704	-1.20416	2.28378
C	-0.12454	1.53183	0.41921
H	-0.574755	1.20036	2.49492
H	-0.164397	2.61107	0.497165
C	9.88584	-0.896249	-0.669634
O	10.6503	-1.79639	-1.05909
N	9.71602	0.277548	-1.49338
C	8.90803	1.36062	-1.20483
H	10.2611	0.250473	-2.34646
N	8.86908	2.38825	-2.10194
H	9.39703	2.3926	-2.95693
H	8.27813	3.17258	-1.88252
N	8.17617	1.44038	-0.100487
C	8.30204	0.352541	0.714272
C	9.08808	-0.789409	0.515788
N	8.93857	-1.67577	1.58487
C	8.08625	-1.08446	2.40501
N	7.66684	0.157727	1.91941
H	7.73676	-1.48432	3.34187
H	7.02464	0.803146	2.35048
