29
  This energy is 0.0011177 and Call times are: 8875
C	0.376922	-1.15618	-0.115231
N	1.07603	-2.33739	-0.4562
H	1.91172	-2.28887	-1.05677
H	0.758914	-3.25467	-0.109551
N	0.810025	0.0453143	-0.581832
C	0.156228	1.19486	-0.268899
O	0.563108	2.25932	-0.698741
N	-0.960252	1.1552	0.530049
C	-1.42024	-0.0289896	1.01348
H	-1.46354	2.03895	0.771112
C	-0.757847	-1.21434	0.699155
H	-2.30099	-0.0526404	1.64272
H	-1.12047	-2.16009	1.08186
C	8.63437	1.37578	-0.367544
O	8.43637	2.48678	-0.889836
N	8.33381	1.20204	1.03412
C	8.49649	0.0376505	1.76
H	7.97452	2.04067	1.47367
N	8.15977	0.0543827	3.08237
H	7.80087	0.869024	3.54853
H	8.28235	-0.79829	3.60244
N	8.96315	-1.08489	1.22737
C	9.26345	-0.972721	-0.0993935
C	9.13619	0.153547	-0.92197
N	9.5507	-0.143394	-2.22233
C	9.91775	-1.41327	-2.18456
N	9.76178	-1.96675	-0.910178
H	10.2957	-1.98224	-3.01716
H	9.96758	-2.90855	-0.617817
