29
  This energy is -0.00674928 and Call times are: 4079
C	0.535981	-1.02976	0.380043
N	0.808611	-2.34769	0.814777
H	0.0405363	-3.02544	0.924873
H	1.77334	-2.64297	1.02509
N	-0.743162	-0.65799	0.107146
C	-1.03175	0.602114	-0.311999
O	-2.18529	0.91186	-0.550354
N	-0.0245058	1.52305	-0.466078
C	1.26521	1.18469	-0.202015
H	-0.245779	2.49236	-0.788418
C	1.57309	-0.104701	0.228449
H	2.05407	1.91588	-0.325697
H	2.59896	-0.378952	0.44005
C	5.3999	-0.745071	0.756402
O	4.55227	-1.20087	1.54386
N	5.76789	-1.52793	-0.399844
C	6.68809	-1.16573	-1.36483
H	5.27645	-2.41147	-0.458255
N	6.91289	-2.03339	-2.39389
H	6.44244	-2.91701	-2.48134
H	7.58515	-1.76076	-3.09123
N	7.35564	-0.0190984	-1.33041
C	7.04307	0.759255	-0.253591
C	6.13138	0.486872	0.773996
N	6.10104	1.54046	1.69049
C	6.97038	2.42326	1.22827
N	7.57364	1.99407	0.0422693
H	7.20843	3.3685	1.6861
H	8.26551	2.47774	-0.507444
