29
  This energy is -0.0111183 and Call times are: 615
C	-0.212273	1.09792	-0.49156
N	-0.810794	2.26478	-1.02115
H	-1.8368	2.34121	-1.07483
H	-0.230337	3.04718	-1.35737
N	-0.994095	0.0756541	-0.0526661
C	-0.443915	-1.05611	0.460403
O	-1.16472	-1.95844	0.84723
N	0.921429	-1.18096	0.542041
C	1.73225	-0.178198	0.112359
H	1.34521	-2.05114	0.936548
C	1.17923	0.987121	-0.415669
H	2.80769	-0.283587	0.179783
H	1.82102	1.78866	-0.759252
C	5.69485	0.427167	-0.966787
O	4.69665	0.795288	-1.61054
N	6.94227	0.23258	-1.6677
C	8.136	-0.171759	-1.1014
H	6.87826	0.424291	-2.66003
N	9.22066	-0.304637	-1.91883
H	9.19089	-0.122425	-2.90659
H	10.0852	-0.600065	-1.49705
N	8.26783	-0.433912	0.192991
C	7.11363	-0.264785	0.901728
C	5.85944	0.138972	0.427096
N	4.93574	0.19012	1.47357
C	5.61426	-0.172868	2.54901
N	6.95001	-0.46164	2.25386
H	5.2159	-0.247403	3.54676
H	7.67179	-0.758265	2.89093
