29
  This energy is -0.00256898 and Call times are: 4828
C	0.386471	0.890107	-0.741928
N	1.0641	1.98899	-1.31946
H	1.81469	2.46554	-0.798955
H	0.815849	2.3233	-2.26218
N	0.727616	0.462858	0.503049
C	0.0920781	-0.590527	1.08037
O	0.415186	-0.955073	2.19666
N	-0.911743	-1.24157	0.405901
C	-1.2778	-0.840464	-0.840176
H	-1.40093	-2.0518	0.849344
C	-0.633068	0.238635	-1.44224
H	-2.06999	-1.35842	-1.3659
H	-0.921152	0.561842	-2.43468
C	6.80439	-1.26668	-0.325833
O	6.46676	-2.43174	-0.599669
N	5.78225	-0.252002	-0.221633
C	5.99075	1.0816	0.0736572
H	4.84822	-0.605673	-0.389203
N	4.90255	1.9031	0.13108
H	3.9633	1.58424	-0.0298278
H	5.06484	2.87257	0.346302
N	7.1955	1.59009	0.300774
C	8.19906	0.669025	0.213619
C	8.09541	-0.69693	-0.0774664
N	9.35825	-1.29371	-0.0711786
C	10.1997	-0.314674	0.215556
N	9.54202	0.905392	0.399041
H	11.2685	-0.411766	0.304451
H	9.95078	1.7982	0.624011
