29
  This energy is -0.0055944 and Call times are: 8192
C	-0.0836905	-1.19049	0.260461
N	0.144631	-2.50602	0.726835
H	0.99915	-2.72527	1.25894
H	-0.537556	-3.25572	0.54053
N	0.827535	-0.214093	0.515821
C	0.631894	1.05777	0.0788925
O	1.46234	1.91549	0.319914
N	-0.499647	1.37399	-0.632473
C	-1.43085	0.422133	-0.905281
H	-0.650729	2.35199	-0.968795
C	-1.24087	-0.885629	-0.46225
H	-2.32043	0.678658	-1.46659
H	-1.97982	-1.64733	-0.677106
C	7.20904	0.533573	-0.507524
O	8.3383	0.768471	-0.972211
N	6.37418	1.6436	-0.112505
C	5.10166	1.55248	0.4181
H	6.81067	2.54543	-0.260016
N	4.45538	2.71154	0.736275
H	4.85982	3.62164	0.602502
H	3.5294	2.63462	1.12252
N	4.48954	0.393846	0.628929
C	5.23899	-0.689388	0.271155
C	6.52989	-0.705845	-0.271638
N	6.94615	-2.01958	-0.499149
C	5.93437	-2.77399	-0.104318
N	4.86605	-2.00997	0.374951
H	5.90471	-3.85007	-0.134796
H	3.98383	-2.33981	0.732309
