29
  This energy is -0.00384352 and Call times are: 5514
C	0.675034	-1.00369	0.170415
N	1.72809	-1.94457	0.248392
H	2.68519	-1.67324	-0.019468
H	1.55058	-2.90673	0.572242
N	0.928037	0.261359	-0.259151
C	-0.0660354	1.18417	-0.343178
O	0.184925	2.31118	-0.730829
N	-1.34989	0.845727	0.00838569
C	-1.63758	-0.410015	0.441903
H	-2.11489	1.55499	-0.0559961
C	-0.626159	-1.36474	0.532142
H	-2.65194	-0.669705	0.717343
H	-0.850434	-2.36636	0.876912
C	8.64382	-0.294819	1.42846
O	8.86432	-0.575544	2.61964
N	7.28954	-0.00266014	1.02134
C	6.87998	0.325119	-0.256931
H	6.62225	-0.0573681	1.78115
N	5.55331	0.570756	-0.461701
H	4.86591	0.525033	0.269844
H	5.26496	0.80812	-1.39608
N	7.71742	0.409063	-1.28319
C	9.01358	0.140826	-0.949891
C	9.53016	-0.198734	0.306755
N	10.911	-0.394468	0.229334
C	11.2181	-0.179043	-1.03873
N	10.0942	0.151456	-1.80188
H	12.2051	-0.242374	-1.46479
H	10.0577	0.360966	-2.78656
