29
  This energy is 0.00114281 and Call times are: 7970
C	0.913827	-0.253472	-0.769923
N	1.79233	-0.86901	-1.69166
H	1.60459	-1.82532	-2.0258
H	2.62543	-0.370425	-2.03733
N	-0.180535	-0.926623	-0.324804
C	-1.04015	-0.357762	0.560793
O	-2.01377	-0.98044	0.945163
N	-0.81064	0.915991	1.02046
C	0.273767	1.61706	0.596013
H	-1.47139	1.35409	1.70157
C	1.16222	1.04383	-0.3121
H	0.448352	2.62072	0.962647
H	2.02746	1.59835	-0.653124
C	8.29985	-0.658302	-0.0669691
O	9.44764	-1.11491	0.0760081
N	7.54653	-1.02456	-1.24321
C	6.26601	-0.605197	-1.54909
H	8.05035	-1.64607	-1.86407
N	5.70509	-1.05279	-2.70985
H	6.17745	-1.66957	-3.3472
H	4.7725	-0.741349	-2.9239
N	5.56734	0.207999	-0.766699
C	6.23715	0.584616	0.361389
C	7.52808	0.218771	0.762588
N	7.84729	0.818181	1.98314
C	6.77855	1.52577	2.3085
N	5.76588	1.41708	1.35069
H	6.66903	2.12455	3.19687
H	4.85833	1.85418	1.36091
