29
  This energy is -0.0040591 and Call times are: 8169
C	-1.14085	0.362298	0.243546
N	-2.54157	0.434746	0.42514
H	-3.13144	-0.387683	0.232587
H	-2.98521	1.30629	0.750296
N	-0.573007	-0.796085	-0.186102
C	0.770271	-0.891782	-0.368522
O	1.256	-1.94001	-0.754113
N	1.57699	0.191296	-0.118403
C	1.04214	1.36439	0.312146
H	2.61018	0.118359	-0.258489
C	-0.334164	1.47422	0.502761
H	1.6842	2.21404	0.507307
H	-0.764877	2.40662	0.845596
C	6.11318	0.196508	-1.30877
O	6.62016	0.587263	-2.37489
N	5.96332	-1.22269	-1.08829
C	5.42244	-1.81586	0.0363281
H	6.30182	-1.78571	-1.859
N	5.35861	-3.17851	0.0743968
H	5.68539	-3.76576	-0.672672
H	4.96261	-3.6009	0.897385
N	4.9666	-1.11964	1.07028
C	5.08562	0.230708	0.910701
C	5.61539	0.928355	-0.181975
N	5.55694	2.30542	0.0443287
C	5.00708	2.43422	1.24007
N	4.70018	1.19612	1.81249
H	4.80605	3.36599	1.74121
H	4.27828	1.01966	2.71007
