29
  This energy is 2.0639e-05 and Call times are: 11002
C	0.987576	0.362126	0.621021
N	2.16778	0.417911	1.39836
H	2.59069	-0.44923	1.75978
H	2.61528	1.32168	1.61068
N	0.411101	-0.839382	0.350936
C	-0.722981	-0.92026	-0.393476
O	-1.22106	-2.00791	-0.622226
N	-1.30503	0.22211	-0.886047
C	-0.754927	1.43945	-0.634924
H	-2.17725	0.160605	-1.45865
C	0.408058	1.53461	0.127324
H	-1.21925	2.33574	-1.02646
H	0.849983	2.50209	0.330046
C	8.70756	-0.315395	0.216282
O	9.93805	-0.493326	0.192487
N	7.96551	-0.738008	1.38074
C	6.60158	-0.612438	1.56263
H	8.54727	-1.15656	2.09625
N	6.06612	-1.0693	2.73178
H	6.61494	-1.48921	3.46132
H	5.07196	-0.973803	2.85449
N	5.79975	-0.0710305	0.65406
C	6.45438	0.34555	-0.468874
C	7.82386	0.265308	-0.750633
N	8.09458	0.804283	-2.01045
C	6.92091	1.19828	-2.47519
N	5.88558	0.940764	-1.57159
H	6.74874	1.66464	-3.4305
H	4.90506	1.14278	-1.68379
