29
  This energy is 0.0010816 and Call times are: 6285
C	0.346243	-0.945183	0.691993
N	0.420572	-1.97765	1.65571
H	-0.351597	-2.11917	2.32289
H	1.2435	-2.59642	1.70092
N	-0.747433	-0.138487	0.647214
C	-0.843414	0.860655	-0.268937
O	-1.83297	1.5704	-0.289676
N	0.173356	1.06859	-1.16858
C	1.28075	0.280565	-1.15153
H	0.100161	1.83685	-1.87346
C	1.39019	-0.747189	-0.216459
H	2.07834	0.450314	-1.86376
H	2.27038	-1.37755	-0.198958
C	10.245	0.842278	0.327277
O	11.1595	1.52297	0.823899
N	10.1598	0.733756	-1.11014
C	9.20917	0.0200794	-1.81449
H	10.887	1.24601	-1.59426
N	9.28097	0.0284512	-3.17724
H	9.98912	0.525954	-3.6879
H	8.58389	-0.493816	-3.68108
N	8.23844	-0.665832	-1.22392
C	8.27468	-0.59492	0.138698
C	9.18904	0.095486	0.944047
N	8.88155	-0.0842168	2.29463
C	7.81151	-0.861186	2.30311
N	7.40028	-1.20183	1.01099
H	7.29477	-1.20792	3.18204
H	6.61831	-1.77849	0.744958
