29
  This energy is -0.0182715 and Call times are: 6024
C	-1.16046	-0.149381	0.350906
N	-2.3767	-0.650831	0.870105
H	-2.41116	-1.59051	1.2911
H	-3.23719	-0.0848567	0.833216
N	-0.0350681	-0.910363	0.408326
C	1.14598	-0.451877	-0.0833613
O	2.14075	-1.1518	-0.0206226
N	1.21647	0.797595	-0.649283
C	0.110527	1.58441	-0.722828
H	2.1245	1.15082	-1.02762
C	-1.10615	1.12471	-0.221851
H	0.173555	2.56829	-1.17031
H	-1.98987	1.74783	-0.278164
C	8.39721	-0.145382	-0.392596
O	9.51746	-0.461514	-0.83014
N	8.26915	1.06635	0.382319
C	7.10145	1.55484	0.936419
H	9.14455	1.5622	0.498018
N	7.16576	2.72114	1.64206
H	8.01753	3.23735	1.77538
H	6.3102	3.06834	2.04206
N	5.9317	0.940373	0.811191
C	5.99929	-0.213592	0.0853356
C	7.12448	-0.792044	-0.515212
N	6.77368	-1.97543	-1.16902
C	5.47326	-2.10671	-0.968003
N	4.95136	-1.05627	-0.20713
H	4.86027	-2.91361	-1.33256
H	3.99635	-0.920836	0.0834188
