29
  This energy is 0.00314653 and Call times are: 7596
C	-0.637353	0.931594	-0.466928
N	-1.08642	2.02893	-1.23793
H	-0.511657	2.38464	-2.01545
H	-1.98861	2.48235	-1.03158
N	0.555753	0.345861	-0.753817
C	1.00988	-0.709742	-0.0283538
O	2.08181	-1.21794	-0.304218
N	0.261221	-1.20138	1.0129
C	-0.936013	-0.639441	1.32667
H	0.60991	-2.01322	1.57125
C	-1.41185	0.443589	0.589626
H	-1.52079	-1.03227	2.14883
H	-2.36497	0.894583	0.835775
C	9.38202	-0.792382	0.126945
O	8.28613	-1.37277	0.0347134
N	10.2103	-1.04853	1.2817
C	11.4477	-0.487157	1.53256
H	9.79823	-1.70614	1.93231
N	12.0931	-0.845162	2.68042
H	11.7123	-1.49431	3.34627
H	12.9934	-0.430537	2.8543
N	12.0272	0.378198	0.709782
C	11.2823	0.654713	-0.400106
C	10.0256	0.143232	-0.746851
N	9.60183	0.676724	-1.96618
C	10.576	1.48734	-2.3438
N	11.6267	1.51005	-1.42168
H	10.5897	2.07388	-3.24687
H	12.4808	2.04174	-1.47338
