29
  This energy is 8.5844e-05 and Call times are: 7618
C	-0.0777988	-0.152996	-1.2094
N	0.186576	-0.224876	-2.59691
H	1.12225	0.0105305	-2.95817
H	-0.549843	-0.511952	-3.25828
N	0.90619	0.227742	-0.351673
C	0.678001	0.304845	0.985792
O	1.57513	0.648374	1.73448
N	-0.561356	-0.00404658	1.49077
C	-1.56744	-0.388205	0.661424
H	-0.737518	0.0550373	2.51931
C	-1.34503	-0.470867	-0.712007
H	-2.54188	-0.630191	1.06656
H	-2.14334	-0.776393	-1.37666
C	8.81116	-1.4083	-0.353389
O	8.47681	-2.58399	-0.582067
N	10.1644	-0.999603	-0.648043
C	10.6908	0.262978	-0.453053
H	10.7338	-1.74502	-1.02978
N	11.9968	0.471855	-0.789117
H	12.5886	-0.245561	-1.1698
H	12.3709	1.39446	-0.642892
N	9.98352	1.27025	0.0437154
C	8.69408	0.93452	0.339845
C	8.06624	-0.307241	0.181233
N	6.73638	-0.238293	0.602729
C	6.5674	1.01025	1.00438
N	7.73355	1.76871	0.864545
H	5.6544	1.42495	1.39707
H	7.86876	2.73971	1.09623
