29
  This energy is 0.00215854 and Call times are: 10430
C	-0.041121	1.22082	0.00283068
N	-0.0927974	2.58662	-0.360753
H	-0.117234	2.85685	-1.35463
H	-0.10649	3.32257	0.360579
N	-0.0237788	0.263525	-0.962658
C	0.0256995	-1.05563	-0.639834
O	0.0403377	-1.895	-1.52224
N	0.059054	-1.44012	0.678298
C	0.0429813	-0.509118	1.66854
H	0.0971018	-2.45451	0.927264
C	-0.00767062	0.846681	1.34938
H	0.0694958	-0.81955	2.70543
H	-0.0206475	1.59202	2.1347
C	7.84708	-0.994565	-1.06249
O	7.74016	-1.93041	-1.87433
N	8.94904	-0.0722519	-1.20461
C	9.20785	1.01349	-0.390139
H	9.55373	-0.288297	-1.98771
N	10.3	1.7812	-0.673233
H	10.9196	1.5944	-1.44197
H	10.4802	2.56923	-0.0740099
N	8.44419	1.33556	0.646512
C	7.38601	0.491968	0.824497
C	7.03659	-0.628957	0.061121
N	5.88127	-1.22529	0.571572
C	5.5438	-0.484507	1.61373
N	6.43092	0.577858	1.81153
H	4.69418	-0.65204	2.25391
H	6.39797	1.28267	2.53053
