29
  This energy is -0.00551893 and Call times are: 6704
C	-0.851045	0.670498	-0.564148
N	-1.90682	1.55974	-0.872123
H	-2.37635	2.08536	-0.120676
H	-2.21642	1.69098	-1.84632
N	-0.455992	0.510137	0.727017
C	0.555716	-0.337988	1.04945
O	0.891974	-0.464981	2.21315
N	1.1966	-1.04951	0.0648558
C	0.826886	-0.913003	-1.23602
H	1.97478	-1.70196	0.31216
C	-0.209355	-0.0461177	-1.57855
H	1.33659	-1.47711	-2.00687
H	-0.507442	0.0659856	-2.61343
C	6.3857	-1.11824	-0.202609
O	5.58562	-1.98867	-0.588048
N	6.87123	-1.17183	1.15628
C	7.75848	-0.285223	1.73584
H	6.49523	-1.94901	1.68561
N	8.10942	-0.489221	3.03874
H	7.75491	-1.24985	3.59148
H	8.75567	0.162121	3.45186
N	8.27715	0.746858	1.08212
C	7.84831	0.842313	-0.210188
C	6.95732	0.00192283	-0.88929
N	6.77802	0.44145	-2.20291
C	7.53963	1.51694	-2.3125
N	8.21506	1.80491	-1.12271
H	7.64886	2.12097	-3.19735
H	8.8521	2.56453	-0.943919
