29
  This energy is -0.00250818 and Call times are: 3089
C	0.915162	0.321835	-0.7423
N	1.84781	1.03472	-1.53111
H	1.80308	2.06271	-1.58256
H	2.57845	0.536421	-2.06026
N	-0.0419585	0.996179	-0.0508737
C	-0.949808	0.334908	0.714215
O	-1.79793	0.960677	1.32454
N	-0.910073	-1.03541	0.798253
C	0.0335028	-1.74056	0.12
H	-1.608	-1.54461	1.38651
C	0.969711	-1.07308	-0.667781
H	0.0587802	-2.82063	0.190951
H	1.72326	-1.63043	-1.20993
C	7.58067	0.827413	-0.221068
O	8.45389	1.70499	-0.338019
N	7.91293	-0.535279	-0.564389
C	7.06114	-1.62073	-0.490718
H	8.86843	-0.647036	-0.880765
N	7.54653	-2.84239	-0.857167
H	8.48866	-2.98735	-1.17519
H	6.91836	-3.62644	-0.800495
N	5.8021	-1.52294	-0.0823015
C	5.43759	-0.251463	0.254677
C	6.2188	0.910246	0.216541
N	5.47404	2.01251	0.642321
C	4.27718	1.52868	0.928964
N	4.20229	0.149955	0.709309
H	3.43916	2.10059	1.29005
H	3.40855	-0.454301	0.849497
