29
  This energy is 0.000221098 and Call times are: 10140
C	-0.721185	0.604111	-0.779135
N	-1.26207	1.52679	-1.70453
H	-0.700589	2.32987	-2.02267
H	-2.21863	1.40662	-2.0688
N	0.542812	0.778712	-0.309329
C	1.08578	-0.0933843	0.580314
O	2.22007	0.0838338	0.98698
N	0.356462	-1.17139	1.01897
C	-0.90999	-1.3757	0.569584
H	0.773468	-1.8425	1.70318
C	-1.47721	-0.487883	-0.342917
H	-1.47901	-2.22766	0.919748
H	-2.4857	-0.646435	-0.703771
C	8.7226	-0.303908	1.16552
O	9.54978	-0.384146	2.09054
N	7.6406	-1.25882	1.11449
C	6.64486	-1.30554	0.157682
H	7.66298	-1.93036	1.87219
N	5.69747	-2.28183	0.265695
H	5.69091	-2.96287	1.00454
H	4.97692	-2.30779	-0.436209
N	6.57453	-0.447412	-0.85238
C	7.57771	0.478166	-0.849589
C	8.62769	0.611704	0.0674739
N	9.44581	1.68855	-0.281845
C	8.90411	2.19003	-1.37903
N	7.76013	1.48664	-1.76801
H	9.27456	3.03732	-1.93095
H	7.16759	1.66482	-2.56296
