29
  This energy is -0.00156536 and Call times are: 2116
C	-0.320975	1.17668	0.0670721
N	-0.847953	2.46514	-0.182806
H	-1.37422	2.64979	-1.04904
H	-0.712052	3.22933	0.49518
N	-0.510246	0.180559	-0.838909
C	-0.0142341	-1.06605	-0.622677
O	-0.196614	-1.9422	-1.44881
N	0.690669	-1.33608	0.524761
C	0.898211	-0.363414	1.45128
H	1.07241	-2.29464	0.691683
C	0.394211	0.918794	1.24023
H	1.45483	-0.583516	2.35348
H	0.556961	1.69692	1.97538
C	5.68132	1.18281	-0.636429
O	5.05035	2.18991	-1.00243
N	6.7843	0.720302	-1.44558
C	7.58139	-0.376432	-1.17914
H	6.94269	1.28812	-2.26903
N	8.58375	-0.6689	-2.05783
H	8.76746	-0.126341	-2.88344
H	9.15832	-1.46976	-1.85528
N	7.41195	-1.14917	-0.113441
C	6.37869	-0.753311	0.685768
C	5.51615	0.335465	0.507155
N	4.58926	0.399081	1.55011
C	4.88478	-0.623012	2.33542
N	5.97068	-1.35916	1.85208
H	4.37078	-0.88472	3.24485
H	6.391	-2.17826	2.261
