29
  This energy is 0.000434141 and Call times are: 10207
C	-0.707036	0.300102	0.949815
N	-1.7658	0.733288	1.78146
H	-2.64837	1.06401	1.36541
H	-1.66663	0.722958	2.80722
N	-0.855909	0.320724	-0.401593
C	0.146005	-0.0901341	-1.22269
O	-0.0107137	-0.0625361	-2.43019
N	1.33171	-0.535122	-0.691169
C	1.51393	-0.568801	0.655403
H	2.10268	-0.851263	-1.32211
C	0.49341	-0.149883	1.50726
H	2.45129	-0.920806	1.06732
H	0.633855	-0.174862	2.5806
C	5.22783	-0.473429	-1.31343
O	4.93377	-0.66978	-2.50562
N	4.99835	-1.5304	-0.356696
C	5.26929	-1.47169	0.996932
H	4.60269	-2.36593	-0.770126
N	4.987	-2.57053	1.75535
H	4.59452	-3.41449	1.3766
H	5.1874	-2.5177	2.74003
N	5.78746	-0.399384	1.58278
C	6.02342	0.6308	0.719004
C	5.78661	0.67317	-0.660645
N	6.16574	1.91213	-1.18234
C	6.61833	2.59754	-0.145943
N	6.55311	1.85974	1.03986
H	6.99833	3.6047	-0.177316
H	6.83362	2.15022	1.96275
