29
  This energy is -0.0057827 and Call times are: 9008
C	0.899109	0.816242	-0.132142
N	1.70032	1.98149	-0.109361
H	1.34435	2.84572	0.323999
H	2.64393	1.97892	-0.523767
N	-0.343464	0.838266	0.4196
C	-1.13314	-0.267704	0.410778
O	-2.24264	-0.223751	0.911244
N	-0.680234	-1.43137	-0.161228
C	0.556815	-1.48802	-0.721665
H	-1.28706	-2.28233	-0.168338
C	1.37548	-0.360017	-0.718483
H	0.90722	-2.40875	-1.17078
H	2.36167	-0.400258	-1.1637
C	5.7541	0.934258	0.231591
O	4.7431	1.57161	0.575093
N	6.64918	1.51907	-0.738986
C	7.80841	0.94365	-1.22297
H	6.35175	2.43282	-1.05862
N	8.53573	1.64278	-2.14197
H	8.26871	2.55076	-2.47965
H	9.37796	1.21504	-2.4887
N	8.23776	-0.250367	-0.83369
C	7.42423	-0.846889	0.085766
C	6.23576	-0.352659	0.637666
N	5.70204	-1.26964	1.54608
C	6.54526	-2.28832	1.54173
N	7.61512	-2.08001	0.66609
H	6.44872	-3.18531	2.1298
H	8.38809	-2.6984	0.479258
