29
  This energy is -0.000896448 and Call times are: 7860
C	0.491871	-0.959082	0.574747
N	1.05082	-2.21664	0.9009
H	1.18317	-2.92949	0.168953
H	1.33035	-2.4326	1.86907
N	0.128955	-0.691843	-0.708127
C	-0.410244	0.508504	-1.04763
O	-0.727591	0.724777	-2.20344
N	-0.596346	1.47443	-0.0891054
C	-0.244612	1.24034	1.20282
H	-1.01098	2.39783	-0.34955
C	0.309261	0.0130078	1.56267
H	-0.39423	2.00645	1.9531
H	0.59102	-0.178149	2.59053
C	11.2072	-0.403008	1.06868
O	11.8103	-0.88659	2.04268
N	11.8696	0.599164	0.267364
C	11.3397	1.23127	-0.84119
H	12.8031	0.819178	0.592421
N	12.1111	2.15793	-1.48039
H	13.0405	2.39912	-1.18392
H	11.7162	2.61305	-2.28625
N	10.1223	0.975743	-1.30382
C	9.4526	0.0327951	-0.578925
C	9.89613	-0.663263	0.552487
N	8.9095	-1.54481	1.00012
C	7.89932	-1.38444	0.161931
N	8.18015	-0.431578	-0.821892
H	6.95966	-1.90885	0.204105
H	7.58252	-0.127102	-1.57351
