29
  This energy is -0.00156189 and Call times are: 4916
C	0.166604	-0.791645	-0.915232
N	0.300002	-1.40717	-2.18156
H	0.193142	-0.849934	-3.04149
H	0.504445	-2.41442	-2.25764
N	-0.103212	0.538593	-0.834258
C	-0.236155	1.15398	0.370092
O	-0.4779	2.34675	0.417388
N	-0.0980481	0.431802	1.53018
C	0.171764	-0.899656	1.48532
H	-0.200162	0.904486	2.45677
C	0.310221	-1.54145	0.255869
H	0.279311	-1.46259	2.40389
H	0.525144	-2.60189	0.215034
C	6.66331	-0.298173	0.560155
O	7.83383	-0.336954	0.978141
N	5.83687	-1.47467	0.694494
C	4.52311	-1.59393	0.283426
H	6.31393	-2.25092	1.13656
N	3.89241	-2.78624	0.49062
H	4.33671	-3.5754	0.926023
H	2.93605	-2.86328	0.187311
N	3.85733	-0.6048	-0.299609
C	4.59657	0.532674	-0.45046
C	5.926	0.755951	-0.0709177
N	6.31502	2.05635	-0.400419
C	5.24975	2.60166	-0.963065
N	4.1723	1.71239	-1.01797
H	5.18655	3.60706	-1.34377
H	3.25339	1.87999	-1.39523
