29
  This energy is 0.00107542 and Call times are: 2599
C	-0.0246728	0.847745	0.879106
N	-0.156813	2.04731	1.61657
H	-0.445698	2.91599	1.14397
H	0.033401	2.06556	2.62929
N	-0.279896	0.842631	-0.456456
C	-0.160343	-0.296556	-1.18775
O	-0.394359	-0.276487	-2.38283
N	0.2234	-1.4668	-0.579737
C	0.486227	-1.49694	0.753532
H	0.315529	-2.34331	-1.14159
C	0.36696	-0.334763	1.51362
H	0.788269	-2.42306	1.22609
H	0.575256	-0.35379	2.576
C	7.28829	0.932287	0.940279
O	6.86426	1.88894	1.61209
N	6.94661	-0.410213	1.34788
C	7.33585	-1.57414	0.713105
H	6.36841	-0.441626	2.17871
N	6.91865	-2.76187	1.23994
H	6.34482	-2.8278	2.06222
H	7.20778	-3.60379	0.77078
N	8.09232	-1.58246	-0.377422
C	8.4436	-0.334487	-0.804324
C	8.10418	0.900188	-0.237159
N	8.66252	1.94581	-0.975977
C	9.32032	1.35774	-1.96096
N	9.2182	-0.035379	-1.90174
H	9.87771	1.86199	-2.7322
H	9.62433	-0.710415	-2.52959
