29
  This energy is -0.0123202 and Call times are: 1969
C	0.94922	-0.743051	-0.197397
N	2.21492	-1.37406	-0.18822
H	2.97758	-0.995414	0.39177
H	2.38731	-2.215	-0.758517
N	0.740082	0.365638	0.561524
C	-0.466649	0.990579	0.570433
O	-0.630104	1.98226	1.25836
N	-1.49844	0.50429	-0.194648
C	-1.32353	-0.601941	-0.964877
H	-2.42679	0.984452	-0.188242
C	-0.0903008	-1.25114	-0.981965
H	-2.14139	-0.979627	-1.56545
H	0.0538629	-2.13269	-1.59392
C	6.71077	0.879928	-0.880011
O	7.46939	1.4386	-1.69163
N	5.7487	1.68154	-0.160966
C	4.83959	1.21623	0.769714
H	5.78828	2.66487	-0.399876
N	4.00126	2.12044	1.35447
H	4.01463	3.10205	1.13993
H	3.34324	1.77184	2.03125
N	4.75083	-0.0624173	1.11432
C	5.6417	-0.864103	0.461083
C	6.59792	-0.495121	-0.493281
N	7.31522	-1.61419	-0.922348
C	6.80565	-2.62942	-0.245318
N	5.77975	-2.22474	0.614041
H	7.12021	-3.65644	-0.322991
H	5.23289	-2.79965	1.23472
