29
  This energy is -0.00563832 and Call times are: 2739
C	0.5067	-0.518313	-0.983217
N	1.39637	-0.947799	-1.99529
H	2.38383	-0.654718	-1.97459
H	1.06845	-1.55535	-2.76046
N	0.957205	0.283078	0.0186356
C	0.122863	0.709523	1.00294
O	0.549433	1.42688	1.88997
N	-1.19767	0.331933	0.99646
C	-1.68092	-0.468466	0.00984049
H	-1.83989	0.659552	1.75319
C	-0.834531	-0.911936	-1.00484
H	-2.72304	-0.76211	0.011161
H	-1.21486	-1.54966	-1.79292
C	7.21944	-0.96392	0.866126
O	7.71508	-1.65248	1.77529
N	7.40613	-1.38108	-0.503662
C	6.9224	-0.730405	-1.6225
H	7.94688	-2.23267	-0.592859
N	7.19632	-1.2694	-2.84593
H	7.72942	-2.11226	-2.96903
H	6.84013	-0.787899	-3.65453
N	6.20958	0.387128	-1.55494
C	6.00481	0.824415	-0.27826
C	6.44849	0.242814	0.915974
N	6.02778	0.999322	2.01216
C	5.34953	2.00891	1.49309
N	5.30567	1.94878	0.096958
H	4.87566	2.7991	2.05059
H	4.85554	2.59241	-0.53386
