29
  This energy is -0.00384429 and Call times are: 11046
C	-0.193416	1.17939	-0.252457
N	-0.552534	2.40525	-0.859557
H	-0.982347	2.41253	-1.79584
H	-0.389096	3.29985	-0.374687
N	-0.416642	0.0087754	-0.907223
C	-0.0808151	-1.18245	-0.345948
O	-0.290509	-2.21801	-0.951791
N	0.493445	-1.21731	0.90122
C	0.730493	-0.0657635	1.58339
H	0.751959	-2.13314	1.33347
C	0.390261	1.16178	1.01771
H	1.18351	-0.100883	2.56612
H	0.577143	2.08177	1.55724
C	7.4705	-0.495351	1.28869
O	7.65373	-0.981737	2.41838
N	8.59266	0.0875214	0.591411
C	8.55624	0.66581	-0.662949
H	9.45812	0.0401777	1.11517
N	9.71856	1.16952	-1.17051
H	10.5935	1.13853	-0.6772
H	9.68158	1.58904	-2.08439
N	7.44651	0.750365	-1.38607
C	6.35409	0.21234	-0.769438
C	6.28438	-0.393398	0.491328
N	4.98004	-0.816329	0.757318
C	4.28292	-0.474864	-0.313267
N	5.07578	0.156933	-1.27604
H	3.22988	-0.647973	-0.457861
H	4.78925	0.511656	-2.1743
