29
  This energy is -0.00170979 and Call times are: 1113
C	-0.928581	-0.521001	-0.598669
N	-1.82401	-0.991959	-1.58693
H	-1.64066	-0.803779	-2.58312
H	-2.66519	-1.52565	-1.32288
N	0.176255	0.181466	-0.965777
C	1.05219	0.644995	-0.0358762
O	2.03495	1.27185	-0.388902
N	0.828819	0.406597	1.29817
C	-0.265717	-0.292217	1.69972
H	1.50211	0.762808	2.01387
C	-1.17093	-0.772475	0.754969
H	-0.435371	-0.476346	2.75307
H	-2.04427	-1.32965	1.06997
C	5.61897	0.114969	0.454983
O	4.53075	0.335536	1.01485
N	5.63152	-0.668194	-0.758149
C	6.75072	-1.0006	-1.49711
H	4.71037	-0.974344	-1.0468
N	6.57563	-1.75199	-2.62276
H	5.67612	-2.07157	-2.93662
H	7.3968	-1.98924	-3.15373
N	7.97697	-0.622239	-1.15842
C	8.01936	0.12244	-0.0153025
C	6.95112	0.512386	0.802087
N	7.4139	1.27019	1.88028
C	8.72462	1.33507	1.7174
N	9.14569	0.649888	0.573741
H	9.41336	1.84591	2.36888
H	10.0862	0.548086	0.227508
