29
  This energy is -0.00177017 and Call times are: 7346
C	0.000980172	0.620244	-1.05233
N	0.0506357	1.627	-2.04442
H	0.182481	2.61265	-1.77513
H	-0.0440208	1.38702	-3.04221
N	0.127755	0.955598	0.25929
C	0.0835435	0.00740426	1.23181
O	0.199462	0.332033	2.39996
N	-0.091411	-1.31313	0.89714
C	-0.221492	-1.683	-0.404344
H	-0.125494	-2.04288	1.64462
C	-0.177731	-0.719253	-1.41027
H	-0.359135	-2.72586	-0.660745
H	-0.28089	-1.00902	-2.44844
C	5.56133	-1.28139	-0.654625
O	5.53881	-2.4454	-1.09157
N	4.56964	-0.342454	-1.12381
C	4.45867	0.979828	-0.738555
H	3.92366	-0.743105	-1.79296
N	3.45569	1.72521	-1.28698
H	2.7986	1.35847	-1.95293
H	3.38356	2.6871	-1.00044
N	5.28112	1.54798	0.134567
C	6.23966	0.700001	0.609109
C	6.43769	-0.64812	0.285596
N	7.52931	-1.16275	0.988771
C	7.97691	-0.152865	1.71577
N	7.22357	1.00862	1.52041
H	8.81802	-0.187493	2.3874
H	7.3562	1.90917	1.95196
