29
  This energy is -0.00621003 and Call times are: 10162
C	0.956315	0.0384709	0.759006
N	2.2272	-0.103238	1.36319
H	2.98392	-0.595737	0.866978
H	2.4093	0.282489	2.30137
N	0.734371	-0.476932	-0.479538
C	-0.477579	-0.354345	-1.08202
O	-0.652524	-0.824307	-2.19194
N	-1.50168	0.297985	-0.440075
C	-1.31394	0.825057	0.79869
H	-2.43403	0.392625	-0.902886
C	-0.0752511	0.705427	1.42635
H	-2.1258	1.33796	1.29872
H	0.0791324	1.12363	2.4131
C	6.65987	-0.417205	1.38465
O	6.3319	-0.614712	2.56777
N	7.73296	-1.20106	0.819649
C	8.21487	-1.10423	-0.471691
H	8.13065	-1.86516	1.47264
N	9.23982	-1.92796	-0.836777
H	9.65645	-2.5973	-0.213753
H	9.58406	-1.84945	-1.77905
N	7.72556	-0.249934	-1.36181
C	6.70635	0.516779	-0.87557
C	6.14691	0.497331	0.408155
N	5.11986	1.43885	0.506462
C	5.06198	2.01002	-0.684816
N	6.0105	1.48252	-1.56617
H	4.37847	2.79037	-0.974008
H	6.1722	1.74294	-2.52577
