29
  This energy is 0.00124687 and Call times are: 4057
C	-1.04287	0.603077	0.202057
N	-2.39153	1.028	0.2305
H	-3.11575	0.484237	-0.260659
H	-2.6632	1.88162	0.740072
N	-0.703007	-0.525834	-0.475396
C	0.585538	-0.955549	-0.518144
O	0.865741	-1.96981	-1.13145
N	1.56837	-0.247194	0.128915
C	1.26328	0.885623	0.815383
H	2.55959	-0.577147	0.0964415
C	-0.0547855	1.33589	0.866125
H	2.04325	1.43892	1.32307
H	-0.302726	2.23772	1.41168
C	7.39488	0.176295	-1.44684
O	7.32904	0.0982203	-2.68616
N	7.53142	1.4784	-0.837682
C	7.61749	1.73464	0.517343
H	7.56108	2.2344	-1.51085
N	7.74405	3.03324	0.917311
H	7.77656	3.80593	0.27572
H	7.80649	3.20944	1.90605
N	7.58288	0.77725	1.43591
C	7.45466	-0.475738	0.909928
C	7.35974	-0.841249	-0.438663
N	7.23956	-2.22748	-0.560547
C	7.2616	-2.68481	0.680055
N	7.3915	-1.65489	1.61661
H	7.19031	-3.7199	0.968606
H	7.4331	-1.73574	2.61987
