29
  This energy is -0.00175913 and Call times are: 6593
C	-0.988776	0.0618187	0.714569
N	-1.98369	0.457517	1.6386
H	-1.90077	1.35664	2.1347
H	-2.79812	-0.145924	1.82484
N	0.0788426	0.870998	0.481526
C	1.04838	0.514047	-0.401317
O	1.99535	1.25547	-0.593476
N	0.959566	-0.679824	-1.07452
C	-0.0942819	-1.51242	-0.865298
H	1.70489	-0.954949	-1.75365
C	-1.09459	-1.15681	0.0377785
H	-0.157689	-2.452	-1.39954
H	-1.93601	-1.81675	0.207809
C	5.29039	0.0605793	1.40406
O	5.69004	0.325775	2.55136
N	4.73516	-1.24707	1.14527
C	4.24968	-1.69622	-0.067877
H	4.72522	-1.84666	1.96134
N	3.75945	-2.96825	-0.130763
H	3.73512	-3.58828	0.659634
H	3.40872	-3.28617	-1.01871
N	4.24194	-0.947073	-1.16345
C	4.75814	0.301778	-0.971146
C	5.27256	0.851786	0.209608
N	5.70319	2.16216	-0.0104045
C	5.4554	2.39543	-1.28826
N	4.87781	1.29047	-1.92086
H	5.66156	3.31483	-1.80976
H	4.59533	1.20991	-2.88446
