29
  This energy is 0.000294316 and Call times are: 3757
C	1.21123	-0.00609417	-0.158073
N	2.56882	-0.377676	-0.296457
H	2.84376	-1.36813	-0.227105
H	3.29404	0.334373	-0.467249
N	0.268072	-0.959367	0.066893
C	-1.04296	-0.628664	0.203528
O	-1.86968	-1.50017	0.404528
N	-1.43349	0.685134	0.114988
C	-0.516588	1.66321	-0.109175
H	-2.44164	0.940153	0.21997
C	0.830773	1.3359	-0.250925
H	-0.83171	2.69676	-0.177785
H	1.56487	2.11151	-0.429598
C	8.98863	0.6072	0.857848
O	8.29118	1.27559	1.64089
N	8.40034	-0.540262	0.207892
C	9.03701	-1.38179	-0.684095
H	7.43314	-0.694344	0.465475
N	8.32396	-2.42292	-1.20367
H	7.36369	-2.60353	-0.96915
H	8.79661	-3.03033	-1.8519
N	10.3021	-1.21946	-1.05132
C	10.9049	-0.145482	-0.462919
C	10.3526	0.763748	0.447901
N	11.2997	1.72286	0.814022
C	12.3925	1.40061	0.142687
N	12.2042	0.266257	-0.652635
H	13.331	1.9274	0.181443
H	12.875	-0.181596	-1.25619
