29
  This energy is -0.00130397 and Call times are: 5683
C	-0.532708	-0.961324	-0.533092
N	-0.827616	-2.09048	-1.33202
H	-0.129176	-2.4488	-1.99926
H	-1.73947	-2.56469	-1.25596
N	0.675744	-0.3485	-0.647023
C	0.983846	0.737954	0.108968
O	2.07287	1.27003	-0.0107215
N	0.0688521	1.23378	1.00527
C	-1.14849	0.64529	1.14439
H	0.305185	2.06933	1.58702
C	-1.47553	-0.46949	0.374374
H	-1.8648	1.04161	1.85295
H	-2.44399	-0.941702	0.481631
C	5.17021	1.45193	-0.070039
O	5.30413	2.67689	0.0969432
N	4.93227	0.953176	-1.40414
C	4.76257	-0.372175	-1.75601
H	4.89665	1.68382	-2.10447
N	4.54558	-0.663358	-3.07147
H	4.50459	0.0372723	-3.79064
H	4.4227	-1.6313	-3.31752
N	4.80132	-1.36311	-0.873899
C	5.02401	-0.942964	0.405537
C	5.2081	0.367051	0.865187
N	5.4091	0.374787	2.24739
C	5.3477	-0.895218	2.61077
N	5.11416	-1.74152	1.52267
H	5.45978	-1.26655	3.61541
H	5.02519	-2.74493	1.53022
