29
  This energy is 0.000583478 and Call times are: 10229
C	0.691608	0.978728	0.236387
N	1.46124	1.98954	0.857833
H	1.60315	1.97803	1.8782
H	1.88624	2.74463	0.299859
N	0.13851	-0.00973732	0.988656
C	-0.605159	-0.992527	0.416022
O	-1.09051	-1.86746	1.11052
N	-0.808214	-0.998147	-0.942343
C	-0.269737	-0.0250723	-1.72385
H	-1.38006	-1.75373	-1.38339
C	0.494728	0.987921	-1.14761
H	-0.433994	-0.0358801	-2.79396
H	0.92573	1.76523	-1.76602
C	8.24777	-0.742391	-0.139222
O	9.33833	-1.25284	-0.44982
N	7.591	-1.18461	1.06837
C	6.3823	-0.720232	1.55061
H	8.10729	-1.8995	1.56632
N	5.9085	-1.25416	2.7137
H	6.39562	-1.96408	3.23186
H	5.02729	-0.909783	3.05635
N	5.67085	0.214748	0.933189
C	6.25008	0.666956	-0.217056
C	7.46368	0.265486	-0.78917
N	7.70267	0.971431	-1.97047
C	6.662	1.77591	-2.10667
N	5.74506	1.62906	-1.06151
H	6.50861	2.4723	-2.91369
H	4.87589	2.12116	-0.930398
