29
  This energy is 0.0019289 and Call times are: 11024
C	-0.731783	-0.350353	-0.913157
N	-1.58909	-0.392247	-2.03723
H	-1.85583	0.479462	-2.51721
H	-1.95442	-1.29034	-2.38665
N	-0.259398	0.843815	-0.466273
C	0.56564	0.911333	0.611495
O	0.976065	1.99261	0.993299
N	0.935011	-0.237336	1.26765
C	0.481002	-1.44764	0.847371
H	1.56953	-0.186108	2.09662
C	-0.365627	-1.5291	-0.256801
H	0.776343	-2.34896	1.36951
H	-0.729883	-2.49092	-0.595343
C	8.62072	0.915435	-1.13516
O	8.3876	1.60792	-2.14137
N	9.88363	1.07962	-0.454503
C	10.2938	0.390708	0.67081
H	10.4823	1.77482	-0.883284
N	11.5263	0.675409	1.18287
H	12.1443	1.35886	0.781914
H	11.816	0.168053	2.00213
N	9.54416	-0.528108	1.26696
C	8.33691	-0.721456	0.660144
C	7.82823	-0.0798199	-0.476015
N	6.55261	-0.562082	-0.777925
C	6.29951	-1.46928	0.150334
N	7.35798	-1.60501	1.05364
H	5.39681	-2.05119	0.229413
H	7.41589	-2.22324	1.84689
