29
  This energy is 0.000480789 and Call times are: 2761
C	0.423515	0.576419	-0.990195
N	0.629525	1.47	-2.06692
H	-0.00293177	2.27199	-2.20191
H	1.41031	1.32949	-2.72476
N	-0.611945	0.777674	-0.132168
C	-0.831619	-0.0661742	0.910183
O	-1.76569	0.134613	1.66555
N	-0.00187032	-1.14222	1.11034
C	1.04258	-1.37272	0.271539
H	-0.17026	-1.7916	1.91182
C	1.27758	-0.514001	-0.800839
H	1.69254	-2.22296	0.435454
H	2.10831	-0.693485	-1.47173
C	8.42695	0.710109	-0.969208
O	9.30801	1.22728	-1.67816
N	7.04099	0.95954	-1.28872
C	5.94883	0.462188	-0.603896
H	6.91756	1.55833	-2.09606
N	4.70426	0.80304	-1.04799
H	4.5473	1.39448	-1.84506
H	3.91541	0.436263	-0.54229
N	6.06132	-0.325517	0.458379
C	7.35504	-0.591938	0.802447
C	8.52534	-0.141101	0.179188
N	9.65147	-0.639684	0.838104
C	9.17326	-1.37057	1.831
N	7.77533	-1.37438	1.85361
H	9.76231	-1.91058	2.55292
H	7.17069	-1.8503	2.50378
