29
  This energy is 0.00115002 and Call times are: 366
C	0.331823	0.473007	1.07623
N	0.886608	1.26778	2.10618
H	1.45784	2.09267	1.87237
H	0.726444	1.0318	3.09653
N	0.553738	0.799699	-0.224893
C	0.0320884	0.0525889	-1.23313
O	0.244601	0.365011	-2.39098
N	-0.732583	-1.05161	-0.946018
C	-0.974062	-1.40646	0.343696
H	-1.13409	-1.62664	-1.72098
C	-0.444244	-0.647754	1.38594
H	-1.57776	-2.27818	0.562526
H	-0.633835	-0.926448	2.41491
C	7.6888	1.31037	0.60481
O	7.3218	2.43502	0.987983
N	8.89656	0.745816	1.15958
C	9.43674	-0.485422	0.841112
H	9.34607	1.34912	1.83747
N	10.5906	-0.860103	1.46601
H	11.0614	-0.285603	2.14281
H	10.9763	-1.75821	1.22693
N	8.88354	-1.30944	-0.0400883
C	7.73625	-0.820675	-0.594975
C	7.10872	0.405688	-0.342883
N	5.95186	0.529096	-1.11579
C	5.88407	-0.591632	-1.81443
N	6.9508	-1.45052	-1.53314
H	5.11336	-0.843608	-2.52314
H	7.13089	-2.35955	-1.92816
