29
  This energy is -0.000929719 and Call times are: 9824
C	1.18648	0.290085	-0.0150698
N	2.44692	0.897218	0.192114
H	2.52806	1.72778	0.79627
H	3.2935	0.517561	-0.256554
N	0.0803292	0.804867	0.585199
C	-1.14225	0.24031	0.402401
O	-2.11867	0.719298	0.950638
N	-1.27522	-0.867429	-0.39863
C	-0.190098	-1.40758	-1.01373
H	-2.21521	-1.30212	-0.539629
C	1.06875	-0.837074	-0.83358
H	-0.302449	-2.28088	-1.64377
H	1.9361	-1.26376	-1.32147
C	8.39697	0.679409	-0.680099
O	9.45041	1.21379	-1.06872
N	7.25077	0.680415	-1.5584
C	6.014	0.131794	-1.27809
H	7.4261	1.13693	-2.44521
N	5.04068	0.225309	-2.23005
H	5.18187	0.671239	-3.11942
H	4.14339	-0.176805	-2.01622
N	5.73794	-0.475875	-0.130875
C	6.79151	-0.503344	0.736481
C	8.07741	0.019491	0.550934
N	8.86654	-0.215636	1.67917
C	8.07817	-0.862064	2.5214
N	6.79925	-1.06323	1.99357
H	8.35657	-1.20607	3.50319
H	6.01802	-1.52573	2.43012
