29
  This energy is -0.00237356 and Call times are: 6165
C	-0.635902	0.838865	-0.619712
N	-1.66014	1.62173	-1.20137
H	-2.64916	1.3854	-1.03584
H	-1.42967	2.43279	-1.79399
N	-0.958889	-0.227651	0.159464
C	0.00619455	-0.995808	0.729884
O	-0.307589	-1.94614	1.424
N	1.33153	-0.700324	0.523529
C	1.68938	0.358649	-0.24985
H	2.07427	-1.2907	0.961955
C	0.708269	1.1535	-0.839968
H	2.73612	0.585611	-0.40814
H	0.988401	1.99813	-1.45685
C	7.00531	0.908978	0.966863
O	7.54998	1.82267	1.61095
N	6.5944	-0.286027	1.66565
C	5.97952	-1.38588	1.09873
H	6.79945	-0.260796	2.65706
N	5.65974	-2.43253	1.91396
H	5.84921	-2.43924	2.90078
H	5.21275	-3.22897	1.49156
N	5.6911	-1.46399	-0.194433
C	6.06072	-0.356343	-0.901238
C	6.68508	0.803575	-0.425758
N	6.89479	1.70714	-1.47004
C	6.41047	1.10843	-2.54508
N	5.88894	-0.155163	-2.25172
H	6.40317	1.51728	-3.54135
H	5.46449	-0.809886	-2.88889
