29
  This energy is -0.0052944 and Call times are: 3625
C	-0.767567	-0.344106	-0.885743
N	-1.36148	-0.677637	-2.12521
H	-0.813352	-0.614279	-2.99524
H	-2.34377	-0.986035	-2.17148
N	0.529809	0.0608175	-0.843994
C	1.12391	0.386939	0.333938
O	2.28735	0.746996	0.346244
N	0.413293	0.310321	1.50679
C	-0.885462	-0.0906696	1.50093
H	0.869619	0.560988	2.41308
C	-1.50519	-0.427618	0.298843
H	-1.43946	-0.148687	2.42934
H	-2.53957	-0.747591	0.289109
C	8.08042	-0.306721	-1.08061
O	8.99638	-0.671759	-1.8383
N	6.97433	0.438386	-1.63431
C	5.88417	0.914	-0.931105
H	7.05733	0.597146	-2.63104
N	4.92781	1.60212	-1.61974
H	4.97983	1.77673	-2.60795
H	4.13815	1.94481	-1.09865
N	5.73229	0.730353	0.374563
C	6.75425	0.029646	0.947005
C	7.89652	-0.4933	0.328087
N	8.70203	-1.14634	1.26384
C	8.06314	-1.02037	2.41479
N	6.86709	-0.309807	2.27585
H	8.3966	-1.40666	3.36312
H	6.20043	-0.0786143	2.99482
