29
  This energy is -0.00340449 and Call times are: 1315
C	-0.489086	0.725738	-0.852178
N	-1.36994	1.4111	-1.72087
H	-2.38306	1.22853	-1.6799
H	-1.01002	2.09695	-2.40073
N	-0.982017	-0.175737	0.0384691
C	-0.157029	-0.84748	0.884037
O	-0.621863	-1.65026	1.67325
N	1.19714	-0.620892	0.847864
C	1.72318	0.273511	-0.0301555
H	1.83219	-1.13719	1.49792
C	0.886773	0.968273	-0.902134
H	2.79164	0.447014	-0.0530518
H	1.30113	1.68173	-1.60334
C	5.36322	-0.756659	-1.00602
O	4.71299	-1.19939	-1.96911
N	5.78716	-1.67194	0.0272805
C	6.5122	-1.34106	1.15599
H	5.50021	-2.62822	-0.14231
N	6.82692	-2.33971	2.03121
H	6.55778	-3.29789	1.89265
H	7.35465	-2.08855	2.85033
N	6.91009	-0.102728	1.42014
C	6.53318	0.802969	0.471079
C	5.80258	0.572688	-0.701313
N	5.62486	1.76498	-1.40686
C	6.23133	2.68825	-0.679886
N	6.80278	2.15244	0.47816
H	6.29559	3.73558	-0.922209
H	7.31712	2.64	1.19408
