29
  This energy is -0.00323549 and Call times are: 5727
C	-0.632719	-0.472612	-0.931887
N	-1.35946	-1.32234	-1.79795
H	-1.55069	-2.29738	-1.52569
H	-1.70385	-0.977396	-2.706
N	-0.186192	-0.9451	0.262374
C	0.514278	-0.1492	1.1125
O	0.903939	-0.594862	2.1769
N	0.781484	1.1541	0.771274
C	0.349863	1.65848	-0.414852
H	1.32015	1.76676	1.42466
C	-0.369409	0.851531	-1.29468
H	0.5642	2.68681	-0.677199
H	-0.715332	1.24881	-2.24068
C	4.60592	1.3892	0.0193385
O	4.40207	2.60523	0.180751
N	3.73134	0.647237	-0.858034
C	3.82241	-0.701834	-1.14242
H	3.00501	1.21672	-1.27483
N	2.90574	-1.23973	-1.99842
H	2.17329	-0.702901	-2.42864
H	2.98016	-2.22303	-2.19875
N	4.75644	-1.48732	-0.620734
C	5.61067	-0.832051	0.218303
C	5.60535	0.523265	0.571005
N	6.6487	0.800236	1.45738
C	7.26562	-0.356001	1.63415
N	6.67069	-1.38581	0.899121
H	8.12539	-0.518953	2.26185
H	6.9467	-2.35383	0.859547
