29
  This energy is 0.00160773 and Call times are: 4366
C	-0.195546	0.642134	1.02056
N	-0.721858	1.16992	2.22251
H	-1.59912	0.795239	2.61165
H	-0.236268	1.93099	2.71961
N	-0.849974	-0.362008	0.378439
C	-0.365406	-0.886497	-0.77782
O	-0.969277	-1.78558	-1.33494
N	0.802268	-0.403228	-1.31579
C	1.48171	0.599976	-0.699725
H	1.1755	-0.806177	-2.20503
C	0.994281	1.14561	0.486576
H	2.40154	0.975954	-1.12959
H	1.53198	1.94488	0.980996
C	7.54561	-1.17769	0.83591
O	7.56397	-2.11471	1.65322
N	6.47015	-1.11365	-0.125594
C	6.30588	-0.142767	-1.0949
H	5.80618	-1.87294	-0.0350394
N	5.22552	-0.240111	-1.92297
H	4.54866	-0.980119	-1.85972
H	5.11499	0.471426	-2.62585
N	7.14915	0.870167	-1.25116
C	8.18648	0.855102	-0.364146
C	8.44314	-0.0764258	0.649604
N	9.60824	0.264023	1.34067
C	10.0419	1.3699	0.759514
N	9.20872	1.77329	-0.288269
H	10.9265	1.91846	1.03563
H	9.3155	2.57694	-0.886222
