29
  This energy is -0.00259823 and Call times are: 8302
C	0.746495	-0.634693	0.729396
N	1.60403	-1.60871	1.2917
H	1.82996	-2.46496	0.765208
H	2.01012	-1.47339	2.2292
N	0.219965	-0.830268	-0.508912
C	-0.606561	0.0900821	-1.07162
O	-1.06603	-0.107201	-2.18219
N	-0.922216	1.23928	-0.388882
C	-0.413282	1.46638	0.850877
H	-1.55783	1.94753	-0.821094
C	0.435428	0.529556	1.43796
H	-0.666474	2.37454	1.3832
H	0.843317	0.706008	2.42533
C	9.14133	0.364935	-0.241824
O	10.2395	0.867406	-0.538421
N	9.11807	-0.930253	0.39625
C	7.98726	-1.62138	0.787104
H	10.0409	-1.31937	0.5465
N	8.15329	-2.83994	1.37859
H	9.05413	-3.25404	1.54216
H	7.32372	-3.33558	1.65915
N	6.75837	-1.15183	0.611204
C	6.72585	0.0730886	0.00988382
C	7.80615	0.852651	-0.422025
N	7.35072	2.04555	-0.98816
C	6.03258	1.98658	-0.90009
N	5.59954	0.801473	-0.297816
H	5.34641	2.74312	-1.24151
H	4.65169	0.514095	-0.11398
