29
  This energy is -0.00187955 and Call times are: 6836
C	1.21949	-0.0701667	-0.00644139
N	2.59346	0.0587284	-0.316025
H	2.88962	0.60554	-1.13742
H	3.30962	-0.390484	0.273425
N	0.288649	0.529577	-0.795582
C	-1.03766	0.421108	-0.519942
O	-1.85287	0.967256	-1.24142
N	-1.45652	-0.302692	0.569591
C	-0.552611	-0.914954	1.37933
H	-2.47644	-0.386502	0.782153
C	0.810204	-0.810624	1.10645
H	-0.89008	-1.48388	2.23645
H	1.53405	-1.29658	1.74856
C	8.72071	0.325554	0.0553483
O	9.91189	0.634413	-0.123654
N	8.27757	0.00685385	1.39223
C	6.99443	-0.35341	1.75682
H	9.01446	0.069563	2.08407
N	6.75352	-0.621583	3.07302
H	7.4617	-0.568645	3.78395
H	5.81612	-0.88355	3.32836
N	5.99723	-0.44853	0.886129
C	6.36542	-0.156636	-0.395397
C	7.62999	0.216655	-0.867432
N	7.59183	0.429142	-2.24741
C	6.33915	0.190408	-2.59744
N	5.54837	-0.171316	-1.50265
H	5.94319	0.25739	-3.59668
H	4.56788	-0.4025	-1.50012
