29
  This energy is -0.00246555 and Call times are: 8147
C	-0.492095	-0.818734	-0.761332
N	-1.30788	-1.49582	-1.69744
H	-2.13611	-1.02933	-2.09472
H	-1.08404	-2.45807	-1.99087
N	-0.802911	0.450664	-0.385949
C	-0.0354871	1.12309	0.511679
O	-0.333942	2.25947	0.832558
N	1.07349	0.52184	1.05491
C	1.41285	-0.746081	0.701632
H	1.66414	1.03845	1.74532
C	0.633243	-1.44542	-0.218019
H	2.28844	-1.21371	1.13394
H	0.899538	-2.45563	-0.50255
C	6.5282	0.745504	-1.0886
O	5.80168	1.29652	-1.93412
N	7.95524	0.956578	-1.1535
C	8.89426	0.419282	-0.294015
H	8.23651	1.56065	-1.9161
N	10.2069	0.726788	-0.505502
H	10.5191	1.32246	-1.25213
H	10.8831	0.330213	0.125432
N	8.57323	-0.376501	0.718521
C	7.23216	-0.608052	0.823311
C	6.20402	-0.115322	0.0100049
N	4.96541	-0.586782	0.451033
C	5.23937	-1.34279	1.50086
N	6.61044	-1.38902	1.7706
H	4.51682	-1.87289	2.09807
H	7.07665	-1.89015	2.50973
