29
  This energy is -0.000554818 and Call times are: 7302
C	-0.761378	-0.844328	-0.44668
N	-1.43924	-1.77414	-1.269
H	-1.13618	-1.92091	-2.24267
H	-2.23947	-2.31215	-0.905273
N	0.292465	-0.143433	-0.943723
C	0.960621	0.75577	-0.174416
O	1.90165	1.37176	-0.641765
N	0.574887	0.968523	1.12649
C	-0.474321	0.284815	1.65498
H	1.08835	1.65995	1.71871
C	-1.16703	-0.639872	0.875419
H	-0.772794	0.457698	2.68126
H	-2.00347	-1.18693	1.29196
C	9.07389	-0.884753	-1.15931
O	9.25611	-1.54726	-2.19575
N	7.85505	-1.08404	-0.411052
C	7.50312	-0.430647	0.754449
H	7.24076	-1.77582	-0.822953
N	6.30621	-0.745537	1.32943
H	5.67416	-1.42657	0.946731
H	6.05877	-0.263926	2.17758
N	8.27517	0.482313	1.33065
C	9.44242	0.70804	0.660108
C	9.89149	0.10354	-0.520665
N	11.1413	0.610961	-0.883084
C	11.4373	1.49678	0.0531048
N	10.4319	1.59422	1.01978
H	12.336	2.08869	0.0952767
H	10.413	2.19051	1.8315
