29
  This energy is -0.000983028 and Call times are: 10738
C	0.661671	0.769163	0.680211
N	1.38778	1.39315	1.7212
H	1.49588	0.922095	2.63105
H	1.81442	2.32089	1.58183
N	0.105708	-0.455163	0.882255
C	-0.596703	-1.07612	-0.101543
O	-1.08555	-2.17275	0.102983
N	-0.754262	-0.467753	-1.32281
C	-0.211595	0.756003	-1.55844
H	-1.29436	-0.944792	-2.07988
C	0.51081	1.40236	-0.556964
H	-0.339867	1.22956	-2.5236
H	0.944963	2.37727	-0.739924
C	8.60568	0.437656	0.774815
O	9.44063	0.945939	1.54347
N	9.05034	-0.547154	-0.183105
C	8.25305	-1.20227	-1.10197
H	10.044	-0.735672	-0.131813
N	8.84526	-2.10669	-1.93483
H	9.82761	-2.31674	-1.90984
H	8.2563	-2.57811	-2.60073
N	6.94729	-0.988357	-1.20583
C	6.47633	-0.0629906	-0.319855
C	7.19505	0.653177	0.645469
N	6.34438	1.50488	1.35393
C	5.14629	1.30768	0.830086
N	5.17227	0.358965	-0.196553
H	4.23925	1.80205	1.13447
H	4.39892	0.0313903	-0.752807
