29
  This energy is -0.000418858 and Call times are: 10118
C	0.400121	-0.799918	0.831952
N	0.758319	-1.97132	1.53889
H	0.604321	-2.89815	1.11618
H	1.17504	-1.911	2.47955
N	-0.148531	-0.898888	-0.40824
C	-0.501414	0.211145	-1.10833
O	-0.99121	0.0973329	-2.21763
N	-0.305773	1.4575	-0.565433
C	0.240311	1.59241	0.671977
H	-0.576944	2.31163	-1.10335
C	0.606074	0.461066	1.39923
H	0.391594	2.57808	1.09362
H	1.04143	0.563455	2.38533
C	7.00547	-0.577127	-1.25974
O	7.55273	-0.904108	-2.32741
N	5.86879	-1.33888	-0.798344
C	5.15311	-1.10611	0.360441
H	5.61812	-2.09952	-1.41816
N	4.10194	-1.92993	0.640975
H	3.82726	-2.69299	0.0476477
H	3.58677	-1.75191	1.48682
N	5.44439	-0.122494	1.20259
C	6.51402	0.629342	0.810526
C	7.30226	0.478237	-0.337145
N	8.30265	1.45234	-0.372959
C	8.12231	2.1707	0.722561
N	7.04204	1.70912	1.48065
H	8.71793	3.01579	1.0239
H	6.6978	2.07908	2.35211
