29
  This energy is -0.00203679 and Call times are: 746
C	1.05119	-0.551864	-0.28734
N	2.23973	-0.980361	-0.922963
H	2.50636	-0.590315	-1.83849
H	2.84885	-1.68367	-0.479728
N	0.259819	0.377025	-0.887168
C	-0.88717	0.805485	-0.297533
O	-1.57981	1.63842	-0.854178
N	-1.2633	0.299904	0.92285
C	-0.495423	-0.629876	1.55012
H	-2.14532	0.629014	1.37689
C	0.682993	-1.07675	0.95493
H	-0.798175	-1.024	2.51201
H	1.29798	-1.81728	1.45073
C	6.20177	0.66735	-1.17374
O	6.76082	1.03066	-2.22341
N	5.45134	1.63836	-0.412696
C	4.77578	1.39657	0.76812
H	5.45419	2.56189	-0.828222
N	4.11633	2.4378	1.35405
H	4.09938	3.36543	0.968098
H	3.62785	2.25172	2.21388
N	4.74376	0.203809	1.34937
C	5.44038	-0.751588	0.667452
C	6.1542	-0.611498	-0.529272
N	6.72799	-1.82983	-0.899911
C	6.37012	-2.68055	0.0471474
N	5.58229	-2.07186	1.02875
H	6.63655	-3.72322	0.0873775
H	5.18408	-2.49696	1.85066
