29
  This energy is 0.000466857 and Call times are: 9184
C	0.118512	0.88141	-0.837365
N	0.154876	1.63009	-2.0367
H	-0.0797658	1.18146	-2.93396
H	0.415088	2.62725	-2.02635
N	-0.227147	-0.433248	-0.8703
C	-0.269701	-1.17471	0.26779
O	-0.582197	-2.35062	0.213245
N	0.039039	-0.598525	1.47572
C	0.388654	0.713205	1.54446
H	0.00649569	-1.16822	2.3514
C	0.435711	1.48345	0.383799
H	0.630759	1.16071	2.50015
H	0.713656	2.52876	0.433494
C	11.4017	-0.296253	-1.38421
O	11.4752	-0.543735	-2.60063
N	12.6216	-0.210621	-0.616309
C	12.711	0.0550957	0.736672
H	13.4551	-0.367422	-1.16974
N	13.953	0.0983538	1.30063
H	14.7992	-0.052521	0.780168
H	14.0075	0.292042	2.28656
N	11.6474	0.267188	1.50176
C	10.4662	0.196637	0.821478
C	10.2674	-0.0645242	-0.539978
N	8.90441	-0.0495194	-0.84507
C	8.29858	0.213212	0.30065
N	9.20803	0.372467	1.35054
H	7.23459	0.300649	0.442235
H	9.00534	0.576741	2.31593
