29
  This energy is -0.000608543 and Call times are: 6077
C	0.681993	-0.353903	0.949604
N	1.41691	-0.413873	2.15648
H	1.49182	0.418807	2.75851
H	1.88307	-1.28643	2.4454
N	0.0735127	0.805998	0.584538
C	-0.638475	0.889886	-0.569961
O	-1.17475	1.93974	-0.875917
N	-0.752345	-0.206931	-1.38877
C	-0.156657	-1.38193	-1.05393
H	-1.2998	-0.143088	-2.27683
C	0.57608	-1.47973	0.127654
H	-0.250682	-2.24244	-1.70426
H	1.05241	-2.41358	0.398644
C	4.80856	0.643279	-1.24917
O	4.37941	0.989295	-2.36382
N	5.53855	1.60371	-0.455525
C	6.07796	1.37825	0.796423
H	5.63303	2.506	-0.905559
N	6.73978	2.40566	1.40368
H	6.8512	3.31229	0.984925
H	7.12942	2.23138	2.31492
N	5.97929	0.21349	1.42504
C	5.29639	-0.730982	0.714627
C	4.71403	-0.605397	-0.552809
N	4.10555	-1.80458	-0.93051
C	4.31546	-2.63005	0.0810529
N	5.03864	-2.023	1.11218
H	3.98295	-3.6529	0.135663
H	5.32705	-2.43202	1.98644
