29
  This energy is -0.00968885 and Call times are: 8236
C	0.424988	1.09574	0.332937
N	1.21504	2.16632	0.812449
H	2.16217	1.9878	1.17644
H	0.853958	3.13155	0.803097
N	0.918024	-0.171305	0.352999
C	0.179264	-1.21733	-0.10186
O	0.642326	-2.34346	-0.0738162
N	-1.08603	-1.00398	-0.591679
C	-1.6095	0.24997	-0.626153
H	-1.65474	-1.80803	-0.941674
C	-0.861068	1.3304	-0.162342
H	-2.60764	0.41065	-1.01364
H	-1.27376	2.33113	-0.187764
C	6.84058	1.26116	-0.672686
O	6.87222	2.32168	-1.32125
N	8.02404	0.848085	0.0442292
C	8.15158	-0.296818	0.807181
H	8.79861	1.4927	-0.0562295
N	9.34968	-0.530235	1.41741
H	10.1374	0.08864	1.33814
H	9.43272	-1.36685	1.97033
N	7.16495	-1.16993	0.967829
C	6.0211	-0.824434	0.30805
C	5.78929	0.305654	-0.485973
N	4.48441	0.291957	-0.984012
C	3.94478	-0.815656	-0.503682
N	4.8421	-1.53402	0.292241
H	2.93815	-1.15287	-0.684654
H	4.67988	-2.40497	0.771756
