29
  This energy is -0.00241188 and Call times are: 5617
C	0.690971	0.862135	0.520953
N	1.62542	1.57092	1.31133
H	2.21605	1.0683	1.98952
H	1.72524	2.59242	1.21808
N	0.57313	-0.485577	0.657616
C	-0.316933	-1.18992	-0.0897284
O	-0.404465	-2.39661	0.0503841
N	-1.11511	-0.541702	-1.0003
C	-1.02307	0.804738	-1.16223
H	-1.79985	-1.08282	-1.57541
C	-0.113851	1.53746	-0.401275
H	-1.65548	1.30903	-1.88194
H	-0.0368961	2.61019	-0.526692
C	6.97392	-1.10947	0.888942
O	6.91977	-2.10314	1.63461
N	5.75808	-0.382716	0.608295
C	5.64928	0.73596	-0.195378
H	4.9438	-0.771673	1.06789
N	4.41472	1.29663	-0.349777
H	3.58737	0.935786	0.0918513
H	4.3458	2.11059	-0.937359
N	6.68751	1.28084	-0.817265
C	7.86378	0.628899	-0.583918
C	8.08072	-0.505222	0.208555
N	9.43075	-0.862904	0.18827
C	10.0114	0.0306649	-0.594777
N	9.09769	0.964642	-1.09239
H	11.0595	0.0632723	-0.840124
H	9.2831	1.74179	-1.70596
