29
  This energy is -0.00440708 and Call times are: 8500
C	0.509624	-0.0770321	1.10746
N	0.755212	-0.258269	2.48843
H	-0.0120718	-0.533038	3.11866
H	1.69926	-0.11822	2.87739
N	-0.74243	-0.2663	0.612048
C	-1.00472	-0.098594	-0.710794
O	-2.13426	-0.273853	-1.13129
N	0.0020415	0.267546	-1.57033
C	1.26507	0.464904	-1.10838
H	-0.199007	0.396684	-2.58784
C	1.54583	0.29582	0.246312
H	2.05372	0.75344	-1.79177
H	2.55039	0.451895	0.619017
C	8.07676	-0.313573	1.36015
O	7.52378	-0.656173	2.41995
N	9.39871	0.264411	1.42001
C	10.1453	0.694385	0.339791
H	9.76193	0.336722	2.36256
N	11.3818	1.21799	0.583007
H	11.7714	1.30376	1.50532
H	11.9175	1.52874	-0.210115
N	9.71142	0.619523	-0.912284
C	8.46296	0.0790266	-1.02308
C	7.62813	-0.384856	0.00121478
N	6.42821	-0.865411	-0.528109
C	6.53669	-0.69575	-1.83508
N	7.76136	-0.122067	-2.18976
H	5.79013	-0.957162	-2.56587
H	8.08926	0.108762	-3.11388
