29
  This energy is -0.00305847 and Call times are: 10184
C	-0.547142	-0.55671	-0.939584
N	-1.06535	-0.900702	-2.20978
H	-0.931859	-0.267824	-3.01169
H	-1.57941	-1.78342	-2.34642
N	0.128541	0.612165	-0.778108
C	0.636306	0.965961	0.431781
O	1.23794	2.0181	0.551946
N	0.470889	0.13849	1.51545
C	-0.19936	-1.03725	1.38903
H	0.861171	0.409995	2.44626
C	-0.724471	-1.41049	0.153086
H	-0.32592	-1.68455	2.24765
H	-1.25915	-2.34609	0.0474325
C	5.19847	-1.23826	0.770827
O	5.07189	-2.37672	1.2548
N	5.95066	-0.248977	1.50616
C	6.18236	1.05388	1.1086
H	6.31813	-0.596018	2.38372
N	6.9182	1.8544	1.93324
H	7.29695	1.54135	2.80977
H	7.08097	2.80159	1.63511
N	5.72166	1.55257	-0.0318464
C	5.00169	0.654715	-0.765728
C	4.71089	-0.679572	-0.455215
N	3.94582	-1.2603	-1.4693
C	3.77996	-0.302648	-2.36602
N	4.40564	0.887858	-1.98399
H	3.23421	-0.395647	-3.28974
H	4.42933	1.76056	-2.48663
