29
  This energy is -0.00322179 and Call times are: 1722
C	-0.322717	0.991056	-0.637002
N	-0.58726	2.31229	-1.06667
H	-0.39707	3.10786	-0.440328
H	-0.971116	2.49279	-2.00593
N	0.183791	0.772036	0.605725
C	0.446753	-0.487657	1.04259
O	0.900311	-0.658918	2.15989
N	0.201335	-1.56401	0.225498
C	-0.30475	-1.38071	-1.02265
H	0.403366	-2.5331	0.560877
C	-0.578347	-0.0933528	-1.48141
H	-0.495709	-2.23391	-1.66126
H	-0.981551	0.0577028	-2.47489
C	5.4484	1.11129	0.415611
O	6.17874	2.10919	0.546454
N	5.07046	0.366066	1.59332
C	4.26936	-0.759453	1.61821
H	5.45488	0.747418	2.4491
N	4.01482	-1.33839	2.82749
H	4.38039	-0.985405	3.69439
H	3.43085	-2.15782	2.83504
N	3.74349	-1.29462	0.523397
C	4.07197	-0.625402	-0.619981
C	4.8708	0.517137	-0.75333
N	4.96326	0.893186	-2.09533
C	4.2404	0.00200707	-2.75261
N	3.674	-0.947878	-1.89725
H	4.08631	-0.0181629	-3.81826
H	3.08506	-1.72679	-2.14475
