29
  This energy is 0.00562511 and Call times are: 6902
C	-1.18841	0.281599	-0.0224553
N	-2.43257	0.953222	-0.0575353
H	-2.46416	1.98249	-0.0894616
H	-3.31647	0.4233	-0.051566
N	-0.0323287	0.997354	-0.0310063
C	1.17595	0.376224	0.00211101
O	2.19795	1.03867	-0.00637322
N	1.24323	-0.994925	0.045001
C	0.106977	-1.74087	0.0547095
H	2.17219	-1.47326	0.0704761
C	-1.13781	-1.11477	0.0210206
H	0.167664	-2.82133	0.0886031
H	-2.04573	-1.70472	0.0285964
C	7.24732	0.420218	-0.857305
O	6.33095	0.981007	-1.4835
N	7.54152	-0.96391	-1.1451
C	8.52232	-1.72695	-0.540966
H	6.94532	-1.35949	-1.86178
N	8.66044	-3.02502	-0.938782
H	8.0858	-3.44777	-1.64647
H	9.37712	-3.57254	-0.492522
N	9.32684	-1.25216	0.401838
C	9.08854	0.0557356	0.711177
C	8.12615	0.912116	0.161882
N	8.20647	2.17649	0.749955
C	9.18981	2.08472	1.62936
N	9.76223	0.809255	1.64507
H	9.53324	2.87796	2.2717
H	10.5217	0.481565	2.22001
