29
  This energy is -0.00350124 and Call times are: 2072
C	1.20635	-0.106702	-0.159489
N	2.57975	-0.416636	-0.0254139
H	2.9113	-0.956953	0.78671
H	3.26029	-0.107073	-0.734759
N	0.322892	-0.523546	0.78636
C	-1.00177	-0.238919	0.681017
O	-1.77407	-0.623055	1.54089
N	-1.46727	0.480047	-0.392674
C	-0.611405	0.912081	-1.35623
H	-2.48594	0.699284	-0.474301
C	0.749232	0.626119	-1.25873
H	-0.985472	1.47836	-2.19981
H	1.4349	0.968131	-2.02377
C	6.06355	0.261299	0.937448
O	5.11767	0.255826	1.74468
N	6.61176	1.52903	0.516116
C	7.65721	1.70607	-0.369808
H	6.15084	2.32525	0.939383
N	8.04619	2.98259	-0.655335
H	7.61037	3.79367	-0.25289
H	8.80801	3.10104	-1.30198
N	8.29119	0.693841	-0.948613
C	7.80918	-0.529567	-0.582541
C	6.76151	-0.816382	0.301442
N	6.57767	-2.19691	0.407665
C	7.48906	-2.72744	-0.390221
N	8.26779	-1.75137	-1.01919
H	7.63975	-3.7805	-0.557867
H	9.0239	-1.89112	-1.67002
