29
  This energy is -0.000857562 and Call times are: 10628
C	0.446768	-0.74765	-0.856462
N	0.611595	-1.72438	-1.86597
H	-0.197892	-2.27033	-2.19472
H	1.53823	-1.89978	-2.28156
N	-0.783421	-0.529863	-0.319716
C	-0.968508	0.402662	0.65135
O	-2.0799	0.579911	1.11694
N	0.0955937	1.14269	1.10573
C	1.33882	0.950502	0.590902
H	-0.0460754	1.86006	1.85254
C	1.54059	-0.00309584	-0.405366
H	2.17299	1.53753	0.953938
H	2.52909	-0.159811	-0.818558
C	7.61979	-1.4257	-0.279077
O	7.5714	-2.58362	-0.729867
N	7.29392	-1.20546	1.11034
C	7.29955	0.0133937	1.76114
H	7.04709	-2.05491	1.60338
N	6.9625	0.0355707	3.08335
H	6.71288	-0.788446	3.60146
H	6.96908	0.928001	3.54817
N	7.61606	1.15198	1.15698
C	7.93277	0.997383	-0.16168
C	7.95788	-0.185202	-0.911459
N	8.33462	0.0815182	-2.22974
C	8.53096	1.38853	-2.27338
N	8.29879	1.99553	-1.03549
H	8.83346	1.94896	-3.14181
H	8.37764	2.9727	-0.803707
