29
  This energy is 0.000819238 and Call times are: 4762
C	0.321009	1.05916	0.516961
N	0.939156	2.28962	0.839628
H	1.71261	2.64751	0.260756
H	0.624411	2.83879	1.65294
N	0.749602	0.348221	-0.559965
C	0.172585	-0.836706	-0.89137
O	0.573695	-1.4556	-1.86063
N	-0.860077	-1.33404	-0.134611
C	-1.31311	-0.649001	0.948476
H	-1.30431	-2.2453	-0.388954
C	-0.728984	0.56727	1.2979
H	-2.12755	-1.04715	1.54041
H	-1.08641	1.11662	2.1598
C	9.66211	0.435535	-1.36714
O	10.0348	0.632876	-2.53698
N	8.66266	1.30885	-0.798271
C	8.14484	1.2243	0.479961
H	8.34911	2.02883	-1.43772
N	7.20227	2.13857	0.851448
H	6.8697	2.86478	0.241714
H	6.83174	2.06894	1.7844
N	8.52461	0.298675	1.35207
C	9.47089	-0.55401	0.861606
C	10.0575	-0.554784	-0.410076
N	10.9846	-1.5939	-0.518455
C	10.9576	-2.20242	0.655302
N	10.0489	-1.60599	1.53467
H	11.5513	-3.05695	0.932869
H	9.8404	-1.87623	2.48246
