29
  This energy is -0.00341356 and Call times are: 4167
C	1.19779	-0.114887	-0.210282
N	2.51607	0.0138311	-0.70609
H	2.72223	0.685937	-1.45921
H	3.2808	-0.560166	-0.32158
N	0.201451	0.650865	-0.729736
C	-1.07349	0.54642	-0.270999
O	-1.94921	1.243	-0.751926
N	-1.37254	-0.342596	0.732316
C	-0.400533	-1.12327	1.27392
H	-2.35289	-0.423411	1.08559
C	0.910575	-1.0248	0.811421
H	-0.643601	-1.82188	2.06456
H	1.68829	-1.64457	1.23973
C	6.23914	-0.217368	-1.11829
O	5.59376	-0.585509	-2.11543
N	5.81339	0.96821	-0.412361
C	6.41856	1.50657	0.707058
H	4.99321	1.40271	-0.817438
N	5.87837	2.6379	1.24614
H	5.06597	3.09345	0.869004
H	6.32658	3.0225	2.06084
N	7.49396	0.972504	1.27261
C	7.9374	-0.153303	0.640949
C	7.39997	-0.777031	-0.491942
N	8.14695	-1.90918	-0.825384
C	9.10798	-1.96618	0.0812044
N	9.02493	-0.916065	1.00049
H	9.87761	-2.71765	0.1334
H	9.63218	-0.732443	1.78301
