29
  This energy is 0.000963963 and Call times are: 6351
C	-0.505946	1.03053	-0.417293
N	-0.885007	2.1475	-1.19765
H	-0.489974	2.27817	-2.14014
H	-1.55689	2.83924	-0.834059
N	0.38185	0.128051	-0.913518
C	0.762419	-0.953546	-0.184035
O	1.55912	-1.74837	-0.649788
N	0.24934	-1.14885	1.07494
C	-0.640205	-0.266133	1.60136
H	0.541611	-1.9805	1.63651
C	-1.03779	0.846751	0.862425
H	-1.04051	-0.426492	2.59448
H	-1.74613	1.5527	1.2775
C	8.83412	-0.627131	-0.0512818
O	7.79538	-1.30035	0.0675985
N	8.85752	0.453416	-1.00892
C	9.92737	1.29085	-1.26049
H	7.98538	0.561576	-1.51215
N	9.77182	2.26331	-2.20519
H	8.92046	2.39737	-2.72189
H	10.5568	2.86768	-2.38148
N	11.0888	1.18742	-0.626406
C	11.1182	0.177925	0.29181
C	10.096	-0.720988	0.620914
N	10.5253	-1.60492	1.61356
C	11.7716	-1.24881	1.87537
N	12.1823	-0.164171	1.0946
H	12.4196	-1.71698	2.59698
H	13.0788	0.295266	1.10072
