29
  This energy is 0.000205652 and Call times are: 4784
C	-0.649106	0.213234	1.01257
N	-1.11629	0.286214	2.34549
H	-0.557675	-0.115616	3.11223
H	-2.01578	0.739676	2.56327
N	0.540149	-0.388854	0.744146
C	1.0114	-0.472142	-0.527789
O	2.07947	-1.01624	-0.74358
N	0.28433	0.0561969	-1.56637
C	-0.908463	0.664893	-1.33329
H	0.646201	-0.00751324	-2.54485
C	-1.40173	0.756196	-0.032922
H	-1.47618	1.07912	-2.15691
H	-2.35139	1.24014	0.157735
C	11.134	-0.270464	1.38089
O	11.3727	-0.294085	2.60106
N	11.5159	-1.40606	0.574799
C	11.3224	-1.53536	-0.787192
H	11.9606	-2.14382	1.10729
N	11.7487	-2.6836	-1.38898
H	12.1931	-3.43412	-0.889965
H	11.6038	-2.76798	-2.38115
N	10.7447	-0.596103	-1.52586
C	10.3644	0.501346	-0.808892
C	10.5132	0.730273	0.564706
N	9.99204	1.97937	0.909809
C	9.54184	2.48922	-0.224254
N	9.7451	1.62572	-1.30489
H	9.07039	3.45094	-0.336416
H	9.49515	1.77567	-2.26917
