29
  This energy is -0.0110689 and Call times are: 8390
C	-0.719064	0.610438	-0.776158
N	-1.81087	1.09392	-1.53409
H	-2.74924	0.688193	-1.40656
H	-1.68051	1.85328	-2.21857
N	-0.909957	-0.392062	0.122421
C	0.12236	-0.874454	0.862995
O	-0.0731152	-1.77295	1.66168
N	1.38231	-0.349414	0.710393
C	1.60813	0.653428	-0.178935
H	2.17669	-0.71996	1.27966
C	0.557038	1.15609	-0.943889
H	2.60397	1.06246	-0.293917
H	0.731992	1.95489	-1.65362
C	6.13972	0.681958	0.801078
O	5.13848	1.21718	1.30843
N	7.38175	0.689982	1.5376
C	8.57787	0.14145	1.11619
H	7.31156	1.15164	2.43622
N	9.65675	0.24218	1.94576
H	9.62078	0.693324	2.84294
H	10.5233	-0.159933	1.62966
N	8.71759	-0.472807	-0.0520278
C	7.56889	-0.507092	-0.788485
C	6.31284	0.0150043	-0.455208
N	5.39631	-0.228144	-1.48077
C	6.08091	-0.878557	-2.40652
N	7.41372	-1.07465	-2.03251
H	5.68908	-1.22895	-3.34644
H	8.13883	-1.53868	-2.55568
