29
  This energy is -0.000222661 and Call times are: 5382
C	-0.410148	1.08276	0.389259
N	-0.531298	2.38014	0.939156
H	0.293645	2.85311	1.33561
H	-1.44117	2.86404	0.949287
N	0.798445	0.459724	0.384527
C	0.941555	-0.786704	-0.137744
O	2.03428	-1.32457	-0.130718
N	-0.143829	-1.43718	-0.671825
C	-1.36643	-0.843289	-0.683217
H	-0.0344443	-2.39581	-1.07367
C	-1.52516	0.434795	-0.150376
H	-2.21758	-1.36206	-1.10589
H	-2.49709	0.911991	-0.157169
C	10.2417	0.789815	1.1001
O	10.6483	1.64351	1.90772
N	10.3601	-0.607276	1.44552
C	9.95858	-1.67285	0.662878
H	10.7816	-0.761086	2.3534
N	10.1483	-2.93336	1.15017
H	10.5631	-3.12029	2.04612
H	9.8531	-3.70261	0.572544
N	9.40186	-1.52033	-0.532265
C	9.26752	-0.214511	-0.906236
C	9.63915	0.931475	-0.192152
N	9.33197	2.08173	-0.922548
C	8.79041	1.64132	-2.0457
N	8.72773	0.245178	-2.08569
H	8.43073	2.25722	-2.85258
H	8.3625	-0.334513	-2.82418
