29
  This energy is -6.4545e-05 and Call times are: 9735
C	0.351348	0.427725	1.08891
N	1.09092	0.922993	2.18799
H	2.10831	1.06305	2.10601
H	0.622819	1.148	3.07815
N	0.98594	0.136329	-0.0778301
C	0.298399	-0.340736	-1.14859
O	0.888693	-0.594584	-2.18324
N	-1.05847	-0.535695	-1.0631
C	-1.72407	-0.254646	0.0882359
H	-1.58786	-0.902568	-1.88626
C	-1.02937	0.235089	1.19285
H	-2.79376	-0.410811	0.148377
H	-1.5552	0.460424	2.11216
C	9.67666	-0.907882	-0.49918
O	10.3894	-1.84238	-0.905418
N	10.2461	0.4165	-0.415898
C	9.59118	1.55522	0.0125327
H	11.2142	0.45547	-0.710462
N	10.2881	2.72845	0.02667
H	11.2487	2.8013	-0.258937
H	9.80252	3.55192	0.340773
N	8.32404	1.55286	0.407404
C	7.73879	0.321208	0.347618
C	8.31015	-0.887719	-0.0687439
N	7.37687	-1.92327	0.0182162
C	6.27372	-1.35438	0.474457
N	6.44178	0.0164257	0.692123
H	5.34123	-1.8578	0.666246
H	5.76	0.674309	1.03442
