29
  This energy is 0.000546218 and Call times are: 6792
C	-1.12901	-0.444419	0.141216
N	-2.4708	-0.666806	0.529035
H	-2.93413	-0.0200208	1.18356
H	-2.99696	-1.47391	0.163167
N	-0.450447	0.62585	0.634138
C	0.839439	0.861877	0.277328
O	1.42671	1.82717	0.731988
N	1.47811	0.013496	-0.593746
C	0.829192	-1.06579	-1.10526
H	2.47015	0.194459	-0.868584
C	-0.493812	-1.31785	-0.746452
H	1.33898	-1.73028	-1.79141
H	-1.01491	-2.17632	-1.15128
C	6.6507	-0.580015	1.31461
O	6.98916	-0.885611	2.4715
N	5.80288	-1.48543	0.575276
C	5.34067	-1.29404	-0.712707
H	5.55589	-2.31816	1.09599
N	4.54502	-2.25929	-1.25821
H	4.28145	-3.09649	-0.768941
H	4.21396	-2.11091	-2.19679
N	5.63749	-0.219611	-1.43316
C	6.43915	0.669516	-0.777518
C	6.95862	0.571405	0.519335
N	7.73524	1.69292	0.819339
C	7.68539	2.446	-0.266536
N	6.90613	1.86586	-1.27198
H	8.1747	3.39687	-0.393714
H	6.70995	2.23348	-2.18914
