29
  This energy is -0.00301837 and Call times are: 5404
C	-0.468088	0.411189	1.05068
N	-0.837024	1.19833	2.16627
H	-0.521003	2.1764	2.23656
H	-1.42285	0.804345	2.91708
N	0.305371	0.947959	0.0695923
C	0.673671	0.212975	-1.01253
O	1.36696	0.715607	-1.87861
N	0.264583	-1.09305	-1.12817
C	-0.50926	-1.6608	-0.165665
H	0.547482	-1.65887	-1.96018
C	-0.89312	-0.916677	0.94858
H	-0.82801	-2.69088	-0.263492
H	-1.50949	-1.36457	1.71792
C	8.26213	-0.85552	1.16213
O	8.24105	-1.67693	2.0955
N	9.39059	0.0380311	1.04661
C	9.56482	1.00237	0.0725108
H	10.0857	-0.0989707	1.77023
N	10.6981	1.76126	0.117346
H	11.4068	1.65086	0.821161
H	10.8155	2.46112	-0.596065
N	8.68208	1.21789	-0.894893
C	7.59374	0.396683	-0.829932
C	7.32264	-0.606005	0.109445
N	6.10091	-1.22114	-0.173233
C	5.64812	-0.606225	-1.25286
N	6.52304	0.390905	-1.69443
H	4.72106	-0.823058	-1.75615
H	6.41258	1.00016	-2.48905
