29
  This energy is 5.9523e-05 and Call times are: 5826
C	0.332422	0.699831	-0.944373
N	0.822044	1.7403	-1.76775
H	1.21481	2.59358	-1.34459
H	0.791472	1.65684	-2.79451
N	0.380965	0.82748	0.40849
C	-0.0828431	-0.157555	1.22177
O	-0.0287579	-0.0204563	2.43076
N	-0.610941	-1.30419	0.6807
C	-0.674608	-1.46434	-0.667592
H	-0.967819	-2.06217	1.30563
C	-0.201978	-0.460813	-1.5115
H	-1.09222	-2.37091	-1.08706
H	-0.250564	-0.583791	-2.58617
C	5.82085	-1.18242	0.367615
O	6.44314	-2.12022	0.896404
N	5.7258	-1.1345	-1.07248
C	5.07393	-0.164985	-1.81022
H	6.19669	-1.90506	-1.53082
N	5.08581	-0.278339	-3.17012
H	5.54326	-1.02983	-3.65567
H	4.60878	0.432903	-3.69845
N	4.44356	0.862085	-1.25405
C	4.5044	0.862926	0.109536
C	5.13463	-0.0659558	0.946974
N	4.9658	0.292348	2.2864
C	4.25376	1.4063	2.2571
N	3.94556	1.79772	0.950761
H	3.93334	1.96901	3.11759
H	3.41792	2.60408	0.657191
