29
  This energy is -0.025479 and Call times are: 5170
C	0.0364076	-1.12826	-0.466704
N	0.415691	-2.32677	-1.11476
H	1.34178	-2.40368	-1.55958
H	-0.226647	-3.13198	-1.14898
N	0.897069	-0.0761624	-0.431495
C	0.556901	1.08635	0.184694
O	1.34465	2.01507	0.203263
N	-0.672179	1.21248	0.784587
C	-1.55653	0.180377	0.767949
H	-0.934422	2.1063	1.25868
C	-1.21858	-1.01662	0.138981
H	-2.52363	0.286972	1.2429
H	-1.91969	-1.8416	0.123099
C	4.56127	0.0838395	-1.02079
O	4.05896	-0.119696	-1.97902
N	3.99486	0.866134	-0.076148
C	4.58828	1.0673	1.12508
H	3.08908	1.26886	-0.260868
N	3.89993	1.77034	2.13969
H	3.31413	2.57029	1.71206
H	4.60923	2.18276	2.84257
N	5.79987	0.546305	1.41827
C	6.40764	-0.212679	0.490923
C	5.79959	-0.477919	-0.725641
N	6.58579	-1.3349	-1.40362
C	7.66575	-1.61243	-0.643677
N	7.54588	-0.926782	0.511369
H	8.49133	-2.25744	-0.92348
H	8.20378	-0.947345	1.27502
