29
  This energy is -0.00483959 and Call times are: 309
C	-0.0323428	0.93605	-0.784135
N	-0.413551	2.05544	-1.55997
H	-1.35632	2.45832	-1.45856
H	0.243959	2.47811	-2.23165
N	-0.913191	0.391628	0.09711
C	-0.571666	-0.683955	0.854287
O	-1.37774	-1.15425	1.6369
N	0.679414	-1.23834	0.736493
C	1.5843	-0.718965	-0.134724
H	0.942717	-2.06557	1.31855
C	1.24518	0.384002	-0.916427
H	2.56867	-1.16119	-0.222267
H	1.9626	0.801273	-1.61185
C	7.62797	0.0595843	0.167038
O	8.60378	0.336213	0.59507
N	7.52028	-0.865453	-0.811667
C	6.31352	-1.24652	-1.2955
H	8.35915	-1.30942	-1.15217
N	6.23116	-2.31862	-2.21274
H	7.07651	-2.30491	-2.88441
H	5.31831	-2.23903	-2.7851
N	5.16302	-0.681694	-0.86812
C	5.23352	0.264258	0.0835203
C	6.45013	0.635238	0.633353
N	6.20687	1.51825	1.61992
C	4.87326	1.70704	1.70156
N	4.28808	0.934846	0.763529
H	4.36673	2.37667	2.38781
H	3.29598	0.865914	0.597958
