29
  This energy is -0.0283989 and Call times are: 6389
C	0.227318	-1.0164	-0.638253
N	0.79759	-2.00855	-1.46934
H	1.70466	-1.84045	-1.92801
H	0.314674	-2.90569	-1.62443
N	0.878936	0.161309	-0.445165
C	0.352556	1.13078	0.34849
O	0.954803	2.17758	0.506359
N	-0.85539	0.92957	0.970421
C	-1.53328	-0.236048	0.798996
H	-1.26078	1.67478	1.58096
C	-1.00317	-1.23744	-0.0126712
H	-2.485	-0.387687	1.2924
H	-1.53945	-2.16766	-0.152292
C	4.26136	0.0838479	-1.02087
O	3.75906	-0.119777	-1.97908
N	3.69509	0.866503	-0.0764421
C	4.28848	1.06779	1.12478
H	2.78943	1.26942	-0.261312
N	3.60025	1.77123	2.13919
H	3.01468	2.57124	1.71134
H	4.3096	2.18364	2.84201
N	5.49992	0.546551	1.41816
C	6.10755	-0.2128	0.49103
C	5.49952	-0.478161	-0.725513
N	6.28554	-1.3355	-1.40325
C	7.36537	-1.61314	-0.643171
N	7.24561	-0.92719	0.511711
H	8.19081	-2.25842	-0.922774
H	7.90346	-0.947748	1.27541
