29
  This energy is -0.0143732 and Call times are: 1142
C	0.00385635	1.0182	0.674798
N	0.3004	2.27846	1.24408
H	1.09372	2.8323	0.890067
H	-0.270698	2.65458	2.01512
N	0.768375	0.537957	-0.341941
C	0.504544	-0.6699	-0.906131
O	1.20345	-1.07914	-1.81578
N	-0.547685	-1.42625	-0.450968
C	-1.33206	-0.97613	0.563797
H	-0.751142	-2.35529	-0.884457
C	-1.07096	0.261099	1.15005
H	-2.15981	-1.57777	0.917445
H	-1.69297	0.623918	1.95868
C	4.66263	0.0937206	1.20375
O	4.42837	-0.0426724	2.27073
N	3.92592	0.906231	0.414922
C	4.25146	1.11783	-0.883085
H	3.1445	1.39692	0.821568
N	3.54641	2.08436	-1.63557
H	2.50332	2.09088	-1.35653
H	3.63343	1.86045	-2.68891
N	5.29062	0.48473	-1.47016
C	6.02818	-0.354764	-0.724057
C	5.74953	-0.549115	0.619328
N	6.70128	-1.35411	1.12762
C	7.56593	-1.6658	0.139653
N	7.14943	-1.04823	-0.98452
H	8.43023	-2.31413	0.232197
H	7.60753	-1.09423	-1.88144
