29
  This energy is -0.0221861 and Call times are: 3830
C	-0.45067	0.233884	1.11099
N	-0.836136	0.841657	2.32849
H	-0.613906	1.83196	2.50547
H	-1.3408	0.303522	3.04811
N	0.214546	0.959558	0.173031
C	0.596026	0.399288	-1.00485
O	1.19089	1.06941	-1.82976
N	0.310965	-0.919183	-1.26329
C	-0.352573	-1.67331	-0.347546
H	0.604074	-1.35069	-2.16901
C	-0.748735	-1.10941	0.863928
H	-0.573867	-2.71202	-0.558108
H	-1.27754	-1.70611	1.59655
C	4.11678	0.753435	0.70121
O	3.62507	1.25926	1.54637
N	3.68782	0.917479	-0.569318
C	4.33061	0.340745	-1.61324
H	2.89777	1.52057	-0.739141
N	3.94222	0.651997	-2.93604
H	2.87134	0.777798	-2.994
H	4.24539	-0.143351	-3.60141
N	5.39442	-0.472706	-1.4345
C	5.83093	-0.683598	-0.181346
C	5.22485	-0.0643607	0.900002
N	5.92774	-0.377978	2.00444
C	6.95542	-1.17382	1.64202
N	6.89038	-1.35091	0.306723
H	7.68988	-1.60819	2.3112
H	7.53642	-1.89526	-0.243501
