29
  This energy is -0.00823032 and Call times are: 371
C	-0.844535	-0.6227	-0.625388
N	-1.69346	-1.14098	-1.63086
H	-1.62037	-0.795108	-2.59856
H	-2.39072	-1.86637	-1.4078
N	0.0695845	0.334063	-0.938233
C	0.896928	0.848433	0.00927077
O	1.70782	1.70477	-0.294941
N	0.817995	0.403045	1.30612
C	-0.0844229	-0.55237	1.65313
H	1.45402	0.798228	2.03533
C	-0.938051	-1.08717	0.689845
H	-0.141001	-0.898662	2.67738
H	-1.65856	-1.84843	0.961434
C	4.20538	-0.188121	1.26423
O	3.62989	-0.650963	2.08063
N	5.01531	0.871318	1.48049
C	5.76712	1.40191	0.486094
H	5.0896	1.24051	2.41586
N	6.70946	2.41312	0.781017
H	6.3281	3.0707	1.5479
H	6.91914	2.98677	-0.110145
N	5.70255	0.938996	-0.781533
C	4.88447	-0.0949367	-1.04065
C	4.14422	-0.690457	-0.0319425
N	3.50234	-1.74975	-0.559266
C	3.82259	-1.83223	-1.8675
N	4.66921	-0.821415	-2.15053
H	3.44819	-2.57006	-2.56846
H	5.08143	-0.638503	-3.05222
