29
  This energy is -0.00645284 and Call times are: 5126
C	0.32358	-0.617163	-1.00325
N	0.866102	-1.01271	-2.24803
H	1.42718	-0.349601	-2.80201
H	0.706988	-1.96342	-2.61265
N	0.543975	0.641358	-0.538026
C	0.0339277	1.04619	0.654787
O	0.244834	2.17851	1.05074
N	-0.71721	0.179907	1.41094
C	-0.956791	-1.08527	0.975606
H	-1.10977	0.49063	2.32843
C	-0.438801	-1.5115	-0.24612
H	-1.54979	-1.7627	1.57699
H	-0.626934	-2.51839	-0.597131
C	6.41459	0.193422	-1.02781
O	6.9355	0.680474	-1.86647
N	6.87503	-0.950703	-0.476329
C	6.26519	-1.51617	0.59321
H	7.7178	-1.36162	-0.847313
N	6.8574	-2.62891	1.23243
H	7.32876	-3.27347	0.50557
H	6.10224	-3.1859	1.76789
N	5.1357	-1.00018	1.12552
C	4.63122	0.121092	0.583608
C	5.26408	0.749363	-0.476986
N	4.597	1.88829	-0.741634
C	3.56732	1.98845	0.124722
N	3.59914	0.908315	0.931517
H	2.83451	2.7873	0.151721
H	2.95324	0.719488	1.68224
