29
  This energy is 0.00145169 and Call times are: 6050
C	0.475051	1.12503	-0.0272305
N	1.31148	2.25806	0.102802
H	2.24357	2.16649	0.532036
H	0.999477	3.18271	-0.228563
N	0.903528	-0.0870478	0.415668
C	0.119233	-1.19109	0.302482
O	0.524752	-2.26614	0.706503
N	-1.12718	-1.09367	-0.266177
C	-1.58653	0.10267	-0.719344
H	-1.73088	-1.94241	-0.353535
C	-0.790958	1.2417	-0.608541
H	-2.57013	0.171954	-1.1665
H	-1.1525	2.19692	-0.968076
C	9.26785	-0.880444	-0.121613
O	10.2056	-1.40372	0.120747
N	8.49101	-1.26253	-1.15877
C	7.30866	-0.654332	-1.41899
H	8.78408	-2.04795	-1.71911
N	6.45643	-1.1743	-2.41941
H	7.03615	-1.55332	-3.2478
H	5.79323	-0.397983	-2.77258
N	6.87405	0.399757	-0.694191
C	7.63544	0.827254	0.327055
C	8.82339	0.190188	0.648024
N	9.31412	0.765313	1.76185
C	8.46513	1.74167	2.145
N	7.44251	1.76882	1.2663
H	8.59528	2.39901	2.99757
H	6.65268	2.3941	1.30679
