29
  This energy is -0.001759 and Call times are: 1757
C	-0.54776	-0.960028	-0.520008
N	-1.27605	-1.81903	-1.37557
H	-1.71047	-1.44843	-2.23309
H	-1.37964	-2.8197	-1.15182
N	-0.421542	0.357546	-0.831375
C	0.272946	1.20383	-0.0261931
O	0.372335	2.38012	-0.325981
N	0.860779	0.732822	1.12229
C	0.75417	-0.578619	1.46338
H	1.39506	1.38317	1.74199
C	0.0443692	-1.45582	0.645276
H	1.22016	-0.942867	2.37024
H	-0.0433296	-2.50137	0.912781
C	4.98475	0.925124	0.640142
O	4.68797	1.83015	1.19221
N	4.06799	0.076926	0.125103
C	4.43521	-1.00435	-0.603983
H	3.08987	0.285802	0.253136
N	3.44886	-1.78519	-1.24812
H	2.56225	-1.85172	-0.635368
H	3.83258	-2.77844	-1.43094
N	5.73295	-1.32255	-0.803881
C	6.67341	-0.518192	-0.280487
C	6.32577	0.622991	0.424459
N	7.45949	1.27733	0.738639
C	8.50367	0.577233	0.248342
N	8.01393	-0.51368	-0.375095
H	9.55071	0.838258	0.355588
H	8.56446	-1.21644	-0.843576
