29
  This energy is -0.00471278 and Call times are: 1987
C	0.511005	-0.635836	0.909225
N	0.784324	-1.55974	1.94458
H	0.088329	-2.27685	2.19511
H	1.67784	-1.52598	2.45704
N	-0.673365	-0.695548	0.243955
C	-0.96041	0.180382	-0.754638
O	-2.02805	0.107234	-1.33619
N	-0.0482468	1.14512	-1.10629
C	1.1453	1.23291	-0.461836
H	-0.268389	1.8191	-1.87423
C	1.4506	0.339977	0.563869
H	1.85951	1.99598	-0.744404
H	2.40006	0.405938	1.08018
C	5.40834	0.423573	0.668927
O	4.6816	0.558632	1.48473
N	5.28571	1.08068	-0.505097
C	6.21307	0.957655	-1.48511
H	4.50698	1.70922	-0.628672
N	6.1284	1.77024	-2.63839
H	5.09634	1.91885	-2.91898
H	6.65685	1.29997	-3.45496
N	7.27382	0.129785	-1.36349
C	7.41236	-0.563546	-0.2209
C	6.5074	-0.416633	0.81812
N	6.94881	-1.14803	1.85851
C	8.1038	-1.74541	1.49799
N	8.38038	-1.37946	0.229837
H	8.69227	-2.41591	2.11446
H	9.18852	-1.66798	-0.299407
