29
  This energy is -0.00744867 and Call times are: 2227
C	-1.02599	-0.167869	0.641307
N	-2.27248	-0.00908002	1.29039
H	-2.7671	0.893625	1.24696
H	-2.69739	-0.790359	1.81114
N	-0.480615	0.874091	-0.0411669
C	0.715686	0.747512	-0.673367
O	1.18422	1.695	-1.27846
N	1.39366	-0.446153	-0.629413
C	0.877067	-1.50794	0.0438751
H	2.31378	-0.544171	-1.11543
C	-0.349058	-1.38979	0.695992
H	1.4171	-2.44584	0.0742658
H	-0.764643	-2.23279	1.23363
C	6.91575	-0.929636	-0.894453
O	7.51261	-1.7722	-1.27626
N	5.97449	-0.326903	-1.65333
C	5.20113	0.670843	-1.1614
H	5.82043	-0.663848	-2.59114
N	4.13151	1.17676	-1.93437
H	4.40031	1.19865	-2.97994
H	3.88666	2.17683	-1.60706
N	5.3695	1.15323	0.0893141
C	6.31733	0.598276	0.863295
C	7.08664	-0.4586	0.403644
N	7.87291	-0.86975	1.41603
C	7.61451	-0.100189	2.49392
N	6.66155	0.789178	2.14821
H	8.1026	-0.173806	3.45946
H	6.26414	1.48737	2.75733
