29
  This energy is 0.00177633 and Call times are: 5676
C	0.554034	1.05927	-0.251174
N	1.04925	2.3836	-0.216554
H	0.833946	2.99569	0.583693
H	1.62777	2.74891	-0.987261
N	-0.207692	0.594408	0.774767
C	-0.695632	-0.673925	0.765719
O	-1.3757	-1.06791	1.69614
N	-0.421957	-1.50837	-0.290323
C	0.336262	-1.07574	-1.33221
H	-0.796921	-2.48396	-0.297896
C	0.842044	0.223022	-1.33379
H	0.547924	-1.73908	-2.16131
H	1.44653	0.57221	-2.16148
C	5.57929	-0.526253	0.196543
O	4.58171	-0.674982	0.637722
N	5.94968	-1.14907	-0.943662
C	7.15599	-0.919	-1.51591
H	5.28982	-1.76287	-1.39597
N	7.45046	-1.47457	-2.78167
H	7.01511	-2.45866	-2.87111
H	8.52108	-1.54426	-2.90876
N	8.07099	-0.103281	-0.947829
C	7.74905	0.510292	0.203385
C	6.50263	0.334051	0.782599
N	6.42844	1.13906	1.85901
C	7.59252	1.81303	1.96629
N	8.38967	1.42598	0.949748
H	7.846	2.52433	2.74456
H	9.32031	1.77062	0.772058
