29
  This energy is -0.00329361 and Call times are: 2777
C	-0.829984	0.275214	0.852928
N	-1.49068	0.698336	2.02967
H	-0.948066	1.07166	2.82189
H	-2.51659	0.638182	2.1072
N	0.524352	0.362045	0.76857
C	1.18319	-0.0377248	-0.350786
O	2.39687	0.0496879	-0.402999
N	0.481246	-0.538806	-1.41972
C	-0.873332	-0.639364	-1.36879
H	0.987349	-0.846439	-2.28091
C	-1.55969	-0.232464	-0.226007
H	-1.42009	-1.03534	-2.21523
H	-2.6387	-0.310626	-0.180705
C	5.25253	0.379289	1.14015
O	4.87148	0.352065	2.17262
N	5.03795	1.44163	0.333593
C	5.55782	1.4976	-0.916278
H	4.51579	2.22523	0.694257
N	5.43568	2.68346	-1.67544
H	4.47989	3.15106	-1.49169
H	5.52494	2.45345	-2.72728
N	6.26567	0.473356	-1.44088
C	6.47357	-0.613155	-0.678203
C	5.99833	-0.674942	0.621961
N	6.43729	-1.8238	1.16935
C	7.17375	-2.47906	0.247883
N	7.19358	-1.73085	-0.873907
H	7.64768	-3.44507	0.382506
H	7.67562	-1.96805	-1.72702
