29
  This energy is -0.00734349 and Call times are: 3295
C	0.577552	0.876146	0.625225
N	1.43414	1.92534	1.03231
H	2.13267	2.30635	0.377872
H	1.36935	2.31813	1.98291
N	0.677408	0.370362	-0.632986
C	-0.133658	-0.637672	-1.04877
O	-0.0255334	-1.07439	-2.18057
N	-1.07243	-1.16178	-0.19411
C	-1.19896	-0.679535	1.07041
H	-1.69654	-1.93706	-0.513266
C	-0.37262	0.354116	1.50782
H	-1.94122	-1.09755	1.73865
H	-0.469639	0.741594	2.51423
C	5.33601	-0.0811709	1.31665
O	5.45172	-0.462412	2.3429
N	6.08084	0.946901	0.854642
C	5.97797	1.37561	-0.42645
H	6.75786	1.3692	1.47113
N	6.87412	2.35373	-0.913999
H	7.09804	3.07629	-0.143468
H	6.43535	2.85947	-1.76189
N	5.08729	0.83876	-1.2889
C	4.30776	-0.166134	-0.855391
C	4.42901	-0.659264	0.433881
N	3.60244	-1.7151	0.553041
C	2.97061	-1.89492	-0.625641
N	3.41054	-0.948203	-1.47934
H	2.22696	-2.65478	-0.838982
H	3.11714	-0.842943	-2.43813
