29
  This energy is -0.00716937 and Call times are: 3742
C	0.423873	0.681875	-0.920587
N	1.24172	1.36046	-1.85381
H	2.26739	1.28294	-1.79537
H	0.822965	1.93683	-2.5985
N	0.99407	-0.0741255	0.0552296
C	0.230708	-0.73605	0.964058
O	0.764265	-1.40717	1.82911
N	-1.1387	-0.64775	0.90625
C	-1.74128	0.0992663	-0.0562762
H	-1.72638	-1.15659	1.60492
C	-0.968553	0.78248	-0.993675
H	-2.82129	0.164276	-0.0957324
H	-1.44398	1.37882	-1.76229
C	6.72975	-1.32315	0.0542033
O	6.78512	-2.42105	0.113022
N	5.55068	-0.668139	0.131148
C	5.49087	0.685304	0.117529
H	4.7053	-1.20557	0.246249
N	4.25743	1.33629	0.346377
H	3.44878	0.778552	-0.101919
H	4.28538	2.32937	-0.0781659
N	6.59687	1.44668	-0.0321848
C	7.78488	0.828683	-0.14235
C	7.88048	-0.552218	-0.0785346
N	9.18577	-0.879312	-0.116267
C	9.90641	0.258429	-0.200314
N	9.04346	1.29468	-0.211254
H	10.9868	0.32328	-0.266978
H	9.29926	2.26867	-0.259583
