29
  This energy is -0.00525428 and Call times are: 3084
C	0.808887	0.11322	0.908288
N	1.45082	0.160972	2.16762
H	0.916657	-0.0279035	3.02809
H	2.45452	0.384036	2.238
N	-0.516192	-0.182826	0.834771
C	-1.15653	-0.235043	-0.362758
O	-2.34409	-0.502348	-0.403442
N	-0.465356	0.0131098	-1.52341
C	0.860092	0.312059	-1.48591
H	-0.957245	-0.0268962	-2.44476
C	1.52728	0.368448	-0.263501
H	1.39852	0.506534	-2.40487
H	2.58306	0.606178	-0.228533
C	5.49223	0.532618	0.433443
O	4.76726	1.05544	1.0761
N	5.16926	0.126213	-0.813826
C	6.08064	-0.464364	-1.62386
H	4.23943	0.311111	-1.15732
N	5.74875	-0.742864	-2.96915
H	4.71515	-1.04553	-3.04677
H	6.38209	-1.53362	-3.34441
N	7.33839	-0.729947	-1.20809
C	7.68681	-0.367188	0.0378706
C	6.79054	0.285743	0.868833
N	7.43852	0.610831	2.00314
C	8.71342	0.180403	1.90219
N	8.85621	-0.410821	0.698573
H	9.4793	0.27698	2.66378
H	9.7072	-0.819489	0.344668
