29
  This energy is 0.00120306 and Call times are: 2733
C	0.249691	-0.718115	0.956069
N	0.224799	-1.40334	2.19305
H	-0.544892	-1.24181	2.85856
H	0.972264	-2.06814	2.44097
N	-0.745175	0.155367	0.645985
C	-0.744644	0.826324	-0.535816
O	-1.64671	1.60375	-0.791342
N	0.270906	0.627476	-1.43889
C	1.28098	-0.23853	-1.16072
H	0.271908	1.14319	-2.34799
C	1.29092	-0.932191	0.0481402
H	2.07823	-0.390258	-1.87736
H	2.09338	-1.6231	0.274242
C	9.22811	-0.818373	0.451142
O	10.205	-1.32512	0.481296
N	8.36024	-0.890847	1.48396
C	7.18415	-0.218435	1.4685
H	8.62182	-1.42347	2.29921
N	6.37004	-0.20042	2.62367
H	6.41421	-1.15313	3.12998
H	5.34745	0.00961043	2.34542
N	6.79269	0.509465	0.399739
C	7.61717	0.579835	-0.658895
C	8.84894	-0.0547792	-0.648536
N	9.49137	0.268993	-1.78636
C	8.69569	1.08845	-2.50486
N	7.55693	1.2755	-1.8071
H	8.92618	1.50497	-3.47917
H	6.78085	1.85011	-2.09683
