29
  This energy is -0.00480938 and Call times are: 2609
C	0.928444	0.351459	-0.711738
N	2.1426	0.875195	-1.21353
H	2.82386	1.30702	-0.572572
H	2.35804	0.830897	-2.22038
N	0.661248	0.41873	0.619788
C	-0.497886	-0.0770298	1.1272
O	-0.715006	-0.00529351	2.32349
N	-1.42132	-0.657212	0.292288
C	-1.18599	-0.740881	-1.04383
H	-2.31301	-1.0387	0.681899
C	-0.000713451	-0.235848	-1.57548
H	-1.91848	-1.19957	-1.69596
H	0.191253	-0.300177	-2.63917
C	7.57309	-1.15218	-0.282622
O	8.43865	-1.81682	-0.427527
N	6.30695	-1.62287	-0.304634
C	5.2468	-0.813228	-0.0677074
H	6.15987	-2.6087	-0.457161
N	3.95142	-1.36703	0.0455017
H	3.83108	-2.18717	-0.646481
H	3.21136	-0.60894	-0.166246
N	5.39531	0.512853	0.14393
C	6.63866	1.02225	0.14279
C	7.74414	0.208002	-0.0443504
N	8.84676	0.96619	0.10256
C	8.45998	2.22941	0.377352
N	7.11188	2.25261	0.404006
H	9.11877	3.07718	0.529631
H	6.54425	3.0639	0.593824
