29
  This energy is -0.000500679 and Call times are: 1425
C	0.661344	0.511228	-0.890715
N	1.09383	1.15168	-2.07522
H	0.406648	1.4506	-2.78222
H	2.09567	1.32545	-2.24325
N	-0.664629	0.290316	-0.68608
C	-1.1061	-0.322976	0.44344
O	-2.29879	-0.509962	0.604488
N	-0.208809	-0.730406	1.40015
C	1.12372	-0.525145	1.22742
H	-0.547685	-1.20214	2.26909
C	1.58804	0.102816	0.0730035
H	1.82525	-0.848997	1.98583
H	2.64858	0.268538	-0.0691061
C	8.07193	-0.212258	0.0548528
O	9.1399	-0.0128906	0.232724
N	7.62758	-1.44258	-0.28282
C	6.30689	-1.69848	-0.443617
H	8.29708	-2.1914	-0.37107
N	5.8689	-3.0259	-0.652533
H	6.57794	-3.56427	-1.26359
H	4.90651	-3.01896	-1.14342
N	5.37364	-0.727853	-0.332936
C	5.78155	0.515486	-0.0277686
C	7.12077	0.793761	0.193947
N	7.21888	2.08127	0.574584
C	5.97886	2.61291	0.597806
N	5.10884	1.64921	0.233159
H	5.73151	3.63892	0.846893
H	4.10857	1.75771	0.16897
