29
  This energy is -0.00411652 and Call times are: 5512
C	-1.12142	-0.152624	0.459585
N	-2.32973	-0.687106	0.964152
H	-2.45245	-1.70722	1.03981
H	-3.09658	-0.0654043	1.26006
N	-0.120493	-0.988295	0.0740036
C	1.05013	-0.500175	-0.414077
O	1.93229	-1.26847	-0.753086
N	1.23683	0.856074	-0.524306
C	0.256923	1.71964	-0.147978
H	2.13692	1.23214	-0.899603
C	-0.947806	1.2305	0.353986
H	0.411118	2.78753	-0.237698
H	-1.73136	1.91446	0.655072
C	5.46203	0.817276	1.09255
O	5.58877	1.7354	1.68661
N	5.49757	-0.406566	1.6636
C	5.28287	-1.53162	0.939916
H	5.64325	-0.471822	2.65923
N	5.18286	-2.77992	1.5951
H	5.86904	-2.82389	2.42767
H	5.41181	-3.57521	0.900609
N	5.08114	-1.49311	-0.395434
C	5.06942	-0.294744	-1.00306
C	5.23367	0.875127	-0.278814
N	5.07814	1.91108	-1.12427
C	4.82022	1.42021	-2.35446
N	4.8127	0.0743501	-2.26947
H	4.66636	2.00655	-3.25359
H	4.6382	-0.559266	-3.03401
