29
  This energy is -0.00204234 and Call times are: 3034
C	-1.03509	-0.358648	-0.540438
N	-2.25535	-0.41498	-1.25322
H	-2.6533	0.440923	-1.66611
H	-2.75716	-1.30796	-1.3668
N	-0.386946	0.828485	-0.400757
C	0.78683	0.909549	0.279328
O	1.34905	1.98416	0.391215
N	1.33672	-0.217973	0.838553
C	0.71509	-1.42071	0.717833
H	2.23945	-0.156314	1.36173
C	-0.489143	-1.51591	0.0225898
H	1.15442	-2.30534	1.16128
H	-0.988079	-2.47179	-0.0762559
C	4.84857	-0.996846	0.177045
O	4.18524	-1.84293	-0.0597205
N	4.99208	-0.541219	1.44075
C	5.85331	0.461561	1.7379
H	4.47607	-0.993489	2.17963
N	6.08446	0.812257	3.08738
H	5.17276	0.727229	3.65968
H	6.44794	1.82815	3.14263
N	6.56723	1.09537	0.781903
C	6.42741	0.689251	-0.491255
C	5.5935	-0.368624	-0.816207
N	5.72886	-0.613511	-2.13298
C	6.62443	0.260634	-2.63763
N	7.0479	1.04802	-1.62802
H	6.93193	0.328023	-3.67533
H	7.72695	1.7888	-1.70899
