29
  This energy is 0.00106484 and Call times are: 6226
C	-0.939748	0.357364	0.693735
N	-2.06104	1.02911	1.23386
H	-2.45869	1.84565	0.7475
H	-2.49032	0.710925	2.11511
N	-0.386567	0.791392	-0.470092
C	0.69103	0.163608	-1.01001
O	1.16922	0.570751	-2.05355
N	1.23855	-0.926982	-0.379731
C	0.710351	-1.3871	0.78512
H	2.06733	-1.41027	-0.794454
C	-0.394763	-0.751251	1.34816
H	1.14721	-2.24735	1.2764
H	-0.819057	-1.11409	2.27593
C	9.15899	0.583288	0.070656
O	10.0975	1.05382	-0.260614
N	8.84177	0.480213	1.37982
C	7.65998	-0.0460988	1.78226
H	9.48554	0.846714	2.06391
N	7.30125	-0.00409743	3.14866
H	8.17141	-0.151492	3.7708
H	6.57626	-0.777023	3.35888
N	6.76567	-0.547065	0.902156
C	7.06062	-0.489347	-0.407459
C	8.23847	0.0914093	-0.849587
N	8.21785	0.0970186	-2.19559
C	7.06009	-0.462361	-2.6049
N	6.35935	-0.812766	-1.50726
H	6.75867	-0.618727	-3.63476
H	5.4492	-1.24643	-1.50785
