29
  This energy is -0.0089997 and Call times are: 3239
C	0.0701188	0.544975	1.09096
N	0.505673	1.07273	2.32871
H	1.48955	0.971134	2.61696
H	-0.152758	1.56206	2.95253
N	0.953083	-0.0975662	0.280775
C	0.560001	-0.613635	-0.913376
O	1.36912	-1.18502	-1.62207
N	-0.746434	-0.490583	-1.31897
C	-1.65507	0.14576	-0.533448
H	-1.0494	-0.887261	-2.23728
C	-1.26337	0.678982	0.693275
H	-2.68324	0.238993	-0.859633
H	-1.98355	1.18676	1.3225
C	5.88727	0.914682	0.971414
O	5.96767	1.40199	1.95528
N	6.6406	1.30932	-0.078303
C	6.58214	0.669946	-1.27135
H	7.29079	2.06906	0.0512901
N	7.48804	1.01666	-2.29928
H	7.67733	2.0797	-2.2912
H	7.07716	0.733859	-3.25763
N	5.72852	-0.354037	-1.49074
C	4.94139	-0.754588	-0.478118
C	5.01842	-0.152909	0.767735
N	4.19641	-0.818267	1.60068
C	3.61039	-1.81834	0.909815
N	4.07429	-1.77395	-0.355667
H	2.88128	-2.51924	1.30101
H	3.81601	-2.40755	-1.09612
