29
  This energy is -0.0044521 and Call times are: 6314
C	0.489048	0.885666	0.684494
N	1.22297	1.99771	1.15881
H	1.83781	2.52238	0.519974
H	1.15122	2.29382	2.14334
N	0.596204	0.50952	-0.617779
C	-0.0982198	-0.555184	-1.09842
O	0.0139924	-0.873134	-2.26877
N	-0.924085	-1.27002	-0.265733
C	-1.05441	-0.921158	1.04151
H	-1.45845	-2.08899	-0.634766
C	-0.347134	0.168938	1.54555
H	-1.70727	-1.48928	1.69208
H	-0.447672	0.4507	2.58618
C	5.42129	1.26377	0.247804
O	5.87031	2.10398	0.799485
N	5.2479	1.30746	-1.09129
C	4.74941	0.249458	-1.77518
H	5.54059	2.13332	-1.59033
N	4.71879	0.277508	-3.18791
H	4.49317	1.27316	-3.53965
H	3.96669	-0.408561	-3.54966
N	4.34641	-0.878288	-1.14979
C	4.4756	-0.946236	0.185917
C	5.0311	0.100523	0.904116
N	5.12464	-0.283593	2.19093
C	4.6446	-1.54041	2.29491
N	4.25527	-1.93736	1.0663
H	4.56863	-2.1184	3.20928
H	3.8632	-2.83801	0.839265
