29
  This energy is -0.00143062 and Call times are: 2499
C	-0.308423	-0.85359	0.817535
N	-0.438697	-2.0506	1.55947
H	0.075395	-2.89592	1.27213
H	-1.04603	-2.09021	2.39116
N	0.497531	-0.820005	-0.277085
C	0.639953	0.317418	-1.00703
O	1.36763	0.323202	-1.98368
N	-0.0353553	1.45679	-0.643436
C	-0.849199	1.45797	0.445254
H	0.0737477	2.33192	-1.2044
C	-1.00298	0.297296	1.20142
H	-1.37842	2.35984	0.72593
H	-1.65016	0.293315	2.0695
C	7.07353	-1.37396	0.191438
O	7.25978	-2.36569	0.631564
N	6.14155	-1.18879	-0.768916
C	5.87353	0.0423752	-1.26689
H	5.60703	-1.98361	-1.08403
N	4.79415	0.218323	-2.16215
H	4.70643	-0.634945	-2.81805
H	4.95244	1.10883	-2.75306
N	6.56186	1.1363	-0.87337
C	7.51778	0.985559	0.0587849
C	7.77631	-0.253303	0.623126
N	8.70224	-0.0849854	1.58569
C	9.02706	1.22366	1.63829
N	8.29643	1.8689	0.706374
H	9.76042	1.67063	2.30035
H	8.32454	2.86001	0.523816
