29
  This energy is 0.00151112 and Call times are: 3654
C	0.386552	0.284645	1.12324
N	0.67077	0.2933	2.50866
H	0.354314	-0.48373	3.10658
H	1.19469	1.07274	2.93304
N	-0.305908	-0.75223	0.580768
C	-0.591879	-0.784529	-0.747394
O	-1.21352	-1.72397	-1.21044
N	-0.180473	0.240005	-1.5644
C	0.513686	1.29171	-1.05484
H	-0.400081	0.215772	-2.58597
C	0.812704	1.33558	0.305775
H	0.834789	2.0958	-1.70487
H	1.36542	2.17126	0.71634
C	6.65106	-0.735001	0.427046
O	5.80338	-1.43657	0.392878
N	7.06099	-0.175113	1.5862
C	8.14072	0.64185	1.63448
H	6.5737	-0.411732	2.43668
N	8.62643	1.09107	2.88341
H	7.80661	1.27722	3.56105
H	9.19233	2.00139	2.74814
N	8.8259	0.984922	0.521755
C	8.42824	0.471034	-0.654341
C	7.35989	-0.408586	-0.724974
N	7.25539	-0.832038	-1.99854
C	8.22905	-0.242519	-2.72331
N	8.9416	0.546834	-1.89396
H	8.39407	-0.368262	-3.78767
H	9.73828	1.10521	-2.15843
