29
  This energy is -0.00107092 and Call times are: 3808
C	0.595466	-0.797968	-0.707652
N	1.2392	-1.94229	-1.23338
H	1.31019	-2.80115	-0.668811
H	1.64218	-1.92967	-2.18184
N	0.0695879	-0.833066	0.545784
C	-0.553897	0.252737	1.07412
O	-1.0172	0.197358	2.19914
N	-0.660714	1.40892	0.34046
C	-0.146141	1.47823	-0.915725
H	-1.14012	2.24437	0.74621
C	0.495436	0.370938	-1.46789
H	-0.234055	2.39296	-1.48823
H	0.906939	0.421309	-2.46817
C	5.60134	1.03253	0.92832
O	5.72612	2.03729	1.36054
N	4.92418	0.0608361	1.57826
C	4.72179	-1.1563	1.01862
H	4.52551	0.269585	2.48061
N	3.8865	-2.09611	1.66402
H	4.00685	-2.03323	2.73525
H	4.13749	-3.09372	1.33391
N	5.23449	-1.48042	-0.188618
C	5.93991	-0.548559	-0.851517
C	6.11728	0.721225	-0.325884
N	6.76946	1.4614	-1.24185
C	7.00231	0.689524	-2.32391
N	6.48896	-0.533024	-2.07799
H	7.52691	0.995593	-3.22225
H	6.50875	-1.31477	-2.71432
