29
  This energy is -0.00241555 and Call times are: 4751
C	-1.17086	0.142337	-0.317699
N	-2.38185	0.32265	-1.0257
H	-2.37278	0.411352	-2.05208
H	-3.28177	0.367074	-0.52541
N	0.00706204	0.0860757	-0.994617
C	1.18434	-0.0864487	-0.338041
O	2.22683	-0.133731	-0.966047
N	1.19733	-0.207072	1.03006
C	0.0379416	-0.1553	1.73767
H	2.10244	-0.339788	1.53564
C	-1.17544	0.0212937	1.07501
H	0.0558153	-0.251113	2.81597
H	-2.10162	0.0631712	1.63435
C	7.86704	0.898739	0.608915
O	8.6934	1.27298	1.23261
N	7.17173	1.71679	-0.211141
C	6.19435	1.24291	-1.02093
H	7.42289	2.69266	-0.247625
N	5.59005	2.09999	-1.96842
H	5.48861	3.09602	-1.56394
H	4.61377	1.7202	-2.2327
N	5.82529	-0.0566968	-1.00831
C	6.47452	-0.894725	-0.182709
C	7.51337	-0.446989	0.617549
N	8.03426	-1.51229	1.25474
C	7.35059	-2.61135	0.873298
N	6.4044	-2.22514	-0.00657466
H	7.5216	-3.62159	1.22838
H	5.74759	-2.83694	-0.465623
