29
  This energy is -0.01005 and Call times are: 1920
C	-0.149072	0.630768	-1.03538
N	-0.586937	1.10976	-2.29201
H	-1.35501	0.63465	-2.78774
H	-0.144898	1.93482	-2.72329
N	-0.744198	-0.459232	-0.48166
C	-0.342235	-0.939384	0.724456
O	-0.890564	-1.91727	1.20036
N	0.679697	-0.322757	1.40405
C	1.29638	0.76899	0.879278
H	0.989324	-0.691534	2.33172
C	0.892591	1.27029	-0.35695
H	2.10126	1.24994	1.42064
H	1.38078	2.13971	-0.779072
C	5.56972	1.06295	0.864508
O	5.08598	1.67277	1.64299
N	6.7661	1.40486	0.338276
C	7.38643	0.621771	-0.576889
H	7.22094	2.24021	0.673056
N	8.69948	0.935463	-0.995235
H	8.82878	2.00565	-1.05802
H	8.88831	0.495018	-1.96352
N	6.81692	-0.507139	-1.05287
C	5.61278	-0.863056	-0.574569
C	4.97986	-0.1087	0.400351
N	3.85123	-0.751622	0.753955
C	3.76347	-1.88586	0.0282478
N	4.84438	-1.94703	-0.775813
H	2.95562	-2.60791	0.0722307
H	5.04929	-2.69053	-1.42516
