29
  This energy is 0.000655287 and Call times are: 184
C	0.367265	0.503085	1.05077
N	0.837652	0.731539	2.36486
H	1.08026	-0.063823	2.9731
H	0.942315	1.69091	2.72647
N	0.235576	-0.769642	0.590658
C	-0.214151	-1.01613	-0.667842
O	-0.323787	-2.16477	-1.05774
N	-0.543838	0.0280141	-1.49699
C	-0.424089	1.31253	-1.06887
H	-0.889777	-0.160877	-2.46502
C	0.0360752	1.57739	0.219807
H	-0.685842	2.13062	-1.72798
H	0.133154	2.59895	0.565364
C	9.24052	-1.25119	0.518653
O	8.72414	-2.0238	1.10887
N	10.1828	-1.56989	-0.395469
C	10.7745	-0.622117	-1.16179
H	10.4122	-2.5418	-0.535142
N	11.6465	-1.00627	-2.2056
H	12.2246	-1.87041	-1.91403
H	12.3155	-0.190961	-2.44004
N	10.4972	0.691671	-1.01201
C	9.58669	1.04902	-0.0908187
C	8.92798	0.0962608	0.669738
N	8.01322	0.730499	1.4268
C	8.08206	2.05118	1.15867
N	9.04147	2.23495	0.228945
H	7.48402	2.82657	1.62453
H	9.30813	3.12193	-0.169298
