29
  This energy is 0.00101591 and Call times are: 1538
C	-0.117277	-1.09981	-0.518435
N	-0.534923	-2.40157	-0.880725
H	-1.33758	-2.83851	-0.405081
H	-0.0435953	-2.92455	-1.62046
N	-0.777653	-0.424805	0.45991
C	-0.396405	0.826987	0.826655
O	-1.00345	1.41187	1.70576
N	0.670721	1.42997	0.206924
C	1.353	0.783488	-0.774981
H	0.964449	2.39272	0.48851
C	0.971038	-0.500614	-1.15941
H	2.19323	1.26501	-1.2591
H	1.51144	-1.01963	-1.94108
C	10.2355	0.428004	1.02418
O	11.0916	0.448417	1.71607
N	9.3489	1.44555	0.963947
C	8.33018	1.44453	0.070766
H	9.48231	2.24002	1.57039
N	7.51158	2.58893	-0.0624412
H	7.35515	3.05367	0.899591
H	6.5571	2.30713	-0.482902
N	8.1136	0.403681	-0.762945
C	8.95785	-0.640299	-0.710329
C	10.0387	-0.642005	0.156723
N	10.7565	-1.75634	-0.0782149
C	10.1546	-2.44842	-1.06794
N	9.06112	-1.75769	-1.44973
H	10.4837	-3.4006	-1.46913
H	8.42076	-2.03189	-2.17855
