29
  This energy is -0.00582808 and Call times are: 1735
C	0.857661	-0.655607	0.571578
N	1.5603	-1.62514	1.32428
H	1.05359	-2.41038	1.75795
H	2.58135	-1.55717	1.4466
N	-0.489534	-0.761559	0.420839
C	-1.18803	0.156622	-0.297408
O	-2.39438	0.0406325	-0.418515
N	-0.534305	1.21213	-0.884739
C	0.811793	1.34818	-0.753972
H	-1.07093	1.91865	-1.43728
C	1.53854	0.412632	-0.0196758
H	1.32044	2.18278	-1.21973
H	2.61098	0.516748	0.0873183
C	5.62328	0.800244	0.656553
O	4.78055	1.49288	0.80484
N	6.23363	0.193879	1.69816
C	7.23161	-0.702739	1.50922
H	5.90234	0.38514	2.63112
N	7.74571	-1.42407	2.61054
H	7.77223	-0.798829	3.4905
H	8.74491	-1.76827	2.38616
N	7.7066	-0.992389	0.278033
C	7.14391	-0.385221	-0.780334
C	6.08665	0.495971	-0.619707
N	5.66709	0.867177	-1.84379
C	6.43178	0.24133	-2.7627
N	7.32657	-0.523375	-2.10453
H	6.35111	0.35141	-3.83847
H	8.02296	-1.11136	-2.53552
