29
  This energy is -0.00209313 and Call times are: 2205
C	0.58332	0.836193	0.672772
N	1.39315	1.50394	1.6207
H	1.94859	0.962989	2.29912
H	1.43629	2.53339	1.64311
N	0.538894	-0.522737	0.658073
C	-0.231127	-1.18837	-0.242389
O	-0.254695	-2.40608	-0.236194
N	-0.980337	-0.488765	-1.15653
C	-0.959117	0.870268	-1.16953
H	-1.57277	-1.0001	-1.84935
C	-0.173129	1.56362	-0.250783
H	-1.5523	1.41515	-1.89303
H	-0.152943	2.64619	-0.257219
C	7.82231	-0.122935	1.36592
O	8.36499	-0.256123	2.31444
N	6.50909	0.19315	1.33941
C	5.85785	0.414085	0.172089
H	6.02163	0.309094	2.21445
N	4.52514	0.884305	0.189281
H	3.98028	0.44091	1.00933
H	4.03793	0.632403	-0.741522
N	6.47007	0.27305	-1.024
C	7.76904	-0.0703388	-1.03756
C	8.47268	-0.250687	0.14247
N	9.75946	-0.487182	-0.174483
C	9.87809	-0.457924	-1.51833
N	8.65989	-0.198797	-2.03547
H	10.7891	-0.631933	-2.08013
H	8.44761	-0.110628	-3.0171
