29
  This energy is -0.000560378 and Call times are: 3720
C	-1.04865	0.618613	0.0987607
N	-2.17369	1.33305	0.572182
H	-2.2753	1.53056	1.5782
H	-2.90029	1.66212	-0.0804206
N	-0.0999264	0.192261	0.974562
C	0.990416	-0.49605	0.545357
O	1.82698	-0.867683	1.34876
N	1.14755	-0.771291	-0.791045
C	0.218154	-0.35978	-1.69353
H	1.9859	-1.30062	-1.12181
C	-0.904131	0.346875	-1.26491
H	0.348612	-0.580345	-2.74545
H	-1.64721	0.676778	-1.98004
C	8.50951	1.34008	0.223766
O	8.40039	2.41804	0.0287639
N	8.05959	0.777816	1.36683
C	8.1423	-0.557779	1.57876
H	7.61314	1.36692	2.05267
N	7.53119	-1.12731	2.7188
H	7.62113	-0.463015	3.56531
H	8.00362	-2.07039	2.95252
N	8.72951	-1.38635	0.687699
C	9.21607	-0.858084	-0.447914
C	9.09759	0.496679	-0.713772
N	9.57839	0.71963	-1.95124
C	9.99179	-0.457776	-2.46471
N	9.76275	-1.41444	-1.54224
H	10.4454	-0.602295	-3.439
H	9.96524	-2.39571	-1.6542
