29
  This energy is -0.00118175 and Call times are: 3522
C	0.784335	-0.708847	-0.611929
N	1.40648	-1.76429	-1.3185
H	0.887739	-2.63279	-1.5135
H	2.38029	-1.67669	-1.6443
N	-0.501318	-0.842243	-0.189812
C	-1.12195	0.156872	0.490938
O	-2.2742	0.0142558	0.858896
N	-0.450669	1.3239	0.762695
C	0.835364	1.49031	0.355248
H	-0.927423	2.09271	1.28621
C	1.48203	0.47249	-0.343648
H	1.35831	2.41298	0.573029
H	2.50642	0.600383	-0.67029
C	7.44026	-1.19527	0.391385
O	7.79955	-2.23441	0.336399
N	7.73016	-0.400237	1.44449
C	7.33649	0.895587	1.48237
H	8.29084	-0.77533	2.19396
N	7.78153	1.73465	2.529
H	7.83558	1.18348	3.45595
H	7.09963	2.56449	2.6456
N	6.58641	1.44216	0.500552
C	6.25287	0.672362	-0.549006
C	6.68658	-0.640649	-0.638421
N	6.28929	-1.12804	-1.82872
C	5.6216	-0.155772	-2.48425
N	5.60844	0.93951	-1.69761
H	5.16148	-0.248416	-3.4618
H	5.18538	1.82387	-1.93291
