29
  This energy is -0.00426306 and Call times are: 919
C	1.01489	0.117241	0.669595
N	1.94563	0.299341	1.7188
H	1.61528	0.463468	2.68075
H	2.95903	0.27004	1.53363
N	-0.318487	0.159095	0.932725
C	-1.23326	-0.0128477	-0.0574549
O	-2.4224	0.0288185	0.202606
N	-0.816798	-0.232972	-1.34762
C	0.508564	-0.280795	-1.64547
H	-1.51984	-0.365299	-2.10963
C	1.4558	-0.105828	-0.638134
H	0.829544	-0.454716	-2.66476
H	2.5127	-0.143078	-0.87049
C	5.95729	-0.23868	1.29511
O	5.4615	-0.74281	2.1389
N	6.73955	0.847276	1.47927
C	7.39538	1.43024	0.44699
H	6.86805	1.19772	2.41598
N	8.31723	2.47155	0.698754
H	7.96818	3.09558	1.50789
H	8.43872	3.07336	-0.190222
N	7.25579	0.994149	-0.824102
C	6.46127	-0.0656783	-1.04975
C	5.82052	-0.713362	-0.00570255
N	5.18288	-1.78532	-0.512182
C	5.40917	-1.82497	-1.84187
N	6.19323	-0.774714	-2.15942
H	5.01298	-2.56108	-2.53258
H	6.53081	-0.554836	-3.08361
