29
  This energy is -0.00122274 and Call times are: 1691
C	0.458781	-1.10738	0.235225
N	0.949884	-2.2783	0.858143
H	0.991389	-2.3391	1.88576
H	1.26991	-3.07924	0.294036
N	0.040828	-0.0605303	0.995686
C	-0.435214	1.07566	0.421843
O	-0.803859	2.00019	1.1238
N	-0.500004	1.17998	-0.946125
C	-0.0904307	0.152386	-1.73599
H	-0.866032	2.05355	-1.3881
C	0.399599	-1.0177	-1.15861
H	-0.144391	0.241688	-2.81364
H	0.727047	-1.83899	-1.78365
C	7.37981	0.275871	0.465015
O	8.30395	0.184971	1.05631
N	7.28217	1.14053	-0.568421
C	6.1644	1.20849	-1.33101
H	8.08036	1.71237	-0.797842
N	6.15254	2.01795	-2.48952
H	6.72065	2.92105	-2.32332
H	5.13466	2.27722	-2.74235
N	5.07171	0.460368	-1.06327
C	5.12138	-0.389596	-0.0237918
C	6.27028	-0.517417	0.740272
N	6.06478	-1.50104	1.63607
C	4.82111	-1.99084	1.4511
N	4.25539	-1.30962	0.433984
H	4.35527	-2.77909	2.03211
H	3.32882	-1.4661	0.0687208
