29
  This energy is -0.000984563 and Call times are: 4878
C	-0.000991272	-1.076	-0.578219
N	0.273205	-2.39411	-1.0114
H	1.01956	-2.94233	-0.559928
H	-0.267609	-2.8184	-1.77927
N	0.722878	-0.532594	0.436478
C	0.479323	0.731676	0.87138
O	1.14093	1.19695	1.78198
N	-0.510512	1.4818	0.284896
C	-1.25298	0.96931	-0.731806
H	-0.698344	2.45421	0.618911
C	-1.01215	-0.326132	-1.18615
H	-2.03163	1.56643	-1.18939
H	-1.60096	-0.738747	-1.99576
C	3.59192	0.016597	-1.09256
O	2.91644	0.410843	-1.8673
N	4.00469	-1.26976	-1.10038
C	4.88207	-1.737	-0.179801
H	3.68225	-1.87684	-1.83811
N	5.40255	-3.04495	-0.305862
H	4.64677	-3.71554	-0.68672
H	5.7402	-3.39712	0.658079
N	5.34293	-0.960201	0.824952
C	4.93022	0.317205	0.882508
C	4.0747	0.835477	-0.0764397
N	3.91548	2.14808	0.17637
C	4.64852	2.46291	1.26466
N	5.26698	1.34084	1.68544
H	4.71121	3.44147	1.72771
H	5.88885	1.27698	2.47641
