29
  This energy is -0.0131734 and Call times are: 5880
C	-1.06904	-0.380061	-0.452566
N	-2.24511	-0.548344	-1.21991
H	-2.42774	0.0642265	-2.02788
H	-2.92863	-1.28158	-0.980561
N	-0.178441	0.592741	-0.783287
C	0.959004	0.775134	-0.0623224
O	1.74184	1.65321	-0.377833
N	1.22404	-0.0291647	1.01901
C	0.355124	-1.01116	1.37714
H	2.09867	0.110582	1.57392
C	-0.814599	-1.20747	0.645147
H	0.5706	-1.64137	2.23073
H	-1.50984	-1.98841	0.926552
C	4.52155	0.380806	1.33383
O	4.39733	0.29714	2.42447
N	4.91027	1.53628	0.751658
C	5.11908	1.62027	-0.58435
H	5.08997	2.33682	1.33784
N	5.66448	2.8011	-1.13725
H	5.28719	3.66908	-0.617412
H	5.40214	2.86856	-2.18312
N	4.89392	0.573758	-1.40864
C	4.4771	-0.58376	-0.868428
C	4.30633	-0.712632	0.500634
N	3.98423	-1.99388	0.759167
C	3.95081	-2.66749	-0.409583
N	4.25692	-1.80007	-1.39573
H	3.70217	-3.71583	-0.532349
H	4.3161	-2.0262	-2.37644
