29
  This energy is -0.000837719 and Call times are: 88
C	0.296275	-0.429638	-1.10442
N	0.853527	-0.625507	-2.38947
H	1.53134	0.0516814	-2.76815
H	0.589111	-1.44333	-2.95813
N	0.656999	0.655263	-0.36838
C	0.136225	0.866454	0.868968
O	0.474599	1.84555	1.5095
N	-0.769152	-0.0224972	1.39478
C	-1.15154	-1.11741	0.685879
H	-1.17005	0.139341	2.34637
C	-0.62408	-1.34428	-0.58413
H	-1.86569	-1.81389	1.10672
H	-0.925618	-2.21505	-1.15267
C	4.02236	0.289914	0.677772
O	3.05154	0.131957	1.17223
N	4.64727	1.48725	0.70993
C	5.86886	1.66312	0.151055
H	4.20729	2.24954	1.20194
N	6.55406	2.88613	0.330703
H	5.85831	3.71185	0.322978
H	7.27581	3.0192	-0.462139
N	6.49768	0.670609	-0.515907
C	5.89236	-0.526384	-0.59465
C	4.66706	-0.748678	0.0130731
N	4.35621	-2.04895	-0.144642
C	5.35353	-2.64364	-0.832062
N	6.28756	-1.70801	-1.09816
H	5.38565	-3.68505	-1.13262
H	7.15082	-1.86742	-1.59394
