29
  This energy is -0.00237494 and Call times are: 865
C	-0.451282	-0.0902902	1.1315
N	-0.795798	-0.519094	2.43446
H	-0.460893	-1.42797	2.78547
H	-1.38247	0.0696722	3.0438
N	0.323765	-0.880436	0.341658
C	0.668907	-0.491609	-0.913941
O	1.36417	-1.21646	-1.60285
N	0.234306	0.71574	-1.40368
C	-0.541872	1.53001	-0.640723
H	0.499403	1.01538	-2.36928
C	-0.902127	1.14167	0.648469
H	-0.880807	2.48036	-1.03337
H	-1.52026	1.78689	1.26004
C	5.39391	0.715449	1.18623
O	5.02312	1.4496	1.91799
N	6.31321	-0.216209	1.52097
C	6.72417	-1.15517	0.634951
H	6.66247	-0.233314	2.46674
N	7.57486	-2.19976	1.06236
H	8.28071	-1.83483	1.79349
H	8.11246	-2.60128	0.21561
N	6.28219	-1.17318	-0.641633
C	5.38953	-0.242622	-1.0193
C	4.91258	0.696741	-0.119182
N	3.96849	1.42611	-0.742819
C	3.84246	0.96713	-2.00547
N	4.71006	-0.0531783	-2.16314
H	3.17491	1.36366	-2.76247
H	4.83016	-0.594304	-3.00528
