29
  This energy is -0.00679713 and Call times are: 843
C	0.434428	-0.818452	-0.795934
N	1.25999	-1.67493	-1.56089
H	2.27687	-1.69562	-1.3968
H	0.855635	-2.28444	-2.28693
N	0.985579	-0.0212727	0.157805
C	0.214454	0.810535	0.906337
O	0.730909	1.51529	1.75487
N	-1.14353	0.855505	0.70566
C	-1.72701	0.071955	-0.239427
H	-1.73717	1.49502	1.28102
C	-0.946167	-0.78499	-1.01307
H	-2.79811	0.112683	-0.392092
H	-1.40639	-1.41109	-1.76714
C	6.9954	-0.576719	-0.410715
O	7.84874	-0.830994	-1.05807
N	6.9595	-0.940903	0.889761
C	5.93573	-0.576214	1.69874
H	7.73802	-1.45731	1.26922
N	6.00311	-0.849642	3.08374
H	6.48514	-1.8003	3.25654
H	5.00613	-0.87343	3.49929
N	4.87298	0.117612	1.23558
C	4.85964	0.47126	-0.0606298
C	5.91817	0.157075	-0.89782
N	5.67776	0.717655	-2.09788
C	4.50029	1.37345	-2.03202
N	4.01122	1.22097	-0.784556
H	4.0251	1.91024	-2.84563
H	3.14613	1.61054	-0.443543
