29
  This energy is -0.00559447 and Call times are: 4444
C	-0.277011	1.16434	-0.244289
N	-0.295957	2.57634	-0.322876
H	0.431692	3.13068	0.151095
H	-1.03385	3.06361	-0.852228
N	0.704416	0.538635	0.458685
C	0.745199	-0.816689	0.549638
O	1.63418	-1.35462	1.18504
N	-0.214009	-1.57679	-0.0737235
C	-1.20916	-0.983566	-0.784606
H	-0.183215	-2.61922	-0.00417082
C	-1.2611	0.40563	-0.884791
H	-1.96191	-1.58911	-1.27337
H	-2.05188	0.882783	-1.44995
C	6.69615	0.110904	-0.697991
O	7.76045	-0.0196199	-0.947322
N	5.8326	0.691066	-1.55988
C	4.51239	0.797398	-1.27474
H	6.17938	1.00871	-2.45184
N	3.61762	1.27632	-2.25837
H	4.08411	2.05382	-2.84476
H	2.73074	1.67003	-1.78335
N	4.00211	0.383823	-0.0941019
C	4.83693	-0.170964	0.800718
C	6.18199	-0.340015	0.513805
N	6.74443	-1.00402	1.54091
C	5.78793	-1.25488	2.45908
N	4.62745	-0.746831	1.99673
H	5.93414	-1.75855	3.40822
H	3.73852	-0.793355	2.47009
