29
  This energy is -0.00345229 and Call times are: 1582
C	-0.245482	0.0260756	1.19631
N	-0.517562	0.421941	2.52655
H	-0.564922	1.42207	2.76928
H	-0.670588	-0.281855	3.26369
N	-0.0462807	0.968752	0.236853
C	0.216708	0.614744	-1.04859
O	0.391607	1.47715	-1.89065
N	0.28483	-0.712295	-1.39607
C	0.0907472	-1.68034	-0.46183
H	0.48705	-0.985238	-2.38453
C	-0.17963	-1.32913	0.85959
H	0.145945	-2.72443	-0.742997
H	-0.334957	-2.09668	1.60736
C	6.07374	-1.1013	-0.846596
O	6.32562	-2.08963	-1.26093
N	5.04509	-0.371412	-1.33066
C	4.70072	0.817866	-0.780566
H	4.49898	-0.748914	-2.08961
N	3.5323	1.48204	-1.21781
H	3.39721	1.34548	-2.28038
H	3.60999	2.53736	-0.999897
N	5.40118	1.36182	0.238652
C	6.45001	0.678117	0.72643
C	6.79186	-0.564564	0.217527
N	7.80691	-1.04997	0.956619
C	8.10642	-0.145868	1.91251
N	7.27077	0.902468	1.76661
H	8.89324	-0.240189	2.65274
H	7.25828	1.72613	2.34786
