29
  This energy is -0.00635147 and Call times are: 2271
C	-0.355805	1.1626	0.11777
N	-0.57438	2.54872	-0.0587267
H	-0.166392	3.03782	-0.86851
H	-1.14107	3.08188	0.617093
N	0.39461	0.475427	-0.784202
C	0.619594	-0.856757	-0.637554
O	1.29511	-1.45092	-1.45856
N	0.0861305	-1.53028	0.43399
C	-0.668761	-0.873927	1.35428
H	0.25878	-2.55486	0.54736
C	-0.906174	0.492312	1.21418
H	-1.08608	-1.41135	2.19645
H	-1.50688	1.01951	1.94468
C	3.33313	0.660283	0.909407
O	2.72535	0.837683	1.80999
N	3.61578	1.65365	0.0384939
C	4.41245	1.44599	-1.0375
H	3.2582	2.57764	0.22588
N	4.80384	2.53922	-1.84322
H	3.99757	3.25257	-1.92693
H	5.07381	2.18743	-2.8284
N	4.91609	0.226277	-1.32732
C	4.63102	-0.793102	-0.49966
C	3.8624	-0.597322	0.636561
N	3.82671	-1.75794	1.31765
C	4.55236	-2.67104	0.639032
N	5.04226	-2.07203	-0.46541
H	4.69739	-3.70722	0.924029
H	5.62912	-2.51108	-1.1577
