29
  This energy is -0.00574577 and Call times are: 3632
C	0.841062	-0.881246	0.0901258
N	2.04112	-1.62966	0.086083
H	2.92991	-1.18075	-0.178395
H	2.03972	-2.62688	0.346219
N	0.862113	0.433532	-0.255992
C	-0.276935	1.17474	-0.260195
O	-0.233139	2.35078	-0.573917
N	-1.47373	0.598153	0.088599
C	-1.53043	-0.71371	0.439867
H	-2.35014	1.16766	0.0855798
C	-0.36867	-1.48369	0.447797
H	-2.47738	-1.16152	0.713652
H	-0.408792	-2.52911	0.726883
C	6.15764	-0.795092	1.11326
O	5.62795	-1.22724	1.97617
N	7.34014	-1.29044	0.687255
C	7.9609	-0.794663	-0.410209
H	7.74008	-2.0761	1.17669
N	9.11942	-1.43161	-0.909862
H	9.72519	-1.80258	-0.0966147
H	9.69684	-0.730627	-1.49504
N	7.4617	0.25501	-1.09892
C	6.30194	0.79351	-0.686129
C	5.61939	0.272468	0.401409
N	4.45657	0.940373	0.519465
C	4.39433	1.86182	-0.464359
N	5.52221	1.76159	-1.19679
H	3.58779	2.5691	-0.622964
H	5.74701	2.3214	-2.00457
