29
  This energy is -0.00869975 and Call times are: 5425
C	-0.292943	-0.960418	0.695618
N	-0.597968	-1.82416	1.7732
H	-0.601186	-1.46532	2.73893
H	-0.819148	-2.81661	1.60515
N	-0.00359373	0.346171	0.936415
C	0.292772	1.1967	-0.0812311
O	0.548685	2.36294	0.159173
N	0.303361	0.741272	-1.37695
C	0.0187882	-0.558886	-1.65299
H	0.531207	1.3949	-2.16009
C	-0.286587	-1.4403	-0.617389
H	0.0290376	-0.910874	-2.67681
H	-0.513949	-2.4769	-0.832289
C	4.4334	-0.853997	-0.251651
O	3.82077	-1.61835	-0.754012
N	4.09193	-0.353601	0.955889
C	4.87824	0.543459	1.5982
H	3.25425	-0.694727	1.40163
N	4.56428	0.933202	2.91996
H	3.49419	0.99807	3.04895
H	5.00894	1.89483	3.13155
N	6.01034	1.02698	1.0415
C	6.36606	0.57461	-0.172678
C	5.60822	-0.382036	-0.828888
N	6.25139	-0.712819	-1.96427
C	7.38916	0.00933756	-2.03364
N	7.45227	0.78822	-0.934561
H	8.11238	-0.0196044	-2.84113
H	8.19845	1.4292	-0.71369
