29
  This energy is 0.0015296 and Call times are: 140
C	0.533151	-0.445549	1.00466
N	0.945754	-0.701237	2.33306
H	0.565229	-0.141506	3.1098
H	1.6279	-1.44621	2.53757
N	-0.367828	0.541465	0.753816
C	-0.780548	0.807185	-0.513421
O	-1.58852	1.69634	-0.713372
N	-0.287195	0.0743681	-1.56509
C	0.614741	-0.919471	-1.34972
H	-0.604211	0.27822	-2.53996
C	1.04526	-1.20093	-0.0543273
H	0.999358	-1.49303	-2.18358
H	1.7636	-1.99165	0.122253
C	6.73932	-0.932403	-1.02403
O	6.79985	-1.36736	-2.03352
N	6.41311	-1.68163	0.0517947
C	6.39668	-1.15697	1.30081
H	6.22283	-2.66281	-0.0816876
N	6.19424	-2.00231	2.41523
H	5.48759	-2.7819	2.17265
H	5.81788	-1.42466	3.24703
N	6.64718	0.151009	1.52837
C	6.94576	0.933997	0.478043
C	7.0213	0.412198	-0.80341
N	7.43197	1.39452	-1.62718
C	7.61591	2.51323	-0.895416
N	7.32102	2.22123	0.387704
H	7.92677	3.47917	-1.27782
H	7.37611	2.86479	1.1618
