29
  This energy is -0.00105136 and Call times are: 2117
C	0.965668	0.318353	-0.676935
N	2.18597	0.338168	-1.39159
H	2.77928	-0.503405	-1.42567
H	2.49346	1.19004	-1.88342
N	0.576059	-0.814689	-0.0340486
C	-0.591756	-0.85982	0.659499
O	-0.91969	-1.88618	1.22735
N	-1.39926	0.249588	0.719225
C	-1.03992	1.39853	0.0880356
H	-2.29756	0.215541	1.25246
C	0.155508	1.4565	-0.626242
H	-1.68145	2.26917	0.139446
H	0.446037	2.36949	-1.13069
C	8.90125	-1.08722	0.153621
O	9.73145	-1.78276	-0.0436338
N	8.15259	-1.17744	1.27457
C	7.16968	-0.284413	1.54283
H	8.36675	-1.90197	1.94236
N	6.50675	-0.323106	2.79044
H	6.38099	-1.34425	3.11816
H	5.53761	0.146244	2.70271
N	6.84886	0.70396	0.679389
C	7.55238	0.806284	-0.46079
C	8.59738	-0.0611634	-0.735767
N	9.17543	0.33749	-1.8843
C	8.52139	1.4295	-2.33218
N	7.53614	1.71011	-1.45516
H	8.7396	1.97109	-3.24595
H	6.88883	2.47953	-1.5288
