29
  This energy is 6.6299e-05 and Call times are: 2139
C	0.414432	0.0088089	-1.14903
N	0.817737	0.379996	-2.45281
H	0.74579	1.36175	-2.75677
H	1.186	-0.323684	-3.10957
N	-0.0690343	0.950943	-0.29608
C	-0.463232	0.620356	0.961758
O	-0.89303	1.48176	1.70785
N	-0.376722	-0.681962	1.38943
C	0.101898	-1.64873	0.562467
H	-0.679725	-0.936883	2.35672
C	0.509119	-1.32141	-0.729676
H	0.167238	-2.67326	0.906402
H	0.891067	-2.08804	-1.3921
C	8.86758	0.00589383	-1.28326
O	8.31027	0.353237	-2.16682
N	9.64658	-1.09707	-1.32554
C	10.3772	-1.48885	-0.253987
H	9.71451	-1.60847	-2.19192
N	11.2904	-2.56015	-0.380164
H	10.8934	-3.3172	-1.03989
H	11.4784	-2.99486	0.59087
N	10.3202	-0.833793	0.926257
C	9.53203	0.250842	1.01474
C	8.81496	0.704203	-0.080877
N	8.20235	1.85031	0.270348
C	8.51837	2.12489	1.55315
N	9.333	1.14612	1.99699
H	8.16265	2.9727	2.12812
H	9.73505	1.0931	2.92001
