29
  This energy is 0.00303771 and Call times are: 3173
C	0.600539	-0.507637	-0.934752
N	1.38181	-0.74301	-2.08995
H	1.81139	0.0463924	-2.59366
H	1.52917	-1.70155	-2.43869
N	0.41701	0.76386	-0.489225
C	-0.329126	1.0169	0.618064
O	-0.479337	2.16427	0.998014
N	-0.911771	-0.0192487	1.30607
C	-0.748583	-1.30231	0.888078
H	-1.48574	0.174677	2.15777
C	0.0145039	-1.57383	-0.246195
H	-1.21085	-2.11408	1.4354
H	0.147375	-2.59426	-0.583057
C	6.41936	0.681622	-1.06231
O	5.86985	1.46341	-1.60891
N	7.0636	-0.314778	-1.7083
C	7.78776	-1.24179	-1.03613
H	7.03633	-0.33501	-2.71607
N	8.56537	-2.18007	-1.752
H	8.05689	-2.47784	-2.65684
H	8.74186	-3.05115	-1.13776
N	7.8553	-1.25309	0.313181
C	7.20179	-0.294648	0.991215
C	6.49721	0.69647	0.326878
N	6.03583	1.56429	1.24678
C	6.43401	1.14305	2.46532
N	7.14798	0.0111919	2.2987
H	6.20243	1.62153	3.41049
H	7.57895	-0.522844	3.03727
