29
  This energy is -0.0141929 and Call times are: 3151
C	0.0355639	-1.04342	0.634123
N	0.408381	-2.28155	1.20711
H	1.3193	-2.70451	0.977452
H	-0.223628	-2.77162	1.85712
N	0.882382	-0.411181	-0.221479
C	0.548033	0.779192	-0.785445
O	1.3231	1.32663	-1.54898
N	-0.66092	1.36243	-0.494443
C	-1.53104	0.757456	0.356727
H	-0.918677	2.27794	-0.927847
C	-1.19888	-0.46354	0.941056
H	-2.4823	1.22308	0.581497
H	-1.88871	-0.949314	1.61971
C	4.77633	-0.259443	-1.04864
O	4.37389	-0.713727	-1.96712
N	4.03557	0.576146	-0.288235
C	4.51278	1.08729	0.872184
H	3.09139	0.78282	-0.575589
N	3.65983	1.8385	1.71222
H	2.98413	2.43927	1.1219
H	4.2497	2.48333	2.34741
N	5.77002	0.836354	1.29845
C	6.5468	0.0333573	0.551974
C	6.06619	-0.545102	-0.611855
N	7.0184	-1.3683	-1.08918
C	8.07815	-1.32047	-0.255233
N	7.77932	-0.466366	0.744677
H	9.01071	-1.85949	-0.380581
H	8.38258	-0.23877	1.51973
