29
  This energy is 0.00244639 and Call times are: 3412
C	0.954504	-0.214985	0.731305
N	2.2506	-0.38656	1.27072
H	3.08078	-0.247253	0.676752
H	2.37816	-0.651403	2.25851
N	0.805509	0.134665	-0.574232
C	-0.428684	0.305706	-1.11677
O	-0.537007	0.619037	-2.28873
N	-1.55016	0.125471	-0.344619
C	-1.43717	-0.224216	0.964022
H	-2.49967	0.256869	-0.76127
C	-0.176563	-0.402386	1.53123
H	-2.32562	-0.364599	1.56666
H	-0.0814603	-0.680938	2.57324
C	8.32938	-1.11439	-0.307491
O	7.99857	-2.02877	-0.82363
N	7.7356	-0.687931	0.828605
C	8.18245	0.40469	1.49349
H	6.97193	-1.22677	1.20704
N	7.63121	0.735229	2.75221
H	6.57398	0.516282	2.76916
H	7.78196	1.78636	2.95124
N	9.20352	1.15593	1.02615
C	9.79912	0.779341	-0.117904
C	9.39672	-0.363502	-0.790278
N	10.2272	-0.544028	-1.83426
C	11.1366	0.452907	-1.83083
N	10.8699	1.25231	-0.778001
H	11.928	0.594116	-2.55859
H	11.3926	2.07518	-0.520892
