29
  This energy is 0.00319874 and Call times are: 5359
C	-0.808981	-0.912386	-0.0721519
N	-1.81477	-1.81659	-0.485753
H	-2.26704	-1.70253	-1.40437
H	-2.10476	-2.59527	0.123908
N	-0.439219	0.109115	-0.889888
C	0.524435	0.991451	-0.516136
O	0.838805	1.8985	-1.26569
N	1.14153	0.859697	0.703804
C	0.796008	-0.150033	1.54562
H	1.88276	1.53796	0.99186
C	-0.190942	-1.06089	1.17295
H	1.28673	-0.247712	2.50576
H	-0.469611	-1.86689	1.84013
C	5.78389	-0.770904	-0.446526
O	4.88674	-1.05876	-1.0159
N	6.43562	-1.65304	0.342299
C	7.57268	-1.31255	0.995551
H	6.08569	-2.59665	0.404753
N	8.30498	-2.30017	1.69258
H	7.63462	-3.00833	2.15636
H	8.9139	-1.83323	2.4531
N	8.08008	-0.0616524	0.939655
C	7.44136	0.851315	0.188702
C	6.30624	0.515959	-0.531815
N	5.94581	1.58913	-1.26023
C	6.82477	2.58326	-1.01532
N	7.73538	2.12231	-0.133883
H	6.79049	3.58094	-1.43884
H	8.5183	2.6456	0.226174
