29
  This energy is -0.00252895 and Call times are: 5534
C	-0.937442	0.775464	-0.10937
N	-2.09903	1.46339	-0.530961
H	-2.61244	1.14797	-1.36663
H	-2.44279	2.28331	-0.00972651
N	-0.498685	-0.304407	-0.80955
C	0.614518	-0.982719	-0.425482
O	0.988187	-1.94713	-1.06866
N	1.31552	-0.5809	0.685171
C	0.904596	0.494422	1.40795
H	2.17177	-1.10216	0.981101
C	-0.235636	1.19776	1.02352
H	1.46217	0.805449	2.28236
H	-0.566914	2.055	1.59608
C	4.69109	-1.14834	-0.77671
O	4.89657	-2.19479	-1.04993
N	4.06239	-0.305138	-1.62459
C	3.75846	0.964891	-1.26372
H	3.77675	-0.651041	-2.52764
N	2.97324	1.76968	-2.12002
H	3.21766	1.57012	-3.15268
H	3.1528	2.81315	-1.90523
N	4.11866	1.47108	-0.0639804
C	4.77267	0.670374	0.794248
C	5.04953	-0.648416	0.47138
N	5.61553	-1.2281	1.54646
C	5.69798	-0.308578	2.5306
N	5.17758	0.844613	2.06375
H	6.12551	-0.4669	3.5145
H	5.09931	1.70436	2.58446
