29
  This energy is -0.00162045 and Call times are: 2565
C	0.0138956	0.968321	-0.744489
N	-0.164319	2.24269	-1.33143
H	-0.686703	2.97507	-0.829297
H	0.224275	2.45156	-2.26283
N	-0.505914	0.710817	0.485296
C	-0.348762	-0.505264	1.0712
O	-0.823472	-0.712362	2.17355
N	0.343731	-1.49734	0.42109
C	0.876347	-1.27362	-0.809299
H	0.464963	-2.43285	0.87116
C	0.721503	-0.030353	-1.41996
H	1.421	-2.06037	-1.31585
H	1.14397	0.15264	-2.39998
C	7.01933	-0.0700213	-0.224279
O	8.09438	0.139674	-0.113705
N	6.56948	-1.06063	-1.02521
C	5.24991	-1.35459	-1.11409
H	7.24164	-1.61761	-1.5299
N	4.83053	-2.48817	-1.84664
H	5.44986	-2.62129	-2.72109
H	3.80181	-2.36411	-2.15252
N	4.3135	-0.637805	-0.45478
C	4.72171	0.375038	0.328118
C	6.06861	0.663735	0.478478
N	6.18193	1.64997	1.3877
C	4.94416	1.98314	1.80933
N	4.06084	1.19727	1.16067
H	4.70465	2.75921	2.52785
H	3.06017	1.21794	1.28181
