29
  This energy is -9.7845e-05 and Call times are: 3456
C	-1.15139	0.0591459	0.403603
N	-2.33675	-0.0331862	1.16954
H	-2.31295	-0.449948	2.11144
H	-3.23249	0.313505	0.795938
N	0.0213804	-0.40354	0.912918
C	1.1742	-0.326613	0.197431
O	2.21256	-0.747788	0.674752
N	1.16721	0.224821	-1.06046
C	0.0122872	0.696954	-1.59974
H	2.05351	0.284294	-1.61127
C	-1.17609	0.623348	-0.875216
H	0.0143129	1.13035	-2.5919
H	-2.09862	0.998106	-1.30056
C	7.76062	0.761802	-0.519251
O	6.87124	1.0246	-1.11243
N	8.27208	1.60637	0.40285
C	9.33089	1.25684	1.17247
H	7.8215	2.49704	0.545798
N	9.74573	2.10546	2.22379
H	9.63364	3.14073	1.93814
H	10.7812	1.9104	2.46236
N	9.96491	0.0737698	1.01853
C	9.50269	-0.779908	0.0895497
C	8.38931	-0.469736	-0.674833
N	8.1012	-1.53909	-1.44012
C	9.0024	-2.50736	-1.17342
N	9.85019	-2.03649	-0.236326
H	9.04604	-3.48277	-1.6452
H	10.623	-2.5463	0.162717
