29
  This energy is 0.000231825 and Call times are: 6072
C	0.0494712	0.402114	1.15237
N	0.167592	1.19212	2.31951
H	0.34882	2.20345	2.24354
H	0.0742087	0.767124	3.25374
N	0.175559	0.980169	-0.0718978
C	0.066326	0.243431	-1.20861
O	0.183007	0.783537	-2.294
N	-0.175032	-1.10652	-1.13247
C	-0.306429	-1.71625	0.0752367
H	-0.25916	-1.67372	-2.00634
C	-0.196322	-0.970769	1.24773
H	-0.496612	-2.78082	0.127605
H	-0.30024	-1.45199	2.21212
C	9.50241	-0.100491	-1.38488
O	9.79291	0.0294375	-2.43876
N	8.47972	-0.907094	-1.02621
C	8.16201	-1.11087	0.274988
H	7.97586	-1.39939	-1.74768
N	7.18365	-2.07177	0.617049
H	6.39076	-2.07878	-0.115911
H	6.77068	-1.84131	1.58842
N	8.81041	-0.475349	1.2755
C	9.81405	0.358506	0.954881
C	10.1943	0.544698	-0.364525
N	11.2765	1.34529	-0.374747
C	11.5824	1.66217	0.900742
N	10.6875	1.05224	1.70437
H	12.3928	2.30885	1.21839
H	10.675	1.10335	2.71118
