29
  This energy is -0.000897534 and Call times are: 941
C	0.229402	1.19666	0.0865208
N	0.577396	2.49175	0.535857
H	0.875833	2.63821	1.511
H	0.536474	3.29882	-0.103739
N	0.289447	0.143601	0.944627
C	-0.0396062	-1.11064	0.537882
O	0.0219855	-2.03824	1.32475
N	-0.44039	-1.33044	-0.757293
C	-0.511559	-0.300205	-1.64111
H	-0.693596	-2.29484	-1.07076
C	-0.176518	0.990375	-1.23522
H	-0.82834	-0.480931	-2.66053
H	-0.231637	1.81428	-1.93562
C	4.11414	0.731936	-0.464166
O	3.16617	0.958227	-0.976092
N	4.72957	1.64208	0.321984
C	5.86493	1.3414	0.997349
H	4.30294	2.5483	0.438197
N	6.39866	2.26776	1.92174
H	6.26187	3.2774	1.56416
H	7.45301	2.07736	2.06073
N	6.4709	0.140109	0.874669
C	5.90358	-0.780436	0.0770713
C	4.71433	-0.517702	-0.583807
N	4.33687	-1.64225	-1.22029
C	5.25622	-2.59873	-0.973727
N	6.20533	-2.06484	-0.178258
H	5.24151	-3.61042	-1.36382
H	7.0145	-2.55158	0.174944
