29
  This energy is 0.00369092 and Call times are: 4900
C	-0.698772	0.968669	-0.255931
N	-1.26894	2.12754	-0.832286
H	-0.849832	2.54583	-1.67538
H	-2.10537	2.56397	-0.417497
N	0.404893	0.406538	-0.817013
C	0.971944	-0.70695	-0.282753
O	1.96033	-1.19249	-0.803083
N	0.43104	-1.28238	0.840953
C	-0.671886	-0.746203	1.42717
H	0.86667	-2.13878	1.25235
C	-1.26197	0.395623	0.888069
H	-1.09282	-1.2052	2.31281
H	-2.14066	0.826411	1.35149
C	5.73608	-1.3878	-0.0140596
O	5.76339	-2.41741	-0.402751
N	5.64103	-1.13238	1.30915
C	5.6668	0.134386	1.78896
H	5.59543	-1.90965	1.94986
N	5.71234	0.35637	3.18401
H	5.11678	-0.380564	3.70188
H	5.33453	1.34336	3.40835
N	5.72942	1.20647	0.969175
C	5.79455	0.991744	-0.355613
C	5.82316	-0.294472	-0.870326
N	5.98959	-0.203754	-2.20309
C	6.06696	1.10227	-2.53347
N	5.95129	1.8232	-1.39967
H	6.18195	1.49873	-3.53622
H	5.9812	2.82919	-1.34031
