29
  This energy is -0.00269402 and Call times are: 5403
C	1.18593	-0.0356847	0.290511
N	2.45668	-0.385637	0.803351
H	2.56726	-1.23421	1.37703
H	3.28152	0.201166	0.609899
N	0.10886	-0.821999	0.556047
C	-1.12282	-0.507955	0.0752386
O	-2.07268	-1.22773	0.326419
N	-1.29484	0.618315	-0.691795
C	-0.239527	1.42638	-0.976294
H	-2.24186	0.860412	-1.0619
C	1.02829	1.11429	-0.4886
H	-0.382598	2.31259	-1.58158
H	1.87202	1.75491	-0.712545
C	6.27016	0.977452	-0.448042
O	5.89577	1.96768	-0.750027
N	5.52819	-0.139928	-0.609559
C	6.01396	-1.36404	-0.291511
H	4.61029	-0.0562411	-1.01847
N	5.26661	-2.52071	-0.609471
H	4.21098	-2.33389	-0.480266
H	5.56667	-3.33619	0.0325447
N	7.2384	-1.52524	0.256299
C	7.99344	-0.4326	0.459898
C	7.54223	0.825734	0.0950604
N	8.53657	1.70433	0.322122
C	9.59508	1.02922	0.8167
N	9.25564	-0.273694	0.892976
H	10.5423	1.46347	1.11701
H	9.85427	-1.01616	1.2198
