29
  This energy is 0.00182047 and Call times are: 4466
C	0.269495	-1.17866	0.173912
N	0.379166	-2.58475	0.0683282
H	-0.0814006	-3.08282	-0.707053
H	0.91805	-3.12365	0.762092
N	-0.445665	-0.484152	-0.7508
C	-0.566417	0.867161	-0.672017
O	-1.21222	1.46756	-1.51217
N	0.0386267	1.55294	0.352703
C	0.760957	0.88974	1.29398
H	-0.0538471	2.59224	0.41387
C	0.891669	-0.496091	1.22335
H	1.23515	1.43691	2.09894
H	1.46605	-1.02882	1.97081
C	6.94553	-1.28434	-0.521165
O	7.09718	-2.09065	-1.25519
N	6.79897	-1.54417	0.796472
C	6.67133	-0.546778	1.70449
H	6.83151	-2.50293	1.10707
N	6.667	-0.84986	3.08494
H	6.15078	-1.7812	3.26404
H	6.17491	-0.0576143	3.6303
N	6.62507	0.752091	1.33552
C	6.73728	1.04713	0.0294702
C	6.92177	0.050027	-0.914912
N	7.09979	0.640539	-2.11149
C	7.03295	1.97725	-1.93952
N	6.81593	2.21539	-0.630009
H	7.11918	2.72397	-2.72111
H	6.72952	3.12666	-0.207463
