29
  This energy is 0.00181775 and Call times are: 5698
C	-0.931926	0.712861	-0.339774
N	-1.77311	1.6402	-0.997596
H	-1.4332	2.15005	-1.8258
H	-2.73012	1.81518	-0.657548
N	0.327848	0.494849	-0.802721
C	1.15587	-0.390783	-0.188823
O	2.28015	-0.569254	-0.621902
N	0.724981	-1.08219	0.916937
C	-0.528345	-0.888315	1.40599
H	1.36131	-1.76348	1.38955
C	-1.3863	0.0174426	0.784614
H	-0.861215	-1.43687	2.27806
H	-2.3856	0.175298	1.1705
C	8.23748	-0.553979	1.27357
O	8.47396	-0.665604	2.34293
N	7.39115	-1.3976	0.643348
C	7.05636	-1.22293	-0.657798
H	6.96915	-2.14468	1.17301
N	6.0585	-2.03591	-1.24164
H	6.11824	-3.04186	-0.853761
H	6.18787	-2.05785	-2.31402
N	7.59423	-0.235107	-1.40628
C	8.46375	0.605517	-0.820872
C	8.78334	0.481864	0.521764
N	9.58949	1.50816	0.851964
C	9.78023	2.26869	-0.246243
N	9.0863	1.71255	-1.26004
H	10.3985	3.15769	-0.304458
H	9.03684	2.07086	-2.2011
