29
  This energy is -0.000966875 and Call times are: 3106
C	-0.92312	-0.69527	0.395667
N	-2.18129	-1.30777	0.600872
H	-2.99693	-1.01329	0.0446006
H	-2.29544	-2.05134	1.30529
N	-0.791359	0.284174	-0.538254
C	0.406426	0.888538	-0.7548
O	0.499916	1.76348	-1.5969
N	1.50792	0.512868	-0.0254177
C	1.4113	-0.462783	0.916047
H	2.42943	0.97728	-0.191475
C	0.188011	-1.08963	1.14679
H	2.28382	-0.753757	1.48723
H	0.106068	-1.86735	1.89568
C	5.12546	0.00732094	-1.38732
O	5.05499	0.398018	-2.41412
N	5.34201	-1.30331	-1.14133
C	5.48683	-1.77175	0.121665
H	5.44138	-1.93231	-1.92314
N	5.8566	-3.11939	0.332983
H	5.39279	-3.75693	-0.404842
H	5.5477	-3.4314	1.32013
N	5.36436	-0.966425	1.19953
C	5.1186	0.33854	0.99439
C	5.01845	0.853684	-0.288068
N	4.87137	2.18807	-0.188213
C	4.87846	2.51938	1.11985
N	5.03402	1.38534	1.83285
H	4.76001	3.51897	1.52322
H	5.08349	1.32839	2.8382
