29
  This energy is 0.00240738 and Call times are: 1713
C	0.0114956	-0.735948	0.97486
N	0.338918	-1.70765	1.94896
H	1.19442	-2.27287	1.84872
H	-0.271359	-1.86018	2.7653
N	0.828679	-0.548513	-0.0956361
C	0.536746	0.378534	-1.04548
O	1.28403	0.528382	-1.99549
N	-0.598203	1.14387	-0.933389
C	-1.43692	0.982326	0.123991
H	-0.823305	1.85705	-1.66356
C	-1.14772	0.0346408	1.10422
H	-2.3298	1.58919	0.205791
H	-1.81278	-0.0977094	1.94837
C	7.68976	1.22886	-0.602235
O	8.18444	1.99745	-1.21582
N	6.48081	1.44243	-0.0383373
C	5.84809	0.47422	0.667218
H	6.02675	2.33007	-0.188919
N	4.52483	0.683918	1.11725
H	4.38671	1.71316	1.41311
H	4.32004	0.0391233	1.95958
N	6.4161	-0.730706	0.892734
C	7.63196	-0.968551	0.372619
C	8.27864	-0.0150666	-0.3973
N	9.41858	-0.560622	-0.86108
C	9.50005	-1.82738	-0.403337
N	8.40393	-2.0682	0.344416
H	10.3137	-2.51962	-0.589515
H	8.19151	-2.93776	0.808277
