29
  This energy is 0.000612929 and Call times are: 1965
C	-0.936666	-0.595077	-0.510533
N	-1.78137	-1.32277	-1.38071
H	-1.43771	-1.62244	-2.30457
H	-2.74472	-1.55997	-1.10174
N	0.331511	-0.291171	-0.895568
C	1.16307	0.40689	-0.0782178
O	2.29489	0.667289	-0.445053
N	0.727256	0.817114	1.15799
C	-0.534493	0.53022	1.57425
H	1.36631	1.35402	1.7871
C	-1.39615	-0.18509	0.744497
H	-0.871206	0.856816	2.55004
H	-2.40215	-0.416032	1.07167
C	6.74633	-0.602639	1.18497
O	6.67015	-0.807167	2.26399
N	5.94537	-1.2194	0.288733
C	6.00112	-0.922603	-1.03202
H	5.26295	-1.88129	0.624825
N	5.05078	-1.47916	-1.9178
H	4.81036	-2.49027	-1.62486
H	5.44769	-1.48275	-2.92262
N	6.89695	-0.041104	-1.52779
C	7.73089	0.569694	-0.669372
C	7.65993	0.324176	0.692533
N	8.53649	1.14051	1.30689
C	9.15066	1.88879	0.366833
N	8.6496	1.53645	-0.834591
H	9.92373	2.62752	0.547257
H	8.91736	1.93657	-1.72039
