29
  This energy is -0.0032115 and Call times are: 1374
C	-0.574106	0.885451	0.61521
N	-1.44885	1.91925	1.02307
H	-2.20626	2.23242	0.398826
H	-1.33883	2.36824	1.94417
N	-0.734489	0.304598	-0.603711
C	0.09242	-0.690558	-1.01931
O	-0.070944	-1.19564	-2.11549
N	1.10928	-1.12479	-0.204543
C	1.29776	-0.565935	1.0201
H	1.74561	-1.89013	-0.523575
C	0.455899	0.455374	1.4569
H	2.10143	-0.913309	1.65701
H	0.602065	0.903667	2.43162
C	5.68954	-0.356901	1.08605
O	6.37154	-0.950208	1.71437
N	5.33008	0.901074	1.42286
C	4.53778	1.64997	0.618508
H	5.70085	1.29929	2.2718
N	4.30263	3.00804	0.931351
H	4.22625	3.14012	2.00031
H	3.3854	3.33598	0.464055
N	4.01989	1.15989	-0.529076
C	4.33126	-0.0988189	-0.881372
C	5.18175	-0.868621	-0.104084
N	5.3894	-2.03338	-0.746275
C	4.69373	-2.01083	-1.90229
N	4.05524	-0.825392	-1.97766
H	4.64354	-2.81331	-2.62991
H	3.4651	-0.525953	-2.73825
