29
  This energy is -0.00051479 and Call times are: 1494
C	0.782039	-0.473412	-0.810185
N	1.42404	-0.921616	-1.98799
H	0.965544	-0.805647	-2.90327
H	2.3525	-1.36675	-1.94385
N	-0.442926	0.111677	-0.887731
C	-1.081	0.550865	0.228875
O	-2.17784	1.07185	0.134343
N	-0.489631	0.407111	1.46015
C	0.734244	-0.173292	1.57351
H	-0.979837	0.744683	2.31932
C	1.39807	-0.627487	0.435241
H	1.19434	-0.283288	2.54738
H	2.37314	-1.09049	0.520474
C	7.80436	0.536448	0.6503
O	8.85792	0.743814	0.893053
N	6.79449	1.20329	1.25083
C	5.5016	0.987713	0.907985
H	7.01996	1.90744	1.93646
N	4.485	1.80539	1.45151
H	4.71287	2.05777	2.47637
H	3.53921	1.28459	1.41327
N	5.15191	0.0567469	-0.00653728
C	6.12829	-0.64773	-0.603026
C	7.46166	-0.410683	-0.309722
N	8.20801	-1.1836	-1.12074
C	7.37783	-1.89449	-1.91211
N	6.1119	-1.55763	-1.59185
H	7.67837	-2.62144	-2.65852
H	5.28044	-1.92607	-2.02699
