29
  This energy is -0.00700158 and Call times are: 2249
C	0.669435	-0.648046	-0.789935
N	1.18195	-1.65193	-1.64422
H	0.689065	-2.55164	-1.73916
H	2.04938	-1.49537	-2.17824
N	-0.476448	-0.872377	-0.0931505
C	-0.98973	0.0756739	0.734242
O	-2.01758	-0.148287	1.34806
N	-0.350279	1.28278	0.877085
C	0.797181	1.53994	0.195325
H	-0.74452	2.01236	1.51327
C	1.33287	0.575168	-0.656059
H	1.29583	2.49375	0.312858
H	2.2467	0.775371	-1.20127
C	6.67032	0.70949	0.239241
O	7.55681	1.08682	0.771869
N	6.46781	0.96815	-1.07119
C	5.40669	0.453751	-1.73827
H	7.15079	1.52038	-1.5665
N	5.30653	0.624872	-3.13763
H	5.67542	1.59816	-3.42501
H	4.27479	0.528866	-3.44344
N	4.46772	-0.29326	-1.11726
C	4.62004	-0.546116	0.193574
C	5.72327	-0.0766514	0.888252
N	5.66075	-0.562384	2.14219
C	4.55079	-1.32235	2.24836
N	3.92515	-1.30975	1.05377
H	4.21423	-1.83479	3.14281
H	3.0711	-1.79895	0.835343
