29
  This energy is 0.00299519 and Call times are: 2587
C	-0.301446	-0.503791	-1.07118
N	-0.712905	-1.38365	-2.0992
H	-0.980823	-2.3527	-1.87433
H	-0.749036	-1.06683	-3.07923
N	-0.259992	-0.939342	0.216243
C	0.131682	-0.113976	1.22232
O	0.160761	-0.52679	2.36781
N	0.493528	1.18204	0.946953
C	0.463591	1.64984	-0.328923
H	0.794855	1.81735	1.72027
C	0.0635985	0.812441	-1.36882
H	0.750212	2.67264	-0.538544
H	0.0381223	1.18052	-2.3868
C	6.4212	0.279234	1.23178
O	5.94058	0.109283	2.20751
N	6.84132	1.50613	0.853123
C	7.48508	1.70196	-0.322802
H	6.70849	2.2797	1.48612
N	8.03785	2.96864	-0.618589
H	7.40109	3.75456	-0.240693
H	8.14524	3.07851	-1.68799
N	7.68777	0.695655	-1.20121
C	7.25618	-0.533405	-0.871721
C	6.64198	-0.771973	0.347272
N	6.41069	-2.09469	0.442805
C	6.86454	-2.68743	-0.681258
N	7.38219	-1.72773	-1.47476
H	6.80421	-3.7455	-0.910947
H	7.80253	-1.87945	-2.37849
