29
  This energy is -0.00300936 and Call times are: 3610
C	-1.11489	0.430969	0.251792
N	-2.32788	0.797567	0.879908
H	-2.48168	0.579581	1.87502
H	-3.06724	1.28412	0.351962
N	-0.150588	-0.210464	0.964235
C	1.02363	-0.573476	0.38434
O	1.87249	-1.14718	1.0429
N	1.25141	-0.293622	-0.940882
C	0.30881	0.346342	-1.68219
H	2.15429	-0.572536	-1.38748
C	-0.8992	0.723414	-1.09812
H	0.495282	0.563668	-2.72632
H	-1.65314	1.23341	-1.68455
C	5.42603	1.29781	-0.441421
O	5.55152	2.14424	-1.13406
N	5.37928	1.47828	0.896637
C	5.16599	0.442366	1.74337
H	5.46111	2.41466	1.26167
N	4.97795	0.689358	3.12219
H	5.60968	1.50204	3.44842
H	5.2181	-0.199414	3.68755
N	5.04801	-0.828455	1.30016
C	5.11977	-1.05027	-0.0231144
C	5.28443	-0.00280978	-0.915195
N	5.22105	-0.506591	-2.16194
C	5.02015	-1.83792	-2.0723
N	4.95549	-2.15923	-0.76417
H	4.94436	-2.52707	-2.90611
H	4.80377	-3.08542	-0.395943
