29
  This energy is -0.00367111 and Call times are: 4268
C	0.977785	-0.561983	-0.46927
N	2.28854	-0.932433	-0.850014
H	3.09299	-0.35645	-0.562761
H	2.45248	-1.778	-1.41593
N	0.780623	0.557042	0.277584
C	-0.468608	0.934802	0.656472
O	-0.620277	1.94122	1.32544
N	-1.55646	0.182909	0.285456
C	-1.39503	-0.941482	-0.461052
H	-2.51751	0.472888	0.576535
C	-0.118576	-1.33863	-0.855436
H	-2.25718	-1.52928	-0.74985
H	0.0150717	-2.23355	-1.45014
C	6.89682	-0.660115	1.117
O	6.9761	-1.00898	2.15812
N	7.70659	-1.13701	0.146438
C	7.56811	-0.749648	-1.14443
H	8.39732	-1.83011	0.389877
N	8.33459	-1.37746	-2.15233
H	9.32359	-1.6071	-1.78477
H	8.41427	-0.724441	-3.00932
N	6.65557	0.173969	-1.51798
C	5.85244	0.693218	-0.574174
C	5.93714	0.276048	0.744498
N	4.95613	0.885908	1.43578
C	4.26157	1.67013	0.585237
N	4.81302	1.54256	-0.638791
H	3.4218	2.3043	0.846995
H	4.49524	2.00739	-1.47508
