29
  This energy is -0.00611165 and Call times are: 2543
C	-0.0644124	-1.21969	0.0179131
N	-0.473138	-2.56366	0.182078
H	-1.4003	-2.77789	0.57691
H	0.148612	-3.33926	-0.089949
N	-0.898154	-0.209291	0.382411
C	-0.529403	1.09037	0.234994
O	-1.29336	1.97831	0.568671
N	0.701705	1.40057	-0.289
C	1.55961	0.415058	-0.663632
H	0.985922	2.39994	-0.40265
C	1.19222	-0.921411	-0.517082
H	2.52849	0.667044	-1.07594
H	1.8722	-1.70998	-0.814075
C	7.20431	-0.510226	-0.310894
O	8.12613	-1.10555	-0.222807
N	6.93205	0.214421	-1.41811
C	5.77007	0.898928	-1.54781
H	7.5943	0.203504	-2.1784
N	5.45668	1.52465	-2.77573
H	6.34864	1.92948	-3.23013
H	4.74745	2.32212	-2.60764
N	4.85234	0.940508	-0.557171
C	5.1028	0.256027	0.571619
C	6.25895	-0.495155	0.709993
N	6.19338	-1.14328	1.88805
C	5.02869	-0.818574	2.48714
N	4.36876	0.0317712	1.67472
H	4.69479	-1.16618	3.45852
H	3.46381	0.4353	1.8609
