29
  This energy is 0.00195272 and Call times are: 3544
C	-0.595677	-1.04132	0.230057
N	-1.20309	-2.31553	0.142292
H	-1.17497	-2.84221	-0.742715
H	-1.67793	-2.72895	0.958214
N	0.0264002	-0.511681	-0.856858
C	0.617623	0.710578	-0.798765
O	1.16885	1.16428	-1.78553
N	0.593006	1.43139	0.370098
C	-0.0202344	0.931575	1.47541
H	1.04753	2.37149	0.41545
C	-0.629914	-0.320865	1.42759
H	-0.0357118	1.50541	2.39339
H	-1.11967	-0.723232	2.30546
C	8.7894	1.22429	-0.289802
O	9.51863	1.95114	-0.679472
N	7.60615	1.61731	0.230396
C	6.68623	0.717928	0.655186
H	7.39305	2.60249	0.257786
N	5.40514	1.15968	1.05664
H	5.47756	2.10684	1.57005
H	4.95774	0.429278	1.7151
N	6.92636	-0.611466	0.635459
C	8.10546	-1.03817	0.152703
C	9.04298	-0.143041	-0.337099
N	10.0703	-0.852882	-0.840076
C	9.79905	-2.16488	-0.679008
N	8.59689	-2.26774	-0.0766485
H	10.4445	-2.98752	-0.966324
H	8.13411	-3.13096	0.162358
