29
  This energy is -0.00278577 and Call times are: 3129
C	-0.823474	0.47723	0.765666
N	-1.58295	0.838719	1.90268
H	-1.32653	0.47678	2.83255
H	-2.39681	1.46474	1.81402
N	0.247188	-0.349833	0.901796
C	0.993228	-0.712304	-0.174714
O	1.94783	-1.45433	-0.027933
N	0.670691	-0.242506	-1.42439
C	-0.393181	0.585939	-1.59598
H	1.24407	-0.520893	-2.25274
C	-1.16552	0.964415	-0.499233
H	-0.641528	0.952384	-2.58404
H	-2.01395	1.62415	-0.630906
C	4.34978	0.707639	-0.969125
O	3.63938	1.4225	-1.41212
N	5.24086	0.0322625	-1.72741
C	6.15276	-0.802454	-1.1731
H	5.24952	0.193462	-2.72275
N	7.16054	-1.37754	-1.98005
H	6.76946	-1.61519	-2.95807
H	7.53008	-2.27938	-1.51385
N	6.18076	-1.04744	0.155255
C	5.28921	-0.416404	0.93778
C	4.38006	0.482644	0.403681
N	3.68987	1.02845	1.42246
C	4.14395	0.496266	2.57634
N	5.12198	-0.380462	2.2707
H	3.77243	0.721383	3.56992
H	5.6502	-0.923225	2.93615
