29
  This energy is -0.0104895 and Call times are: 4707
C	-1.10183	0.39571	-0.348565
N	-2.313	1.11129	-0.494367
H	-2.49863	1.93881	0.0905874
H	-3.01938	0.81442	-1.18359
N	-0.181389	0.802136	0.566036
C	0.990088	0.132079	0.72573
O	1.79925	0.515128	1.55153
N	1.2598	-0.973962	-0.0426105
C	0.361639	-1.40738	-0.966219
H	2.1606	-1.48975	0.0797066
C	-0.843115	-0.728112	-1.13876
H	0.581004	-2.28003	-1.56835
H	-1.56173	-1.06955	-1.87322
C	5.12525	0.525712	-1.23023
O	4.59834	0.625313	-2.19167
N	5.93785	1.49889	-0.763573
C	6.53864	1.39924	0.446671
H	6.05847	2.33429	-1.31521
N	7.26253	2.49731	0.964122
H	7.78147	3.01355	0.170296
H	7.97983	2.14965	1.69339
N	6.40428	0.300568	1.22139
C	5.62753	-0.701244	0.775912
C	4.95927	-0.603291	-0.434021
N	4.18857	-1.69843	-0.57148
C	4.35636	-2.47538	0.518945
N	5.23232	-1.8568	1.33667
H	3.88408	-3.43566	0.69421
H	5.54179	-2.20256	2.23172
