29
  This energy is -0.000310434 and Call times are: 4795
C	-0.930208	0.333298	-0.718143
N	-2.20751	0.612479	-1.25743
H	-3.05506	0.432131	-0.700166
H	-2.30396	0.997279	-2.20862
N	-0.822291	-0.17415	0.538731
C	0.393101	-0.451041	1.08002
O	0.464588	-0.905126	2.20789
N	1.53709	-0.219023	0.356224
C	1.46522	0.287581	-0.903052
H	2.47216	-0.431756	0.771945
C	0.224223	0.575387	-1.46847
H	2.37121	0.467914	-1.46773
H	0.161871	0.97906	-2.47126
C	6.09194	-0.571411	1.23228
O	6.28579	-1.34672	1.98942
N	6.26175	0.741251	1.50292
C	6.07917	1.68915	0.552275
H	6.57494	1.00891	2.42325
N	6.4066	3.03554	0.830744
H	6.16508	3.27737	1.85502
H	5.85563	3.68867	0.169625
N	5.66259	1.37783	-0.694673
C	5.454	0.0840954	-0.991595
C	5.68387	-0.910111	-0.0541436
N	5.48989	-2.099	-0.655068
C	5.1471	-1.8741	-1.94066
N	5.13211	-0.540048	-2.13736
H	4.9076	-2.63331	-2.67698
H	4.91716	-0.0793283	-3.00797
