29
  This energy is -0.00983697 and Call times are: 4773
C	-0.274227	-0.867961	0.814584
N	-0.270074	-1.76677	1.90655
H	0.512438	-1.76308	2.57668
H	-1.04553	-2.4317	2.04316
N	0.757508	0.00233577	0.650305
C	0.777529	0.876032	-0.390411
O	1.71256	1.64619	-0.516782
N	-0.254437	0.889638	-1.29666
C	-1.3013	0.0331492	-1.16215
H	-0.239656	1.56135	-2.09729
C	-1.33259	-0.867303	-0.0987521
H	-2.1113	0.0495197	-1.88037
H	-2.16437	-1.55153	0.0126077
C	7.63079	-1.37069	0.137087
O	7.38791	-2.44356	0.180425
N	8.90831	-0.931963	0.161894
C	9.20661	0.384815	0.0492719
H	9.65182	-1.61055	0.220678
N	10.5549	0.792156	-0.0675204
H	11.1906	0.168479	0.543113
H	10.6534	1.8207	0.248118
N	8.24438	1.32953	-0.0342795
C	6.96071	0.932556	-0.0312949
C	6.62865	-0.411368	0.0295784
N	5.29116	-0.51321	-0.0841645
C	4.78035	0.728816	-0.215643
N	5.80658	1.60324	-0.186549
H	3.72889	0.977361	-0.308219
H	5.72477	2.60449	-0.271634
