29
  This energy is -0.00397226 and Call times are: 2755
C	0.444562	0.584557	0.976095
N	0.921584	0.928118	2.26244
H	0.964802	0.215774	3.00549
H	1.22951	1.88959	2.46953
N	0.0425576	-0.689124	0.721123
C	-0.419748	-1.04494	-0.506275
O	-0.774207	-2.19207	-0.710839
N	-0.486627	-0.112624	-1.51262
C	-0.0928259	1.16947	-1.29182
H	-0.842082	-0.385632	-2.45684
C	0.383017	1.54586	-0.0370283
H	-0.148346	1.89906	-2.08984
H	0.697874	2.56597	0.143694
C	7.28217	1.06876	-0.775405
O	7.31124	2.0763	-1.21805
N	8.28262	0.18143	-0.967522
C	8.27212	-1.03634	-0.373816
H	9.07227	0.457097	-1.53074
N	9.40161	-1.87928	-0.479772
H	9.85162	-1.78432	-1.45672
H	9.10603	-2.90615	-0.320476
N	7.23724	-1.44814	0.3909
C	6.20962	-0.603285	0.579661
C	6.21893	0.667618	0.0275545
N	5.12191	1.31593	0.461632
C	4.42995	0.485807	1.26967
N	5.10341	-0.680505	1.3388
H	3.48933	0.712816	1.75917
H	4.82533	-1.48568	1.87804
