29
  This energy is -0.00120258 and Call times are: 3786
C	-0.00702383	-1.02176	-0.669373
N	-0.108626	-2.35818	-1.12096
H	-0.364335	-3.10858	-0.462978
H	0.0710517	-2.5948	-2.1078
N	-0.247735	-0.728317	0.636319
C	-0.156845	0.547523	1.09546
O	-0.377082	0.785917	2.26937
N	0.182518	1.5646	0.237086
C	0.429726	1.30625	-1.0743
H	0.252588	2.54608	0.589566
C	0.339545	0.00163409	-1.55643
H	0.696738	2.11301	-1.74516
H	0.53555	-0.209133	-2.60026
C	7.19181	0.00885562	-1.34661
O	7.47912	0.399371	-2.33498
N	7.1578	-1.31737	-1.09143
C	6.86096	-1.7933	0.141841
H	7.40404	-1.95856	-1.82967
N	6.97757	-3.17647	0.407845
H	6.67659	-3.75217	-0.454677
H	6.35289	-3.43957	1.24914
N	6.5274	-0.972555	1.16186
C	6.52093	0.35212	0.936896
C	6.87174	0.868391	-0.300239
N	6.87195	2.21112	-0.203876
C	6.5327	2.54633	1.05841
N	6.32482	1.40589	1.74748
H	6.42758	3.55518	1.44194
H	6.06628	1.34887	2.72028
