29
  This energy is -0.00403251 and Call times are: 1823
C	-0.931499	-0.69334	0.379067
N	-2.20836	-1.24828	0.627923
H	-3.05111	-0.803135	0.236715
H	-2.30929	-2.09939	1.20023
N	-0.817637	0.430115	-0.378406
C	0.397481	0.983161	-0.632303
O	0.474364	1.9898	-1.31361
N	1.53512	0.407614	-0.121484
C	1.45721	-0.715839	0.63968
H	2.46998	0.832456	-0.316388
C	0.216428	-1.29185	0.906669
H	2.35822	-1.16406	1.03904
H	0.149276	-2.18678	1.51248
C	5.00665	-0.837299	1.0917
O	5.01495	-1.75244	1.70356
N	4.6624	0.360479	1.61322
C	4.70964	1.49439	0.873224
H	4.40909	0.408921	2.58802
N	4.48398	2.74576	1.4902
H	3.72502	2.65764	2.2532
H	4.16479	3.46475	0.749654
N	5.04541	1.47866	-0.435342
C	5.3648	0.300247	-0.996363
C	5.3759	-0.866896	-0.249534
N	5.82504	-1.86002	-1.03958
C	6.09554	-1.3448	-2.25705
N	5.81577	-0.0261063	-2.2195
H	6.45523	-1.89951	-3.1166
H	5.92967	0.618286	-2.98645
