29
  This energy is -3.1577e-05 and Call times are: 1472
C	1.13165	0.431162	0.159934
N	2.4587	0.885252	-0.0217132
H	2.87468	0.903967	-0.964068
H	3.02115	1.20068	0.782204
N	0.40455	0.0188055	-0.912528
C	-0.872469	-0.421965	-0.764949
O	-1.50403	-0.786277	-1.74055
N	-1.44834	-0.456059	0.481499
C	-0.749743	-0.05108	1.57491
H	-2.43046	-0.794939	0.59569
C	0.560642	0.402903	1.43566
H	-1.21014	-0.0807229	2.55439
H	1.12117	0.726548	2.30369
C	6.08365	0.292759	-1.27557
O	5.51028	0.198773	-2.21063
N	6.83715	1.38295	-1.01312
C	7.49467	1.52221	0.163249
H	6.86893	2.12475	-1.69537
N	8.15225	2.73733	0.460894
H	8.59532	3.15374	-0.43143
H	8.9247	2.56298	1.19584
N	7.47915	0.556279	1.10774
C	6.76449	-0.556172	0.868743
C	6.03992	-0.701774	-0.303392
N	5.3516	-1.85596	-0.224293
C	5.62541	-2.4331	0.964313
N	6.48449	-1.63088	1.62541
H	5.23711	-3.38318	1.31427
H	6.8576	-1.80516	2.54566
