29
  This energy is 0.00115029 and Call times are: 3676
C	-0.121378	-1.02367	-0.655348
N	-0.610329	-2.18842	-1.29139
H	-1.59484	-2.46797	-1.17302
H	0.00945161	-2.76719	-1.87707
N	-0.953776	-0.272242	0.11365
C	-0.508815	0.851222	0.735481
O	-1.27321	1.50818	1.41923
N	0.799561	1.24383	0.592541
C	1.65847	0.515773	-0.16891
H	1.14242	2.10779	1.07052
C	1.21332	-0.638223	-0.811354
H	2.6885	0.831302	-0.277067
H	1.89376	-1.22149	-1.41898
C	8.51035	1.19786	-0.384317
O	8.39543	2.18598	-0.855855
N	7.46862	0.565949	0.19933
C	7.5993	-0.675107	0.726848
H	6.56677	1.01695	0.1978
N	6.4573	-1.36246	1.19684
H	5.76802	-0.673224	1.66139
H	6.75361	-2.11159	1.91671
N	8.78675	-1.31914	0.749402
C	9.85252	-0.708379	0.204853
C	9.73557	0.538363	-0.388495
N	10.9272	0.852871	-0.930024
C	11.7831	-0.162945	-0.692339
N	11.1173	-1.11206	-0.00348618
H	12.826	-0.19787	-0.987262
H	11.5038	-1.99048	0.30534
