29
  This energy is -0.00342506 and Call times are: 2910
C	-0.744852	0.215356	0.943887
N	-1.50698	0.121439	2.13158
H	-1.47888	-0.738908	2.69764
H	-2.09564	0.9083	2.44215
N	0.0261631	-0.832991	0.549694
C	0.767763	-0.76816	-0.587259
O	1.45077	-1.7201	-0.920007
N	0.746359	0.368305	-1.35824
C	-0.0134296	1.43467	-0.993289
H	1.3165	0.418818	-2.23278
C	-0.778081	1.37957	0.170701
H	-0.0254048	2.32726	-1.60595
H	-1.38491	2.22647	0.465552
C	6.62003	-1.22916	0.642681
O	6.76229	-1.99953	1.41612
N	5.81852	-1.43662	-0.424887
C	5.59911	-0.465978	-1.34428
H	5.34174	-2.3213	-0.507239
N	4.64314	-0.668688	-2.36532
H	4.65461	-1.69763	-2.69257
H	4.86362	-0.0242246	-3.20394
N	6.21362	0.735169	-1.2739
C	7.04202	0.966785	-0.241655
C	7.24348	0.010902	0.741096
N	8.03335	0.550568	1.68823
C	8.3287	1.81599	1.32448
N	7.71612	2.06191	0.14851
H	8.96262	2.50376	1.87314
H	7.75279	2.93187	-0.359679
