29
  This energy is -0.00443936 and Call times are: 2521
C	0.763369	0.941867	0.149195
N	1.44547	2.08473	0.627609
H	1.14821	2.53496	1.5053
H	2.24301	2.47758	0.106345
N	-0.286774	0.437446	0.850366
C	-0.958869	-0.659494	0.412362
O	-1.89645	-1.09307	1.05762
N	-0.580958	-1.27673	-0.75495
C	0.464372	-0.79863	-1.48041
H	-1.09744	-2.12043	-1.09237
C	1.16105	0.325707	-1.04098
H	0.756664	-1.29033	-2.39966
H	1.99443	0.710282	-1.61543
C	7.18382	-0.458613	-0.738426
O	7.78111	-1.10318	-1.40153
N	7.63634	0.745312	-0.324967
C	6.87522	1.56172	0.442992
H	8.54418	1.05407	-0.636804
N	7.32224	2.87055	0.73393
H	8.39302	2.88023	0.872857
H	6.84173	3.22817	1.63306
N	5.65239	1.19188	0.882568
C	5.18163	-0.0121169	0.516237
C	5.91696	-0.84495	-0.311886
N	5.16296	-1.92544	-0.587973
C	3.97817	-1.78904	0.0432982
N	3.99754	-0.617227	0.710448
H	3.16455	-2.50582	0.0302569
H	3.24183	-0.247714	1.26614
