29
  This energy is -0.0045072 and Call times are: 980
C	0.511887	0.474927	-1.00226
N	1.39512	1.06356	-1.93697
H	2.35053	1.32415	-1.65288
H	1.09435	1.23738	-2.90725
N	0.926167	0.253048	0.273683
C	0.0970995	-0.311056	1.19089
O	0.490715	-0.500009	2.32789
N	-1.18103	-0.666756	0.835531
C	-1.62735	-0.458983	-0.431441
H	-1.81917	-1.10066	1.54047
C	-0.785955	0.118817	-1.38055
H	-2.63614	-0.741893	-0.704434
H	-1.13695	0.286323	-2.39107
C	3.8581	-0.749394	0.904579
O	3.35985	-1.61974	1.35863
N	3.94639	0.433487	1.55123
C	4.61103	1.48525	1.01493
H	3.54423	0.512401	2.47253
N	4.80735	2.65667	1.78093
H	3.94325	2.85165	2.3984
H	4.97452	3.49782	1.12387
N	5.16765	1.42532	-0.214673
C	5.07342	0.273752	-0.900542
C	4.44523	-0.833894	-0.3541
N	4.5897	-1.85877	-1.21489
C	5.29125	-1.4218	-2.28153
N	5.58532	-0.121431	-2.07857
H	5.55328	-2.00955	-3.15434
H	6.11049	0.464948	-2.70847
