29
  This energy is 0.000218135 and Call times are: 3698
C	0.887922	0.120118	0.830223
N	1.89416	-0.110089	1.79705
H	2.12556	-1.07215	2.08394
H	2.40419	0.677709	2.22292
N	0.225472	-0.93167	0.279058
C	-0.745409	-0.737501	-0.651814
O	-1.32499	-1.69537	-1.13137
N	-1.07134	0.535931	-1.05001
C	-0.42889	1.6098	-0.519297
H	-1.81794	0.685958	-1.76591
C	0.568511	1.4228	0.436122
H	-0.691089	2.61076	-0.837958
H	1.08311	2.2751	0.861775
C	11.3674	0.821421	-0.64342
O	11.8898	1.73973	-0.952727
N	11.8286	-0.403266	-0.978896
C	11.2167	-1.53248	-0.547611
H	12.6734	-0.469057	-1.5254
N	11.8094	-2.79129	-0.795858
H	12.2844	-2.79882	-1.76551
H	11.0538	-3.56275	-0.761811
N	10.0844	-1.49355	0.188433
C	9.57913	-0.292356	0.515913
C	10.2139	0.878267	0.132766
N	9.54514	1.91045	0.680076
C	8.51254	1.41639	1.39457
N	8.54423	0.07212	1.29185
H	7.77788	2.0006	1.93759
H	7.89642	-0.563682	1.73062
