29
  This energy is 0.00376996 and Call times are: 444
C	0.516563	-0.759365	-0.805376
N	1.15582	-1.85102	-1.43777
H	1.43655	-2.67559	-0.887614
H	1.34682	-1.83374	-2.45036
N	0.272631	-0.799813	0.531689
C	-0.340048	0.235849	1.16325
O	-0.547943	0.176705	2.36187
N	-0.72337	1.34575	0.450785
C	-0.494712	1.41893	-0.887105
H	-1.19463	2.14262	0.935911
C	0.132872	0.362852	-1.54546
H	-0.799623	2.297	-1.4423
H	0.31718	0.416519	-2.61109
C	5.3581	0.376036	1.11286
O	4.85985	0.305175	2.09196
N	5.44639	1.54766	0.446037
C	6.11103	1.64384	-0.73064
H	5.04423	2.37306	0.862868
N	6.30735	2.91101	-1.32501
H	5.44325	3.53884	-1.16655
H	6.47452	2.79379	-2.38592
N	6.66765	0.566088	-1.32559
C	6.57342	-0.622466	-0.706011
C	5.94523	-0.739368	0.523546
N	6.0897	-2.01021	0.943421
C	6.79125	-2.68826	0.0112734
N	7.08532	-1.83245	-0.98859
H	7.05328	-3.7397	0.0528931
H	7.61049	-2.0604	-1.81845
