29
  This energy is -0.00257545 and Call times are: 5381
C	0.245851	-0.523292	-1.07602
N	0.170475	-1.21327	-2.3083
H	-0.725329	-1.61265	-2.62366
H	1.00626	-1.32356	-2.90111
N	-0.867318	-0.387553	-0.307056
C	-0.821597	0.270784	0.880942
O	-1.8319	0.37959	1.55239
N	0.361281	0.811601	1.32223
C	1.49286	0.694204	0.578367
H	0.397125	1.31806	2.23582
C	1.45795	0.0211823	-0.641643
H	2.42177	1.12305	0.932539
H	2.35675	-0.0749306	-1.23775
C	7.92582	1.05607	0.767188
O	8.55955	1.90046	1.07915
N	6.78777	0.743627	1.42474
C	5.97962	-0.258904	1.00356
H	6.51886	1.30329	2.21923
N	4.72799	-0.461594	1.62794
H	4.80004	-0.266182	2.68746
H	4.40463	-1.4808	1.47345
N	6.29743	-1.03355	-0.0567527
C	7.43772	-0.771494	-0.717421
C	8.25616	0.281128	-0.340276
N	9.26108	0.364687	-1.23211
C	9.09144	-0.604922	-2.1551
N	7.9746	-1.28967	-1.8351
H	9.74934	-0.807215	-2.99305
H	7.59626	-2.06723	-2.35346
