29
  This energy is -0.00504339 and Call times are: 4180
C	0.904788	0.704016	0.42169
N	2.11032	1.19154	0.977829
H	2.83471	0.533613	1.3
H	2.27649	2.20478	1.06646
N	0.70299	-0.636232	0.312627
C	-0.446432	-1.1303	-0.217997
O	-0.604466	-2.33479	-0.305387
N	-1.42657	-0.272723	-0.654249
C	-1.25734	1.07266	-0.559974
H	-2.31082	-0.652061	-1.06246
C	-0.082651	1.59079	-0.0175172
H	-2.03427	1.74268	-0.905903
H	0.0567635	2.66178	0.0596745
C	5.24532	-1.09089	0.6577
O	4.71165	-1.66818	1.42832
N	5.63734	-1.65511	-0.505538
C	6.24156	-0.928351	-1.47627
H	5.43126	-2.62931	-0.664334
N	6.50492	-1.51735	-2.73374
H	6.78578	-2.55293	-2.61273
H	7.30622	-0.984538	-3.22492
N	6.5355	0.379744	-1.30946
C	6.18763	0.967752	-0.152465
C	5.52151	0.261169	0.836035
N	5.21678	1.12097	1.82602
C	5.67271	2.34352	1.48203
N	6.25935	2.24075	0.272112
H	5.59658	3.24284	2.08316
H	6.68326	2.99939	-0.238975
