29
  This energy is -0.0112915 and Call times are: 4989
C	0.480165	1.06651	-0.352281
N	1.30823	2.08284	-0.882989
H	2.2033	1.8394	-1.33131
H	1.02692	3.07274	-0.827365
N	0.867642	-0.234234	-0.434803
C	0.0903364	-1.22952	0.0672275
O	0.458516	-2.38732	-0.0184961
N	-1.10704	-0.929426	0.66943
C	-1.52454	0.360308	0.768784
H	-1.70534	-1.69443	1.05574
C	-0.735665	1.38933	0.25752
H	-2.46959	0.589411	1.24481
H	-1.06399	2.41828	0.334284
C	5.21637	-0.993359	0.869177
O	5.14975	-1.61158	1.77763
N	4.32465	-1.11613	-0.138257
C	4.3742	-0.313795	-1.22884
H	3.58224	-1.7924	-0.0474758
N	3.34122	-0.372521	-2.19166
H	2.99712	-1.38883	-2.31277
H	3.70512	-0.00283892	-3.13936
N	5.34859	0.607637	-1.39276
C	6.27127	0.737389	-0.424652
C	6.21361	-0.0337189	0.725204
N	7.19454	0.378306	1.54995
C	7.86095	1.38517	0.947483
N	7.28783	1.59966	-0.254243
H	8.71743	1.91274	1.35248
H	7.57253	2.29953	-0.921736
