29
  This energy is -0.00297419 and Call times are: 2653
C	0.298373	-1.18338	0.0517632
N	0.573811	-2.5055	0.471788
H	0.48163	-2.76253	1.46519
H	0.868176	-3.22242	-0.207543
N	-0.0888951	-0.250709	0.96227
C	-0.359435	1.02639	0.584575
O	-0.704715	1.84435	1.41832
N	-0.243487	1.3926	-0.734086
C	0.141305	0.485297	-1.67021
H	-0.451418	2.37466	-1.02524
C	0.421373	-0.827336	-1.2945
H	0.230571	0.781109	-2.70787
H	0.728245	-1.55367	-2.03657
C	4.1722	1.2589	-0.107643
O	3.54835	2.07707	-0.499208
N	4.83368	1.37124	1.06495
C	5.55313	0.341756	1.57301
H	4.74774	2.2286	1.58869
N	6.10976	0.445356	2.86798
H	6.44923	1.45374	3.05202
H	6.94348	-0.235346	2.96165
N	5.69453	-0.826049	0.908497
C	5.07534	-0.963322	-0.276061
C	4.2902	0.0542428	-0.79395
N	3.72277	-0.396759	-1.92833
C	4.13076	-1.66686	-2.13139
N	4.95179	-2.00477	-1.11633
H	3.86007	-2.29476	-2.97305
H	5.4015	-2.89964	-1.0006
