29
  This energy is -0.00319068 and Call times are: 3588
C	0.327985	-1.09699	-0.4256
N	0.79193	-2.42596	-0.562946
H	1.12764	-2.94455	0.261544
H	0.79927	-2.88771	-1.48428
N	0.325598	-0.503923	0.797978
C	-0.115004	0.771804	0.956816
O	-0.107623	1.28187	2.06279
N	-0.567204	1.48307	-0.127634
C	-0.578442	0.920512	-1.36497
H	-0.906213	2.46427	-0.00615444
C	-0.128942	-0.38714	-1.53989
H	-0.936303	1.4872	-2.21527
H	-0.135966	-0.839585	-2.52359
C	7.18206	1.19987	-0.301781
O	7.33136	2.28307	-0.429509
N	8.2026	0.32404	-0.430484
C	8.02838	-1.00216	-0.215063
H	9.12075	0.679603	-0.648043
N	9.14639	-1.86677	-0.215627
H	9.86372	-1.55373	-0.959535
H	8.82623	-2.87611	-0.430002
N	6.8177	-1.5237	0.0809159
C	5.77257	-0.685969	0.187324
C	5.93291	0.680688	0.0241063
N	4.75086	1.27039	0.283357
C	3.85881	0.310339	0.604898
N	4.49237	-0.878755	0.547722
H	2.81364	0.468772	0.846613
H	4.07484	-1.77443	0.747375
