29
  This energy is 0.000284039 and Call times are: 5720
C	0.356002	1.1034	0.384555
N	0.415806	2.40251	0.940425
H	-0.423243	2.82217	1.36621
H	1.29457	2.94074	0.925732
N	-0.812161	0.408078	0.413023
C	-0.896081	-0.841672	-0.114156
O	-1.95343	-1.44502	-0.0768972
N	0.209138	-1.42182	-0.68716
C	1.39253	-0.754648	-0.732415
H	0.145271	-2.38298	-1.09279
C	1.49044	0.527585	-0.194926
H	2.25963	-1.21823	-1.18569
H	2.43096	1.06303	-0.228602
C	8.04671	-0.238098	0.244848
O	9.13621	-0.0807013	0.256462
N	7.47178	-1.26263	0.911891
C	6.12648	-1.41977	0.944195
H	8.06222	-1.89357	1.43155
N	5.55504	-2.41443	1.7698
H	6.17893	-3.29563	1.78406
H	4.57459	-2.67637	1.39922
N	5.29589	-0.598133	0.26568
C	5.83423	0.414688	-0.434182
C	7.20307	0.629903	-0.441432
N	7.44127	1.75893	-1.13479
C	6.2598	2.25425	-1.55862
N	5.28555	1.42994	-1.12278
H	6.12327	3.14644	-2.15968
H	4.2981	1.55484	-1.28333
