29
  This energy is -0.00185213 and Call times are: 6248
C	0.278194	-1.1819	-0.133478
N	0.435497	-2.57642	0.0421897
H	0.0797177	-3.03395	0.893954
H	0.905205	-3.14713	-0.675987
N	-0.34424	-0.4449	0.824793
C	-0.508064	0.896407	0.680243
O	-1.06888	1.53555	1.55224
N	-0.0420765	1.5285	-0.446583
C	0.584781	0.821841	-1.42397
H	-0.167758	2.56007	-0.55838
C	0.758462	-0.554228	-1.2866
H	0.949538	1.3268	-2.30951
H	1.25718	-1.12144	-2.06246
C	7.89222	-0.75128	-0.902748
O	8.16861	-1.25999	-1.8391
N	8.75696	-0.649725	0.130242
C	8.43502	0.0275417	1.25862
H	9.67657	-1.05165	0.0326545
N	9.41443	0.236893	2.25585
H	10.0594	-0.625359	2.33668
H	8.93373	0.414356	3.20698
N	7.2165	0.584377	1.43316
C	6.3194	0.477281	0.438589
C	6.64034	-0.164193	-0.746997
N	5.59602	-0.031005	-1.58596
C	4.634	0.676421	-0.957555
N	5.08617	0.985453	0.274785
H	3.66295	0.932261	-1.36684
H	4.58189	1.51791	0.966611
