29
  This energy is -0.000614899 and Call times are: 4488
C	0.900211	0.0870067	-0.821069
N	1.69954	0.00804512	-1.98516
H	1.33536	-0.450813	-2.83265
H	2.64992	0.406455	-1.99839
N	-0.351436	-0.444275	-0.822091
C	-1.13952	-0.381637	0.283274
O	-2.2573	-0.864698	0.258367
N	-0.675721	0.225036	1.42488
C	0.570594	0.766368	1.4602
H	-1.28134	0.273555	2.27535
C	1.38773	0.708062	0.33259
H	0.929565	1.24304	2.3636
H	2.38128	1.13786	0.355874
C	6.63383	0.74026	-0.956377
O	7.10594	1.60513	-1.44733
N	6.75544	-0.510051	-1.45345
C	6.22296	-1.58009	-0.81546
H	7.29445	-0.645906	-2.29474
N	6.49411	-2.88496	-1.28591
H	6.53632	-2.89471	-2.36483
H	5.72001	-3.5607	-0.952178
N	5.49546	-1.44703	0.315194
C	5.3276	-0.214262	0.822655
C	5.90556	0.891357	0.219605
N	5.65487	1.96383	0.993648
C	4.9384	1.55787	2.06262
N	4.7476	0.227506	1.95154
H	4.56675	2.19451	2.85791
H	4.25106	-0.349606	2.61246
