29
  This energy is -0.0033176 and Call times are: 6270
C	0.216479	1.11855	-0.440561
N	0.156372	2.34641	-1.13984
H	-0.615408	2.53023	-1.7971
H	0.880008	3.06685	-1.00041
N	-0.747248	0.179698	-0.637221
C	-0.712554	-1.00806	0.0222288
O	-1.58713	-1.83354	-0.170377
N	0.306478	-1.27577	0.90332
C	1.286	-0.359428	1.12343
H	0.333746	-2.18908	1.41083
C	1.26075	0.862122	0.452775
H	2.08621	-0.577338	1.81942
H	2.03879	1.59525	0.624794
C	6.77621	0.214913	-1.09611
O	7.64403	0.553991	-1.68249
N	5.81915	-0.57055	-1.6367
C	4.7832	-1.03448	-0.896999
H	5.91001	-0.849397	-2.60144
N	3.88344	-1.96957	-1.45695
H	3.71641	-1.75211	-2.50135
H	2.94191	-1.93064	-0.928526
N	4.6216	-0.689767	0.399301
C	5.53807	0.11515	0.962863
C	6.63562	0.561255	0.244198
N	7.42449	1.25859	1.08301
C	6.85058	1.25856	2.30428
N	5.70295	0.555169	2.22189
H	7.23666	1.75401	3.18824
H	5.06722	0.381208	2.98479
