29
  This energy is -0.00255594 and Call times are: 2009
C	-1.03619	0.624753	0.167638
N	-2.15415	1.29342	0.718386
H	-2.27159	1.34955	1.74038
H	-2.85977	1.72948	0.106779
N	-0.115249	0.0553282	0.99014
C	0.96772	-0.592845	0.486269
O	1.77925	-1.09507	1.24296
N	1.14559	-0.680698	-0.872797
C	0.244181	-0.122685	-1.72348
H	1.97829	-1.17906	-1.26097
C	-0.87029	0.54453	-1.21813
H	0.390873	-0.195882	-2.79369
H	-1.59111	0.990651	-1.89179
C	7.54804	-0.451856	-0.202944
O	8.61947	-0.431267	-0.455015
N	6.96568	-1.55015	0.325976
C	5.66058	-1.55342	0.689667
H	7.5337	-2.36662	0.491716
N	5.12436	-2.66877	1.3723
H	5.55898	-3.5836	0.997937
H	4.05317	-2.6994	1.23503
N	4.86159	-0.482536	0.489231
C	5.39915	0.618175	-0.062931
C	6.7434	0.666872	-0.39567
N	7.01777	1.91102	-0.83043
C	5.88317	2.63947	-0.776756
N	4.90276	1.84361	-0.303438
H	5.77767	3.67527	-1.0799
H	3.94622	2.12225	-0.149112
