29
  This energy is -0.00128686 and Call times are: 1604
C	-0.00855512	0.0338407	1.22102
N	0.290896	-0.125767	2.59402
H	1.12694	-0.653788	2.88321
H	-0.320599	0.282124	3.31639
N	0.809803	-0.511345	0.281899
C	0.544458	-0.372451	-1.04367
O	1.29223	-0.869774	-1.86642
N	-0.564256	0.327093	-1.45332
C	-1.40334	0.884906	-0.540973
H	-0.768902	0.434292	-2.47266
C	-1.14127	0.748955	0.821173
H	-2.27546	1.43498	-0.8712
H	-1.80674	1.19152	1.55172
C	6.97935	0.728629	0.0922292
O	8.03716	1.0002	-0.0463956
N	6.09651	1.58271	0.654632
C	4.78367	1.2687	0.770477
H	6.42246	2.48969	0.951099
N	3.86653	2.24141	1.22897
H	4.32026	2.85631	1.99185
H	2.99194	1.75449	1.63544
N	4.30097	0.0671249	0.385049
C	5.15592	-0.819973	-0.15117
C	6.49346	-0.505034	-0.329816
N	7.07906	-1.53333	-0.971589
C	6.14431	-2.4795	-1.19928
N	4.97402	-2.03345	-0.699195
H	6.31224	-3.43611	-1.68156
H	4.09656	-2.52879	-0.732882
