29
  This energy is -0.00107089 and Call times are: 264
C	0.800984	0.917769	-0.0907076
N	1.64208	1.95583	-0.554656
H	1.67026	2.1896	-1.55764
H	2.23285	2.48693	0.101892
N	0.0284273	0.227802	-0.971607
C	-0.788196	-0.77394	-0.551515
O	-1.47097	-1.3778	-1.35934
N	-0.842629	-1.10364	0.780684
C	-0.0836027	-0.434207	1.68806
H	-1.47049	-1.87397	1.10444
C	0.757598	0.594965	1.26879
H	-0.131653	-0.699565	2.73663
H	1.36415	1.13113	1.98785
C	5.14851	-0.709837	1.19025
O	5.34472	-0.91845	2.25322
N	4.56686	-1.6249	0.384331
C	4.27317	-1.34455	-0.908235
H	4.30827	-2.51815	0.774185
N	3.53474	-2.27185	-1.67788
H	3.81319	-3.28235	-1.41846
H	3.72535	-2.10689	-2.72844
N	4.59831	-0.161083	-1.47305
C	5.20564	0.762971	-0.709716
C	5.47	0.522156	0.629023
N	5.98549	1.6474	1.15846
C	6.04857	2.58305	0.188192
N	5.56681	2.0356	-0.94619
H	6.43675	3.58944	0.299656
H	5.48523	2.50599	-1.83417
