29
  This energy is -0.00496275 and Call times are: 3500
C	-0.826532	-0.404801	-0.803171
N	-1.53432	-1.14287	-1.78019
H	-1.12909	-2.0058	-2.17078
H	-2.45818	-0.82731	-2.11038
N	0.391267	-0.836445	-0.379462
C	1.09165	-0.145622	0.558123
O	2.18063	-0.551986	0.921974
N	0.571877	1.00758	1.09328
C	-0.642791	1.46724	0.692176
H	1.11002	1.53936	1.81442
C	-1.3701	0.767054	-0.268748
H	-1.04627	2.37705	1.1184
H	-2.33813	1.12925	-0.591461
C	7.3598	0.214817	-0.764242
O	6.73271	0.49757	-1.62374
N	6.83733	-0.388168	0.325981
C	7.6202	-0.787963	1.35692
H	5.84783	-0.581319	0.344457
N	7.06064	-1.544	2.41182
H	6.05719	-1.20703	2.62513
H	7.66926	-1.43865	3.29822
N	8.95055	-0.553058	1.37513
C	9.50099	0.0720006	0.320749
C	8.73216	0.444425	-0.770263
N	9.55744	0.952583	-1.70455
C	10.8188	0.906129	-1.22748
N	10.7746	0.363649	0.00636648
H	11.706	1.26112	-1.74017
H	11.5713	0.197678	0.601495
