29
  This energy is -0.0116705 and Call times are: 3346
C	-0.423257	-1.10281	-0.311065
N	-0.711945	-2.3176	-0.975318
H	-0.304463	-2.51017	-1.90176
H	-1.32975	-3.01969	-0.542291
N	0.394102	-0.188166	-0.897774
C	0.687213	0.9866	-0.280647
O	1.42197	1.79042	-0.825998
N	0.155756	1.26561	0.954718
C	-0.664994	0.373433	1.56952
H	0.380794	2.16893	1.4299
C	-0.972616	-0.834614	0.946149
H	-1.0803	0.600123	2.54335
H	-1.62594	-1.54849	1.43192
C	8.0205	0.664896	-0.343683
O	9.06744	1.00173	-0.294839
N	7.23133	0.955687	-1.40095
C	5.96172	0.490388	-1.48548
H	7.61887	1.49415	-2.16031
N	5.21705	0.691992	-2.66969
H	5.4432	1.65772	-3.09652
H	4.16077	0.636746	-2.44963
N	5.401	-0.236536	-0.494265
C	6.14641	-0.519846	0.587171
C	7.46441	-0.101401	0.67597
N	7.98482	-0.609072	1.80895
C	7.02916	-1.33316	2.42803
N	5.91311	-1.27625	1.67316
H	7.13709	-1.85129	3.37449
H	5.03927	-1.73208	1.8854
