29
  This energy is -0.00570436 and Call times are: 3273
C	-0.140953	-0.149023	-1.20417
N	-0.478866	0.00323089	-2.56905
H	-0.998808	0.835174	-2.88361
H	-0.210187	-0.71247	-3.26022
N	-0.503776	0.805618	-0.30645
C	-0.191334	0.683213	1.01045
O	-0.527071	1.55145	1.79585
N	0.501229	-0.417051	1.45339
C	0.879277	-1.39006	0.582807
H	0.741849	-0.5118	2.46609
C	0.564364	-1.27525	-0.770059
H	1.425	-2.25462	0.939114
H	0.863358	-2.04774	-1.4674
C	4.19712	-1.11194	0.793671
O	3.88214	-1.70702	1.66464
N	4.53992	-1.69469	-0.375961
C	4.8705	-0.957651	-1.46365
H	4.50269	-2.69999	-0.4448
N	5.08086	-1.59571	-2.70709
H	5.56448	-2.55034	-2.56305
H	5.69982	-0.972553	-3.3362
N	4.93147	0.391299	-1.41948
C	4.62643	1.00471	-0.263589
C	4.23397	0.277924	0.849004
N	3.89894	1.15114	1.81722
C	4.07002	2.4014	1.33927
N	4.50973	2.30169	0.0683081
H	3.90167	3.32082	1.88901
H	4.71606	3.07718	-0.542005
