29
  This energy is -0.00205795 and Call times are: 2183
C	0.963014	0.70173	-0.268854
N	1.8641	1.77904	-0.435283
H	1.59922	2.72687	-0.13052
H	2.79055	1.62862	-0.86095
N	-0.255137	0.919073	0.294841
C	-1.13908	-0.0988647	0.465968
O	-2.2244	0.120277	0.973371
N	-0.808356	-1.37096	0.0674414
C	0.400976	-1.62319	-0.499555
H	-1.48774	-2.1543	0.198776
C	1.31554	-0.587045	-0.680066
H	0.654846	-2.62846	-0.811304
H	2.28013	-0.783032	-1.13126
C	5.6931	0.927126	-0.238426
O	5.12265	1.86705	-0.183062
N	5.35841	-0.0547699	-1.10389
C	6.09688	-1.18558	-1.21112
H	4.5658	0.0851262	-1.71129
N	5.80217	-2.12338	-2.2266
H	4.73561	-2.18568	-2.38317
H	6.1797	-3.09575	-1.94519
N	7.16802	-1.41563	-0.420502
C	7.513	-0.473967	0.473747
C	6.80694	0.714602	0.568002
N	7.43195	1.49757	1.46718
C	8.5082	0.831426	1.93491
N	8.55154	-0.368005	1.32001
H	9.20185	1.19186	2.68647
H	9.25427	-1.07583	1.46694
