29
  This energy is -0.00840341 and Call times are: 3368
C	0.0838895	0.969603	0.738198
N	0.474488	2.16754	1.38058
H	1.29777	2.68906	1.04646
H	-0.0572274	2.52997	2.18559
N	0.797518	0.50659	-0.322573
C	0.443192	-0.641691	-0.957192
O	1.09792	-1.03659	-1.90524
N	-0.650492	-1.35414	-0.529777
C	-1.386	-0.919676	0.527508
H	-0.923545	-2.23736	-1.01743
C	-1.03206	0.256595	1.18608
H	-2.24689	-1.48647	0.858915
H	-1.61486	0.606726	2.02879
C	6.14474	-1.359	-0.135037
O	6.26077	-2.44701	-0.013789
N	5.06258	-0.825307	-0.742692
C	4.89418	0.515612	-0.838348
H	4.34765	-1.44578	-1.09004
N	3.68375	1.03695	-1.34883
H	3.31092	0.410958	-2.14575
H	3.84771	2.03606	-1.72579
N	5.8236	1.38531	-0.385411
C	6.928	0.88998	0.198
C	7.10107	-0.475707	0.35626
N	8.23588	-0.671451	1.05346
C	8.7742	0.533344	1.33546
N	7.9672	1.47929	0.813384
H	9.70167	0.705903	1.87019
H	8.11528	2.47455	0.87636
