29
  This energy is -0.00310896 and Call times are: 4422
C	0.0126013	-1.14046	-0.437375
N	-0.319469	-2.46248	-0.814542
H	-1.25536	-2.84002	-0.6072
H	0.367357	-3.05946	-1.29828
N	-0.906491	-0.367337	0.200145
C	-0.612513	0.905973	0.573102
O	-1.45224	1.57935	1.14304
N	0.628521	1.43105	0.307503
C	1.57076	0.685616	-0.32818
H	0.85526	2.41029	0.594071
C	1.28055	-0.621469	-0.715356
H	2.54694	1.10612	-0.534251
H	2.02785	-1.21919	-1.22199
C	6.97459	-1.19108	-0.660461
O	7.37977	-2.19779	-0.845606
N	6.10961	-0.606781	-1.51812
C	5.56724	0.607334	-1.25864
H	5.83266	-1.11245	-2.34537
N	4.55771	1.12091	-2.10399
H	4.75369	0.851076	-3.13099
H	4.52282	2.19725	-2.01745
N	5.90626	1.32042	-0.162322
C	6.78745	0.783879	0.698522
C	7.31726	-0.478503	0.484508
N	8.08261	-0.792107	1.54662
C	8.04373	0.23823	2.4171
N	7.248	1.19257	1.89301
H	8.57514	0.293766	3.36072
H	7.02761	2.07477	2.32843
