29
  This energy is -0.00885168 and Call times are: 2821
C	0.427721	0.842699	0.773962
N	1.24929	1.68033	1.5637
H	2.2742	1.5817	1.52858
H	0.834006	2.39467	2.17964
N	0.993354	-0.0942626	-0.032911
C	0.226357	-0.911412	-0.801557
O	0.755855	-1.74322	-1.51649
N	-1.14215	-0.798648	-0.771476
C	-1.7402	0.127274	0.0238785
H	-1.73262	-1.42681	-1.3624
C	-0.963721	0.970739	0.816498
H	-2.81953	0.21047	0.0424888
H	-1.43554	1.70988	1.4517
C	5.13358	1.07816	0.795971
O	4.5989	1.65847	1.56363
N	6.20322	1.58315	0.143286
C	6.89493	0.845623	-0.758472
H	6.51363	2.51497	0.371562
N	8.09177	1.35433	-1.3119
H	8.01082	2.41963	-1.46859
H	8.29213	0.868254	-2.25572
N	6.518	-0.407576	-1.09426
C	5.44004	-0.93213	-0.487426
C	4.74567	-0.219502	0.477001
N	3.78736	-1.02267	0.975758
C	3.86563	-2.21598	0.350688
N	4.87915	-2.15235	-0.536638
H	3.21469	-3.06652	0.520331
H	5.17524	-2.90259	-1.14154
