29
  This energy is 0.000255553 and Call times are: 4334
C	0.345608	0.247934	1.14507
N	0.973105	0.771259	2.29947
H	1.70274	1.49303	2.2095
H	0.708846	0.438152	3.23827
N	0.707187	0.699502	-0.0854694
C	0.119734	0.213054	-1.21024
O	0.460312	0.633052	-2.30157
N	-0.855325	-0.749587	-1.11537
C	-1.24064	-1.22314	0.0990742
H	-1.30754	-1.12413	-1.98004
C	-0.645167	-0.731655	1.25944
H	-2.00993	-1.98202	0.166221
H	-0.948746	-1.10577	2.22913
C	8.79321	0.293523	-0.648345
O	9.75201	0.786981	-0.870026
N	8.38827	-0.803833	-1.32435
C	7.23599	-1.44341	-1.01007
H	8.98532	-1.17422	-2.04761
N	6.91826	-2.66832	-1.63948
H	7.23751	-2.65525	-2.67091
H	5.85141	-2.83352	-1.59741
N	6.40579	-0.985631	-0.0475004
C	6.76122	0.121453	0.625888
C	7.95941	0.765043	0.360902
N	8.09379	1.771	1.24532
C	7.0142	1.77177	2.05484
N	6.20948	0.759614	1.67197
H	6.82171	2.47527	2.85731
H	5.33187	0.51453	2.10344
