29
  This energy is -0.00712399 and Call times are: 4922
C	0.0668436	0.660624	1.02529
N	0.099018	1.70685	1.97642
H	-0.00167177	2.68597	1.6721
H	0.222885	1.50241	2.97891
N	-0.0974782	0.949329	-0.293247
C	-0.131844	-0.0374296	-1.22704
O	-0.280102	0.245742	-2.4023
N	0.000338559	-1.35016	-0.845334
C	0.166106	-1.67387	0.464368
H	-0.0260112	-2.10955	-1.56301
C	0.202898	-0.670288	1.43084
H	0.269656	-2.71084	0.757935
H	0.334743	-0.923201	2.47538
C	6.30328	-0.0256576	-1.01038
O	7.26611	-0.198186	-1.51548
N	5.20494	0.364698	-1.69333
C	4.00743	0.519412	-1.07884
H	5.27714	0.498115	-2.6902
N	2.85226	0.785935	-1.8483
H	3.09432	1.43191	-2.67901
H	2.10504	1.26261	-1.23051
N	3.86219	0.34928	0.253565
C	4.94031	-0.00974103	0.970623
C	6.16503	-0.226119	0.3596
N	7.02395	-0.66691	1.29776
C	6.36906	-0.732788	2.47573
N	5.09808	-0.334193	2.26515
H	6.79725	-1.03437	3.42527
H	4.37517	-0.289094	2.96643
