29
  This energy is -0.00289078 and Call times are: 3195
C	-0.780675	0.936613	-0.0735323
N	-1.87153	1.82168	0.0906761
H	-2.63406	1.58758	0.742717
H	-1.91541	2.7057	-0.43725
N	-0.739704	-0.225346	0.631489
C	0.297089	-1.09277	0.491935
O	0.311755	-2.1275	1.13422
N	1.3251	-0.802327	-0.371353
C	1.31565	0.350468	-1.09147
H	2.12279	-1.46903	-0.479145
C	0.257555	1.24759	-0.956531
H	2.12943	0.572821	-1.7701
H	0.245571	2.16719	-1.52803
C	5.41009	-0.982224	-0.980761
O	5.30934	-1.96797	-1.46043
N	5.75512	0.117014	-1.6863
C	5.82108	1.33906	-1.10507
H	5.92176	0.0238088	-2.6764
N	6.04175	2.48509	-1.90221
H	6.72495	2.25781	-2.70691
H	6.45534	3.27713	-1.2949
N	5.60365	1.51275	0.217008
C	5.2877	0.436556	0.956862
C	5.1617	-0.816209	0.378239
N	4.74478	-1.67211	1.32998
C	4.60597	-0.988173	2.48488
N	4.9352	0.297616	2.2462
H	4.30232	-1.40566	3.43851
H	4.91713	1.0421	2.92579
