29
  This energy is -1.0205e-05 and Call times are: 4224
C	1.10326	-0.199625	0.484834
N	2.1989	-0.696519	1.22844
H	2.06714	-1.48249	1.88136
H	3.13603	-0.280102	1.12591
N	-0.125996	-0.761606	0.63309
C	-1.19493	-0.30282	-0.0695677
O	-2.28632	-0.822329	0.0800879
N	-1.04376	0.743926	-0.945859
C	0.171115	1.32872	-1.11817
H	-1.86547	1.09725	-1.48659
C	1.27451	0.866617	-0.402924
H	0.282825	2.15345	-1.81067
H	2.2443	1.32923	-0.53678
C	6.07238	1.0738	0.838473
O	6.4424	1.63167	1.71243
N	5.58024	1.70617	-0.249209
C	5.18018	1.0194	-1.34642
H	5.55567	2.71421	-0.25293
N	4.80901	1.7195	-2.51671
H	4.2917	2.63217	-2.26103
H	4.16343	1.10016	-3.1224
N	5.19726	-0.330901	-1.38819
C	5.65216	-0.995256	-0.312497
C	6.11679	-0.316485	0.80262
N	6.59628	-1.22618	1.67137
C	6.44505	-2.45241	1.12885
N	5.87243	-2.30086	-0.0826611
H	6.71853	-3.39228	1.5955
H	5.64687	-3.04804	-0.720846
