29
  This energy is -0.0127458 and Call times are: 5148
C	-1.13843	0.331809	-0.293243
N	-2.52253	0.622289	-0.280997
H	-3.07412	0.476765	0.576899
H	-2.99201	0.980754	-1.12551
N	-0.535926	-0.140421	0.830534
C	0.792371	-0.427223	0.845005
O	1.30985	-0.849162	1.86363
N	1.54826	-0.241362	-0.286586
C	0.97776	0.229179	-1.42707
H	2.56991	-0.461741	-0.276123
C	-0.383622	0.526725	-1.45367
H	1.57982	0.373213	-2.31532
H	-0.842606	0.901791	-2.3598
C	6.18124	1.10964	-0.833207
O	5.81647	1.7865	-1.62107
N	7.17786	1.46986	0.00473307
C	7.5848	0.658379	1.01045
H	7.59174	2.38333	-0.10021
N	8.52655	1.12743	1.95418
H	9.25682	1.76139	1.4738
H	9.02868	0.289275	2.41524
N	7.05803	-0.572537	1.19128
C	6.08505	-0.977209	0.357634
C	5.61334	-0.146835	-0.646394
N	4.58482	-0.770564	-1.25079
C	4.40117	-1.96534	-0.65112
N	5.31798	-2.08031	0.331153
H	3.65963	-2.70734	-0.92584
H	5.41346	-2.86797	0.953175
