29
  This energy is -0.00371326 and Call times are: 5653
C	0.437501	0.436106	-1.05381
N	1.26869	0.855393	-2.11851
H	2.29218	0.765925	-2.04196
H	0.861894	1.25288	-2.97796
N	0.991991	-0.0860633	0.072587
C	0.215601	-0.496331	1.10976
O	0.735197	-0.960896	2.10856
N	-1.15122	-0.386927	1.03077
C	-1.73826	0.130493	-0.0806544
H	-1.74892	-0.702285	1.8281
C	-0.952077	0.554522	-1.15057
H	-2.81633	0.213711	-0.135909
H	-1.4151	0.967366	-2.03804
C	6.06313	-0.610032	1.11401
O	6.66526	-1.31191	1.71128
N	5.44498	0.450671	1.67788
C	4.75338	1.3455	0.931862
H	5.54343	0.59642	2.67076
N	4.24465	2.51833	1.53451
H	3.9041	2.30862	2.5375
H	3.42057	2.9004	0.949592
N	4.59678	1.19288	-0.401375
C	5.17242	0.132435	-0.992573
C	5.92939	-0.769279	-0.261816
N	6.45774	-1.65966	-1.12221
C	6.05279	-1.3377	-2.36848
N	5.273	-0.241051	-2.27956
H	6.29698	-1.8787	-3.27601
H	4.83521	0.230151	-3.05592
