29
  This energy is -0.00205521 and Call times are: 1039
C	0.0462768	-0.862793	0.863453
N	0.371387	-1.64741	1.99436
H	1.12287	-1.3486	2.63264
H	-0.137073	-2.52195	2.1913
N	0.727914	0.288186	0.619525
C	0.435032	1.05997	-0.460014
O	1.05942	2.08683	-0.657761
N	-0.562614	0.682055	-1.32506
C	-1.26374	-0.462561	-1.11089
H	-0.788374	1.27519	-2.15552
C	-0.972138	-1.26201	-0.00704928
H	-2.04884	-0.754213	-1.79702
H	-1.52789	-2.17469	0.167766
C	7.42955	-0.392409	0.0926703
O	8.42022	-0.759677	-0.216533
N	7.20722	0.0835075	1.33735
C	6.0028	0.589091	1.69697
H	7.9732	0.100168	1.99291
N	5.84956	1.21002	2.95732
H	6.43876	0.697752	3.70323
H	4.80934	1.1914	3.24852
N	4.94858	0.590047	0.852013
C	5.12414	0.096431	-0.385295
C	6.35932	-0.37831	-0.796462
N	6.26298	-0.711697	-2.09714
C	5.00339	-0.456905	-2.50867
N	4.31782	0.0396186	-1.45887
H	4.61022	-0.638865	-3.50276
H	3.35187	0.327957	-1.47439
