29
  This energy is 0.00178914 and Call times are: 1779
C	-0.91666	0.4238	-0.687191
N	-1.70086	1.00535	-1.71047
H	-1.24937	1.39049	-2.55264
H	-2.72696	1.05002	-1.6254
N	0.43596	0.373619	-0.816743
C	1.21203	-0.179764	0.151929
O	2.42161	-0.213271	0.0134472
N	0.632801	-0.699576	1.28361
C	-0.7164	-0.665788	1.44519
H	1.2291	-1.12533	2.029
C	-1.52233	-0.100734	0.458382
H	-1.16606	-1.07746	2.33992
H	-2.59757	-0.0714987	0.582559
C	8.01037	-0.74643	0.795531
O	8.79035	-0.975483	1.53788
N	7.25914	-1.71891	0.234202
C	6.26085	-1.42923	-0.634742
H	7.42263	-2.67544	0.508186
N	5.40358	-2.45745	-1.08792
H	5.95564	-3.37567	-1.22226
H	4.95434	-2.16957	-2.02735
N	6.00351	-0.162873	-1.02903
C	6.75079	0.828221	-0.514518
C	7.74326	0.565364	0.416078
N	8.25109	1.74342	0.824122
C	7.60242	2.73299	0.175439
N	6.68657	2.16509	-0.635327
H	7.79885	3.7947	0.276029
H	6.04877	2.66292	-1.23684
