29
  This energy is -0.0127436 and Call times are: 2932
C	0.893852	0.800799	-0.227714
N	2.02802	1.64174	-0.145546
H	2.58965	1.67002	0.717696
H	2.30362	2.23229	-0.943931
N	0.545329	0.0285297	0.835777
C	-0.539737	-0.787942	0.782455
O	-0.832201	-1.47046	1.74788
N	-1.30377	-0.842512	-0.357587
C	-0.983579	-0.0837724	-1.43897
H	-2.13842	-1.47026	-0.399254
C	0.126999	0.757271	-1.39577
H	-1.59045	-0.131929	-2.33429
H	0.386067	1.36359	-2.25465
C	5.93229	-1.27711	-0.335217
O	6.5142	-2.07361	-0.824
N	5.05954	-1.54645	0.660231
C	4.38848	-0.5583	1.29961
H	4.94497	-2.50313	0.957527
N	3.5968	-0.864061	2.42978
H	3.11086	-1.81974	2.30133
H	2.84786	-0.0977674	2.56802
N	4.51187	0.737543	0.93781
C	5.34852	1.04035	-0.0690353
C	6.08691	0.0553273	-0.705117
N	6.90158	0.656238	-1.59248
C	6.69299	1.98777	-1.52652
N	5.74733	2.21241	-0.591698
H	7.18597	2.73939	-2.13311
H	5.39485	3.11754	-0.321662
