29
  This energy is 0.000527494 and Call times are: 2844
C	0.128423	-0.283953	-1.18109
N	0.0404263	-0.331677	-2.59186
H	-0.559402	0.337452	-3.09573
H	0.572443	-1.03252	-3.12842
N	-0.580761	0.647727	-0.489782
C	-0.513676	0.714682	0.865893
O	-1.15814	1.55799	1.4633
N	0.27909	-0.166767	1.55943
C	1.00118	-1.1106	0.899604
H	0.331136	-0.115805	2.60208
C	0.940209	-1.18871	-0.490641
H	1.62397	-1.80214	1.45289
H	1.51359	-1.93884	-1.0207
C	5.66276	0.789711	0.480368
O	4.75371	1.41064	0.479021
N	6.25088	0.397203	1.63155
C	7.33508	-0.415242	1.63108
H	5.84013	0.683554	2.50679
N	7.83362	-0.922095	2.85259
H	7.74362	-0.180571	3.63233
H	8.87252	-1.19502	2.73682
N	7.91798	-0.826142	0.483593
C	7.37832	-0.430528	-0.681596
C	6.23853	0.356975	-0.710163
N	5.87347	0.510917	-1.99672
C	6.75242	-0.159389	-2.77066
N	7.66376	-0.733674	-1.95932
H	6.73699	-0.208962	-3.85381
H	8.43769	-1.30524	-2.26062
