29
  This energy is -0.00919513 and Call times are: 2711
C	0.558352	-1.03661	-0.325243
N	1.42743	-2.14837	-0.419862
H	2.21385	-2.24776	0.238228
H	1.28441	-2.86738	-1.14422
N	0.762507	-0.0978147	0.636974
C	-0.0580044	0.979687	0.749168
O	0.144894	1.80752	1.61919
N	-1.11293	1.13369	-0.116757
C	-1.34565	0.213981	-1.09019
H	-1.74437	1.96217	-0.0310064
C	-0.510769	-0.895096	-1.21477
H	-2.17916	0.341906	-1.76925
H	-0.692107	-1.63043	-1.98861
C	6.56333	0.637286	-1.20081
O	6.69958	1.01543	-2.22569
N	5.37026	0.710929	-0.571282
C	5.19046	0.192033	0.667263
H	4.5902	1.12299	-1.05961
N	3.89588	0.157468	1.23328
H	3.34107	1.04191	0.957794
H	3.97028	0.102824	2.30971
N	6.20519	-0.37152	1.35869
C	7.41427	-0.435196	0.776047
C	7.61339	0.0400961	-0.510247
N	8.88054	-0.243623	-0.86523
C	9.47636	-0.883461	0.162607
N	8.57293	-0.999348	1.15709
H	10.5053	-1.22493	0.188328
H	8.73658	-1.44292	2.04754
