29
  This energy is 0.00679306 and Call times are: 2073
C	-0.897467	0.560708	-0.610134
N	-1.76104	1.51356	-1.19885
H	-1.57879	2.52049	-1.07929
H	-2.57768	1.21277	-1.75088
N	0.175232	0.976125	0.114867
C	1.02017	0.0809694	0.690732
O	1.97446	0.477046	1.33559
N	0.797591	-1.26651	0.54525
C	-0.265282	-1.71604	-0.172956
H	1.44705	-1.95551	0.987887
C	-1.13852	-0.807236	-0.768046
H	-0.434509	-2.7797	-0.283408
H	-1.98659	-1.16049	-1.34112
C	6.05175	-0.647087	1.04466
O	5.22962	-1.0348	1.6657
N	7.34008	-0.968593	1.29365
C	8.34441	-0.537723	0.492879
H	7.54499	-1.58012	2.06877
N	9.65968	-1.01236	0.698584
H	9.85535	-1.13322	1.7536
H	10.369	-0.312426	0.2812
N	8.11768	0.280648	-0.557929
C	6.8512	0.646296	-0.818222
C	5.79949	0.177701	-0.0472272
N	4.65344	0.623271	-0.595155
C	4.96086	1.35498	-1.68646
N	6.30312	1.35957	-1.81661
H	4.25264	1.86399	-2.33086
H	6.81834	1.82178	-2.54965
