29
  This energy is 0.00256699 and Call times are: 2477
C	-1.19304	0.184859	-0.185971
N	-2.47441	0.367369	-0.756105
H	-2.59381	0.342444	-1.77911
H	-3.2983	0.526458	-0.157755
N	-0.117405	-0.0239205	-0.991143
C	1.12433	-0.202074	-0.468462
O	2.07267	-0.387523	-1.20985
N	1.30819	-0.1729	0.892333
C	0.254643	0.0335441	1.72601
H	2.26295	-0.309855	1.29497
C	-1.02341	0.217486	1.20128
H	0.407073	0.055291	2.79769
H	-1.86578	0.382268	1.86135
C	8.01284	0.407825	0.200984
O	8.99118	0.529859	0.690762
N	7.79906	0.821159	-1.06733
C	6.61201	0.616814	-1.68759
H	8.55994	1.25014	-1.5711
N	6.47268	0.930399	-3.05864
H	7.03603	1.8193	-3.30042
H	5.43024	1.09345	-3.29093
N	5.56526	0.0442539	-1.0537
C	5.73159	-0.352343	0.219277
C	6.95095	-0.203441	0.860438
N	6.85218	-0.773397	2.076
C	5.6065	-1.27453	2.2101
N	4.93214	-1.01659	1.0711
H	5.2145	-1.77745	3.08721
H	3.97805	-1.28257	0.882956
