29
  This energy is 0.0010705 and Call times are: 5609
C	-0.236228	-0.0374961	-1.19787
N	-0.763989	0.171775	-2.49323
H	-1.53078	0.844666	-2.63697
H	-0.389383	-0.343743	-3.30319
N	-0.743022	0.651737	-0.140989
C	-0.253649	0.469025	1.11359
O	-0.723766	1.09793	2.04465
N	0.768363	-0.422685	1.32984
C	1.29807	-1.12811	0.295729
H	1.1452	-0.563674	2.29449
C	0.804179	-0.94898	-0.995235
H	2.10358	-1.82933	0.473668
H	1.22289	-1.50862	-1.82221
C	5.55263	0.0281879	0.49628
O	4.64631	0.408571	0.992092
N	5.55688	-1.14978	-0.165185
C	6.65689	-1.58743	-0.823982
H	4.70448	-1.68719	-0.201722
N	6.58032	-2.74984	-1.62427
H	5.92704	-3.47847	-1.16789
H	7.56576	-3.17689	-1.7416
N	7.82003	-0.900345	-0.805157
C	7.86211	0.261505	-0.131548
C	6.73704	0.758382	0.506769
N	7.04519	1.96994	1.00614
C	8.32976	2.24291	0.695987
N	8.81802	1.19705	-0.0014506
H	8.87537	3.13708	0.976473
H	9.75282	1.12631	-0.372355
