30
  This energy is -0.0112886 and Call times are: 1628
C	0.979693	0.0361782	0.978736
N	2.02611	-0.0408464	0.114363
C	1.77473	-0.115453	-1.21533
C	-0.328917	0.0351053	0.451572
C	-0.448133	-0.0467053	-0.94561
N	0.570858	-0.124148	-1.82756
H	2.6434	-0.174901	-1.8587
N	1.23628	0.110569	2.30689
H	2.19419	0.106746	2.61669
H	0.483127	0.168607	2.97195
N	-1.58927	0.101462	1.05653
C	-2.44632	0.0604221	0.045261
N	-1.81053	-0.0293959	-1.1902
H	-3.51917	0.0913977	0.139032
H	-2.24037	-0.074366	-2.10004
C	7.61561	2.00247	-1.72805
C	6.95723	0.961653	-0.868594
H	8.38701	1.55307	-2.36395
H	8.1214	2.75484	-1.112
H	6.88783	2.50928	-2.36893
C	7.80502	0.194983	0.0478517
C	5.62752	0.693033	-0.893633
N	5.04999	-0.276121	-0.0861389
H	4.94375	1.22143	-1.54657
N	7.1256	-0.765371	0.825537
C	5.76693	-1.05778	0.817135
H	7.6926	-1.30697	1.46632
H	4.05799	-0.457604	-0.122895
O	5.23656	-1.92313	1.53532
O	9.03797	0.343166	0.168034
