30
  This energy is -8.4956e-05 and Call times are: 14858
C	0.220288	-1.2311	-0.595737
N	-1.02325	-1.33599	-1.13489
C	-1.91495	-0.336713	-0.92715
C	0.530163	-0.0810015	0.160317
C	-0.486323	0.878616	0.297835
N	-1.72842	0.801964	-0.225136
H	-2.88981	-0.47079	-1.37849
N	1.10794	-2.23264	-0.806292
H	0.822189	-3.02631	-1.35586
H	2.03621	-2.18435	-0.420428
N	1.69021	0.321676	0.831881
C	1.37744	1.49691	1.36093
N	0.0718746	1.88321	1.06948
H	2.03876	2.10654	1.95402
H	-0.396785	2.72776	1.35531
C	8.5142	1.83371	-0.348339
C	9.50804	0.738568	-0.0868569
H	8.47015	2.07432	-1.41678
H	8.80603	2.75687	0.165461
H	7.51162	1.55092	-0.013512
C	10.9	0.969361	-0.481386
C	9.19009	-0.446938	0.491426
N	10.1328	-1.43906	0.719066
H	8.18138	-0.683445	0.807069
N	11.7813	-0.0971205	-0.20844
C	11.4792	-1.31849	0.38192
H	12.749	0.0411001	-0.472998
H	9.87171	-2.31288	1.15105
O	12.3139	-2.21575	0.591824
O	11.3228	2.01213	-1.0203
