30
  This energy is -0.00458502 and Call times are: 2052
C	-0.0996262	-0.156374	1.37283
N	1.15005	0.304678	1.64452
C	1.94146	0.699512	0.61758
C	-0.520531	-0.204078	0.0271202
C	0.399129	0.23528	-0.939426
N	1.64462	0.697479	-0.700022
H	2.92619	1.05785	0.889524
N	-0.886794	-0.549823	2.40284
H	-0.524655	-0.489878	3.34031
H	-1.81672	-0.89578	2.23415
N	-1.716	-0.615955	-0.572937
C	-1.51875	-0.428164	-1.8709
N	-0.255108	0.0855591	-2.15013
H	-2.2373	-0.640249	-2.64515
H	0.129735	0.312165	-3.05298
C	6.56545	1.63897	-2.26891
C	6.38297	0.721191	-1.09425
H	7.38003	1.29039	-2.91415
H	6.84178	2.64671	-1.938
H	5.65205	1.7073	-2.86748
C	7.52274	0.526587	-0.194559
C	5.22702	0.0652963	-0.821307
N	5.09103	-0.776551	0.273064
H	4.34636	0.163449	-1.44411
N	7.28559	-0.346235	0.887394
C	6.11216	-1.02814	1.18678
H	8.06027	-0.495187	1.52229
H	4.22054	-1.25348	0.455114
O	5.97672	-1.78505	2.16385
O	8.63791	1.06887	-0.332046
