30
  This energy is -0.0010081 and Call times are: 15508
C	-1.24075	0.516855	0.335299
N	-1.50295	-0.399891	1.30427
C	-0.584208	-1.36203	1.5632
C	-0.0177119	0.4265	-0.362104
C	0.844709	-0.619367	0.00588234
N	0.611779	-1.54303	0.96232
H	-0.843159	-2.066	2.34384
N	-2.16233	1.47656	0.0802977
H	-3.01525	1.48418	0.615142
H	-1.99751	2.1694	-0.630838
N	0.540861	1.19524	-1.38967
C	1.7126	0.623836	-1.63341
N	1.94866	-0.479445	-0.817492
H	2.42253	0.954276	-2.37339
H	2.76047	-1.0757	-0.810948
C	7.3654	-1.52357	2.06616
C	6.92403	-0.734228	0.867176
H	6.68262	-2.35965	2.25637
H	7.35342	-0.902116	2.96895
H	8.37532	-1.92251	1.93147
C	5.58808	-0.13362	0.897435
C	7.68984	-0.547443	-0.237163
N	7.25202	0.187739	-1.32925
H	8.68608	-0.962973	-0.326188
N	5.23541	0.593637	-0.258163
C	6.0017	0.798216	-1.39944
H	4.31582	1.01762	-0.258648
H	7.84041	0.312652	-2.13953
O	5.62184	1.45474	-2.38463
O	4.78679	-0.229297	1.84893
