30
  This energy is -0.000212458 and Call times are: 14145
C	0.161947	1.34289	-0.299104
N	1.0538	1.58856	0.697046
C	1.41823	0.572668	1.5168
C	-0.348041	0.0347374	-0.437032
C	0.113346	-0.924176	0.479826
N	0.996965	-0.709985	1.47758
H	2.13066	0.82278	2.29264
N	-0.199091	2.36171	-1.11581
H	0.202868	3.27193	-0.962425
H	-0.857153	2.21161	-1.86235
N	-1.25805	-0.532619	-1.33639
C	-1.34137	-1.80391	-0.967914
N	-0.532123	-2.09672	0.126642
H	-1.95746	-2.54901	-1.44332
H	-0.422342	-2.98494	0.588829
C	4.95545	1.10346	-0.627687
C	6.36227	0.679609	-0.316821
H	4.29091	0.904252	0.220902
H	4.55465	0.535568	-1.47518
H	4.90382	2.16979	-0.867516
C	6.59366	-0.726272	0.024286
C	7.42565	1.52214	-0.334036
N	8.71398	1.09856	-0.0414204
H	7.32615	2.57283	-0.577422
N	7.93515	-1.0583	0.305079
C	9.03906	-0.214003	0.293823
H	8.11796	-2.02538	0.54328
H	9.48899	1.74457	-0.060963
O	10.1984	-0.580368	0.55371
O	5.70554	-1.60101	0.0757058
