30
  This energy is 0.000272399 and Call times are: 5038
C	-0.0286061	-0.417579	1.32055
N	0.724403	0.609859	1.79533
C	1.17426	1.54915	0.928032
C	-0.310492	-0.461732	-0.0611033
C	0.217375	0.575169	-0.848004
N	0.967154	1.60672	-0.405381
H	1.76893	2.34483	1.35851
N	-0.475857	-1.35389	2.19155
H	-0.238293	-1.26286	3.16565
H	-1.03544	-2.12651	1.87086
N	-1.03851	-1.36273	-0.846635
C	-0.949866	-0.877797	-2.07784
N	-0.200923	0.29447	-2.13737
H	-1.39676	-1.31979	-2.95287
H	0.00873813	0.848343	-2.95215
C	9.0591	-1.60523	1.54871
C	10.1052	-0.822387	0.808304
H	8.45025	-2.19678	0.855345
H	8.36841	-0.935213	2.07351
H	9.51066	-2.28221	2.28017
C	9.65423	0.130941	-0.208633
C	11.4383	-0.948408	1.02757
N	12.3798	-0.209767	0.325583
H	11.8403	-1.63372	1.76366
N	10.6854	0.832896	-0.866345
C	12.0551	0.720788	-0.659075
H	10.3961	1.4975	-1.57345
H	13.3662	-0.321303	0.506852
O	12.9093	1.37646	-1.28068
O	8.46113	0.341799	-0.506297
