30
  This energy is -0.000782611 and Call times are: 6243
C	0.639182	-1.20496	-0.241961
N	-0.0144954	-1.46449	-1.40533
C	-0.933243	-0.575013	-1.8543
C	0.33134	-0.0152019	0.450908
C	-0.6408	0.819066	-0.125253
N	-1.3055	0.587987	-1.27719
H	-1.42398	-0.830367	-2.7849
N	1.55661	-2.09721	0.202539
H	1.72871	-2.92719	-0.340705
H	2.05713	-1.93352	1.0602
N	0.813466	0.532035	1.64546
C	0.145799	1.66958	1.78366
N	-0.748398	1.89403	0.740253
H	0.261468	2.36201	2.60092
H	-1.36502	2.68119	0.618776
C	5.40675	-1.70649	0.334571
C	6.47319	-0.656134	0.212586
H	5.71562	-2.49823	1.02678
H	5.22492	-2.19248	-0.630901
H	4.46502	-1.27925	0.692131
C	7.79609	-1.07561	-0.256868
C	6.28069	0.653225	0.511659
N	7.28786	1.59939	0.388241
H	5.32875	1.03135	0.863675
N	8.75106	-0.0420575	-0.348906
C	8.57729	1.30375	-0.0486186
H	9.6728	-0.309791	-0.671592
H	7.12008	2.56784	0.616908
O	9.47081	2.1618	-0.154889
O	8.10373	-2.24499	-0.564252
