30
  This energy is -0.00472976 and Call times are: 14560
C	0.637529	0.97368	-0.751356
N	1.19173	0.106535	-1.63961
C	0.956564	-1.22038	-1.49522
C	-0.162263	0.452196	0.287273
C	-0.324665	-0.942611	0.321339
N	0.212343	-1.82721	-0.545433
H	1.42155	-1.86615	-2.22925
N	0.875633	2.29903	-0.900031
H	1.45604	2.60478	-1.66373
H	0.4796	2.96603	-0.258796
N	-0.858715	1.06109	1.33754
C	-1.42673	0.0544602	1.98788
N	-1.13714	-1.18171	1.41631
H	-2.04752	0.152164	2.863
H	-1.44874	-2.08867	1.72441
C	4.15798	-0.880349	1.81327
C	5.06218	-0.384054	0.721692
H	4.23462	-0.24494	2.70309
H	4.44391	-1.89051	2.12823
H	3.1134	-0.899622	1.48812
C	6.49694	-0.301539	1.00643
C	4.62639	-0.00950806	-0.507424
N	5.48857	0.445246	-1.49469
H	3.58005	-0.0451726	-0.78486
N	7.28972	0.171682	-0.059523
C	6.86653	0.56055	-1.32493
H	8.28498	0.236662	0.115494
H	5.14019	0.718142	-2.40161
O	7.62811	0.969559	-2.21858
O	7.02554	-0.614321	2.09239
