30
  This energy is -0.000172229 and Call times are: 13297
C	1.36572	0.223542	0.0621362
N	1.34445	0.800499	1.29288
C	0.15816	0.934132	1.93453
C	0.146087	-0.213206	-0.496525
C	-1.01058	-0.0140807	0.275153
N	-1.06248	0.554878	1.49817
H	0.197984	1.39995	2.91098
N	2.55404	0.0922866	-0.575074
H	3.38786	0.425466	-0.119734
H	2.60262	-0.330575	-1.48707
N	-0.166278	-0.830885	-1.71298
C	-1.4812	-0.998987	-1.67281
N	-2.04457	-0.522654	-0.491962
H	-2.0735	-1.45019	-2.45149
H	-3.01609	-0.535661	-0.226318
C	7.34391	-0.916479	-2.20777
C	8.23672	-0.344108	-1.14442
H	6.31419	-0.561082	-2.0862
H	7.30473	-2.00964	-2.13812
H	7.69048	-0.643611	-3.20911
C	7.90144	-0.624049	0.254011
C	9.33108	0.41426	-1.4055
N	10.1358	0.928706	-0.3992
H	9.63619	0.65964	-2.41534
N	8.77881	-0.0580423	1.20192
C	9.90392	0.720757	0.958698
H	8.5658	-0.239095	2.1752
H	10.945	1.49032	-0.618758
O	10.6335	1.18767	1.85064
O	6.92575	-1.30539	0.628678
