30
  This energy is -0.00639413 and Call times are: 5192
C	1.33965	-0.346693	-0.0645735
N	1.32062	-1.13524	1.04263
C	0.158016	-1.28248	1.72345
C	0.142548	0.287253	-0.458804
C	-0.99081	0.049542	0.336189
N	-1.03989	-0.727145	1.43915
H	0.198535	-1.92083	2.5969
N	2.50425	-0.202764	-0.741591
H	3.32277	-0.683484	-0.406146
H	2.55054	0.374185	-1.56493
N	-0.165648	1.1415	-1.52377
C	-1.45532	1.41083	-1.37179
N	-2.00613	0.776171	-0.261617
H	-2.03743	2.04575	-2.01892
H	-2.95865	0.823074	0.0625893
C	10.978	-0.326856	0.102049
C	9.49492	-0.234799	-0.115932
H	11.2044	-0.88688	1.01667
H	11.4162	0.669335	0.232143
H	11.4751	-0.818752	-0.739449
C	8.68819	0.401915	0.928178
C	8.8637	-0.706337	-1.22053
N	7.49055	-0.605744	-1.39139
H	9.39847	-1.18776	-2.03004
N	7.30439	0.45612	0.662019
C	6.6363	-0.0192931	-0.46013
H	6.72756	0.892432	1.37076
H	7.04398	-0.964229	-2.2223
O	5.40692	0.0645119	-0.625979
O	9.14336	0.875378	1.98894
