30
  This energy is -0.00544933 and Call times are: 4635
C	-0.993667	0.765981	-0.587308
N	-1.45782	1.28826	0.578821
C	-0.865576	0.924618	1.74237
C	0.0896457	-0.136299	-0.535464
C	0.610226	-0.427516	0.736231
N	0.170823	0.0748416	1.90958
H	-1.27408	1.36967	2.64076
N	-1.58908	1.13264	-1.74766
H	-2.35828	1.78133	-1.71415
H	-1.26843	0.76339	-2.62728
N	0.785069	-0.832923	-1.53043
C	1.70283	-1.52704	-0.871041
N	1.64292	-1.31974	0.504499
H	2.4265	-2.18528	-1.32246
H	2.22913	-1.73025	1.21333
C	3.92089	1.86277	0.497181
C	5.06974	0.979847	0.102194
H	3.98197	2.13217	1.55788
H	2.96509	1.34308	0.36396
H	3.9026	2.78257	-0.0951677
C	5.22802	-0.293889	0.80855
C	5.96495	1.29469	-0.867543
N	7.0164	0.456266	-1.20864
H	5.90722	2.21924	-1.42875
N	6.3252	-1.07487	0.390272
C	7.25385	-0.773655	-0.598885
H	6.45346	-1.9599	0.865332
H	7.66954	0.712711	-1.93389
O	8.20024	-1.51569	-0.91455
O	4.47637	-0.70134	1.71716
