30
  This energy is -1.358e-05 and Call times are: 2986
C	-0.985026	0.432255	-0.872875
N	-0.167722	0.515624	-1.95599
C	1.1408	0.191047	-1.81717
C	-0.432977	0.00942868	0.354652
C	0.937967	-0.29636	0.35996
N	1.77323	-0.223146	-0.697938
H	1.74666	0.27495	-2.71044
N	-2.29218	0.757791	-1.01686
H	-2.6218	1.05223	-1.92143
H	-2.92245	0.706292	-0.23391
N	-0.990455	-0.177383	1.62476
C	0.0230375	-0.586243	2.37613
N	1.21489	-0.676294	1.66196
H	-0.0392191	-0.828699	3.42403
H	2.11734	-0.961118	2.00701
C	10.0511	-0.811815	2.14916
C	10.843	-0.207615	1.0252
H	10.7137	-1.27867	2.88699
H	9.39105	-1.60502	1.77964
H	9.44044	-0.0589881	2.65669
C	11.7124	-1.09379	0.247206
C	10.7984	1.10687	0.691915
N	11.5434	1.63408	-0.353009
H	10.1779	1.81702	1.22454
N	12.4276	-0.464431	-0.792532
C	12.3981	0.877769	-1.15198
H	13.0349	-1.05863	-1.34347
H	11.4932	2.61566	-0.58175
O	13.0602	1.36311	-2.08582
O	11.8441	-2.31782	0.449592
