30
  This energy is 0.000392298 and Call times are: 15486
C	-0.673096	0.0811081	1.20805
N	0.173603	-0.742395	1.88112
C	1.23052	-1.27721	1.22252
C	-0.413604	0.344572	-0.153421
C	0.716082	-0.274391	-0.713526
N	1.57357	-1.09548	-0.0711108
H	1.87258	-1.92548	1.80523
N	-1.72807	0.613145	1.87088
H	-1.85564	0.384024	2.8429
H	-2.37267	1.22631	1.40033
N	-1.07586	1.12859	-1.10505
C	-0.359913	0.98374	-2.21199
N	0.736822	0.144892	-2.03262
H	-0.578356	1.45039	-3.15818
H	1.42599	-0.119645	-2.71794
C	8.92094	1.3387	-1.53371
C	7.76692	0.731644	-0.788624
H	9.4379	0.582909	-2.13616
H	9.66546	1.74313	-0.838361
H	8.58901	2.14424	-2.19565
C	8.05314	-0.363807	0.14114
C	6.48029	1.13915	-0.928082
N	5.43604	0.556628	-0.22448
H	6.19824	1.94254	-1.59747
N	6.927	-0.888929	0.808032
C	5.60214	-0.488533	0.68158
H	7.10198	-1.64727	1.45588
H	4.48695	0.877485	-0.345393
O	4.65718	-1.00152	1.30592
O	9.18868	-0.831544	0.361
