30
  This energy is -0.00149476 and Call times are: 13471
C	-0.301559	-0.548346	-1.23588
N	-1.3665	-1.27106	-0.798104
C	-1.70864	-1.20774	0.511771
C	0.404705	0.240073	-0.303174
C	-0.0557342	0.215102	1.02362
N	-1.10841	-0.491555	1.48696
H	-2.56384	-1.80237	0.806911
N	0.0363687	-0.615058	-2.54612
H	-0.510222	-1.19765	-3.15883
H	0.819549	-0.0918125	-2.90073
N	1.51772	1.07925	-0.42902
C	1.72122	1.54783	0.79487
N	0.797896	1.05775	1.71463
H	2.50483	2.23194	1.07542
H	0.74334	1.26387	2.69908
C	4.54171	-1.02903	-0.855737
C	5.82839	-0.562395	-0.23757
H	4.73346	-1.61115	-1.76446
H	3.92222	-0.176983	-1.15845
H	3.96658	-1.64809	-0.160579
C	6.71099	0.28008	-1.04853
C	6.21711	-0.876233	1.02391
N	7.41337	-0.428754	1.56572
H	5.61363	-1.49425	1.67731
N	7.90171	0.683692	-0.409795
C	8.3205	0.375268	0.879023
H	8.5268	1.26706	-0.952343
H	7.68059	-0.67576	2.50696
O	9.38943	0.769609	1.37681
O	6.47218	0.640278	-2.21891
