30
  This energy is 0.0011832 and Call times are: 1276
C	-0.624679	-0.00104988	-1.23645
N	-1.88714	0.0946142	-0.741369
C	-2.06301	0.149543	0.601351
C	0.452888	-0.0391857	-0.326638
C	0.130552	0.0257141	1.03898
N	-1.11136	0.12091	1.55934
H	-3.08791	0.225198	0.941808
N	-0.454219	-0.0556437	-2.57933
H	-1.26673	-0.0238716	-3.17297
H	0.467807	-0.126673	-2.97648
N	1.83752	-0.132305	-0.508274
C	2.33567	-0.123528	0.720811
N	1.34723	-0.0294076	1.69692
H	3.38304	-0.181449	0.966644
H	1.47158	-0.00460005	2.69618
C	7.26009	2.69406	0.751222
C	7.15966	1.21305	0.523279
H	6.54926	3.23601	0.116872
H	8.25713	3.06349	0.485094
H	7.06085	2.95134	1.7959
C	7.40163	0.711451	-0.831804
C	6.85861	0.318129	1.49766
N	6.77327	-1.04501	1.25389
H	6.66815	0.619947	2.52025
N	7.29189	-0.686855	-0.978027
C	6.98521	-1.62175	0.0035494
H	7.45538	-1.0554	-1.90693
H	6.54774	-1.69107	1.99557
O	6.90575	-2.84555	-0.201125
O	7.68623	1.42586	-1.81425
