30
  This energy is -0.000237283 and Call times are: 10138
C	-1.25687	-0.109276	-0.572168
N	-1.92619	0.411291	0.490416
C	-1.22352	0.79924	1.58247
C	0.146984	-0.223652	-0.491641
C	0.750421	0.216138	0.698094
N	0.112822	0.736485	1.76809
H	-1.8053	1.20663	2.39955
N	-1.96383	-0.495558	-1.66136
H	-2.96465	-0.386442	-1.65362
H	-1.49723	-0.884558	-2.46377
N	1.10687	-0.705108	-1.38924
C	2.26105	-0.557772	-0.752807
N	2.10473	-0.00446313	0.515294
H	3.2266	-0.827054	-1.14774
H	2.82552	0.203795	1.18737
C	9.7155	1.6275	0.438944
C	11.0007	0.858669	0.327081
H	8.89391	0.97189	0.749692
H	9.42636	2.04825	-0.530978
H	9.80109	2.44478	1.16142
C	11.0434	-0.27078	-0.605078
C	12.119	1.15033	1.03792
N	13.2915	0.419469	0.911392
H	12.157	1.9708	1.74392
N	12.2781	-0.949765	-0.662397
C	13.4351	-0.669796	0.0547899
H	12.3299	-1.73417	-1.30069
H	14.1106	0.656071	1.45128
O	14.4921	-1.3162	-0.0490681
O	10.0878	-0.642712	-1.31579
