30
  This energy is -0.00234152 and Call times are: 1073
C	0.854603	1.09025	0.00560304
N	0.493124	1.52905	1.24046
C	-0.445825	0.839434	1.93303
C	0.233645	-0.0695689	-0.503891
C	-0.723146	-0.687916	0.317827
N	-1.102	-0.275916	1.5462
H	-0.696405	1.23188	2.91039
N	1.79359	1.78309	-0.682608
H	2.19737	2.60318	-0.260689
H	2.08241	1.48359	-1.59901
N	0.378017	-0.763799	-1.71057
C	-0.473062	-1.77649	-1.6157
N	-1.16662	-1.77979	-0.408374
H	-0.631202	-2.52749	-2.37184
H	-1.86214	-2.44071	-0.101703
C	5.7838	2.38553	0.861538
C	5.08031	1.09136	0.568899
H	5.43432	3.18013	0.1923
H	6.86265	2.29049	0.692901
H	5.61973	2.70389	1.89545
C	5.20646	0.533911	-0.780078
C	4.33791	0.413082	1.47978
N	3.69988	-0.781155	1.17719
H	4.20281	0.76787	2.49415
N	4.52256	-0.681557	-0.9889
C	3.75734	-1.3935	-0.0728579
H	4.59633	-1.08496	-1.91477
H	3.15307	-1.26727	1.8722
O	3.18068	-2.46445	-0.330636
O	5.85754	1.05626	-1.70734
