30
  This energy is 0.000485918 and Call times are: 14303
C	-0.8511	0.1435	1.08354
N	-0.0713652	-0.554488	1.95124
C	1.10078	-1.07206	1.50962
C	-0.404156	0.299574	-0.245457
C	0.829616	-0.287581	-0.571155
N	1.62449	-0.985208	0.267694
H	1.68247	-1.61842	2.24118
N	-2.02181	0.658837	1.52989
H	-2.28169	0.510672	2.49119
H	-2.62098	1.18034	0.911885
N	-0.957631	0.945859	-1.35669
C	-0.0759632	0.751211	-2.32811
N	1.02589	0.0105193	-1.90863
H	-0.174646	1.11361	-3.33791
H	1.82414	-0.266582	-2.45691
C	8.68436	0.969663	2.59257
C	9.07685	0.406337	1.25688
H	7.81925	0.435985	3.00265
H	8.38547	2.02021	2.50085
H	9.50703	0.903174	3.31092
C	8.07717	0.424961	0.186042
C	10.2997	-0.116486	0.988071
N	10.6308	-0.629642	-0.257673
H	11.0849	-0.161759	1.73274
N	8.50889	-0.118233	-1.04166
C	9.75415	-0.658482	-1.34005
H	7.83354	-0.115371	-1.79618
H	11.5475	-1.01329	-0.433233
O	10.064	-1.1213	-2.45166
O	6.91966	0.875939	0.301582
