30
  This energy is -0.00355874 and Call times are: 4928
C	1.21999	-0.655718	0.0264104
N	1.31079	-0.701185	1.38205
C	0.313101	-0.163064	2.12494
C	0.0856413	-0.0473935	-0.55114
C	-0.874114	0.470688	0.334006
N	-0.811233	0.440211	1.68208
H	0.435565	-0.226245	3.19875
N	2.21987	-1.19501	-0.711666
H	3.00192	-1.61421	-0.236002
H	2.18177	-1.17701	-1.71721
N	-0.300569	0.15693	-1.88078
C	-1.46626	0.783735	-1.79612
N	-1.86196	0.999682	-0.478749
H	-2.06237	1.1021	-2.6352
H	-2.70219	1.45213	-0.156415
C	7.40409	2.48837	0.796381
C	6.81404	1.23623	0.213778
H	8.46798	2.35086	1.02137
H	6.91749	2.74506	1.74439
H	7.29973	3.33493	0.111047
C	6.87684	0.0124529	1.01678
C	6.22907	1.17554	-1.00894
N	5.69315	0.00176712	-1.51874
H	6.14878	2.04157	-1.65441
N	6.30558	-1.12659	0.412695
C	5.70196	-1.21273	-0.836224
H	6.33791	-1.98397	0.950532
H	5.26294	-0.0180924	-2.43135
O	5.21773	-2.25762	-1.30487
O	7.3858	-0.067128	2.15309
