30
  This energy is 0.000678885 and Call times are: 16337
C	-1.02378	0.075837	-0.930139
N	-1.89639	0.715609	-0.107155
C	-1.50894	1.01172	1.15738
C	0.25348	-0.253726	-0.429775
C	0.52589	0.110993	0.899057
N	-0.319199	0.745767	1.73874
H	-2.24191	1.52111	1.77001
N	-1.41588	-0.217899	-2.1932
H	-2.34204	0.045608	-2.4871
H	-0.79279	-0.69093	-2.82638
N	1.35494	-0.896688	-1.00619
C	2.26849	-0.917667	-0.0450081
N	1.82045	-0.321131	1.13061
H	3.2548	-1.34174	-0.135057
H	2.32521	-0.213843	1.99566
C	7.57888	-1.57352	-1.42897
C	8.53582	-0.849909	-0.525601
H	8.07243	-1.87428	-2.36029
H	6.74502	-0.922747	-1.71629
H	7.17257	-2.46727	-0.945897
C	9.1648	0.37199	-1.03329
C	8.84888	-1.26289	0.728341
N	9.73795	-0.571057	1.53814
H	8.42106	-2.1566	1.16575
N	10.0519	1.00244	-0.136441
C	10.3876	0.598771	1.15038
H	10.498	1.84929	-0.466954
H	9.95478	-0.8984	2.46776
O	11.1822	1.20919	1.88647
O	8.96364	0.858124	-2.16456
