30
  This energy is -0.00431084 and Call times are: 11006
C	0.620559	-1.2194	-0.216803
N	0.262812	-1.31353	-1.52494
C	-0.472795	-0.318234	-2.07731
C	0.208575	-0.0842206	0.512581
C	-0.54994	0.872812	-0.181511
N	-0.919811	0.806603	-1.47804
H	-0.730132	-0.44331	-3.12142
N	1.35586	-2.21691	0.330617
H	1.61677	-2.99973	-0.246195
H	1.63629	-2.17632	1.29634
N	0.406393	0.3051	1.8423
C	-0.219341	1.46995	1.94456
N	-0.816273	1.86215	0.749354
H	-0.276031	2.06784	2.83903
H	-1.34528	2.70113	0.573661
C	5.56228	2.24272	-1.63504
C	5.28708	0.9609	-0.902491
H	6.63673	2.45851	-1.65464
H	5.08498	3.09092	-1.13093
H	5.19694	2.19967	-2.66553
C	5.7188	0.864855	0.494215
C	4.66409	-0.107985	-1.45953
N	4.42492	-1.27892	-0.754861
H	4.31927	-0.105075	-2.48626
N	5.43064	-0.363651	1.12383
C	4.79476	-1.47068	0.574553
H	5.72034	-0.451812	2.09012
H	3.95941	-2.06066	-1.19136
O	4.57405	-2.52558	1.19455
O	6.30011	1.77231	1.12284
