30
  This energy is -0.000461276 and Call times are: 14494
C	0.23374	-1.34307	-0.246092
N	0.555903	-1.65355	1.03761
C	0.536872	-0.674101	1.97417
C	-0.108093	-0.00828127	-0.549166
C	-0.0880147	0.907415	0.515784
N	0.227231	0.628754	1.79842
H	0.801495	-0.975503	2.97975
N	0.254266	-2.32568	-1.17852
H	0.50738	-3.25797	-0.895041
H	0.0207622	-2.12749	-2.13721
N	-0.479562	0.622376	-1.74212
C	-0.678156	1.88858	-1.40127
N	-0.455447	2.11799	-0.0461213
H	-0.978371	2.67332	-2.07567
H	-0.539762	2.99003	0.450897
C	4.08926	1.57369	-0.135468
C	5.35768	0.805379	0.101654
H	3.24326	0.893609	-0.287676
H	4.16516	2.1821	-1.04402
H	3.8588	2.23301	0.706811
C	5.80033	-0.1231	-0.941603
C	6.1127	0.922565	1.22287
N	7.28041	0.197477	1.41141
H	5.84419	1.58954	2.03289
N	6.9972	-0.812447	-0.657051
C	7.78631	-0.709039	0.482329
H	7.3218	-1.45966	-1.36498
H	7.82511	0.302122	2.25444
O	8.83462	-1.35246	0.663921
O	5.19973	-0.323589	-2.01662
