30
  This energy is 4.9364e-05 and Call times are: 3404
C	1.35557	0.196275	0.207211
N	1.72642	-0.128855	-1.05961
C	0.770307	-0.481234	-1.95321
C	-0.0151202	0.152566	0.538359
C	-0.900877	-0.229206	-0.482771
N	-0.562444	-0.557081	-1.74774
H	1.11999	-0.730364	-2.94704
N	2.31507	0.547811	1.09667
H	3.27552	0.558499	0.794972
H	2.07237	0.793842	2.04191
N	-0.707746	0.422041	1.72433
C	-1.98107	0.206919	1.42223
N	-2.15632	-0.189519	0.0990589
H	-2.80819	0.318363	2.10357
H	-3.02202	-0.410161	-0.366207
C	15.9609	0.339685	0.799133
C	14.5254	0.0215382	0.493297
H	16.0683	1.3782	1.13281
H	16.5834	0.236147	-0.0970466
H	16.3585	-0.318917	1.57722
C	13.851	0.821201	-0.532405
C	13.8217	-0.960327	1.11115
N	12.4954	-1.22892	0.805339
H	14.2581	-1.58859	1.87795
N	12.5058	0.47184	-0.771363
C	11.7653	-0.528076	-0.152105
H	12.0201	1.01195	-1.47693
H	11.9931	-1.96494	1.27894
O	10.5767	-0.779385	-0.416605
O	14.3826	1.75026	-1.17334
