30
  This energy is -0.000154526 and Call times are: 17385
C	-0.831903	0.3957	-1.0346
N	-1.9906	0.145615	-0.369052
C	-1.92969	-0.335851	0.896383
C	0.389651	0.141972	-0.375968
C	0.310102	-0.356397	0.93488
N	-0.823913	-0.6141	1.62028
H	-2.88107	-0.517325	1.3801
N	-0.898174	0.876894	-2.29928
H	-1.80313	1.03582	-2.71085
H	-0.058142	1.07201	-2.8181
N	1.72354	0.289552	-0.773227
C	2.42938	-0.111231	0.275609
N	1.62489	-0.513382	1.33851
H	3.50525	-0.133973	0.327944
H	1.92194	-0.856228	2.23785
C	8.73274	-0.472471	-2.51557
C	8.23929	-0.34772	-1.10264
H	9.12714	0.484016	-2.87748
H	7.91505	-0.746444	-3.19212
H	9.52048	-1.22741	-2.59785
C	7.17922	0.626577	-0.831699
C	8.71836	-1.08338	-0.0681245
N	8.24064	-0.943654	1.22691
H	9.50111	-1.82071	-0.197452
N	6.76155	0.694053	0.513544
C	7.23666	-0.0479591	1.58837
H	6.02921	1.36117	0.723414
H	8.61318	-1.50268	1.97994
O	6.8175	0.0670269	2.75327
O	6.65374	1.36303	-1.69081
