30
  This energy is 0.000286655 and Call times are: 3118
C	-1.10335	0.223482	-0.807286
N	-1.42993	-1.08917	-0.942813
C	-0.665694	-2.02264	-0.325233
C	0.0224138	0.558717	-0.025851
C	0.726806	-0.506693	0.558746
N	0.42673	-1.81762	0.442083
H	-0.969893	-3.05206	-0.465966
N	-1.87044	1.15268	-1.42659
H	-2.66056	0.845469	-1.96965
H	-1.65453	2.13232	-1.34538
N	0.610316	1.78544	0.303348
C	1.64471	1.46399	1.06858
N	1.76312	0.0894606	1.25652
H	2.33303	2.16608	1.50908
H	2.46152	-0.398845	1.79354
C	14.9511	2.14803	1.33328
C	14.1823	0.996013	0.752673
H	14.9983	2.98293	0.624673
H	15.9878	1.85998	1.54227
H	14.495	2.50468	2.26169
C	14.672	0.406565	-0.495959
C	13.0647	0.473425	1.31729
N	12.3767	-0.592061	0.754841
H	12.6482	0.860486	2.23916
N	13.9056	-0.670352	-0.987356
C	12.7593	-1.22193	-0.427431
H	14.2263	-1.0931	-1.8498
H	11.5475	-0.963394	1.19397
O	12.1336	-2.17643	-0.920638
O	15.6844	0.791784	-1.11509
