30
  This energy is 0.0002842 and Call times are: 7677
C	-1.08221	0.0539786	-0.863099
N	-1.40066	1.3465	-0.587337
C	-0.650008	2.03004	0.310509
C	0.0212188	-0.522582	-0.199483
C	0.71337	0.297263	0.70705
N	0.420908	1.58192	1.00082
H	-0.946896	3.05505	0.49291
N	-1.83565	-0.624928	-1.7613
H	-2.61001	-0.153677	-2.19936
H	-1.62528	-1.58297	-1.9867
N	0.596028	-1.79734	-0.258118
C	1.61076	-1.74431	0.594171
N	1.72873	-0.499716	1.20715
H	2.28475	-2.55709	0.808392
H	2.41423	-0.212762	1.88711
C	10.1348	2.44916	1.34827
C	10.0794	1.05624	0.789596
H	9.2259	3.00756	1.09622
H	10.9724	3.00975	0.917533
H	10.2462	2.43832	2.43672
C	9.93173	0.905983	-0.660235
C	10.158	-0.0652937	1.54915
N	10.1033	-1.33885	1.0015
H	10.2676	-0.0270374	2.62599
N	9.88638	-0.426522	-1.11965
C	9.96476	-1.58901	-0.36199
H	9.78472	-0.553687	-2.1191
H	10.164	-2.15812	1.58756
O	9.91736	-2.73593	-0.839739
O	9.84845	1.85278	-1.46845
