30
  This energy is -0.00378205 and Call times are: 4208
C	0.449555	1.0236	0.818027
N	-0.723003	1.71148	0.817302
C	-1.77174	1.21985	0.113537
C	0.524232	-0.17803	0.0825927
C	-0.636535	-0.573925	-0.602175
N	-1.81318	0.087381	-0.621305
H	-2.68093	1.80663	0.1469
N	1.49486	1.51923	1.52305
H	1.37434	2.38269	2.02655
H	2.37595	1.03325	1.54323
N	1.55908	-1.09913	-0.116234
C	1.03162	-2.02751	-0.902856
N	-0.295498	-1.76035	-1.22853
H	1.54801	-2.901	-1.26496
H	-0.908497	-2.31146	-1.80742
C	7.36167	1.23457	1.83859
C	6.53248	0.416585	0.890559
H	6.73114	1.70981	2.59884
H	7.87377	2.04623	1.30912
H	8.11288	0.620008	2.34381
C	5.47995	1.10178	0.136179
C	6.70291	-0.915182	0.694919
N	5.91906	-1.64258	-0.189001
H	7.46131	-1.48356	1.21919
N	4.73871	0.277513	-0.735506
C	4.8948	-1.0864	-0.952182
H	4.00574	0.730755	-1.26724
H	6.06524	-2.6328	-0.317307
O	4.19976	-1.75004	-1.74111
O	5.22038	2.31902	0.222916
