30
  This energy is -0.00192808 and Call times are: 4347
C	-0.204155	1.35453	-0.206418
N	1.061	1.61043	-0.632992
C	1.95104	0.590306	-0.696419
C	-0.537372	0.0317299	0.153495
C	0.480088	-0.930077	0.0406865
N	1.74333	-0.705971	-0.379048
H	2.94368	0.848995	-1.04253
N	-1.09005	2.37764	-0.144811
H	-0.787033	3.29849	-0.416483
H	-2.03397	2.22023	0.166844
N	-1.72246	-0.54845	0.620212
C	-1.42344	-1.8301	0.784058
N	-0.103109	-2.11752	0.448224
H	-2.10511	-2.58661	1.13589
H	0.359576	-3.0114	0.486946
C	9.2475	-1.51101	1.0732
C	8.17994	-0.563897	0.605516
H	9.86621	-1.8477	0.233426
H	8.80485	-2.41218	1.5129
H	9.89735	-1.04296	1.81877
C	7.22764	-1.04764	-0.397233
C	8.04907	0.708659	1.05762
N	7.05093	1.55913	0.604569
H	8.71795	1.13026	1.79784
N	6.2516	-0.109977	-0.79323
C	6.09811	1.19657	-0.344947
H	5.58268	-0.423456	-1.48583
H	6.9741	2.50187	0.956267
O	5.2084	1.96892	-0.742192
O	7.23747	-2.19237	-0.893284
