30
  This energy is -0.0087 and Call times are: 2338
C	-0.723392	-0.300856	1.14246
N	0.243109	-1.07358	1.70535
C	1.41093	-1.2513	1.04092
C	-0.467604	0.285402	-0.11501
C	0.784329	0.019935	-0.693983
N	1.76214	-0.742047	-0.159705
H	2.1457	-1.87524	1.53373
N	-1.88892	-0.126324	1.81062
H	-2.00687	-0.573457	2.70491
H	-2.62365	0.439986	1.42028
N	-1.23453	1.11303	-0.943096
C	-0.460493	1.33958	-1.99592
N	0.773569	0.702196	-1.89841
H	-0.729763	1.94453	-2.84579
H	1.52846	0.720652	-2.56504
C	7.9547	0.40623	1.73973
C	6.87332	0.318772	0.70127
H	8.45948	-0.559199	1.86031
H	7.53538	0.661261	2.71979
H	8.70268	1.15946	1.47436
C	5.79465	-0.64896	0.916624
C	6.83998	1.08225	-0.419855
N	5.82586	0.976684	-1.36074
H	7.60462	1.81661	-0.641464
N	4.81213	-0.680898	-0.0944692
C	4.75707	0.0899981	-1.24957
H	4.05673	-1.34288	0.0342268
H	5.82309	1.55597	-2.18704
O	3.85438	0.00575058	-2.10043
O	5.70715	-1.40859	1.90246
