30
  This energy is -0.00542242 and Call times are: 8007
C	0.960388	0.107802	0.992505
N	1.53456	-1.09948	0.745771
C	1.03306	-1.87398	-0.246947
C	-0.137938	0.504035	0.200644
C	-0.557052	-0.394092	-0.794712
N	-0.00744808	-1.59759	-1.06251
H	1.52724	-2.82482	-0.401011
N	1.46538	0.878219	1.98588
H	2.25138	0.535482	2.51346
H	1.06229	1.77687	2.19284
N	-0.932628	1.65613	0.19938
C	-1.80946	1.45446	-0.774981
N	-1.62857	0.229096	-1.41093
H	-2.58553	2.14351	-1.06427
H	-2.16355	-0.150866	-2.17514
C	8.64041	-0.204058	0.744624
C	7.25653	-0.00627392	0.195814
H	8.85918	-1.26979	0.877856
H	8.73821	0.25839	1.73355
H	9.39753	0.226667	0.0824384
C	6.13083	-0.530256	0.973399
C	6.99209	0.627412	-0.974417
N	5.70091	0.793567	-1.4541
H	7.77599	1.03845	-1.59861
N	4.8597	-0.311626	0.403208
C	4.56478	0.333546	-0.791925
H	4.0669	-0.665671	0.924301
H	5.52968	1.26877	-2.32772
O	3.41285	0.489437	-1.23312
O	6.23672	-1.13068	2.06191
