30
  This energy is -0.00361689 and Call times are: 3832
C	-0.553104	0.994736	-0.789689
N	-1.27682	1.56374	0.210582
C	-1.20998	1.02979	1.45448
C	0.240005	-0.13237	-0.488069
C	0.218341	-0.583676	0.841921
N	-0.489208	-0.0399893	1.85482
H	-1.8056	1.5213	2.21322
N	-0.623352	1.53222	-2.03127
H	-1.20921	2.33761	-2.1786
H	-0.0994747	1.13378	-2.79266
N	1.08132	-0.930393	-1.27178
C	1.55439	-1.84067	-0.43126
N	1.06522	-1.67849	0.862216
H	2.24123	-2.62881	-0.691758
H	1.27446	-2.23907	1.6725
C	5.09212	0.533122	2.41653
C	5.91781	0.371629	1.17251
H	5.0056	-0.418115	2.95417
H	4.07034	0.843584	2.16959
H	5.52826	1.27598	3.09121
C	5.46023	-0.591617	0.167935
C	7.05847	1.06463	0.92847
N	7.79902	0.891708	-0.231931
H	7.45343	1.7915	1.62757
N	6.27963	-0.695052	-0.975117
C	7.45031	0.00306668	-1.24663
H	5.98184	-1.35528	-1.68282
H	8.64452	1.41924	-0.390674
O	8.12319	-0.141981	-2.28205
O	4.43155	-1.29026	0.269327
