30
  This energy is -4.134e-06 and Call times are: 16028
C	-1.17526	-0.209483	0.702794
N	-1.78659	-0.921508	-0.280754
C	-1.12133	-1.14351	-1.44049
C	0.131501	0.269797	0.472496
C	0.705486	-0.0314807	-0.773616
N	0.123749	-0.73513	-1.76792
H	-1.65382	-1.71562	-2.18961
N	-1.84448	0.00968792	1.86015
H	-2.77538	-0.360605	1.95963
H	-1.41896	0.533138	2.60703
N	1.01487	1.01588	1.26108
C	2.09529	1.1595	0.50547
N	1.96336	0.545282	-0.737107
H	2.98927	1.68691	0.794273
H	2.64101	0.514366	-1.48171
C	11.1255	1.82365	-0.637137
C	10.0649	0.774857	-0.462655
H	11.903	1.72421	0.129062
H	10.7037	2.82873	-0.522009
H	11.5967	1.75455	-1.62227
C	9.34054	0.739503	0.81034
C	9.74178	-0.137392	-1.41363
N	8.75598	-1.09439	-1.22072
H	10.2369	-0.168071	-2.37643
N	8.35883	-0.268005	0.909546
C	8.01095	-1.21193	-0.0493917
H	7.84563	-0.310594	1.78146
H	8.53363	-1.76249	-1.9436
O	7.12982	-2.07449	0.110289
O	9.53994	1.51902	1.76384
