30
  This energy is 0.000608363 and Call times are: 673
C	-0.362784	0.432797	-1.26495
N	-1.219	1.39483	-0.829686
C	-1.39062	1.56602	0.503763
C	0.313277	-0.349464	-0.305071
C	0.0437415	-0.0676734	1.04436
N	-0.799902	0.879674	1.50585
H	-2.08318	2.34523	0.795709
N	-0.194739	0.265666	-2.59882
H	-0.708298	0.858202	-3.23028
H	0.432047	-0.437984	-2.95225
N	1.23749	-1.39405	-0.421373
C	1.51681	-1.73209	0.830263
N	0.822257	-0.961699	1.75911
H	2.20016	-2.51106	1.12523
H	0.863522	-1.02587	2.76349
C	6.93948	2.51605	0.893947
C	6.41776	1.14284	0.581682
H	6.51236	3.26055	0.21227
H	8.02643	2.56072	0.760002
H	6.70299	2.80857	1.92144
C	6.65742	0.608993	-0.761435
C	5.73996	0.372949	1.46982
N	5.27059	-0.892726	1.14949
H	5.52812	0.705356	2.47863
N	6.14233	-0.683822	-0.989462
C	5.44607	-1.49005	-0.0968304
H	6.2968	-1.0725	-1.91168
H	4.76887	-1.44648	1.8277
O	5.02027	-2.62566	-0.370666
O	7.26525	1.21255	-1.66853
