30
  This energy is -5.5876e-05 and Call times are: 11863
C	0.456741	-1.28973	0.216838
N	1.56472	-1.16488	-0.560892
C	1.79774	0.0145661	-1.18656
C	-0.406675	-0.180755	0.339528
C	-0.0472438	0.981662	-0.36234
N	1.04476	1.13489	-1.14095
H	2.69343	0.0598539	-1.79298
N	0.228327	-2.47072	0.840099
H	0.885066	-3.22264	0.710072
H	-0.583069	-2.59435	1.42255
N	-1.59955	0.0119747	1.04576
C	-1.94877	1.26223	0.774118
N	-1.04494	1.89687	-0.0738142
H	-2.82742	1.75764	1.15268
H	-1.08934	2.84069	-0.422858
C	5.21792	2.48098	-0.78356
C	5.91249	1.18566	-0.475068
H	5.07409	3.07366	0.127176
H	4.21887	2.29981	-1.19643
H	5.78819	3.07838	-1.5013
C	5.26896	0.273304	0.473539
C	7.0971	0.815248	-1.02317
N	7.7132	-0.389459	-0.716642
H	7.62691	1.44109	-1.73077
N	5.9722	-0.924096	0.719245
C	7.18476	-1.32451	0.170673
H	5.54518	-1.56976	1.37207
H	8.59466	-0.642714	-1.13764
O	7.74748	-2.40092	0.436368
O	4.18253	0.493128	1.04619
