30
  This energy is -0.00780902 and Call times are: 13581
C	0.652802	-0.457418	-1.13298
N	-0.338417	-0.115007	-1.99803
C	-1.4595	0.471667	-1.51241
C	0.4706	-0.185897	0.239402
C	-0.738826	0.425887	0.608226
N	-1.73964	0.77683	-0.226878
H	-2.21676	0.723638	-2.24392
N	1.7714	-1.04359	-1.6234
H	1.8375	-1.20924	-2.61425
H	2.52278	-1.30872	-1.00854
N	1.27887	-0.408541	1.36011
C	0.570702	0.0590823	2.37929
N	-0.659529	0.576185	1.98204
H	0.886342	0.0528283	3.40938
H	-1.3707	0.985919	2.56595
C	6.06644	-2.73215	0.221095
C	5.62626	-1.2963	0.221507
H	7.10981	-2.82097	0.544955
H	6.01837	-3.15514	-0.788934
H	5.44329	-3.34066	0.883411
C	6.36648	-0.35357	-0.620951
C	4.58642	-0.825846	0.955218
N	4.20502	0.507911	0.933414
H	3.99686	-1.46709	1.59888
N	5.90288	0.977465	-0.575054
C	4.84189	1.48191	0.167501
H	6.40026	1.64627	-1.15015
H	3.42769	0.833862	1.48827
O	4.48951	2.67423	0.157079
O	7.33892	-0.656067	-1.34165
