30
  This energy is -0.00379536 and Call times are: 8742
C	-1.04096	0.650215	0.642377
N	-1.83586	0.735201	-0.457166
C	-1.38973	0.224131	-1.63046
C	0.22	0.0306957	0.513803
C	0.5588	-0.456335	-0.759396
N	-0.208578	-0.386418	-1.86774
H	-2.06191	0.318355	-2.47387
N	-1.49149	1.16259	1.81279
H	-2.4019	1.59179	1.83576
H	-0.926499	1.11512	2.64432
N	1.24979	-0.210859	1.43035
C	2.18618	-0.829164	0.723409
N	1.82109	-1.00422	-0.608785
H	3.13267	-1.16921	1.10978
H	2.35756	-1.44283	-1.33983
C	6.24797	-2.26478	-1.6377
C	6.40768	-0.965329	-0.901932
H	5.19369	-2.5612	-1.68266
H	6.77566	-3.07412	-1.12013
H	6.63386	-2.1949	-2.6592
C	5.93623	-0.901283	0.48372
C	6.96141	0.147236	-1.44645
N	7.09426	1.33337	-0.739144
H	7.33022	0.169729	-2.46456
N	6.11538	0.345912	1.11704
C	6.67889	1.49749	0.580488
H	5.79653	0.412553	2.07584
H	7.50979	2.14778	-1.16624
O	6.80416	2.56647	1.20299
O	5.41011	-1.84968	1.10041
