30
  This energy is -0.00168173 and Call times are: 12701
C	-1.36549	-0.196259	-0.126318
N	-1.63384	-0.0825941	1.20151
C	-0.611319	0.150346	2.06002
C	-0.0277477	-0.066178	-0.555145
C	0.934897	0.174062	0.439149
N	0.698655	0.291558	1.76299
H	-0.880313	0.232146	3.10549
N	-2.39106	-0.4291	-0.980342
H	-3.32288	-0.51144	-0.608154
H	-2.22467	-0.518177	-1.96892
N	0.567255	-0.129251	-1.82039
C	1.85843	0.068687	-1.59113
N	2.13802	0.257986	-0.240329
H	2.6274	0.0862964	-2.34555
H	3.03652	0.425422	0.183058
C	9.41525	0.344457	-1.80041
C	8.26861	-0.0118623	-0.89836
H	10.2893	0.655723	-1.2168
H	9.15587	1.19155	-2.44581
H	9.7023	-0.500531	-2.43353
C	7.76829	1.02074	0.0125735
C	7.67329	-1.23095	-0.880056
N	6.61507	-1.52838	-0.0335559
H	7.99256	-2.03936	-1.52628
N	6.69174	0.622049	0.831575
C	6.06666	-0.618725	0.867922
H	6.32992	1.32059	1.46918
H	6.18862	-2.44296	-0.038506
O	5.11772	-0.898434	1.62104
O	8.22556	2.17864	0.0948422
