30
  This energy is 2.7172e-05 and Call times are: 14814
C	-1.27311	-0.00147451	-0.546088
N	-1.35766	-1.35276	-0.668356
C	-0.310754	-2.11464	-0.26787
C	-0.093543	0.55187	-0.00499021
C	0.914842	-0.351221	0.369988
N	0.859384	-1.69552	0.260638
H	-0.430469	-3.18396	-0.387275
N	-2.32227	0.755637	-0.947844
H	-3.13492	0.296805	-1.32556
H	-2.29009	1.75855	-0.870208
N	0.299517	1.87118	0.247555
C	1.5168	1.76289	0.762711
N	1.93973	0.439883	0.859881
H	2.13264	2.58826	1.07936
H	2.81912	0.101002	1.21545
C	11.4574	-0.824533	2.61607
C	11.2754	-0.244244	1.24291
H	11.8247	-1.85567	2.55885
H	10.5026	-0.86497	3.15277
H	12.1647	-0.23535	3.20762
C	10.3543	-0.924807	0.329183
C	11.9134	0.869658	0.803562
N	11.7232	1.38036	-0.472312
H	12.6071	1.42135	1.42608
N	10.2289	-0.329578	-0.943075
C	10.871	0.809137	-1.41481
H	9.5969	-0.783772	-1.59096
H	12.2095	2.21079	-0.776033
O	10.7096	1.27745	-2.55522
O	9.70731	-1.95443	0.608105
