30
  This energy is 0.000852683 and Call times are: 4097
C	-0.398561	1.32671	0.0034017
N	-1.3146	1.18703	-0.991297
C	-1.48925	-0.0325922	-1.55598
C	0.334119	0.190535	0.40669
C	0.0544713	-1.01275	-0.26184
N	-0.847889	-1.18157	-1.2515
H	-2.23064	-0.0880832	-2.34294
N	-0.227756	2.54788	0.564586
H	-0.783622	3.31755	0.229597
H	0.442579	2.68342	1.30295
N	1.32546	0.00326286	1.37676
C	1.63432	-1.28376	1.29273
N	0.895377	-1.94762	0.317063
H	2.37004	-1.7865	1.89831
H	0.946902	-2.92133	0.0644347
C	5.27262	-0.459253	-1.69779
C	6.54683	-0.266307	-0.926694
H	4.70883	0.47855	-1.76162
H	4.61785	-1.18095	-1.19596
H	5.47078	-0.816162	-2.71297
C	6.44489	0.209794	0.455092
C	7.78113	-0.507025	-1.4361
N	8.9398	-0.318307	-0.696696
H	7.929	-0.860012	-2.44931
N	7.67675	0.369808	1.12262
C	8.95102	0.130035	0.622303
H	7.62968	0.698066	2.0794
H	9.84682	-0.504435	-1.09797
O	9.99713	0.294716	1.27379
O	5.37412	0.467649	1.04121
