30
  This energy is -0.000199174 and Call times are: 4994
C	-0.400778	0.798732	-1.05851
N	-1.07644	1.69577	-0.292433
C	-1.11343	1.51561	1.05033
C	0.235698	-0.286098	-0.41944
C	0.118774	-0.353911	0.978684
N	-0.544395	0.520541	1.76464
H	-1.6647	2.25857	1.61261
N	-0.366789	0.983281	-2.4002
H	-0.842561	1.77914	-2.79243
H	0.125078	0.336659	-2.99421
N	0.992953	-1.3565	-0.90899
C	1.32346	-2.05168	0.170997
N	0.82085	-1.49032	1.34186
H	1.91345	-2.95316	0.172575
H	0.934412	-1.82972	2.28341
C	8.99178	0.230912	-2.62567
C	8.5305	0.284003	-1.19744
H	8.17119	-0.062265	-3.29055
H	9.77867	-0.521188	-2.75429
H	9.37862	1.19958	-2.95625
C	7.98473	-0.941554	-0.608763
C	8.59062	1.3984	-0.425796
N	8.15549	1.41432	0.891496
H	8.98209	2.33754	-0.797056
N	7.57022	-0.824283	0.734039
C	7.62193	0.304553	1.54313
H	7.18967	-1.65987	1.16111
H	8.21061	2.25603	1.44543
O	7.23579	0.332543	2.72466
O	7.87444	-2.03031	-1.20793
