30
  This energy is -0.00483909 and Call times are: 1693
C	0.837741	0.339818	1.04964
N	1.97013	-0.137743	0.468517
C	1.88934	-0.699628	-0.762175
C	-0.378316	0.229277	0.342994
C	-0.321258	-0.374581	-0.92394
N	0.786453	-0.857331	-1.52569
H	2.82015	-1.06342	-1.17847
N	0.923806	0.900543	2.2799
H	1.82344	0.94797	2.72935
H	0.103441	1.26316	2.73643
N	-1.68795	0.612521	0.654182
C	-2.40153	0.247002	-0.402265
N	-1.62514	-0.355764	-1.38845
H	-3.46394	0.387861	-0.512792
H	-1.93294	-0.716299	-2.2772
C	10.1008	1.80977	0.972607
C	9.15705	0.864705	0.285909
H	10.6611	1.29684	1.7628
H	9.55237	2.62397	1.46011
H	10.8143	2.24466	0.266102
C	8.13848	0.200791	1.1033
C	9.19514	0.592732	-1.04281
N	8.30805	-0.286433	-1.64696
H	9.92144	1.04789	-1.70492
N	7.28514	-0.67295	0.398264
C	7.30508	-0.966864	-0.959964
H	6.57318	-1.14271	0.944015
H	8.35643	-0.472437	-2.63762
O	6.51627	-1.75219	-1.514
O	7.99611	0.362917	2.33213
