30
  This energy is -0.00725272 and Call times are: 16403
C	-1.33478	-0.35426	-0.109069
N	-1.11518	-1.43473	-0.90433
C	0.156502	-1.74032	-1.25968
C	-0.223991	0.405745	0.313902
C	1.03952	-0.0209989	-0.127076
N	1.28802	-1.08794	-0.915791
H	0.274891	-2.60999	-1.89348
N	-2.60774	-0.0530144	0.243307
H	-3.3553	-0.63732	-0.0933572
H	-2.80278	0.740423	0.830946
N	-0.11275	1.54677	1.11674
C	1.18852	1.79968	1.15705
N	1.93385	0.882087	0.42141
H	1.64606	2.61612	1.69075
H	2.93337	0.860909	0.298518
C	4.74575	-1.87098	-0.717446
C	5.87951	-0.913119	-0.488269
H	3.78702	-1.34076	-0.750481
H	4.67241	-2.59309	0.103877
H	4.87172	-2.42135	-1.65471
C	5.85308	-0.100843	0.730709
C	6.92171	-0.758765	-1.34321
N	7.95423	0.135996	-1.10209
H	7.00412	-1.32656	-2.26184
N	6.94568	0.777208	0.885455
C	8.02275	0.952341	0.0247536
H	6.94773	1.34846	1.72156
H	8.71892	0.23278	-1.75342
O	8.95437	1.75008	0.228707
O	4.95542	-0.146008	1.596
