30
  This energy is -0.0114983 and Call times are: 2384
C	-0.996042	-0.467774	0.841499
N	-0.149045	-1.06156	1.72359
C	1.18571	-0.994706	1.49822
C	-0.446214	0.195511	-0.275688
C	0.953815	0.189422	-0.389281
N	1.81887	-0.390785	0.469335
H	1.81461	-1.48397	2.23112
N	-2.32935	-0.537443	1.07128
H	-2.65569	-1.02673	1.8884
H	-2.98192	-0.107953	0.436777
N	-1.02999	0.889193	-1.34193
C	-0.00349218	1.29077	-2.07945
N	1.22182	0.894967	-1.54972
H	-0.0789882	1.86048	-2.99076
H	2.13953	1.07652	-1.92314
C	7.33142	0.190592	2.22955
C	6.49663	0.251213	0.9826
H	7.97515	-0.696532	2.22594
H	6.69776	0.110074	3.12028
H	7.96279	1.07852	2.33054
C	5.59518	-0.870457	0.707584
C	6.53081	1.28183	0.100797
N	5.74621	1.30721	-1.04314
H	7.17365	2.14195	0.242322
N	4.84044	-0.751561	-0.477703
C	4.85857	0.29262	-1.39472
H	4.21032	-1.51602	-0.687386
H	5.78936	2.08544	-1.68411
O	4.16086	0.328128	-2.42324
O	5.46877	-1.87605	1.43516
