30
  This energy is -0.000893276 and Call times are: 8992
C	-0.325987	-0.446391	-1.27024
N	0.17128	-1.6996	-1.09631
C	0.732402	-2.02355	0.0940883
C	-0.235935	0.467046	-0.198841
C	0.36954	0.00176145	0.980112
N	0.871585	-1.23496	1.18173
H	1.11236	-3.03372	0.179017
N	-0.885859	-0.127552	-2.46198
H	-0.918091	-0.827133	-3.18526
H	-1.26277	0.79189	-2.62157
N	-0.641789	1.79916	-0.0587671
C	-0.287969	2.12663	1.17673
N	0.328606	1.07643	1.85169
H	-0.446984	3.08934	1.63355
H	0.684314	1.07697	2.79407
C	4.63067	-1.24119	1.16981
C	5.9235	-0.698612	0.631612
H	3.97116	-1.55981	0.35438
H	4.08519	-0.470463	1.72642
H	4.80147	-2.09448	1.83311
C	5.85861	0.450557	-0.274806
C	7.14226	-1.21107	0.936481
N	8.31884	-0.686189	0.42171
H	7.26284	-2.05917	1.59924
N	7.10638	0.910699	-0.743865
C	8.36529	0.402779	-0.445981
H	7.08494	1.70471	-1.37195
H	9.21373	-1.085	0.66352
O	9.42717	0.863457	-0.899953
O	4.80518	1.01428	-0.634066
