30
  This energy is -0.00332957 and Call times are: 5930
C	-0.233865	-0.459619	-1.28572
N	0.584962	0.439527	-1.89328
C	1.24848	1.34251	-1.13091
C	-0.35803	-0.413553	0.118848
C	0.385586	0.572658	0.787762
N	1.20546	1.47752	0.212262
H	1.88671	2.03493	-1.66501
N	-0.894857	-1.36014	-2.05221
H	-0.76139	-1.33848	-3.04987
H	-1.50822	-2.03854	-1.63215
N	-1.10022	-1.17907	1.02549
C	-0.808871	-0.664134	2.21243
N	0.0860799	0.399171	2.12807
H	-1.20497	-1.0092	3.15307
H	0.457508	0.950512	2.88482
C	5.86731	-0.486087	-2.74663
C	5.81175	-0.256932	-1.26345
H	6.5572	-1.30224	-2.99022
H	6.24365	0.40308	-3.26541
H	4.88029	-0.732568	-3.14949
C	7.06013	0.0839136	-0.576608
C	4.67534	-0.347732	-0.527743
N	4.65787	-0.130055	0.842351
H	3.71867	-0.595621	-0.970919
N	6.93926	0.286041	0.813794
C	5.78811	0.198642	1.58761
H	7.79034	0.522844	1.30878
H	3.79954	-0.203429	1.36793
O	5.75838	0.391365	2.81557
O	8.17022	0.198631	-1.13439
