30
  This energy is -7.9519e-05 and Call times are: 3316
C	-0.119767	-0.361696	-1.33186
N	1.031	0.241617	-1.73163
C	1.78388	0.893333	-0.812237
C	-0.482154	-0.282849	0.0293193
C	0.388164	0.423467	0.875892
N	1.53571	1.03182	0.508154
H	2.68951	1.35572	-1.18382
N	-0.868775	-1.01184	-2.25472
H	-0.552556	-1.03013	-3.21036
H	-1.72578	-1.46832	-1.98998
N	-1.57618	-0.783501	0.744391
C	-1.36759	-0.386736	1.99257
N	-0.192821	0.347897	2.13008
H	-2.01684	-0.594647	2.82683
H	0.181391	0.755544	2.97174
C	16.1267	-0.144465	2.68617
C	16.3976	-0.174809	1.20931
H	15.9718	0.883406	3.03387
H	16.9822	-0.536231	3.24834
H	15.242	-0.735479	2.94172
C	17.5546	0.572731	0.710497
C	15.634	-0.852537	0.31565
N	15.9115	-0.860162	-1.04368
H	14.765	-1.42516	0.615543
N	17.7529	0.503182	-0.683971
C	16.9855	-0.183259	-1.61751
H	18.5475	1.01278	-1.05051
H	15.3285	-1.37215	-1.68886
O	17.223	-0.198658	-2.83787
O	18.3348	1.23503	1.42413
