30
  This energy is 0.000636265 and Call times are: 8051
C	-0.229853	-0.576387	-1.23854
N	-1.09975	0.377894	-1.66362
C	-1.3934	1.41242	-0.838767
C	0.332241	-0.447823	0.0490503
C	-0.0576503	0.672962	0.800613
N	-0.917901	1.63531	0.405589
H	-2.09128	2.14362	-1.22651
N	0.0603734	-1.60843	-2.06679
H	-0.375964	-1.63999	-2.97355
H	0.70051	-2.33056	-1.78103
N	1.23739	-1.23868	0.766068
C	1.38778	-0.606985	1.92246
N	0.627015	0.55671	1.99809
H	2.02057	-0.933949	2.73081
H	0.570796	1.20453	2.76736
C	6.76679	2.40369	1.43169
C	6.75761	1.03265	0.818846
H	6.08492	3.07507	0.897175
H	7.76315	2.85536	1.3635
H	6.47014	2.37212	2.48443
C	7.13417	0.911273	-0.591781
C	6.42146	-0.0943224	1.49551
N	6.42287	-1.34714	0.899436
H	6.1332	-0.0769118	2.53938
N	7.10499	-0.401727	-1.10546
C	6.7646	-1.56928	-0.432768
H	7.36196	-0.508808	-2.07907
H	6.16889	-2.17098	1.42396
O	6.76186	-2.69784	-0.954547
O	7.46339	1.86584	-1.32457
