30
  This energy is -0.0112286 and Call times are: 8633
C	-1.07109	-0.604252	-0.63772
N	-0.720465	-0.199084	-1.88711
C	0.398488	0.549284	-2.04438
C	-0.250988	-0.226307	0.446235
C	0.879624	0.550304	0.143558
N	1.25254	0.966986	-1.08505
H	0.631496	0.844822	-3.05947
N	-2.19045	-1.35212	-0.485831
H	-2.73122	-1.58692	-1.30194
H	-2.47641	-1.66736	0.426177
N	-0.331957	-0.47439	1.82128
C	0.726396	0.139515	2.33304
N	1.49532	0.776419	1.36259
H	0.987107	0.160035	3.3782
H	2.34125	1.30582	1.49945
C	3.98501	-1.24146	-0.678969
C	5.36199	-0.699778	-0.422196
H	3.33848	-0.472883	-1.11794
H	3.50638	-1.55142	0.257101
H	4.01405	-2.10037	-1.35621
C	5.48726	0.455864	0.469541
C	6.49091	-1.21845	-0.96758
N	7.74925	-0.693925	-0.710066
H	6.47086	-2.07141	-1.63475
N	6.80577	0.914817	0.668509
C	7.97542	0.400628	0.121617
H	6.91561	1.71309	1.28178
H	8.57445	-1.0975	-1.12783
O	9.10891	0.860647	0.344076
O	4.53143	1.02553	1.03385
