30
  This energy is -0.00361853 and Call times are: 6221
C	1.034	-0.68141	-0.620934
N	0.845789	-1.84424	0.0576556
C	-0.149555	-1.91506	0.974781
C	0.18091	0.406478	-0.339681
C	-0.809989	0.198278	0.633866
N	-1.0205	-0.943232	1.32294
H	-0.255587	-2.86346	1.48598
N	2.03027	-0.615735	-1.53662
H	2.60324	-1.42941	-1.68904
H	2.19479	0.230975	-2.0552
N	0.112401	1.70769	-0.850574
C	-0.897106	2.26848	-0.198431
N	-1.49221	1.40018	0.712918
H	-1.2405	3.28018	-0.337391
H	-2.27106	1.58972	1.3229
C	7.08913	-1.67237	2.09286
C	7.62918	-0.689719	1.09378
H	7.31858	-2.70114	1.79223
H	5.99702	-1.60437	2.15655
H	7.50743	-1.49921	3.08899
C	7.16055	-0.793888	-0.290393
C	8.52271	0.284269	1.40018
N	9.00267	1.17698	0.452796
H	8.91045	0.417757	2.40264
N	7.70564	0.157472	-1.17723
C	8.62058	1.16253	-0.886864
H	7.39523	0.103807	-2.13961
H	9.66718	1.89323	0.705313
O	9.05852	1.96895	-1.72579
O	6.34286	-1.64134	-0.702433
