30
  This energy is 0.00206058 and Call times are: 1406
C	1.32611	-0.335084	-0.219489
N	1.07454	-1.17844	-1.2556
C	-0.207757	-1.36661	-1.65203
C	0.236183	0.310811	0.401185
C	-1.04148	0.0267095	-0.108613
N	-1.3216	-0.804766	-1.13446
H	-0.351811	-2.04786	-2.48101
N	2.60956	-0.150396	0.172951
H	3.34094	-0.642541	-0.313331
H	2.82813	0.467513	0.936706
N	0.158271	1.21572	1.46605
C	-1.13726	1.46945	1.59297
N	-1.91047	0.776485	0.665282
H	-1.57145	2.13267	2.32261
H	-2.91191	0.801388	0.559917
C	8.72822	-0.431632	-2.75609
C	8.42624	-0.177224	-1.30712
H	9.18776	-1.41739	-2.89211
H	9.44739	0.301173	-3.13971
H	7.82183	-0.382717	-3.36708
C	9.54324	-0.209005	-0.35965
C	7.18257	0.0789803	-0.829001
N	6.93695	0.309782	0.516824
H	6.3127	0.117125	-1.47315
N	9.19229	0.0375456	0.983752
C	7.92773	0.301817	1.49621
H	9.94937	0.020462	1.65602
H	6.00265	0.498326	0.8483
O	7.69376	0.510539	2.69937
O	10.7313	-0.432334	-0.668211
