30
  This energy is 5.3038e-05 and Call times are: 10050
C	0.509943	0.962877	-0.855487
N	1.15859	1.66278	0.112737
C	1.08646	1.23016	1.39511
C	-0.213679	-0.189053	-0.481597
C	-0.206152	-0.526101	0.881987
N	0.427682	0.148538	1.86448
H	1.62088	1.82394	2.12577
N	0.585146	1.39945	-2.13576
H	1.11899	2.22958	-2.33447
H	0.115953	0.903085	-2.87494
N	-0.971191	-1.10708	-1.21798
C	-1.40886	-1.9761	-0.316793
N	-0.976076	-1.67303	0.971432
H	-2.03074	-2.83001	-0.52857
H	-1.17366	-2.17815	1.8202
C	12.4654	2.7388	0.430688
C	12.8141	1.28265	0.314506
H	11.4429	2.86704	0.803984
H	12.5013	3.22842	-0.549296
H	13.1505	3.26045	1.10579
C	11.9843	0.447974	-0.55795
C	13.8496	0.699917	0.969503
N	14.1453	-0.649469	0.840637
H	14.5026	1.25751	1.62967
N	12.3647	-0.908423	-0.622649
C	13.4195	-1.5269	0.0379469
H	11.8046	-1.50383	-1.22028
H	14.9212	-1.05992	1.33838
O	13.6956	-2.73452	-0.0686995
O	11.0059	0.858508	-1.2143
