30
  This energy is -0.00216824 and Call times are: 14056
C	-0.485412	-1.29624	-0.056182
N	-0.215921	-1.58958	1.24359
C	0.353641	-0.640703	2.02594
C	-0.158925	-0.0105763	-0.536625
C	0.427476	0.877428	0.380219
N	0.706504	0.614774	1.67457
H	0.54675	-0.926591	3.05211
N	-1.05477	-2.24815	-0.834044
H	-1.26237	-3.14579	-0.428175
H	-1.26645	-2.06156	-1.80011
N	-0.303565	0.591921	-1.79159
C	0.185055	1.81449	-1.63204
N	0.641853	2.0421	-0.336591
H	0.235712	2.56801	-2.40042
H	1.05305	2.88533	0.0301187
C	4.33695	1.03828	1.90998
C	5.22661	0.315381	0.939749
H	3.64729	1.70791	1.38333
H	4.9265	1.66916	2.58512
H	3.75038	0.33754	2.51176
C	6.07757	1.12125	0.0606298
C	5.28572	-1.03589	0.832455
N	6.119	-1.67337	-0.0753472
H	4.68447	-1.69119	1.45063
N	6.88786	0.381989	-0.825717
C	6.96521	-0.999772	-0.953468
H	7.48447	0.919251	-1.44282
H	6.14526	-2.68032	-0.136285
O	7.70739	-1.58371	-1.76223
O	6.11845	2.3682	0.0581926
