30
  This energy is -0.000682608 and Call times are: 4230
C	-0.113137	1.36571	0.20262
N	-0.509231	1.65032	-1.06631
C	-0.635649	0.636785	-1.95716
C	0.150428	0.0211304	0.538758
C	-0.0200118	-0.930826	-0.479942
N	-0.411522	-0.678418	-1.7469
H	-0.95377	0.91865	-2.95284
N	0.0117111	2.38235	1.08931
H	-0.192188	3.31982	0.784068
H	0.302983	2.20391	2.036
N	0.564641	-0.589794	1.7279
C	0.641269	-1.87987	1.43005
N	0.298235	-2.14362	0.106638
H	0.933155	-2.65885	2.11471
H	0.278633	-3.0382	-0.355911
C	3.76118	1.64392	1.86303
C	4.42064	0.62384	0.979865
H	2.92769	2.13022	1.34322
H	4.46465	2.43987	2.13318
H	3.38029	1.18906	2.78241
C	4.98302	1.08216	-0.292955
C	4.52392	-0.692164	1.29354
N	5.1397	-1.60978	0.454703
H	4.13045	-1.09833	2.21727
N	5.58734	0.0756376	-1.07424
C	5.70484	-1.27631	-0.774242
H	5.98294	0.370456	-1.95854
H	5.20416	-2.58387	0.710321
O	6.25411	-2.10897	-1.51646
O	4.95494	2.26145	-0.699232
