30
  This energy is 0.000580432 and Call times are: 6621
C	0.640468	1.18797	0.312358
N	-0.44344	1.76831	0.892368
C	-1.60627	1.07463	0.95136
C	0.507224	-0.117565	-0.205518
C	-0.753916	-0.722917	-0.0786438
N	-1.84666	-0.17229	0.491354
H	-2.43738	1.58314	1.42328
N	1.80046	1.88552	0.25589
H	1.82755	2.81375	0.644797
H	2.62034	1.48331	-0.167105
N	1.40897	-0.973797	-0.847841
C	0.70514	-2.06895	-1.10109
N	-0.610982	-1.97242	-0.657053
H	1.08282	-2.94965	-1.59352
H	-1.33674	-2.66685	-0.732124
C	8.55276	-0.103477	2.78973
C	8.37319	0.119733	1.31549
H	9.60496	-0.293748	3.03069
H	7.99421	-0.986081	3.12203
H	8.21391	0.761183	3.36834
C	8.78246	-0.953604	0.406191
C	7.85571	1.25462	0.781472
N	7.70312	1.42967	-0.586344
H	7.5333	2.08684	1.39509
N	8.58756	-0.680817	-0.963584
C	8.06035	0.472117	-1.53312
H	8.86363	-1.40952	-1.61026
H	7.31543	2.28333	-0.959584
O	7.91797	0.64189	-2.75656
O	9.27076	-2.04359	0.766856
