30
  This energy is 0.000242394 and Call times are: 17186
C	-1.0816	-0.26348	0.824471
N	-2.02541	0.104157	-0.0822485
C	-1.62845	0.538325	-1.30322
C	0.276746	-0.176691	0.453352
C	0.549879	0.289744	-0.843127
N	-0.364734	0.661419	-1.76374
H	-2.42015	0.818303	-1.98649
N	-1.48355	-0.696759	2.04351
H	-2.46945	-0.734427	2.24396
H	-0.809009	-0.975953	2.7363
N	1.4618	-0.471263	1.13727
C	2.42517	-0.18807	0.270896
N	1.93036	0.2767	-0.944763
H	3.48056	-0.295673	0.458882
H	2.45812	0.555578	-1.75612
C	8.59331	-2.63252	0.650829
C	8.23522	-1.27165	0.126176
H	7.78987	-3.03242	1.28008
H	9.4874	-2.58457	1.28305
H	8.78081	-3.33778	-0.16446
C	7.9551	-0.214518	1.10106
C	8.15691	-0.968272	-1.19396
N	7.82288	0.300064	-1.64627
H	8.35112	-1.70108	-1.96748
N	7.62557	1.03816	0.54347
C	7.53922	1.37203	-0.802873
H	7.42816	1.78377	1.1996
H	7.77115	0.501245	-2.63379
O	7.2413	2.50417	-1.22169
O	7.99226	-0.361217	2.33947
