30
  This energy is -0.00245601 and Call times are: 13689
C	-0.6799	-1.10844	-0.477625
N	-0.818693	-0.636382	-1.74489
C	-0.312487	0.583274	-2.04991
C	-0.0117013	-0.304356	0.469645
C	0.464152	0.938776	0.0210828
N	0.341372	1.43335	-1.22892
H	-0.45052	0.910826	-3.07251
N	-1.18764	-2.32814	-0.177803
H	-1.65336	-2.85076	-0.901381
H	-1.10095	-2.70513	0.751319
N	0.289614	-0.494747	1.82309
C	0.932093	0.609385	2.17946
N	1.06623	1.5121	1.1279
H	1.31813	0.812535	3.16458
H	1.51231	2.41501	1.147
C	8.54748	-1.74664	0.414715
C	7.29014	-0.938238	0.26975
H	9.2909	-1.20859	1.01407
H	9.0098	-1.92841	-0.562323
H	8.34871	-2.71158	0.890767
C	7.39473	0.38372	-0.353053
C	6.06874	-1.36189	0.681619
N	4.92557	-0.589902	0.533175
H	5.91979	-2.32728	1.14951
N	6.17897	1.0904	-0.45893
C	4.91809	0.67762	-0.0449476
H	6.22812	2.00692	-0.886685
H	4.02795	-0.927145	0.84763
O	3.88589	1.35901	-0.172066
O	8.45469	0.889721	-0.773786
