30
  This energy is 0.000443567 and Call times are: 9962
C	-1.04613	0.809453	0.411619
N	-1.56782	0.985216	-0.831367
C	-0.962968	0.388496	-1.88727
C	0.107874	0.00963221	0.549187
C	0.633831	-0.549851	-0.626981
N	0.138363	-0.393208	-1.87284
H	-1.41918	0.561158	-2.85375
N	-1.65443	1.40804	1.46377
H	-2.47544	1.96607	1.29603
H	-1.29234	1.29702	2.39622
N	0.872258	-0.359369	1.66203
C	1.83579	-1.12342	1.16533
N	1.74036	-1.27281	-0.215703
H	2.61784	-1.58944	1.74152
H	2.34921	-1.80124	-0.819581
C	9.54745	1.3336	2.28939
C	9.86052	0.634913	0.997394
H	10.1775	2.22156	2.41592
H	9.75466	0.681961	3.14602
H	8.49848	1.64196	2.33221
C	11.2311	0.16014	0.790999
C	8.94922	0.420127	0.0153915
N	9.27099	-0.229075	-1.16776
H	7.91949	0.744519	0.102034
N	11.4584	-0.486657	-0.441343
C	10.5423	-0.717783	-1.46065
H	12.3993	-0.823156	-0.604996
H	8.57525	-0.377053	-1.88357
O	10.8172	-1.29817	-2.52532
O	12.161	0.293398	1.61198
