30
  This energy is -0.00197663 and Call times are: 12135
C	1.00815	-0.835395	-0.452522
N	2.02445	0.0138231	-0.145883
C	1.73159	1.21171	0.416379
C	-0.31375	-0.430961	-0.170791
C	-0.476929	0.836174	0.412957
N	0.511459	1.69982	0.728202
H	2.5776	1.84903	0.640247
N	1.30615	-2.03158	-1.0144
H	2.27139	-2.25824	-1.18915
H	0.57604	-2.68194	-1.25286
N	-1.55165	-1.05609	-0.359713
C	-2.43851	-0.18388	0.100298
N	-1.84352	0.979796	0.580417
H	-3.50559	-0.33193	0.113707
H	-2.30107	1.78442	0.977688
C	5.70961	2.41389	1.41562
C	5.7457	1.21314	0.514329
H	6.32	2.24879	2.31092
H	4.68975	2.60781	1.76728
H	6.0773	3.30825	0.903608
C	5.28199	-0.0653759	1.05909
C	6.18189	1.24629	-0.770024
N	6.2027	0.117904	-1.57697
H	6.53821	2.15696	-1.23564
N	5.34178	-1.15201	0.162235
C	5.78395	-1.14216	-1.15532
H	5.0258	-2.04584	0.518095
H	6.53179	0.167948	-2.52962
O	5.80769	-2.14551	-1.88924
O	4.85749	-0.231423	2.22047
