30
  This energy is -0.00043558 and Call times are: 13275
C	0.877125	0.828012	-0.681235
N	1.77517	0.925557	0.334674
C	1.52817	0.268706	1.49415
C	-0.278621	0.0434523	-0.483547
C	-0.411338	-0.583901	0.766187
N	0.462349	-0.505491	1.7922
H	2.27518	0.380244	2.26977
N	1.12863	1.48648	-1.83818
H	1.97311	2.02943	-1.91342
H	0.483149	1.43396	-2.60857
N	-1.36913	-0.253729	-1.30898
C	-2.13961	-1.04197	-0.571469
N	-1.6084	-1.27535	0.694242
H	-3.07644	-1.46848	-0.889578
H	-2.00301	-1.83659	1.43174
C	7.97512	-1.28165	-0.258362
C	9.20876	-0.436641	-0.118655
H	7.88506	-1.9829	0.579217
H	8.01967	-1.89037	-1.16878
H	7.07162	-0.665557	-0.295338
C	10.5029	-1.12048	-0.0556507
C	9.19154	0.918201	-0.0477071
N	10.3503	1.67021	0.0815343
H	8.27072	1.487	-0.0880511
N	11.6203	-0.270288	0.0754271
C	11.6273	1.1175	0.150016
H	12.5254	-0.722102	0.120784
H	10.3116	2.67733	0.132226
O	12.6578	1.80337	0.265658
O	10.657	-2.35737	-0.109862
