30
  This energy is -0.00212214 and Call times are: 7765
C	0.0523232	0.220266	-1.36667
N	-1.23715	0.636086	-1.47808
C	-2.01038	0.681532	-0.365923
C	0.532032	-0.147708	-0.0919754
C	-0.374696	-0.0536816	0.97668
N	-1.65872	0.355042	0.896589
H	-3.02856	1.01971	-0.510786
N	0.821085	0.176624	-2.48132
H	0.416327	0.453179	-3.36069
H	1.77942	-0.126717	-2.43144
N	1.77789	-0.607306	0.350137
C	1.62289	-0.785341	1.65519
N	0.339054	-0.465542	2.08896
H	2.3867	-1.13675	2.32889
H	-0.022337	-0.516767	3.02777
C	5.16446	-1.55299	-0.445971
C	6.4063	-0.808634	-0.0470102
H	5.3161	-2.0878	-1.39063
H	4.33069	-0.861119	-0.611917
H	4.86942	-2.27634	0.320168
C	6.92743	0.199104	-0.973988
C	7.06933	-1.0166	1.11835
N	8.21516	-0.311581	1.45727
H	6.73953	-1.74559	1.84833
N	8.09451	0.861088	-0.53997
C	8.79003	0.665292	0.647247
H	8.47208	1.56214	-1.16557
H	8.69077	-0.484293	2.33038
O	9.8175	1.29003	0.963359
O	6.41418	0.486175	-2.07432
