30
  This energy is 0.000341178 and Call times are: 15233
C	0.236401	-1.03525	-0.88961
N	0.539869	-1.9556	0.063771
C	0.507992	-1.58524	1.3671
C	-0.100188	0.271825	-0.478967
C	-0.0948471	0.521886	0.903228
N	0.20174	-0.370431	1.87172
H	0.757932	-2.35646	2.0846
N	0.269711	-1.41044	-2.19095
H	0.518128	-2.35985	-2.4157
H	0.0501473	-0.752199	-2.91993
N	-0.454059	1.42267	-1.19254
C	-0.656729	2.34338	-0.259745
N	-0.453389	1.85314	1.02749
H	-0.946714	3.36391	-0.44734
H	-0.54429	2.354	1.89667
C	5.69842	1.50697	-0.183093
C	7.03116	0.841034	0.00601152
H	4.89653	0.911154	0.267874
H	5.45514	1.59859	-1.2479
H	5.68422	2.50534	0.264448
C	7.20632	-0.506665	-0.541183
C	8.07685	1.41518	0.652411
N	9.29613	0.772356	0.810449
H	8.01622	2.40805	1.08089
N	8.47955	-1.07484	-0.329619
C	9.56408	-0.506953	0.328303
H	8.62269	-2.00642	-0.699861
H	10.0593	1.22045	1.29534
O	10.6618	-1.07157	0.476758
O	6.32736	-1.14465	-1.15515
