30
  This energy is 3.6339e-05 and Call times are: 7611
C	0.0946227	-0.123247	-1.37655
N	0.0557403	1.21237	-1.62694
C	-0.047577	2.07263	-0.584774
C	0.0254033	-0.558015	-0.0361956
C	-0.0797702	0.438917	0.947719
N	-0.120582	1.77043	0.729588
H	-0.0744188	3.12437	-0.840018
N	0.197949	-0.978991	-2.42172
H	0.243042	-0.602275	-3.35427
H	0.22908	-1.97327	-2.26893
N	0.0402748	-1.83161	0.54398
C	-0.0538651	-1.60467	1.84725
N	-0.129539	-0.247463	2.14882
H	-0.072071	-2.36519	2.61016
H	-0.206261	0.175708	3.05966
C	6.88337	-1.24211	2.49409
C	7.03845	-0.417729	1.24838
H	7.68333	-1.98742	2.57139
H	5.94021	-1.8003	2.47818
H	6.90254	-0.616415	3.39152
C	7.03188	-1.11618	-0.0394502
C	7.18377	0.931272	1.24927
N	7.32518	1.66408	0.0797222
H	7.19742	1.51009	2.16461
N	7.18151	-0.285057	-1.16884
C	7.33166	1.09641	-1.19252
H	7.17965	-0.747203	-2.06986
H	7.4318	2.66721	0.106283
O	7.45905	1.76514	-2.23295
O	6.90632	-2.34963	-0.178818
