30
  This energy is 0.000233946 and Call times are: 10864
C	-0.257946	1.27168	-0.48511
N	-1.31887	0.903018	-1.25102
C	-1.69624	-0.398595	-1.26646
C	0.407449	0.278537	0.264079
C	-0.0867797	-1.03194	0.157306
N	-1.13644	-1.42732	-0.593743
H	-2.54643	-0.637555	-1.89264
N	0.115289	2.57395	-0.473115
H	-0.403081	3.23213	-1.0314
H	0.896531	2.87811	0.0837064
N	1.5059	0.328185	1.12999
C	1.66779	-0.924509	1.53426
N	0.731083	-1.79078	0.976755
H	2.42961	-1.26311	2.2167
H	0.646685	-2.78316	1.12728
C	13.3648	-2.08892	0.728172
C	12.31	-1.09248	0.341074
H	13.8625	-1.78966	1.65776
H	14.1471	-2.14692	-0.0373996
H	12.9389	-3.08718	0.86705
C	12.7274	0.294089	0.118451
C	10.9983	-1.40335	0.186986
N	10.0479	-0.458308	-0.171509
H	10.6214	-2.40778	0.335888
N	11.6897	1.17825	-0.24207
C	10.3414	0.883314	-0.405618
H	11.956	2.14222	-0.40097
H	9.07779	-0.714146	-0.280063
O	9.47963	1.7201	-0.72666
O	13.8986	0.710219	0.226724
