30
  This energy is -0.0141308 and Call times are: 8367
C	0.55414	0.903191	0.892304
N	-0.435886	0.792085	1.81728
C	-1.47147	-0.0472426	1.57244
C	0.460187	0.136252	-0.288095
C	-0.665911	-0.693625	-0.415488
N	-1.66331	-0.824484	0.484646
H	-2.23188	-0.0976895	2.34138
N	1.58709	1.74352	1.14178
H	1.59283	2.26206	2.00472
H	2.33521	1.84767	0.476669
N	1.29136	0.0243911	-1.40859
C	0.678154	-0.853079	-2.19147
N	-0.511716	-1.3207	-1.63992
H	1.03679	-1.18556	-3.15147
H	-1.15279	-1.98761	-2.0385
C	6.34694	-2.65659	0.691228
C	5.88322	-1.28791	0.28244
H	6.70844	-2.65368	1.72598
H	7.18789	-2.98578	0.0700777
H	5.54187	-3.39265	0.605738
C	6.85242	-0.190891	0.342564
C	4.62277	-1.01212	-0.137231
N	4.22578	0.264507	-0.507997
H	3.8569	-1.77491	-0.205512
N	6.35378	1.06716	-0.0540991
C	5.06903	1.37328	-0.486849
H	7.00714	1.84008	-0.0203938
H	3.28214	0.444626	-0.816961
O	4.70023	2.51235	-0.82211
O	8.039	-0.309637	0.709303
