30
  This energy is 0.000549975 and Call times are: 8611
C	-0.990961	-0.612294	0.74975
N	-1.93174	0.341971	0.520882
C	-1.611	1.40736	-0.25302
C	0.284628	-0.451429	0.168923
C	0.483968	0.699382	-0.61141
N	-0.429674	1.66252	-0.855972
H	-2.39655	2.13706	-0.403016
N	-1.31654	-1.67526	1.524
H	-2.24559	-1.72894	1.90814
H	-0.642067	-2.39824	1.71187
N	1.44462	-1.23351	0.209433
C	2.32108	-0.567291	-0.530059
N	1.79323	0.610652	-1.05207
H	3.33445	-0.878332	-0.722664
H	2.25763	1.28387	-1.64005
C	6.02056	-2.70958	0.175912
C	6.42697	-1.2892	-0.0938877
H	4.97868	-2.76057	0.512469
H	6.62726	-3.14362	0.978983
H	6.12874	-3.33205	-0.717436
C	6.33772	-0.330545	1.01038
C	6.86985	-0.846518	-1.29756
N	7.23767	0.473563	-1.51422
H	6.96025	-1.50078	-2.15595
N	6.73366	0.984736	0.691087
C	7.18985	1.46077	-0.53237
H	6.68004	1.66413	1.44006
H	7.56423	0.778831	-2.41893
O	7.52278	2.64058	-0.740045
O	5.94792	-0.607486	2.16274
