30
  This energy is 6.7223e-05 and Call times are: 13843
C	-0.224686	0.00394549	-1.36694
N	-0.142224	-1.34506	-1.51343
C	0.0975353	-2.1103	-0.420841
C	-0.0562908	0.551483	-0.0776759
C	0.186845	-0.354615	0.967739
N	0.273939	-1.69677	0.852764
H	0.153465	-3.1776	-0.593467
N	-0.4645	0.764445	-2.46215
H	-0.574919	0.309724	-3.35357
H	-0.5311	1.7658	-2.38625
N	-0.0819735	1.86725	0.398737
C	0.140765	1.75393	1.70121
N	0.310792	0.431002	2.10073
H	0.190017	2.57551	2.39644
H	0.490489	0.0888617	3.03092
C	7.21587	1.56343	2.29264
C	7.10936	0.856392	0.97197
H	7.74283	0.942899	3.02656
H	6.22227	1.76166	2.71082
H	7.74827	2.51429	2.19433
C	6.41944	-0.43569	0.941367
C	7.6142	1.34517	-0.1887
N	7.49902	0.666341	-1.39318
H	8.13547	2.29329	-0.237855
N	6.3542	-1.04643	-0.328054
C	6.86304	-0.565749	-1.52872
H	5.88133	-1.94076	-0.372297
H	7.883	1.05073	-2.24357
O	6.76668	-1.16344	-2.61472
O	5.91166	-0.994385	1.93464
