30
  This energy is -0.000137267 and Call times are: 11202
C	-0.13064	-0.240593	-1.35797
N	1.07351	0.290974	-1.69788
C	1.86588	0.798045	-0.722244
C	-0.505052	-0.241357	0.00224335
C	0.410082	0.315642	0.910706
N	1.61097	0.849888	0.603099
H	2.81329	1.20869	-1.04755
N	-0.918969	-0.74616	-2.3369
H	-0.591358	-0.714182	-3.28834
H	-1.81585	-1.14648	-2.11721
N	-1.64852	-0.701519	0.665264
C	-1.42514	-0.427024	1.9434
N	-0.193776	0.189226	2.1499
H	-2.10216	-0.64482	2.75271
H	0.201554	0.49315	3.02508
C	5.85129	1.19426	0.405697
C	7.25793	0.723712	0.170388
H	5.48	0.845713	1.37629
H	5.17123	0.786318	-0.350932
H	5.78628	2.28621	0.379762
C	7.50616	-0.720156	0.175195
C	8.30655	1.55729	-0.0451697
N	9.59525	1.0901	-0.259279
H	8.19422	2.63441	-0.0616601
N	8.84658	-1.09508	-0.0515172
C	9.93556	-0.260768	-0.274276
H	9.04084	-2.08889	-0.0525072
H	10.3591	1.73033	-0.417478
O	11.095	-0.666001	-0.467643
O	6.6325	-1.59128	0.360721
