30
  This energy is 5.9709e-05 and Call times are: 14902
C	-0.325577	-1.31627	0.283665
N	0.839333	-1.839	-0.183039
C	1.77716	-1.00245	-0.690513
C	-0.508635	0.0811194	0.219193
C	0.543306	0.832357	-0.330428
N	1.70955	0.34194	-0.801115
H	2.68543	-1.47069	-1.04804
N	-1.2598	-2.15668	0.789931
H	-1.06553	-3.14439	0.806458
H	-2.13223	-1.80031	1.14314
N	-1.56626	0.912406	0.605538
C	-1.15863	2.13561	0.294893
N	0.111747	2.14648	-0.274933
H	-1.7253	3.038	0.454013
H	0.635114	2.94617	-0.593013
C	13.1496	2.47944	-1.29002
C	13.3587	1.10529	-0.721312
H	13.351	3.24906	-0.536021
H	12.1086	2.61803	-1.60392
H	13.7998	2.65772	-2.15182
C	12.5562	0.716612	0.441182
C	14.2452	0.208214	-1.22164
N	14.4146	-1.05447	-0.672302
H	14.8697	0.429674	-2.07836
N	12.8008	-0.58494	0.925781
C	13.7021	-1.5199	0.430684
H	12.2567	-0.87455	1.72921
H	15.0806	-1.7044	-1.06256
O	13.8637	-2.65442	0.913011
O	11.7087	1.445	0.995841
