30
  This energy is -4.5169e-05 and Call times are: 3338
C	-0.159642	-0.989345	-0.956422
N	0.308206	-1.99857	-0.174978
C	0.709688	-1.71788	1.08869
C	-0.207183	0.31275	-0.415449
C	0.239457	0.464934	0.907568
N	0.708491	-0.516835	1.70651
H	1.07327	-2.55751	1.66737
N	-0.559721	-1.27512	-2.21881
H	-0.499486	-2.22637	-2.54297
H	-0.910801	-0.549808	-2.82178
N	-0.624897	1.53915	-0.944902
C	-0.433412	2.4085	0.0381751
N	0.0882671	1.81298	1.18354
H	-0.648196	3.46293	-0.0148721
H	0.318895	2.25901	2.05673
C	13.3909	1.27599	1.65832
C	14.2576	0.592412	0.639987
H	13.845	2.21714	1.98912
H	13.2771	0.655035	2.55434
H	12.3967	1.49176	1.25566
C	15.6237	0.237147	1.03221
C	13.8479	0.287199	-0.61695
N	14.6741	-0.345061	-1.53477
H	12.8519	0.521131	-0.972546
N	16.3841	-0.401564	0.0309352
C	15.9866	-0.723905	-1.26121
H	17.3318	-0.656229	0.280688
H	14.3462	-0.561744	-2.46421
O	16.7164	-1.29035	-2.09327
O	16.1225	0.460908	2.15368
