30
  This energy is -0.00623422 and Call times are: 7515
C	0.540713	1.27479	0.0397434
N	1.19837	1.09753	1.21624
C	1.10487	-0.0986666	1.84649
C	-0.214264	0.200661	-0.476615
C	-0.226446	-0.98433	0.277487
N	0.41566	-1.18936	1.44703
H	1.6477	-0.186045	2.77909
N	0.637363	2.47232	-0.586306
H	1.19321	3.19727	-0.163141
H	0.162221	2.6345	-1.45857
N	-0.988078	0.0627305	-1.63465
C	-1.4546	-1.17741	-1.57735
N	-1.02521	-1.85745	-0.440753
H	-2.09562	-1.63421	-2.313
H	-1.2423	-2.80388	-0.172916
C	6.15324	-2.44455	0.97464
C	5.57375	-1.10526	0.619765
H	7.23755	-2.45576	0.814828
H	5.73758	-3.23182	0.335249
H	5.95254	-2.70203	2.01899
C	5.76029	-0.620352	-0.750073
C	4.89056	-0.323139	1.49296
N	4.36754	0.910509	1.13322
H	4.71631	-0.619937	2.5199
N	5.19251	0.642464	-1.01766
C	4.48971	1.46043	-0.140973
H	5.3095	0.997048	-1.95893
H	3.86283	1.47417	1.80098
O	4.01574	2.56752	-0.450176
O	6.36691	-1.23975	-1.64726
