30
  This energy is 0.00103782 and Call times are: 14414
C	-1.17857	0.162482	0.709648
N	-1.99812	-0.0620153	-0.351485
C	-1.44761	-0.328506	-1.56093
C	0.21623	0.108056	0.50488
C	0.653637	-0.178101	-0.798888
N	-0.135178	-0.405099	-1.87053
H	-2.14501	-0.499408	-2.37116
N	-1.73379	0.428431	1.91645
H	-2.73729	0.452411	1.99386
H	-1.1538	0.598959	2.72108
N	1.30365	0.287549	1.36752
C	2.37035	0.11309	0.599022
N	2.03578	-0.171352	-0.722274
H	3.39288	0.178094	0.932139
H	2.66339	-0.342772	-1.49125
C	8.50394	-2.58613	-0.188565
C	7.88752	-1.21865	-0.26244
H	8.02873	-3.18699	0.595353
H	9.56676	-2.52195	0.0715838
H	8.40992	-3.11806	-1.14011
C	7.93489	-0.381061	0.938643
C	7.29194	-0.718266	-1.37412
N	6.73116	0.550245	-1.4095
H	7.22179	-1.28301	-2.29564
N	7.33904	0.889832	0.8027
C	6.72412	1.4232	-0.323779
H	7.36059	1.48573	1.62115
H	6.29359	0.900289	-2.24876
O	6.21802	2.55797	-0.369167
O	8.45143	-0.720528	2.02239
