30
  This energy is -0.000666065 and Call times are: 4657
C	0.692258	0.556123	-1.06327
N	0.604177	1.83704	-0.616549
C	-0.0407828	2.08228	0.549954
C	0.105626	-0.467325	-0.289459
C	-0.532396	-0.0752902	0.898926
N	-0.635602	1.18653	1.36727
H	-0.0817609	3.11893	0.859328
N	1.33797	0.316254	-2.22983
H	1.73442	1.0928	-2.73322
H	1.41997	-0.621116	-2.58693
N	0.0227415	-1.85325	-0.466134
C	-0.65004	-2.28398	0.592504
N	-1.01131	-1.25023	1.45245
H	-0.903089	-3.31223	0.7911
H	-1.5232	-1.32143	2.31703
C	7.13554	0.973259	-2.60543
C	7.44523	0.567507	-1.19303
H	6.11164	1.35597	-2.68634
H	7.19927	0.11313	-3.28182
H	7.82499	1.74592	-2.95884
C	6.60534	-0.463071	-0.577486
C	8.4545	1.09977	-0.458871
N	8.71432	0.70277	0.844865
H	9.11304	1.86481	-0.851451
N	6.94873	-0.797929	0.74865
C	7.97622	-0.267255	1.51951
H	6.38101	-1.50859	1.1937
H	9.47125	1.11372	1.37073
O	8.22006	-0.61395	2.68838
O	5.64841	-1.03105	-1.14163
