30
  This energy is 0.00174761 and Call times are: 4546
C	0.280781	0.517649	-1.25389
N	-0.950001	0.26671	-1.77377
C	-1.88651	-0.320094	-0.989256
C	0.531038	0.154589	0.0862328
C	-0.527515	-0.446363	0.787192
N	-1.75828	-0.70766	0.298203
H	-2.84877	-0.497185	-1.45265
N	1.21338	1.10437	-2.04216
H	0.969204	1.3381	-2.99049
H	2.13364	1.30305	-1.6864
N	1.66388	0.273258	0.899525
C	1.29398	-0.244853	2.06297
N	-0.0231232	-0.696286	2.05185
H	1.92071	-0.32112	2.93599
H	-0.53137	-1.12562	2.80813
C	6.56684	1.49318	-1.84528
C	7.51194	0.76059	-0.936696
H	5.90282	2.1495	-1.27106
H	5.91936	0.79128	-2.38334
H	7.10752	2.0998	-2.57802
C	6.93575	-0.0973885	0.101703
C	8.8631	0.848817	-1.02346
N	9.70921	0.158524	-0.167635
H	9.35517	1.46406	-1.76671
N	7.87647	-0.756123	0.920112
C	9.26251	-0.681269	0.850256
H	7.4999	-1.35476	1.64484
H	10.7115	0.240428	-0.252181
O	10.032	-1.29442	1.61038
O	5.71361	-0.265538	0.287909
