30
  This energy is -0.00313831 and Call times are: 15350
C	-0.0682104	-0.315534	1.34715
N	-0.546863	-1.57395	1.1591
C	-0.758535	-2.01334	-0.105402
C	0.188674	0.482334	0.212348
C	-0.074598	-0.0958908	-1.0404
N	-0.549253	-1.34073	-1.25779
H	-1.14012	-3.0222	-0.198313
N	0.14167	0.118936	2.61307
H	-0.0625406	-0.501824	3.37893
H	0.495298	1.04538	2.78499
N	0.672512	1.7876	0.0672951
C	0.699238	1.98883	-1.24331
N	0.25749	0.881552	-1.96265
H	1.0216	2.89671	-1.72559
H	0.185337	0.788214	-2.96299
C	4.74398	2.51983	-0.814856
C	5.05601	1.13238	-0.332088
H	5.02392	2.63923	-1.86784
H	5.31844	3.26667	-0.254849
H	3.67923	2.74887	-0.709528
C	6.44669	0.677934	-0.408734
C	4.12617	0.280466	0.16848
N	4.44744	-0.996249	0.606241
H	3.08096	0.551359	0.253449
N	6.67191	-0.632877	0.0600239
C	5.73706	-1.52242	0.576101
H	7.62664	-0.967531	0.0163456
H	3.73772	-1.6117	0.974848
O	6.01131	-2.66871	0.971964
O	7.39475	1.36053	-0.846712
