30
  This energy is -0.000174055 and Call times are: 17230
C	-0.933569	-0.868412	-0.54161
N	-1.51994	-1.18086	0.6444
C	-1.04839	-0.610637	1.77989
C	0.145619	0.0402735	-0.538989
C	0.534135	0.557603	0.707786
N	-0.0282083	0.266306	1.89988
H	-1.55111	-0.893901	2.6959
N	-1.40862	-1.44107	-1.67375
H	-2.18223	-2.08173	-1.60537
H	-0.995822	-1.23002	-2.56704
N	0.945676	0.557069	-1.56451
C	1.79573	1.36671	-0.947443
N	1.59224	1.40564	0.429417
H	2.56736	1.94228	-1.43125
H	2.10518	1.9414	1.11092
C	11.119	0.0498865	-0.986163
C	9.74139	-0.155272	-0.424548
H	11.6669	0.805198	-0.411015
H	11.0696	0.420547	-2.01648
H	11.6958	-0.87993	-0.977943
C	8.84567	1.00275	-0.369289
C	9.28245	-1.34752	0.0324384
N	8.00311	-1.50372	0.545998
H	9.89104	-2.24338	0.0211798
N	7.56812	0.742781	0.168269
C	7.07649	-0.46783	0.641857
H	6.93237	1.52953	0.215803
H	7.68462	-2.40118	0.879889
O	5.93261	-0.621684	1.10421
O	9.1433	2.15106	-0.755788
