30
  This energy is -0.000189948 and Call times are: 3965
C	-0.232361	1.28297	-0.468004
N	-0.744848	1.75365	0.699852
C	-0.834488	0.91635	1.7618
C	0.185981	-0.0632089	-0.524167
C	0.037379	-0.821421	0.648886
N	-0.467243	-0.382031	1.82126
H	-1.24966	1.34202	2.6665
N	-0.144884	2.12391	-1.52656
H	-0.461646	3.07348	-1.419
H	0.229915	1.80536	-2.4046
N	0.742884	-0.835574	-1.54992
C	0.9247	-2.03098	-1.0051
N	0.515019	-2.0796	0.324733
H	1.34046	-2.88686	-1.51045
H	0.550483	-2.86883	0.9496
C	11.2396	1.95895	-0.782879
C	10.3744	0.785085	-0.423736
H	11.464	2.56432	0.102879
H	10.7257	2.62138	-1.48894
H	12.1835	1.63616	-1.23227
C	9.07204	1.05731	0.189547
C	10.7302	-0.50719	-0.634435
N	9.90717	-1.56988	-0.290607
H	11.6776	-0.779628	-1.08309
N	8.30971	-0.0871772	0.502108
C	8.65267	-1.41814	0.295995
H	7.40545	0.0778868	0.92694
H	10.1942	-2.52284	-0.457483
O	7.92488	-2.37959	0.599042
O	8.6264	2.19618	0.436393
