30
  This energy is -0.00184673 and Call times are: 16646
C	0.100868	-0.803545	-1.12391
N	0.0896708	-1.97916	-0.441351
C	-0.00338166	-1.95218	0.910484
C	0.0147221	0.399413	-0.391903
C	-0.0771485	0.284824	1.00504
N	-0.0905584	-0.866656	1.70938
H	-0.00805758	-2.91577	1.40396
N	0.194037	-0.835898	-2.47507
H	0.252358	-1.72912	-2.93588
H	0.20477	0.0173685	-3.00867
N	0.00104773	1.7429	-0.783983
C	-0.09685	2.42009	0.352111
N	-0.147888	1.58778	1.46715
H	-0.134721	3.49372	0.433646
H	-0.222064	1.86051	2.43396
C	3.93945	2.47756	-0.327272
C	4.47426	1.10307	-0.0441205
H	3.78845	2.62402	-1.40298
H	4.65089	3.24723	-0.00655996
H	2.98749	2.64847	0.184397
C	5.74791	0.724044	-0.661007
C	3.84651	0.197145	0.747183
N	4.36764	-1.06576	0.988698
H	2.9029	0.41113	1.23389
N	6.19386	-0.578375	-0.355198
C	5.56911	-1.52231	0.451173
H	7.07269	-0.861317	-0.771153
H	3.88178	-1.72233	1.58133
O	6.02499	-2.657	0.67605
O	6.42402	1.46112	-1.40677
