30
  This energy is -2.1686e-05 and Call times are: 17119
C	-1.09557	0.729035	0.43274
N	-0.982224	0.366525	1.73804
C	0.0237819	-0.465042	2.10314
C	-0.156522	0.221434	-0.489698
C	0.835782	-0.631009	0.021864
N	0.9732	-1.00806	1.31071
H	0.0680213	-0.721648	3.15396
N	-2.10286	1.56045	0.0729103
H	-2.73912	1.88654	0.781736
H	-2.2133	1.84701	-0.885519
N	7.69972e-05	0.397442	-1.86932
C	1.06271	-0.332982	-2.17944
N	1.60895	-0.977671	-1.07279
H	1.47909	-0.434841	-3.16788
H	2.41252	-1.58461	-1.05058
C	4.80062	2.23566	-1.68118
C	4.95575	0.956702	-0.909403
H	5.19788	3.08504	-1.11361
H	3.74264	2.45427	-1.86631
H	5.31952	2.18652	-2.64324
C	4.31384	0.868396	0.404578
C	5.65404	-0.11621	-1.35905
N	5.7786	-1.28416	-0.620648
H	6.15301	-0.118974	-2.32034
N	4.49783	-0.357755	1.07643
C	5.20759	-1.46878	0.636633
H	4.06234	-0.440667	1.98687
H	6.30344	-2.06905	-0.976785
O	5.32691	-2.52122	1.28782
O	3.64513	1.78009	0.932033
