30
  This energy is -0.00022254 and Call times are: 10160
C	-0.401352	0.182162	-1.3133
N	-1.13148	1.30258	-1.06908
C	-1.19873	1.77872	0.198052
C	0.257889	-0.439381	-0.231892
C	0.104997	0.158062	1.03013
N	-0.612341	1.26862	1.30266
H	-1.79312	2.67285	0.336821
N	-0.337291	-0.289744	-2.58159
H	-0.831872	0.202121	-3.30758
H	0.194985	-1.11697	-2.7944
N	1.06844	-1.57743	-0.14993
C	1.39508	-1.66162	1.13269
N	0.839352	-0.636519	1.89361
H	2.01857	-2.42617	1.56568
H	0.939619	-0.483541	2.88414
C	9.90037	-0.606971	-2.70301
C	10.0727	-0.108338	-1.29692
H	9.13355	-1.38881	-2.74898
H	10.8273	-1.05986	-3.07322
H	9.61337	0.20248	-3.381
C	10.4584	-1.07877	-0.269342
C	9.89185	1.1845	-0.927075
N	10.0589	1.61317	0.381804
H	9.60661	1.95318	-1.63477
N	10.6034	-0.546472	1.02847
C	10.4238	0.771727	1.43051
H	10.8698	-1.2	1.75465
H	9.91864	2.5806	0.632284
O	10.5704	1.16921	2.59945
O	10.6553	-2.29325	-0.476323
