30
  This energy is 9.9679e-05 and Call times are: 10116
C	-0.416451	-0.761901	1.0794
N	0.407244	-0.165514	1.98158
C	1.2305	0.826393	1.56299
C	-0.378387	-0.320282	-0.259959
C	0.521219	0.716172	-0.559116
N	1.35005	1.32664	0.314128
H	1.86501	1.2667	2.32166
N	-1.23745	-1.75288	1.50282
H	-1.21477	-2.01996	2.47326
H	-1.85881	-2.21382	0.859131
N	-1.08079	-0.716553	-1.40384
C	-0.613485	0.0644605	-2.36848
N	0.358766	0.951289	-1.91358
H	-0.931632	0.0381461	-3.39748
H	0.860588	1.64032	-2.45025
C	14.5499	1.14741	2.36972
C	14.2082	0.560315	1.03032
H	14.3969	0.412837	3.16872
H	13.898	1.99755	2.60135
H	15.5896	1.48671	2.40308
C	12.8458	0.0601639	0.830016
C	15.0867	0.467619	0.000529629
N	14.7392	-0.0809672	-1.22549
H	16.1087	0.81733	0.0799947
N	12.5905	-0.477895	-0.448263
C	13.4729	-0.583319	-1.51684
H	11.6545	-0.829538	-0.60868
H	15.4108	-0.138813	-1.97651
O	13.1746	-1.0723	-2.6204
O	11.9448	0.085994	1.69263
