30
  This energy is -0.00233162 and Call times are: 8926
C	1.29233	-0.141995	-0.478281
N	1.34177	-1.49046	-0.313167
C	0.258516	-2.12992	0.191316
C	0.109817	0.536582	-0.115568
C	-0.938136	-0.247077	0.395015
N	-0.918036	-1.58541	0.570042
H	0.351248	-3.20285	0.302127
N	2.37774	0.492495	-0.982919
H	3.19033	-0.0519157	-1.2215
H	2.37208	1.48995	-1.11695
N	-0.253664	1.88742	-0.160067
C	-1.49227	1.91447	0.313222
N	-1.95722	0.650047	0.664948
H	-2.0952	2.8004	0.424423
H	-2.85904	0.411286	1.04484
C	5.45464	-2.70669	-0.512669
C	5.61743	-1.27561	-0.0873154
H	6.42798	-3.20509	-0.587566
H	4.99719	-2.76909	-1.50677
H	4.83138	-3.26421	0.192999
C	6.42872	-0.398068	-0.934745
C	5.05787	-0.752788	1.03272
N	5.22797	0.574787	1.39803
H	4.44717	-1.34455	1.70349
N	6.54161	0.931888	-0.479601
C	5.97857	1.48922	0.662295
H	7.09813	1.55616	-1.05055
H	4.80134	0.940471	2.23625
O	6.12275	2.67679	1.00112
O	6.99642	-0.75251	-1.98767
