30
  This energy is 0.000681286 and Call times are: 1937
C	0.964557	-0.11377	-0.987784
N	0.843256	1.16526	-1.43212
C	-0.054593	1.98542	-0.833749
C	0.146591	-0.533947	0.0821436
C	-0.741442	0.417191	0.611062
N	-0.883825	1.6922	0.191238
H	-0.110561	2.99279	-1.22633
N	1.86346	-0.929597	-1.58924
H	2.41634	-0.56622	-2.34811
H	1.97666	-1.88165	-1.28317
N	0.0297122	-1.75462	0.756793
C	-0.907592	-1.54139	1.67051
N	-1.40958	-0.243371	1.62767
H	-1.26105	-2.27158	2.37948
H	-2.12246	0.158863	2.2147
C	5.00231	-1.58405	0.844162
C	6.10413	-0.776597	0.220101
H	4.35919	-0.951677	1.46697
H	5.41081	-2.35696	1.50533
H	4.3827	-2.0685	0.0834818
C	7.02201	-0.0658926	1.11385
C	6.29574	-0.669052	-1.11879
N	7.32419	0.0859465	-1.66387
H	5.65504	-1.16751	-1.83581
N	8.03288	0.672885	0.464967
C	8.24852	0.797682	-0.902326
H	8.67891	1.17214	1.06396
H	7.44625	0.15045	-2.66352
O	9.16594	1.47049	-1.4039
O	6.95632	-0.081805	2.35964
