30
  This energy is -1.5992e-05 and Call times are: 10534
C	1.10676	0.832337	0.0365634
N	1.06189	1.16183	-1.28158
C	0.0849357	0.632253	-2.05744
C	0.129674	-0.0508663	0.542156
C	-0.82616	-0.526611	-0.370571
N	-0.895705	-0.217544	-1.68275
H	0.0953457	0.927509	-3.09895
N	2.08525	1.36436	0.807836
H	2.7516	1.98858	0.383661
H	2.14513	1.13979	1.78706
N	-0.0964924	-0.575501	1.81984
C	-1.16432	-1.34907	1.67766
N	-1.64793	-1.35698	0.37201
H	-1.62745	-1.91906	2.46595
H	-2.44218	-1.86292	0.0145582
C	15.2163	1.612	-0.144039
C	16.3267	0.604932	-0.0521686
H	15.2775	2.17642	-1.08164
H	15.288	2.34735	0.665599
H	14.2354	1.13024	-0.0909966
C	17.7048	1.09896	-0.10833
C	16.1255	-0.73044	0.0791235
N	17.174	-1.63523	0.161131
H	15.1338	-1.16316	0.126962
N	18.699	0.103034	-0.016898
C	18.5173	-1.26825	0.117753
H	19.6592	0.422446	-0.0534924
H	16.9988	-2.62425	0.258582
O	19.4476	-2.08976	0.192556
O	18.0258	2.29871	-0.227031
