30
  This energy is -0.00414246 and Call times are: 5517
C	1.00415	-0.868665	0.395131
N	0.827197	-1.74293	-0.630745
C	-0.13613	-1.48977	-1.54985
C	0.17331	0.269757	0.458836
C	-0.785092	0.411313	-0.558243
N	-0.983735	-0.438904	-1.58773
H	-0.234495	-2.21761	-2.34523
N	1.9684	-1.12623	1.31123
H	2.5268	-1.95744	1.20691
H	2.12386	-0.498199	2.08215
N	0.101097	1.33499	1.36378
C	-0.878799	2.09926	0.900563
N	-1.45103	1.58799	-0.261257
H	-1.21584	3.01783	1.35156
H	-2.20592	1.9826	-0.798855
C	9.24329	1.94495	-0.524586
C	8.08938	1.04047	-0.199275
H	9.56804	1.80605	-1.5622
H	10.1102	1.71395	0.105053
H	8.97867	2.99682	-0.38042
C	8.2901	-0.403556	-0.343834
C	6.87722	1.48407	0.218833
N	5.83075	0.621376	0.511272
H	6.66046	2.53747	0.347027
N	7.16868	-1.19611	-0.0229535
C	5.91918	-0.765027	0.406565
H	7.28533	-2.1977	-0.115764
H	4.93799	0.975669	0.820789
O	4.97322	-1.52696	0.67213
O	9.35251	-0.939853	-0.718317
