30
  This energy is -7.5694e-05 and Call times are: 3074
C	-0.142362	-1.24301	-0.594725
N	-0.43911	-0.759786	-1.83024
C	-0.484294	0.581875	-2.01665
C	0.106903	-0.322453	0.444895
C	0.0273961	1.04071	0.115534
N	-0.264622	1.54942	-1.10025
H	-0.725015	0.912677	-3.01898
N	-0.0984428	-2.58488	-0.413586
H	-0.286673	-3.18658	-1.19852
H	0.118391	-2.97338	0.48916
N	0.431276	-0.490915	1.79592
C	0.54407	0.743513	2.26746
N	0.309956	1.71061	1.29351
H	0.788276	0.99949	3.2851
H	0.336021	2.71153	1.40344
C	12.4838	2.29645	0.710576
C	11.782	1.08806	0.16043
H	13.1502	2.01931	1.53549
H	11.7635	3.01317	1.12149
H	13.0749	2.79999	-0.0603695
C	10.9474	0.30575	1.07581
C	11.8774	0.682429	-1.1308
N	11.2158	-0.439834	-1.60787
H	12.4765	1.21359	-1.86025
N	10.317	-0.815027	0.496909
C	10.3998	-1.2494	-0.820678
H	9.73492	-1.37027	1.11195
H	11.3026	-0.721464	-2.57302
O	9.81225	-2.25269	-1.26121
O	10.7756	0.569881	2.28299
