30
  This energy is -0.00440429 and Call times are: 3629
C	-0.887215	-1.06378	-0.0158714
N	-1.90987	-0.368264	-0.580239
C	-1.72457	0.939189	-0.885321
C	0.32851	-0.391148	0.228955
C	0.386276	0.96417	-0.135462
N	-0.611149	1.68005	-0.696569
H	-2.57059	1.44541	-1.33256
N	-1.07748	-2.37042	0.287198
H	-1.9704	-2.78981	0.0861707
H	-0.339755	-2.91219	0.705702
N	1.5431	-0.810542	0.783691
C	2.31317	0.268788	0.753132
N	1.66392	1.37264	0.206634
H	3.33052	0.315765	1.10461
H	2.03432	2.30016	0.0758918
C	6.272	1.75343	2.17796
C	6.45867	0.714429	1.10975
H	5.2196	1.82203	2.47653
H	6.55531	2.74652	1.81067
H	6.87138	1.52612	3.0647
C	5.71887	0.881354	-0.143737
C	7.2702	-0.365048	1.24039
N	7.42052	-1.30773	0.233614
H	7.8455	-0.549697	2.13929
N	5.93846	-0.127653	-1.10414
C	6.7634	-1.24062	-0.992998
H	5.4369	-0.0320177	-1.97862
H	8.03046	-2.10252	0.354597
O	6.9074	-2.09255	-1.88708
O	4.94251	1.82622	-0.39084
