30
  This energy is 0.000410606 and Call times are: 1606
C	0.821195	1.08886	-0.243014
N	-0.187693	1.93799	-0.573446
C	-1.46355	1.48132	-0.551111
C	0.494759	-0.23734	0.110538
C	-0.867354	-0.579905	0.0926836
N	-1.88953	0.240358	-0.23058
H	-2.2278	2.19841	-0.822661
N	2.09476	1.5502	-0.266887
H	2.25856	2.50848	-0.528514
H	2.86329	0.946099	-0.0274693
N	1.2792	-1.33175	0.49234
C	0.407682	-2.30979	0.69918
N	-0.90675	-1.9106	0.472055
H	0.659476	-3.31062	1.00855
H	-1.74149	-2.46731	0.560852
C	6.29121	1.65317	-1.41706
C	7.0895	0.716192	-0.556701
H	6.35759	1.36637	-2.47287
H	6.6817	2.67502	-1.34835
H	5.23689	1.66295	-1.12455
C	8.52419	0.593768	-0.827017
C	6.55854	-0.0197779	0.451938
N	7.32417	-0.877203	1.22878
H	5.50642	0.0221856	0.705624
N	9.21505	-0.30143	0.0156139
C	8.69346	-1.06475	1.05333
H	10.2084	-0.401459	-0.153612
H	6.90602	-1.4143	1.97378
O	9.36799	-1.83652	1.7571
O	9.13451	1.21257	-1.7221
