30
  This energy is -0.00120071 and Call times are: 1871
C	-1.04156	0.0897345	-0.908914
N	-1.83128	-0.826498	-0.288477
C	-1.38171	-1.4211	0.843418
C	0.217823	0.383321	-0.344897
C	0.560592	-0.304915	0.83063
N	-0.201619	-1.21845	1.46833
H	-2.04982	-2.14238	1.29666
N	-1.49551	0.681245	-2.04002
H	-2.40453	0.426011	-2.38949
H	-0.934382	1.36345	-2.52235
N	1.2427	1.25574	-0.728784
C	2.18009	1.09507	0.195541
N	1.82031	0.161968	1.16433
H	3.12368	1.6145	0.219704
H	2.35851	-0.131997	1.96341
C	9.08856	1.50174	-0.753661
C	8.00589	0.578857	-0.27249
H	8.95936	2.50681	-0.335882
H	9.05193	1.61209	-1.84356
H	10.0802	1.13334	-0.474151
C	6.61749	0.938377	-0.571632
C	8.24085	-0.563656	0.420605
N	7.2172	-1.39515	0.851426
H	9.24196	-0.888934	0.675646
N	5.65043	0.0307477	-0.092363
C	5.86685	-1.14368	0.618579
H	4.68367	0.25977	-0.288137
H	7.41742	-2.24009	1.36556
O	4.95916	-1.89771	1.01028
O	6.26632	1.95802	-1.199
