30
  This energy is -0.000741826 and Call times are: 15306
C	0.054563	-0.774796	-1.14706
N	0.360367	-1.93286	-0.504064
C	0.486157	-1.92069	0.845334
C	-0.119436	0.395137	-0.378071
C	0.0395762	0.268242	1.01176
N	0.342579	-0.866428	1.67726
H	0.730401	-2.86921	1.30654
N	-0.0700651	-0.792233	-2.49596
H	0.0671663	-1.6618	-2.98443
H	-0.295729	0.0487003	-3.00075
N	-0.431232	1.71448	-0.725888
C	-0.458869	2.36545	0.429254
N	-0.181006	1.53891	1.51474
H	-0.669689	3.41563	0.545195
H	-0.14268	1.79572	2.48797
C	4.16461	0.549391	1.7843
C	5.32428	0.112742	0.935802
H	3.23437	0.548846	1.2046
H	4.3066	1.57587	2.14147
H	4.03522	-0.106011	2.65088
C	5.62565	0.894955	-0.265744
C	6.10446	-0.960699	1.21859
N	7.16927	-1.33806	0.413221
H	5.93788	-1.58228	2.08977
N	6.72548	0.432459	-1.01752
C	7.53789	-0.66251	-0.748092
H	6.95174	0.958704	-1.85255
H	7.73526	-2.14079	0.644767
O	8.495	-1.01145	-1.46091
O	4.98825	1.90086	-0.637827
