30
  This energy is -0.00184698 and Call times are: 6511
C	-0.229323	-0.0659119	1.36459
N	-0.916733	-1.23796	1.32172
C	-1.10777	-1.84321	0.124211
C	0.257745	0.472167	0.154794
C	-0.0104625	-0.257071	-1.01538
N	-0.689176	-1.42161	-1.08873
H	-1.66123	-2.77338	0.146902
N	-0.041057	0.535103	2.56404
H	-0.415226	0.0973295	3.38984
H	0.463646	1.40344	2.62863
N	0.984645	1.63225	-0.136216
C	1.14934	1.60047	-1.4518
N	0.567112	0.478622	-2.03587
H	1.67051	2.34501	-2.03041
H	0.556423	0.230415	-3.01202
C	5.44505	2.43272	-1.1262
C	5.69905	1.08291	-0.5188
H	5.96983	2.53555	-2.08298
H	5.82428	3.23062	-0.477405
H	4.37695	2.59955	-1.29524
C	7.08704	0.712013	-0.231905
C	4.71943	0.192109	-0.222578
N	4.98779	-1.04809	0.338426
H	3.67311	0.40124	-0.408469
N	7.25656	-0.567085	0.337176
C	6.27019	-1.49524	0.648913
H	8.2084	-0.844043	0.543832
H	4.24162	-1.69373	0.549894
O	6.49671	-2.60953	1.15187
O	8.07753	1.43699	-0.455302
