30
  This energy is -0.000358216 and Call times are: 16072
C	0.287604	0.0244905	-1.35489
N	0.767749	-1.2463	-1.40613
C	0.791624	-1.98504	-0.270107
C	-0.167211	0.521598	-0.115374
C	-0.0864649	-0.349342	0.9837
N	0.384737	-1.61415	0.963214
H	1.18349	-2.98959	-0.366862
N	0.265863	0.75879	-2.49317
H	0.605684	0.343226	-3.34489
H	-0.0836035	1.70258	-2.48767
N	-0.70602	1.75601	0.265126
C	-0.94358	1.62929	1.56374
N	-0.587525	0.374809	2.05177
H	-1.36409	2.39402	2.19549
H	-0.670206	0.0378088	2.99739
C	7.20816	1.71717	1.70377
C	6.3477	0.756123	0.934723
H	7.173	2.71714	1.25632
H	8.2585	1.40462	1.68192
H	6.88863	1.79138	2.74763
C	6.65294	0.548233	-0.483023
C	5.30834	0.0731741	1.47716
N	4.53203	-0.808097	0.738539
H	5.02783	0.179268	2.51789
N	5.8083	-0.365479	-1.14665
C	4.73945	-1.07557	-0.612878
H	6.00151	-0.52444	-2.12788
H	3.76388	-1.30469	1.16479
O	4.03605	-1.86821	-1.26314
O	7.57825	1.1122	-1.10133
