30
  This energy is -0.00413652 and Call times are: 16601
C	0.795338	1.10181	-0.269209
N	-0.133308	2.02282	0.101507
C	-1.34161	1.59561	0.542341
C	0.459378	-0.265398	-0.178526
C	-0.827405	-0.5707	0.294764
N	-1.76917	0.320776	0.669631
H	-2.04344	2.3701	0.824517
N	2.00159	1.53397	-0.709152
H	2.17667	2.52459	-0.749305
H	2.70995	0.87684	-0.990769
N	1.1718	-1.43313	-0.474705
C	0.331662	-2.41779	-0.185753
N	-0.8939	-1.95334	0.284309
H	0.545942	-3.46822	-0.292696
H	-1.69016	-2.50113	0.568016
C	8.11191	-1.57917	1.55241
C	7.27993	-0.587083	0.791492
H	8.64099	-2.25197	0.867707
H	7.48113	-2.21418	2.18508
H	8.84907	-1.07814	2.18707
C	6.24432	-1.10732	-0.104755
C	7.43337	0.757613	0.887276
N	6.64774	1.64803	0.169782
H	8.17883	1.20952	1.53003
N	5.49951	-0.124403	-0.788723
C	5.6384	1.25602	-0.70683
H	4.77789	-0.461958	-1.41381
H	6.78104	2.64441	0.258087
O	4.94128	2.06488	-1.34375
O	6.00107	-2.3179	-0.283398
