30
  This energy is -0.00293021 and Call times are: 5280
C	-0.339876	0.490225	-1.25028
N	0.4189	-0.397788	-1.94581
C	1.13965	-1.3208	-1.2636
C	-0.344163	0.412083	0.158352
C	0.447942	-0.592278	0.738741
N	1.21046	-1.48675	0.0749224
H	1.72597	-2.00314	-1.86584
N	-1.05848	1.41086	-1.93686
H	-1.01064	1.41182	-2.9425
H	-1.62982	2.08173	-1.45065
N	-1.00188	1.15927	1.14221
C	-0.613473	0.615807	2.28793
N	0.264768	-0.448749	2.10332
H	-0.925937	0.940513	3.26655
H	0.696086	-1.01894	2.81286
C	9.51076	0.863892	-1.99695
C	8.43571	0.404016	-1.0545
H	10.3212	0.12814	-2.05398
H	9.96434	1.79802	-1.64617
H	9.11571	1.02553	-3.00445
C	8.81132	0.144783	0.337656
C	7.14233	0.216011	-1.41886
N	6.17251	-0.210242	-0.522984
H	6.79637	0.38867	-2.43058
N	7.75637	-0.283846	1.16954
C	6.42625	-0.483214	0.819401
H	7.99372	-0.468799	2.13643
H	5.21665	-0.342813	-0.818124
O	5.54734	-0.864544	1.61188
O	9.96225	0.278379	0.800346
