30
  This energy is 0.000236317 and Call times are: 16963
C	-0.764862	0.0599551	-1.15344
N	-0.566383	1.38744	-1.36898
C	0.203351	2.08559	-0.498958
C	-0.158029	-0.536264	-0.0279889
C	0.614609	0.30198	0.79262
N	0.829279	1.62129	0.604145
H	0.328675	3.13851	-0.717366
N	-1.53507	-0.633426	-2.026
H	-1.93882	-0.146647	-2.80934
H	-1.70076	-1.61727	-1.89372
N	-0.165192	-1.84661	0.463744
C	0.586364	-1.79648	1.55532
N	1.08462	-0.520018	1.8024
H	0.804213	-2.63325	2.19807
H	1.67564	-0.228497	2.56417
C	4.43322	-2.33062	-1.54104
C	4.60665	-1.18316	-0.587791
H	4.92667	-2.12206	-2.49729
H	3.37329	-2.49295	-1.76816
H	4.84706	-3.25652	-1.13034
C	4.10045	0.129186	-0.997565
C	5.20329	-1.29365	0.625773
N	5.34814	-0.212935	1.48363
H	5.5996	-2.23309	0.991118
N	4.29472	1.1627	-0.0579981
C	4.90197	1.07353	1.18894
H	3.95217	2.07868	-0.320795
H	5.79572	-0.320368	2.38167
O	5.03807	2.03351	1.96729
O	3.53362	0.365283	-2.08363
