30
  This energy is -1.0053e-05 and Call times are: 10776
C	-0.314434	0.153802	1.34034
N	-1.20548	1.16217	1.1472
C	-1.43835	1.5994	-0.114325
C	0.332373	-0.396457	0.213743
C	-0.000922145	0.149717	-1.03671
N	-0.880312	1.14943	-1.25902
H	-2.15648	2.40369	-0.211548
N	-0.0851905	-0.279642	2.60324
H	-0.580781	0.156785	3.36319
H	0.568614	-1.02438	2.77878
N	1.2788	-1.41821	0.075322
C	1.5088	-1.48423	-1.22914
N	0.760914	-0.557626	-1.95077
H	2.19198	-2.16782	-1.7053
H	0.75921	-0.412773	-2.94757
C	11.1092	0.150136	2.78458
C	11.1266	-0.0754969	1.29992
H	10.7328	1.15152	3.02313
H	12.1218	0.0925335	3.20029
H	10.4816	-0.588019	3.29299
C	11.927	0.836236	0.478673
C	10.4454	-1.07173	0.679873
N	10.4823	-1.25304	-0.695122
H	9.83485	-1.78053	1.22565
N	11.9005	0.569862	-0.905894
C	11.2115	-0.442773	-1.56269
H	12.4472	1.1881	-1.49265
H	9.96683	-2.00185	-1.1332
O	11.236	-0.616604	-2.79358
O	12.5981	1.7897	0.92268
