30
  This energy is 3.7315e-05 and Call times are: 3140
C	0.912643	-0.199374	-1.02292
N	0.0775713	-0.943768	-1.79532
C	-1.17875	-1.19274	-1.35201
C	0.432953	0.284037	0.212627
C	-0.889333	-0.0473584	0.551386
N	-1.74065	-0.783436	-0.194023
H	-1.80167	-1.79005	-2.00564
N	2.16742	0.0466691	-1.47052
H	2.44645	-0.328368	-2.3622
H	2.80915	0.594386	-0.921796
N	1.02543	1.05925	1.21606
C	0.0800933	1.19052	2.13692
N	-1.10041	0.540582	1.7867
H	0.185274	1.7332	3.06169
H	-1.95612	0.494372	2.31606
C	16.3802	2.41795	0.590779
C	15.6137	1.20972	0.134679
H	17.459	2.22498	0.575034
H	16.1262	2.67386	1.62586
H	16.1723	3.2851	-0.0433098
C	15.7874	-0.0350586	0.887508
C	14.7735	1.20677	-0.930678
N	14.0796	0.0724508	-1.32655
H	14.5987	2.09125	-1.53088
N	15.0403	-1.13071	0.407878
C	14.1749	-1.15754	-0.679294
H	15.1452	-2.00164	0.913725
H	13.46	0.0953524	-2.12276
O	13.547	-2.16661	-1.0446
O	16.5274	-0.166477	1.88331
