30
  This energy is -0.000166833 and Call times are: 7875
C	1.03434	0.838174	0.382936
N	0.741252	1.81899	-0.511591
C	-0.313613	1.65222	-1.34603
C	0.223788	-0.316351	0.403951
C	-0.837582	-0.361095	-0.515023
N	-1.15244	0.595809	-1.41357
H	-0.502618	2.46311	-2.03798
N	2.08976	1.00968	1.21482
H	2.6274	1.85822	1.1475
H	2.33213	0.30183	1.88795
N	0.257563	-1.47814	1.18367
C	-0.760785	-2.20445	0.742837
N	-1.45875	-1.5767	-0.285481
H	-1.04032	-3.17453	1.11907
H	-2.26422	-1.92293	-0.781411
C	8.42075	-0.353629	2.76778
C	8.32974	-0.344701	1.26876
H	7.49764	0.0298291	3.21747
H	9.22914	0.300648	3.11392
H	8.60146	-1.36265	3.1505
C	8.0897	0.939415	0.605566
C	8.45664	-1.45428	0.498276
N	8.36709	-1.4121	-0.885576
H	8.6349	-2.43474	0.922543
N	8.01505	0.878673	-0.801353
C	8.14165	-0.244066	-1.61067
H	7.84972	1.75531	-1.2805
H	8.46502	-2.25147	-1.43715
O	8.06378	-0.220328	-2.85135
O	7.95498	2.03034	1.19574
