30
  This energy is -0.00429391 and Call times are: 12489
C	-0.358081	-0.394756	-1.27866
N	-0.0804445	-1.71178	-1.08776
C	0.384236	-2.11615	0.119462
C	-0.149442	0.498307	-0.206622
C	0.335897	-0.0528721	0.990737
N	0.620163	-1.35424	1.20943
H	0.589073	-3.17468	0.217471
N	-0.822335	0.00436896	-2.48718
H	-0.948759	-0.685039	-3.20991
H	-1.037	0.97241	-2.65958
N	-0.333092	1.88011	-0.0810572
C	0.0337565	2.15275	1.16392
N	0.447951	1.01953	1.85885
H	0.0230098	3.13151	1.61411
H	0.771115	0.967499	2.81146
C	5.46102	2.70222	0.681368
C	5.18597	1.24572	0.439762
H	5.33392	3.28187	-0.24018
H	6.49732	2.85581	1.00366
H	4.79423	3.11273	1.44565
C	6.00172	0.552116	-0.560168
C	4.22861	0.53996	1.09267
N	3.99941	-0.805904	0.845755
H	3.59027	0.989813	1.84316
N	5.69294	-0.812237	-0.738727
C	4.71864	-1.55521	-0.0827664
H	6.24495	-1.31141	-1.42541
H	3.28111	-1.30942	1.34462
O	4.50296	-2.76132	-0.294136
O	6.91157	1.08343	-1.22833
