30
  This energy is 5.1378e-05 and Call times are: 3162
C	1.01936	0.426815	0.835324
N	1.81365	-0.657392	0.631192
C	1.38576	-1.63669	-0.202319
C	-0.221927	0.485852	0.167427
C	-0.543059	-0.596767	-0.667936
N	0.224204	-1.685	-0.889815
H	2.05657	-2.4769	-0.329193
N	1.45161	1.40294	1.6694
H	2.34851	1.29837	2.11463
H	0.886554	2.21791	1.84097
N	-1.24585	1.44001	0.16292
C	-2.16152	0.941586	-0.656847
N	-1.78844	-0.289956	-1.18863
H	-3.09807	1.41414	-0.902475
H	-2.30978	-0.864643	-1.83092
C	18.1776	1.28838	1.78603
C	17.3894	0.60164	0.707826
H	18.2446	0.659852	2.6815
H	17.6874	2.21839	2.09612
H	19.1917	1.52468	1.44986
C	16.0069	0.220723	1.00815
C	17.8839	0.315591	-0.522831
N	17.1289	-0.320649	-1.49749
H	18.8967	0.568747	-0.811438
N	15.323	-0.419678	-0.0457735
C	15.8079	-0.722743	-1.31248
H	14.3654	-0.691701	0.140118
H	17.5193	-0.52266	-2.40586
O	15.1423	-1.29211	-2.19493
O	15.4335	0.425401	2.09711
