30
  This energy is -0.00160197 and Call times are: 17297
C	-0.473925	-1.09771	-0.699607
N	-0.119057	-2.01175	0.242029
C	0.488845	-1.58412	1.37536
C	-0.192647	0.262962	-0.455054
C	0.441282	0.569501	0.760343
N	0.804989	-0.31513	1.71288
H	0.749988	-2.35293	2.09144
N	-1.08131	-1.53026	-1.83069
H	-1.2529	-2.51599	-1.94242
H	-1.35608	-0.878199	-2.54639
N	-0.423423	1.42288	-1.20351
C	0.0610837	2.40417	-0.454363
N	0.596945	1.94493	0.745895
H	0.0545428	3.44853	-0.718999
H	1.02149	2.49157	1.4777
C	3.79267	-0.458759	-0.908725
C	5.15377	-0.331684	-0.286878
H	3.86788	-0.804709	-1.94606
H	3.28618	0.512708	-0.941963
H	3.16382	-1.16041	-0.352424
C	6.11351	0.575803	-0.920733
C	5.54224	-1.00737	0.823735
N	6.80835	-0.867645	1.37355
H	4.88391	-1.6937	1.34203
N	7.37168	0.649094	-0.288027
C	7.79169	-0.0322262	0.848179
H	8.05075	1.27082	-0.709606
H	7.07384	-1.38127	2.20063
O	8.92277	0.0838212	1.35125
O	5.88322	1.25369	-1.9425
