30
  This energy is -0.0008915 and Call times are: 16183
C	0.517531	1.24016	-0.336442
N	1.72058	0.766434	-0.756346
C	1.95503	-0.567418	-0.704209
C	-0.439397	0.318288	0.137689
C	-0.067192	-1.03614	0.138111
N	1.11802	-1.53534	-0.272062
H	2.92846	-0.890824	-1.05043
N	0.288122	2.57425	-0.390577
H	1.01451	3.17742	-0.740059
H	-0.59238	2.95564	-0.086995
N	-1.7399	0.478177	0.629611
C	-2.13985	-0.752743	0.919022
N	-1.16704	-1.70941	0.641373
H	-3.10347	-1.01325	1.32441
H	-1.23053	-2.70593	0.773759
C	6.81531	0.23862	2.77616
C	6.58771	-0.0484011	1.31971
H	6.34556	1.18566	3.06574
H	7.8849	0.344823	2.99085
H	6.41086	-0.558092	3.40775
C	7.07559	0.930617	0.345086
C	5.95832	-1.15841	0.858541
N	5.76362	-1.39391	-0.494779
H	5.57303	-1.92199	1.52305
N	6.83018	0.601526	-1.00405
C	6.18871	-0.527463	-1.49949
H	7.15926	1.26462	-1.69501
H	5.29239	-2.22748	-0.813295
O	6.00785	-0.750895	-2.70915
O	7.66857	1.98902	0.636161
