30
  This energy is 9.6526e-05 and Call times are: 5752
C	0.202757	-1.30396	-0.421433
N	-1.05359	-1.73038	-0.125061
C	-1.93745	-0.850024	0.404673
C	0.533632	0.043013	-0.16347
C	-0.476763	0.84841	0.387403
N	-1.73121	0.453532	0.691734
H	-2.92317	-1.24154	0.621707
N	1.0825	-2.18782	-0.950771
H	0.781612	-3.13532	-1.10986
H	2.01986	-1.90264	-1.18087
N	1.71046	0.77729	-0.349954
C	1.4135	1.99648	0.0793309
N	0.102355	2.0968	0.537044
H	2.09041	2.83464	0.0852268
H	-0.357125	2.91201	0.909739
C	5.68099	1.94969	0.950626
C	6.70414	0.904964	0.608389
H	4.66538	1.56591	0.800095
H	5.78189	2.82401	0.297351
H	5.77854	2.27835	1.98972
C	6.70088	0.364371	-0.753281
C	7.62672	0.43607	1.48583
N	8.55903	-0.530651	1.13783
H	7.68535	0.791555	2.50724
N	7.68578	-0.611949	-1.00914
C	8.63961	-1.10712	-0.127903
H	7.7017	-0.999303	-1.94462
H	9.23556	-0.863519	1.80855
O	9.48061	-1.97279	-0.426615
O	5.90843	0.708846	-1.65324
