30
  This energy is 7.7502e-05 and Call times are: 6467
C	-0.912985	-0.373478	-0.972627
N	-1.83078	-0.87053	-0.101611
C	-1.5641	-0.83012	1.22658
C	0.28308	0.16548	-0.453671
C	0.43258	0.145251	0.942847
N	-0.459944	-0.340841	1.83127
H	-2.32822	-1.23893	1.87546
N	-1.1843	-0.416215	-2.29925
H	-2.05755	-0.814648	-2.60303
H	-0.525022	-0.0562604	-2.96909
N	1.40161	0.741739	-1.0666
C	2.20496	1.0605	-0.0606695
N	1.66866	0.721992	1.17887
H	3.16974	1.52938	-0.161203
H	2.08367	0.861171	2.08606
C	6.71327	0.478411	2.73996
C	6.66377	0.359179	1.24371
H	7.05005	-0.459838	3.19567
H	5.71675	0.681349	3.14881
H	7.3884	1.2801	3.05418
C	5.79915	-0.673935	0.667956
C	7.37191	1.151	0.399615
N	7.30402	1.01475	-0.979398
H	8.02976	1.93357	0.757237
N	5.79821	-0.732923	-0.741017
C	6.51389	0.0660321	-1.62478
H	5.2071	-1.4401	-1.16043
H	7.84057	1.61613	-1.5867
O	6.46216	-0.0451694	-2.86206
O	5.09802	-1.46494	1.33075
