30
  This energy is -0.00241188 and Call times are: 2854
C	-0.343022	-0.29448	1.30945
N	-1.68117	-0.359939	1.07889
C	-2.14195	-0.143709	-0.177199
C	0.512141	-0.00288463	0.225919
C	-0.0964501	0.199641	-1.02373
N	-1.41999	0.141145	-1.28256
H	-3.21505	-0.207723	-0.30531
N	0.112519	-0.511395	2.56674
H	-0.552189	-0.714922	3.29498
H	1.09748	-0.469881	2.76931
N	1.90194	0.132839	0.131552
C	2.12313	0.410677	-1.14624
N	0.948667	0.463541	-1.89225
H	3.09185	0.581141	-1.58588
H	0.854718	0.655403	-2.87661
C	7.86976	0.965472	2.27167
C	7.10781	0.306888	1.15761
H	7.48632	1.97407	2.46428
H	8.92701	1.08122	2.00669
H	7.80427	0.385458	3.19716
C	7.10174	0.966598	-0.150492
C	6.42791	-0.859267	1.29454
N	5.73308	-1.4419	0.244496
H	6.3906	-1.39934	2.23263
N	6.36871	0.297138	-1.15208
C	5.66559	-0.896005	-1.03548
H	6.3512	0.735722	-2.06463
H	5.23476	-2.31021	0.371196
O	5.03918	-1.42894	-1.96795
O	7.68492	2.03884	-0.408863
