30
  This energy is 0.000199551 and Call times are: 6887
C	0.219655	1.02865	-0.90148
N	0.0678113	2.02861	0.00686974
C	-0.206807	1.70888	1.29497
C	0.0841284	-0.305011	-0.461765
C	-0.201233	-0.496273	0.900222
N	-0.357239	0.475392	1.82418
H	-0.317847	2.54282	1.97634
N	0.494077	1.35348	-2.18777
H	0.577886	2.32579	-2.43509
H	0.612053	0.635989	-2.88361
N	0.17876	-1.53195	-1.12849
C	-0.044774	-2.43985	-0.187937
N	-0.280764	-1.86901	1.05991
H	-0.0494511	-3.50604	-0.342788
H	-0.474356	-2.34518	1.92616
C	8.10324	-2.63121	-0.0495752
C	7.52375	-1.25911	0.142668
H	9.18755	-2.57957	-0.20123
H	7.68758	-3.10894	-0.944224
H	7.90254	-3.27353	0.813208
C	7.71029	-0.280946	-0.931942
C	6.84056	-0.876794	1.25083
N	6.31754	0.399822	1.39762
H	6.66631	-1.5486	2.08232
N	7.14251	0.98682	-0.68889
C	6.43971	1.40082	0.436385
H	7.2595	1.67867	-1.41901
H	5.81283	0.660433	2.23171
O	5.96574	2.54118	0.580686
O	8.31691	-0.503961	-1.99911
