30
  This energy is -0.000658758 and Call times are: 2141
C	-0.370579	0.827339	1.04748
N	-0.623579	-0.181334	1.92306
C	-0.44783	-1.46235	1.5169
C	0.0660721	0.49529	-0.252306
C	0.206747	-0.871819	-0.542558
N	-0.0366114	-1.89392	0.304946
H	-0.663401	-2.22618	2.2532
N	-0.54779	2.10607	1.45833
H	-0.861733	2.27374	2.4001
H	-0.368907	2.8746	0.833611
N	0.40341	1.27802	-1.36244
C	0.739195	0.400613	-2.29854
N	0.638592	-0.91605	-1.85701
H	1.05785	0.649552	-3.29717
H	0.837113	-1.75508	-2.37779
C	6.14499	2.5099	0.579484
C	5.61184	1.19187	0.0957532
H	6.88705	2.36367	1.37281
H	5.34407	3.11987	1.01289
H	6.61128	3.07431	-0.23369
C	4.95575	0.31919	1.07267
C	5.70369	0.766348	-1.18932
N	5.20056	-0.458213	-1.60424
H	6.17569	1.36053	-1.96213
N	4.47807	-0.902228	0.55436
C	4.56052	-1.35889	-0.755689
H	4.02073	-1.52111	1.21257
H	5.28105	-0.752618	-2.56611
O	4.11389	-2.45346	-1.14084
O	4.80621	0.590667	2.28118
