30
  This energy is 0.000208919 and Call times are: 10204
C	0.262883	-0.766627	1.12348
N	1.25393	-1.4987	0.549048
C	1.58759	-1.25298	-0.741352
C	-0.378408	0.221936	0.347689
C	0.0649289	0.373295	-0.976533
N	1.04496	-0.337758	-1.57329
H	2.38271	-1.86407	-1.14929
N	-0.0668839	-1.01611	2.41359
H	0.430848	-1.73629	2.91077
H	-0.796145	-0.491158	2.86692
N	-1.40986	1.12349	0.634334
C	-1.58217	1.80119	-0.492569
N	-0.715867	1.38866	-1.50153
H	-2.30354	2.58776	-0.639905
H	-0.65254	1.74685	-2.44083
C	14.8822	-0.617765	0.723998
C	13.5146	-0.111017	0.365799
H	15.3291	-1.1627	-0.11547
H	14.8302	-1.3248	1.55994
H	15.5512	0.202098	1.00253
C	12.5029	-1.09386	-0.0301004
C	13.1657	1.19997	0.388147
N	11.8924	1.63577	0.0509375
H	13.8635	1.97861	0.670789
N	11.2412	-0.553079	-0.353491
C	10.8612	0.783655	-0.337974
H	10.5265	-1.21497	-0.629927
H	11.657	2.61674	0.0753453
O	9.72406	1.18765	-0.637469
O	12.6935	-2.32528	-0.0918253
