30
  This energy is -0.00368326 and Call times are: 4884
C	-0.412066	1.08939	-0.749971
N	0.815578	1.66944	-0.817128
C	1.8632	1.06034	-0.210217
C	-0.542964	-0.127359	-0.0480148
C	0.623309	-0.650455	0.534394
N	1.85391	-0.0979091	0.484458
H	2.81753	1.56452	-0.294472
N	-1.45599	1.70221	-1.35827
H	-1.29372	2.56964	-1.84287
H	-2.37707	1.29785	-1.32644
N	-1.64072	-0.959252	0.200471
C	-1.14484	-1.95965	0.916142
N	0.221344	-1.82425	1.14828
H	-1.71147	-2.79648	1.28951
H	0.821678	-2.44902	1.66195
C	5.80168	2.65289	0.486422
C	6.07387	1.18257	0.346744
H	5.51889	3.09112	-0.477624
H	6.69979	3.18662	0.81796
H	4.99842	2.84346	1.20454
C	7.12761	0.767121	-0.582468
C	5.40138	0.222259	1.02974
N	5.67727	-1.12888	0.877596
H	4.61131	0.458839	1.73181
N	7.33267	-0.625549	-0.666745
C	6.65746	-1.62641	0.021674
H	8.05678	-0.935083	-1.30335
H	5.16305	-1.82461	1.3971
O	6.89466	-2.84033	-0.105006
O	7.81848	1.54696	-1.26885
