30
  This energy is -0.0010473 and Call times are: 16205
C	-0.00227911	-0.184652	1.37293
N	0.585762	-1.40982	1.3376
C	0.919819	-1.94297	0.137187
C	-0.240452	0.48192	0.152551
C	0.154991	-0.183539	-1.01955
N	0.740058	-1.39825	-1.08558
H	1.38504	-2.92009	0.166194
N	-0.334268	0.343896	2.57533
H	-0.136396	-0.184999	3.40883
H	-0.770779	1.2488	2.63452
N	-0.813867	1.72281	-0.147859
C	-0.763934	1.80089	-1.47085
N	-0.187037	0.674185	-2.05084
H	-1.12182	2.63047	-2.05776
H	-0.0374998	0.496619	-3.03099
C	4.5078	-0.129453	0.145712
C	6.00088	-0.238724	0.0266558
H	4.11245	0.608347	-0.561927
H	4.21985	0.214909	1.14566
H	4.02095	-1.0906	-0.0451151
C	6.79578	0.970433	0.255731
C	6.65141	-1.38927	-0.279924
N	8.03335	-1.45672	-0.382587
H	6.12621	-2.31891	-0.461561
N	8.18988	0.799986	0.128758
C	8.87768	-0.366526	-0.183884
H	8.75882	1.62333	0.28312
H	8.49432	-2.32462	-0.611919
O	10.1152	-0.440906	-0.278821
O	6.32278	2.08843	0.543693
