30
  This energy is 5.6264e-05 and Call times are: 15034
C	-0.739269	1.13591	0.286761
N	-1.92456	0.484795	0.425356
C	-1.95832	-0.859594	0.257065
C	0.409835	0.380263	-0.0277687
C	0.234999	-1.00567	-0.174893
N	-0.92756	-1.67899	-0.043464
H	-2.9269	-1.32769	0.378631
N	-0.710822	2.47975	0.455981
H	-1.56774	2.9586	0.679539
H	0.151173	2.99029	0.359999
N	1.74709	0.738721	-0.232995
C	2.36169	-0.406355	-0.497474
N	1.49436	-1.49536	-0.475634
H	3.41274	-0.512399	-0.709153
H	1.71919	-2.46274	-0.643637
C	13.404	1.46363	-1.3069
C	14.5064	0.598107	-0.767594
H	13.6357	2.52541	-1.16442
H	12.4646	1.27716	-0.77369
H	13.2405	1.28303	-2.37364
C	14.8437	0.725488	0.652401
C	15.2041	-0.290762	-1.51861
N	16.2181	-1.07608	-0.989432
H	15.0071	-0.435537	-2.57374
N	15.8866	-0.114393	1.09479
C	16.6145	-1.031	0.345382
H	16.1363	-0.042825	2.07355
H	16.7228	-1.7304	-1.56863
O	17.525	-1.74084	0.806834
O	14.2809	1.50235	1.45008
