30
  This energy is 1.32e-07 and Call times are: 10666
C	-0.297048	1.30611	0.353354
N	-1.57214	1.27848	-0.117223
C	-2.03685	0.139855	-0.686803
C	0.491009	0.142688	0.227785
C	-0.113844	-0.968373	-0.382721
N	-1.37569	-1.02526	-0.858829
H	-3.05814	0.172176	-1.04451
N	0.162707	2.44665	0.921819
H	-0.452322	3.24161	0.979949
H	1.10197	2.49853	1.27958
N	1.80805	-0.148931	0.600912
C	1.99015	-1.40705	0.222944
N	0.859187	-1.95297	-0.378359
H	2.90002	-1.96905	0.353541
H	0.748576	-2.88392	-0.746713
C	14.619	-2.04665	-1.61474
C	13.9974	-0.880364	-0.901329
H	14.2578	-2.99521	-1.20097
H	15.7076	-2.04743	-1.48731
H	14.3937	-2.02555	-2.68529
C	14.211	-0.769593	0.54384
C	13.2527	0.0716658	-1.51767
N	12.6917	1.13747	-0.829049
H	13.0553	0.0510585	-2.58242
N	13.6013	0.3469	1.15243
C	12.8353	1.33336	0.542774
H	13.7362	0.443175	2.15141
H	12.1414	1.83329	-1.31003
O	12.3271	2.29347	1.14765
O	14.8735	-1.57506	1.22856
