30
  This energy is -0.00109981 and Call times are: 6177
C	-0.398359	-1.32259	0.105337
N	-0.0109402	-1.67262	-1.14984
C	0.550372	-0.733107	-1.94927
C	-0.198342	0.00993324	0.523352
C	0.394159	0.882035	-0.404765
N	0.788549	0.563572	-1.65585
H	0.840407	-1.06495	-2.93811
N	-0.958919	-2.26537	0.900511
H	-1.07294	-3.19845	0.540025
H	-1.25603	-2.03733	1.83465
N	-0.479322	0.674194	1.7228
C	-0.0648322	1.91749	1.51961
N	0.472895	2.10004	0.248311
H	-0.12473	2.71729	2.23898
H	0.852169	2.94765	-0.141956
C	7.96	2.19461	0.30653
C	6.90766	1.13949	0.120182
H	8.74612	2.10045	-0.451463
H	8.45312	2.08692	1.27947
H	7.53282	3.1999	0.242088
C	7.32683	-0.263022	0.180637
C	5.59679	1.41152	-0.100147
N	4.64882	0.412615	-0.26862
H	5.2188	2.42493	-0.156674
N	6.29139	-1.2028	-0.00199725
C	4.94401	-0.948326	-0.228681
H	6.55887	-2.17871	0.0360871
H	3.67926	0.640281	-0.43132
O	4.08433	-1.83356	-0.381086
O	8.49747	-0.647532	0.376395
