30
  This energy is -0.000677002 and Call times are: 6489
C	0.373702	-1.3323	0.0660116
N	-0.895148	-1.81865	0.105369
C	-1.93305	-0.947786	0.0708383
C	0.555938	0.0646479	-0.00943707
C	-0.605821	0.853636	-0.0383166
N	-1.87655	0.399766	-0.000647095
H	-2.92158	-1.38791	0.10472
N	1.40771	-2.20693	0.100783
H	1.20785	-3.19219	0.154771
H	2.35845	-1.87794	0.0731558
N	1.70327	0.864341	-0.0639545
C	1.24093	2.10591	-0.124232
N	-0.150371	2.15877	-0.111904
H	1.84971	2.99321	-0.177509
H	-0.733932	2.97896	-0.148703
C	5.07884	0.111232	0.828817
C	6.5529	0.013078	0.558734
H	4.52152	-0.611569	0.221894
H	4.69733	1.10252	0.558293
H	4.85339	-0.0726474	1.88362
C	7.0132	0.235782	-0.814192
C	7.47752	-0.269165	1.51076
N	8.83322	-0.352947	1.22811
H	7.20686	-0.444788	2.54467
N	8.40705	0.129271	-1.00001
C	9.37185	-0.158331	-0.0418861
H	8.74728	0.279654	-1.94184
H	9.50188	-0.564307	1.95376
O	10.5894	-0.236167	-0.281428
O	6.26885	0.502162	-1.77936
