30
  This energy is -0.00421157 and Call times are: 15553
C	0.723577	-0.89989	-0.765287
N	-0.258614	-1.8381	-0.821208
C	-1.43546	-1.59422	-0.194782
C	0.474033	0.29274	-0.054146
C	-0.788556	0.417619	0.548595
N	-1.78198	-0.495517	0.510183
H	-2.18264	-2.37395	-0.270781
N	1.89807	-1.14847	-1.39309
H	2.01081	-2.02057	-1.88331
H	2.64445	-0.473714	-1.36996
N	1.25623	1.42801	0.187108
C	0.480739	2.21711	0.918419
N	-0.768765	1.65561	1.16765
H	0.759503	3.18855	1.29172
H	-1.52773	2.05622	1.69498
C	4.92988	-2.28189	0.0508898
C	5.651	-0.964844	0.0792523
H	5.41035	-3.00481	0.720168
H	4.9591	-2.72167	-0.952667
H	3.88382	-2.17055	0.351906
C	7.0659	-0.951245	-0.300603
C	5.06797	0.207364	0.435517
N	5.76284	1.40809	0.451511
H	4.02678	0.26931	0.727349
N	7.68355	0.315601	-0.252777
C	7.10775	1.52788	0.108356
H	8.66199	0.348173	-0.511653
H	5.30688	2.26728	0.720306
O	7.71859	2.61067	0.126816
O	7.71876	-1.95625	-0.64745
