30
  This energy is -0.000447338 and Call times are: 540
C	-1.00757	-0.926454	0.213359
N	-1.99097	-0.00555315	0.394858
C	-1.68002	1.31111	0.31391
C	0.300366	-0.469404	-0.0526802
C	0.485078	0.921873	-0.109691
N	-0.470587	1.85888	0.0660736
H	-2.49997	2.00138	0.466381
N	-1.32353	-2.2413	0.295275
H	-2.27726	-2.49974	0.488171
H	-0.61783	-2.94706	0.165686
N	1.506	-1.14229	-0.28188
C	2.39498	-0.176704	-0.472297
N	1.83198	1.09336	-0.379273
H	3.44171	-0.328146	-0.67763
H	2.2974	1.98043	-0.484556
C	8.79217	-1.05156	-2.21973
C	8.20531	-0.561726	-0.927024
H	9.01428	-0.213457	-2.89029
H	8.08207	-1.6947	-2.75219
H	9.71415	-1.61606	-2.05076
C	6.96363	0.21334	-0.989602
C	8.75844	-0.795744	0.289615
N	8.19072	-0.328522	1.46616
H	9.67476	-1.36081	0.408425
N	6.46586	0.642947	0.257933
C	7.01407	0.415812	1.51469
H	5.60794	1.18052	0.238071
H	8.62122	-0.515746	2.35944
O	6.5158	0.828353	2.57651
O	6.35504	0.497624	-2.04096
