30
  This energy is 0.00056343 and Call times are: 9742
C	-0.41365	-1.1695	0.616592
N	-1.15724	-1.61046	-0.432551
C	-1.22153	-0.853927	-1.55521
C	0.262153	0.0624796	0.49062
C	0.110536	0.745672	-0.727281
N	-0.619923	0.333304	-1.7849
H	-1.82709	-1.25137	-2.35981
N	-0.352625	-1.92939	1.73651
H	-0.859344	-2.79901	1.76068
H	0.189352	-1.63019	2.53001
N	1.08885	0.778151	1.36426
C	1.42622	1.86687	0.686206
N	0.862188	1.89954	-0.586377
H	2.06338	2.65432	1.05325
H	0.967768	2.61597	-1.2865
C	6.51954	1.24476	2.18425
C	7.14562	0.731312	0.919405
H	7.24439	1.24581	3.00643
H	5.69262	0.598762	2.50094
H	6.13723	2.26191	2.05582
C	7.70504	-0.622659	0.933622
C	7.22178	1.44815	-0.230058
N	7.80747	0.944333	-1.38244
H	6.82893	2.45428	-0.310371
N	8.27743	-1.04371	-0.284481
C	8.36688	-0.328382	-1.4727
H	8.67022	-1.97697	-0.29716
H	7.852	1.49713	-2.22551
O	8.88867	-0.767728	-2.51223
O	7.69979	-1.3839	1.92208
