30
  This energy is -0.00607472 and Call times are: 2788
C	-1.32454	-0.176878	-0.365155
N	-1.12079	-1.35162	-1.01826
C	0.133144	-1.86297	-1.07314
C	-0.216488	0.462102	0.230066
C	1.02785	-0.176113	0.0984401
N	1.26036	-1.34083	-0.543088
H	0.23942	-2.79987	-1.60508
N	-2.57979	0.330065	-0.313142
H	-3.32641	-0.176954	-0.759332
H	-2.76283	1.19773	0.162837
N	-0.0922788	1.65188	0.956613
C	1.19786	1.72658	1.2547
N	1.9236	0.646175	0.760034
H	1.66054	2.52194	1.81514
H	2.9119	0.475794	0.854068
C	5.16755	2.50552	-0.971866
C	5.6465	1.12619	-0.620469
H	5.67111	3.26186	-0.358859
H	4.09474	2.60908	-0.77251
H	5.34943	2.73444	-2.02627
C	5.47123	0.672508	0.761502
C	6.22981	0.281034	-1.50725
N	6.66191	-0.988093	-1.15024
H	6.39011	0.551869	-2.54361
N	5.94167	-0.630521	1.02509
C	6.54147	-1.51304	0.134598
H	5.8304	-0.964594	1.97453
H	7.09305	-1.59865	-1.82825
O	6.93293	-2.65265	0.441097
O	4.95146	1.34932	1.67163
