30
  This energy is -0.00377309 and Call times are: 4701
C	0.0921461	-1.03898	0.911631
N	0.528808	-0.266418	1.94146
C	0.696185	1.06322	1.73922
C	-0.169112	-0.420125	-0.328986
C	0.0460358	0.966002	-0.402372
N	0.478377	1.75797	0.601647
H	1.04553	1.63143	2.59194
N	-0.0735505	-2.36749	1.1189
H	0.13117	-2.74549	2.02928
H	-0.395437	-2.96584	0.376429
N	-0.617802	-0.920768	-1.55654
C	-0.670952	0.140966	-2.3495
N	-0.279843	1.31042	-1.70291
H	-0.978294	0.12993	-3.38206
H	-0.235187	2.23978	-2.08878
C	4.0208	1.99703	-0.825049
C	4.8379	0.861197	-0.27947
H	3.96096	1.94537	-1.91828
H	4.48328	2.96139	-0.585212
H	3.00442	1.98798	-0.419904
C	6.22661	0.739221	-0.730021
C	4.36384	-0.0539105	0.603008
N	5.14536	-1.09253	1.08813
H	3.34786	-0.0231951	0.977068
N	6.93804	-0.347384	-0.180621
C	6.4744	-1.29592	0.723199
H	7.90037	-0.45064	-0.478413
H	4.76986	-1.76099	1.74426
O	7.1638	-2.23114	1.16592
O	6.78313	1.51187	-1.53617
