30
  This energy is -0.00356008 and Call times are: 2832
C	0.640913	-1.22795	-0.0201869
N	-0.0429318	-1.74586	1.03442
C	-0.980205	-0.982539	1.64737
C	0.343838	0.0880381	-0.432851
C	-0.649939	0.768616	0.289812
N	-1.34469	0.281002	1.33945
H	-1.49474	-1.4433	2.48103
N	1.57676	-1.99498	-0.629451
H	1.7397	-2.92667	-0.284497
H	2.09972	-1.64006	-1.41269
N	0.854987	0.893081	-1.4573
C	0.183207	2.03175	-1.35227
N	-0.741227	2.01225	-0.311254
H	0.31652	2.89206	-1.98697
H	-1.36666	2.75067	-0.0316804
C	8.70373	-0.060222	1.58858
C	7.47937	-0.210902	0.732036
H	8.46372	0.454555	2.52602
H	9.46051	0.551468	1.08408
H	9.14503	-1.03235	1.82829
C	6.77433	1.00747	0.325977
C	6.99213	-1.40674	0.315518
N	5.85735	-1.51175	-0.475749
H	7.46338	-2.34573	0.578741
N	5.634	0.796665	-0.476458
C	5.11673	-0.416513	-0.914856
H	5.13121	1.6256	-0.768839
H	5.51433	-2.41304	-0.773013
O	4.10129	-0.524813	-1.62413
O	7.11685	2.16537	0.639845
