30
  This energy is 0.000172399 and Call times are: 12157
C	0.637862	-1.2076	0.232108
N	0.0725934	-1.41808	1.4504
C	-0.79509	-0.49864	1.93887
C	0.295091	-0.0355024	-0.474338
C	-0.616779	0.833792	0.146824
N	-1.19349	0.651565	1.35363
H	-1.21592	-0.715294	2.91252
N	1.50453	-2.12964	-0.251706
H	1.70578	-2.94462	0.304084
H	1.93941	-2.00241	-1.15037
N	0.691245	0.464506	-1.7201
C	0.0320254	1.60856	-1.84437
N	-0.775049	1.88211	-0.743243
H	0.0943216	2.27223	-2.69079
H	-1.3685	2.68347	-0.600978
C	5.21932	2.45379	0.206367
C	6.08416	1.22738	0.148079
H	4.38975	2.31375	0.908934
H	4.76676	2.6594	-0.770519
H	5.79329	3.33237	0.516028
C	5.45628	-0.0340962	-0.252973
C	7.40809	1.22264	0.44489
N	8.17963	0.0713131	0.381346
H	7.93521	2.11888	0.748155
N	6.32254	-1.14634	-0.2874
C	7.67944	-1.17536	0.0118556
H	5.9093	-2.029	-0.562275
H	9.16297	0.0932273	0.606977
O	8.38233	-2.19958	-0.0411821
O	4.25197	-0.16577	-0.551055
