30
  This energy is -0.00138562 and Call times are: 12267
C	-1.02642	0.63236	0.682353
N	-1.91307	0.582803	-0.346952
C	-1.53127	0.0111014	-1.51495
C	0.258946	0.083862	0.489131
C	0.524179	-0.478273	-0.770502
N	-0.334812	-0.541805	-1.80987
H	-2.27546	-0.00187784	-2.30113
N	-1.41293	1.20486	1.84778
H	-2.34548	1.57748	1.91917
H	-0.779488	1.25683	2.62813
N	1.37475	-0.0220139	1.32737
C	2.28971	-0.634074	0.587693
N	1.82897	-0.933818	-0.691582
H	3.28576	-0.884089	0.913482
H	2.33207	-1.39364	-1.43324
C	9.0666	-0.227459	-2.02714
C	8.13827	-0.227949	-0.846622
H	9.46165	0.777919	-2.21301
H	8.53817	-0.526408	-2.93971
H	9.90836	-0.909314	-1.87302
C	6.95837	0.638645	-0.903764
C	8.33063	-0.982461	0.264518
N	7.45332	-0.959732	1.33907
H	9.181	-1.64439	0.373066
N	6.12862	0.5914	0.235517
C	6.30499	-0.172161	1.38331
H	5.30683	1.18279	0.217326
H	7.61807	-1.53041	2.15487
O	5.52683	-0.161499	2.35298
O	6.66618	1.3797	-1.86399
