30
  This energy is 0.000229089 and Call times are: 9492
C	-1.01813	-0.561403	-0.75317
N	-0.853919	-1.82147	-0.270118
C	0.11423	-2.05039	0.650277
C	-0.169511	0.458275	-0.273105
C	0.792057	0.0846124	0.680198
N	0.978336	-1.15634	1.17771
H	0.201932	-3.07076	1.00127
N	-1.98727	-0.337785	-1.67302
H	-2.5586	-1.11051	-1.97313
H	-2.1336	0.58398	-2.04964
N	-0.0814497	1.82513	-0.560883
C	0.910853	2.26264	0.202534
N	1.47615	1.25141	0.974883
H	1.26186	3.28049	0.241521
H	2.23773	1.33159	1.62922
C	10.9661	2.64538	-0.626622
C	10.6845	1.25762	-0.126387
H	10.0378	3.15389	-0.911347
H	11.5922	2.61688	-1.52582
H	11.4743	3.24764	0.132524
C	10.0056	0.328273	-1.03292
C	11.0219	0.81886	1.11237
N	10.747	-0.470586	1.54433
H	11.525	1.45258	1.83238
N	9.77112	-0.957184	-0.502517
C	10.1071	-1.4286	0.761002
H	9.30287	-1.61606	-1.11246
H	11.0081	-0.773602	2.47079
O	9.86688	-2.58121	1.16062
O	9.64279	0.604962	-2.19413
