30
  This energy is -0.000418691 and Call times are: 10622
C	0.719042	1.15835	0.245438
N	1.93548	0.551693	0.263544
C	2.00422	-0.786887	0.0627371
C	-0.424591	0.364361	0.0172953
C	-0.211995	-1.01059	-0.175897
N	0.982001	-1.6402	-0.163407
H	2.9966	-1.21887	0.0872466
N	0.655696	2.49657	0.446686
H	1.51071	3.00431	0.603964
H	-0.2299	2.97466	0.439141
N	-1.78731	0.673953	-0.0602451
C	-2.37994	-0.489093	-0.294772
N	-1.47407	-1.54347	-0.374537
H	-3.44103	-0.632216	-0.4146
H	-1.67675	-2.51554	-0.543616
C	8.31422	0.837088	-0.668879
C	9.62829	0.222439	-0.280494
H	8.35928	1.24591	-1.68487
H	8.06467	1.67538	-0.0082806
H	7.50245	0.104789	-0.623934
C	10.8151	1.08131	-0.29146
C	9.77679	-1.07768	0.0780489
N	11.006	-1.61516	0.43152
H	8.94237	-1.76756	0.107656
N	12.0158	0.443365	0.0829118
C	12.192	-0.884511	0.453396
H	12.8491	1.01875	0.0823997
H	11.091	-2.58566	0.694677
O	13.2874	-1.37879	0.772513
O	10.8154	2.29007	-0.600422
