30
  This energy is -0.000319877 and Call times are: 15144
C	-0.467438	0.156789	-1.29458
N	-1.49146	-0.728369	-1.1683
C	-1.66786	-1.36307	0.0161322
C	0.3713	0.377372	-0.18183
C	0.0770059	-0.346159	0.98561
N	-0.931227	-1.23029	1.14038
H	-2.49756	-2.05699	0.0623548
N	-0.29536	0.788618	-2.48056
H	-0.930233	0.585208	-3.23498
H	0.453464	1.44936	-2.60538
N	1.48484	1.20311	0.0106825
C	1.85116	0.980484	1.26573
N	1.03381	0.0511803	1.9037
H	2.68331	1.45123	1.76241
H	1.1069	-0.282406	2.85131
C	9.86004	2.48282	-1.25934
C	10.1643	1.12747	-0.68848
H	9.85499	3.24592	-0.472537
H	8.863	2.50016	-1.71431
H	10.5941	2.77004	-2.01823
C	9.26653	0.602449	0.343372
C	11.2193	0.36597	-1.07316
N	11.473	-0.883179	-0.525312
H	11.9219	0.692622	-1.82995
N	9.60786	-0.673645	0.837093
C	10.6816	-1.47103	0.459076
H	9.00039	-1.05599	1.55138
H	12.2645	-1.43096	-0.828161
O	10.9202	-2.59184	0.941499
O	8.264	1.19975	0.784667
