30
  This energy is -0.00105286 and Call times are: 15641
C	0.613552	-0.729446	-1.00523
N	-0.391333	-1.63556	-1.13653
C	-1.48639	-1.5201	-0.346361
C	0.472234	0.296774	-0.0474936
C	-0.713505	0.300558	0.705519
N	-1.72703	-0.584477	0.597519
H	-2.25609	-2.26736	-0.491959
N	1.70601	-0.849223	-1.79741
H	1.74331	-1.60549	-2.46094
H	2.46659	-0.194205	-1.7241
N	1.30342	1.35913	0.32586
C	0.63188	1.98696	1.28177
N	-0.596146	1.38918	1.55249
H	0.973257	2.86326	1.80742
H	-1.28298	1.67729	2.23061
C	7.01243	-1.06538	-1.30101
C	8.09504	-0.387306	-0.511326
H	7.02395	-2.148	-1.13009
H	7.16408	-0.919831	-2.37674
H	6.02339	-0.681201	-1.03371
C	9.48016	-0.795627	-0.758539
C	7.86284	0.577552	0.413909
N	8.88632	1.18457	1.12726
H	6.86422	0.926639	0.646214
N	10.4473	-0.120982	0.0148471
C	10.2337	0.868824	0.966802
H	11.4119	-0.387617	-0.140015
H	8.68821	1.90025	1.81056
O	11.1413	1.421	1.61277
O	9.8286	-1.66797	-1.57962
