30
  This energy is -0.000229094 and Call times are: 10908
C	0.283284	-1.35599	-0.00788518
N	0.717998	-1.38777	-1.29555
C	0.719932	-0.239811	-2.01598
C	-0.149088	-0.123435	0.525235
C	-0.0951296	0.98959	-0.329917
N	0.330974	0.988489	-1.61078
H	1.07567	-0.321213	-3.03523
N	0.283317	-2.50615	0.707999
H	0.605082	-3.35196	0.266779
H	-0.0325345	-2.51513	1.66354
N	-0.6425	0.23834	1.78401
C	-0.879594	1.5396	1.68705
N	-0.566321	2.04714	0.428907
H	-1.27046	2.15997	2.47644
H	-0.657373	2.99843	0.110565
C	5.9909	-0.203162	1.49257
C	7.25429	-0.277391	0.68401
H	5.2251	0.379778	0.968033
H	6.16753	0.305295	2.44738
H	5.58958	-1.20014	1.69804
C	7.91361	0.981534	0.327917
C	7.81621	-1.43978	0.266845
N	8.98509	-1.47401	-0.479755
H	7.38191	-2.40554	0.494351
N	9.09394	0.842122	-0.431067
C	9.68753	-0.335687	-0.869226
H	9.56634	1.70007	-0.688304
H	9.38385	-2.35159	-0.778401
O	10.7345	-0.380627	-1.53841
O	7.50212	2.11507	0.647842
