30
  This energy is 6.8269e-05 and Call times are: 7299
C	-0.170729	1.35233	-0.247146
N	-1.51551	1.27915	-0.432326
C	-2.12818	0.0750607	-0.324405
C	0.532183	0.165945	0.0507845
C	-0.22497	-1.01426	0.133595
N	-1.55899	-1.1175	-0.0450701
H	-3.19937	0.0732562	-0.48119
N	0.43694	2.55825	-0.3561
H	-0.123914	3.36623	-0.571049
H	1.43096	2.64504	-0.224591
N	1.88643	-0.0924886	0.291818
C	1.94141	-1.39875	0.514424
N	0.692012	-2.00764	0.431217
H	2.83782	-1.95343	0.736977
H	0.474508	-2.98275	0.559477
C	9.03033	-2.20483	0.713624
C	9.86372	-0.972644	0.507206
H	9.58357	-3.10432	0.419969
H	8.13024	-2.17679	0.0887724
H	8.72521	-2.30956	1.75918
C	10.3494	-0.694121	-0.846638
C	10.1904	-0.107363	1.49993
N	10.9631	1.02296	1.2759
H	9.86523	-0.252494	2.5228
N	11.1253	0.476739	-0.972205
C	11.4724	1.37671	0.0283738
H	11.4715	0.688675	-1.89993
H	11.1928	1.6518	2.03099
O	12.1637	2.39313	-0.158593
O	10.1212	-1.40705	-1.84473
