30
  This energy is -0.00301503 and Call times are: 7117
C	0.979271	0.453623	-0.868496
N	0.903106	1.75367	-0.47845
C	0.0180954	2.09785	0.488578
C	0.129633	-0.485452	-0.246713
C	-0.740503	0.00512769	0.740818
N	-0.838313	1.28828	1.1484
H	-0.0015472	3.14539	0.761188
N	1.86552	0.114727	-1.83549
H	2.44275	0.834634	-2.23814
H	1.94557	-0.839305	-2.14584
N	-0.0348904	-1.86505	-0.41558
C	-0.982679	-2.19567	0.451177
N	-1.4463	-1.10246	1.17824
H	-1.3702	-3.19016	0.59804
H	-2.15824	-1.09634	1.89077
C	3.65952	-2.25119	1.25594
C	4.18874	-0.948357	0.7287
H	4.46404	-2.98935	1.35216
H	2.92452	-2.68197	0.566305
H	3.1859	-2.12291	2.23394
C	4.85287	-0.957966	-0.577144
C	4.08668	0.23127	1.39126
N	4.58687	1.41842	0.876165
H	3.60853	0.310162	2.35988
N	5.32638	0.296454	-1.01407
C	5.23357	1.51595	-0.353941
H	5.78893	0.312936	-1.91473
H	4.49863	2.28352	1.3882
O	5.67707	2.58677	-0.804015
O	5.01191	-1.97184	-1.28661
