30
  This energy is 0.0012602 and Call times are: 7985
C	0.191237	-0.980572	-0.959656
N	-0.940455	-0.697896	-1.65782
C	-1.74401	0.30486	-1.22698
C	0.481551	-0.214126	0.188666
C	-0.435786	0.795301	0.524184
N	-1.56596	1.09859	-0.148795
H	-2.63158	0.487859	-1.81925
N	0.991101	-1.98384	-1.39443
H	0.725358	-2.49189	-2.22199
H	1.83566	-2.2172	-0.899281
N	1.53952	-0.250855	1.10421
C	1.26376	0.71495	1.97027
N	0.0792857	1.38136	1.66763
H	1.8697	0.977014	2.82169
H	-0.340688	2.14617	2.17091
C	9.4127	1.73053	-1.2465
C	8.35556	0.95281	-0.516418
H	9.40485	1.4914	-2.31615
H	10.4122	1.47178	-0.878411
H	9.26698	2.80866	-1.12969
C	8.41661	-0.509654	-0.578593
C	7.3519	1.52641	0.193919
N	6.38986	0.778754	0.857501
H	7.24712	2.60086	0.281431
N	7.39586	-1.17921	0.127414
C	6.35927	-0.614067	0.860664
H	7.41893	-2.19114	0.0979712
H	5.6528	1.22874	1.37961
O	5.49107	-1.27204	1.46001
O	9.28499	-1.15955	-1.19513
