30
  This energy is -0.00224515 and Call times are: 16742
C	0.876609	0.367051	-1.0079
N	0.575743	-0.677066	-1.82483
C	-0.347897	-1.58233	-1.41958
C	0.211098	0.463462	0.232327
C	-0.723538	-0.542334	0.528724
N	-1.04258	-1.58934	-0.261319
H	-0.549603	-2.39331	-2.10782
N	1.80054	1.2692	-1.41758
H	2.23841	1.14141	-2.31509
H	2.0449	2.05298	-0.835441
N	0.290941	1.39306	1.27556
C	-0.576377	0.955362	2.17836
N	-1.21931	-0.21317	1.77856
H	-0.781263	1.42993	3.12365
H	-1.91515	-0.735492	2.28609
C	6.14791	1.34485	-1.90519
C	5.29759	0.491216	-1.0087
H	7.12852	1.53098	-1.45224
H	5.68717	2.32706	-2.06128
H	6.29891	0.872173	-2.88039
C	5.00508	0.991925	0.33671
C	4.78784	-0.712088	-1.37358
N	4.00526	-1.47694	-0.520702
H	4.96467	-1.14152	-2.35205
N	4.2025	0.143305	1.1269
C	3.66988	-1.09131	0.775332
H	3.98773	0.470029	2.06099
H	3.63736	-2.36924	-0.815323
O	2.96717	-1.78661	1.52943
O	5.41122	2.07903	0.794778
