30
  This energy is -0.0141446 and Call times are: 9302
C	0.177644	-1.06413	-0.868961
N	-1.08234	-1.55485	-0.728602
C	-1.94667	-0.917023	0.0978159
C	0.532593	0.093409	-0.144759
C	-0.459231	0.655156	0.676062
N	-1.71673	0.19091	0.835254
H	-2.93631	-1.34947	0.172831
N	1.0378	-1.70533	-1.69622
H	0.72021	-2.52693	-2.18377
H	1.97725	-1.36666	-1.82127
N	1.7191	0.831951	-0.0698013
C	1.44599	1.81531	0.777132
N	0.141258	1.75738	1.25981
H	2.13626	2.58643	1.07659
H	-0.301372	2.38675	1.90986
C	7.19617	2.35171	1.18685
C	6.51999	1.15502	0.581742
H	7.84772	2.84361	0.455479
H	7.83838	2.05559	2.02427
H	6.46606	3.08171	1.5492
C	7.36871	0.0856793	0.0501655
C	5.17344	1.0099	0.500198
N	4.57967	-0.109077	-0.0656427
H	4.48796	1.76108	0.872926
N	6.67211	-1.00832	-0.503538
C	5.29603	-1.17879	-0.598031
H	7.23945	-1.75939	-0.87695
H	3.57532	-0.193989	-0.114681
O	4.75105	-2.17613	-1.10222
O	8.61624	0.0951646	0.0630374
