30
  This energy is 4.6048e-05 and Call times are: 7963
C	-0.249039	-0.254076	-1.33883
N	-1.55414	-0.591894	-1.1637
C	-2.07707	-0.564219	0.0863454
C	0.508096	0.112442	-0.20623
C	-0.156996	0.0988985	1.0309
N	-1.44978	-0.231464	1.23525
H	-3.12011	-0.842073	0.169376
N	0.268909	-0.283332	-2.59032
H	-0.326724	-0.554275	-3.35544
H	1.2316	-0.0386979	-2.75245
N	1.84271	0.504152	-0.0505934
C	1.97622	0.721029	1.25095
N	0.796791	0.491064	1.95433
H	2.88312	1.03981	1.73744
H	0.644668	0.585829	2.94553
C	6.74794	2.23657	-1.60754
C	6.62425	1.09085	-0.644496
H	5.82935	2.83434	-1.62353
H	6.89866	1.87256	-2.63036
H	7.58451	2.89075	-1.34399
C	5.54625	0.123877	-0.866471
C	7.45113	0.90248	0.414612
N	7.30964	-0.167305	1.28661
H	8.26774	1.57827	0.637147
N	5.4854	-0.926596	0.0724052
C	6.31975	-1.13983	1.16326
H	4.7475	-1.6069	-0.0621523
H	7.93762	-0.285995	2.06757
O	6.20431	-2.09396	1.95205
O	4.72031	0.181509	-1.79977
