30
  This energy is -0.000702464 and Call times are: 562
C	-0.479918	0.969028	-0.865849
N	-0.0723063	2.02529	-0.113368
C	0.570537	1.78863	1.05607
C	-0.214796	-0.334011	-0.394506
C	0.459444	-0.437719	0.833364
N	0.875759	0.591306	1.60146
H	0.873167	2.66465	1.61558
N	-1.12206	1.2109	-2.03397
H	-1.27947	2.16558	-2.31217
H	-1.43613	0.450189	-2.61327
N	-0.495593	-1.60137	-0.917783
C	-0.0010409	-2.44737	-0.0241458
N	0.588865	-1.79769	1.05687
H	-0.0371163	-3.5215	-0.0996586
H	1.03092	-2.21752	1.8587
C	7.13659	-2.27486	0.934315
C	6.37268	-1.02378	0.607717
H	8.18329	-2.18638	0.621283
H	6.72397	-3.13611	0.396374
H	7.11091	-2.48944	2.00695
C	6.31498	-0.603861	-0.794687
C	5.73626	-0.264368	1.53465
N	5.03867	0.887187	1.19978
H	5.73846	-0.516352	2.58801
N	5.58289	0.577576	-1.0333
C	4.92378	1.37081	-0.101679
H	5.52991	0.886229	-1.99628
H	4.57317	1.4355	1.9076
O	4.2951	2.40457	-0.388055
O	6.85514	-1.21075	-1.74151
