30
  This energy is 0.000581077 and Call times are: 6533
C	-1.38187	0.0832976	0.0504018
N	-1.57422	-1.21171	0.416507
C	-0.494703	-2.01469	0.57993
C	-0.06044	0.537407	-0.144488
C	0.966763	-0.398931	0.05836
N	0.806492	-1.68915	0.421448
H	-0.704242	-3.03596	0.871717
N	-2.46419	0.881841	-0.111653
H	-3.38034	0.494285	0.0434505
H	-2.3546	1.84502	-0.382174
N	0.464382	1.78111	-0.514128
C	1.77748	1.59588	-0.532868
N	2.13801	0.294318	-0.194287
H	2.50732	2.34933	-0.778647
H	3.06721	-0.0903766	-0.137847
C	8.78612	2.20585	-1.24969
C	8.17471	0.933312	-0.737589
H	9.64913	2.49751	-0.640155
H	8.07083	3.03426	-1.19064
H	9.11301	2.10151	-2.28869
C	7.68664	0.916269	0.643677
C	8.04996	-0.195973	-1.47926
N	7.47996	-1.35634	-0.975776
H	8.38931	-0.252895	-2.50624
N	7.12456	-0.307567	1.06198
C	6.98628	-1.47554	0.321516
H	6.78053	-0.341648	2.01376
H	7.39827	-2.18396	-1.54737
O	6.47747	-2.52179	0.760109
O	7.74116	1.88409	1.42912
