30
  This energy is 0.000260576 and Call times are: 5104
C	1.32683	-0.382083	-0.112111
N	1.69504	0.0751545	1.11403
C	0.762163	0.661903	1.90289
C	-0.0169375	-0.225226	-0.512174
C	-0.880412	0.400385	0.402181
N	-0.543948	0.863869	1.62454
H	1.10857	1.00786	2.86848
N	2.26305	-0.967808	-0.896824
H	3.20491	-1.04815	-0.550348
H	2.02161	-1.31635	-1.80958
N	-0.699986	-0.578325	-1.68163
C	-1.94589	-0.173816	-1.47428
N	-2.11229	0.425833	-0.228733
H	-2.75866	-0.28354	-2.17294
H	-2.95833	0.811157	0.159021
C	13.3457	-2.15716	0.889884
C	12.4217	-1.12252	0.314442
H	13.2897	-2.16536	1.98451
H	14.3882	-1.93508	0.634529
H	13.1026	-3.15832	0.521316
C	12.6222	0.272386	0.714964
C	11.4163	-1.40637	-0.551341
N	10.5793	-0.426377	-1.06501
H	11.2123	-2.41511	-0.888824
N	11.722	1.19285	0.139523
C	10.6863	0.926005	-0.747991
H	11.8426	2.16323	0.402639
H	9.83815	-0.662552	-1.7079
O	9.92934	1.7943	-1.2159
O	13.5071	0.66624	1.50139
