30
  This energy is -0.00057346 and Call times are: 17341
C	0.192796	-0.939668	0.999442
N	-0.98745	-1.58356	0.798222
C	-1.81977	-1.13926	-0.174757
C	0.501542	0.168506	0.182748
C	-0.449591	0.523625	-0.787951
N	-1.6281	-0.0958115	-1.01063
H	-2.74569	-1.68775	-0.292518
N	1.02125	-1.38769	1.97325
H	0.740015	-2.18455	2.52053
H	1.90188	-0.932338	2.1466
N	1.60652	1.0262	0.135368
C	1.32532	1.87745	-0.841968
N	0.0926707	1.62003	-1.43609
H	1.9602	2.68689	-1.16211
H	-0.340619	2.12282	-2.19376
C	4.23356	-1.19656	-1.30736
C	5.34072	-0.397224	-0.682304
H	3.61957	-1.6807	-0.539229
H	4.63756	-2.00048	-1.93336
H	3.58606	-0.566557	-1.92468
C	6.29469	-1.10424	0.175871
C	5.50574	0.936772	-0.867093
N	6.54003	1.6466	-0.274432
H	4.83777	1.52079	-1.48822
N	7.30875	-0.29675	0.731132
C	7.49758	1.06905	0.556484
H	7.9795	-0.765218	1.32782
H	6.64186	2.63888	-0.427231
O	8.41986	1.71708	1.08124
O	6.25571	-2.32575	0.426834
