30
  This energy is -0.00748998 and Call times are: 1027
C	-0.285112	1.27273	0.466791
N	-0.045115	0.98575	1.77374
C	0.335569	-0.270644	2.11049
C	-0.126725	0.245277	-0.486945
C	0.272386	-1.01143	-0.00276483
N	0.517565	-1.32557	1.28696
H	0.513649	-0.44493	3.16403
N	-0.66539	2.53007	0.135368
H	-0.759635	3.21658	0.865721
H	-0.850367	2.77364	-0.823467
N	-0.291435	0.214946	-1.87648
C	0.00219549	-1.03213	-2.21921
N	0.350535	-1.81882	-1.12448
H	-0.0179188	-1.42105	-3.22375
H	0.612609	-2.7914	-1.12593
C	6.30326	2.40859	0.680004
C	5.50777	1.15663	0.445024
H	6.35875	3.0132	-0.232556
H	7.33651	2.16878	0.956184
H	5.86281	3.01781	1.47505
C	5.97439	0.23434	-0.593259
C	4.38638	0.833846	1.13728
N	3.67358	-0.331601	0.895389
H	3.98616	1.46966	1.91743
N	5.18357	-0.920796	-0.76337
C	4.03299	-1.27215	-0.0674622
H	5.48807	-1.57248	-1.47611
H	2.84204	-0.549737	1.42387
O	3.38505	-2.31305	-0.273875
O	6.98751	0.412198	-1.29933
