30
  This energy is -3.4334e-05 and Call times are: 10468
C	1.19186	-0.703068	0.0648487
N	1.22641	-1.01733	-1.25731
C	0.221148	-0.5903	-2.05977
C	0.105788	0.0576493	0.546645
C	-0.868077	0.435453	-0.392436
N	-0.860519	0.138629	-1.70926
H	0.297938	-0.868141	-3.1033
N	2.19908	-1.13229	0.862744
H	2.94475	-1.67174	0.454623
H	2.20205	-0.915918	1.84564
N	-0.218662	0.535886	1.82135
C	-1.36187	1.1864	1.65166
N	-1.80148	1.15787	0.330826
H	-1.91119	1.6898	2.42986
H	-2.63596	1.57619	-0.0476485
C	21.2277	0.315416	-2.13882
C	20.2198	0.318057	-1.02549
H	21.0128	-0.482913	-2.85846
H	22.2353	0.121944	-1.75309
H	21.2364	1.2712	-2.67141
C	20.0904	-0.896777	-0.216896
C	19.4261	1.37765	-0.728415
N	18.5039	1.34774	0.307627
H	19.4695	2.30577	-1.28501
N	19.1273	-0.828651	0.810954
C	18.3042	0.243714	1.13355
H	19.0213	-1.65774	1.3826
H	17.9246	2.14909	0.50921
O	17.474	0.230372	2.05905
O	20.758	-1.93729	-0.384904
