30
  This energy is -0.00575451 and Call times are: 3783
C	-0.22878	0.326366	1.32672
N	0.369874	-0.782928	1.83578
C	0.904676	-1.69002	0.982547
C	-0.267575	0.485995	-0.074489
C	0.32444	-0.529387	-0.843606
N	0.925164	-1.64032	-0.367012
H	1.3689	-2.55426	1.44041
N	-0.761825	1.23005	2.18379
H	-0.699838	1.05511	3.17331
H	-1.21165	2.06123	1.83781
N	-0.796101	1.48914	-0.894992
C	-0.527517	1.08526	-2.12935
N	0.149753	-0.130946	-2.15775
H	-0.791493	1.61764	-3.02804
H	0.462198	-0.640881	-2.96827
C	5.80795	2.27143	-1.51835
C	5.36065	1.01112	-0.835003
H	6.88276	2.24016	-1.73098
H	5.64455	3.14368	-0.875025
H	5.2713	2.42723	-2.45909
C	5.99001	0.664844	0.441868
C	4.4109	0.179322	-1.33201
N	4.02009	-0.978687	-0.675413
H	3.90565	0.374548	-2.26992
N	5.52554	-0.529454	1.0306
C	4.55558	-1.39613	0.541092
H	5.94712	-0.78801	1.91425
H	3.31104	-1.58155	-1.06548
O	4.19593	-2.43654	1.11912
O	6.87316	1.34181	1.00607
