30
  This energy is -0.00228028 and Call times are: 16557
C	0.402469	0.763859	-1.08331
N	1.7343	0.629003	-0.846433
C	2.1404	-0.103938	0.2188
C	-0.503581	0.131938	-0.205754
C	0.0510568	-0.597283	0.858969
N	1.36698	-0.748635	1.11901
H	3.21097	-0.178959	0.361299
N	0.00167705	1.4975	-2.14938
H	0.700853	1.92219	-2.73622
H	-0.97717	1.61594	-2.35121
N	-1.90171	0.0772449	-0.172723
C	-2.18058	-0.668182	0.888154
N	-1.03592	-1.10372	1.55053
H	-3.17179	-0.924417	1.2237
H	-0.985612	-1.67803	2.3765
C	5.67182	-2.40797	-0.989411
C	6.12572	-1.03328	-0.589858
H	5.16335	-2.90865	-0.15744
H	6.52709	-3.03982	-1.25525
H	4.98833	-2.37004	-1.84302
C	7.04862	-0.919657	0.542287
C	5.73044	0.103738	-1.21585
N	6.16845	1.35971	-0.821485
H	5.0503	0.0924677	-2.05867
N	7.43562	0.397271	0.865722
C	7.04453	1.57508	0.240117
H	8.07365	0.499106	1.64544
H	5.86012	2.19107	-1.30327
O	7.42943	2.70653	0.583009
O	7.48739	-1.8837	1.20157
