30
  This energy is -0.000175397 and Call times are: 5082
C	-0.0898401	0.467096	-1.30107
N	0.851735	1.43651	-1.15363
C	1.46074	1.58238	0.0483179
C	-0.393684	-0.349028	-0.191122
C	0.3116	-0.0909901	0.995896
N	1.25035	0.862929	1.17185
H	2.20207	2.36885	0.111007
N	-0.695664	0.325367	-2.5045
H	-0.431907	0.941526	-3.25575
H	-1.39668	-0.382937	-2.64518
N	-1.29082	-1.40918	-0.0176723
C	-1.12799	-1.77961	1.24532
N	-0.170018	-1.01561	1.90659
H	-1.66283	-2.57828	1.73197
H	0.130398	-1.10219	2.86411
C	10.8522	-1.77335	-2.12788
C	10.4836	-0.916912	-0.950549
H	11.8349	-2.23618	-1.98185
H	10.9256	-1.17146	-3.04097
H	10.1151	-2.56538	-2.29135
C	11.3771	0.191318	-0.60433
C	9.37475	-1.11156	-0.193288
N	9.06268	-0.301698	0.889111
H	8.67201	-1.91115	-0.393019
N	10.9742	0.955746	0.510111
C	9.84474	0.775645	1.29972
H	11.5775	1.72736	0.767153
H	8.23166	-0.466673	1.43732
O	9.55321	1.4938	2.27192
O	12.4253	0.477761	-1.21731
