30
  This energy is -0.00330755 and Call times are: 8882
C	-1.32812	0.209597	0.333445
N	-1.47613	1.32562	-0.428568
C	-0.417769	1.77568	-1.14562
C	-0.0731519	-0.434823	0.344838
C	0.938778	0.136726	-0.444054
N	0.821422	1.24229	-1.20965
H	-0.589984	2.66747	-1.73476
N	-2.38905	-0.236209	1.04833
H	-3.25708	0.27106	0.995434
H	-2.31109	-1.05951	1.62191
N	0.395271	-1.57526	1.00728
C	1.66029	-1.68619	0.624799
N	2.04292	-0.676304	-0.254061
H	2.33925	-2.46022	0.942089
H	2.94526	-0.543841	-0.681644
C	8.88833	-2.55631	0.062401
C	8.41921	-1.13649	-0.0771477
H	8.13282	-3.25603	-0.313079
H	9.05137	-2.81207	1.11568
H	9.82081	-2.724	-0.484969
C	7.17854	-0.755943	0.602794
C	9.07712	-0.191261	-0.794517
N	8.61649	1.11285	-0.903854
H	9.99903	-0.403988	-1.32168
N	6.79401	0.590001	0.431759
C	7.45055	1.5746	-0.297006
H	5.93897	0.874856	0.893476
H	9.12386	1.79824	-1.44345
O	7.04908	2.74655	-0.403031
O	6.48016	-1.52656	1.29198
