30
  This energy is -0.000187866 and Call times are: 8860
C	0.284277	0.313176	1.31914
N	-0.741911	1.19277	1.46518
C	-1.56588	1.42024	0.413437
C	0.447811	-0.327818	0.0730508
C	-0.476746	-0.00113959	-0.932681
N	-1.50405	0.866879	-0.817077
H	-2.3661	2.12925	0.583724
N	1.10507	0.0892798	2.37344
H	0.932374	0.580213	3.23527
H	1.87355	-0.55605	2.29672
N	1.3801	-1.26275	-0.391264
C	1.02345	-1.49247	-1.64781
N	-0.0946412	-0.755313	-2.02879
H	1.52376	-2.1681	-2.32158
H	-0.553895	-0.755602	-2.92527
C	5.2684	-1.72499	-1.97364
C	5.82691	-0.680347	-1.05049
H	4.23942	-1.9814	-1.69644
H	5.84736	-2.65342	-1.90874
H	5.27408	-1.38308	-3.01302
C	5.88589	-0.992259	0.379767
C	6.27754	0.530359	-1.46528
N	6.78793	1.4743	-0.585895
H	6.26306	0.826057	-2.50712
N	6.42022	0.0300024	1.19103
C	6.88725	1.27588	0.789481
H	6.47045	-0.164477	2.18354
H	7.11719	2.36823	-0.918802
O	7.34711	2.1306	1.56659
O	5.50539	-2.06539	0.889836
