30
  This energy is 0.00164501 and Call times are: 12534
C	-1.11179	0.327492	0.758752
N	-0.710422	-0.345314	1.86975
C	0.472189	-1.00687	1.84479
C	-0.275814	0.307797	-0.377523
C	0.922809	-0.416415	-0.268708
N	1.34713	-1.09313	0.819496
H	0.743664	-1.52567	2.75539
N	-2.2947	0.987179	0.788786
H	-2.84333	0.960852	1.63253
H	-2.6193	1.49441	-0.0175956
N	-0.396387	0.884623	-1.64701
C	0.705224	0.515103	-2.28638
N	1.54002	-0.274012	-1.49956
H	0.953004	0.780587	-3.30072
H	2.42752	-0.674943	-1.75686
C	5.66571	2.59658	-0.935577
C	5.43135	1.14972	-0.608293
H	6.54004	2.98191	-0.398497
H	4.81385	3.21092	-0.622043
H	5.82398	2.74238	-2.00839
C	5.20205	0.794008	0.794307
C	5.42039	0.158499	-1.53473
N	5.20094	-1.16969	-1.19917
H	5.58279	0.350728	-2.58818
N	4.98889	-0.579309	1.03357
C	4.97321	-1.61099	0.102473
H	4.82813	-0.847647	1.99667
H	5.19746	-1.88928	-1.90666
O	4.77764	-2.80486	0.389414
O	5.18671	1.60682	1.74071
