30
  This energy is 0.000767117 and Call times are: 12467
C	-0.594208	-0.794243	-0.967019
N	0.564648	-1.36069	-1.39627
C	1.73003	-0.997691	-0.807233
C	-0.533188	0.151499	0.0780701
C	0.739413	0.436799	0.599714
N	1.90568	-0.108863	0.194431
H	2.62237	-1.47887	-1.18702
N	-1.75642	-1.16046	-1.55906
H	-1.72962	-1.84152	-2.30003
H	-2.63081	-0.759104	-1.26368
N	-1.51937	0.898128	0.73293
C	-0.853938	1.61583	1.6279
N	0.517219	1.3765	1.59159
H	-1.29786	2.31355	2.31847
H	1.22911	1.79589	2.16773
C	7.55112	2.70759	-0.108538
C	7.28383	1.24411	0.0968912
H	6.62038	3.28474	-0.0636167
H	7.98176	2.89064	-1.09971
H	8.23937	3.09742	0.647495
C	6.37759	0.575977	-0.840509
C	7.83211	0.509899	1.09752
N	7.56427	-0.841656	1.26002
H	8.50962	0.939908	1.82494
N	6.16926	-0.79647	-0.592171
C	6.71882	-1.56837	0.424547
H	5.54608	-1.27838	-1.22842
H	7.98454	-1.36654	2.01249
O	6.48754	-2.7799	0.581439
O	5.80935	1.13446	-1.8006
