30
  This energy is -0.00270952 and Call times are: 4758
C	-0.81708	-0.99912	-0.503161
N	-1.70845	-0.963298	0.522631
C	-1.50931	-0.0840061	1.53458
C	0.281935	-0.115148	-0.469669
C	0.368892	0.744591	0.637719
N	-0.499505	0.802712	1.66956
H	-2.24855	-0.0971108	2.3254
N	-1.02062	-1.87982	-1.51227
H	-1.82585	-2.48295	-1.4745
H	-0.378644	-1.9304	-2.28571
N	1.35128	0.0935948	-1.34818
C	2.06457	1.05719	-0.781095
N	1.51604	1.48918	0.423555
H	2.97071	1.47814	-1.18416
H	1.86986	2.20501	1.03756
C	6.93104	1.65879	2.14918
C	6.73675	0.795551	0.935719
H	6.75438	1.08716	3.06757
H	6.21423	2.48795	2.15751
H	7.94308	2.07309	2.18618
C	5.42689	0.167475	0.745533
C	7.70213	0.565941	0.0103821
N	7.49036	-0.237709	-1.10054
H	8.69209	0.998214	0.0890596
N	5.31063	-0.629453	-0.412083
C	6.28378	-0.878883	-1.37246
H	4.41312	-1.0733	-0.563393
H	8.22451	-0.393371	-1.77519
O	6.10735	-1.59649	-2.37237
O	4.457	0.297087	1.51954
