30
  This energy is -0.00365308 and Call times are: 13319
C	-0.0912053	-0.509179	1.28509
N	-1.39626	-0.172675	1.46306
C	-2.05487	0.455168	0.458623
C	0.523956	-0.188691	0.0565814
C	-0.273134	0.462437	-0.899295
N	-1.56942	0.808668	-0.75116
H	-3.09133	0.700317	0.652763
N	0.562668	-1.13662	2.29213
H	0.0642466	-1.33614	3.14381
H	1.52911	-1.39861	2.19089
N	1.82003	-0.392943	-0.430591
C	1.80177	0.12397	-1.6518
N	0.559693	0.655849	-1.98798
H	2.63869	0.144262	-2.32997
H	0.295923	1.10071	-2.85234
C	9.29283	-0.743198	-1.64022
C	8.26863	-0.309554	-0.631065
H	9.24189	-0.12053	-2.54082
H	9.10909	-1.77375	-1.96515
H	10.3061	-0.682359	-1.23172
C	6.85961	-0.336284	-1.03149
C	8.57414	0.103743	0.624633
N	7.60326	0.498495	1.53371
H	9.59422	0.148089	0.985913
N	5.94994	0.0825357	-0.0386179
C	6.23891	0.509384	1.25207
H	4.97012	0.0718443	-0.294052
H	7.8556	0.802002	2.46245
O	5.37901	0.865499	2.07649
O	6.44565	-0.694097	-2.15272
