30
  This energy is -0.00178103 and Call times are: 8140
C	0.410735	-0.993018	-0.87421
N	1.66533	-1.10243	-0.362251
C	2.0207	-0.310406	0.678542
C	-0.471196	-0.0552044	-0.297091
C	0.0248363	0.702235	0.776808
N	1.26373	0.615732	1.30581
H	3.03049	-0.438181	1.04738
N	0.0604115	-1.78696	-1.91454
H	0.738502	-2.43554	-2.2794
H	-0.860908	-1.72959	-2.31552
N	-1.79595	0.29381	-0.583561
C	-2.08903	1.23975	0.298589
N	-1.02332	1.52705	1.14734
H	-3.03677	1.74663	0.373577
H	-0.998289	2.20204	1.89458
C	8.25641	-2.2258	-1.49329
C	7.65179	-1.08011	-0.733515
H	8.86223	-2.85639	-0.83243
H	8.92998	-1.86211	-2.27777
H	7.48521	-2.84795	-1.95743
C	8.5612	-0.153848	-0.0542492
C	6.31673	-0.856329	-0.641475
N	5.78978	0.212348	0.0692324
H	5.58882	-1.50102	-1.11853
N	7.93019	0.898798	0.640332
C	6.56716	1.14786	0.748497
H	8.54022	1.55132	1.11729
H	4.79264	0.357819	0.122999
O	6.08177	2.10146	1.38171
O	9.80538	-0.246263	-0.0602337
