30
  This energy is -0.00104403 and Call times are: 4119
C	-0.13407	-0.382647	-1.32463
N	0.10834	-1.70153	-1.10134
C	0.360517	-2.11737	0.163703
C	-0.112515	0.500285	-0.224478
C	0.161863	-0.0622682	1.03301
N	0.406042	-1.36575	1.28496
H	0.546772	-3.17686	0.285435
N	-0.3856	0.0279525	-2.59092
H	-0.386013	-0.654629	-3.33097
H	-0.56874	0.997665	-2.78846
N	-0.316422	1.88095	-0.119317
C	-0.167829	2.1418	1.17249
N	0.122873	1.00195	1.91741
H	-0.256357	3.11633	1.62328
H	0.278699	0.940878	2.91068
C	7.5464	-0.999697	-1.94553
C	6.74703	-0.485918	-0.782574
H	7.61983	-0.242083	-2.73421
H	7.06115	-1.87213	-2.39805
H	8.55804	-1.28342	-1.64002
C	5.36642	-0.0650805	-1.034
C	7.22998	-0.390103	0.481746
N	6.46483	0.0895633	1.53499
H	8.24074	-0.683251	0.737673
N	4.67161	0.4067	0.0988522
C	5.14459	0.513835	1.4013
H	3.71513	0.70291	-0.0521838
H	6.84668	0.151291	2.46704
O	4.46987	0.941536	2.35405
O	4.80314	-0.102127	-2.14661
