30
  This energy is 0.00032893 and Call times are: 16227
C	-1.15704	0.760657	0.0412587
N	-1.19655	0.858939	1.39656
C	-0.224021	0.260417	2.1265
C	-0.100261	0.0363752	-0.549509
C	0.84116	-0.534143	0.322992
N	0.827889	-0.453484	1.6704
H	-0.303287	0.369744	3.20065
N	-2.13148	1.3607	-0.68384
H	-2.85738	1.86242	-0.199146
H	-2.12994	1.30601	-1.68878
N	0.220532	-0.245096	-1.88245
C	1.32986	-0.968516	-1.81209
N	1.75078	-1.17442	-0.500944
H	1.86676	-1.36562	-2.65754
H	2.55938	-1.68782	-0.189198
C	7.87625	-1.98201	-1.8186
C	8.31325	-1.0543	-0.721424
H	8.54416	-1.90519	-2.68428
H	6.87399	-1.71932	-2.17618
H	7.86349	-3.02239	-1.47993
C	8.38049	0.377866	-1.02272
C	8.64777	-1.46669	0.527153
N	9.04808	-0.583154	1.5191
H	8.62052	-2.50977	0.817554
N	8.79747	1.19342	0.0495167
C	9.14466	0.794371	1.33473
H	8.85097	2.18733	-0.136712
H	9.29194	-0.914328	2.44062
O	9.50474	1.57525	2.23278
O	8.10042	0.886099	-2.12718
