30
  This energy is -0.00131865 and Call times are: 474
C	-0.0823127	-1.13992	-0.782834
N	1.25969	-1.34698	-0.847769
C	2.08837	-0.483782	-0.211345
C	-0.556509	-0.0300965	-0.0522291
C	0.410461	0.784887	0.559157
N	1.74742	0.604551	0.512173
H	3.14688	-0.694913	-0.295205
N	-0.906387	-2.0056	-1.42069
H	-0.502297	-2.77775	-1.92477
H	-1.90443	-1.8793	-1.39129
N	-1.84633	0.450055	0.202102
C	-1.65823	1.52932	0.949554
N	-0.311021	1.77935	1.19693
H	-2.4408	2.1609	1.33613
H	0.0848005	2.53369	1.73441
C	6.70371	-0.966212	2.62287
C	6.69266	-0.29997	1.27697
H	7.7302	-1.16409	2.95236
H	6.19862	-1.93811	2.58176
H	6.20867	-0.348224	3.37802
C	7.32041	-1.00751	0.158176
C	6.13653	0.914864	1.04071
N	6.14331	1.50343	-0.215636
H	5.65647	1.492	1.82144
N	7.27589	-0.328075	-1.07676
C	6.71289	0.914513	-1.34242
H	7.70407	-0.799276	-1.86419
H	5.72288	2.40834	-0.366366
O	6.71182	1.45313	-2.46305
O	7.86541	-2.12677	0.240617
