30
  This energy is -0.00376503 and Call times are: 9080
C	0.00873629	1.24743	0.602384
N	-0.423816	1.92212	-0.495687
C	-0.675612	1.23059	-1.63377
C	0.177582	-0.150125	0.509179
C	-0.119204	-0.74208	-0.729582
N	-0.549727	-0.0989306	-1.83556
H	-1.01753	1.81622	-2.47767
N	0.259022	1.94326	1.73752
H	0.117819	2.94008	1.73636
H	0.580281	1.47245	2.567
N	0.597653	-1.11295	1.43404
C	0.554135	-2.25762	0.765678
N	0.126976	-2.0923	-0.549188
H	0.814259	-3.22226	1.16888
H	0.0119852	-2.80507	-1.25157
C	4.02851	-1.51348	-2.33881
C	4.2198	-0.561388	-1.19324
H	3.00692	-1.9105	-2.35037
H	4.69585	-2.3778	-2.24397
H	4.22372	-1.02661	-3.29907
C	3.99455	-1.06846	0.162691
C	4.58763	0.735945	-1.34341
N	4.75577	1.59033	-0.263312
H	4.7701	1.17563	-2.31627
N	4.1908	-0.124737	1.19204
C	4.5668	1.20698	1.06267
H	4.04055	-0.454044	2.13776
H	5.03005	2.5517	-0.400694
O	4.72116	1.98313	2.02166
O	3.65455	-2.23697	0.437564
