30
  This energy is -0.00272339 and Call times are: 17319
C	-0.207154	-1.13448	-0.767506
N	-1.55007	-1.18376	-0.562032
C	-2.13037	-0.236141	0.213925
C	0.527759	-0.0940023	-0.161152
C	-0.19768	0.822018	0.618378
N	-1.52903	0.798524	0.840066
H	-3.2016	-0.3222	0.344674
N	0.368097	-2.08402	-1.54392
H	-0.214559	-2.79935	-1.94693
H	1.35986	-2.07469	-1.71486
N	1.88907	0.230823	-0.174498
C	1.97923	1.31767	0.580168
N	0.746123	1.72007	1.08632
H	2.89065	1.85054	0.79492
H	0.554855	2.51026	1.68098
C	6.7043	-2.55367	-1.13663
C	6.6077	-1.20802	-0.476836
H	7.49711	-3.15688	-0.679468
H	6.96482	-2.45129	-2.19637
H	5.76127	-3.10348	-1.06147
C	7.79528	-0.350274	-0.495113
C	5.48735	-0.744817	0.132409
N	5.4309	0.504327	0.733492
H	4.5749	-1.32617	0.182713
N	7.63819	0.898519	0.140909
C	6.50249	1.39383	0.77052
H	8.44702	1.50779	0.139992
H	4.58556	0.82671	1.1805
O	6.43825	2.51092	1.31264
O	8.88502	-0.65565	-1.02026
