30
  This energy is -0.00326135 and Call times are: 2118
C	0.192245	1.2195	-0.628413
N	-1.13043	1.49497	-0.779167
C	-2.04271	0.601994	-0.323984
C	0.559669	0.0101521	-0.00163549
C	-0.486319	-0.825606	0.423144
N	-1.80651	-0.578995	0.287307
H	-3.08135	0.870564	-0.469346
N	1.10016	2.11532	-1.08509
H	0.770319	2.95965	-1.52316
H	2.08649	1.94014	-0.988291
N	1.8038	-0.556189	0.298795
C	1.51156	-1.70641	0.890797
N	0.139628	-1.92103	0.992768
H	2.23362	-2.41502	1.26132
H	-0.329101	-2.71446	1.39941
C	5.08892	-2.26787	-1.39632
C	5.6733	-1.16113	-0.566221
H	5.17459	-2.04138	-2.46532
H	4.01921	-2.38802	-1.18974
H	5.5904	-3.22055	-1.20098
C	5.10417	0.180468	-0.716507
C	6.69413	-1.33372	0.310735
N	7.21181	-0.289347	1.06316
H	7.16106	-2.29774	0.471059
N	5.69735	1.17321	0.0905208
C	6.74199	1.0204	0.994369
H	5.31914	2.10844	0.00269594
H	7.97168	-0.442888	1.7092
O	7.21509	1.94727	1.6748
O	4.16637	0.473024	-1.4856
