30
  This energy is -0.00869636 and Call times are: 2182
C	-0.728889	-0.194496	1.16186
N	0.335254	-0.574592	1.91764
C	1.56294	-0.622021	1.34547
C	-0.508045	0.135707	-0.191857
C	0.813831	0.0440313	-0.657968
N	1.8889	-0.329733	0.0677744
H	2.37475	-0.930857	1.99172
N	-1.95395	-0.148706	1.73848
H	-2.04219	-0.397286	2.71008
H	-2.76128	0.128739	1.20542
N	-1.36893	0.554151	-1.21295
C	-0.581685	0.710307	-2.26877
N	0.750201	0.415263	-1.99002
H	-0.908112	1.02849	-3.24497
H	1.53354	0.457243	-2.62186
C	7.60513	0.71869	1.86959
C	6.61535	0.475105	0.766668
H	8.24836	-0.156388	2.01751
H	7.09282	0.891472	2.82305
H	8.23883	1.584	1.65303
C	5.69271	-0.653573	0.912357
C	6.5286	1.23831	-0.35178
N	5.60215	0.986196	-1.35327
H	7.1791	2.08705	-0.523711
N	4.78993	-0.827084	-0.15702
C	4.68263	-0.0595424	-1.31068
H	4.14263	-1.60169	-0.077016
H	5.55707	1.56851	-2.1762
O	3.85724	-0.274184	-2.21543
O	5.66785	-1.4303	1.88839
