30
  This energy is -3.4991e-05 and Call times are: 10842
C	1.18158	0.443472	0.571166
N	0.583706	1.18446	1.5415
C	-0.769891	1.22163	1.59841
C	0.363111	-0.258088	-0.338935
C	-1.0254	-0.133161	-0.167335
N	-1.64679	0.594034	0.785157
H	-1.19397	1.82636	2.38992
N	2.53489	0.409597	0.518563
H	3.05991	0.933797	1.19912
H	3.00702	-0.129729	-0.187926
N	0.658467	-1.08952	-1.42537
C	-0.526206	-1.45577	-1.89579
N	-1.58121	-0.906139	-1.17223
H	-0.684984	-2.10456	-2.74115
H	-2.56751	-1.03347	-1.33221
C	11.0856	-2.02038	-1.77069
C	10.7359	-1.04038	-0.687747
H	11.7376	-1.55775	-2.52054
H	10.1865	-2.35105	-2.30342
H	11.5926	-2.90047	-1.36381
C	10.0495	0.19387	-1.07753
C	11.019	-1.23343	0.625069
N	10.6823	-0.307366	1.60173
H	11.5242	-2.12239	0.982296
N	9.75008	1.07043	-0.0142062
C	10.0297	0.894417	1.33575
H	9.27533	1.93012	-0.261097
H	10.9037	-0.47377	2.57212
O	9.73355	1.71574	2.22096
O	9.73249	0.492428	-2.24668
