30
  This energy is -0.0046057 and Call times are: 5258
C	-0.7903	-0.497126	-1.02339
N	-0.130027	0.150056	-2.02002
C	0.922378	0.942991	-1.70294
C	-0.349237	-0.314395	0.304179
C	0.753727	0.534567	0.493271
N	1.42839	1.18961	-0.4752
H	1.41206	1.43448	-2.53402
N	-1.8416	-1.28855	-1.34555
H	-2.10452	-1.37536	-2.31351
H	-2.35064	-1.78083	-0.630412
N	-0.800939	-0.824831	1.52659
C	0.0125683	-0.294283	2.4297
N	0.973256	0.537119	1.86003
H	-0.0401507	-0.468947	3.49152
H	1.69844	1.05161	2.33332
C	6.21512	1.923	-2.03353
C	6.06671	0.951982	-0.897516
H	6.37235	1.39473	-2.98095
H	7.09179	2.56441	-1.88713
H	5.33063	2.55952	-2.13242
C	7.17407	0.0285909	-0.637698
C	4.96947	0.882514	-0.102434
N	4.8635	-0.0271769	0.939718
H	4.11536	1.53447	-0.238569
N	6.97144	-0.856123	0.44161
C	5.85807	-0.94561	1.26864
H	7.72468	-1.50346	0.639091
H	4.03675	-0.0594913	1.51747
O	5.75023	-1.75559	2.20577
O	8.23539	-0.0110902	-1.29236
