30
  This energy is -0.00304733 and Call times are: 4186
C	-1.15015	0.693087	0.34033
N	-1.58983	-0.224652	1.24172
C	-0.849219	-1.33888	1.45816
C	0.0639062	0.444635	-0.333992
C	0.731759	-0.749315	-0.015438
N	0.320224	-1.67793	0.873659
H	-1.24485	-2.03632	2.18555
N	-1.89407	1.80515	0.127587
H	-2.75134	1.92095	0.64263
H	-1.59535	2.50295	-0.533272
N	0.773611	1.17136	-1.29683
C	1.84382	0.430419	-1.55089
N	1.87005	-0.743842	-0.803162
H	2.62191	0.683359	-2.25186
H	2.57311	-1.46503	-0.817176
C	7.16272	2.44189	-0.120791
C	6.54507	1.07463	-0.18826
H	7.5482	2.64721	0.884516
H	6.41781	3.21783	-0.331537
H	7.98416	2.54433	-0.836313
C	5.42754	0.783508	0.713279
C	6.9625	0.098722	-1.03341
N	6.37004	-1.15525	-1.07082
H	7.78231	0.245962	-1.72572
N	4.89344	-0.51669	0.599681
C	5.30371	-1.53131	-0.256932
H	4.11969	-0.739514	1.21375
H	6.69854	-1.8649	-1.70865
O	4.78173	-2.65892	-0.300881
O	4.94881	1.59014	1.53592
