30
  This energy is 0.000201227 and Call times are: 12201
C	-0.558232	0.853023	-0.937955
N	0.599501	1.0718	-1.61608
C	1.73331	0.461913	-1.19259
C	-0.52911	-0.00355715	0.182663
C	0.712646	-0.570699	0.513439
N	1.87699	-0.372241	-0.140094
H	2.62626	0.67042	-1.7681
N	-1.68882	1.465	-1.36528
H	-1.64026	2.06444	-2.17269
H	-2.56152	1.3231	-0.884486
N	-1.52298	-0.425173	1.07335
C	-0.892223	-1.22762	1.92018
N	0.463544	-1.35219	1.62854
H	-1.3514	-1.73921	2.74975
H	1.1497	-1.90062	2.12151
C	10.2892	-0.31827	1.13374
C	8.88978	-0.0369765	0.667043
H	11.0217	-0.0158928	0.376511
H	10.438	-1.39178	1.29757
H	10.513	0.210374	2.06526
C	8.44032	-0.676402	-0.572118
C	8.02283	0.772559	1.32582
N	6.73546	1.01216	0.86744
H	8.28933	1.27655	2.24671
N	7.11769	-0.371133	-0.954399
C	6.21272	0.453702	-0.296935
H	6.78615	-0.802687	-1.80836
H	6.10885	1.61852	1.37541
O	5.05662	0.676759	-0.69639
O	9.13629	-1.44036	-1.27108
