30
  This energy is -0.000666211 and Call times are: 6577
C	0.746994	0.918902	0.718784
N	1.95454	0.39503	0.378978
C	1.99422	-0.690917	-0.430952
C	-0.418147	0.306453	0.211127
C	-0.234882	-0.812803	-0.617547
N	0.949639	-1.35466	-0.97178
H	2.98073	-1.06733	-0.670018
N	0.712714	2.00442	1.52862
H	1.58193	2.39276	1.85611
H	-0.165612	2.41531	1.79809
N	-1.77901	0.59365	0.367475
C	-2.39923	-0.332439	-0.35125
N	-1.51317	-1.21061	-0.969628
H	-3.46728	-0.419965	-0.462423
H	-1.73787	-1.99246	-1.56361
C	6.64594	2.542	-0.972024
C	6.91452	1.22881	-0.294649
H	6.05605	2.39744	-1.88445
H	7.58224	3.02086	-1.28092
H	6.10516	3.22771	-0.312786
C	7.63418	0.202436	-1.05296
C	6.52949	0.941415	0.974241
N	6.79318	-0.282798	1.57142
H	5.99441	1.65328	1.59068
N	7.85379	-1.00603	-0.360088
C	7.46942	-1.32281	0.9374
H	8.34983	-1.72973	-0.865657
H	6.49645	-0.472843	2.51703
O	7.69938	-2.41536	1.48452
O	8.04228	0.338768	-2.22404
