30
  This energy is -0.00150844 and Call times are: 13559
C	0.0132855	-1.23536	-0.626695
N	-0.629184	-1.89305	0.374677
C	-1.00344	-1.2023	1.47905
C	0.263794	0.144394	-0.472122
C	-0.177281	0.737626	0.722261
N	-0.816744	0.111118	1.73258
H	-1.51127	-1.77398	2.24543
N	0.385302	-1.93033	-1.7285
H	0.175763	-2.91395	-1.77508
H	0.862474	-1.47184	-2.48679
N	0.88765	1.08768	-1.29667
C	0.822715	2.22212	-0.61278
N	0.188133	2.06865	0.617026
H	1.20894	3.17103	-0.946188
H	0.0171178	2.77716	1.31228
C	4.17471	-0.842261	-0.864804
C	5.51555	-0.518848	-0.270683
H	4.27353	-1.13298	-1.917
H	3.51737	0.0346288	-0.845976
H	3.68429	-1.65671	-0.323136
C	6.29682	0.555146	-0.889179
C	6.04114	-1.16292	0.801629
N	7.28407	-0.839801	1.32657
H	5.51803	-1.96564	1.30667
N	7.54514	0.808414	-0.283988
C	8.10351	0.162969	0.812909
H	8.10203	1.54725	-0.695569
H	7.65368	-1.3336	2.12526
O	9.21567	0.442534	1.29338
O	5.92959	1.22379	-1.87641
