30
  This energy is -0.00056024 and Call times are: 5214
C	-0.290693	-1.26237	-0.490859
N	-1.62338	-1.03798	-0.638077
C	-2.12607	0.174163	-0.29917
C	0.515174	-0.218668	0.0107586
C	-0.133535	0.987484	0.32284
N	-1.45282	1.23913	0.187425
H	-3.19267	0.299355	-0.436027
N	0.206858	-2.47567	-0.831041
H	-0.423774	-3.17701	-1.18321
H	1.18902	-2.67253	-0.733559
N	1.88688	-0.129774	0.274186
C	2.05819	1.10226	0.734212
N	0.868293	1.82353	0.785003
H	3.00039	1.52479	1.04161
H	0.738698	2.77304	1.09523
C	8.21166	-0.301787	2.23208
C	7.36357	-0.313093	0.992716
H	7.6048	-0.0850335	3.11873
H	8.97268	0.485144	2.17745
H	8.71416	-1.26238	2.38043
C	6.62512	0.907145	0.657893
C	7.24363	-1.38531	0.169975
N	6.45086	-1.3633	-0.968391
H	7.76105	-2.3181	0.357719
N	5.84872	0.830375	-0.516843
C	5.71059	-0.254949	-1.37391
H	5.3298	1.66308	-0.767334
H	6.37783	-2.17397	-1.56491
O	5.00402	-0.248659	-2.39695
O	6.64868	1.95912	1.32824
