30
  This energy is -0.00625878 and Call times are: 13777
C	0.297076	-1.28285	0.430203
N	-0.9637	-1.76571	0.270967
C	-1.93116	-0.935395	-0.188858
C	0.544931	0.0681976	0.10833
C	-0.547326	0.818156	-0.358102
N	-1.8083	0.366644	-0.526199
H	-2.91648	-1.3707	-0.297012
N	1.26055	-2.11684	0.89013
H	1.01624	-3.07047	1.10109
H	2.20346	-1.78926	1.01865
N	1.70308	0.852424	0.158819
C	1.31507	2.04673	-0.267765
N	-0.0378853	2.08337	-0.594634
H	1.95288	2.90998	-0.361245
H	-0.565205	2.86944	-0.939036
C	7.02581	-0.754975	-2.40038
C	6.50653	-0.435484	-1.02789
H	7.2122	0.162231	-2.97081
H	6.28946	-1.33133	-2.97221
H	7.95571	-1.32953	-2.35135
C	5.26274	0.332311	-0.928599
C	7.12228	-0.816316	0.119607
N	6.6161	-0.504541	1.37318
H	8.04394	-1.38518	0.119155
N	4.83013	0.598366	0.38698
C	5.44304	0.219292	1.57535
H	3.97195	1.12796	0.479003
H	7.09255	-0.799262	2.21251
O	5.00031	0.491719	2.70481
O	4.60015	0.74187	-1.90318
