30
  This energy is -2.9394e-05 and Call times are: 1893
C	-0.433536	-1.18154	-0.578825
N	-1.72947	-1.04505	-0.191545
C	-2.0886	0.0479525	0.524857
C	0.485792	-0.174628	-0.216441
C	-0.0188367	0.905083	0.526928
N	-1.29835	1.06746	0.925241
H	-3.13205	0.106943	0.807295
N	-0.079648	-2.27588	-1.29475
H	-0.785792	-2.95723	-1.51996
H	0.871812	-2.40556	-1.5961
N	1.85647	-0.0196533	-0.453266
C	2.16812	1.12752	0.134737
N	1.07096	1.73059	0.744018
H	3.1512	1.56787	0.154906
H	1.05166	2.6008	1.25093
C	9.08364	-0.165999	2.26673
C	8.06499	-0.084152	1.16623
H	9.74103	0.711002	2.25654
H	9.73136	-1.04039	2.13519
H	8.6056	-0.231407	3.24879
C	8.55287	0.00818913	-0.212114
C	6.72459	-0.0907527	1.37645
N	5.8091	-0.0134673	0.336857
H	6.29594	-0.156685	2.36892
N	7.54613	0.0819967	-1.19686
C	6.16953	0.0769635	-1.00583
H	7.86113	0.146354	-2.15709
H	4.81652	-0.0202241	0.518717
O	5.33842	0.145419	-1.92805
O	9.75627	0.0237202	-0.54096
