30
  This energy is -0.00584563 and Call times are: 16513
C	-0.823351	1.06536	0.32578
N	-1.89134	0.624613	-0.390607
C	-1.78656	-0.540316	-1.0753
C	0.353456	0.28723	0.325428
C	0.327458	-0.898909	-0.426517
N	-0.71651	-1.36136	-1.14655
H	-2.66581	-0.844878	-1.62866
N	-0.933164	2.23038	1.00845
H	-1.80211	2.73708	0.966299
H	-0.160251	2.58309	1.54799
N	1.59673	0.457566	0.945208
C	2.3017	-0.602599	0.573798
N	1.58267	-1.45753	-0.257324
H	3.31842	-0.805767	0.866639
H	1.89649	-2.32208	-0.668006
C	7.25258	-1.25643	2.46854
C	7.17643	-0.472759	1.18968
H	7.42924	-2.31899	2.26563
H	6.3063	-1.19913	3.0187
H	8.05428	-0.887504	3.11539
C	6.14779	-0.849279	0.216791
C	8.00334	0.559367	0.886576
N	7.90678	1.26349	-0.304949
H	8.785	0.889968	1.55946
N	6.13005	-0.0747192	-0.961525
C	6.9654	0.985249	-1.29352
H	5.42654	-0.317789	-1.64811
H	8.53372	2.02785	-0.507582
O	6.88967	1.62463	-2.35718
O	5.32704	-1.77596	0.37237
