30
  This energy is -0.00383169 and Call times are: 1110
C	-0.101409	1.37209	0.16163
N	-1.10101	1.31842	1.08141
C	-1.57834	0.108362	1.46188
C	0.398148	0.159961	-0.359481
C	-0.185988	-1.02371	0.12086
N	-1.17816	-1.10798	1.03227
H	-2.37353	0.122816	2.1964
N	0.372246	2.58407	-0.215355
H	-0.0289476	3.41082	0.195873
H	1.11173	2.65685	-0.894151
N	1.39857	-0.122336	-1.29668
C	1.41492	-1.446	-1.37741
N	0.476088	-2.04363	-0.540692
H	2.06994	-2.02135	-2.01041
H	0.296374	-3.02781	-0.423661
C	8.22049	1.71217	1.26043
C	7.20738	0.727361	0.751316
H	7.9337	2.73752	1.00003
H	9.19999	1.53801	0.800391
H	8.32962	1.6465	2.34718
C	6.94966	0.694576	-0.690521
C	6.52074	-0.129367	1.54848
N	5.59035	-1.02767	1.04621
H	6.66188	-0.158348	2.62193
N	5.9885	-0.25147	-1.10267
C	5.27359	-1.1379	-0.305976
H	5.79477	-0.291326	-2.09579
H	5.09214	-1.6552	1.65968
O	4.43753	-1.94785	-0.742883
O	7.51154	1.4266	-1.53016
