30
  This energy is -0.000936832 and Call times are: 14748
C	0.34125	0.124793	-1.33679
N	0.808454	-1.14508	-1.46802
C	0.778896	-1.96954	-0.39274
C	-0.156528	0.531313	-0.0808752
C	-0.129316	-0.422915	0.949528
N	0.327806	-1.68906	0.849052
H	1.16275	-2.9692	-0.552042
N	0.372979	0.944973	-2.41459
H	0.74145	0.591488	-3.28227
H	0.0344044	1.89049	-2.34929
N	-0.695792	1.74036	0.37329
C	-0.985985	1.51727	1.64801
N	-0.663915	0.223846	2.0505
H	-1.42237	2.23699	2.32056
H	-0.787802	-0.183881	2.96319
C	4.11385	0.387758	-0.444438
C	5.54315	0.191826	-0.0271193
H	3.75652	-0.468303	-1.02828
H	4.01264	1.26741	-1.09047
H	3.45896	0.515476	0.422768
C	6.54425	0.00681524	-1.08067
C	5.95684	0.176512	1.26499
N	7.28609	-0.00721239	1.6174
H	5.27061	0.306967	2.09272
N	7.86581	-0.17179	-0.622138
C	8.31268	-0.191185	0.693727
H	8.57437	-0.301415	-1.33386
H	7.56927	-0.0146588	2.58595
O	9.50035	-0.354603	1.02331
O	6.29679	0.000126241	-2.30349
