30
  This energy is -0.00157252 and Call times are: 12377
C	-0.138055	1.26956	-0.53684
N	0.920616	1.80448	0.127349
C	1.63721	1.01499	0.964038
C	-0.44637	-0.0908001	-0.325338
C	0.37761	-0.794802	0.568227
N	1.43394	-0.291203	1.24108
H	2.4692	1.49093	1.46733
N	-0.851126	2.06289	-1.37201
H	-0.577379	3.02597	-1.47753
H	-1.64021	1.69634	-1.87788
N	-1.44603	-0.922594	-0.842688
C	-1.22734	-2.09989	-0.272573
N	-0.135521	-2.08026	0.591265
H	-1.81228	-2.98903	-0.440015
H	0.22846	-2.84384	1.13813
C	6.04988	-1.86703	1.9814
C	6.26838	-0.758984	0.991487
H	6.96815	-2.07681	2.5419
H	5.77842	-2.7985	1.47144
H	5.25741	-1.61589	2.69285
C	7.30145	-0.948019	-0.0299991
C	5.56585	0.401782	0.990638
N	5.79258	1.40677	0.0614262
H	4.78877	0.607101	1.71663
N	7.45598	0.128625	-0.927575
C	6.74934	1.32521	-0.94795
H	8.16487	0.0191313	-1.64234
H	5.25667	2.26161	0.0813207
O	6.94214	2.23362	-1.77471
O	8.01578	-1.96505	-0.139251
