30
  This energy is 0.00203991 and Call times are: 5886
C	-1.2012	0.524755	0.448092
N	-0.772327	0.75944	1.71658
C	0.502691	0.440784	2.04769
C	-0.296044	-0.0430796	-0.473115
C	0.995776	-0.32498	0.000968644
N	1.44947	-0.103312	1.25285
H	0.79222	0.648259	3.07002
N	-2.47655	0.845045	0.122147
H	-3.07093	1.24772	0.827952
H	-2.82371	0.683459	-0.808591
N	-0.421654	-0.400148	-1.82055
C	0.76816	-0.885666	-2.14842
N	1.66542	-0.864248	-1.08393
H	1.03878	-1.26147	-3.1212
H	2.62308	-1.17645	-1.08184
C	6.41336	-1.03842	2.53218
C	6.87071	-0.596611	1.17164
H	5.38965	-1.42811	2.49271
H	6.39709	-0.194833	3.23181
H	7.06646	-1.81607	2.93958
C	6.09439	0.44454	0.493599
C	7.95741	-1.10566	0.538493
N	8.35351	-0.675508	-0.719648
H	8.57549	-1.87679	0.981657
N	6.57647	0.813533	-0.779246
C	7.68523	0.307068	-1.44686
H	6.05475	1.53205	-1.26603
H	9.16592	-1.06964	-1.1702
O	8.05126	0.683539	-2.57389
O	5.07782	0.993722	0.96429
