30
  This energy is -0.000504354 and Call times are: 1561
C	-0.419469	0.78152	-1.0641
N	0.201067	1.91502	-0.641988
C	0.912184	1.88321	0.511331
C	-0.295697	-0.384428	-0.279489
C	0.470473	-0.279594	0.893121
N	1.09726	0.830491	1.33701
H	1.38581	2.81256	0.801198
N	-1.12904	0.818532	-2.21757
H	-1.17707	1.68392	-2.72981
H	-1.59969	-0.00401031	-2.55642
N	-0.799067	-1.68144	-0.431942
C	-0.345353	-2.34087	0.625496
N	0.4291	-1.54105	1.46167
H	-0.538171	-3.37904	0.83948
H	0.881951	-1.8088	2.32064
C	5.04268	2.32407	1.52927
C	5.2966	1.18209	0.58754
H	5.48325	2.1246	2.51289
H	3.96797	2.46333	1.69353
H	5.46006	3.25926	1.14398
C	4.79539	-0.141427	0.966322
C	5.96124	1.30726	-0.588685
N	6.17957	0.231247	-1.43685
H	6.35816	2.25553	-0.929717
N	5.06684	-1.16906	0.0395178
C	5.74451	-1.06494	-1.1694
H	4.72913	-2.09257	0.281359
H	6.67692	0.349657	-2.30689
O	5.94683	-2.02055	-1.93868
O	4.1707	-0.391322	2.01698
