30
  This energy is -4.2423e-05 and Call times are: 3184
C	-0.403034	0.595293	1.18415
N	-0.29386	-0.53154	1.93675
C	0.114333	-1.67977	1.34362
C	-0.0851456	0.520215	-0.188315
C	0.325056	-0.731863	-0.675202
N	0.442738	-1.86629	0.0468741
H	0.184001	-2.54672	1.98827
N	-0.811462	1.74046	1.78176
H	-1.02266	1.72519	2.76601
H	-0.902171	2.59112	1.2516
N	-0.0933986	1.47488	-1.21174
C	0.302996	0.811	-2.28925
N	0.570038	-0.529221	-2.02248
H	0.414989	1.2349	-3.27339
H	0.882625	-1.23382	-2.67088
C	13.2463	1.57741	1.71235
C	14.214	0.748458	0.917518
H	12.3452	1.00186	1.95363
H	12.9128	2.44818	1.13621
H	13.6953	1.92899	2.64618
C	13.7572	0.204184	-0.363685
C	15.4816	0.476733	1.31806
N	16.3514	-0.293449	0.559728
H	15.8836	0.846871	2.25316
N	14.7133	-0.564271	-1.05949
C	16.0151	-0.855645	-0.669802
H	14.4186	-0.950312	-1.94806
H	17.2899	-0.481674	0.879154
O	16.8047	-1.544	-1.33952
O	12.6197	0.378978	-0.845523
