30
  This energy is -0.00165099 and Call times are: 4031
C	0.437112	1.23155	-0.459612
N	1.72987	1.05908	-0.0760732
C	2.08412	-0.0972347	0.535714
C	-0.484134	0.194355	-0.202919
C	0.0153765	-0.951265	0.438224
N	1.29165	-1.15056	0.830132
H	3.12521	-0.182617	0.820137
N	0.0880877	2.38916	-1.07075
H	0.795356	3.08911	-1.22381
H	-0.860927	2.54674	-1.36646
N	-1.85258	0.0622969	-0.465171
C	-2.16792	-1.13589	0.00790073
N	-1.0753	-1.79406	0.56616
H	-3.15065	-1.57645	-0.0224819
H	-1.05933	-2.7087	0.987791
C	5.15439	2.31801	-1.12288
C	5.70713	0.993317	-0.681187
H	5.91791	3.10161	-1.05642
H	4.32952	2.63316	-0.47354
H	4.78912	2.2743	-2.15337
C	6.23625	0.892774	0.68128
C	5.74373	-0.110083	-1.46992
N	6.26177	-1.32006	-1.03126
H	5.37	-0.106022	-2.48647
N	6.73968	-0.376739	1.03282
C	6.78765	-1.51953	0.243324
H	7.11049	-0.468801	1.9706
H	6.2779	-2.12706	-1.63694
O	7.24876	-2.60972	0.623802
O	6.26171	1.82933	1.50516
