30
  This energy is 0.000288516 and Call times are: 8162
C	0.829607	-0.677387	0.878596
N	0.958336	0.354926	1.75371
C	0.317725	1.52036	1.4925
C	0.0308736	-0.489861	-0.269107
C	-0.576945	0.767632	-0.418399
N	-0.467547	1.80988	0.432444
H	0.454005	2.30912	2.22143
N	1.47195	-1.84022	1.14424
H	2.02645	-1.90754	1.98185
H	1.39632	-2.62269	0.515809
N	-0.297135	-1.33224	-1.33759
C	-1.08438	-0.597102	-2.11135
N	-1.28785	0.683149	-1.60318
H	-1.53063	-0.926927	-3.03484
H	-1.84237	1.42205	-2.0046
C	9.3485	-1.48911	2.30567
C	9.02893	-0.851038	0.984239
H	8.64688	-1.15717	3.07958
H	10.3482	-1.19823	2.64828
H	9.30609	-2.58064	2.24227
C	9.04566	0.611997	0.909113
C	8.72688	-1.55068	-0.138346
N	8.43583	-0.930278	-1.34468
H	8.69643	-2.63323	-0.153523
N	8.73718	1.14712	-0.358627
C	8.42516	0.451668	-1.52077
H	8.74306	2.15697	-0.433281
H	8.21409	-1.47268	-2.16625
O	8.16269	0.994853	-2.60795
O	9.30688	1.37018	1.86488
