30
  This energy is -0.000913991 and Call times are: 6265
C	0.270387	-1.03424	-0.881063
N	1.43691	-0.508551	-1.34036
C	1.86322	0.677591	-0.842193
C	-0.449337	-0.318799	0.0989906
C	0.105157	0.898153	0.528626
N	1.25959	1.44441	0.0915199
H	2.7975	1.05066	-1.24218
N	-0.151398	-2.22012	-1.3822
H	0.41042	-2.67887	-2.08042
H	-1.01072	-2.63513	-1.06246
N	-1.6539	-0.579635	0.762207
C	-1.81918	0.457503	1.57209
N	-0.783974	1.38327	1.47221
H	-2.65097	0.595037	2.24289
H	-0.681813	2.24718	1.97997
C	5.80249	-2.55033	-0.986513
C	6.0558	-1.11738	-0.615136
H	5.13675	-3.03033	-0.260025
H	6.73506	-3.12623	-0.980016
H	5.3503	-2.63114	-1.9796
C	6.66104	-0.8459	0.69115
C	5.75662	-0.0653636	-1.41806
N	6.00334	1.2479	-1.0448
H	5.3081	-0.19402	-2.39547
N	6.87214	0.518579	0.97806
C	6.57433	1.61151	0.172838
H	7.28982	0.729188	1.87617
H	5.77187	2.01376	-1.6598
O	6.79029	2.79287	0.494794
O	6.98312	-1.71997	1.52111
