30
  This energy is -0.000205117 and Call times are: 10072
C	1.01818	0.19888	-0.918033
N	1.38893	1.41456	-0.435616
C	0.722867	1.93012	0.626173
C	-0.049025	-0.476615	-0.289431
C	-0.652617	0.170597	0.801356
N	-0.306683	1.37555	1.30195
H	1.05848	2.90034	0.969821
N	1.68712	-0.312091	-1.97954
H	2.43977	0.222352	-2.38139
H	1.43639	-1.20962	-2.35964
N	-0.659264	-1.71172	-0.536377
C	-1.60818	-1.80425	0.385511
N	-1.6495	-0.692486	1.22273
H	-2.28571	-2.63435	0.497951
H	-2.27654	-0.52737	1.99354
C	10.8501	0.329489	-2.75742
C	10.9387	0.305773	-1.25842
H	10.3805	-0.585896	-3.13551
H	11.8487	0.374021	-3.20708
H	10.2712	1.18872	-3.10931
C	11.6856	-0.789301	-0.634476
C	10.3681	1.23741	-0.453773
N	10.4685	1.1866	0.929045
H	9.80233	2.07257	-0.848047
N	11.7306	-0.753013	0.774548
C	11.1549	0.189326	1.61844
H	12.242	-1.5008	1.2269
H	10.0352	1.89173	1.50645
O	11.2373	0.155848	2.8586
O	12.2559	-1.70704	-1.25821
