30
  This energy is 0.00104899 and Call times are: 13799
C	-0.13583	-0.908484	1.03694
N	0.310688	-1.97887	0.327744
C	0.679649	-1.80225	-0.964354
C	-0.196073	0.345872	0.394035
C	0.216373	0.389481	-0.947982
N	0.663649	-0.654959	-1.67686
H	1.02734	-2.68693	-1.48251
N	-0.503426	-1.09028	2.32813
H	-0.435756	-2.01247	2.72636
H	-0.838102	-0.317628	2.87941
N	-0.598775	1.61225	0.833327
C	-0.431918	2.39889	-0.221303
N	0.0594076	1.71132	-1.32789
H	-0.644237	3.45481	-0.248036
H	0.267824	2.08476	-2.23986
C	9.52803	0.394494	1.42258
C	8.1651	0.220287	0.81636
H	10.089	1.18001	0.903318
H	10.1188	-0.523704	1.32597
H	9.46252	0.656395	2.48294
C	8.0879	-0.133695	-0.603194
C	7.00696	0.37192	1.50675
N	5.76268	0.203976	0.916485
H	6.99106	0.632862	2.55781
N	6.78032	-0.282229	-1.11001
C	5.58138	-0.132182	-0.423298
H	6.70355	-0.527027	-2.0896
H	4.9151	0.322216	1.45125
O	4.46005	-0.279905	-0.939746
O	9.074	-0.302059	-1.34874
