30
  This energy is 0.000135997 and Call times are: 15012
C	1.0703	0.240212	0.84604
N	0.480533	-0.288695	1.9508
C	-0.772807	-0.793936	1.84728
C	0.348604	0.240232	-0.366196
C	-0.941398	-0.314668	-0.334568
N	-1.55222	-0.84626	0.745473
H	-1.19508	-1.20249	2.75657
N	2.32321	0.743958	0.954758
H	2.78245	0.712647	1.85014
H	2.78665	1.14229	0.155097
N	0.663191	0.69789	-1.65089
C	-0.413824	0.423977	-2.3747
N	-1.41668	-0.189515	-1.62866
H	-0.528231	0.640319	-3.42392
H	-2.32222	-0.492501	-1.94928
C	12.4668	-0.222506	2.29744
C	13.1677	-0.0335567	0.982732
H	12.9701	0.339207	3.09274
H	12.4852	-1.27521	2.60216
H	11.4245	0.106523	2.24482
C	14.5753	-0.430103	0.894685
C	12.5728	0.481602	-0.122558
N	13.2491	0.64351	-1.3231
H	11.5361	0.795003	-0.127492
N	15.1739	-0.226821	-0.365886
C	14.5857	0.298282	-1.51039
H	16.147	-0.494248	-0.449244
H	12.7846	1.02914	-2.13173
O	15.1798	0.448533	-2.59221
O	15.2375	-0.915174	1.83421
