30
  This energy is -0.000961252 and Call times are: 12575
C	-0.439847	-1.1519	-0.631428
N	-1.4551	-0.548377	-1.30455
C	-1.65028	0.782884	-1.14178
C	0.370495	-0.36243	0.211455
C	0.0589869	1.00503	0.289171
N	-0.941147	1.63136	-0.366278
H	-2.47189	1.21266	-1.70061
N	-0.248922	-2.4828	-0.797537
H	-0.863834	-2.98763	-1.41448
H	0.494059	-2.95841	-0.313095
N	1.46875	-0.670536	1.02249
C	1.80925	0.486052	1.57498
N	0.989527	1.53479	1.16649
H	2.62382	0.628229	2.26565
H	1.0453	2.50151	1.44386
C	5.58145	2.12528	1.82013
C	5.64426	1.1118	0.713634
H	6.35993	1.93576	2.5681
H	4.62305	2.06747	2.34883
H	5.70695	3.1425	1.43704
C	5.49163	-0.30094	1.07039
C	5.83375	1.43015	-0.591615
N	5.88718	0.468908	-1.59062
H	5.9539	2.45364	-0.924909
N	5.56034	-1.20009	-0.0138145
C	5.75337	-0.897918	-1.35657
H	5.45716	-2.18224	0.21012
H	6.02912	0.730747	-2.5548
O	5.80305	-1.74905	-2.26157
O	5.31244	-0.726317	2.22949
