30
  This energy is 0.00119142 and Call times are: 839
C	-0.91965	-0.0372601	-1.03532
N	-1.23463	1.28374	-0.97345
C	-0.621778	2.06181	-0.0483221
C	0.0361521	-0.543393	-0.129431
C	0.59465	0.371829	0.778021
N	0.301989	1.68687	0.862871
H	-0.90917	3.10556	-0.0423171
N	-1.53502	-0.810737	-1.96182
H	-2.20809	-0.386022	-2.57842
H	-1.32333	-1.7921	-2.0326
N	0.567915	-1.82369	0.0627173
C	1.42662	-1.68062	1.06324
N	1.48343	-0.371889	1.53512
H	2.02644	-2.47034	1.48433
H	2.0548	-0.0132255	2.28311
C	7.58264	1.25245	2.46548
C	7.33204	0.424688	1.2377
H	6.83377	2.04717	2.56035
H	8.55744	1.75036	2.40861
H	7.55694	0.639846	3.37174
C	7.33567	1.10607	-0.0592586
C	7.10341	-0.912484	1.26265
N	6.87487	-1.64881	0.109206
H	7.08677	-1.47844	2.18595
N	7.09427	0.272612	-1.1709
C	6.85791	-1.09695	-1.16988
H	7.09243	0.723038	-2.07784
H	6.70722	-2.64293	0.153592
O	6.65197	-1.76867	-2.19569
O	7.53244	2.32751	-0.220272
