30
  This energy is -0.00128979 and Call times are: 16765
C	0.415112	-1.25862	-0.403214
N	0.718582	-1.69907	0.84658
C	0.533046	-0.865623	1.8991
C	-0.0822097	0.0533057	-0.551122
C	-0.22636	0.811387	0.62257
N	0.0662068	0.401532	1.87501
H	0.790401	-1.26636	2.87132
N	0.602356	-2.09556	-1.45195
H	0.960826	-3.01989	-1.27672
H	0.387083	-1.79887	-2.38925
N	-0.479673	0.790218	-1.67266
C	-0.854181	1.96467	-1.18349
N	-0.721832	2.03324	0.200873
H	-1.22337	2.7913	-1.76756
H	-0.939161	2.81285	0.800518
C	3.87355	0.683091	-0.452125
C	5.27842	0.356885	-0.0333454
H	3.39078	-0.187213	-0.911362
H	3.86563	1.47671	-1.2081
H	3.26849	1.0077	0.399796
C	6.21334	-0.0938342	-1.06735
C	5.72772	0.455708	1.24309
N	7.03291	0.146205	1.59738
H	5.09068	0.781985	2.05598
N	7.51496	-0.383473	-0.608466
C	7.99738	-0.289931	0.69157
H	8.17794	-0.696762	-1.30684
H	7.34354	0.227786	2.55404
O	9.16413	-0.563827	1.0226
O	5.9282	-0.227123	-2.27462
