30
  This energy is 0.000643956 and Call times are: 15685
C	-0.605277	0.460134	1.15799
N	-1.66259	-0.392137	1.09632
C	-1.73928	-1.26909	0.0658313
C	0.371032	0.394455	0.141691
C	0.169763	-0.560816	-0.868244
N	-0.868486	-1.41906	-0.955655
H	-2.60103	-1.9244	0.0650737
N	-0.533245	1.33479	2.19005
H	-1.26428	1.32933	2.88225
H	0.236976	1.97842	2.26363
N	1.55068	1.1141	-0.0805754
C	2.04684	0.602467	-1.19903
N	1.25164	-0.415127	-1.71945
H	2.96039	0.918695	-1.67461
H	1.41387	-0.95504	-2.55418
C	6.20234	-0.499063	-0.188873
C	7.69671	-0.353687	-0.222645
H	5.7119	0.461382	-0.38487
H	5.86374	-0.823473	0.801834
H	5.85525	-1.22496	-0.93039
C	8.31406	0.586094	0.716552
C	8.50291	-1.04076	-1.07052
N	9.8813	-0.883141	-1.07654
H	8.11341	-1.75058	-1.7899
N	9.71898	0.675285	0.633327
C	10.5643	-0.0171461	-0.225425
H	10.1668	1.31921	1.27385
H	10.46	-1.40585	-1.71705
O	11.8006	0.114353	-0.24119
O	7.68828	1.27711	1.54569
