30
  This energy is 0.000808417 and Call times are: 9448
C	0.604782	-1.19414	-0.356775
N	0.280613	-1.11235	-1.67446
C	-0.422465	-0.0394109	-2.11187
C	0.19327	-0.153549	0.502399
C	-0.529576	0.900095	-0.0809954
N	-0.865686	1.00834	-1.38387
H	-0.653887	-0.0242296	-3.16934
N	1.30765	-2.26864	0.0754379
H	1.57023	-2.97628	-0.590805
H	1.56278	-2.35802	1.04488
N	0.362163	0.0578941	1.87558
C	-0.245675	1.21275	2.11165
N	-0.80345	1.76724	0.962698
H	-0.315866	1.69207	3.07399
H	-1.31285	2.6326	0.883626
C	9.95548	0.571359	1.39988
C	8.68614	0.443425	0.607518
H	10.743	-0.0660373	0.981612
H	9.80546	0.240371	2.43397
H	10.3147	1.60481	1.41374
C	8.07966	-0.88562	0.496972
C	8.07288	1.48506	-0.00878721
N	6.89998	1.33314	-0.734106
H	8.46649	2.49326	0.0320381
N	6.89074	-0.936996	-0.259682
C	6.24508	0.114619	-0.899053
H	6.45431	-1.84636	-0.349039
H	6.46252	2.12361	-1.1837
O	5.19393	-0.00751601	-1.55179
O	8.54091	-1.92301	1.01431
