30
  This energy is -3.8525e-05 and Call times are: 10094
C	1.30881	-0.401745	0.211275
N	1.87105	0.741767	-0.262372
C	1.06323	1.733	-0.711523
C	-0.0980099	-0.507557	0.214746
C	-0.81657	0.59378	-0.278966
N	-0.286679	1.74045	-0.75493
H	1.56242	2.62118	-1.07755
N	2.12063	-1.38956	0.659082
H	3.11714	-1.24945	0.628678
H	1.73475	-2.24795	1.01571
N	-0.966042	-1.52571	0.625524
C	-2.17887	-1.04658	0.383922
N	-2.14808	0.23309	-0.163947
H	-3.10208	-1.56644	0.579362
H	-2.93256	0.80496	-0.432561
C	14.9628	-0.198714	-0.65992
C	13.4817	-0.0305958	-0.476742
H	15.262	-1.23911	-0.48836
H	15.5174	0.406992	0.0659794
H	15.2758	0.0919849	-1.66729
C	12.9095	-0.379992	0.825882
C	12.6482	0.424462	-1.4458
N	11.2831	0.568196	-1.24435
H	13.004	0.700496	-2.43084
N	11.5149	-0.199342	0.931844
C	10.6421	0.26447	-0.0452515
H	11.0982	-0.434741	1.82421
H	10.6835	0.908926	-1.98105
O	9.41736	0.398205	0.121959
O	13.5636	-0.808248	1.79815
