30
  This energy is -0.00017876 and Call times are: 15906
C	-0.231652	-1.24095	0.570451
N	0.142108	-1.95586	-0.523752
C	0.552369	-1.29261	-1.63219
C	-0.175991	0.167206	0.504386
C	0.267919	0.726823	-0.705074
N	0.644969	0.0435187	-1.80649
H	0.838512	-1.9098	-2.47436
N	-0.640952	-1.90862	1.67591
H	-0.656946	-2.91508	1.6564
H	-0.923927	-1.4078	2.50175
N	-0.484303	1.1677	1.43326
C	-0.231216	2.30288	0.795918
N	0.226908	2.09558	-0.502474
H	-0.356662	3.28919	1.21091
H	0.484811	2.79365	-1.18129
C	8.90928	-1.15016	0.463746
C	7.51173	-0.697445	0.151747
H	9.13515	-1.01542	1.52781
H	9.64531	-0.553506	-0.0872914
H	9.05368	-2.20417	0.207908
C	7.16367	0.696193	0.439883
C	6.55815	-1.50339	-0.379353
N	5.27507	-1.05384	-0.655856
H	6.74722	-2.54314	-0.616496
N	5.8374	1.05666	0.124062
C	4.84477	0.249963	-0.419545
H	5.57517	2.0159	0.315107
H	4.58293	-1.67277	-1.0511
O	3.69153	0.639896	-0.672334
O	7.945	1.5382	0.926837
