30
  This energy is 0.000410604 and Call times are: 15122
C	-1.15525	0.721272	0.253386
N	-1.77603	-0.271245	0.944482
C	-1.13331	-1.45194	1.11691
C	0.137375	0.478019	-0.25683
C	0.688296	-0.789552	-0.00628498
N	0.0967064	-1.79319	0.675553
H	-1.67246	-2.20738	1.67428
N	-1.80193	1.89957	0.0837795
H	-2.72371	2.0074	0.474016
H	-1.36891	2.65356	-0.423081
N	1.02509	1.27085	-0.993196
C	2.0855	0.496745	-1.18073
N	1.93636	-0.761958	-0.604451
H	2.97638	0.782832	-1.71482
H	2.59748	-1.52189	-0.609859
C	9.57539	1.39334	0.971651
C	10.7067	0.685777	0.282513
H	9.95211	2.19002	1.6234
H	9.01787	0.703643	1.61577
H	8.8811	1.83342	0.249472
C	11.7225	0.0424841	1.11963
C	10.8398	0.609672	-1.0656
N	11.8981	-0.0521	-1.67149
H	10.1261	1.0623	-1.74292
N	12.7565	-0.603757	0.411171
C	12.9136	-0.694713	-0.966732
H	13.4697	-1.05543	0.970359
H	11.9752	-0.0950066	-2.67675
O	13.8565	-1.28455	-1.52252
O	11.7174	0.038534	2.36723
