30
  This energy is -0.00658663 and Call times are: 6995
C	0.443918	0.475776	1.22295
N	-0.608047	-0.00614669	1.93652
C	-1.58384	-0.687396	1.288
C	0.474401	0.244737	-0.168472
C	-0.600946	-0.47577	-0.713925
N	-1.65749	-0.96592	-0.0315407
H	-2.39783	-1.049	1.90339
N	1.41668	1.15606	1.87587
H	1.33356	1.28573	2.87079
H	2.20813	1.52518	1.3756
N	1.39291	0.599076	-1.16328
C	0.880665	0.102474	-2.28125
N	-0.326089	-0.558575	-2.06812
H	1.32596	0.185739	-3.25877
H	-0.904764	-1.01639	-2.75378
C	6.86779	-2.09311	-1.79846
C	6.43832	-0.996814	-0.866196
H	7.4497	-2.85369	-1.26527
H	7.51939	-1.70148	-2.58804
H	6.00641	-2.57875	-2.26688
C	7.48303	-0.249894	-0.161158
C	5.14297	-0.661375	-0.641518
N	4.77925	0.357497	0.227075
H	4.32132	-1.17179	-1.12879
N	7.01328	0.76489	0.698046
C	5.6939	1.12597	0.943845
H	7.71876	1.29414	1.19565
H	3.8085	0.588448	0.377576
O	5.35421	2.03667	1.71918
O	8.70768	-0.457474	-0.27825
