30
  This energy is 0.000271681 and Call times are: 15862
C	-0.100269	-0.50313	-1.28679
N	-1.0793	-1.40058	-0.996688
C	-1.546	-1.47481	0.273559
C	0.389859	0.316002	-0.247968
C	-0.181464	0.136271	1.02259
N	-1.1532	-0.745237	1.34016
H	-2.32485	-2.20583	0.449732
N	0.362823	-0.432831	-2.558
H	-0.0306971	-1.04679	-3.25211
H	1.08707	0.221191	-2.80422
N	1.36992	1.3147	-0.217254
C	1.38685	1.72562	1.0436
N	0.467713	1.04643	1.83893
H	2.02881	2.49633	1.43684
H	0.292367	1.17661	2.82225
C	6.28994	2.61166	-0.972636
C	6.29207	1.25129	-0.336377
H	6.10535	2.53845	-2.05058
H	7.26535	3.09821	-0.857579
H	5.52461	3.25727	-0.531393
C	7.26576	0.270318	-0.822186
C	5.44644	0.881957	0.658325
N	5.47406	-0.384044	1.22518
H	4.70268	1.55655	1.06431
N	7.21522	-0.986004	-0.183605
C	6.35946	-1.38663	0.83558
H	7.87993	-1.67956	-0.503869
H	4.83451	-0.635076	1.9643
O	6.37365	-2.51739	1.35239
O	8.09668	0.481882	-1.72849
