30
  This energy is -0.00130508 and Call times are: 14370
C	0.107446	0.610178	-1.23902
N	0.296022	-0.543392	-1.93313
C	0.310137	-1.71952	-1.2598
C	-0.0662263	0.532635	0.158903
C	-0.029904	-0.749787	0.730826
N	0.155284	-1.91115	0.068171
H	0.463813	-2.60701	-1.86044
N	0.0941609	1.78318	-1.9167
H	0.224232	1.76801	-2.91493
H	-0.0432238	2.65403	-1.43128
N	-0.276499	1.50977	1.13863
C	-0.364502	0.829403	2.27364
N	-0.222473	-0.54292	2.08595
H	-0.527213	1.26302	3.2464
H	-0.251047	-1.26477	2.78788
C	3.50774	2.0602	0.442785
C	4.40157	0.858676	0.329489
H	3.05556	2.30339	-0.525611
H	4.07871	2.9443	0.748981
H	2.70656	1.89435	1.16932
C	5.52583	0.928237	-0.60732
C	4.2266	-0.282146	1.04282
N	5.07098	-1.3755	0.914519
H	3.41683	-0.401329	1.75214
N	6.32538	-0.231928	-0.665796
C	6.16593	-1.41018	0.0538397
H	7.10859	-0.205637	-1.30713
H	4.9201	-2.21332	1.45641
O	6.91502	-2.39695	-0.051252
O	5.7971	1.91528	-1.32057
