30
  This energy is 0.00520539 and Call times are: 5473
C	-1.30208	-0.468944	-0.0609744
N	-1.55333	-0.320095	1.26673
C	-0.575675	0.167174	2.06897
C	-0.0283534	-0.107984	-0.548517
C	0.892692	0.383903	0.391028
N	0.672032	0.542538	1.71327
H	-0.828508	0.265502	3.11704
N	-2.28262	-0.95641	-0.85864
H	-3.1696	-1.19475	-0.446257
H	-2.1274	-1.07815	-1.84555
N	0.534493	-0.138885	-1.82958
C	1.76609	0.324106	-1.66315
N	2.03723	0.656191	-0.338439
H	2.49651	0.441095	-2.44645
H	2.89518	1.02539	0.0386875
C	4.82549	0.432989	1.70835
C	6.0613	0.35696	0.858383
H	4.73958	-0.449605	2.35258
H	3.92366	0.451131	1.08565
H	4.83027	1.32621	2.34031
C	6.20055	-0.787511	-0.0456032
C	7.05123	1.28456	0.881115
N	8.18139	1.18477	0.0826054
H	7.0128	2.15459	1.52505
N	7.38243	-0.798903	-0.814824
C	8.40866	0.138324	-0.80857
H	7.49926	-1.58134	-1.44693
H	8.90437	1.88794	0.117418
O	9.42627	0.0612147	-1.51879
O	5.36553	-1.7071	-0.162464
