30
  This energy is -0.000763664 and Call times are: 8095
C	-0.918658	-1.02201	0.174939
N	-0.434088	-1.80179	-0.827661
C	0.629453	-1.36343	-1.5443
C	-0.290373	0.215733	0.427175
C	0.802376	0.54879	-0.390134
N	1.30513	-0.20398	-1.39151
H	0.974777	-2.02286	-2.33039
N	-1.98191	-1.46468	0.888312
H	-2.38341	-2.3583	0.656279
H	-2.36362	-0.910456	1.63666
N	-0.539267	1.22615	1.36311
C	0.383397	2.14553	1.11351
N	1.22297	1.78772	0.0619565
H	0.494801	3.0744	1.64788
H	1.99477	2.31458	-0.314013
C	7.48525	2.1306	0.674447
C	6.50989	1.09869	0.185294
H	8.51607	1.77098	0.576979
H	7.32989	2.34139	1.73879
H	7.38889	3.06684	0.116409
C	6.51725	-0.213137	0.83756
C	5.62672	1.31261	-0.822267
N	4.7381	0.337198	-1.25094
H	5.5676	2.25798	-1.34747
N	5.57813	-1.13547	0.331547
C	4.66513	-0.939357	-0.69779
H	5.56584	-2.04904	0.768179
H	4.09038	0.520454	-2.00276
O	3.86347	-1.80434	-1.09155
O	7.27629	-0.537969	1.77292
