30
  This energy is -6.0049e-05 and Call times are: 14325
C	-1.18158	0.146794	-0.708063
N	-1.67306	1.14709	0.0703515
C	-0.93468	1.58579	1.11877
C	0.0819052	-0.393866	-0.389226
C	0.741385	0.152771	0.724011
N	0.279023	1.14462	1.51435
H	-1.3726	2.38341	1.70535
N	-1.92351	-0.288159	-1.75483
H	-2.81769	0.141218	-1.92707
H	-1.5871	-1.02707	-2.34959
N	0.849839	-1.40603	-0.976303
C	1.94607	-1.46597	-0.232278
N	1.93404	-0.544485	0.811463
H	2.7697	-2.14153	-0.393548
H	2.64631	-0.396704	1.50819
C	5.27534	1.25091	-1.24115
C	6.40718	0.687267	-0.430805
H	4.56791	0.463224	-1.52489
H	5.64414	1.68779	-2.1763
H	4.73308	2.02258	-0.686419
C	7.23024	-0.359984	-1.04091
C	6.70832	1.09184	0.828782
N	7.76163	0.550162	1.55126
H	6.1417	1.86079	1.3394
N	8.27513	-0.845927	-0.228045
C	8.60221	-0.447637	1.06267
H	8.85698	-1.5706	-0.630193
H	7.96589	0.867906	2.48703
O	9.5431	-0.924324	1.721
O	7.0603	-0.820017	-2.18811
