30
  This energy is -0.000134068 and Call times are: 5774
C	-0.780381	-0.354851	1.08817
N	-1.91335	-0.568829	0.367987
C	-1.88221	-0.384566	-0.974369
C	0.384324	0.0517136	0.403679
C	0.278895	0.205346	-0.988551
N	-0.830684	0.000454691	-1.72952
H	-2.8111	-0.568607	-1.4991
N	-0.816712	-0.540414	2.42967
H	-1.68122	-0.831447	2.85572
H	0.00546079	-0.390116	2.99033
N	1.68054	0.347128	0.841202
C	2.33892	0.670957	-0.263585
N	1.53917	0.602328	-1.40129
H	3.37625	0.958821	-0.306316
H	1.80624	0.799538	-2.35227
C	7.03671	2.24332	-1.65305
C	7.04529	1.11374	-0.663407
H	6.81252	1.87736	-2.66162
H	8.02146	2.72142	-1.70862
H	6.29566	3.00258	-1.38544
C	7.98889	0.0155252	-0.886887
C	6.23165	1.0539	0.42072
N	6.26434	-0.0049062	1.31666
H	5.51123	1.83071	0.645741
N	7.94618	-1.01235	0.0776466
C	7.12291	-1.09522	1.19431
H	8.59046	-1.78183	-0.057339
H	5.64885	-0.0266535	2.11606
O	7.14202	-2.03777	2.00495
O	8.7891	-0.0512531	-1.84175
