30
  This energy is -0.00101366 and Call times are: 16809
C	-1.27076	-0.337	0.436609
N	-1.72971	-0.714064	-0.7862
C	-0.896274	-0.637254	-1.85219
C	0.0596426	0.120133	0.543458
C	0.815497	0.14969	-0.64011
N	0.387508	-0.217851	-1.86645
H	-1.31215	-0.949604	-2.80168
N	-2.10777	-0.415657	1.49896
H	-3.04584	-0.750965	1.35344
H	-1.79764	-0.143885	2.41704
N	0.817574	0.570377	1.63051
C	2.0022	0.863801	1.11142
N	2.05746	0.628336	-0.259775
H	2.8455	1.24329	1.66422
H	2.84101	0.771892	-0.876256
C	6.90719	-2.66826	0.0666219
C	7.42204	-1.27235	-0.137763
H	5.82892	-2.66204	0.263314
H	7.37872	-3.13463	0.93929
H	7.09775	-3.29599	-0.809104
C	7.24079	-0.309918	0.951857
C	8.0425	-0.854929	-1.26989
N	8.50674	0.44297	-1.42735
H	8.20915	-1.51341	-2.11352
N	7.74607	0.981619	0.69631
C	8.38412	1.43161	-0.453464
H	7.63156	1.66315	1.43645
H	8.96535	0.729636	-2.27932
O	8.80501	2.59135	-0.607554
O	6.68861	-0.564763	2.04122
