30
  This energy is -0.00233616 and Call times are: 11996
C	0.0707848	1.32732	-0.390196
N	-0.307148	1.10223	-1.6765
C	-0.581449	-0.166144	-2.06744
C	0.161512	0.225484	0.486216
C	-0.150625	-1.03546	-0.0482188
N	-0.528206	-1.28926	-1.31912
H	-0.877568	-0.28919	-3.10147
N	0.343863	2.59694	-0.00438334
H	0.259379	3.33803	-0.680572
H	0.626072	2.79588	0.940966
N	0.513136	0.121426	1.83692
C	0.41439	-1.17311	2.10767
N	0.0160828	-1.92086	1.00273
H	0.613679	-1.624	3.06566
H	-0.129065	-2.91649	0.9552
C	6.22169	-2.05586	1.60124
C	5.8435	-0.883919	0.74162
H	6.00941	-3.00106	1.08848
H	5.63481	-2.06683	2.5269
H	7.28392	-2.03252	1.86272
C	4.44821	-0.775333	0.30829
C	6.71786	0.0751011	0.345771
N	6.33617	1.14601	-0.449415
H	7.76296	0.0564749	0.629476
N	4.15955	0.346723	-0.495669
C	5.03696	1.34037	-0.913263
H	3.2005	0.441606	-0.806529
H	7.00531	1.847	-0.730879
O	4.70826	2.30511	-1.62541
O	3.54728	-1.58704	0.601599
