30
  This energy is -0.011334 and Call times are: 6133
C	-1.32284	-0.405922	-0.0660171
N	-1.6336	-0.0343354	1.20419
C	-0.671699	0.524539	1.9783
C	-0.00613273	-0.192635	-0.525537
C	0.892455	0.395598	0.379749
N	0.613062	0.774408	1.64491
H	-0.97248	0.801733	2.98067
N	-2.28787	-0.964113	-0.835758
H	-3.20779	-1.08816	-0.445965
H	-2.08898	-1.24966	-1.78012
N	0.61986	-0.456318	-1.74925
C	1.86659	-0.0358407	-1.58264
N	2.08769	0.489384	-0.312242
H	2.64253	-0.0827241	-2.32862
H	2.94535	0.870027	0.0539885
C	7.40371	2.61599	0.512019
C	7.12168	1.17354	0.203418
H	7.08161	2.86812	1.52892
H	6.84599	3.27599	-0.162325
H	8.46998	2.84296	0.418194
C	5.73261	0.715191	0.285929
C	8.07706	0.275599	-0.14566
N	7.78317	-1.05132	-0.424512
H	9.12268	0.546466	-0.225536
N	5.53617	-0.648343	-0.0155183
C	6.49747	-1.58555	-0.374849
H	4.58308	-0.986648	0.0352343
H	8.51159	-1.70045	-0.68217
O	6.2479	-2.7771	-0.62747
O	4.76279	1.43687	0.594462
