30
  This energy is -0.000562275 and Call times are: 17030
C	1.07966	-0.677657	0.542355
N	0.628468	-1.91786	0.216172
C	-0.554655	-2.03561	-0.434367
C	0.292935	0.438465	0.187813
C	-0.912154	0.175343	-0.484161
N	-1.38532	-1.04323	-0.82087
H	-0.866888	-3.04508	-0.669973
N	2.26285	-0.565325	1.19258
H	2.77482	-1.40291	1.41603
H	2.62366	0.338906	1.4477
N	0.469977	1.81429	0.373898
C	-0.604784	2.36519	-0.174077
N	-1.47562	1.4196	-0.709025
H	-0.807915	3.42245	-0.215371
H	-2.35292	1.58703	-1.17476
C	8.40899	-2.2942	-0.374944
C	7.69965	-0.974501	-0.271756
H	7.76983	-3.04483	-0.85394
H	8.65395	-2.68479	0.619453
H	9.33447	-2.20565	-0.95191
C	6.43957	-0.931588	0.474415
C	8.15849	0.174578	-0.82854
N	7.4784	1.3785	-0.714885
H	9.08202	0.214272	-1.39296
N	5.82489	0.336233	0.533425
C	6.27523	1.52515	-0.0280366
H	4.95237	0.388865	1.04464
H	7.8402	2.22014	-1.13808
O	5.67606	2.61051	0.0663162
O	5.91003	-1.91358	1.03285
