30
  This energy is -0.000219693 and Call times are: 10578
C	-1.28907	-0.46935	-0.192466
N	-1.16436	-1.53173	0.646506
C	0.0144364	-1.72815	1.2858
C	-0.18063	0.386777	-0.362094
C	0.981139	0.068412	0.360372
N	1.13422	-0.977937	1.19936
H	0.0596392	-2.58827	1.94169
N	-2.46941	-0.27739	-0.829104
H	-3.22097	-0.926439	-0.663315
H	-2.59293	0.499857	-1.45643
N	0.0120768	1.53822	-1.13404
C	1.26169	1.90326	-0.880868
N	1.89592	1.0491	0.0173687
H	1.75689	2.75967	-1.30761
H	2.83924	1.1139	0.364576
C	16.7938	-0.959214	0.431597
C	15.4314	-0.478196	0.0221098
H	16.7175	-1.78924	1.14337
H	17.3519	-0.164871	0.940541
H	17.3751	-1.29416	-0.432787
C	14.532	0.00477433	1.07292
C	14.9891	-0.466246	-1.26055
N	13.7233	-0.0152297	-1.60585
H	15.6013	-0.808863	-2.08574
N	13.2692	0.441633	0.62208
C	12.7947	0.46319	-0.684062
H	12.6313	0.779886	1.33205
H	13.4172	-0.016131	-2.56744
O	11.6633	0.86476	-1.00724
O	14.8149	0.0465615	2.28732
