30
  This energy is -0.00121923 and Call times are: 13383
C	-1.07408	-0.312627	-0.817096
N	-0.916647	-1.65974	-0.724507
C	0.0957792	-2.15172	0.0303372
C	-0.17237	0.518862	-0.120026
C	0.831462	-0.121156	0.62544
N	1.01226	-1.4543	0.73594
H	0.175796	-3.23065	0.0697036
N	-2.08761	0.174128	-1.57287
H	-2.69569	-0.474901	-2.04467
H	-2.23025	1.16648	-1.66121
N	-0.0640448	1.91	-0.011092
C	0.981505	2.10123	0.782092
N	1.56239	0.905915	1.19737
H	1.36145	3.06196	1.08772
H	2.36185	0.788207	1.79871
C	4.1251	-0.869739	-1.37941
C	5.25374	-0.442422	-0.485546
H	4.44277	-1.67482	-2.05196
H	3.7988	-0.0419053	-2.01942
H	3.2666	-1.21987	-0.798348
C	6.47808	0.0535381	-1.11911
C	5.20294	-0.490057	0.869473
N	6.26421	-0.0876417	1.66736
H	4.32972	-0.845547	1.40255
N	7.49824	0.438011	-0.224608
C	7.46912	0.398208	1.16433
H	8.35381	0.784182	-0.641248
H	6.20231	-0.132491	2.67359
O	8.4125	0.755801	1.891
O	6.65344	0.147884	-2.35074
