30
  This energy is -0.00280058 and Call times are: 4780
C	0.529786	-1.27976	-0.0239355
N	-0.479171	-1.82157	-0.756406
C	-1.5045	-1.0272	-1.14949
C	0.465471	0.0925901	0.296816
C	-0.652924	0.800513	-0.173355
N	-1.66861	0.290285	-0.901519
H	-2.2809	-1.50903	-1.73008
N	1.55238	-2.07801	0.366532
H	1.53671	-3.04971	0.103572
H	2.31397	-1.70659	0.909612
N	1.32106	0.933602	1.0176
C	0.729737	2.12015	0.981147
N	-0.469002	2.09782	0.273194
H	1.11072	3.01802	1.4388
H	-1.0976	2.86688	0.105869
C	6.53993	2.51985	0.63505
C	6.13173	1.09832	0.374179
H	5.78544	3.03863	1.23756
H	6.62605	3.07996	-0.303169
H	7.4989	2.56971	1.15959
C	4.86452	0.867541	-0.323915
C	6.86751	0.0211608	0.747364
N	6.46172	-1.28061	0.491276
H	7.81304	0.119359	1.2664
N	4.54006	-0.488145	-0.537281
C	5.27661	-1.6063	-0.164733
H	3.66799	-0.670777	-1.01847
H	7.02671	-2.06572	0.778886
O	4.92489	-2.77775	-0.388089
O	4.09642	1.76758	-0.719536
