30
  This energy is 0.000344233 and Call times are: 3673
C	0.262663	-0.366285	-1.30991
N	1.17999	-1.31865	-0.994329
C	1.47221	-1.54156	0.310187
C	-0.348314	0.352203	-0.260703
C	0.0458705	0.0212494	1.04624
N	0.952564	-0.917971	1.38968
H	2.20897	-2.31035	0.505564
N	-0.0259195	-0.147293	-2.61533
H	0.446694	-0.695591	-3.31505
H	-0.700468	0.550774	-2.88102
N	-1.30776	1.37112	-0.249219
C	-1.48584	1.646	1.03593
N	-0.691659	0.858658	1.86541
H	-2.16212	2.38958	1.42387
H	-0.64672	0.878212	2.87149
C	10.6099	1.77385	1.55178
C	9.75733	0.966982	0.615026
H	11.6373	1.39234	1.57163
H	10.234	1.70539	2.5791
H	10.6356	2.82809	1.25996
C	9.62392	-0.468452	0.876034
C	9.10709	1.49082	-0.454415
N	8.32667	0.717271	-1.30142
H	9.16226	2.543	-0.705322
N	8.81058	-1.16752	-0.0396456
C	8.13573	-0.653321	-1.14044
H	8.70437	-2.1615	0.122018
H	7.85256	1.13024	-2.09074
O	7.43321	-1.3349	-1.90712
O	10.1678	-1.0727	1.82241
