30
  This energy is -0.000343938 and Call times are: 14167
C	0.487813	1.16227	0.574631
N	-0.263665	1.07116	1.70381
C	-1.1075	0.0203714	1.84744
C	0.356065	0.154146	-0.403476
C	-0.554906	-0.879066	-0.128471
N	-1.3135	-0.995857	0.98197
H	-1.6819	-0.00350095	2.7648
N	1.32975	2.21453	0.435864
H	1.37549	2.89939	1.17238
H	1.89922	2.31006	-0.388439
N	0.970573	-0.0404322	-1.6458
C	0.440513	-1.16539	-2.10666
N	-0.489349	-1.71634	-1.22889
H	0.682958	-1.6249	-3.05049
H	-1.02349	-2.5615	-1.35135
C	4.68407	0.0495306	-1.94113
C	5.87829	0.0835839	-1.03112
H	3.88433	0.695214	-1.56045
H	4.26519	-0.961741	-1.9982
H	4.94374	0.376412	-2.95254
C	5.68884	-0.328485	0.361975
C	7.11677	0.472999	-1.42536
N	8.20015	0.493323	-0.558915
H	7.32707	0.789752	-2.43952
N	6.84843	-0.273444	1.1626
C	8.12535	0.12135	0.781584
H	6.74025	-0.554205	2.12949
H	9.11202	0.787073	-0.876017
O	9.10459	0.144078	1.54741
O	4.60507	-0.707263	0.850393
