30
  This energy is -0.0016249 and Call times are: 1004
C	0.130701	1.21826	-0.64636
N	-0.436988	1.95141	0.347774
C	-0.869972	1.31796	1.46497
C	0.245058	-0.176937	-0.471143
C	-0.24419	-0.705376	0.734846
N	-0.8119	-0.00342083	1.73841
H	-1.31376	1.94863	2.2248
N	0.561885	1.85616	-1.76105
H	0.449994	2.85483	-1.82219
H	0.986374	1.34127	-2.51443
N	0.767283	-1.1897	-1.28383
C	0.59552	-2.30158	-0.581619
N	-0.0124573	-2.06741	0.648909
H	0.884066	-3.28896	-0.901894
H	-0.247727	-2.74484	1.35625
C	5.84205	0.115645	-2.57458
C	5.14876	0.19313	-1.24463
H	5.71153	-0.874584	-3.02603
H	6.92202	0.264727	-2.46136
H	5.45761	0.868464	-3.26935
C	5.55626	-0.754673	-0.204431
C	4.17068	1.08756	-0.954301
N	3.54944	1.13287	0.285399
H	3.82123	1.81577	-1.67588
N	4.86699	-0.628937	1.01941
C	3.86346	0.277745	1.33946
H	5.13296	-1.27441	1.75292
H	2.82417	1.80777	0.477352
O	3.29878	0.329336	2.44597
O	6.43996	-1.62461	-0.341738
