30
  This energy is 8.5354e-05 and Call times are: 3030
C	-1.04523	-0.895437	0.157245
N	-0.855204	-1.08009	1.49061
C	0.150818	-0.41446	2.10843
C	-0.18278	-0.0146508	-0.528878
C	0.818724	0.610809	0.231918
N	1.03129	0.447256	1.55489
H	0.257819	-0.597723	3.17004
N	-2.05219	-1.5631	-0.455635
H	-2.63145	-2.17709	0.0930494
H	-2.21832	-1.44754	-1.44151
N	-0.113302	0.384001	-1.8687
C	0.907148	1.23	-1.91164
N	1.50849	1.40484	-0.668062
H	1.25441	1.73956	-2.79511
H	2.29573	1.99187	-0.443889
C	14.6931	2.18639	-1.71358
C	14.4418	1.13328	-0.672795
H	14.1398	1.96608	-2.63375
H	15.7534	2.21773	-1.98948
H	14.3965	3.1777	-1.35782
C	14.7899	-0.25115	-1.00241
C	13.9129	1.39134	0.549713
N	13.6929	0.394711	1.48949
H	13.6331	2.39103	0.858642
N	14.5292	-1.18997	0.0170732
C	13.9889	-0.949598	1.27479
H	14.7624	-2.15349	-0.189473
H	13.2981	0.611784	2.39247
O	13.7868	-1.83295	2.12612
O	15.2816	-0.621713	-2.08753
