30
  This energy is -0.000953036 and Call times are: 16271
C	0.205075	-1.16773	-0.716499
N	0.99403	-0.597863	-1.66564
C	1.26327	0.728014	-1.58561
C	-0.301668	-0.350278	0.315654
C	0.0547814	1.00791	0.279812
N	0.835063	1.60113	-0.648321
H	1.89607	1.1305	-2.36638
N	-0.0610674	-2.4934	-0.800976
H	0.332581	-3.01939	-1.56385
H	-0.641722	-2.94441	-0.113711
N	-1.12177	-0.621678	1.41685
C	-1.2549	0.547407	2.02873
N	-0.563578	1.56948	1.38367
H	-1.82731	0.71714	2.92556
H	-0.510191	2.53894	1.65179
C	6.8854	-1.89079	1.45405
C	7.53267	-0.877932	0.55372
H	6.73687	-1.4811	2.45977
H	7.52357	-2.7743	1.57044
H	5.91545	-2.21113	1.06184
C	8.84242	-0.351679	0.946162
C	6.97461	-0.4252	-0.597163
N	7.59921	0.512102	-1.40722
H	6.00961	-0.771478	-0.946351
N	9.39465	0.594747	0.0584682
C	8.84265	1.07293	-1.12399
H	10.3001	0.971747	0.310359
H	7.16372	0.833407	-2.25896
O	9.39144	1.91223	-1.85905
O	9.46257	-0.683823	1.97653
