30
  This energy is -0.000621227 and Call times are: 16447
C	0.884318	1.06344	0.0781144
N	1.6176	0.69926	-1.00712
C	1.27137	-0.420782	-1.68718
C	-0.210589	0.25576	0.451193
C	-0.459589	-0.877536	-0.340427
N	0.250019	-1.26378	-1.42184
H	1.8883	-0.664839	-2.54268
N	1.23449	2.18384	0.754466
H	2.02756	2.7153	0.434804
H	0.711474	2.47968	1.56183
N	-1.14203	0.351831	1.49141
C	-1.9328	-0.700274	1.32819
N	-1.56584	-1.47944	0.234162
H	-2.77226	-0.949321	1.95591
H	-2.00699	-2.32338	-0.0940974
C	5.06443	-1.74308	-1.268
C	5.91794	-0.827422	-0.438228
H	5.65073	-2.58928	-1.64429
H	4.67332	-1.22096	-2.1488
H	4.22042	-2.13332	-0.69129
C	7.09138	-0.223022	-1.07395
C	5.66413	-0.530371	0.861104
N	6.47332	0.320048	1.60059
H	4.81469	-0.941853	1.39235
N	7.84949	0.625598	-0.241009
C	7.60949	0.944262	1.09031
H	8.66543	1.05439	-0.66029
H	6.26358	0.525728	2.56602
O	8.32606	1.70466	1.76428
O	7.43556	-0.412971	-2.25803
