30
  This energy is -0.00119775 and Call times are: 9691
C	-0.396072	-1.06236	-0.795956
N	-1.69807	-0.680399	-0.87949
C	-2.09283	0.448753	-0.242288
C	0.492037	-0.262914	-0.0459512
C	-0.0479863	0.881376	0.563965
N	-1.33437	1.28528	0.498772
H	-3.13952	0.706923	-0.34141
N	-0.00651305	-2.1918	-1.43468
H	-0.69164	-2.71658	-1.95314
H	0.950345	-2.50081	-1.39179
N	1.85949	-0.376603	0.229736
C	2.13462	0.675906	0.988294
N	1.01665	1.47206	1.22266
H	3.1048	0.913623	1.39204
H	0.96932	2.31971	1.76475
C	6.31228	2.24272	-1.63504
C	6.03708	0.9609	-0.902491
H	7.38673	2.45851	-1.65464
H	5.83498	3.09092	-1.13093
H	5.94694	2.19967	-2.66553
C	6.4688	0.864855	0.494215
C	5.41409	-0.107985	-1.45953
N	5.17492	-1.27892	-0.754861
H	5.06927	-0.105075	-2.48626
N	6.18064	-0.363651	1.12383
C	5.54476	-1.47068	0.574553
H	6.47034	-0.451812	2.09012
H	4.70941	-2.06066	-1.19136
O	5.32405	-2.52558	1.19455
O	7.05011	1.77231	1.12284
