30
  This energy is -0.00430849 and Call times are: 2722
C	0.741332	0.173456	-1.15731
N	-0.166082	0.979052	-1.77024
C	-1.31596	1.28487	-1.12132
C	0.445271	-0.311646	0.133961
C	-0.782126	0.082388	0.691862
N	-1.70155	0.879936	0.108127
H	-2.00323	1.92953	-1.65434
N	1.88915	-0.12926	-1.81018
H	2.03817	0.250557	-2.73057
H	2.58046	-0.723025	-1.38304
N	1.15015	-1.14028	1.01452
C	0.363658	-1.24166	2.07756
N	-0.819655	-0.521474	1.93692
H	0.588914	-1.8102	2.96456
H	-1.57237	-0.441532	2.60147
C	6.77415	2.5897	-1.0594
C	6.88712	1.24516	-0.399957
H	5.82167	3.06978	-0.807017
H	6.79238	2.49215	-2.15098
H	7.58964	3.25291	-0.755458
C	5.86377	0.243378	-0.70913
C	7.87922	0.908284	0.462126
N	7.95489	-0.343695	1.05514
H	8.66709	1.59971	0.734613
N	6.02774	-0.996579	-0.0577422
C	7.03396	-1.36402	0.827733
H	5.33132	-1.70413	-0.257202
H	8.7029	-0.57055	1.69339
O	7.11375	-2.48204	1.36585
O	4.90184	0.424787	-1.48266
