30
  This energy is -0.00173506 and Call times are: 6199
C	-0.0803742	-0.939051	-1.01526
N	1.17251	-1.43339	-0.830954
C	1.94919	-0.90516	0.146074
C	-0.519907	0.107473	-0.17743
C	0.385799	0.562163	0.795182
N	1.63405	0.0914959	1.00139
H	2.93726	-1.33529	0.249794
N	-0.852763	-1.47047	-1.9932
H	-0.477679	-2.21627	-2.55595
H	-1.78461	-1.12611	-2.15438
N	-1.72321	0.819042	-0.109682
C	-1.54421	1.68184	0.881491
N	-0.285068	1.57066	1.46533
H	-2.27325	2.39973	1.21897
H	0.0869638	2.11064	2.22994
C	7.12366	-1.79444	2.02255
C	6.84604	-0.71109	1.0202
H	7.54343	-2.68097	1.5334
H	6.19868	-2.1196	2.51253
H	7.82474	-1.45632	2.79157
C	5.92154	-1.0133	-0.0754197
C	7.40119	0.525842	1.07247
N	7.1238	1.50515	0.129683
H	8.09224	0.816174	1.85428
N	5.70428	0.0456828	-0.980984
C	6.26065	1.31884	-0.947879
H	5.06828	-0.141406	-1.74643
H	7.54939	2.41816	0.190089
O	6.02063	2.20551	-1.78581
O	5.34533	-2.10785	-0.238176
