30
  This energy is 0.00100365 and Call times are: 11716
C	-0.624624	-1.17917	0.37206
N	-1.78032	-0.928092	-0.298308
C	-1.89594	0.22758	-0.996805
C	0.409278	-0.221198	0.311285
C	0.158348	0.933213	-0.448576
N	-0.977347	1.20954	-1.12387
H	-2.83635	0.377338	-1.51183
N	-0.514038	-2.33577	1.06877
H	-1.29033	-2.97684	1.07071
H	0.328745	-2.55045	1.57526
N	1.68968	-0.178644	0.874859
C	2.19645	0.975557	0.462685
N	1.31257	1.68992	-0.341747
H	3.17863	1.34492	0.706928
H	1.46373	2.58728	-0.773593
C	7.05311	1.40022	2.36108
C	7.32123	0.808333	1.00712
H	7.91581	1.26621	3.02378
H	6.20841	0.898059	2.84658
H	6.82977	2.46915	2.29209
C	7.63632	-0.620639	0.935342
C	7.28822	1.5199	-0.147662
N	7.54119	0.942553	-1.3836
H	7.06236	2.57899	-0.167203
N	7.87738	-1.11314	-0.363895
C	7.8493	-0.404705	-1.55926
H	8.09707	-2.09895	-0.436819
H	7.5106	1.493	-2.22883
O	8.07372	-0.909489	-2.67314
O	7.6985	-1.38541	1.91913
