30
  This energy is 0.000127786 and Call times are: 1154
C	-0.085784	1.3826	0.0101327
N	0.948939	1.58067	-0.849043
C	1.60706	0.503757	-1.34298
C	-0.431328	0.0581763	0.352004
C	0.332901	-0.965808	-0.23146
N	1.36423	-0.799862	-1.08644
H	2.42227	0.717854	-2.02242
N	-0.740392	2.46234	0.501056
H	-0.442571	3.38088	0.216138
H	-1.51044	2.34852	1.139
N	-1.42037	-0.472408	1.18815
C	-1.25388	-1.78574	1.10865
N	-0.20628	-2.14096	0.263058
H	-1.84737	-2.5194	1.62854
H	0.114698	-3.06924	0.0397594
C	8.00981	0.473798	-2.75642
C	8.01031	0.0502927	-1.31556
H	8.66884	1.33599	-2.91038
H	7.00821	0.78932	-3.07046
H	8.34025	-0.338297	-3.41106
C	7.58977	1.03288	-0.313528
C	8.37693	-1.18555	-0.892241
N	8.36644	-1.5454	0.447627
H	8.69831	-1.95937	-1.57853
N	7.61297	0.57223	1.01912
C	7.98403	-0.686808	1.47596
H	7.32583	1.23536	1.7285
H	8.64365	-2.4713	0.737834
O	7.97906	-1.02239	2.67316
O	7.22965	2.19972	-0.569166
