30
  This energy is 5.154e-06 and Call times are: 10512
C	-0.251261	0.98965	-0.936211
N	-1.45283	0.490358	-1.32994
C	-1.91537	-0.642539	-0.747325
C	0.465577	0.30353	0.0666566
C	-0.128368	-0.858458	0.586305
N	-1.3181	-1.37745	0.215672
H	-2.87659	-0.996568	-1.09772
N	0.206667	2.12231	-1.52165
H	-0.355249	2.56255	-2.23161
H	1.09246	2.51666	-1.2519
N	1.69968	0.549478	0.679326
C	1.84372	-0.442643	1.54756
N	0.766595	-1.32484	1.53381
H	2.68842	-0.576525	2.20279
H	0.642088	-2.15056	2.09708
C	17.7267	-0.508004	2.35594
C	18.5963	-0.377763	1.13845
H	16.6802	-0.669983	2.07304
H	17.7479	0.412015	2.95134
H	18.0489	-1.34007	2.98923
C	18.2892	0.69586	0.190063
C	19.6452	-1.19517	0.869165
N	20.4295	-1.04812	-0.265797
H	19.9275	-2.00822	1.52669
N	19.1427	0.763231	-0.930518
C	20.2213	-0.0614442	-1.22708
H	18.9485	1.4984	-1.59928
H	21.2047	-1.669	-0.444118
O	20.9322	0.0593271	-2.23998
O	17.3555	1.5133	0.319242
