30
  This energy is -7.181e-06 and Call times are: 7721
C	-1.15586	-0.534652	0.545127
N	-0.520608	-1.47589	1.29252
C	0.831984	-1.54775	1.2459
C	-0.375793	0.33072	-0.250478
C	1.01622	0.148051	-0.206299
N	1.67422	-0.776313	0.524982
H	1.2867	-2.31473	1.85992
N	-2.50799	-0.466928	0.595217
H	-3.00451	-1.11514	1.18419
H	-3.00725	0.218839	0.0535774
N	-0.713906	1.37985	-1.11296
C	0.449071	1.81752	-1.57644
N	1.53047	1.10796	-1.06091
H	0.573638	2.62893	-2.27418
H	2.50798	1.24942	-1.25855
C	11.1344	-2.29001	-0.72998
C	10.3214	-1.04556	-0.515827
H	10.7371	-3.12275	-0.138229
H	12.1693	-2.14191	-0.400888
H	11.1429	-2.58459	-1.78373
C	10.2152	-0.524184	0.849199
C	9.68276	-0.380605	-1.51127
N	8.93878	0.767341	-1.27982
H	9.7191	-0.710577	-2.54222
N	9.43852	0.645373	0.981612
C	8.77614	1.34285	-0.0215539
H	9.35179	1.02328	1.91707
H	8.47272	1.24442	-2.03714
O	8.10653	2.37246	0.171912
O	10.7522	-1.03897	1.8508
