30
  This energy is -0.000856867 and Call times are: 496
C	-0.583613	-1.15991	-0.482748
N	0.0289935	-1.98904	0.403434
C	0.876766	-1.45999	1.31898
C	-0.308971	0.222023	-0.410583
C	0.589198	0.637403	0.586298
N	1.21179	-0.161366	1.47878
H	1.3373	-2.1642	2.00018
N	-1.43012	-1.69366	-1.39592
H	-1.58192	-2.68892	-1.39289
H	-1.89883	-1.10612	-2.06525
N	-0.764563	1.31425	-1.15781
C	-0.153663	2.36222	-0.621682
N	0.678229	2.01085	0.438111
H	-0.268893	3.38233	-0.948584
H	1.24521	2.62284	1.00255
C	4.86551	0.0852541	1.07124
C	6.17761	0.101464	0.340789
H	4.90382	0.72909	1.95748
H	4.63105	-0.923287	1.43077
H	4.04724	0.424987	0.429182
C	7.37252	-0.329046	1.07103
C	6.31732	0.490887	-0.951402
N	7.54497	0.494458	-1.59771
H	5.47664	0.820746	-1.54932
N	8.57083	-0.290182	0.328584
C	8.73812	0.104268	-0.993532
H	9.40957	-0.583845	0.814062
H	7.62335	0.788584	-2.55984
O	9.83193	0.112092	-1.58465
O	7.38115	-0.709814	2.2591
