30
  This energy is 0.000521663 and Call times are: 2898
C	-0.812535	0.0634187	-1.12018
N	-0.7104	-1.25712	-1.42649
C	0.0459131	-2.05742	-0.636336
C	-0.123467	0.545836	0.0124403
C	0.624572	-0.390958	0.744475
N	0.744466	-1.70613	0.464943
H	0.0930221	-3.09972	-0.925193
N	-1.56974	0.859168	-1.91314
H	-2.03549	0.450719	-2.70676
H	-1.66506	1.84082	-1.71268
N	-0.0249624	1.8193	0.584663
C	0.764611	1.65111	1.63688
N	1.18743	0.332446	1.78183
H	1.06239	2.42896	2.32029
H	1.78795	-0.0446066	2.49724
C	9.54658	-0.562308	2.72585
C	9.2938	-0.111849	1.31566
H	10.6218	-0.634429	2.92608
H	9.13175	-1.56236	2.89674
H	9.10295	0.12714	3.45048
C	9.82773	-0.935701	0.228196
C	8.60201	1.01024	0.994295
N	8.38598	1.39906	-0.319857
H	8.18035	1.66438	1.74754
N	9.55563	-0.457668	-1.07031
C	8.85056	0.6868	-1.42337
H	9.91549	-1.01208	-1.83748
H	7.86798	2.2383	-0.533601
O	8.64959	1.04656	-2.59644
O	10.4791	-1.98785	0.387093
