30
  This energy is -0.00311435 and Call times are: 10970
C	0.988537	-0.760113	-0.60337
N	1.01062	-0.0455945	-1.75968
C	0.173123	1.01149	-1.89392
C	0.0904306	-0.36836	0.411666
C	-0.721707	0.745655	0.142548
N	-0.721987	1.4736	-0.994233
H	0.231605	1.54535	-2.83393
N	1.82763	-1.81585	-0.474133
H	2.44386	-2.0418	-1.23754
H	1.83498	-2.36443	0.369613
N	-0.172246	-0.880373	1.68748
C	-1.12097	-0.0914877	2.17377
N	-1.49204	0.910342	1.28084
H	-1.57256	-0.190693	3.1469
H	-2.18582	1.62782	1.41682
C	4.47807	2.70148	0.123413
C	4.80332	1.25488	-0.115359
H	5.37859	3.26488	0.393682
H	3.78031	2.81178	0.961483
H	4.03244	3.16187	-0.763548
C	5.40782	0.499008	0.984468
C	4.56978	0.612236	-1.28728
N	4.88248	-0.726244	-1.47579
H	4.12597	1.11021	-2.14058
N	5.68823	-0.852443	0.695276
C	5.45834	-1.53135	-0.49544
H	6.10647	-1.39395	1.44177
H	4.69904	-1.18223	-2.35714
O	5.73341	-2.73011	-0.677666
O	5.67333	0.96943	2.10909
