30
  This energy is -0.00149298 and Call times are: 7897
C	0.590446	1.24438	0.14807
N	1.72901	0.92573	-0.522896
C	1.86435	-0.324168	-1.02914
C	-0.40572	0.255361	0.288995
C	-0.137662	-0.998816	-0.283898
N	0.981762	-1.34383	-0.954744
H	2.78978	-0.524688	-1.55393
N	0.460033	2.49507	0.652177
H	1.20947	3.15339	0.515983
H	-0.370857	2.76146	1.15374
N	-1.66107	0.262854	0.907788
C	-2.13637	-0.959532	0.71094
N	-1.25568	-1.76598	-0.00509735
H	-3.09294	-1.31656	1.05482
H	-1.38698	-2.72647	-0.278634
C	5.4461	1.02667	0.00529975
C	6.76632	0.311168	0.0273642
H	5.30732	1.56134	-0.941417
H	5.39801	1.78225	0.797879
H	4.61259	0.330171	0.13723
C	7.98164	1.11258	-0.137329
C	6.89554	-1.0296	0.190355
N	8.13109	-1.6605	0.20586
H	6.03968	-1.68112	0.317266
N	9.18667	0.380681	-0.10722
C	9.3435	-0.990316	0.0581325
H	10.0395	0.915054	-0.219126
H	8.20138	-2.65965	0.328736
O	10.4443	-1.56823	0.0741693
O	8.00149	2.35006	-0.294927
