30
  This energy is -0.000188589 and Call times are: 7853
C	-0.505479	1.02199	-0.786803
N	-1.80448	0.817546	-0.442011
C	-2.10347	-0.17664	0.429219
C	0.479804	0.186334	-0.220007
C	0.0333085	-0.805384	0.668902
N	-1.24763	-1.03177	1.02963
H	-3.15232	-0.296016	0.669409
N	-0.211843	2.01703	-1.65803
H	-0.963326	2.5771	-2.02571
H	0.740161	2.19331	-1.93283
N	1.87102	0.136599	-0.364631
C	2.25159	-0.862679	0.419901
N	1.18001	-1.46892	1.07018
H	3.26842	-1.19085	0.558177
H	1.21084	-2.24335	1.71354
C	11.102	1.05208	2.27158
C	10.5888	0.517093	0.965483
H	11.0396	0.290344	3.05725
H	10.4953	1.89899	2.61219
H	12.1422	1.38071	2.18701
C	9.20556	0.0366499	0.919091
C	11.3314	0.45409	-0.168329
N	10.8271	-0.0464826	-1.35993
H	12.3599	0.791607	-0.204613
N	8.78636	-0.452322	-0.335448
C	9.52775	-0.526668	-1.50864
H	7.83313	-0.789591	-0.390219
H	11.3993	-0.082954	-2.19031
O	9.08826	-0.972562	-2.58286
O	8.41907	0.039107	1.88759
