30
  This energy is -0.00139546 and Call times are: 2700
C	-0.610739	1.08748	-0.602841
N	-1.61398	1.19152	0.308617
C	-1.65544	0.315239	1.3417
C	0.348394	0.066903	-0.432991
C	0.187879	-0.773151	0.681265
N	-0.796456	-0.694119	1.6016
H	-2.47463	0.44268	2.03792
N	-0.573756	1.9658	-1.63364
H	-1.28983	2.67074	-1.696
H	0.156203	1.91469	-2.32462
N	1.4766	-0.299907	-1.17559
C	1.9824	-1.33711	-0.521942
N	1.24233	-1.6672	0.610317
H	2.86538	-1.88258	-0.811046
H	1.42203	-2.41036	1.26608
C	5.43562	2.27602	1.411
C	5.98816	1.1655	0.564312
H	5.58775	2.06775	2.47631
H	4.35379	2.37635	1.26624
H	5.90908	3.23314	1.17227
C	5.45087	-0.182202	0.767837
C	6.95264	1.33999	-0.373902
N	7.44215	0.292018	-1.14004
H	7.3935	2.30847	-0.575811
N	6.01168	-1.17825	-0.0580329
C	6.99868	-1.02358	-1.0242
H	5.65464	-2.11771	0.0658416
H	8.16007	0.447082	-1.83207
O	7.446	-1.95365	-1.71759
O	4.56487	-0.477055	1.59526
