30
  This energy is -0.000173052 and Call times are: 7492
C	-0.196933	0.417981	-1.30596
N	1.01771	1.0151	-1.43308
C	1.87301	0.992933	-0.381982
C	-0.516011	-0.20188	-0.0794544
C	0.461604	-0.151912	0.927915
N	1.67443	0.432727	0.830838
H	2.82598	1.48277	-0.536751
N	-1.04826	0.442893	-2.35952
H	-0.757912	0.902641	-3.20683
H	-1.95452	0.00973781	-2.29653
N	-1.65356	-0.886664	0.363177
C	-1.36558	-1.24009	1.60859
N	-0.0975977	-0.821251	2.00286
H	-2.01963	-1.78977	2.26497
H	0.347273	-0.966741	2.89478
C	7.49506	-0.216612	2.67495
C	7.04372	0.0782264	1.27324
H	8.50502	-0.642483	2.6787
H	6.84317	-0.960772	3.14682
H	7.49587	0.686868	3.29218
C	6.98909	-1.03594	0.323475
C	6.68566	1.313	0.83959
N	6.27307	1.5522	-0.463252
H	6.7027	2.18032	1.48808
N	6.55767	-0.692012	-0.974321
C	6.18644	0.563418	-1.44085
H	6.5123	-1.44729	-1.64731
H	6.01159	2.47993	-0.762072
O	5.81473	0.791548	-2.60519
O	7.29058	-2.21606	0.593619
