30
  This energy is 0.000321693 and Call times are: 16425
C	-0.571117	0.976324	-0.79978
N	-1.18052	0.105887	-1.64774
C	-1.03363	-1.22516	-1.43896
C	0.191493	0.453807	0.265942
C	0.261401	-0.945416	0.367478
N	-0.332015	-1.83335	-0.458122
H	-1.53954	-1.87342	-2.14313
N	-0.721038	2.3058	-1.01278
H	-1.27925	2.61206	-1.79265
H	-0.28244	2.9753	-0.402608
N	0.925624	1.06527	1.2887
C	1.4253	0.0558305	1.98887
N	1.05526	-1.18461	1.476
H	2.05035	0.154372	2.86086
H	1.30599	-2.09427	1.82849
C	4.99398	-2.72084	-0.0328372
C	5.50644	-1.31206	0.0574327
H	4.75086	-2.98242	-1.06911
H	4.06777	-2.83712	0.541617
H	5.72964	-3.43788	0.343844
C	4.6312	-0.234372	-0.41047
C	6.72898	-0.983447	0.545644
N	7.17292	0.329151	0.615284
H	7.42577	-1.7293	0.90793
N	5.17168	1.06331	-0.298346
C	6.41902	1.42367	0.197482
H	4.5833	1.82378	-0.616007
H	8.08686	0.548405	0.982703
O	6.82909	2.59546	0.265712
O	3.48728	-0.400534	-0.879946
