30
  This energy is 6.8854e-05 and Call times are: 14990
C	0.551674	0.183778	-1.25734
N	1.84324	0.079364	-0.846207
C	2.09831	-0.13762	0.467071
C	-0.47212	0.0611434	-0.294448
C	-0.0692411	-0.162465	1.03247
N	1.20326	-0.270478	1.46978
H	3.1432	-0.212618	0.740237
N	0.301999	0.400678	-2.57111
H	1.07941	0.478466	-3.20607
H	-0.643378	0.482589	-2.90645
N	-1.86735	0.118232	-0.389052
C	-2.29294	-0.0669549	0.853308
N	-1.247	-0.242235	1.7555
H	-3.32571	-0.0846787	1.15963
H	-1.31237	-0.398514	2.74842
C	13.7445	-1.97924	1.68108
C	13.2521	-0.795797	0.898489
H	14.4207	-2.5939	1.07577
H	12.9113	-2.62938	1.97174
H	14.2743	-1.66668	2.58599
C	12.5201	-1.05386	-0.344048
C	13.4467	0.492763	1.27621
N	12.9787	1.56455	0.529834
H	13.979	0.754914	2.18233
N	12.0857	0.0990652	-1.03017
C	12.2729	1.42646	-0.663371
H	11.5772	-0.0561684	-1.89202
H	13.136	2.5145	0.831808
O	11.8588	2.39596	-1.32253
O	12.2741	-2.18802	-0.802056
