30
  This energy is -0.00207762 and Call times are: 15188
C	0.568138	-1.26211	0.0576725
N	1.8535	-0.821392	0.0987262
C	2.09091	0.512692	0.0723236
C	-0.46793	-0.307012	-0.0109689
C	-0.0829739	1.04369	-0.0317377
N	1.18299	1.51054	0.00780706
H	3.13158	0.809069	0.107202
N	0.336125	-2.59658	0.0843086
H	1.12157	-3.22446	0.133736
H	-0.604253	-2.954	0.0552226
N	-1.86112	-0.429329	-0.065108
C	-2.30305	0.820017	-0.117229
N	-1.26972	1.75308	-0.0999269
H	-3.33933	1.1104	-0.167845
H	-1.3483	2.75682	-0.1304
C	8.20256	-2.11615	1.23567
C	7.37179	-1.10873	0.493802
H	8.14655	-1.94812	2.31735
H	9.26034	-2.02725	0.962584
H	7.87317	-3.138	1.02455
C	7.69308	0.309189	0.674527
C	6.34517	-1.43705	-0.330315
N	5.59636	-0.481212	-1.0015
H	6.05403	-2.46485	-0.50904
N	6.87616	1.20222	-0.0492245
C	5.82079	0.889839	-0.897856
H	7.08085	2.18781	0.0609307
H	4.83722	-0.750464	-1.60942
O	5.142	1.73605	-1.50537
O	8.60919	0.743688	1.40152
