30
  This energy is 0.000114815 and Call times are: 10820
C	0.512993	1.28162	0.115384
N	1.12339	1.06729	1.31102
C	1.02703	-0.155717	1.88705
C	-0.197745	0.216493	-0.476826
C	-0.21837	-0.999026	0.226815
N	0.37734	-1.2411	1.41371
H	1.53131	-0.272146	2.83794
N	0.612292	2.50585	-0.456256
H	1.13505	3.22245	0.0199769
H	0.171564	2.6957	-1.34091
N	-0.918664	0.11308	-1.672
C	-1.36237	-1.13665	-1.68588
N	-0.968268	-1.85571	-0.560575
H	-1.96226	-1.57385	-2.46674
H	-1.17763	-2.8163	-0.341433
C	11.2053	-1.54573	-2.3283
C	11.2786	-0.797205	-1.02839
H	11.1931	-0.853115	-3.17774
H	10.2799	-2.12961	-2.39116
H	12.0546	-2.22561	-2.44562
C	10.2072	0.1551	-0.72593
C	12.2771	-0.952926	-0.123037
N	12.3156	-0.24525	1.06967
H	13.0997	-1.63919	-0.282724
N	10.3356	0.824109	0.508826
C	11.3476	0.681312	1.45069
H	9.60551	1.48724	0.738288
H	13.0693	-0.378627	1.72741
O	11.3941	1.30876	2.5231
O	9.23449	0.391241	-1.4707
