30
  This energy is -0.0103441 and Call times are: 261
C	-0.89591	0.822428	0.663316
N	-0.295628	0.711174	1.87796
C	0.813704	-0.0587963	1.9936
C	-0.335355	0.128188	-0.429465
C	0.815805	-0.63423	-0.171453
N	1.43316	-0.76342	1.02201
H	1.25154	-0.112711	2.98225
N	-2.00451	1.59327	0.552976
H	-2.35279	2.06203	1.37307
H	-2.47156	1.6956	-0.332628
N	-0.702742	0.0361715	-1.77684
C	0.207444	-0.763655	-2.31603
N	1.15132	-1.19934	-1.38978
H	0.238144	-1.06025	-3.35133
H	1.93614	-1.80915	-1.55349
C	7.71685	0.822624	1.86638
C	6.72821	0.209763	0.916425
H	7.21716	1.50448	2.56408
H	8.45865	1.42146	1.32554
H	8.24234	0.0565153	2.44447
C	5.94394	1.1117	0.0691754
C	6.52181	-1.12618	0.799876
N	5.59974	-1.66081	-0.0882693
H	7.06652	-1.84882	1.39498
N	5.03475	0.473158	-0.799348
C	4.80634	-0.890924	-0.936021
H	4.48207	1.07793	-1.3945
H	5.46424	-2.65846	-0.156716
O	3.98366	-1.38318	-1.72771
O	6.0368	2.35583	0.0780104
