30
  This energy is 0.000920284 and Call times are: 4281
C	-0.81708	-1.11634	0.072035
N	-1.70845	-0.566028	0.938455
C	-1.50931	0.704617	1.36583
C	0.281935	-0.337119	-0.346697
C	0.368892	0.964994	0.172882
N	-0.499505	1.5376	1.03322
H	-2.24855	1.09376	2.05441
N	-1.02062	-2.38677	-0.352178
H	-1.82585	-2.88773	-0.014205
H	-0.378644	-2.82203	-0.993522
N	1.35128	-0.601965	-1.20996
C	2.06457	0.516117	-1.20888
N	1.51604	1.49862	-0.388829
H	2.97071	0.675009	-1.7696
H	1.86986	2.42681	-0.221837
C	5.07368	0.634445	1.92903
C	6.19863	0.441743	0.952926
H	4.96606	-0.241572	2.57896
H	4.11786	0.751137	1.40539
H	5.23666	1.51575	2.55671
C	6.12364	-0.701291	0.0395551
C	7.27535	1.26319	0.870411
N	8.2988	1.05709	-0.0433285
H	7.39449	2.1257	1.51458
N	7.21041	-0.825052	-0.850563
C	8.32228	0.00244166	-0.953311
H	7.17905	-1.60856	-1.4913
H	9.08973	1.6824	-0.0854892
O	9.24604	-0.170555	-1.76734
O	5.19104	-1.52958	0.0120547
