30
  This energy is -0.00127832 and Call times are: 8904
C	0.143036	0.528193	-1.27263
N	1.42278	0.102794	-1.44396
C	2.02254	-0.591601	-0.446484
C	-0.508404	0.226919	-0.0580413
C	0.228395	-0.499606	0.891859
N	1.49834	-0.934703	0.750051
H	3.04113	-0.906303	-0.634851
N	-0.451991	1.2219	-2.27266
H	0.0697724	1.40301	-3.11442
H	-1.39841	1.55033	-2.17606
N	-1.79242	0.513301	0.419609
C	-1.82605	-0.0291123	1.62938
N	-0.629352	-0.655617	1.96711
H	-2.6705	-0.00357639	2.29797
H	-0.408614	-1.1363	2.82433
C	6.67409	-2.7773	-0.300083
C	6.88864	-1.32056	-0.00459493
H	6.93371	-3.00735	-1.33983
H	5.61965	-3.04978	-0.176373
H	7.27687	-3.41079	0.357631
C	6.1471	-0.343525	-0.805791
C	7.72703	-0.861224	0.95823
N	7.90307	0.492439	1.20613
H	8.30535	-1.52755	1.58642
N	6.39364	1.00576	-0.478155
C	7.24636	1.49936	0.502045
H	5.89122	1.69836	-1.01971
H	8.53265	0.809561	1.92822
O	7.41325	2.70929	0.734709
O	5.34738	-0.632773	-1.71867
