30
  This energy is -0.000104168 and Call times are: 10732
C	1.1302	0.575639	0.557057
N	1.12489	-0.192745	1.6785
C	0.150124	-1.12164	1.83287
C	0.115872	0.371806	-0.402081
C	-0.8331	-0.623945	-0.117557
N	-0.863817	-1.40133	0.985579
H	0.19281	-1.70577	2.74336
N	2.10669	1.50271	0.407497
H	2.80088	1.5968	1.13057
H	2.13777	2.08684	-0.411482
N	-0.154627	0.981394	-1.63257
C	-1.24179	0.365514	-2.07715
N	-1.69596	-0.615796	-1.19998
H	-1.73945	0.579352	-3.00847
H	-2.49685	-1.21632	-1.31196
C	14.3468	-1.57219	-2.2958
C	14.4121	-0.857233	-0.976705
H	15.3527	-1.8006	-2.66654
H	13.871	-0.943839	-3.05751
H	13.7847	-2.50749	-2.21525
C	15.1341	0.416456	-0.923888
C	13.8426	-1.32306	0.163284
N	13.9215	-0.637737	1.36701
H	13.2947	-2.2568	0.195426
N	15.158	1.03578	0.342821
C	14.583	0.578453	1.52254
H	15.6519	1.91782	0.402152
H	13.4893	-1.00487	2.20176
O	14.6459	1.18242	2.60752
O	15.7008	0.953539	-1.89704
