30
  This energy is -0.000136872 and Call times are: 5561
C	-0.886732	1.02696	0.279458
N	-1.37451	0.467603	1.41843
C	-0.887555	-0.73129	1.82139
C	0.110055	0.331819	-0.437173
C	0.525373	-0.901571	0.0912997
N	0.0600589	-1.48116	1.21813
H	-1.31032	-1.1313	2.73425
N	-1.37677	2.22546	-0.119055
H	-2.08813	2.66832	0.439015
H	-1.03603	2.66528	-0.957715
N	0.802456	0.627291	-1.61706
C	1.61548	-0.405577	-1.7933
N	1.48995	-1.36143	-0.788678
H	2.30618	-0.519337	-2.6123
H	1.99456	-2.22865	-0.699864
C	4.46708	2.54661	1.00467
C	4.82286	1.26439	0.308428
H	5.08888	2.69303	1.89536
H	3.42771	2.52706	1.3521
H	4.59708	3.40886	0.34371
C	4.69901	0.0169723	1.06672
C	5.25067	1.19728	-0.977418
N	5.57187	-0.00447393	-1.5918
H	5.36492	2.07974	-1.59489
N	5.04813	-1.14975	0.355692
C	5.48813	-1.24297	-0.959329
H	4.96978	-2.02383	0.860921
H	5.88797	-0.028585	-2.54984
O	5.779	-2.31289	-1.52196
O	4.31829	-0.0596626	2.25236
