30
  This energy is -0.000771836 and Call times are: 9280
C	0.300925	-0.0347157	-1.35177
N	0.630343	-1.35343	-1.37506
C	0.557641	-2.06833	-0.225936
C	-0.104297	0.535221	-0.126478
C	-0.135565	-0.318267	0.988691
N	0.185386	-1.62942	0.99594
H	0.830791	-3.11326	-0.300445
N	0.375251	0.675484	-2.50305
H	0.672197	0.207219	-3.34337
H	0.137976	1.65343	-2.51822
N	-0.499235	1.83085	0.225981
C	-0.761841	1.75717	1.52386
N	-0.558716	0.479266	2.03803
H	-1.09626	2.57739	2.13717
H	-0.688737	0.172095	2.98848
C	8.55187	0.231831	-0.455946
C	7.11817	0.0813346	-0.0348836
H	8.72092	1.20812	-0.924634
H	8.82021	-0.522126	-1.2049
H	9.23056	0.132677	0.396571
C	6.08638	0.18923	-1.06937
C	6.72719	-0.147691	1.24402
N	5.39307	-0.281763	1.60038
H	7.4366	-0.23827	2.05741
N	4.76223	0.038579	-0.608265
C	4.33826	-0.196136	0.694319
H	4.03267	0.109449	-1.30692
H	5.12717	-0.451911	2.55887
O	3.14657	-0.318471	1.02722
O	6.31104	0.397414	-2.27881
