30
  This energy is 0.000741318 and Call times are: 11403
C	-0.350841	-0.957116	0.938014
N	-1.46271	-1.37921	0.2795
C	-1.78899	-0.79465	-0.89892
C	0.418919	0.0761437	0.363379
C	-0.031703	0.594292	-0.861971
N	-1.12996	0.195903	-1.53821
H	-2.68336	-1.16836	-1.38108
N	-0.0290248	-1.54464	2.11556
H	-0.621868	-2.27708	2.47004
H	0.787805	-1.25433	2.62684
N	1.58977	0.721604	0.777334
C	1.83684	1.60764	-0.178063
N	0.887124	1.5744	-1.19571
H	2.67093	2.28944	-0.191884
H	0.855627	2.14533	-2.02495
C	6.6174	2.51708	0.73019
C	7.09875	1.21097	0.166466
H	7.43167	3.04755	1.2371
H	5.83778	2.35391	1.48316
H	6.21422	3.16549	-0.0535522
C	7.66767	0.232498	1.0967
C	7.03653	0.88836	-1.14996
N	7.49057	-0.32796	-1.63911
H	6.62848	1.5641	-1.89154
N	8.10025	-0.971732	0.503914
C	8.04681	-1.32398	-0.839453
H	8.49696	-1.6627	1.12889
H	7.43345	-0.544827	-2.623
O	8.44975	-2.41011	-1.29096
O	7.78225	0.40416	2.32713
