30
  This energy is 0.000925586 and Call times are: 6287
C	-0.523494	-0.927688	-0.885652
N	0.384006	-1.89964	-0.603139
C	1.34663	-1.65092	0.317912
C	-0.423391	0.303729	-0.20451
C	0.621842	0.429277	0.725408
N	1.53645	-0.516803	1.0264
H	2.04301	-2.45851	0.50472
N	-1.48373	-1.18127	-1.80707
H	-1.49856	-2.08193	-2.25673
H	-2.16986	-0.482139	-2.03803
N	-1.18149	1.47871	-0.264233
C	-0.604449	2.29181	0.61029
N	0.492412	1.70829	1.23884
H	-0.926304	3.29616	0.830385
H	1.09104	2.12008	1.93646
C	8.27206	-2.18838	1.66519
C	8.13913	-1.06655	0.675612
H	7.37006	-2.81106	1.67329
H	8.38927	-1.7994	2.6832
H	9.13205	-2.82426	1.43427
C	7.03024	-0.125637	0.85296
C	8.98459	-0.876976	-0.368507
N	8.83386	0.170336	-1.26587
H	9.82429	-1.53417	-0.558408
N	6.96216	0.903249	-0.109039
C	7.81513	1.11722	-1.18525
H	6.20302	1.56535	-0.00541084
H	9.47609	0.290432	-2.03494
O	7.6917	2.05139	-1.99642
O	6.18501	-0.187103	1.76859
