30
  This energy is -0.00305148 and Call times are: 15419
C	0.392903	-0.573284	-1.19833
N	0.799827	-1.74869	-0.649795
C	0.691813	-1.91959	0.690343
C	-0.126706	0.422496	-0.344642
C	-0.183044	0.115427	1.02487
N	0.212945	-1.04104	1.59755
H	1.03011	-2.87347	1.07468
N	0.502955	-0.407412	-2.53838
H	0.882807	-1.15877	-3.09044
H	0.210363	0.451235	-2.9743
N	-0.619731	1.70962	-0.587755
C	-0.964484	2.16542	0.609021
N	-0.721979	1.24184	1.62235
H	-1.38697	3.13688	0.805335
H	-0.897572	1.35172	2.6081
C	4.25835	2.40681	1.07469
C	4.62093	1.03554	0.581154
H	4.09318	3.09283	0.235947
H	5.07262	2.83561	1.67007
H	3.35304	2.38335	1.68878
C	5.81501	0.90381	-0.257418
C	3.90757	-0.0826211	0.867115
N	4.2696	-1.33591	0.394836
H	3.01527	-0.0573115	1.48049
N	6.09949	-0.408849	-0.687162
C	5.38471	-1.56749	-0.407532
H	6.92098	-0.523003	-1.26815
H	3.72258	-2.15309	0.621421
O	5.698	-2.69637	-0.823931
O	6.55607	1.84969	-0.593138
