30
  This energy is -0.00144888 and Call times are: 1132
C	-0.171282	1.37247	0.0775313
N	-1.07002	1.4463	-0.939768
C	-1.43031	0.30792	-1.58095
C	0.349913	0.107915	0.42338
C	-0.108271	-0.990753	-0.322285
N	-0.998527	-0.948189	-1.3361
H	-2.14857	0.423279	-2.38272
N	0.185579	2.51323	0.715252
H	-0.224461	3.38343	0.418254
H	0.848524	2.49139	1.47217
N	1.26892	-0.298924	1.39743
C	1.36065	-1.61261	1.24029
N	0.548374	-2.08551	0.213033
H	1.98508	-2.26595	1.8268
H	0.443465	-3.03789	-0.0977234
C	4.67707	2.074	0.158229
C	5.53846	0.847431	0.0635527
H	4.88898	2.76473	-0.666021
H	4.88129	2.62422	1.08394
H	3.61364	1.81762	0.132977
C	6.99207	1.02895	0.0849767
C	5.04778	-0.413267	-0.040391
N	5.87146	-1.52637	-0.126349
H	3.98469	-0.619299	-0.062068
N	7.74262	-0.161361	-0.00732007
C	7.26305	-1.4614	-0.114412
H	8.74999	-0.0591496	0.00574505
H	5.48245	-2.45436	-0.202932
O	7.98968	-2.46734	-0.19196
O	7.56981	2.13094	0.176605
