30
  This energy is -0.00572788 and Call times are: 4258
C	-0.831446	-0.20799	-1.08833
N	-1.69979	-1.02198	-0.431467
C	-1.4753	-1.30285	0.875269
C	0.271084	0.311601	-0.377829
C	0.385467	-0.0591625	0.972161
N	-0.459699	-0.864283	1.65014
H	-2.1969	-1.95558	1.34989
N	-1.06028	0.06969	-2.39443
H	-1.86656	-0.334237	-2.84204
H	-0.435742	0.668854	-2.9081
N	1.32146	1.15685	-0.753509
C	2.05042	1.29075	0.346292
N	1.53017	0.576065	1.42204
H	2.94889	1.87972	0.427739
H	1.89993	0.518444	2.35721
C	7.11439	2.08037	1.33374
C	6.54003	0.978389	0.490417
H	7.36202	1.71568	2.33727
H	6.38661	2.88879	1.46861
H	8.01916	2.49819	0.882024
C	5.32169	0.31765	0.965242
C	7.08411	0.562596	-0.680918
N	6.52841	-0.459483	-1.43683
H	7.9833	1.00672	-1.08991
N	4.83469	-0.707283	0.127965
C	5.37399	-1.14984	-1.07407
H	3.99291	-1.17766	0.437095
H	6.9518	-0.751004	-2.30522
O	4.8863	-2.06411	-1.76122
O	4.72337	0.603598	2.02204
