30
  This energy is -0.000251112 and Call times are: 16697
C	0.153577	-0.902869	-1.03936
N	-0.803031	-1.76419	-0.602215
C	-1.47533	-1.47432	0.538327
C	0.406238	0.261029	-0.283144
C	-0.362423	0.439858	0.878839
N	-1.31757	-0.396715	1.33713
H	-2.22591	-2.19333	0.841119
N	0.822738	-1.19716	-2.17996
H	0.593137	-2.04504	-2.67187
H	1.53644	-0.579553	-2.52938
N	1.3025	1.32197	-0.456307
C	1.07716	2.12018	0.578568
N	0.0791478	1.63517	1.41964
H	1.59293	3.04601	0.772411
H	-0.27014	2.05723	2.2649
C	6.00271	2.11366	-1.65
C	5.5637	0.878341	-0.917409
H	6.97056	2.46659	-1.27568
H	5.29231	2.93362	-1.49379
H	6.09122	1.92973	-2.72497
C	5.39902	0.966865	0.53567
C	5.31252	-0.309353	-1.52339
N	4.90825	-1.43298	-0.817091
H	5.41432	-0.444868	-2.59313
N	4.98541	-0.22685	1.16229
C	4.72258	-1.4532	0.563492
H	4.86513	-0.188225	2.16701
H	4.72735	-2.30555	-1.29064
O	4.35961	-2.46751	1.18424
O	5.59689	1.99619	1.21236
