30
  This energy is 2.1381e-05 and Call times are: 3294
C	-0.799865	-0.390592	-1.06145
N	-1.65395	0.663249	-0.971826
C	-1.44855	1.59425	-0.00855036
C	0.268435	-0.469803	-0.1434
C	0.365945	0.562193	0.804491
N	-0.465744	1.6194	0.917544
H	-2.15757	2.41194	0.0183356
N	-1.0095	-1.31848	-2.02605
H	-1.7915	-1.20188	-2.64933
H	-0.394789	-2.11004	-2.11806
N	1.29719	-1.40315	0.0280288
C	1.99694	-0.942028	1.05593
N	1.47811	0.24538	1.56538
H	2.87271	-1.4121	1.47166
H	1.82912	0.786802	2.33885
C	19.8254	-0.25565	2.47836
C	19.1128	-0.299487	1.15716
H	19.3124	0.415411	3.17686
H	20.8419	0.137344	2.36101
H	19.8866	-1.24957	2.93182
C	18.9514	0.95907	0.424765
C	18.6123	-1.43421	0.606846
N	17.9582	-1.44072	-0.616674
H	18.6963	-2.398	1.09379
N	18.2742	0.848931	-0.807267
C	17.7536	-0.300279	-1.39025
H	18.1516	1.70715	-1.33056
H	17.5945	-2.29802	-1.00545
O	17.1657	-0.320242	-2.48564
O	19.3639	2.0688	0.818419
