30
  This energy is -0.00037502 and Call times are: 11378
C	-0.203448	-1.30816	-0.40788
N	-1.26378	-1.02767	-1.21105
C	-1.68768	0.255521	-1.31394
C	0.412694	-0.24619	0.287071
C	-0.126733	1.0358	0.0907566
N	-1.17704	1.34429	-0.699103
H	-2.53516	0.423201	-1.9664
N	0.216402	-2.59237	-0.308447
H	-0.26821	-3.30289	-0.831802
H	0.99852	-2.83197	0.277887
N	1.49728	-0.200881	1.17051
C	1.60682	1.07973	1.4975
N	0.649032	1.87414	0.872816
H	2.34413	1.48831	2.16846
H	0.526227	2.87015	0.959327
C	5.68096	-0.658808	2.60585
C	5.28741	-0.130321	1.25632
H	6.53761	-1.33777	2.52486
H	4.86537	-1.24058	3.05054
H	5.94354	0.152821	3.29109
C	4.90675	-1.10007	0.226228
C	5.26506	1.18878	0.939476
N	4.89648	1.64472	-0.317951
H	5.53433	1.9586	1.65219
N	4.54855	-0.539071	-1.01702
C	4.51819	0.806305	-1.36431
H	4.28167	-1.19162	-1.74391
H	4.8877	2.63138	-0.529511
O	4.18982	1.22834	-2.48679
O	4.8849	-2.33704	0.387435
