30
  This energy is -0.00298248 and Call times are: 15255
C	0.887243	-0.760914	0.743533
N	-0.0698605	-1.41389	1.45462
C	-1.37326	-1.12841	1.21691
C	0.480249	0.190198	-0.215688
C	-0.902457	0.389714	-0.36177
N	-1.8746	-0.242777	0.32893
H	-2.0938	-1.67667	1.81044
N	2.18863	-1.04987	0.984896
H	2.41066	-1.73972	1.68375
H	2.92032	-0.583488	0.474964
N	1.19803	1.01315	-1.09113
C	0.267213	1.69178	-1.74833
N	-1.02273	1.35446	-1.34718
H	0.458129	2.42754	-2.51186
H	-1.89117	1.72851	-1.69431
C	4.83383	-1.71821	-1.55861
C	5.68849	-0.691609	-0.872254
H	3.86779	-1.8243	-1.05174
H	5.30939	-2.7053	-1.52904
H	4.65112	-1.45094	-2.60381
C	6.02184	-0.910786	0.537439
C	6.16659	0.422184	-1.48202
N	6.95421	1.35216	-0.818965
H	5.9588	0.646063	-2.52114
N	6.82639	0.0891007	1.12192
C	7.32707	1.23655	0.518384
H	7.06911	-0.0424155	2.09618
H	7.29809	2.17316	-1.29441
O	8.03387	2.07762	1.10058
O	5.64727	-1.89074	1.21269
