30
  This energy is -0.000216033 and Call times are: 17142
C	0.141095	-0.929352	-1.01756
N	0.310763	-1.99654	-0.192702
C	0.285268	-1.80017	1.14806
C	-0.0551171	0.342465	-0.439335
C	-0.0595958	0.405673	0.963878
N	0.106024	-0.635113	1.80739
H	0.425378	-2.68318	1.75854
N	0.167405	-1.13092	-2.35698
H	0.31179	-2.06487	-2.70407
H	0.044862	-0.361146	-2.99364
N	-0.255142	1.61081	-0.99625
C	-0.377034	2.41777	0.049138
N	-0.266893	1.74163	1.26132
H	-0.543119	3.48099	-0.00330937
H	-0.324028	2.13064	2.18868
C	5.56376	0.881531	-0.327961
C	6.98123	0.509906	0.000838062
H	4.92916	-0.0103689	-0.384451
H	5.50468	1.36658	-1.3091
H	5.14505	1.55987	0.421561
C	7.68072	-0.396013	-0.913726
C	7.64676	0.964092	1.09249
N	8.95718	0.601151	1.36803
H	7.19026	1.63562	1.80925
N	9.00718	-0.704785	-0.547885
C	9.70867	-0.252503	0.563387
H	9.50969	-1.32959	-1.16636
H	9.43108	0.952429	2.18678
O	10.8828	-0.569547	0.821982
O	7.18458	-0.883425	-1.94951
