30
  This energy is 8.1293e-05 and Call times are: 10798
C	-0.505846	0.884099	0.938893
N	0.569581	1.71553	0.923259
C	1.61187	1.42492	0.107152
C	-0.490216	-0.250709	0.100842
C	0.652636	-0.433837	-0.695007
N	1.73391	0.373425	-0.731688
H	2.44186	2.11951	0.133733
N	-1.54512	1.179	1.75639
H	-1.49218	2.00519	2.32927
H	-2.35547	0.583122	1.79054
N	-1.41652	-1.2779	-0.112915
C	-0.842823	-2.06049	-1.01696
N	0.411512	-1.5973	-1.40525
H	-1.27499	-2.95976	-1.42354
H	1.0399	-2.0136	-2.0734
C	6.98569	-0.50877	-0.456164
C	8.47347	-0.323187	-0.369571
H	6.47062	0.458751	-0.454925
H	6.60974	-1.06113	0.412714
H	6.70354	-1.05225	-1.36295
C	9.00747	0.389319	0.793861
C	9.34628	-0.776287	-1.30436
N	10.7165	-0.588025	-1.19467
H	9.02009	-1.31028	-2.1884
N	10.4105	0.52948	0.814378
C	11.3232	0.0746279	-0.129945
H	10.8013	1.01897	1.61006
H	11.3456	-0.93462	-1.90343
O	12.553	0.236275	-0.0439052
O	8.31554	0.854977	1.72174
