30
  This energy is 0.000184455 and Call times are: 13231
C	-0.129793	-0.719546	1.17662
N	-1.31603	-1.29435	0.84417
C	-1.87435	-1.00029	-0.355264
C	0.471534	0.162426	0.254183
C	-0.213759	0.379651	-0.952552
N	-1.39097	-0.176004	-1.30977
H	-2.8184	-1.48498	-0.569517
N	0.424157	-1.01674	2.3767
H	-0.057762	-1.65463	2.98861
H	1.30149	-0.607383	2.6517
N	1.66104	0.89899	0.291676
C	1.68954	1.54419	-0.866679
N	0.579172	1.26701	-1.65973
H	2.47104	2.21391	-1.18525
H	0.37259	1.63145	-2.57575
C	13.5445	-0.0492239	-0.150999
C	12.0644	0.12947	0.0304049
H	13.8111	-0.0450323	-1.21417
H	13.8729	-1.01625	0.247033
H	14.1067	0.743351	0.352033
C	11.1753	-0.857525	-0.587464
C	11.5076	1.14922	0.731082
N	10.135	1.28602	0.879826
H	12.1054	1.91306	1.21294
N	9.79886	-0.632242	-0.379529
C	9.2061	0.403298	0.333117
H	9.16587	-1.30281	-0.797949
H	9.74458	2.05351	1.40604
O	7.97813	0.53758	0.474345
O	11.5578	-1.83937	-1.25551
