30
  This energy is -0.00349503 and Call times are: 8073
C	0.93345	-0.923396	0.441637
N	0.946129	-1.65084	-0.706726
C	0.150692	-1.26771	-1.735
C	0.0887287	0.204273	0.513552
C	-0.68362	0.489868	-0.6244
N	-0.692011	-0.213052	-1.77679
H	0.19945	-1.88164	-2.62536
N	1.73037	-1.31051	1.46654
H	2.30949	-2.12566	1.34935
H	1.74337	-0.792759	2.32948
N	-0.151336	1.13955	1.52671
C	-1.04785	1.96837	1.00883
N	-1.40624	1.62265	-0.29144
H	-1.46929	2.82158	1.51397
H	-2.06342	2.09291	-0.892751
C	7.66941	2.47996	0.269776
C	6.83039	1.24261	0.126778
H	8.36025	2.58326	-0.574892
H	8.28899	2.42959	1.17253
H	7.04827	3.37916	0.323528
C	7.52136	-0.0464858	0.0420543
C	5.47473	1.25213	0.0717726
N	4.72837	0.090166	-0.0610451
H	4.90082	2.1689	0.128527
N	6.67655	-1.16777	-0.0910188
C	5.28805	-1.18256	-0.149538
H	7.13333	-2.0695	-0.151258
H	3.72051	0.123072	-0.0996105
O	4.6072	-2.21613	-0.268163
O	8.75972	-0.193395	0.080239
