30
  This energy is 0.00170793 and Call times are: 430
C	-1.00778	0.0313102	-0.949962
N	-1.12245	1.38576	-0.969356
C	-0.320701	2.12378	-0.163514
C	-0.0545425	-0.550163	-0.0876466
C	0.711729	0.330091	0.69402
N	0.620329	1.67687	0.696103
H	-0.453246	3.19684	-0.218271
N	-1.81149	-0.70188	-1.75733
H	-2.47095	-0.223601	-2.3489
H	-1.75058	-1.70643	-1.76575
N	0.303203	-1.87985	0.163001
C	1.26291	-1.79999	1.07485
N	1.55093	-0.485725	1.43322
H	1.77954	-2.64051	1.50771
H	2.23504	-0.167155	2.10039
C	8.65729	2.08415	1.10399
C	7.78442	0.937545	0.681121
H	8.39161	2.99837	0.56082
H	9.70906	1.88055	0.872233
H	8.56854	2.2785	2.17711
C	7.79483	0.555102	-0.733102
C	6.99048	0.239661	1.53173
N	6.19501	-0.8154	1.10874
H	6.93449	0.468888	2.5888
N	6.95416	-0.527784	-1.06373
C	6.13343	-1.25666	-0.211256
H	6.94592	-0.80915	-2.03645
H	5.61273	-1.31942	1.76087
O	5.41606	-2.20406	-0.576913
O	8.4777	1.11311	-1.61564
