30
  This energy is -0.00119895 and Call times are: 16675
C	-0.756929	-0.450183	-1.06931
N	-0.894896	-1.7194	-0.602265
C	-0.321991	-2.04911	0.580913
C	-0.0197884	0.473201	-0.29837
C	0.521053	0.000380487	0.908672
N	0.40083	-1.25217	1.39738
H	-0.462566	-3.07211	0.90612
N	-1.33149	-0.12563	-2.25249
H	-1.84436	-0.832969	-2.75271
H	-1.24726	0.805596	-2.62482
N	0.299509	1.82186	-0.493412
C	1.01612	2.15168	0.572687
N	1.18167	1.08731	1.45494
H	1.4358	3.12583	0.761556
H	1.68245	1.08651	2.32891
C	4.22388	0.167771	-0.953803
C	5.59759	-0.099113	-0.408718
H	4.27732	0.533384	-1.98573
H	3.71856	0.948768	-0.374079
H	3.60524	-0.734558	-0.935714
C	6.54584	1.01691	-0.3671
C	6.0074	-1.31038	0.0449463
N	7.2847	-1.52407	0.542644
H	5.35854	-2.17759	0.0429973
N	7.81677	0.699784	0.155249
C	8.25862	-0.531306	0.625091
H	8.48822	1.45682	0.193392
H	7.56607	-2.43459	0.874483
O	9.39993	-0.736434	1.07369
O	6.29599	2.17705	-0.752079
