30
  This energy is 0.000420374 and Call times are: 9764
C	-1.37694	-0.110851	-0.103768
N	-1.36926	-1.4034	-0.524881
C	-0.180992	-2.03805	-0.673483
C	-0.141666	0.51687	0.161591
C	1.0153	-0.255416	-0.033429
N	1.05393	-1.53882	-0.45004
H	-0.232034	-3.06544	-1.01101
N	-2.5673	0.519081	0.0431907
H	-3.41263	0.012799	-0.163418
H	-2.60607	1.47577	0.353257
N	0.186698	1.80553	0.597938
C	1.5113	1.80718	0.663526
N	2.06582	0.585153	0.292265
H	2.11687	2.64517	0.96653
H	3.04187	0.338427	0.259742
C	6.8822	1.69329	-0.220302
C	8.16154	0.929295	-0.0331028
H	6.06474	1.23073	0.344675
H	6.57408	1.68742	-1.27217
H	6.98665	2.73242	0.106105
C	8.17952	-0.481837	-0.426522
C	9.29601	1.47052	0.477761
N	10.4625	0.736671	0.638158
H	9.35252	2.50647	0.788678
N	9.40983	-1.14095	-0.225094
C	10.5832	-0.608318	0.295629
H	9.44474	-2.11758	-0.490418
H	11.2939	1.1619	1.02058
O	11.635	-1.25435	0.444481
O	7.20739	-1.09839	-0.90757
