30
  This energy is -0.00283685 and Call times are: 1361
C	0.166235	1.25773	0.556332
N	-0.417182	0.949368	1.74486
C	-0.889602	-0.306204	1.93774
C	0.255058	0.252503	-0.429562
C	-0.274441	-1.00596	-0.0995318
N	-0.858598	-1.34104	1.07037
H	-1.34436	-0.498032	2.9013
N	0.636855	2.51415	0.368495
H	0.541516	3.18418	1.11386
H	1.07387	2.77323	-0.500297
N	0.783967	0.246701	-1.72536
C	0.57676	-0.98769	-2.1638
N	-0.0607394	-1.78937	-1.22062
H	0.859157	-1.35691	-3.13575
H	-0.325104	-2.75672	-1.31521
C	5.63016	2.34357	0.974335
C	4.97096	1.03961	0.627061
H	5.08005	3.18691	0.541254
H	6.64451	2.39053	0.561709
H	5.68811	2.48522	2.05776
C	4.82006	0.70573	-0.791441
C	4.50948	0.157978	1.54939
N	3.90445	-1.03925	1.19522
H	4.58844	0.341448	2.61389
N	4.19375	-0.531216	-1.04909
C	3.71369	-1.44916	-0.122538
H	4.07921	-0.782198	-2.02341
H	3.56919	-1.67896	1.9
O	3.1699	-2.52528	-0.426115
O	5.20012	1.42675	-1.73603
