30
  This energy is 1.563e-05 and Call times are: 14281
C	0.851357	0.166053	1.08012
N	1.95239	-0.323701	0.450876
C	1.84219	-0.743067	-0.833193
C	-0.364136	0.216777	0.365716
C	-0.339453	-0.249887	-0.958911
N	0.736755	-0.740858	-1.60922
H	2.74874	-1.12372	-1.28629
N	0.966748	0.583949	2.36363
H	1.86414	0.520238	2.81554
H	0.169985	0.951442	2.8566
N	-1.64649	0.654308	0.716435
C	-2.37571	0.45488	-0.373221
N	-1.63544	-0.0908025	-1.41864
H	-3.42501	0.680193	-0.467888
H	-1.96076	-0.331477	-2.34105
C	10.4074	-0.755591	0.449391
C	9.03466	-0.305897	0.0383911
H	10.3961	-1.80472	0.76657
H	10.7676	-0.176305	1.30732
H	11.1246	-0.647204	-0.369776
C	7.96109	-0.390325	1.03173
C	8.73486	0.171705	-1.19568
N	7.45519	0.579112	-1.54399
H	9.47952	0.2608	-1.9771
N	6.69791	0.0470209	0.582525
C	6.36741	0.539204	-0.674492
H	5.94093	-0.00255156	1.25329
H	7.257	0.931038	-2.46877
O	5.22534	0.90778	-0.999651
O	8.10298	-0.80942	2.19826
