30
  This energy is -8.7923e-05 and Call times are: 9558
C	-0.027601	-1.30234	-0.471353
N	1.18285	-1.24061	-1.08704
C	1.89019	-0.0859605	-1.02947
C	-0.497262	-0.156241	0.204097
C	0.335899	0.974489	0.186347
N	1.54074	1.06522	-0.415566
H	2.84686	-0.091138	-1.53622
N	-0.730715	-2.45877	-0.531815
H	-0.337515	-3.23985	-1.03072
H	-1.6298	-2.53587	-0.086158
N	-1.67202	0.10117	0.920025
C	-1.5472	1.35843	1.32326
N	-0.350593	1.93626	0.907435
H	-2.27373	1.89795	1.90793
H	-0.0265715	2.87312	1.08601
C	9.28029	-1.52411	1.10805
C	10.3536	-0.582084	0.643184
H	9.7059	-2.49598	1.38322
H	8.55713	-1.71795	0.30751
H	8.74333	-1.12185	1.9724
C	11.1624	-0.98243	-0.510895
C	10.6146	0.613185	1.22978
N	11.6145	1.46106	0.775601
H	10.0558	0.970709	2.0859
N	12.1517	-0.0541696	-0.895976
C	12.4371	1.17403	-0.311492
H	12.7227	-0.310726	-1.69197
H	11.7896	2.3455	1.22887
O	13.3297	1.94328	-0.708351
O	11.0252	-2.05176	-1.13881
