30
  This energy is -0.00169107 and Call times are: 3695
C	1.31928	-0.034951	0.421084
N	1.07577	0.499198	1.64724
C	-0.196089	0.830911	1.97766
C	0.2322	-0.221723	-0.458539
C	-1.03434	0.164983	0.00980724
N	-1.30629	0.697171	1.22018
H	-0.334041	1.25213	2.96538
N	2.59231	-0.364836	0.0956325
H	3.32222	-0.205347	0.770461
H	2.80473	-0.762132	-0.804334
N	0.148078	-0.734566	-1.75807
C	-1.14023	-0.657593	-2.06341
N	-1.90282	-0.120505	-1.02965
H	-1.57631	-0.968105	-2.99838
H	-2.8974	0.0385886	-1.0191
C	7.52362	1.74887	2.18413
C	7.58957	0.93274	0.925158
H	7.9223	1.18593	3.03592
H	6.48585	1.99686	2.43495
H	8.09015	2.67984	2.08621
C	6.8766	-0.34691	0.901246
C	8.2695	1.31262	-0.185834
N	8.31088	0.534694	-1.33386
H	8.81785	2.24525	-0.236692
N	6.97858	-1.06331	-0.309148
C	7.66801	-0.694991	-1.45832
H	6.49302	-1.95109	-0.347754
H	8.8237	0.838991	-2.14797
O	7.71311	-1.3822	-2.49351
O	6.216	-0.810766	1.85257
