30
  This energy is -0.00606647 and Call times are: 1298
C	-0.231606	-0.932579	-0.997841
N	-1.44861	-0.440886	-1.35167
C	-1.93679	0.638648	-0.693541
C	0.473864	-0.294684	0.0441594
C	-0.146859	0.814478	0.642059
N	-1.3524	1.32463	0.312501
H	-2.9094	0.989032	-1.01492
N	0.25192	-2.01182	-1.65876
H	-0.303125	-2.41948	-2.39315
H	1.14965	-2.39915	-1.4201
N	1.71825	-0.547135	0.632922
C	1.84214	0.389492	1.56366
N	0.742073	1.24157	1.61346
H	2.68755	0.502718	2.22185
H	0.599776	2.02501	2.23037
C	6.16941	2.75689	0.476918
C	6.03435	1.29091	0.180106
H	6.91942	3.21989	-0.17463
H	6.51139	2.9172	1.50587
H	5.21857	3.28083	0.34043
C	7.22736	0.451988	0.319147
C	4.87468	0.703101	-0.207921
N	4.7833	-0.655271	-0.474983
H	3.95595	1.26344	-0.330545
N	7.03296	-0.913638	0.0259555
C	5.85671	-1.53744	-0.37262
H	7.84483	-1.51216	0.115723
H	3.90902	-1.06938	-0.762221
O	5.76092	-2.75319	-0.614823
O	8.35145	0.866395	0.66735
