30
  This energy is -0.00178925 and Call times are: 9258
C	-0.801639	1.07174	-0.357476
N	-1.82966	0.312689	-0.821254
C	-1.72097	-1.03748	-0.77581
C	0.339313	0.417901	0.153496
C	0.321901	-0.986588	0.14215
N	-0.682793	-1.76585	-0.311197
H	-2.5677	-1.59365	-1.15762
N	-0.915181	2.42088	-0.405105
H	-1.75721	2.82364	-0.782407
H	-0.171412	3.01	-0.0694631
N	1.53827	0.897366	0.693374
C	2.22562	-0.194771	0.999447
N	1.53711	-1.36401	0.687179
H	3.20832	-0.2065	1.44093
H	1.84562	-2.31315	0.823407
C	5.82851	-0.846815	-2.65398
C	6.0198	-0.228645	-1.29873
H	4.80692	-1.22689	-2.76929
H	6.49585	-1.70574	-2.78923
H	6.02372	-0.125054	-3.45285
C	5.79455	-1.07372	-0.123346
C	6.38763	1.06264	-1.10325
N	6.55577	1.6037	0.163175
H	6.5701	1.74217	-1.92666
N	5.9908	-0.433128	1.11755
C	6.3668	0.885872	1.34212
H	5.84055	-0.999033	1.94374
H	6.83005	2.56744	0.282846
O	6.52116	1.38322	2.47116
O	5.45455	-2.27341	-0.16469
