30
  This energy is -0.00653415 and Call times are: 11273
C	0.498654	-0.985957	0.835622
N	-0.0147839	-2.02577	0.126224
C	-0.733502	-1.76526	-0.992893
C	0.259913	0.325586	0.373865
C	-0.500823	0.454466	-0.799887
N	-1.02284	-0.557808	-1.52444
H	-1.11909	-2.62896	-1.51957
N	1.21633	-1.25165	1.95353
H	1.34941	-2.21118	2.22771
H	1.60939	-0.503553	2.50012
N	0.639433	1.58101	0.862461
C	0.118274	2.44463	0.0013866
N	-0.582733	1.81779	-1.02542
H	0.210634	3.51622	0.0640008
H	-1.06466	2.25373	-1.79503
C	6.19112	0.887905	-2.56288
C	5.662	0.355975	-1.26192
H	7.13003	0.391975	-2.83473
H	6.41701	1.95759	-2.48455
H	5.47261	0.742365	-3.37517
C	6.5131	0.478807	-0.0757797
C	4.44564	-0.229314	-1.12465
N	3.98607	-0.711085	0.0925343
H	3.76646	-0.352465	-1.95929
N	5.95791	-0.0397954	1.11228
C	4.71652	-0.64264	1.27687
H	6.52943	0.0347469	1.94488
H	3.0771	-1.14263	0.169325
O	4.29244	-1.07832	2.36142
O	7.64906	0.994634	-0.0659727
