30
  This energy is 0.000951216 and Call times are: 12400
C	-0.386214	-1.2552	0.440849
N	-1.61173	-1.22502	-0.146742
C	-1.97177	-0.128733	-0.857635
C	0.461786	-0.138606	0.284389
C	-0.0353019	0.931568	-0.477616
N	-1.24583	0.989838	-1.0721
H	-2.95754	-0.156926	-1.3043
N	-0.0310845	-2.35331	1.15035
H	-0.684223	-3.11605	1.22271
H	0.869246	-2.40585	1.59706
N	1.75219	0.138108	0.750388
C	2.02405	1.34748	0.278791
N	0.977066	1.87566	-0.471885
H	2.94318	1.88536	0.442027
H	0.942005	2.77124	-0.931573
C	7.38488	1.83853	1.39369
C	6.51732	0.981542	0.517135
H	8.35612	1.36141	1.56816
H	6.92675	1.97843	2.37956
H	7.55562	2.82239	0.946334
C	6.19766	-0.370211	0.982946
C	6.0157	1.38746	-0.676404
N	5.21669	0.570406	-1.46307
H	6.21231	2.37294	-1.08044
N	5.37996	-1.12204	0.114154
C	4.85522	-0.728174	-1.11103
H	5.14636	-2.05977	0.416656
H	4.85529	0.895238	-2.34751
O	4.138	-1.44989	-1.82561
O	6.5939	-0.864192	2.05791
