30
  This energy is 1.1889e-05 and Call times are: 10688
C	-0.533581	1.16945	0.516432
N	-0.0171085	1.98037	-0.444685
C	0.733354	1.43281	-1.43152
C	-0.264666	-0.213618	0.444584
C	0.527316	-0.649179	-0.630624
N	1.05314	0.131246	-1.59842
H	1.1199	2.123	-2.17062
N	-1.28304	1.72166	1.50067
H	-1.43661	2.71663	1.49299
H	-1.67919	1.14787	2.22643
N	-0.638628	-1.29038	1.25673
C	-0.08364	-2.34902	0.682136
N	0.634213	-2.01929	-0.464438
H	-0.162372	-3.36223	1.03984
H	1.14161	-2.64262	-1.07156
C	14.2665	-2.56831	-0.878116
C	14.7522	-1.18643	-0.546511
H	13.1881	-2.5668	-1.07408
H	14.4276	-3.25143	-0.0362194
H	14.7795	-2.97137	-1.75657
C	14.1575	-0.511373	0.609791
C	15.7063	-0.531498	-1.25484
N	16.133	0.746008	-0.922052
H	16.1872	-0.971211	-2.11998
N	14.657	0.782172	0.8665
C	15.6321	1.47225	0.156192
H	14.2598	1.26729	1.66165
H	16.8445	1.21259	-1.46462
O	16.0238	2.61678	0.443541
O	13.2744	-1.00109	1.34246
