30
  This energy is -3.611e-05 and Call times are: 9918
C	1.11359	-0.574688	0.59049
N	0.514465	-1.76462	0.861002
C	-0.78138	-1.94251	0.50606
C	0.356782	0.428288	-0.0511024
C	-0.975695	0.112674	-0.364014
N	-1.5968	-1.05821	-0.108181
H	-1.20927	-2.90794	0.744612
N	2.40904	-0.401875	0.947294
H	2.89177	-1.15902	1.4026
H	2.88046	0.467518	0.760694
N	0.669943	1.72993	-0.459176
C	-0.449456	2.1859	-1.00499
N	-1.47868	1.24865	-0.974593
H	-0.577338	3.16685	-1.43179
H	-2.4172	1.35587	-1.32428
C	12.02	-2.35927	-0.809549
C	11.3736	-1.14681	-0.203256
H	12.8422	-2.07203	-1.47503
H	11.3043	-2.91727	-1.4242
H	12.4135	-3.02899	-0.0389344
C	10.7967	-0.15269	-1.1117
C	11.2948	-0.921874	1.13245
N	10.6906	0.209705	1.66093
H	11.7001	-1.61462	1.85971
N	10.2058	0.960571	-0.479131
C	10.1133	1.21215	0.884583
H	9.80048	1.66047	-1.08847
H	10.6443	0.354596	2.65854
O	9.57458	2.2215	1.37136
O	10.8022	-0.238873	-2.35633
