30
  This energy is -1.9397e-05 and Call times are: 7321
C	0.203837	0.370364	-1.31921
N	-0.451354	-0.69442	-1.85309
C	-0.996637	-1.61421	-1.02032
C	0.288161	0.472238	0.0853813
C	-0.320824	-0.550161	0.831612
N	-0.977231	-1.6178	0.330162
H	-1.50663	-2.4414	-1.49751
N	0.747125	1.28697	-2.15589
H	0.650619	1.15421	-3.14919
H	1.23832	2.08617	-1.79131
N	0.877954	1.42121	0.928274
C	0.628764	0.978639	2.1534
N	-0.0939739	-0.211452	2.15451
H	0.9383	1.46435	3.06391
H	-0.402994	-0.741317	2.95347
C	6.97017	-1.42487	1.37274
C	7.96196	-0.50978	0.713656
H	7.47978	-2.17399	1.9896
H	6.39354	-1.98017	0.624065
H	6.27318	-0.867949	2.00622
C	8.96471	-1.1101	-0.169801
C	7.98102	0.835365	0.890135
N	8.91174	1.65345	0.266155
H	7.26958	1.34421	1.52888
N	9.86513	-0.196972	-0.756423
C	9.90402	1.18239	-0.590806
H	10.567	-0.590535	-1.37115
H	8.9055	2.65178	0.413277
O	10.7321	1.92693	-1.14387
O	9.05622	-2.32967	-0.416468
