30
  This energy is -0.000947433 and Call times are: 12512
C	0.875187	-0.368707	1.00853
N	0.943873	-1.67698	0.645536
C	0.230161	-2.09882	-0.426619
C	0.0599879	0.497355	0.249749
C	-0.626142	-0.0697617	-0.836816
N	-0.577505	-1.36301	-1.22064
H	0.32082	-3.14934	-0.672013
N	1.59049	0.047948	2.08096
H	2.15271	-0.622455	2.57901
H	1.56052	1.01012	2.3746
N	-0.220532	1.86426	0.358055
C	-1.05648	2.11257	-0.641154
N	-1.33687	0.977574	-1.39735
H	-1.48628	3.07445	-0.866589
H	-1.93874	0.909309	-2.20214
C	5.12144	2.77711	0.270269
C	4.87821	1.32095	-0.00517964
H	6.17416	3.03502	0.107046
H	4.90179	3.01872	1.31658
H	4.50369	3.41305	-0.370986
C	5.63471	0.340837	0.778077
C	4.00129	0.864805	-0.934622
N	3.79986	-0.488403	-1.16505
H	3.41012	1.53351	-1.54816
N	5.35979	-1.00772	0.47067
C	4.46756	-1.49808	-0.475393
H	5.87176	-1.70241	1.00049
H	3.14164	-0.803121	-1.86223
O	4.27729	-2.70757	-0.69181
O	6.46902	0.627007	1.66046
