30
  This energy is -0.000509283 and Call times are: 12445
C	-0.233649	-1.15181	-0.733331
N	0.412007	-0.724499	-1.85074
C	0.977539	0.507174	-1.85127
C	-0.287265	-0.290438	0.382701
C	0.340277	0.959024	0.248327
N	0.987869	1.41006	-0.846831
H	1.47875	0.797517	-2.76589
N	-0.797266	-2.38375	-0.737868
H	-0.72235	-2.94824	-1.56813
H	-1.2821	-2.72857	0.073887
N	-0.86048	-0.426573	1.65225
C	-0.583398	0.715626	2.26665
N	0.141844	1.59173	1.46346
H	-0.873902	0.965308	3.27364
H	0.469556	2.51407	1.70116
C	5.46259	2.72693	-0.629953
C	5.64064	1.256	-0.384815
H	5.40719	3.27681	0.316603
H	4.52266	2.92391	-1.15827
H	6.28705	3.13537	-1.22215
C	4.61305	0.56335	0.396653
C	6.69512	0.536438	-0.844396
N	6.83025	-0.822559	-0.600029
H	7.48993	0.984767	-1.4278
N	4.8399	-0.81494	0.590409
C	5.91058	-1.57217	0.130173
H	4.14162	-1.31372	1.12803
H	7.62403	-1.33621	-0.952762
O	6.04381	-2.79013	0.341655
O	3.59702	1.10662	0.875299
