30
  This energy is -0.000945832 and Call times are: 16831
C	-0.429678	-0.51168	-1.2135
N	0.800938	-0.919385	-1.62269
C	1.86538	-0.709685	-0.810383
C	-0.54595	0.115076	0.0450746
C	0.637045	0.270249	0.786335
N	1.871	-0.123844	0.406563
H	2.82133	-1.05353	-1.18451
N	-1.49044	-0.723604	-2.02912
H	-1.33801	-1.17687	-2.91507
H	-2.41415	-0.433285	-1.75455
N	-1.64231	0.637836	0.740469
C	-1.12925	1.09673	1.87408
N	0.246836	0.900648	1.95534
H	-1.68989	1.57234	2.66163
H	0.860377	1.16007	2.71089
C	5.57302	-0.307379	-0.168195
C	7.06591	-0.310628	-0.00480698
H	5.29541	-0.169205	-1.2195
H	5.12151	0.525142	0.383564
H	5.13058	-1.2423	0.188764
C	7.80425	0.877946	-0.439024
C	7.76551	-1.34805	0.519824
N	9.14581	-1.31956	0.657002
H	7.28352	-2.25622	0.860394
N	9.20121	0.810639	-0.258345
C	9.93868	-0.239322	0.275782
H	9.73153	1.62188	-0.551724
H	9.64388	-2.10408	1.05045
O	11.1753	-0.226813	0.404546
O	7.28301	1.89665	-0.936146
