30
  This energy is 0.000519551 and Call times are: 13865
C	1.19587	-0.0943208	-0.692833
N	1.16789	-1.44829	-0.811403
C	0.123854	-2.13185	-0.282655
C	0.13174	0.543625	-0.0212639
C	-0.887339	-0.283595	0.478942
N	-0.942089	-1.62847	0.376573
H	0.151324	-3.20715	-0.405222
N	2.24166	0.584322	-1.22307
H	2.96861	0.0674054	-1.6899
H	2.29114	1.587	-1.1517
N	-0.132647	1.8882	0.263467
C	-1.2848	1.86897	0.920024
N	-1.78726	0.580216	1.07911
H	-1.79773	2.73713	1.29945
H	-2.64032	0.306345	1.53943
C	8.78048	0.883164	2.59181
C	8.63404	0.329277	1.20357
H	7.98103	0.515582	3.24539
H	8.69879	1.97618	2.58688
H	9.74388	0.608003	3.03157
C	7.39199	0.614311	0.480751
C	9.58328	-0.416909	0.584646
N	9.41675	-0.914374	-0.699739
H	10.524	-0.665165	1.06058
N	7.31811	0.0658189	-0.816315
C	8.27585	-0.700286	-1.47006
H	6.46782	0.250676	-1.33424
H	10.1377	-1.46715	-1.13901
O	8.13961	-1.15194	-2.62043
O	6.44331	1.28574	0.934355
