30
  This energy is -0.00172831 and Call times are: 13975
C	0.700533	-0.58019	-1.04483
N	-0.359558	-1.27227	-1.54011
C	-1.56058	-1.16427	-0.921458
C	0.503537	0.224355	0.0972157
C	-0.791908	0.246523	0.639758
N	-1.86231	-0.428941	0.170538
H	-2.37036	-1.73598	-1.35672
N	1.8989	-0.691526	-1.66683
H	1.97105	-1.28335	-2.47809
H	2.70254	-0.191782	-1.32431
N	1.36739	1.0414	0.835502
C	0.607733	1.54308	1.79993
N	-0.70892	1.09566	1.72985
H	0.944254	2.22261	2.56528
H	-1.47118	1.33202	2.34442
C	5.11376	0.918583	2.64257
C	5.15648	0.256463	1.29527
H	4.23651	1.56985	2.73012
H	5.99102	1.55867	2.79121
H	5.08097	0.180005	3.44921
C	5.20367	1.11761	0.110961
C	5.15364	-1.08827	1.11472
N	5.1936	-1.6689	-0.144695
H	5.11983	-1.78247	1.94539
N	5.24222	0.433861	-1.12179
C	5.24016	-0.940094	-1.33111
H	5.2753	1.00993	-1.95394
H	5.19062	-2.67217	-0.253244
O	5.27588	-1.47336	-2.45372
O	5.21127	2.36491	0.138532
