30
  This energy is 0.00092277 and Call times are: 3921
C	1.19206	-0.390985	0.587506
N	1.93843	0.601045	0.0335438
C	1.33499	1.49747	-0.784456
C	-0.184978	-0.444592	0.285406
C	-0.68264	0.546367	-0.576774
N	0.0330676	1.54209	-1.14111
H	1.97505	2.26624	-1.19843
N	1.79996	-1.28452	1.40446
H	2.78697	-1.18911	1.57852
H	1.27461	-2.03021	1.82973
N	-1.20426	-1.31752	0.682807
C	-2.28987	-0.861029	0.0729247
N	-2.03233	0.265991	-0.703071
H	-3.27371	-1.2932	0.150638
H	-2.68789	0.792142	-1.25805
C	12.4311	-0.049054	0.610775
C	10.9558	0.125326	0.390857
H	12.9759	-0.00246821	-0.339212
H	12.6479	-1.03207	1.04445
H	12.8288	0.72134	1.27831
C	10.2763	-0.83399	-0.483459
C	10.2207	1.11711	0.953927
N	8.85807	1.25072	0.730094
H	10.6588	1.85957	1.60964
N	8.89303	-0.614352	-0.647929
C	8.12008	0.392804	-0.0824607
H	8.40317	-1.26611	-1.24848
H	8.33283	1.99716	1.16057
O	6.89866	0.523893	-0.274398
O	10.8342	-1.78884	-1.06096
