30
  This energy is -7.1446e-05 and Call times are: 10600
C	0.442679	0.909251	-0.946747
N	-0.0945701	0.256393	-2.01127
C	-0.778607	-0.894102	-1.79843
C	0.264009	0.358175	0.339626
C	-0.465839	-0.83933	0.419169
N	-1.01029	-1.50929	-0.618573
H	-1.18536	-1.37298	-2.68006
N	1.1255	2.05884	-1.16479
H	1.21605	2.39753	-2.10855
H	1.53489	2.56524	-0.397416
N	0.680424	0.773625	1.60961
C	0.211154	-0.153656	2.43352
N	-0.49094	-1.15433	1.7669
H	0.342854	-0.158181	3.50281
H	-0.939259	-1.96181	2.16888
C	11.4855	-1.58882	2.04376
C	12.0462	-0.88557	0.841061
H	10.5705	-1.0966	2.39275
H	12.1931	-1.55659	2.88023
H	11.2553	-2.6354	1.82263
C	12.4055	0.527882	0.980727
C	12.2375	-1.48342	-0.361814
N	12.7579	-0.804879	-1.45436
H	11.9938	-2.52449	-0.534605
N	12.9257	1.12841	-0.18435
C	13.1303	0.537265	-1.42542
H	13.1809	2.10554	-0.110241
H	12.891	-1.27167	-2.33908
O	13.5958	1.13339	-2.41226
O	12.2799	1.19331	2.02859
