30
  This energy is -0.00941497 and Call times are: 5974
C	0.58659	-0.871831	0.902692
N	-0.555979	-1.12771	1.59344
C	-1.70561	-0.522597	1.20739
C	0.525768	0.0168195	-0.191366
C	-0.729561	0.574868	-0.484199
N	-1.87945	0.339928	0.182682
H	-2.58538	-0.761239	1.79142
N	1.7331	-1.47919	1.29256
H	1.70713	-2.10278	2.08253
H	2.59522	-1.3102	0.801554
N	1.49792	0.479232	-1.08577
C	0.841127	1.29676	-1.89766
N	-0.511052	1.39246	-1.57966
H	1.27848	1.83931	-2.71931
H	-1.21345	1.94486	-2.04451
C	6.55407	-2.44795	1.35718
C	6.73394	-1.15348	0.617284
H	5.89342	-3.12548	0.804112
H	6.07973	-2.27874	2.33071
H	7.51203	-2.95119	1.51941
C	5.53711	-0.360932	0.324281
C	7.93725	-0.679572	0.206932
N	8.06939	0.521169	-0.475422
H	8.86137	-1.21394	0.390012
N	5.77484	0.842115	-0.372028
C	6.99614	1.34725	-0.801938
H	4.96114	1.40599	-0.584987
H	8.97573	0.852718	-0.77034
O	7.12871	2.42143	-1.41388
O	4.37513	-0.682511	0.645149
