30
  This energy is -0.00241512 and Call times are: 11907
C	-0.149671	-1.37714	-0.0105717
N	-0.835337	-1.43971	1.16161
C	-1.09388	-0.290948	1.8327
C	0.265046	-0.112986	-0.479917
C	-0.0686237	0.997126	0.313391
N	-0.747394	0.965873	1.47978
H	-1.64265	-0.397588	2.7598
N	0.106225	-2.52824	-0.677543
H	-0.218302	-3.3975	-0.286822
H	0.611546	-2.51487	-1.54782
N	0.970814	0.283997	-1.62148
C	1.05906	1.60309	-1.51614
N	0.446901	2.08887	-0.363779
H	1.54387	2.25162	-2.22687
H	0.380302	3.04739	-0.0614307
C	5.34591	1.0249	2.58774
C	5.03817	0.388736	1.26259
H	5.35505	2.11771	2.50371
H	6.34213	0.732761	2.9393
H	4.61139	0.740218	3.34714
C	5.93616	0.675428	0.14107
C	3.97985	-0.432564	1.04727
N	3.72306	-1.00459	-0.190351
H	3.27691	-0.686427	1.83117
N	5.59147	0.0476962	-1.07377
C	4.51436	-0.795998	-1.31784
H	6.19901	0.232044	-1.86264
H	2.92908	-1.61257	-0.325647
O	4.27285	-1.31527	-2.42145
O	6.94153	1.41141	0.205274
