30
  This energy is -0.00239154 and Call times are: 9713
C	-0.326055	-1.30848	0.317175
N	-0.776658	-1.63186	-0.923975
C	-0.750789	-0.689431	-1.89763
C	0.151275	0.000466649	0.538935
C	0.122463	0.878599	-0.557001
N	-0.318485	0.58633	-1.7989
H	-1.12088	-0.999602	-2.86659
N	-0.354013	-2.25406	1.28695
H	-0.707501	-3.16942	1.06166
H	-0.0273955	-2.04546	2.21577
N	0.670628	0.635274	1.67302
C	0.947558	1.86717	1.26728
N	0.635714	2.07021	-0.074433
H	1.36708	2.64445	1.88421
H	0.753028	2.91454	-0.611035
C	6.65264	0.92638	-2.09947
C	5.93986	0.335068	-0.917213
H	6.64935	2.02134	-2.05001
H	6.14826	0.656865	-3.03453
H	7.69032	0.583344	-2.15221
C	4.53634	0.701251	-0.711183
C	6.52059	-0.515095	-0.0335293
N	5.83376	-1.04414	1.04962
H	7.55361	-0.827218	-0.125905
N	3.92611	0.11239	0.41556
C	4.49976	-0.759629	1.33321
H	2.95553	0.351787	0.577008
H	6.28776	-1.67488	1.69335
O	3.89593	-1.24102	2.30766
O	3.88664	1.47057	-1.4478
