30
  This energy is 2.2033e-05 and Call times are: 10226
C	-1.33806	-0.258224	-0.248878
N	-1.12562	-1.45455	-0.858577
C	0.144856	-1.90816	-0.988918
C	-0.221401	0.462738	0.224033
C	1.04007	-0.121879	0.0241885
N	1.28153	-1.30624	-0.576774
H	0.257453	-2.86552	-1.48169
N	-2.60985	0.190769	-0.121069
H	-3.36184	-0.37366	-0.480945
H	-2.79966	1.07251	0.325486
N	-0.102382	1.69343	0.879851
C	1.20146	1.84459	1.06966
N	1.9411	0.775357	0.571316
H	1.66483	2.68918	1.55207
H	2.94115	0.657093	0.594009
C	14.0051	-0.128186	2.76657
C	13.9008	0.0850108	1.28363
H	14.389	-1.12996	2.99115
H	13.0194	-0.0604662	3.24118
H	14.6662	0.610123	3.23025
C	13.0474	-0.828379	0.519471
C	14.5498	1.07151	0.615443
N	14.4323	1.24144	-0.756477
H	15.1961	1.78089	1.1177
N	12.9932	-0.573886	-0.86652
C	13.648	0.428648	-1.572
H	12.4088	-1.19347	-1.41428
H	14.9253	1.98314	-1.231
O	13.5514	0.592235	-2.80075
O	12.3983	-1.77366	1.01096
