30
  This energy is 0.000577633 and Call times are: 11761
C	0.749033	-1.07936	-0.43928
N	0.540318	-0.849012	-1.7627
C	-0.221587	0.209129	-2.13241
C	0.160618	-0.202686	0.496443
C	-0.605629	0.854354	-0.0217759
N	-0.830127	1.1078	-1.32851
H	-0.355667	0.346621	-3.19785
N	1.51136	-2.13835	-0.0749133
H	1.90189	-2.72497	-0.793909
H	1.68426	-2.33523	0.89681
N	0.181634	-0.164241	1.89535
C	-0.555534	0.892301	2.21029
N	-1.05752	1.5467	1.08849
H	-0.76012	1.23008	3.21269
H	-1.63993	2.36823	1.06634
C	9.45374	0.743753	1.96084
C	8.46765	0.518481	0.850739
H	10.3221	0.083895	1.85183
H	9.00675	0.509563	2.93384
H	9.80409	1.78017	1.97903
C	7.9057	-0.825771	0.697158
C	8.07034	1.48583	-0.0137299
N	7.15684	1.24477	-1.02974
H	8.44553	2.50029	0.042538
N	6.987	-0.97001	-0.36297
C	6.56547	0.00450213	-1.25975
H	6.58593	-1.89147	-0.487338
H	6.8768	1.98108	-1.66043
O	5.74772	-0.197839	-2.17422
O	8.1863	-1.80101	1.42293
