30
  This energy is -0.000186158 and Call times are: 7095
C	-0.320208	0.602703	-1.20551
N	-0.053691	1.86917	-0.789444
C	0.372146	2.06619	0.482047
C	-0.14109	-0.456733	-0.291246
C	0.305127	-0.113337	0.995608
N	0.577478	1.13305	1.43666
H	0.569754	3.09334	0.761262
N	-0.745598	0.411068	-2.47739
H	-0.852468	1.2114	-3.07876
H	-0.951102	-0.514454	-2.81515
N	-0.323124	-1.83991	-0.403303
C	0.00640554	-2.31661	0.789614
N	0.394663	-1.31552	1.67604
H	-0.0143398	-3.35667	1.06996
H	0.688236	-1.42331	2.63353
C	4.7624	-2.62909	0.739772
C	4.50385	-1.16848	0.504832
H	5.41523	-3.0404	-0.0387104
H	3.82942	-3.20276	0.696837
H	5.23149	-2.79964	1.71348
C	3.87651	-0.779653	-0.760738
C	4.81754	-0.193713	1.39498
N	4.56545	1.14788	1.14715
H	5.28265	-0.410484	2.34879
N	3.66156	0.605114	-0.918534
C	3.97395	1.62041	-0.0223481
H	3.22871	0.896299	-1.78644
H	4.80801	1.85474	1.82529
O	3.7534	2.82601	-0.231632
O	3.53959	-1.57477	-1.66121
