30
  This energy is 4.4724e-05 and Call times are: 9536
C	0.919354	-0.941172	-0.433606
N	0.638203	-0.794212	-1.75551
C	-0.311055	0.0980227	-2.12924
C	0.207344	-0.154721	0.496393
C	-0.749853	0.730924	-0.0255549
N	-1.05025	0.898308	-1.3309
H	-0.495387	0.175266	-3.19324
N	1.86904	-1.83434	-0.0652056
H	2.33991	-2.36412	-0.780192
H	2.09979	-1.96601	0.905525
N	0.257516	-0.0685922	1.89243
C	-0.649301	0.84831	2.20204
N	-1.2899	1.36614	1.07947
H	-0.885164	1.17574	3.201
H	-2.01102	2.06894	1.05369
C	14.8224	-1.00018	1.87427
C	13.8705	-0.299962	0.947459
H	15.6352	-1.47559	1.31326
H	14.3147	-1.80157	2.42324
H	15.2589	-0.304943	2.59773
C	13.2031	-1.10161	-0.081284
C	13.5957	1.02728	1.00943
N	12.7105	1.64426	0.137245
H	14.0533	1.67814	1.7443
N	12.323	-0.384395	-0.917761
C	12.0261	0.972612	-0.873355
H	11.8505	-0.919199	-1.63622
H	12.5224	2.63349	0.203419
O	11.2351	1.53796	-1.64834
O	13.3671	-2.32749	-0.245163
