30
  This energy is 6.307e-06 and Call times are: 10446
C	0.473717	-0.03953	-1.30118
N	-0.376064	-1.016	-1.71645
C	-1.26329	-1.53347	-0.832206
C	0.394804	0.394923	0.0387433
C	-0.570162	-0.225494	0.849265
N	-1.42623	-1.19605	0.465405
H	-1.91606	-2.30778	-1.21479
N	1.35868	0.474443	-2.18889
H	1.36242	0.119194	-3.1309
H	2.00078	1.19825	-1.91191
N	1.1087	1.35767	0.76147
C	0.584215	1.3164	1.97888
N	-0.436336	0.375646	2.08901
H	0.892903	1.92988	2.80901
H	-0.985231	0.157976	2.90505
C	19.1039	0.461293	-1.9071
C	20.136	0.380962	-0.819171
H	18.3722	-0.349309	-1.81206
H	19.5668	0.346778	-2.89399
H	18.5706	1.4164	-1.8814
C	20.9359	-0.842761	-0.724027
C	20.3677	1.37369	0.076229
N	21.3295	1.2679	1.07048
H	19.8133	2.30403	0.0633828
N	21.8861	-0.854012	0.317924
C	22.141	0.149043	1.24557
H	22.4504	-1.69063	0.402016
H	21.4833	2.02041	1.72503
O	22.9996	0.0673843	2.14107
O	20.8232	-1.82681	-1.48264
