30
  This energy is 0.000683882 and Call times are: 4972
C	-0.803623	1.12258	0.114181
N	0.18865	1.94631	0.54422
C	1.44001	1.4463	0.688911
C	-0.486204	-0.22357	-0.16419
C	0.85009	-0.611343	0.0280939
N	1.85534	0.182888	0.453351
H	2.19185	2.14468	1.03393
N	-2.05272	1.62722	-0.0288194
H	-2.21134	2.59766	0.187226
H	-2.8085	1.04279	-0.345261
N	-1.25871	-1.30141	-0.61179
C	-0.40544	-2.31394	-0.686666
N	0.885736	-1.95303	-0.310797
H	-0.654881	-3.3142	-0.999732
H	1.70387	-2.53998	-0.283394
C	8.5714	2.47878	-1.18769
C	9.01874	1.21801	-0.505217
H	7.6601	2.87235	-0.722905
H	8.32571	2.28796	-2.2387
H	9.34519	3.25127	-1.14574
C	8.08771	0.087144	-0.478588
C	10.2311	1.0688	0.0853374
N	10.6141	-0.110249	0.708283
H	10.9669	1.86344	0.102584
N	8.56851	-1.06522	0.176838
C	9.80428	-1.24109	0.787981
H	7.94099	-1.85939	0.206972
H	11.5217	-0.196916	1.14068
O	10.1601	-2.2919	1.34932
O	6.94655	0.0935291	-0.982849
