30
  This energy is 0.000192028 and Call times are: 3899
C	0.659917	-0.219609	-1.19805
N	-0.348773	0.23988	-1.98512
C	-1.48584	0.688201	-1.39952
C	0.478453	-0.2098	0.201003
C	-0.748617	0.281407	0.676435
N	-1.76697	0.743474	-0.0796303
H	-2.25663	1.04268	-2.07203
N	1.79445	-0.666648	-1.78826
H	1.85901	-0.646174	-2.79275
H	2.55896	-1.01296	-1.23285
N	1.30204	-0.604727	1.26148
C	0.585612	-0.356261	2.34954
N	-0.664558	0.181051	2.05451
H	0.908762	-0.539366	3.36088
H	-1.38515	0.451999	2.70407
C	9.21397	2.59842	-0.579805
C	8.89542	1.19301	-0.156965
H	8.38591	3.27552	-0.340546
H	9.35833	2.65666	-1.66477
H	10.1189	2.96764	-0.0878481
C	7.70752	0.55787	-0.733058
C	9.64277	0.482341	0.724703
N	9.32076	-0.81537	1.09498
H	10.5326	0.890357	1.18809
N	7.46505	-0.760455	-0.294979
C	8.21507	-1.50739	0.605647
H	6.6487	-1.21884	-0.680802
H	9.89265	-1.32367	1.75296
O	7.93805	-2.67075	0.945866
O	6.93803	1.09969	-1.55213
