30
  This energy is -0.00415068 and Call times are: 2744
C	1.08844	-0.833827	0.197631
N	1.48704	-0.833108	-1.10206
C	0.776287	-0.115762	-2.00599
C	-0.0533316	-0.0841794	0.550822
C	-0.697062	0.6138	-0.48429
N	-0.325008	0.633279	-1.78174
H	1.13685	-0.149786	-3.02622
N	1.80228	-1.55245	1.09729
H	2.60763	-2.06569	0.77855
H	1.53256	-1.57301	2.06669
N	-0.707888	0.118508	1.77121
C	-1.7221	0.920321	1.47566
N	-1.76405	1.25226	0.124094
H	-2.44777	1.28943	2.18129
H	-2.4338	1.84233	-0.342663
C	9.66364	1.44628	-0.394841
C	8.37065	0.773302	-0.0332806
H	9.60292	1.89947	-1.391
H	10.4841	0.720539	-0.434015
H	9.92297	2.22631	0.327328
C	7.88887	-0.298103	-0.908706
C	7.62742	1.10085	1.05357
N	6.43604	0.459199	1.35975
H	7.92437	1.88239	1.74211
N	6.67044	-0.887945	-0.513469
C	5.89275	-0.569722	0.593555
H	6.31882	-1.63119	-1.10453
H	5.90084	0.720871	2.17426
O	4.82376	-1.1366	0.879582
O	8.47521	-0.6947	-1.93607
