30
  This energy is -0.000816885 and Call times are: 15373
C	0.318758	-0.8706	-1.02931
N	0.800734	-1.85194	-0.221392
C	0.798858	-1.6576	1.1199
C	-0.164826	0.313307	-0.433598
C	-0.108913	0.384819	0.968109
N	0.363411	-0.571886	1.79503
H	1.19347	-2.47025	1.7165
N	0.322822	-1.06974	-2.36934
H	0.682449	-1.93842	-2.72942
H	-0.0272559	-0.36227	-2.99371
N	-0.713022	1.48353	-0.971113
C	-0.980388	2.24097	0.0841994
N	-0.634914	1.62558	1.28445
H	-1.41582	3.22575	0.0472982
H	-0.739174	1.99462	2.21587
C	4.02131	1.20946	1.79104
C	5.00829	0.438064	0.962647
H	3.04135	1.24225	1.30114
H	4.34224	2.25049	1.91214
H	3.89975	0.764923	2.78344
C	5.27943	0.912736	-0.396604
C	5.65951	-0.668671	1.4008
N	6.5661	-1.35929	0.609606
H	5.50652	-1.07371	2.39357
N	6.21469	0.144666	-1.12051
C	6.89319	-0.990603	-0.693458
H	6.41728	0.455086	-2.06285
H	7.03815	-2.18025	0.958222
O	7.70796	-1.61864	-1.39176
O	4.74951	1.91413	-0.919068
