30
  This energy is -0.000655566 and Call times are: 9940
C	0.253243	0.450722	1.2852
N	-0.962355	0.102278	1.78418
C	-1.86661	-0.482046	0.960936
C	0.522065	0.187688	-0.0745426
C	-0.503291	-0.422532	-0.815688
N	-1.71834	-0.779326	-0.3482
H	-2.818	-0.739069	1.40909
N	1.15361	1.03451	2.11218
H	0.897613	1.19399	3.07272
H	2.06193	1.30396	1.7727
N	1.64681	0.417854	-0.87507
C	1.30461	-0.0438207	-2.07033
N	0.0133232	-0.564173	-2.09212
H	1.93428	-0.0309169	-2.94446
H	-0.471623	-0.970687	-2.87581
C	9.75388	1.11522	2.48256
C	9.2289	0.518946	1.20809
H	10.2799	2.05651	2.28582
H	10.482	0.446414	2.95582
H	8.946	1.30998	3.19435
C	10.1944	0.200649	0.153132
C	7.91664	0.260062	0.98036
N	7.46375	-0.291632	-0.209334
H	7.15026	0.470552	1.71618
N	9.63698	-0.356024	-1.01653
C	8.29859	-0.629757	-1.27216
H	10.2867	-0.583917	-1.75906
H	6.48219	-0.475093	-0.355053
O	7.87938	-1.12396	-2.33326
O	11.425	0.388609	0.235155
