30
  This energy is -0.00574187 and Call times are: 9646
C	-0.94996	-0.601291	0.809356
N	-0.463938	-1.86218	0.661006
C	0.627338	-2.05727	-0.118674
C	-0.294116	0.454599	0.142027
C	0.82579	0.113751	-0.634282
N	1.33069	-1.12712	-0.800081
H	0.972514	-3.07995	-0.202485
N	-2.04099	-0.411569	1.58976
H	-2.46128	-1.20914	2.0379
H	-2.42453	0.509851	1.7193
N	-0.536792	1.83199	0.0894068
C	0.416087	2.30778	-0.700862
N	1.26952	1.31159	-1.16769
H	0.540477	3.34382	-0.969025
H	2.06383	1.41979	-1.77758
C	6.20128	-1.78462	-1.90971
C	5.79109	-0.894904	-0.77147
H	6.50228	-1.19105	-2.78061
H	5.36394	-2.41185	-2.23655
H	7.03426	-2.43544	-1.62719
C	4.68332	0.0370842	-0.996514
C	6.38653	-0.906012	0.44765
N	5.98341	-0.0701938	1.47903
H	7.21028	-1.569	0.682055
N	4.34835	0.843079	0.111119
C	4.94287	0.849418	1.36733
H	3.58493	1.49484	-0.0223355
H	6.44223	-0.0971317	2.37743
O	4.59153	1.59267	2.3001
O	4.05279	0.146873	-2.06747
