30
  This energy is -0.00233945 and Call times are: 4802
C	0.019347	-0.349481	1.34034
N	0.281829	-1.66583	1.12493
C	0.413431	-2.10875	-0.149173
C	-0.105281	0.502587	0.222841
C	0.0541966	-0.0860146	-1.04252
N	0.314893	-1.38773	-1.28698
H	0.621934	-3.16487	-0.264019
N	-0.111301	0.0882646	2.61575
H	-0.010437	-0.573034	3.36815
H	-0.305656	1.05689	2.80782
N	-0.366201	1.87268	0.106157
C	-0.363494	2.10185	-1.20012
N	-0.114076	0.951308	-1.94356
H	-0.532267	3.06013	-1.66269
H	-0.0617345	0.867412	-2.94597
C	4.11046	1.02573	2.58205
C	4.21701	0.320847	1.26023
H	3.50767	1.93669	2.4915
H	5.09818	1.3417	2.93696
H	3.65691	0.382217	3.34194
C	4.80668	1.05593	0.138469
C	3.79945	-0.952559	1.04809
N	3.912	-1.57543	-0.186497
H	3.35475	-1.55277	1.83236
N	4.87738	0.337832	-1.07315
C	4.45687	-0.964769	-1.31393
H	5.28184	0.827061	-1.86213
H	3.59403	-2.52389	-0.319445
O	4.55199	-1.5348	-2.4148
O	5.22874	2.22839	0.199904
