30
  This energy is 0.000302972 and Call times are: 16293
C	0.0832983	-1.10321	0.833679
N	1.21125	-1.60684	0.266104
C	1.77665	-0.942709	-0.771249
C	-0.452405	0.0947537	0.315733
C	0.23278	0.680545	-0.761482
N	1.35306	0.20433	-1.3449
H	2.67265	-1.387	-1.18578
N	-0.477994	-1.77081	1.87031
H	-0.0444561	-2.62085	2.19136
H	-1.31318	-1.4235	2.3116
N	-1.57369	0.855433	0.666375
C	-1.56221	1.87532	-0.181318
N	-0.490456	1.82026	-1.06844
H	-2.28754	2.67164	-0.204399
H	-0.265642	2.47402	-1.801
C	8.04969	-1.27343	-1.86795
C	9.05474	-0.568287	-1.00304
H	7.0957	-0.733793	-1.87763
H	7.83492	-2.27563	-1.47954
H	8.40651	-1.36831	-2.89797
C	8.7196	-0.365012	0.408606
C	10.2499	-0.111088	-1.45407
N	11.157	0.537211	-0.628349
H	10.5611	-0.227534	-2.48494
N	9.70499	0.302694	1.16481
C	10.9344	0.779329	0.725429
H	9.49405	0.453795	2.14363
H	12.04	0.868282	-0.987428
O	11.7562	1.36156	1.45442
O	7.65735	-0.735762	0.947811
