30
  This energy is -0.00217374 and Call times are: 11974
C	-1.33768	0.352467	-0.073628
N	-1.75997	-0.849076	-0.549059
C	-0.848302	-1.83071	-0.754253
C	0.0379377	0.526305	0.186813
C	0.874295	-0.572645	-0.0697712
N	0.484276	-1.77594	-0.541099
H	-1.23796	-2.76686	-1.13351
N	-2.25289	1.33041	0.129778
H	-3.21975	1.14028	-0.0766772
H	-1.97158	2.23068	0.480884
N	0.776416	1.61312	0.668827
C	2.02835	1.17666	0.701024
N	2.1461	-0.140274	0.264584
H	2.87894	1.75378	1.02382
H	2.98621	-0.691879	0.197075
C	8.16045	-2.24814	-1.03101
C	7.61815	-0.955065	-0.493146
H	7.61408	-2.55722	-1.92954
H	8.03875	-3.05653	-0.300881
H	9.22211	-2.16209	-1.28144
C	6.20447	-0.912339	-0.110942
C	8.36091	0.170329	-0.342393
N	7.82906	1.35009	0.157758
H	9.41099	0.208758	-0.604912
N	5.75887	0.329877	0.386066
C	6.49983	1.49432	0.549215
H	4.78442	0.381854	0.656547
H	8.4021	2.17434	0.260653
O	6.03601	2.55778	0.996224
O	5.4146	-1.87405	-0.199178
