30
  This energy is 0.000501347 and Call times are: 6331
C	1.24322	-0.348921	-0.501684
N	0.849983	-1.5558	-0.988382
C	-0.441044	-1.93738	-0.83189
C	0.285715	0.457924	0.148352
C	-1.01741	-0.0578859	0.242297
N	-1.4366	-1.25071	-0.230608
H	-0.700634	-2.90685	-1.23782
N	2.53478	0.0278693	-0.660664
H	3.1671	-0.595988	-1.13454
H	2.8565	0.915261	-0.311473
N	0.366295	1.72104	0.745777
C	-0.861033	1.95855	1.18865
N	-1.74008	0.915012	0.911218
H	-1.17202	2.84978	1.70804
H	-2.71851	0.858257	1.1437
C	8.67626	-1.6804	-1.36547
C	9.48133	-0.716512	-0.541931
H	9.02264	-2.70901	-1.21253
H	8.79075	-1.47065	-2.43518
H	7.61289	-1.62987	-1.11263
C	10.9282	-0.666919	-0.766771
C	8.94593	0.106769	0.394272
N	9.71812	0.986441	1.13907
H	7.88492	0.121758	0.611344
N	11.6249	0.258079	0.0379955
C	11.099	1.11025	1.00172
H	12.6266	0.309041	-0.100996
H	9.29645	1.58911	1.82997
O	11.7792	1.90321	1.6758
O	11.5436	-1.36841	-1.59486
