30
  This energy is 6.4519e-05 and Call times are: 10314
C	-0.524647	-1.2635	-0.21758
N	0.674545	-1.86174	-0.445887
C	1.80289	-1.11321	-0.387745
C	-0.542667	0.117274	0.0713774
C	0.69874	0.773839	0.100593
N	1.90357	0.207115	-0.121644
H	2.73004	-1.63901	-0.57743
N	-1.64958	-2.01608	-0.276861
H	-1.56628	-2.99689	-0.488218
H	-2.55224	-1.6024	-0.112631
N	-1.58519	1.00939	0.347295
C	-0.983367	2.17572	0.53797
N	0.399667	2.09167	0.400774
H	-1.48274	3.10082	0.773741
H	1.07249	2.83504	0.497267
C	18.3944	-0.440862	1.38096
C	17.205	-0.0884783	0.534453
H	18.598	-1.51709	1.33992
H	18.2092	-0.200412	2.43419
H	19.29	0.0956481	1.0536
C	15.9259	-0.728819	0.851299
C	17.2489	0.785489	-0.502456
N	16.1309	1.08949	-1.26573
H	18.1606	1.29392	-0.791065
N	14.8502	-0.355111	0.0194652
C	14.8712	0.536284	-1.04662
H	13.9562	-0.785857	0.220841
H	16.1888	1.7432	-2.03232
O	13.8772	0.817771	-1.73841
O	15.7506	-1.54808	1.77576
