30
  This energy is -0.00531799 and Call times are: 14033
C	0.698098	-1.18279	0.180819
N	-0.126301	-1.67106	1.1452
C	-1.19212	-0.929833	1.53436
C	0.407009	0.0804733	-0.375771
C	-0.728666	0.743113	0.118368
N	-1.56453	0.283968	1.07372
H	-1.8155	-1.36527	2.30497
N	1.76209	-1.92756	-0.204669
H	1.91261	-2.82141	0.23349
H	2.39073	-1.59356	-0.916109
N	1.0414	0.845573	-1.36118
C	0.303223	1.94323	-1.45675
N	-0.7816	1.93482	-0.583962
H	0.496975	2.76544	-2.12547
H	-1.48285	2.64875	-0.469286
C	6.67494	2.70024	-0.132607
C	6.14384	1.3062	0.0407047
H	6.72615	2.96962	-1.19384
H	7.69625	2.78038	0.257117
H	6.04709	3.43332	0.382794
C	6.87988	0.209858	-0.593847
C	5.02566	1.0071	0.748626
N	4.561	-0.292544	0.889552
H	4.43416	1.76802	1.24279
N	6.32897	-1.07263	-0.3928
C	5.18687	-1.40283	0.327018
H	6.82204	-1.84557	-0.82275
H	3.72639	-0.48979	1.42141
O	4.75971	-2.56273	0.461381
O	7.91922	0.348675	-1.26991
