30
  This energy is 0.0003783 and Call times are: 14011
C	-0.564213	-0.47499	-1.17264
N	-1.00537	-1.64409	-0.637241
C	-0.769394	-1.89594	0.673381
C	0.123457	0.429809	-0.336688
C	0.300186	0.0447372	1.00253
N	-0.126005	-1.10766	1.56156
H	-1.14189	-2.84075	1.04839
N	-0.802612	-0.227991	-2.48318
H	-1.29956	-0.916681	-3.02387
H	-0.488725	0.628335	-2.90872
N	0.691682	1.6868	-0.573241
C	1.19838	2.0486	0.59776
N	0.990393	1.09214	1.58801
H	1.71768	2.97264	0.790706
H	1.27857	1.13408	2.55227
C	5.21594	1.67741	-0.172251
C	6.35186	0.729481	0.0857158
H	4.66416	1.38954	-1.0745
H	5.58735	2.69371	-0.347152
H	4.51775	1.70199	0.669868
C	7.37365	0.586938	-0.95449
C	6.48373	0.00117939	1.22287
N	7.54604	-0.866757	1.43028
H	5.76553	0.0579109	2.0316
N	8.41173	-0.317711	-0.650057
C	8.56758	-1.07349	0.50583
H	9.12927	-0.431666	-1.35543
H	7.6222	-1.39783	2.28498
O	9.51437	-1.85451	0.704598
O	7.37043	1.19699	-2.04279
