30
  This energy is 0.000965 and Call times are: 14101
C	-1.01268	-0.671186	0.66559
N	-1.31174	0.352829	1.50822
C	-0.609908	1.50824	1.41182
C	0.0202887	-0.485847	-0.277266
C	0.667265	0.760906	-0.270117
N	0.392536	1.79476	0.553204
H	-0.888561	2.29069	2.1062
N	-1.71713	-1.82402	0.76599
H	-2.4421	-1.89033	1.46142
H	-1.51948	-2.60019	0.156554
N	0.559205	-1.32164	-1.26209
C	1.50866	-0.593136	-1.83367
N	1.61802	0.676522	-1.2727
H	2.14	-0.920645	-2.64293
H	2.25921	1.40895	-1.5316
C	9.15945	2.76511	-0.189757
C	9.22131	1.26459	-0.195383
H	10.0846	3.19572	-0.589771
H	9.0559	3.14795	0.832057
H	8.31846	3.13198	-0.785903
C	10.2977	0.621397	0.562349
C	8.34027	0.475347	-0.860051
N	8.42536	-0.909351	-0.84526
H	7.52151	0.884251	-1.43928
N	10.2991	-0.788048	0.516008
C	9.40872	-1.61638	-0.156781
H	11.0348	-1.25357	1.03319
H	7.7577	-1.47508	-1.34779
O	9.47331	-2.85804	-0.151726
O	11.1699	1.22983	1.21466
