30
  This energy is 0.000694188 and Call times are: 5016
C	1.28808	-0.431239	-0.271883
N	1.53435	0.500064	-1.2311
C	0.565913	1.39681	-1.53905
C	0.0289813	-0.423834	0.364501
C	-0.883689	0.560157	-0.0500083
N	-0.667674	1.49637	-0.998173
H	0.814221	2.11585	-2.30935
N	2.25936	-1.32536	0.0322705
H	3.13603	-1.27532	-0.460217
H	2.10751	-2.02695	0.737693
N	-0.525585	-1.22766	1.36709
C	-1.74412	-0.737402	1.55063
N	-2.01459	0.346125	0.719077
H	-2.4653	-1.11467	2.25656
H	-2.86388	0.885477	0.670122
C	11.9516	-0.864993	0.758775
C	10.6676	-0.267195	0.259285
H	12.0497	-1.90714	0.433664
H	11.9758	-0.878575	1.8545
H	12.8194	-0.30456	0.398208
C	9.41288	-0.909131	0.659312
C	10.6052	0.828826	-0.53807
N	9.4017	1.35651	-0.982898
H	11.4932	1.35197	-0.871177
N	8.24487	-0.299135	0.156966
C	8.15644	0.821829	-0.659849
H	7.36579	-0.726653	0.421269
H	9.38123	2.17305	-1.57551
O	7.08499	1.30503	-1.06532
O	9.33137	-1.91924	1.38705
