30
  This energy is -8.392e-06 and Call times are: 8316
C	1.2343	0.0752499	-0.624391
N	1.95091	-0.316062	0.46254
C	1.29434	-0.601757	1.61325
C	-0.168568	0.167426	-0.506842
C	-0.72149	-0.157399	0.742873
N	-0.0363453	-0.548391	1.83826
H	1.91259	-0.908278	2.44743
N	1.8953	0.359683	-1.77223
H	2.89824	0.273414	-1.7884
H	1.39306	0.651929	-2.59397
N	-1.1691	0.53102	-1.41546
C	-2.29775	0.426895	-0.726843
N	-2.08615	0.0137089	0.585854
H	-3.28215	0.63237	-1.11349
H	-2.77909	-0.137963	1.301
C	6.19039	2.09238	-1.85817
C	6.25606	0.859166	-1.00359
H	6.94008	2.82693	-1.54226
H	5.21527	2.5834	-1.76108
H	6.35763	1.85594	-2.91333
C	6.05069	1.01451	0.438658
C	6.49403	-0.384714	-1.49048
N	6.54867	-1.50456	-0.673282
H	6.65463	-0.571113	-2.54525
N	6.12501	-0.180776	1.18327
C	6.36715	-1.46393	0.707405
H	5.98588	-0.0965525	2.18275
H	6.72721	-2.41969	-1.05929
O	6.41851	-2.47566	1.42829
O	5.82419	2.09924	1.01192
