30
  This energy is -0.00204275 and Call times are: 4840
C	-0.579768	0.614711	-1.09774
N	-1.35723	-0.446058	-1.44182
C	-1.29781	-1.57367	-0.692284
C	0.259278	0.49518	0.0301252
C	0.223951	-0.728928	0.718117
N	-0.536466	-1.79807	0.400509
H	-1.93706	-2.38755	-1.01009
N	-0.64282	1.73953	-1.85018
H	-1.26331	1.7586	-2.64278
H	-0.0796924	2.54162	-1.62115
N	1.15956	1.38063	0.633736
C	1.6539	0.703438	1.66132
N	1.12268	-0.579786	1.76036
H	2.38536	1.07841	2.35783
H	1.33726	-1.2815	2.4504
C	6.71811	0.279169	2.78192
C	6.97099	0.140464	1.30806
H	6.17692	-0.59182	3.16907
H	6.08913	1.15241	2.98983
H	7.65395	0.383545	3.33919
C	5.81079	-0.00812298	0.425867
C	8.20807	0.1449	0.75082
N	8.40778	0.0143006	-0.615895
H	9.10824	0.250676	1.34377
N	6.11682	-0.133616	-0.945003
C	7.37376	-0.131896	-1.53802
H	5.3294	-0.237369	-1.57319
H	9.33814	0.0206017	-1.00672
O	7.56681	-0.247807	-2.76081
O	4.62374	-0.027849	0.809376
