30
  This energy is 0.000895541 and Call times are: 5236
C	-0.773558	-0.878617	-0.740725
N	-1.23177	0.0587449	-1.6122
C	-0.825424	1.34357	-1.46748
C	0.109362	-0.471316	0.281489
C	0.449796	0.890962	0.317889
N	0.0113513	1.84327	-0.532434
H	-1.22009	2.04885	-2.1878
N	-1.18271	-2.16149	-0.889656
H	-1.81435	-2.3849	-1.64113
H	-0.861189	-2.87832	-0.260617
N	0.745297	-1.17194	1.31279
C	1.4519	-0.251012	1.95427
N	1.31037	1.01617	1.39491
H	2.07439	-0.433702	2.81444
H	1.74236	1.87354	1.6997
C	5.63478	1.62027	0.279091
C	6.89199	0.799086	0.30131
H	4.76004	0.99011	0.0813202
H	5.66861	2.36465	-0.524741
H	5.48133	2.14068	1.22929
C	7.23541	0.0410393	-0.904438
C	7.72331	0.720401	1.37073
N	8.87817	-0.0483641	1.35906
H	7.52999	1.25427	2.29305
N	8.42686	-0.708396	-0.817947
C	9.29295	-0.804257	0.264763
H	8.68352	-1.24021	-1.64057
H	9.4808	-0.0907555	2.16738
O	10.3308	-1.48896	0.267628
O	6.55862	0.0270748	-1.95245
