30
  This energy is 4.132e-05 and Call times are: 3228
C	0.802856	-0.571062	-0.973829
N	0.119068	-0.0475392	-2.0257
C	-0.957414	0.739131	-1.78243
C	0.360107	-0.271317	0.331732
C	-0.769098	0.556736	0.442397
N	-1.46744	1.09042	-0.582146
H	-1.46518	1.1297	-2.65516
N	1.87816	-1.35677	-1.2223
H	2.14085	-1.53102	-2.17846
H	2.40496	-1.75905	-0.46497
N	0.831699	-0.643018	1.59597
C	0.0042094	-0.0514182	2.44694
N	-0.9845	0.68823	1.80348
H	0.0657157	-0.117842	3.52052
H	-1.72449	1.22392	2.22781
C	16.4126	2.25299	-1.25536
C	16.8306	0.967433	-0.601093
H	17.0291	2.46084	-2.13747
H	16.5503	3.10068	-0.574294
H	15.3632	2.22097	-1.56366
C	18.2139	0.856934	-0.131617
C	16.0024	-0.0922303	-0.421638
N	16.4201	-1.26695	0.186931
H	14.9686	-0.0784833	-0.744426
N	18.5415	-0.374387	0.472711
C	17.7117	-1.47216	0.667205
H	19.4931	-0.472479	0.804811
H	15.7851	-2.04164	0.309112
O	18.073	-2.53031	1.21101
O	19.0739	1.75492	-0.235108
