30
  This energy is -0.000424116 and Call times are: 5170
C	0.0779228	0.917995	-1.03453
N	0.770366	1.84928	-0.326496
C	1.09443	1.58591	0.962871
C	-0.275033	-0.288088	-0.393317
C	0.12319	-0.432749	0.945904
N	0.810318	0.473084	1.67357
H	1.64558	2.36091	1.48021
N	-0.243578	1.18605	-2.32299
H	0.0390634	2.06696	-2.72013
H	-0.755652	0.516882	-2.87335
N	-0.969916	-1.42101	-0.832061
C	-0.988623	-2.22808	0.220156
N	-0.341324	-1.68056	1.32464
H	-1.44577	-3.20332	0.24653
H	-0.222262	-2.09572	2.23462
C	9.8477	0.337204	-2.77861
C	9.6695	0.121496	-1.3031
H	10.5816	-0.365165	-3.19025
H	10.2329	1.34289	-2.98263
H	8.90382	0.209974	-3.31727
C	10.8486	0.258323	-0.444363
C	8.48316	-0.191695	-0.723939
N	8.35209	-0.384899	0.643664
H	7.57269	-0.308174	-1.29888
N	10.6134	0.0433083	0.929374
C	9.40933	-0.277931	1.5446
H	11.415	0.133	1.54158
H	7.45853	-0.617221	1.05102
O	9.27791	-0.453495	2.76845
O	11.9941	0.542033	-0.849211
