30
  This energy is -0.000789347 and Call times are: 7233
C	0.696656	0.93721	0.745211
N	1.92144	0.599675	0.26143
C	2.01414	-0.39678	-0.652533
C	-0.430255	0.232174	0.272602
C	-0.193344	-0.777694	-0.674531
N	1.00946	-1.13458	-1.17259
H	3.01221	-0.624987	-1.00443
N	0.60934	1.93392	1.65862
H	1.4534	2.39668	1.95358
H	-0.282991	2.20695	2.03558
N	-1.79566	0.333026	0.563033
C	-2.36609	-0.595539	-0.192791
N	-1.44314	-1.29846	-0.962691
H	-3.42235	-0.804903	-0.227805
H	-1.62789	-2.0464	-1.61158
C	6.37057	-1.49313	2.28227
C	6.6025	-0.809827	0.96518
H	5.92261	-0.803263	3.00671
H	7.31748	-1.82996	2.71965
H	5.71062	-2.35887	2.17182
C	7.46933	0.371183	0.950438
C	6.05645	-1.22325	-0.206076
N	6.29066	-0.568977	-1.40688
H	5.40694	-2.08782	-0.267151
N	7.64573	0.965075	-0.316393
C	7.09768	0.560189	-1.5277
H	8.24157	1.78317	-0.349746
H	5.87291	-0.895892	-2.26534
O	7.2994	1.13695	-2.61055
O	8.03152	0.853217	1.9545
