30
  This energy is -0.0015539 and Call times are: 14211
C	0.458562	1.17875	-0.565063
N	0.725723	0.64001	-1.78426
C	0.482324	-0.677759	-1.98696
C	-0.0630062	0.33867	0.441213
C	-0.267801	-1.0079	0.0979603
N	-0.012333	-1.5704	-1.10225
H	0.712751	-1.05516	-2.97515
N	0.703608	2.49644	-0.367533
H	1.07653	3.03976	-1.12867
H	0.516327	2.92461	0.523814
N	-0.435629	0.576997	1.76907
C	-0.854862	-0.600155	2.21342
N	-0.775338	-1.59611	1.24367
H	-1.22115	-0.793769	3.20796
H	-1.03254	-2.56554	1.33672
C	7.84385	-1.74418	0.784177
C	6.8681	-0.672896	0.389591
H	7.98854	-2.4608	-0.0324693
H	7.46819	-2.31932	1.63828
H	8.81627	-1.31945	1.05108
C	5.51658	-1.08675	0.00419498
C	7.16715	0.650399	0.370084
N	6.24202	1.6158	-1.11055e-05
H	8.146	1.02538	0.642703
N	4.65045	-0.03336	-0.354784
C	4.93386	1.32697	-0.382342
H	3.71072	-0.296897	-0.624694
H	6.48846	2.59436	-0.00650224
O	4.11452	2.20228	-0.711614
O	5.11433	-2.2675	-0.0204623
