30
  This energy is -0.00605717 and Call times are: 17252
C	0.125112	0.629539	-1.22762
N	-1.01697	1.35812	-1.11408
C	-1.76954	1.2283	0.00557629
C	0.479142	-0.234301	-0.169887
C	-0.389833	-0.273322	0.93301
N	-1.52885	0.437342	1.07359
H	-2.66807	1.83093	0.0444919
N	0.873848	0.762896	-2.34877
H	0.563865	1.39747	-3.06628
H	1.72453	0.237247	-2.46252
N	1.56338	-1.09901	0.0187321
C	1.35036	-1.64518	1.20835
N	0.181978	-1.18161	1.80724
H	1.99194	-2.36886	1.68314
H	-0.193829	-1.4437	2.70428
C	8.08184	-1.77782	1.7766
C	7.26204	-0.876676	0.898365
H	8.80301	-1.19914	2.36519
H	8.66733	-2.48252	1.17494
H	7.44959	-2.34824	2.46371
C	7.9694	-0.0455934	-0.0790561
C	5.90941	-0.78968	0.95958
N	5.18101	0.0538887	0.13334
H	5.32404	-1.37495	1.65806
N	7.1422	0.776854	-0.871526
C	5.75715	0.882702	-0.826886
H	7.6105	1.35994	-1.55425
H	4.17504	0.100908	0.197849
O	5.0923	1.63406	-1.56129
O	9.20691	-0.0309014	-0.23686
