30
  This energy is 0.00101857 and Call times are: 3651
C	-0.988148	-0.150435	-0.959148
N	-0.203654	0.212901	-2.00825
C	1.08902	0.547444	-1.77605
C	-0.419887	-0.163562	0.332081
C	0.93171	0.205434	0.432314
N	1.73441	0.570287	-0.589812
H	1.66879	0.828709	-2.64599
N	-2.27958	-0.48393	-1.19653
H	-2.62224	-0.453442	-2.1427
H	-2.88557	-0.757218	-0.44089
N	-0.94458	-0.481511	1.59004
C	0.0692513	-0.307363	2.42712
N	1.23021	0.108288	1.78053
H	0.028403	-0.462442	3.49251
H	2.12661	0.306113	2.19517
C	8.15811	2.51916	1.14965
C	7.78895	1.15649	0.637513
H	8.20532	3.24504	0.329734
H	9.15253	2.50704	1.6105
H	7.43571	2.87639	1.88976
C	8.66428	0.541583	-0.363532
C	6.69516	0.466629	1.04817
N	6.3818	-0.791579	0.554645
H	6.00616	0.861538	1.78465
N	8.26172	-0.736704	-0.802405
C	7.14748	-1.46173	-0.396946
H	8.8527	-1.18053	-1.49462
H	5.56226	-1.28503	0.875919
O	6.85521	-2.5897	-0.83071
O	9.69768	1.0677	-0.82381
