30
  This energy is 0.000295482 and Call times are: 8118
C	-0.111168	0.230184	-1.3615
N	0.336228	1.51289	-1.31073
C	0.68448	2.03938	-0.111409
C	-0.193951	-0.500844	-0.157713
C	0.198453	0.165034	1.01517
N	0.646049	1.43596	1.09632
H	1.03389	3.06393	-0.127716
N	-0.458015	-0.291437	-2.56274
H	-0.374859	0.284995	-3.38396
H	-0.79275	-1.23796	-2.63312
N	-0.603525	-1.809	0.124829
C	-0.460311	-1.92619	1.43808
N	0.0220784	-0.761214	2.02867
H	-0.684096	-2.81107	2.01051
H	0.213268	-0.601385	3.00463
C	6.40382	-1.54237	-2.2133
C	6.76689	-0.862885	-0.924151
H	7.25455	-1.54916	-2.90439
H	5.59481	-1.00649	-2.72294
H	6.08465	-2.57516	-2.04382
C	7.21503	0.530498	-0.987785
C	6.70345	-1.46474	0.29021
N	7.04648	-0.808526	1.46348
H	6.38117	-2.49184	0.409629
N	7.54029	1.10923	0.256387
C	7.48328	0.513542	1.51077
H	7.85247	2.07231	0.235744
H	6.9909	-1.27782	2.35512
O	7.78745	1.08988	2.56965
O	7.31766	1.19724	-2.0373
