30
  This energy is -0.000607882 and Call times are: 8294
C	-0.380634	0.418821	-1.26441
N	0.221186	1.63502	-1.18224
C	0.888343	1.96176	-0.0486654
C	-0.284145	-0.454697	-0.160773
C	0.437015	0.00887522	0.951904
N	1.0443	1.20939	1.06211
H	1.34877	2.9415	-0.036098
N	-1.04626	0.0970114	-2.39964
H	-1.07671	0.76707	-3.15043
H	-1.50208	-0.795616	-2.49099
N	-0.77872	-1.74395	0.0674375
C	-0.363866	-2.04792	1.28989
N	0.376828	-1.02303	1.87266
H	-0.562474	-2.97581	1.80012
H	0.797497	-1.01338	2.78783
C	5.55772	1.5323	0.012468
C	6.70624	0.565414	-0.0255309
H	5.67458	2.30795	-0.753115
H	5.51649	2.05214	0.976552
H	4.60259	1.02381	-0.150023
C	8.05593	1.09805	0.177065
C	6.56418	-0.767389	-0.236194
N	7.64683	-1.63448	-0.265684
H	5.59627	-1.22737	-0.393153
N	9.08845	0.138716	0.129535
C	8.96735	-1.22917	-0.0844394
H	10.03	0.48516	0.267258
H	7.51551	-2.6224	-0.424158
O	9.92868	-2.01716	-0.113085
O	8.32316	2.29973	0.379823
