30
  This energy is -0.0046936 and Call times are: 16787
C	0.387542	-0.363651	1.2793
N	-0.874639	-0.565374	1.7422
C	-1.92068	-0.366624	0.903656
C	0.554606	0.0458221	-0.0603988
C	-0.614267	0.215017	-0.820747
N	-1.87868	0.0225152	-0.389018
H	-2.90335	-0.541333	1.32302
N	1.42973	-0.563671	2.12144
H	1.24065	-0.855971	3.06611
H	2.37585	-0.42268	1.80858
N	1.69206	0.331421	-0.824271
C	1.21695	0.664707	-2.01678
N	-0.17332	0.611577	-2.07156
H	1.81553	0.948992	-2.86628
H	-0.764994	0.818095	-2.86015
C	5.97097	-1.15546	-2.53406
C	5.97023	-0.438527	-1.21442
H	5.90445	-2.23993	-2.38948
H	6.90486	-0.971992	-3.07773
H	5.13392	-0.835944	-3.16215
C	7.03474	-0.760037	-0.260569
C	5.043	0.485706	-0.8581
N	5.07045	1.13044	0.370073
H	4.22972	0.770611	-1.51421
N	6.97655	-0.0526834	0.958015
C	6.03815	0.896777	1.34467
H	7.70317	-0.259376	1.63233
H	4.36923	1.81459	0.612109
O	6.05114	1.482	2.4416
O	7.94549	-1.58815	-0.463888
