30
  This energy is 0.000675261 and Call times are: 452
C	0.810234	-0.808861	-0.779934
N	1.10064	0.149987	-1.69882
C	0.568001	1.38697	-1.54715
C	-0.0371243	-0.473076	0.296911
C	-0.520535	0.84523	0.334383
N	-0.249851	1.81735	-0.562221
H	0.831414	2.11215	-2.30662
N	1.34515	-2.04371	-0.936032
H	1.94251	-2.21688	-1.72771
H	1.14906	-2.77481	-0.272748
N	-0.51822	-1.21168	1.38405
C	-1.27371	-0.356087	2.05938
N	-1.31112	0.904431	1.46916
H	-1.81005	-0.582806	2.96586
H	-1.81126	1.71786	1.78977
C	10.5127	-0.483194	1.88411
C	9.34686	-0.130514	1.00558
H	11.4496	-0.10263	1.46131
H	10.6274	-1.57038	1.96316
H	10.3925	-0.0716722	2.89081
C	9.36217	-0.612634	-0.37779
C	8.28546	0.606305	1.41967
N	7.22337	0.915152	0.582162
H	8.20977	0.99406	2.42813
N	8.23927	-0.247151	-1.14864
C	7.14214	0.505504	-0.746929
H	8.22907	-0.570083	-2.10834
H	6.44483	1.46503	0.913615
O	6.18398	0.78925	-1.48675
O	10.2751	-1.29723	-0.882192
