30
  This energy is -0.000839144 and Call times are: 15442
C	0.231698	0.617566	-1.21818
N	0.557074	-0.524426	-1.88004
C	0.541613	-1.70036	-1.20641
C	-0.109611	0.528648	0.147825
C	-0.0856745	-0.752206	0.723898
N	0.232814	-1.90222	0.0928587
H	0.808692	-2.57839	-1.78067
N	0.248662	1.79043	-1.89601
H	0.501607	1.78374	-2.87047
H	0.012725	2.65287	-1.43402
N	-0.483717	1.49268	1.09099
C	-0.680087	0.80615	2.20857
N	-0.45342	-0.557768	2.0442
H	-0.981358	1.22943	3.15241
H	-0.535483	-1.28194	2.7395
C	3.56753	1.54563	1.80213
C	4.40517	0.609969	0.978538
H	2.53811	1.58092	1.42737
H	3.95384	2.56972	1.74384
H	3.54529	1.24119	2.85288
C	4.53247	0.887155	-0.454417
C	5.04731	-0.472572	1.48518
N	5.81396	-1.31815	0.69645
H	4.996	-0.735776	2.53454
N	5.33177	-0.0283488	-1.16972
C	5.99813	-1.14237	-0.673251
H	5.43355	0.144375	-2.1623
H	6.28226	-2.1174	1.09676
O	6.68831	-1.90796	-1.36855
O	3.99487	1.84652	-1.04363
