30
  This energy is -0.00334832 and Call times are: 14189
C	-0.83727	1.05875	0.31153
N	-1.7232	0.819907	-0.691544
C	-1.50363	-0.225317	-1.52589
C	0.27768	0.204086	0.44111
C	0.385169	-0.841408	-0.490776
N	-0.477358	-1.10285	-1.4957
H	-2.23939	-0.37039	-2.30669
N	-1.06125	2.10477	1.14282
H	-1.87707	2.67582	0.994746
H	-0.423805	2.30747	1.89481
N	1.34664	0.178963	1.34419
C	2.07978	-0.858457	0.96321
N	1.54461	-1.513	-0.143065
H	2.99155	-1.18192	1.43734
H	1.91407	-2.32209	-0.615784
C	6.03744	-0.940676	-2.2258
C	6.94526	-0.445347	-1.1368
H	5.25509	-0.205471	-2.44673
H	5.52261	-1.85807	-1.91802
H	6.59293	-1.14518	-3.14605
C	6.34592	-0.127428	0.161706
C	8.28302	-0.276546	-1.2879
N	9.09451	0.183576	-0.260948
H	8.79071	-0.492087	-2.22003
N	7.25201	0.332152	1.1397
C	8.62375	0.512786	1.00826
H	6.85899	0.557789	2.04526
H	10.0874	0.300886	-0.397844
O	9.36234	0.924007	1.92002
O	5.1328	-0.238219	0.431216
