30
  This energy is -0.00120602 and Call times are: 10945
C	0.411952	-1.23431	-0.475198
N	0.174688	-0.952605	-1.78379
C	-0.313513	0.267767	-2.11424
C	0.13837	-0.239254	0.486772
C	-0.365015	0.981771	0.00852187
N	-0.610329	1.2898	-1.28265
H	-0.484168	0.439468	-3.16944
N	0.899951	-2.45559	-0.150091
H	1.07323	-3.12022	-0.886179
H	1.08595	-2.69431	0.809764
N	0.269473	-0.213141	1.87997
C	-0.145897	0.99656	2.23064
N	-0.541947	1.76282	1.13764
H	-0.183666	1.37167	3.23991
H	-0.893066	2.70688	1.14463
C	3.6174	2.23732	1.36503
C	4.09875	1.12486	0.478361
H	4.43167	2.6162	1.99336
H	2.83778	1.88229	2.04881
H	3.21422	3.06864	0.77887
C	4.66767	-0.0633924	1.11928
C	4.03653	1.15896	-0.87659
N	4.49057	0.113589	-1.66773
H	3.62848	2.00559	-1.41489
N	5.10025	-1.0699	0.231302
C	5.04681	-1.05734	-1.15742
H	5.49696	-1.90064	0.653091
H	4.43345	0.16247	-2.67406
O	5.44975	-1.98696	-1.87808
O	4.78225	-0.22058	2.35164
