30
  This energy is -0.00161082 and Call times are: 6599
C	-0.933769	1.01551	0.12588
N	-0.927739	1.02625	1.48526
C	-0.121461	0.159159	2.14474
C	-0.0964038	0.0977768	-0.542662
C	0.688732	-0.744513	0.261782
N	0.715745	-0.756682	1.61134
H	-0.155428	0.209787	3.22563
N	-1.74146	1.8842	-0.528618
H	-2.31444	2.5132	0.00956757
H	-1.76836	1.90062	-1.53456
N	0.125477	-0.160411	-1.90022
C	1.02382	-1.13599	-1.9109
N	1.40066	-1.52888	-0.629374
H	1.43398	-1.59261	-2.79634
H	2.06277	-2.24459	-0.376467
C	9.60854	0.982375	-0.254705
C	8.16565	0.619845	-0.0495855
H	9.8905	0.881786	-1.30911
H	10.2645	0.307616	0.307247
H	9.81092	2.00957	0.0633584
C	7.7385	-0.729102	-0.429427
C	7.24015	1.46798	0.465239
N	5.91366	1.10183	0.641893
H	7.48716	2.47856	0.766564
N	6.37285	-1.00518	-0.211521
C	5.40776	-0.154	0.313505
H	6.05584	-1.93234	-0.467048
H	5.2437	1.7508	1.02705
O	4.21624	-0.46923	0.477267
O	8.48719	-1.60253	-0.912277
