30
  This energy is -0.000113641 and Call times are: 8228
C	0.169469	-0.756878	-1.1478
N	0.722726	0.245488	-1.88077
C	0.889466	1.46235	-1.30781
C	-0.208964	-0.485624	0.183954
C	0.0195325	0.818322	0.653568
N	0.566129	1.83256	-0.0497999
H	1.33429	2.22412	-1.93542
N	0.00493846	-1.97138	-1.72511
H	0.296787	-2.09779	-2.68032
H	-0.40163	-2.73353	-1.20864
N	-0.79032	-1.27939	1.17936
C	-0.908353	-0.470242	2.2235
N	-0.433754	0.812252	1.96152
H	-1.32112	-0.746559	3.17955
H	-0.414469	1.59985	2.58914
C	10.8539	0.175177	-2.60691
C	10.2473	-0.081963	-1.2573
H	11.9376	0.318891	-2.52719
H	10.4509	1.09436	-3.04751
H	10.6622	-0.653784	-3.29491
C	10.4192	0.942009	-0.223686
C	9.55268	-1.2044	-0.943458
N	9.00463	-1.41169	0.314129
H	9.38819	-2.00078	-1.65885
N	9.82617	0.639231	1.01944
C	9.11122	-0.501774	1.36369
H	9.93264	1.33364	1.74873
H	8.4918	-2.25523	0.523418
O	8.61485	-0.700068	2.48628
O	11.0341	2.01599	-0.381937
