30
  This energy is 8.226e-06 and Call times are: 10292
C	0.29994	-1.15421	0.704888
N	0.301898	-1.97044	-0.382233
C	0.0451098	-1.439	-1.60226
C	0.0293751	0.217324	0.515017
C	-0.220215	0.636575	-0.80216
N	-0.225017	-0.149485	-1.89955
H	0.0591027	-2.13276	-2.43325
N	0.557197	-1.6903	1.92217
H	0.742567	-2.67768	1.98785
H	0.562946	-1.1122	2.74598
N	-0.0456981	1.29556	1.40419
C	-0.333942	2.33911	0.638152
N	-0.451175	1.99811	-0.706707
H	-0.46807	3.34882	0.98924
H	-0.662874	2.60932	-1.47885
C	16.6932	0.445624	-1.86041
C	15.5169	0.356549	-0.93099
H	16.7788	-0.461133	-2.47022
H	17.63	0.530271	-1.29777
H	16.6093	1.30798	-2.52865
C	15.4853	-0.750185	0.0284574
C	14.4868	1.23957	-0.930545
N	13.4137	1.12887	-0.0581281
H	14.4462	2.08004	-1.61248
N	14.3549	-0.776172	0.871161
C	13.2892	0.115678	0.889933
H	14.3126	-1.53307	1.54252
H	12.6591	1.7986	-0.0770665
O	12.3218	0.0283252	1.66618
O	16.3665	-1.62743	0.131383
