30
  This energy is -0.000931019 and Call times are: 16095
C	0.411258	-0.872471	-0.99433
N	0.768322	-1.87302	-0.146115
C	0.616367	-1.68792	1.18786
C	-0.104491	0.320966	-0.44654
C	-0.209551	0.381187	0.952873
N	0.13642	-0.594586	1.8191
H	0.91597	-2.51585	1.8178
N	0.565104	-1.06244	-2.32685
H	0.939363	-1.93878	-2.65172
H	0.30996	-0.340759	-2.98029
N	-0.553326	1.51039	-1.03192
C	-0.919777	2.26807	-0.00697159
N	-0.733401	1.63461	1.21886
H	-1.31997	3.26541	-0.0839699
H	-0.934523	2.00014	2.13567
C	3.42131	1.91364	-1.00431
C	4.40829	1.00513	-0.329093
H	2.44135	1.43035	-1.09098
H	3.74224	2.14894	-2.02559
H	3.29975	2.85088	-0.452906
C	4.67943	-0.293397	-0.950947
C	5.05951	1.3184	0.819254
N	5.9661	0.45579	1.41829
H	4.90652	2.26038	1.33144
N	5.61469	-1.09769	-0.267505
C	6.29319	-0.798598	0.907976
H	5.81728	-1.99999	-0.680078
H	6.43815	0.711626	2.27273
O	7.10796	-1.56198	1.45506
O	4.14951	-0.702096	-2.00391
