30
  This energy is 5.3027e-05 and Call times are: 2008
C	0.79854	0.859944	-0.736113
N	0.576248	1.94556	0.0513528
C	-0.235892	1.81926	1.129
C	0.171145	-0.356974	-0.395746
C	-0.645601	-0.349792	0.747012
N	-0.884719	0.710884	1.54699
H	-0.378661	2.71398	1.72158
N	1.61113	0.991385	-1.81212
H	2.02754	1.88884	-1.99857
H	1.79529	0.206271	-2.41427
N	0.193336	-1.62637	-0.984815
C	-0.592536	-2.3651	-0.213084
N	-1.12749	-1.64334	0.850665
H	-0.810777	-3.40879	-0.367447
H	-1.74833	-1.97861	1.56952
C	9.46955	2.45437	1.34374
C	9.60895	1.12009	0.668689
H	8.69398	2.42152	2.11757
H	9.16019	3.22412	0.627378
H	10.4102	2.76749	1.80666
C	8.42937	0.565032	0.000174695
C	10.7608	0.403506	0.643764
N	10.8565	-0.827448	0.0109579
H	11.6695	0.75416	1.11745
N	8.62722	-0.689182	-0.613412
C	9.79567	-1.44072	-0.651931
H	7.8246	-1.09155	-1.08173
H	11.7248	-1.34164	0.00608425
O	9.89519	-2.54459	-1.21537
O	7.31342	1.1206	-0.0504352
