30
  This energy is -0.00245365 and Call times are: 2538
C	-0.661865	-0.512998	-1.10354
N	-1.61829	-1.16209	-0.388006
C	-1.58936	-1.08759	0.964937
C	0.324128	0.213555	-0.403325
C	0.237706	0.208283	0.998647
N	-0.698909	-0.425929	1.73533
H	-2.37363	-1.62249	1.48535
N	-0.695191	-0.590582	-2.45566
H	-1.42689	-1.12646	-2.89275
H	-0.00120303	-0.121128	-3.01324
N	1.41912	0.972251	-0.832559
C	1.97787	1.41282	0.286626
N	1.30397	0.980812	1.42588
H	2.85494	2.03633	0.339007
H	1.53161	1.18045	2.38657
C	6.11327	2.29326	1.57391
C	6.06377	1.14025	0.612897
H	6.45005	1.96297	2.5633
H	5.11675	2.72744	1.71472
H	6.7884	3.07848	1.22052
C	5.19915	0.0062562	0.948849
C	6.77191	1.09051	-0.54339
N	6.70402	0.00941718	-1.41027
H	7.42976	1.89338	-0.852762
N	5.19821	-1.04223	0.00579283
C	5.91389	-1.11534	-1.18333
H	4.6071	-1.83656	0.218058
H	7.24057	-0.00421152	-2.26483
O	5.86216	-2.0776	-1.96901
O	4.49802	-0.0730441	1.97778
