30
  This energy is -0.00158897 and Call times are: 7343
C	0.898099	-0.875935	-0.587527
N	-0.0295604	-1.52198	-1.34261
C	-1.32566	-1.13369	-1.26387
C	0.469313	0.175796	0.249353
C	-0.902769	0.476164	0.235497
N	-1.84587	-0.146845	-0.502477
H	-2.02245	-1.68124	-1.88574
N	2.19231	-1.26785	-0.669824
H	2.43101	-2.02619	-1.28751
H	2.90241	-0.809376	-0.123497
N	1.15571	1.02004	1.12968
C	0.216841	1.80983	1.6333
N	-1.04858	1.52499	1.12709
H	0.384975	2.59234	2.35453
H	-1.91729	1.98215	1.35279
C	5.19502	1.27211	-1.33612
C	6.31972	0.730079	-0.501444
H	4.36195	0.561043	-1.37818
H	5.51858	1.43198	-2.37108
H	4.82331	2.2207	-0.937069
C	6.92513	-0.539685	-0.910816
C	6.80387	1.34778	0.605344
N	7.84488	0.819934	1.35537
H	6.40312	2.28791	0.963977
N	7.97489	-0.992811	-0.0853739
C	8.48702	-0.378408	1.0512
H	8.40805	-1.869	-0.350105
H	8.1877	1.2984	2.17505
O	9.41927	-0.840173	1.73208
O	6.57463	-1.20667	-1.90523
