30
  This energy is -0.0012004 and Call times are: 16919
C	0.464138	-0.907887	0.937736
N	1.58723	-0.207552	1.248
C	1.82242	0.968583	0.616945
C	-0.412104	-0.377433	-0.032409
C	-0.0487469	0.850704	-0.609187
N	1.05812	1.56787	-0.321617
H	2.73037	1.48509	0.901361
N	0.233614	-2.08295	1.57133
H	0.900028	-2.40471	2.25394
H	-0.588822	-2.62455	1.36356
N	-1.62154	-0.839557	-0.563987
C	-1.97664	0.0902676	-1.44046
N	-1.06094	1.13691	-1.50907
H	-2.86779	0.0652119	-2.04543
H	-1.10677	1.95536	-2.09442
C	4.64317	-2.48698	0.557747
C	5.17427	-1.15937	0.0985924
H	4.08687	-2.38173	1.49629
H	5.46233	-3.18664	0.759809
H	3.98144	-2.93256	-0.191127
C	6.07858	-0.436665	0.996541
C	4.86457	-0.594696	-1.09563
N	5.37245	0.634624	-1.49019
H	4.20286	-1.07378	-1.80674
N	6.54089	0.802074	0.506156
C	6.23793	1.39974	-0.711453
H	7.1676	1.31875	1.11088
H	5.12723	1.03407	-2.38386
O	6.68605	2.50027	-1.07742
O	6.44188	-0.84376	2.11853
