30
  This energy is -0.00502947 and Call times are: 7211
C	1.28003	-0.385316	0.36342
N	1.90781	0.632327	-0.283396
C	1.16175	1.53835	-0.961163
C	-0.127679	-0.454485	0.300794
C	-0.778304	0.548873	-0.436078
N	-0.182563	1.56995	-1.08774
H	1.71161	2.32761	-1.45791
N	2.03028	-1.28834	1.03947
H	3.03128	-1.18077	1.04407
H	1.59507	-2.05291	1.52827
N	-1.05266	-1.35379	0.843487
C	-2.23249	-0.900676	0.441532
N	-2.12607	0.24918	-0.336398
H	-3.18295	-1.35099	0.67523
H	-2.87371	0.777764	-0.756208
C	7.82143	-2.37096	0.977407
C	7.05679	-1.18024	0.474489
H	8.42437	-2.10636	1.85367
H	8.52237	-2.73456	0.217232
H	7.14949	-3.18987	1.25152
C	7.82115	0.00107825	0.0662846
C	5.7041	-1.13778	0.377781
N	5.02745	-0.0210732	-0.0912107
H	5.07819	-1.97473	0.662081
N	7.04396	1.08331	-0.395688
C	5.65993	1.14979	-0.503453
H	7.55216	1.91061	-0.683298
H	4.02029	-0.0137344	-0.153958
O	5.04115	2.14366	-0.922071
O	9.06487	0.0917333	0.105319
