30
  This energy is 0.000119303 and Call times are: 9830
C	0.285454	0.497808	1.26085
N	0.67687	-0.694768	1.78298
C	0.652484	-1.7963	0.993763
C	-0.131181	0.537264	-0.0864546
C	-0.108016	-0.677264	-0.791725
N	0.274962	-1.87491	-0.300647
H	0.974051	-2.71933	1.45923
N	0.311659	1.59591	2.05385
H	0.620087	1.49832	3.00723
H	0.0279968	2.49301	1.69658
N	-0.582859	1.57988	-0.903647
C	-0.825556	1.0044	-2.07361
N	-0.555557	-0.361495	-2.06304
H	-1.19096	1.51162	-2.95108
H	-0.659038	-1.01367	-2.82367
C	12.4165	-1.62679	-0.225239
C	11.3145	-0.622227	-0.0470658
H	12.4598	-1.97937	-1.26216
H	12.2419	-2.51258	0.396262
H	13.3898	-1.20239	0.0391254
C	9.94711	-1.04371	-0.36179
C	11.5137	0.647785	0.386855
N	10.473	1.55227	0.540672
H	12.4977	1.02497	0.636955
N	8.96027	-0.0541083	-0.173334
C	9.14018	1.25099	0.269285
H	8.00749	-0.32407	-0.384889
H	10.6466	2.49189	0.865207
O	8.21681	2.07137	0.411728
O	9.62885	-2.17955	-0.768164
