30
  This energy is -1.7617e-05 and Call times are: 7277
C	0.729264	0.830432	0.835217
N	-0.195785	0.853557	1.83112
C	-1.34524	0.152596	1.67542
C	0.451261	0.0740974	-0.322813
C	-0.777843	-0.605085	-0.354985
N	-1.71454	-0.600767	0.616998
H	-2.04697	0.205346	2.49812
N	1.87659	1.53275	0.995709
H	2.01219	2.05198	1.84754
H	2.58069	1.53553	0.276586
N	1.17629	-0.151035	-1.49861
C	0.399977	-0.947648	-2.22085
N	-0.795815	-1.25488	-1.57714
H	0.641345	-1.32981	-3.19884
H	-1.54443	-1.83655	-1.91749
C	7.67341	-2.28061	-0.384198
C	8.58437	-1.14085	-0.0284854
H	7.90826	-2.67201	-1.38072
H	6.6291	-1.94962	-0.419425
H	7.7555	-3.09761	0.339003
C	8.58694	0.0324043	-0.905911
C	9.40126	-1.13732	1.05485
N	10.2318	-0.0674612	1.35564
H	9.44942	-1.971	1.74459
N	9.46356	1.06601	-0.516194
C	10.3083	1.09205	0.587154
H	9.48132	1.88699	-1.10872
H	10.8306	-0.0884617	2.16762
O	11.0571	2.04393	0.868349
O	7.88577	0.15568	-1.93047
