30
  This energy is -0.00135974 and Call times are: 15839
C	-0.211862	1.23849	-0.583345
N	-1.0283	0.777579	-1.56776
C	-1.30722	-0.547596	-1.62213
C	0.312211	0.312884	0.343459
C	-0.0569511	-1.03157	0.172629
N	-0.864419	-1.51798	-0.793591
H	-1.96205	-0.86093	-2.42529
N	0.0638561	2.56395	-0.533334
H	-0.343285	3.17043	-1.22616
H	0.664744	2.93578	0.183308
N	1.16079	0.46067	1.44661
C	1.29822	-0.767602	1.92759
N	0.582675	-1.71105	1.19509
H	1.8904	-1.03519	2.78694
H	0.527177	-2.70316	1.36014
C	4.02319	-0.594141	-2.30226
C	4.82876	-0.104773	-1.13308
H	3.05289	-0.983117	-1.97268
H	4.53297	-1.42172	-2.80884
H	3.84923	0.204865	-3.02929
C	5.14521	-1.06322	-0.0711739
C	5.27745	1.16938	-1.00604
N	6.01989	1.59003	0.0878956
H	5.07988	1.92844	-1.75294
N	5.90343	-0.540477	0.996778
C	6.37338	0.758645	1.14843
H	6.13375	-1.18604	1.74217
H	6.34254	2.54349	0.159645
O	7.03962	1.14867	2.12307
O	4.79408	-2.2604	-0.0660032
