30
  This energy is -0.0111479 and Call times are: 16161
C	-1.26097	-0.179625	-0.544721
N	-0.853387	-1.0153	-1.53648
C	0.461002	-1.33281	-1.62822
C	-0.293361	0.323314	0.350348
C	1.03421	-0.0856904	0.142288
N	1.46807	-0.913025	-0.832114
H	0.731206	-2.00152	-2.4356
N	-2.57586	0.134659	-0.457314
H	-3.21426	-0.259151	-1.12885
H	-2.90866	0.7506	0.265712
N	-0.383612	1.18281	1.45125
C	0.861946	1.28768	1.8945
N	1.76209	0.540483	1.13945
H	1.17205	1.87732	2.74121
H	2.75669	0.457339	1.27533
C	10.0241	-0.542241	-0.345987
C	8.55821	-0.39946	-0.0523125
H	10.5743	0.352192	-0.031947
H	10.198	-0.650949	-1.42271
H	10.4506	-1.41071	0.164992
C	7.84316	0.721365	-0.667822
C	7.86269	-1.24646	0.747541
N	6.5077	-1.08644	0.999059
H	8.32841	-2.09474	1.23395
N	6.47094	0.798281	-0.351928
C	5.73814	-0.0560539	0.463353
H	5.95697	1.56575	-0.766941
H	6.01213	-1.73003	1.59784
O	4.52405	0.0756255	0.696893
O	8.36338	1.5692	-1.42089
