30
  This energy is -0.00272233 and Call times are: 11246
C	-0.230099	-1.26708	-0.510481
N	0.129924	-1.92781	0.621723
C	0.531091	-1.21151	1.70006
C	-0.170223	0.142446	-0.513877
C	0.263195	0.760178	0.67085
N	0.626543	0.131358	1.80872
H	0.806428	-1.78691	2.57479
N	-0.630352	-1.98767	-1.58561
H	-0.650045	-2.99186	-1.51629
H	-0.903093	-1.52769	-2.43822
N	-0.465505	1.09644	-1.49447
C	-0.215027	2.26114	-0.911705
N	0.229025	2.11729	0.400086
H	-0.332777	3.22597	-1.37647
H	0.482373	2.84747	1.04604
C	5.49353	2.35746	1.44224
C	5.1635	1.03318	0.815511
H	5.0967	3.18376	0.841293
H	6.57833	2.50533	1.4945
H	5.08264	2.43372	2.45348
C	5.64749	0.780078	-0.543932
C	4.4454	0.0629527	1.43513
N	4.15724	-1.15067	0.827728
H	4.05746	0.18359	2.43913
N	5.3037	-0.480794	-1.07374
C	4.57044	-1.4888	-0.459062
H	5.62831	-0.67699	-2.01265
H	3.62105	-1.85696	1.3094
O	4.30533	-2.5806	-0.991602
O	6.31621	1.58587	-1.22222
