30
  This energy is -0.00113594 and Call times are: 11930
C	0.61882	-1.09102	0.588023
N	0.0126632	-2.02005	-0.19782
C	-0.861739	-1.60664	-1.14722
C	0.309879	0.269761	0.380184
C	-0.613426	0.560664	-0.63761
N	-1.23039	-0.339034	-1.43264
H	-1.31571	-2.38704	-1.74466
N	1.49204	-1.50938	1.53556
H	1.6677	-2.49607	1.63136
H	1.9568	-0.846032	2.13295
N	0.750588	1.44268	1.00379
C	0.106358	2.41631	0.374586
N	-0.733203	1.93973	-0.628744
H	0.202048	3.46686	0.593592
H	-1.32347	2.47786	-1.24242
C	4.83952	0.912124	2.13713
C	5.64937	0.587521	0.914756
H	5.44694	0.817554	3.0446
H	4.00376	0.211903	2.24926
H	4.43805	1.92896	2.09129
C	6.25484	-0.743806	0.82889
C	5.85066	1.45442	-0.109398
N	6.60505	1.12331	-1.22569
H	5.43272	2.45362	-0.110907
N	7.0016	-0.984332	-0.342938
C	7.22131	-0.113413	-1.4035
H	7.42907	-1.89879	-0.423196
H	6.7404	1.78568	-1.97489
O	7.89474	-0.397241	-2.4094
O	6.14711	-1.63145	1.69897
