30
  This energy is -0.00371369 and Call times are: 9624
C	-0.0769719	-1.07055	0.8758
N	-1.12757	-1.66853	0.253921
C	-1.65472	-1.08576	-0.850316
C	0.42144	0.136581	0.342154
C	-0.217268	0.631914	-0.806636
N	-1.26073	0.061102	-1.44502
H	-2.48924	-1.60335	-1.30607
N	0.446355	-1.65708	1.97919
H	0.0429277	-2.51898	2.30778
H	1.22428	-1.23895	2.46179
N	1.46568	0.981384	0.735526
C	1.45439	1.96221	-0.157076
N	0.455898	1.80176	-1.11412
H	2.12971	2.80163	-0.165683
H	0.246068	2.40869	-1.89014
C	6.74983	-0.101605	-2.77519
C	6.73451	-0.108439	-1.27348
H	6.55072	0.903941	-3.1633
H	5.96285	-0.750268	-3.1768
H	7.71388	-0.441026	-3.16588
C	5.50673	0.321901	-0.599859
C	7.78935	-0.488943	-0.509634
N	7.74288	-0.483528	0.876966
H	8.72644	-0.817949	-0.941709
N	5.55828	0.292107	0.809091
C	6.6255	-0.0930725	1.61174
H	4.71996	0.585602	1.2954
H	8.54096	-0.771224	1.42345
O	6.59723	-0.0931978	2.85477
O	4.46886	0.694853	-1.18321
