30
  This energy is 4.737e-06 and Call times are: 10358
C	0.583983	0.944425	-0.828285
N	-0.428471	0.961756	-1.73532
C	-1.50238	0.15951	-1.53539
C	0.472352	0.0879324	0.287206
C	-0.693719	-0.690484	0.373054
N	-1.71411	-0.694494	-0.510673
H	-2.2793	0.212405	-2.28748
N	1.65522	1.74819	-1.03268
H	1.67174	2.33565	-1.85012
H	2.42071	1.758	-0.379353
N	1.31813	-0.15935	1.37457
C	0.674414	-1.06604	2.09736
N	-0.549279	-1.42424	1.53795
H	1.03352	-1.49519	3.01803
H	-1.2171	-2.08801	1.89574
C	17.0156	-1.08406	-1.95497
C	17.8667	-0.337962	-0.967863
H	16.2987	-1.73386	-1.43999
H	17.6298	-1.738	-2.5846
H	16.4611	-0.398037	-2.60237
C	18.6723	-1.1224	-0.0287372
C	17.9305	1.01552	-0.897632
N	18.7275	1.67473	0.0271305
H	17.3618	1.65574	-1.56073
N	19.448	-0.361967	0.870605
C	19.5294	1.0225	0.96118
H	20.013	-0.884197	1.52896
H	18.7581	2.68287	0.0596878
O	20.2393	1.62578	1.78458
O	18.7043	-2.36895	0.0119841
