30
  This energy is 0.00152373 and Call times are: 13515
C	-0.194284	-1.36137	0.167243
N	0.75869	-1.73675	-0.726625
C	1.46393	-0.77822	-1.37524
C	-0.408848	0.016391	0.381982
C	0.391432	0.903958	-0.356122
N	1.34388	0.561141	-1.24915
H	2.20996	-1.13174	-2.07561
N	-0.896469	-2.32331	0.812963
H	-0.693167	-3.28886	0.613039
H	-1.60845	-2.07738	1.48043
N	-1.29163	0.71486	1.21367
C	-1.02745	1.99338	0.980286
N	-0.0168243	2.16649	0.038299
H	-1.52296	2.82584	1.45171
H	0.360347	3.03515	-0.304873
C	9.60866	-1.15339	1.0836
C	8.34561	-0.693416	0.413843
H	9.51063	-1.10966	2.17442
H	10.4496	-0.501032	0.821612
H	9.86126	-2.17887	0.797555
C	7.87593	0.664842	0.698328
C	7.61876	-1.46206	-0.435748
N	6.45498	-1.00685	-1.03846
H	7.9081	-2.47439	-0.689773
N	6.68567	1.0342	0.0383767
C	5.92515	0.265395	-0.834611
H	6.34284	1.96943	0.220626
H	5.93155	-1.59772	-1.66714
O	4.88092	0.660843	-1.38153
O	8.44952	1.47102	1.45836
