30
  This energy is -0.00564592 and Call times are: 13711
C	-0.249676	-0.901245	-1.02198
N	0.798566	-0.511139	-1.79469
C	1.60524	0.484082	-1.35236
C	-0.453339	-0.250032	0.212846
C	0.457033	0.764933	0.550618
N	1.5055	1.17331	-0.195116
H	2.42435	0.75538	-2.0062
N	-1.05304	-1.89648	-1.46861
H	-0.851564	-2.31927	-2.35982
H	-1.83706	-2.20766	-0.919634
N	-1.4156	-0.41097	1.21635
C	-1.09042	0.487281	2.13629
N	0.0355234	1.22741	1.7854
H	-1.61953	0.648621	3.06083
H	0.475846	1.96313	2.31402
C	8.14861	0.257419	2.3811
C	7.22054	0.134203	1.20683
H	8.81982	1.11547	2.26017
H	8.78944	-0.627648	2.46705
H	7.59432	0.378119	3.31675
C	7.81604	-0.0342444	-0.121106
C	5.8679	0.170209	1.3068
N	5.03783	0.0536703	0.201248
H	5.36202	0.292227	2.25668
N	6.89067	-0.143718	-1.17959
C	5.50346	-0.10968	-1.10159
H	7.28072	-0.260983	-2.10669
H	4.0341	0.0834001	0.301273
O	4.74819	-0.213118	-2.08382
O	9.04153	-0.0833631	-0.349852
