30
  This energy is 0.000646781 and Call times are: 12068
C	-1.17631	-0.48936	0.543915
N	-1.53451	-1.20803	-0.553029
C	-0.725385	-1.19313	-1.6402
C	0.0279865	0.244353	0.502836
C	0.77226	0.17275	-0.686261
N	0.442378	-0.531207	-1.7898
H	-1.05762	-1.78211	-2.48564
N	-1.98851	-0.507537	1.62806
H	-2.83428	-1.05243	1.59127
H	-1.7509	0.0141196	2.45529
N	0.664541	1.06519	1.44086
C	1.76653	1.47738	0.828809
N	1.88296	0.967838	-0.461726
H	2.50648	2.13288	1.25723
H	2.62503	1.13325	-1.12246
C	6.95551	1.41266	2.40852
C	7.1869	0.777644	1.06738
H	7.15976	0.702053	3.21766
H	5.90875	1.71774	2.52086
H	7.5914	2.29201	2.54862
C	6.40527	-0.414988	0.731121
C	8.07533	1.24459	0.15438
N	8.26566	0.634025	-1.07681
H	8.68521	2.12069	0.337618
N	6.67019	-0.961779	-0.541483
C	7.57388	-0.50177	-1.49191
H	6.1407	-1.78695	-0.794739
H	8.93273	1.00042	-1.73947
O	7.7541	-1.03899	-2.59862
O	5.55827	-0.944232	1.47883
