30
  This energy is -0.00307807 and Call times are: 15166
C	1.17299	0.173492	-0.716252
N	0.642922	1.03859	-1.62107
C	-0.665	1.37799	-1.51622
C	0.334549	-0.335952	0.297572
C	-1.00141	0.0978759	0.291186
N	-1.55515	0.954623	-0.592858
H	-1.03578	2.06974	-2.26191
N	2.48085	-0.16259	-0.825391
H	3.02356	0.237414	-1.57309
H	2.90245	-0.800519	-0.171017
N	0.565818	-1.22267	1.35545
C	-0.605093	-1.31926	1.97069
N	-1.59027	-0.540801	1.36894
H	-0.801447	-1.92414	2.84036
H	-2.55344	-0.445916	1.64804
C	11.1553	0.874853	-0.135456
C	9.79518	0.238848	-0.104173
H	11.3945	1.33329	0.830994
H	11.193	1.68002	-0.878205
H	11.9325	0.143029	-0.375536
C	8.64673	1.09458	0.204325
C	9.57191	-1.07773	-0.344363
N	8.30179	-1.63475	-0.307433
H	10.3745	-1.76638	-0.578197
N	7.39969	0.436251	0.217796
C	7.1469	-0.9087	-0.0246302
H	6.59177	1.00911	0.428799
H	8.16119	-2.61725	-0.489801
O	6.01419	-1.42057	0.00502106
O	8.71482	2.31713	0.443685
