30
  This energy is 0.00064036 and Call times are: 5060
C	-1.21291	-0.559825	-0.366721
N	-1.97806	0.397995	0.220806
C	-1.36731	1.42027	0.867927
C	0.190554	-0.447602	-0.276906
C	0.693087	0.661697	0.423049
N	-0.0408383	1.62719	1.01581
H	-2.02309	2.15497	1.31762
N	-1.82823	-1.57959	-1.01234
H	-2.83444	-1.59975	-1.03907
H	-1.28944	-2.30395	-1.45722
N	1.23326	-1.24595	-0.760924
C	2.33739	-0.629896	-0.360609
N	2.06974	0.530686	0.360558
H	3.34194	-0.96636	-0.556659
H	2.73532	1.16768	0.767789
C	10.3112	1.69724	-1.32434
C	11.1249	0.720779	-0.524469
H	10.4275	1.51479	-2.39886
H	10.6483	2.72486	-1.1462
H	9.24831	1.631	-1.07301
C	12.5723	0.690336	-0.749527
C	10.5968	-0.130729	0.390392
N	11.3768	-1.02169	1.11329
H	9.53587	-0.161192	0.606175
N	13.2773	-0.247827	0.0324477
C	12.7589	-1.12885	0.97406
H	14.2795	-0.28578	-0.106948
H	10.9605	-1.64535	1.78862
O	13.4463	-1.9319	1.62869
O	13.1815	1.41823	-1.55921
