30
  This energy is -0.00228308 and Call times are: 15795
C	0.566445	0.631199	1.09534
N	1.19393	-0.477166	1.57059
C	1.06126	-1.64584	0.897195
C	-0.199348	0.516283	-0.0839516
C	-0.25325	-0.753471	-0.68215
N	0.358257	-1.87034	-0.233993
H	1.58128	-2.49669	1.3187
N	0.702196	1.79693	1.77209
H	1.26366	1.81003	2.60766
H	0.250068	2.63474	1.44565
N	-0.949985	1.44416	-0.815007
C	-1.4437	0.747259	-1.82963
N	-1.05409	-0.589137	-1.79923
H	-2.07771	1.14397	-2.60513
H	-1.29698	-1.31449	-2.45457
C	6.9707	-2.59454	-1.01462
C	6.71601	-1.27583	-0.342646
H	8.04143	-2.82884	-1.02204
H	6.6523	-2.56662	-2.06306
H	6.43976	-3.40804	-0.511057
C	7.36076	-0.0860853	-0.904084
C	5.92605	-1.12573	0.750219
N	5.71121	0.107742	1.34792
H	5.41963	-1.96214	1.21608
N	7.08083	1.11887	-0.227021
C	6.27638	1.29679	0.89225
H	7.51631	1.95423	-0.598421
H	5.119	0.193865	2.16046
O	6.07526	2.39598	1.43745
O	8.10836	-0.0869113	-1.90291
