30
  This energy is -0.000409559 and Call times are: 1450
C	-0.301647	0.811125	1.08172
N	-1.62987	0.901608	0.806552
C	-2.12062	0.255288	-0.278932
C	0.512249	0.0446386	0.221234
C	-0.12431	-0.573316	-0.867778
N	-1.43891	-0.501552	-1.16587
H	-3.18415	0.360537	-0.451793
N	0.183962	1.45901	2.1679
H	-0.451903	1.98917	2.74078
H	1.16255	1.41133	2.39811
N	1.88227	-0.241531	0.225962
C	2.06448	-1.01411	-0.83649
N	0.883302	-1.2477	-1.53573
H	3.0088	-1.42882	-1.14796
H	0.76258	-1.79877	-2.37021
C	7.21595	-2.49297	0.129901
C	6.629	-1.12921	-0.0961246
H	6.42827	-3.2533	0.183338
H	7.75178	-2.53416	1.08519
H	7.90997	-2.76629	-0.670646
C	5.67777	-0.620884	0.895415
C	6.92904	-0.345621	-1.16237
N	6.36865	0.910752	-1.34219
H	7.62336	-0.659057	-1.93228
N	5.1642	0.664203	0.624333
C	5.45624	1.48411	-0.459198
H	4.50466	1.0353	1.29717
H	6.60782	1.47507	-2.14387
O	4.96162	2.61162	-0.632329
O	5.31782	-1.23895	1.91767
