30
  This energy is -0.000400397 and Call times are: 1198
C	0.0520122	-1.38254	-0.0699784
N	-0.982395	-1.59241	0.786776
C	-1.6113	-0.522196	1.3308
C	0.427802	-0.0533556	-0.357036
C	-0.307966	0.962697	0.27487
N	-1.33822	0.785023	1.12879
H	-2.42766	-0.745618	2.00584
N	0.677353	-2.45563	-0.611091
H	0.358843	-3.37813	-0.363847
H	1.44636	-2.33306	-1.24867
N	1.42477	0.488722	-1.17622
C	1.29078	1.80105	-1.03938
N	0.256906	2.1447	-0.17238
H	1.89905	2.54188	-1.53126
H	-0.0401003	3.06998	0.0926478
C	5.84689	-1.57892	2.30885
C	5.82362	-0.873059	0.983461
H	5.28579	-1.01405	3.06216
H	6.87198	-1.66625	2.68693
H	5.4167	-2.58221	2.23414
C	6.3683	0.485606	0.922273
C	5.32848	-1.42086	-0.15482
N	5.32151	-0.741362	-1.3644
H	4.91102	-2.41992	-0.180865
N	6.31648	1.09161	-0.350031
C	5.81491	0.551173	-1.52813
H	6.68794	2.03138	-0.415238
H	4.94758	-1.17036	-2.19776
O	5.80274	1.14875	-2.61839
O	6.85212	1.10215	1.89302
