30
  This energy is 0.000145846 and Call times are: 7809
C	1.00405	-0.000899868	0.954421
N	1.37792	-1.29098	0.744711
C	0.725763	-2.01879	-0.194352
C	-0.0517204	0.526925	0.181687
C	-0.641403	-0.335687	-0.757033
N	-0.29205	-1.61911	-0.987142
H	1.06326	-3.03966	-0.320698
N	1.65906	0.722357	1.89421
H	2.40406	0.28462	2.41089
H	1.40568	1.67986	2.07278
N	-0.661555	1.78636	0.153575
C	-1.59663	1.68249	-0.781161
N	-1.62928	0.419197	-1.36572
H	-2.2698	2.47025	-1.07617
H	-2.24553	0.0953057	-2.09367
C	9.40712	1.05613	-2.48337
C	9.76196	0.653203	-1.08081
H	8.62505	0.405146	-2.89079
H	10.2719	0.955727	-3.14925
H	9.0547	2.09121	-2.52404
C	10.2523	-0.710233	-0.863992
C	9.65406	1.47752	-0.00852851
N	9.99027	1.07402	1.27561
H	9.29888	2.49687	-0.0970886
N	10.5673	-1.02442	0.474191
C	10.4651	-0.198163	1.58704
H	10.9084	-1.9621	0.646943
H	9.90135	1.70585	2.05742
O	10.763	-0.546779	2.74272
O	10.3978	-1.56472	-1.76135
