30
  This energy is 0.000186997 and Call times are: 15619
C	-0.332104	0.804298	-1.07789
N	-1.11229	-0.123372	-1.69336
C	-1.26736	-1.33883	-1.11416
C	0.285306	0.45988	0.14299
C	0.0409854	-0.833743	0.632752
N	-0.727715	-1.77474	0.0447009
H	-1.89849	-2.03952	-1.6459
N	-0.180301	2.01772	-1.66091
H	-0.649204	2.19865	-2.53326
H	0.390796	2.72557	-1.22998
N	1.12783	1.16917	1.00666
C	1.38382	0.320491	1.99312
N	0.75155	-0.907675	1.81844
H	2.00718	0.530203	2.84647
H	0.790235	-1.71003	2.42617
C	4.95441	0.0990889	0.0960719
C	6.44548	-0.0438674	0.204209
H	4.58239	-0.371401	-0.821337
H	4.6662	1.15519	0.0415987
H	4.44684	-0.35664	0.951601
C	7.26648	0.519175	-0.870657
C	7.07147	-0.662571	1.23681
N	8.45227	-0.778129	1.30672
H	6.52622	-1.10063	2.06378
N	8.65723	0.351171	-0.708557
C	9.32017	-0.277813	0.338562
H	9.24395	0.733045	-1.44023
H	8.89473	-1.24303	2.08547
O	10.5563	-0.388131	0.413726
O	6.81735	1.11107	-1.87291
