30
  This energy is -1.2725e-05 and Call times are: 3717
C	-0.225587	0.759495	1.13636
N	-1.2164	1.51367	0.590835
C	-1.58199	1.28656	-0.694313
C	0.382064	-0.231681	0.337175
C	-0.0923137	-0.362286	-0.978473
N	-1.07295	0.370913	-1.54676
H	-2.37537	1.91483	-1.07884
N	0.136173	0.99043	2.42133
H	-0.338511	1.71371	2.93625
H	0.866155	0.448908	2.85352
N	1.40419	-1.15306	0.592462
C	1.54066	-1.82212	-0.544476
N	0.659768	-1.38511	-1.53024
H	2.24535	-2.61901	-0.715163
H	0.570115	-1.73269	-2.47138
C	6.34991	2.76401	0.186401
C	6.29422	1.26326	0.176287
H	5.47408	3.18399	0.694281
H	6.33662	3.16226	-0.834681
H	7.25131	3.12641	0.689758
C	5.14173	0.625721	-0.465343
C	7.2471	0.468902	0.725771
N	7.16565	-0.915848	0.69973
H	8.12438	0.873475	1.21545
N	5.15035	-0.78424	-0.440417
C	6.11356	-1.61776	0.115494
H	4.3628	-1.24591	-0.878635
H	7.88751	-1.48544	1.11546
O	6.05307	-2.85952	0.0989845
O	4.19957	1.23916	-1.00626
