30
  This energy is -0.00657305 and Call times are: 1472
C	0.667233	1.21398	0.00917483
N	0.822407	1.28419	-1.33955
C	0.336344	0.280034	-2.10914
C	0.00373499	0.0934501	0.551896
C	-0.450559	-0.875063	-0.358391
N	-0.311198	-0.832536	-1.70038
H	0.486813	0.385952	-3.17599
N	1.15487	2.22025	0.774023
H	1.61834	2.99162	0.322616
H	1.05572	2.19729	1.77529
N	-0.31048	-0.271194	1.86611
C	-0.93945	-1.43278	1.74779
N	-1.05251	-1.84626	0.423057
H	-1.32987	-2.01366	2.56688
H	-1.48551	-2.68743	0.0772871
C	4.89571	-2.72492	0.567224
C	4.89167	-1.23773	0.358271
H	4.9209	-3.25414	-0.392304
H	3.98138	-3.05026	1.07668
H	5.75746	-3.04184	1.16237
C	3.79521	-0.659565	-0.422687
C	5.84241	-0.403884	0.849939
N	5.80975	0.966919	0.638566
H	6.67982	-0.763853	1.43494
N	3.85054	0.740562	-0.581645
C	4.81262	1.61377	-0.0882218
H	3.10202	1.16147	-1.11828
H	6.52885	1.56666	1.01481
O	4.7953	2.84364	-0.269954
O	2.86085	-1.31329	-0.92883
