30
  This energy is 0.000805563 and Call times are: 14259
C	1.19862	0.395618	-0.57082
N	0.888103	-0.0272618	-1.82494
C	-0.317853	-0.606245	-2.04241
C	0.247434	0.212553	0.454899
C	-0.963018	-0.401388	0.0930923
N	-1.29891	-0.830996	-1.14173
H	-0.513834	-0.924454	-3.05847
N	2.40532	0.97372	-0.35865
H	3.03822	1.07404	-1.13516
H	2.66458	1.29709	0.558478
N	0.258148	0.528814	1.81825
C	-0.919575	0.114081	2.2653
N	-1.69987	-0.457293	1.26363
H	-1.26129	0.196836	3.2837
H	-2.62594	-0.843549	1.35197
C	9.82901	0.82884	-2.63882
C	9.47807	0.521686	-1.21126
H	9.62217	-0.0314723	-3.28572
H	10.8991	1.04294	-2.7406
H	9.26484	1.68882	-3.01218
C	10.1544	-0.607684	-0.568259
C	8.57379	1.22833	-0.487495
N	8.27171	0.918264	0.830629
H	8.03775	2.07411	-0.900291
N	9.78015	-0.842339	0.770967
C	8.85805	-0.133283	1.53159
H	10.2357	-1.61854	1.2351
H	7.59513	1.45913	1.34837
O	8.57822	-0.400188	2.71327
O	11.0037	-1.33593	-1.12047
