30
  This energy is 0.00106214 and Call times are: 1384
C	-0.577208	-0.154888	-1.24975
N	-1.856	0.0165393	-0.821517
C	-2.0819	0.246529	0.494885
C	0.464333	-0.0856126	-0.300667
C	0.0913619	0.158676	1.03134
N	-1.16786	0.332707	1.48549
H	-3.11775	0.375752	0.781894
N	-0.356696	-0.384512	-2.56657
H	-1.1455	-0.4218	-3.19105
H	0.578586	-0.515468	-2.91442
N	1.85332	-0.215157	-0.413811
C	2.3045	-0.0523093	0.822635
N	1.28121	0.177134	1.73855
H	3.34079	-0.088289	1.11516
H	1.36787	0.329832	2.7304
C	6.1728	2.59963	-0.3484
C	6.64686	1.22149	0.0141358
H	5.41247	2.5564	-1.13671
H	6.99648	3.20427	-0.745083
H	5.74755	3.11591	0.517548
C	7.24382	0.402912	-1.04414
C	6.55335	0.69485	1.26106
N	7.00106	-0.583049	1.56335
H	6.12328	1.24441	2.08937
N	7.66783	-0.879282	-0.638089
C	7.58252	-1.43946	0.630962
H	8.08376	-1.46231	-1.35398
H	6.92054	-0.952686	2.49889
O	7.97983	-2.58275	0.915455
O	7.38842	0.767029	-2.22866
