30
  This energy is -2.5922e-05 and Call times are: 5126
C	-0.258585	-0.819469	1.08657
N	-1.0045	0.0951685	1.7612
C	-1.20342	1.31631	1.20794
C	0.278701	-0.456083	-0.166281
C	-0.00418203	0.841511	-0.623719
N	-0.74044	1.76988	0.0229852
H	-1.80438	2.00606	1.78684
N	-0.0626892	-2.03865	1.64388
H	-0.474704	-2.23333	2.54162
H	0.484734	-2.73719	1.16925
N	1.06984	-1.14895	-1.0898
C	1.25792	-0.286743	-2.07981
N	0.630015	0.934685	-1.85065
H	1.82777	-0.481778	-2.97311
H	0.62531	1.7445	-2.44963
C	12.0273	-1.01725	2.35355
C	12.6639	-0.645747	1.04503
H	10.9945	-0.653565	2.40271
H	12.5594	-0.553703	3.19227
H	12.0221	-2.10143	2.50109
C	12.7459	0.776596	0.703558
C	13.1646	-1.54965	0.165732
N	13.7467	-1.17331	-1.03607
H	13.1368	-2.61577	0.35465
N	13.3541	1.05735	-0.537394
C	13.8734	0.14992	-1.45309
H	13.4215	2.03473	-0.793534
H	14.1123	-1.86466	-1.67387
O	14.3977	0.473459	-2.53307
O	12.3249	1.70578	1.42183
