30
  This energy is -0.000830147 and Call times are: 11738
C	-0.346873	-1.27878	0.404279
N	0.342543	-1.91481	-0.579714
C	1.03014	-1.17449	-1.48303
C	-0.316532	0.131178	0.442646
C	0.435008	0.775225	-0.554054
N	1.12868	0.171244	-1.54208
H	1.56128	-1.73083	-2.24489
N	-1.03258	-2.0233	1.30475
H	-1.01256	-3.02632	1.22026
H	-1.5526	-1.58193	2.0448
N	-0.904842	1.06391	1.30448
C	-0.515339	2.24186	0.835865
N	0.297745	2.12686	-0.288563
H	-0.78237	3.1968	1.25724
H	0.716565	2.87152	-0.822097
C	5.92741	2.40979	-1.42366
C	6.05527	1.05515	-0.788023
H	6.24321	3.19793	-0.730475
H	4.88366	2.62348	-1.68117
H	6.5322	2.48267	-2.3326
C	5.30096	0.802796	0.442317
C	6.82684	0.0569608	-1.28724
N	6.92354	-1.18433	-0.675117
H	7.41016	0.17535	-2.19211
N	5.46476	-0.487338	0.987666
C	6.24815	-1.52424	0.495012
H	4.95209	-0.683552	1.83859
H	7.50438	-1.91113	-1.06593
O	6.34362	-2.64099	1.03322
O	4.55723	1.63268	1.00333
