30
  This energy is -0.00189904 and Call times are: 13909
C	-0.486314	-1.02271	0.797866
N	-0.319668	-2.00005	-0.132243
C	0.192588	-1.67266	-1.34355
C	-0.117002	0.296369	0.46023
C	0.401326	0.497801	-0.829647
N	0.578059	-0.451498	-1.77293
H	0.304279	-2.48845	-2.04643
N	-0.998731	-1.35512	2.00712
H	-1.24174	-2.31612	2.18326
H	-1.1341	-0.654275	2.71662
N	-0.161038	1.49979	1.17347
C	0.3201	2.40381	0.330777
N	0.676518	1.85277	-0.897224
H	0.433925	3.45357	0.544829
H	1.06248	2.33043	-1.69565
C	5.19898	2.52304	-0.951108
C	5.42669	1.12064	-0.464445
H	5.83109	2.74276	-1.81918
H	5.46816	3.25297	-0.179013
H	4.15367	2.68302	-1.23217
C	6.78254	0.752212	-0.0493273
C	4.45143	0.18042	-0.388369
N	4.69501	-1.10763	0.0659902
H	3.42824	0.384787	-0.678844
N	6.9285	-0.577639	0.396628
C	5.94603	-1.55684	0.483193
H	7.85792	-0.853852	0.68867
H	3.95267	-1.78956	0.113472
O	6.15052	-2.71433	0.888537
O	7.76582	1.51987	-0.0699024
