30
  This energy is -0.000185787 and Call times are: 15328
C	1.12341	-0.797003	0.147515
N	0.483382	-1.79828	0.807722
C	-0.844009	-1.67848	1.05374
C	0.37448	0.328854	-0.254862
C	-0.993587	0.325461	0.0635719
N	-1.65561	-0.652731	0.717062
H	-1.30385	-2.50385	1.58227
N	2.45028	-0.921561	-0.0959481
H	2.92519	-1.75168	0.218624
H	2.9523	-0.19753	-0.582424
N	0.725172	1.50058	-0.935254
C	-0.406993	2.18564	-1.02349
N	-1.48018	1.52148	-0.435418
H	-0.514262	3.14997	-1.49181
H	-2.43594	1.83344	-0.373698
C	5.0857	1.61803	0.559698
C	6.18701	0.618125	0.352946
H	4.68728	1.96452	-0.400824
H	5.45864	2.50793	1.07968
H	4.2645	1.19196	1.14394
C	7.36108	1.04228	-0.413894
C	6.15523	-0.650027	0.834305
N	7.19006	-1.55019	0.625312
H	5.31882	-1.029	1.40864
N	8.35763	0.0570154	-0.571495
C	8.34719	-1.24611	-0.0884612
H	9.17849	0.328884	-1.09845
H	7.14317	-2.4885	0.993719
O	9.26747	-2.06262	-0.268203
O	7.51475	2.17681	-0.909665
