30
  This energy is -0.00134933 and Call times are: 15531
C	-0.309636	-1.28449	-0.416216
N	-0.0873077	-1.86687	0.791872
C	0.304483	-1.09134	1.83201
C	-0.121974	0.108685	-0.535393
C	0.285826	0.79342	0.621265
N	0.513978	0.242944	1.8325
H	0.467564	-1.60546	2.7707
N	-0.70112	-2.06405	-1.45274
H	-0.816454	-3.05241	-1.29966
H	-0.873571	-1.66264	-2.3594
N	-0.263455	0.990444	-1.61305
C	0.0523206	2.17825	-1.11476
N	0.393095	2.11807	0.233912
H	0.053859	3.10297	-1.66762
H	0.668073	2.88027	0.832264
C	5.43715	0.234817	-0.381991
C	6.87922	0.0230592	-0.0200077
H	5.20224	-0.237174	-1.34295
H	5.21639	1.30207	-0.498731
H	4.76967	-0.177386	0.380768
C	7.89776	0.522659	-0.947025
C	7.28924	-0.602286	1.11214
N	8.63062	-0.782238	1.41735
H	6.59039	-0.995658	1.84011
N	9.23068	0.291861	-0.548594
C	9.67408	-0.345202	0.604277
H	9.95136	0.629218	-1.17487
H	8.91075	-1.25073	2.2661
O	10.8725	-0.512886	0.889993
O	7.65533	1.11343	-2.01884
