30
  This energy is -0.000441261 and Call times are: 9580
C	0.157174	-1.31487	-0.406736
N	1.35917	-1.49382	0.202566
C	1.90286	-0.464332	0.896391
C	-0.47522	-0.0591776	-0.289827
C	0.19772	0.920959	0.458174
N	1.39	0.77252	1.07349
H	2.86052	-0.660483	1.36165
N	-0.38204	-2.34702	-1.09904
H	0.122083	-3.21737	-1.14303
H	-1.27041	-2.24577	-1.56104
N	-1.6868	0.436217	-0.785338
C	-1.74034	1.68599	-0.344779
N	-0.625406	2.03304	0.413613
H	-2.5436	2.37795	-0.536384
H	-0.434229	2.91822	0.85463
C	8.64872	-1.79934	-1.86858
C	9.08247	-0.717425	-0.921608
H	8.37637	-2.71005	-1.32285
H	9.465	-2.07617	-2.54565
H	7.7903	-1.4834	-2.46904
C	10.2253	-0.991563	-0.0469061
C	8.47767	0.493774	-0.831381
N	8.9032	1.47251	0.0551042
H	7.6284	0.762581	-1.44746
N	10.5811	0.0645106	0.81729
C	9.97757	1.3116	0.927311
H	11.3689	-0.103442	1.43096
H	8.43681	2.36608	0.103616
O	10.3487	2.19744	1.7169
O	10.8677	-2.061	-0.030291
