30
  This energy is 0.000154832 and Call times are: 9896
C	0.423932	0.859606	-1.0002
N	1.11984	-0.0820519	-1.69089
C	1.14836	-1.35296	-1.22097
C	-0.24164	0.471159	0.181535
C	-0.130534	-0.878092	0.555966
N	0.552258	-1.83425	-0.108667
H	1.71661	-2.06243	-1.80901
N	0.398523	2.12852	-1.47408
H	0.895415	2.33877	-2.32408
H	-0.107817	2.84808	-0.985454
N	-1.02431	1.18061	1.09967
C	-1.37543	0.277616	2.00532
N	-0.862188	-0.986223	1.72611
H	-1.98805	0.471354	2.87015
H	-0.987036	-1.83123	2.25994
C	9.04634	1.47102	-2.35487
C	9.3801	0.604434	-1.17459
H	9.07342	2.5319	-2.08066
H	8.03014	1.26924	-2.71266
H	9.7452	1.3069	-3.18064
C	8.5305	0.710736	0.0142231
C	10.4197	-0.267044	-1.14805
N	10.7015	-1.05389	-0.0406582
H	11.0871	-0.395774	-1.9913
N	8.89761	-0.12903	1.086
C	9.95629	-1.02805	1.13617
H	8.32355	-0.0718697	1.91823
H	11.4808	-1.69503	-0.0451381
O	10.2198	-1.73904	2.12155
O	7.54641	1.47039	0.119349
