30
  This energy is 0.000876214 and Call times are: 11180
C	-0.619822	-1.23888	-0.00463684
N	-1.25204	-1.0605	-1.19483
C	-1.07616	0.105449	-1.863
C	0.195914	-0.197506	0.485742
C	0.291294	0.9582	-0.306893
N	-0.323725	1.16354	-1.49085
H	-1.60214	0.195201	-2.80498
N	-0.798889	-2.40612	0.659338
H	-1.39483	-3.10858	0.253151
H	-0.344526	-2.56826	1.54261
N	0.964195	-0.0694243	1.64858
C	1.50885	1.13629	1.55641
N	1.13581	1.80315	0.392455
H	2.16941	1.57649	2.28486
H	1.41526	2.72447	0.0963369
C	7.7049	1.30684	2.47297
C	7.58622	0.764001	1.07774
H	8.73689	1.23224	2.83467
H	7.08923	0.727968	3.171
H	7.39399	2.35482	2.52111
C	7.96714	-0.632592	0.852299
C	7.14816	1.49149	0.0195352
N	7.05031	0.959729	-1.25816
H	6.85076	2.52855	0.115077
N	7.83236	-1.07964	-0.478367
C	7.38673	-0.354111	-1.57682
H	8.09015	-2.04249	-0.656867
H	6.72141	1.5212	-2.02947
O	7.29403	-0.818165	-2.72659
O	8.38419	-1.40756	1.73664
