30
  This energy is 0.000538614 and Call times are: 7787
C	1.08654	-0.578061	-0.635855
N	0.535895	-0.551334	-1.87849
C	-0.709308	-0.0392119	-2.03356
C	0.334254	-0.0690733	0.443665
C	-0.943146	0.432363	0.143946
N	-1.51541	0.471961	-1.07799
H	-1.09995	-0.0420447	-3.04323
N	2.33147	-1.09098	-0.486149
H	2.81397	-1.4379	-1.29882
H	2.76626	-1.1247	0.420893
N	0.606691	0.045841	1.81167
C	-0.48276	0.603837	2.32218
N	-1.45374	0.85965	1.3576
H	-0.628242	0.84372	3.3624
H	-2.36093	1.27532	1.49484
C	6.90296	-1.94485	-0.673198
C	7.78895	-0.823875	-0.210742
H	7.31948	-2.91664	-0.384174
H	6.82358	-1.95443	-1.76636
H	5.8969	-1.85802	-0.251817
C	9.17238	-0.802014	-0.692446
C	7.38153	0.164796	0.6244
N	8.22584	1.18694	1.0333
H	6.37344	0.209617	1.01786
N	9.95042	0.275669	-0.221334
C	9.5556	1.29832	0.63299
H	10.9103	0.31046	-0.542037
H	7.89927	1.91142	1.65526
O	10.3016	2.22005	1.00698
O	9.67107	-1.64851	-1.46142
