30
  This energy is 0.000431118 and Call times are: 16249
C	-0.399663	-0.651991	-1.15508
N	-1.47605	0.145701	-1.38562
C	-1.74031	1.15679	-0.522654
C	0.399511	-0.39146	-0.0220275
C	0.0134765	0.687773	0.789917
N	-1.04838	1.49603	0.586559
H	-2.60863	1.76095	-0.752997
N	-0.139815	-1.66128	-2.02063
H	-0.750698	-1.79246	-2.81007
H	0.649505	-2.269	-1.87726
N	1.54763	-1.01103	0.484743
C	1.84453	-0.319355	1.57668
N	0.948966	0.720993	1.80972
H	2.6786	-0.517242	2.22931
H	0.960934	1.3829	2.56888
C	11.4079	-2.30607	0.730909
C	10.5268	-1.11994	0.462144
H	12.4036	-1.9866	1.05941
H	11.5569	-2.89649	-0.180468
H	10.9792	-2.95538	1.5002
C	10.968	-0.154885	-0.54801
C	9.35082	-0.893375	1.09979
N	8.5596	0.213442	0.828187
H	8.96545	-1.56536	1.85676
N	10.0962	0.934604	-0.752128
C	8.88872	1.18732	-0.112103
H	10.3817	1.61419	-1.44643
H	7.68846	0.360109	1.31599
O	8.1701	2.17464	-0.345932
O	12.0252	-0.245596	-1.20428
