30
  This energy is -0.00284955 and Call times are: 16579
C	1.19328	0.690809	0.133805
N	1.26456	0.561266	1.48518
C	0.278818	-0.105864	2.13332
C	0.090927	0.122418	-0.538592
C	-0.859547	-0.54214	0.253862
N	-0.815481	-0.686562	1.59527
H	0.38473	-0.179711	3.2082
N	2.18111	1.35855	-0.509372
H	2.9401	1.74005	0.0309803
H	2.15685	1.47128	-1.50917
N	-0.269719	0.0803573	-1.89027
C	-1.41131	-0.594398	-1.90921
N	-1.81551	-0.995709	-0.638685
H	-1.98367	-0.8215	-2.79328
H	-2.64176	-1.51701	-0.393399
C	7.87515	-1.46874	-1.74244
C	7.10504	-0.535153	-0.853185
H	7.21613	-1.93386	-2.48457
H	8.3146	-2.28783	-1.1616
H	8.67866	-0.945576	-2.26961
C	5.99295	-1.09053	-0.0778012
C	7.38042	0.787565	-0.728677
N	6.64885	1.62378	0.10222
H	8.18757	1.26312	-1.27222
N	5.31179	-0.162008	0.736175
C	5.57527	1.19503	0.879704
H	4.53921	-0.524602	1.28121
H	6.87318	2.60475	0.177951
O	4.92803	1.95535	1.62058
O	5.63686	-2.28603	-0.101201
