30
  This energy is -0.00659605 and Call times are: 12245
C	0.549039	0.606664	1.11783
N	-0.499389	0.333353	1.93891
C	-1.56357	-0.34262	1.44149
C	0.483532	0.172683	-0.222964
C	-0.677383	-0.517701	-0.60854
N	-1.73277	-0.803257	0.18316
H	-2.3704	-0.53372	2.13757
N	1.61037	1.28261	1.61987
H	1.59318	1.56358	2.58649
H	2.40171	1.50003	1.03729
N	1.37295	0.291475	-1.29706
C	0.759911	-0.314043	-2.30523
N	-0.485137	-0.822749	-1.94504
H	1.15646	-0.416108	-3.30178
H	-1.13729	-1.32068	-2.52929
C	4.65449	-0.793528	-1.90046
C	5.79333	-0.463823	-0.978629
H	4.21154	0.118905	-2.31598
H	3.85206	-1.30964	-1.36089
H	4.98252	-1.4295	-2.72821
C	5.51024	0.383281	0.182695
C	7.0636	-0.904503	-1.16068
N	8.09411	-0.581323	-0.289798
H	7.34243	-1.5334	-1.99723
N	6.6216	0.654885	1.00719
C	7.92961	0.215444	0.841129
H	6.44848	1.2388	1.8162
H	9.03114	-0.921517	-0.446612
O	8.86213	0.497279	1.61371
O	4.38908	0.852765	0.464035
