30
  This energy is -0.0042098 and Call times are: 17274
C	0.759888	-0.766082	-0.868746
N	1.63297	0.227118	-1.18393
C	1.47269	1.44672	-0.614972
C	-0.28022	-0.482806	0.0413594
C	-0.33157	0.822706	0.557134
N	0.519925	1.82804	0.263118
H	2.19508	2.20085	-0.900419
N	0.924421	-1.98337	-1.44016
H	1.68824	-2.11855	-2.08195
H	0.294646	-2.73894	-1.22708
N	-1.31777	-1.26538	0.560912
C	-1.97755	-0.448126	1.37065
N	-1.42421	0.829046	1.40703
H	-2.84719	-0.714771	1.94804
H	-1.74216	1.62085	1.94234
C	5.6692	0.407555	2.70758
C	5.81223	0.118015	1.2409
H	5.80183	1.47669	2.90944
H	6.4399	-0.11496	3.28584
H	4.687	0.102017	3.08062
C	7.07815	0.471995	0.593942
C	4.83902	-0.450202	0.485319
N	5.00289	-0.70449	-0.868686
H	3.87981	-0.736411	0.898931
N	7.14745	0.174234	-0.782728
C	6.16536	-0.406492	-1.57634
H	8.01406	0.410619	-1.25019
H	4.26389	-1.12828	-1.40964
O	6.2991	-0.639978	-2.79022
O	8.05004	0.997905	1.17309
