30
  This energy is 0.000598097 and Call times are: 14538
C	-1.04165	0.862542	0.300023
N	-1.36816	1.12274	-0.993714
C	-0.656927	0.528063	-1.98232
C	0.0285899	-0.0195211	0.558692
C	0.681424	-0.566905	-0.558089
N	0.380034	-0.327452	-1.85192
H	-0.958507	0.769743	-2.9936
N	-1.75564	1.45947	1.28453
H	-2.50775	2.07881	1.03087
H	-1.53831	1.28705	2.25198
N	0.601369	-0.48389	1.74829
C	1.57645	-1.29213	1.35477
N	1.67042	-1.3799	-0.0316368
H	2.23738	-1.83321	2.0114
H	2.3252	-1.92465	-0.569334
C	7.99739	-0.939047	2.09784
C	7.0076	-0.415076	1.09724
H	8.88932	-0.303063	2.13488
H	8.34258	-1.94099	1.81796
H	7.56282	-0.988071	3.10083
C	7.44346	-0.291471	-0.296011
C	5.73847	-0.0514099	1.41026
N	4.84798	0.429659	0.461335
H	5.35118	-0.116943	2.41961
N	6.46731	0.206168	-1.18381
C	5.16342	0.584572	-0.886774
H	6.74728	0.299684	-2.15246
H	3.90868	0.693752	0.718858
O	4.35537	1.01686	-1.72707
O	8.58004	-0.590488	-0.714732
