30
  This energy is -0.000545879 and Call times are: 15928
C	-0.552013	-0.9406	0.854158
N	0.542801	-1.04499	1.65326
C	1.63573	-0.295198	1.37013
C	-0.50278	-0.0519832	-0.240511
C	0.691665	0.664971	-0.420234
N	1.79327	0.582285	0.355531
H	2.47915	-0.416822	2.03788
N	-1.64193	-1.69221	1.14142
H	-1.61086	-2.30681	1.93821
H	-2.46778	-1.63731	0.56882
N	-1.43675	0.279341	-1.22884
C	-0.817084	1.17529	-1.98526
N	0.47458	1.44669	-1.54185
H	-1.24062	1.65587	-2.85153
H	1.14051	2.08585	-1.9451
C	5.50055	0.134292	2.69345
C	5.89933	-0.120074	1.26808
H	4.56922	0.710229	2.74169
H	6.26074	0.730386	3.2113
H	5.35957	-0.802207	3.24148
C	6.126	1.04076	0.403507
C	6.0604	-1.35905	0.739002
N	6.42965	-1.56008	-0.58315
H	5.90905	-2.25978	1.32111
N	6.49755	0.733272	-0.921668
C	6.66839	-0.525606	-1.48523
H	6.65942	1.5211	-1.53693
H	6.54325	-2.49184	-0.953649
O	6.99909	-0.719873	-2.66794
O	6.01217	2.2295	0.764753
