30
  This energy is -0.000874493 and Call times are: 8948
C	0.489272	-0.465407	1.20956
N	0.353082	-1.78293	0.903536
C	-0.144518	-2.12684	-0.309297
C	0.104858	0.491405	0.246702
C	-0.395563	-0.00101125	-0.969903
N	-0.542063	-1.30128	-1.30157
H	-0.231986	-3.1887	-0.501273
N	0.987145	-0.126855	2.42318
H	1.24229	-0.859941	3.06433
H	1.09998	0.839862	2.67936
N	0.118446	1.89093	0.250366
C	-0.363064	2.23147	-0.937516
N	-0.690827	1.12582	-1.71777
H	-0.496789	3.24185	-1.28682
H	-1.07122	1.12364	-2.65045
C	6.27985	-2.59547	-0.483007
C	5.63746	-1.24671	-0.329356
H	6.41367	-3.07778	0.492119
H	7.27941	-2.50415	-0.923372
H	5.67869	-3.25375	-1.11746
C	6.32643	-0.250715	0.495088
C	4.46022	-0.901014	-0.908596
N	3.89288	0.354654	-0.746482
H	3.89857	-1.58779	-1.52985
N	5.67095	0.993611	0.598471
C	4.46688	1.37007	0.0153315
H	6.12991	1.69729	1.16381
H	3.01591	0.588095	-1.18781
O	3.94762	2.49148	0.152159
O	7.41141	-0.440324	1.0811
