30
  This energy is -0.00403879 and Call times are: 16139
C	-0.725806	-0.625946	1.00021
N	-1.48229	-1.37768	0.157184
C	-1.28545	-1.26403	-1.17892
C	0.236014	0.244122	0.445014
C	0.336891	0.264641	-0.955851
N	-0.399365	-0.469141	-1.81705
H	-1.91416	-1.88484	-1.80451
N	-0.926426	-0.743213	2.33489
H	-1.62974	-1.38342	2.66515
H	-0.382379	-0.20029	2.98462
N	1.15144	1.13055	1.0239
C	1.78791	1.67139	-0.00628667
N	1.33525	1.18371	-1.22938
H	2.57128	2.40761	0.0649398
H	1.65842	1.43743	-2.14904
C	6.14814	-1.09791	-2.47717
C	6.6806	-0.604406	-1.1625
H	5.95043	-0.261436	-3.15733
H	5.19351	-1.61902	-2.34112
H	6.85204	-1.78151	-2.96139
C	5.84807	0.322559	-0.391757
C	7.88393	-0.967334	-0.651419
N	8.34724	-0.492749	0.567171
H	8.54919	-1.64824	-1.16801
N	6.40549	0.747498	0.831924
C	7.6338	0.389975	1.37507
H	5.84662	1.38882	1.38127
H	9.24623	-0.777541	0.926406
O	8.06085	0.807476	2.46559
O	4.72524	0.73388	-0.747594
