30
  This energy is 2.0975e-05 and Call times are: 10336
C	-1.02266	0.265692	-0.895885
N	-1.30558	-1.03819	-1.1565
C	-0.586068	-2.003	-0.533393
C	0.0126964	0.559381	0.0163378
C	0.678809	-0.535469	0.591332
N	0.420351	-1.83862	0.352213
H	-0.852372	-3.02373	-0.776787
N	-1.74475	1.22632	-1.52129
H	-2.47039	0.94808	-2.16131
H	-1.55931	2.20047	-1.34937
N	0.538302	1.76725	0.489248
C	1.49866	1.40592	1.32951
N	1.62778	0.0232171	1.43012
H	2.12457	2.08395	1.88563
H	2.28008	-0.492743	1.99835
C	15.5678	0.683263	2.0473
C	16.5837	0.48983	0.958287
H	15.7497	-0.00775228	2.87844
H	14.5572	0.468589	1.68131
H	15.5879	1.70647	2.43445
C	16.6776	-0.833862	0.337455
C	17.4156	1.4679	0.519666
N	18.3441	1.25641	-0.489215
H	17.3998	2.46841	0.934167
N	17.6503	-0.948568	-0.677125
C	18.5121	0.0374262	-1.14248
H	17.7322	-1.85543	-1.12019
H	18.9521	2.00017	-0.798355
O	19.3484	-0.13848	-2.04559
O	15.9734	-1.81609	0.647197
