30
  This energy is -0.00107494 and Call times are: 17008
C	1.37874	0.134418	-0.00582474
N	1.63294	-1.17256	-0.280174
C	0.591034	-2.02625	-0.430106
C	0.034862	0.54744	0.11149
C	-0.94834	-0.439672	-0.0672418
N	-0.726474	-1.74295	-0.340049
H	0.849381	-3.05487	-0.647439
N	2.42367	0.983714	0.143131
H	3.35885	0.623582	0.0465726
H	2.2681	1.95701	0.346619
N	-0.549562	1.79036	0.380696
C	-1.85463	1.555	0.364022
N	-2.15334	0.221406	0.0976085
H	-2.62083	2.2931	0.534045
H	-3.06478	-0.202464	0.032715
C	5.12179	-1.14887	-2.28946
C	5.70723	-0.371064	-1.14591
H	4.23947	-1.71346	-1.96675
H	5.83938	-1.88545	-2.6688
H	4.83127	-0.489664	-3.11305
C	6.146	-1.11771	0.0357792
C	5.85152	0.978048	-1.14618
N	6.39654	1.66718	-0.0724474
H	5.54841	1.59115	-1.986
N	6.68575	-0.328802	1.07259
C	6.8433	1.05187	1.0949
H	6.99568	-0.824689	1.8993
H	6.49357	2.67135	-0.0964455
O	7.33014	1.68169	2.05
O	6.0694	-2.35645	0.163157
