30
  This energy is 0.000397126 and Call times are: 8184
C	-1.08915	-0.276253	0.81023
N	-0.817526	0.693278	1.72363
C	0.272343	1.47835	1.54283
C	-0.220533	-0.423858	-0.291625
C	0.87232	0.45607	-0.358106
N	1.16705	1.42683	0.532363
H	0.44209	2.23407	2.29921
N	-2.17974	-1.05833	0.9955
H	-2.7584	-0.899899	1.80398
H	-2.40749	-1.78457	0.337011
N	-0.219988	-1.30281	-1.3808
C	0.849319	-0.958466	-2.08571
N	1.54804	0.100938	-1.51289
H	1.16625	-1.42776	-3.00227
H	2.38688	0.540263	-1.85631
C	8.16239	-1.33013	1.45415
C	9.20589	-0.74572	0.545851
H	7.36567	-0.603856	1.65202
H	8.59341	-1.59028	2.42777
H	7.71416	-2.22914	1.02041
C	9.89904	0.465946	0.990601
C	9.54064	-1.27474	-0.657895
N	10.51	-0.709788	-1.47405
H	9.0684	-2.16815	-1.04758
N	10.8659	0.963004	0.0923918
C	11.2253	0.439186	-1.14375
H	11.3575	1.80028	0.379954
H	10.7415	-1.12207	-2.36555
O	12.0919	0.93505	-1.8847
O	9.68626	1.05053	2.07206
