30
  This energy is -0.00452827 and Call times are: 14392
C	0.890854	-0.998431	0.358532
N	-0.0549311	-1.96192	0.517438
C	-1.35504	-1.64758	0.298909
C	0.475989	0.293152	-0.0288457
C	-0.902163	0.483545	-0.222414
N	-1.86313	-0.452519	-0.0723931
H	-2.06647	-2.45141	0.439524
N	2.189	-1.3177	0.578174
H	2.41709	-2.25905	0.852812
H	2.91237	-0.626555	0.46884
N	1.18184	1.47713	-0.271404
C	0.248471	2.35893	-0.603244
N	-1.03182	1.81181	-0.59002
H	0.430878	3.38947	-0.859128
H	-1.89997	2.27577	-0.803688
C	6.16195	0.414655	-2.76742
C	5.96594	0.276677	-1.28487
H	6.27868	-0.567823	-3.23913
H	7.07675	0.975923	-2.98991
H	5.31631	0.927416	-3.23564
C	7.01831	-0.391152	-0.514858
C	4.87374	0.733689	-0.622162
N	4.72292	0.589997	0.749498
H	4.05902	1.23616	-1.12894
N	6.77284	-0.487909	0.870445
C	5.66364	-0.0281588	1.57036
H	7.48772	-0.946066	1.42222
H	3.90099	0.938563	1.2199
O	5.51596	-0.150104	2.79887
O	8.06939	-0.85536	-1.00099
