30
  This energy is 0.000142996 and Call times are: 4950
C	-0.813662	-0.0212447	1.12095
N	-1.22621	1.26873	1.00331
C	-0.759596	2.01551	-0.026951
C	0.0866742	-0.529109	0.160832
C	0.491214	0.351955	-0.855581
N	0.0990982	1.63577	-0.997847
H	-1.1198	3.03538	-0.0735394
N	-1.28298	-0.763516	2.15252
H	-1.92385	-0.339452	2.80295
H	-0.996318	-1.72147	2.26676
N	0.687821	-1.78304	0.00223793
C	1.43669	-1.65788	-1.08515
N	1.35582	-0.385898	-1.64568
H	2.04909	-2.43576	-1.51015
H	1.82767	-0.0463683	-2.46829
C	6.8951	1.88967	1.87954
C	7.50756	0.974903	0.858013
H	6.66745	1.34636	2.80387
H	5.94441	2.29816	1.51801
H	7.56267	2.72244	2.12058
C	6.73066	-0.191456	0.430892
C	8.7344	1.16749	0.311479
N	9.27209	0.302651	-0.630746
H	9.36156	2.00815	0.581718
N	7.36207	-1.00891	-0.529202
C	8.61574	-0.832079	-1.10244
H	6.84258	-1.8211	-0.838864
H	10.1872	0.467353	-1.02291
O	9.10926	-1.59892	-1.9476
O	5.59363	-0.4823	0.854135
