30
  This energy is 0.000309712 and Call times are: 8250
C	0.267328	-0.851157	1.05976
N	1.22859	-1.56208	0.412745
C	1.54162	-1.23173	-0.863864
C	-0.365795	0.204792	0.370931
C	0.0538932	0.441015	-0.948569
N	1.0042	-0.247096	-1.61611
H	2.31335	-1.82959	-1.33188
N	-0.0418959	-1.18532	2.33572
H	0.448481	-1.95039	2.76908
H	-0.748946	-0.678096	2.8414
N	-1.36927	1.10632	0.743968
C	-1.54827	1.86702	-0.327563
N	-0.712899	1.50879	-1.38231
H	-2.25343	2.67814	-0.402359
H	-0.660208	1.9321	-2.2948
C	13.9746	0.145311	0.33896
C	12.5075	-0.114693	0.150965
H	14.1583	0.690179	1.27211
H	14.3666	0.77358	-0.46911
H	14.5453	-0.787924	0.362531
C	11.609	1.04135	0.0983928
C	11.9704	-1.35457	0.0278857
N	10.6093	-1.56088	-0.14462
H	12.5761	-2.25195	0.0578278
N	10.2455	0.728689	-0.0796835
C	9.67297	-0.531213	-0.20792
H	9.60635	1.51315	-0.119003
H	10.2336	-2.4932	-0.233862
O	8.4555	-0.730175	-0.363127
O	11.9735	2.23035	0.19834
