44
  This energy is 0 and Call times are: 7424
C	1.15443	-2.86035	1.61195
C	0.0632603	-1.95644	1.18364
O	-1.10973	-2.28955	1.28135
H	0.717833	-3.81292	1.98326
H	1.74129	-2.39127	2.42944
H	1.82572	-3.0824	0.755703
N	0.432906	-0.772814	0.688905
C	-0.512532	0.195291	0.191432
C	0.17565	1.02198	-0.878404
O	1.38593	0.921709	-1.07043
H	1.39296	-0.53239	0.577711
H	-1.33791	-0.321914	-0.281737
C	-1.02428	1.10291	1.33142
H	-0.179076	1.64177	1.81027
H	-1.76347	1.84372	0.963547
H	-1.51701	0.476108	2.10647
N	-0.587347	1.85779	-1.61004
C	-0.0209385	2.67993	-2.6538
H	-1.56557	1.92205	-1.44265
H	-0.808699	3.2971	-3.13935
H	0.459673	2.04727	-3.43485
H	0.754181	3.36385	-2.23837
C	203.654	-1.51988	1.66139
C	202.39	-1.58203	0.89353
O	201.977	-2.63984	0.438617
H	204.104	-2.53502	1.70991
H	203.457	-1.16435	2.69461
H	204.37	-0.832199	1.16431
N	201.738	-0.428405	0.728283
C	200.518	-0.32266	-0.0318535
C	200.44	1.0782	-0.609
O	201.24	1.94633	-0.26525
H	202.108	0.431141	1.06946
H	200.555	-1.01323	-0.865133
C	199.288	-0.611485	0.85642
H	199.244	0.103393	1.70555
H	198.343	-0.546782	0.279378
H	199.37	-1.6386	1.27429
N	199.472	1.32925	-1.51265
C	199.325	2.63144	-2.11978
H	198.837	0.612795	-1.78124
H	198.473	2.63726	-2.83552
H	200.249	2.91419	-2.67299
H	199.136	3.40788	-1.34352
