44
  This energy is 0 and Call times are: 7396
C	1.58076	-1.61405	-2.6474
C	0.957798	-0.419264	-2.03458
O	1.05125	0.682293	-2.55827
H	2.11102	-1.31543	-3.57774
H	0.802156	-2.36342	-2.90228
H	2.31308	-2.06622	-1.94574
N	0.2989	-0.614648	-0.890003
C	-0.322668	0.457902	-0.153899
C	-0.332874	0.0795004	1.3152
O	-0.0129596	-1.05135	1.6765
H	0.266335	-1.50987	-0.454826
H	0.277958	1.35358	-0.252128
C	-1.76036	0.711998	-0.657601
H	-2.37984	-0.203483	-0.547267
H	-2.24482	1.54488	-0.107938
H	-1.72936	0.979457	-1.73642
N	-0.695371	1.02687	2.2024
C	-0.729482	0.760079	3.6215
H	-0.946923	1.93733	1.89119
H	-1.0518	1.66396	4.18394
H	0.278434	0.459539	3.989
H	-1.44059	-0.0667855	3.84901
C	199.753	1.94508	2.78612
C	199.399	1.7983	1.35635
O	199.065	2.76453	0.684466
H	199.641	3.01003	3.08478
H	200.805	1.63363	2.95367
H	199.079	1.32333	3.41291
N	199.463	0.563504	0.852822
C	199.107	0.256506	-0.510114
C	198.612	-1.17667	-0.558272
O	198.719	-1.91327	0.420311
H	199.697	-0.219118	1.42264
H	198.286	0.892093	-0.816617
C	200.317	0.443269	-1.45174
H	201.156	-0.216298	-1.14404
H	200.052	0.223272	-2.50621
H	200.667	1.49691	-1.39431
N	198.046	-1.60466	-1.70418
C	197.541	-2.9509	-1.84109
H	197.965	-0.992666	-2.48385
H	197.115	-3.10954	-2.85597
H	196.743	-3.14899	-1.09015
H	198.356	-3.69428	-1.68287
