44
  This energy is 0 and Call times are: 8488
C	-3.15463	-1.31672	-0.653649
C	-2.24459	-0.176195	-0.404308
O	-2.61222	0.977172	-0.580381
H	-4.13327	-0.933355	-1.01582
H	-3.31741	-1.88853	0.28405
H	-2.72375	-1.98837	-1.42586
N	-1.0144	-0.479544	0.0164051
C	-0.00388443	0.51951	0.25994
C	1.3541	-0.113341	0.0213282
O	1.46142	-1.32483	-0.158917
H	-0.716964	-1.42481	0.115801
H	-0.1158	1.32305	-0.457295
C	-0.101974	1.0633	1.70213
H	0.0232999	0.240985	2.43843
H	0.662103	1.84334	1.89769
H	-1.10639	1.51454	1.85669
N	2.42882	0.699541	0.00633715
C	3.76059	0.187765	-0.21875
H	2.32146	1.67775	0.150067
H	4.50773	1.01142	-0.194375
H	3.82564	-0.315173	-1.21077
H	4.0332	-0.556465	0.56416
C	277.358	-3.17424	-1.38171
C	277.129	-2.27223	-0.23059
O	276.76	-2.70791	0.851547
H	277.126	-4.21926	-1.08111
H	278.418	-3.11968	-1.70559
H	276.698	-2.8895	-2.22819
N	277.343	-0.971891	-0.443678
C	277.122	0.0320416	0.567096
C	276.765	1.33231	-0.128006
O	276.863	1.44178	-1.34863
H	277.603	-0.627877	-1.3414
H	276.272	-0.253497	1.17403
C	278.378	0.215706	1.4467
H	279.248	0.518895	0.825954
H	278.215	0.976318	2.23763
H	278.626	-0.749969	1.93915
N	276.33	2.35196	0.638272
C	275.961	3.62521	0.0643376
H	276.252	2.24296	1.62378
H	275.63	4.33235	0.856258
H	275.129	3.50097	-0.665662
H	276.826	4.07941	-0.471871
