44
  This energy is 0 and Call times are: 10924
C	2.56175	-2.0321	1.19194
C	1.52885	-1.69115	0.187938
O	1.48507	-2.2608	-0.893724
H	3.22771	-2.82135	0.780286
H	2.08356	-2.41284	2.11883
H	3.17221	-1.13621	1.43234
N	0.661565	-0.735459	0.529784
C	-0.372539	-0.265464	-0.358075
C	-0.674303	1.17988	-0.00953098
O	-0.194832	1.69831	0.996971
H	0.735156	-0.252435	1.39762
H	-0.00381704	-0.281558	-1.37612
C	-1.64541	-1.13061	-0.229357
H	-2.03009	-1.10597	0.812492
H	-2.44435	-0.787273	-0.918068
H	-1.39932	-2.18529	-0.481245
N	-1.4755	1.8703	-0.844651
C	-1.81367	3.25255	-0.597214
H	-1.85059	1.43479	-1.65626
H	-2.4818	3.64304	-1.39618
H	-0.89528	3.88267	-0.569324
H	-2.33615	3.36036	0.380813
C	450.176	2.62992	-2.12525
C	450.493	1.20555	-1.8767
O	450.329	0.359704	-2.74509
H	449.78	2.74333	-3.15797
H	451.091	3.24962	-2.02093
H	449.407	2.98209	-1.40533
N	450.96	0.904635	-0.662765
C	451.272	-0.443491	-0.258318
C	451.078	-0.543794	1.243
O	450.873	0.461796	1.92013
H	451.049	1.59778	0.046767
H	450.571	-1.1267	-0.720481
C	452.721	-0.813176	-0.643105
H	453.442	-0.119012	-0.160768
H	452.97	-1.85368	-0.349352
H	452.842	-0.725127	-1.74489
N	451.131	-1.76991	1.79968
C	450.952	-1.96353	3.21984
H	451.293	-2.5721	1.2348
H	451.03	-3.04159	3.48256
H	449.952	-1.59486	3.54388
H	451.728	-1.4061	3.79309
