44
  This energy is 0 and Call times are: 6220
C	-1.79279	-2.21502	-1.99806
C	-1.33214	-1.73205	-0.67682
O	-1.81865	-2.16302	0.359511
H	-2.60449	-2.96084	-1.85391
H	-0.954184	-2.69734	-2.5429
H	-2.18555	-1.36815	-2.59943
N	-0.368194	-0.80841	-0.685672
C	0.152618	-0.211696	0.519005
C	0.638847	1.18548	0.18278
O	0.702992	1.56607	-0.98459
H	-0.0108552	-0.437635	-1.53814
H	-0.647264	-0.109647	1.24178
C	1.30407	-1.06014	1.1017
H	2.12947	-1.15631	0.364478
H	1.70439	-0.618402	2.03719
H	0.92751	-2.08049	1.33284
N	0.986881	1.98967	1.20658
C	1.45583	3.33744	0.983447
H	0.92426	1.66522	2.1446
H	1.69106	3.8369	1.94907
H	0.681391	3.94058	0.456433
H	2.37676	3.33444	0.356537
C	115.284	3.33776	-0.944228
C	115.4	1.88925	-1.22616
O	115.586	1.47865	-2.36332
H	115.374	3.90553	-1.89571
H	116.093	3.65961	-0.255356
H	114.298	3.56041	-0.485263
N	115.288	1.06983	-0.178109
C	115.336	-0.365855	-0.300703
C	114.514	-0.964644	0.824702
O	114.084	-0.258782	1.73492
H	115.096	1.41691	0.735333
H	114.871	-0.660683	-1.23279
C	116.793	-0.876154	-0.237809
H	117.268	-0.58301	0.722703
H	116.844	-1.97904	-0.344994
H	117.378	-0.41902	-1.06546
N	114.268	-2.28895	0.783222
C	113.49	-2.94571	1.80765
H	114.621	-2.84281	0.0364315
H	113.399	-4.03384	1.59559
H	112.465	-2.51233	1.86078
H	113.969	-2.82157	2.80557
