44
  This energy is 0 and Call times are: 12464
C	-0.882904	2.62508	-2.10764
C	0.0571488	1.57295	-1.65989
O	1.03518	1.27115	-2.3298
H	-0.548523	3.02224	-3.09066
H	-0.904664	3.45689	-1.37255
H	-1.90421	2.2036	-2.21894
N	-0.225361	0.980324	-0.497409
C	0.571913	-0.0902442	0.0473804
C	-0.329189	-0.965336	0.898135
O	-1.47926	-0.618265	1.16005
H	-1.04744	1.20835	0.0164513
H	0.946807	-0.704067	-0.762131
C	1.7399	0.465935	0.891007
H	1.35543	1.08712	1.72788
H	2.3694	-0.348416	1.30464
H	2.38149	1.10952	0.250298
N	0.173838	-2.13298	1.34489
C	-0.611687	-3.03327	2.15644
H	1.10529	-2.39845	1.11905
H	-0.0223681	-3.93822	2.42287
H	-1.52592	-3.35895	1.60929
H	-0.933013	-2.53381	3.09901
C	563.063	-2.54927	-1.16605
C	561.725	-1.97868	-0.889928
O	560.71	-2.50497	-1.32531
H	562.952	-3.45287	-1.80409
H	563.559	-2.8388	-0.215904
H	563.692	-1.80701	-1.70041
N	561.695	-0.868598	-0.148861
C	560.472	-0.173926	0.167447
C	560.798	1.29543	0.357607
O	561.964	1.68134	0.398853
H	562.532	-0.429053	0.163977
H	559.792	-0.24737	-0.672155
C	559.822	-0.753798	1.44288
H	560.515	-0.669104	2.30686
H	558.872	-0.23637	1.68916
H	559.599	-1.83149	1.28382
N	559.766	2.15542	0.470099
C	559.98	3.57276	0.648177
H	558.829	1.82474	0.430183
H	559.009	4.11088	0.719463
H	560.552	3.99456	-0.209621
H	560.559	3.76903	1.57945
