44
  This energy is 0 and Call times are: 11932
C	1.30452	2.50804	-2.02994
C	0.464421	2.05105	-0.900102
O	-0.0086932	2.84696	-0.100665
H	1.41346	3.61339	-1.98306
H	0.829308	2.23439	-2.99536
H	2.31191	2.04478	-1.96963
N	0.259625	0.735072	-0.807158
C	-0.500147	0.136624	0.262032
C	0.0259423	-1.26839	0.48723
O	0.833257	-1.77103	-0.292071
H	0.685142	0.0963108	-1.44181
H	-0.332261	0.694126	1.17507
C	-2.00522	0.102484	-0.0826819
H	-2.17911	-0.478255	-1.01356
H	-2.60266	-0.343503	0.738712
H	-2.36678	1.14039	-0.251122
N	-0.416516	-1.93545	1.57134
C	0.0328638	-3.27525	1.86996
H	-1.06659	-1.51051	2.19255
H	-0.444235	-3.65157	2.80162
H	1.1381	-3.29705	2.00873
H	-0.224459	-3.97062	1.03846
C	522.509	-2.26694	-2.59465
C	522.019	-1.48514	-1.43692
O	520.824	-1.40351	-1.18792
H	521.641	-2.69959	-3.13886
H	523.164	-3.09342	-2.2486
H	523.076	-1.61035	-3.28732
N	522.949	-0.881103	-0.693002
C	522.624	-0.050537	0.439804
C	523.721	0.985665	0.596504
O	524.754	0.914721	-0.0668674
H	523.914	-0.92318	-0.932212
H	521.703	0.482539	0.239539
C	522.491	-0.897174	1.72466
H	523.439	-1.43602	1.93635
H	522.228	-0.270855	2.60147
H	521.688	-1.6537	1.58442
N	523.517	1.98395	1.47839
C	524.502	3.0183	1.69079
H	522.673	2.0267	2.00298
H	524.149	3.74704	2.45346
H	524.702	3.57082	0.74417
H	525.463	2.57902	2.04354
