44
  This energy is 0 and Call times are: 9328
C	0.205038	2.80718	-2.04704
C	0.252852	1.34307	-1.83437
O	0.2654	0.566262	-2.77926
H	0.167359	3.01885	-3.13775
H	1.11088	3.28584	-1.61915
H	-0.700417	3.2343	-1.56661
N	0.278705	0.928216	-0.565666
C	0.282768	-0.466368	-0.200043
C	-0.379219	-0.601133	1.15833
O	-0.660355	0.39402	1.82342
H	0.226656	1.57127	0.193047
H	-0.31805	-1.02311	-0.908338
C	1.72338	-1.02143	-0.157788
H	2.33733	-0.45742	0.576378
H	1.73894	-2.09802	0.109079
H	2.19099	-0.905234	-1.15988
N	-0.65261	-1.84458	1.60006
C	-1.2863	-2.07039	2.8782
H	-0.421335	-2.63728	1.04581
H	-1.4265	-3.15861	3.06083
H	-2.28482	-1.5775	2.91408
H	-0.665504	-1.65322	3.70386
C	338.349	-2.20862	2.32696
C	338.416	-1.45436	1.05503
O	339.457	-1.38105	0.416414
H	339.352	-2.63075	2.55664
H	337.62	-3.04128	2.24031
H	338.044	-1.53524	3.15564
N	337.287	-0.865279	0.654492
C	337.206	-0.0613297	-0.539565
C	336.115	0.973488	-0.34052
O	335.366	0.919895	0.63332
H	336.458	-0.899776	1.20588
H	338.138	0.474102	-0.673033
C	336.903	-0.937169	-1.775
H	335.942	-1.47857	-1.64305
H	336.853	-0.331476	-2.70295
H	337.711	-1.6921	-1.89662
N	336.005	1.95107	-1.26149
C	335	2.98252	-1.15238
H	336.622	1.98004	-2.04044
H	335.071	3.693	-2.00524
H	335.127	3.55681	-0.206229
H	333.978	2.53749	-1.15103
