44
  This energy is 0 and Call times are: 9076
C	-2.01091	-0.180457	-2.83485
C	-1.702	0.349778	-1.48779
O	-2.32009	1.29793	-1.02369
H	-2.8275	0.422289	-3.28845
H	-2.3419	-1.23784	-2.76328
H	-1.11356	-0.117498	-3.48593
N	-0.719542	-0.260362	-0.820799
C	-0.276388	0.168981	0.482213
C	1.18753	-0.200864	0.629524
O	1.7449	-0.910639	-0.205507
H	-0.198225	-1.00467	-1.22836
H	-0.344422	1.24789	0.545102
C	-1.11677	-0.492515	1.5964
H	-1.03888	-1.59916	1.53883
H	-0.794269	-0.159225	2.60409
H	-2.18526	-0.214673	1.46416
N	1.85002	0.282476	1.69888
C	3.24678	-0.0119591	1.91921
H	1.38298	0.858529	2.36153
H	3.60948	0.47636	2.85046
H	3.86458	0.354781	1.06768
H	3.40675	-1.11041	2.01387
C	317.329	-0.834659	2.93656
C	318.413	-1.04212	1.94975
O	319.35	-1.79175	2.18695
H	317.544	-1.43191	3.8492
H	316.357	-1.16368	2.51247
H	317.266	0.238244	3.21581
N	318.307	-0.368441	0.801977
C	319.305	-0.434351	-0.236769
C	319.279	0.876239	-1.00051
O	318.392	1.70375	-0.802306
H	317.559	0.269438	0.640086
H	320.285	-0.525988	0.214514
C	319.033	-1.62056	-1.18783
H	318.032	-1.52155	-1.65912
H	319.802	-1.69035	-1.98401
H	319.048	-2.56813	-0.606258
N	320.265	1.09962	-1.89163
C	320.327	2.32063	-2.66075
H	320.977	0.419842	-2.03516
H	321.21	2.31543	-3.33707
H	320.406	3.20511	-1.98791
H	319.41	2.44035	-3.28199
