44
  This energy is 0 and Call times are: 7844
C	-1.28668	-0.908013	3.10365
C	-0.505207	-1.19992	1.88086
O	0.20057	-2.19607	1.80346
H	-1.09434	-1.69958	3.86016
H	-2.37183	-0.890921	2.86934
H	-0.984374	0.0735715	3.52578
N	-0.614643	-0.320293	0.882534
C	0.117726	-0.446162	-0.352922
C	0.337696	0.945191	-0.91622
O	-0.220758	1.92136	-0.419296
H	-1.16112	0.507071	0.975807
H	1.0933	-0.869298	-0.148366
C	-0.65224	-1.32406	-1.36371
H	-1.64897	-0.884815	-1.58195
H	-0.0921681	-1.44	-2.31418
H	-0.808826	-2.33473	-0.927381
N	1.16952	1.06916	-1.96918
C	1.4438	2.35433	-2.5686
H	1.61533	0.268173	-2.35485
H	2.15109	2.24804	-3.42045
H	1.89555	3.0474	-1.82237
H	0.505218	2.81949	-2.94785
C	229.702	2.63164	1.87133
C	230.774	2.01614	1.05669
O	231.723	2.67582	0.657473
H	229.919	3.71331	2.00757
H	229.653	2.14649	2.86882
H	228.722	2.52372	1.35951
N	230.641	0.715534	0.786224
C	231.58	-0.0121992	-0.0302641
C	230.838	-1.15122	-0.70382
O	229.682	-1.42496	-0.386189
H	229.841	0.201391	1.08367
H	231.952	0.637751	-0.812496
C	232.747	-0.55571	0.822734
H	232.367	-1.23089	1.61881
H	233.484	-1.10623	0.20318
H	233.271	0.29426	1.31237
N	231.488	-1.84031	-1.66253
C	230.86	-2.93688	-2.36224
H	232.421	-1.6013	-1.90855
H	231.555	-3.37446	-3.11209
H	229.944	-2.59074	-2.89373
H	230.563	-3.73951	-1.64908
