44
  This energy is 0 and Call times are: 7340
C	-2.7236	-1.43122	1.62675
C	-1.26718	-1.28217	1.40818
O	-0.457392	-1.77155	2.18352
H	-2.89766	-2.00747	2.56137
H	-3.18423	-1.97729	0.776822
H	-3.19979	-0.432991	1.72609
N	-0.896935	-0.588525	0.32922
C	0.483043	-0.322626	0.00747554
C	0.545627	0.980795	-0.766301
O	-0.481964	1.5305	-1.15821
H	-1.56795	-0.161467	-0.270132
H	1.04259	-0.181014	0.923711
C	1.08773	-1.47533	-0.823709
H	0.520487	-1.61411	-1.7687
H	2.15404	-1.28886	-1.06604
H	1.02406	-2.42038	-0.241327
N	1.76197	1.51264	-0.997962
C	1.91936	2.753	-1.72109
H	2.58165	1.05524	-0.669352
H	2.99466	3.02403	-1.80766
H	1.3899	3.5823	-1.19839
H	1.49576	2.66589	-2.74779
C	191.971	-1.27481	-1.14492
C	193.229	-1.39877	-0.376002
O	193.412	-2.33203	0.393512
H	191.294	-2.11671	-0.880702
H	192.182	-1.31213	-2.23421
H	191.465	-0.317138	-0.899431
N	194.14	-0.44153	-0.569475
C	195.395	-0.402814	0.138901
C	195.831	1.04606	0.250082
O	195.235	1.9315	-0.360736
H	193.96	0.333741	-1.16826
H	195.248	-0.773769	1.14566
C	196.468	-1.23642	-0.594628
H	196.626	-0.849685	-1.62393
H	197.436	-1.22584	-0.0517106
H	196.125	-2.29111	-0.671522
N	196.883	1.32325	1.04525
C	197.365	2.67371	1.21689
H	197.349	0.593823	1.53461
H	198.236	2.69515	1.90845
H	196.567	3.32565	1.639
H	197.683	3.10493	0.239851
