44
  This energy is 0 and Call times are: 5604
C	1.83484	-2.95698	-0.0481302
C	1.7253	-1.49435	0.151501
O	2.6367	-0.854597	0.657938
H	2.81533	-3.30831	0.340569
H	1.76818	-3.20175	-1.12905
H	1.0228	-3.47988	0.499834
N	0.585687	-0.924662	-0.247407
C	0.315113	0.481479	-0.0797238
C	-1.18568	0.662334	0.0485968
O	-1.95314	-0.275304	-0.160105
H	-0.163233	-1.46493	-0.620357
H	0.761502	0.823273	0.845773
C	0.858169	1.29421	-1.27546
H	0.392679	0.951049	-2.22393
H	0.668263	2.38008	-1.15158
H	1.95654	1.14061	-1.35505
N	-1.64052	1.8795	0.405891
C	-3.05224	2.14417	0.558108
H	-1.00382	2.62465	0.574507
H	-3.22414	3.20189	0.856277
H	-3.49371	1.48368	1.33922
H	-3.59257	1.95695	-0.397995
C	68.5374	1.42091	-2.00727
C	69.8263	0.71531	-1.8285
O	70.4098	0.212554	-2.77883
H	68.2412	1.37914	-3.07798
H	68.6377	2.48407	-1.70336
H	67.7473	0.935114	-1.39668
N	70.3049	0.660077	-0.583401
C	71.5255	-0.0288708	-0.24587
C	71.4173	-0.507058	1.18982
O	70.484	-0.147181	1.90481
H	69.7982	1.03851	0.185929
H	71.6249	-0.90698	-0.871708
C	72.7482	0.89913	-0.416774
H	72.6517	1.79501	0.232947
H	73.6956	0.376038	-0.173188
H	72.803	1.2432	-1.47268
N	72.3723	-1.34212	1.64441
C	72.3491	-1.85321	2.99512
H	73.1173	-1.62532	1.04962
H	73.2181	-2.52315	3.1771
H	71.4154	-2.43233	3.17994
H	72.3892	-1.01857	3.73194
