44
  This energy is 0 and Call times are: 12660
C	-2.2254	0.967223	2.49495
C	-1.93121	0.474522	1.13046
O	-2.81899	0.0419429	0.408561
H	-3.31154	0.850632	2.70132
H	-1.95663	2.0411	2.5803
H	-1.6523	0.382216	3.24489
N	-0.654929	0.528345	0.742401
C	-0.207822	0.0459171	-0.540533
C	1.23441	-0.403407	-0.400464
O	1.86905	-0.172478	0.626974
H	0.0625038	0.845019	1.3563
H	-0.790931	-0.823238	-0.818354
C	-0.329927	1.14665	-1.61697
H	0.276502	2.03446	-1.33756
H	-0.00168766	0.783198	-2.6123
H	-1.39207	1.46577	-1.69672
N	1.78559	-1.06795	-1.43516
C	3.15025	-1.53899	-1.39017
H	1.25487	-1.24893	-2.25654
H	3.41736	-2.06127	-2.33521
H	3.29262	-2.25012	-0.544418
H	3.85526	-0.688143	-1.24821
C	578.367	0.052368	0.877505
C	577.284	0.0291783	-0.130367
O	577.517	0.22263	-1.31549
H	579.332	0.279506	0.374117
H	578.447	-0.936009	1.37708
H	578.166	0.835752	1.63826
N	576.053	-0.210155	0.327449
C	574.891	-0.221275	-0.525857
C	573.689	0.18667	0.305815
O	573.777	0.298801	1.52703
H	575.873	-0.325084	1.3002
H	575.012	0.522036	-1.30396
C	574.672	-1.6203	-1.14258
H	574.538	-2.38155	-0.344848
H	573.788	-1.63827	-1.81265
H	575.567	-1.90157	-1.74008
N	572.533	0.42772	-0.342556
C	571.338	0.82641	0.36504
H	572.482	0.33566	-1.33151
H	570.494	0.97732	-0.342861
H	571.508	1.77958	0.916328
H	571.041	0.0480133	1.10467
