44
  This energy is 0 and Call times are: 7984
C	-3.42676	0.215415	-0.568854
C	-2.25623	-0.350516	0.138759
O	-2.39442	-1.04313	1.13756
H	-4.3565	-0.0811444	-0.0363862
H	-3.46917	-0.17147	-1.60869
H	-3.36239	1.3238	-0.5894
N	-1.0571	-0.0606771	-0.371606
C	0.175676	-0.503344	0.230775
C	1.2569	0.505209	-0.108814
O	1.04719	1.40375	-0.921436
H	-0.958806	0.538158	-1.16129
H	0.0654927	-0.507712	1.30803
C	0.565819	-1.90789	-0.279411
H	0.689286	-1.9015	-1.38338
H	1.50623	-2.26574	0.187589
H	-0.243114	-2.62781	-0.0270394
N	2.44426	0.383501	0.51681
C	3.53071	1.30033	0.261414
H	2.59361	-0.347628	1.17424
H	4.42157	1.03426	0.871984
H	3.23183	2.34355	0.51365
H	3.82191	1.275	-0.813622
C	243.393	-1.95084	-1.60595
C	243.006	-0.825837	-0.725238
O	243.839	-0.231618	-0.0543774
H	244.487	-2.12805	-1.51609
H	243.154	-1.70929	-2.6629
H	242.854	-2.87419	-1.30676
N	241.71	-0.505577	-0.706546
C	241.176	0.53754	0.132919
C	239.735	0.191043	0.458362
O	239.169	-0.743244	-0.105999
H	241.038	-1.02501	-1.22693
H	241.721	0.558522	1.06793
C	241.257	1.90913	-0.572355
H	240.688	1.8913	-1.52652
H	240.861	2.72274	0.0693895
H	242.319	2.13843	-0.808109
N	239.108	0.936462	1.38934
C	237.738	0.67727	1.76808
H	239.583	1.6857	1.83799
H	237.403	1.39656	2.54743
H	237.631	-0.354628	2.17442
H	237.062	0.773233	0.887865
