44
  This energy is 0 and Call times are: 10812
C	1.73346	2.51171	-1.67305
C	1.64472	1.45538	-0.639884
O	2.63939	1.07115	-0.0403821
H	2.79316	2.82896	-1.78389
H	1.12445	3.39086	-1.37481
H	1.37038	2.1245	-2.64841
N	0.429751	0.953158	-0.407484
C	0.191662	-0.109449	0.537365
C	-1.02464	-0.889572	0.0752259
O	-1.71992	-0.480584	-0.852688
H	-0.363831	1.24726	-0.932458
H	1.03377	-0.790192	0.529061
C	-0.0344261	0.455039	1.95704
H	-0.904727	1.14532	1.96832
H	-0.205112	-0.35422	2.69629
H	0.864755	1.02861	2.27142
N	-1.30587	-2.04385	0.711283
C	-2.43992	-2.85628	0.337012
H	-0.729172	-2.36043	1.45712
H	-2.50159	-3.76408	0.976783
H	-2.35674	-3.18125	-0.725412
H	-3.38843	-2.28281	0.449363
C	446.468	-0.208601	0.204216
C	445.184	0.467674	0.494894
O	445.122	1.39401	1.29146
H	447.272	0.250565	0.819132
H	446.727	-0.0937788	-0.869429
H	446.397	-1.28832	0.453695
N	444.111	0.00934958	-0.154876
C	442.786	0.537405	0.0550956
C	441.786	-0.568184	-0.226705
O	442.148	-1.63245	-0.724959
H	444.17	-0.77213	-0.769443
H	442.674	0.816693	1.09527
C	442.524	1.75137	-0.863004
H	442.629	1.46286	-1.93061
H	441.512	2.17558	-0.700881
H	443.272	2.5446	-0.644967
N	440.498	-0.342791	0.0959868
C	439.476	-1.33875	-0.130532
H	440.225	0.523124	0.502094
H	438.482	-0.9652	0.200707
H	439.706	-2.27186	0.433341
H	439.412	-1.59629	-1.21248
