44
  This energy is 0 and Call times are: 7088
C	-0.786261	-3.37763	-0.293436
C	-1.09565	-1.94485	-0.499767
O	-2.02422	-1.59438	-1.21485
H	-1.49654	-3.9956	-0.884621
H	-0.888834	-3.64052	0.780392
H	0.248561	-3.59808	-0.630541
N	-0.308543	-1.07082	0.131824
C	-0.458672	0.356458	-0.00560625
C	0.90035	0.997341	0.203879
O	1.85477	0.333477	0.603971
H	0.468624	-1.37062	0.677718
H	-0.771709	0.587054	-1.01628
C	-1.47913	0.90474	1.01581
H	-1.15312	0.677652	2.05321
H	-1.6139	2.0008	0.910847
H	-2.46395	0.416195	0.849079
N	1.02142	2.31086	-0.0718448
C	2.27738	3.00502	0.0921509
H	0.238789	2.83031	-0.398539
H	2.17348	4.07699	-0.185904
H	3.06443	2.55051	-0.55225
H	2.62234	2.94882	1.14997
C	178.541	-2.41737	1.97361
C	178.238	-1.00771	1.63869
O	178.515	-0.100066	2.41064
H	179.007	-2.46324	2.98161
H	179.247	-2.84381	1.23082
H	177.607	-3.01794	1.98226
N	177.65	-0.791038	0.45988
C	177.255	0.521853	0.0137414
C	176.066	0.36778	-0.916569
O	175.708	-0.743535	-1.3013
H	177.393	-1.54379	-0.139728
H	176.925	1.10414	0.864982
C	178.42	1.2323	-0.709366
H	178.752	0.640502	-1.5889
H	178.133	2.24966	-1.04555
H	179.281	1.32702	-0.0124447
N	175.419	1.4876	-1.29488
C	174.274	1.43847	-2.17383
H	175.722	2.37745	-0.969837
H	173.882	2.46144	-2.36679
H	173.458	0.829992	-1.72164
H	174.548	0.977598	-3.15048
