44
  This energy is 0 and Call times are: 5072
C	1.47632	-1.96374	-2.46513
C	0.830611	-0.712355	-2.00881
O	0.821237	0.288183	-2.71255
H	1.91933	-1.80248	-3.47192
H	0.726459	-2.78006	-2.52903
H	2.2828	-2.25723	-1.76047
N	0.269015	-0.741695	-0.797971
C	-0.359214	0.410195	-0.200447
C	-0.240698	0.284953	1.30681
O	0.170186	-0.752985	1.82215
H	0.320525	-1.55123	-0.220158
H	0.179275	1.30289	-0.493282
C	-1.84205	0.509905	-0.620573
H	-2.39727	-0.401111	-0.311045
H	-2.33326	1.40062	-0.178006
H	-1.90507	0.592691	-1.72761
N	-0.592702	1.35088	2.05241
C	-0.508143	1.32601	3.49408
H	-0.918994	2.18338	1.61704
H	-0.841148	2.29616	3.92434
H	0.539623	1.13801	3.8229
H	-1.15129	0.517832	3.91165
C	30.1468	-1.98314	-0.198289
C	31.0185	-0.8994	-0.70517
O	30.8385	-0.407019	-1.81043
H	29.3876	-2.2352	-0.970225
H	29.6251	-1.65441	0.725034
H	30.7507	-2.88886	0.0210884
N	32.0008	-0.49959	0.105756
C	32.9556	0.514832	-0.265428
C	34.2508	0.238812	0.474812
O	34.3022	-0.616423	1.35665
H	32.1598	-0.938132	0.985663
H	33.1665	0.436451	-1.32468
C	32.4252	1.92398	0.0783526
H	32.2187	2.00826	1.1666
H	33.1455	2.71477	-0.215346
H	31.4731	2.10114	-0.468055
N	35.3363	0.956417	0.124564
C	36.6133	0.759116	0.76991
H	35.276	1.64114	-0.594183
H	37.3797	1.44265	0.342523
H	36.9642	-0.289549	0.634048
H	36.5361	0.958407	1.86328
