44
  This energy is 0 and Call times are: 6080
C	-1.84071	0.578631	2.89649
C	-1.72716	0.114478	1.49549
O	-2.63421	-0.506668	0.958971
H	-2.81945	0.254795	3.31252
H	-1.78117	1.68652	2.93862
H	-1.0263	0.141234	3.51173
N	-0.588953	0.409263	0.863063
C	-0.314685	-0.0120797	-0.488161
C	1.18721	-0.161818	-0.641273
O	1.95159	0.220451	0.242644
H	0.15663	0.879884	1.32619
H	-0.754714	-0.987447	-0.654485
C	-0.863557	1.01055	-1.50708
H	-0.404571	2.00887	-1.34362
H	-0.670833	0.690568	-2.55159
H	-1.96269	1.10996	-1.37151
N	1.64655	-0.733656	-1.77178
C	3.05968	-0.922846	-2.00295
H	1.01231	-1.04033	-2.47375
H	3.23542	-1.40909	-2.98779
H	3.5047	-1.56652	-1.20991
H	3.59375	0.0548194	-1.99412
C	102.164	1.90226	-0.671293
C	103.153	0.863539	-1.03714
O	102.971	0.125324	-1.99536
H	101.303	1.85357	-1.37347
H	102.625	2.91007	-0.737359
H	101.795	1.73198	0.362
N	104.24	0.78149	-0.266394
C	105.27	-0.206598	-0.471201
C	105.919	-0.498062	0.868704
O	105.66	0.187348	1.85614
H	104.355	1.3622	0.534508
H	104.817	-1.12746	-0.817595
C	106.322	0.294751	-1.48478
H	106.794	1.2338	-1.12488
H	107.113	-0.46277	-1.66151
H	105.823	0.509267	-2.45525
N	106.777	-1.53506	0.935461
C	107.438	-1.89088	2.16934
H	106.97	-2.08053	0.126684
H	108.103	-2.77016	2.01997
H	106.691	-2.14572	2.95582
H	108.057	-1.04284	2.54253
