44
  This energy is 0 and Call times are: 10420
C	-0.71943	3.38139	0.401606
C	0.206443	2.27731	0.0626381
O	1.28977	2.49788	-0.460973
H	-0.267764	4.34824	0.090017
H	-0.901093	3.40595	1.49666
H	-1.68508	3.24793	-0.130177
N	-0.208689	1.04311	0.357236
C	0.562981	-0.134879	0.0483095
C	-0.399087	-1.28905	-0.161143
O	-1.5944	-1.16792	0.100159
H	-1.11039	0.876483	0.745877
H	1.09087	0.0184022	-0.884679
C	1.5564	-0.457661	1.18593
H	1.01453	-0.625384	2.14107
H	2.16623	-1.35473	0.953772
H	2.24533	0.403637	1.32694
N	0.102671	-2.44062	-0.649146
C	-0.737955	-3.59097	-0.886282
H	1.07184	-2.5181	-0.858388
H	-0.140356	-4.43854	-1.28842
H	-1.53908	-3.34721	-1.62117
H	-1.22572	-3.92285	0.0587467
C	413.9	2.18161	-2.47868
C	414.031	1.78086	-1.05975
O	413.745	2.55254	-0.154938
H	413.541	3.23228	-2.53187
H	413.169	1.52515	-2.99572
H	414.884	2.11211	-2.98849
N	414.478	0.543579	-0.831379
C	414.698	0.0255403	0.495861
C	415.8	-1.01519	0.420461
O	416.225	-1.40461	-0.66547
H	414.746	-0.0587107	-1.57784
H	415.052	0.823617	1.13662
C	413.405	-0.595193	1.06775
H	413.048	-1.42097	0.416328
H	413.558	-0.985262	2.09482
H	412.611	0.182068	1.10636
N	416.296	-1.48607	1.58166
C	417.349	-2.47413	1.60846
H	415.941	-1.15581	2.45036
H	417.619	-2.73242	2.65605
H	418.26	-2.09046	1.09568
H	417.027	-3.40581	1.08929
