44
  This energy is 0 and Call times are: 12632
C	-0.69422	-2.5262	2.29108
C	-0.186221	-1.1778	1.95212
O	0.0700138	-0.360019	2.82504
H	-0.797983	-2.61293	3.39453
H	0.0145385	-3.30295	1.93462
H	-1.68771	-2.68973	1.82276
N	-0.0293178	-0.911948	0.653246
C	0.415373	0.370301	0.166782
C	-0.168721	0.579439	-1.21765
O	-0.749054	-0.334174	-1.80095
H	-0.280987	-1.57364	-0.0472523
H	0.0203867	1.15101	0.804839
C	1.9576	0.43788	0.119683
H	2.36278	-0.356217	-0.543096
H	2.31266	1.42528	-0.240161
H	2.3635	0.274274	1.14185
N	-0.0349362	1.79905	-1.77504
C	-0.56351	2.09277	-3.08673
H	0.434269	2.52677	-1.28583
H	-0.352655	3.14794	-3.36845
H	-1.66655	1.93768	-3.10947
H	-0.105364	1.42673	-3.8533
C	569.95	-1.25185	-1.11532
C	571.128	-0.367745	-1.26248
O	571.348	0.225444	-2.30957
H	569.383	-1.26949	-2.07101
H	569.286	-0.873687	-0.309846
H	570.275	-2.28521	-0.871357
N	571.927	-0.260888	-0.197857
C	573.134	0.527656	-0.202972
C	574.106	-0.0890871	0.785056
O	573.748	-0.989854	1.54165
H	571.757	-0.781971	0.633791
H	573.592	0.473417	-1.18273
C	572.835	1.99514	0.174982
H	572.375	2.05216	1.18444
H	573.755	2.61568	0.161091
H	572.116	2.42366	-0.556652
N	575.369	0.379747	0.794777
C	576.365	-0.150072	1.69675
H	575.641	1.10619	0.172203
H	577.34	0.364636	1.55186
H	576.514	-1.24	1.5206
H	576.049	-0.0116627	2.75612
