44
  This energy is 0 and Call times are: 12576
C	1.31649	-2.44674	-2.09594
C	0.228046	-1.8982	-1.25599
O	-0.894716	-2.38328	-1.27861
H	0.923206	-3.29293	-2.70023
H	2.14461	-2.81679	-1.4556
H	1.70191	-1.66357	-2.78237
N	0.542048	-0.854645	-0.484773
C	-0.420904	-0.186133	0.354498
C	0.00811438	1.26107	0.506476
O	1.10437	1.6392	0.0978651
H	1.44962	-0.445203	-0.507845
H	-1.38532	-0.186661	-0.137973
C	-0.517802	-0.87009	1.73582
H	0.468969	-0.860442	2.24594
H	-1.26615	-0.372954	2.38648
H	-0.825343	-1.92993	1.5998
N	-0.85646	2.11106	1.09474
C	-0.537075	3.50774	1.27766
H	-1.74051	1.78728	1.41519
H	-1.37492	4.04033	1.77924
H	-0.347198	3.99909	0.295921
H	0.376995	3.62316	1.90399
C	565.913	-1.49645	0.588103
C	566.957	-0.977044	-0.323914
O	566.914	-1.19797	-1.52631
H	565.173	-2.0843	0.00258376
H	565.389	-0.655197	1.08831
H	566.37	-2.15614	1.35591
N	567.936	-0.264615	0.238902
C	569.044	0.269745	-0.512595
C	570.241	0.366189	0.414191
O	570.12	0.173683	1.62242
H	567.979	-0.127895	1.22444
H	569.305	-0.420829	-1.30504
C	568.698	1.65727	-1.09557
H	568.441	2.36899	-0.282245
H	569.538	2.07327	-1.68804
H	567.814	1.56412	-1.76417
N	571.436	0.660478	-0.135927
C	572.632	0.767828	0.666723
H	571.515	0.808827	-1.11612
H	573.511	1.01588	0.0316635
H	572.839	-0.192135	1.19275
H	572.519	1.56559	1.43607
