44
  This energy is 0 and Call times are: 7564
C	-2.40877	-1.44573	2.05435
C	-1.09948	-1.47062	1.36422
O	-0.265841	-2.32883	1.61903
H	-2.45235	-2.27852	2.7895
H	-3.23129	-1.57183	1.3193
H	-2.53911	-0.483562	2.59318
N	-0.886431	-0.510898	0.460937
C	0.354883	-0.379107	-0.260403
C	0.544909	1.08456	-0.611309
O	-0.358471	1.89837	-0.428777
H	-1.55857	0.204809	0.29401
H	1.17555	-0.665116	0.38561
C	0.344703	-1.24553	-1.53886
H	-0.490685	-0.94546	-2.20678
H	1.30047	-1.1634	-2.0959
H	0.196473	-2.31132	-1.25873
N	1.73658	1.45621	-1.11906
C	2.0108	2.82829	-1.47734
H	2.45666	0.783975	-1.25567
H	3.04401	2.93165	-1.87612
H	1.90958	3.49381	-0.589578
H	1.29707	3.18123	-2.25655
C	210.973	-2.31318	-2.60024
C	211.657	-1.30313	-1.76159
O	212.87	-1.15383	-1.81325
H	211.728	-2.85921	-3.20654
H	210.252	-1.81798	-3.28458
H	210.433	-3.04094	-1.95867
N	210.879	-0.576893	-0.95493
C	211.404	0.41423	-0.0490068
C	210.464	0.516622	1.13678
O	209.375	-0.0556785	1.12864
H	209.899	-0.738149	-0.894087
H	212.363	0.0814077	0.32791
C	211.543	1.78352	-0.749677
H	210.558	2.13034	-1.12729
H	211.96	2.55189	-0.0664069
H	212.23	1.68308	-1.61868
N	210.868	1.24689	2.19464
C	210.042	1.39654	3.37008
H	211.754	1.6992	2.18427
H	210.549	2.03247	4.12874
H	209.83	0.404187	3.82997
H	209.069	1.87114	3.10869
