44
  This energy is 0 and Call times are: 8320
C	-3.13451	-1.4922	0.246803
C	-1.77494	-1.22261	0.766473
O	-1.46207	-1.52744	1.9091
H	-3.74634	-1.96407	1.0461
H	-3.08254	-2.18284	-0.620981
H	-3.62022	-0.543438	-0.0646959
N	-0.923832	-0.632458	-0.0759692
C	0.419682	-0.268033	0.299164
C	0.834873	0.929978	-0.533868
O	0.137516	1.31912	-1.46873
H	-1.20566	-0.353306	-0.989488
H	0.429298	0.0416531	1.33677
C	1.39338	-1.44599	0.0765209
H	1.39176	-1.7572	-0.989868
H	2.4288	-1.18237	0.374733
H	1.06572	-2.31387	0.68953
N	1.98491	1.55121	-0.205987
C	2.45736	2.70292	-0.938487
H	2.53349	1.2241	0.556328
H	3.41882	3.07005	-0.516556
H	1.7141	3.53145	-0.889664
H	2.61957	2.44739	-2.01065
C	266.902	1.90634	2.20443
C	265.603	1.47475	1.64131
O	264.548	1.77348	2.18307
H	266.725	2.48278	3.13822
H	267.438	2.55394	1.47874
H	267.529	1.02122	2.44237
N	265.653	0.74762	0.522761
C	264.475	0.219362	-0.118762
C	264.865	-1.05105	-0.850833
O	266.045	-1.37471	-0.966217
H	266.522	0.477931	0.116197
H	263.749	-0.0534403	0.636747
C	263.874	1.24796	-1.1015
H	264.615	1.52022	-1.88294
H	262.958	0.85822	-1.5916
H	263.604	2.1722	-0.54555
N	263.873	-1.80933	-1.35832
C	264.148	-3.03813	-2.06601
H	262.924	-1.53301	-1.25126
H	263.202	-3.5163	-2.40513
H	264.688	-3.75745	-1.40896
H	264.783	-2.84318	-2.96036
