44
  This energy is 0 and Call times are: 6360
C	0.145548	-1.95254	-2.87734
C	-0.3601	-0.787246	-2.11737
O	-0.983712	0.107526	-2.67135
H	-0.121969	-1.8356	-3.95002
H	-0.312167	-2.88812	-2.49274
H	1.25044	-2.01775	-2.78758
N	-0.0953887	-0.771887	-0.808907
C	-0.484741	0.315596	0.0538479
C	0.507641	0.389471	1.19896
O	1.34639	-0.494357	1.36346
H	0.448669	-1.48726	-0.379829
H	-0.416122	1.24767	-0.493101
C	-1.91749	0.107423	0.591566
H	-1.98581	-0.843521	1.16172
H	-2.23411	0.945118	1.24619
H	-2.62551	0.0483228	-0.263748
N	0.439671	1.45797	2.01732
C	1.34637	1.61648	3.1304
H	-0.243252	2.16486	1.86567
H	1.13074	2.55782	3.68231
H	2.40177	1.65235	2.77526
H	1.24988	0.763497	3.84051
C	124.304	-2.22916	-2.58048
C	125.145	-1.18718	-1.94993
O	126.261	-0.928872	-2.37963
H	124.86	-2.68769	-3.4269
H	123.365	-1.78033	-2.9682
H	124.057	-3.02068	-1.84173
N	124.62	-0.557104	-0.896743
C	125.334	0.449888	-0.152659
C	124.824	0.433192	1.2761
O	123.839	-0.233365	1.58525
H	123.727	-0.80689	-0.533545
H	126.386	0.192996	-0.122938
C	125.135	1.84608	-0.782241
H	124.058	2.11457	-0.803343
H	125.692	2.62814	-0.226387
H	125.508	1.83274	-1.82976
N	125.495	1.16529	2.1877
C	125.086	1.20619	3.5725
H	126.292	1.69487	1.91926
H	125.763	1.8623	4.16294
H	125.11	0.185818	4.01924
H	124.048	1.59957	3.66463
