44
  This energy is 0 and Call times are: 10308
C	1.52633	1.39053	-2.80168
C	1.17543	1.41109	-1.36377
O	1.69228	2.21237	-0.597471
H	2.29493	2.16801	-3.00333
H	0.627996	1.60491	-3.41794
H	1.93764	0.397624	-3.08106
N	0.274558	0.512392	-0.95985
C	-0.135652	0.381994	0.416117
C	-0.548907	-1.05854	0.651977
O	-0.655866	-1.84487	-0.287148
H	-0.106843	-0.16017	-1.58759
H	0.70976	0.584872	1.06168
C	-1.30396	1.33988	0.736643
H	-2.17525	1.12523	0.0818055
H	-1.61981	1.25888	1.79693
H	-0.98161	2.38743	0.549359
N	-0.784032	-1.44158	1.92242
C	-1.17671	-2.79387	2.24383
H	-0.68826	-0.791998	2.66937
H	-1.32261	-2.91094	3.34029
H	-0.39667	-3.51811	1.91477
H	-2.13073	-3.05812	1.73278
C	408.803	2.48684	1.63679
C	408.441	1.06791	1.41965
O	409.089	0.164419	1.92958
H	409.707	2.54101	2.2804
H	407.97	3.02091	2.14135
H	409.022	2.97867	0.665764
N	407.381	0.837977	0.64204
C	406.933	-0.490308	0.30431
C	406.251	-0.429742	-1.04945
O	406.011	0.650198	-1.58579
H	406.888	1.58257	0.200905
H	407.792	-1.14183	0.203801
C	405.963	-1.03472	1.37557
H	405.076	-0.37233	1.47161
H	405.622	-2.06234	1.13396
H	406.481	-1.06279	2.35922
N	405.929	-1.59739	-1.64026
C	405.283	-1.63839	-2.93125
H	406.136	-2.46113	-1.19251
H	405.102	-2.6894	-3.24707
H	405.916	-1.1447	-3.70351
H	404.304	-1.10831	-2.89751
