44
  This energy is 0 and Call times are: 7508
C	3.35818	0.452942	-0.793844
C	1.91797	0.535671	-1.12567
O	1.52982	1.145	-2.11282
H	3.94236	1.0226	-1.5489
H	3.6931	-0.605576	-0.804196
H	3.54537	0.889867	0.209723
N	1.08024	-0.0849292	-0.291735
C	-0.35147	-0.0569487	-0.45902
C	-0.990408	-0.194156	0.910099
O	-0.310843	-0.467064	1.89774
H	1.40805	-0.542181	0.530048
H	-0.645836	0.906037	-0.857315
C	-0.820263	-1.19506	-1.39185
H	-0.527745	-2.18376	-0.978387
H	-1.91949	-1.17578	-1.53968
H	-0.334178	-1.07917	-2.38515
N	-2.32053	0.00175494	1.00185
C	-3.01463	-0.102471	2.2642
H	-2.85282	0.225842	0.192198
H	-4.10167	0.0931089	2.1326
H	-2.61194	0.634895	2.99591
H	-2.89144	-1.12138	2.69754
C	209.444	-2.1866	1.16649
C	208.252	-1.8838	0.342526
O	207.846	-2.67404	-0.498662
H	209.854	-3.17579	0.868699
H	209.167	-2.22106	2.24126
H	210.224	-1.41186	1.01033
N	207.656	-0.710636	0.569057
C	206.512	-0.257476	-0.182712
C	206.532	1.2593	-0.206067
O	207.327	1.88939	0.489492
H	208.022	-0.0602768	1.22861
H	206.601	-0.597055	-1.20715
C	205.199	-0.771963	0.44682
H	205.103	-0.41513	1.4944
H	204.312	-0.441233	-0.130937
H	205.21	-1.88373	0.460812
N	205.658	1.88377	-1.01932
C	205.608	3.32429	-1.11183
H	205.026	1.35668	-1.57759
H	204.824	3.64502	-1.83321
H	206.587	3.73018	-1.45469
H	205.376	3.77408	-0.119273
