44
  This energy is 0 and Call times are: 10056
C	-1.13693	-3.21566	0.692558
C	-1.22186	-1.74465	0.834224
O	-2.19638	-1.21349	1.34861
H	-2.06403	-3.67765	1.09619
H	-0.265209	-3.60502	1.25935
H	-1.03461	-3.49172	-0.378148
N	-0.185079	-1.04295	0.370455
C	-0.142017	0.397848	0.398776
C	0.723213	0.867953	-0.755317
O	1.37753	0.0662001	-1.41922
H	0.582614	-1.48703	-0.0826601
H	-1.13863	0.788313	0.234682
C	0.424484	0.906544	1.74248
H	1.45098	0.514765	1.90637
H	0.449809	2.01484	1.78202
H	-0.219693	0.544028	2.57312
N	0.739572	2.1877	-1.02741
C	1.52915	2.72651	-2.1102
H	0.200257	2.82037	-0.481579
H	1.40936	3.83058	-2.17272
H	1.21498	2.28424	-3.08332
H	2.60932	2.49876	-1.96017
C	392.276	-1.17393	-0.0453417
C	390.819	-1.38281	0.110235
O	390.342	-2.50839	0.152281
H	392.782	-2.16054	-0.126279
H	392.681	-0.633425	0.835731
H	392.483	-0.587676	-0.965533
N	390.068	-0.282626	0.198239
C	388.631	-0.324917	0.309333
C	388.071	0.94399	-0.305808
O	388.816	1.86412	-0.638286
H	390.466	0.626839	0.12127
H	388.252	-1.15813	-0.269454
C	388.195	-0.448671	1.78583
H	388.574	0.41134	2.37788
H	387.091	-0.49615	1.88357
H	388.622	-1.37992	2.21775
N	386.737	1.01883	-0.479966
C	386.115	2.18493	-1.06262
H	386.151	0.262376	-0.208448
H	385.012	2.05421	-1.1216
H	386.502	2.36373	-2.09187
H	386.329	3.09131	-0.451085
