44
  This energy is 0 and Call times are: 6752
C	-1.74947	-1.66059	2.50888
C	-0.493022	-1.15315	1.91308
O	0.55086	-1.14267	2.55074
H	-1.5573	-1.97704	3.55712
H	-2.12113	-2.53364	1.93233
H	-2.52189	-0.862811	2.51021
N	-0.568575	-0.711617	0.655411
C	0.559772	-0.149034	-0.0437986
C	0.036476	0.843217	-1.06515
O	-1.16742	0.930368	-1.29912
H	-1.43412	-0.688574	0.163313
H	1.17488	0.402648	0.656142
C	1.38633	-1.25436	-0.736832
H	0.758468	-1.81378	-1.4627
H	2.26586	-0.835238	-1.26718
H	1.75232	-1.97326	0.0284008
N	0.935408	1.62522	-1.69477
C	0.529843	2.60221	-2.67823
H	1.90493	1.54291	-1.48903
H	1.41331	3.14477	-3.08113
H	-0.164134	3.34832	-2.22769
H	0.00324531	2.10976	-3.52754
C	151.352	3.02904	-0.470921
C	151.898	1.96439	0.40037
O	151.986	2.11962	1.61061
H	151.086	3.91181	0.150366
H	150.44	2.66767	-0.990579
H	152.11	3.33404	-1.2234
N	152.287	0.840988	-0.207581
C	152.878	-0.266489	0.501482
C	153.802	-0.999445	-0.45222
O	153.82	-0.722332	-1.64997
H	152.247	0.745231	-1.1981
H	153.486	0.112759	1.313
C	151.789	-1.22031	1.04068
H	151.171	-1.61788	0.207462
H	152.231	-2.06989	1.60056
H	151.12	-0.66086	1.72996
N	154.603	-1.95292	0.0625945
C	155.52	-2.69917	-0.767448
H	154.578	-2.1601	1.03496
H	156.09	-3.43589	-0.159705
H	156.247	-2.01551	-1.26243
H	154.969	-3.25178	-1.56275
