44
  This energy is 0 and Call times are: 8152
C	1.63235	2.6678	-1.52675
C	1.60973	1.50709	-0.608398
O	2.64263	1.05551	-0.133429
H	2.68445	2.98958	-1.68615
H	1.06037	3.513	-1.08945
H	1.18937	2.38949	-2.50624
N	0.409751	0.989155	-0.33603
C	0.231308	-0.167532	0.505869
C	-1.02773	-0.887146	0.0602895
O	-1.78734	-0.377237	-0.761108
H	-0.418125	1.34208	-0.762563
H	1.06088	-0.84783	0.358771
C	0.123873	0.242379	1.99102
H	-0.733438	0.931987	2.1443
H	0.000107571	-0.640697	2.65085
H	1.05248	0.774169	2.29306
N	-1.27441	-2.10159	0.589737
C	-2.44506	-2.86318	0.221333
H	-0.645892	-2.49944	1.24985
H	-2.46922	-3.83412	0.763477
H	-2.44908	-3.07259	-0.872927
H	-3.37408	-2.30016	0.468488
C	252.006	-3.30167	-0.472236
C	251.715	-1.85308	-0.382595
O	250.628	-1.40372	-0.719957
H	251.12	-3.82929	-0.887689
H	252.227	-3.71056	0.535929
H	252.875	-3.4767	-1.14118
N	252.698	-1.07771	0.0803749
C	252.579	0.35533	0.184438
C	253.965	0.956412	0.0412619
O	254.964	0.240284	0.0331765
H	253.591	-1.45292	0.312389
H	251.98	0.724882	-0.638824
C	251.95	0.760114	1.53571
H	252.57	0.390279	2.38053
H	251.841	1.86058	1.62224
H	250.94	0.30272	1.62226
N	254.056	2.29506	-0.0843141
C	255.332	2.95555	-0.231171
H	253.235	2.85742	-0.0796328
H	255.197	4.05606	-0.32031
H	255.859	2.59214	-1.14257
H	255.983	2.75206	0.649294
