44
  This energy is 0 and Call times are: 8376
C	-2.69853	-0.652998	-2.09862
C	-1.37026	-0.991741	-1.53997
O	-0.858904	-2.08463	-1.74126
H	-3.09272	-1.5255	-2.66362
H	-2.61416	0.213217	-2.78803
H	-3.40641	-0.405706	-1.27956
N	-0.774057	-0.0452773	-0.811187
C	0.500646	-0.242646	-0.167185
C	0.548766	0.638871	1.06658
O	-0.326776	1.47605	1.27698
H	-1.22099	0.824421	-0.622124
H	0.57674	-1.26982	0.167114
C	1.66197	0.102603	-1.12498
H	1.5903	1.15935	-1.45994
H	2.6491	-0.0585565	-0.645266
H	1.60224	-0.548932	-2.02403
N	1.57641	0.463654	1.92055
C	1.70241	1.25284	3.12367
H	2.27293	-0.22162	1.73527
H	2.61191	0.959569	3.6929
H	0.815318	1.10931	3.78226
H	1.77734	2.33662	2.87678
C	269.026	-2.8149	2.04656
C	268.507	-2.04805	0.891667
O	267.771	-2.56898	0.0653146
H	268.653	-3.8608	1.99023
H	268.676	-2.35945	2.99674
H	270.136	-2.82748	2.02978
N	268.888	-0.771453	0.807251
C	268.5	0.0891894	-0.28228
C	269.585	1.13291	-0.470311
O	270.498	1.2457	0.344858
H	269.521	-0.373006	1.46522
H	268.449	-0.491073	-1.19514
C	267.142	0.765679	0.0060788
H	267.197	1.3696	0.936839
H	266.825	1.4203	-0.831628
H	266.365	-0.0169025	0.148072
N	269.513	1.91973	-1.56199
C	270.504	2.93696	-1.82707
H	268.769	1.81069	-2.21234
H	270.27	3.47658	-2.7713
H	271.517	2.48312	-1.92397
H	270.536	3.67969	-0.99735
