44
  This energy is 0 and Call times are: 8040
C	1.6571	-2.96507	-0.758344
C	0.9363	-1.73578	-1.15891
O	0.904943	-1.37244	-2.32656
H	2.12834	-3.42319	-1.65497
H	0.949805	-3.69503	-0.311537
H	2.45041	-2.7204	-0.0208559
N	0.332961	-1.05625	-0.180853
C	-0.370798	0.181208	-0.408836
C	-0.301492	1.00592	0.862622
O	0.139304	0.522471	1.90363
H	0.401871	-1.34248	0.770563
H	0.134874	0.741981	-1.18502
C	-1.84039	-0.084354	-0.802558
H	-2.36251	-0.650478	-0.0019744
H	-2.38929	0.860354	-0.994289
H	-1.86687	-0.695921	-1.7308
N	-0.730827	2.28197	0.804404
C	-0.697806	3.1442	1.9627
H	-1.08031	2.65653	-0.0480274
H	-1.09212	4.1538	1.71279
H	0.345038	3.25824	2.33786
H	-1.31652	2.71991	2.7863
C	243.206	-2.97449	-0.214002
C	243.923	-1.93808	0.562382
O	243.865	-1.90919	1.78396
H	242.648	-3.63622	0.484002
H	243.928	-3.58857	-0.791409
H	242.484	-2.49921	-0.911806
N	244.625	-1.04786	-0.142796
C	245.34	0.0443315	0.469193
C	245.4	1.18712	-0.526773
O	245.036	1.02836	-1.69037
H	244.629	-1.05981	-1.13864
H	244.785	0.396077	1.33044
C	246.763	-0.390358	0.881759
H	247.336	-0.741399	-0.00314062
H	247.319	0.43805	1.36677
H	246.695	-1.23257	1.60448
N	245.857	2.37617	-0.0870862
C	245.945	3.52233	-0.961571
H	246.143	2.48625	0.859001
H	246.344	4.40479	-0.414308
H	244.941	3.78545	-1.36665
H	246.62	3.30912	-1.82224
