44
  This energy is 0 and Call times are: 11008
C	-2.25599	-2.47539	0.946375
C	-1.15676	-1.97129	0.0927271
O	-0.540274	-2.71975	-0.653034
H	-2.37025	-3.57005	0.789709
H	-3.20927	-1.97271	0.679322
H	-2.02643	-2.28756	2.01647
N	-0.881833	-0.668265	0.18717
C	0.187518	-0.040505	-0.548334
C	0.677771	1.15029	0.253677
O	0.068414	1.53173	1.25113
H	-1.36529	-0.07981	0.828929
H	1.0153	-0.733099	-0.636177
C	-0.293387	0.408675	-1.94555
H	-1.13571	1.12733	-1.85576
H	0.524655	0.88113	-2.52703
H	-0.654942	-0.477424	-2.51164
N	1.80346	1.76347	-0.16209
C	2.3483	2.90133	0.541192
H	2.2848	1.43772	-0.969097
H	3.27574	3.26311	0.0450136
H	2.59626	2.63097	1.59319
H	1.61325	3.73819	0.563901
C	460.164	-0.845818	1.17853
C	458.97	-1.11114	0.344877
O	458.973	-1.99189	-0.504054
H	460.981	-1.53724	0.879672
H	459.926	-1.01169	2.25045
H	460.507	0.200299	1.03363
N	457.904	-0.339366	0.571655
C	456.684	-0.449511	-0.188598
C	456.012	0.91053	-0.204154
O	456.428	1.82685	0.502025
H	457.93	0.400446	1.23789
H	456.924	-0.702659	-1.21384
C	455.745	-1.51051	0.42592
H	455.49	-1.24576	1.47432
H	454.808	-1.61458	-0.158524
H	456.26	-2.49581	0.434435
N	454.954	1.07595	-1.02248
C	454.255	2.33674	-1.10824
H	454.634	0.323917	-1.58934
H	453.415	2.27222	-1.83537
H	454.944	3.14666	-1.43979
H	453.838	2.62319	-0.11567
