44
  This energy is 0 and Call times are: 12100
C	-2.0151	-1.31406	2.51502
C	-1.54496	-0.188544	1.67637
O	-2.13446	0.883286	1.66711
H	-2.93432	-1.00723	3.05977
H	-1.23504	-1.59216	3.25456
H	-2.25099	-2.19298	1.87867
N	-0.454667	-0.412739	0.939236
C	0.0968623	0.571293	0.041429
C	0.799901	-0.159363	-1.08704
O	0.970281	-1.3761	-1.03975
H	-0.00967275	-1.30363	0.926274
H	-0.709269	1.14501	-0.39861
C	1.08284	1.50185	0.781132
H	1.91568	0.914927	1.22379
H	1.50383	2.27272	0.10361
H	0.548819	2.01996	1.60741
N	1.21946	0.570865	-2.13907
C	1.89319	-0.0388044	-3.26182
H	1.06883	1.55367	-2.16107
H	2.1584	0.726519	-4.02416
H	1.24071	-0.802372	-3.74401
H	2.82953	-0.543929	-2.93129
C	531.655	-0.695369	-0.66366
C	533.097	-0.80446	-0.9813
O	533.501	-1.59035	-1.82717
H	531.086	-1.4218	-1.28389
H	531.291	0.329621	-0.885907
H	531.481	-0.92487	0.408782
N	533.918	-0.00529079	-0.295797
C	535.349	-0.0276906	-0.463339
C	535.985	0.401306	0.84543
O	535.299	0.850058	1.76179
H	533.578	0.599871	0.41852
H	535.67	-1.04303	-0.660339
C	535.785	0.910171	-1.61033
H	535.466	1.95381	-1.40369
H	536.884	0.891197	-1.7584
H	535.302	0.582316	-2.55637
N	537.321	0.264226	0.966212
C	538.013	0.640809	2.17674
H	537.858	-0.104677	0.215226
H	539.105	0.452213	2.08034
H	537.631	0.0562923	3.04522
H	537.861	1.72265	2.39561
