44
  This energy is 0 and Call times are: 11204
C	0.35644	0.210253	-3.45564
C	-0.2954	0.604264	-2.18639
O	-1.05838	1.55913	-2.13643
H	0.0466292	0.91145	-4.26076
H	0.0518671	-0.819211	-3.7388
H	1.46084	0.252295	-3.34781
N	-0.00169523	-0.134775	-1.11403
C	-0.524391	0.151662	0.198712
C	0.475882	-0.346016	1.22503
O	1.43977	-1.02946	0.885125
H	0.652915	-0.883813	-1.16194
H	-0.608261	1.22404	0.323651
C	-1.89623	-0.526695	0.406391
H	-1.80868	-1.62784	0.28873
H	-2.31564	-0.302295	1.40852
H	-2.60994	-0.153624	-0.360279
N	0.272582	-0.00498395	2.51281
C	1.17483	-0.42815	3.55831
H	-0.510817	0.552094	2.76781
H	0.837299	-0.0468639	4.54721
H	2.20375	-0.0456425	3.36782
H	1.22374	-1.53998	3.60909
C	467.717	0.282876	-1.11868
C	468.714	0.0514919	-0.0493709
O	468.384	0.0272681	1.12855
H	466.715	0.432813	-0.660569
H	467.673	-0.594265	-1.79803
H	467.984	1.18909	-1.70194
N	469.977	-0.124324	-0.443849
C	471.065	-0.316879	0.482581
C	472.333	0.213011	-0.160032
O	472.346	0.550765	-1.34217
H	470.236	-0.0611121	-1.40346
H	470.884	0.272098	1.37312
C	471.224	-1.80999	0.843858
H	471.42	-2.41324	-0.0681436
H	472.049	-1.96969	1.56734
H	470.282	-2.17843	1.30521
N	473.433	0.306225	0.61215
C	474.684	0.804229	0.0887587
H	473.402	0.0319	1.56757
H	475.468	0.80428	0.877556
H	474.565	1.84617	-0.287463
H	475.036	0.17005	-0.756563
