44
  This energy is 0 and Call times are: 6024
C	-2.02669	1.63314	2.31043
C	-0.719011	1.09122	1.87748
O	0.308303	1.35389	2.48743
H	-1.87948	2.27747	3.20432
H	-2.71604	0.803876	2.57476
H	-2.47621	2.24257	1.49826
N	-0.729239	0.311006	0.794182
C	0.469916	-0.254491	0.227789
C	0.246448	-0.443224	-1.26083
O	-0.868019	-0.28494	-1.75543
H	-1.56751	0.139577	0.284499
H	1.2859	0.447693	0.345005
C	0.814566	-1.60218	0.898746
H	-0.0178884	-2.32634	0.769678
H	1.7437	-2.04103	0.480845
H	0.965994	-1.44148	1.98851
N	1.31108	-0.780239	-2.01516
C	1.19537	-0.975668	-3.44155
H	2.20567	-0.89983	-1.59745
H	2.17977	-1.24744	-3.88238
H	0.83408	-0.0456747	-3.93739
H	0.4718	-1.79165	-3.66906
C	99.4264	3.02076	-0.715226
C	100.102	1.77184	-1.13409
O	100.104	1.41508	-2.30419
H	98.9563	3.49922	-1.60174
H	100.163	3.72513	-0.275176
H	98.6371	2.79664	0.0330198
N	100.698	1.06738	-0.169495
C	101.359	-0.190255	-0.415586
C	101.283	-1.0204	0.851956
O	100.873	-0.529848	1.90247
H	100.653	1.34961	0.784527
H	100.824	-0.72982	-1.1871
C	102.83	0.0311671	-0.830486
H	103.382	0.575414	-0.0347958
H	103.345	-0.9292	-1.03622
H	102.861	0.64745	-1.75544
N	101.67	-2.309	0.779629
C	101.628	-3.17706	1.93324
H	101.995	-2.68902	-0.0802897
H	101.986	-4.19703	1.67135
H	100.588	-3.26043	2.32385
H	102.272	-2.77779	2.74962
