44
  This energy is 0 and Call times are: 8292
C	-1.15655	-0.111971	3.28063
C	-1.09704	-0.644819	1.90089
O	-1.55853	-1.74394	1.62636
H	-1.64352	-0.860526	3.94276
H	-1.74881	0.826893	3.30308
H	-0.131615	0.0886699	3.65791
N	-0.514788	0.135965	0.987799
C	-0.343894	-0.263802	-0.386807
C	0.885696	0.436603	-0.933705
O	1.44985	1.31621	-0.285837
H	-0.107334	1.0105	1.23487
H	-0.153441	-1.32901	-0.428011
C	-1.59	0.0963804	-1.2251
H	-1.77966	1.19043	-1.19174
H	-1.47633	-0.218866	-2.28256
H	-2.47885	-0.420753	-0.802169
N	1.33675	0.0537028	-2.14447
C	2.50322	0.659834	-2.74292
H	0.869262	-0.662677	-2.65175
H	2.71364	0.20953	-3.738
H	3.39799	0.513045	-2.09553
H	2.35118	1.75511	-2.87856
C	263.511	-1.92141	-2.85662
C	263.794	-1.58773	-1.44263
O	264.454	-2.33691	-0.735464
H	263.965	-2.90653	-3.09973
H	263.945	-1.15007	-3.52648
H	262.414	-1.98013	-3.02349
N	263.291	-0.436117	-0.992191
C	263.446	0.00337796	0.372103
C	262.256	0.874735	0.72666
O	261.457	1.23133	-0.137136
H	262.721	0.143399	-1.56823
H	263.423	-0.856933	1.02934
C	264.764	0.78774	0.552437
H	264.784	1.67631	-0.113974
H	264.902	1.11968	1.60189
H	265.621	0.133404	0.279816
N	262.105	1.23265	2.0171
C	261	2.05577	2.4492
H	262.76	0.930892	2.70229
H	261.051	2.23974	3.54498
H	260.029	1.55953	2.2224
H	261.015	3.03984	1.92716
