44
  This energy is 0 and Call times are: 6164
C	1.16437	3.279	-0.0713731
C	0.390599	2.15793	-0.650714
O	-0.375076	2.33506	-1.58815
H	0.907255	4.21841	-0.607361
H	2.25289	3.08939	-0.180476
H	0.916361	3.39959	1.00429
N	0.575387	0.958866	-0.0935188
C	-0.138627	-0.218787	-0.519989
C	-0.258856	-1.15502	0.667681
O	0.350169	-0.929395	1.71166
H	1.17112	0.838106	0.695396
H	-1.1429	0.0593964	-0.814396
C	0.594333	-0.91595	-1.68702
H	1.62101	-1.21098	-1.38218
H	0.0471665	-1.81651	-2.03361
H	0.677931	-0.209937	-2.54195
N	-1.05996	-2.23078	0.537271
C	-1.24036	-3.17411	1.61605
H	-1.54773	-2.39427	-0.313858
H	-1.93579	-3.98814	1.31446
H	-1.66221	-2.66764	2.51427
H	-0.266849	-3.63303	1.90381
C	109.04	2.76036	-0.806454
C	110.326	2.02872	-0.81447
O	111.264	2.40481	-1.50414
H	109.103	3.62223	-1.50576
H	108.822	3.14054	0.213748
H	108.217	2.09088	-1.13465
N	110.399	0.94693	-0.0354464
C	111.57	0.108467	0.0295705
C	111.125	-1.29941	0.377956
O	109.964	-1.52842	0.711774
H	109.614	0.629932	0.488827
H	112.035	0.067345	-0.947705
C	112.569	0.63666	1.08235
H	112.096	0.669086	2.08702
H	113.481	0.00738875	1.13214
H	112.875	1.67082	0.811639
N	112.043	-2.28282	0.299473
C	111.71	-3.65419	0.60689
H	112.976	-2.07855	0.0235109
H	112.598	-4.31197	0.483144
H	110.904	-4.0233	-0.0678683
H	111.349	-3.74519	1.65714
