44
  This energy is 0 and Call times are: 5828
C	2.34076	-1.4188	-2.14954
C	0.949	-1.07084	-1.78476
O	0.0365729	-1.18127	-2.59203
H	2.37088	-1.74811	-3.21092
H	2.70981	-2.2451	-1.50629
H	3.00062	-0.533838	-2.029
N	0.753877	-0.632992	-0.53873
C	-0.537005	-0.21567	-0.050851
C	-0.319755	0.824581	1.03185
O	0.806785	1.05426	1.46759
H	1.51292	-0.50965	0.0941312
H	-1.08437	0.263244	-0.853141
C	-1.33175	-1.4177	0.504801
H	-0.775448	-1.90295	1.33492
H	-2.33313	-1.11155	0.870896
H	-1.47196	-2.1696	-0.302252
N	-1.40067	1.48787	1.4876
C	-1.29019	2.49908	2.51299
H	-2.30346	1.291	1.11979
H	-2.28833	2.92826	2.75122
H	-0.623677	3.32672	2.17825
H	-0.862146	2.06718	3.44646
C	87.6441	-1.4596	3.09313
C	87.4332	-1.54487	1.63045
O	87.6693	-2.5759	1.01592
H	88.0402	-2.42975	3.46427
H	86.6835	-1.24369	3.60632
H	88.3767	-0.658824	3.3281
N	86.9782	-0.442065	1.03118
C	86.7648	-0.358243	-0.392192
C	86.9506	1.08713	-0.814012
O	87.0721	1.97746	0.0251953
H	86.8296	0.402005	1.53846
H	87.5207	-0.942718	-0.901752
C	85.3515	-0.854647	-0.768357
H	84.5755	-0.248577	-0.254064
H	85.1799	-0.808073	-1.8633
H	85.2352	-1.91158	-0.443246
N	86.9857	1.35354	-2.13455
C	87.1641	2.69853	-2.62985
H	86.8898	0.619231	-2.79838
H	87.1658	2.71103	-3.74209
H	88.1302	3.12352	-2.2731
H	86.3427	3.36108	-2.27282
