44
  This energy is 0 and Call times are: 5884
C	-0.983582	3.10562	1.2249
C	-0.95737	2.07082	0.166765
O	-1.69042	2.14528	-0.809714
H	-1.7486	3.87124	0.971022
H	0.00772549	3.59976	1.30159
H	-1.24445	2.6472	2.20209
N	-0.0982206	1.06414	0.342344
C	0.0110991	-0.0389428	-0.579512
C	0.475298	-1.25819	0.194768
O	0.846123	-1.15887	1.36282
H	0.462704	0.996045	1.16246
H	-0.968028	-0.266194	-0.982373
C	1.00213	0.289358	-1.71763
H	2.00938	0.512266	-1.30557
H	1.08459	-0.54695	-2.44173
H	0.646766	1.18931	-2.26549
N	0.45724	-2.44652	-0.440511
C	0.875812	-3.66205	0.217865
H	0.149982	-2.50747	-1.38441
H	0.787909	-4.532	-0.469657
H	0.245898	-3.85958	1.11534
H	1.9361	-3.58369	0.550732
C	94.279	-0.91725	-0.720609
C	93.0492	-1.01184	0.0977714
O	92.9125	-1.89273	0.93549
H	94.9669	-1.74671	-0.447181
H	94.7903	0.0502752	-0.532738
H	94.0282	-0.999214	-1.79923
N	92.1105	-0.0909853	-0.133006
C	90.8429	-0.0789506	0.553679
C	89.8145	0.556682	-0.362822
O	90.1563	1.1027	-1.41009
H	92.2192	0.595101	-0.846678
H	90.5259	-1.09815	0.736423
C	90.9421	0.703663	1.88143
H	91.2571	1.75226	1.69354
H	89.9759	0.708387	2.42629
H	91.7059	0.225674	2.53297
N	88.5209	0.492263	0.00906806
C	87.4717	1.06439	-0.80223
H	88.2635	0.0426623	0.858004
H	86.478	0.90838	-0.327403
H	87.4554	0.593979	-1.81205
H	87.6296	2.15932	-0.933969
