44
  This energy is 0 and Call times are: 7312
C	-1.49811	-3.13854	-0.133758
C	-0.87044	-2.02483	0.612439
O	-0.905936	-1.98228	1.83446
H	-1.97379	-3.84039	0.585286
H	-0.730583	-3.68822	-0.718142
H	-2.27648	-2.74718	-0.822278
N	-0.273615	-1.08164	-0.120079
C	0.343103	0.0847618	0.461053
C	0.271207	1.21199	-0.551737
O	-0.0990326	0.999929	-1.70485
H	-0.288546	-1.109	-1.11552
H	-0.225367	0.394358	1.32917
C	1.81031	-0.202188	0.848617
H	2.39644	-0.509665	-0.0435425
H	2.29206	0.684175	1.30992
H	1.83933	-1.03546	1.58426
N	0.618278	2.44685	-0.1386
C	0.575958	3.58207	-1.0306
H	0.911338	2.5994	0.79944
H	0.897305	4.50786	-0.504403
H	-0.456957	3.73938	-1.4174
H	1.25053	3.42208	-1.90267
C	192.574	1.10965	-3.27102
C	193.43	0.724238	-2.12681
O	194.635	0.563533	-2.26386
H	193.199	1.19211	-4.18644
H	192.092	2.09071	-3.0752
H	191.79	0.340582	-3.43893
N	192.815	0.562758	-0.953003
C	193.508	0.147333	0.24113
C	192.524	-0.596511	1.12432
O	191.324	-0.615282	0.854111
H	191.827	0.657179	-0.866004
H	194.292	-0.549495	-0.0253863
C	194.095	1.3639	0.989785
H	193.289	2.07401	1.2727
H	194.643	1.0559	1.90384
H	194.806	1.8976	0.32199
N	193.013	-1.23802	2.20356
C	192.153	-1.97665	3.09851
H	193.987	-1.21476	2.40343
H	192.743	-2.43252	3.92393
H	191.626	-2.79232	2.55259
H	191.383	-1.30696	3.54583
