44
  This energy is 0 and Call times are: 6444
C	-3.18634	1.35098	0.367132
C	-2.23846	0.397742	-0.252549
O	-2.63518	-0.530749	-0.94315
H	-4.22634	1.05506	0.108867
H	-2.99996	2.3775	-0.0126737
H	-3.07328	1.33956	1.47175
N	-0.942249	0.609296	-0.0128359
C	0.0958226	-0.258005	-0.511591
C	1.26717	-0.195507	0.450483
O	1.29086	0.630287	1.3611
H	-0.637121	1.3452	0.584834
H	-0.263675	-1.27946	-0.516191
C	0.536318	0.167481	-1.92939
H	0.91506	1.21178	-1.92323
H	1.32561	-0.501104	-2.33006
H	-0.338214	0.121861	-2.61457
N	2.26892	-1.07952	0.274248
C	3.42184	-1.09874	1.14406
H	2.22985	-1.74279	-0.465757
H	4.13318	-1.89667	0.836596
H	3.1155	-1.28946	2.19813
H	3.95542	-0.121318	1.1111
C	133.945	0.521974	-1.77894
C	133.19	-0.0789883	-0.656941
O	133.687	-0.946396	0.0481922
H	134.948	0.0466982	-1.8425
H	134.074	1.61223	-1.61311
H	133.407	0.354856	-2.73578
N	131.949	0.375813	-0.466012
C	131.076	-0.142231	0.558029
C	129.644	0.0226612	0.0865913
O	129.385	0.671518	-0.925057
H	131.544	1.05294	-1.07369
H	131.257	-1.2033	0.67765
C	131.295	0.598343	1.89558
H	131.1	1.68543	1.77592
H	130.639	0.199196	2.69577
H	132.352	0.470789	2.21735
N	128.675	-0.572592	0.809927
C	127.284	-0.475167	0.434862
H	128.905	-1.09684	1.62319
H	126.643	-1.03137	1.15388
H	127.12	-0.900356	-0.581891
H	126.954	0.588867	0.421201
