44
  This energy is 0 and Call times are: 11764
C	-3.20129	-1.16792	-0.707396
C	-2.05387	-0.985046	0.209733
O	-2.15481	-1.22371	1.40525
H	-4.08397	-1.51395	-0.126872
H	-2.95748	-1.92875	-1.47839
H	-3.45178	-0.206478	-1.20335
N	-0.918634	-0.547508	-0.339979
C	0.270162	-0.280799	0.430858
C	1.06144	0.80139	-0.27928
O	0.744295	1.17654	-1.4064
H	-0.863723	-0.318567	-1.30768
H	-0.0128795	0.110084	1.40025
C	1.12268	-1.55873	0.590098
H	1.42216	-1.95421	-0.403855
H	2.03401	-1.36955	1.19359
H	0.521118	-2.33941	1.10489
N	2.11233	1.33715	0.372348
C	2.9205	2.37623	-0.222095
H	2.35093	1.0234	1.28542
H	3.73497	2.68511	0.469607
H	2.2999	3.27175	-0.454822
H	3.38251	2.02023	-1.17128
C	513.074	1.37409	-2.43387
C	512.787	0.984521	-1.03497
O	513.665	0.99041	-0.183264
H	514.152	1.62659	-2.53083
H	512.47	2.26227	-2.71543
H	512.838	0.534233	-3.12104
N	511.529	0.62905	-0.764263
C	511.106	0.184351	0.540534
C	509.935	-0.762455	0.361257
O	509.401	-0.903416	-0.737535
H	510.834	0.58998	-1.47714
H	511.908	-0.378229	1.00288
C	510.704	1.38238	1.42808
H	509.874	1.95375	0.959242
H	510.39	1.05403	2.44009
H	511.574	2.06579	1.53904
N	509.51	-1.44402	1.44355
C	508.405	-2.37138	1.36751
H	509.957	-1.31964	2.32324
H	508.209	-2.8314	2.36101
H	508.626	-3.18684	0.641242
H	507.479	-1.85206	1.032
