44
  This energy is 0 and Call times are: 7228
C	-3.08371	0.259327	1.59253
C	-1.76931	-0.392431	1.39578
O	-1.35211	-1.22738	2.18649
H	-3.54718	-0.123483	2.5277
H	-3.75576	0.030927	0.73876
H	-2.95646	1.3591	1.6786
N	-1.07583	-0.0165442	0.318669
C	0.237093	-0.530071	0.0168822
C	0.991643	0.529779	-0.763455
O	0.418324	1.53678	-1.17452
H	-1.41051	0.694125	-0.293546
H	0.776918	-0.695818	0.940867
C	0.143748	-1.83868	-0.798021
H	-0.400791	-1.66682	-1.7509
H	1.14808	-2.25148	-1.02482
H	-0.419041	-2.59712	-0.211169
N	2.30671	0.329658	-0.979275
C	3.10744	1.28635	-1.70712
H	2.7538	-0.489393	-0.635275
H	4.16282	0.94241	-1.77854
H	3.09541	2.27706	-1.1976
H	2.71281	1.42442	-2.73977
C	186.618	1.71184	-3.00603
C	187.216	0.633524	-2.18737
O	187.854	-0.273474	-2.70387
H	186.837	1.52291	-4.07936
H	187.048	2.69417	-2.71875
H	185.517	1.73478	-2.8629
N	187.018	0.709359	-0.869329
C	187.502	-0.288548	0.0519126
C	186.572	-0.316141	1.25045
O	185.7	0.539769	1.39143
H	186.462	1.43139	-0.467734
H	187.451	-1.26287	-0.417954
C	188.947	0.0246687	0.495277
H	188.998	1.0196	0.986824
H	189.336	-0.744068	1.19411
H	189.608	0.0477036	-0.39847
N	186.732	-1.3129	2.14312
C	185.89	-1.42349	3.31166
H	187.44	-1.99851	2.00973
H	186.178	-2.30802	3.92149
H	184.821	-1.534	3.01689
H	185.98	-0.513876	3.94853
