44
  This energy is 0 and Call times are: 8908
C	-0.757637	2.80121	1.92142
C	-1.15099	1.68872	1.02768
O	-2.32764	1.40554	0.849664
H	-1.67012	3.25887	2.36166
H	-0.207556	3.57664	1.34796
H	-0.113377	2.42269	2.74285
N	-0.15647	1.02127	0.437916
C	-0.380327	-0.112126	-0.424562
C	0.833779	-1.01786	-0.340072
O	1.85159	-0.653757	0.245766
H	0.797617	1.23737	0.624684
H	-1.22965	-0.676297	-0.0598755
C	-0.616969	0.341694	-1.88171
H	0.258462	0.911487	-2.25986
H	-0.80433	-0.521141	-2.55323
H	-1.50516	1.00962	-1.91843
N	0.750355	-2.23116	-0.920572
C	1.85349	-3.16288	-0.886486
H	-0.0830658	-2.50946	-1.38644
H	1.59009	-4.10382	-1.41797
H	2.12051	-3.41717	0.164854
H	2.75365	-2.7243	-1.37486
C	303.955	-1.63656	0.404036
C	305.159	-1.30058	-0.389224
O	305.425	-1.90112	-1.42123
H	303.417	-2.47772	-0.0840972
H	303.277	-0.759546	0.459877
H	304.247	-1.94398	1.43045
N	305.927	-0.317195	0.0854749
C	307.153	0.0934202	-0.552602
C	308.079	0.647337	0.51395
O	307.676	0.839903	1.65951
H	305.719	0.134604	0.948399
H	307.639	-0.773031	-0.983408
C	306.88	1.15719	-1.63854
H	306.391	2.05065	-1.19523
H	307.815	1.4714	-2.14677
H	306.194	0.732784	-2.404
N	309.353	0.909919	0.161192
C	310.307	1.43385	1.11022
H	309.661	0.743694	-0.769552
H	311.299	1.58231	0.62921
H	310.434	0.732993	1.96688
H	309.963	2.41348	1.51387
