44
  This energy is 0 and Call times are: 8068
C	0.701179	3.34315	-0.666598
C	1.12512	1.96062	-0.350364
O	2.30022	1.62761	-0.418638
H	1.58972	3.94034	-0.966169
H	0.235578	3.81399	0.224624
H	-0.0273623	3.33779	-1.50463
N	0.159386	1.11076	0.00667225
C	0.41104	-0.277696	0.302333
C	-0.841941	-1.0664	-0.0286463
O	-1.89124	-0.491765	-0.312358
H	-0.797697	1.38596	0.0180123
H	1.20139	-0.642533	-0.341773
C	0.792491	-0.465239	1.78711
H	-0.022442	-0.100791	2.44824
H	1.00224	-1.52843	2.02409
H	1.70714	0.126936	2.00867
N	-0.757975	-2.41122	-0.00793035
C	-1.89717	-3.24452	-0.314564
H	0.100834	-2.85796	0.219969
H	-1.62717	-4.32125	-0.243955
H	-2.26521	-3.04244	-1.34654
H	-2.73246	-3.04502	0.395102
C	244.659	-2.15105	1.41652
C	246.01	-1.86325	0.883564
O	246.931	-2.65359	1.03398
H	244.673	-3.12989	1.94333
H	243.923	-2.19982	0.586974
H	244.355	-1.36073	2.13472
N	246.159	-0.703261	0.239692
C	247.423	-0.264857	-0.296751
C	247.436	1.25218	-0.297515
O	246.418	1.89083	-0.0409715
H	245.41	-0.0519415	0.160954
H	248.222	-0.593941	0.356409
C	247.634	-0.808878	-1.7267
H	246.821	-0.462887	-2.39964
H	248.611	-0.489639	-2.14554
H	247.613	-1.92034	-1.70334
N	248.602	1.86736	-0.579889
C	248.711	3.30745	-0.598646
H	249.416	1.3335	-0.7809
H	249.748	3.61983	-0.850972
H	248.449	3.73427	0.396502
H	248.019	3.74435	-1.35482
