44
  This energy is 0 and Call times are: 12800
C	2.80498	-0.574205	-1.97865
C	2.09419	0.158375	-0.906625
O	2.68887	0.926648	-0.163311
H	3.88522	-0.313422	-1.94777
H	2.39543	-0.292169	-2.97136
H	2.69533	-1.66937	-1.83137
N	0.782987	-0.0695215	-0.800836
C	-0.0350746	0.536523	0.219971
C	-1.19265	-0.398507	0.515427
O	-1.4012	-1.38464	-0.188679
H	0.320632	-0.728722	-1.38697
H	0.542801	0.632267	1.13075
C	-0.55672	1.91616	-0.237983
H	-1.15844	1.8171	-1.1665
H	-1.17666	2.39918	0.544888
H	0.307237	2.58121	-0.456247
N	-1.97215	-0.112588	1.57687
C	-3.0934	-0.948286	1.93823
H	-1.7851	0.687546	2.13711
H	-3.60871	-0.547221	2.83869
H	-2.75416	-1.98574	2.16153
H	-3.83112	-0.998148	1.1049
C	585.66	-1.02166	-3.26093
C	586.01	-0.269447	-2.03495
O	587.119	0.225358	-1.89072
H	586.541	-1.0499	-3.93836
H	584.818	-0.52536	-3.78723
H	585.372	-2.06246	-3.00224
N	585.054	-0.167673	-1.10825
C	585.258	0.496689	0.154802
C	584.34	-0.14222	1.17953
O	583.478	-0.949002	0.836387
H	584.169	-0.610732	-1.22244
H	586.276	0.330059	0.485331
C	584.968	2.00897	0.0360769
H	583.921	2.18064	-0.292831
H	585.136	2.53408	0.998765
H	585.646	2.45406	-0.724715
N	584.511	0.200247	2.47166
C	583.687	-0.360668	3.51739
H	585.216	0.851685	2.73026
H	583.982	0.0448092	4.51028
H	583.791	-1.46956	3.54681
H	582.614	-0.118874	3.34454
