44
  This energy is 0 and Call times are: 9832
C	1.80744	-2.38159	1.78153
C	1.2586	-1.83837	0.518671
O	1.60932	-2.28141	-0.566281
H	2.54364	-3.18123	1.54812
H	0.991795	-2.81314	2.39897
H	2.3184	-1.57853	2.35346
N	0.37147	-0.847466	0.634863
C	-0.217359	-0.188934	-0.504512
C	-0.563467	1.23242	-0.102623
O	-0.486068	1.59172	1.07068
H	0.126723	-0.469925	1.52336
H	0.514356	-0.129957	-1.30059
C	-1.47966	-0.938786	-0.983633
H	-2.23487	-0.990358	-0.170593
H	-1.93444	-0.449282	-1.86912
H	-1.2042	-1.97867	-1.2649
N	-0.947893	2.08142	-1.07599
C	-1.29145	3.45467	-0.789027
H	-1.00048	1.77332	-2.02012
H	-1.58098	3.99036	-1.71984
H	-0.42699	3.98853	-0.33188
H	-2.14519	3.5053	-0.0750961
C	375.446	-0.71976	2.36921
C	374.512	0.215862	1.70293
O	374.289	1.32558	2.16699
H	375.841	-0.247417	3.29475
H	376.296	-0.956582	1.69548
H	374.918	-1.65793	2.64171
N	373.934	-0.220641	0.581364
C	372.971	0.559035	-0.155233
C	372.038	-0.39768	-0.873287
O	372.273	-1.604	-0.903079
H	374.094	-1.14181	0.238269
H	372.371	1.13442	0.538962
C	373.673	1.49164	-1.16634
H	374.28	0.901089	-1.88527
H	372.943	2.10738	-1.73007
H	374.357	2.17739	-0.619665
N	370.944	0.12167	-1.46529
C	369.997	-0.71233	-2.16719
H	370.768	1.09975	-1.42689
H	369.167	-0.0999042	-2.58388
H	369.56	-1.47377	-1.48108
H	370.493	-1.24926	-3.00784
