44
  This energy is 0 and Call times are: 12072
C	2.11093	1.5131	2.31672
C	1.84718	0.532316	1.23985
O	2.76131	-0.0724216	0.696643
H	3.20696	1.58374	2.48881
H	1.61948	1.18919	3.25815
H	1.72771	2.51374	2.02525
N	0.568408	0.352556	0.90103
C	0.158593	-0.536163	-0.157643
C	-1.1387	-0.00944309	-0.741731
O	-1.74312	0.914946	-0.201459
H	-0.16121	0.882219	1.32409
H	0.899312	-0.516554	-0.947315
C	-0.0306035	-1.9746	0.37182
H	-0.798015	-1.99695	1.1747
H	-0.332769	-2.67133	-0.436751
H	0.928838	-2.33662	0.801663
N	-1.5945	-0.584517	-1.87202
C	-2.81743	-0.146021	-2.50318
H	-1.08934	-1.32851	-2.29672
H	-3.02217	-0.741461	-3.42011
H	-2.74764	0.928	-2.79107
H	-3.68132	-0.262027	-1.80937
C	532.174	-1.76724	-2.88232
C	531.966	-1.42928	-1.45629
O	530.968	-1.80331	-0.85636
H	531.306	-2.3558	-3.25085
H	533.096	-2.37417	-3.00108
H	532.262	-0.839725	-3.48653
N	532.92	-0.699388	-0.873917
C	532.838	-0.256259	0.495548
C	533.617	1.03946	0.620987
O	534.315	1.44694	-0.305636
H	533.707	-0.36784	-1.38639
H	531.806	-0.0368617	0.738657
C	533.405	-1.32436	1.45602
H	534.467	-1.54213	1.21372
H	533.335	-1.00074	2.51472
H	532.825	-2.2661	1.34146
N	533.508	1.72524	1.77591
C	534.208	2.9712	1.98411
H	532.935	1.38155	2.5127
H	533.99	3.38076	2.99501
H	533.9	3.72677	1.22577
H	535.309	2.82305	1.89558
