44
  This energy is 0 and Call times are: 9608
C	2.53815	0.741452	-2.2629
C	1.26868	0.0710574	-1.90212
O	0.567428	-0.457131	-2.75399
H	2.68558	0.68116	-3.36313
H	3.39163	0.242005	-1.75805
H	2.50535	1.81006	-1.96276
N	0.939558	0.0802292	-0.608303
C	-0.285547	-0.493774	-0.11011
C	-0.684535	0.259197	1.14504
O	0.0794297	1.07269	1.66109
H	1.50022	0.549788	0.0677438
H	-1.07217	-0.344993	-0.8393
C	-0.106554	-1.99729	0.194277
H	0.69313	-2.14975	0.950119
H	-1.04686	-2.45393	0.565517
H	0.192989	-2.52701	-0.736323
N	-1.90322	0.00950544	1.6632
C	-2.37131	0.682429	2.85242
H	-2.50887	-0.649149	1.22911
H	-3.39602	0.341946	3.11938
H	-2.39828	1.78504	2.69494
H	-1.69654	0.473133	3.71383
C	354.947	2.81	-0.0439771
C	355.455	1.57718	0.598787
O	355.193	1.3172	1.76505
H	354.355	3.39248	0.695194
H	354.294	2.55194	-0.903987
H	355.794	3.43422	-0.39788
N	356.208	0.778803	-0.161229
C	356.809	-0.433636	0.336228
C	358.078	-0.69121	-0.453913
O	358.348	-0.020636	-1.44856
H	356.447	1.02426	-1.09651
H	357.096	-0.291658	1.37062
C	355.837	-1.62621	0.202915
H	355.55	-1.77888	-0.859413
H	356.283	-2.56301	0.595344
H	354.912	-1.41246	0.782338
N	358.897	-1.67068	-0.0210436
C	360.129	-1.98385	-0.705856
H	358.663	-2.1997	0.788165
H	360.661	-2.81781	-0.196931
H	360.804	-1.09764	-0.72478
H	359.928	-2.28692	-1.75881
