44
  This energy is 0 and Call times are: 4904
C	-2.15409	2.58067	-0.901507
C	-1.17328	1.9636	0.0195619
O	-0.681411	2.60132	0.940313
H	-2.31148	3.64261	-0.612719
H	-3.12455	2.04453	-0.842333
H	-1.77495	2.54433	-1.94459
N	-0.86109	0.686835	-0.214525
C	0.109024	-0.0362275	0.569452
C	0.729938	-1.10283	-0.312811
O	0.272354	-1.34198	-1.42867
H	-1.23892	0.193182	-0.992611
H	0.902236	0.638273	0.866934
C	-0.551073	-0.676624	1.81018
H	-1.35787	-1.37668	1.50516
H	0.18829	-1.22469	2.42944
H	-1.00564	0.12135	2.43704
N	1.79974	-1.76675	0.167549
C	2.45997	-2.79466	-0.602971
H	2.15805	-1.5563	1.07109
H	3.31716	-3.2211	-0.0367663
H	2.84536	-2.37979	-1.56247
H	1.75255	-3.62099	-0.843544
C	22.1019	0.706725	3.22478
C	21.7864	1.11355	1.83694
O	21.7425	2.29363	1.51769
H	22.2539	1.6146	3.84807
H	23.0304	0.0982613	3.2435
H	21.2639	0.115131	3.65002
N	21.5536	0.127272	0.967768
C	21.1921	0.36719	-0.407119
C	20.348	-0.799392	-0.884712
O	20.2184	-1.80776	-0.19325
H	21.5527	-0.827202	1.25208
H	20.5761	1.25595	-0.464657
C	22.4502	0.522183	-1.28938
H	23.0772	-0.393456	-1.23897
H	22.1851	0.72112	-2.34799
H	23.0567	1.37639	-0.916832
N	19.7434	-0.684284	-2.08359
C	18.9161	-1.741	-2.61754
H	19.8568	0.14107	-2.62674
H	18.5089	-1.45677	-3.61282
H	18.0604	-1.95228	-1.93606
H	19.5044	-2.67983	-2.7343
