44
  This energy is 0 and Call times are: 9860
C	-1.83346	0.304021	-2.94256
C	-0.574049	0.421962	-2.17373
O	0.493653	0.624988	-2.73516
H	-1.61305	0.410032	-4.02702
H	-2.54267	1.10299	-2.6402
H	-2.29823	-0.688857	-2.7657
N	-0.67334	0.292603	-0.848667
C	0.469887	0.340399	0.0284347
C	0.16188	-0.500283	1.25315
O	-0.968997	-0.943057	1.44494
H	-1.54337	0.0868124	-0.409852
H	1.31982	-0.111496	-0.467578
C	0.791471	1.79471	0.436853
H	-0.0764423	2.25532	0.955122
H	1.67833	1.8461	1.10121
H	1.00577	2.39325	-0.475385
N	1.17083	-0.747843	2.11151
C	0.973276	-1.54267	3.30122
H	2.07997	-0.384367	1.93713
H	1.92115	-1.63202	3.87635
H	0.626477	-2.56762	3.03573
H	0.205019	-1.07836	3.96102
C	371.845	-1.44891	0.249219
C	372.771	-0.305579	0.413848
O	372.353	0.81619	0.6654
H	370.799	-1.09484	0.37241
H	372.055	-2.22443	1.01564
H	371.959	-1.89019	-0.763463
N	374.072	-0.569757	0.270585
C	375.09	0.447439	0.359479
C	376.263	0.019552	-0.502426
O	376.305	-1.10687	-0.993392
H	374.394	-1.47972	0.0254259
H	374.707	1.37271	-0.0528686
C	375.539	0.651698	1.82285
H	375.942	-0.294642	2.24299
H	376.313	1.44226	1.90622
H	374.664	0.956599	2.43658
N	377.244	0.91864	-0.714084
C	378.396	0.602769	-1.5253
H	377.189	1.8265	-0.311714
H	379.089	1.47127	-1.57934
H	378.086	0.336884	-2.56181
H	378.952	-0.263289	-1.09837
