44
  This energy is 0 and Call times are: 6108
C	-2.85637	1.98648	0.0878323
C	-1.51168	1.66005	-0.437883
O	-1.06546	2.22272	-1.42819
H	-3.32627	2.75863	-0.559367
H	-2.77707	2.38379	1.12156
H	-3.4974	1.07974	0.0887128
N	-0.826364	0.725218	0.224546
C	0.476999	0.270636	-0.191577
C	0.645769	-1.16553	0.267231
O	-0.174692	-1.68666	1.02021
H	-1.21946	0.246995	1.0047
H	0.527157	0.271698	-1.2733
C	1.58837	1.16316	0.402979
H	1.54394	1.15406	1.51293
H	2.59607	0.831709	0.0786525
H	1.44038	2.21062	0.060512
N	1.71752	-1.84499	-0.18633
C	1.95767	-3.21803	0.192166
H	2.36817	-1.40755	-0.798188
H	2.88771	-3.60016	-0.283465
H	1.10954	-3.86705	-0.125224
H	2.06634	-3.30786	1.29727
C	108.404	2.76	-1.58828
C	107.263	1.86272	-1.30154
O	106.125	2.15675	-1.64275
H	108.035	3.67016	-2.10862
H	109.14	2.24616	-2.24207
H	108.9	3.06337	-0.641883
N	107.546	0.729777	-0.654621
C	106.535	-0.22248	-0.26785
C	107.019	-0.947978	0.973594
O	108.17	-0.80194	1.37995
H	108.471	0.523577	-0.347314
H	105.629	0.307153	0.000390877
C	106.258	-1.22645	-1.40819
H	107.184	-1.77757	-1.67658
H	105.471	-1.9565	-1.12769
H	105.913	-0.672892	-2.30866
N	106.141	-1.74595	1.61332
C	106.51	-2.47206	2.8061
H	105.213	-1.84818	1.27162
H	105.652	-3.07128	3.183
H	106.828	-1.77003	3.61084
H	107.358	-3.16484	2.59817
