44
  This energy is 0 and Call times are: 6192
C	0.779048	-3.38345	-0.240834
C	0.253179	-2.12334	-0.812415
O	0.0194388	-2.01994	-2.00869
H	0.917381	-4.12683	-1.05578
H	0.0640143	-3.79416	0.502664
H	1.75849	-3.20169	0.249824
N	0.0546735	-1.1199	0.0455411
C	-0.412107	0.180057	-0.367725
C	0.127694	1.20865	0.608063
O	0.694873	0.859454	1.64154
H	0.288299	-1.20608	1.00983
H	-0.00200205	0.413658	-1.34234
C	-1.95541	0.2261	-0.404364
H	-2.37639	-0.00313129	0.597766
H	-2.32702	1.21778	-0.734508
H	-2.32857	-0.540001	-1.11864
N	-0.030173	2.51002	0.295734
C	0.455905	3.5594	1.16102
H	-0.488136	2.77291	-0.547018
H	0.230465	4.55998	0.730635
H	1.55858	3.47687	1.29731
H	-0.0219523	3.49368	2.16525
C	112.253	2.99139	1.61453
C	112.81	2.22983	0.473592
O	113.12	2.7887	-0.569334
H	112.171	4.06425	1.33501
H	112.92	2.89988	2.49736
H	111.243	2.60945	1.87348
N	112.947	0.913607	0.649459
C	113.434	0.0344447	-0.384269
C	112.828	-1.33826	-0.162152
O	112.196	-1.58944	0.862441
H	112.652	0.467258	1.48934
H	113.087	0.388488	-1.34701
C	114.977	-0.0446739	-0.360068
H	115.333	-0.417851	0.623811
H	115.364	-0.707818	-1.16027
H	115.399	0.972009	-0.516573
N	113	-2.26168	-1.12844
C	112.454	-3.5934	-1.00716
H	113.51	-2.03839	-1.95219
H	112.702	-4.2034	-1.90348
H	111.345	-3.55563	-0.905329
H	112.866	-4.10669	-0.108275
