44
  This energy is 0 and Call times are: 6836
C	1.52451	0.528433	-3.08372
C	0.603947	0.935298	-1.99828
O	0.123288	2.05967	-1.96416
H	1.67967	1.38567	-3.77433
H	1.09157	-0.319482	-3.65498
H	2.50549	0.226007	-2.66026
N	0.336108	0.0133646	-1.07056
C	-0.507271	0.274517	0.0692106
C	-0.0573014	-0.623447	1.2062
O	0.768631	-1.5142	1.01616
H	0.767183	-0.884233	-1.08953
H	-0.365386	1.29857	0.391425
C	-1.99108	0.0145815	-0.271346
H	-2.139	-1.03871	-0.591863
H	-2.6521	0.225442	0.594166
H	-2.29636	0.676632	-1.11089
N	-0.588033	-0.402521	2.42503
C	-0.215732	-1.20322	3.56803
H	-1.25185	0.325637	2.55995
H	-0.759703	-0.866589	4.47797
H	0.878113	-1.12339	3.764
H	-0.457446	-2.27636	3.39169
C	157.987	3.12128	1.159
C	157.822	1.94064	0.281385
O	156.796	1.7687	-0.362807
H	157.063	3.73871	1.12091
H	158.845	3.73667	0.815828
H	158.16	2.79785	2.2071
N	158.847	1.08573	0.238545
C	158.817	-0.129928	-0.535969
C	159.719	-1.14429	0.141707
O	160.447	-0.814808	1.07649
H	159.658	1.21811	0.800121
H	157.813	-0.53481	-0.527546
C	159.285	0.127794	-1.98507
H	160.319	0.533283	-1.99477
H	159.254	-0.797963	-2.59542
H	158.616	0.878781	-2.45875
N	159.686	-2.4127	-0.31216
C	160.505	-3.44752	0.274517
H	159.087	-2.66096	-1.06687
H	160.335	-4.42081	-0.236316
H	160.265	-3.57245	1.35543
H	161.585	-3.19001	0.18772
