44
  This energy is 0 and Call times are: 9160
C	2.42807	-2.12134	-1.31038
C	1.26721	-1.2161	-1.46559
O	0.910922	-0.827171	-2.56932
H	2.86739	-2.32995	-2.31006
H	2.10705	-3.08015	-0.851726
H	3.20103	-1.64611	-0.670247
N	0.64315	-0.853408	-0.342481
C	-0.475142	0.0564351	-0.329438
C	-0.47928	0.781719	1.00304
O	0.274328	0.435639	1.9108
H	0.969999	-1.14549	0.551793
H	-0.337787	0.80239	-1.1023
C	-1.80493	-0.700834	-0.537872
H	-1.95138	-1.45901	0.260728
H	-2.67243	-0.00950014	-0.54366
H	-1.77639	-1.23045	-1.51514
N	-1.32886	1.81762	1.14845
C	-1.39897	2.57073	2.37894
H	-1.92798	2.0853	0.40114
H	-2.15658	3.38141	2.30121
H	-0.412966	3.03375	2.61278
H	-1.67982	1.90848	3.22963
C	322.374	-1.74693	-1.47194
C	322.99	-0.49699	-0.971983
O	322.491	0.594028	-1.21148
H	321.468	-1.49813	-2.06526
H	322.08	-2.39565	-0.620407
H	323.09	-2.29282	-2.12176
N	324.108	-0.631516	-0.255634
C	324.845	0.494958	0.261471
C	326.305	0.0974855	0.366545
O	326.654	-1.0686	0.193567
H	324.525	-1.52341	-0.103722
H	324.784	1.31535	-0.442684
C	324.3	0.923892	1.64138
H	324.372	0.0858427	2.36699
H	324.849	1.7992	2.04395
H	323.228	1.20267	1.54211
N	327.198	1.06689	0.646341
C	328.61	0.783832	0.760382
H	326.897	2.00533	0.778944
H	329.179	1.71041	0.994159
H	329.004	0.361358	-0.192236
H	328.798	0.0427067	1.57063
