44
  This energy is 0 and Call times are: 5436
C	-1.82561	-2.49125	-1.60422
C	-1.5445	-1.06895	-1.30558
O	-2.07215	-0.171132	-1.94738
H	-2.53102	-2.55416	-2.46114
H	-2.28667	-2.9836	-0.722309
H	-0.8861	-3.01884	-1.87268
N	-0.689862	-0.829654	-0.308228
C	-0.285146	0.50113	0.070953
C	1.10997	0.42098	0.661542
O	1.63104	-0.666654	0.900814
H	-0.23702	-1.57151	0.178034
H	-0.225557	1.1222	-0.814121
C	-1.27168	1.10769	1.09276
H	-1.32522	0.47649	2.00532
H	-0.978555	2.13766	1.38215
H	-2.28734	1.14931	0.64216
N	1.75395	1.57971	0.903738
C	3.08688	1.60182	1.45962
H	1.3175	2.44973	0.699661
H	3.44372	2.64794	1.58417
H	3.79973	1.06548	0.792199
H	3.10552	1.10381	2.45601
C	59.8254	-3.28584	-0.796737
C	58.8344	-2.219	-0.53038
O	57.6454	-2.38669	-0.764351
H	59.3067	-4.1695	-1.22805
H	60.3254	-3.58803	0.14738
H	60.5877	-2.92794	-1.52046
N	59.3115	-1.07767	-0.0283356
C	58.4763	0.0657776	0.242649
C	59.3257	1.31524	0.104852
O	60.5452	1.23601	-0.0302244
H	60.2872	-0.941642	0.118385
H	57.6951	0.122723	-0.505067
C	57.8655	-0.0203283	1.65855
H	58.6666	-0.0681437	2.42668
H	57.2092	0.847611	1.87406
H	57.2548	-0.946003	1.73912
N	58.6948	2.50582	0.127584
C	59.42	3.74816	-0.00210259
H	57.7069	2.54947	0.233632
H	58.7249	4.61553	0.0402168
H	59.9669	3.7843	-0.972095
H	60.1655	3.85562	0.818751
