44
  This energy is 0 and Call times are: 5548
C	0.0176053	0.903205	3.36104
C	-0.362524	-0.00850836	2.25858
O	-0.833991	-1.11421	2.48564
H	-0.181203	0.40498	4.33476
H	-0.578828	1.83815	3.30735
H	1.09837	1.1503	3.29786
N	-0.15984	0.44288	1.0186
C	-0.440095	-0.346008	-0.155142
C	0.498399	0.100524	-1.26031
O	1.20257	1.09908	-1.1234
H	0.262767	1.32882	0.850126
H	-0.221671	-1.38602	0.0529277
C	-1.91146	-0.178894	-0.593787
H	-2.1332	0.88638	-0.81752
H	-2.14341	-0.792208	-1.48853
H	-2.58009	-0.504044	0.232988
N	0.535815	-0.639548	-2.38588
C	1.40233	-0.294722	-3.4888
H	-0.0384071	-1.44648	-2.47643
H	1.28905	-1.02415	-4.32086
H	2.46852	-0.29467	-3.1655
H	1.15925	0.720833	-3.877
C	67.1611	2.8166	2.03802
C	67.504	2.08346	0.79865
O	68.0288	2.65231	-0.148673
H	67.4388	3.88662	1.92056
H	67.7185	2.39315	2.89983
H	66.0702	2.74788	2.23387
N	67.2074	0.781938	0.777684
C	67.4418	-0.0539443	-0.373371
C	66.4199	-1.1752	-0.359599
O	65.6899	-1.35003	0.614136
H	66.743	0.341903	1.54096
H	67.2749	0.523505	-1.27411
C	68.8755	-0.627741	-0.355764
H	69.0438	-1.22897	0.56307
H	69.0729	-1.26202	-1.24416
H	69.6063	0.210321	-0.358143
N	66.3387	-1.96061	-1.45164
C	65.3925	-3.04897	-1.53128
H	66.9351	-1.80098	-2.23132
H	65.4797	-3.57523	-2.50734
H	64.3495	-2.67094	-1.42888
H	65.5735	-3.78755	-0.717108
