44
  This energy is 0 and Call times are: 7368
C	-2.45569	-1.92172	-1.54573
C	-1.44763	-0.837864	-1.56046
O	-1.10634	-0.305022	-2.60737
H	-2.78277	-2.13327	-2.58696
H	-3.33887	-1.61482	-0.946951
H	-2.01807	-2.84547	-1.11184
N	-0.939213	-0.484169	-0.377755
C	0.0814141	0.524274	-0.236606
C	0.899879	0.19921	0.998709
O	0.544859	-0.686247	1.77436
H	-1.19689	-0.955189	0.461058
H	0.749492	0.47794	-1.08758
C	-0.545474	1.9306	-0.116179
H	-1.22281	1.98177	0.76282
H	0.23074	2.71732	-0.0208805
H	-1.14612	2.14391	-1.02726
N	2.02713	0.907914	1.20623
C	2.87256	0.665061	2.35186
H	2.30008	1.61761	0.565215
H	3.75026	1.34829	2.34478
H	3.24559	-0.384753	2.34923
H	2.30831	0.82857	3.29845
C	199.857	0.752758	1.83884
C	199.181	0.134661	0.676188
O	199.821	-0.286751	-0.277673
H	200.955	0.764714	1.66175
H	199.648	0.167532	2.75889
H	199.504	1.79649	1.97659
N	197.849	0.0684451	0.730778
C	197.049	-0.466428	-0.342819
C	195.694	0.214828	-0.307754
O	195.378	0.941174	0.632746
H	197.34	0.452789	1.49566
H	197.511	-0.217818	-1.29031
C	196.89	-1.99623	-0.202859
H	196.407	-2.25123	0.764421
H	196.287	-2.42195	-1.03131
H	197.894	-2.47313	-0.223068
N	194.859	0.000963187	-1.34414
C	193.552	0.61149	-1.40013
H	195.134	-0.586717	-2.09793
H	193.018	0.31411	-2.32982
H	193.636	1.72233	-1.38442
H	192.935	0.29961	-0.526603
