44
  This energy is 0 and Call times are: 4876
C	-1.97227	2.86653	-0.0762562
C	-1.06779	1.88939	-0.72298
O	-0.901677	1.88638	-1.93492
H	-2.43151	3.51333	-0.855122
H	-1.40277	3.50517	0.631243
H	-2.77924	2.33632	0.472158
N	-0.454877	1.0222	0.0861566
C	0.420945	-0.0146499	-0.400081
C	0.366212	-1.17573	0.574828
O	-0.210991	-1.06466	1.65474
H	-0.631795	1.01075	1.06618
H	0.053027	-0.375514	-1.35247
C	1.86796	0.506503	-0.540776
H	2.2496	0.867091	0.438182
H	2.5494	-0.2787	-0.927579
H	1.88283	1.36065	-1.25251
N	0.963189	-2.32741	0.209746
C	0.957722	-3.48749	1.07019
H	1.4217	-2.39929	-0.669843
H	1.49926	-4.33372	0.592857
H	-0.0860629	-3.81437	1.28218
H	1.45183	-3.25835	2.04205
C	22.2147	1.16293	-0.652746
C	20.8315	1.36068	-0.164121
O	20.516	2.36903	0.45243
H	22.8389	2.03165	-0.350072
H	22.2217	1.08384	-1.76019
H	22.6473	0.239282	-0.213638
N	19.9621	0.3835	-0.431878
C	18.5919	0.413112	0.0154747
C	18.1201	-1.01822	0.189591
O	18.8101	-1.96004	-0.1959
H	20.2437	-0.449718	-0.899088
H	18.5435	0.889131	0.986908
C	17.6966	1.15879	-0.99824
H	17.7376	0.664638	-1.99231
H	16.6414	1.20045	-0.658429
H	18.0649	2.20129	-1.11587
N	16.9282	-1.21549	0.786494
C	16.4002	-2.54283	1.00003
H	16.3861	-0.440956	1.09533
H	15.4101	-2.49575	1.50485
H	17.0902	-3.14224	1.63707
H	16.2745	-3.07655	0.0302486
