44
  This energy is 0 and Call times are: 6472
C	-0.478314	-3.42658	0.377393
C	-0.654661	-2.16053	-0.369039
O	-1.08418	-2.15557	-1.51442
H	-0.772741	-4.27972	-0.27172
H	-1.11793	-3.42806	1.28493
H	0.584466	-3.55096	0.674244
N	-0.318621	-1.04029	0.274791
C	-0.394206	0.263721	-0.33545
C	0.65252	1.15046	0.312327
O	1.271	0.772388	1.30543
H	0.0681354	-1.06367	1.19225
H	-0.142547	0.181866	-1.3855
C	-1.80265	0.87319	-0.162015
H	-2.05706	0.967149	0.915241
H	-1.87767	1.87153	-0.639728
H	-2.55314	0.203873	-0.636492
N	0.881999	2.35604	-0.244402
C	1.86336	3.26545	0.299732
H	0.374444	2.6426	-1.05022
H	1.90455	4.20292	-0.297491
H	2.87591	2.80074	0.292839
H	1.61242	3.53074	1.35225
C	134.921	-1.62881	2.40162
C	133.758	-0.806002	2.0023
O	132.847	-0.574426	2.78605
H	134.788	-1.96825	3.45181
H	135.854	-1.03091	2.33275
H	135.004	-2.51959	1.74378
N	133.761	-0.340648	0.750968
C	132.678	0.438106	0.204379
C	132.632	0.198753	-1.29301
O	133.53	-0.421133	-1.85959
H	134.489	-0.571721	0.112115
H	131.741	0.0851109	0.616415
C	132.871	1.94026	0.506934
H	133.827	2.30536	0.0753618
H	132.036	2.54907	0.10316
H	132.91	2.09084	1.60791
N	131.572	0.681199	-1.97105
C	131.44	0.497176	-3.39752
H	130.853	1.17667	-1.49447
H	130.502	0.965323	-3.76913
H	131.415	-0.586966	-3.65312
H	132.299	0.959408	-3.93484
