44
  This energy is 0 and Call times are: 9356
C	1.8581	-2.23692	1.91215
C	1.72402	-1.27726	0.793132
O	2.70536	-0.873059	0.184859
H	2.9339	-2.46759	2.07127
H	1.31985	-3.17868	1.67525
H	1.44292	-1.79851	2.84409
N	0.483795	-0.883683	0.494254
C	0.197973	0.078744	-0.540444
C	-1.08155	0.805034	-0.170466
O	-1.77144	0.424341	0.773374
H	-0.30127	-1.19	1.02502
H	0.99025	0.816303	-0.571008
C	0.0498704	-0.614156	-1.91274
H	-0.769776	-1.36345	-1.88494
H	-0.156669	0.117966	-2.72012
H	0.994835	-1.14573	-2.15935
N	-1.42506	1.88066	-0.906038
C	-2.62244	2.63778	-0.624556
H	-0.851898	2.17583	-1.66329
H	-2.72978	3.48375	-1.33872
H	-2.59061	3.05328	0.408701
H	-3.52547	1.9908	-0.708814
C	337.109	2.82227	0.755706
C	337.865	1.97638	-0.195122
O	337.817	2.18071	-1.40027
H	336.535	3.58842	0.189965
H	337.807	3.33578	1.44973
H	336.398	2.20024	1.33977
N	338.59	0.989091	0.335829
C	339.344	0.0568646	-0.464382
C	339.435	-1.25343	0.294933
O	339.057	-1.33206	1.46238
H	338.586	0.809839	1.31548
H	338.808	-0.139727	-1.38444
C	340.756	0.605656	-0.766839
H	341.31	0.797573	0.176543
H	341.342	-0.0970143	-1.39404
H	340.666	1.56844	-1.31568
N	339.933	-2.32158	-0.358212
C	340.052	-3.61104	0.281608
H	340.23	-2.23932	-1.30393
H	340.483	-4.35956	-0.419159
H	339.054	-3.97736	0.615227
H	340.713	-3.54658	1.17618
