44
  This energy is 0 and Call times are: 8992
C	3.38594	0.49229	-0.636959
C	1.99319	0.984143	-0.539766
O	1.74036	2.18045	-0.576349
H	4.07659	1.35931	-0.721576
H	3.5033	-0.149648	-1.53523
H	3.65022	-0.0904092	0.270627
N	1.04344	0.0549933	-0.409192
C	-0.352917	0.381264	-0.259925
C	-1.01486	-0.726574	0.537623
O	-0.409433	-1.7652	0.795371
H	1.26847	-0.912693	-0.339827
H	-0.44703	1.29363	0.315712
C	-1.03329	0.537501	-1.63758
H	-0.946199	-0.401704	-2.22439
H	-2.10569	0.802417	-1.53613
H	-0.527706	1.3479	-2.20678
N	-2.27982	-0.525459	0.956497
C	-2.98858	-1.52125	1.72606
H	-2.75175	0.323165	0.741579
H	-4.01402	-1.16946	1.97494
H	-2.45159	-1.73753	2.67797
H	-3.07356	-2.47324	1.15365
C	311.894	-3.14047	1.01366
C	312.912	-2.06601	0.978025
O	313.889	-2.09544	1.7127
H	312.176	-3.88802	1.78659
H	311.838	-3.6471	0.0273072
H	310.9	-2.71742	1.26898
N	312.699	-1.07549	0.108614
C	313.578	0.0611149	-0.0109448
C	312.758	1.24493	-0.488135
O	311.595	1.09699	-0.859039
H	311.877	-1.04466	-0.453739
H	313.97	0.313518	0.966221
C	314.729	-0.23304	-0.997545
H	314.327	-0.481746	-2.00289
H	315.42	0.62966	-1.08774
H	315.31	-1.10762	-0.632613
N	313.347	2.45695	-0.481445
C	312.642	3.64197	-0.912865
H	314.287	2.55729	-0.173934
H	313.296	4.53859	-0.833079
H	311.737	3.81111	-0.285821
H	312.314	3.54023	-1.97262
