44
  This energy is 0 and Call times are: 10784
C	2.85953	-1.86572	-0.674428
C	1.59687	-1.63666	0.0633819
O	1.10961	-2.50823	0.770022
H	3.21632	-2.90041	-0.479492
H	3.63615	-1.14804	-0.335975
H	2.69302	-1.74258	-1.76539
N	1.02927	-0.437982	-0.089517
C	-0.222932	-0.0821688	0.530117
C	-0.905682	0.953163	-0.343666
O	-0.314235	1.46574	-1.29191
H	1.41637	0.246755	-0.700385
H	-0.866183	-0.952737	0.561262
C	0.00403817	0.47466	1.95267
H	0.655307	1.37401	1.92022
H	-0.953792	0.739379	2.44563
H	0.511819	-0.296657	2.57201
N	-2.17893	1.28008	-0.0470482
C	-2.91107	2.25131	-0.82606
H	-2.64209	0.851517	0.721648
H	-3.94028	2.38201	-0.424965
H	-2.98782	1.92529	-1.88865
H	-2.39796	3.23994	-0.804479
C	440.11	2.96632	-1.58806
C	440.895	2.20817	-0.587958
O	441.833	2.7242	0.00395961
H	440.53	3.99109	-1.68448
H	439.05	3.04118	-1.26587
H	440.161	2.46259	-2.57635
N	440.523	0.943545	-0.376348
C	441.217	0.067556	0.534624
C	441.045	-1.35755	0.0435508
O	440.27	-1.61823	-0.874539
H	439.784	0.525046	-0.895621
H	442.276	0.292068	0.50931
C	440.666	0.2158	1.96982
H	439.582	-0.0246378	1.99827
H	441.202	-0.443527	2.68331
H	440.795	1.26797	2.30551
N	441.777	-2.31781	0.642891
C	441.684	-3.70144	0.239029
H	442.401	-2.08677	1.38129
H	442.362	-4.33604	0.850562
H	441.966	-3.81769	-0.832427
H	440.643	-4.07849	0.364597
