44
  This energy is 0 and Call times are: 6920
C	-2.06186	2.72145	0.674621
C	-0.742841	2.13576	0.345553
O	0.196179	2.84198	0.00512072
H	-2.01832	3.82399	0.538985
H	-2.32674	2.49935	1.72973
H	-2.84287	2.30729	0.00261992
N	-0.643088	0.807754	0.439557
C	0.563186	0.0900366	0.110402
C	0.173925	-1.29931	-0.358369
O	-0.984423	-1.69793	-0.253251
H	-1.42771	0.242785	0.678386
H	1.05759	0.583024	-0.717341
C	1.50533	0.00541612	1.33124
H	1.00227	-0.509634	2.17722
H	2.44388	-0.532965	1.0867
H	1.77067	1.0333	1.66199
N	1.13849	-2.07019	-0.898162
C	0.860455	-3.40424	-1.37692
H	2.06905	-1.72861	-0.978486
H	1.78166	-3.87561	-1.78487
H	0.0924673	-3.3799	-2.18369
H	0.47417	-4.0454	-0.551797
C	168.379	-0.293826	0.781716
C	166.996	0.12074	1.11053
O	166.692	0.469256	2.24304
H	169.005	-0.242003	1.69837
H	168.809	0.382814	0.0135852
H	168.385	-1.33677	0.400544
N	166.113	0.0890864	0.109664
C	164.722	0.422721	0.285148
C	163.916	-0.352541	-0.740576
O	164.476	-0.979091	-1.63811
H	166.366	-0.236006	-0.797079
H	164.397	0.0953515	1.26484
C	164.493	1.94095	0.118008
H	164.817	2.27542	-0.890705
H	163.427	2.2124	0.264524
H	165.098	2.48854	0.873371
N	162.574	-0.33453	-0.625044
C	161.726	-1.04742	-1.55173
H	162.139	0.174812	0.110306
H	160.654	-0.910092	-1.28918
H	161.954	-2.13777	-1.53403
H	161.882	-0.678764	-2.5913
