44
  This energy is 0 and Call times are: 7816
C	-0.193138	-1.13271	3.28517
C	-0.650425	-0.26425	2.17711
O	-1.68662	0.380064	2.26412
H	-0.931333	-1.08837	4.11522
H	0.792153	-0.785935	3.66159
H	-0.106568	-2.18361	2.93701
N	0.125467	-0.2297	1.09121
C	-0.209735	0.535189	-0.0840129
C	0.407671	-0.151836	-1.28749
O	1.19533	-1.08505	-1.14457
H	0.944713	-0.791405	1.01917
H	-1.28367	0.525034	-0.222541
C	0.307177	1.9856	0.0357573
H	1.41017	1.99699	0.167323
H	0.0432338	2.58863	-0.85711
H	-0.151454	2.46621	0.927397
N	0.0549402	0.292006	-2.51004
C	0.587156	-0.304069	-3.71321
H	-0.586983	1.04559	-2.60551
H	0.176739	0.19928	-4.61621
H	0.324633	-1.38558	-3.76505
H	1.69754	-0.216819	-3.7371
C	232.181	-0.358582	1.36538
C	231.27	0.0582197	0.275729
O	231.672	0.732818	-0.662228
H	233.197	0.0504112	1.17172
H	232.242	-1.46627	1.41032
H	231.817	0.0310719	2.33917
N	230	-0.339799	0.379306
C	228.987	0.0232996	-0.580314
C	227.649	0.0530686	0.133124
O	227.539	-0.363275	1.28484
H	229.679	-0.853898	1.16948
H	229.182	1.02485	-0.943243
C	228.953	-0.980739	-1.75335
H	228.743	-2.00671	-1.38269
H	228.187	-0.704277	-2.50601
H	229.945	-0.991756	-2.25573
N	226.594	0.557789	-0.536986
C	225.282	0.631632	0.0630017
H	226.703	0.893602	-1.46674
H	224.55	1.0767	-0.646131
H	225.306	1.25997	0.982738
H	224.922	-0.383608	0.347617
