44
  This energy is 0 and Call times are: 7592
C	2.66105	-0.609822	-2.15862
C	1.82448	0.30207	-1.34637
O	2.16622	1.45814	-1.13873
H	3.57833	-0.0734523	-2.48538
H	2.10111	-0.944446	-3.05709
H	2.95738	-1.49495	-1.5571
N	0.691087	-0.208306	-0.859213
C	-0.20483	0.543378	-0.0160861
C	-0.930201	-0.432092	0.891576
O	-0.831933	-1.64543	0.718762
H	0.446601	-1.16303	-1.00271
H	0.372074	1.20554	0.617439
C	-1.2147	1.34813	-0.863297
H	-1.81407	0.668322	-1.50568
H	-1.9013	1.94206	-0.225829
H	-0.661552	2.04958	-1.52537
N	-1.67387	0.0795197	1.89219
C	-2.39526	-0.771757	2.80931
H	-1.73785	1.06391	2.01854
H	-2.94606	-0.163367	3.56011
H	-1.69486	-1.44755	3.35154
H	-3.13125	-1.40435	2.26223
C	212.453	3.10774	-1.46824
C	212.456	1.62812	-1.51179
O	211.93	1.02117	-2.43456
H	211.909	3.50039	-2.35461
H	213.494	3.49279	-1.48607
H	211.944	3.46266	-0.547598
N	213.056	1.00546	-0.495091
C	213.102	-0.430629	-0.376278
C	213.177	-0.781105	1.09786
O	213.355	0.0924748	1.94462
H	213.444	1.51252	0.269395
H	212.181	-0.850467	-0.761064
C	214.318	-1.00829	-1.13292
H	215.264	-0.585849	-0.7315
H	214.357	-2.11454	-1.06056
H	214.247	-0.732869	-2.20778
N	213.034	-2.0765	1.44067
C	213.086	-2.50369	2.81944
H	212.887	-2.76838	0.741563
H	212.947	-3.60469	2.89549
H	212.286	-2.00765	3.41464
H	214.068	-2.24147	3.27558
