44
  This energy is 0 and Call times are: 5772
C	1.42311	0.884477	-3.05043
C	1.19659	1.1072	-1.60467
O	1.85449	1.9277	-0.979899
H	2.24789	1.54348	-3.39877
H	0.503463	1.12626	-3.6236
H	1.70603	-0.173352	-3.23495
N	0.245046	0.366243	-1.03202
C	-0.0608656	0.439508	0.37497
C	-0.598439	-0.909823	0.813005
O	-0.862824	-1.78088	-0.0134796
H	-0.253927	-0.326537	-1.5448
H	0.851468	0.618896	0.930035
C	-1.09436	1.55181	0.657651
H	-2.03432	1.36263	0.0966532
H	-1.32785	1.62747	1.73945
H	-0.6831	2.52882	0.32197
N	-0.765404	-1.11748	2.134
C	-1.26646	-2.37226	2.64454
H	-0.54204	-0.402009	2.78767
H	-1.33216	-2.34704	3.75461
H	-0.594636	-3.21159	2.3522
H	-2.28158	-2.58486	2.23775
C	86.1735	0.960525	1.05772
C	85.0348	0.0148999	1.04506
O	85.1371	-1.10561	1.52507
H	87.0521	0.47111	1.5315
H	85.9105	1.8685	1.64009
H	86.4407	1.25173	0.0199789
N	83.9057	0.453127	0.483334
C	82.7265	-0.366815	0.357936
C	81.9534	0.0998203	-0.861134
O	82.2722	1.1293	-1.45296
H	83.8504	1.35304	0.0603039
H	83.0223	-1.393	0.178941
C	81.8494	-0.269266	1.62537
H	81.5369	0.781759	1.80354
H	80.9452	-0.907012	1.54676
H	82.4378	-0.608059	2.50587
N	80.9168	-0.657175	-1.27167
C	80.1266	-0.295129	-2.42519
H	80.6767	-1.48897	-0.782254
H	79.3221	-1.04281	-2.60111
H	80.7638	-0.244701	-3.33772
H	79.6526	0.702512	-2.27953
