44
  This energy is 0 and Call times are: 7144
C	-2.89232	0.907481	1.70987
C	-1.47403	0.48468	1.68077
O	-0.783273	0.516256	2.68986
H	-3.15485	1.24201	2.73702
H	-3.55057	0.0585697	1.42915
H	-3.05504	1.74994	1.00497
N	-1.00106	0.0747377	0.501522
C	0.37	-0.326284	0.306778
C	0.745418	-0.0427564	-1.13552
O	-0.108203	0.293457	-1.95406
H	-1.56415	0.0934587	-0.319729
H	1.01212	0.280916	0.932573
C	0.557876	-1.82462	0.630689
H	-0.0928917	-2.44859	-0.0183128
H	1.61234	-2.14242	0.497894
H	0.26976	-2.01037	1.68844
N	2.04265	-0.164696	-1.47953
C	2.49436	0.090098	-2.82758
H	2.71933	-0.433818	-0.802219
H	3.59294	-0.0634092	-2.90983
H	2.26345	1.13788	-3.12775
H	1.98963	-0.594382	-3.54721
C	183.103	-2.75539	-0.311898
C	182.224	-1.71516	-0.89099
O	182.181	-1.52255	-2.09826
H	183.669	-3.2543	-1.12855
H	182.496	-3.5165	0.221607
H	183.825	-2.29574	0.396186
N	181.492	-1.00837	-0.0266088
C	180.621	0.0658564	-0.435707
C	180.522	1.05636	0.709132
O	180.992	0.790931	1.81399
H	181.568	-1.14911	0.956371
H	181.066	0.586116	-1.27477
C	179.222	-0.46992	-0.810799
H	178.761	-0.994604	0.0529312
H	178.547	0.346018	-1.1408
H	179.32	-1.19867	-1.64491
N	179.912	2.23293	0.466897
C	179.775	3.23931	1.4939
H	179.542	2.43113	-0.43467
H	179.245	4.13429	1.09959
H	180.776	3.55966	1.86528
H	179.197	2.84202	2.35916
