44
  This energy is 0 and Call times are: 12912
C	0.788869	3.3882	0.102242
C	-0.154506	2.26347	0.292408
O	-1.22	2.42209	0.87204
H	0.367255	4.30431	0.570067
H	0.945733	3.57723	-0.980535
H	1.76315	3.15571	0.581627
N	0.224731	1.08133	-0.198622
C	-0.566947	-0.114805	-0.0535214
C	0.372438	-1.30606	-0.0488053
O	1.5639	-1.16963	-0.319931
H	1.11308	0.958816	-0.631865
H	-1.06943	-0.0964567	0.905542
C	-1.59363	-0.239377	-1.20053
H	-1.07803	-0.268862	-2.18406
H	-2.21876	-1.14936	-1.09251
H	-2.2653	0.646676	-1.18971
N	-0.144724	-2.50892	0.270115
C	0.674013	-3.69827	0.305969
H	-1.11035	-2.59866	0.490529
H	0.0661924	-4.58573	0.589167
H	1.49737	-3.5861	1.04811
H	1.13194	-3.89043	-0.691287
C	592.321	2.15206	-2.64959
C	591.972	1.00735	-1.77821
O	590.857	0.506955	-1.80662
H	591.433	2.43651	-3.255
H	593.149	1.87318	-3.33489
H	592.629	3.0225	-2.03286
N	592.937	0.562354	-0.969004
C	592.735	-0.515856	-0.0333907
C	593.675	-0.307095	1.13865
O	594.547	0.559276	1.10023
H	593.827	1.0062	-0.927835
H	591.724	-0.47004	0.352028
C	592.998	-1.88294	-0.701989
H	594.038	-1.93438	-1.08823
H	592.833	-2.72205	0.00445841
H	592.305	-2.01075	-1.56152
N	593.513	-1.09682	2.21854
C	594.358	-0.96722	3.38316
H	592.8	-1.7895	2.23253
H	594.067	-1.70459	4.1636
H	594.273	0.0550478	3.81797
H	595.425	-1.14135	3.11603
