44
  This energy is 0 and Call times are: 11064
C	-2.04825	-1.62866	2.29452
C	-1.78037	-0.535954	1.33256
O	-2.67285	0.214097	0.961992
H	-3.12766	-1.62744	2.56049
H	-1.45035	-1.48046	3.21826
H	-1.79095	-2.60919	1.84124
N	-0.522956	-0.422399	0.898519
C	-0.117757	0.564372	-0.0713563
C	1.06808	0.012798	-0.840197
O	1.62178	-1.02557	-0.483948
H	0.183887	-1.06598	1.17787
H	-0.920247	0.717149	-0.782201
C	0.2555	1.89493	0.618237
H	1.08583	1.74074	1.33991
H	0.555996	2.66724	-0.119161
H	-0.624397	2.27598	1.1812
N	1.48207	0.695915	-1.92555
C	2.59889	0.244267	-2.72235
H	1.01874	1.53187	-2.20047
H	2.78376	0.939884	-3.57039
H	2.40006	-0.770092	-3.13807
H	3.52499	0.189132	-2.10554
C	462.137	-2.66823	1.92387
C	462.316	-1.66789	0.847639
O	463.41	-1.48324	0.330998
H	463.115	-3.14756	2.14661
H	461.418	-3.45096	1.60278
H	461.76	-2.1758	2.84502
N	461.227	-0.987454	0.482231
C	461.253	0.048078	-0.520536
C	460.149	1.03938	-0.205696
O	459.317	0.798989	0.666958
H	460.353	-1.12003	0.940374
H	462.193	0.581969	-0.458247
C	461.061	-0.546568	-1.93283
H	460.092	-1.08543	-2.00038
H	461.093	0.239296	-2.71507
H	461.875	-1.27486	-2.13857
N	460.121	2.18865	-0.908848
C	459.111	3.19371	-0.674848
H	460.805	2.36699	-1.60812
H	459.258	4.06418	-1.35154
H	459.154	3.55671	0.377592
H	458.093	2.77732	-0.85479
