44
  This energy is 0 and Call times are: 5800
C	3.15165	-0.71405	1.29226
C	1.68341	-0.58861	1.4326
O	1.10402	-1.00997	2.42415
H	3.5624	-1.23713	2.18308
H	3.6165	0.291651	1.21998
H	3.40038	-1.30217	0.383781
N	1.03915	0.00227533	0.42356
C	-0.393865	0.158174	0.396642
C	-0.84034	0.177876	-1.05313
O	-0.0173935	0.235359	-1.96481
H	1.51965	0.30331	-0.395197
H	-0.855657	-0.702229	0.864709
C	-0.8209	1.45837	1.11244
H	-0.355788	2.34222	0.626101
H	-1.92318	1.58288	1.11058
H	-0.476907	1.42546	2.16929
N	-2.16383	0.121712	-1.30061
C	-2.6817	0.129722	-2.64892
H	-2.81409	0.0714485	-0.549811
H	-3.79275	0.0771249	-2.64376
H	-2.29229	-0.741151	-3.22443
H	-2.37697	1.05959	-3.18149
C	87.0684	-0.380151	2.77307
C	86.8574	-0.223818	1.31629
O	87.7927	0.0072728	0.562428
H	88.146	-0.236754	3.00557
H	86.7631	-1.39731	3.09699
H	86.4769	0.377654	3.3289
N	85.6009	-0.34647	0.88211
C	85.2329	-0.177845	-0.501611
C	83.7998	0.317448	-0.552919
O	83.1083	0.350865	0.46313
H	84.8446	-0.493961	1.51306
H	85.8553	0.588876	-0.9459
C	85.3746	-1.50653	-1.27604
H	84.7283	-2.29058	-0.827044
H	85.1074	-1.38655	-2.34595
H	86.4292	-1.85423	-1.21838
N	83.3212	0.724212	-1.74516
C	81.9709	1.21641	-1.88952
H	83.8972	0.693545	-2.55527
H	81.7671	1.50155	-2.94516
H	81.8085	2.11198	-1.24698
H	81.2342	0.437044	-1.58808
