44
  This energy is 0 and Call times are: 12492
C	-2.6649	-0.899756	-2.04974
C	-1.52027	-1.24096	-1.17536
O	-1.33683	-2.38786	-0.791455
H	-3.2657	-1.81511	-2.24222
H	-2.3001	-0.498966	-3.01877
H	-3.31088	-0.143012	-1.55664
N	-0.713065	-0.23373	-0.834354
C	0.416929	-0.402013	0.0450505
C	0.656354	0.912116	0.764284
O	0.0504332	1.92994	0.434716
H	-0.898724	0.7017	-1.12135
H	0.176668	-1.14256	0.797709
C	1.67437	-0.822838	-0.746779
H	1.92743	-0.058362	-1.51201
H	2.54797	-0.969074	-0.0789839
H	1.47367	-1.78252	-1.27127
N	1.54613	0.917934	1.77636
C	1.83488	2.12073	2.52207
H	2.02348	0.0834577	2.03103
H	2.5917	1.92127	3.31243
H	0.912677	2.51102	3.01041
H	2.23156	2.91485	1.84889
C	560.611	-2.49443	0.429574
C	561.403	-1.58166	-0.425411
O	561.418	-1.70773	-1.64208
H	560.104	-3.24945	-0.209944
H	559.841	-1.92283	0.989459
H	561.276	-3.01957	1.1473
N	562.092	-0.62718	0.2043
C	562.942	0.308658	-0.488731
C	564.051	0.730535	0.45689
O	564.021	0.412752	1.64425
H	562.103	-0.562705	1.19808
H	563.408	-0.187737	-1.33091
C	562.137	1.53871	-0.962514
H	561.668	2.05442	-0.0977789
H	562.778	2.26031	-1.5097
H	561.327	1.20554	-1.64683
N	565.066	1.45443	-0.053677
C	566.168	1.89599	0.769077
H	565.075	1.69832	-1.01779
H	566.901	2.47648	0.166407
H	566.697	1.02428	1.21877
H	565.804	2.5445	1.59858
