44
  This energy is 0 and Call times are: 8124
C	-3.05014	-0.592248	-1.56798
C	-1.65344	-0.102059	-1.57746
O	-1.09158	0.188244	-2.62458
H	-3.42627	-0.649849	-2.61254
H	-3.69582	0.102971	-0.991345
H	-3.09755	-1.60395	-1.11267
N	-1.05228	7.71901e-05	-0.389796
C	0.318684	0.421044	-0.242151
C	0.877841	-0.220593	1.01372
O	0.142828	-0.822443	1.79426
H	-1.50902	-0.278877	0.450109
H	0.89807	0.0510188	-1.07883
C	0.416835	1.95981	-0.153781
H	-0.168809	2.33902	0.710657
H	1.46883	2.29721	-0.0538116
H	-0.00521202	2.40825	-1.07959
N	2.20296	-0.113059	1.234
C	2.82525	-0.696405	2.39961
H	2.78203	0.374302	0.588838
H	3.92008	-0.50001	2.4007
H	2.66697	-1.79906	2.41898
H	2.3912	-0.268896	3.33234
C	254.448	0.463955	-0.077278
C	253.091	0.850655	0.369225
O	252.928	1.68519	1.2486
H	255.204	1.02573	0.514278
H	254.581	0.706597	-1.15257
H	254.607	-0.624049	0.0782543
N	252.07	0.239479	-0.236669
C	250.694	0.479228	0.119365
C	249.901	-0.77768	-0.185066
O	250.411	-1.71002	-0.803269
H	252.22	-0.467443	-0.922011
H	250.626	0.653108	1.18603
C	250.123	1.68238	-0.662932
H	250.183	1.50003	-1.7571
H	249.068	1.88578	-0.38737
H	250.724	2.58904	-0.431077
N	248.628	-0.835039	0.252831
C	247.798	-1.99306	0.0148116
H	248.234	-0.0722632	0.754902
H	246.786	-1.84815	0.452374
H	248.251	-2.90184	0.473172
H	247.685	-2.17751	-1.07802
