44
  This energy is 0 and Call times are: 4960
C	-1.92181	-2.35581	1.69395
C	-1.77774	-1.23854	0.733698
O	-2.69639	-0.919134	-0.00824658
H	-2.93397	-2.80318	1.58776
H	-1.79998	-1.98516	2.73343
H	-1.16014	-3.13738	1.48877
N	-0.599295	-0.611192	0.725624
C	-0.294486	0.46633	-0.18245
C	1.20124	0.462301	-0.436099
O	1.94943	-0.259318	0.220552
H	0.152594	-0.909123	1.3068
H	-0.783058	0.282885	-1.13128
C	-0.740767	1.82405	0.402928
H	-0.231838	2.01757	1.37122
H	-0.524054	2.66027	-0.292985
H	-1.83694	1.80143	0.587964
N	1.67284	1.26824	-1.40774
C	3.08096	1.32709	-1.72384
H	1.05135	1.8418	-1.93105
H	3.26864	2.04707	-2.55066
H	3.45491	0.326079	-2.03914
H	3.66996	1.65159	-0.835621
C	21.6198	-0.685952	-0.465477
C	23.0001	-1.10274	-0.130275
O	23.2299	-2.20464	0.3487
H	20.9142	-1.50153	-0.195795
H	21.5351	-0.482603	-1.55369
H	21.3472	0.22787	0.103452
N	23.965	-0.213675	-0.377178
C	25.3509	-0.458419	-0.0645792
C	26.017	0.876864	0.209277
O	25.4267	1.93234	-0.0127436
H	23.7577	0.694626	-0.729156
H	25.4142	-1.04296	0.844777
C	26.0583	-1.18792	-1.22763
H	26.0028	-0.58383	-2.15824
H	27.1227	-1.39445	-0.993455
H	25.5494	-2.1585	-1.41568
N	27.2681	0.860584	0.709617
C	27.9793	2.08208	1.00673
H	27.7278	-0.00343747	0.886457
H	28.9919	1.8595	1.40985
H	27.4259	2.6849	1.76275
H	28.0958	2.70235	0.0886661
