44
  This energy is 0 and Call times are: 6612
C	2.41189	1.56335	-1.9625
C	1.06979	1.51411	-1.34004
O	0.33991	2.49575	-1.33082
H	2.59566	2.58561	-2.35884
H	2.47219	0.836965	-2.80004
H	3.19206	1.32434	-1.2093
N	0.710827	0.349504	-0.794866
C	-0.54644	0.160012	-0.115209
C	-0.358986	-0.9198	0.9338
O	0.676083	-1.58191	0.978088
H	1.33212	-0.428594	-0.774139
H	-0.812537	1.07196	0.40457
C	-1.6572	-0.239547	-1.1111
H	-1.38951	-1.18073	-1.63698
H	-2.63338	-0.37487	-0.601897
H	-1.77153	0.561231	-1.87401
N	-1.36039	-1.11735	1.81368
C	-1.26916	-2.11894	2.85034
H	-2.18853	-0.568866	1.76444
H	-2.19189	-2.12728	3.47141
H	-0.399823	-1.91617	3.51699
H	-1.13539	-3.13227	2.40716
C	143.083	3.37722	0.836805
C	142.487	2.02544	0.931324
O	141.636	1.76623	1.77043
H	142.645	4.02734	1.62534
H	142.866	3.82229	-0.157029
H	144.182	3.32227	0.985288
N	142.932	1.11857	0.0582526
C	142.478	-0.24999	0.0547641
C	143.596	-1.11709	-0.49377
O	144.598	-0.610571	-0.994813
H	143.655	1.33343	-0.592097
H	142.294	-0.56778	1.07339
C	141.202	-0.406167	-0.800835
H	141.394	-0.0902111	-1.84845
H	140.835	-1.453	-0.800201
H	140.401	0.243102	-0.385987
N	143.452	-2.45391	-0.403185
C	144.466	-3.35828	-0.893234
H	142.636	-2.84497	0.00924027
H	144.163	-4.41567	-0.727471
H	145.434	-3.18458	-0.369167
H	144.633	-3.208	-1.98448
