44
  This energy is 0 and Call times are: 8404
C	3.25541	1.01032	-0.703025
C	1.99812	0.319006	-1.06697
O	1.79674	-0.0685525	-2.20962
H	3.89689	1.10547	-1.60598
H	3.80327	0.427867	0.0672611
H	3.03428	2.02536	-0.310736
N	1.10892	0.148947	-0.0857565
C	-0.177339	-0.467494	-0.29576
C	-1.14782	0.105292	0.719934
O	-0.750167	0.822081	1.63634
H	1.26988	0.506295	0.829809
H	-0.544866	-0.201152	-1.27893
C	-0.0840185	-2.00218	-0.149903
H	0.282957	-2.27622	0.862157
H	-1.06531	-2.48963	-0.323017
H	0.63739	-2.39868	-0.89737
N	-2.45385	-0.193217	0.574319
C	-3.45109	0.311093	1.48939
H	-2.75688	-0.771487	-0.175915
H	-4.46482	-0.044905	1.20156
H	-3.45751	1.4252	1.48837
H	-3.24063	-0.031973	2.52822
C	268.756	0.0946778	-2.65839
C	269.92	0.628659	-1.91577
O	270.642	1.4867	-2.40356
H	268.703	0.580534	-3.65689
H	267.818	0.308449	-2.10452
H	268.861	-1.00198	-2.79749
N	270.131	0.121651	-0.69887
C	271.247	0.510412	0.126284
C	271.6	-0.659004	1.02595
O	270.872	-1.64782	1.08834
H	269.558	-0.605653	-0.331907
H	272.106	0.703805	-0.503517
C	270.902	1.75745	0.969543
H	270.027	1.55616	1.62355
H	271.758	2.075	1.59898
H	270.639	2.59814	0.290927
N	272.739	-0.575571	1.74199
C	273.159	-1.64195	2.62096
H	273.317	0.230875	1.67509
H	274.119	-1.38507	3.11995
H	273.302	-2.58787	2.05012
H	272.393	-1.82696	3.40844
