44
  This energy is 0 and Call times are: 11624
C	2.75509	-1.79557	-1.13933
C	2.02284	-0.526376	-0.929372
O	2.56895	0.555008	-1.09903
H	3.80306	-1.57053	-1.43429
H	2.27345	-2.38623	-1.94674
H	2.76554	-2.39092	-0.202021
N	0.748289	-0.632918	-0.546551
C	-0.0798981	0.512349	-0.261894
C	-1.12035	0.100727	0.762595
O	-1.25857	-1.0788	1.08091
H	0.329686	-1.51977	-0.372982
H	0.526376	1.28863	0.188058
C	-0.761173	1.03341	-1.54626
H	-1.39162	0.240688	-2.00251
H	-1.3908	1.9237	-1.34259
H	0.0188478	1.32124	-2.28455
N	-1.87543	1.07232	1.31204
C	-2.88698	0.776146	2.29958
H	-1.74606	2.02147	1.04472
H	-3.3988	1.70691	2.62964
H	-2.43293	0.29006	3.19335
H	-3.65323	0.0836585	1.88189
C	497.961	-1.69513	0.0431997
C	498.796	-0.509703	0.339958
O	498.292	0.546481	0.696486
H	496.889	-1.43359	0.182614
H	498.22	-2.52767	0.730579
H	498.117	-2.02058	-1.00683
N	500.114	-0.661295	0.194346
C	501.052	0.413559	0.404642
C	502.263	0.163919	-0.474736
O	502.395	-0.899923	-1.07671
H	500.507	-1.51509	-0.136058
H	500.605	1.34557	0.0815009
C	501.469	0.499061	1.88914
H	501.937	-0.453197	2.21826
H	502.181	1.33169	2.06648
H	500.567	0.674058	2.5146
N	503.176	1.14977	-0.57605
C	504.357	1.00455	-1.394
H	503.049	2.00504	-0.0846083
H	504.984	1.92265	-1.3469
H	504.079	0.824355	-2.45765
H	504.972	0.142516	-1.04719
