44
  This energy is 0 and Call times are: 9972
C	-0.54918	-1.80252	2.92609
C	-1.03551	-1.03384	1.75829
O	-2.22375	-1.00627	1.46893
H	-1.40879	-2.30947	3.41594
H	-0.0683067	-1.12139	3.65927
H	0.183145	-2.57107	2.60031
N	-0.110248	-0.383525	1.04881
C	-0.424598	0.371495	-0.138497
C	0.79421	0.361607	-1.0418
O	1.86943	-0.0825538	-0.643889
H	0.857966	-0.448857	1.27277
H	-1.22662	-0.121617	-0.673502
C	-0.82235	1.82052	0.218363
H	0.00411777	2.33024	0.757971
H	-1.08015	2.40824	-0.686434
H	-1.71122	1.80323	0.886167
N	0.650863	0.84721	-2.29067
C	1.75389	0.873306	-3.22278
H	-0.228099	1.1985	-2.59578
H	1.43625	1.30854	-4.19587
H	2.13633	-0.156658	-3.40769
H	2.59315	1.48633	-2.82153
C	381.833	-2.68668	1.87941
C	381.62	-1.41783	1.14751
O	380.493	-1.01579	0.892649
H	380.848	-3.15128	2.10372
H	382.365	-2.49279	2.83457
H	382.429	-3.38979	1.26059
N	382.717	-0.749708	0.785652
C	382.671	0.477845	0.0309767
C	383.945	0.57908	-0.785935
O	384.87	-0.211622	-0.610457
H	383.628	-1.11028	0.964392
H	381.843	0.437677	-0.666122
C	382.531	1.69698	0.968664
H	383.385	1.7446	1.67709
H	382.48	2.64731	0.398731
H	381.596	1.59775	1.56217
N	384.02	1.55692	-1.71024
C	385.191	1.72701	-2.53836
H	383.259	2.18452	-1.84044
H	385.059	2.58386	-3.23519
H	385.381	0.810344	-3.14226
H	386.091	1.92051	-1.91117
