44
  This energy is 0 and Call times are: 9524
C	-2.91674	-1.83411	-0.491268
C	-1.44175	-1.71003	-0.479398
O	-0.722866	-2.69542	-0.572343
H	-3.19438	-2.90735	-0.574624
H	-3.34002	-1.285	-1.35848
H	-3.34279	-1.42469	0.448916
N	-0.951112	-0.474123	-0.360323
C	0.462279	-0.198419	-0.29052
C	0.65706	1.07247	0.514747
O	-0.304911	1.76588	0.839561
H	-1.54894	0.313943	-0.244453
H	0.956345	-0.998999	0.245764
C	1.0642	-0.0413499	-1.70412
H	0.564852	0.786733	-2.2509
H	2.15479	0.157509	-1.66421
H	0.903113	-0.980016	-2.27797
N	1.91543	1.40433	0.864608
C	2.19715	2.59281	1.63554
H	2.68048	0.828465	0.595994
H	3.28936	2.6911	1.82166
H	1.67592	2.55543	2.61952
H	1.84999	3.50319	1.09534
C	351.185	2.66024	-2.23641
C	351.411	2.06195	-0.901335
O	352.095	2.62938	-0.06065
H	351.733	3.62544	-2.3035
H	350.103	2.84958	-2.39312
H	351.56	1.97885	-3.02924
N	350.832	0.880422	-0.67511
C	350.995	0.154688	0.559926
C	350.856	-1.32602	0.260303
O	350.481	-1.7124	-0.844987
H	350.312	0.411808	-1.38355
H	351.996	0.314515	0.938663
C	349.945	0.597073	1.60245
H	348.917	0.423529	1.21858
H	350.068	0.0553351	2.56251
H	350.06	1.68516	1.80032
N	351.165	-2.19457	1.243
C	351.069	-3.62244	1.04798
H	351.471	-1.86291	2.12935
H	351.366	-4.16649	1.97145
H	351.735	-3.9514	0.217586
H	350.025	-3.91416	0.789683
