44
  This energy is 0 and Call times are: 5492
C	0.0272524	0.755172	3.3973
C	-0.664838	0.636335	2.09422
O	-1.88321	0.712257	2.01534
H	-0.726762	0.893963	4.20234
H	0.710005	1.63069	3.38957
H	0.61054	-0.166352	3.60626
N	0.111367	0.44158	1.02559
C	-0.419317	0.264145	-0.303108
C	0.552409	-0.595303	-1.08965
O	1.65848	-0.87557	-0.631653
H	1.09851	0.341045	1.11107
H	-1.35497	-0.277859	-0.24464
C	-0.625194	1.62622	-1.00139
H	0.336358	2.17813	-1.07106
H	-1.04648	1.50369	-2.02022
H	-1.33341	2.24136	-0.404399
N	0.15528	-1.04305	-2.29706
C	1.01038	-1.87154	-3.11474
H	-0.745001	-0.80907	-2.64894
H	0.504928	-2.13655	-4.06947
H	1.26946	-2.81496	-2.58172
H	1.95906	-1.33959	-3.35592
C	63.696	2.70098	-2.08158
C	63.2229	2.13152	-0.799777
O	63.0313	2.84309	0.176614
H	63.8411	3.79702	-1.96525
H	62.9464	2.52046	-2.88043
H	64.6634	2.23926	-2.37157
N	63.0233	0.811708	-0.774483
C	62.6051	0.107799	0.412186
C	63.1399	-1.30976	0.334431
O	63.6635	-1.72972	-0.695726
H	63.2229	0.240182	-1.56529
H	63.0529	0.574337	1.28075
C	61.0656	0.0997125	0.535124
H	60.6061	-0.388239	-0.350773
H	60.7315	-0.427433	1.45221
H	60.6957	1.14722	0.582436
N	63.0271	-2.08177	1.4332
C	63.5124	-3.44198	1.45439
H	62.6041	-1.72288	2.25864
H	63.3279	-3.90994	2.44647
H	64.6075	-3.47153	1.25115
H	63.0004	-4.05416	0.677078
