44
  This energy is 0 and Call times are: 7620
C	1.9641	2.00661	2.05634
C	1.2864	1.72759	0.770252
O	1.18114	2.59079	-0.0901066
H	2.3016	3.06574	2.07145
H	2.84858	1.34587	2.17409
H	1.26371	1.84054	2.90189
N	0.801838	0.493911	0.610203
C	0.0799751	0.085379	-0.569024
C	-0.88777	-1.01414	-0.173962
O	-0.842716	-1.52052	0.945534
H	0.859253	-0.185713	1.33593
H	-0.508935	0.917768	-0.93364
C	1.0486	-0.413359	-1.66368
H	1.64555	-1.27404	-1.29366
H	0.505812	-0.717835	-2.58193
H	1.75241	0.404758	-1.93144
N	-1.79721	-1.40499	-1.08839
C	-2.76202	-2.4405	-0.800205
H	-1.8207	-0.980546	-1.98748
H	-3.42211	-2.61821	-1.67766
H	-3.40059	-2.1523	0.0660745
H	-2.24888	-3.39661	-0.547861
C	213.947	-3.29823	0.353517
C	213.686	-1.87179	0.0558919
O	212.623	-1.5102	-0.428775
H	213.064	-3.90331	0.0527299
H	214.123	-3.43622	1.44095
H	214.834	-3.65141	-0.212685
N	214.67	-1.01641	0.342725
C	214.581	0.396446	0.0698961
C	215.984	0.921773	-0.167648
O	216.967	0.214545	0.0486062
H	215.546	-1.33094	0.698871
H	214.021	0.549125	-0.843924
C	213.915	1.14435	1.2454
H	214.495	0.996679	2.18094
H	213.828	2.23127	1.04155
H	212.892	0.738228	1.40631
N	216.111	2.18142	-0.629556
C	217.406	2.76465	-0.890302
H	215.304	2.73683	-0.802399
H	217.3	3.80665	-1.26479
H	217.957	2.17151	-1.65577
H	218.021	2.78645	0.0381535
