44
  This energy is 0 and Call times are: 9104
C	-0.544588	3.34693	0.783695
C	-0.994081	1.93935	0.695272
O	-2.03812	1.57425	1.21786
H	-1.27792	3.92975	1.38238
H	-0.475583	3.79113	-0.231523
H	0.447788	3.40135	1.27899
N	-0.199943	1.10399	0.0215505
C	-0.482231	-0.303348	-0.113611
C	0.836599	-1.038	-0.263721
O	1.88769	-0.419627	-0.420383
H	0.667085	1.40731	-0.363326
H	-0.950088	-0.66267	0.794479
C	-1.39186	-0.568932	-1.33315
H	-0.907772	-0.210017	-2.26636
H	-1.62779	-1.64757	-1.43991
H	-2.34768	-0.0153356	-1.20555
N	0.81197	-2.38432	-0.210451
C	2.01847	-3.16805	-0.338173
H	-0.0477303	-2.86671	-0.0789565
H	1.79092	-4.25456	-0.267833
H	2.74249	-2.90871	0.467936
H	2.51031	-2.97541	-1.31905
C	320.951	-1.10726	3.29914
C	320.384	-0.323166	2.17911
O	319.269	0.174937	2.25586
H	320.211	-1.15356	4.12715
H	321.879	-0.624726	3.6729
H	321.181	-2.14081	2.96472
N	321.152	-0.196777	1.09431
C	320.72	0.500513	-0.0912998
C	321.429	-0.110957	-1.28466
O	322.336	-0.926233	-1.12824
H	322.04	-0.642427	1.03106
H	319.658	0.342336	-0.231699
C	321.034	2.00923	0.0107275
H	322.124	2.1725	0.144209
H	320.693	2.55943	-0.890335
H	320.511	2.43396	0.895229
N	321.024	0.265323	-2.51348
C	321.637	-0.267655	-3.70787
H	320.285	0.923131	-2.61988
H	321.165	0.163707	-4.61806
H	321.524	-1.37542	-3.74625
H	322.725	-0.0301778	-3.73081
