44
  This energy is 0 and Call times are: 9664
C	-2.87175	0.321692	1.93966
C	-1.45744	-0.0771985	1.76141
O	-0.759079	-0.378208	2.71959
H	-3.12385	0.307039	3.0223
H	-3.53939	-0.386664	1.40559
H	-3.03228	1.34798	1.54717
N	-0.996685	-0.0858621	0.508415
C	0.36938	-0.410221	0.180974
C	0.736702	0.322963	-1.09538
O	-0.119921	0.911167	-1.75259
H	-1.56557	0.201145	-0.257003
H	1.02131	-0.0422155	0.963397
C	0.54658	-1.93378	0.000386366
H	-0.114314	-2.31008	-0.809338
H	1.59724	-2.19761	-0.238418
H	0.264596	-2.45042	0.943742
N	2.03028	0.311415	-1.47294
C	2.47432	0.98644	-2.67017
H	2.70952	-0.166535	-0.925891
H	3.5709	0.861412	-2.80838
H	2.25035	2.0763	-2.61261
H	1.95841	0.57491	-3.56773
C	362.547	-1.26063	2.85153
C	361.992	-0.142109	2.0563
O	361.823	0.96378	2.55122
H	362.736	-0.91389	3.8906
H	363.504	-1.60774	2.40819
H	361.825	-2.10435	2.88028
N	361.689	-0.411295	0.784187
C	361.102	0.562791	-0.101688
C	360.27	-0.176396	-1.13243
O	360.315	-1.40217	-1.21688
H	361.794	-1.32711	0.407139
H	360.429	1.19766	0.461146
C	362.194	1.40886	-0.792931
H	362.878	0.759087	-1.37904
H	361.754	2.17186	-1.46722
H	362.795	1.93443	-0.019526
N	359.478	0.557114	-1.93984
C	358.647	-0.0597274	-2.94689
H	359.452	1.54755	-1.85364
H	358.071	0.709813	-3.5069
H	357.924	-0.767255	-2.47989
H	359.268	-0.630975	-3.67393
