44
  This energy is 0 and Call times are: 7788
C	-1.11667	-1.55891	-2.9044
C	-1.00908	-1.47235	-1.4306
O	-1.68756	-2.18464	-0.703473
H	-1.88235	-2.31892	-3.17275
H	-0.141973	-1.86062	-3.34221
H	-1.42218	-0.577282	-3.3241
N	-0.13991	-0.579963	-0.950425
C	0.0444441	-0.350727	0.460966
C	0.490281	1.08668	0.652411
O	0.792744	1.78608	-0.312509
H	0.375406	0.0213197	-1.55439
H	-0.905462	-0.464123	0.968361
C	1.0906	-1.32463	1.04604
H	2.06816	-1.20133	0.532991
H	1.23136	-1.16737	2.13507
H	0.747483	-2.37035	0.887646
N	0.533212	1.56563	1.9113
C	0.939934	2.92322	2.19008
H	0.280801	0.985728	2.67881
H	0.909303	3.1263	3.28326
H	0.264972	3.64808	1.67991
H	1.97795	3.10466	1.82849
C	224.647	1.9158	-1.70496
C	225.728	0.905086	-1.67214
O	225.982	0.218075	-2.65185
H	224.159	1.89887	-2.70346
H	225.065	2.92888	-1.52637
H	223.886	1.6878	-0.928855
N	226.398	0.789362	-0.52293
C	227.447	-0.179154	-0.324692
C	227.488	-0.537548	1.1489
O	226.822	0.0921086	1.96878
H	226.152	1.32707	0.278582
H	227.207	-1.08323	-0.87002
C	228.811	0.383116	-0.783027
H	229.063	1.30476	-0.216459
H	229.625	-0.358333	-0.648346
H	228.755	0.645907	-1.86201
N	228.27	-1.57066	1.51979
C	228.367	-1.98755	2.89923
H	228.798	-2.07062	0.84131
H	229.059	-2.85292	3.00054
H	227.368	-2.28937	3.28996
H	228.75	-1.15647	3.53487
