44
  This energy is 0 and Call times are: 11120
C	3.31301	-0.815288	0.686969
C	2.25488	-0.316046	-0.21981
O	2.53378	0.220251	-1.2833
H	4.3091	-0.599698	0.242881
H	3.21146	-1.9121	0.826342
H	3.24206	-0.309449	1.67296
N	0.995151	-0.482615	0.189728
C	-0.139786	-0.0106609	-0.563755
C	-1.26177	0.292734	0.411267
O	-1.171	-0.0268138	1.59506
H	0.785297	-0.884113	1.07665
H	0.119625	0.918236	-1.05619
C	-0.591779	-1.06433	-1.59852
H	-0.86808	-2.01409	-1.0929
H	-1.45643	-0.707138	-2.1946
H	0.24727	-1.27667	-2.29655
N	-2.34974	0.92896	-0.0657627
C	-3.46479	1.26409	0.788952
H	-2.40304	1.18306	-1.02579
H	-4.2607	1.78384	0.211374
H	-3.13773	1.93453	1.6165
H	-3.90302	0.345335	1.2417
C	465.512	3.19426	-1.28329
C	465.783	1.73907	-1.26307
O	466.418	1.20076	-2.15937
H	465.951	3.63653	-2.20427
H	465.971	3.68117	-0.397273
H	464.418	3.38006	-1.28124
N	465.296	1.05935	-0.222277
C	465.441	-0.368518	-0.0853293
C	464.263	-0.88866	0.717036
O	463.483	-0.112707	1.266
H	464.746	1.50467	0.478484
H	465.392	-0.828074	-1.06464
C	466.771	-0.723469	0.613892
H	466.817	-0.260913	1.62284
H	466.901	-1.82069	0.712837
H	467.619	-0.326301	0.0135283
N	464.102	-2.22419	0.796636
C	463.007	-2.81067	1.53358
H	464.741	-2.83588	0.342263
H	463.047	-3.92097	1.48004
H	462.029	-2.47468	1.11811
H	463.048	-2.50941	2.60534
