44
  This energy is 0 and Call times are: 7956
C	-2.81003	2.03098	0.302574
C	-1.65445	1.51056	-0.462248
O	-1.53516	1.73385	-1.65904
H	-3.48162	2.59202	-0.383047
H	-2.46142	2.71567	1.10408
H	-3.37868	1.19147	0.75529
N	-0.764116	0.790605	0.224298
C	0.389243	0.182338	-0.39079
C	0.752149	-1.05649	0.406172
O	0.205184	-1.29662	1.48083
H	-0.89617	0.582971	1.18935
H	0.131249	-0.14185	-1.39128
C	1.57755	1.16803	-0.430446
H	1.84943	1.49276	0.596525
H	2.46755	0.716043	-0.91432
H	1.28681	2.07018	-1.01176
N	1.68425	-1.88141	-0.110287
C	2.08967	-3.08682	0.574403
H	2.11265	-1.67234	-0.983122
H	2.865	-3.62933	-0.0102073
H	1.21979	-3.76768	0.719386
H	2.51084	-2.84643	1.57738
C	238.789	3.4739	0.00689131
C	239.075	2.18441	0.674835
O	239.627	2.14563	1.76594
H	239.163	4.30699	0.640348
H	237.694	3.59568	-0.136377
H	239.297	3.51541	-0.979348
N	238.702	1.08167	0.0213254
C	238.952	-0.246247	0.52397
C	239.079	-1.18461	-0.661372
O	238.807	-0.803217	-1.79831
H	238.291	1.12792	-0.884598
H	239.9	-0.257545	1.04698
C	237.812	-0.705903	1.45918
H	236.841	-0.704581	0.9201
H	238	-1.72159	1.86373
H	237.733	-0.000459322	2.31495
N	239.505	-2.44036	-0.422021
C	239.661	-3.40177	-1.48854
H	239.724	-2.72921	0.504179
H	240.021	-4.3759	-1.09026
H	240.397	-3.03726	-2.24126
H	238.691	-3.57258	-2.00895
