44
  This energy is 0 and Call times are: 12380
C	1.61485	-0.74916	-2.9906
C	0.388699	-0.523677	-2.19257
O	-0.704006	-0.407713	-2.73012
H	1.3519	-0.767825	-4.0706
H	2.07668	-1.72087	-2.71633
H	2.34348	0.0696062	-2.81225
N	0.546806	-0.453291	-0.868775
C	-0.545978	-0.19524	0.0355443
C	0.0103887	0.501055	1.26322
O	1.22374	0.604617	1.43286
H	1.44819	-0.508702	-0.448883
H	-1.24429	0.486736	-0.433392
C	-1.25529	-1.50841	0.432658
H	-0.541739	-2.20423	0.923286
H	-2.10736	-1.32164	1.11795
H	-1.64742	-2.00477	-0.48179
N	-0.870885	1.00518	2.14936
C	-0.434089	1.68917	3.34416
H	-1.84885	0.915103	1.9927
H	-1.30691	2.02986	3.94361
H	0.181543	2.58047	3.08367
H	0.185637	1.01503	3.97868
C	554.997	-0.433084	3.45329
C	554.597	-0.842478	2.08814
O	554.073	-1.9284	1.88082
H	554.759	-1.2517	4.16676
H	554.443	0.480281	3.75653
H	556.088	-0.232092	3.48819
N	554.841	0.0330546	1.11041
C	554.548	-0.240597	-0.274353
C	555.525	0.544624	-1.12901
O	556.27	1.3831	-0.62511
H	555.306	0.895932	1.28897
H	554.717	-1.29139	-0.474359
C	553.094	0.149354	-0.617584
H	552.923	1.22958	-0.422536
H	552.851	-0.0694297	-1.6777
H	552.396	-0.431427	0.0251385
N	555.55	0.282849	-2.45069
C	556.451	0.97657	-3.34166
H	554.943	-0.402053	-2.83929
H	556.321	0.621108	-4.38757
H	557.51	0.804	-3.04217
H	556.26	2.07386	-3.31769
