44
  This energy is 0 and Call times are: 5156
C	2.33348	-0.319264	-2.56234
C	1.26939	0.427457	-1.85434
O	1.03441	1.5984	-2.11908
H	2.82991	0.354174	-3.29441
H	1.89741	-1.18301	-3.10689
H	3.0919	-0.684006	-1.83788
N	0.592955	-0.245459	-0.92054
C	-0.44155	0.35849	-0.11829
C	-0.487659	-0.363052	1.21543
O	0.160889	-1.39157	1.3978
H	0.823226	-1.18604	-0.687841
H	-0.181569	1.39043	0.082062
C	-1.81065	0.272877	-0.827859
H	-2.0827	-0.786125	-1.02417
H	-2.61314	0.746872	-0.226311
H	-1.7513	0.800476	-1.80483
N	-1.25482	0.168306	2.18761
C	-1.35616	-0.445716	3.49103
H	-1.76906	1.00338	2.02242
H	-2.03376	0.140394	4.15024
H	-0.355554	-0.501503	3.9778
H	-1.75762	-1.48156	3.4074
C	40.825	-2.96278	-0.0637288
C	39.5468	-2.22108	0.021792
O	38.4724	-2.79857	-0.070984
H	40.6134	-4.04104	-0.232321
H	41.3957	-2.85217	0.88223
H	41.4339	-2.57956	-0.909536
N	39.6374	-0.901281	0.201524
C	38.4826	-0.0402083	0.26113
C	38.8915	1.33432	-0.233919
O	40.073	1.60269	-0.442919
H	40.5195	-0.440099	0.234172
H	37.7233	-0.413702	-0.414532
C	37.9316	0.0447933	1.7014
H	38.7069	0.43785	2.3931
H	37.0339	0.693977	1.75792
H	37.6463	-0.973185	2.04584
N	37.9154	2.23981	-0.442102
C	38.2088	3.57167	-0.917764
H	36.9648	2.00272	-0.271234
H	37.2744	4.1654	-1.02579
H	38.7154	3.53193	-1.90927
H	38.8822	4.10339	-0.20713
