44
  This energy is 0 and Call times are: 5212
C	-0.0932744	2.47828	2.44175
C	0.300724	1.13384	1.96383
O	1.09114	0.444661	2.59366
H	0.445886	2.70457	3.38725
H	-1.18619	2.51078	2.63465
H	0.171236	3.24629	1.68458
N	-0.25008	0.726347	0.817998
C	0.0683779	-0.539179	0.205144
C	-0.11617	-0.39842	-1.29408
O	-0.63398	0.608629	-1.77308
H	-0.860268	1.31528	0.295796
H	1.11179	-0.768997	0.381538
C	-0.834799	-1.66304	0.758731
H	-1.9048	-1.4328	0.56866
H	-0.59001	-2.6451	0.304697
H	-0.689238	-1.74278	1.85819
N	0.314227	-1.40909	-2.07468
C	0.185591	-1.36125	-3.5125
H	0.734389	-2.21402	-1.66893
H	0.59776	-2.28498	-3.97516
H	0.73611	-0.485898	-3.92719
H	-0.884371	-1.26796	-3.80851
C	41.9811	-0.671449	-3.25941
C	42.759	-0.999358	-2.04351
O	43.305	-2.08652	-1.9154
H	41.987	-1.54567	-3.94611
H	42.434	0.198033	-3.78059
H	40.9306	-0.433975	-2.98908
N	42.8253	-0.0498218	-1.10736
C	43.5093	-0.237191	0.147906
C	42.8382	0.640286	1.18775
O	41.9901	1.4682	0.860622
H	42.3415	0.814825	-1.20829
H	43.3919	-1.26478	0.468721
C	45.0057	0.122719	0.0199316
H	45.1267	1.17993	-0.298985
H	45.5462	-0.0306289	0.976404
H	45.4745	-0.526109	-0.751803
N	43.1993	0.471915	2.4751
C	42.6106	1.25793	3.53427
H	43.8843	-0.205918	2.72067
H	43.0377	0.971401	4.52055
H	41.5079	1.10345	3.57167
H	42.8018	2.34326	3.37112
