44
  This energy is 0 and Call times are: 7116
C	-1.10376	-2.02312	-2.60795
C	-0.0247702	-1.4103	-1.80087
O	1.13696	-1.77589	-1.91544
H	-0.672171	-2.8165	-3.25615
H	-1.58391	-1.25562	-3.2507
H	-1.8676	-2.47846	-1.94289
N	-0.392648	-0.449142	-0.950441
C	0.537157	0.210532	-0.0679151
C	-0.220996	0.661743	1.16625
O	-1.4477	0.592398	1.21219
H	-1.34803	-0.190898	-0.838983
H	1.28744	-0.499864	0.256194
C	1.20028	1.4173	-0.767354
H	0.431782	2.1514	-1.09068
H	1.92871	1.92537	-0.102688
H	1.74256	1.06479	-1.6718
N	0.498031	1.12994	2.20539
C	-0.136626	1.57682	3.42346
H	1.49006	1.17457	2.15096
H	0.622872	1.92469	4.15788
H	-0.720612	0.749715	3.88837
H	-0.835811	2.41904	3.21625
C	180.231	-1.68739	2.78389
C	180.405	-0.777944	1.62898
O	181.422	-0.111041	1.49596
H	181.125	-1.62111	3.44145
H	180.12	-2.73485	2.43283
H	179.333	-1.39639	3.36822
N	179.397	-0.7292	0.754927
C	179.402	0.140123	-0.395206
C	177.964	0.485169	-0.733655
O	177.031	-0.086803	-0.17388
H	178.559	-1.24718	0.898418
H	179.905	1.06518	-0.14157
C	180.093	-0.539647	-1.59751
H	179.572	-1.48336	-1.86479
H	180.116	0.125004	-2.48534
H	181.141	-0.790366	-1.32459
N	177.752	1.44188	-1.65865
C	176.417	1.8406	-2.04107
H	178.52	1.89623	-2.09765
H	176.452	2.63985	-2.81387
H	175.856	2.22862	-1.16049
H	175.852	0.974989	-2.45666
