44
  This energy is 0 and Call times are: 6388
C	-2.43343	2.48501	-0.125818
C	-1.92862	1.13674	-0.470034
O	-2.66119	0.29581	-0.972604
H	-3.51375	2.54872	-0.380261
H	-1.88248	3.25837	-0.701241
H	-2.30849	2.67441	0.961201
N	-0.643249	0.897504	-0.199893
C	-0.0198485	-0.380358	-0.438643
C	1.10978	-0.549447	0.559809
O	1.46311	0.38588	1.27538
H	-0.0701237	1.57849	0.246934
H	-0.737742	-1.16884	-0.250086
C	0.516886	-0.470904	-1.88397
H	1.26124	0.331358	-2.07462
H	0.98697	-1.45545	-2.08448
H	-0.325368	-0.336476	-2.59733
N	1.70041	-1.75826	0.636933
C	2.78013	-2.01439	1.56148
H	1.39787	-2.50394	0.0525493
H	3.13135	-3.06618	1.47429
H	2.448	-1.84165	2.61082
H	3.6418	-1.33865	1.35643
C	130.391	-0.559216	-0.547838
C	129.237	-0.323554	0.349134
O	129.338	-0.465151	1.56004
H	131.268	-0.877785	0.0571838
H	130.65	0.373514	-1.09177
H	130.15	-1.35883	-1.2796
N	128.096	0.0455721	-0.236683
C	126.877	0.26916	0.499882
C	125.707	-0.0311283	-0.418671
O	125.885	-0.236896	-1.61775
H	128.019	0.116894	-1.22705
H	126.826	-0.428914	1.32613
C	126.802	1.7235	1.01419
H	126.844	2.4398	0.166128
H	125.874	1.90441	1.59481
H	127.671	1.92339	1.67775
N	124.477	-0.0715713	0.128765
C	123.305	-0.355199	-0.666311
H	124.353	0.0935467	1.10171
H	122.389	-0.343925	-0.0349541
H	123.388	-1.35779	-1.145
H	123.184	0.403573	-1.47305
