44
  This energy is 0 and Call times are: 8768
C	-1.55307	-3.03817	-0.685702
C	-1.0463	-1.71071	-1.10064
O	-0.965049	-1.40527	-2.28238
H	-1.7979	-3.63688	-1.58985
H	-2.47095	-2.92262	-0.0717947
H	-0.780176	-3.57595	-0.0970415
N	-0.686199	-0.8798	-0.119673
C	-0.134677	0.428924	-0.367913
C	0.776138	0.786065	0.791579
O	0.812583	0.0869207	1.80231
H	-0.719637	-1.15786	0.836063
H	0.477547	0.395146	-1.26048
C	-1.25573	1.48033	-0.519612
H	-1.87767	1.52284	0.399859
H	-0.844271	2.48983	-0.724881
H	-1.91445	1.19457	-1.3686
N	1.54402	1.88652	0.66754
C	2.44549	2.30143	1.71701
H	1.50365	2.43723	-0.1596
H	2.98812	3.22773	1.42592
H	3.19708	1.50611	1.92642
H	1.88572	2.504	2.6587
C	298.829	-0.791253	-2.85329
C	297.742	-0.0617059	-2.16308
O	297.14	0.84889	-2.71572
H	298.974	-0.360562	-3.86786
H	298.566	-1.86534	-2.95302
H	299.777	-0.694359	-2.283
N	297.463	-0.45159	-0.916949
C	296.461	0.190587	-0.103344
C	296.862	0.0345918	1.35152
O	297.798	-0.69561	1.67217
H	297.989	-1.16712	-0.466019
H	296.449	1.25096	-0.322589
C	295.069	-0.429971	-0.350957
H	295.078	-1.5157	-0.116108
H	294.286	0.06528	0.25955
H	294.799	-0.311422	-1.42325
N	296.163	0.729141	2.27061
C	296.475	0.64774	3.67835
H	295.411	1.31799	1.99139
H	295.789	1.29117	4.27158
H	297.521	0.982287	3.8684
H	296.377	-0.40032	4.04298
