44
  This energy is 0 and Call times are: 5296
C	-0.596988	3.31152	0.888903
C	-0.183831	2.27843	-0.0874041
O	-0.0365421	2.54912	-1.27123
H	-0.746143	4.27792	0.360042
H	0.188408	3.44276	1.66264
H	-1.55047	3.01778	1.37644
N	0.0131309	1.04977	0.396302
C	0.375663	-0.0689561	-0.437717
C	-0.156426	-1.33358	0.209708
O	-0.632519	-1.30857	1.34303
H	-0.15047	0.835792	1.35511
H	-0.111153	0.0302421	-1.3999
C	1.90788	-0.15336	-0.612143
H	2.40711	-0.265735	0.373848
H	2.19892	-1.00263	-1.26373
H	2.27625	0.78558	-1.08017
N	-0.0949736	-2.47496	-0.504082
C	-0.582099	-3.72633	0.0278803
H	0.289992	-2.47446	-1.42107
H	-0.443849	-4.54752	-0.709509
H	-1.66667	-3.65362	0.272221
H	-0.0355014	-3.99639	0.960317
C	50.4985	-2.37172	-2.05967
C	50.2651	-0.971649	-1.63958
O	50.9522	-0.0575251	-2.07385
H	51.3566	-2.40514	-2.76561
H	49.5978	-2.77349	-2.5696
H	50.735	-3.00188	-1.17647
N	49.2739	-0.770987	-0.767991
C	48.9548	0.529703	-0.234188
C	48.3509	0.339993	1.14455
O	48.0569	-0.781272	1.55449
H	48.75	-1.53006	-0.392269
H	49.8676	1.09903	-0.110967
C	47.9699	1.27885	-1.1583
H	47.029	0.700156	-1.27658
H	47.7271	2.28733	-0.765155
H	48.4293	1.39935	-2.16364
N	48.1588	1.43946	1.89972
C	47.5949	1.35591	3.22681
H	48.4068	2.33773	1.5523
H	47.5171	2.36629	3.68539
H	48.2311	0.720503	3.88465
H	46.5761	0.906443	3.19336
