44
  This energy is 0 and Call times are: 7172
C	0.734342	-2.47256	-2.33664
C	0.826456	-1.89649	-0.976196
O	1.27589	-2.5467	-0.0425738
H	1.10601	-3.52012	-2.31786
H	1.35488	-1.88371	-3.0444
H	-0.321081	-2.47186	-2.68186
N	0.392769	-0.642066	-0.832299
C	0.378933	0.0384303	0.438642
C	-0.745227	1.05695	0.417595
O	-1.35133	1.30454	-0.623103
H	-0.00831152	-0.139851	-1.59308
H	0.154257	-0.67381	1.22278
C	1.73255	0.731491	0.708113
H	1.95853	1.46988	-0.0904859
H	1.73926	1.24743	1.69009
H	2.54134	-0.0315297	0.711179
N	-1.05657	1.66863	1.57731
C	-2.11536	2.64798	1.65486
H	-0.557515	1.45203	2.40984
H	-2.21754	3.03532	2.69253
H	-3.08868	2.19905	1.35092
H	-1.90562	3.50798	0.978432
C	181.268	-1.26934	2.73872
C	182.522	-0.871567	2.06016
O	183.577	-0.793524	2.67455
H	181.473	-1.44312	3.81739
H	180.872	-2.20588	2.2928
H	180.509	-0.46459	2.64247
N	182.431	-0.60467	0.755171
C	183.556	-0.164033	-0.0314224
C	183.032	0.688958	-1.171
O	181.825	0.765759	-1.3965
H	181.558	-0.632941	0.277668
H	184.193	0.466537	0.577034
C	184.352	-1.3689	-0.578989
H	183.703	-2.01044	-1.21187
H	185.229	-1.04264	-1.17494
H	184.72	-1.9832	0.271852
N	183.932	1.3607	-1.91524
C	183.526	2.20156	-3.01696
H	184.904	1.2892	-1.71482
H	184.411	2.66742	-3.50364
H	182.852	3.01504	-2.6624
H	182.976	1.6076	-3.78281
