44
  This energy is 0 and Call times are: 12016
C	3.2512	-0.568065	1.1044
C	2.28111	-0.158408	0.0640818
O	2.65146	0.380803	-0.969603
H	4.27725	-0.288819	0.780179
H	3.20877	-1.66718	1.2557
H	3.02473	-0.0542494	2.06242
N	0.994948	-0.407972	0.320744
C	-0.0681873	-0.0287515	-0.576192
C	-1.31992	0.208413	0.2475
O	-1.35401	-0.0866379	1.4406
H	0.705458	-0.810407	1.18452
H	0.185553	0.908951	-1.05469
C	-0.31583	-1.12677	-1.63367
H	-0.586483	-2.08629	-1.14367
H	-1.1229	-0.840547	-2.33882
H	0.615421	-1.28918	-2.21912
N	-2.3819	0.758827	-0.373196
C	-3.61413	1.02639	0.331229
H	-2.33382	0.994519	-1.33819
H	-4.36659	1.4799	-0.350939
H	-3.43834	1.7303	1.17673
H	-4.04071	0.0855313	0.748316
C	527.685	-1.55636	2.82172
C	528.116	-0.349562	2.08083
O	527.853	0.772544	2.49057
H	527.114	-1.24859	3.72448
H	528.57	-2.14643	3.14016
H	527.033	-2.18595	2.18091
N	528.799	-0.558169	0.952491
C	529.248	0.515566	0.101491
C	529.318	-0.00635001	-1.32127
O	529.177	-1.20417	-1.56035
H	528.97	-1.47776	0.610602
H	528.516	1.31328	0.116658
C	530.628	1.0388	0.555104
H	531.382	0.223269	0.529641
H	530.978	1.87514	-0.0839278
H	530.555	1.4082	1.6013
N	529.53	0.888856	-2.3059
C	529.607	0.485464	-3.69067
H	529.638	1.85441	-2.09311
H	529.786	1.36527	-4.34725
H	528.658	-0.00311701	-4.01048
H	530.438	-0.240958	-3.8431
