44
  This energy is 0 and Call times are: 5520
C	0.349452	3.08291	1.57677
C	0.704489	1.65523	1.413
O	1.67469	1.17488	1.98254
H	1.09189	3.57177	2.24438
H	-0.659174	3.17674	2.03132
H	0.359836	3.59527	0.591649
N	-0.0868038	0.934719	0.614821
C	0.155769	-0.456364	0.323948
C	-0.409746	-0.757633	-1.05118
O	-1.10134	0.0691245	-1.6427
H	-0.848869	1.34948	0.125848
H	1.22353	-0.630993	0.278961
C	-0.497148	-1.36465	1.38882
H	-1.59405	-1.19345	1.42802
H	-0.30574	-2.43786	1.1836
H	-0.0742213	-1.12132	2.38796
N	-0.119378	-1.9545	-1.59821
C	-0.608899	-2.32708	-2.90501
H	0.445229	-2.60868	-1.10593
H	-0.262231	-3.348	-3.17845
H	-0.24383	-1.61391	-3.67922
H	-1.72275	-2.31776	-2.92485
C	62.9584	0.498154	2.77428
C	64.109	-0.146138	2.10177
O	64.932	-0.792301	2.7355
H	63.0144	0.301357	3.86698
H	62.0055	0.084135	2.38289
H	62.9817	1.59538	2.6051
N	64.1934	0.0209589	0.779904
C	65.2792	-0.509376	-0.00645047
C	65.4718	0.389014	-1.21368
O	64.6617	1.27664	-1.47374
H	63.5385	0.583804	0.28385
H	66.1928	-0.470306	0.573672
C	64.9819	-1.95808	-0.451506
H	64.0504	-1.99714	-1.05558
H	65.8166	-2.38249	-1.04615
H	64.8367	-2.59578	0.447721
N	66.5617	0.182959	-1.97897
C	66.8307	0.992194	-3.14469
H	67.2079	-0.537538	-1.75012
H	67.7727	0.668032	-3.63957
H	66.9343	2.06506	-2.86269
H	65.9999	0.907702	-3.88211
