44
  This energy is 0 and Call times are: 5968
C	-0.614397	0.994537	3.27812
C	-0.974473	0.940837	1.84334
O	-2.07755	1.29838	1.45374
H	-1.48246	1.37255	3.86075
H	0.246555	1.67868	3.43128
H	-0.349974	-0.0198171	3.64454
N	-0.0353122	0.482415	1.01256
C	-0.252619	0.331497	-0.404682
C	0.634238	-0.794471	-0.901911
O	1.48836	-1.29291	-0.171329
H	0.843377	0.156675	1.3497
H	-1.27927	0.0344749	-0.579032
C	0.0663851	1.64345	-1.15452
H	1.12252	1.94299	-0.984526
H	-0.110311	1.54424	-2.24514
H	-0.588588	2.45508	-0.769003
N	0.444681	-1.22922	-2.1633
C	1.23764	-2.2999	-2.72099
H	-0.25416	-0.816185	-2.73784
H	0.930739	-2.51187	-3.7689
H	1.11376	-3.23244	-2.12408
H	2.31858	-2.03024	-2.71973
C	94.2557	-2.0338	0.667391
C	95.4737	-1.70063	-0.105044
O	95.9665	-2.50215	-0.886807
H	93.9355	-3.06918	0.419761
H	93.4349	-1.33227	0.40898
H	94.4646	-1.97299	1.75631
N	95.9954	-0.489428	0.102779
C	97.2027	-0.0379114	-0.543079
C	97.8781	0.969747	0.368008
O	97.3074	1.39322	1.37136
H	95.6065	0.136532	0.77267
H	97.8808	-0.874378	-0.657717
C	96.8897	0.59753	-1.91548
H	96.2024	1.46224	-1.79731
H	97.8127	0.936687	-2.42893
H	96.3888	-0.155144	-2.56273
N	99.1218	1.37281	0.0414335
C	99.8451	2.32487	0.85179
H	99.5688	1.01579	-0.772126
H	100.849	2.52783	0.4182
H	99.9824	1.93561	1.88663
H	99.2895	3.28835	0.916271
