44
  This energy is 0 and Call times are: 12240
C	2.21368	-1.73168	2.0527
C	1.58638	-1.47412	0.736915
O	2.03151	-1.97654	-0.285752
H	3.09499	-2.39533	1.91583
H	1.4898	-2.23081	2.73065
H	2.55013	-0.77717	2.50966
N	0.521273	-0.669185	0.734646
C	-0.169427	-0.291381	-0.473144
C	-0.791946	1.0747	-0.254411
O	-0.802082	1.59081	0.861496
H	0.195511	-0.23513	1.56972
H	0.547345	-0.193945	-1.27898
C	-1.25432	-1.32902	-0.835843
H	-1.99581	-1.42166	-0.0138636
H	-1.78397	-1.05651	-1.77165
H	-0.777237	-2.32247	-0.983489
N	-1.32165	1.69908	-1.32473
C	-1.93072	3.00404	-1.21375
H	-1.30028	1.26723	-2.22034
H	-2.30674	3.34789	-2.20249
H	-1.19347	3.7511	-0.840062
H	-2.78746	2.97869	-0.502074
C	541.908	1.04059	1.2134
C	543.12	1.24433	0.387869
O	543.184	2.15281	-0.428816
H	541.146	1.8024	0.940956
H	542.156	1.14928	2.2902
H	541.487	0.0294381	1.03152
N	544.124	0.386223	0.58498
C	545.349	0.430721	-0.172821
C	545.916	-0.974973	-0.238406
O	545.431	-1.88186	0.43503
H	544.041	-0.372992	1.2242
H	545.131	0.738075	-1.1879
C	546.366	1.39455	0.477928
H	546.598	1.07366	1.51571
H	547.309	1.44814	-0.103933
H	545.927	2.41517	0.522736
N	546.959	-1.19066	-1.0639
C	547.561	-2.49701	-1.1961
H	547.336	-0.44515	-1.60385
H	548.404	-2.47026	-1.92183
H	546.813	-3.23979	-1.55545
H	547.954	-2.84984	-0.215176
