44
  This energy is 0 and Call times are: 7200
C	-2.68848	-1.16703	-1.87692
C	-1.78583	-0.0835173	-1.42707
O	-1.78634	1.00962	-1.97611
H	-3.28726	-0.810381	-2.74302
H	-3.37918	-1.45499	-1.0567
H	-2.09664	-2.05303	-2.18968
N	-0.980732	-0.369413	-0.401172
C	-0.0175603	0.568038	0.120408
C	1.13545	-0.219362	0.713801
O	1.06425	-1.44005	0.842502
H	-0.962878	-1.27683	0.00887106
H	0.381439	1.16036	-0.693583
C	-0.658114	1.47945	1.19011
H	-1.05823	0.87298	2.03042
H	0.069911	2.21496	1.58952
H	-1.50422	2.03988	0.735816
N	2.23559	0.465502	1.08353
C	3.38442	-0.199762	1.65254
H	2.27604	1.45243	0.967764
H	4.18589	0.533926	1.89041
H	3.79665	-0.950304	0.939779
H	3.10582	-0.731549	2.59101
C	182.227	-1.91418	-0.870905
C	182.919	-0.950521	0.0139516
O	182.311	-0.336281	0.879707
H	181.146	-1.93753	-0.613678
H	182.651	-2.93137	-0.73499
H	182.337	-1.60676	-1.93222
N	184.229	-0.793408	-0.189639
C	185.03	0.139648	0.563076
C	186.186	0.585514	-0.313077
O	186.408	0.0362823	-1.3905
H	184.702	-1.27004	-0.92516
H	184.438	1.0181	0.788086
C	185.555	-0.507438	1.8635
H	186.171	-1.40261	1.63272
H	186.162	0.205363	2.45877
H	184.693	-0.833181	2.48528
N	186.948	1.60501	0.128706
C	188.066	2.101	-0.639722
H	186.751	2.03944	1.00121
H	188.567	2.94058	-0.108851
H	187.726	2.46863	-1.63505
H	188.817	1.29479	-0.807249
