44
  This energy is 0 and Call times are: 12716
C	-1.96957	-2.83078	0.469229
C	-1.70154	-1.38575	0.645851
O	-2.5643	-0.629098	1.06957
H	-3.02117	-3.04722	0.757625
H	-1.29016	-3.42757	1.11343
H	-1.82119	-3.12054	-0.592427
N	-0.478196	-0.964514	0.316671
C	-0.0819608	0.419566	0.393345
C	0.995166	0.661526	-0.647236
O	1.49912	-0.276534	-1.26188
H	0.200387	-1.58527	-0.0655032
H	-0.92585	1.04751	0.136107
C	0.440856	0.766377	1.80459
H	1.31319	0.129687	2.06477
H	0.736179	1.83294	1.88039
H	-0.361025	0.574202	2.55052
N	1.36888	1.93596	-0.875666
C	2.38238	2.26317	-1.85133
H	0.946657	2.68188	-0.371285
H	2.54831	3.36226	-1.89255
H	2.07788	1.91644	-2.8654
H	3.34865	1.77189	-1.59421
C	582.312	-1.03462	0.266198
C	581.016	-0.985397	-0.446056
O	580.912	-1.37949	-1.59943
H	583.089	-1.44648	-0.413744
H	582.233	-1.68873	1.15988
H	582.615	-0.0136822	0.581152
N	579.982	-0.489214	0.237341
C	578.667	-0.337885	-0.335604
C	577.979	0.821634	0.35955
O	578.478	1.34575	1.35365
H	580.091	-0.134532	1.16151
H	578.762	-0.076386	-1.38218
C	577.842	-1.63336	-0.173431
H	577.736	-1.89631	0.900641
H	576.833	-1.53416	-0.622939
H	578.369	-2.46988	-0.682859
N	576.813	1.25669	-0.156519
C	576.089	2.35798	0.434376
H	576.427	0.822505	-0.963852
H	575.155	2.56502	-0.13396
H	576.711	3.28208	0.43472
H	575.813	2.12675	1.48885
