44
  This energy is 0 and Call times are: 11708
C	-0.805795	-3.24524	-0.965288
C	-1.18571	-1.86232	-0.598774
O	-2.32728	-1.45475	-0.763444
H	-1.68848	-3.76703	-1.39481
H	-0.463341	-3.79913	-0.066024
H	0.00668636	-3.23107	-1.7221
N	-0.218847	-1.09718	-0.0867977
C	-0.425195	0.282456	0.277311
C	0.896497	1.01284	0.131638
O	1.93744	0.394576	-0.0826137
H	0.715406	-1.43028	0.00311671
H	-1.122	0.734847	-0.417264
C	-0.951196	0.398287	1.72477
H	-0.231766	-0.0562931	2.43879
H	-1.12725	1.45509	2.01235
H	-1.91477	-0.149984	1.81007
N	0.883435	2.35625	0.237009
C	2.09197	3.13645	0.106968
H	0.0306513	2.83908	0.406454
H	1.87446	4.22096	0.224227
H	2.55588	2.97823	-0.893545
H	2.83537	2.84186	0.882676
C	506.381	-0.142204	3.42194
C	506.282	0.529442	2.10654
O	505.554	1.49889	1.9439
H	505.705	0.364029	4.14453
H	507.422	-0.0851441	3.80353
H	506.079	-1.2068	3.3317
N	507.025	0.0178499	1.12174
C	507.002	0.53627	-0.223349
C	507.333	-0.599191	-1.17353
O	507.722	-1.6845	-0.74658
H	507.581	-0.79659	1.25906
H	506	0.872988	-0.459505
C	508.014	1.6913	-0.38663
H	509.043	1.34368	-0.154674
H	507.996	2.10821	-1.41444
H	507.757	2.50735	0.32367
N	507.176	-0.375863	-2.49324
C	507.461	-1.39905	-3.47204
H	506.856	0.507553	-2.81926
H	507.271	-1.02272	-4.50125
H	506.82	-2.29456	-3.30206
H	508.526	-1.71923	-3.40726
