44
  This energy is 0 and Call times are: 12436
C	1.1476	-1.73246	2.79182
C	0.569256	-1.69241	1.42982
O	0.475727	-2.70627	0.751773
H	1.4615	-2.77265	3.02711
H	0.392365	-1.40751	3.538
H	2.03489	-1.06737	2.85052
N	0.163831	-0.498073	0.99213
C	-0.379862	-0.293295	-0.327348
C	-0.0737625	1.13146	-0.749156
O	0.394325	1.93856	0.0515938
H	0.284138	0.324958	1.53987
H	0.12124	-0.951345	-1.02628
C	-1.90326	-0.546839	-0.341775
H	-2.41895	0.135243	0.367355
H	-2.33151	-0.405861	-1.35531
H	-2.10429	-1.5927	-0.0222142
N	-0.325189	1.47255	-2.0284
C	-0.0605989	2.80403	-2.52167
H	-0.700152	0.80446	-2.66254
H	-0.333109	2.88644	-3.59693
H	1.01937	3.05556	-2.41356
H	-0.649545	3.55861	-1.95167
C	561.531	-0.497335	-2.33625
C	561.041	-0.427367	-0.941471
O	561.73	-0.812677	-0.00762934
H	562.548	-0.947268	-2.3458
H	561.585	0.521351	-2.77459
H	560.853	-1.12801	-2.94925
N	559.815	0.0729174	-0.767968
C	559.185	0.164666	0.52553
C	557.683	0.0772613	0.327476
O	557.193	0.115085	-0.799618
H	559.25	0.344403	-1.54162
H	559.481	-0.685041	1.12808
C	559.562	1.48606	1.23044
H	559.249	2.35819	0.617576
H	559.094	1.56235	2.23332
H	560.666	1.53208	1.35772
N	556.914	-0.0510685	1.42649
C	555.476	-0.147084	1.33545
H	557.329	-0.0839376	2.3297
H	555.024	-0.247369	2.34671
H	555.179	-1.03349	0.7293
H	555.051	0.761183	0.849755
