44
  This energy is 0 and Call times are: 7004
C	-2.02485	2.05107	1.95084
C	-1.06526	1.84014	0.843666
O	-0.831629	2.72448	0.0314018
H	-2.45335	3.07411	1.87561
H	-1.50936	1.94838	2.92884
H	-2.84987	1.31043	1.88852
N	-0.480406	0.641417	0.785514
C	0.442866	0.272843	-0.25865
C	0.358184	-1.2289	-0.456494
O	-0.280694	-1.93193	0.324084
H	-0.711549	-0.081949	1.42986
H	0.136442	0.738305	-1.18713
C	1.88419	0.69045	0.106649
H	2.20283	0.204903	1.05362
H	2.60257	0.424499	-0.695672
H	1.92083	1.79188	0.254524
N	0.998755	-1.75683	-1.51809
C	0.969627	-3.17509	-1.78991
H	1.50712	-1.17131	-2.14082
H	1.5547	-3.41207	-2.70574
H	-0.0772602	-3.52431	-1.94269
H	1.4037	-3.74749	-0.938394
C	173.137	2.67608	0.619925
C	172.422	1.45292	1.0486
O	172.682	0.907958	2.11255
H	173.894	2.94754	1.38801
H	172.422	3.5177	0.506772
H	173.654	2.4982	-0.346552
N	171.491	0.986245	0.213268
C	170.742	-0.21815	0.472675
C	170.351	-0.828253	-0.860141
O	170.531	-0.215017	-1.91051
H	171.32	1.41749	-0.667916
H	171.379	-0.932302	0.979943
C	169.486	0.084571	1.31897
H	168.828	0.80914	0.794266
H	168.909	-0.836934	1.53719
H	169.796	0.537576	2.28608
N	169.811	-2.06272	-0.84823
C	169.413	-2.72552	-2.06831
H	169.677	-2.54472	0.0113108
H	168.991	-3.73142	-1.84997
H	170.286	-2.85157	-2.74937
H	168.639	-2.12988	-2.60497
