44
  This energy is 0 and Call times are: 5744
C	1.34366	-2.72532	-1.69703
C	1.22321	-1.26952	-1.45765
O	2.00221	-0.477292	-1.96945
H	2.21671	-2.91789	-2.35777
H	0.426823	-3.10891	-2.19202
H	1.49571	-3.25993	-0.735698
N	0.22752	-0.879957	-0.658141
C	0.00943801	0.498815	-0.297604
C	-0.65108	0.531885	1.06774
O	-1.05636	-0.501503	1.59649
H	-0.373325	-1.53993	-0.216229
H	0.96521	0.999512	-0.205771
C	-0.875831	1.20948	-1.34474
H	-1.86044	0.70251	-1.43171
H	-1.03964	2.27556	-1.08558
H	-0.376741	1.16611	-2.3374
N	-0.767498	1.72814	1.67722
C	-1.37721	1.85644	2.98028
H	-0.429833	2.55261	1.23529
H	-1.37864	2.91845	3.31094
H	-0.820727	1.25507	3.73524
H	-2.43054	1.49428	2.95875
C	79.1194	1.85098	-2.26939
C	79.4061	0.603581	-1.52578
O	78.6081	-0.32348	-1.51319
H	78.1179	1.77286	-2.7454
H	79.8821	2.00866	-3.06073
H	79.1213	2.71862	-1.57638
N	80.5718	0.554114	-0.87685
C	80.9719	-0.575362	-0.0751292
C	81.8955	-0.074959	1.01949
O	82.3123	1.08174	1.01191
H	81.1928	1.33259	-0.862852
H	80.0994	-0.998038	0.407218
C	81.6828	-1.64054	-0.938435
H	82.5839	-1.21026	-1.42512
H	81.9835	-2.5215	-0.335098
H	80.9913	-1.98651	-1.7375
N	82.2316	-0.939	1.99748
C	83.1009	-0.550446	3.08355
H	81.8811	-1.86965	1.98862
H	83.2573	-1.39934	3.78509
H	82.6608	0.299248	3.65418
H	84.0944	-0.228161	2.69583
