44
  This energy is 0 and Call times are: 9048
C	1.08169	-1.67479	-2.85267
C	1.32009	-0.780922	-1.69711
O	2.45298	-0.447981	-1.37754
H	2.05693	-1.96023	-3.30356
H	0.469932	-1.15437	-3.61926
H	0.555383	-2.59512	-2.52239
N	0.238002	-0.368108	-1.033
C	0.312822	0.46967	0.137935
C	-0.893911	0.174396	1.00866
O	-1.80921	-0.53566	0.596648
H	-0.674735	-0.680585	-1.28026
H	1.19465	0.207377	0.709088
C	0.34561	1.96329	-0.253546
H	-0.563879	2.23538	-0.830464
H	0.417177	2.61827	0.638871
H	1.23213	2.15471	-0.896813
N	-0.918911	0.709899	2.24504
C	-2.02364	0.479293	3.14647
H	-0.167039	1.27846	2.56206
H	-1.85817	1.00345	4.11347
H	-2.14111	-0.609122	3.35342
H	-2.97606	0.851378	2.70422
C	316.989	1.2671	-3.24147
C	316.294	0.851578	-2.00236
O	315.113	1.11336	-1.82089
H	316.281	1.8261	-3.89033
H	317.354	0.375263	-3.79289
H	317.848	1.92668	-2.99567
N	317.026	0.184938	-1.10651
C	316.501	-0.247164	0.164698
C	317.647	-0.298602	1.15723
O	318.81	-0.159203	0.783861
H	317.997	0.0151341	-1.25055
H	315.793	0.487801	0.527189
C	315.828	-1.63208	0.0418045
H	316.557	-2.38868	-0.319996
H	315.408	-1.96967	1.01113
H	314.998	-1.57278	-0.695315
N	317.342	-0.493061	2.45533
C	318.366	-0.550877	3.47216
H	316.394	-0.59963	2.73866
H	317.915	-0.716894	4.47538
H	318.945	0.40063	3.50117
H	319.078	-1.38218	3.26573
