44
  This energy is 0 and Call times are: 5324
C	-0.923553	-1.77389	2.84834
C	0.0681682	-1.38173	1.82177
O	1.25298	-1.65876	1.94781
H	-0.40447	-2.30143	3.67788
H	-1.68146	-2.4552	2.40772
H	-1.42906	-0.873096	3.25592
N	-0.403	-0.714386	0.765822
C	0.44598	-0.228978	-0.293504
C	-0.203967	1.00366	-0.893284
O	-1.3472	1.32898	-0.578816
H	-1.36358	-0.460516	0.697209
H	1.39702	0.0783009	0.123316
C	0.653178	-1.31223	-1.37465
H	-0.321309	-1.62023	-1.81002
H	1.31645	-0.955317	-2.18903
H	1.12252	-2.20767	-0.911781
N	0.51863	1.72714	-1.77104
C	-0.0150259	2.91872	-2.38872
H	1.4435	1.45026	-2.00987
H	0.730624	3.37169	-3.07868
H	-0.282622	3.67549	-1.61608
H	-0.933913	2.6812	-2.97214
C	53.2768	-2.40878	1.0615
C	52.1383	-1.97165	0.222448
O	51.7298	-2.66318	-0.700191
H	53.649	-3.38949	0.693431
H	52.953	-2.52067	2.11763
H	54.1012	-1.66707	1.00442
N	51.594	-0.791703	0.528761
C	50.5082	-0.213839	-0.223301
C	50.6064	1.29596	-0.111754
O	51.4011	1.81956	0.666685
H	51.9639	-0.221512	1.25673
H	50.6232	-0.468146	-1.26959
C	49.1448	-0.708445	0.307523
H	49.0218	-0.438544	1.37807
H	48.3011	-0.28133	-0.272329
H	49.0983	-1.81621	0.223623
N	49.8006	2.03488	-0.899559
C	49.8278	3.4786	-0.866274
H	49.167	1.59308	-1.52604
H	49.0933	3.90249	-1.586
H	50.8403	3.85863	-1.13415
H	49.5769	3.85308	0.15253
