44
  This energy is 0 and Call times are: 6248
C	1.12588	2.93281	-1.4979
C	0.209387	1.77234	-1.43096
O	-0.789222	1.71298	-2.135
H	0.735744	3.66685	-2.23604
H	2.13692	2.60403	-1.81798
H	1.19446	3.42408	-0.504398
N	0.533846	0.809045	-0.565415
C	-0.282483	-0.360881	-0.356991
C	-0.069166	-0.83891	1.06693
O	0.813129	-0.349933	1.7699
H	1.32787	0.890717	0.0301743
H	-1.32646	-0.0898035	-0.453262
C	0.0827713	-1.47474	-1.36255
H	1.15103	-1.76058	-1.25699
H	-0.548396	-2.37596	-1.22131
H	-0.0733169	-1.1002	-2.39779
N	-0.884047	-1.80711	1.53015
C	-0.759402	-2.32106	2.87422
H	-1.59478	-2.18747	0.9477
H	-1.51917	-3.11064	3.06536
H	-0.904364	-1.50707	3.621
H	0.251554	-2.76078	3.0347
C	120.08	-0.173211	-1.61194
C	118.861	0.562194	-1.20553
O	118.778	1.77493	-1.34277
H	120.828	0.54691	-2.00813
H	119.835	-0.91032	-2.40541
H	120.517	-0.701811	-0.738646
N	117.873	-0.168901	-0.68511
C	116.643	0.409998	-0.204373
C	116.099	-0.481512	0.896005
O	116.602	-1.57997	1.12323
H	117.971	-1.14958	-0.541974
H	116.852	1.37648	0.237152
C	115.614	0.547863	-1.34788
H	115.391	-0.444779	-1.79422
H	114.668	1.00522	-0.993275
H	116.036	1.19765	-2.14521
N	115.056	-0.0219407	1.61463
C	114.475	-0.798207	2.68521
H	114.664	0.871165	1.41858
H	113.628	-0.24958	3.15442
H	115.234	-1.01131	3.47246
H	114.092	-1.77181	2.30196
