44
  This energy is 0 and Call times are: 9776
C	2.56981	2.26446	0.617234
C	1.37675	1.49915	1.04392
O	1.04713	1.44479	2.2207
H	3.05693	2.71327	1.51007
H	2.27407	3.07814	-0.0778988
H	3.29508	1.59231	0.111975
N	0.693505	0.878637	0.0792906
C	-0.463874	0.0608556	0.344371
C	-0.552683	-0.99822	-0.738231
O	0.179352	-0.953017	-1.72504
H	0.997658	0.898501	-0.868846
H	-0.329642	-0.452998	1.28807
C	-1.74937	0.916417	0.371645
H	-1.89315	1.4355	-0.599911
H	-2.64592	0.300257	0.588613
H	-1.65888	1.68956	1.16563
N	-1.45265	-1.98753	-0.572814
C	-1.60454	-3.04206	-1.54804
H	-2.03327	-2.00933	0.234323
H	-2.39389	-3.75921	-1.23207
H	-0.650102	-3.60339	-1.67145
H	-1.8888	-2.62211	-2.54
C	368.669	0.316333	-3.45008
C	368.943	-0.48348	-2.23511
O	369.013	-1.70383	-2.28301
H	368.535	-0.366646	-4.31703
H	369.519	0.999765	-3.65839
H	367.741	0.911166	-3.31513
N	369.105	0.199184	-1.0993
C	369.336	-0.442203	0.171214
C	368.783	0.45618	1.2616
O	368.399	1.59566	1.00451
H	369.005	1.18957	-1.06882
H	368.782	-1.37193	0.20759
C	370.842	-0.700274	0.394068
H	371.409	0.254365	0.367342
H	371.031	-1.20634	1.36292
H	371.227	-1.35308	-0.419623
N	368.721	-0.0430818	2.51179
C	368.205	0.736599	3.61259
H	369.033	-0.968771	2.69943
H	368.237	0.151453	4.55801
H	367.149	1.03557	3.42095
H	368.806	1.66389	3.75348
