44
  This energy is 0 and Call times are: 6276
C	-1.50976	-3.09945	-0.476147
C	-1.52986	-1.70063	0.00764737
O	-2.57254	-1.16865	0.362919
H	-2.54396	-3.50711	-0.464198
H	-0.869978	-3.72319	0.182919
H	-1.1197	-3.13949	-1.51506
N	-0.356859	-1.06348	0.0298845
C	-0.223931	0.313893	0.434511
C	0.970191	0.906471	-0.289697
O	1.73206	0.191472	-0.937807
H	0.476688	-1.49655	-0.301059
H	-1.10001	0.865594	0.117116
C	-0.0391031	0.424244	1.96386
H	0.865455	-0.132822	2.28865
H	0.050538	1.48085	2.28955
H	-0.920692	-0.0225889	2.47326
N	1.15666	2.23825	-0.202358
C	2.26262	2.89158	-0.862809
H	0.527145	2.80072	0.323382
H	2.2432	3.98715	-0.671582
H	2.21533	2.72708	-1.96371
H	3.23382	2.48839	-0.49491
C	116.31	1.42917	1.6833
C	117.246	0.309653	1.43543
O	117.304	-0.647265	2.19529
H	115.747	1.23608	2.62221
H	115.589	1.51815	0.843688
H	116.872	2.38109	1.79041
N	118.014	0.408237	0.34809
C	119.003	-0.580914	-0.001616
C	120.108	0.109252	-0.778747
O	119.984	1.27439	-1.151
H	117.985	1.21256	-0.238478
H	119.445	-0.979362	0.903011
C	118.376	-1.71439	-0.842715
H	117.932	-1.30752	-1.77595
H	119.125	-2.48945	-1.10662
H	117.565	-2.19998	-0.257541
N	121.227	-0.596825	-1.03557
C	122.334	-0.0212948	-1.76385
H	121.311	-1.53707	-0.722617
H	123.159	-0.758866	-1.87235
H	122.731	0.873561	-1.23212
H	122.011	0.29679	-2.78173
