44
  This energy is 0 and Call times are: 7060
C	1.52947	-0.889006	-2.99718
C	0.57498	-0.073589	-2.21284
O	0.0324929	0.908794	-2.69971
H	1.64517	-0.445927	-4.01018
H	1.1509	-1.92765	-3.10032
H	2.52057	-0.905031	-2.49663
N	0.347547	-0.469312	-0.958226
C	-0.522465	0.247016	-0.0590521
C	-0.0370516	0.00916675	1.35847
O	0.839086	-0.820896	1.59319
H	0.827805	-1.24712	-0.562971
H	-0.441278	1.30913	-0.253863
C	-1.98548	-0.222147	-0.216291
H	-2.07109	-1.30962	-0.00624839
H	-2.66738	0.331772	0.460982
H	-2.31692	-0.0459369	-1.26293
N	-0.59363	0.74389	2.34154
C	-0.191213	0.590487	3.7202
H	-1.29826	1.41353	2.13142
H	-0.763741	1.28254	4.37632
H	0.894137	0.811958	3.83954
H	-0.371087	-0.45235	4.06845
C	174.579	-3.28615	1.06599
C	174.136	-2.09607	0.304974
O	173.216	-2.16433	-0.498059
H	173.967	-4.16389	0.763138
H	174.447	-3.11482	2.15502
H	175.647	-3.50144	0.852655
N	174.796	-0.960066	0.543812
C	174.508	0.270372	-0.15049
C	175.782	1.09302	-0.201717
O	176.777	0.754383	0.436947
H	175.569	-0.929539	1.17021
H	174.227	0.0468619	-1.17212
C	173.385	1.05578	0.56071
H	173.677	1.29449	1.60558
H	173.145	1.99866	0.0278963
H	172.465	0.431765	0.593712
N	175.783	2.1963	-0.975526
C	176.951	3.03781	-1.0905
H	174.97	2.45179	-1.48806
H	176.754	3.89411	-1.77234
H	177.814	2.45966	-1.49488
H	177.244	3.4426	-0.0946089
