44
  This energy is 0 and Call times are: 4988
C	-1.66187	0.975256	-2.89823
C	-0.64882	1.19258	-1.84105
O	0.191625	2.07573	-1.94166
H	-1.49403	1.70187	-3.7227
H	-2.68219	1.12707	-2.48757
H	-1.57648	-0.0548196	-3.30412
N	-0.7065	0.375426	-0.786862
C	0.23769	0.43635	0.300958
C	0.355102	-0.950948	0.903596
O	-0.41103	-1.85127	0.565702
H	-1.3708	-0.364997	-0.738385
H	1.21287	0.703116	-0.0869652
C	-0.216982	1.45428	1.36975
H	-1.21269	1.17521	1.77562
H	0.508796	1.52053	2.20604
H	-0.303818	2.46055	0.904749
N	1.33007	-1.15825	1.81051
C	1.52146	-2.44731	2.43331
H	1.9428	-0.418453	2.06808
H	2.3725	-2.4159	3.14882
H	1.73706	-3.22601	1.66622
H	0.606529	-2.75475	2.98966
C	25.5754	-2.80766	-1.48334
C	26.2529	-1.49396	-1.56289
O	26.7072	-1.07903	-2.62018
H	25.5879	-3.28864	-2.48551
H	24.5211	-2.67563	-1.16122
H	26.1024	-3.46692	-0.761722
N	26.3385	-0.800544	-0.425248
C	27.0067	0.47389	-0.335943
C	27.5367	0.632074	1.07671
O	27.2262	-0.165992	1.95895
H	26.0002	-1.16966	0.435643
H	27.8598	0.477483	-1.00287
C	26.0418	1.62828	-0.684661
H	25.1716	1.63146	0.00592638
H	26.5481	2.61393	-0.632981
H	25.6602	1.48771	-1.71954
N	28.3618	1.66883	1.32253
C	28.9196	1.89618	2.63529
H	28.6048	2.3016	0.594776
H	29.5725	2.79668	2.63459
H	29.5289	1.02176	2.96
H	28.1101	2.05038	3.385
