44
  This energy is 0 and Call times are: 5576
C	2.16196	-2.72728	0.0242272
C	1.59036	-1.51182	0.646392
O	1.81338	-1.23523	1.81693
H	2.75782	-3.2819	0.781333
H	2.82531	-2.44856	-0.821363
H	1.34854	-3.38633	-0.346034
N	0.825267	-0.747956	-0.136881
C	0.165319	0.442677	0.337907
C	-1.09328	0.645708	-0.484446
O	-1.31202	-0.0405064	-1.48093
H	0.619608	-1.00783	-1.07605
H	-0.141348	0.295304	1.36595
C	1.09306	1.6718	0.220397
H	1.39948	1.82968	-0.835642
H	0.601216	2.59252	0.595751
H	2.01088	1.49782	0.823458
N	-1.95948	1.59466	-0.0779705
C	-3.1862	1.85527	-0.794505
H	-1.76704	2.13695	0.733176
H	-3.76248	2.67051	-0.304098
H	-3.82523	0.943106	-0.823981
H	-2.97107	2.16014	-1.84423
C	69.8776	-1.90905	2.77454
C	69.4325	-0.641661	2.15265
O	69.0236	0.28837	2.83401
H	69.7523	-1.84103	3.87705
H	70.9483	-2.09253	2.54514
H	69.2681	-2.75619	2.39521
N	69.5015	-0.577745	0.820913
C	69.0641	0.573038	0.070633
C	68.6125	0.101182	-1.29864
O	68.809	-1.05681	-1.66218
H	69.7981	-1.35782	0.277381
H	68.2041	1.01283	0.560141
C	70.201	1.61	-0.0617765
H	71.0796	1.16237	-0.573334
H	69.8724	2.50698	-0.625679
H	70.521	1.9352	0.952204
N	67.9847	0.992006	-2.09131
C	67.5145	0.631906	-3.40866
H	67.8312	1.92332	-1.77799
H	67.0253	1.50024	-3.90261
H	66.7749	-0.199186	-3.34816
H	68.361	0.294757	-4.04962
