44
  This energy is 0 and Call times are: 8656
C	-1.48872	1.83981	2.55176
C	-0.573199	0.779898	2.07265
O	0.220988	0.239507	2.83005
H	-1.30002	2.02786	3.63107
H	-2.54435	1.52127	2.42167
H	-1.31431	2.78005	1.98731
N	-0.664615	0.45616	0.780669
C	0.188902	-0.525721	0.159397
C	0.338572	-0.162869	-1.30604
O	-0.347229	0.725582	-1.80808
H	-1.28758	0.933583	0.1676
H	1.17411	-0.47651	0.606142
C	-0.402976	-1.94444	0.308222
H	-1.40928	-1.99828	-0.159206
H	0.251993	-2.71114	-0.15407
H	-0.511077	-2.18556	1.38828
N	1.25174	-0.841617	-2.02815
C	1.46794	-0.561662	-3.42853
H	1.80007	-1.55428	-1.60327
H	2.2588	-1.22406	-3.84446
H	1.78525	0.496487	-3.57312
H	0.532187	-0.724114	-4.01087
C	286.315	-1.3246	1.77462
C	287.198	-1.28036	0.587026
O	287.164	-2.16221	-0.26009
H	285.696	-2.24745	1.73822
H	285.643	-0.441186	1.78479
H	286.924	-1.33637	2.70337
N	288.023	-0.234731	0.499695
C	288.971	-0.0754573	-0.575248
C	290.15	0.722445	-0.0518558
O	290.11	1.25206	1.05701
H	288.068	0.453832	1.21782
H	289.344	-1.04839	-0.86912
C	288.323	0.642333	-1.77965
H	287.949	1.64482	-1.4812
H	289.038	0.758621	-2.61926
H	287.458	0.0448491	-2.14105
N	291.238	0.819924	-0.840528
C	292.41	1.55423	-0.424048
H	291.254	0.381047	-1.73284
H	293.197	1.51733	-1.20936
H	292.831	1.12399	0.513749
H	292.157	2.62183	-0.230929
