44
  This energy is 0 and Call times are: 8852
C	2.47084	-1.82972	-1.63087
C	1.80564	-1.34621	-0.400069
O	2.08187	-1.81606	0.695081
H	3.18504	-2.64017	-1.36821
H	3.02958	-1.00117	-2.11465
H	1.71716	-2.23105	-2.34079
N	0.896709	-0.380985	-0.55678
C	0.135861	0.160917	0.541407
C	-1.19682	0.643829	0.000739223
O	-1.40616	0.689089	-1.20998
H	0.65321	-0.0373234	-1.45926
H	-0.0718368	-0.62659	1.25508
C	0.896865	1.32051	1.22071
H	1.10092	2.1333	0.491483
H	0.327431	1.73717	2.07667
H	1.87209	0.946133	1.60165
N	-2.13783	1.01031	0.89305
C	-3.43787	1.47775	0.471649
H	-1.95121	0.962829	1.86875
H	-4.06942	1.72994	1.35186
H	-3.96253	0.695629	-0.12358
H	-3.34142	2.38806	-0.163309
C	301.671	3.07952	0.929708
C	301.523	1.68988	0.441875
O	300.424	1.15742	0.37263
H	300.672	3.48017	1.20716
H	302.107	3.71986	0.134174
H	302.329	3.10282	1.82422
N	302.647	1.06136	0.0892738
C	302.667	-0.30726	-0.363511
C	304.014	-0.905005	-0.00272646
O	304.922	-0.196994	0.428186
H	303.538	1.49391	0.189939
H	301.911	-0.870827	0.168857
C	302.43	-0.387745	-1.88745
H	303.211	0.181531	-2.43456
H	302.429	-1.43743	-2.24616
H	301.442	0.062423	-2.12932
N	304.172	-2.23359	-0.163844
C	305.416	-2.8915	0.158325
H	303.424	-2.79049	-0.509934
H	305.348	-3.98342	-0.0421515
H	305.67	-2.74793	1.23374
H	306.251	-2.47481	-0.451418
