44
  This energy is 0 and Call times are: 5996
C	-0.244933	2.5162	-2.39195
C	0.531431	1.50747	-1.63639
O	1.66923	1.2053	-1.96883
H	0.363536	2.88305	-3.24697
H	-0.497098	3.37541	-1.7355
H	-1.18021	2.06407	-2.78429
N	-0.0787844	0.953782	-0.585945
C	0.532532	-0.0733009	0.220251
C	-0.570553	-0.93759	0.801423
O	-1.75072	-0.61074	0.691482
H	-1.02006	1.18021	-0.352279
H	1.14098	-0.708428	-0.411439
C	1.38636	0.546003	1.34838
H	0.760469	1.1893	2.00295
H	1.87357	-0.234698	1.96778
H	2.18198	1.1805	0.900324
N	-0.20924	-2.0732	1.4306
C	-1.18999	-2.96117	2.01011
H	0.750491	-2.32285	1.50587
H	-0.695763	-3.83921	2.48128
H	-1.89371	-3.33194	1.22999
H	-1.78573	-2.43365	2.78982
C	96.8529	2.2769	1.52262
C	97.1244	0.973232	0.876182
O	96.2961	0.0732604	0.893728
H	95.8459	2.25097	1.99296
H	96.876	3.09063	0.767611
H	97.6112	2.47991	2.30798
N	98.3132	0.841059	0.283162
C	98.7381	-0.38233	-0.350327
C	100.251	-0.454635	-0.272005
O	100.909	0.509133	0.116365
H	98.993	1.56834	0.312652
H	98.3458	-1.22625	0.203295
C	98.269	-0.433981	-1.82085
H	98.6798	0.425839	-2.3918
H	98.5781	-1.37746	-2.31562
H	97.1593	-0.371631	-1.85444
N	100.842	-1.61072	-0.63395
C	102.276	-1.77413	-0.587006
H	100.293	-2.38083	-0.941624
H	102.567	-2.79395	-0.922618
H	102.655	-1.62529	0.450217
H	102.778	-1.03086	-1.24774
