44
  This energy is 0 and Call times are: 12688
C	-1.8555	2.55415	-1.46496
C	-0.590601	2.00728	-0.924488
O	0.472671	2.58882	-1.09087
H	-1.64322	3.49799	-2.01269
H	-2.56349	2.77031	-0.637458
H	-2.31767	1.82782	-2.16634
N	-0.679954	0.8553	-0.255664
C	0.469644	0.178797	0.291444
C	0.171758	-1.30838	0.324838
O	-0.957103	-1.73019	0.0809882
H	-1.54646	0.373034	-0.163749
H	1.31648	0.323424	-0.36778
C	0.792355	0.698366	1.70959
H	-0.0723069	0.540634	2.38894
H	1.68402	0.194959	2.13626
H	0.999151	1.78986	1.66232
N	1.18732	-2.14299	0.621634
C	0.999572	-3.57423	0.671464
H	2.09469	-1.7831	0.81199
H	1.95177	-4.08695	0.93157
H	0.652147	-3.95936	-0.314559
H	0.235602	-3.84404	1.43611
C	574.73	2.61075	0.378883
C	575.297	1.30711	0.790774
O	574.987	0.789483	1.85482
H	574.049	2.9826	1.17465
H	574.154	2.49678	-0.563324
H	575.543	3.35139	0.227253
N	576.158	0.74005	-0.0574503
C	576.825	-0.506753	0.224004
C	578.157	-0.505299	-0.502597
O	578.431	0.376946	-1.31402
H	576.432	1.19312	-0.900978
H	577.036	-0.567512	1.28436
C	575.964	-1.70705	-0.226359
H	575.756	-1.65078	-1.31613
H	576.461	-2.67334	-0.00242505
H	574.992	-1.68346	0.312063
N	579.025	-1.49663	-0.219486
C	580.318	-1.57412	-0.857607
H	578.787	-2.1992	0.443008
H	580.885	-2.45897	-0.492263
H	580.918	-0.660443	-0.641683
H	580.207	-1.66074	-1.96269
