44
  This energy is 0 and Call times are: 7480
C	-1.70426	-0.569978	2.98049
C	-1.55784	0.105878	1.6717
O	-2.47158	0.763548	1.19319
H	-2.72533	-0.382819	3.37831
H	-0.95924	-0.173004	3.70167
H	-1.55897	-1.66472	2.86423
N	-0.384517	-0.0462605	1.05321
C	-0.107736	0.515386	-0.245448
C	0.917019	-0.36661	-0.933573
O	1.48416	-1.26909	-0.320713
H	0.335106	-0.618335	1.43627
H	-1.00921	0.490526	-0.844909
C	0.419557	1.96158	-0.120074
H	1.3502	1.98628	0.486006
H	0.623304	2.40996	-1.11404
H	-0.343039	2.58705	0.393337
N	1.17294	-0.129269	-2.23519
C	2.12864	-0.920882	-2.97422
H	0.700965	0.602853	-2.71509
H	2.19766	-0.571364	-4.02793
H	1.82907	-1.99396	-2.97983
H	3.14016	-0.847247	-2.5132
C	203.653	3.08195	-0.893887
C	204.784	2.22953	-0.4639
O	205.933	2.64958	-0.474432
H	204.041	4.07394	-1.21222
H	202.942	3.22691	-0.053506
H	203.123	2.61195	-1.74915
N	204.478	0.990653	-0.0716158
C	205.475	0.0311183	0.333502
C	204.946	-1.35767	0.0273956
O	203.781	-1.52408	-0.327432
H	203.543	0.649784	-0.107459
H	206.369	0.173734	-0.259385
C	205.794	0.169416	1.83817
H	204.879	0.0127631	2.44738
H	206.571	-0.554833	2.15941
H	206.172	1.19558	2.04041
N	205.8	-2.39276	0.150516
C	205.388	-3.74948	-0.124828
H	206.741	-2.23773	0.434887
H	206.233	-4.45648	0.0332455
H	205.041	-3.8483	-1.17884
H	204.55	-4.04913	0.54447
