44
  This energy is 0 and Call times are: 12044
C	1.09964	-2.31768	2.35199
C	0.12136	-1.84518	1.34658
O	-0.772852	-2.57514	0.941673
H	0.876129	-3.37484	2.6134
H	1.03317	-1.69842	3.27114
H	2.1295	-2.2592	1.94081
N	0.274231	-0.591707	0.913192
C	-0.57305	-0.00531242	-0.0951812
C	0.231372	1.04635	-0.835763
O	1.34236	1.3876	-0.434538
H	1.03158	-0.0233326	1.22181
H	-0.85034	-0.76538	-0.81493
C	-1.83224	0.624082	0.540078
H	-1.54856	1.41122	1.27081
H	-2.49953	1.06681	-0.227536
H	-2.40116	-0.161814	1.08325
N	-0.311885	1.58144	-1.94688
C	0.382284	2.58487	-2.71982
H	-1.21023	1.28954	-2.25809
H	-0.227911	2.89873	-3.59525
H	1.35445	2.18958	-3.09386
H	0.592	3.48487	-2.09758
C	533.397	-2.36801	0.871701
C	532.924	-0.969125	0.769687
O	533.524	-0.0562958	1.32059
H	534.308	-2.40207	1.50756
H	533.647	-2.76192	-0.135841
H	532.613	-3.00452	1.33318
N	531.817	-0.768051	0.0514818
C	531.211	0.531279	-0.103047
C	529.721	0.336961	-0.314244
O	529.252	-0.785014	-0.494491
H	531.317	-1.5264	-0.356946
H	531.336	1.09488	0.8131
C	531.833	1.2911	-1.29545
H	531.695	0.71825	-2.23727
H	531.384	2.29862	-1.41636
H	532.924	1.41485	-1.12315
N	528.938	1.43311	-0.288189
C	527.508	1.34502	-0.474131
H	529.336	2.33199	-0.136926
H	527.042	2.35317	-0.418547
H	527.049	0.702379	0.31151
H	527.268	0.901339	-1.46731
