44
  This energy is 0 and Call times are: 10672
C	3.43954	0.525851	-0.0756312
C	2.24229	-0.198876	0.406543
O	2.34498	-1.24402	1.03388
H	4.35208	-0.0404601	0.211499
H	3.48507	1.53656	0.381686
H	3.40925	0.621759	-1.18151
N	1.05999	0.349344	0.1167
C	-0.194212	-0.261115	0.481222
C	-1.23925	0.163022	-0.533449
O	-0.990638	1.03055	-1.3685
H	0.991314	1.17893	-0.430059
H	-0.0996859	-1.33789	0.416055
C	-0.619572	0.160016	1.90493
H	-0.726929	1.2638	1.9695
H	-1.57705	-0.314482	2.20262
H	0.163364	-0.153292	2.62964
N	-2.43862	-0.449836	-0.489248
C	-3.49288	-0.11576	-1.41828
H	-2.61958	-1.1523	0.191095
H	-4.4001	-0.728137	-1.22038
H	-3.16602	-0.302301	-2.46692
H	-3.76925	0.959778	-1.32897
C	430.237	1.90644	0.918962
C	430.901	0.908207	0.050785
O	430.26	0.234937	-0.744503
H	429.143	1.89463	0.721946
H	430.63	2.92235	0.703915
H	430.412	1.66106	1.98766
N	432.224	0.787867	0.188818
C	433.002	-0.170338	-0.555385
C	434.214	-0.544244	0.277643
O	434.482	0.0685802	1.30918
H	432.726	1.31389	0.869394
H	432.419	-1.07119	-0.698321
C	433.44	0.412886	-1.91673
H	434.048	1.33121	-1.77031
H	434.029	-0.320359	-2.50515
H	432.538	0.686733	-2.50604
N	434.974	-1.57207	-0.149697
C	436.143	-2.00276	0.580796
H	434.738	-2.05836	-0.984604
H	436.632	-2.86099	0.0694882
H	435.866	-2.32054	1.61228
H	436.883	-1.17421	0.661487
