44
  This energy is 0 and Call times are: 6864
C	0.220085	2.21742	-2.67344
C	0.74147	1.63674	-1.41563
O	1.87476	1.88324	-1.02666
H	1.00929	2.84331	-3.14387
H	-0.665275	2.85355	-2.46315
H	-0.0652419	1.4087	-3.37888
N	-0.0887246	0.836766	-0.742422
C	0.290659	0.164598	0.475288
C	-0.512967	-1.11808	0.577617
O	-1.43499	-1.34755	-0.202724
H	-0.993756	0.613054	-1.09276
H	1.33581	-0.113165	0.419284
C	0.0343582	1.06368	1.7046
H	-1.03963	1.34027	1.76844
H	0.335401	0.562581	2.64736
H	0.62616	1.99968	1.6045
N	-0.173536	-1.99314	1.54462
C	-0.878059	-3.24249	1.71475
H	0.578133	-1.79164	2.16386
H	-0.450417	-3.82295	2.56176
H	-0.805312	-3.8632	0.792412
H	-1.957	-3.06	1.92384
C	159.505	2.98282	0.990349
C	160.471	2.21907	0.168723
O	161.059	2.74274	-0.767643
H	159.427	4.01963	0.596852
H	159.848	3.02366	2.04543
H	158.503	2.50554	0.945999
N	160.657	0.940821	0.50624
C	161.532	0.0593329	-0.225386
C	161.008	-1.35671	-0.0785657
O	160.098	-1.61299	0.70735
H	160.141	0.517627	1.24535
H	161.493	0.310174	-1.27809
C	162.98	0.15788	0.301649
H	163.023	-0.10957	1.37903
H	163.667	-0.505964	-0.262846
H	163.341	1.20408	0.191716
N	161.569	-2.31365	-0.843763
C	161.131	-3.68851	-0.776329
H	162.301	-2.08612	-1.47678
H	161.714	-4.32159	-1.48138
H	160.052	-3.7708	-1.04112
H	161.266	-4.09388	0.252567
