44
  This energy is 0 and Call times are: 6528
C	0.0687548	-1.23687	-3.2524
C	-0.220543	-1.38371	-1.80814
O	-0.860146	-2.33646	-1.38437
H	-0.391699	-2.08313	-3.80712
H	1.16532	-1.24758	-3.42608
H	-0.356263	-0.284142	-3.63289
N	0.250883	-0.424623	-1.00796
C	0.0135452	-0.40732	0.413982
C	0.0255086	1.03703	0.877958
O	0.375894	1.93922	0.119671
H	0.734606	0.365903	-1.37258
H	-0.974016	-0.802897	0.616154
C	1.08838	-1.22548	1.1627
H	2.10077	-0.813605	0.964041
H	0.908741	-1.23133	2.25733
H	1.06689	-2.27692	0.80162
N	-0.368129	1.29116	2.14148
C	-0.394759	2.63549	2.66898
H	-0.652034	0.54836	2.73873
H	-0.747218	2.63706	3.72397
H	-1.07905	3.27902	2.0699
H	0.621878	3.09006	2.63807
C	138.789	-0.302776	-2.97015
C	137.832	0.407505	-2.09133
O	137.456	1.54209	-2.3514
H	139.072	0.360396	-3.81605
H	138.322	-1.22465	-3.37696
H	139.704	-0.571579	-2.40163
N	137.413	-0.256082	-1.01129
C	136.516	0.319486	-0.0403519
C	136.797	-0.325665	1.30373
O	137.549	-1.29434	1.39257
H	137.76	-1.16341	-0.791268
H	136.728	1.37682	0.0588649
C	135.044	0.0981251	-0.45026
H	134.823	-0.98678	-0.541918
H	134.344	0.548888	0.28237
H	134.863	0.571551	-1.44001
N	136.201	0.205992	2.38915
C	136.413	-0.337664	3.71037
H	135.599	0.992357	2.29774
H	135.837	0.236769	4.4691
H	137.493	-0.295585	3.98383
H	136.087	-1.40204	3.75443
