44
  This energy is 0 and Call times are: 12352
C	2.88513	1.55172	-1.1751
C	1.60225	1.57308	-0.436932
O	1.29272	2.52448	0.266931
H	3.45099	2.48301	-0.955143
H	2.697	1.49513	-2.26787
H	3.49385	0.678317	-0.859305
N	0.815849	0.504099	-0.582679
C	-0.442769	0.360897	0.105751
C	-0.707704	-1.11967	0.303924
O	0.00244218	-1.96458	-0.237864
H	1.09989	-0.280358	-1.12657
H	-0.365436	0.809118	1.08848
C	-1.58874	1.01316	-0.698329
H	-1.67532	0.546497	-1.7027
H	-2.56094	0.921696	-0.172035
H	-1.36988	2.09432	-0.838124
N	-1.73883	-1.46959	1.09788
C	-2.06327	-2.85442	1.34918
H	-2.29954	-0.77155	1.5308
H	-2.94214	-2.93585	2.02608
H	-1.20378	-3.3789	1.82613
H	-2.3037	-3.3808	0.397202
C	551.083	1.21203	2.63998
C	551.23	0.458375	1.37442
O	550.326	-0.247975	0.949925
H	550.085	1.00015	3.08002
H	551.167	2.30236	2.44805
H	551.867	0.902516	3.36274
N	552.394	0.593184	0.734901
C	552.701	-0.110651	-0.485394
C	554.203	-0.313932	-0.549469
O	554.948	0.235344	0.259881
H	553.135	1.13947	1.1139
H	552.243	-1.09178	-0.456476
C	552.208	0.680298	-1.71713
H	552.685	1.68295	-1.75303
H	552.426	0.142126	-2.66233
H	551.108	0.824127	-1.64512
N	554.684	-1.12079	-1.51565
C	556.099	-1.3778	-1.65076
H	554.065	-1.55958	-2.15873
H	556.294	-2.06542	-2.503
H	556.503	-1.84496	-0.723765
H	556.655	-0.429484	-1.83061
