44
  This energy is 0 and Call times are: 5240
C	2.82969	0.101448	2.02367
C	1.73904	0.764723	1.27421
O	1.51226	1.95899	1.41096
H	3.32906	0.845868	2.6812
H	3.57948	-0.31586	1.3191
H	2.41929	-0.716019	2.65328
N	1.02656	-0.0102251	0.453109
C	-0.0930612	0.482413	-0.309986
C	-1.05544	-0.668632	-0.534666
O	-0.741209	-1.81949	-0.237167
H	1.19685	-0.988999	0.383332
H	-0.6172	1.23285	0.268594
C	0.374663	1.06857	-1.66013
H	0.903212	0.296186	-2.25855
H	-0.476853	1.46383	-2.25108
H	1.08396	1.90385	-1.47159
N	-2.26214	-0.381068	-1.06116
C	-3.24511	-1.41078	-1.30541
H	-2.49966	0.55678	-1.2916
H	-4.17135	-0.974976	-1.74058
H	-3.51407	-1.92993	-0.357037
H	-2.84855	-2.17227	-2.01535
C	42.2223	0.15662	2.09113
C	43.4024	-0.548747	1.54252
O	43.8127	-1.58418	2.04844
H	41.8457	-0.394311	2.98019
H	41.4161	0.203467	1.32919
H	42.5008	1.18679	2.39815
N	43.9848	0.00805792	0.477978
C	45.1669	-0.538404	-0.140534
C	45.9379	0.602435	-0.777397
O	45.4483	1.72764	-0.854644
H	43.6639	0.872879	0.102467
H	45.802	-0.970606	0.622604
C	44.7951	-1.59874	-1.20013
H	44.1522	-1.15325	-1.98891
H	45.6974	-2.03703	-1.67382
H	44.2249	-2.41982	-0.713335
N	47.1742	0.337997	-1.24379
C	47.9845	1.36224	-1.86072
H	47.5548	-0.577727	-1.16856
H	48.967	0.948455	-2.17804
H	48.17	2.19849	-1.14829
H	47.4735	1.78021	-2.75813
