44
  This energy is 0 and Call times are: 5352
C	2.75974	-1.78589	1.14329
C	1.9042	-1.26646	0.052699
O	2.26503	-1.31983	-1.11493
H	3.70801	-2.17479	0.712679
H	2.24191	-2.61103	1.67595
H	2.998	-0.974034	1.86247
N	0.732012	-0.74136	0.416872
C	-0.188822	-0.157432	-0.526342
C	-0.989817	0.910775	0.194003
O	-0.914969	1.03822	1.41461
H	0.470135	-0.667865	1.37494
H	0.369594	0.333904	-1.31336
C	-1.12773	-1.23154	-1.11794
H	-1.70854	-1.72862	-0.311961
H	-1.83245	-0.7967	-1.85605
H	-0.519733	-2.00686	-1.63327
N	-1.77398	1.71377	-0.551862
C	-2.56816	2.7618	0.0456985
H	-1.81821	1.5979	-1.53862
H	-3.14328	3.31128	-0.73182
H	-1.91764	3.49082	0.581083
H	-3.28937	2.33758	0.781248
C	52.8067	1.3238	-3.21294
C	52.1788	0.840503	-1.96262
O	50.9893	1.02068	-1.74093
H	52.0434	1.84701	-3.82889
H	53.212	0.468315	-3.79318
H	53.628	2.03371	-2.97912
N	52.9797	0.206821	-1.10275
C	52.5232	-0.282463	0.174272
C	53.7004	-0.276943	1.13118
O	54.8399	-0.054483	0.726507
H	53.9545	0.103885	-1.27892
H	51.7805	0.397521	0.572618
C	51.9389	-1.70604	0.0428209
H	52.7037	-2.40626	-0.355891
H	51.5713	-2.08854	1.01701
H	51.0841	-1.68772	-0.668026
N	53.4488	-0.515179	2.43346
C	54.5054	-0.524497	3.41813
H	52.5196	-0.689028	2.74244
H	54.0976	-0.738434	4.43062
H	55.0217	0.462286	3.4496
H	55.2637	-1.3032	3.17362
