44
  This energy is 0 and Call times are: 5912
C	1.04952	-1.83061	2.76768
C	0.153827	-1.61942	1.60825
O	-0.603645	-2.50014	1.22487
H	0.909206	-2.86239	3.15706
H	0.808895	-1.10635	3.57409
H	2.10912	-1.70331	2.46087
N	0.224206	-0.426204	1.01357
C	-0.553819	-0.0875111	-0.151989
C	0.217737	0.945076	-0.952002
O	1.23066	1.46929	-0.492773
H	0.875095	0.266069	1.31184
H	-0.661504	-0.965219	-0.777021
C	-1.93913	0.463946	0.250566
H	-1.82931	1.37053	0.883088
H	-2.55303	0.715465	-0.638468
H	-2.48268	-0.305162	0.841642
N	-0.242474	1.25641	-2.17972
C	0.429186	2.22385	-3.01586
H	-1.06142	0.818601	-2.5357
H	-0.101886	2.34109	-3.98614
H	1.47528	1.90285	-3.22545
H	0.467032	3.2179	-2.51429
C	94.8642	-1.4382	2.56304
C	94.6265	-1.14244	1.13223
O	95.4858	-1.36104	0.289447
H	95.8927	-1.84091	2.68893
H	94.1355	-2.19433	2.92369
H	94.7646	-0.511697	3.16698
N	93.4343	-0.627451	0.822754
C	93.0723	-0.248161	-0.52025
C	92.059	0.877792	-0.436878
O	91.5631	1.20025	0.641001
H	92.7604	-0.417034	1.52517
H	93.9454	0.1407	-1.02924
C	92.4849	-1.44919	-1.29335
H	91.583	-1.84187	-0.77721
H	92.215	-1.17336	-2.33336
H	93.2405	-2.26386	-1.33503
N	91.7327	1.51133	-1.58064
C	90.7818	2.59833	-1.59787
H	92.1477	1.23882	-2.44241
H	90.6482	2.98765	-2.63123
H	91.1302	3.43533	-0.950328
H	89.7902	2.25913	-1.21987
