44
  This energy is 0 and Call times are: 6724
C	-0.618026	3.38641	0.512819
C	-0.248226	2.24604	-0.355485
O	-0.191793	2.36845	-1.57131
H	-0.828965	4.27616	-0.119419
H	0.216319	3.62687	1.20476
H	-1.52687	3.14022	1.10145
N	0.0139641	1.09127	0.261082
C	0.345522	-0.117032	-0.452097
C	-0.106812	-1.29915	0.384285
O	-0.502307	-1.1401	1.53754
H	-0.0760605	0.996608	1.2484
H	-0.210313	-0.147555	-1.38094
C	1.8633	-0.196939	-0.726356
H	2.43353	-0.176292	0.226769
H	2.12947	-1.11626	-1.28718
H	2.17341	0.681887	-1.33285
N	-0.0664243	-2.5199	-0.185078
C	-0.482404	-3.7026	0.53211
H	0.252794	-2.62803	-1.12075
H	-0.375355	-4.60741	-0.105917
H	-1.54856	-3.61801	0.84425
H	0.135353	-3.8443	1.44832
C	147.719	0.399919	-1.09074
C	148.834	-0.43676	-0.592662
O	148.647	-1.58929	-0.22802
H	146.774	-0.183237	-1.04567
H	147.907	0.700056	-2.14316
H	147.612	1.30823	-0.461106
N	150.04	0.136542	-0.564046
C	151.213	-0.536613	-0.0651086
C	152.163	0.511943	0.481833
O	151.949	1.70961	0.304285
H	150.169	1.08875	-0.825591
H	150.932	-1.17933	0.759973
C	151.896	-1.35614	-1.18203
H	152.193	-0.695602	-2.02414
H	152.792	-1.89034	-0.806997
H	151.179	-2.11168	-1.57283
N	153.238	0.0825384	1.17191
C	154.194	1.00758	1.73435
H	153.392	-0.890437	1.30864
H	155.005	0.46113	2.26421
H	153.699	1.69077	2.46169
H	154.655	1.63082	0.934427
