44
  This energy is 0 and Call times are: 8432
C	-0.0730502	-3.41346	0.675027
C	-0.581836	-2.03637	0.864498
O	-1.62988	-1.82496	1.4589
H	-0.788148	-4.13466	1.12711
H	0.914199	-3.52817	1.16992
H	0.0280667	-3.63848	-0.40767
N	0.161808	-1.05319	0.351916
C	-0.224471	0.334207	0.418799
C	0.374282	1.05007	-0.777276
O	1.18725	0.485728	-1.50688
H	0.991554	-1.24385	-0.164841
H	-1.30139	0.409673	0.334004
C	0.261661	0.979388	1.7351
H	1.36739	0.911612	1.81763
H	-0.0415931	2.04414	1.80479
H	-0.182488	0.434686	2.59672
N	-0.0233709	2.31615	-1.01167
C	0.488136	3.07441	-2.12952
H	-0.685159	2.75444	-0.412498
H	0.0405456	4.09244	-2.1519
H	0.249548	2.56544	-3.09145
H	1.59505	3.1793	-2.05972
C	274.641	0.0984387	3.06766
C	274.612	0.280295	1.59891
O	275.525	0.844246	1.01263
H	275.568	0.556292	3.47609
H	274.633	-0.982856	3.31962
H	273.761	0.592441	3.53196
N	273.541	-0.200188	0.962588
C	273.35	-0.0609557	-0.459635
C	271.859	-0.037862	-0.736631
O	271.049	-0.292864	0.152739
H	272.786	-0.620401	1.4584
H	273.753	0.890883	-0.782647
C	274.025	-1.22168	-1.22308
H	273.604	-2.19775	-0.899647
H	273.897	-1.11844	-2.3201
H	275.114	-1.22415	-0.999319
N	271.459	0.279051	-1.98403
C	270.06	0.331578	-2.33929
H	272.129	0.486301	-2.68917
H	269.936	0.610123	-3.40901
H	269.525	1.08469	-1.71676
H	269.576	-0.658314	-2.17614
