44
  This energy is 0 and Call times are: 11400
C	1.60917	0.747719	2.99402
C	1.6199	0.506794	1.53355
O	2.60948	0.754432	0.858404
H	2.58765	1.17557	3.30289
H	1.44629	-0.206325	3.53809
H	0.803874	1.46544	3.25757
N	0.498079	0.0117569	1.00549
C	0.342228	-0.234958	-0.406385
C	-1.12829	-0.0938966	-0.751685
O	-1.97434	0.0241949	0.132608
H	-0.312973	-0.146204	1.56147
H	0.878453	0.523582	-0.962901
C	0.853459	-1.6436	-0.780014
H	0.296456	-2.42271	-0.217178
H	0.751636	-1.8404	-1.86695
H	1.92919	-1.72685	-0.511287
N	-1.46716	-0.0945465	-2.05598
C	-2.84131	0.0399627	-2.48002
H	-0.767945	-0.187065	-2.75713
H	-2.91451	0.0168308	-3.58967
H	-3.27084	1.00303	-2.12046
H	-3.46211	-0.789332	-2.07011
C	488.478	0.134307	0.00812137
C	487.166	0.285349	0.677524
O	487.087	0.436053	1.88893
H	489.285	0.16539	0.771397
H	488.635	0.961236	-0.715812
H	488.525	-0.838191	-0.525802
N	486.089	0.245187	-0.11078
C	484.744	0.335003	0.399704
C	483.828	-0.418602	-0.54607
O	484.242	-0.832053	-1.62755
H	486.167	0.0808888	-1.08995
H	484.693	-0.160384	1.36127
C	484.299	1.80853	0.525335
H	484.341	2.31433	-0.462814
H	483.27	1.89142	0.930467
H	484.988	2.34247	1.21567
N	482.555	-0.622852	-0.153447
C	481.613	-1.33454	-0.98489
H	482.24	-0.284292	0.726978
H	480.62	-1.39881	-0.487533
H	481.971	-2.36989	-1.18719
H	481.482	-0.817081	-1.96284
