44
  This energy is 0 and Call times are: 8684
C	2.60512	-1.55023	1.70962
C	2.03972	-0.412709	0.949678
O	2.62803	0.657617	0.881118
H	3.56887	-1.24165	2.1699
H	2.7897	-2.40964	1.03133
H	1.90494	-1.85854	2.51447
N	0.863578	-0.623023	0.353997
C	0.168275	0.401239	-0.384922
C	-1.3194	0.114951	-0.30474
O	-1.7329	-0.939862	0.17285
H	0.377417	-1.48657	0.452956
H	0.338109	1.36049	0.0879622
C	0.635051	0.432819	-1.85678
H	0.451356	-0.547777	-2.34537
H	0.116961	1.22663	-2.43294
H	1.72774	0.635836	-1.89099
N	-2.16351	1.05864	-0.766204
C	-3.59579	0.876597	-0.72595
H	-1.8101	1.90744	-1.14531
H	-4.11693	1.76277	-1.15061
H	-3.94431	0.734223	0.322637
H	-3.89457	-0.0212398	-1.31397
C	293.808	-0.372262	-2.0226
C	292.368	-0.0853767	-1.83125
O	291.687	0.370242	-2.73968
H	294.103	-0.0931421	-3.05724
H	294.006	-1.45431	-1.87178
H	294.414	0.217984	-1.30383
N	291.866	-0.348553	-0.622486
C	290.493	-0.0819228	-0.272116
C	290.43	0.190979	1.21889
O	291.411	0.00246871	1.93576
H	292.442	-0.68076	0.118931
H	290.163	0.816456	-0.778738
C	289.587	-1.2765	-0.642809
H	289.919	-2.19608	-0.115151
H	288.526	-1.0779	-0.390624
H	289.655	-1.46312	-1.73683
N	289.268	0.652684	1.72135
C	289.116	0.945794	3.12745
H	288.487	0.802812	1.12478
H	288.089	1.31459	3.34343
H	289.843	1.72703	3.44676
H	289.297	0.0337572	3.74096
