44
  This energy is 0 and Call times are: 8096
C	-1.87395	-1.15397	-2.69617
C	-1.49905	-1.17766	-1.26438
O	-2.16308	-1.79923	-0.446379
H	-2.80323	-1.74638	-2.84236
H	-1.06371	-1.59875	-3.31134
H	-2.05774	-0.10982	-3.02641
N	-0.408274	-0.486693	-0.925031
C	0.0568289	-0.380295	0.435454
C	0.790619	0.939346	0.582612
O	1.04756	1.63022	-0.401453
H	0.0984411	0.0477293	-1.59548
H	-0.795278	-0.351758	1.10308
C	0.986803	-1.55993	0.794411
H	1.86653	-1.58337	0.116492
H	1.34056	-1.49683	1.84389
H	0.431515	-2.51545	0.671958
N	1.13947	1.32558	1.82565
C	1.83555	2.56858	2.06355
H	0.919228	0.75501	2.60988
H	2.03289	2.70721	3.1494
H	1.23073	3.43248	1.70418
H	2.81081	2.5822	1.5252
C	250.644	-2.31224	2.01615
C	250.569	-1.45218	0.813697
O	251.55	-1.26554	0.107095
H	251.682	-2.69294	2.13157
H	249.954	-3.17585	1.91237
H	250.372	-1.72902	2.92122
N	249.382	-0.898565	0.552735
C	249.165	-0.00411443	-0.556912
C	248.041	0.945261	-0.186167
O	247.377	0.76735	0.833048
H	248.604	-1.02699	1.16005
H	250.054	0.593895	-0.713079
C	248.809	-0.790299	-1.83777
H	247.891	-1.39582	-1.68142
H	248.653	-0.113487	-2.70268
H	249.642	-1.48422	-2.08564
N	247.807	1.98799	-1.00711
C	246.762	2.94652	-0.732506
H	248.358	2.11756	-1.82499
H	246.728	3.72842	-1.52289
H	246.936	3.44655	0.247893
H	245.769	2.44422	-0.692894
