44
  This energy is 0 and Call times are: 8236
C	-3.29716	-0.821602	-0.752597
C	-2.20437	0.163356	-0.588849
O	-2.33155	1.31899	-0.969292
H	-4.1576	-0.334461	-1.26075
H	-3.6292	-1.19329	0.239539
H	-2.95194	-1.67693	-1.37093
N	-1.08624	-0.281449	-0.010657
C	0.078221	0.547375	0.178146
C	1.30274	-0.348176	0.168867
O	1.18788	-1.57224	0.18211
H	-0.982767	-1.23526	0.256573
H	0.170842	1.22912	-0.658081
C	-0.0107224	1.32926	1.50705
H	-0.0951428	0.630054	2.36612
H	0.873705	1.98173	1.65738
H	-0.918175	1.97171	1.49483
N	2.51181	0.246121	0.137158
C	3.73294	-0.52507	0.120639
H	2.5844	1.23788	0.122683
H	4.62067	0.144618	0.0943748
H	3.76706	-1.1875	-0.77451
H	3.80461	-1.16717	1.02822
C	258.215	1.73142	-2.91528
C	259.184	1.06475	-2.01624
O	260.326	0.824405	-2.38282
H	258.699	1.92571	-3.89716
H	257.889	2.69839	-2.47746
H	257.329	1.08062	-3.07355
N	258.74	0.744252	-0.798576
C	259.552	0.0536789	0.171895
C	258.633	-0.749477	1.07259
O	257.413	-0.609651	1.01266
H	257.796	0.909452	-0.52898
H	260.199	-0.649377	-0.338657
C	260.388	1.0522	1.00286
H	259.725	1.76711	1.5352
H	261.028	0.531788	1.74439
H	261.047	1.63434	0.322649
N	259.201	-1.62163	1.92829
C	258.406	-2.43304	2.82003
H	260.19	-1.7237	1.95932
H	259.056	-3.08547	3.44341
H	257.708	-3.08232	2.2431
H	257.799	-1.79146	3.49894
