44
  This energy is 0 and Call times are: 12212
C	1.84453	1.11727	2.73168
C	1.14911	1.34976	1.4458
O	0.933697	2.48296	1.03852
H	2.08347	2.09575	3.20218
H	2.78974	0.560515	2.56039
H	1.19356	0.537281	3.41939
N	0.774625	0.261925	0.768499
C	0.0510601	0.327986	-0.476752
C	-0.796425	-0.924426	-0.598355
O	-0.664342	-1.85379	0.195724
H	0.920648	-0.653462	1.13266
H	-0.624791	1.17373	-0.452762
C	1.02107	0.443655	-1.67297
H	1.70771	-0.42903	-1.70418
H	0.475601	0.509264	-2.63666
H	1.63642	1.36272	-1.55895
N	-1.69866	-0.974244	-1.59811
C	-2.55299	-2.12314	-1.78875
H	-1.79374	-0.210641	-2.22815
H	-3.22536	-1.97265	-2.66196
H	-3.18349	-2.29773	-0.886938
H	-1.94524	-3.03951	-1.96776
C	545.357	2.20948	1.29381
C	544.959	0.874119	0.7946
O	545.794	0.012154	0.557002
H	546.465	2.25513	1.37665
H	544.914	2.39145	2.29545
H	545.017	2.99827	0.590326
N	543.651	0.671914	0.619807
C	543.114	-0.560857	0.0996919
C	541.814	-0.245881	-0.615543
O	541.307	0.871473	-0.537441
H	542.987	1.39681	0.778615
H	543.797	-0.965612	-0.6365
C	542.874	-1.58056	1.23462
H	542.165	-1.16993	1.98473
H	542.474	-2.53898	0.845221
H	543.838	-1.79005	1.7491
N	541.245	-1.22888	-1.34117
C	540.01	-1.01995	-2.06044
H	541.673	-2.12521	-1.39566
H	539.705	-1.94607	-2.59582
H	540.125	-0.203692	-2.80992
H	539.192	-0.733487	-1.36109
