44
  This energy is 0 and Call times are: 11288
C	1.5983	3.07814	0.288425
C	1.61201	1.59796	0.283965
O	2.66433	0.974762	0.258063
H	2.64329	3.45524	0.24758
H	1.11674	3.4536	1.21571
H	1.04424	3.45837	-0.595619
N	0.421909	0.993393	0.307249
C	0.27319	-0.43996	0.263204
C	-1.059	-0.757418	-0.389527
O	-1.8723	0.133636	-0.626739
H	-0.426659	1.51434	0.286822
H	1.04854	-0.860413	-0.365035
C	0.338626	-1.04527	1.68255
H	-0.463189	-0.622065	2.32445
H	0.239218	-2.14988	1.66081
H	1.31852	-0.793782	2.14397
N	-1.31032	-2.04338	-0.704434
C	-2.5489	-2.43949	-1.33308
H	-0.638176	-2.74969	-0.508401
H	-2.56573	-3.53723	-1.51176
H	-2.67514	-1.92307	-2.31219
H	-3.41864	-2.17553	-0.688879
C	476.262	-2.67967	2.09475
C	477.094	-1.51711	1.70947
O	477.946	-1.07034	2.46471
H	476.542	-3.00755	3.11956
H	476.431	-3.52086	1.38988
H	475.188	-2.40076	2.08729
N	476.858	-0.992036	0.504871
C	477.556	0.167206	0.00797521
C	476.64	0.892928	-0.959163
O	475.581	0.385672	-1.32472
H	476.133	-1.34119	-0.0818727
H	477.758	0.842626	0.830124
C	478.871	-0.239297	-0.693194
H	478.664	-0.92387	-1.54327
H	479.425	0.645696	-1.06806
H	479.522	-0.775633	0.0308719
N	477.025	2.10971	-1.39179
C	476.215	2.87706	-2.30905
H	477.883	2.50533	-1.08157
H	476.702	3.84914	-2.54471
H	475.213	3.08442	-1.86904
H	476.065	2.31965	-3.26193
