44
  This energy is 0 and Call times are: 11652
C	-0.640329	3.00745	1.63031
C	0.0523531	2.20824	0.594646
O	0.69366	2.74701	-0.296905
H	-0.481009	4.0888	1.42736
H	-0.233769	2.76666	2.63503
H	-1.73015	2.79517	1.61217
N	-0.0661325	0.881927	0.690704
C	0.515288	-0.0254039	-0.267034
C	-0.335531	-1.28084	-0.306173
O	-1.23099	-1.46069	0.516947
H	-0.625367	0.45953	1.39831
H	0.475831	0.42185	-1.25245
C	1.97191	-0.370099	0.113324
H	2.01182	-0.838601	1.11978
H	2.43524	-1.05722	-0.624052
H	2.57417	0.564092	0.143681
N	-0.0787637	-2.1802	-1.27636
C	-0.840296	-3.40169	-1.39553
H	0.647209	-2.01509	-1.93573
H	-0.478299	-4.00859	-2.25452
H	-1.9199	-3.1775	-1.55508
H	-0.748089	-4.01428	-0.469581
C	505.891	-0.99	1.6665
C	504.516	-1.24273	1.17915
O	504.03	-2.36512	1.20834
H	506.341	-1.94707	2.00913
H	505.87	-0.27752	2.51778
H	506.515	-0.571372	0.849469
N	503.849	-0.185656	0.710163
C	502.519	-0.281879	0.16233
C	502.349	0.822668	-0.863656
O	503.197	1.70433	-0.986248
H	504.272	0.714063	0.654984
H	502.414	-1.22524	-0.359035
C	501.454	-0.156936	1.27395
H	501.554	0.815199	1.80219
H	500.426	-0.243322	0.866606
H	501.602	-0.970254	2.01746
N	501.244	0.7948	-1.63521
C	501	1.80107	-2.64216
H	500.571	0.0710134	-1.52401
H	500.041	1.60442	-3.17016
H	501.82	1.80918	-3.39635
H	500.945	2.81364	-2.1808
