44
  This energy is 0 and Call times are: 6948
C	0.760363	-3.1709	-1.21653
C	0.206274	-2.27106	-0.179986
O	-0.451336	-2.70998	0.753455
H	0.461265	-4.21782	-0.992085
H	1.86883	-3.10784	-1.22526
H	0.366525	-2.89115	-2.2164
N	0.462783	-0.96901	-0.325715
C	-0.0448414	0.0328409	0.57826
C	-0.199546	1.33044	-0.192367
O	0.241884	1.44104	-1.33457
H	0.964904	-0.622684	-1.11299
H	-1.03034	-0.259605	0.918692
C	0.907513	0.226199	1.77862
H	1.91579	0.53646	1.43056
H	0.520762	0.985268	2.48909
H	1.01211	-0.737631	2.32309
N	-0.842386	2.34639	0.416421
C	-1.04182	3.61685	-0.241105
H	-1.19612	2.23648	1.33938
H	-1.59065	4.3211	0.422249
H	-1.63107	3.48622	-1.17759
H	-0.063996	4.07804	-0.509985
C	168.908	-0.0274222	-2.91038
C	168.771	0.113475	-1.44324
O	169.754	0.14103	-0.715325
H	169.985	-0.112965	-3.17199
H	168.484	0.862079	-3.42161
H	168.38	-0.940361	-3.25816
N	167.526	0.204978	-0.969695
C	167.232	0.303101	0.438171
C	165.863	-0.305262	0.678405
O	165.14	-0.622766	-0.264516
H	166.735	0.139835	-1.57088
H	167.949	-0.286587	0.99523
C	167.26	1.77453	0.90651
H	166.517	2.37773	0.342663
H	167.048	1.86217	1.99186
H	168.268	2.20163	0.713821
N	165.476	-0.490396	1.95605
C	164.193	-1.06776	2.28146
H	166.076	-0.230957	2.70553
H	164.061	-1.13759	3.38374
H	164.103	-2.0919	1.85216
H	163.366	-0.446105	1.86803
