44
  This energy is 0 and Call times are: 11092
C	0.505751	0.235114	3.43535
C	-0.208409	0.611119	2.19449
O	-1.2492	1.25275	2.23282
H	-0.0634708	0.608496	4.31424
H	1.51971	0.687362	3.44535
H	0.593224	-0.869576	3.50677
N	0.34423	0.210522	1.0471
C	-0.25626	0.463341	-0.238997
C	0.165886	-0.645598	-1.1843
O	1.02547	-1.46069	-0.854973
H	1.16991	-0.346206	1.03391
H	-1.33403	0.414867	-0.145757
C	0.178335	1.83916	-0.789898
H	1.28318	1.88567	-0.895689
H	-0.288401	2.05155	-1.77355
H	-0.133757	2.63461	-0.0784143
N	-0.439804	-0.706724	-2.38656
C	-0.106996	-1.73058	-3.34944
H	-1.13592	-0.0406988	-2.63335
H	-0.712666	-1.61196	-4.27482
H	-0.303537	-2.7436	-2.92939
H	0.970752	-1.67466	-3.62598
C	464.959	0.300643	2.86074
C	463.773	-0.217241	2.1418
O	463.062	-1.08176	2.63464
H	465.059	-0.228018	3.8336
H	464.846	1.38828	3.05273
H	465.877	0.125338	2.26093
N	463.533	0.308144	0.938269
C	462.442	-0.124665	0.101228
C	462.839	0.096148	-1.34606
O	463.861	0.718604	-1.63056
H	464.144	0.98173	0.533053
H	462.289	-1.18832	0.235087
C	461.15	0.653954	0.432579
H	461.303	1.74433	0.285276
H	460.299	0.320079	-0.195816
H	460.882	0.484175	1.49834
N	462.04	-0.420175	-2.3
C	462.341	-0.265152	-3.7041
H	461.22	-0.924298	-2.05009
H	461.565	-0.75965	-4.32955
H	463.329	-0.719684	-3.94649
H	462.38	0.813246	-3.98103
