44
  This energy is 0 and Call times are: 5716
C	-3.17242	1.23563	0.72225
C	-2.09109	0.239771	0.895838
O	-2.13343	-0.590689	1.79303
H	-3.93794	1.0885	1.51485
H	-3.65375	1.10884	-0.270217
H	-2.76231	2.26422	0.80525
N	-1.0798	0.304257	0.0266429
C	0.0649713	-0.569522	0.0943288
C	1.25559	0.164424	-0.493298
O	1.11005	1.24036	-1.07026
H	-1.03955	1.01188	-0.673009
H	0.294482	-0.777874	1.1319
C	-0.196425	-1.88198	-0.67662
H	-0.421564	-1.66947	-1.74348
H	0.672604	-2.56911	-0.620329
H	-1.07651	-2.39818	-0.234644
N	2.47068	-0.400817	-0.351608
C	3.66205	0.227323	-0.873402
H	2.56889	-1.26982	0.121961
H	4.56035	-0.391535	-0.655941
H	3.80929	1.23204	-0.414985
H	3.58568	0.359225	-1.97699
C	76.5931	1.60463	1.9351
C	77.4413	0.43395	1.61706
O	77.5429	-0.50427	2.39541
H	76.1349	1.46451	2.93823
H	75.7841	1.70704	1.1816
H	77.2067	2.53004	1.94641
N	78.0815	0.465615	0.445951
C	78.9762	-0.580202	0.0165806
C	80.014	0.0336109	-0.904187
O	79.9006	1.19327	-1.29664
H	78.0211	1.25465	-0.158729
H	79.5019	-0.976061	0.876595
C	78.204	-1.70302	-0.71016
H	77.6731	-1.29939	-1.59858
H	78.88	-2.5209	-1.03352
H	77.4449	-2.1322	-0.0203245
N	81.0614	-0.733561	-1.26532
C	82.101	-0.232987	-2.13409
H	81.1379	-1.66823	-0.934247
H	82.8734	-1.01316	-2.31322
H	82.5984	0.654806	-1.68045
H	81.6774	0.0737065	-3.11778
