44
  This energy is 0 and Call times are: 9916
C	2.83578	0.646178	1.91141
C	2.16597	0.04929	0.734029
O	2.81289	-0.40372	-0.200153
H	3.93712	0.612104	1.7639
H	2.57819	0.0755877	2.82837
H	2.52227	1.70432	2.03445
N	0.8311	0.0380325	0.753037
C	0.0388489	-0.470103	-0.339069
C	-1.28752	0.266284	-0.34389
O	-1.59799	1.01062	0.584169
H	0.318066	0.447521	1.50202
H	0.535429	-0.24634	-1.275
C	-0.186847	-1.99122	-0.195892
H	-0.705695	-2.22038	0.759263
H	-0.783944	-2.39691	-1.03816
H	0.797124	-2.50897	-0.186678
N	-2.102	0.0805168	-1.40132
C	-3.38161	0.743756	-1.49554
H	-1.83155	-0.522463	-2.14452
H	-3.90172	0.462855	-2.43777
H	-3.25236	1.85029	-1.48304
H	-4.03413	0.462696	-0.637418
C	375.816	-0.396853	1.34814
C	377.106	-0.942944	0.869365
O	377.414	-2.10947	1.07176
H	375.259	-1.19173	1.89042
H	375.204	-0.0518773	0.48852
H	375.994	0.45334	2.04002
N	377.903	-0.0953286	0.214311
C	379.207	-0.468656	-0.274032
C	380.076	0.774201	-0.298147
O	379.592	1.88594	-0.0958119
H	377.656	0.86198	0.0931233
H	379.661	-1.16679	0.418016
C	379.111	-1.08969	-1.68482
H	378.654	-0.370028	-2.39753
H	380.107	-1.39403	-2.06621
H	378.463	-1.99285	-1.64487
N	381.392	0.612052	-0.53974
C	382.298	1.73636	-0.576467
H	381.766	-0.295849	-0.697044
H	383.336	1.39812	-0.788782
H	382.297	2.27353	0.399614
H	381.996	2.4591	-1.36852
