44
  This energy is 0 and Call times are: 6332
C	-2.13015	0.715487	2.65767
C	-1.87977	0.223519	1.2842
O	-2.74933	-0.36102	0.652864
H	-3.1654	0.446923	2.96099
H	-2.01982	1.81966	2.69473
H	-1.41517	0.248734	3.36763
N	-0.66288	0.451712	0.78472
C	-0.256616	-0.00458065	-0.521154
C	1.2434	-0.230349	-0.497785
O	1.91934	0.128306	0.464599
H	0.0473188	0.892657	1.32606
H	-0.723411	-0.959754	-0.72701
C	-0.632067	1.027	-1.60749
H	-0.144974	2.00412	-1.40251
H	-0.336867	0.68094	-2.61923
H	-1.73304	1.18244	-1.60112
N	1.80024	-0.842419	-1.56142
C	3.21918	-1.1045	-1.62545
H	1.23629	-1.129	-2.32883
H	3.48224	-1.6148	-2.57814
H	3.53679	-1.75622	-0.779483
H	3.79751	-0.154222	-1.56516
C	123.456	1.47452	3.11945
C	122.996	0.361112	2.25882
O	122.673	-0.717186	2.73755
H	123.459	1.14149	4.18008
H	122.772	2.3436	3.01796
H	124.485	1.77879	2.83486
N	122.96	0.601951	0.946182
C	122.576	-0.396509	-0.0204654
C	123.284	-0.0875338	-1.32611
O	123.903	0.964579	-1.47322
H	123.265	1.47128	0.568063
H	122.922	-1.36726	0.312177
C	121.045	-0.407595	-0.224174
H	120.691	0.58503	-0.575545
H	120.736	-1.18169	-0.956019
H	120.547	-0.627752	0.745462
N	123.216	-1.00832	-2.30768
C	123.863	-0.803695	-3.58255
H	122.713	-1.85538	-2.1684
H	123.691	-1.67296	-4.2549
H	124.962	-0.6757	-3.44914
H	123.467	0.109972	-4.08221
