44
  This energy is 0 and Call times are: 8824
C	2.1878	2.37528	-1.2978
C	1.11855	1.96243	-0.361097
O	0.784193	2.67809	0.572949
H	2.58845	3.364	-0.985098
H	1.78211	2.46134	-2.32773
H	3.01371	1.63309	-1.28688
N	0.551108	0.77656	-0.593695
C	-0.472611	0.220687	0.255753
C	-0.384386	-1.29169	0.175149
O	0.346366	-1.83684	-0.64979
H	0.862254	0.187221	-1.33379
H	-0.275543	0.501006	1.28299
C	-1.8732	0.705301	-0.178699
H	-2.08009	0.408799	-1.22909
H	-2.669	0.295154	0.476283
H	-1.9123	1.81495	-0.119519
N	-1.12627	-2.00841	1.0423
C	-1.10262	-3.45257	1.0436
H	-1.70835	-1.54928	1.70521
H	-1.77858	-3.85625	1.82931
H	-0.072457	-3.82836	1.24065
H	-1.43304	-3.85197	0.0574718
C	301.897	3.12341	-1.24603
C	301.026	2.24632	-0.431326
O	300.21	2.71442	0.349929
H	301.68	4.18592	-1.00134
H	301.704	2.95688	-2.32669
H	302.965	2.91454	-1.0248
N	301.186	0.931368	-0.597538
C	300.442	-0.04728	0.155537
C	301.291	-1.29887	0.273627
O	302.337	-1.41321	-0.363695
H	301.884	0.565229	-1.20713
H	300.275	0.325158	1.15857
C	299.098	-0.368132	-0.533603
H	299.269	-0.760184	-1.55883
H	298.509	-1.11025	0.0438832
H	298.496	0.563396	-0.616479
N	300.863	-2.26925	1.10465
C	301.608	-3.49331	1.28545
H	300.017	-2.15671	1.61497
H	301.093	-4.16414	2.00792
H	302.629	-3.27755	1.67442
H	301.714	-4.03527	0.317921
