44
  This energy is 0 and Call times are: 7284
C	0.306267	1.45053	-3.14878
C	0.858306	1.07502	-1.82765
O	2.05655	1.1575	-1.59568
H	1.1359	1.77049	-3.81603
H	-0.411062	2.29084	-3.039
H	-0.210111	0.581689	-3.60874
N	-0.0193462	0.644597	-0.918346
C	0.37219	0.203142	0.397092
C	-0.640084	-0.821824	0.872801
O	-1.67695	-1.02221	0.243137
H	-0.986148	0.544157	-1.13531
H	1.33155	-0.295357	0.335767
C	0.441628	1.39227	1.38014
H	-0.545098	1.89757	1.45143
H	0.755528	1.06728	2.39324
H	1.18245	2.13327	1.00805
N	-0.356261	-1.50478	1.99932
C	-1.25742	-2.50365	2.52503
H	0.489683	-1.33157	2.49272
H	-0.846765	-2.95275	3.4561
H	-1.41587	-3.31929	1.78281
H	-2.24899	-2.05358	2.76034
C	188.877	-0.81128	-2.63616
C	190.227	-0.579105	-2.07351
O	191.234	-0.879725	-2.69939
H	188.973	-1.28599	-3.6368
H	188.338	0.152672	-2.746
H	188.297	-1.48626	-1.97241
N	190.276	-0.0312842	-0.85703
C	191.515	0.215292	-0.161486
C	191.242	0.146308	1.32927
O	190.091	0.0755951	1.75625
H	189.447	0.170172	-0.343132
H	192.22	-0.572194	-0.397152
C	192.096	1.59447	-0.542271
H	191.378	2.40357	-0.291002
H	193.057	1.79024	-0.0237356
H	192.281	1.6251	-1.63836
N	192.303	0.15689	2.16026
C	192.141	0.0891938	3.59389
H	193.227	0.210427	1.79576
H	193.129	0.109955	4.1029
H	191.616	-0.849151	3.88595
H	191.538	0.950792	3.96244
