44
  This energy is 0 and Call times are: 7760
C	2.38493	0.193682	2.52731
C	1.13225	0.644499	1.88024
O	0.363184	1.4054	2.45119
H	2.45317	0.637207	3.54442
H	3.2628	0.522366	1.93229
H	2.39265	-0.913137	2.61666
N	0.895542	0.174336	0.653339
C	-0.301454	0.489075	-0.0860526
C	-0.597178	-0.667715	-1.02197
O	0.215848	-1.57716	-1.17565
H	1.51091	-0.476576	0.218024
H	-1.13481	0.569488	0.600742
C	-0.128508	1.80027	-0.883615
H	0.719687	1.71461	-1.59584
H	-1.04832	2.06077	-1.4463
H	0.0949765	2.63134	-0.179539
N	-1.78052	-0.663581	-1.66673
C	-2.15126	-1.72539	-2.57298
H	-2.42707	0.0789291	-1.5263
H	-3.16052	-1.54115	-3.00272
H	-2.16943	-2.70539	-2.04333
H	-1.42121	-1.79949	-3.41124
C	222.432	2.34901	-0.028322
C	223.341	1.42032	0.680582
O	223.437	1.43615	1.89999
H	221.926	3.00535	0.712899
H	221.661	1.77791	-0.587391
H	223.008	2.98258	-0.735551
N	224.042	0.577761	-0.0821672
C	224.998	-0.355053	0.45979
C	226.059	-0.610345	-0.593969
O	225.922	-0.188979	-1.74085
H	223.983	0.604662	-1.07601
H	225.492	0.0943438	1.31242
C	224.31	-1.67656	0.86679
H	223.812	-2.14335	-0.00983843
H	225.034	-2.39803	1.29839
H	223.532	-1.46471	1.63257
N	227.153	-1.30442	-0.224083
C	228.218	-1.5909	-1.15724
H	227.248	-1.63361	0.709572
H	229.028	-2.17075	-0.663234
H	228.655	-0.646986	-1.55601
H	227.836	-2.1854	-2.01862
