44
  This energy is 0 and Call times are: 5100
C	1.6997	-3.01559	0.360416
C	0.819393	-1.9455	0.881084
O	0.206063	-2.08494	1.93027
H	1.66689	-3.88647	1.05061
H	2.74608	-2.65074	0.291683
H	1.35481	-3.33994	-0.644044
N	0.735303	-0.835303	0.144352
C	-0.113401	0.274848	0.499072
C	-0.523651	0.983525	-0.778044
O	-0.00808945	0.689633	-1.85486
H	1.2086	-0.752841	-0.728034
H	-1.01649	-0.100263	0.964201
C	0.619765	1.24884	1.44725
H	1.54077	1.6421	0.966487
H	-0.0280481	2.10084	1.73874
H	0.917588	0.706962	2.37138
N	-1.47416	1.93453	-0.68776
C	-1.93215	2.65831	-1.85076
H	-1.88248	2.15546	0.19175
H	-2.7157	3.3966	-1.57113
H	-2.36217	1.9593	-2.60424
H	-1.08881	3.20629	-2.32997
C	33.1012	-2.82774	0.714855
C	34.3313	-2.1775	0.209726
O	35.3394	-2.82831	-0.0278556
H	33.2848	-3.91752	0.835389
H	32.2679	-2.68103	-0.0040761
H	32.8189	-2.39976	1.69987
N	34.2743	-0.855273	0.0340714
C	35.4038	-0.0772351	-0.41047
C	35.2638	1.32433	0.153085
O	34.2301	1.6754	0.718686
H	33.4596	-0.333697	0.27073
H	36.3125	-0.500371	-0.000828986
C	35.4727	-0.0362978	-1.95281
H	34.5451	0.40741	-2.37311
H	36.3462	0.548348	-2.30752
H	35.5669	-1.073	-2.34361
N	36.3122	2.16016	0.0179197
C	36.2726	3.51102	0.527606
H	37.1417	1.85658	-0.439171
H	37.2294	4.03841	0.318719
H	36.106	3.51046	1.62921
H	35.4444	4.08586	0.053492
