44
  This energy is 0 and Call times are: 5408
C	0.679544	-2.58089	-2.23381
C	0.153712	-1.23311	-1.92054
O	-0.144793	-0.447714	-2.80962
H	0.752894	-2.69929	-3.33676
H	-0.00222571	-3.3603	-1.83325
H	1.68944	-2.7102	-1.79056
N	0.0292261	-0.930768	-0.626144
C	-0.427665	0.35668	-0.165396
C	0.192043	0.61971	1.19414
O	0.807994	-0.263877	1.78709
H	0.3149	-1.56555	0.0861134
H	-0.0677529	1.12518	-0.838083
C	-1.96893	0.394971	-0.0744833
H	-2.33803	-0.386353	0.623609
H	-2.33382	1.38567	0.265947
H	-2.40096	0.192085	-1.07874
N	0.0492278	1.85292	1.71838
C	0.609573	2.19714	3.00435
H	-0.44906	2.55583	1.22171
H	0.385124	3.25605	3.2604
H	1.7158	2.0648	2.99891
H	0.187902	1.54592	3.80387
C	60.1488	0.0755783	-1.48065
C	59.0482	0.715313	-0.725282
O	59.2019	1.79867	-0.17836
H	61.053	0.720153	-1.42875
H	59.8589	-0.0519836	-2.54483
H	60.3885	-0.915826	-1.04164
N	57.8943	0.0455398	-0.676295
C	56.7466	0.519735	0.0562021
C	55.9374	-0.684706	0.498894
O	56.2062	-1.81078	0.08493
H	57.7971	-0.854255	-1.09196
H	57.08	1.03083	0.950774
C	55.8856	1.45986	-0.815598
H	55.5346	0.932802	-1.72831
H	55.0062	1.8427	-0.258303
H	56.5002	2.32982	-1.13462
N	54.9254	-0.474517	1.36366
C	54.1042	-1.56096	1.84461
H	54.7258	0.443283	1.69055
H	53.3272	-1.18571	2.54659
H	54.725	-2.31554	2.37981
H	53.5934	-2.07265	0.996981
