44
  This energy is 0 and Call times are: 5688
C	1.23662	-1.649	-2.80433
C	0.145965	-0.975796	-2.06378
O	-0.901173	-0.670954	-2.61784
H	0.932104	-1.78309	-3.86507
H	1.44199	-2.64585	-2.36063
H	2.15951	-1.03238	-2.7706
N	0.373108	-0.7232	-0.772666
C	-0.575902	-0.0358543	0.0672731
C	0.193685	0.689912	1.15473
O	1.39848	0.498644	1.30835
H	1.24633	-0.940493	-0.3459
H	-1.09284	0.714587	-0.517741
C	-1.58383	-1.02817	0.687451
H	-1.05485	-1.79204	1.29632
H	-2.32838	-0.509354	1.32541
H	-2.12978	-1.55346	-0.126402
N	-0.488226	1.55222	1.93412
C	0.161401	2.29206	2.9909
H	-1.46186	1.69669	1.79185
H	-0.566922	2.94775	3.51707
H	0.975386	2.9319	2.57942
H	0.611597	1.59814	3.73718
C	75.8259	2.12856	-2.4907
C	75.8467	0.821253	-1.79667
O	75.0053	-0.0345693	-2.03356
H	74.9583	2.16217	-3.18485
H	76.7596	2.26618	-3.07556
H	75.7277	2.95221	-1.75245
N	76.8249	0.637081	-0.907035
C	76.9504	-0.56576	-0.122193
C	77.6288	-0.207835	1.18673
O	78.1148	0.908239	1.3596
H	77.4781	1.35847	-0.695322
H	75.9631	-0.940206	0.118001
C	77.7661	-1.63624	-0.879799
H	78.7827	-1.25639	-1.11719
H	77.858	-2.57222	-0.291564
H	77.2555	-1.87685	-1.83776
N	77.6698	-1.15124	2.14815
C	78.2898	-0.899528	3.42819
H	77.2675	-2.04708	1.99109
H	78.2212	-1.79704	4.08164
H	77.7895	-0.0495878	3.94651
H	79.3657	-0.640506	3.2997
