25
  This energy is -0.0167145 and Call times are: 3016
C	-0.539046	2.39052	1.23458
O	-1.0817	2.69745	0.187417
O	-0.542178	1.09744	1.7079
H	-0.00877572	3.10461	1.88249
H	-0.0679384	1.00193	2.55912
C	0.120915	-2.21151	-3.37435
O	0.714048	-2.74199	-4.30514
O	0.198408	-0.86956	-3.1213
H	-0.518263	-2.7617	-2.66914
H	-0.335061	-0.593596	-2.33817
C	-2.04398	-1.0205	-0.173333
O	-2.02567	-2.18981	-0.508696
O	-1.32387	-0.06894	-0.879413
H	-2.6034	-0.618154	0.678992
H	-1.39772	0.844854	-0.538098
C	2.41634	0.934476	3.35836
O	1.27675	1.02911	3.77981
O	2.69077	0.808831	2.01487
H	3.30989	0.940823	4.00057
H	3.64922	0.742967	1.82609
C	5.7197	-0.226395	-0.284548
O	6.36412	0.788579	-0.0850521
O	4.5246	-0.470866	0.354232
H	6.02881	-1.02219	-0.978851
H	4.12133	-1.3245	0.0948241
