25
  This energy is -0.00162259 and Call times are: 6061
C	1.3376	-2.3879	-0.19517
O	0.622424	-2.59807	-1.15932
O	1.77149	-1.12245	0.131082
H	1.69345	-3.17449	0.487143
H	2.33809	-1.10774	0.929428
C	-3.09301	2.34394	-1.10947
O	-4.18614	2.8623	-0.91985
O	-2.90249	0.990219	-1.06445
H	-2.18001	2.91527	-1.3299
H	-1.9674	0.726627	-1.23815
C	0.722196	1.20243	-1.81161
O	0.415631	2.37971	-1.82252
O	-0.227725	0.224641	-1.55834
H	1.73045	0.812197	-1.99166
H	0.108943	-0.693779	-1.56963
C	1.99709	-1.29463	3.51086
O	2.86547	-1.30821	2.6559
O	0.665926	-1.13239	3.19818
H	2.1949	-1.40848	4.58734
H	0.085252	-1.14219	3.98642
C	6.46903	0.153496	-0.144024
O	6.31419	0.625507	0.968844
O	5.54927	-0.70062	-0.710231
H	7.33996	0.36327	-0.783077
H	5.80717	-0.998827	-1.60643
