25
  This energy is -0.00425658 and Call times are: 2106
C	0.722836	2.07931	1.63808
O	1.67918	2.2054	0.893279
O	-0.507575	1.66051	1.18336
H	0.756177	2.28464	2.71865
H	-1.1785	1.60628	1.89436
C	0.944904	-2.56891	-2.9664
O	1.27671	-3.67092	-3.38483
O	1.68228	-1.87926	-2.04361
H	0.035652	-2.04403	-3.29249
H	1.28539	-1.0072	-1.80693
C	-0.633743	1.01378	-1.95447
O	-1.19009	0.298496	-2.76622
O	0.553498	0.618537	-1.35713
H	-0.995203	1.99546	-1.62744
H	0.928821	1.25665	-0.717676
C	-1.73253	-0.00579303	3.87154
O	-2.0084	1.09486	3.42691
O	-0.832475	-0.841221	3.24861
H	-2.16905	-0.422127	4.79188
H	-0.711649	-1.69083	3.71996
C	4.59471	-0.0137285	-0.377345
O	4.37397	1.16304	-0.149875
O	4.23165	-1.00891	0.502356
H	5.09376	-0.378988	-1.28753
H	4.47283	-1.90367	0.186384
