25
  This energy is -0.00816882 and Call times are: 6271
C	0.845565	-2.44663	-0.910149
O	0.492809	-2.86471	0.178891
O	0.191823	-1.41319	-1.54316
H	1.70064	-2.84929	-1.47372
H	0.587041	-1.18599	-2.40964
C	-1.21132	2.33175	3.06387
O	-1.02699	3.20048	3.90703
O	-0.433875	1.20943	2.98111
H	-2.00884	2.37797	2.30861
H	-0.707079	0.604314	2.25089
C	-2.28188	-0.186669	0.086741
O	-2.89167	0.849823	0.270915
O	-1.20629	-0.529256	0.89192
H	-2.50802	-0.920271	-0.695548
H	-0.776671	-1.37982	0.670695
C	2.70726	0.0746457	-3.26431
O	1.80569	-0.65125	-3.64575
O	2.81115	0.484184	-1.95375
H	3.50284	0.459992	-3.91964
H	3.58451	1.06338	-1.79552
C	6.05485	-0.387174	0.0813008
O	7.01921	0.349689	-0.0294783
O	4.76405	0.072857	-0.0539349
H	6.12769	-1.46418	0.294963
H	4.09418	-0.631918	0.0608304
