25
  This energy is -0.00532005 and Call times are: 6663
C	1.47062	-0.344791	-2.29079
O	1.37636	0.863707	-2.41683
O	1.5511	-0.946768	-1.05498
H	1.49929	-1.04885	-3.136
H	1.62267	-1.92169	-1.10978
C	-2.29287	2.37165	2.32587
O	-3.37216	2.73951	2.77241
O	-2.02319	2.33964	0.985305
H	-1.45626	2.03889	2.9567
H	-1.11135	2.02072	0.783115
C	1.43047	1.07	1.43464
O	1.06133	1.14723	2.5913
O	0.584666	1.42577	0.395109
H	2.42015	0.728237	1.11058
H	0.965948	1.33156	-0.500836
C	0.0239744	-3.92379	-1.61053
O	1.2048	-3.64836	-1.48798
O	-0.965957	-2.97721	-1.46877
H	-0.34935	-4.93301	-1.84077
H	-1.86496	-3.34399	-1.5947
C	5.47797	0.244117	0.298705
O	4.42172	-0.148077	0.763208
O	5.89728	-0.109587	-0.964284
H	6.17699	0.9026	0.835986
H	6.76363	0.280052	-1.2014
