25
  This energy is -0.000572597 and Call times are: 6621
C	-1.93477	0.0379314	-1.9454
O	-1.98741	1.23676	-1.73264
O	-0.759747	-0.67223	-1.84015
H	-2.80375	-0.572006	-2.23478
H	-0.870521	-1.62428	-2.03997
C	1.94167	1.87972	2.99804
O	2.16871	2.08809	4.18321
O	0.693471	2.00895	2.45382
H	2.71281	1.57408	2.27657
H	0.671407	1.80748	1.48792
C	1.78776	1.06414	-0.959607
O	2.83872	0.987653	-0.351558
O	0.618625	1.43218	-0.311343
H	1.66235	0.860187	-2.02917
H	-0.177256	1.46723	-0.87907
C	-1.85596	-3.72099	-0.836764
O	-1.4589	-3.33872	-1.92371
O	-1.86268	-2.90038	0.268962
H	-2.23691	-4.73548	-0.64544
H	-2.20849	-3.34364	1.07055
C	6.74784	0.287668	0.19056
O	6.8335	-0.730308	0.855116
O	5.96342	0.359462	-0.938864
H	7.27883	1.22162	0.428654
H	5.99326	1.23875	-1.36847
