25
  This energy is -0.00368623 and Call times are: 4396
C	-0.146646	-0.293333	-2.7243
O	-1.15301	0.389532	-2.6458
O	0.927529	-0.111631	-1.88215
H	-0.00898349	-1.09984	-3.46017
H	1.66297	-0.732124	-2.06303
C	-1.73309	1.13199	3.46506
O	-2.2978	0.895424	4.52559
O	-2.2206	0.705555	2.26034
H	-0.795652	1.70135	3.39002
H	-1.65426	0.974847	1.49826
C	0.547848	2.20398	0.302783
O	0.867951	2.51993	1.43318
O	-0.605216	1.46948	0.0714269
H	1.10957	2.45446	-0.604417
H	-0.783126	1.26125	-0.867699
C	2.17673	-3.25481	-1.63051
O	2.57856	-2.28892	-2.25566
O	1.07654	-3.18537	-0.805381
H	2.64747	-4.24872	-1.66864
H	0.872438	-4.03803	-0.369598
C	4.47383	-0.15401	0.22446
O	4.56015	-0.849076	-0.772875
O	5.33119	0.897658	0.458961
H	3.71842	-0.301532	1.01091
H	5.14144	1.36428	1.29852
