25
  This energy is -0.00167292 and Call times are: 8413
C	-1.4809	-0.293313	-2.29134
O	-2.42894	0.0484209	-1.60602
O	-0.212015	0.198426	-2.08109
H	-1.55245	-1.0108	-3.1226
H	0.446528	-0.165557	-2.70754
C	0.134335	0.509004	4.00182
O	0.295738	0.0992119	5.14445
O	-0.787887	-0.0323745	3.149
H	0.710254	1.3384	3.56708
H	-0.798915	0.405697	2.26469
C	0.0440791	2.26239	0.359111
O	0.81943	2.64826	1.21353
O	-0.826303	1.21333	0.613033
H	-0.042434	2.68279	-0.64939
H	-1.41286	0.971325	-0.131512
C	1.73191	-2.41529	-3.02612
O	1.48276	-1.3658	-3.59335
O	1.25728	-2.6947	-1.76408
H	2.34594	-3.2173	-3.46275
H	1.53814	-3.57381	-1.43716
C	8.32992	0.153719	0.374143
O	9.33425	-0.000290274	-0.298796
O	7.07532	-0.150718	-0.104798
H	8.33554	0.541938	1.40378
H	6.36573	0.0243658	0.546685
