25
  This energy is -0.00531548 and Call times are: 7414
C	1.94406	-0.103776	1.9337
O	1.72128	1.08498	2.08361
O	0.953542	-0.99496	1.58621
H	2.93645	-0.562151	2.06003
H	1.28019	-1.91407	1.50168
C	-2.41386	2.1937	-2.37753
O	-2.72248	2.68411	-3.45634
O	-1.2076	2.43242	-1.7785
H	-3.07221	1.5264	-1.80319
H	-1.10781	1.96701	-0.913932
C	-1.94534	0.310155	1.16995
O	-2.97337	0.183109	0.531897
O	-0.910558	1.10267	0.696966
H	-1.74072	-0.16491	2.13625
H	-0.123239	1.14619	1.27593
C	2.66507	-3.29165	-0.230186
O	2.23083	-3.34308	0.907366
O	2.45076	-2.20318	-1.0459
H	3.2553	-4.09403	-0.697853
H	2.85853	-2.30347	-1.93036
C	5.25214	0.11066	-0.217351
O	4.87833	-0.158193	0.911023
O	6.57604	0.0303802	-0.587384
H	4.57895	0.43504	-1.02512
H	6.72584	0.27584	-1.52329
