25
  This energy is -0.00202739 and Call times are: 5585
C	0.753571	-2.57002	0.597059
O	0.0436069	-2.89208	-0.33967
O	1.45725	-1.38646	0.6078
H	0.893084	-3.18363	1.49979
H	1.9833	-1.26313	1.42429
C	-2.42423	2.52593	-2.0086
O	-3.37338	3.29663	-2.07731
O	-2.55445	1.23431	-1.57775
H	-1.39646	2.80218	-2.28419
H	-1.70043	0.739657	-1.57896
C	1.0447	0.447953	-1.98929
O	1.02001	1.60926	-2.35101
O	-0.114351	-0.190581	-1.57523
H	1.94072	-0.182324	-1.95479
H	0.000401028	-1.12294	-1.30229
C	1.51747	-0.621996	3.91164
O	2.38864	-1.06517	3.1837
O	0.272063	-0.277961	3.43553
H	1.64542	-0.460351	4.99257
H	-0.322481	0.0631063	4.13466
C	5.40106	0.372617	0.0349659
O	6.09119	-0.320619	-0.691937
O	4.21911	-0.0841152	0.57392
H	5.6554	1.40461	0.319939
H	3.77418	0.582124	1.13674
