25
  This energy is -0.00324074 and Call times are: 4608
C	-1.88984	-0.0451545	-1.98892
O	-2.65194	-0.435914	-1.12188
O	-0.868127	0.838026	-1.72027
H	-1.9487	-0.356703	-3.04266
H	-0.33898	1.06142	-2.51318
C	1.11709	-1.00292	3.74672
O	1.73812	-1.68946	4.54833
O	0.232956	-1.53675	2.84994
H	1.21516	0.0899499	3.67901
H	-0.188126	-0.856337	2.27221
C	-0.639671	1.73829	1.34852
O	0.167988	2.07961	2.19189
O	-0.976984	0.402856	1.1891
H	-1.15831	2.4169	0.661646
H	-1.63408	0.221756	0.487396
C	1.49266	-0.0964047	-3.96903
O	0.740491	0.862448	-3.9603
O	1.53686	-1.00026	-2.93116
H	2.18969	-0.321227	-4.79032
H	2.18773	-1.71693	-3.07724
C	4.90497	-0.218475	-0.213812
O	5.84289	-0.0732989	-0.978322
O	4.92462	0.279007	1.07001
H	3.97728	-0.749284	-0.475596
H	4.10303	0.0858846	1.5663
