25
  This energy is 0.00126482 and Call times are: 2763
C	-0.169267	-0.650457	-2.66037
O	1.04797	-0.699077	-2.62573
O	-0.946145	-1.00928	-1.58159
H	-0.744863	-0.322169	-3.53891
H	-1.90537	-0.91897	-1.75574
C	2.24618	1.12137	3.16052
O	2.65917	1.95199	3.95995
O	2.3769	1.27333	1.80748
H	1.74013	0.191733	3.45761
H	1.99506	0.520316	1.2964
C	0.696967	-1.93389	1.01176
O	0.647483	-1.94352	2.2273
O	1.28482	-0.876471	0.334356
H	0.301737	-2.72049	0.35881
H	1.27919	-0.953931	-0.640804
C	-3.63472	1.02894	-1.9289
O	-3.50642	-0.161218	-2.15759
O	-2.61831	1.78268	-1.38588
H	-4.55551	1.59632	-2.13171
H	-2.86593	2.72134	-1.25864
C	5.56358	-0.116331	-0.186469
O	4.82643	0.259957	-1.08105
O	5.17131	-0.114268	1.13345
H	6.58779	-0.483957	-0.35001
H	5.8673	-0.443111	1.7385
