25
  This energy is -0.00169167 and Call times are: 2542
C	-1.22544	-2.3655	-0.657318
O	-2.22242	-1.68722	-0.834
O	0.0392146	-1.88852	-0.920434
H	-1.24608	-3.39878	-0.279419
H	0.741049	-2.5444	-0.731066
C	-0.29132	3.92127	0.911302
O	-0.286861	4.85626	1.7021
O	-1.14209	2.85732	1.03412
H	0.380626	3.85656	0.043615
H	-1.02513	2.18591	0.320276
C	0.142852	1.13379	-1.98581
O	0.838177	2.13205	-1.97717
O	-0.814064	0.927617	-1.00379
H	0.198022	0.333953	-2.73315
H	-1.32581	0.0984349	-1.09064
C	1.91259	-3.52268	1.38682
O	1.79517	-3.70384	0.187389
O	1.28086	-2.48472	2.03462
H	2.52154	-4.15933	2.04617
H	1.46766	-2.46501	2.99551
C	4.09328	-0.270723	-0.264277
O	2.91167	-0.568975	-0.274358
O	4.57898	0.766058	0.500737
H	4.86224	-0.792564	-0.853586
H	5.54593	0.888177	0.407492
