25
  This energy is -0.00083287 and Call times are: 7797
C	1.15284	-2.33544	-0.863732
O	0.964367	-1.89927	-1.98599
O	1.44485	-1.51239	0.200882
H	1.10749	-3.40424	-0.605855
H	1.57046	-2.00303	1.03879
C	-2.09044	3.3511	-0.831798
O	-3.11756	4.01786	-0.836796
O	-2.01052	2.11784	-1.41795
H	-1.15379	3.68216	-0.360994
H	-1.11761	1.70664	-1.33041
C	1.54634	1.61392	-0.503408
O	1.33939	2.71344	-0.0255926
O	0.541639	0.93041	-1.17121
H	2.50049	1.07651	-0.457752
H	0.798356	0.0540708	-1.52206
C	0.0491493	-3.18547	2.80016
O	1.21532	-3.0689	2.46596
O	-0.969729	-2.54041	2.13543
H	-0.287252	-3.80403	3.64581
H	-1.85208	-2.72825	2.51592
C	6.34753	-0.379122	-0.122436
O	6.45076	-0.3486	1.09151
O	5.83466	0.678795	-0.839263
H	6.64877	-1.23731	-0.741848
H	5.81294	0.511023	-1.80362
