25
  This energy is -0.00331703 and Call times are: 8371
C	-2.41726	0.821951	-1.00528
O	-2.02232	0.364666	-2.06365
O	-2.07452	0.263262	0.205701
H	-3.06983	1.70426	-0.924173
H	-2.46509	0.737073	0.968301
C	3.74167	-1.36814	-0.647934
O	4.95502	-1.22028	-0.722029
O	2.86335	-0.630725	-1.39336
H	3.25833	-2.0983	0.0167684
H	1.9203	-0.866139	-1.22227
C	-0.140651	-2.28679	0.0120103
O	0.744268	-2.86894	0.610433
O	0.159903	-1.29534	-0.909549
H	-1.21339	-2.47604	0.133272
H	-0.614272	-0.882344	-1.34205
C	-2.02778	2.9679	2.25171
O	-2.84749	2.0733	2.13761
O	-0.853356	2.97928	1.53291
H	-2.1502	3.82916	2.92562
H	-0.294286	3.7589	1.72843
C	10.0062	-0.15972	-0.26208
O	10.6671	0.620537	-0.925181
O	10.2658	-0.388629	1.0707
H	9.16015	-0.739401	-0.660843
H	9.65413	-1.03939	1.47191
