25
  This energy is -0.00542958 and Call times are: 2279
C	-0.496332	-2.08904	-1.70847
O	-0.00494471	-2.78855	-0.839874
O	-1.22554	-0.959321	-1.41174
H	-0.403241	-2.29337	-2.78573
H	-1.55734	-0.499235	-2.20976
C	1.80404	1.40841	3.32468
O	2.68166	2.03925	3.90036
O	2.07953	0.382324	2.46321
H	0.730448	1.60977	3.44891
H	1.26772	-0.0271512	2.07938
C	-1.48522	-0.308581	1.71704
O	-1.58913	0.616413	2.50041
O	-0.238152	-0.795933	1.35666
H	-2.32445	-0.826541	1.2388
H	-0.251068	-1.5403	0.722065
C	-0.565691	1.03571	-4.07404
O	-1.56092	0.390902	-3.793
O	0.524796	1.09956	-3.23569
H	-0.451647	1.61289	-5.00396
H	1.24833	1.65406	-3.59293
C	3.86153	-0.260136	0.210765
O	4.43207	0.814535	0.14138
O	2.61169	-0.460544	-0.331284
H	4.28537	-1.14851	0.702755
H	2.28024	-1.37218	-0.198394
