25
  This energy is 0.000830597 and Call times are: 4137
C	-2.68148	0.0196775	0.581911
O	-2.62281	-1.18871	0.434995
O	-1.63033	0.745379	1.09622
H	-3.56173	0.626743	0.322054
H	-1.82177	1.70371	1.1559
C	3.23876	-1.98499	-1.36451
O	4.07098	-2.24557	-2.22422
O	1.89387	-2.11089	-1.57969
H	3.49745	-1.63117	-0.356312
H	1.35277	-1.86392	-0.792126
C	0.968248	-0.984183	1.82844
O	2.18167	-0.91762	1.88565
O	0.335008	-1.4041	0.668598
H	0.284097	-0.73168	2.64665
H	-0.641925	-1.42655	0.714036
C	-1.97317	3.72214	-0.492722
O	-2.23437	3.39958	0.653125
O	-1.38685	2.84965	-1.38213
H	-2.17828	4.71919	-0.910743
H	-1.237	3.24769	-2.26401
C	7.14989	0.255518	-0.304521
O	5.9348	0.309805	-0.381005
O	7.78917	-0.523294	0.634013
H	7.83116	0.812634	-0.965132
H	8.76488	-0.466808	0.575596
