25
  This energy is 0.0013628 and Call times are: 1937
C	-1.03926	-0.313426	2.52012
O	-2.10042	-0.506429	1.95274
O	0.163221	-0.702539	1.97359
H	-0.948793	0.17902	3.50003
H	0.929387	-0.482113	2.54193
C	-0.596529	0.479327	-3.96309
O	-0.637225	1.15813	-4.9815
O	-1.34156	0.771052	-2.85372
H	0.0353384	-0.413566	-3.85325
H	-1.19993	0.131749	-2.1153
C	-0.0564126	-2.10583	-0.900893
O	0.546293	-2.25062	-1.94773
O	-0.941918	-1.05225	-0.732339
H	0.0336183	-2.76026	-0.0262998
H	-1.38096	-1.01489	0.141051
C	2.28586	1.65988	3.16389
O	2.1267	0.49749	3.49368
O	1.59609	2.22267	2.11338
H	2.98085	2.34978	3.6658
H	1.82707	3.16256	1.96557
C	5.75394	-0.0355124	0.232287
O	5.08786	-1.02769	0.471398
O	5.32677	0.938292	-0.64253
H	6.73635	0.166942	0.684813
H	5.96535	1.67473	-0.734614
