25
  This energy is -0.0022804 and Call times are: 2064
C	2.47181	-0.777591	0.902696
O	2.67293	-1.12962	-0.246591
O	1.69125	0.315361	1.20644
H	2.88746	-1.29109	1.78272
H	1.61975	0.47695	2.16944
C	-2.80172	-0.0387205	-2.90526
O	-3.85319	-0.430568	-3.39561
O	-1.78886	-0.890038	-2.55848
H	-2.58296	1.01958	-2.70345
H	-1.00731	-0.423839	-2.17655
C	0.429248	1.81466	-1.3312
O	-0.543083	2.45598	-1.68243
O	0.453276	0.434455	-1.46169
H	1.34125	2.23998	-0.896868
H	1.27526	0.00276726	-1.15354
C	0.343226	-0.576908	4.18807
O	1.23707	0.208496	3.92458
O	-0.359658	-1.24027	3.20726
H	0.0242524	-0.821359	5.21247
H	-1.04637	-1.83757	3.56817
C	6.60879	0.22123	0.345997
O	5.56372	-0.344117	0.617059
O	7.21621	0.0852248	-0.882256
H	7.1496	0.877647	1.04423
H	8.0477	0.597015	-0.955096
