25
  This energy is -0.0057248 and Call times are: 4263
C	2.42716	1.26159	0.215871
O	2.2611	1.16386	1.41924
O	1.96938	0.307417	-0.66507
H	2.9472	2.10389	-0.264743
H	2.17544	0.520033	-1.59831
C	-3.40042	-1.30044	1.74289
O	-4.59609	-1.21224	1.99225
O	-2.51217	-0.301776	2.0337
H	-2.9422	-2.18018	1.2689
H	-1.58603	-0.521766	1.77311
C	0.413111	-2.14369	0.695167
O	-0.477412	-2.94738	0.492337
O	0.142594	-0.920553	1.28958
H	1.46858	-2.29544	0.441692
H	0.919093	-0.338578	1.41336
C	1.27557	2.15629	-3.42256
O	2.20532	1.40538	-3.18396
O	0.235506	2.33586	-2.53819
H	1.18572	2.74606	-4.34722
H	-0.437581	2.96758	-2.8645
C	5.79727	0.145245	-0.0396269
O	5.20999	0.476468	-1.05483
O	5.17686	-0.5615	0.96619
H	6.85438	0.37655	0.160153
H	5.77242	-0.756441	1.71846
