25
  This energy is 0.00388668 and Call times are: 5091
C	-0.496973	-2.04214	-1.76409
O	-1.62197	-2.04265	-1.29546
O	0.242178	-0.887129	-1.88934
H	0.0184409	-2.94616	-2.12185
H	1.12589	-1.04075	-2.28184
C	-1.14635	2.17359	3.20204
O	-1.08831	2.47582	4.38732
O	-1.41511	0.900855	2.7792
H	-0.989223	2.891	2.38399
H	-1.4283	0.816094	1.796
C	-1.21135	1.76325	-0.820298
O	-0.984126	2.84464	-0.311313
O	-1.45311	0.646546	-0.0347474
H	-1.24664	1.56927	-1.89845
H	-1.62612	-0.179358	-0.529639
C	3.4137	-2.0235	-1.49754
O	2.8128	-1.67779	-2.49986
O	2.85235	-1.93886	-0.24303
H	4.43781	-2.42605	-1.50505
H	3.45193	-2.25202	0.464812
C	6.64074	0.330092	0.214864
O	7.6667	0.727214	-0.309497
O	6.19453	-0.963469	0.0610433
H	5.99226	0.956857	0.845368
H	5.35822	-1.13767	0.539423
