25
  This energy is 0.000565177 and Call times are: 8329
C	-0.925162	-2.30303	1.17023
O	-1.85836	-2.20773	0.392233
O	0.347505	-1.89502	0.83869
H	-1.01411	-2.71528	2.18662
H	0.992585	-2.03267	1.56224
C	-0.652887	3.16852	-2.41369
O	-0.892659	4.35311	-2.6108
O	-1.47051	2.36646	-1.66598
H	0.230537	2.65258	-2.81612
H	-1.14321	1.43777	-1.59923
C	0.638484	-0.650773	-2.10194
O	1.27308	0.167795	-2.74016
O	-0.541367	-0.294619	-1.46659
H	0.919523	-1.70185	-1.96952
H	-0.983597	-1.01708	-0.977256
C	1.57799	-0.889861	3.83518
O	1.79546	-1.89802	3.1859
O	0.761514	0.116891	3.37054
H	2.00589	-0.697663	4.83061
H	0.680546	0.862883	3.99946
C	12.1606	0.331565	0.1151
O	12.6948	0.644449	-0.93464
O	12.3759	-0.892159	0.70857
H	11.4723	0.985575	0.671401
H	11.8807	-1.00212	1.54601
