25
  This energy is -0.00644027 and Call times are: 3763
C	-2.56354	0.972912	-0.104951
O	-2.90544	-0.195139	-0.0417309
O	-1.43523	1.43975	0.531483
H	-3.11461	1.74347	-0.664844
H	-1.28721	2.39739	0.391389
C	2.52956	-3.13902	-0.198876
O	3.35777	-3.83219	-0.776074
O	1.2871	-2.89306	-0.715279
H	2.71073	-2.65955	0.773681
H	0.734797	-2.31817	-0.133464
C	0.219634	-0.785223	2.14115
O	1.34871	-1.08207	2.48344
O	-0.301993	-1.24595	0.941896
H	-0.467789	-0.154383	2.71628
H	-1.21651	-0.957145	0.748957
C	-0.426407	3.92932	-1.5392
O	-0.984321	3.97476	-0.456656
O	-0.0328106	2.73931	-2.10932
H	-0.19197	4.81707	-2.1457
H	0.401833	2.85839	-2.97852
C	5.74313	-0.0133891	0.250148
O	5.69489	1.11702	-0.202716
O	4.80377	-0.968793	-0.0674776
H	6.5257	-0.364712	0.939389
H	4.97121	-1.82839	0.370318
