25
  This energy is -0.0111854 and Call times are: 7372
C	1.28856	-2.42169	0.0661071
O	0.569009	-2.66848	1.01825
O	0.866025	-1.64081	-0.986402
H	2.31934	-2.79318	-0.0357873
H	1.55067	-1.52949	-1.67739
C	-2.45243	2.67359	1.76895
O	-2.66598	3.70711	2.39009
O	-1.6329	1.68614	2.24245
H	-2.89594	2.45212	0.787712
H	-1.5619	0.916763	1.6284
C	-2.11979	-0.50645	-0.706636
O	-2.81893	0.442635	-1.00753
O	-1.42077	-0.520884	0.490753
H	-1.97701	-1.40343	-1.32009
H	-0.884975	-1.32395	0.648791
C	3.75009	-0.15524	-1.97566
O	3.1159	-1.06825	-2.4751
O	3.31105	0.511803	-0.85389
H	4.7108	0.210452	-2.36837
H	3.92339	1.22003	-0.567435
C	6.83906	-0.18369	0.178286
O	5.87288	-0.551556	0.823591
O	6.71828	0.665267	-0.899097
H	7.87345	-0.490725	0.394347
H	7.57803	0.873231	-1.31884
