25
  This energy is -0.00577746 and Call times are: 7545
C	0.936113	2.47842	0.714464
O	0.155981	2.39665	1.64717
O	1.57709	1.37425	0.198685
H	1.19298	3.42267	0.211162
H	2.17278	1.59294	-0.546923
C	-2.73112	-2.93796	0.448404
O	-3.72003	-3.5659	0.0915719
O	-2.75392	-1.58685	0.660206
H	-1.75003	-3.40051	0.627515
H	-1.88022	-1.2265	0.944528
C	0.823534	-1.40237	1.61384
O	0.705584	-2.59271	1.39189
O	-0.256441	-0.544295	1.47266
H	1.74926	-0.909504	1.93229
H	-0.0690698	0.394878	1.6722
C	1.91805	2.20947	-3.0708
O	2.73591	2.18924	-2.16752
O	0.616712	1.79818	-2.88797
H	2.14165	2.55126	-4.09261
H	0.0761755	1.87072	-3.70109
C	4.99047	0.0230326	0.16581
O	4.54749	1.15832	0.176977
O	4.26267	-1.04087	-0.318424
H	5.99133	-0.248066	0.53417
H	4.74656	-1.89025	-0.263583
