25
  This energy is -0.00613881 and Call times are: 1504
C	0.115402	-0.916836	-2.58369
O	0.35604	-2.00229	-2.08458
O	-0.713927	-0.000694207	-1.97625
H	0.530799	-0.578487	-3.54487
H	-0.813421	0.824887	-2.49309
C	0.682763	-0.610649	3.93098
O	1.32488	-0.446268	4.96066
O	1.24169	-1.10953	2.7866
H	-0.386817	-0.374152	3.838
H	0.596754	-1.18355	2.04322
C	-1.91251	-0.935041	0.846962
O	-2.2805	-0.505153	1.92393
O	-0.596019	-1.32359	0.650861
H	-2.55133	-1.05371	-0.0357131
H	-0.390788	-1.65644	-0.245834
C	0.621954	2.94941	-2.98407
O	-0.384992	2.36826	-3.34952
O	1.41254	2.47063	-1.96338
H	0.982258	3.88966	-3.42794
H	2.18632	3.04195	-1.78044
C	3.57043	0.169069	0.208067
O	3.10261	-0.421313	-0.749969
O	4.92465	0.204314	0.454925
H	2.96494	0.715727	0.946614
H	5.15249	0.715121	1.25852
