25
  This energy is -0.00421967 and Call times are: 2608
C	-1.00808	-0.849468	-2.40656
O	-2.10138	-0.625725	-1.91679
O	0.100242	-0.0933282	-2.09678
H	-0.812598	-1.65925	-3.12555
H	0.907035	-0.389556	-2.56576
C	-0.617431	0.991339	3.86364
O	-0.574939	0.758875	5.0652
O	-1.27515	0.180686	2.97983
H	-0.135977	1.86211	3.39616
H	-1.21922	0.500953	2.04798
C	-0.421357	2.25191	0.026406
O	0.121481	2.88216	0.914214
O	-1.11945	1.08749	0.30815
H	-0.415107	2.52535	-1.03495
H	-1.52294	0.647736	-0.466947
C	2.60912	-2.35922	-2.37004
O	2.27254	-1.45444	-3.11389
O	1.99169	-2.5777	-1.15879
H	3.42004	-3.06821	-2.59509
H	2.36795	-3.33859	-0.67087
C	5.31683	0.312833	-0.18871
O	4.25055	0.235534	-0.773787
O	5.63377	-0.514297	0.865553
H	6.10578	1.03578	-0.445249
H	6.52254	-0.336468	1.23579
