25
  This energy is 0.00199248 and Call times are: 7629
C	0.0226263	-2.45537	-1.22474
O	0.419786	-2.87782	-0.152808
O	-0.855827	-1.39875	-1.3139
H	0.324247	-2.87194	-2.19757
H	-1.08544	-1.17083	-2.23798
C	1.04007	2.3235	3.13229
O	1.73535	3.17725	3.66828
O	1.56365	1.18364	2.58689
H	-0.0531704	2.39824	3.04392
H	0.876998	0.594204	2.19305
C	-1.72706	-0.132011	1.49973
O	-2.0588	0.916746	2.01948
O	-0.39389	-0.510398	1.45434
H	-2.41313	-0.850401	1.03657
H	-0.220725	-1.36845	1.01763
C	0.0627401	0.0479513	-4.24079
O	-0.897601	-0.651099	-3.96819
O	0.976286	0.439011	-3.28759
H	0.28142	0.421656	-5.25244
H	1.69296	0.99723	-3.65278
C	8.59432	-0.372336	0.0639982
O	8.5479	0.179404	1.14967
O	8.07913	0.207977	-1.07349
H	9.04294	-1.36347	-0.101202
H	8.18839	-0.351197	-1.86973
