25
  This energy is -0.00741594 and Call times are: 7503
C	1.69496	1.77921	1.22101
O	1.66802	2.38177	0.16204
O	0.604304	1.08499	1.69495
H	2.57527	1.73677	1.87991
H	0.773305	0.651459	2.5564
C	-1.74868	-1.37117	-3.36952
O	-1.85896	-2.17493	-4.28679
O	-0.584786	-0.699015	-3.11567
H	-2.5665	-1.12278	-2.67811
H	-0.653543	-0.0868828	-2.34457
C	-1.96838	1.1522	-0.217349
O	-2.9344	0.492465	-0.551502
O	-0.770058	1.05504	-0.908106
H	-1.94619	1.85633	0.62229
H	-0.0485219	1.62196	-0.569058
C	2.06312	-1.45164	3.40981
O	1.51584	-0.437443	3.80618
O	2.1229	-1.77519	2.07271
H	2.54864	-2.18477	4.0714
H	2.5928	-2.6176	1.90498
C	5.11157	0.205592	-0.354648
O	4.47652	1.00111	0.315519
O	5.3506	-1.08196	0.0709505
H	5.54207	0.440143	-1.33982
H	5.87321	-1.60483	-0.570996
