25
  This energy is -0.00307131 and Call times are: 7713
C	0.929023	-2.35562	1.05704
O	-0.157247	-2.81115	0.744398
O	1.55375	-1.37945	0.313468
H	1.49639	-2.677	1.94344
H	2.41891	-1.11191	0.685639
C	-3.0822	2.19321	-1.40769
O	-3.93157	3.06868	-1.29948
O	-2.99039	1.14464	-0.534209
H	-2.32809	2.17423	-2.2074
H	-2.25599	0.523063	-0.754049
C	-0.0876107	-0.388293	-2.2563
O	-0.280034	0.588866	-2.95503
O	-0.889176	-0.640293	-1.15332
H	0.699851	-1.13331	-2.41799
H	-0.661254	-1.44792	-0.650564
C	3.26634	0.337411	2.68472
O	3.65224	-0.462555	1.85023
O	1.9529	0.744994	2.75415
H	3.91959	0.796334	3.44205
H	1.79116	1.38913	3.47354
C	6.79676	0.0242406	0.149955
O	6.14501	0.842371	0.77536
O	6.23449	-0.764312	-0.828873
H	7.87105	-0.153997	0.308191
H	6.87858	-1.37349	-1.24439
