25
  This energy is -0.00136429 and Call times are: 2372
C	-0.458652	-2.58542	0.796593
O	-0.602073	-2.1135	1.91103
O	-0.82765	-1.90123	-0.339979
H	-0.0301871	-3.58027	0.602684
H	-0.653202	-2.40456	-1.16146
C	0.73588	3.84889	0.967572
O	1.47803	4.81474	1.09378
O	0.966413	2.65626	1.59635
H	-0.170065	3.85642	0.344848
H	0.280062	1.97595	1.39602
C	-2.04392	1.01901	0.182535
O	-2.12997	2.12659	-0.313397
O	-0.991985	0.7003	1.02777
H	-2.7533	0.199332	0.0206726
H	-1.00426	-0.212405	1.3796
C	1.428	-3.02185	-2.61146
O	0.249222	-3.29341	-2.46322
O	2.0646	-2.08033	-1.83406
H	2.07604	-3.49506	-3.36447
H	3.00896	-1.96882	-2.06721
C	5.70948	0.161817	-0.241922
O	4.65994	0.541669	-0.731235
O	5.74661	-0.635092	0.880409
H	6.70128	0.416431	-0.644918
H	6.65808	-0.860467	1.15794
