25
  This energy is -0.00256409 and Call times are: 1210
C	-1.98368	-1.86108	-0.361565
O	-1.25802	-2.32365	-1.22451
O	-1.48151	-1.27149	0.776981
H	-3.08279	-1.87287	-0.413812
H	-2.18212	-0.946233	1.37861
C	3.41046	1.72988	-1.29149
O	4.03317	2.64018	-1.82364
O	2.38892	1.07152	-1.9191
H	3.61613	1.36682	-0.274405
H	1.98644	0.363673	-1.36142
C	1.71902	-1.18242	0.946673
O	2.6396	-0.519215	1.38575
O	1.22785	-0.956132	-0.330087
H	1.20799	-1.98707	1.48767
H	0.487578	-1.53645	-0.598791
C	-3.83368	1.07372	1.46307
O	-3.60735	-0.00124475	1.99077
O	-3.04937	1.56769	0.444767
H	-4.66805	1.73248	1.74726
H	-3.35163	2.44042	0.119835
C	8.87699	0.0372286	0.0129714
O	9.10936	-1.02456	-0.538257
O	9.88304	0.864099	0.460427
H	7.86309	0.422464	0.198724
H	9.54594	1.68092	0.882051
