25
  This energy is -0.00944442 and Call times are: 3889
C	-0.795599	2.53595	-0.682143
O	0.391121	2.81155	-0.650883
O	-1.24836	1.29853	-1.08198
H	-1.59534	3.23695	-0.399433
H	-2.22417	1.22295	-1.05595
C	2.89614	-2.49705	1.2918
O	3.44325	-3.1727	2.15422
O	2.66924	-1.15645	1.44076
H	2.54377	-2.90479	0.333598
H	2.22026	-0.752484	0.660209
C	1.05545	-0.785329	-1.8758
O	1.31659	-1.97356	-1.87857
O	1.38198	0.00992247	-0.787899
H	0.559758	-0.247246	-2.69191
H	1.1343	0.952403	-0.873639
C	-4.06421	0.935195	0.773376
O	-3.92071	1.19913	-0.407718
O	-2.99475	0.661256	1.59635
H	-5.04134	0.893	1.27771
H	-3.26272	0.467345	2.51787
C	6.12309	-0.163185	0.391571
O	7.26932	0.0752565	0.0531276
O	5.04941	0.0941152	-0.43128
H	5.849	-0.596619	1.36518
H	4.19178	-0.148412	-0.0259962
