25
  This energy is -0.00119163 and Call times are: 8455
C	-0.852024	2.49839	-0.749292
O	-1.82809	2.26631	-0.0574385
O	0.398844	2.01696	-0.433645
H	-0.882202	3.10116	-1.66944
H	1.08426	2.28383	-1.07985
C	-0.796018	-3.5677	1.71159
O	-1.04928	-4.76473	1.66102
O	-1.56806	-2.62503	1.09014
H	0.0643075	-3.15141	2.25484
H	-1.2354	-1.70547	1.22345
C	0.519622	0.222032	2.22036
O	1.11511	-0.713157	2.72127
O	-0.623069	0.0116017	1.4637
H	0.810106	1.27501	2.31061
H	-1.03517	0.821081	1.10054
C	1.79515	1.59611	-3.49577
O	1.97769	2.45615	-2.65183
O	0.951332	0.529247	-3.28162
H	2.27842	1.59505	-4.48438
H	0.904502	-0.0793953	-4.0471
C	6.38242	0.0450007	-0.314177
O	5.37116	0.618647	-0.679603
O	6.46333	-0.588032	0.905984
H	7.30268	-0.0172252	-0.91429
H	7.33554	-1.00448	1.0623
