25
  This energy is -0.00226183 and Call times are: 1660
C	-1.46217	2.32145	0.0472046
O	-2.4172	1.6004	0.277935
O	-0.197703	2.02943	0.507542
H	-1.52348	3.25152	-0.537717
H	0.467527	2.69799	0.244673
C	0.101759	-4.03385	-0.0967387
O	0.257015	-5.10335	-0.672639
O	-0.811018	-3.10194	-0.508155
H	0.676157	-3.73321	0.7911
H	-0.817981	-2.29331	0.0576151
C	0.0285396	-0.694836	2.18305
O	0.795325	-1.6038	2.43981
O	-0.837717	-0.781354	1.10385
H	-0.0528841	0.239849	2.74964
H	-1.41735	-0.00415079	0.973674
C	1.76801	3.33997	-1.92594
O	1.51711	3.74533	-0.804349
O	1.28564	2.13807	-2.39373
H	2.38982	3.88694	-2.65056
H	1.56907	1.94446	-3.31067
C	3.28009	-0.407495	0.00776015
O	3.26113	-0.0241237	1.16444
O	3.63985	0.421423	-1.03125
H	3.0168	-1.42956	-0.30364
H	3.60842	-0.0239023	-1.90263
