25
  This energy is -0.00625712 and Call times are: 1378
C	-1.81815	2.0551	0.0154189
O	-1.69777	2.02278	1.22773
O	-0.770285	1.76954	-0.831054
H	-2.75584	2.31018	-0.500883
H	-1.01517	1.83585	-1.7767
C	2.06897	-2.81603	2.02016
O	2.27203	-3.97083	2.37341
O	0.880273	-2.17666	2.24171
H	2.81616	-2.19976	1.50006
H	0.8709	-1.251	1.89953
C	1.96937	0.982469	0.636918
O	2.96847	0.300936	0.504984
O	0.841908	0.47411	1.26379
H	1.86218	2.01701	0.29119
H	0.0866051	1.09278	1.32487
C	-2.35974	0.409304	-3.50066
O	-1.86134	1.51129	-3.35075
O	-2.29111	-0.56251	-2.52755
H	-2.89827	0.0984841	-4.40856
H	-2.73546	-1.39509	-2.78826
C	6.01726	-0.235219	0.302936
O	6.91591	0.383026	0.846499
O	5.75014	-0.105689	-1.04166
H	5.35236	-0.938018	0.827227
H	5.00111	-0.662805	-1.33692
