25
  This energy is -0.00791093 and Call times are: 4692
C	-0.846511	-1.79527	-1.89467
O	-1.318	-0.825373	-2.46233
O	0.318366	-1.71999	-1.16428
H	-1.30014	-2.79763	-1.91451
H	0.574669	-2.57692	-0.766046
C	-0.132716	3.72191	1.55609
O	-0.500556	4.53762	2.3921
O	-1.01096	2.97332	0.821798
H	0.923603	3.52268	1.32571
H	-0.5621	2.36211	0.190146
C	1.64899	1.19488	-1.04996
O	2.31558	1.91917	-0.335006
O	0.263971	1.21802	-0.988692
H	2.05378	0.484527	-1.7799
H	-0.188742	0.602441	-1.5995
C	-0.198781	-4.04952	1.24597
O	0.498832	-4.08242	0.247225
O	-0.90527	-2.9242	1.60738
H	-0.324062	-4.89879	1.93441
H	-1.42016	-3.04559	2.43124
C	4.87483	-0.203531	-0.182562
O	5.57277	-1.06308	0.32666
O	5.19167	1.13441	-0.107855
H	3.94781	-0.415263	-0.736384
H	4.53998	1.70647	-0.562463
