25
  This energy is -0.00301151 and Call times are: 6229
C	0.942878	-2.47355	0.722419
O	0.254237	-2.89491	-0.190523
O	1.55782	-1.24278	0.666291
H	1.13114	-3.02754	1.65438
H	2.0771	-1.03904	1.47093
C	-2.61216	2.23415	-2.11585
O	-3.61563	2.92882	-2.21629
O	-2.64528	0.960627	-1.61794
H	-1.6087	2.57006	-2.41386
H	-1.75726	0.53031	-1.60077
C	0.999987	0.419025	-2.01836
O	0.888483	1.55504	-2.43923
O	-0.107183	-0.280093	-1.56231
H	1.94	-0.141446	-1.95889
H	0.0769319	-1.18612	-1.24264
C	1.57672	-0.305174	3.92573
O	2.47477	-0.720766	3.21437
O	0.30728	-0.0782886	3.4429
H	1.69735	-0.0786161	4.99579
H	-0.307525	0.254322	4.12846
C	5.15494	-0.183528	-0.286035
O	4.26553	0.35792	-0.919313
O	5.20736	-0.134387	1.08907
H	5.97899	-0.748675	-0.746952
H	5.97697	-0.613723	1.45859
