25
  This energy is -0.00726563 and Call times are: 8623
C	0.375972	2.54616	0.95134
O	1.45458	2.49324	0.386502
O	-0.741239	1.91294	0.454397
H	0.201743	3.09354	1.88991
H	-1.53402	2.04363	1.01388
C	1.51858	-3.31695	-1.72726
O	1.93606	-4.46755	-1.68976
O	2.06	-2.31246	-0.973114
H	0.68166	-2.99502	-2.36327
H	1.61563	-1.44253	-1.11379
C	-0.26355	0.273686	-2.25942
O	-0.647969	-0.70555	-2.87049
O	0.793472	0.182617	-1.36668
H	-0.691478	1.27895	-2.3467
H	1.03366	1.01976	-0.921185
C	-2.4342	1.12587	3.28597
O	-2.63331	1.9987	2.45907
O	-1.42308	0.201911	3.14455
H	-3.03238	1.00048	4.20104
H	-1.38411	-0.436955	3.88545
C	4.39521	-0.390645	-0.130022
O	3.4902	0.34258	-0.488602
O	5.49061	0.0825165	0.557215
H	4.41765	-1.4744	-0.319438
H	6.13471	-0.620834	0.778645
