25
  This energy is -0.0038055 and Call times are: 5892
C	-0.852511	-2.59297	-0.281195
O	-0.836392	-2.36563	-1.4784
O	0.0508849	-2.01774	0.584291
H	-1.57566	-3.26459	0.205518
H	-0.0836941	-2.29298	1.5142
C	0.644406	3.63557	-1.63065
O	0.349475	4.80874	-1.82114
O	-0.205974	2.60556	-1.92527
H	1.60759	3.31196	-1.21096
H	0.174882	1.71945	-1.71597
C	2.14986	-0.0225316	-0.791781
O	2.80389	0.98072	-0.577719
O	0.873973	0.0636963	-1.32773
H	2.48448	-1.04714	-0.593046
H	0.423085	-0.7934	-1.46576
C	-1.76424	-1.75087	3.43693
O	-0.881552	-2.53242	3.12824
O	-2.15142	-0.721197	2.60871
H	-2.3196	-1.79705	4.38579
H	-2.87051	-0.176136	2.98874
C	5.74448	0.422455	0.00666375
O	5.72009	0.100393	-1.16847
O	5.63866	-0.503162	1.02062
H	5.85107	1.46061	0.355628
H	5.67407	-0.0984727	1.91145
