25
  This energy is 0.00408957 and Call times are: 6369
C	-1.36519	2.37658	-0.132207
O	-0.29615	2.86017	-0.461654
O	-1.72697	1.09517	-0.483159
H	-2.1217	2.90971	0.463071
H	-2.61216	0.84384	-0.148685
C	3.5147	-1.98441	0.0260417
O	4.41925	-2.58495	0.592365
O	3.14478	-0.713932	0.372356
H	2.92793	-2.40955	-0.800721
H	2.40142	-0.366036	-0.175739
C	0.469358	-0.504852	-2.18498
O	0.896578	-1.62538	-2.38991
O	1.01533	0.291161	-1.18957
H	-0.350341	-0.0321279	-2.73808
H	0.609148	1.17622	-1.09654
C	-3.65775	0.154508	2.14185
O	-3.96445	0.487992	1.0105
O	-2.34443	0.0445726	2.54083
H	-4.38794	-0.0837743	2.92985
H	-2.25183	-0.231946	3.47547
C	8.50436	0.297149	-0.224563
O	7.36146	0.275964	-0.647125
O	8.92433	-0.534433	0.789421
H	9.28716	0.969002	-0.607637
H	9.86627	-0.405007	1.02312
