25
  This energy is 0.00295508 and Call times are: 3969
C	-0.33036	-2.70777	-0.296963
O	-1.47835	-2.43575	-0.602503
O	0.724231	-1.87755	-0.604617
H	-0.0396028	-3.62253	0.241153
H	1.58595	-2.22582	-0.296793
C	-1.62678	3.6845	0.264017
O	-1.98788	4.67019	0.894574
O	-2.08881	2.4263	0.53665
H	-0.907876	3.72484	-0.566723
H	-1.70542	1.73779	-0.0574946
C	-0.0884569	0.818347	-2.13818
O	0.238855	1.98218	-2.27405
O	-0.995592	0.446696	-1.15759
H	0.281298	-0.0152655	-2.74618
H	-1.19953	-0.509391	-1.12187
C	2.85162	-2.43983	1.97637
O	2.88994	-2.82016	0.819166
O	1.86825	-1.59205	2.43499
H	3.58445	-2.73383	2.74281
H	1.96597	-1.37305	3.38425
C	7.13687	-0.331502	0.036869
O	7.79898	-0.531338	-0.966585
O	7.3077	0.792665	0.813487
H	6.35906	-1.01751	0.404716
H	6.70677	0.817197	1.58607
