25
  This energy is 0.00026266 and Call times are: 8119
C	2.63111	0.713429	0.312438
O	2.53818	0.200147	1.41386
O	1.93786	0.236031	-0.777324
H	3.26441	1.58655	0.0945164
H	2.11149	0.747894	-1.59369
C	-3.44799	-1.33405	1.61966
O	-4.58387	-1.16807	2.04606
O	-2.36805	-0.660096	2.12005
H	-3.20038	-2.03143	0.806683
H	-1.52185	-0.902446	1.67369
C	0.0500867	-2.28407	-0.172745
O	-0.988768	-2.8119	-0.522406
O	0.0600293	-1.34503	0.847385
H	1.03636	-2.48584	-0.606158
H	0.939513	-0.973813	1.06111
C	1.40608	3.06054	-2.57809
O	2.192	2.14532	-2.75115
O	0.486374	3.05036	-1.55335
H	1.36189	3.95873	-3.21229
H	-0.0771749	3.85086	-1.53894
C	7.12249	0.360997	0.0258936
O	7.79619	-0.408246	-0.637157
O	5.89367	0.00432831	0.534675
H	7.42953	1.38855	0.272388
H	5.46933	0.723587	1.04576
