25
  This energy is -0.000179979 and Call times are: 462
C	0.585975	1.19904	-2.39755
O	-0.442496	1.82904	-2.22266
O	1.39129	0.809135	-1.35088
H	0.955698	0.891616	-3.38735
H	2.1819	0.311057	-1.64321
C	-2.63766	-0.704128	2.97298
O	-3.44545	-1.40924	3.56449
O	-2.76931	-0.385183	1.64941
H	-1.74642	-0.27104	3.44911
H	-2.03967	0.190426	1.31726
C	0.325936	1.65242	1.55326
O	0.321805	1.29483	2.7161
O	-0.683937	1.2611	0.687465
H	1.09005	2.28891	1.0925
H	-0.598697	1.59582	-0.227779
C	2.70498	-2.09686	-2.50536
O	3.20146	-0.989102	-2.3976
O	1.42549	-2.36941	-2.07558
H	3.22408	-2.96093	-2.94674
H	1.16266	-3.30031	-2.22701
C	7.58145	-0.0509722	0.314129
O	6.60613	0.482877	0.813119
O	7.63354	-0.374422	-1.02331
H	8.48935	-0.316934	0.87617
H	8.47822	-0.797413	-1.2806
