25
  This energy is -0.0020659 and Call times are: 4566
C	1.94786	1.81693	0.658735
O	1.0898	2.66037	0.46493
O	1.64864	0.573739	1.16964
H	3.01682	1.9701	0.447153
H	2.43779	0.00310279	1.27072
C	-3.65598	-0.764146	-1.53021
O	-4.40203	-1.1472	-2.42255
O	-2.7478	0.242458	-1.71138
H	-3.65145	-1.19131	-0.517248
H	-2.22062	0.436582	-0.899943
C	-1.46284	0.0754988	1.76174
O	-2.30786	-0.799376	1.78666
O	-1.23129	0.80499	0.605542
H	-0.828676	0.363263	2.6081
H	-0.534022	1.48729	0.678044
C	3.99826	-1.38452	-0.295945
O	3.9166	-0.961291	0.843988
O	3.01723	-1.15236	-1.2339
H	4.84597	-1.97801	-0.670192
H	3.21941	-1.55287	-2.10414
C	7.36557	0.417448	-0.0439195
O	6.88894	0.261894	1.06688
O	7.59696	-0.640215	-0.894728
H	7.64796	1.39705	-0.458078
H	7.98227	-0.3633	-1.75115
