25
  This energy is -0.0173942 and Call times are: 4734
C	-0.880542	2.59684	-0.101901
O	-1.21089	2.33728	-1.2459
O	-0.925104	1.65651	0.903014
H	-0.524332	3.58573	0.223876
H	-0.630715	2.00858	1.76787
C	0.900144	-3.43519	-1.91856
O	1.69257	-4.23909	-2.39332
O	0.867293	-2.1217	-2.29874
H	0.154618	-3.6965	-1.15405
H	0.174147	-1.60113	-1.82694
C	-1.92045	-1.24937	-0.0163902
O	-1.78446	-2.4333	0.228391
O	-1.11266	-0.62139	-0.952169
H	-2.65846	-0.589452	0.453868
H	-1.29332	0.33097	-1.08385
C	1.63906	2.62487	2.9007
O	0.434514	2.74597	3.04089
O	2.18668	1.95713	1.82818
H	2.38184	3.03002	3.60429
H	3.1654	1.94047	1.84885
C	4.38592	-0.0646185	-0.404106
O	3.92826	1.02023	-0.0896367
O	5.11464	-0.83339	0.475685
H	4.2604	-0.517782	-1.39899
H	5.41705	-1.6781	0.0837389
