25
  This energy is -0.00308211 and Call times are: 3847
C	0.297322	2.60741	-0.801453
O	0.476303	2.84786	0.379812
O	0.70318	1.42374	-1.37614
H	-0.194599	3.30051	-1.5004
H	0.492764	1.37169	-2.33093
C	-0.484359	-2.67911	2.97984
O	-1.16287	-3.44444	3.65324
O	-0.787045	-1.35212	2.84435
H	0.416965	-2.9887	2.4318
H	-0.146441	-0.867259	2.27114
C	2.10556	-0.638955	0.638492
O	2.25934	-1.82844	0.842364
O	1.0399	0.0453009	1.20305
H	2.76048	-0.0161263	0.0184458
H	0.995893	0.997835	0.984618
C	-1.63105	0.967138	-3.79406
O	-0.471187	1.33348	-3.86988
O	-2.20237	0.591621	-2.59879
H	-2.31182	0.904881	-4.65637
H	-3.13891	0.32184	-2.69204
C	6.21369	-0.168642	0.23162
O	5.173	-0.516262	0.762063
O	6.23099	0.619461	-0.89739
H	7.21241	-0.447712	0.599839
H	7.13739	0.817865	-1.20995
