25
  This energy is -0.00568106 and Call times are: 4221
C	-2.70361	0.371403	-0.286158
O	-2.76982	0.0824301	0.895936
O	-1.62796	1.05031	-0.813544
H	-3.48159	0.12082	-1.02295
H	-1.71363	1.21208	-1.77536
C	3.10244	-1.34369	2.20477
O	3.97449	-2.1621	2.46808
O	1.77724	-1.67575	2.13806
H	3.3067	-0.2828	2.0014
H	1.19822	-0.907941	1.91613
C	0.678989	1.76319	1.29594
O	1.88178	1.92153	1.38708
O	0.110491	0.515263	1.50102
H	-0.0437092	2.55097	1.05428
H	-0.862686	0.482134	1.40722
C	-1.48311	-0.183416	-3.96954
O	-1.88277	0.890668	-3.555
O	-0.921319	-1.12519	-3.13676
H	-1.53432	-0.490626	-5.02496
H	-0.647291	-1.93742	-3.60983
C	6.68335	-0.222622	0.342524
O	7.85379	-0.495561	0.140492
O	5.98821	0.654279	-0.459908
H	6.08926	-0.643876	1.16746
H	5.05894	0.775623	-0.17646
