25
  This energy is 0.000709814 and Call times are: 6019
C	0.389617	-0.0263226	-2.71603
O	1.57291	0.0915068	-2.44928
O	-0.474243	-0.734394	-1.91076
H	-0.0848455	0.413568	-3.60614
H	-1.39223	-0.742831	-2.25111
C	1.45604	0.656734	3.70679
O	1.5739	1.3269	4.72492
O	1.77611	1.13842	2.46727
H	1.08686	-0.378757	3.70069
H	1.62714	0.479763	1.74754
C	0.863909	-1.99808	0.714608
O	0.619038	-2.29915	1.86764
O	1.35119	-0.738992	0.398663
H	0.731275	-2.65771	-0.150604
H	1.51927	-0.585827	-0.552788
C	-3.39661	0.925791	-2.36569
O	-3.01725	-0.147074	-2.80191
O	-2.63779	1.6677	-1.48828
H	-4.35987	1.38834	-2.62851
H	-3.07026	2.50553	-1.22444
C	8.11874	-0.253365	-0.331201
O	7.96436	0.888228	-0.728915
O	8.48695	-0.531975	0.966053
H	7.98055	-1.14559	-0.960283
H	8.57264	-1.49162	1.14028
