25
  This energy is 0.00044844 and Call times are: 8245
C	1.74308	-1.08327	1.82141
O	2.08095	0.0677706	2.03628
O	0.449145	-1.41497	1.48707
H	2.42776	-1.94312	1.87423
H	0.326728	-2.37579	1.34405
C	-1.23813	3.18701	-2.14515
O	-1.32341	3.83148	-3.18292
O	-0.0370497	2.8239	-1.6007
H	-2.10986	2.84809	-1.5674
H	-0.132995	2.30859	-0.764466
C	-1.56733	1.06953	1.2841
O	-2.56017	1.45536	0.69631
O	-0.300374	1.34589	0.793161
H	-1.57116	0.492336	2.21583
H	0.438348	0.996621	1.33099
C	0.899547	-4.11242	-0.519007
O	0.519425	-4.03748	0.636471
O	1.17377	-2.9929	-1.27238
H	1.05453	-5.06205	-1.05294
H	1.4691	-3.20768	-2.18081
C	12.6927	0.03517	0.41311
O	13.468	0.769423	-0.174304
O	11.7459	-0.710919	-0.252506
H	12.6801	-0.0947366	1.50575
H	11.1953	-1.25253	0.349199
