25
  This energy is -0.000171405 and Call times are: 6453
C	-0.749634	-2.51253	-0.809056
O	-1.18639	-1.95649	-1.80168
O	0.374469	-2.06189	-0.153775
H	-1.20512	-3.4063	-0.356721
H	0.605884	-2.60752	0.62554
C	-0.20304	4.00271	-0.478293
O	-0.612461	5.11459	-0.168956
O	-1.04312	2.9701	-0.792725
H	0.863437	3.74084	-0.529572
H	-0.563079	2.13844	-1.02062
C	1.70742	0.565214	-1.41936
O	2.33711	1.56223	-1.12014
O	0.321198	0.583103	-1.44485
H	2.1484	-0.402034	-1.6863
H	-0.100153	-0.263165	-1.69637
C	-0.280084	-2.92293	3.06081
O	0.470193	-3.42472	2.24196
O	-1.00099	-1.78169	2.78886
H	-0.445302	-3.32859	4.07029
H	-1.55994	-1.49579	3.54014
C	8.69509	-0.377934	-0.19399
O	8.91114	-0.60196	0.984304
O	8.51921	0.90035	-0.674748
H	8.62266	-1.1611	-0.963603
H	8.35402	0.925444	-1.63947
