25
  This energy is -0.000854545 and Call times are: 5049
C	-0.89133	-2.52151	0.613892
O	0.0355367	-2.55091	1.40464
O	-1.5697	-1.35839	0.325717
H	-1.26164	-3.40379	0.0704255
H	-2.28852	-1.48787	-0.3263
C	2.86995	2.82543	0.268244
O	3.8073	3.46875	-0.186858
O	2.87982	1.45947	0.338483
H	1.94935	3.28483	0.655577
H	2.05342	1.08768	0.729453
C	-0.493306	1.24274	1.86053
O	-0.37186	2.4473	1.74064
O	0.517045	0.384281	1.45456
H	-1.36999	0.736573	2.28067
H	0.332354	-0.566912	1.58906
C	-2.47934	-1.8446	-2.90531
O	-3.13425	-1.90296	-1.87919
O	-1.15199	-1.47826	-2.90548
H	-2.88183	-2.07473	-3.90329
H	-0.757213	-1.47618	-3.80144
C	5.69726	-0.286678	-0.081562
O	6.00773	0.19691	-1.15627
O	6.29055	0.108459	1.09655
H	4.93064	-1.06651	0.0411668
H	5.94031	-0.366504	1.8778
