25
  This energy is 0.00186462 and Call times are: 1336
C	-1.82407	0.638506	-1.94792
O	-2.19599	-0.517179	-1.84161
O	-1.34813	1.35507	-0.872704
H	-1.83505	1.20147	-2.89336
H	-1.08687	2.26859	-1.10896
C	1.86297	-2.80863	2.22095
O	2.82398	-3.51678	2.49399
O	1.26589	-2.82039	0.990408
H	1.40179	-2.1097	2.93326
H	0.50469	-2.19559	0.925379
C	-1.26344	-0.265063	1.89282
O	-0.643292	-0.353427	2.93575
O	-0.913802	-1.03316	0.792664
H	-2.11976	0.397674	1.72317
H	-1.46762	-0.896122	-0.00199016
C	0.908138	3.42235	-2.33523
O	-0.212885	3.64375	-1.91152
O	1.50367	2.18652	-2.21636
H	1.53216	4.17484	-2.84047
H	2.40307	2.15807	-2.6022
C	7.39924	-0.125733	-0.0727189
O	6.6996	-1.11387	-0.211759
O	6.87196	1.10266	0.257571
H	8.49271	-0.126588	-0.19614
H	7.5532	1.80161	0.334921
