25
  This energy is -0.0120937 and Call times are: 5850
C	-2.11915	-0.0351952	1.74279
O	-2.10249	1.17858	1.6346
O	-1.78218	-0.866847	0.698331
H	-2.39926	-0.564528	2.66596
H	-1.84169	-1.81574	0.93212
C	2.85499	2.08509	-1.94759
O	4.01038	2.45886	-2.10561
O	2.16972	2.28488	-0.780812
H	2.27464	1.56232	-2.72121
H	1.25007	1.92774	-0.807972
C	-0.921342	0.639881	-1.99775
O	-0.202231	0.528561	-2.97273
O	-0.46426	1.26401	-0.847053
H	-1.95324	0.276499	-1.93113
H	-1.11062	1.30784	-0.114072
C	-0.436236	-3.52932	2.31174
O	-1.52189	-3.39242	1.77523
O	0.521264	-2.54004	2.28705
H	-0.130085	-4.43721	2.85294
H	1.3415	-2.79155	2.75882
C	4.90056	0.0405446	-0.138895
O	5.14055	-1.15429	-0.134107
O	5.83248	0.974882	0.254304
H	3.93729	0.471028	-0.451483
H	5.49861	1.89354	0.197668
