25
  This energy is -0.00900084 and Call times are: 1294
C	-2.07165	0.140982	-1.7938
O	-2.71584	0.597315	-0.865357
O	-0.723213	0.381109	-1.93571
H	-2.50105	-0.490927	-2.58577
H	-0.340598	-0.0493742	-2.72748
C	1.30368	0.189978	3.81523
O	1.68548	-0.322531	4.85981
O	0.0995471	-0.115153	3.24266
H	1.88908	0.931602	3.2532
H	-0.0652622	0.379735	2.40483
C	0.572672	2.18641	0.375504
O	1.6088	2.36515	0.987541
O	-0.381516	1.29491	0.84168
H	0.299748	2.68633	-0.560913
H	-1.18225	1.21565	0.285344
C	0.354601	-2.46448	-3.43382
O	0.167964	-1.3496	-3.88928
O	0.193458	-2.7436	-2.09509
H	0.662338	-3.33034	-4.03921
H	0.377915	-3.67985	-1.87598
C	5.23733	-0.0360476	0.400414
O	6.14581	-0.432054	-0.308876
O	4.04578	0.41521	-0.121738
H	5.28682	-0.00425568	1.49925
H	3.41147	0.700791	0.567247
