25
  This energy is -0.00354568 and Call times are: 8581
C	-2.5005	-1.12831	0.0613974
O	-2.53033	-0.890959	-1.1336
O	-1.33303	-1.46	0.711838
H	-3.38576	-1.09944	0.714371
H	-1.46271	-1.623	1.66851
C	2.79164	2.14109	-1.97843
O	3.41602	3.17107	-2.19949
O	1.42684	2.07907	-2.04441
H	3.26854	1.18743	-1.71071
H	1.07154	1.18111	-1.84077
C	1.27611	-1.51542	-1.15081
O	2.47712	-1.32268	-1.12773
O	0.398791	-0.487443	-1.46086
H	0.787551	-2.47349	-0.939391
H	-0.54786	-0.733998	-1.45535
C	-1.85463	-0.182662	3.81018
O	-1.88949	-1.33327	3.41004
O	-1.50556	0.86643	2.98943
H	-2.0941	0.114938	4.84217
H	-1.5217	1.73116	3.44832
C	6.08872	-0.413902	-0.0361206
O	6.56666	-0.0538508	1.02557
O	5.41473	0.453848	-0.86607
H	6.15166	-1.44369	-0.418844
H	5.08731	0.0237068	-1.68239
