25
  This energy is -0.00435324 and Call times are: 6998
C	-1.60235	1.1045	1.9344
O	-1.68434	2.06039	1.18288
O	-1.49335	-0.185952	1.46649
H	-1.60797	1.1853	3.03183
H	-1.4363	-0.848472	2.18511
C	2.14161	0.433377	-3.39372
O	3.19542	0.555472	-4.00542
O	1.76409	1.29282	-2.39888
H	1.41556	-0.3687	-3.58889
H	0.89	1.06318	-2.0023
C	-1.43332	-0.458618	-1.72759
O	-0.97965	-1.1436	-2.62485
O	-0.736595	0.643046	-1.25486
H	-2.39166	-0.63262	-1.22499
H	-1.17744	1.1343	-0.532859
C	0.370272	-1.6662	3.88294
O	-0.821997	-1.74213	3.64217
O	1.23097	-0.938978	3.09147
H	0.855934	-2.16186	4.73696
H	2.15721	-0.969686	3.40728
C	4.23762	0.0787806	-0.207281
O	4.55962	1.12569	0.32707
O	4.9914	-1.06694	-0.0839397
H	3.33409	-0.0422803	-0.823632
H	4.60968	-1.82824	-0.56697
