25
  This energy is -0.000378383 and Call times are: 4095
C	2.4145	1.25957	0.336195
O	2.57065	1.06708	-0.857035
O	1.17369	1.50387	0.880971
H	3.23433	1.25549	1.0702
H	1.20285	1.63936	1.85019
C	-2.46458	-2.21746	-2.30226
O	-3.00504	-3.27127	-2.61365
O	-1.10548	-2.07907	-2.2346
H	-3.01867	-1.3013	-2.05284
H	-0.823217	-1.17099	-1.97047
C	-1.24673	1.48404	-1.22172
O	-2.43147	1.22564	-1.32029
O	-0.286402	0.516992	-1.47697
H	-0.836209	2.45906	-0.935201
H	0.639749	0.814255	-1.37283
C	1.47292	0.146764	3.97486
O	1.4792	1.31114	3.61511
O	1.26381	-0.889718	3.09278
H	1.63056	-0.174105	5.01558
H	1.28623	-1.76815	3.52458
C	9.14581	-0.141421	0.397985
O	7.94784	-0.00604793	0.219716
O	10.0678	0.144212	-0.584023
H	9.58898	-0.496788	1.34044
H	10.9909	-0.0120914	-0.297365
