25
  This energy is -0.00117375 and Call times are: 7457
C	0.897579	0.302514	2.5753
O	0.799801	-0.910063	2.6483
O	1.24867	0.938431	1.4055
H	0.717751	0.983967	3.4204
H	1.28721	1.91239	1.4978
C	-1.65113	-2.33833	-2.84563
O	-2.59163	-2.70824	-3.53717
O	-1.69763	-2.33875	-1.47862
H	-0.698342	-1.97781	-3.2589
H	-0.862944	-2.01341	-1.0645
C	1.74208	-1.01224	-1.0908
O	1.65036	-1.06326	-2.30286
O	0.68679	-1.40685	-0.282584
H	2.62405	-0.666315	-0.539665
H	0.849955	-1.33171	0.679029
C	-0.421463	3.87915	1.66285
O	0.760906	3.62265	1.8093
O	-1.33412	2.92379	1.27503
H	-0.856798	4.87684	1.82411
H	-2.24479	3.27521	1.1989
C	5.65228	-0.216839	0.0968184
O	5.49342	-0.342916	-1.10489
O	4.78399	0.514413	0.876192
H	6.48679	-0.666879	0.655352
H	5.03853	0.526951	1.82153
