25
  This energy is 0.000404863 and Call times are: 8161
C	-1.28802	-1.33902	-2.01925
O	-2.24567	-0.638569	-1.74086
O	0.00708715	-0.885297	-1.90564
H	-1.37076	-2.37566	-2.37902
H	0.670523	-1.55743	-2.16388
C	-0.173557	2.48116	3.1789
O	-0.170203	2.70696	4.38247
O	-1.07301	1.63469	2.59123
H	0.538164	2.93417	2.47405
H	-0.948124	1.55673	1.61534
C	0.290251	2.1189	-0.821787
O	1.02521	2.84174	-0.175688
O	-0.722892	1.40249	-0.203033
H	0.349825	1.96656	-1.90555
H	-1.26366	0.848015	-0.80061
C	1.69163	-3.72351	-1.12445
O	1.62762	-3.10111	-2.17028
O	1.07169	-3.2871	0.0250268
H	2.2394	-4.67069	-1.00738
H	1.21028	-3.88878	0.784873
C	8.96095	0.128616	0.371541
O	9.09121	1.06391	-0.398848
O	8.38593	-1.06157	-0.0142888
H	9.28458	0.150951	1.42305
H	8.3489	-1.71948	0.709861
