25
  This energy is -0.00307077 and Call times are: 6187
C	-1.84065	1.43375	1.44419
O	-0.964384	1.52452	2.28631
O	-1.55922	1.40526	0.0965807
H	-2.91337	1.36779	1.68044
H	-2.36189	1.32982	-0.458966
C	3.53519	-1.94148	-0.157254
O	4.21614	-2.95913	-0.174247
O	2.65577	-1.66098	0.852104
H	3.57118	-1.17351	-0.943064
H	2.18181	-0.804895	0.723529
C	1.55999	1.5552	-0.630166
O	2.37255	1.18576	-1.45682
O	1.29155	0.787322	0.492722
H	0.984651	2.48649	-0.684604
H	0.624784	1.16255	1.10231
C	-4.05645	-0.545246	-1.11287
O	-3.89633	0.661776	-1.16482
O	-3.12108	-1.38306	-0.547871
H	-4.94472	-1.06318	-1.50481
H	-3.38567	-2.32523	-0.577879
C	6.92593	-0.251367	0.334394
O	8.12695	-0.296967	0.132598
O	6.08207	0.507933	-0.444985
H	6.41858	-0.801652	1.14104
H	5.14595	0.446458	-0.164817
