25
  This energy is 0.00119395 and Call times are: 4179
C	-0.849682	-0.907713	2.44611
O	-0.751837	-2.02023	1.95828
O	-0.00232795	0.120273	2.09781
H	-1.60844	-0.630637	3.19338
H	-0.200792	0.954558	2.57023
C	0.777321	-0.73182	-3.89254
O	0.503936	-0.673527	-5.08479
O	-0.0585219	-1.30292	-2.97271
H	1.70796	-0.334612	-3.46277
H	0.30132	-1.27325	-2.05419
C	2.19786	-0.638077	-0.10769
O	2.84301	-0.163829	-1.02364
O	0.961363	-1.22138	-0.33878
H	2.51132	-0.652602	0.942464
H	0.514813	-1.57605	0.456061
C	-2.00256	2.83869	2.43355
O	-1.10661	2.41994	3.1457
O	-2.32627	2.23877	1.23714
H	-2.62053	3.71581	2.6778
H	-3.06541	2.68444	0.774914
C	9.15528	0.319566	0.114891
O	9.30735	0.176097	-1.08575
O	8.29119	-0.46866	0.841612
H	9.68407	1.07641	0.713617
H	8.27368	-0.238243	1.79304
