25
  This energy is -0.00240562 and Call times are: 3448
C	-1.1924	2.27183	0.972782
O	-0.144795	2.82597	0.688716
O	-1.69117	1.22588	0.228953
H	-1.82079	2.55195	1.8316
H	-2.53938	0.881546	0.576211
C	3.33104	-1.90543	-1.25107
O	4.257	-2.69131	-1.09429
O	3.10533	-0.855357	-0.404149
H	2.6088	-1.97489	-2.07698
H	2.32256	-0.312842	-0.662968
C	0.132894	0.354306	-2.25968
O	0.445258	-0.611704	-2.93001
O	0.864728	0.703512	-1.13493
H	-0.716813	1.01549	-2.46492
H	0.540818	1.49382	-0.658003
C	-3.31516	-0.607633	2.57508
O	-3.74592	0.135478	1.71052
O	-1.97175	-0.883153	2.69933
H	-3.94823	-1.11468	3.31874
H	-1.77484	-1.49526	3.43767
C	6.57216	-0.161413	0.216704
O	7.21965	-1.11376	-0.182103
O	6.94098	1.1376	-0.0527511
H	5.65352	-0.252391	0.81564
H	6.32641	1.79588	0.331417
