25
  This energy is 0.000559452 and Call times are: 1168
C	-2.48708	0.834869	-0.804208
O	-2.91068	-0.0509394	-0.0823036
O	-1.34115	1.53697	-0.504283
H	-2.97248	1.14665	-1.74127
H	-1.12414	2.21678	-1.17463
C	2.30794	-2.75441	1.83801
O	3.09654	-3.69124	1.82999
O	1.09557	-2.80732	1.20695
H	2.50377	-1.80012	2.34746
H	0.573836	-1.97523	1.30417
C	0.124082	0.62966	2.19942
O	1.22309	0.543452	2.71405
O	-0.405744	-0.428792	1.47725
H	-0.528398	1.50883	2.25057
H	-1.29412	-0.270064	1.09967
C	-0.122521	2.26357	-3.58494
O	-0.696167	2.96757	-2.77219
O	0.197836	0.951217	-3.31816
H	0.184575	2.60656	-4.58441
H	0.655987	0.511577	-4.06342
C	7.24345	0.0284649	-0.420098
O	8.44792	-0.0180268	-0.240302
O	6.34644	-0.0121099	0.623837
H	6.77435	0.105463	-1.41253
H	5.41438	0.0339019	0.327587
