25
  This energy is -0.00519444 and Call times are: 5627
C	0.00586242	0.244815	2.73301
O	-0.275888	-0.940835	2.74229
O	0.815543	0.796181	1.76529
H	-0.354157	0.966288	3.48186
H	0.953556	1.75791	1.88629
C	-0.894718	-2.16548	-3.28662
O	-1.58705	-2.42188	-4.26362
O	-1.40052	-2.12378	-2.01646
H	0.181522	-1.94895	-3.34492
H	-0.718968	-1.90437	-1.33721
C	1.85235	-1.26816	-0.45814
O	2.17001	-1.33793	-1.63045
O	0.542399	-1.49415	-0.063765
H	2.5344	-1.03121	0.366452
H	0.379284	-1.41678	0.897679
C	-0.423821	3.9426	1.5056
O	0.592329	3.53145	2.03817
O	-1.27314	3.11055	0.811029
H	-0.747087	4.99414	1.53151
H	-2.04712	3.58055	0.438662
C	5.81239	0.0763526	-0.0677634
O	5.37604	1.05288	0.516385
O	5.01603	-1.00055	-0.387386
H	6.86049	-0.030142	-0.385649
H	5.50327	-1.70957	-0.854815
