25
  This energy is -0.00514202 and Call times are: 4828
C	-0.277358	0.726094	2.63158
O	-1.40312	0.268817	2.5378
O	0.787364	0.195157	1.93836
H	-0.0161571	1.58667	3.26569
H	1.62832	0.665258	2.11272
C	-1.68311	-1.2483	-3.44972
O	-2.10015	-1.06021	-4.58563
O	-2.1495	-0.550945	-2.36942
H	-0.906264	-1.9858	-3.20236
H	-1.71623	-0.816075	-1.52324
C	0.0578619	-2.2899	0.0482678
O	0.381032	-2.83378	-0.990888
O	-0.913853	-1.30085	0.0585919
H	0.48018	-2.51396	1.03454
H	-1.10905	-0.920081	0.938299
C	2.72786	2.92615	1.4096
O	2.85443	2.00277	2.19483
O	1.70429	2.96816	0.489492
H	3.40636	3.79141	1.36639
H	1.73031	3.76883	-0.0734021
C	3.37664	-0.275228	0.0133191
O	4.01863	-0.453379	1.03379
O	3.73749	0.668864	-0.921853
H	2.46958	-0.841301	-0.246907
H	3.12878	0.698478	-1.68815
