25
  This energy is 0.000816908 and Call times are: 6411
C	-1.65116	0.966278	-1.96706
O	-2.34555	-0.00585646	-1.7262
O	-0.92571	1.6071	-0.987698
H	-1.54386	1.41002	-2.9683
H	-0.416162	2.37046	-1.32865
C	1.05358	-3.00804	2.47656
O	1.77189	-3.94372	2.80538
O	0.415271	-2.95943	1.26781
H	0.861512	-2.13555	3.11722
H	-0.126473	-2.14285	1.1506
C	-1.1815	0.318385	1.93701
O	-0.561228	0.149383	2.96986
O	-1.13718	-0.62406	0.920937
H	-1.80813	1.18946	1.71369
H	-1.6664	-0.404573	0.128015
C	1.76391	2.73828	-2.7168
O	0.784878	3.32977	-2.29624
O	1.9679	1.39808	-2.47525
H	2.55646	3.2125	-3.31503
H	2.79555	1.06039	-2.8747
C	10.0788	0.236756	0.331269
O	9.60353	-0.870928	0.511376
O	10.8434	0.53308	-0.774888
H	9.94219	1.08212	1.02236
H	11.1564	1.46075	-0.784596
