25
  This energy is 0.00160307 and Call times are: 3805
C	-1.80603	-1.79703	1.01897
O	-2.60335	-0.876803	0.967059
O	-0.796193	-1.94228	0.0941878
H	-1.82132	-2.57837	1.79367
H	-0.234702	-2.72642	0.26287
C	0.961168	3.81214	-0.914
O	1.54846	4.86548	-0.70148
O	0.114798	3.2442	-0.00187112
H	1.06207	3.23791	-1.84602
H	-0.281973	2.398	-0.318978
C	-0.694672	0.338629	-2.15687
O	0.0774774	0.948088	-2.87272
O	-1.02525	0.819372	-0.899026
H	-1.1844	-0.606285	-2.41877
H	-1.6528	0.26404	-0.394296
C	1.65542	-3.39129	1.9363
O	0.903636	-3.86571	1.10264
O	1.65658	-2.0481	2.23946
H	2.38577	-3.98174	2.50977
H	2.31286	-1.81303	2.92694
C	7.38531	-0.294071	0.294509
O	7.53645	-0.83861	-0.78525
O	7.00836	1.02602	0.401042
H	7.53349	-0.79822	1.26135
H	6.92667	1.3254	1.32965
