25
  This energy is -0.00665236 and Call times are: 6769
C	-0.258913	0.723907	2.63406
O	-1.37919	0.251053	2.55269
O	0.805494	0.207285	1.92963
H	-0.00279951	1.58842	3.26487
H	1.6417	0.689079	2.09465
C	-1.70287	-1.27369	-3.43069
O	-2.13473	-1.09213	-4.56211
O	-2.16716	-0.582148	-2.34575
H	-0.913276	-2.00022	-3.19138
H	-1.72114	-0.840712	-1.50418
C	0.09004	-2.28885	0.0487901
O	0.40945	-2.82889	-0.993527
O	-0.895091	-1.31331	0.0691267
H	0.526051	-2.50641	1.03055
H	-1.08602	-0.934711	0.950702
C	2.70221	2.96449	1.37854
O	2.85002	2.04346	2.16282
O	1.66827	2.99175	0.469537
H	3.36817	3.83902	1.32756
H	1.67714	3.79233	-0.0940074
C	4.99154	0.0633503	-0.302461
O	4.93883	1.09615	0.34236
O	4.20372	-1.02581	-0.00389969
H	5.65978	-0.088273	-1.16349
H	4.35483	-1.78233	-0.606769
