25
  This energy is -0.00700831 and Call times are: 3574
C	-0.200866	2.56965	-0.941202
O	0.0828495	2.09096	-2.02545
O	-0.941237	1.87863	-0.00823996
H	0.102963	3.57644	-0.617206
H	-1.09021	2.3888	0.814039
C	1.13224	-3.82977	-0.585273
O	1.893	-4.77516	-0.420751
O	1.54633	-2.63295	-1.10202
H	0.0622642	-3.86056	-0.334715
H	0.817589	-1.97125	-1.17362
C	-1.8115	-1.07538	-0.900739
O	-2.04481	-2.18357	-0.456239
O	-0.532283	-0.730118	-1.30934
H	-2.55112	-0.27511	-1.0183
H	-0.438162	0.18095	-1.65294
C	0.304591	3.06707	2.91391
O	-0.745694	3.30567	2.34364
O	1.20348	2.14133	2.4332
H	0.622233	3.55996	3.84507
H	2.00065	2.05649	2.99527
C	4.16331	-0.0320385	0.351343
O	5.28537	0.266249	0.72182
O	3.85416	-0.202585	-0.9796
H	3.314	-0.188618	1.0333
H	2.91565	-0.440295	-1.12555
