25
  This energy is -0.00342391 and Call times are: 6905
C	-2.20764	0.964331	-1.31368
O	-2.51437	-0.206658	-1.45487
O	-1.54029	1.41562	-0.196955
H	-2.43191	1.74992	-2.05087
H	-1.36148	2.37789	-0.222629
C	2.36775	-3.11975	0.976013
O	3.3854	-3.79042	0.856979
O	1.52847	-2.86295	-0.073052
H	2.04395	-2.67081	1.92585
H	0.751929	-2.30942	0.181189
C	-0.833651	-0.852269	1.95652
O	-0.00781112	-1.15487	2.79707
O	-0.697478	-1.27675	0.643574
H	-1.72608	-0.243205	2.14064
H	-1.4083	-0.986008	0.037636
C	0.299264	3.97457	-1.45044
O	-0.715286	3.9829	-0.775268
O	0.943414	2.80516	-1.78751
H	0.781648	4.88229	-1.8432
H	1.74336	2.95389	-2.3321
C	3.89402	0.215943	0.35358
O	2.85763	0.694538	-0.0731352
O	4.53607	-0.822635	-0.282974
H	4.3993	0.563774	1.26715
H	5.35537	-1.10198	0.174534
