25
  This energy is 0.00151641 and Call times are: 4011
C	-0.290864	-1.76894	2.07739
O	-0.197301	-0.789341	2.79632
O	-0.88647	-1.71128	0.837232
H	0.0845543	-2.76695	2.34932
H	-0.888721	-2.57433	0.374916
C	0.933827	3.70752	-1.29381
O	1.6891	4.51825	-1.81521
O	1.28652	2.97407	-0.194474
H	-0.0819969	3.50109	-1.65996
H	0.571292	2.36508	0.108211
C	-1.95767	1.19029	-0.00749809
O	-2.14163	1.90152	-0.977236
O	-0.753685	1.22524	0.679348
H	-2.68785	0.483518	0.403119
H	-0.695293	0.619762	1.44548
C	0.842497	-4.05959	-0.894678
O	-0.280353	-4.08896	-0.421834
O	1.6302	-2.93158	-0.838091
H	1.3178	-4.91442	-1.39892
H	2.50556	-3.05642	-1.25851
C	9.23092	-0.416721	0.0454118
O	10.1562	-0.141164	0.789189
O	8.6152	0.533371	-0.738354
H	8.81312	-1.42881	-0.0642529
H	7.88943	0.166022	-1.28325
