25
  This energy is 0.00152528 and Call times are: 7755
C	-1.01121	-1.96494	-1.6266
O	-0.683093	-1.23637	-2.5468
O	-0.292082	-2.03069	-0.454159
H	-1.89352	-2.62212	-1.64971
H	-0.674507	-2.65808	0.192936
C	1.37672	3.76825	0.443404
O	1.25429	4.93585	0.791688
O	0.525455	3.17223	-0.445969
H	2.17263	3.10507	0.811232
H	0.75466	2.22935	-0.626213
C	2.26454	-0.0995548	-0.333574
O	2.94317	0.548541	0.440716
O	1.17151	0.471312	-0.967574
H	2.43797	-1.14923	-0.596981
H	0.684977	-0.124064	-1.57238
C	-2.70869	-2.70374	1.82847
O	-1.8593	-3.42559	1.33582
O	-2.77985	-1.35855	1.54302
H	-3.47916	-3.05507	2.53122
H	-3.51202	-0.9077	2.01126
C	8.59066	0.231037	-0.206461
O	7.54659	0.855912	-0.274921
O	8.67683	-0.979318	0.444449
H	9.53875	0.571109	-0.649627
H	9.57699	-1.36348	0.417393
