25
  This energy is -0.0018591 and Call times are: 7174
C	0.246974	0.487587	2.68898
O	1.44303	0.560417	2.46678
O	-0.693458	0.895799	1.76972
H	-0.179937	0.0970754	3.62501
H	-1.61237	0.777758	2.08636
C	1.72902	-0.889837	-3.537
O	2.01787	-1.66367	-4.44106
O	2.07288	-1.11974	-2.23324
H	1.1744	0.046448	-3.69303
H	1.76996	-0.405609	-1.62308
C	0.511837	2.00314	-0.987301
O	0.271106	2.08428	-2.17707
O	1.20834	0.918164	-0.477132
H	0.217782	2.74209	-0.233128
H	1.35597	0.937268	0.489723
C	-3.27581	-1.20828	2.40825
O	-3.12334	-0.0317171	2.68698
O	-2.35132	-1.90963	1.66696
H	-4.14812	-1.80346	2.71766
H	-2.60778	-2.84341	1.52248
C	5.81846	-0.135771	-0.40214
O	4.90236	0.666571	-0.354567
O	6.57096	-0.452617	0.706647
H	6.12021	-0.668064	-1.31675
H	7.27049	-1.11094	0.5172
