25
  This energy is -0.00847859 and Call times are: 5489
C	0.304362	-1.08356	2.50252
O	0.81778	-0.0176977	2.79506
O	-0.71981	-1.17463	1.58663
H	0.607017	-2.04899	2.93524
H	-1.0315	-2.09316	1.45337
C	0.872326	2.92227	-2.64406
O	1.4675	3.36298	-3.61932
O	1.5219	2.40892	-1.5553
H	-0.223596	2.9012	-2.55987
H	0.905472	2.0944	-0.851641
C	-1.6029	1.61403	0.273743
O	-2.05134	2.09447	-0.750062
O	-0.234038	1.5033	0.464837
H	-2.20423	1.23767	1.10924
H	0.035125	1.1052	1.31691
C	-0.18445	-4.23185	0.21907
O	-1.01798	-3.85841	1.02592
O	0.716146	-3.36366	-0.356477
H	-0.0789763	-5.275	-0.115014
H	1.32382	-3.80555	-0.984216
C	3.84222	-0.0909883	-0.325209
O	4.78731	-0.855216	-0.414741
O	3.74899	0.841159	0.683988
H	2.99596	-0.0776355	-1.02847
H	2.9362	1.38412	0.627538
