25
  This energy is -0.00252086 and Call times are: 1462
C	-2.25113	0.56617	-1.46329
O	-2.80357	-0.250798	-0.747329
O	-1.23482	1.37302	-1.00265
H	-2.50968	0.728966	-2.52043
H	-0.888008	1.97874	-1.68926
C	1.89749	-2.35292	2.67488
O	2.69731	-3.23015	2.97545
O	0.873091	-2.56153	1.79285
H	1.93296	-1.33288	3.08334
H	0.314644	-1.7597	1.65412
C	-0.425739	0.899884	2.06356
O	0.521217	0.94911	2.82576
O	-0.731052	-0.271083	1.38666
H	-1.10173	1.73418	1.84382
H	-1.50877	-0.218005	0.79564
C	0.657057	1.7967	-3.78559
O	-0.117888	2.55551	-3.2298
O	0.949961	0.550436	-3.27853
H	1.18145	2.03461	-4.72331
H	1.58754	0.0541138	-3.83147
C	6.23856	-0.28976	-0.199047
O	5.23232	-0.154764	-0.873216
O	6.44055	0.420633	0.963111
H	7.05913	-0.977408	-0.453425
H	7.29222	0.207991	1.39675
