25
  This energy is 0.00275275 and Call times are: 7132
C	-0.77981	2.62164	0.21968
O	-0.684037	2.65022	-0.994917
O	-1.18032	1.49038	0.894914
H	-0.559331	3.47976	0.872306
H	-1.21052	1.61633	1.86539
C	1.51177	-2.99246	-2.24754
O	2.4187	-3.7374	-2.59699
O	1.61956	-1.62968	-2.2933
H	0.542941	-3.35035	-1.87089
H	0.805696	-1.16794	-1.9795
C	-1.79358	-1.04405	-0.970749
O	-1.75657	-2.26002	-0.981909
O	-0.704784	-0.29755	-1.39481
H	-2.64845	-0.4427	-0.64078
H	-0.824312	0.672381	-1.35106
C	0.512229	1.76898	3.82085
O	-0.663462	1.95996	3.56294
O	1.40248	1.30926	2.87629
H	0.958622	1.94324	4.81144
H	2.3103	1.20384	3.22749
C	7.92981	0.384442	0.178342
O	7.05178	0.46569	-0.662911
O	8.61636	-0.78695	0.407589
H	8.24619	1.22278	0.817088
H	9.29145	-0.701632	1.11156
