25
  This energy is -0.00415415 and Call times are: 7881
C	-1.26497	-0.394018	2.4029
O	-1.97692	-1.17026	1.78988
O	0.0640813	-0.217475	2.08899
H	-1.61327	0.222759	3.24503
H	0.508457	0.436765	2.66614
C	0.0690935	-0.493242	-4.00545
O	-0.0723537	-0.0888092	-5.15262
O	-0.934369	-0.440828	-3.07744
H	1.0045	-0.928735	-3.62606
H	-0.667086	-0.804656	-2.19982
C	1.10627	-1.96884	-0.386233
O	1.9063	-1.95613	-1.30268
O	-0.178907	-1.47822	-0.560006
H	1.30829	-2.35016	0.621275
H	-0.752786	-1.52875	0.230613
C	0.564836	3.03546	2.90817
O	0.896844	2.0126	3.48156
O	-0.0770456	3.01524	1.69012
H	0.74458	4.04622	3.30436
H	-0.281323	3.91107	1.35195
C	4.27362	-0.16093	-0.386228
O	4.43453	-1.07686	0.401439
O	3.92152	1.10469	0.0264362
H	4.39284	-0.261177	-1.47556
H	3.82799	1.73563	-0.716381
