25
  This energy is -0.000800761 and Call times are: 7090
C	-1.74427	-2.118	0.0308307
O	-2.59914	-1.28455	0.275374
O	-0.660291	-1.83962	-0.771405
H	-1.76165	-3.14669	0.421211
H	-0.0584421	-2.6045	-0.877923
C	0.752206	3.8858	0.791478
O	1.24524	4.78181	1.46502
O	-0.117314	2.96706	1.3118
H	0.963299	3.74361	-0.278008
H	-0.427814	2.30933	0.644703
C	-0.553761	1.16108	-1.89593
O	0.224287	2.03539	-2.22806
O	-1.011	1.07751	-0.589597
H	-0.953804	0.387534	-2.56143
H	-1.6333	0.343436	-0.413939
C	1.74382	-3.82525	0.563115
O	1.09231	-3.94609	-0.459708
O	1.62639	-2.72189	1.37852
H	2.46951	-4.57179	0.919428
H	2.21094	-2.76356	2.16285
C	6.40595	-0.0378431	0.119424
O	5.75873	0.0855915	1.14466
O	5.81339	-0.0380741	-1.12353
H	7.49955	-0.157725	0.0955939
H	6.45757	-0.145819	-1.85294
