25
  This energy is 0.000503832 and Call times are: 5977
C	0.938639	0.136615	-2.57481
O	0.107371	1.01459	-2.72773
O	1.58755	-0.0547443	-1.37548
H	1.23903	-0.567514	-3.36529
H	2.22683	-0.795839	-1.40194
C	-2.80227	0.998692	2.72792
O	-3.78097	0.750884	3.42098
O	-2.8131	0.87068	1.36617
H	-1.84064	1.34176	3.13553
H	-1.95011	1.10741	0.949933
C	0.709528	1.95315	0.964939
O	0.583191	2.02382	2.17289
O	-0.346014	1.54403	0.164299
H	1.62489	2.19336	0.412035
H	-0.153517	1.51731	-0.794449
C	2.12125	-3.40416	-1.37933
O	2.88802	-2.47822	-1.57919
O	0.804901	-3.2008	-1.03012
H	2.4063	-4.46406	-1.45841
H	0.310978	-4.03643	-0.902197
C	5.98234	-0.282087	-0.00327987
O	7.00976	-0.923578	-0.13795
O	5.98805	1.08894	0.12449
H	4.97851	-0.731823	0.0276505
H	5.09017	1.46618	0.225032
