25
  This energy is -0.014118 and Call times are: 704
C	0.399182	0.271471	2.70117
O	0.724352	1.41644	2.43935
O	-0.568406	-0.395805	1.98381
H	0.840631	-0.319657	3.51762
H	-0.723268	-1.30655	2.30812
C	0.468478	1.4481	-3.73834
O	1.01399	1.47049	-4.83447
O	1.15903	1.61095	-2.56895
H	-0.611665	1.29683	-3.60055
H	0.580431	1.56842	-1.77055
C	-1.85037	1.28093	-0.429745
O	-2.33919	1.15131	-1.53625
O	-0.488077	1.4887	-0.276247
H	-2.40809	1.24841	0.513215
H	-0.18417	1.58175	0.648928
C	0.49564	-3.61089	2.16941
O	-0.41149	-3.0405	2.74994
O	1.26112	-2.98198	1.21307
H	0.778521	-4.65823	2.35369
H	1.95109	-3.56392	0.833753
C	4.00112	0.0664816	-0.368269
O	4.85003	-0.309704	0.421083
O	2.67942	0.206957	-0.00847041
H	4.21047	0.322381	-1.41784
H	2.11449	0.516697	-0.745706
