25
  This energy is -0.00685333 and Call times are: 7839
C	-0.654943	2.3025	-1.34122
O	-1.25904	2.60561	-0.327113
O	0.507518	1.56522	-1.30681
H	-0.977694	2.58506	-2.35458
H	0.879938	1.39891	-2.1969
C	-0.569048	-2.46222	3.14727
O	-1.01819	-3.47647	3.66607
O	-1.3617	-1.55046	2.50596
H	0.498404	-2.19934	3.15188
H	-0.853505	-0.787245	2.1409
C	1.45875	0.688735	1.62696
O	2.04418	-0.195842	2.22269
O	0.0838434	0.638125	1.45483
H	1.93359	1.57296	1.18654
H	-0.300917	1.39179	0.964005
C	0.347027	-0.156803	-4.2244
O	1.0198	0.809234	-3.90913
O	-0.48832	-0.78888	-3.33067
H	0.346826	-0.601452	-5.23097
H	-0.964331	-1.54807	-3.72518
C	4.60306	-0.302793	0.223657
O	3.72858	0.43598	-0.194366
O	5.93527	-0.0858719	-0.0488009
H	4.41035	-1.19127	0.843637
H	6.52113	-0.759882	0.352553
