25
  This energy is -0.012302 and Call times are: 3302
C	-2.51482	-0.948369	0.552799
O	-2.48576	-0.189001	1.50556
O	-1.89329	-0.649826	-0.639106
H	-3.02986	-1.92079	0.559476
H	-2.00158	-1.35271	-1.31204
C	3.25052	2.09272	1.16029
O	4.39978	2.17317	1.57542
O	2.26917	1.4208	1.83582
H	2.91152	2.54852	0.21907
H	1.39712	1.44597	1.37438
C	-0.347476	2.15884	-0.684117
O	0.612669	2.71906	-1.17845
O	-0.231687	1.48478	0.522036
H	-1.35308	2.13016	-1.11913
H	-1.05466	1.06467	0.843281
C	-1.00455	-3.7216	-1.7695
O	-1.90347	-2.97677	-2.11939
O	-0.0905328	-3.36131	-0.804702
H	-0.84599	-4.72824	-2.18475
H	0.572441	-4.05974	-0.627896
C	5.78895	-0.0790081	0.0726853
O	6.02009	-0.482887	-1.05368
O	6.76187	0.502089	0.854874
H	4.80218	-0.14124	0.555725
H	6.43026	0.777231	1.73404
