25
  This energy is -0.00142534 and Call times are: 2456
C	1.75404	-2.10901	0.0689801
O	2.58831	-1.30082	-0.299883
O	0.71466	-1.75843	0.901359
H	1.75654	-3.16967	-0.224082
H	0.124851	-2.51088	1.11241
C	-0.821319	3.79362	-1.10705
O	-1.35718	4.62198	-1.83249
O	0.023984	2.83154	-1.5874
H	-0.971462	3.75177	-0.018802
H	0.375634	2.23954	-0.88035
C	0.650836	1.33413	1.74523
O	-0.11334	2.23452	2.03751
O	1.03504	1.12943	0.428777
H	1.09258	0.626814	2.45647
H	1.6515	0.38307	0.287696
C	-1.74674	-3.86373	-0.104936
O	-1.03839	-3.88742	0.886483
O	-1.6824	-2.8413	-1.02503
H	-2.48613	-4.6414	-0.34872
H	-2.3095	-2.95701	-1.76797
C	5.77742	-0.019569	-0.0391492
O	6.236	-0.675412	-0.958288
O	6.58338	0.612954	0.880854
H	4.70017	0.123007	0.134394
H	6.07545	1.10124	1.56069
