44
  This energy is -1.9297 and Call times are: 125449
C	-0.764272	2.75674	-1.98215
C	-0.785052	2.03473	-0.690097
O	-1.12142	2.59613	0.343392
H	-1.07033	3.81277	-1.81774
H	-1.47165	2.28453	-2.69586
H	0.259374	2.74209	-2.4123
N	-0.417017	0.751783	-0.721221
C	-0.345492	-0.0689956	0.461897
C	0.711014	-1.13395	0.235582
O	1.219	-1.29159	-0.872939
H	-0.106592	0.319958	-1.56326
H	-0.0188343	0.536941	1.29782
C	-1.71309	-0.718988	0.76592
H	-2.04372	-1.34915	-0.0870857
H	-1.67455	-1.34251	1.68257
H	-2.47234	0.0785846	0.920096
N	1.07412	-1.8888	1.29123
C	2.07553	-2.92284	1.17232
H	0.654729	-1.74359	2.18122
H	2.23439	-3.43062	2.14912
H	3.04744	-2.49193	0.839172
H	1.76326	-3.68841	0.42564
C	7.94646	-2.11868	2.13865
C	7.08759	-0.939547	1.88736
O	6.5374	-0.349661	2.807
H	7.96199	-2.33612	3.22876
H	8.98356	-1.91635	1.79773
H	7.54708	-3.00451	1.60118
N	6.95037	-0.566086	0.612964
C	6.11307	0.535451	0.20787
C	5.6228	0.263417	-1.20181
O	6.07792	-0.671898	-1.85737
H	7.37154	-1.08099	-0.128212
H	5.24206	0.577032	0.84992
C	6.89058	1.86875	0.262897
H	7.77841	1.83036	-0.403687
H	6.25263	2.72647	-0.0335185
H	7.24658	2.04339	1.3017
N	4.67007	1.07581	-1.70015
C	4.13861	0.89046	-3.03032
H	4.31129	1.8248	-1.153
H	3.36555	1.65788	-3.25541
H	3.67237	-0.116473	-3.13023
H	4.94751	0.973442	-3.79187
