44
  This energy is -6.3291 and Call times are: 125514
C	-0.652735	1.31023	3.15752
C	-0.294402	0.188472	2.26064
O	0.108628	-0.876139	2.7085
H	-0.474446	1.00837	4.21249
H	-1.72495	1.57098	3.03463
H	-0.0277297	2.19879	2.92747
N	-0.433928	0.407795	0.951131
C	-0.084846	-0.572818	-0.0464163
C	0.316158	0.161763	-1.31178
O	0.150998	1.37581	-1.4144
H	-0.72419	1.29344	0.600066
H	0.779427	-1.1321	0.289533
C	-1.27019	-1.52301	-0.324486
H	-2.15384	-0.95087	-0.679242
H	-1.00939	-2.29136	-1.08089
H	-1.55172	-2.04377	0.616739
N	0.864128	-0.56183	-2.30785
C	1.28152	0.0520644	-3.54685
H	0.99349	-1.54248	-2.2046
H	1.70732	-0.707961	-4.23842
H	2.05797	0.82853	-3.35843
H	0.418563	0.542424	-4.0528
C	4.332	2.71057	-2.17655
C	4.6066	2.1226	-0.84612
O	5.16435	2.77004	0.0291748
H	4.72108	3.75155	-2.20544
H	3.23851	2.73015	-2.36799
H	4.83515	2.11676	-2.96858
N	4.21572	0.859164	-0.66352
C	4.45221	0.138004	0.562268
C	4.55989	-1.33818	0.229318
O	4.28651	-1.75157	-0.895882
H	3.79977	0.331901	-1.39894
H	5.40325	0.444793	0.979423
C	3.31231	0.382887	1.57513
H	2.33787	0.0585605	1.15166
H	3.48971	-0.156045	2.52834
H	3.24668	1.47026	1.79798
N	4.97199	-2.17088	1.20543
C	5.10975	-3.5908	0.979534
H	5.19254	-1.81708	2.10835
H	5.46004	-4.10365	1.90231
H	5.84579	-3.78969	0.167149
H	4.13446	-4.03737	0.678677
