44
  This energy is -4.4324 and Call times are: 134524
C	-2.70217	1.1749	1.85218
C	-1.2738	1.20958	1.46528
O	-0.547193	2.13182	1.80868
H	-2.94478	2.08466	2.44324
H	-2.90896	0.277591	2.47251
H	-3.34368	1.15342	0.94603
N	-0.834012	0.187951	0.726868
C	0.51969	0.103532	0.23807
C	0.507648	-0.693594	-1.05267
O	-0.508608	-1.27888	-1.42195
H	-1.4473	-0.534592	0.420791
H	0.876108	1.09792	-0.000230132
C	1.44165	-0.566993	1.28
H	1.08245	-1.59113	1.51696
H	2.48962	-0.625363	0.920994
H	1.42882	0.0287715	2.21875
N	1.6434	-0.727582	-1.7772
C	1.72452	-1.45601	-3.02179
H	2.45424	-0.244296	-1.46408
H	2.73969	-1.36258	-3.46668
H	0.983031	-1.06422	-3.75525
H	1.51095	-2.53723	-2.85904
C	7.95923	1.52824	-3.10235
C	7.43792	1.10514	-1.78311
O	6.35788	1.5055	-1.37123
H	7.23765	2.22979	-3.57459
H	8.08796	0.645869	-3.76386
H	8.93493	2.04425	-2.98067
N	8.20922	0.273245	-1.07924
C	7.85644	-0.191572	0.239112
C	9.13824	-0.479417	0.997865
O	10.226	-0.464928	0.424944
H	9.10441	-0.0114586	-1.41005
H	7.33805	0.597609	0.769288
C	6.97756	-1.45909	0.160352
H	7.51301	-2.27243	-0.374252
H	6.68775	-1.81884	1.16887
H	6.04905	-1.22726	-0.405753
N	9.0392	-0.741169	2.31608
C	10.2055	-1.02112	3.12085
H	8.15063	-0.744324	2.76274
H	9.91732	-1.21032	4.1784
H	10.9134	-0.16113	3.09899
H	10.7414	-1.9193	2.73718
