44
  This energy is -2.6126 and Call times are: 130399
C	0.219626	-3.41666	-0.6252
C	0.421289	-2.00412	-1.01916
O	1.08715	-1.71005	-2.0023
H	0.765225	-4.07707	-1.33377
H	-0.860517	-3.67187	-0.655214
H	0.611325	-3.58776	0.399685
N	-0.158143	-1.0836	-0.24503
C	-0.0165368	0.332415	-0.476131
C	-0.145047	1.04445	0.857301
O	-0.497764	0.43506	1.86524
H	-0.662979	-1.3368	0.575273
H	0.977341	0.534831	-0.855428
C	-1.08778	0.839646	-1.46628
H	-2.10759	0.64171	-1.07277
H	-0.98068	1.92606	-1.66315
H	-0.979961	0.299396	-2.43213
N	0.148585	2.35913	0.89497
C	0.0602825	3.11856	2.12039
H	0.436213	2.83396	0.0698163
H	0.341689	4.18047	1.94609
H	0.743052	2.69743	2.89353
H	-0.977362	3.09248	2.52506
C	3.95242	2.79654	-0.315456
C	4.1521	1.34312	-0.118387
O	3.22789	0.617611	0.222014
H	2.89506	3.05584	-0.0904546
H	4.17454	3.0742	-1.36727
H	4.61582	3.36981	0.36596
N	5.38615	0.879599	-0.329741
C	5.74451	-0.503477	-0.136779
C	7.21375	-0.563762	0.236419
O	7.9222	0.438886	0.169399
H	6.13727	1.48914	-0.566673
H	5.18302	-0.904914	0.697611
C	5.47653	-1.32645	-1.4159
H	6.06045	-0.921467	-2.26976
H	5.73548	-2.39593	-1.27557
H	4.3971	-1.26154	-1.67463
N	7.70592	-1.7484	0.649232
C	9.09084	-1.90013	1.03019
H	7.11612	-2.5475	0.700764
H	9.30108	-2.94761	1.33974
H	9.34007	-1.22631	1.88174
H	9.76287	-1.64417	0.179301
