44
  This energy is -1.6113 and Call times are: 132268
C	-0.59783	-0.737058	3.34844
C	-1.06143	-0.509929	1.96113
O	-2.20759	-0.774561	1.62542
H	-1.42772	-1.17256	3.94635
H	-0.287747	0.223737	3.81046
H	0.258877	-1.44353	3.3548
N	-0.163655	-0.00774316	1.11013
C	-0.453902	0.227432	-0.282349
C	0.840277	0.0990658	-1.06349
O	1.9192	-0.00159201	-0.482536
H	0.777135	0.164174	1.38803
H	-1.12553	-0.542036	-0.642168
C	-1.07393	1.62691	-0.48795
H	-0.38086	2.41722	-0.128641
H	-1.31474	1.81462	-1.55439
H	-2.01543	1.70102	0.0989324
N	0.760524	0.0911868	-2.4087
C	1.93868	-0.0324063	-3.23506
H	-0.121938	0.169576	-2.86057
H	1.66593	-0.0188599	-4.31332
H	2.47078	-0.987363	-3.02012
H	2.64462	0.807352	-3.04118
C	7.58268	-1.01926	-2.80997
C	6.97561	-1.2819	-1.48572
O	6.87198	-2.42084	-1.05155
H	7.87351	-1.98447	-3.27863
H	8.48849	-0.387186	-2.69714
H	6.85299	-0.50468	-3.47016
N	6.55193	-0.214507	-0.804878
C	5.90156	-0.314208	0.477946
C	4.9651	0.87005	0.626788
O	4.98179	1.79221	-0.18626
H	6.60594	0.702682	-1.1892
H	5.29442	-1.21055	0.501941
C	6.93853	-0.331704	1.62233
H	7.55467	0.592473	1.60458
H	6.4508	-0.422164	2.61453
H	7.61791	-1.20172	1.48871
N	4.11494	0.867373	1.67236
C	3.18346	1.94917	1.89197
H	4.11346	0.110327	2.31731
H	2.57139	1.76252	2.80179
H	2.4951	2.05736	1.02263
H	3.72528	2.91342	2.02537
