44
  This energy is 0.3547 and Call times are: 136619
C	-3.33126	-0.698456	0.726336
C	-1.96739	-1.1185	0.333176
O	-1.65283	-2.30028	0.303764
H	-3.9337	-1.59767	0.980013
H	-3.82281	-0.161305	-0.111866
H	-3.28581	-0.0339757	1.61487
N	-1.11299	-0.141836	0.0193175
C	0.260463	-0.391687	-0.340902
C	1.08125	0.82149	0.0541431
O	0.534558	1.85543	0.433357
H	-1.37171	0.817475	0.0875305
H	0.632363	-1.23283	0.23077
C	0.392673	-0.665171	-1.85516
H	0.0210328	0.201732	-2.44201
H	1.44373	-0.872707	-2.14279
H	-0.222259	-1.552	-2.12299
N	2.42301	0.719191	-0.018254
C	3.2856	1.82004	0.342669
H	2.84705	-0.127017	-0.323533
H	4.35458	1.53993	0.215988
H	3.12382	2.11382	1.40512
H	3.07756	2.70836	-0.296659
C	3.82723	2.33397	2.55468
C	3.36998	1.68534	1.30514
O	2.24984	1.89082	0.858506
H	3.0077	2.96502	2.9621
H	4.70904	2.97728	2.35141
H	4.0971	1.56464	3.30859
N	4.24217	0.871848	0.705222
C	3.92673	0.136562	-0.494114
C	4.75702	-1.13313	-0.502638
O	5.64928	-1.3077	0.325065
H	5.1355	0.682771	1.1028
H	2.88534	-0.159188	-0.468312
C	4.21838	0.982715	-1.75277
H	5.28894	1.27752	-1.78514
H	3.96651	0.432579	-2.68251
H	3.60606	1.9103	-1.72139
N	4.47457	-2.05864	-1.44054
C	5.20812	-3.30016	-1.5224
H	3.74619	-1.90112	-2.09912
H	4.82717	-3.92766	-2.35808
H	5.10775	-3.87884	-0.575655
H	6.29145	-3.10597	-1.69511
