44
  This energy is -1.985 and Call times are: 134647
C	-1.23416	1.66509	2.79589
C	-1.24345	0.530434	1.84531
O	-1.89702	-0.478765	2.07062
H	-1.86887	1.41425	3.67344
H	-1.63941	2.5764	2.30802
H	-0.198985	1.86267	3.14585
N	-0.503179	0.673248	0.743496
C	-0.378174	-0.361317	-0.252801
C	0.97388	-0.210514	-0.92419
O	1.67809	0.773897	-0.708004
H	0.0556993	1.48387	0.593764
H	-0.39078	-1.32884	0.233373
C	-1.514	-0.263954	-1.29475
H	-1.495	0.724534	-1.80127
H	-1.43676	-1.06374	-2.05954
H	-2.49407	-0.36898	-0.780175
N	1.37326	-1.19451	-1.75382
C	2.64681	-1.14016	-2.43301
H	0.791364	-1.98517	-1.91295
H	2.79214	-2.04114	-3.06889
H	3.48237	-1.09171	-1.69766
H	2.70697	-0.237997	-3.08387
C	8.16477	1.89268	-2.11453
C	6.98263	1.03886	-1.86016
O	6.09934	0.91497	-2.69734
H	8.07083	2.36031	-3.1187
H	9.09122	1.28134	-2.08803
H	8.22935	2.69469	-1.34924
N	6.93916	0.422812	-0.676529
C	5.83272	-0.406259	-0.267885
C	5.73519	-0.352832	1.24513
O	6.61625	0.183281	1.91447
H	7.6457	0.565925	0.0106246
H	4.91284	0.00439142	-0.665121
C	6.02743	-1.86156	-0.74688
H	6.96568	-2.28683	-0.331109
H	5.17532	-2.50693	-0.450341
H	6.10423	-1.87569	-1.85604
N	4.64908	-0.904311	1.82154
C	4.46753	-0.896167	3.25442
H	3.94483	-1.32989	1.26299
H	3.51415	-1.39693	3.53289
H	4.44066	0.148395	3.64101
H	5.30476	-1.42986	3.75974
