44
  This energy is -0.9773 and Call times are: 133381
C	0.128364	-0.0878836	3.47685
C	-0.055782	-0.743548	2.16257
O	-0.0951643	-1.96214	2.06309
H	0.231263	-0.865904	4.26424
H	-0.749975	0.548779	3.71333
H	1.04601	0.537355	3.46737
N	-0.172257	0.0654224	1.10693
C	-0.313396	-0.425493	-0.241273
C	0.275229	0.60667	-1.18452
O	0.612981	1.71519	-0.773652
H	-0.0971788	1.05428	1.19857
H	0.266648	-1.333	-0.353553
C	-1.79732	-0.68569	-0.581135
H	-2.39092	0.247419	-0.476304
H	-1.91798	-1.07716	-1.61202
H	-2.20944	-1.4379	0.126451
N	0.420105	0.260331	-2.47877
C	0.976099	1.17515	-3.44839
H	0.144819	-0.642715	-2.7915
H	1.01308	0.70557	-4.45603
H	2.01125	1.47056	-3.16119
H	0.358973	2.10029	-3.5149
C	4.58621	0.0744463	-2.72493
C	5.64343	0.678877	-1.88343
O	6.25126	1.67539	-2.24938
H	4.49223	0.653788	-3.66906
H	3.61286	0.0966977	-2.19122
H	4.84793	-0.975951	-2.9724
N	5.89095	0.0766463	-0.717912
C	6.91948	0.52267	0.188592
C	7.40905	-0.678027	0.976134
O	6.82555	-1.75796	0.905562
H	5.41621	-0.757572	-0.452297
H	7.7597	0.898792	-0.38166
C	6.38055	1.61208	1.14147
H	5.52525	1.22341	1.73431
H	7.16689	1.97364	1.83534
H	6.02056	2.47749	0.543286
N	8.50518	-0.517814	1.7435
C	9.04713	-1.60566	2.52392
H	8.96601	0.362543	1.78449
H	9.9483	-1.2755	3.08616
H	9.3373	-2.4556	1.86461
H	8.29396	-1.97784	3.2556
