44
  This energy is -4.7737 and Call times are: 127281
C	1.71381	-2.90653	-0.852989
C	0.525739	-2.20328	-0.319077
O	-0.5245	-2.79755	-0.118426
H	1.4599	-3.97429	-1.02988
H	2.5502	-2.8519	-0.124829
H	2.02999	-2.4484	-1.81384
N	0.668177	-0.898366	-0.0756098
C	-0.410643	-0.0713035	0.404675
C	-0.175337	1.34491	-0.0857521
O	0.882874	1.65551	-0.629292
H	1.51693	-0.420205	-0.282592
H	-1.34247	-0.412212	-0.0290362
C	-0.48689	-0.10463	1.94685
H	0.465089	0.25499	2.39233
H	-1.32238	0.517429	2.32832
H	-0.651439	-1.15146	2.28363
N	-1.16748	2.24001	0.0887945
C	-1.03593	3.60956	-0.350764
H	-2.01804	1.96881	0.527048
H	-1.9574	4.18748	-0.11813
H	-0.862493	3.65421	-1.4504
H	-0.174911	4.10366	0.154868
C	5.52602	-1.86289	-2.91565
C	6.08021	-1.17852	-1.72583
O	7.24712	-1.33311	-1.39292
H	6.31576	-2.49485	-3.37693
H	5.18242	-1.11565	-3.66152
H	4.67332	-2.51073	-2.62192
N	5.23935	-0.395009	-1.04653
C	5.62089	0.302122	0.15638
C	4.3821	0.477892	1.01432
O	3.26723	0.203611	0.574378
H	4.28154	-0.311407	-1.30625
H	6.31773	-0.308216	0.717207
C	6.24826	1.67363	-0.176233
H	5.52998	2.30411	-0.742456
H	6.55892	2.21429	0.741207
H	7.14829	1.52123	-0.811096
N	4.55134	0.934852	2.27073
C	3.43131	1.12847	3.16192
H	5.46166	1.14743	2.61013
H	3.77525	1.50924	4.14881
H	2.88946	0.168902	3.326
H	2.71103	1.86288	2.73417
