44
  This energy is -6.6197 and Call times are: 129813
C	-2.28046	-0.731253	-2.52536
C	-0.964653	-0.900145	-1.86865
O	-0.200587	-1.79506	-2.20293
H	-2.41254	-1.52477	-3.29268
H	-2.33633	0.26073	-3.02093
H	-3.09576	-0.81645	-1.77628
N	-0.668201	-0.0293796	-0.901046
C	0.555713	-0.0926046	-0.141707
C	0.291128	0.495012	1.2317
O	-0.76813	1.06868	1.47786
H	-1.31756	0.668337	-0.612272
H	0.835436	-1.12918	-0.000629968
C	1.68696	0.681598	-0.85314
H	1.40481	1.74746	-0.98867
H	2.63834	0.628761	-0.285166
H	1.85796	0.239555	-1.85898
N	1.25191	0.357033	2.16652
C	1.0867	0.879118	3.50305
H	2.10059	-0.113905	1.94963
H	1.98521	0.664969	4.12276
H	0.201483	0.418118	3.99817
H	0.932662	1.9822	3.47788
C	6.68627	3.05428	1.63881
C	7.01417	2.24391	0.444268
O	7.191	2.76773	-0.646949
H	6.62416	4.12596	1.34986
H	7.47567	2.93529	2.41045
H	5.70824	2.73812	2.05901
N	7.10152	0.924434	0.627974
C	7.37078	0.00245598	-0.447204
C	6.72777	-1.32755	-0.101961
O	6.2492	-1.52507	1.01324
H	6.91461	0.509053	1.51363
H	6.89981	0.3629	-1.35324
C	8.89094	-0.169721	-0.658627
H	9.373	-0.549503	0.267348
H	9.11122	-0.866709	-1.49302
H	9.34168	0.817102	-0.902251
N	6.69444	-2.27362	-1.06105
C	6.09804	-3.56788	-0.825718
H	7.08321	-2.0937	-1.95858
H	6.16901	-4.20477	-1.73488
H	5.02244	-3.46143	-0.555481
H	6.61397	-4.09212	0.0110177
