44
  This energy is -3.3035 and Call times are: 129871
C	-2.53471	-1.32885	-1.98042
C	-1.9029	-1.08151	-0.664835
O	-2.49973	-1.31308	0.377551
H	-3.56695	-1.71163	-1.82598
H	-1.95249	-2.08446	-2.54858
H	-2.58483	-0.385605	-2.56427
N	-0.659902	-0.594768	-0.68558
C	0.0689524	-0.263118	0.513311
C	1.0455	0.84921	0.180699
O	1.23056	1.19747	-0.983854
H	-0.202366	-0.372916	-1.54191
H	-0.619513	0.123033	1.25462
C	0.819437	-1.49653	1.06169
H	1.53349	-1.88671	0.305433
H	1.37337	-1.25742	1.99255
H	0.0861783	-2.30042	1.29067
N	1.69077	1.44172	1.20471
C	2.63438	2.51294	0.985035
H	1.52472	1.14887	2.14052
H	3.05823	2.86776	1.95027
H	2.13978	3.37496	0.481478
H	3.47409	2.17052	0.337901
C	5.51911	-1.24466	-3.11401
C	6.5424	-0.894363	-2.1034
O	7.70528	-1.25242	-2.22959
H	5.98846	-1.85564	-3.91542
H	5.09625	-0.322848	-3.56589
H	4.70329	-1.83363	-2.6443
N	6.12354	-0.175693	-1.05915
C	6.99302	0.204757	0.0261291
C	6.15098	0.343422	1.28045
O	4.92354	0.301305	1.22283
H	5.16548	0.0733591	-0.949804
H	7.70938	-0.587476	0.204474
C	7.71933	1.53109	-0.287827
H	6.98499	2.34655	-0.460496
H	8.40237	1.82762	0.53439
H	8.32287	1.40877	-1.21363
N	6.79658	0.504763	2.45227
C	6.07884	0.639713	3.69839
H	7.79036	0.532244	2.47925
H	6.78593	0.762598	4.54819
H	5.45297	-0.261705	3.89079
H	5.40627	1.52741	3.67046
