44
  This energy is -5.0585 and Call times are: 134079
C	0.463675	-3.37367	-0.718376
C	0.922456	-1.96631	-0.717906
O	2.08127	-1.6782	-0.983527
H	1.31895	-4.0387	-0.96759
H	-0.334797	-3.51565	-1.47668
H	0.0742275	-3.64955	0.284277
N	0.00717289	-1.04386	-0.411759
C	0.313405	0.362495	-0.328402
C	-0.640454	0.996086	0.66672
O	-1.59144	0.361615	1.11926
H	-0.921933	-1.29717	-0.157858
H	1.31597	0.487294	0.0613705
C	0.18168	1.03867	-1.71068
H	-0.849566	0.920024	-2.10626
H	0.428402	2.11909	-1.66236
H	0.882815	0.553924	-2.42467
N	-0.401275	2.26904	1.03874
C	-1.25202	2.9526	1.98488
H	0.375603	2.76469	0.664758
H	-0.890356	3.98958	2.16123
H	-1.26522	2.41531	2.96079
H	-2.29827	3.00565	1.60581
C	7.32815	-0.88419	2.85817
C	6.06909	-0.780245	2.08673
O	5.04689	-1.33514	2.46569
H	7.16016	-1.52529	3.75071
H	7.65487	0.122115	3.19485
H	8.12377	-1.34076	2.23239
N	6.11763	-0.0557626	0.966397
C	4.9849	0.101518	0.0884799
C	5.50482	0.32144	-1.31967
O	6.7027	0.505044	-1.52722
H	6.96731	0.355986	0.649608
H	4.40928	-0.815661	0.0802275
C	4.10386	1.28987	0.532144
H	4.69117	2.2328	0.530643
H	3.22079	1.41279	-0.12786
H	3.74111	1.11119	1.56791
N	4.61008	0.299288	-2.32713
C	5.01313	0.493547	-3.70044
H	3.64559	0.14521	-2.13978
H	4.1339	0.440083	-4.37966
H	5.7432	-0.289054	-4.00998
H	5.49733	1.48836	-3.83101
