44
  This energy is 0.1271 and Call times are: 139262
C	-3.09557	1.46632	-0.616484
C	-2.25342	0.390672	-0.0464755
O	-2.72088	-0.440213	0.720025
H	-4.12991	1.372	-0.220092
H	-3.12584	1.3828	-1.72321
H	-2.69095	2.46051	-0.33195
N	-0.969778	0.384575	-0.413367
C	-0.0179069	-0.573416	0.0913659
C	1.3547	0.0726334	0.0800069
O	1.53433	1.16031	-0.464423
H	-0.594751	1.09182	-1.00585
H	-0.256712	-0.805399	1.1218
C	-0.0192092	-1.85726	-0.767103
H	0.236059	-1.62127	-1.82218
H	0.699773	-2.60828	-0.380377
H	-1.03526	-2.30862	-0.750801
N	2.35969	-0.583498	0.692803
C	3.69854	-0.043447	0.737607
H	2.19391	-1.46057	1.13136
H	4.38126	-0.729677	1.28552
H	3.70662	0.944229	1.25307
H	4.09867	0.101207	-0.292009
C	9.55905	-0.676789	0.181988
C	8.15349	-1.10396	8.15399e-05
O	7.8799	-2.22835	-0.396549
H	10.2364	-1.50876	-0.109345
H	9.74554	-0.417064	1.24524
H	9.77691	0.204626	-0.45732
N	7.21591	-0.19856	0.289201
C	5.80675	-0.452715	0.121246
C	5.11775	0.869546	-0.15889
O	5.72607	1.93237	-0.0490728
H	7.45516	0.725945	0.571878
H	5.65848	-1.08383	-0.746127
C	5.21179	-1.11683	1.38229
H	5.35429	-0.465041	2.27049
H	4.1301	-1.33025	1.26014
H	5.73621	-2.07864	1.57265
N	3.82514	0.833048	-0.538168
C	3.08898	2.04068	-0.831199
H	3.35106	-0.0368458	-0.625393
H	2.04313	1.80212	-1.12533
H	3.56895	2.60036	-1.66646
H	3.05913	2.70879	0.0598019
