44
  This energy is -3.5871 and Call times are: 131580
C	0.443432	2.13507	-2.71247
C	-0.405086	1.49911	-1.67966
O	-1.54575	1.88815	-1.47002
H	-0.119408	2.96691	-3.18907
H	0.717739	1.39369	-3.49212
H	1.36666	2.54417	-2.25055
N	0.144178	0.490498	-0.998931
C	-0.542049	-0.198403	0.065526
C	0.49822	-0.723317	1.03705
O	1.69602	-0.675568	0.763734
H	1.08792	0.212042	-1.15282
H	-1.16164	0.506311	0.606007
C	-1.3983	-1.3577	-0.489542
H	-0.761602	-2.08641	-1.03509
H	-1.94262	-1.88732	0.319002
H	-2.14717	-0.951414	-1.20402
N	0.0616131	-1.23224	2.20598
C	0.978628	-1.75007	3.19447
H	-0.911219	-1.25854	2.41087
H	0.427026	-2.12277	4.08557
H	1.68669	-0.956802	3.52709
H	1.57561	-2.59155	2.77415
C	4.60172	-3.39204	0.719616
C	4.60646	-1.96892	1.12689
O	4.23134	-1.62786	2.24016
H	4.20585	-4.01141	1.55359
H	5.63383	-3.72572	0.482657
H	3.95418	-3.53292	-0.171402
N	5.03704	-1.09252	0.216441
C	5.05913	0.329821	0.450967
C	4.89919	1.0319	-0.88435
O	4.94334	0.399343	-1.93774
H	5.30049	-1.38118	-0.699597
H	4.20927	0.604112	1.06345
C	6.37788	0.756194	1.13238
H	7.24953	0.484477	0.499567
H	6.40123	1.84733	1.33086
H	6.47776	0.224306	2.1037
N	4.69984	2.3646	-0.870159
C	4.53158	3.11677	-2.09167
H	4.66308	2.85838	-0.00766162
H	4.37924	4.19627	-1.87097
H	3.64843	2.74759	-2.66179
H	5.42987	3.01516	-2.74274
