44
  This energy is 0.1285 and Call times are: 127105
C	3.12317	0.476718	1.45988
C	1.76881	-0.120472	1.44551
O	1.45969	-1.00726	2.22938
H	3.73542	-0.0202629	2.24348
H	3.06062	1.56172	1.68704
H	3.61512	0.333289	0.474733
N	0.918052	0.359878	0.535638
C	-0.420264	-0.15061	0.37171
C	-0.829959	0.0522019	-1.07486
O	-0.13452	0.718846	-1.83884
H	1.19717	1.05322	-0.122568
H	-0.421559	-1.21684	0.56088
C	-1.40504	0.568736	1.31934
H	-1.41191	1.66129	1.11856
H	-2.43655	0.17492	1.2125
H	-1.08131	0.413528	2.3717
N	-1.97291	-0.529687	-1.4885
C	-2.43969	-0.396407	-2.84884
H	-2.52001	-1.06872	-0.856673
H	-3.3957	-0.946602	-2.99225
H	-1.68925	-0.805563	-3.56347
H	-2.60996	0.674884	-3.10278
C	-0.555806	1.17842	0.874634
C	0.630445	1.16337	-0.0106571
O	0.617205	1.7268	-1.09638
H	-1.37776	1.73827	0.377839
H	-0.310095	1.67797	1.83527
H	-0.89729	0.14087	1.07453
N	1.69992	0.50432	0.441302
C	2.91316	0.365671	-0.325097
C	3.5887	-0.92818	0.088629
O	3.18078	-1.57086	1.05417
H	1.68165	0.0160887	1.30915
H	2.66422	0.278092	-1.37533
C	3.85455	1.56725	-0.0900363
H	4.11868	1.65123	0.985708
H	4.78637	1.47904	-0.685393
H	3.33676	2.50372	-0.392124
N	4.64001	-1.34649	-0.643341
C	5.34211	-2.56871	-0.328076
H	4.95285	-0.814971	-1.42353
H	6.17501	-2.73996	-1.04514
H	4.65205	-3.44202	-0.377426
H	5.76828	-2.52315	0.700246
