44
  This energy is -3.1165 and Call times are: 133627
C	2.66308	-1.22849	1.8739
C	1.93916	-1.05804	0.594044
O	2.45739	-1.36169	-0.471622
H	3.67895	-1.63158	1.6704
H	2.11877	-1.94017	2.52962
H	2.76139	-0.250776	2.3911
N	0.70406	-0.557361	0.672969
C	-0.107649	-0.294324	-0.489141
C	-1.05042	0.84748	-0.15897
O	-1.14837	1.27079	0.991216
H	0.311215	-0.276721	1.54405
H	0.527719	0.0365317	-1.30122
C	-0.90374	-1.55168	-0.902109
H	-1.56357	-1.88533	-0.0730515
H	-1.52215	-1.36594	-1.8041
H	-0.194138	-2.37646	-1.13136
N	-1.76443	1.38099	-1.16971
C	-2.6828	2.47426	-0.951689
H	-1.66851	1.02767	-2.09439
H	-3.17323	2.77188	-1.90465
H	-2.14753	3.36096	-0.541175
H	-3.47556	2.18274	-0.225262
C	10.5194	-1.95685	-2.34448
C	10.102	-0.643978	-1.8029
O	10.5906	0.397074	-2.21988
H	11.3044	-1.80294	-3.11645
H	9.65301	-2.4715	-2.81057
H	10.9332	-2.5916	-1.53274
N	9.17422	-0.665737	-0.843155
C	8.69896	0.528048	-0.189277
C	8.26057	0.15579	1.21458
O	8.18959	-1.02186	1.56072
H	8.81573	-1.52333	-0.485568
H	9.51534	1.23333	-0.0959086
C	7.52673	1.15726	-0.973635
H	6.68481	0.437776	-1.0606
H	7.16095	2.08491	-0.487638
H	7.86807	1.41435	-2.00015
N	7.96257	1.15922	2.0633
C	7.54163	0.901263	3.42067
H	8.02995	2.10591	1.76612
H	7.34356	1.85435	3.95884
H	8.3288	0.34202	3.97645
H	6.60987	0.290698	3.43394
