44
  This energy is 0.1049 and Call times are: 131922
C	3.43945	-0.527662	0.0665359
C	2.19602	-0.124732	-0.628198
O	2.23098	0.427743	-1.71905
H	4.31658	-0.230654	-0.548531
H	3.4578	-1.6284	0.210714
H	3.50622	-0.024535	1.05421
N	1.05017	-0.395445	0.0011942
C	-0.238384	-0.0254211	-0.529151
C	-1.18628	0.186763	0.63619
O	-0.855523	-0.117757	1.78056
H	1.03943	-0.808672	0.907282
H	-0.151983	0.919557	-1.05086
C	-0.780139	-1.11902	-1.47561
H	-0.878935	-2.08615	-0.938092
H	-1.76563	-0.839589	-1.90136
H	-0.0668524	-1.26304	-2.31634
N	-2.39251	0.725891	0.370879
C	-3.35813	0.969659	1.41698
H	-2.64043	0.969548	-0.560914
H	-4.28663	1.41699	0.99865
H	-2.94406	1.66973	2.17838
H	-3.62779	0.0194041	1.93219
C	2.38123	-2.07892	1.20275
C	3.23186	-1.56157	0.107345
O	3.25975	-2.11035	-0.985574
H	1.84703	-2.98942	0.854208
H	1.63264	-1.31456	1.49959
H	3.00718	-2.34359	2.08094
N	3.95838	-0.475791	0.382382
C	4.86568	0.117968	-0.567785
C	5.97926	0.800248	0.204236
O	5.91426	0.924542	1.42572
H	3.95617	-0.0644683	1.28939
H	5.319	-0.663255	-1.16512
C	4.13195	1.13345	-1.47093
H	3.67564	1.94085	-0.85943
H	4.81699	1.58737	-2.21605
H	3.31649	0.614014	-2.02006
N	7.03821	1.25358	-0.495136
C	8.14791	1.91107	0.154814
H	7.07461	1.14009	-1.48249
H	8.91876	2.20965	-0.589414
H	8.62415	1.23348	0.900028
H	7.80413	2.82569	0.690012
