44
  This energy is 0.1052 and Call times are: 137206
C	3.14707	-1.41184	-0.464015
C	2.18361	-0.60353	0.31669
O	2.4294	-0.260291	1.46481
H	4.03777	-1.62983	0.164494
H	3.47225	-0.853195	-1.36674
H	2.68068	-2.37153	-0.771534
N	1.04484	-0.278675	-0.299805
C	-0.00694066	0.467299	0.345047
C	-1.32678	0.0664853	-0.286555
O	-1.35472	-0.63834	-1.29361
H	0.84163	-0.600089	-1.22027
H	-0.0523094	0.18976	1.39077
C	0.224433	1.98716	0.197655
H	0.260526	2.27402	-0.874932
H	-0.571472	2.57258	0.701984
H	1.1993	2.25649	0.65965
N	-2.45877	0.502955	0.300061
C	-3.76106	0.167463	-0.226878
H	-2.41596	1.06894	1.1167
H	-4.56516	0.619736	0.394493
H	-3.90712	-0.936977	-0.239364
H	-3.87133	0.542093	-1.27026
C	2.88191	-0.350013	-1.14449
C	4.32136	-0.0898898	-1.37138
O	4.78832	-0.0575865	-2.50157
H	2.37915	-0.511237	-2.1228
H	2.41136	0.518432	-0.637404
H	2.7511	-1.25831	-0.519227
N	5.06865	0.102266	-0.281877
C	6.4921	0.323428	-0.340344
C	7.10428	-0.19275	0.948211
O	6.39245	-0.543797	1.88724
H	4.68183	0.0323282	0.633183
H	6.91093	-0.25819	-1.15209
C	6.81016	1.82302	-0.528244
H	6.38976	2.41891	0.309736
H	7.90281	2.00466	-0.588648
H	6.34583	2.18109	-1.47298
N	8.44837	-0.258861	1.01934
C	9.1198	-0.742077	2.20334
H	9.00736	0.0258643	0.247633
H	10.2234	-0.720086	2.06621
H	8.81531	-1.7901	2.42745
H	8.86326	-0.111901	3.0855
