44
  This energy is -4.313 and Call times are: 131514
C	0.382028	-1.772	2.97099
C	0.685153	-1.54677	1.53972
O	1.59647	-2.14437	0.984038
H	1.1016	-2.51022	3.38707
H	-0.648053	-2.17005	3.08599
H	0.475785	-0.820825	3.5363
N	-0.0849077	-0.661996	0.902104
C	0.115573	-0.305519	-0.48039
C	-0.37541	1.11622	-0.678233
O	-0.992715	1.69884	0.211263
H	-0.796522	-0.153312	1.37825
H	1.1756	-0.314415	-0.701494
C	-0.640799	-1.27461	-1.41528
H	-1.72967	-1.258	-1.19592
H	-0.483074	-1.01896	-2.48312
H	-0.271015	-2.30975	-1.24771
N	-0.102973	1.71376	-1.85499
C	-0.525496	3.06703	-2.13127
H	0.401294	1.22757	-2.56097
H	-0.206461	3.37831	-3.15036
H	-0.0826359	3.77508	-1.39383
H	-1.63452	3.15292	-2.06931
C	7.1646	-2.44239	1.00949
C	6.67641	-1.44078	0.0350158
O	7.36067	-1.10141	-0.920513
H	8.18799	-2.76697	0.721076
H	6.49509	-3.32809	1.01585
H	7.20144	-1.9998	2.02724
N	5.46138	-0.935868	0.261218
C	4.86928	0.0785738	-0.574766
C	3.91787	0.8975	0.277146
O	3.63649	0.546835	1.42151
H	4.93331	-1.19173	1.06591
H	5.64406	0.747917	-0.927351
C	4.11919	-0.556807	-1.76594
H	3.31732	-1.23548	-1.40474
H	3.6705	0.214601	-2.42483
H	4.833	-1.15763	-2.37078
N	3.40397	2.02027	-0.262583
C	2.49441	2.86576	0.474992
H	3.6467	2.28975	-1.18861
H	2.18379	3.73941	-0.139414
H	2.97716	3.24505	1.40471
H	1.5805	2.29944	0.766877
