44
  This energy is 0.121 and Call times are: 136417
C	-2.50224	2.13728	1.13292
C	-2.04935	0.93581	0.396375
O	-2.84716	0.0951228	0.00502834
H	-3.6066	2.09891	1.25459
H	-2.23452	3.05543	0.568945
H	-2.03093	2.17037	2.13784
N	-0.734818	0.826461	0.190382
C	-0.13997	-0.30703	-0.47288
C	1.26965	-0.480869	0.060324
O	1.77688	0.36999	0.788659
H	-0.0941536	1.49845	0.550717
H	-0.694077	-1.20165	-0.217447
C	-0.118464	-0.101833	-2.00346
H	0.458792	0.810044	-2.26669
H	0.32465	-0.973907	-2.52658
H	-1.15956	0.0311431	-2.37058
N	1.93564	-1.59999	-0.286157
C	3.27961	-1.85409	0.177926
H	1.50699	-2.27888	-0.873046
H	3.65425	-2.82502	-0.214695
H	3.31042	-1.89081	1.29102
H	3.97105	-1.04866	-0.160192
C	7.4456	1.08118	1.98611
C	6.28441	1.34357	1.10637
O	5.81754	2.46856	0.993061
H	7.75237	2.0279	2.48155
H	8.29848	0.695195	1.38916
H	7.17465	0.338776	2.76618
N	5.7835	0.291261	0.455122
C	4.62865	0.38148	-0.403221
C	3.92766	-0.963926	-0.395932
O	4.44925	-1.94297	0.134272
H	6.14871	-0.62552	0.589229
H	3.93665	1.10797	0.00417425
C	5.03858	0.770683	-1.84048
H	5.74029	0.0201222	-2.26275
H	4.15671	0.856922	-2.50786
H	5.55666	1.75432	-1.82072
N	2.71636	-1.04104	-0.981452
C	1.97205	-2.27829	-1.01841
H	2.30885	-0.237003	-1.40162
H	1.00101	-2.13757	-1.54235
H	1.76381	-2.64238	0.0137577
H	2.54811	-3.06772	-1.55328
