44
  This energy is 0.1245 and Call times are: 135428
C	1.65457	-2.94448	-0.839714
C	1.34362	-1.84832	0.105214
O	1.68697	-1.90699	1.27785
H	2.19362	-3.75302	-0.299743
H	2.29956	-2.56949	-1.66198
H	0.717038	-3.35995	-1.26575
N	0.672754	-0.80735	-0.39348
C	0.261069	0.314928	0.412477
C	-0.994348	0.903889	-0.202833
O	-1.39298	0.526886	-1.30314
H	0.364451	-0.792532	-1.34037
H	0.00123236	-0.0337035	1.40423
C	1.37775	1.37916	0.487828
H	1.63733	1.74482	-0.528514
H	1.0781	2.24218	1.11706
H	2.28899	0.924037	0.933752
N	-1.65499	1.84313	0.502435
C	-2.86222	2.45618	-0.000506078
H	-1.31918	2.13224	1.39278
H	-3.25559	3.20265	0.724244
H	-3.64993	1.68772	-0.174431
H	-2.66651	2.97481	-0.966876
C	6.27959	1.37723	2.655
C	5.43984	1.50589	1.44281
O	4.94128	2.57798	1.12901
H	6.33364	2.36072	3.17045
H	7.30673	1.0602	2.37711
H	5.83787	0.6315	3.34915
N	5.26058	0.394973	0.724393
C	4.43434	0.353427	-0.456346
C	3.88152	-1.05228	-0.597563
O	4.28743	-1.96377	0.120866
H	5.63922	-0.47914	1.01494
H	3.59103	1.02008	-0.32586
C	5.24515	0.744998	-1.71114
H	6.10434	0.0549536	-1.85139
H	4.61655	0.730243	-2.62501
H	5.64662	1.77387	-1.58235
N	2.92931	-1.25911	-1.52844
C	2.34062	-2.56242	-1.73095
H	2.61081	-0.508193	-2.09743
H	1.57775	-2.528	-2.5397
H	1.84675	-2.91955	-0.798301
H	3.12006	-3.3059	-2.0153
