44
  This energy is 0.1094 and Call times are: 128915
C	2.01887	-2.5148	-1.30867
C	1.82496	-1.2777	-0.519294
O	2.71877	-0.830136	0.185832
H	3.0399	-2.91312	-1.12236
H	1.9097	-2.29845	-2.39219
H	1.27373	-3.28129	-1.00808
N	0.630561	-0.689955	-0.620962
C	0.278167	0.495778	0.119589
C	-1.22204	0.484246	0.344976
O	-1.93677	-0.344323	-0.215688
H	-0.100603	-1.08871	-1.16709
H	0.750901	0.462508	1.09327
C	0.701141	1.76952	-0.644553
H	0.208216	1.80942	-1.63927
H	0.447677	2.68905	-0.0782083
H	1.80125	1.75278	-0.805256
N	-1.73537	1.40538	1.18404
C	-3.15101	1.46744	1.46385
H	-1.14052	2.06492	1.63151
H	-3.37522	2.29128	2.17676
H	-3.50525	0.510605	1.91135
H	-3.72912	1.64594	0.528395
C	0.275336	-1.00496	-0.222303
C	1.3558	-0.202527	0.394017
O	1.10431	0.697542	1.18335
H	-0.708781	-0.634242	0.13816
H	0.382714	-2.07311	0.0610269
H	0.311781	-0.9106	-1.32812
N	2.60404	-0.515565	0.0386409
C	3.75687	0.203308	0.521086
C	4.846	0.111355	-0.531011
O	4.7224	-0.6326	-1.50207
H	2.79064	-1.22377	-0.636249
H	3.50396	1.25028	0.63289
C	4.24963	-0.381101	1.86306
H	4.51922	-1.45244	1.74643
H	5.12861	0.172734	2.2519
H	3.43408	-0.310665	2.61556
N	5.94202	0.877656	-0.365015
C	7.02756	0.860674	-1.31763
H	6.02201	1.47638	0.425051
H	7.83579	1.55815	-1.00532
H	6.66947	1.16856	-2.32672
H	7.46032	-0.162416	-1.4022
