44
  This energy is -6.1485 and Call times are: 128603
C	-1.30341	0.0163405	3.227
C	-0.164557	0.0247244	2.28144
O	0.974993	0.249907	2.66502
H	-0.934475	0.253857	4.24845
H	-1.78141	-0.985685	3.24152
H	-2.05349	0.779188	2.92943
N	-0.453826	-0.222794	1.00182
C	0.541495	-0.206326	-0.0410723
C	-0.140155	0.18279	-1.33934
O	-1.36523	0.260944	-1.40863
H	-1.39188	-0.363827	0.698445
H	1.27671	0.557698	0.178833
C	1.21971	-1.58706	-0.178261
H	0.467304	-2.36951	-0.414279
H	1.99789	-1.58347	-0.968804
H	1.70507	-1.85493	0.785598
N	0.644296	0.445666	-2.40309
C	0.0849941	0.828927	-3.67842
H	1.63375	0.381054	-2.32641
H	0.890942	1.00223	-4.42517
H	-0.509762	1.76595	-3.58083
H	-0.588522	0.0315091	-4.06783
C	5.19871	-3.15297	-1.40364
C	4.76949	-2.26801	-0.297395
O	4.12776	-2.7032	0.648758
H	4.83076	-4.18447	-1.21268
H	6.30686	-3.17315	-1.46962
H	4.77778	-2.79375	-2.36637
N	5.11888	-0.98322	-0.395532
C	4.73716	0.00659217	0.580746
C	4.64515	1.34976	-0.118542
O	5.03551	1.48492	-1.27658
H	5.60597	-0.635975	-1.19179
H	3.75037	-0.227827	0.960111
C	5.76116	0.066258	1.73534
H	6.77164	0.317089	1.34796
H	5.47111	0.815064	2.50064
H	5.81781	-0.929213	2.22745
N	4.11497	2.37884	0.57132
C	3.98203	3.69258	-0.0139976
H	3.80089	2.24895	1.50596
H	3.52394	4.4014	0.710542
H	3.3378	3.6546	-0.92218
H	4.97794	4.09198	-0.31366
