44
  This energy is -4.1425 and Call times are: 128122
C	1.71357	-2.17227	2.1113
C	1.39394	-0.812434	1.62159
O	1.7636	0.182504	2.22975
H	2.28517	-2.09547	3.0617
H	2.33077	-2.71311	1.36344
H	0.778487	-2.74093	2.2993
N	0.68533	-0.739629	0.492455
C	0.261376	0.511945	-0.0840736
C	-1.02198	0.26689	-0.855103
O	-1.43385	-0.875832	-1.04555
H	0.356654	-1.55864	0.0308735
H	0.0320179	1.21154	0.710021
C	1.35088	1.08764	-1.01509
H	1.57902	0.374794	-1.83597
H	1.042	2.05826	-1.45442
H	2.28312	1.2515	-0.431628
N	-1.69205	1.34307	-1.31213
C	-2.9255	1.20768	-2.05136
H	-1.34512	2.25992	-1.14451
H	-3.32295	2.20583	-2.33939
H	-3.69615	0.687369	-1.43764
H	-2.76419	0.613113	-2.97959
C	5.31711	-3.42123	-0.611941
C	5.64953	-2.26834	0.254938
O	5.92049	-2.4231	1.43775
H	5.34642	-4.35468	-0.00889538
H	6.05417	-3.50386	-1.43817
H	4.29829	-3.29955	-1.03652
N	5.63337	-1.06582	-0.324783
C	5.89316	0.153616	0.399126
C	5.14021	1.27921	-0.284755
O	4.59053	1.10096	-1.37001
H	5.37092	-0.951714	-1.2787
H	5.4975	0.0642096	1.40316
C	7.40636	0.460041	0.438633
H	7.81065	0.562294	-0.590998
H	7.62055	1.38936	1.0052
H	7.93811	-0.3803	0.936033
N	5.09075	2.47047	0.343308
C	4.39258	3.59811	-0.22865
H	5.53822	2.59418	1.22282
H	4.46626	4.48554	0.437898
H	3.31443	3.35898	-0.375924
H	4.82509	3.86675	-1.21956
