44
  This energy is -1.5791 and Call times are: 127781
C	-2.86315	-1.96776	-0.207365
C	-1.55075	-1.51799	-0.723566
O	-0.989658	-2.11474	-1.63213
H	-3.18062	-2.88063	-0.756681
H	-3.62558	-1.1747	-0.357364
H	-2.78722	-2.2074	0.874253
N	-1.02338	-0.437552	-0.143134
C	0.266387	0.093646	-0.507683
C	0.854346	0.784329	0.708383
O	0.177891	0.963568	1.71932
H	-1.47291	0.0131602	0.622792
H	0.928823	-0.722915	-0.766601
C	0.14199	1.08449	-1.68581
H	-0.529167	1.92788	-1.41697
H	1.13023	1.48995	-1.98498
H	-0.297706	0.559634	-2.56191
N	2.13986	1.18293	0.640511
C	2.78601	1.84359	1.75056
H	2.67227	1.0254	-0.184592
H	3.84094	2.09204	1.50031
H	2.78451	1.18899	2.6521
H	2.25492	2.78822	2.00892
C	7.36052	-1.44468	2.9652
C	6.70495	-0.350394	2.21426
O	6.09377	0.53707	2.7933
H	7.17658	-1.30543	4.05268
H	8.45543	-1.4325	2.78145
H	6.94443	-2.42577	2.65309
N	6.81812	-0.392238	0.884662
C	6.19835	0.578367	0.0172706
C	5.90705	-0.0927744	-1.31175
O	6.34057	-1.21663	-1.55813
H	7.284	-1.14331	0.425646
H	5.2488	0.881088	0.440742
C	7.11654	1.80368	-0.184655
H	8.08684	1.49504	-0.62885
H	6.64468	2.56452	-0.83963
H	7.32282	2.27418	0.801456
N	5.15311	0.582663	-2.20134
C	4.81964	0.0215575	-3.4898
H	4.808	1.48928	-1.98222
H	4.19297	0.728882	-4.07649
H	4.2539	-0.930617	-3.36903
H	5.74265	-0.197022	-4.07411
