44
  This energy is 0.1014 and Call times are: 131316
C	-2.84536	1.98186	-0.298049
C	-1.9807	1.04848	0.458461
O	-2.16768	0.835982	1.64854
H	-3.6069	2.41404	0.386908
H	-3.3644	1.44305	-1.11843
H	-2.23663	2.80668	-0.72492
N	-0.996572	0.462833	-0.227748
C	-0.047798	-0.43605	0.380853
C	1.2518	-0.349626	-0.397053
O	1.31084	0.269117	-1.45789
H	-0.831715	0.677159	-1.18626
H	0.15873	-0.106706	1.39155
C	-0.582837	-1.88483	0.382039
H	-0.784908	-2.22688	-0.655367
H	0.13277	-2.58444	0.860561
H	-1.53805	-1.92283	0.949901
N	2.33265	-0.965786	0.12077
C	3.61335	-0.932976	-0.546241
H	2.26618	-1.45804	0.982359
H	4.37486	-1.49656	0.0366045
H	3.96819	0.116564	-0.663832
H	3.54012	-1.38831	-1.56037
C	-0.431218	-0.0423458	0.823609
C	0.964384	0.386224	1.06811
O	1.22486	1.25763	1.88617
H	-1.11615	0.553454	1.46528
H	-0.550429	-1.11783	1.07233
H	-0.701362	0.12286	-0.240722
N	1.90792	-0.226502	0.349299
C	3.30595	0.112465	0.445113
C	3.95894	-0.191592	-0.890073
O	3.34634	-0.797281	-1.76732
H	1.67662	-0.90497	-0.342103
H	3.40442	1.17701	0.617358
C	3.99064	-0.684867	1.57679
H	3.89905	-1.77695	1.3951
H	5.06445	-0.422532	1.66976
H	3.49158	-0.452968	2.54297
N	5.22412	0.232542	-1.07836
C	5.9247	-0.00623743	-2.31866
H	5.70193	0.724635	-0.358215
H	6.95174	0.418986	-2.27837
H	5.38404	0.463737	-3.17194
H	6.00506	-1.09889	-2.52064
