44
  This energy is -1.2589 and Call times are: 134328
C	2.97035	1.79205	0.279832
C	1.77033	1.36818	-0.47611
O	1.45839	1.9131	-1.52595
H	3.45986	2.63685	-0.25173
H	3.69063	0.950687	0.357566
H	2.68229	2.12709	1.29859
N	1.05806	0.370169	0.0521162
C	-0.157841	-0.1229	-0.545395
C	-1.03777	-0.675513	0.559999
O	-0.606415	-0.802213	1.70437
H	1.30177	-0.035901	0.928233
H	-0.691878	0.701633	-1.00101
C	0.146183	-1.21615	-1.59307
H	0.684752	-2.06698	-1.12395
H	-0.781131	-1.5941	-2.07031
H	0.797698	-0.791734	-2.38789
N	-2.30363	-1.01145	0.242545
C	-3.2156	-1.54026	1.22989
H	-2.63572	-0.897871	-0.687986
H	-4.2075	-1.75435	0.774336
H	-3.36116	-0.811782	2.06019
H	-2.81829	-2.48548	1.66561
C	5.02884	-2.48508	-0.561015
C	5.82781	-1.32157	-1.00716
O	5.86768	-0.995458	-2.1855
H	4.54228	-2.95625	-1.44255
H	4.24257	-2.15871	0.151737
H	5.68503	-3.23412	-0.0696667
N	6.4948	-0.660657	-0.0581043
C	7.34853	0.465429	-0.343804
C	8.43439	0.516235	0.71445
O	8.38454	-0.212551	1.70344
H	6.48518	-0.962828	0.89082
H	7.83559	0.311271	-1.29859
C	6.5406	1.78163	-0.354241
H	6.0493	1.94554	0.628507
H	7.18437	2.65456	-0.586786
H	5.74689	1.7189	-1.13039
N	9.45224	1.37885	0.525009
C	10.5335	1.49275	1.4759
H	9.47719	1.9574	-0.283528
H	11.2719	2.25472	1.14229
H	11.0618	0.51836	1.58845
H	10.1468	1.79342	2.47653
