44
  This energy is -0.2314 and Call times are: 127165
C	-0.356832	-3.25818	1.1703
C	-0.862573	-1.88072	0.975474
O	-2.03283	-1.59927	1.19387
H	-1.19159	-3.91215	1.50405
H	0.438862	-3.26778	1.94459
H	0.0509753	-3.65459	0.216551
N	0.0240389	-0.977584	0.550447
C	-0.328441	0.39285	0.274352
C	0.612836	0.917385	-0.79355
O	1.58875	0.260349	-1.15076
H	0.963448	-1.23091	0.33784
H	-1.33096	0.428647	-0.133463
C	-0.232364	1.25533	1.5519
H	0.798556	1.22741	1.96477
H	-0.514754	2.3099	1.35532
H	-0.923449	0.848553	2.32215
N	0.334533	2.1187	-1.33707
C	1.17062	2.69582	-2.36375
H	-0.461994	2.6336	-1.0379
H	0.776013	3.68596	-2.68177
H	1.21094	2.03126	-3.25706
H	2.21093	2.83616	-1.99063
C	5.26719	3.39586	-0.589732
C	6.08609	2.26002	-0.109699
O	7.26972	2.40396	0.163621
H	5.90371	4.30476	-0.657534
H	4.43391	3.59258	0.117162
H	4.8533	3.17116	-1.59536
N	5.46278	1.08477	0.0027913
C	6.13743	-0.120582	0.415731
C	5.4236	-1.3017	-0.214333
O	4.35377	-1.15098	-0.801222
H	4.50923	0.974207	-0.262492
H	7.14973	-0.112968	0.0312644
C	6.14358	-0.249772	1.95473
H	5.1051	-0.26824	2.34877
H	6.67236	-1.167	2.2858
H	6.66379	0.628945	2.3947
N	6.00803	-2.51179	-0.113571
C	5.40516	-3.69247	-0.68691
H	6.87577	-2.61312	0.361636
H	6.03744	-4.58797	-0.49836
H	5.28251	-3.57562	-1.78808
H	4.39884	-3.87415	-0.244822
