44
  This energy is -1.1245 and Call times are: 132014
C	-0.18112	-2.24852	-2.65029
C	0.194308	-1.89796	-1.26202
O	0.545751	-2.75701	-0.465201
H	-0.0999542	-3.34892	-2.78599
H	0.499933	-1.74656	-3.36928
H	-1.22752	-1.93756	-2.85387
N	0.124496	-0.604978	-0.936879
C	0.417069	-0.115903	0.38742
C	-0.393837	1.14583	0.615518
O	-1.0127	1.67217	-0.307349
H	-0.20262	0.0773056	-1.58445
H	0.090654	-0.8456	1.11792
C	1.92562	0.173567	0.54784
H	2.25876	0.929911	-0.194448
H	2.16575	0.537645	1.56779
H	2.49983	-0.761609	0.36876
N	-0.415868	1.6582	1.86172
C	-1.16467	2.853	2.17463
H	0.0879151	1.2158	2.59627
H	-1.05751	3.11377	3.25062
H	-2.24722	2.70673	1.95561
H	-0.802827	3.714	1.56726
C	6.58692	-1.55692	-3.05684
C	6.41508	-1.59425	-1.58707
O	6.28818	-2.6551	-0.991337
H	6.55827	-2.59392	-3.45642
H	7.56437	-1.09866	-3.31634
H	5.76805	-0.96941	-3.52306
N	6.40487	-0.41532	-0.960638
C	6.20376	-0.28833	0.461326
C	5.55871	1.05838	0.729378
O	5.4475	1.89292	-0.16666
H	6.46824	0.441725	-1.46394
H	5.50963	-1.05027	0.793382
C	7.54321	-0.407907	1.2208
H	8.25199	0.380102	0.888052
H	7.39989	-0.325617	2.31771
H	8.00113	-1.39761	1.00368
N	5.10822	1.29876	1.97649
C	4.47548	2.5499	2.32356
H	5.20352	0.609552	2.68712
H	4.17464	2.55469	3.39441
H	3.56502	2.71503	1.70302
H	5.17057	3.40317	2.15061
