44
  This energy is -1.6978 and Call times are: 130848
C	-1.842	-0.0160733	2.95287
C	-0.557543	0.0264346	2.21836
O	0.490773	0.289772	2.79116
H	-1.66304	0.236492	4.02061
H	-2.28347	-1.03307	2.89326
H	-2.55293	0.721033	2.52352
N	-0.613081	-0.234336	0.910197
C	0.546663	-0.188721	0.0549348
C	0.0880234	0.173975	-1.34494
O	-1.10843	0.212005	-1.62561
H	-1.47957	-0.406762	0.450486
H	1.20829	0.599503	0.391965
C	1.28156	-1.54708	0.0490358
H	0.606383	-2.35432	-0.306676
H	2.18428	-1.52062	-0.595105
H	1.60101	-1.79601	1.08457
N	1.03603	0.458939	-2.25933
C	0.694045	0.819837	-3.61542
H	1.99882	0.4268	-2.01223
H	1.61118	1.01696	-4.21311
H	0.0621422	1.73731	-3.63025
H	0.123542	-0.000281749	-4.10845
C	9.06608	-2.27471	0.594716
C	7.80303	-1.60518	0.978882
O	7.12831	-2.01478	1.91344
H	9.23551	-3.14894	1.2602
H	9.91919	-1.572	0.700291
H	9.00714	-2.62902	-0.456027
N	7.44924	-0.543107	0.251405
C	6.22609	0.185845	0.477397
C	5.78899	0.796532	-0.840775
O	6.52732	0.768257	-1.82352
H	7.98787	-0.246412	-0.531991
H	5.45077	-0.504275	0.786009
C	6.42797	1.28535	1.54303
H	7.21592	1.99963	1.22209
H	5.48968	1.84471	1.73604
H	6.75522	0.816512	2.49667
N	4.56568	1.35927	-0.894051
C	4.06229	1.96025	-2.10714
H	3.98109	1.36879	-0.0895359
H	3.03938	2.36758	-1.94911
H	4.01724	1.20875	-2.92842
H	4.72443	2.79315	-2.43727
