44
  This energy is 0.1103 and Call times are: 132855
C	-2.43103	-0.878476	2.33046
C	-1.91317	-0.824496	0.944803
O	-2.44803	-1.45622	0.0441022
H	-3.30685	-1.5621	2.36887
H	-2.74984	0.132864	2.65954
H	-1.64668	-1.26036	3.01752
N	-0.840103	-0.0565846	0.741798
C	-0.196862	0.0625226	-0.542964
C	1.27095	0.367607	-0.310555
O	1.68839	0.633561	0.814934
H	-0.391345	0.419229	1.49285
H	-0.250992	-0.88793	-1.05905
C	-0.854118	1.17577	-1.38791
H	-0.789501	2.153	-0.863619
H	-0.376628	1.26801	-2.38492
H	-1.9293	0.935725	-1.53865
N	2.09433	0.327562	-1.3766
C	3.50749	0.598416	-1.25082
H	1.73867	0.106425	-2.27864
H	4.01315	0.515713	-2.23809
H	3.98522	-0.124686	-0.550705
H	3.67705	1.62581	-0.85478
C	2.01459	-0.496498	-0.636604
C	3.39776	-0.218247	-1.08448
O	3.69694	-0.246655	-2.27026
H	1.38242	-0.730665	-1.52056
H	1.59405	0.3912	-0.119029
H	2.00354	-1.36627	0.0536459
N	4.28674	0.0594172	-0.127923
C	5.67942	0.309062	-0.404817
C	6.48577	-0.110543	0.809808
O	5.92715	-0.417848	1.8611
H	4.03725	0.0385323	0.836013
H	5.99609	-0.31288	-1.23279
C	5.91946	1.8007	-0.725181
H	5.60453	2.43851	0.128088
H	6.98589	2.0032	-0.953762
H	5.31359	2.08766	-1.61226
N	7.82762	-0.141162	0.689399
C	8.67658	-0.53312	1.79022
H	8.26111	0.107028	-0.170579
H	9.74795	-0.494504	1.49373
H	8.44078	-1.57161	2.11767
H	8.52898	0.145442	2.66138
