44
  This energy is 0.1223 and Call times are: 137730
C	3.00911	-1.11306	-1.34873
C	1.65769	-0.524944	-1.48633
O	1.28931	-0.0248113	-2.54017
H	3.56078	-0.993906	-2.30651
H	2.93326	-2.19469	-1.10984
H	3.57154	-0.595375	-0.543267
N	0.877362	-0.571157	-0.40405
C	-0.446831	-0.00194967	-0.371231
C	-0.748752	0.411309	1.05692
O	0.00279706	0.0937022	1.97671
H	1.20604	-0.944796	0.458639
H	-0.465137	0.895212	-0.977363
C	-1.49631	-1.01708	-0.874548
H	-1.48522	-1.93336	-0.246575
H	-2.51837	-0.585959	-0.867165
H	-1.25108	-1.31142	-1.91838
N	-1.86001	1.14183	1.27482
C	-2.22539	1.58513	2.60002
H	-2.45355	1.3925	0.517233
H	-3.16992	2.1719	2.57193
H	-1.42577	2.22868	3.03331
H	-2.37342	0.714309	3.27891
C	1.06514	-0.535931	-0.839191
C	2.15228	0.307386	-0.293211
O	1.97622	1.4956	-0.0617666
H	0.158251	0.0882861	-0.993335
H	0.821921	-1.35395	-0.128949
H	1.37141	-0.971579	-1.8136
N	3.32109	-0.299487	-0.0741858
C	4.48414	0.398796	0.413952
C	5.71749	-0.316575	-0.104367
O	5.62314	-1.40204	-0.67407
H	3.46107	-1.25788	-0.306001
H	4.49684	1.40128	0.00469642
C	4.49302	0.443905	1.95769
H	4.49064	-0.584388	2.37799
H	5.37659	0.991075	2.34554
H	3.57779	0.964566	2.3149
N	6.91043	0.283963	0.075272
C	8.13787	-0.319109	-0.389339
H	6.96616	1.16413	0.534917
H	9.00989	0.327794	-0.147826
H	8.1083	-0.469869	-1.49282
H	8.29416	-1.31222	0.090706
