44
  This energy is -2.2615 and Call times are: 133465
C	1.94522	-2.81168	0.650575
C	0.747496	-2.16067	0.0737061
O	0.00135478	-2.76545	-0.683873
H	2.01765	-3.85285	0.267681
H	1.86923	-2.84047	1.75789
H	2.86114	-2.25647	0.357434
N	0.535892	-0.889964	0.424291
C	-0.56323	-0.110923	-0.0891149
C	-0.145945	1.34762	-0.0974537
O	0.899555	1.70665	0.440825
H	1.17459	-0.398538	1.00947
H	-0.755334	-0.397345	-1.11561
C	-1.82898	-0.307071	0.77381
H	-1.63552	-0.00343333	1.82472
H	-2.68626	0.276894	0.380629
H	-2.11136	-1.38253	0.771995
N	-0.955809	2.22613	-0.720649
C	-0.637806	3.63361	-0.784344
H	-1.79551	1.91598	-1.15398
H	-1.42554	4.19008	-1.33846
H	0.335018	3.7934	-1.30334
H	-0.557804	4.06523	0.239594
C	9.71442	-2.16652	-1.0472
C	8.39428	-1.52032	-1.22271
O	7.78073	-1.61015	-2.27718
H	10.0009	-2.67899	-1.99121
H	9.66744	-2.91736	-0.230634
H	10.4844	-1.40415	-0.804221
N	7.92208	-0.840983	-0.174895
C	6.67202	-0.123503	-0.208457
C	6.76692	1.03772	0.76321
O	7.72128	1.13948	1.53167
H	8.45168	-0.742638	0.662783
H	6.52624	0.294075	-1.19689
C	5.49432	-1.04923	0.167463
H	5.63821	-1.46959	1.18562
H	4.52453	-0.511871	0.131798
H	5.44891	-1.89585	-0.551914
N	5.77596	1.95077	0.745078
C	5.78378	3.09246	1.62976
H	5.01409	1.85351	0.113271
H	4.88473	3.7257	1.46257
H	6.68974	3.71738	1.45654
H	5.78894	2.76464	2.69449
