44
  This energy is -3.3943 and Call times are: 131473
C	2.50834	-0.648141	2.32396
C	1.20236	-0.0633912	1.94499
O	0.431089	0.365437	2.79213
H	2.6115	-0.630219	3.43072
H	3.33594	-0.0587046	1.87631
H	2.57264	-1.70005	1.97405
N	0.920918	-0.0353204	0.640236
C	-0.328233	0.463678	0.121407
C	-0.620512	-0.256244	-1.1816
O	0.224441	-0.980591	-1.70418
H	1.54121	-0.42548	-0.0342153
H	-1.12549	0.217712	0.811701
C	-0.260729	1.98971	-0.106439
H	0.550186	2.24167	-0.822657
H	-1.22118	2.38817	-0.4928
H	-0.0380093	2.49535	0.858483
N	-1.83635	-0.0786691	-1.73499
C	-2.20626	-0.727576	-2.97123
H	-2.50819	0.508035	-1.29514
H	-3.24507	-0.456542	-3.26212
H	-2.14955	-1.83524	-2.86568
H	-1.52064	-0.42374	-3.79509
C	4.03988	2.86937	0.480521
C	5.07585	2.09972	-0.244429
O	5.52422	2.49211	-1.3128
H	3.77542	3.77444	-0.108347
H	4.423	3.18588	1.47339
H	3.12824	2.25012	0.616568
N	5.48338	0.965649	0.330194
C	6.45376	0.0881537	-0.275548
C	6.17461	-1.32542	0.199274
O	5.35767	-1.53987	1.09276
H	5.07951	0.638633	1.17978
H	6.32332	0.0990279	-1.35048
C	7.89075	0.511631	0.0999222
H	8.02823	0.490482	1.20205
H	8.64768	-0.148054	-0.371667
H	8.07014	1.55166	-0.250085
N	6.84587	-2.3297	-0.398102
C	6.64168	-3.70761	-0.0162274
H	7.4999	-2.13668	-1.12202
H	7.28438	-4.38316	-0.622704
H	5.57876	-4.00429	-0.169418
H	6.89067	-3.8585	1.05913
