44
  This energy is -1.0623 and Call times are: 132156
C	-2.15284	-1.72947	-2.11823
C	-1.61976	-1.4184	-0.772791
O	-2.18199	-1.81591	0.238294
H	-3.08688	-2.32342	-2.01491
H	-1.41233	-2.32182	-2.69572
H	-2.38253	-0.790814	-2.66527
N	-0.504569	-0.685597	-0.731168
C	0.108902	-0.266724	0.504453
C	0.841777	1.03709	0.250467
O	0.980228	1.46949	-0.892154
H	-0.0812995	-0.334881	-1.56165
H	-0.663323	-0.0653982	1.23641
C	1.08457	-1.34308	1.02864
H	1.88303	-1.54239	0.282468
H	1.55299	-1.0383	1.98687
H	0.528315	-2.29051	1.19986
N	1.32388	1.70181	1.319
C	2.03019	2.95344	1.17501
H	1.19836	1.33808	2.23607
H	2.34653	3.34294	2.1677
H	1.38061	3.71742	0.689561
H	2.93885	2.82166	0.544054
C	4.21869	-1.54707	-1.95142
C	4.7176	-0.402712	-1.15601
O	4.14276	0.67699	-1.17081
H	3.31507	-1.23414	-2.51834
H	3.94846	-2.39007	-1.28129
H	4.99614	-1.88126	-2.67041
N	5.81943	-0.617693	-0.43342
C	6.4479	0.411186	0.357147
C	7.93075	0.102344	0.442846
O	8.37599	-0.967538	0.0319682
H	6.29935	-1.48983	-0.463614
H	6.34538	1.3631	-0.148783
C	5.82638	0.47876	1.76937
H	5.94063	-0.494385	2.2928
H	6.29241	1.27652	2.38331
H	4.73977	0.697855	1.68203
N	8.73562	1.04303	0.975109
C	10.1608	0.839981	1.09262
H	8.35736	1.90414	1.29835
H	10.6476	1.727	1.55459
H	10.6175	0.671776	0.0904378
H	10.3801	-0.0500669	1.72575
