44
  This energy is -3.2823 and Call times are: 134955
C	0.677708	-2.95408	1.71078
C	-0.206061	-2.09814	0.88771
O	-1.22139	-2.54641	0.373352
H	0.267501	-3.98699	1.73763
H	0.732331	-2.56203	2.74811
H	1.69773	-2.98379	1.27288
N	0.169078	-0.825257	0.741352
C	-0.565168	0.117398	-0.0653972
C	0.41145	1.15381	-0.588478
O	1.56912	1.1929	-0.176172
H	1.01966	-0.485396	1.13235
H	-0.981869	-0.395174	-0.923454
C	-1.68367	0.793893	0.757133
H	-1.25567	1.32872	1.63167
H	-2.26521	1.51189	0.143283
H	-2.38189	0.01611	1.13645
N	-0.0340145	2.01777	-1.52184
C	0.82516	3.03484	-2.08182
H	-0.972906	1.96783	-1.84597
H	0.275449	3.64438	-2.83249
H	1.70613	2.57241	-2.58315
H	1.20013	3.71569	-1.28371
C	3.42571	0.26693	3.35814
C	4.07055	0.792224	2.13364
O	4.46121	1.94974	2.07072
H	3.36488	1.07663	4.11745
H	4.02162	-0.572248	3.77458
H	2.39891	-0.0876696	3.12789
N	4.1957	-0.0623127	1.11556
C	4.76306	0.314632	-0.155098
C	4.14244	-0.559829	-1.22828
O	3.4328	-1.5178	-0.92759
H	3.8359	-0.989516	1.16746
H	4.49223	1.33926	-0.377379
C	6.29871	0.150585	-0.144047
H	6.57693	-0.902646	0.0735378
H	6.74883	0.450865	-1.11242
H	6.73071	0.793266	0.65387
N	4.3907	-0.242594	-2.51425
C	3.83845	-1.01408	-3.60329
H	4.96402	0.538703	-2.73777
H	4.15708	-0.595173	-4.5832
H	2.72502	-1.0071	-3.56455
H	4.1792	-2.07326	-3.54706
