44
  This energy is 0.1077 and Call times are: 130792
C	-3.10668	-0.312726	1.53735
C	-2.1187	0.446268	0.737991
O	-2.43231	1.47487	0.154874
H	-4.09395	0.195018	1.47935
H	-2.78692	-0.356486	2.59969
H	-3.20926	-1.34441	1.13961
N	-0.88222	-0.0550449	0.691302
C	0.17618	0.547746	-0.0800568
C	1.14205	-0.546502	-0.493911
O	1.04159	-1.6823	-0.0339146
H	-0.652451	-0.915184	1.13766
H	-0.238815	0.971339	-0.986136
C	0.907012	1.6334	0.739996
H	1.34198	1.19721	1.66443
H	1.71532	2.11472	0.152209
H	0.179585	2.41948	1.03877
N	2.10176	-0.229207	-1.38515
C	3.06223	-1.20653	-1.84178
H	2.16448	0.694161	-1.74919
H	3.76817	-0.75284	-2.57187
H	2.54744	-2.06157	-2.33693
H	3.65218	-1.60747	-0.986003
C	6.00459	-2.44891	-2.26379
C	5.73939	-1.54327	-1.12334
O	4.60371	-1.37088	-0.702727
H	5.0437	-2.87531	-2.62534
H	6.6695	-3.27949	-1.94632
H	6.48404	-1.88855	-3.09397
N	6.80072	-0.93288	-0.59098
C	6.69625	0.00950198	0.495095
C	7.84897	0.98948	0.383512
O	8.7597	0.801586	-0.420836
H	7.71377	-1.05171	-0.970536
H	5.77963	0.57629	0.389324
C	6.73105	-0.714398	1.85891
H	7.67589	-1.28752	1.97232
H	6.63745	-0.000731606	2.70297
H	5.88356	-1.43198	1.91525
N	7.83115	2.07007	1.1885
C	8.88264	3.0595	1.14899
H	7.0836	2.20696	1.82999
H	8.68742	3.87044	1.88486
H	8.95451	3.51602	0.13523
H	9.86703	2.59677	1.3898
