44
  This energy is -3.2765 and Call times are: 133995
C	0.628364	-3.35407	0.684165
C	-0.0419642	-2.28534	-0.0901901
O	-0.647898	-2.53677	-1.12268
H	0.489689	-4.3267	0.163936
H	0.187402	-3.42416	1.70072
H	1.71533	-3.14249	0.766758
N	0.0560331	-1.04717	0.399414
C	-0.506958	0.10198	-0.264703
C	0.328116	1.31503	0.099599
O	1.19491	1.24493	0.968777
H	0.587233	-0.852433	1.21903
H	-0.430782	-0.0319747	-1.33656
C	-1.97918	0.313321	0.151388
H	-2.05674	0.461307	1.24962
H	-2.42816	1.18709	-0.363855
H	-2.56978	-0.589593	-0.117474
N	0.0900843	2.46131	-0.567785
C	0.838876	3.66546	-0.292956
H	-0.612645	2.49735	-1.2706
H	0.496032	4.49911	-0.944655
H	1.9258	3.50231	-0.475297
H	0.709672	3.97478	0.769479
C	3.30778	-1.15234	-1.35333
C	4.57462	-0.392742	-1.44966
O	4.97966	0.0290178	-2.52413
H	2.86542	-1.25894	-2.36763
H	2.58751	-0.614248	-0.701854
H	3.49876	-2.1637	-0.936471
N	5.23986	-0.200958	-0.308142
C	6.5082	0.48193	-0.248737
C	7.28482	-0.0648574	0.934246
O	6.75011	-0.820013	1.74389
H	4.91816	-0.585619	0.552324
H	7.07805	0.255346	-1.14124
C	6.30771	2.00669	-0.10676
H	5.73222	2.24035	0.81425
H	7.27702	2.54509	-0.0738773
H	5.73043	2.38374	-0.979069
N	8.57624	0.30011	1.057
C	9.39556	-0.174794	2.14757
H	8.9924	0.908711	0.389547
H	10.4264	0.236423	2.07305
H	9.46016	-1.28698	2.13492
H	8.96428	0.134849	3.12699
