44
  This energy is -4.1063 and Call times are: 134051
C	1.40218	3.0217	1.00793
C	1.51889	1.63298	0.508931
O	2.58307	1.19784	0.0911018
H	2.38558	3.5309	0.910345
H	1.10274	3.02029	2.07708
H	0.648045	3.57971	0.413798
N	0.406353	0.895655	0.540296
C	0.353049	-0.458726	0.048999
C	-1.06142	-0.734564	-0.425084
O	-1.96723	0.0669536	-0.204207
H	-0.461833	1.27674	0.845084
H	1.00538	-0.552991	-0.810196
C	0.760146	-1.46164	1.15067
H	0.0847199	-1.37263	2.02812
H	0.736471	-2.50713	0.780657
H	1.79534	-1.236	1.48804
N	-1.2825	-1.87981	-1.10004
C	-2.59507	-2.22442	-1.59458
H	-0.536025	-2.51391	-1.27258
H	-2.57199	-3.2033	-2.12229
H	-2.96192	-1.45062	-2.30727
H	-3.32501	-2.2951	-0.755925
C	3.66623	-1.32258	-2.7438
C	4.14245	-1.40242	-1.34452
O	3.74162	-2.27647	-0.588345
H	2.9288	-2.13392	-2.92765
H	4.5179	-1.44523	-3.44548
H	3.17571	-0.343122	-2.92578
N	5.0222	-0.473466	-0.963127
C	5.54331	-0.395682	0.378867
C	5.8923	1.05223	0.667556
O	5.8712	1.89553	-0.226928
H	5.30787	0.256018	-1.57803
H	4.7708	-0.687155	1.0795
C	6.78826	-1.29528	0.54027
H	7.58503	-0.989932	-0.17105
H	7.19069	-1.25477	1.5732
H	6.51138	-2.34866	0.316497
N	6.21553	1.37677	1.93492
C	6.55663	2.73062	2.30497
H	6.22307	0.68129	2.64577
H	6.79114	2.79441	3.3904
H	5.71047	3.42215	2.08801
H	7.44542	3.08243	1.73276
