44
  This energy is -2.249 and Call times are: 131868
C	0.640159	-0.646016	3.3594
C	0.230717	0.258072	2.26116
O	-0.264629	1.3522	2.49337
H	0.404458	-0.16862	4.33532
H	1.73223	-0.839786	3.30856
H	0.0905019	-1.60824	3.28799
N	0.430324	-0.18876	1.01903
C	0.0439187	0.559127	-0.1514
C	-0.258741	-0.426757	-1.26405
O	-0.00116486	-1.62192	-1.13382
H	0.796805	-1.09851	0.846101
H	-0.870113	1.10122	0.0567195
C	1.16475	1.53155	-0.579624
H	2.09968	0.974904	-0.803421
H	0.873798	2.12323	-1.47169
H	1.37506	2.23845	0.252491
N	-0.824485	0.0539988	-2.3887
C	-1.15327	-0.810073	-3.49841
H	-1.0292	1.02349	-2.47381
H	-1.61025	-0.227509	-4.32848
H	-1.87632	-1.59678	-3.18285
H	-0.239867	-1.3163	-3.88644
C	5.95818	-1.18541	3.18319
C	5.23734	-0.268852	2.27135
O	4.32139	0.434478	2.67482
H	5.5163	-1.11375	4.20077
H	7.03139	-0.905962	3.23693
H	5.86653	-2.23232	2.82453
N	5.64108	-0.258854	0.998839
C	5.00886	0.548382	-0.0146793
C	5.18029	-0.149878	-1.35057
O	5.91298	-1.13129	-1.45877
H	6.36094	-0.867043	0.676717
H	3.94617	0.605377	0.185471
C	5.62812	1.96251	-0.0594388
H	6.71634	1.90514	-0.275187
H	5.14038	2.59822	-0.826571
H	5.49817	2.45157	0.930648
N	4.49654	0.33896	-2.40391
C	4.59296	-0.26343	-3.71311
H	3.90546	1.13143	-2.29577
H	3.95676	0.281779	-4.4447
H	4.25942	-1.32601	-3.6821
H	5.64504	-0.242383	-4.07895
