44
  This energy is 0.1481 and Call times are: 133312
C	-1.90888	-2.67456	-1.14698
C	-0.635442	-2.09478	-0.663921
O	0.310183	-2.80883	-0.360059
H	-1.8289	-3.78337	-1.15248
H	-2.12167	-2.32449	-2.17892
H	-2.74306	-2.37777	-0.476795
N	-0.583915	-0.763408	-0.579215
C	0.571742	-0.0564731	-0.0860016
C	0.100794	1.24592	0.533301
O	-1.06472	1.61718	0.408997
H	-1.37566	-0.197663	-0.791207
H	1.0374	-0.637653	0.700145
C	1.57802	0.21824	-1.22494
H	1.10389	0.823396	-2.02682
H	2.47865	0.749935	-0.855223
H	1.90293	-0.748156	-1.66863
N	1.00115	1.97004	1.22687
C	0.642803	3.21992	1.85581
H	1.93856	1.65117	1.31989
H	1.51948	3.6632	2.37751
H	-0.168478	3.06497	2.60353
H	0.278901	3.95108	1.09809
C	5.78225	-2.57363	-0.223171
C	4.92773	-1.65364	0.56078
O	4.76416	-1.81134	1.76277
H	6.18236	-3.36462	0.447718
H	6.63287	-2.01789	-0.67076
H	5.18874	-3.0531	-1.02998
N	4.35267	-0.656547	-0.115604
C	3.46048	0.293058	0.501479
C	2.48738	0.782961	-0.554294
O	2.64659	0.495925	-1.73919
H	4.46252	-0.56532	-1.10123
H	2.88073	-0.206958	1.26731
C	4.24685	1.47766	1.10444
H	4.83354	1.99743	0.317243
H	3.57205	2.20896	1.59471
H	4.95819	1.09498	1.86857
N	1.44498	1.53219	-0.144344
C	0.464806	2.03822	-1.07675
H	1.33076	1.75051	0.819172
H	-0.31312	2.63069	-0.546618
H	-0.0373144	1.2001	-1.61221
H	0.947494	2.69381	-1.83724
