44
  This energy is 0.1009 and Call times are: 138267
C	-2.10522	1.55197	-2.29611
C	-1.87416	0.780131	-1.05433
O	-2.77529	0.592765	-0.248561
H	-3.16024	1.90158	-2.32031
H	-1.91797	0.91279	-3.18444
H	-1.43311	2.43532	-2.32829
N	-0.638528	0.309647	-0.869276
C	-0.250247	-0.422421	0.310502
C	1.22981	-0.187764	0.546995
O	1.9181	0.389012	-0.292827
H	0.0945964	0.505256	-1.51436
H	-0.780629	-0.0262201	1.16744
C	-0.539626	-1.93035	0.144226
H	0.0125561	-2.33959	-0.728502
H	-0.257784	-2.50311	1.05144
H	-1.62695	-2.07773	-0.035669
N	1.75452	-0.625433	1.70852
C	3.15217	-0.441893	2.02328
H	1.18075	-1.08629	2.37745
H	3.38972	-0.869379	3.02231
H	3.41335	0.641128	2.0344
H	3.79515	-0.944308	1.2648
C	6.06706	0.879278	0.0503839
C	4.63446	1.19557	0.247329
O	4.28476	2.22524	0.807594
H	6.68631	1.68875	0.494398
H	6.29695	0.80425	-1.03325
H	6.31909	-0.0804621	0.548834
N	3.75979	0.299405	-0.215514
C	2.33413	0.447228	-0.0599694
C	1.71672	-0.937928	-0.0185208
O	2.38914	-1.93506	-0.274008
H	4.06043	-0.553437	-0.632805
H	2.12582	0.921815	0.89082
C	1.73524	1.27251	-1.21992
H	1.93956	0.780592	-2.19476
H	0.639993	1.40514	-1.10429
H	2.20718	2.27917	-1.23601
N	0.414488	-1.03233	0.3151
C	-0.257063	-2.30912	0.385803
H	-0.11204	-0.214493	0.522442
H	-1.32264	-2.17745	0.676394
H	0.232365	-2.96921	1.13814
H	-0.223706	-2.82593	-0.600573
