44
  This energy is 0.1139 and Call times are: 127753
C	-1.88857	-2.88573	-0.467507
C	-1.75294	-1.41308	-0.403828
O	-2.65427	-0.677472	-0.781834
H	-2.87672	-3.14495	-0.905947
H	-1.82252	-3.32057	0.551949
H	-1.08823	-3.31651	-1.10546
N	-0.60165	-0.943636	0.0825149
C	-0.305943	0.464935	0.166458
C	1.19744	0.639643	0.0622333
O	1.94833	-0.333397	0.0951374
H	0.138575	-1.55473	0.348024
H	-0.749315	0.974101	-0.680184
C	-0.829704	1.06059	1.49164
H	-0.367177	0.54564	2.36051
H	-0.620366	2.14766	1.56212
H	-1.93041	0.914381	1.55003
N	1.67323	1.89293	-0.0753483
C	3.08902	2.15591	-0.187531
H	1.0497	2.66717	-0.104028
H	3.27921	3.2467	-0.293446
H	3.51549	1.63781	-1.0769
H	3.62926	1.79171	0.716153
C	4.34686	2.20532	-1.61657
C	5.6943	1.80321	-1.15411
O	6.69676	2.38872	-1.53969
H	4.44108	3.05289	-2.32973
H	3.7269	2.52858	-0.75408
H	3.84972	1.35619	-2.13126
N	5.74769	0.775121	-0.304073
C	6.98892	0.242025	0.199647
C	6.78197	-1.22929	0.506195
O	5.65851	-1.72769	0.472405
H	4.92624	0.282505	-0.0312998
H	7.74527	0.307358	-0.572543
C	7.44142	1.00065	1.46652
H	6.67042	0.925065	2.26269
H	8.4032	0.608548	1.85608
H	7.57896	2.07628	1.22068
N	7.87066	-1.96461	0.806303
C	7.77165	-3.37394	1.10658
H	8.77186	-1.5444	0.824609
H	8.77498	-3.80049	1.32708
H	7.33635	-3.92957	0.244568
H	7.11665	-3.54211	1.99193
