44
  This energy is 0.1786 and Call times are: 132324
C	-2.81482	2.01427	-0.363588
C	-1.35518	1.78579	-0.455122
O	-0.624381	2.58272	-1.02717
H	-3.07249	2.95873	-0.890356
H	-3.12279	2.10026	0.699664
H	-3.36414	1.17535	-0.840627
N	-0.892113	0.670931	0.115005
C	0.497882	0.290733	0.0711467
C	0.576587	-1.22282	0.13836
O	-0.424106	-1.89542	0.379052
H	-1.50476	0.0115758	0.541357
H	0.921372	0.593913	-0.878258
C	1.28081	0.926135	1.24099
H	0.853311	0.607027	2.21539
H	2.35528	0.652089	1.21036
H	1.20284	2.03342	1.17626
N	1.77549	-1.79704	-0.0828612
C	1.94541	-3.23086	-0.044847
H	2.57284	-1.23634	-0.280137
H	3.00272	-3.50721	-0.252095
H	1.29866	-3.72337	-0.806701
H	1.66738	-3.63321	0.956131
C	5.03961	0.865936	1.86136
C	6.31568	0.135279	1.69123
O	6.8558	-0.423753	2.63578
H	4.72649	0.815077	2.92682
H	4.2487	0.406458	1.23201
H	5.16743	1.93113	1.57482
N	6.83483	0.126034	0.461278
C	8.0922	-0.506529	0.149135
C	8.70969	0.223955	-1.02844
O	8.07086	1.07166	-1.64892
H	6.40449	0.620206	-0.288696
H	8.76695	-0.393669	0.988535
C	7.88996	-2.00051	-0.186079
H	7.20612	-2.11648	-1.05381
H	8.85261	-2.50206	-0.414726
H	7.42982	-2.51341	0.686582
N	9.97903	-0.0843996	-1.35966
C	10.6511	0.562984	-2.4621
H	10.4811	-0.770121	-0.84313
H	11.687	0.17369	-2.57444
H	10.7063	1.66341	-2.29688
H	10.1037	0.384089	-3.4158
