44
  This energy is -3.2629 and Call times are: 129147
C	-0.144864	0.271047	-3.46673
C	-0.511294	0.728198	-2.10736
O	-1.06985	1.80192	-1.92974
H	-0.440776	1.04584	-4.20701
H	-0.672397	-0.67585	-3.70723
H	0.951836	0.110265	-3.53375
N	-0.197001	-0.0908318	-1.10099
C	-0.451039	0.235785	0.280077
C	0.586515	-0.471005	1.13183
O	1.34541	-1.30317	0.638585
H	0.294292	-0.942842	-1.25776
H	-0.317115	1.30042	0.425844
C	-1.87554	-0.19272	0.695304
H	-2.01004	-1.28657	0.555898
H	-2.08823	0.0659145	1.75285
H	-2.61783	0.330527	0.0537722
N	0.64881	-0.147084	2.43844
C	1.60774	-0.76375	3.3252
H	0.0290551	0.531628	2.81834
H	1.50126	-0.365082	4.35813
H	2.64773	-0.565213	2.97839
H	1.45958	-1.86743	3.35812
C	5.78838	-2.25339	2.54751
C	5.84798	-1.81966	1.13348
O	6.58081	-2.37973	0.329934
H	6.4957	-3.09679	2.7031
H	4.76222	-2.59359	2.80052
H	6.07543	-1.41544	3.21722
N	5.06547	-0.792505	0.794312
C	5.04628	-0.230509	-0.533222
C	4.66898	1.23464	-0.421178
O	4.28283	1.70563	0.646888
H	4.50499	-0.320644	1.46889
H	6.04275	-0.275667	-0.954688
C	4.04214	-0.980774	-1.43547
H	3.01788	-0.925774	-1.00896
H	4.02821	-0.566267	-2.46431
H	4.33316	-2.05218	-1.49662
N	4.78101	1.99555	-1.52774
C	4.44981	3.40137	-1.51511
H	5.09918	1.59735	-2.38172
H	4.608	3.8517	-2.51981
H	5.08589	3.94819	-0.781859
H	3.38412	3.55154	-1.22719
