44
  This energy is -3.1279 and Call times are: 129397
C	-0.350482	3.44668	-0.332017
C	-0.915153	2.09168	-0.141611
O	-2.08537	1.93266	0.177334
H	-1.13656	4.20474	-0.123917
H	0.00108625	3.5713	-1.37778
H	0.498619	3.60883	0.364996
N	-0.0798605	1.0682	-0.334377
C	-0.472	-0.30615	-0.144783
C	0.758781	-1.09849	0.253871
O	1.87746	-0.590536	0.206378
H	0.880487	1.21475	-0.553744
H	-1.17487	-0.367007	0.676738
C	-1.09453	-0.885126	-1.43416
H	-0.37015	-0.832588	-2.27472
H	-1.41326	-1.93872	-1.29676
H	-1.98867	-0.28515	-1.71146
N	0.578147	-2.36842	0.667023
C	1.68988	-3.19714	1.07131
H	-0.335111	-2.76055	0.702553
H	1.33702	-4.20667	1.3772
H	2.22899	-2.7387	1.93182
H	2.41507	-3.31771	0.234231
C	5.95915	0.864123	3.28477
C	5.20999	1.06566	2.0241
O	4.25307	1.82585	1.97103
H	5.49609	1.47616	4.08904
H	7.01597	1.17946	3.15652
H	5.9262	-0.205082	3.58275
N	5.63546	0.37464	0.963977
C	4.98207	0.43322	-0.319846
C	5.21198	-0.888439	-1.02832
O	5.99446	-1.71983	-0.572007
H	6.39038	-0.271273	1.03291
H	3.91445	0.538949	-0.172815
C	5.53083	1.60341	-1.16528
H	6.62424	1.48986	-1.3253
H	5.02584	1.66762	-2.15087
H	5.35896	2.55939	-0.624064
N	4.5237	-1.11706	-2.1641
C	4.67345	-2.34856	-2.90381
H	3.89204	-0.433955	-2.51544
H	4.02408	-2.34633	-3.80688
H	4.39275	-3.22258	-2.27247
H	5.72956	-2.48434	-3.23144
