44
  This energy is -0.1455 and Call times are: 129899
C	1.92079	-1.74489	-2.31918
C	0.616333	-1.31024	-1.7709
O	-0.422388	-1.48848	-2.39195
H	1.76446	-2.20171	-3.32056
H	2.38568	-2.49829	-1.6491
H	2.60131	-0.873676	-2.42392
N	0.643048	-0.717927	-0.574725
C	-0.540114	-0.20275	0.0681423
C	-0.128566	0.953938	0.959354
O	1.05856	1.19833	1.16603
H	1.50085	-0.543136	-0.0998642
H	-1.21183	0.192449	-0.683687
C	-1.24085	-1.30185	0.896499
H	-0.55562	-1.70025	1.67482
H	-2.161	-0.921161	1.38531
H	-1.52596	-2.14144	0.22556
N	-1.10769	1.70241	1.50446
C	-0.81149	2.82678	2.36134
H	-2.06237	1.49159	1.32224
H	-1.74904	3.31385	2.70917
H	-0.203259	3.58551	1.81759
H	-0.234245	2.49804	3.25569
C	4.16406	1.61669	-1.59716
C	4.73255	0.867189	-0.454257
O	4.12084	0.760168	0.599672
H	3.174	2.03162	-1.30827
H	4.03053	0.942049	-2.46881
H	4.8367	2.45441	-1.87799
N	5.93809	0.324775	-0.640985
C	6.63827	-0.396762	0.392299
C	8.12792	-0.24977	0.145452
O	8.54713	0.258245	-0.892761
H	6.44125	0.455207	-1.4905
H	6.42412	0.0563326	1.35223
C	6.23434	-1.88742	0.39486
H	6.46354	-2.35535	-0.586238
H	6.75639	-2.45099	1.19509
H	5.13934	-1.97064	0.569198
N	8.96688	-0.686775	1.10524
C	10.4003	-0.583345	0.9607
H	8.60868	-1.09126	1.9402
H	10.9165	-0.996592	1.85508
H	10.707	0.480831	0.839463
H	10.7466	-1.14675	0.0641594
