44
  This energy is -2.375 and Call times are: 132240
C	-0.834972	2.90918	-1.71819
C	-1.06532	1.48857	-1.37183
O	-2.09804	0.917797	-1.69448
H	-1.72172	3.30344	-2.26051
H	0.0574592	3.00386	-2.37191
H	-0.682367	3.50811	-0.795651
N	-0.0913281	0.877761	-0.693134
C	-0.188841	-0.490114	-0.248196
C	0.652396	-0.640876	1.00526
O	1.39611	0.264766	1.3773
H	0.725783	1.36714	-0.402096
H	-1.21469	-0.704942	0.0240384
C	0.295369	-1.46305	-1.34555
H	1.35108	-1.24987	-1.6177
H	0.212201	-2.52027	-1.02016
H	-0.32909	-1.3297	-2.25584
N	0.546793	-1.79424	1.6942
C	1.30449	-2.02538	2.90194
H	-0.0634449	-2.51378	1.37964
H	1.07963	-3.03095	3.32086
H	1.05661	-1.26085	3.67351
H	2.39801	-1.96718	2.6971
C	8.24423	2.21756	-1.89922
C	6.96655	1.54778	-1.56747
O	5.90896	1.92638	-2.0518
H	8.04659	3.06147	-2.59537
H	8.93572	1.50101	-2.39028
H	8.71824	2.61567	-0.977326
N	7.03806	0.520946	-0.717236
C	5.87506	-0.20215	-0.266539
C	6.16702	-0.752609	1.11669
O	7.2992	-0.692514	1.59236
H	7.9008	0.250504	-0.299624
H	5.04253	0.483783	-0.171629
C	5.52494	-1.34708	-1.24214
H	6.37484	-2.05678	-1.33176
H	4.62291	-1.90275	-0.913362
H	5.32296	-0.921962	-2.24952
N	5.14265	-1.2981	1.80161
C	5.32435	-1.84242	3.12708
H	4.2328	-1.33392	1.40165
H	4.3652	-2.24376	3.52229
H	5.69072	-1.05714	3.82735
H	6.07142	-2.66876	3.11363
