44
  This energy is 0.1279 and Call times are: 127609
C	1.10562	-1.64453	-2.86109
C	1.30565	-0.691253	-1.74646
O	2.41056	-0.227227	-1.50098
H	2.08092	-1.83822	-3.35823
H	0.400572	-1.21966	-3.60616
H	0.701757	-2.6045	-2.47581
N	0.221669	-0.37528	-1.03405
C	0.266306	0.505132	0.106754
C	-0.852731	0.111161	1.05232
O	-1.70523	-0.707214	0.712885
H	-0.663135	-0.792736	-1.22038
H	1.2007	0.359226	0.634246
C	0.114192	1.97933	-0.327795
H	-0.849041	2.13179	-0.85975
H	0.160842	2.66827	0.540375
H	0.938893	2.2433	-1.02532
N	-0.870532	0.682696	2.27259
C	-1.89379	0.365039	3.24121
H	-0.169773	1.3396	2.53045
H	-1.73562	0.936684	4.18218
H	-1.87999	-0.721999	3.48499
H	-2.90344	0.616805	2.84327
C	8.08421	0.796393	-0.160122
C	6.97787	-0.18513	-0.098541
O	7.17693	-1.37634	-0.292994
H	9.02932	0.269058	-0.414168
H	8.20571	1.29826	0.822789
H	7.87678	1.55832	-0.940838
N	5.76601	0.303073	0.176094
C	4.5849	-0.52211	0.227217
C	3.39159	0.336292	-0.147935
O	3.50532	1.55454	-0.268966
H	5.61281	1.28035	0.291511
H	4.66448	-1.30614	-0.515467
C	4.39525	-1.1273	1.63541
H	4.30299	-0.323234	2.39635
H	3.49667	-1.77593	1.68392
H	5.28357	-1.7448	1.89217
N	2.21311	-0.285255	-0.350078
C	1.0242	0.448979	-0.715561
H	2.14177	-1.2723	-0.251447
H	0.15876	-0.239152	-0.83687
H	1.17764	0.991861	-1.6763
H	0.769016	1.19891	0.0677835
