44
  This energy is -3.1972 and Call times are: 131373
C	-1.64497	-0.26824	-3.05529
C	-0.852188	0.494042	-2.06455
O	-0.346172	1.57011	-2.35166
H	-1.65944	0.285979	-4.01889
H	-2.68831	-0.392592	-2.69653
H	-1.19014	-1.26742	-3.22223
N	-0.723215	-0.058423	-0.856029
C	0.0540718	0.543207	0.198687
C	0.573739	-0.565344	1.09458
O	0.179573	-1.72199	0.958481
H	-1.10658	-0.954216	-0.649982
H	0.914555	1.04078	-0.230983
C	-0.798755	1.54158	1.01181
H	-1.67594	1.02941	1.46154
H	-0.207707	2.02187	1.81835
H	-1.17496	2.33936	0.33478
N	1.48372	-0.236442	2.03254
C	2.03873	-1.2255	2.92691
H	1.79348	0.70411	2.12466
H	2.76906	-0.759271	3.62439
H	2.56267	-2.02395	2.35311
H	1.23441	-1.70521	3.53031
C	5.07834	-2.24429	-2.64615
C	5.30206	-0.882922	-2.1097
O	5.71387	0.0196757	-2.82534
H	5.35654	-2.26532	-3.72226
H	4.00856	-2.52408	-2.54598
H	5.70527	-2.9792	-2.09848
N	5.03277	-0.703802	-0.814409
C	5.24144	0.553252	-0.140001
C	5.53141	0.263895	1.32074
O	5.39745	-0.870027	1.77679
H	4.73719	-1.45827	-0.235386
H	6.11692	1.03897	-0.552587
C	4.00198	1.46459	-0.275793
H	3.10568	0.971085	0.156819
H	4.1555	2.44108	0.227605
H	3.80381	1.65652	-1.35293
N	5.94658	1.28893	2.09076
C	6.25154	1.1074	3.49084
H	6.05291	2.19844	1.70273
H	6.57617	2.06698	3.95026
H	7.06931	0.362062	3.62129
H	5.35712	0.738792	4.04336
