44
  This energy is 0.1097 and Call times are: 135793
C	-2.67612	1.11624	-1.92485
C	-2.12287	0.427757	-0.736981
O	-2.83912	0.114707	0.203968
H	-3.76519	1.28424	-1.77793
H	-2.52773	0.49334	-2.83189
H	-2.17678	2.0981	-2.06522
N	-0.812049	0.175107	-0.754423
C	-0.122491	-0.449643	0.34683
C	1.31513	0.0348671	0.340722
O	1.75315	0.695312	-0.599314
H	-0.234958	0.472631	-1.50961
H	-0.568576	-0.124302	1.27838
C	-0.175712	-1.98867	0.229302
H	0.29126	-2.32365	-0.72136
H	0.33992	-2.48155	1.07884
H	-1.23707	-2.32013	0.22772
N	2.08474	-0.277461	1.40194
C	3.46334	0.14505	1.48639
H	1.71126	-0.809204	2.15483
H	3.926	-0.20954	2.43372
H	3.53617	1.25636	1.4553
H	4.05259	-0.263527	0.633759
C	7.39837	0.215809	2.7296
C	6.20002	-0.331183	2.05438
O	5.59148	-1.28504	2.51941
H	7.60977	-0.381226	3.64322
H	7.2235	1.27223	3.02311
H	8.27725	0.160956	2.05312
N	5.83073	0.270581	0.921291
C	4.71138	-0.174977	0.1294
C	4.97952	0.19299	-1.31776
O	5.9295	0.913112	-1.61885
H	6.36011	1.0199	0.533818
H	4.64473	-1.25458	0.180695
C	3.39723	0.472583	0.618205
H	3.46125	1.57986	0.555856
H	2.52588	0.126752	0.0251875
H	3.22533	0.19642	1.68146
N	4.14693	-0.303654	-2.25379
C	4.32694	-0.0120009	-3.6569
H	3.38621	-0.887914	-1.99108
H	3.54212	-0.5119	-4.26633
H	5.32271	-0.368101	-4.0075
H	4.26824	1.08518	-3.84098
