44
  This energy is -1.0431 and Call times are: 132071
C	-2.53121	2.37092	0.290529
C	-1.13463	1.92408	0.49315
O	-0.263449	2.7085	0.842634
H	-2.5995	3.46307	0.486523
H	-3.20899	1.8373	0.989531
H	-2.84847	2.17294	-0.755053
N	-0.887273	0.630938	0.271852
C	0.430502	0.0573173	0.38582
C	0.513523	-1.1281	-0.557282
O	-0.490232	-1.55002	-1.1284
H	-1.59833	0.0132768	-0.0518153
H	1.16521	0.782233	0.0582081
C	0.716024	-0.384869	1.83778
H	-0.0312045	-1.13641	2.17075
H	1.73302	-0.81558	1.94139
H	0.642015	0.496811	2.51121
N	1.72289	-1.69071	-0.74949
C	1.89964	-2.81942	-1.6332
H	2.52413	-1.33266	-0.281634
H	2.9654	-3.13692	-1.65726
H	1.58816	-2.55859	-2.67061
H	1.28362	-3.6838	-1.29481
C	7.05833	1.42908	3.02525
C	7.06579	0.316044	2.04941
O	7.83712	-0.625799	2.16937
H	7.8385	1.24702	3.79599
H	6.06855	1.49402	3.52411
H	7.27717	2.38927	2.5122
N	6.19279	0.403218	1.04309
C	6.11135	-0.580766	-0.0074778
C	5.60788	0.107535	-1.2622
O	5.19229	1.264	-1.22252
H	5.59963	1.19606	0.936252
H	7.10377	-0.957122	-0.222133
C	5.16825	-1.73692	0.391415
H	4.14733	-1.35271	0.601515
H	5.10791	-2.50804	-0.403726
H	5.55166	-2.22087	1.31615
N	5.64183	-0.590207	-2.4146
C	5.18853	-0.0155861	-3.65979
H	5.98541	-1.52341	-2.42747
H	5.29674	-0.745443	-4.49216
H	5.78123	0.893574	-3.91162
H	4.11663	0.2797	-3.58924
