44
  This energy is 0.7064 and Call times are: 131235
C	-1.14693	2.89837	1.54812
C	-1.14351	1.42855	1.37269
O	-1.70642	0.694252	2.17291
H	-1.69833	3.15594	2.47844
H	-1.64926	3.38551	0.686088
H	-0.106069	3.2763	1.63099
N	-0.495398	0.959998	0.303684
C	-0.36869	-0.448366	0.0225843
C	0.918162	-0.662185	-0.751915
O	1.56458	0.294078	-1.17549
H	-0.00729873	1.56761	-0.316346
H	-0.278258	-0.991971	0.954757
C	-1.57975	-0.960363	-0.787627
H	-1.66674	-0.410229	-1.74878
H	-1.50071	-2.04655	-0.998514
H	-2.51087	-0.786511	-0.205275
N	1.32613	-1.93142	-0.948443
C	2.54114	-2.23182	-1.66935
H	0.791766	-2.69187	-0.594539
H	2.70424	-3.33072	-1.72446
H	3.42134	-1.77175	-1.16452
H	2.49094	-1.83207	-2.70801
C	7.00818	3.16243	-1.23973
C	6.28734	1.87172	-1.31452
O	5.37139	1.70327	-2.10767
H	6.5663	3.87285	-1.97178
H	8.08139	3.0161	-1.48379
H	6.91653	3.59341	-0.220451
N	6.69108	0.916887	-0.473288
C	6.05886	-0.376675	-0.398817
C	6.23029	-0.906371	1.01243
O	6.96298	-0.332449	1.81585
H	7.41094	1.0825	0.194717
H	4.99617	-0.265552	-0.574772
C	6.67812	-1.35316	-1.42265
H	7.76634	-1.47566	-1.23601
H	6.19038	-2.34874	-1.3847
H	6.54817	-0.941604	-2.44738
N	5.54654	-2.01725	1.3507
C	5.64296	-2.591	2.6727
H	4.95546	-2.4652	0.688094
H	5.00676	-3.49973	2.75438
H	5.30942	-1.85921	3.44376
H	6.69504	-2.87762	2.90101
