44
  This energy is -3.2867 and Call times are: 129368
C	2.42983	0.721277	-2.38503
C	1.78626	-0.193855	-1.41575
O	2.07245	-1.38269	-1.38148
H	3.13921	0.145587	-3.01846
H	2.9904	1.515	-1.8479
H	1.66258	1.18824	-3.038
N	0.885182	0.349934	-0.594339
C	0.144791	-0.421102	0.373073
C	-1.19007	0.262703	0.601327
O	-1.41527	1.37681	0.132543
H	0.633035	1.31105	-0.661767
H	-0.0612658	-1.40287	-0.0347367
C	0.926672	-0.538934	1.69973
H	1.12914	0.467606	2.1239
H	0.373122	-1.14214	2.44823
H	1.90309	-1.03491	1.50745
N	-2.11517	-0.397632	1.32533
C	-3.41595	0.17185	1.58961
H	-1.91589	-1.3	1.69289
H	-4.03296	-0.523501	2.20036
H	-3.95654	0.375373	0.636924
H	-3.31882	1.13349	2.14366
C	6.08083	1.23134	-3.21953
C	5.94418	0.113699	-2.25861
O	5.8106	-1.03961	-2.6439
H	6.02165	0.833842	-4.25604
H	7.06065	1.73547	-3.08336
H	5.26278	1.96711	-3.06957
N	5.9729	0.437501	-0.963728
C	5.80913	-0.534761	0.0881468
C	5.19795	0.164605	1.2877
O	5.08167	1.38838	1.31146
H	6.04115	1.38541	-0.665968
H	5.10817	-1.29476	-0.233854
C	7.16405	-1.1727	0.465607
H	7.88015	-0.394665	0.806045
H	7.04921	-1.93314	1.26502
H	7.59659	-1.67178	-0.428911
N	4.78293	-0.603034	2.31458
C	4.18406	-0.0262938	3.49564
H	4.8817	-1.59186	2.27521
H	3.9096	-0.819989	4.22499
H	3.26222	0.54095	3.23156
H	4.8917	0.676662	3.99187
