44
  This energy is 0.1016 and Call times are: 130950
C	-0.466002	-0.740558	3.36855
C	-0.855557	-0.848217	1.94454
O	-1.69771	-1.6562	1.57802
H	-1.03359	-1.48972	3.96225
H	-0.699221	0.274438	3.75343
H	0.620465	-0.938865	3.48412
N	-0.238228	-0.0224686	1.09635
C	-0.480022	-0.0390175	-0.324855
C	0.780161	0.434159	-1.02457
O	1.71754	0.905161	-0.383318
H	0.474617	0.601398	1.40377
H	-0.663285	-1.05738	-0.6442
C	-1.67575	0.867053	-0.691625
H	-1.48377	1.91399	-0.373664
H	-1.88073	0.851986	-1.78171
H	-2.5849	0.507091	-0.162276
N	0.834659	0.310968	-2.36542
C	1.99541	0.729214	-3.11636
H	0.0677852	-0.0763604	-2.86637
H	1.84743	0.546116	-4.20347
H	2.89973	0.168318	-2.7864
H	2.18961	1.81599	-2.96688
C	8.93548	0.78674	-0.179832
C	7.81971	-0.185322	-0.216217
O	7.99556	-1.33714	-0.588793
H	9.86305	0.295018	-0.545445
H	9.10165	1.13985	0.859612
H	8.70774	1.65532	-0.833117
N	6.6259	0.266624	0.174869
C	5.43706	-0.548699	0.153776
C	4.24131	0.363629	-0.0447642
O	4.36607	1.58569	0.00717989
H	6.49003	1.21791	0.436511
H	5.47747	-1.21728	-0.697097
C	5.29451	-1.35034	1.46614
H	5.2424	-0.664496	2.33846
H	4.39015	-1.99265	1.45658
H	6.18405	-2.00495	1.59479
N	3.04787	-0.213502	-0.286905
C	1.85528	0.574541	-0.494023
H	2.9676	-1.20387	-0.329268
H	0.976902	-0.0824541	-0.678521
H	1.97825	1.2499	-1.37155
H	1.64055	1.20475	0.399212
