44
  This energy is -9.0912 and Call times are: 134984
C	1.43326	2.66963	-1.71217
C	0.277067	1.81118	-1.3695
O	-0.86049	2.12199	-1.69473
H	1.07356	3.5709	-2.25458
H	2.14084	2.11609	-2.36461
H	1.95782	2.99191	-0.788012
N	0.548049	0.693704	-0.691128
C	-0.476393	-0.219602	-0.249596
C	0.0185996	-0.915184	1.00448
O	1.18219	-0.784474	1.37957
H	1.47434	0.474841	-0.397954
H	-1.36242	0.341116	0.0209161
C	-0.804541	-1.25377	-1.34872
H	0.101749	-1.83648	-1.61912
H	-1.60188	-1.9542	-1.02596
H	-1.15709	-0.722078	-2.25941
N	-0.862743	-1.66925	1.69052
C	-0.483564	-2.3642	2.89859
H	-1.80105	-1.7596	1.37352
H	-1.34673	-2.92892	3.31483
H	-0.130385	-1.6439	3.6717
H	0.341653	-3.08447	2.69517
C	2.84206	1.84793	2.64333
C	3.92262	1.53409	1.68153
O	4.88495	2.27704	1.54606
H	3.06659	2.81392	3.14564
H	2.77118	1.05068	3.41282
H	1.87083	1.93625	2.1123
N	3.78314	0.407332	0.979149
C	4.73032	-0.00937887	-0.0247213
C	3.9904	-0.837323	-1.05845
O	2.8268	-1.18686	-0.869877
H	2.97412	-0.166158	1.07107
H	5.12169	0.864148	-0.531089
C	5.87738	-0.829272	0.605583
H	5.47738	-1.73112	1.11618
H	6.62065	-1.14424	-0.155242
H	6.39967	-0.206546	1.36438
N	4.65084	-1.16478	-2.18655
C	4.02595	-1.94553	-3.22872
H	5.59061	-0.869261	-2.32283
H	4.73057	-2.10911	-4.0737
H	3.12261	-1.42492	-3.62145
H	3.70912	-2.93981	-2.83862
