44
  This energy is -1.9319 and Call times are: 137846
C	1.15314	0.2407	3.27491
C	0.674139	-0.546545	2.11648
O	0.758767	-1.76681	2.10192
H	1.5783	-0.448352	4.0367
H	0.311029	0.803593	3.7296
H	1.94261	0.952511	2.95373
N	0.153526	0.147508	1.10178
C	-0.3151	-0.47522	-0.111137
C	-0.162066	0.521772	-1.24434
O	0.141176	1.6915	-1.01739
H	0.128931	1.14309	1.11097
H	0.314317	-1.32551	-0.342383
C	-1.78915	-0.914551	0.0281828
H	-2.43677	-0.0409528	0.255
H	-2.15755	-1.40795	-0.894505
H	-1.87878	-1.63759	0.868137
N	-0.361685	0.0762216	-2.50039
C	-0.232765	0.951261	-3.64226
H	-0.602398	-0.874704	-2.6643
H	-0.435235	0.398594	-4.58607
H	0.796073	1.37511	-3.69813
H	-0.952	1.79906	-3.57095
C	4.87734	3.47354	0.204967
C	4.21998	2.16772	-0.0271543
O	3.00244	2.0765	-0.102565
H	4.10102	4.26306	0.304141
H	5.5395	3.72595	-0.649775
H	5.4767	3.43954	1.13914
N	5.02617	1.11012	-0.145141
C	4.53211	-0.231559	-0.330485
C	5.54237	-1.19408	0.26492
O	6.64325	-0.797635	0.642546
H	6.01302	1.19408	-0.040605
H	3.6082	-0.351444	0.221464
C	4.31152	-0.536229	-1.8284
H	5.26136	-0.423632	-2.39336
H	3.91801	-1.56174	-1.9833
H	3.57492	0.185007	-2.24502
N	5.18514	-2.48915	0.370647
C	6.07887	-3.47658	0.929582
H	4.28844	-2.79013	0.0633728
H	5.60301	-4.48196	0.930597
H	6.34688	-3.21464	1.97879
H	7.02047	-3.53471	0.336997
