44
  This energy is -3.739 and Call times are: 128020
C	2.03483	-2.81628	-0.201736
C	0.902802	-2.06589	0.386954
O	0.103004	-2.61078	1.13517
H	1.9891	-3.87454	0.135724
H	2.999	-2.37531	0.12792
H	1.97631	-2.78976	-1.31032
N	0.808325	-0.776494	0.0539122
C	-0.262998	0.0721052	0.51294
C	-0.488224	1.15372	-0.526745
O	0.292402	1.29696	-1.4658
H	1.44337	-0.357338	-0.588658
H	-1.17521	-0.507788	0.577956
C	0.0784382	0.69982	1.88211
H	1.00846	1.30346	1.81344
H	-0.744612	1.34455	2.25283
H	0.246957	-0.109898	2.62529
N	-1.57384	1.93969	-0.386295
C	-1.8726	2.99166	-1.32984
H	-2.1961	1.80579	0.377863
H	-2.8056	3.52459	-1.04223
H	-2.009	2.57393	-2.35364
H	-1.04224	3.73343	-1.36744
C	6.97916	-2.00483	-2.33222
C	6.67356	-0.685169	-1.73535
O	7.3177	0.310228	-2.03649
H	7.843	-1.9036	-3.0246
H	6.1032	-2.3789	-2.90276
H	7.24018	-2.73367	-1.53615
N	5.66733	-0.649035	-0.858655
C	5.28028	0.55313	-0.163281
C	4.67656	0.154629	1.17024
O	4.43557	-1.02371	1.42549
H	5.17898	-1.47534	-0.592976
H	6.16287	1.14459	0.0460719
C	4.26618	1.3691	-0.994567
H	3.35608	0.766361	-1.20064
H	3.9709	2.30415	-0.475907
H	4.72639	1.64295	-1.96902
N	4.42471	1.13453	2.0604
C	3.85598	0.849861	3.35719
H	4.63035	2.08163	1.83724
H	3.72487	1.78613	3.94324
H	4.51814	0.164769	3.93468
H	2.86097	0.360143	3.25109
