44
  This energy is 0.1187 and Call times are: 138436
C	-1.60516	-0.944941	-2.93994
C	-1.62547	-0.445569	-1.54661
O	-2.64699	0.0118055	-1.05294
H	-2.61072	-0.808134	-3.39382
H	-1.34765	-2.02484	-2.95572
H	-0.860666	-0.378823	-3.53854
N	-0.475875	-0.521802	-0.872069
C	-0.328751	-0.0365892	0.477554
C	1.11608	0.381853	0.674868
O	1.96693	0.12838	-0.175729
H	0.357461	-0.858809	-1.30084
H	-0.941165	0.846862	0.6083
C	-0.721996	-1.12445	1.50086
H	-0.0869496	-2.02705	1.37408
H	-0.626215	-0.758454	2.54364
H	-1.78035	-1.42104	1.33273
N	1.42612	1.04468	1.80648
C	2.77389	1.48731	2.07812
H	0.72311	1.24416	2.48107
H	2.82542	2.01287	3.05707
H	3.12462	2.18742	1.28559
H	3.47365	0.620946	2.10778
C	4.95537	0.594946	3.37525
C	4.35709	-0.199407	2.27879
O	3.87387	-1.30358	2.48784
H	4.89182	0.0182685	4.32354
H	4.40554	1.55159	3.49885
H	6.02269	0.80805	3.1551
N	4.37911	0.354545	1.06428
C	3.8739	-0.314685	-0.108516
C	4.64267	0.196044	-1.31256
O	5.40869	1.15243	-1.21131
H	4.81267	1.23644	0.902579
H	4.07085	-1.37635	-0.0266715
C	2.36121	-0.0563266	-0.282505
H	2.15973	1.03202	-0.377087
H	1.95744	-0.577718	-1.17449
H	1.81952	-0.430738	0.613442
N	4.46077	-0.440275	-2.48645
C	5.15388	-0.0284092	-3.68484
H	3.83988	-1.21476	-2.54768
H	4.87141	-0.675254	-4.54451
H	6.25695	-0.0955399	-3.54334
H	4.90232	1.02606	-3.94167
