44
  This energy is -3.8077 and Call times are: 131986
C	2.49158	2.29482	-0.799085
C	1.75624	1.45541	0.173444
O	2.17344	1.29258	1.31179
H	3.41653	2.68529	-0.321728
H	1.86208	3.15217	-1.11756
H	2.77297	1.69258	-1.68859
N	0.626757	0.892952	-0.262778
C	-0.174843	0.0158763	0.553762
C	-0.89885	-0.952729	-0.362302
O	-0.878624	-0.800532	-1.5822
H	0.321477	1.00167	-1.20451
H	0.474253	-0.569048	1.19343
C	-1.18634	0.820512	1.39914
H	-1.85933	1.4126	0.742976
H	-1.80017	0.157393	2.04258
H	-0.634827	1.52821	2.05591
N	-1.55282	-1.98336	0.20879
C	-2.26539	-2.95852	-0.583356
H	-1.55435	-2.0921	1.19735
H	-2.73641	-3.72662	0.0688556
H	-1.57307	-3.47382	-1.28794
H	-3.06632	-2.46841	-1.1829
C	5.82646	3.2466	1.25364
C	6.51699	2.00922	0.825611
O	7.73173	1.97867	0.684573
H	6.57477	4.0582	1.38482
H	5.3048	3.07923	2.21936
H	5.08883	3.55879	0.484538
N	5.74315	0.944171	0.603775
C	6.26522	-0.317758	0.141683
C	5.17814	-1.01701	-0.652595
O	4.03031	-0.576767	-0.672109
H	4.75175	0.995896	0.683278
H	7.09216	-0.136503	-0.533554
C	6.71796	-1.19553	1.32903
H	5.86747	-1.39053	2.01654
H	7.13476	-2.16443	0.985482
H	7.50777	-0.66081	1.90053
N	5.51947	-2.12626	-1.33748
C	4.55328	-2.85518	-2.12573
H	6.45427	-2.46479	-1.31273
H	5.02701	-3.73603	-2.61246
H	4.12386	-2.204	-2.92126
H	3.71589	-3.21617	-1.48573
