44
  This energy is -2.2116 and Call times are: 132991
C	-2.55227	-2.24447	0.748958
C	-1.99557	-0.873854	0.697683
O	-2.70374	0.104643	0.891183
H	-3.64241	-2.19046	0.960076
H	-2.05875	-2.82811	1.55428
H	-2.39973	-2.75615	-0.224701
N	-0.691815	-0.772549	0.428718
C	-0.0165171	0.495067	0.303495
C	1.15312	0.316113	-0.64597
O	1.48542	-0.802941	-1.03199
H	-0.137061	-1.5762	0.233102
H	-0.689099	1.21532	-0.145395
C	0.474594	0.996788	1.67911
H	1.17286	0.263097	2.13535
H	0.984119	1.97879	1.59795
H	-0.396835	1.11291	2.35991
N	1.80312	1.42414	-1.05316
C	2.92459	1.35212	-1.96053
H	1.51691	2.32121	-0.733134
H	3.32251	2.36836	-2.17536
H	2.62037	0.883842	-2.9246
H	3.74553	0.739193	-1.5229
C	4.55825	-2.85609	-1.42077
C	4.66459	-1.86361	-0.327678
O	3.84018	-1.82567	0.575271
H	3.65016	-3.47814	-1.26499
H	5.45026	-3.51718	-1.42554
H	4.47616	-2.33931	-2.40019
N	5.69974	-1.02267	-0.38826
C	5.91248	0.0248773	0.579178
C	6.65497	1.15709	-0.105202
O	7.11223	1.01645	-1.23783
H	6.33948	-1.03932	-1.15136
H	4.95452	0.414789	0.899971
C	6.71752	-0.497042	1.78945
H	7.70467	-0.887512	1.46219
H	6.87599	0.296744	2.54794
H	6.15925	-1.33001	2.26991
N	6.78515	2.31684	0.568615
C	7.47123	3.45122	-0.00466102
H	6.40481	2.41285	1.48251
H	7.47216	4.30916	0.703273
H	6.97418	3.77544	-0.947579
H	8.52816	3.19196	-0.243059
