44
  This energy is -0.8516 and Call times are: 132436
C	0.943437	-0.849402	3.24054
C	0.461153	0.12601	2.23699
O	0.03116	1.22057	2.57384
H	0.822351	-0.419321	4.25851
H	2.01744	-1.07391	3.07068
H	0.354792	-1.7887	3.17493
N	0.521281	-0.257803	0.95971
C	0.049126	0.564974	-0.125954
C	-0.397119	-0.348335	-1.25214
O	-0.171626	-1.55627	-1.21026
H	0.835652	-1.16761	0.704195
H	-0.819691	1.12292	0.200358
C	1.15704	1.5242	-0.613448
H	2.04457	0.951936	-0.958183
H	0.801505	2.17281	-1.44015
H	1.47372	2.17738	0.228822
N	-1.05284	0.210896	-2.28815
C	-1.52035	-0.580196	-3.40251
H	-1.22953	1.18949	-2.30214
H	-2.03523	0.0610584	-4.15144
H	-2.23699	-1.36023	-3.05719
H	-0.668539	-1.09244	-3.90567
C	12.087	0.546253	0.0350755
C	10.8711	-0.0689987	-0.542926
O	10.8996	-0.625124	-1.63211
H	12.9344	0.420716	-0.67343
H	12.3457	0.0532847	0.99571
H	11.9216	1.63044	0.208986
N	9.75639	0.0211518	0.186274
C	8.48589	-0.491395	-0.262816
C	7.38854	0.340828	0.373421
O	7.64908	1.16129	1.2513
H	9.73966	0.512673	1.05229
H	8.40767	-0.362727	-1.33517
C	8.32599	-1.97979	0.117142
H	8.39563	-2.11098	1.21804
H	7.35744	-2.38985	-0.235374
H	9.14396	-2.56842	-0.352721
N	6.12789	0.152918	-0.0641498
C	5.01959	0.903393	0.478662
H	5.9374	-0.51264	-0.77817
H	4.06596	0.60569	-0.0104051
H	5.16923	1.99582	0.318975
H	4.92282	0.724686	1.57404
