44
  This energy is -3.812 and Call times are: 136227
C	-1.92218	-2.43823	1.57256
C	-0.647395	-1.95488	0.995994
O	0.396799	-2.56946	1.16439
H	-1.73515	-3.37183	2.14638
H	-2.65093	-2.6538	0.763115
H	-2.34635	-1.67419	2.2577
N	-0.706077	-0.821587	0.292728
C	0.458071	-0.204746	-0.292786
C	0.213481	1.29059	-0.368375
O	-0.895307	1.76069	-0.12077
H	-1.55602	-0.311049	0.198884
H	1.3098	-0.359807	0.357708
C	0.738637	-0.779274	-1.69865
H	-0.130759	-0.611093	-2.36939
H	1.64078	-0.322189	-2.15443
H	0.906697	-1.87561	-1.62024
N	1.25349	2.07797	-0.706662
C	1.11666	3.5129	-0.798593
H	2.14406	1.67947	-0.899384
H	2.08235	3.98221	-1.08913
H	0.799498	3.94071	0.180006
H	0.350528	3.78672	-1.55964
C	7.34531	-0.310375	-3.07756
C	6.16224	0.0161635	-2.25
O	5.18645	0.573952	-2.73283
H	7.17508	0.0436241	-4.11755
H	7.50958	-1.40832	-3.09402
H	8.24782	0.192147	-2.6701
N	6.22569	-0.328558	-0.961772
C	5.17079	-0.0383353	-0.0228794
C	5.79045	0.109268	1.354
O	6.97006	-0.178239	1.54786
H	7.04318	-0.745133	-0.574428
H	4.71832	0.912209	-0.276556
C	4.10935	-1.1602	-0.0215314
H	4.57106	-2.13371	0.24895
H	3.28461	-0.94172	0.687397
H	3.67511	-1.2558	-1.04067
N	5.00543	0.572422	2.34659
C	5.50959	0.750886	3.68829
H	4.05452	0.803577	2.16936
H	4.71261	1.1405	4.3593
H	6.35825	1.47269	3.69622
H	5.87524	-0.216437	4.10269
