44
  This energy is 0.1179 and Call times are: 127545
C	2.11974	-2.75762	0.122193
C	0.781125	-2.13666	0.239132
O	-0.229309	-2.82133	0.320786
H	2.01137	-3.86392	0.107053
H	2.75191	-2.47027	0.988526
H	2.61186	-2.43185	-0.818436
N	0.744686	-0.802131	0.247523
C	-0.486612	-0.0549744	0.312508
C	-0.26963	1.27575	-0.382931
O	0.854954	1.62616	-0.735408
H	1.57206	-0.258479	0.139062
H	-1.25515	-0.58443	-0.236727
C	-0.922032	0.164547	1.77793
H	-0.138455	0.716931	2.3391
H	-1.87621	0.726772	1.84097
H	-1.06726	-0.822232	2.26938
N	-1.35086	2.04882	-0.605048
C	-1.24211	3.32894	-1.26507
H	-2.25317	1.74635	-0.316209
H	-2.24034	3.81143	-1.35433
H	-0.818311	3.2085	-2.28838
H	-0.572797	4.01089	-0.692275
C	2.16646	-2.52808	-0.200677
C	3.11996	-1.69374	0.564738
O	3.12741	-1.7014	1.78797
H	1.51684	-3.08696	0.507494
H	2.71694	-3.25533	-0.833791
H	1.52805	-1.88688	-0.844395
N	3.95798	-0.941097	-0.151944
C	4.91323	-0.0453257	0.451093
C	5.16375	1.0983	-0.513752
O	4.71996	1.06402	-1.65987
H	3.91238	-0.914629	-1.14647
H	4.48598	0.379489	1.35088
C	6.23246	-0.780979	0.773072
H	6.67662	-1.20796	-0.151297
H	6.97129	-0.105183	1.25051
H	6.02399	-1.61844	1.47417
N	5.87907	2.1489	-0.0659009
C	6.163	3.28536	-0.910898
H	6.2263	2.16024	0.865969
H	6.76254	4.04408	-0.361236
H	5.21803	3.7662	-1.2531
H	6.73667	2.97106	-1.81271
