44
  This energy is 0.1701 and Call times are: 136199
C	1.41605	-3.03739	-0.93901
C	1.23352	-1.9263	0.021876
O	1.64767	-2.00789	1.17002
H	1.93901	-3.87807	-0.433382
H	2.02809	-2.70044	-1.80192
H	0.429597	-3.39464	-1.30283
N	0.59596	-0.845739	-0.434507
C	0.305693	0.297779	0.394149
C	-0.948955	0.96269	-0.139992
O	-1.43982	0.612601	-1.21154
H	0.228639	-0.810477	-1.35955
H	0.0898324	-0.0364589	1.40128
C	1.48714	1.29248	0.395185
H	1.70219	1.64377	-0.636505
H	1.28141	2.17079	1.04076
H	2.39611	0.782276	0.782248
N	-1.50476	1.93874	0.604613
C	-2.7027	2.62457	0.179449
H	-1.09533	2.2053	1.47086
H	-3.00266	3.39202	0.92662
H	-3.54496	1.90542	0.0582327
H	-2.53881	3.13231	-0.79855
C	9.21246	-1.6367	0.235142
C	8.37913	-0.483426	-0.173111
O	8.8879	0.563508	-0.549265
H	10.2864	-1.36183	0.151271
H	9.01157	-2.50668	-0.424809
H	8.9935	-1.91336	1.28804
N	7.05667	-0.652932	-0.104276
C	6.11757	0.3922	-0.427319
C	4.85676	0.162732	0.38463
O	4.70266	-0.872737	1.02943
H	6.65778	-1.49689	0.242819
H	6.52756	1.34729	-0.123452
C	5.79552	0.396984	-1.93778
H	5.36508	-0.579015	-2.24794
H	5.08403	1.20617	-2.20145
H	6.73357	0.55843	-2.51252
N	3.92334	1.13469	0.378181
C	2.69398	1.00705	1.12554
H	4.06786	1.96718	-0.146379
H	2.05754	1.90959	0.992813
H	2.90597	0.884462	2.21242
H	2.11685	0.117479	0.783891
