44
  This energy is -6.1103 and Call times are: 128653
C	-3.00157	-1.28822	-1.20157
C	-1.52724	-1.1629	-1.24413
O	-0.84866	-1.9057	-1.93997
H	-3.31777	-2.129	-1.85654
H	-3.47584	-0.352138	-1.56428
H	-3.33826	-1.49489	-0.163779
N	-0.990985	-0.204334	-0.485218
C	0.431247	0.0114661	-0.389061
C	0.72872	0.602551	0.976107
O	-0.182459	0.968443	1.7161
H	-1.55317	0.365631	0.107196
H	0.941859	-0.94177	-0.446058
C	0.922655	0.95677	-1.50717
H	0.406787	1.93848	-1.44269
H	2.01852	1.11981	-1.45228
H	0.68746	0.507959	-2.49691
N	2.02063	0.702109	1.34635
C	2.39945	1.24672	2.62935
H	2.74371	0.396905	0.735547
H	3.50555	1.24395	2.74666
H	1.95773	0.645797	3.45703
H	2.03826	2.29547	2.7333
C	5.51275	3.36971	-0.859649
C	6.26557	2.13322	-0.550587
O	7.47025	2.05911	-0.749724
H	6.20759	4.12613	-1.28494
H	5.05607	3.78093	0.0650582
H	4.71522	3.15661	-1.60235
N	5.55844	1.11728	-0.0503545
C	6.1434	-0.16351	0.259417
C	5.06808	-1.22319	0.109931
O	3.89253	-0.907439	-0.0635709
H	4.57148	1.17885	0.0677878
H	6.91854	-0.386359	-0.46316
C	6.71935	-0.174899	1.69238
H	5.92236	0.0432731	2.43485
H	7.18495	-1.15132	1.93801
H	7.49843	0.613456	1.78105
N	5.45039	-2.5142	0.16583
C	4.49791	-3.59124	0.028194
H	6.40682	-2.74992	0.30277
H	5.00642	-4.57775	0.101918
H	3.98197	-3.53572	-0.957711
H	3.72322	-3.53531	0.826866
