44
  This energy is 0.1079 and Call times are: 130083
C	3.2203	1.30789	0.178236
C	1.74873	1.45468	0.241939
O	1.23257	2.48228	0.659105
H	3.69886	2.23175	0.569832
H	3.54432	1.15292	-0.872352
H	3.5459	0.444788	0.796406
N	1.02953	0.410364	-0.17583
C	-0.411407	0.387663	-0.133923
C	-0.857447	-1.05417	0.0201316
O	-0.0505568	-1.9768	-0.0767903
H	1.46416	-0.434565	-0.474258
H	-0.751838	0.925956	0.741851
C	-1.01043	1.0057	-1.41628
H	-0.6699	0.44734	-2.31423
H	-2.11941	1.00667	-1.39006
H	-0.664404	2.05798	-1.51277
N	-2.16125	-1.28162	0.273902
C	-2.67637	-2.62059	0.441243
H	-2.79814	-0.521891	0.352895
H	-3.77	-2.59885	0.643044
H	-2.17278	-3.13149	1.29368
H	-2.50102	-3.22678	-0.476865
C	1.16956	2.11582	0.988612
C	1.69106	0.9763	0.200787
O	0.935439	0.213155	-0.384923
H	0.0585714	2.11168	0.949261
H	1.54051	3.07385	0.56751
H	1.49196	2.02831	2.04761
N	3.01811	0.833238	0.171113
C	3.67132	-0.251982	-0.517483
C	4.98422	-0.537184	0.187153
O	5.40415	0.214455	1.06488
H	3.61818	1.43835	0.686483
H	3.06215	-1.14372	-0.437884
C	3.91858	0.104446	-1.99973
H	4.55224	1.01316	-2.08194
H	4.4086	-0.728599	-2.54419
H	2.9452	0.316965	-2.49339
N	5.66257	-1.64284	-0.178071
C	6.91831	-1.99814	0.440851
H	5.30467	-2.24098	-0.88744
H	7.31912	-2.93968	0.00486483
H	6.7875	-2.14746	1.53715
H	7.67282	-1.19253	0.289766
