44
  This energy is 0.2046 and Call times are: 132520
C	-0.439081	0.825957	3.35227
C	-0.685456	-0.0462154	2.1819
O	-1.22081	-1.13885	2.30825
H	-0.79286	0.313479	4.27318
H	-0.990491	1.78299	3.23919
H	0.64697	1.03488	3.45195
N	-0.29087	0.425331	0.996859
C	-0.424137	-0.32616	-0.226277
C	0.678465	0.11069	-1.17231
O	1.3878	1.07959	-0.908122
H	0.180486	1.29886	0.915374
H	-0.272331	-1.37787	-0.0177158
C	-1.81031	-0.0957086	-0.867112
H	-1.9623	0.98171	-1.09095
H	-1.9304	-0.679837	-1.80247
H	-2.60179	-0.414843	-0.154327
N	0.853989	-0.604689	-2.30079
C	1.88175	-0.26688	-3.25775
H	0.272749	-1.38792	-2.49515
H	1.86614	-0.972749	-4.11724
H	2.88939	-0.312958	-2.78465
H	1.73081	0.76535	-3.64872
C	5.88361	0.357502	-3.15892
C	5.94162	0.671714	-1.71356
O	5.28351	1.58654	-1.23775
H	5.19832	1.07306	-3.66312
H	5.50179	-0.673876	-3.31131
H	6.89378	0.448056	-3.61105
N	6.74686	-0.0924881	-0.971968
C	6.94091	0.118863	0.440912
C	8.33034	-0.368998	0.805695
O	9.01212	-0.992362	-0.00565704
H	7.3074	-0.80711	-1.38059
H	6.90623	1.18052	0.651375
C	5.87034	-0.631501	1.26315
H	5.91249	-1.72199	1.05553
H	6.00067	-0.465402	2.35216
H	4.86145	-0.264168	0.974104
N	8.78762	-0.0869737	2.04156
C	10.0999	-0.505861	2.47581
H	8.22287	0.42207	2.68266
H	10.2911	-0.178759	3.5216
H	10.8884	-0.067799	1.82189
H	10.1927	-1.61522	2.4327
