44
  This energy is -2.1005 and Call times are: 130055
C	-0.588889	2.59185	2.24682
C	-1.02337	1.68451	1.16096
O	-2.19923	1.60805	0.832446
H	-1.47586	3.11611	2.66434
H	0.122547	3.34753	1.85243
H	-0.0997732	2.0117	3.05755
N	-0.0667564	0.963117	0.572004
C	-0.340803	0.00561545	-0.470421
C	0.722661	-1.07474	-0.411807
O	1.70635	-0.951351	0.315415
H	0.880005	1.00605	0.878055
H	-1.29444	-0.469662	-0.277218
C	-0.345773	0.685865	-1.85695
H	0.635857	1.16459	-2.06009
H	-0.569366	-0.0384749	-2.66681
H	-1.12591	1.47797	-1.87433
N	0.543791	-2.17031	-1.17585
C	1.50031	-3.25254	-1.18118
H	-0.260606	-2.25382	-1.75468
H	1.17532	-4.06122	-1.87229
H	1.6085	-3.68616	-0.160617
H	2.50125	-2.89082	-1.51047
C	7.27305	-2.87205	-0.848757
C	6.85762	-1.47419	-1.10287
O	7.40573	-0.797112	-1.96168
H	8.11539	-3.13365	-1.52542
H	6.42709	-3.56418	-1.04384
H	7.60867	-2.98622	0.203569
N	5.86346	-1.00365	-0.346145
C	5.37874	0.350374	-0.447223
C	4.83034	0.758764	0.907046
O	4.69958	-0.0669576	1.8086
H	5.45483	-1.55357	0.376673
H	6.20715	1.01049	-0.672176
C	4.28486	0.465266	-1.53141
H	3.43011	-0.203934	-1.29557
H	3.9133	1.50596	-1.62849
H	4.70612	0.153999	-2.51222
N	4.50273	2.05386	1.08429
C	3.97848	2.5358	2.34089
H	4.61949	2.7079	0.344238
H	3.77116	3.62733	2.2878
H	4.70686	2.35709	3.16478
H	3.03027	2.01073	2.59846
