44
  This energy is -1.2255 and Call times are: 129312
C	1.06926	-3.28352	-0.433472
C	0.0237768	-2.28436	-0.117569
O	-1.1544	-2.60407	-0.0394783
H	0.593853	-4.27673	-0.586448
H	1.7939	-3.35719	0.404505
H	1.60606	-2.99525	-1.36182
N	0.439629	-1.02995	0.0719127
C	-0.464348	0.0597262	0.343929
C	0.161723	1.33672	-0.184163
O	1.32427	1.34951	-0.584213
H	1.39704	-0.777522	-0.03536
H	-1.38676	-0.0967442	-0.201327
C	-0.743967	0.179702	1.85808
H	0.200777	0.350761	2.41686
H	-1.44966	1.00653	2.07916
H	-1.1944	-0.768606	2.22438
N	-0.603326	2.4459	-0.205295
C	-0.0947737	3.7057	-0.695665
H	-1.54305	2.41483	0.118794
H	-0.874601	4.49627	-0.631696
H	0.224206	3.6133	-1.75914
H	0.786602	4.03314	-0.0980879
C	7.62353	2.33701	1.46348
C	7.10855	0.957193	1.31493
O	7.68394	0.00801246	1.82913
H	8.55852	2.31735	2.06453
H	6.87506	2.97088	1.98381
H	7.84645	2.77169	0.466272
N	5.99442	0.814041	0.593398
C	5.39766	-0.470607	0.324855
C	4.6622	-0.383004	-0.999153
O	4.50882	0.69824	-1.56403
H	5.56034	1.59131	0.146974
H	6.17966	-1.21098	0.211088
C	4.42845	-0.876154	1.45684
H	3.62002	-0.12225	1.56694
H	3.97298	-1.86993	1.26849
H	4.9864	-0.926259	2.41732
N	4.19473	-1.52921	-1.53178
C	3.48727	-1.54427	-2.79092
H	4.33222	-2.39485	-1.06184
H	3.18437	-2.58031	-3.05946
H	4.13076	-1.14441	-3.60781
H	2.57022	-0.914241	-2.73408
