44
  This energy is -4.0208 and Call times are: 129552
C	0.120708	-2.30114	-2.60823
C	0.23019	-0.922477	-2.08056
O	0.688814	-0.0176258	-2.76417
H	0.522686	-2.33087	-3.64428
H	-0.942409	-2.62085	-2.62592
H	0.706404	-3.00077	-1.97532
N	-0.19425	-0.730463	-0.829416
C	-0.111885	0.545916	-0.164109
C	0.0168131	0.294874	1.32652
O	-0.127335	-0.834922	1.78966
H	-0.527093	-1.48527	-0.271426
H	0.787109	1.05803	-0.483772
C	-1.35993	1.40525	-0.462718
H	-2.28161	0.884922	-0.125392
H	-1.30207	2.39605	0.0327618
H	-1.4385	1.56956	-1.55961
N	0.301582	1.34931	2.11589
C	0.448234	1.20547	3.54557
H	0.418679	2.25505	1.7222
H	0.681641	2.18528	4.0175
H	1.27222	0.495319	3.78641
H	-0.490142	0.812175	3.99934
C	2.89964	-2.28585	0.354656
C	4.31566	-1.95552	0.0773043
O	5.16952	-2.82946	0.0174141
H	2.80022	-3.38352	0.499873
H	2.26033	-1.97689	-0.498907
H	2.55971	-1.76911	1.27688
N	4.60006	-0.663028	-0.0986604
C	5.9391	-0.183023	-0.333415
C	6.0352	1.2324	0.204096
O	5.03042	1.83258	0.580809
H	3.90131	0.040593	-0.00632111
H	6.63939	-0.789315	0.227506
C	6.28044	-0.214698	-1.83931
H	5.56869	0.415577	-2.41395
H	7.31389	0.139542	-2.03171
H	6.19593	-1.25855	-2.2129
N	7.25688	1.79844	0.25993
C	7.44639	3.13948	0.761794
H	8.05856	1.29545	-0.045663
H	8.52113	3.42406	0.727316
H	7.09699	3.21705	1.81687
H	6.86968	3.87238	0.152375
