44
  This energy is -3.639 and Call times are: 132654
C	1.00929	2.67601	-1.98318
C	0.205975	1.45403	-1.75387
O	-0.692978	1.13454	-2.51952
H	0.640268	3.19222	-2.89599
H	2.07756	2.41021	-2.12769
H	0.913816	3.36479	-1.11741
N	0.516966	0.733373	-0.673906
C	-0.203019	-0.457033	-0.295599
C	-0.113574	-0.604976	1.21161
O	0.629611	0.118045	1.87239
H	1.22427	1.02823	-0.037786
H	-1.24954	-0.336396	-0.546333
C	0.382017	-1.70211	-0.997558
H	1.45287	-1.83234	-0.732308
H	-0.172644	-2.62334	-0.725124
H	0.313428	-1.56844	-2.09927
N	-0.881212	-1.54705	1.79407
C	-0.866639	-1.75669	3.22306
H	-1.47928	-2.11964	1.24313
H	-1.56491	-2.57438	3.50771
H	-1.17501	-0.829986	3.75916
H	0.155776	-2.03195	3.56953
C	9.19951	1.12947	-1.10909
C	7.71962	1.15041	-1.13407
O	7.10889	2.03053	-1.72466
H	9.58875	2.00733	-1.66919
H	9.57725	0.201538	-1.58763
H	9.56531	1.18037	-0.0618661
N	7.10103	0.164805	-0.479596
C	5.66567	0.0751111	-0.378401
C	5.32655	-0.640818	0.915437
O	6.20567	-1.17558	1.5884
H	7.61155	-0.521322	0.0307561
H	5.24908	1.07257	-0.313883
C	5.0736	-0.681908	-1.58738
H	5.49275	-1.70889	-1.64788
H	3.96773	-0.745565	-1.5281
H	5.34086	-0.144669	-2.52348
N	4.03496	-0.660035	1.29944
C	3.61853	-1.31268	2.51878
H	3.33851	-0.218238	0.743698
H	2.51916	-1.21876	2.65943
H	4.12483	-0.857408	3.40064
H	3.87766	-2.39589	2.49309
