44
  This energy is 0.1349 and Call times are: 139021
C	2.01858	2.80326	-0.423937
C	1.52006	1.47869	-0.857655
O	1.77505	1.03977	-1.97065
H	2.59665	3.26741	-1.25236
H	2.68232	2.69199	0.459134
H	1.16666	3.46661	-0.164522
N	0.783399	0.802983	0.0272903
C	0.193108	-0.479421	-0.265215
C	-1.06587	-0.621971	0.569183
O	-1.33501	0.195005	1.44772
H	0.550173	1.19117	0.914298
H	-0.104878	-0.506482	-1.30594
C	1.18106	-1.62521	0.0452034
H	1.47891	-1.60428	1.1152
H	0.743189	-2.61715	-0.188959
H	2.09788	-1.49619	-0.570554
N	-1.87562	-1.66646	0.30581
C	-3.09816	-1.88022	1.04465
H	-1.64301	-2.31464	-0.411705
H	-3.62403	-2.79004	0.680073
H	-3.78376	-1.00954	0.929957
H	-2.8838	-2.01018	2.13014
C	0.097198	-1.84785	1.38695
C	1.53628	-1.53993	1.22763
O	2.37484	-2.03183	1.9701
H	-0.0379295	-2.53533	2.25007
H	-0.292556	-2.33989	0.471129
H	-0.474868	-0.915334	1.5773
N	1.85803	-0.702246	0.239119
C	3.2117	-0.274736	-0.0126386
C	3.16271	1.10463	-0.642335
O	2.09439	1.59442	-1.00362
H	1.1603	-0.27797	-0.33098
H	3.73768	-0.180844	0.929249
C	3.94029	-1.26912	-0.943012
H	3.4069	-1.35783	-1.91341
H	4.98798	-0.958259	-1.13331
H	3.95721	-2.27325	-0.465754
N	4.32618	1.77026	-0.781205
C	4.37666	3.09065	-1.36447
H	5.17987	1.35912	-0.479124
H	5.42223	3.46925	-1.39075
H	3.75993	3.8053	-0.772693
H	3.98278	3.07538	-2.40647
