44
  This energy is -4.4324 and Call times are: 127637
C	-0.802128	-3.10996	-1.34069
C	-0.817199	-1.63033	-1.3809
O	-1.16914	-1.02797	-2.38575
H	-1.12776	-3.50751	-2.32649
H	-1.49709	-3.47861	-0.557193
H	0.223964	-3.47653	-1.12655
N	-0.426312	-1.00245	-0.269439
C	-0.346746	0.43369	-0.170747
C	0.7297	0.77935	0.840855
O	1.24648	-0.0947516	1.53411
H	-0.103662	-1.50646	0.526634
H	-0.0354761	0.840619	-1.12477
C	-1.70425	1.03335	0.256832
H	-2.01897	0.624148	1.24047
H	-1.6597	2.13977	0.322953
H	-2.47836	0.761173	-0.493524
N	1.10033	2.07096	0.942845
C	2.12055	2.49334	1.87394
H	0.673549	2.76326	0.370441
H	2.28302	3.59172	1.80769
H	3.08648	1.98244	1.65661
H	1.82601	2.24468	2.91919
C	4.61143	-2.04694	2.81011
C	5.08262	-0.895924	2.00744
O	5.86099	-0.0754135	2.47362
H	5.05886	-1.99373	3.82639
H	4.92024	-2.9997	2.33091
H	3.50515	-2.02158	2.90275
N	4.61066	-0.808267	0.761662
C	4.94427	0.278424	-0.125111
C	3.78845	0.475082	-1.08791
O	2.86292	-0.332967	-1.13423
H	3.9459	-1.46123	0.410109
H	5.0441	1.19073	0.449655
C	6.24776	-0.0202809	-0.897723
H	6.14227	-0.950451	-1.4958
H	6.52278	0.815101	-1.57376
H	7.07808	-0.168462	-0.17319
N	3.81175	1.56636	-1.87822
C	2.75249	1.83932	-2.82142
H	4.56715	2.2109	-1.82339
H	2.95365	2.78184	-3.37679
H	1.77577	1.94395	-2.29573
H	2.66013	1.01005	-3.55961
