44
  This energy is -1.5744 and Call times are: 130820
C	-3.23562	0.338753	-1.23641
C	-2.27154	0.242978	-0.117251
O	-2.60971	0.488996	1.03233
H	-4.22249	0.667318	-0.843967
H	-3.35461	-0.651222	-1.72481
H	-2.88157	1.07944	-1.98416
N	-1.02711	-0.121031	-0.435476
C	0.0318184	-0.216161	0.538271
C	1.34766	0.0567689	-0.165729
O	1.40019	0.143579	-1.39105
H	-0.756839	-0.278246	-1.38105
H	-0.100121	0.555855	1.28608
C	0.0503548	-1.6122	1.19855
H	0.196246	-2.40386	0.433024
H	0.852668	-1.69347	1.96027
H	-0.924961	-1.79364	1.70073
N	2.44666	0.207623	0.599441
C	3.7415	0.475343	0.0181649
H	2.38347	0.137991	1.58951
H	4.5169	0.566815	0.810387
H	3.72184	1.42489	-0.564289
H	4.04018	-0.346768	-0.671812
C	6.59159	2.728	1.68093
C	7.53133	2.13647	0.702082
O	8.16079	2.83992	-0.0759615
H	6.57326	3.83199	1.55159
H	6.91845	2.49275	2.71561
H	5.56792	2.32998	1.51737
N	7.64631	0.806472	0.718758
C	8.48823	0.0838571	-0.201874
C	7.89039	-1.29534	-0.406736
O	6.9551	-1.68604	0.289175
H	7.09671	0.244474	1.33027
H	8.48012	0.584786	-1.16189
C	9.93049	-0.0261117	0.339434
H	9.94052	-0.549295	1.31934
H	10.5919	-0.568475	-0.366877
H	10.3451	0.994675	0.48926
N	8.41518	-2.06609	-1.37965
C	7.90745	-3.39075	-1.6511
H	9.16903	-1.73094	-1.93503
H	8.46911	-3.8636	-2.48667
H	6.83029	-3.34848	-1.93254
H	8.00395	-4.04068	-0.751421
