44
  This energy is 0.2644 and Call times are: 133813
C	-1.27654	-1.52767	-2.85471
C	-1.37597	-1.13737	-1.43031
O	-2.42838	-1.24583	-0.816246
H	-2.26858	-1.88387	-3.20804
H	-0.536504	-2.34637	-2.97643
H	-0.967755	-0.65612	-3.46965
N	-0.262648	-0.664136	-0.865551
C	-0.214529	-0.203883	0.499883
C	0.864576	0.857412	0.603521
O	1.63032	1.07067	-0.33449
H	0.575628	-0.543411	-1.38956
H	-1.15624	0.267986	0.751199
C	0.080555	-1.37227	1.46583
H	1.05158	-1.85	1.215
H	0.10643	-1.03311	2.52168
H	-0.717328	-2.14039	1.36725
N	0.94466	1.55763	1.75213
C	1.93611	2.59106	1.93985
H	0.313548	1.37347	2.49836
H	1.83976	3.04991	2.94851
H	1.81604	3.39384	1.17671
H	2.9638	2.1723	1.84164
C	5.79966	-0.671666	-3.4116
C	5.17733	-0.24063	-2.13957
O	4.06639	0.271075	-2.11988
H	5.1148	-0.434309	-4.2545
H	5.9841	-1.76642	-3.39574
H	6.76049	-0.137369	-3.56787
N	5.89397	-0.439725	-1.03089
C	5.43987	-0.0338252	0.275857
C	6.65877	0.259644	1.1301
O	7.78842	-0.0182428	0.732154
H	6.81374	-0.819935	-1.06732
H	4.87781	0.887621	0.188437
C	4.57533	-1.1359	0.926424
H	5.15486	-2.07839	1.02597
H	4.2081	-0.829739	1.92739
H	3.6936	-1.33984	0.280441
N	6.45676	0.840205	2.32933
C	7.5568	1.16176	3.20836
H	5.53564	1.06126	2.63221
H	7.18664	1.6334	4.14526
H	8.26065	1.86986	2.71392
H	8.12521	0.242658	3.47911
