44
  This energy is 0.1116 and Call times are: 126974
C	-3.16446	0.00724639	-1.44872
C	-2.26552	-0.142836	-0.282312
O	-2.70974	-0.199679	0.856039
H	-4.2168	0.0696534	-1.09577
H	-3.06346	-0.86765	-2.12481
H	-2.91669	0.935272	-2.00592
N	-0.958276	-0.209057	-0.545199
C	0.0417985	-0.312172	0.488135
C	1.31906	0.326152	-0.0244128
O	1.42398	0.668552	-1.20062
H	-0.60926	-0.120218	-1.47373
H	-0.278149	0.255732	1.35286
C	0.289639	-1.78778	0.870742
H	0.628033	-2.36853	-0.0137098
H	1.04775	-1.87963	1.67532
H	-0.659949	-2.23683	1.23541
N	2.3232	0.509468	0.855433
C	3.57386	1.11408	0.45987
H	2.218	0.229641	1.80396
H	4.27076	1.17762	1.32446
H	3.406	2.14366	0.0686333
H	4.06346	0.515569	-0.342136
C	2.13606	-3.42495	-0.0744589
C	2.07698	-2.07685	-0.682967
O	1.77288	-1.92558	-1.85815
H	1.88849	-4.18694	-0.845129
H	1.40318	-3.50243	0.755982
H	3.15694	-3.6251	0.313872
N	2.37412	-1.05075	0.117794
C	2.40169	0.315616	-0.34138
C	3.39803	1.08049	0.509413
O	3.89554	0.568238	1.5103
H	2.6596	-1.19291	1.06127
H	2.76187	0.342198	-1.36226
C	1.00082	0.958578	-0.244426
H	0.635331	0.941057	0.804458
H	1.00601	2.00654	-0.608124
H	0.286576	0.37801	-0.868235
N	3.72023	2.33067	0.123105
C	4.66334	3.13238	0.867406
H	3.31028	2.7265	-0.691963
H	4.79509	4.12862	0.390554
H	5.65709	2.63054	0.910986
H	4.30888	3.28761	1.91211
