44
  This energy is -3.5008 and Call times are: 129694
C	-0.461676	1.00048	3.3013
C	-0.963126	0.765286	1.92857
O	-2.16004	0.796405	1.6779
H	-1.32312	1.17329	3.98243
H	0.196516	1.89444	3.32038
H	0.106586	0.115632	3.65798
N	-0.0418567	0.518249	0.994437
C	-0.378682	0.227926	-0.376993
C	0.711245	-0.654984	-0.954993
O	1.74866	-0.865839	-0.329675
H	0.925744	0.455705	1.22182
H	-1.30149	-0.337944	-0.406093
C	-0.514728	1.52842	-1.19885
H	0.435068	2.10417	-1.17802
H	-0.787516	1.31883	-2.25345
H	-1.31215	2.16241	-0.753288
N	0.495597	-1.2017	-2.16769
C	1.47372	-2.05973	-2.79478
H	-0.351833	-1.02272	-2.65646
H	1.11176	-2.40938	-3.78672
H	1.67641	-2.95319	-2.16081
H	2.43505	-1.51674	-2.94357
C	5.5306	-2.35315	-2.51882
C	5.70852	-0.998156	-1.95006
O	6.48338	-0.196868	-2.45398
H	6.19995	-2.47312	-3.39827
H	4.47908	-2.49608	-2.84536
H	5.79028	-3.12301	-1.76189
N	4.98323	-0.709192	-0.867078
C	5.07977	0.552671	-0.176472
C	4.73696	0.32052	1.28303
O	4.28527	-0.759156	1.65983
H	4.38733	-1.38598	-0.444328
H	6.10339	0.90384	-0.215479
C	4.12527	1.59594	-0.797565
H	3.07386	1.24077	-0.748272
H	4.20043	2.57594	-0.283302
H	4.38945	1.744	-1.86744
N	4.95337	1.33358	2.14494
C	4.66229	1.20276	3.55361
H	5.3233	2.19835	1.82184
H	4.90822	2.14282	4.09495
H	5.25682	0.374191	4.00225
H	3.5827	0.978468	3.71271
