44
  This energy is 0.1331 and Call times are: 126535
C	0.892729	-2.85331	-1.78167
C	1.20955	-1.74294	-0.85547
O	2.25433	-1.72779	-0.219378
H	1.71746	-3.59837	-1.75757
H	0.785969	-2.46878	-2.81777
H	-0.0506536	-3.35141	-1.47343
N	0.296666	-0.77379	-0.756623
C	0.443877	0.349651	0.134876
C	-0.941654	0.822202	0.533064
O	-1.94356	0.371998	-0.0194038
H	-0.567245	-0.820662	-1.24991
H	0.946099	0.0256841	1.0379
C	1.23168	1.49217	-0.542805
H	0.711396	1.83205	-1.46358
H	1.36371	2.35768	0.13836
H	2.23912	1.12161	-0.832794
N	-1.03075	1.74144	1.51444
C	-2.30729	2.24613	1.96379
H	-0.208978	2.09076	1.95232
H	-2.17083	2.9929	2.77677
H	-2.94264	1.41741	2.35215
H	-2.85342	2.73606	1.12543
C	6.49121	-0.0274762	0.519697
C	5.28747	0.425462	-0.213113
O	5.34605	1.34137	-1.02187
H	7.36097	0.595727	0.218068
H	6.70902	-1.08919	0.278708
H	6.33545	0.0785265	1.61403
N	4.14939	-0.216528	0.0607756
C	2.88811	0.139046	-0.540308
C	1.78129	-0.230022	0.42939
O	2.02279	-0.886777	1.44036
H	4.10948	-0.932792	0.751594
H	2.84928	1.21206	-0.680892
C	2.69362	-0.591021	-1.88731
H	2.72284	-1.69197	-1.74206
H	1.73217	-0.314902	-2.36678
H	3.51895	-0.312323	-2.57832
N	0.534134	0.194334	0.14562
C	-0.581531	-0.104093	1.01303
H	0.359157	0.72814	-0.675056
H	-1.52168	0.331472	0.608511
H	-0.410691	0.315145	2.03104
H	-0.71909	-1.20522	1.11177
