44
  This energy is -1.2666 and Call times are: 131762
C	-2.58902	-0.162325	-2.3202
C	-1.25182	-0.564939	-1.82933
O	-0.651904	-1.50733	-2.32774
H	-2.90031	-0.845488	-3.14012
H	-2.5565	0.876474	-2.71082
H	-3.33315	-0.224855	-1.49834
N	-0.748837	0.152159	-0.821785
C	0.521896	-0.145789	-0.209391
C	0.471833	0.318692	1.23398
O	-0.471254	0.990838	1.64692
H	-1.26679	0.890591	-0.399516
H	0.670262	-1.2184	-0.198117
C	1.67485	0.552518	-0.963251
H	1.5286	1.65372	-0.966004
H	2.66	0.31968	-0.509617
H	1.68747	0.203675	-2.01895
N	1.48966	-0.0388885	2.04156
C	1.52516	0.352471	3.43144
H	2.24184	-0.586451	1.69018
H	2.44118	-0.0383998	3.92678
H	0.636774	-0.044491	3.97408
H	1.52083	1.46238	3.52748
C	8.21574	2.9623	0.201548
C	7.71862	1.69617	0.785452
O	8.15877	1.27196	1.84504
H	9.00591	3.38488	0.859507
H	7.38707	3.69651	0.117951
H	8.64738	2.77624	-0.804503
N	6.77526	1.05345	0.0930933
C	6.22459	-0.211447	0.511855
C	5.78014	-0.96699	-0.726368
O	5.7656	-0.419205	-1.82702
H	6.45637	1.39035	-0.788187
H	7.00022	-0.798926	0.987136
C	5.03553	-0.0036438	1.47528
H	4.23504	0.590042	0.984565
H	4.61156	-0.970506	1.8158
H	5.38207	0.558008	2.37015
N	5.41291	-2.2547	-0.574903
C	4.98067	-3.05449	-1.69726
H	5.43526	-2.68169	0.323016
H	4.72179	-4.08528	-1.36912
H	5.78589	-3.1227	-2.46423
H	4.08277	-2.60363	-2.17856
