44
  This energy is 0.1551 and Call times are: 138559
C	-2.76495	-1.00755	-1.85811
C	-1.87641	0.0406395	-1.30772
O	-1.95822	1.20164	-1.68428
H	-3.43629	-0.556607	-2.6209
H	-3.38486	-1.44746	-1.04883
H	-2.162	-1.80721	-2.33779
N	-0.991054	-0.353888	-0.389633
C	-0.0314354	0.542394	0.205657
C	1.19025	-0.266319	0.599388
O	1.17625	-1.49462	0.546548
H	-0.908958	-1.31001	-0.123249
H	0.286178	1.26763	-0.533117
C	-0.631107	1.25272	1.43897
H	-0.947442	0.509558	2.20165
H	0.0935345	1.95602	1.8981
H	-1.52824	1.83178	1.12883
N	2.28572	0.409702	0.99809
C	3.49674	-0.274967	1.38648
H	2.27917	1.40368	1.03034
H	4.28338	0.454063	1.68132
H	3.8874	-0.890485	0.543983
H	3.30544	-0.952892	2.24959
C	8.979	-2.02377	-0.117814
C	8.32595	-0.704588	0.0385573
O	8.95294	0.269504	0.431545
H	10.0451	-1.94428	0.187143
H	8.93184	-2.35089	-1.17777
H	8.47683	-2.77786	0.524248
N	7.02821	-0.64464	-0.269113
C	6.24676	0.558557	-0.126988
C	4.80747	0.159148	0.138553
O	4.45053	-1.01316	0.0386204
H	6.52187	-1.45544	-0.548538
H	6.59349	1.10958	0.738327
C	6.34093	1.43091	-1.39796
H	5.97546	0.86968	-2.28424
H	5.75454	2.36696	-1.29562
H	7.40359	1.70467	-1.57728
N	3.94424	1.13106	0.493837
C	2.55607	0.844654	0.771548
H	4.25272	2.07317	0.573413
H	2.01017	1.77396	1.04655
H	2.46514	0.122228	1.61482
H	2.06078	0.397839	-0.120744
