44
  This energy is -1.739 and Call times are: 128980
C	1.52442	1.75336	2.59125
C	0.620188	0.694215	2.08952
O	0.170507	-0.161593	2.83905
H	1.69976	1.60191	3.67854
H	1.06595	2.75273	2.43694
H	2.49869	1.7079	2.06038
N	0.331514	0.728529	0.786501
C	-0.499285	-0.259459	0.144463
C	-0.0688271	-0.368953	-1.30615
O	0.731659	0.43051	-1.7876
H	0.737878	1.40718	0.181382
H	-0.328093	-1.22425	0.605435
C	-1.99115	0.128728	0.238753
H	-2.16916	1.11359	-0.243318
H	-2.64227	-0.631167	-0.239919
H	-2.28206	0.210931	1.30878
N	-0.587837	-1.37431	-2.0382
C	-0.232341	-1.56076	-3.42566
H	-1.23095	-2.01365	-1.62988
H	-0.762826	-2.44017	-3.8528
H	0.864146	-1.72766	-3.53118
H	-0.504002	-0.661945	-4.02522
C	4.14945	-2.10158	-2.50096
C	4.81223	-0.856542	-2.05179
O	5.38056	-0.119955	-2.84606
H	4.28579	-2.21489	-3.59842
H	3.06296	-2.05925	-2.27626
H	4.59834	-2.97965	-1.99052
N	4.75446	-0.591844	-0.744508
C	5.38882	0.559318	-0.152084
C	5.7482	0.215985	1.28128
O	5.34867	-0.825396	1.79858
H	4.32352	-1.22183	-0.104768
H	6.31373	0.766518	-0.675758
C	4.45431	1.78812	-0.196549
H	3.50965	1.57971	0.349558
H	4.9366	2.68458	0.2442
H	4.19808	2.01624	-1.25421
N	6.52366	1.08653	1.95717
C	6.92121	0.841368	3.32393
H	6.84053	1.92187	1.52028
H	7.55647	1.6717	3.70369
H	7.50127	-0.106783	3.40022
H	6.02764	0.75342	3.98344
