44
  This energy is 0.104 and Call times are: 133284
C	3.18234	-0.660329	1.24472
C	1.7206	-0.506169	1.41986
O	1.16773	-0.847858	2.4562
H	3.61487	-1.1235	2.15811
H	3.6555	0.331507	1.08621
H	3.39646	-1.31521	0.373875
N	1.05175	0.0191763	0.390773
C	-0.379658	0.191273	0.395914
C	-0.870626	0.11281	-1.03739
O	-0.0757687	0.0941614	-1.97524
H	1.50984	0.254522	-0.461652
H	-0.83593	-0.627329	0.938443
C	-0.77031	1.54484	1.02876
H	-0.311034	2.38547	0.466225
H	-1.87072	1.68315	1.05117
H	-0.394091	1.58329	2.07438
N	-2.20168	0.056184	-1.24017
C	-2.76099	-0.0257454	-2.56932
H	-2.82885	0.0682702	-0.468435
H	-3.87184	-0.0634577	-2.52689
H	-2.39897	-0.940586	-3.09209
H	-2.46294	0.859542	-3.17643
C	1.2145	-1.75045	1.89582
C	1.57607	-0.692724	0.92544
O	0.717645	-0.0970091	0.289327
H	0.110577	-1.88144	1.90197
H	1.54817	-1.46461	2.91549
H	1.68892	-2.71228	1.60792
N	2.87855	-0.43412	0.787355
C	3.38684	0.537293	-0.148889
C	4.78082	0.107865	-0.565992
O	5.35087	-0.820394	0.00417412
H	3.56775	-0.95577	1.28206
H	2.76872	0.533958	-1.03801
C	3.42046	1.94657	0.482031
H	4.06293	1.953	1.38826
H	3.797	2.70591	-0.233611
H	2.39131	2.23684	0.78686
N	5.36173	0.773183	-1.58379
C	6.68417	0.431313	-2.0533
H	4.88301	1.51881	-2.03539
H	6.98538	1.09209	-2.89585
H	6.71436	-0.624465	-2.40784
H	7.43252	0.542385	-1.23551
