44
  This energy is 0.1304 and Call times are: 138208
C	-2.10522	-2.45339	-1.28902
C	-1.87416	-1.134	-0.658978
O	-2.77529	-0.312475	-0.561705
H	-3.16024	-2.51604	-1.63382
H	-1.91797	-3.26574	-0.55569
H	-1.43311	-2.58289	-2.16343
N	-0.638528	-0.898145	-0.211798
C	-0.250247	0.355234	0.385564
C	1.22981	0.564379	0.126235
O	1.9181	-0.333979	-0.354311
H	0.0945964	-1.56088	-0.335003
H	-0.780629	1.1632	-0.102811
C	-0.539626	0.35643	1.90263
H	0.0125561	-0.465789	2.40571
H	-0.257784	1.32133	2.37174
H	-1.62695	0.193904	2.06897
N	1.75452	1.76712	0.433011
C	3.15217	2.0597	0.215848
H	1.18075	2.48284	0.817215
H	3.38972	3.0998	0.530442
H	3.41335	1.9512	-0.861782
H	3.79515	1.36131	0.798919
C	4.82832	-2.6652	1.76343
C	4.89914	-1.29596	1.20548
O	5.80242	-0.531769	1.51615
H	5.67585	-2.81979	2.46603
H	4.89664	-3.41498	0.947401
H	3.87453	-2.80495	2.31464
N	3.92887	-0.950336	0.356061
C	3.83922	0.361565	-0.235066
C	2.37819	0.651948	-0.522587
O	1.52663	-0.227286	-0.40642
H	3.17781	-1.56924	0.144584
H	4.18011	1.09971	0.480168
C	4.67249	0.439939	-1.53305
H	4.3163	-0.310013	-2.27112
H	4.62273	1.44934	-1.99038
H	5.73647	0.216238	-1.30018
N	2.05189	1.90404	-0.899146
C	0.686187	2.27469	-1.18837
H	2.7544	2.60292	-0.9836
H	0.622842	3.34621	-1.48002
H	0.038578	2.11553	-0.295871
H	0.280323	1.65918	-2.02358
