44
  This energy is -4.7144 and Call times are: 138587
C	1.85651	2.85027	-0.73622
C	1.32175	1.85408	0.219176
O	1.72307	1.80535	1.37372
H	2.63337	3.46399	-0.230526
H	1.0427	3.51888	-1.08751
H	2.31503	2.337	-1.60767
N	0.389279	1.02217	-0.250723
C	-0.194049	-0.0276609	0.546858
C	-0.613373	-1.15064	-0.383006
O	-0.586106	-1.00133	-1.60312
H	0.102394	1.04746	-1.2041
H	0.557409	-0.427003	1.21654
C	-1.40791	0.495868	1.34542
H	-2.18365	0.896036	0.658305
H	-1.85744	-0.299777	1.97422
H	-1.07928	1.32205	2.01309
N	-1.00574	-2.31212	0.176486
C	-1.41705	-3.43822	-0.629059
H	-1.01717	-2.41522	1.16558
H	-1.70226	-4.29912	0.0149333
H	-0.590437	-3.7626	-1.30193
H	-2.29274	-3.16904	-1.26298
C	3.914	-0.234237	2.94737
C	4.27981	-0.719963	1.59777
O	3.9083	-1.81426	1.19664
H	3.30893	-1.00978	3.46532
H	3.31418	0.696834	2.86943
H	4.82942	-0.0351557	3.54356
N	5.03156	0.097226	0.856519
C	5.5026	-0.254456	-0.459913
C	6.80859	0.477229	-0.706069
O	7.20357	1.34078	0.0749382
H	5.36027	0.967399	1.21233
H	5.71649	-1.31554	-0.491131
C	4.46086	0.119931	-1.53688
H	4.24893	1.21013	-1.51226
H	4.806	-0.158516	-2.55367
H	3.51102	-0.420729	-1.33235
N	7.51742	0.139976	-1.80144
C	8.77461	0.778479	-2.11442
H	7.1835	-0.564095	-2.41938
H	9.20314	0.364026	-3.05348
H	9.51082	0.619901	-1.29337
H	8.63591	1.87595	-2.24654
