44
  This energy is 0.1128 and Call times are: 138616
C	-1.67974	-2.00686	-2.29426
C	-1.06786	-0.721019	-1.8901
O	-0.8877	0.17686	-2.70113
H	-1.897	-1.98368	-3.38428
H	-2.62914	-2.16924	-1.74197
H	-0.982343	-2.84517	-2.08459
N	-0.727323	-0.603982	-0.604521
C	-0.0834279	0.570493	-0.0710728
C	0.765203	0.147887	1.11332
O	0.690646	-0.992642	1.56648
H	-0.842729	-1.35871	0.0349526
H	0.585549	0.981079	-0.817076
C	-1.1271	1.62446	0.359221
H	-1.80707	1.20713	1.13221
H	-0.64338	2.53922	0.758902
H	-1.74176	1.91305	-0.521264
N	1.60369	1.06217	1.63967
C	2.45399	0.748972	2.76443
H	1.65293	1.97866	1.25667
H	3.0693	1.63056	3.04976
H	3.14095	-0.0920423	2.51531
H	1.84389	0.446758	3.64624
C	3.46354	-1.46022	1.66236
C	4.43463	-1.41133	0.546231
O	4.55611	-2.35001	-0.228706
H	2.94069	-2.44122	1.65157
H	2.71157	-0.650953	1.5511
H	3.99013	-1.34432	2.6331
N	5.16125	-0.296349	0.440212
C	6.17634	-0.118721	-0.568054
C	7.22619	0.829637	-0.0203377
O	7.0425	1.42987	1.03687
H	5.07997	0.442494	1.10306
H	6.66435	-1.06722	-0.754626
C	5.56699	0.442449	-1.87152
H	5.07535	1.42056	-1.68276
H	6.33636	0.57066	-2.66029
H	4.79598	-0.263722	-2.24995
N	8.36282	0.98054	-0.728382
C	9.42035	1.85744	-0.282476
H	8.49487	0.483207	-1.57944
H	10.2704	1.84471	-0.999712
H	9.79935	1.53967	0.715856
H	9.05142	2.90494	-0.194265
