44
  This energy is -2.9122 and Call times are: 132212
C	-1.30285	-3.09836	0.903003
C	-0.372118	-1.96588	1.10883
O	0.277745	-1.85998	2.13979
H	-1.2946	-3.74904	1.80435
H	-0.987049	-3.69833	0.0237652
H	-2.33471	-2.72117	0.741523
N	-0.288457	-1.07833	0.115037
C	0.5411	0.0986225	0.186972
C	-0.0878423	1.1742	-0.678544
O	-1.03569	0.913895	-1.41715
H	-0.854302	-1.15608	-0.700832
H	0.54979	0.467868	1.20492
C	1.97752	-0.208881	-0.289859
H	1.97013	-0.57773	-1.33768
H	2.62975	0.686139	-0.22613
H	2.41515	-1.00397	0.352534
N	0.423828	2.41842	-0.600158
C	-0.113401	3.50732	-1.38237
H	1.18824	2.61047	0.00635815
H	0.441397	4.44948	-1.178
H	-1.18778	3.67335	-1.13861
H	-0.0369022	3.28428	-2.47119
C	4.86894	2.66789	-1.71675
C	5.44979	2.0649	-0.496017
O	5.73828	2.75233	0.473843
H	4.78147	3.76733	-1.57741
H	3.85882	2.2483	-1.90742
H	5.52336	2.46742	-2.59117
N	5.639	0.743516	-0.519133
C	6.23467	0.0206709	0.57687
C	6.93159	-1.20326	0.0130594
O	6.78605	-1.52413	-1.16489
H	5.43725	0.203276	-1.3311
H	6.99306	0.638147	1.04183
C	5.16482	-0.393628	1.6108
H	4.39223	-1.03579	1.1367
H	5.61296	-0.938968	2.46654
H	4.66243	0.517028	2.00405
N	7.71714	-1.9145	0.845564
C	8.42446	-3.09104	0.396544
H	7.8257	-1.6368	1.79434
H	9.01615	-3.53511	1.22717
H	9.12228	-2.83677	-0.433919
H	7.71034	-3.8607	0.0239719
