44
  This energy is 0.1246 and Call times are: 128360
C	-3.09123	1.55724	0.363277
C	-2.19298	0.391179	0.520078
O	-2.52081	-0.573944	1.19645
H	-4.02028	1.38665	0.949494
H	-3.36031	1.69207	-0.705442
H	-2.59372	2.47664	0.737815
N	-1.01854	0.45764	-0.111299
C	-0.0221553	-0.580213	-0.0183257
C	1.34243	0.0561768	-0.20401
O	1.44749	1.2295	-0.55614
H	-0.749028	1.26739	-0.624658
H	-0.0452787	-1.00962	0.97551
C	-0.260595	-1.67107	-1.08529
H	-0.226487	-1.2329	-2.10552
H	0.492022	-2.48296	-1.01506
H	-1.26789	-2.11735	-0.935142
N	2.42642	-0.706802	0.0385847
C	3.76556	-0.185372	-0.106278
H	2.32118	-1.65286	0.326646
H	4.51989	-0.965306	0.138509
H	3.925	0.682231	0.574252
H	3.94265	0.158308	-1.15111
C	5.6928	0.90934	-2.3062
C	5.27396	0.305494	-1.02125
O	6.05729	-0.343207	-0.341555
H	6.75644	0.652889	-2.50311
H	5.59196	2.01411	-2.26076
H	5.06861	0.51519	-3.13572
N	4.00583	0.50756	-0.656001
C	3.44071	-0.0527416	0.546188
C	1.95407	-0.254225	0.320666
O	1.40266	0.194938	-0.682284
H	3.36907	1.00323	-1.23969
H	3.87516	-1.02858	0.724001
C	3.68387	0.876813	1.75534
H	3.22925	1.87474	1.57782
H	3.26547	0.449862	2.68978
H	4.77787	1.01648	1.89672
N	1.26866	-0.94688	1.2515
C	-0.148379	-1.19316	1.11914
H	1.73311	-1.30599	2.05425
H	-0.528252	-1.77915	1.9849
H	-0.362221	-1.76564	0.187571
H	-0.711411	-0.233036	1.07123
