44
  This energy is -4.578 and Call times are: 132100
C	1.07345	3.2902	0.367389
C	0.102239	2.28235	-0.114411
O	-0.996044	2.61397	-0.538928
H	0.623139	4.30323	0.284471
H	1.99721	3.25611	-0.247633
H	1.32999	3.09689	1.43036
N	0.492257	1.00688	-0.0557913
C	-0.358731	-0.0887324	-0.448233
C	0.0421551	-1.31074	0.356467
O	1.05478	-1.30124	1.05375
H	1.37348	0.749617	0.330388
H	-1.38409	0.145215	-0.190279
C	-0.231891	-0.371252	-1.96129
H	0.817855	-0.621631	-2.22469
H	-0.892748	-1.20384	-2.27844
H	-0.522504	0.538828	-2.53019
N	-0.75381	-2.39575	0.284147
C	-0.45524	-3.60261	1.01934
H	-1.57116	-2.38292	-0.282292
H	-1.22743	-4.38025	0.82899
H	-0.425894	-3.39846	2.11421
H	0.536216	-4.01148	0.717705
C	7.47587	2.68327	0.627293
C	6.8515	1.39758	1.01241
O	7.25441	0.762014	1.97684
H	8.31368	2.90757	1.32271
H	6.73017	3.50375	0.686536
H	7.87455	2.62037	-0.407196
N	5.83735	0.978959	0.251716
C	5.15817	-0.272894	0.47561
C	4.62223	-0.764932	-0.855643
O	4.6553	-0.0458757	-1.85242
H	5.54744	1.48703	-0.554307
H	5.87098	-1.00801	0.82794
C	4.0084	-0.102571	1.4926
H	3.27139	0.643754	1.12674
H	3.48644	-1.06249	1.68397
H	4.4226	0.265701	2.45653
N	4.12018	-2.01457	-0.90421
C	3.59281	-2.57025	-2.12866
H	4.10577	-2.58276	-0.0881021
H	3.22796	-3.60811	-1.96442
H	4.37804	-2.59571	-2.91863
H	2.74369	-1.95541	-2.50562
