44
  This energy is -1.7578 and Call times are: 138644
C	-1.82066	2.81961	-0.920675
C	-0.740395	1.83383	-1.14958
O	-0.147411	1.78131	-2.21824
H	-1.96941	3.42229	-1.84292
H	-1.5475	3.50002	-0.0869046
H	-2.76958	2.29748	-0.67566
N	-0.458588	1.01549	-0.13308
C	0.537147	-0.0235057	-0.219988
C	0.137488	-1.1418	0.724074
O	-0.791409	-0.995487	1.5162
H	-0.97776	1.04323	0.716367
H	0.539552	-0.433038	-1.22244
C	1.93547	0.520438	0.146165
H	1.93626	0.931135	1.17833
H	2.7132	-0.266828	0.0696117
H	2.20383	1.34282	-0.552413
N	0.829813	-2.29589	0.654886
C	0.51746	-3.41717	1.51008
H	1.5755	-2.39673	0.00461229
H	1.19768	-4.2722	1.30164
H	-0.531302	-3.75572	1.34651
H	0.626104	-3.13578	2.58253
C	4.22113	-1.01002	2.67893
C	5.4124	-0.330349	2.12209
O	6.12159	0.378944	2.82234
H	4.11572	-0.744872	3.75338
H	4.33213	-2.11114	2.58971
H	3.3075	-0.685725	2.13746
N	5.66043	-0.534289	0.826217
C	6.75775	0.0932934	0.132979
C	6.36953	0.24764	-1.32546
O	5.34925	-0.27938	-1.76475
H	5.05081	-1.08139	0.259733
H	6.91098	1.08785	0.532983
C	8.04646	-0.74769	0.264189
H	7.893	-1.76468	-0.155593
H	8.90209	-0.267979	-0.253783
H	8.30717	-0.854335	1.33983
N	7.17625	0.986496	-2.11242
C	6.88444	1.19325	-3.5118
H	7.99524	1.40841	-1.73783
H	7.66486	1.82782	-3.98669
H	5.89879	1.69729	-3.63721
H	6.84604	0.220359	-4.05323
