44
  This energy is 0.1142 and Call times are: 133736
C	3.26295	-1.20593	0.10765
C	1.86065	-1.19682	0.581605
O	1.43822	-2.07123	1.32549
H	3.78364	-2.09821	0.518263
H	3.7897	-0.291722	0.45333
H	3.29174	-1.25181	-1.00148
N	1.09536	-0.191004	0.151437
C	-0.300327	-0.0707006	0.492219
C	-1.00012	0.667415	-0.633405
O	-0.355114	1.19203	-1.5392
H	1.44228	0.490555	-0.486525
H	-0.739791	-1.05857	0.552395
C	-0.479046	0.68382	1.82788
H	-0.0376874	1.7012	1.76325
H	-1.5488	0.770839	2.10821
H	0.0476757	0.130084	2.63553
N	-2.34651	0.717695	-0.606126
C	-3.09875	1.39324	-1.6376
H	-2.85103	0.283663	0.132888
H	-4.1907	1.32357	-1.43757
H	-2.89525	0.938237	-2.63401
H	-2.81907	2.47053	-1.68641
C	3.41601	-1.42332	0.514775
C	4.30453	-0.421029	-0.115372
O	3.90986	0.288386	-1.03045
H	2.42461	-1.40284	0.0122109
H	3.27809	-1.1894	1.59135
H	3.85092	-2.43969	0.410313
N	5.54647	-0.341626	0.368035
C	6.5384	0.555059	-0.171024
C	7.90639	-0.0585695	0.060531
O	8.03735	-1.05792	0.764695
H	5.86548	-0.954097	1.08565
H	6.39966	0.63924	-1.24167
C	6.44786	1.94426	0.497689
H	6.6006	1.85977	1.59476
H	7.1975	2.64795	0.0813221
H	5.43611	2.37078	0.322213
N	8.96307	0.525292	-0.538271
C	10.3024	0.00834203	-0.379951
H	8.8366	1.33084	-1.10764
H	11.0319	0.625119	-0.949725
H	10.3651	-1.04038	-0.750821
H	10.6014	0.0134322	0.693235
