44
  This energy is -1.0071 and Call times are: 129425
C	0.285771	-2.75404	2.10861
C	-0.0191006	-2.14508	0.794327
O	-0.172575	-2.83625	-0.20324
H	0.355781	-3.85767	1.99468
H	-0.519484	-2.51819	2.83572
H	1.25441	-2.37027	2.49274
N	-0.112639	-0.813633	0.76456
C	-0.361537	-0.0752398	-0.448446
C	0.271792	1.29594	-0.305881
O	0.727057	1.67027	0.773158
H	0.0553184	-0.262092	1.57663
H	0.128552	-0.572429	-1.27624
C	-1.87737	0.0534965	-0.714754
H	-2.37899	0.572886	0.129428
H	-2.0818	0.608191	-1.65339
H	-2.3212	-0.961757	-0.807633
N	0.322997	2.07807	-1.40209
C	0.912057	3.39629	-1.36327
H	-0.0469685	1.75609	-2.26726
H	0.858534	3.88054	-2.3632
H	1.98209	3.33951	-1.05819
H	0.378127	4.04398	-0.630772
C	6.00506	3.41654	0.588996
C	5.19619	2.2112	0.299125
O	3.97498	2.23749	0.365093
H	5.32931	4.25385	0.868521
H	6.58915	3.71036	-0.308367
H	6.69907	3.21785	1.43277
N	5.87205	1.10843	-0.031804
C	5.2262	-0.152407	-0.299593
C	6.19366	-1.26483	0.0583048
O	7.36465	-1.01531	0.338033
H	6.86778	1.09182	-0.0413618
H	4.36284	-0.255708	0.345827
C	4.80869	-0.254317	-1.78302
H	5.69548	-0.158949	-2.44526
H	4.29785	-1.21505	-1.99879
H	4.10724	0.5739	-2.02458
N	5.72054	-2.52662	0.0658021
C	6.56619	-3.64901	0.399399
H	4.76901	-2.70821	-0.159352
H	5.99353	-4.60129	0.349767
H	6.97575	-3.53965	1.42973
H	7.42433	-3.71842	-0.307651
