44
  This energy is -5.769 and Call times are: 128887
C	0.0791538	-1.32423	-3.21758
C	0.490154	-0.319288	-2.21144
O	1.40087	0.465829	-2.43638
H	0.72553	-1.22905	-4.11704
H	-0.977501	-1.15786	-3.51515
H	0.189261	-2.34834	-2.80267
N	-0.183211	-0.32394	-1.05865
C	0.129818	0.565322	0.0321248
C	-0.264226	-0.118431	1.3278
O	-0.905356	-1.1675	1.31661
H	-0.894772	-0.996001	-0.874577
H	1.20004	0.727084	0.0652778
C	-0.616522	1.90887	-0.119843
H	-1.71491	1.74445	-0.143307
H	-0.373009	2.60748	0.706696
H	-0.318945	2.38764	-1.07827
N	0.120518	0.46034	2.48236
C	-0.204003	-0.120928	3.76416
H	0.64227	1.30693	2.47102
H	0.200113	0.5022	4.59218
H	0.228305	-1.14397	3.85227
H	-1.3079	-0.200474	3.8915
C	4.71674	2.19107	-2.69785
C	5.41518	1.15227	-1.90776
O	6.41168	0.590571	-2.34124
H	5.23251	2.31847	-3.67438
H	4.73134	3.15932	-2.15469
H	3.66489	1.88764	-2.88389
N	4.89659	0.86837	-0.710744
C	5.43987	-0.149073	0.154249
C	4.31126	-0.696416	1.00762
O	3.20573	-0.158365	1.01023
H	4.0613	1.30492	-0.388929
H	5.81477	-0.967156	-0.448088
C	6.56251	0.426183	1.04532
H	6.17586	1.25858	1.67115
H	6.99841	-0.350833	1.70619
H	7.37378	0.828099	0.399836
N	4.56377	-1.79212	1.75037
C	3.54944	-2.38697	2.5891
H	5.46336	-2.21577	1.73192
H	3.9507	-3.27876	3.11913
H	2.67334	-2.70641	1.97944
H	3.19201	-1.65724	3.35126
