44
  This energy is -3.6697 and Call times are: 127457
C	0.0179172	3.36723	-0.879839
C	-0.557578	2.0052	-0.949193
O	-1.65162	1.80547	-1.4587
H	-0.696996	4.09127	-1.32767
H	0.972654	3.40853	-1.4451
H	0.202111	3.65145	0.177698
N	0.179425	1.02224	-0.426702
C	-0.265946	-0.34822	-0.381431
C	0.384304	-1.0176	0.814672
O	1.26747	-0.447477	1.4524
H	1.04969	1.20633	0.0212027
H	-1.33665	-0.370766	-0.221098
C	0.102328	-1.09131	-1.68428
H	1.2016	-1.07758	-1.84378
H	-0.247515	-2.14386	-1.66737
H	-0.377711	-0.579607	-2.54688
N	-0.0468396	-2.24868	1.15318
C	0.509366	-2.96112	2.27979
H	-0.765285	-2.69204	0.627505
H	0.0238435	-3.95521	2.39502
H	0.358042	-2.38587	3.22184
H	1.60377	-3.11888	2.14363
C	4.41987	-2.61643	2.11953
C	5.38364	-1.60739	1.62543
O	6.42021	-1.37232	2.23097
H	4.79818	-3.051	3.07026
H	4.3023	-3.43066	1.37391
H	3.43328	-2.14305	2.30829
N	5.05552	-0.976771	0.495361
C	5.87145	0.0603386	-0.085343
C	4.96391	0.999802	-0.856935
O	3.78131	0.72045	-1.04437
H	4.18901	-1.14974	0.0359032
H	6.33387	0.636441	0.70642
C	6.94681	-0.540409	-1.01698
H	6.47255	-1.12279	-1.83549
H	7.59045	0.247241	-1.45952
H	7.59423	-1.2305	-0.433069
N	5.49875	2.14763	-1.31785
C	4.71041	3.10523	-2.05792
H	6.45663	2.358	-1.15264
H	5.32906	3.98248	-2.34934
H	3.85492	3.4683	-1.44343
H	4.29855	2.64315	-2.9842
