44
  This energy is 0.104 and Call times are: 137263
C	3.25584	0.776969	0.953148
C	1.78871	0.890296	1.11381
O	1.29898	1.41057	2.10673
H	3.7575	1.2058	1.84776
H	3.5866	1.3364	0.0529342
H	3.54866	-0.28954	0.853619
N	1.04321	0.394613	0.1234
C	-0.398128	0.393038	0.156492
C	-0.888775	-0.785083	-0.663784
O	-0.108837	-1.44383	-1.34896
H	1.45562	-0.0626035	-0.659379
H	-0.731895	0.238296	1.17496
C	-0.96427	1.71621	-0.403819
H	-0.630764	1.87025	-1.45219
H	-2.07294	1.73288	-0.370864
H	-0.585877	2.565	0.206686
N	-2.2015	-1.08406	-0.605609
C	-2.75826	-2.19098	-1.34785
H	-2.81621	-0.541911	-0.0423331
H	-3.8529	-2.27375	-1.16859
H	-2.27958	-3.14939	-1.04194
H	-2.59106	-2.05503	-2.44088
C	-0.386467	1.59078	1.62211
C	0.971213	1.59114	1.03231
O	1.58291	2.63511	0.852373
H	-0.699258	2.63818	1.82451
H	-0.388773	1.02413	2.57691
H	-1.10984	1.12959	0.917049
N	1.47904	0.398944	0.711125
C	2.77045	0.241989	0.0896965
C	2.74179	-1.02269	-0.747763
O	1.79191	-1.80054	-0.681471
H	0.95262	-0.438671	0.825754
H	2.94572	1.07125	-0.584264
C	3.88813	0.16238	1.15257
H	3.71445	-0.694538	1.83782
H	4.88888	0.0553556	0.686124
H	3.88534	1.09462	1.75859
N	3.78638	-1.25383	-1.56717
C	3.84384	-2.42844	-2.40572
H	4.54377	-0.610713	-1.61002
H	4.78038	-2.43785	-3.00574
H	2.97824	-2.45332	-3.10672
H	3.81403	-3.35466	-1.78736
