44
  This energy is -6.2732 and Call times are: 130266
C	0.328834	-1.46764	-3.13856
C	0.693547	-0.443138	-2.13431
O	1.66714	0.280306	-2.29291
H	1.06808	-1.44783	-3.96862
H	-0.680296	-1.25711	-3.55096
H	0.335486	-2.47689	-2.67544
N	-0.093017	-0.359967	-1.05878
C	0.158954	0.558249	0.0237885
C	-0.404835	-0.0449444	1.29652
O	-1.10218	-1.05687	1.25873
H	-0.85801	-0.983328	-0.924339
H	1.22787	0.662583	0.162241
C	-0.4875	1.93254	-0.256683
H	-1.58553	1.82752	-0.388344
H	-0.288838	2.65268	0.563346
H	-0.0659955	2.35145	-1.19647
N	-0.106456	0.562451	2.46189
C	-0.59375	0.0570755	3.72415
H	0.462714	1.37793	2.47259
H	-0.240204	0.693212	4.56532
H	-0.233737	-0.983166	3.89609
H	-1.70764	0.0436962	3.73854
C	7.99553	-1.69751	1.93124
C	7.41381	-1.31584	0.624689
O	7.99713	-1.55804	-0.422924
H	8.98208	-2.18268	1.76638
H	7.32617	-2.41273	2.4539
H	8.13949	-0.796371	2.56393
N	6.23105	-0.697574	0.65955
C	5.56035	-0.227522	-0.526945
C	4.70597	0.966702	-0.145592
O	4.54285	1.27342	1.03382
H	5.78786	-0.470808	1.52211
H	6.2976	0.118117	-1.24082
C	4.68814	-1.3418	-1.14571
H	3.9248	-1.68941	-0.417337
H	4.17729	-0.996409	-2.0678
H	5.33277	-2.20847	-1.40969
N	4.14421	1.67765	-1.14308
C	3.31975	2.8332	-0.876357
H	4.2911	1.41638	-2.09136
H	2.9513	3.28097	-1.82556
H	3.89783	3.60912	-0.324045
H	2.43832	2.55233	-0.2556
