44
  This energy is -4.784 and Call times are: 133028
C	-1.16782	1.80496	-2.73697
C	-0.851704	0.529221	-2.05602
O	-1.22197	-0.542283	-2.51557
H	-1.76804	1.59559	-3.64898
H	-0.231504	2.32251	-3.03394
H	-1.75588	2.46302	-2.06299
N	-0.149507	0.618832	-0.924085
C	0.197186	-0.531452	-0.127085
C	0.320626	-0.0859088	1.31784
O	0.295468	1.10732	1.6133
H	0.1095	1.50092	-0.541072
H	-0.607701	-1.25435	-0.174095
C	1.52031	-1.16171	-0.614297
H	2.34853	-0.423651	-0.556327
H	1.79096	-2.05662	-0.0173075
H	1.40947	-1.47299	-1.67598
N	0.44936	-1.04246	2.2583
C	0.567658	-0.713588	3.65974
H	0.463513	-2.00278	2.00013
H	0.66383	-1.63627	4.27345
H	-0.329446	-0.152551	4.00861
H	1.4643	-0.0774045	3.83985
C	4.17991	3.10668	1.19194
C	4.90489	2.25771	0.219931
O	5.34914	2.72408	-0.820045
H	4.11912	4.14488	0.799135
H	4.71749	3.12085	2.16331
H	3.15047	2.71953	1.34503
N	5.04017	0.969262	0.542421
C	5.68343	0.0113189	-0.321937
C	5.07624	-1.35238	-0.0513729
O	4.31126	-1.5245	0.895669
H	4.63746	0.59595	1.37328
H	5.46925	0.260826	-1.35368
C	7.20801	-0.0164719	-0.0767358
H	7.4285	-0.282715	0.978982
H	7.71652	-0.740342	-0.746028
H	7.62975	0.993455	-0.272994
N	5.39916	-2.35785	-0.888491
C	4.86552	-3.68849	-0.712934
H	6.01659	-2.19816	-1.65161
H	5.24864	-4.37305	-1.5015
H	3.75292	-3.67615	-0.769853
H	5.15582	-4.10048	0.280611
