44
  This energy is -2.4045 and Call times are: 133409
C	-3.47057	-0.254569	-0.0547703
C	-2.15047	-0.562882	0.539723
O	-2.05917	-1.0869	1.6413
H	-4.27205	-0.554944	0.654655
H	-3.60282	-0.814462	-1.00439
H	-3.55595	0.834673	-0.25315
N	-1.08058	-0.236325	-0.189024
C	0.270106	-0.435026	0.274353
C	1.15294	0.611852	-0.378495
O	0.718261	1.33169	-1.27549
H	-1.17027	0.226983	-1.06605
H	0.309065	-0.268503	1.34364
C	0.768517	-1.85542	-0.0710542
H	0.738701	-2.02306	-1.1688
H	1.80255	-2.02549	0.292792
H	0.10323	-2.60501	0.410466
N	2.41997	0.726614	0.0658985
C	3.33145	1.69848	-0.491655
H	2.75224	0.137961	0.795388
H	4.32429	1.63733	0.00609803
H	2.93508	2.73101	-0.357361
H	3.47445	1.52273	-1.58244
C	7.37336	-3.35338	0.923235
C	6.91417	-1.96121	1.12853
O	6.04084	-1.69634	1.94312
H	6.79633	-4.03226	1.58808
H	8.45243	-3.44071	1.16967
H	7.20944	-3.65876	-0.131729
N	7.50185	-1.02581	0.378827
C	7.1315	0.366393	0.434957
C	7.41438	0.986098	-0.920593
O	8.02983	0.361567	-1.7825
H	8.18222	-1.26213	-0.309006
H	6.06579	0.445766	0.609855
C	7.91822	1.10237	1.5416
H	9.01126	1.03021	1.35691
H	7.63187	2.17224	1.60408
H	7.70226	0.627144	2.52336
N	6.9606	2.23516	-1.14405
C	7.17757	2.90377	-2.40582
H	6.46106	2.7229	-0.435778
H	6.7292	3.92164	-2.39373
H	6.71612	2.32743	-3.24019
H	8.26715	3.00286	-2.61589
