44
  This energy is -1.8603 and Call times are: 132296
C	-0.68416	3.32937	-0.748258
C	-0.401392	2.24171	0.215161
O	-0.145392	2.48433	1.38649
H	-0.601509	4.30954	-0.230264
H	-1.71198	3.22314	-1.15452
H	0.0477446	3.30116	-1.58289
N	-0.440078	0.997229	-0.266655
C	-0.145038	-0.161514	0.538843
C	0.407172	-1.24221	-0.371493
O	0.383866	-1.10882	-1.59353
H	-0.60962	0.818034	-1.23154
H	0.631081	0.0872809	1.25184
C	-1.41046	-0.662781	1.26869
H	-2.2033	-0.928136	0.537226
H	-1.19335	-1.54644	1.90314
H	-1.80175	0.14673	1.92286
N	0.927963	-2.34185	0.207816
C	1.48153	-3.41997	-0.577938
H	0.941601	-2.42979	1.19835
H	1.85953	-4.23273	0.0806611
H	2.32716	-3.05507	-1.20486
H	0.708863	-3.84888	-1.25629
C	5.11577	-2.69363	-2.07798
C	5.79723	-2.09991	-0.905692
O	6.35161	-2.8033	-0.0724319
H	5.195	-3.80131	-2.02681
H	5.5932	-2.34217	-3.01675
H	4.0422	-2.4099	-2.0808
N	5.768	-0.768344	-0.813732
C	6.34983	-0.0490012	0.29197
C	5.57875	1.24498	0.472604
O	4.74468	1.60216	-0.357132
H	5.27761	-0.211686	-1.47819
H	6.2263	-0.627418	1.19905
C	7.84452	0.242716	0.0350111
H	7.97102	0.845063	-0.88977
H	8.30738	0.784141	0.885388
H	8.38762	-0.717798	-0.102074
N	5.83588	1.97752	1.57409
C	5.14708	3.22036	1.83311
H	6.51133	1.67001	2.23612
H	5.49702	3.67248	2.78724
H	4.04819	3.05237	1.90718
H	5.33017	3.9499	1.01129
