44
  This energy is 0.1266 and Call times are: 138528
C	-3.03468	1.60837	-0.562628
C	-2.224	0.532781	0.0514168
O	-2.69033	-0.196281	0.915947
H	-4.04508	1.61694	-0.0990569
H	-3.14131	1.43186	-1.6536
H	-2.55323	2.59458	-0.393264
N	-0.969436	0.410519	-0.388468
C	-0.0465722	-0.560967	0.143602
C	1.35895	-0.0101236	-0.00687735
O	1.56842	1.01233	-0.656818
H	-0.591405	1.03777	-1.06339
H	-0.231941	-0.686956	1.20303
C	-0.180823	-1.9112	-0.594012
H	0.0195963	-1.78443	-1.67928
H	0.514947	-2.67178	-0.184197
H	-1.21911	-2.29156	-0.477198
N	2.35993	-0.675709	0.602272
C	3.72904	-0.22317	0.519178
H	2.17014	-1.49885	1.12715
H	4.40301	-0.903046	1.08554
H	3.83002	0.802608	0.942095
H	4.06989	-0.194549	-0.54108
C	4.08065	-1.83685	-2.94384
C	4.83095	-1.39775	-1.74576
O	5.87628	-1.94247	-1.41867
H	4.61138	-2.69157	-3.41674
H	4.01135	-1.00647	-3.67761
H	3.05857	-2.16275	-2.65711
N	4.30286	-0.386377	-1.05249
C	4.89495	0.122879	0.159388
C	3.78658	0.694135	1.02354
O	2.64556	0.819265	0.58297
H	3.43019	0.0198003	-1.30807
H	5.34336	-0.695279	0.709083
C	5.94956	1.20651	-0.154912
H	5.48779	2.05095	-0.709642
H	6.42268	1.59671	0.769438
H	6.74651	0.768401	-0.794651
N	4.09759	1.04832	2.28602
C	3.10697	1.59574	3.18333
H	5.02547	0.935732	2.62577
H	3.55723	1.8232	4.17467
H	2.2724	0.873381	3.33491
H	2.67813	2.53661	2.76859
