44
  This energy is -2.0442 and Call times are: 134748
C	1.88907	2.54883	1.43094
C	0.946024	2.04224	0.408599
O	0.349063	2.80721	-0.336297
H	1.91553	3.65938	1.38803
H	2.90985	2.15729	1.23746
H	1.55933	2.23611	2.44414
N	0.78749	0.717849	0.351841
C	-0.12754	0.0793431	-0.56117
C	-0.58945	-1.22276	0.0655038
O	-0.0628351	-1.64967	1.09124
H	1.24937	0.110758	0.992136
H	-1.0023	0.70526	-0.686295
C	0.548287	-0.185601	-1.92437
H	1.43968	-0.836333	-1.79789
H	-0.15032	-0.664457	-2.64072
H	0.885327	0.779978	-2.36073
N	-1.59761	-1.88358	-0.53695
C	-2.10743	-3.1279	-0.00974918
H	-2.01377	-1.5202	-1.36389
H	-2.93438	-3.51477	-0.645126
H	-2.49694	-2.98609	1.02439
H	-1.30332	-3.89811	0.0268122
C	6.46778	2.77901	-2.03021
C	6.78158	1.95917	-0.838342
O	7.77771	2.17904	-0.163213
H	7.26321	3.54289	-2.17034
H	5.49405	3.29488	-1.89428
H	6.42261	2.13706	-2.93515
N	5.92388	0.977284	-0.550882
C	6.11772	0.0690497	0.551883
C	5.45517	-1.24973	0.200565
O	4.74263	-1.35066	-0.79633
H	5.13943	0.784684	-1.13347
H	7.17624	-0.124135	0.67373
C	5.51915	0.645933	1.85348
H	4.4311	0.834436	1.7324
H	5.67424	-0.0380298	2.71294
H	6.01305	1.61441	2.08684
N	5.68351	-2.30022	1.01317
C	5.09988	-3.59605	0.755531
H	6.26628	-2.20004	1.81281
H	5.40635	-4.32749	1.53547
H	5.4268	-3.98386	-0.23644
H	3.98764	-3.53248	0.751861
