44
  This energy is -1.0869 and Call times are: 131734
C	0.544606	2.71418	-2.10934
C	0.787498	1.97136	-0.852216
O	1.69485	2.28775	-0.095241
H	1.30073	3.52289	-2.21005
H	-0.468228	3.16885	-2.09562
H	0.631062	2.03089	-2.98039
N	-0.0316391	0.947742	-0.60002
C	0.106645	0.104754	0.561362
C	-0.433307	-1.27001	0.214926
O	-1.03413	-1.46311	-0.840272
H	-0.739835	0.676929	-1.24577
H	1.15752	-0.0110605	0.795626
C	-0.654884	0.697526	1.76715
H	-1.73486	0.806715	1.53102
H	-0.54462	0.0646087	2.67147
H	-0.248586	1.70652	1.99779
N	-0.22265	-2.26543	1.09856
C	-0.695105	-3.60783	0.851749
H	0.269221	-2.09063	1.94507
H	-0.423551	-4.28143	1.69422
H	-0.246331	-4.01663	-0.0824686
H	-1.80311	-3.61956	0.73633
C	3.24107	-2.00033	-1.02055
C	4.63251	-1.82389	-0.547345
O	5.30231	-2.77949	-0.18045
H	2.96481	-3.07523	-0.956325
H	3.15091	-1.66855	-2.07627
H	2.54405	-1.4117	-0.387498
N	5.10413	-0.574911	-0.543416
C	6.42425	-0.240181	-0.070352
C	6.39101	1.1816	0.457853
O	5.40377	1.89415	0.286561
H	4.53312	0.197554	-0.806295
H	6.6809	-0.886693	0.759572
C	7.46617	-0.372947	-1.20262
H	7.20909	0.29792	-2.0499
H	8.48886	-0.131236	-0.847391
H	7.46756	-1.41912	-1.57925
N	7.47441	1.62647	1.12444
C	7.53126	2.96351	1.66784
H	8.26201	1.03375	1.25651
H	8.5031	3.139	2.17966
H	6.71245	3.12245	2.40646
H	7.41871	3.72154	0.85922
