44
  This energy is -0.4962 and Call times are: 132408
C	2.86916	1.95143	-0.269267
C	1.76034	1.36604	0.517486
O	1.75659	1.41526	1.73977
H	3.62447	2.38126	0.424013
H	2.48616	2.75846	-0.928627
H	3.35452	1.16769	-0.888362
N	0.779524	0.787094	-0.179068
C	-0.344409	0.136785	0.447377
C	-0.835431	-0.957754	-0.481297
O	-0.396353	-1.05687	-1.62546
H	0.816877	0.718861	-1.17195
H	-0.0166221	-0.339866	1.3628
C	-1.47508	1.14788	0.738075
H	-1.81895	1.62946	-0.20207
H	-2.34072	0.6619	1.23306
H	-1.09108	1.94387	1.41283
N	-1.75839	-1.81566	-0.00362097
C	-2.28032	-2.89213	-0.812932
H	-2.09855	-1.72185	0.926198
H	-3.02754	-3.4865	-0.242309
H	-1.46072	-3.57502	-1.13416
H	-2.77479	-2.4921	-1.7276
C	10.6866	-1.28974	2.58824
C	10.1707	-0.157807	1.78593
O	10.3351	0.999805	2.14553
H	11.185	-0.896132	3.50063
H	11.4251	-1.87193	1.99802
H	9.85115	-1.9545	2.89359
N	9.5219	-0.473619	0.662644
C	8.92611	0.51632	-0.199684
C	7.74545	-0.121708	-0.907178
O	7.54167	-1.33153	-0.826527
H	9.36044	-1.42178	0.404229
H	8.54027	1.32919	0.402815
C	9.9525	1.0431	-1.22646
H	10.3408	0.211138	-1.85186
H	9.50961	1.8161	-1.8874
H	10.8112	1.49843	-0.686469
N	6.93031	0.684841	-1.61501
C	5.77872	0.167872	-2.31698
H	7.10923	1.66185	-1.66513
H	5.23586	0.986676	-2.83861
H	5.07407	-0.323335	-1.60742
H	6.08721	-0.587454	-3.07556
