44
  This energy is 0.3611 and Call times are: 134468
C	-1.91172	0.534658	-2.8587
C	-1.74588	0.0280429	-1.47776
O	-2.70955	-0.33065	-0.815117
H	-2.99161	0.53464	-3.12272
H	-1.36698	-0.117291	-3.57352
H	-1.52315	1.5721	-2.93496
N	-0.497662	-0.0105941	-1.00571
C	-0.182543	-0.438475	0.334502
C	1.08598	0.269849	0.771182
O	1.74878	0.925765	-0.0301808
H	0.272006	0.323206	-1.54242
H	-0.973612	-0.125767	1.00462
C	0.00444736	-1.97034	0.394938
H	0.822951	-2.2905	-0.284464
H	0.233852	-2.31381	1.42446
H	-0.933149	-2.46787	0.0636818
N	1.45027	0.159688	2.06392
C	2.6392	0.803711	2.57173
H	0.898851	-0.372039	2.69818
H	2.7668	0.594601	3.65673
H	2.57805	1.90739	2.43235
H	3.54423	0.437584	2.03508
C	7.39154	3.3844	-0.645763
C	6.51252	2.21441	-0.423038
O	5.30989	2.35086	-0.245663
H	6.7838	4.31418	-0.601065
H	7.87257	3.31711	-1.64418
H	8.17525	3.42924	0.13964
N	7.10501	1.01802	-0.425261
C	6.38847	-0.208681	-0.179622
C	7.35324	-1.20495	0.435384
O	8.55735	-0.962888	0.492144
H	8.09111	0.926094	-0.530196
H	5.60648	-0.0262615	0.546903
C	5.79134	-0.770374	-1.48851
H	6.59426	-0.967598	-2.23044
H	5.22537	-1.70764	-1.31038
H	5.09475	-0.0216811	-1.92504
N	6.84133	-2.35307	0.920965
C	7.68196	-3.3579	1.5291
H	5.86387	-2.52917	0.869636
H	7.07506	-4.22707	1.86592
H	8.21667	-2.94031	2.41284
H	8.44537	-3.72282	0.804408
