44
  This energy is 0.1176 and Call times are: 136264
C	-2.94873	-1.84856	0.0226691
C	-2.06114	-0.80397	0.581382
O	-2.46019	-0.0250494	1.43605
H	-3.95459	-1.76343	0.48836
H	-2.53672	-2.85664	0.238958
H	-3.04898	-1.71827	-1.07554
N	-0.816468	-0.763265	0.100227
C	0.149161	0.223711	0.514955
C	1.11347	0.453704	-0.633419
O	1.09337	-0.269941	-1.62722
H	-0.518692	-1.37772	-0.624781
H	-0.357503	1.16198	0.70355
C	0.909625	-0.243984	1.77519
H	1.43821	-1.20115	1.57904
H	1.64646	0.513489	2.11259
H	0.183592	-0.413741	2.60006
N	1.98051	1.47972	-0.525895
C	2.93162	1.77832	-1.57108
H	1.97885	2.05667	0.28416
H	3.55517	2.65737	-1.29597
H	2.4063	2.00657	-2.5267
H	3.60732	0.910273	-1.74737
C	5.77147	-2.64439	1.01665
C	5.22183	-1.28139	1.1935
O	5.38463	-0.663646	2.23672
H	6.29142	-2.95457	1.94902
H	6.49894	-2.65783	0.177992
H	4.9517	-3.36325	0.806192
N	4.54495	-0.775724	0.159807
C	3.91522	0.520634	0.197783
C	2.72162	0.494251	-0.73827
O	2.53237	-0.459488	-1.49078
H	4.38585	-1.30672	-0.667587
H	3.53832	0.70558	1.19596
C	4.90697	1.62821	-0.220478
H	5.28588	1.44463	-1.24847
H	4.43792	2.63271	-0.181954
H	5.77592	1.62384	0.473243
N	1.87881	1.54529	-0.706595
C	0.713198	1.60542	-1.55742
H	2.04641	2.30577	-0.0879995
H	0.147679	2.54736	-1.38372
H	0.0337622	0.746163	-1.35412
H	1.00783	1.56603	-2.6311
