44
  This energy is -3.9767 and Call times are: 138140
C	0.0475219	2.85709	1.98683
C	-0.575095	1.59063	1.54007
O	-1.51213	1.09585	2.15127
H	-0.458788	3.20897	2.91187
H	-0.0592132	3.6341	1.20095
H	1.12461	2.69786	2.20506
N	-0.0568431	1.02825	0.44576
C	-0.528096	-0.226549	-0.0852307
C	0.626622	-0.900121	-0.802504
O	1.68236	-0.300914	-0.997638
H	0.732298	1.4216	-0.0172716
H	-0.821003	-0.873064	0.732605
C	-1.71193	-0.00655006	-1.05238
H	-1.40897	0.648093	-1.89719
H	-2.09276	-0.966515	-1.4573
H	-2.54209	0.494592	-0.508288
N	0.453969	-2.17405	-1.20665
C	1.49915	-2.89783	-1.89216
H	-0.405994	-2.64354	-1.03604
H	1.165	-3.92906	-2.14141
H	2.41042	-2.96905	-1.25515
H	1.77913	-2.38136	-2.83874
C	2.86896	-2.15693	1.9317
C	3.43014	-0.818859	1.63879
O	3.03078	0.177365	2.2257
H	2.07651	-2.0615	2.70551
H	3.66478	-2.83048	2.31346
H	2.42367	-2.59453	1.01339
N	4.38391	-0.76653	0.706069
C	4.99497	0.46868	0.282492
C	5.44319	0.305157	-1.15762
O	5.41144	-0.794808	-1.70605
H	4.66958	-1.58026	0.207986
H	4.25456	1.25864	0.302157
C	6.19504	0.828604	1.18555
H	6.95968	0.0232618	1.15749
H	6.6656	1.78493	0.878104
H	5.84515	0.935494	2.23555
N	5.86617	1.40604	-1.80967
C	6.30652	1.34809	-3.18404
H	5.88077	2.28801	-1.35035
H	6.61453	2.3555	-3.54112
H	5.48839	0.97759	-3.84334
H	7.17454	0.657822	-3.2899
