44
  This energy is -0.8762 and Call times are: 131706
C	-1.29006	3.22314	0.244567
C	-1.20775	1.81486	0.693033
O	-1.72249	1.45357	1.74228
H	-1.84645	3.81769	1.00142
H	-1.82594	3.28504	-0.72587
H	-0.270754	3.64896	0.131549
N	-0.544486	0.975503	-0.105676
C	-0.34338	-0.41508	0.217423
C	0.946316	-0.871312	-0.438391
O	1.53564	-0.148224	-1.23937
H	-0.0959046	1.29296	-0.936256
H	-0.215051	-0.518202	1.28772
C	-1.53174	-1.27231	-0.270619
H	-1.65726	-1.17512	-1.37009
H	-1.39524	-2.3432	-0.01548
H	-2.46578	-0.915699	0.215958
N	1.42139	-2.08741	-0.104569
C	2.64456	-2.6034	-0.673587
H	0.932613	-2.65628	0.54854
H	2.86708	-3.61734	-0.274046
H	3.50272	-1.9353	-0.431723
H	2.56334	-2.67332	-1.78248
C	5.9265	-1.05928	3.21131
C	6.70518	-0.215699	2.27688
O	7.38766	0.714784	2.68288
H	6.06956	-0.686549	4.24883
H	6.27416	-2.11232	3.1566
H	4.84615	-1.01331	2.95872
N	6.61624	-0.526966	0.981658
C	7.28183	0.228231	-0.0504413
C	6.46908	0.104893	-1.32551
O	5.52787	-0.682803	-1.3987
H	6.02432	-1.26164	0.662688
H	7.29364	1.27555	0.224515
C	8.71978	-0.289591	-0.272668
H	8.70764	-1.36123	-0.565034
H	9.24756	0.292859	-1.05543
H	9.2937	-0.197214	0.675184
N	6.81138	0.892728	-2.36386
C	6.09193	0.84862	-3.61551
H	7.57343	1.52677	-2.28418
H	6.52427	1.57021	-4.34326
H	5.01916	1.10675	-3.46123
H	6.14097	-0.171174	-4.06133
