44
  This energy is 0.1132 and Call times are: 136675
C	2.45402	-0.131969	-2.46436
C	1.48509	0.612234	-1.6286
O	1.49143	1.83485	-1.58882
H	3.12751	0.589276	-2.97631
H	1.91804	-0.729752	-3.23126
H	3.06625	-0.807733	-1.83063
N	0.617542	-0.1227	-0.928884
C	-0.356725	0.456909	-0.0381451
C	-0.651239	-0.548254	1.05933
O	-0.219367	-1.69753	0.993205
H	0.65133	-1.11799	-0.939885
H	0.0678777	1.33433	0.433522
C	-1.65025	0.823145	-0.798342
H	-2.09196	-0.0785458	-1.27361
H	-2.40318	1.28312	-0.125991
H	-1.40964	1.55347	-1.60151
N	-1.39195	-0.132618	2.10558
C	-1.71831	-1.01735	3.19961
H	-1.729	0.80229	2.14323
H	-2.33363	-0.490124	3.96161
H	-0.791643	-1.38938	3.69374
H	-2.29251	-1.89928	2.83404
C	2.02289	-2.36356	-2.11889
C	2.31484	-0.963665	-1.73651
O	2.09695	-0.0385331	-2.50662
H	1.6235	-2.3853	-3.15613
H	1.26539	-2.79761	-1.43293
H	2.9504	-2.97276	-2.07812
N	2.82562	-0.775664	-0.517433
C	3.20092	0.524438	-0.0199993
C	4.32405	0.340881	0.983225
O	4.64738	-0.781108	1.36833
H	3.03557	-1.54238	0.0825013
H	3.59126	1.12003	-0.835802
C	1.99649	1.23177	0.638981
H	1.60226	0.626147	1.48269
H	2.26926	2.23959	1.01371
H	1.18397	1.34831	-0.111063
N	4.95414	1.44686	1.42573
C	6.03828	1.36964	2.37697
H	4.68099	2.34574	1.09941
H	6.42496	2.38486	2.61581
H	6.87771	0.762305	1.96736
H	5.69697	0.892454	3.32404
