44
  This energy is 0.1003 and Call times are: 133147
C	3.33594	-0.582411	0.803129
C	2.00794	0.0023014	1.09583
O	1.75288	0.475383	2.19472
H	3.97315	-0.519949	1.71194
H	3.82773	-0.0223332	-0.0197869
H	3.22885	-1.64863	0.511915
N	1.11738	-0.0201983	0.101462
C	-0.22962	0.472345	0.248271
C	-1.12146	-0.297241	-0.70772
O	-0.638876	-1.05304	-1.54891
H	1.32634	-0.445622	-0.774448
H	-0.578322	0.26509	1.2523
C	-0.298573	1.98667	-0.0471783
H	0.0491027	2.19868	-1.08072
H	-1.32819	2.38068	0.0759786
H	0.367583	2.52904	0.658815
N	-2.45349	-0.127666	-0.593855
C	-3.38042	-0.822575	-1.45646
H	-2.82526	0.485042	0.0956712
H	-4.42964	-0.550953	-1.2063
H	-3.26814	-1.92554	-1.34625
H	-3.19539	-0.56165	-2.52362
C	6.34458	-2.5007	-2.04531
C	6.3838	-1.13757	-1.46956
O	7.36765	-0.422711	-1.60162
H	7.31093	-2.71328	-2.55211
H	5.52394	-2.5785	-2.78912
H	6.18743	-3.25104	-1.24197
N	5.29557	-0.742689	-0.804578
C	5.20132	0.539718	-0.152579
C	4.25065	0.404444	1.02194
O	3.58703	-0.618391	1.18046
H	4.51855	-1.35108	-0.670551
H	6.17103	0.809553	0.246753
C	4.69943	1.62183	-1.1336
H	3.69995	1.35062	-1.53549
H	4.6358	2.61672	-0.647111
H	5.40594	1.69798	-1.98881
N	4.16919	1.43811	1.8827
C	3.29579	1.39739	3.03235
H	4.71711	2.25571	1.73996
H	3.37084	2.34076	3.61686
H	3.56613	0.548302	3.70112
H	2.23589	1.26392	2.71623
