44
  This energy is -2.8023 and Call times are: 133599
C	-2.71854	1.72509	1.32147
C	-1.56262	0.810956	1.46057
O	-1.1522	0.472542	2.56213
H	-3.07833	2.01857	2.33157
H	-3.54419	1.21824	0.779126
H	-2.41884	2.63938	0.767082
N	-1.00191	0.386343	0.3258
C	0.156172	-0.472001	0.300498
C	0.924373	-0.192304	-0.977466
O	0.447337	0.524825	-1.85489
H	-1.32161	0.703042	-0.56266
H	0.805955	-0.219751	1.12922
C	-0.257246	-1.95846	0.36945
H	-0.915335	-2.22041	-0.486319
H	0.626346	-2.62911	0.364684
H	-0.824731	-2.13838	1.30857
N	2.14434	-0.749589	-1.10837
C	2.95081	-0.535082	-2.28726
H	2.51512	-1.32358	-0.38578
H	3.91912	-1.07624	-2.20513
H	3.16596	0.54949	-2.42396
H	2.42139	-0.899394	-3.19728
C	4.1769	0.182517	2.22126
C	5.31145	-0.540728	1.60412
O	5.71726	-1.59676	2.06945
H	3.82729	-0.377461	3.11572
H	3.33788	0.265984	1.49889
H	4.49628	1.19854	2.53555
N	5.85847	0.0236379	0.524925
C	6.99598	-0.539353	-0.158945
C	7.76653	0.594848	-0.808099
O	7.30374	1.7335	-0.839818
H	5.54352	0.904105	0.182228
H	7.6541	-1.00365	0.564881
C	6.54795	-1.56716	-1.22108
H	5.88121	-1.08883	-1.96988
H	7.41552	-2.01802	-1.74508
H	5.97935	-2.38367	-0.724762
N	8.97265	0.309117	-1.33693
C	9.78023	1.32537	-1.97034
H	9.33209	-0.617357	-1.29793
H	10.7358	0.893639	-2.34143
H	10.0204	2.1413	-1.25072
H	9.23955	1.77514	-2.83435
