44
  This energy is 0.1209 and Call times are: 136502
C	1.70166	2.97237	0.618118
C	0.92471	2.07522	-0.26654
O	0.480184	2.47	-1.33563
H	1.76678	3.98019	0.153435
H	2.72864	2.57486	0.759653
H	1.20146	3.06348	1.60533
N	0.739533	0.82689	0.169069
C	-0.0315118	-0.148529	-0.560732
C	-0.627194	-1.1235	0.437345
O	-0.288318	-1.10082	1.61902
H	1.07255	0.532134	1.06018
H	-0.855538	0.347281	-1.05851
C	0.850663	-0.894335	-1.58581
H	1.69016	-1.41187	-1.0745
H	0.265396	-1.63855	-2.16385
H	1.28233	-0.160592	-2.30109
N	-1.54161	-2.00293	-0.0170484
C	-2.16657	-2.96487	0.8606
H	-1.80598	-2.00319	-0.975787
H	-2.88901	-3.59781	0.299627
H	-2.71604	-2.44903	1.68113
H	-1.40185	-3.63052	1.32241
C	0.638761	-0.834998	-1.62684
C	1.78729	-1.1726	-0.756171
O	1.81021	-2.21338	-0.113786
H	-0.123445	-1.64136	-1.55847
H	0.972134	-0.744108	-2.68199
H	0.179653	0.122042	-1.3007
N	2.78164	-0.282727	-0.713851
C	3.94546	-0.451309	0.120199
C	4.47056	0.924935	0.483239
O	4.01656	1.93387	-0.053082
H	2.73008	0.578911	-1.21062
H	3.65636	-0.939836	1.04236
C	5.03274	-1.2707	-0.60896
H	5.33725	-0.764609	-1.54981
H	5.92863	-1.41922	0.0280971
H	4.62399	-2.27073	-0.872009
N	5.44072	0.99807	1.41569
C	5.99793	2.2649	1.829
H	5.79242	0.170916	1.84136
H	6.78193	2.11565	2.6038
H	5.20552	2.92249	2.25436
H	6.4571	2.79374	0.962605
