44
  This energy is -6.2752 and Call times are: 129996
C	0.918091	-1.44446	-3.0304
C	0.846285	-0.291249	-2.10515
O	1.47179	0.736732	-2.32518
H	1.60751	-1.20106	-3.86786
H	-0.0877225	-1.66525	-3.44553
H	1.30232	-2.33954	-2.49721
N	0.0696228	-0.440812	-1.0296
C	-0.0670198	0.576781	-0.0174776
C	-0.378752	-0.106186	1.30083
O	-0.635412	-1.3079	1.34232
H	-0.401024	-1.29846	-0.843037
H	0.878256	1.09149	0.101496
C	-1.18501	1.57608	-0.387262
H	-2.15704	1.05007	-0.499093
H	-1.29072	2.37255	0.377582
H	-0.93989	2.05797	-1.35888
N	-0.355068	0.64856	2.41699
C	-0.633357	0.084251	3.71711
H	-0.141249	1.61837	2.36378
H	-0.564213	0.864051	4.50727
H	0.094105	-0.724427	3.95817
H	-1.65755	-0.353253	3.74464
C	4.56674	1.944	-2.88098
C	5.26518	0.979116	-2.00215
O	6.26168	0.381296	-2.38428
H	5.08251	1.98458	-3.86495
H	4.58134	2.95648	-2.42554
H	3.51489	1.62532	-3.03946
N	4.74659	0.802142	-0.784725
C	5.28987	-0.134854	0.166823
C	4.16126	-0.604617	1.06524
O	3.05573	-0.0684424	1.02027
H	3.9113	1.26543	-0.502759
H	5.66477	-1.00298	-0.360838
C	6.41251	0.516919	1.00355
H	6.02586	1.40138	1.55335
H	6.84841	-0.198635	1.73052
H	7.22378	0.860202	0.325068
N	4.41377	-1.63038	1.90194
C	3.39944	-2.14875	2.78997
H	5.31336	-2.05399	1.92101
H	3.8007	-2.9902	3.39676
H	2.52334	-2.52083	2.21093
H	3.04201	-1.35451	3.48464
