44
  This energy is 0.1441 and Call times are: 129596
C	3.11815	1.54561	0.0298184
C	2.25993	0.34467	-0.0812418
O	2.71689	-0.727814	-0.451887
H	4.15314	1.28766	-0.283484
H	3.13963	1.90484	1.08017
H	2.73393	2.35279	-0.628912
N	0.974025	0.502329	0.241206
C	0.00785751	-0.563174	0.142293
C	-1.35256	0.0548058	-0.120207
O	-1.51553	1.27151	-0.0510137
H	0.608323	1.39124	0.501902
H	0.249049	-1.18612	-0.709997
C	-0.0202853	-1.40435	1.43723
H	-0.278024	-0.767761	2.31037
H	-0.750539	-2.23651	1.36829
H	0.987298	-1.84022	1.6137
N	-2.36553	-0.775175	-0.438112
C	-3.6938	-0.277228	-0.709994
H	-2.2132	-1.75642	-0.493211
H	-4.38554	-1.11394	-0.952113
H	-3.68018	0.42716	-1.57309
H	-4.09791	0.267488	0.17382
C	4.96658	-0.17607	-3.02243
C	3.87473	0.349955	-2.17254
O	3.18782	1.29428	-2.53699
H	5.02848	0.425748	-3.95508
H	4.76668	-1.23481	-3.2905
H	5.93622	-0.107645	-2.48559
N	3.68986	-0.259537	-0.999202
C	2.69528	0.166206	-0.0462463
C	3.18395	-0.19941	1.34267
O	4.17994	-0.904114	1.49464
H	4.28355	-1.00054	-0.698707
H	2.60422	1.24463	-0.0826551
C	1.33322	-0.502346	-0.334459
H	1.42379	-1.6085	-0.286836
H	0.555495	-0.171904	0.3842
H	0.998908	-0.227493	-1.35868
N	2.49369	0.281957	2.39521
C	2.88739	-0.00875313	3.75413
H	1.69276	0.853903	2.25219
H	2.19518	0.477146	4.47662
H	3.91867	0.363302	3.95243
H	2.87481	-1.10703	3.9406
