44
  This energy is 0.1293 and Call times are: 137702
C	-3.36704	0.61471	-0.630766
C	-2.26968	0.14564	0.244974
O	-2.46243	-0.0913546	1.42949
H	-4.29879	0.71158	-0.0321549
H	-3.54059	-0.113855	-1.45041
H	-3.11386	1.60517	-1.06433
N	-1.07289	0.00140301	-0.328846
C	0.100324	-0.405622	0.403583
C	1.31589	0.189621	-0.281724
O	1.21383	0.746764	-1.373
H	-0.922432	0.237463	-1.28462
H	0.0587312	0.00826863	1.40338
C	0.209618	-1.94518	0.458899
H	0.262944	-2.36953	-0.566342
H	1.10158	-2.27129	1.03211
H	-0.69395	-2.35958	0.957078
N	2.50127	0.0919301	0.351802
C	3.71142	0.633725	-0.221063
H	2.56315	-0.358899	1.23611
H	4.5795	0.453327	0.450586
H	3.61336	1.73213	-0.379698
H	3.92597	0.160395	-1.20649
C	4.7085	-1.77952	-2.91761
C	4.73062	-0.534311	-2.11754
O	5.35993	0.44632	-2.49003
H	5.33867	-1.64525	-3.82354
H	3.67003	-2.013	-3.23356
H	5.11207	-2.6248	-2.32119
N	4.03323	-0.547861	-0.979185
C	3.99427	0.573506	-0.0738827
C	3.76703	0.0414818	1.32857
O	3.48843	-1.14129	1.516
H	3.55948	-1.36717	-0.669116
H	4.95662	1.06998	-0.0785503
C	2.87356	1.56093	-0.46662
H	1.88482	1.05475	-0.45175
H	2.84227	2.43573	0.214755
H	3.0559	1.93125	-1.49907
N	3.89003	0.907744	2.3535
C	3.69733	0.490801	3.72288
H	4.12007	1.86001	2.18219
H	3.8419	1.34656	4.41858
H	4.42319	-0.309168	3.99574
H	2.66887	0.0886969	3.8703
