44
  This energy is -6.3966 and Call times are: 130659
C	0.617739	3.35894	0.669796
C	0.663776	1.9264	1.03974
O	1.30816	1.5426	2.00612
H	1.24677	3.94144	1.37753
H	-0.425657	3.7347	0.723396
H	1.00918	3.50111	-0.359597
N	-0.0295848	1.09041	0.263368
C	-0.0463234	-0.336099	0.471557
C	-0.277369	-1.0071	-0.869314
O	-0.575194	-0.34523	-1.86176
H	-0.515946	1.41267	-0.54377
H	0.924238	-0.656282	0.829503
C	-1.15165	-0.734402	1.47397
H	-2.14872	-0.415492	1.10223
H	-1.16571	-1.82901	1.65329
H	-0.966876	-0.225714	2.44528
N	-0.136046	-2.34584	-0.931181
C	-0.330743	-3.07024	-2.16549
H	0.10939	-2.86366	-0.118349
H	-0.169232	-4.15995	-2.01161
H	0.382522	-2.71687	-2.94501
H	-1.36529	-2.91985	-2.55051
C	5.56633	1.01711	-3.22674
C	5.8756	0.881915	-1.78548
O	6.99902	1.10441	-1.35556
H	6.48736	1.3144	-3.77371
H	4.79004	1.79594	-3.38015
H	5.20389	0.0491976	-3.63277
N	4.86778	0.505224	-0.995044
C	5.02512	0.289658	0.421759
C	4.00639	-0.746167	0.85859
O	3.1251	-1.12596	0.0899573
H	3.96923	0.288112	-1.36561
H	6.00762	-0.123414	0.613304
C	4.82894	1.60607	1.20523
H	3.81729	2.02476	1.01733
H	4.96127	1.45596	2.29632
H	5.57967	2.35178	0.86369
N	4.10984	-1.23608	2.10971
C	3.18864	-2.22907	2.61122
H	4.83217	-0.919459	2.71558
H	3.43932	-2.50427	3.65939
H	3.22778	-3.15159	1.98775
H	2.14407	-1.84232	2.59029
