44
  This energy is -1.6914 and Call times are: 125486
C	-1.21101	1.8939	2.65693
C	-0.198161	1.00409	2.04578
O	0.885278	0.816208	2.58176
H	-0.80371	2.32167	3.59874
H	-2.1324	1.32056	2.89161
H	-1.4594	2.72443	1.96294
N	-0.534177	0.429109	0.888684
C	0.362233	-0.427579	0.153093
C	0.0129655	-0.324462	-1.31964
O	-0.999302	0.269039	-1.68677
H	-1.40387	0.62397	0.444232
H	1.37679	-0.0675166	0.269977
C	0.247685	-1.8902	0.635634
H	-0.790545	-2.2635	0.506143
H	0.943051	-2.55748	0.086336
H	0.499857	-1.94059	1.7174
N	0.853894	-0.897212	-2.20328
C	0.606228	-0.845433	-3.62531
H	1.67008	-1.36949	-1.88728
H	1.41049	-1.3729	-4.18402
H	0.568106	0.210313	-3.97917
H	-0.367088	-1.32778	-3.87258
C	7.97178	3.10362	-0.0989975
C	7.9992	1.63389	0.0750753
O	9.05703	1.02089	0.115439
H	9.01287	3.48169	-0.194108
H	7.4938	3.58429	0.78035
H	7.40751	3.3697	-1.01762
N	6.81498	1.02669	0.181458
C	6.67926	-0.402676	0.311993
C	5.34515	-0.807685	-0.286085
O	4.52182	0.041419	-0.622029
H	5.96148	1.53429	0.105676
H	7.45368	-0.889448	-0.267615
C	6.76111	-0.831617	1.7934
H	5.9603	-0.340673	2.38646
H	6.67181	-1.93156	1.90597
H	7.74211	-0.518124	2.21257
N	5.10341	-2.1243	-0.441321
C	3.86383	-2.6037	-1.00681
H	5.78356	-2.79616	-0.167317
H	3.85583	-3.71508	-1.05157
H	3.72534	-2.21035	-2.03995
H	2.99658	-2.27112	-0.391652
