44
  This energy is -0.9174 and Call times are: 130876
C	0.447655	-0.206145	3.44526
C	0.283575	-0.829664	2.1128
O	0.479645	-2.02541	1.945
H	0.772404	-0.9793	4.17509
H	-0.515901	0.2276	3.78609
H	1.2176	0.592836	3.40169
N	-0.0841204	-0.0177126	1.11886
C	-0.242085	-0.469896	-0.240969
C	0.0436652	0.699343	-1.16443
O	0.188059	1.83514	-0.716291
H	-0.200185	0.960933	1.26256
H	0.495299	-1.23458	-0.451084
C	-1.66818	-1.01254	-0.479771
H	-2.42455	-0.225264	-0.274512
H	-1.79819	-1.37664	-1.51951
H	-1.85821	-1.86207	0.211998
N	0.14071	0.444594	-2.48417
C	0.415724	1.49352	-3.43827
H	0.0248722	-0.481624	-2.82735
H	0.4572	1.08417	-4.47168
H	1.39219	1.98135	-3.2151
H	-0.377044	2.27541	-3.4022
C	8.39502	-0.991402	-2.87346
C	8.33608	-0.287354	-1.5727
O	9.35023	0.136554	-1.03585
H	9.45333	-1.05858	-3.20711
H	7.8122	-0.434371	-3.63687
H	7.98441	-2.01812	-2.77182
N	7.12527	-0.147485	-1.02792
C	6.91323	0.476869	0.254174
C	5.66694	-0.126729	0.873854
O	4.93795	-0.872749	0.222898
H	6.31395	-0.533931	-1.45718
H	7.74433	0.242339	0.907536
C	6.75712	2.00603	0.104063
H	5.89812	2.24734	-0.557701
H	6.60711	2.49992	1.08594
H	7.67724	2.42521	-0.35856
N	5.39708	0.177829	2.15855
C	4.23631	-0.354092	2.83371
H	6.00102	0.780015	2.67012
H	4.18947	0.0120889	3.88298
H	4.2686	-1.4676	2.85224
H	3.3019	-0.0444602	2.31204
