44
  This energy is 0.9223 and Call times are: 134356
C	-0.0131608	2.07372	-2.79503
C	-0.697036	1.40445	-1.66564
O	-1.84008	1.70493	-1.35008
H	-0.689623	2.8402	-3.23182
H	0.24418	1.33214	-3.58026
H	0.913302	2.57246	-2.44005
N	0.00141346	0.467493	-1.02014
C	-0.513902	-0.240098	0.125427
C	0.659082	-0.645234	0.998083
O	1.81517	-0.508046	0.602674
H	0.945374	0.262778	-1.26283
H	-1.13428	0.428638	0.708999
C	-1.31929	-1.48364	-0.310666
H	-0.680413	-2.17504	-0.900445
H	-1.73305	-2.02934	0.562001
H	-2.16763	-1.16419	-0.954582
N	0.386306	-1.14955	2.21763
C	1.43819	-1.55723	3.11958
H	-0.555419	-1.2491	2.52146
H	1.01207	-1.94449	4.07124
H	2.10569	-0.697804	3.35856
H	2.05981	-2.36009	2.66116
C	6.63547	-0.302928	-2.27711
C	7.31083	-0.669542	-1.01195
O	6.74235	-1.34185	-0.162687
H	5.60247	-0.713716	-2.27443
H	7.18809	-0.725659	-3.14236
H	6.58263	0.801789	-2.37651
N	8.5602	-0.225575	-0.855879
C	9.33033	-0.464701	0.339226
C	10.3139	0.678455	0.504737
O	10.469	1.50999	-0.387561
H	8.99497	0.355043	-1.53831
H	8.67093	-0.449793	1.19806
C	10.0774	-1.81367	0.253411
H	10.7619	-1.82552	-0.621479
H	10.6631	-2.01579	1.17354
H	9.33879	-2.63473	0.124544
N	10.9993	0.750881	1.66274
C	11.9527	1.80684	1.91203
H	10.8571	0.071055	2.37457
H	12.4113	1.69299	2.919
H	11.4568	2.80332	1.8634
H	12.7668	1.78891	1.15173
