44
  This energy is -0.918 and Call times are: 125421
C	-0.557429	-3.43341	0.116814
C	-0.395117	-2.11643	0.772834
O	-0.661182	-1.96194	1.95679
H	-0.950779	-4.16554	0.855154
H	0.421434	-3.79556	-0.261894
H	-1.27404	-3.3545	-0.72778
N	0.0510207	-1.12099	0.00313267
C	0.21879	0.226242	0.488282
C	0.0335169	1.17617	-0.679994
O	-0.0518055	0.750564	-1.83034
H	0.224298	-1.25249	-0.968747
H	-0.558976	0.445823	1.20904
C	1.61413	0.41428	1.12304
H	2.4124	0.199351	0.381007
H	1.75045	1.44383	1.51288
H	1.73061	-0.296186	1.9704
N	-0.0418328	2.49398	-0.408493
C	-0.223094	3.4723	-1.4555
H	0.0252056	2.81886	0.529075
H	-0.260868	4.49986	-1.03132
H	-1.17288	3.28577	-2.00721
H	0.615951	3.42531	-2.18689
C	11.4121	1.13493	0.908786
C	10.4964	0.0774116	0.424695
O	10.9271	-0.973538	-0.0296686
H	12.4637	0.804459	0.764608
H	11.24	1.32507	1.98906
H	11.2488	2.07327	0.3379
N	9.18996	0.338422	0.51106
C	8.17841	-0.575033	0.0410482
C	6.96421	0.235455	-0.371764
O	6.89647	1.43817	-0.125621
H	8.85562	1.21497	0.845321
H	8.5409	-1.08571	-0.842366
C	7.8017	-1.59363	1.13914
H	7.41984	-1.07072	2.0418
H	7.03357	-2.31124	0.784841
H	8.7067	-2.16976	1.43134
N	5.9743	-0.408022	-1.02139
C	4.78298	0.282255	-1.45779
H	6.04911	-1.38062	-1.21512
H	4.08888	-0.418158	-1.97246
H	5.04153	1.10278	-2.16573
H	4.24842	0.731094	-0.589497
