44
  This energy is -2.9244 and Call times are: 134589
C	1.06175	0.123045	3.31213
C	0.204163	0.591474	2.20026
O	-0.745294	1.33558	2.40336
H	0.679837	0.537616	4.27034
H	2.10606	0.468822	3.16183
H	1.04417	-0.985857	3.36798
N	0.524711	0.156144	0.979559
C	-0.241158	0.491187	-0.195068
C	-0.090521	-0.638759	-1.19611
O	0.720827	-1.54314	-1.00762
H	1.27569	-0.481917	0.835402
H	-1.28996	0.551764	0.0675842
C	0.24182	1.82451	-0.806798
H	1.31503	1.75943	-1.08613
H	-0.349294	2.10045	-1.704
H	0.129908	2.63541	-0.054285
N	-0.880907	-0.61687	-2.28737
C	-0.811935	-1.65274	-3.29155
H	-1.53421	0.12109	-2.42034
H	-1.54006	-1.45684	-4.10928
H	-1.04405	-2.64736	-2.84644
H	0.208766	-1.70277	-3.73519
C	4.04975	-3.03014	-0.824779
C	4.38588	-1.61922	-1.12055
O	4.19808	-1.14331	-2.2317
H	3.65056	-3.51289	-1.74317
H	3.27836	-3.0808	-0.0278262
H	4.95736	-3.57888	-0.495855
N	4.90158	-0.908629	-0.114823
C	5.31777	0.463909	-0.261399
C	6.43381	0.728366	0.731614
O	6.72099	-0.10162	1.59206
H	5.08661	-1.3214	0.772445
H	5.72741	0.608999	-1.25325
C	4.13603	1.42781	-0.0172004
H	3.72216	1.28668	1.00399
H	4.44051	2.48731	-0.140773
H	3.32813	1.21094	-0.749735
N	7.09851	1.89611	0.628838
C	8.179	2.23238	1.52641
H	6.85434	2.55331	-0.0765331
H	8.59766	3.23309	1.28036
H	8.99894	1.48168	1.45267
H	7.82204	2.25121	2.58157
