44
  This energy is -4.0619 and Call times are: 134216
C	-1.35562	3.20406	-0.0948836
C	-0.79865	2.04589	0.639671
O	-0.502378	2.1302	1.82353
H	-1.41902	4.0774	0.590047
H	-2.3735	2.96628	-0.469208
H	-0.698895	3.46588	-0.95119
N	-0.639571	0.920097	-0.0600909
C	-0.0695127	-0.277131	0.505807
C	0.603743	-1.05361	-0.61015
O	0.460453	-0.72005	-1.78485
H	-0.84705	0.878827	-1.03329
H	0.699024	-0.00457671	1.21834
C	-1.15692	-1.13821	1.18502
H	-1.94014	-1.42691	0.452038
H	-0.728345	-2.05625	1.63673
H	-1.64151	-0.547362	1.99274
N	1.36602	-2.11002	-0.265251
C	2.04984	-2.9051	-1.25844
H	1.47322	-2.36197	0.690838
H	2.62444	-3.7268	-0.776925
H	2.76001	-2.27694	-1.84355
H	1.32133	-3.35668	-1.97012
C	7.1138	-2.72506	1.25532
C	6.96956	-1.58232	0.325526
O	7.91019	-1.19769	-0.355418
H	8.159	-3.10161	1.2151
H	6.42481	-3.5453	0.963357
H	6.88712	-2.40426	2.29396
N	5.76726	-1.00386	0.278189
C	5.48531	0.144921	-0.546042
C	4.37682	0.941472	0.116022
O	3.76906	0.489973	1.08477
H	5.02283	-1.30228	0.868635
H	6.36099	0.780821	-0.584126
C	5.06681	-0.286218	-1.96879
H	4.16228	-0.929999	-1.93106
H	4.8604	0.589815	-2.61724
H	5.88957	-0.874244	-2.431
N	4.09255	2.15756	-0.390272
C	3.05752	2.98966	0.177611
H	4.59805	2.50749	-1.17199
H	2.97627	3.9501	-0.377538
H	3.27974	3.21949	1.24489
H	2.07071	2.47447	0.133645
