44
  This energy is -5.0174 and Call times are: 132042
C	-0.172248	-1.82591	2.95788
C	0.526413	-1.41349	1.71977
O	1.70363	-1.69007	1.53515
H	0.539657	-2.36684	3.61854
H	-1.01894	-2.50102	2.71277
H	-0.555238	-0.933565	3.49652
N	-0.19646	-0.728677	0.830466
C	0.356041	-0.222774	-0.401348
C	-0.422279	1.0188	-0.794108
O	-1.44704	1.33599	-0.193306
H	-1.14226	-0.475768	1.01311
H	1.38257	0.0792137	-0.234996
C	0.278669	-1.28632	-1.51854
H	-0.77526	-1.58876	-1.69687
H	0.713633	-0.913629	-2.46851
H	0.848272	-2.18875	-1.20624
N	0.0547786	1.75926	-1.814
C	-0.615732	2.96036	-2.25439
H	0.887735	1.48869	-2.28522
H	-0.0692122	3.42709	-3.10333
H	-0.676065	3.70279	-1.42587
H	-1.65341	2.73113	-2.58877
C	7.67203	1.7778	-2.5142
C	6.56528	1.60478	-1.54656
O	5.78122	2.51409	-1.31242
H	7.64579	2.81199	-2.92115
H	7.56289	1.05864	-3.35304
H	8.64868	1.61398	-2.01182
N	6.47803	0.412788	-0.951647
C	5.48094	0.108146	0.0441218
C	6.04844	-0.947536	0.974204
O	7.11047	-1.51015	0.714861
H	7.14818	-0.303943	-1.12211
H	5.28837	0.992271	0.638987
C	4.17828	-0.395096	-0.615469
H	4.37332	-1.30819	-1.21734
H	3.39791	-0.619911	0.140184
H	3.78521	0.390113	-1.29759
N	5.35234	-1.23596	2.09146
C	5.81732	-2.22275	3.03814
H	4.4971	-0.767191	2.28614
H	5.10766	-2.31595	3.88957
H	6.81548	-1.93857	3.44337
H	5.91369	-3.22002	2.55099
