44
  This energy is -2.2589 and Call times are: 133655
C	1.88921	-1.20946	2.66097
C	1.36514	-0.100152	1.83277
O	1.48156	1.06464	2.1879
H	2.34483	-0.793774	3.5859
H	2.66457	-1.77254	2.10015
H	1.06523	-1.89784	2.94432
N	0.763947	-0.444345	0.691507
C	0.166473	0.520111	-0.198105
C	-0.969783	-0.15975	-0.938556
O	-1.13842	-1.37475	-0.85454
H	0.640647	-1.39897	0.435859
H	-0.26411	1.32488	0.384627
C	1.20933	1.07126	-1.19506
H	1.64372	0.247326	-1.80043
H	0.764708	1.82516	-1.87658
H	2.03521	1.55721	-0.631034
N	-1.78579	0.615665	-1.67943
C	-2.89697	0.0577484	-2.41441
H	-1.63576	1.59741	-1.73179
H	-3.44747	0.855305	-2.96037
H	-3.60904	-0.450089	-1.72425
H	-2.54027	-0.693068	-3.15615
C	5.57321	-0.405087	2.83566
C	6.44352	-0.943195	1.76601
O	6.86751	-2.08973	1.81179
H	5.42367	-1.18435	3.61427
H	4.58479	-0.120265	2.41775
H	6.04668	0.483885	3.30324
N	6.73513	-0.111184	0.763459
C	7.60419	-0.476956	-0.327185
C	8.27024	0.784086	-0.844611
O	7.91135	1.89249	-0.451749
H	6.41594	0.832195	0.760827
H	8.38738	-1.12692	0.0426557
C	6.81102	-1.17232	-1.45528
H	6.01419	-0.501981	-1.84225
H	7.47144	-1.4713	-2.29491
H	6.32575	-2.08792	-1.05213
N	9.26873	0.642199	-1.73842
C	9.96469	1.78513	-2.28203
H	9.54772	-0.263106	-2.04118
H	10.7512	1.4621	-2.99915
H	10.451	2.37189	-1.46933
H	9.25671	2.45824	-2.81759
