44
  This energy is -2.7836 and Call times are: 127134
C	-2.01941	0.0955958	2.83294
C	-1.01713	-0.567556	1.96876
O	-0.406611	-1.55618	2.35124
H	-2.07296	-0.435964	3.80785
H	-3.01953	0.0653622	2.35172
H	-1.7288	1.15177	3.015
N	-0.821471	-0.0265439	0.764016
C	0.151237	-0.5341	-0.171284
C	0.617644	0.618352	-1.04069
O	0.0555207	1.71081	-0.993086
H	-1.29639	0.802418	0.482705
H	1.01414	-0.897556	0.372716
C	-0.453634	-1.65807	-1.04081
H	-1.33256	-1.2829	-1.60717
H	0.289675	-2.06669	-1.75568
H	-0.795328	-2.48711	-0.383322
N	1.66957	0.401689	-1.85465
C	2.1869	1.44084	-2.71414
H	2.11387	-0.487809	-1.8762
H	3.05222	1.06782	-3.30516
H	2.52431	2.31605	-2.11295
H	1.40244	1.79103	-3.42345
C	3.53827	0.67849	3.08476
C	3.8337	1.02912	1.6773
O	3.26355	1.95901	1.12355
H	2.75405	1.36203	3.47671
H	4.45219	0.786329	3.70595
H	3.16891	-0.366727	3.1493
N	4.74616	0.277147	1.05735
C	5.10786	0.469292	-0.324968
C	5.5565	-0.866702	-0.886587
O	5.72332	-1.83599	-0.148778
H	5.17177	-0.501983	1.50864
H	4.23273	0.776628	-0.883811
C	6.23285	1.51876	-0.460117
H	7.13455	1.1989	0.104389
H	6.51071	1.68579	-1.52097
H	5.88539	2.48596	-0.0356939
N	5.75517	-0.950826	-2.2168
C	6.17728	-2.18274	-2.84161
H	5.61106	-0.156747	-2.79796
H	6.28515	-2.04945	-3.94063
H	5.43315	-2.99135	-2.65802
H	7.15771	-2.51604	-2.43074
