44
  This energy is -3.4897 and Call times are: 127353
C	-1.1666	-2.09762	-2.52026
C	-0.0731904	-1.39666	-1.81016
O	1.09978	-1.65772	-2.03908
H	-0.731205	-2.84612	-3.21744
H	-1.77096	-1.37179	-3.10392
H	-1.82091	-2.62235	-1.79251
N	-0.440772	-0.476573	-0.915335
C	0.507812	0.257467	-0.115376
C	-0.165704	0.632991	1.19111
O	-1.37169	0.455475	1.35173
H	-1.40005	-0.304229	-0.710512
H	1.34468	-0.385839	0.126383
C	0.993419	1.522	-0.857259
H	0.136497	2.18731	-1.09619
H	1.73478	2.08851	-0.257279
H	1.47569	1.22386	-1.81375
N	0.605504	1.15682	2.16418
C	0.0532934	1.53901	3.44293
H	1.58013	1.28906	2.01693
H	0.846082	1.94829	4.10715
H	-0.40932	0.660982	3.94922
H	-0.733261	2.31746	3.31456
C	3.02048	-1.97981	1.73115
C	4.30576	-1.78869	1.02214
O	5.18061	-2.64302	1.0562
H	3.03447	-2.95772	2.2597
H	2.17927	-1.97495	1.00652
H	2.87064	-1.17054	2.4766
N	4.45037	-0.641629	0.354511
C	5.66054	-0.294114	-0.347821
C	5.78095	1.21812	-0.363014
O	4.85293	1.92766	0.020431
H	3.74538	0.0616532	0.369928
H	6.51311	-0.680126	0.196927
C	5.64139	-0.850279	-1.7885
H	4.77283	-0.446328	-2.35105
H	6.57388	-0.601169	-2.33524
H	5.5447	-1.95741	-1.75324
N	6.93931	1.74876	-0.801909
C	7.14715	3.17737	-0.847014
H	7.68025	1.15827	-1.10423
H	8.16148	3.4151	-1.23669
H	7.0498	3.62077	0.170434
H	6.39425	3.6634	-1.50889
