44
  This energy is -0.7639 and Call times are: 134899
C	0.802902	2.01855	2.71909
C	0.368341	0.728914	2.13675
O	0.31384	-0.28639	2.81689
H	1.05932	1.86989	3.79056
H	-0.0144298	2.76642	2.64559
H	1.69936	2.39724	2.18425
N	0.0463059	0.741302	0.84117
C	-0.353144	-0.444157	0.12445
C	0.0376688	-0.271006	-1.33117
O	0.445757	0.810821	-1.7493
H	0.134954	1.56672	0.291001
H	0.196548	-1.29511	0.506998
C	-1.87409	-0.679959	0.252389
H	-2.4386	0.18825	-0.149582
H	-2.19197	-1.59758	-0.283746
H	-2.13845	-0.795929	1.32617
N	-0.0711502	-1.34364	-2.13966
C	0.28286	-1.27501	-3.53828
H	-0.399453	-2.21162	-1.78204
H	0.124353	-2.25866	-4.03279
H	1.35326	-0.9905	-3.65902
H	-0.338057	-0.513951	-4.06401
C	5.95315	-3.0284	-1.71199
C	6.56069	-1.74305	-1.29977
O	7.74567	-1.51124	-1.49597
H	6.73368	-3.67289	-2.17162
H	5.14954	-2.85031	-2.45714
H	5.52903	-3.55174	-0.829205
N	5.74779	-0.865534	-0.706852
C	6.20296	0.40981	-0.212009
C	5.31563	0.809628	0.951765
O	4.29865	0.171417	1.2166
H	4.79501	-1.08488	-0.517227
H	7.21028	0.305344	0.171421
C	6.15477	1.48169	-1.32286
H	5.11964	1.59674	-1.70925
H	6.51597	2.46501	-0.95798
H	6.80483	1.1645	-2.16735
N	5.68771	1.87843	1.68336
C	4.90863	2.32958	2.81282
H	6.51609	2.37963	1.45609
H	5.37849	3.22103	3.28375
H	4.83062	1.52718	3.58182
H	3.87693	2.60391	2.49425
