44
  This energy is -3.2564 and Call times are: 132682
C	-3.01654	-0.549254	-1.64667
C	-1.60207	-0.887286	-1.37068
O	-1.11057	-1.93217	-1.77447
H	-3.48602	-1.37591	-2.22296
H	-3.0773	0.384824	-2.24378
H	-3.57093	-0.415372	-0.69387
N	-0.906147	0.00473444	-0.661903
C	0.467779	-0.203594	-0.277861
C	0.717048	0.550228	1.01488
O	-0.125152	1.32492	1.46461
H	-1.33142	0.831662	-0.305251
H	0.626113	-1.25521	-0.0737209
C	1.42966	0.284312	-1.38329
H	1.27489	1.36557	-1.5857
H	2.4904	0.11663	-1.10536
H	1.22398	-0.275139	-2.32194
N	1.88529	0.332506	1.65036
C	2.20773	1.00086	2.88952
H	2.5525	-0.301137	1.27301
H	3.21124	0.689615	3.25465
H	1.45711	0.755011	3.67527
H	2.21236	2.10618	2.75028
C	5.85076	-2.36225	2.39247
C	5.64776	-1.67875	1.09525
O	4.85706	-2.11189	0.268453
H	5.20868	-3.2688	2.43439
H	5.57345	-1.68646	3.22862
H	6.91253	-2.66855	2.50159
N	6.37227	-0.577249	0.885064
C	6.31576	0.171539	-0.345658
C	7.65734	0.850225	-0.548409
O	8.50583	0.846573	0.341397
H	7.04171	-0.260081	1.55073
H	6.17161	-0.51179	-1.17325
C	5.18055	1.21784	-0.303221
H	5.33362	1.92552	0.53928
H	5.11783	1.79155	-1.25056
H	4.20944	0.699561	-0.146142
N	7.8839	1.44526	-1.7361
C	9.13328	2.11131	-2.02174
H	7.18667	1.43415	-2.44521
H	9.12612	2.53685	-3.04941
H	9.9855	1.39792	-1.94376
H	9.31044	2.94102	-1.29969
