44
  This energy is -1.8007 and Call times are: 129927
C	-2.52602	1.84321	1.52791
C	-1.10054	1.59487	1.21569
O	-0.242746	2.4301	1.46665
H	-2.63322	2.85561	1.9745
H	-2.89575	1.0891	2.2541
H	-3.1352	1.79306	0.60083
N	-0.812947	0.420691	0.649134
C	0.522354	0.0531423	0.248588
C	0.41772	-0.909898	-0.918957
O	-0.669514	-1.37385	-1.25716
H	-1.5273	-0.232058	0.413565
H	1.04425	0.933526	-0.105225
C	1.29031	-0.597463	1.42
H	0.760817	-1.50665	1.77643
H	2.3246	-0.872379	1.12814
H	1.34775	0.12202	2.2658
N	1.5534	-1.22768	-1.57108
C	1.55055	-2.13172	-2.69753
H	2.423	-0.83892	-1.28521
H	2.57999	-2.26558	-3.09696
H	0.905583	-1.73744	-3.51597
H	1.15746	-3.13047	-2.39897
C	5.59514	2.54857	-2.27788
C	6.07496	2.06767	-0.962708
O	6.67607	2.80972	-0.198225
H	5.88843	3.61281	-2.40911
H	4.48894	2.47117	-2.33332
H	6.04891	1.94751	-3.0939
N	5.81702	0.791506	-0.667295
C	6.25796	0.168603	0.555863
C	6.44989	-1.3126	0.289853
O	6.08051	-1.81522	-0.769698
H	5.36266	0.188767	-1.317
H	7.22247	0.573733	0.835528
C	5.23011	0.386738	1.68775
H	4.24319	-0.0380531	1.40564
H	5.56472	-0.0764	2.63857
H	5.09962	1.47748	1.8598
N	7.04429	-2.04839	1.24971
C	7.27394	-3.4646	1.08312
H	7.33998	-1.62301	2.09865
H	7.77375	-3.89026	1.98103
H	7.92223	-3.65588	0.197444
H	6.31113	-4.00348	0.929011
