44
  This energy is -2.5679 and Call times are: 134023
C	-0.76407	-2.17291	2.60909
C	-1.00736	-0.940801	1.8256
O	-2.02464	-0.280248	1.98435
H	-1.62725	-2.35431	3.28576
H	0.155422	-2.06177	3.2214
H	-0.651818	-3.04321	1.9286
N	-0.0626014	-0.60082	0.945693
C	-0.17746	0.547175	0.0811269
C	0.609509	0.266294	-1.1851
O	1.33554	-0.72241	-1.26911
H	0.740718	-1.17086	0.798716
H	-1.21377	0.676507	-0.205164
C	0.354445	1.81841	0.778467
H	1.42059	1.69016	1.06294
H	0.25867	2.71187	0.128019
H	-0.230618	2.00006	1.7064
N	0.475865	1.13184	-2.20931
C	1.18142	0.943132	-3.45541
H	-0.119492	1.92388	-2.1239
H	0.940022	1.7593	-4.17152
H	0.899824	-0.0280977	-3.92305
H	2.28265	0.938673	-3.2868
C	6.19449	-3.3978	0.116104
C	6.03697	-2.07536	0.762258
O	6.03711	-1.96194	1.98027
H	6.28346	-4.18123	0.899797
H	7.11085	-3.41075	-0.51068
H	5.31042	-3.62193	-0.517341
N	5.89436	-1.02898	-0.0545285
C	5.68849	0.31454	0.426217
C	4.89376	1.07435	-0.61909
O	4.68146	0.585453	-1.72707
H	5.85523	-1.14238	-1.0432
H	5.08908	0.283507	1.32753
C	7.03734	1.01643	0.696761
H	7.64828	1.05791	-0.2301
H	6.89208	2.04702	1.08057
H	7.60524	0.438965	1.45857
N	4.42603	2.29321	-0.284999
C	3.65504	3.0874	-1.2129
H	4.60462	2.67024	0.61779
H	3.36212	4.05652	-0.752197
H	2.72787	2.54859	-1.5151
H	4.24581	3.30072	-2.13302
