44
  This energy is -2.0328 and Call times are: 133764
C	0.678366	0.426465	3.38683
C	-0.256987	0.18326	2.26562
O	-1.41148	-0.166364	2.46889
H	0.159342	0.223477	4.34875
H	1.01933	1.48307	3.37845
H	1.55797	-0.246252	3.30418
N	0.230703	0.364132	1.03606
C	-0.54574	0.125021	-0.154956
C	0.405885	-0.269398	-1.26869
O	1.62294	-0.181812	-1.11766
H	1.18419	0.609183	0.885494
H	-1.20987	-0.71346	0.0139142
C	-1.35069	1.38236	-0.550437
H	-0.669077	2.2401	-0.734059
H	-1.96345	1.20659	-1.45827
H	-2.03442	1.65732	0.282181
N	-0.130941	-0.724076	-2.41808
C	0.696424	-1.12787	-3.53101
H	-1.11792	-0.791669	-2.51992
H	0.0692573	-1.47146	-4.38297
H	1.37303	-1.96209	-3.23509
H	1.32754	-0.278738	-3.88002
C	5.74723	-3.23235	-0.678782
C	4.97199	-2.26125	0.125649
O	4.16516	-2.636	0.965292
H	5.4503	-4.26511	-0.394028
H	6.8338	-3.10555	-0.488919
H	5.54137	-3.08443	-1.7599
N	5.20252	-0.969338	-0.11974
C	4.49435	0.0916172	0.552134
C	4.44105	1.28831	-0.37881
O	5.08802	1.30224	-1.42425
H	5.83239	-0.680023	-0.83488
H	3.47366	-0.220264	0.735321
C	5.19198	0.467484	1.87776
H	6.2358	0.797569	1.68928
H	4.64843	1.27393	2.41135
H	5.22678	-0.424976	2.54006
N	3.65608	2.32384	-0.0216984
C	3.53833	3.50302	-0.847431
H	3.13697	2.29237	0.826011
H	2.84686	4.24052	-0.383537
H	3.14411	3.23889	-1.85545
H	4.53149	3.98957	-0.98177
