44
  This energy is 0.1288 and Call times are: 130186
C	2.79502	2.07005	0.124294
C	1.33735	1.84019	0.240575
O	0.597778	2.69264	0.712551
H	3.04259	3.07302	0.534968
H	3.10472	2.03156	-0.941231
H	3.35099	1.29931	0.698696
N	0.886085	0.660918	-0.193083
C	-0.500402	0.275402	-0.105952
C	-0.564814	-1.23605	0.00776021
O	0.442689	-1.92296	-0.149709
H	1.50589	-0.0386974	-0.53696
H	-0.928982	0.685592	0.79997
C	-1.28641	0.759234	-1.34423
H	-0.853618	0.330288	-2.27306
H	-2.35835	0.480544	-1.28249
H	-1.21894	1.86703	-1.41194
N	-1.75883	-1.79121	0.294375
C	-1.91527	-3.22089	0.427451
H	-2.56185	-1.21862	0.422345
H	-2.97045	-3.48063	0.66484
H	-1.26578	-3.61282	1.24344
H	-1.6311	-3.73708	-0.518031
C	3.01026	2.36077	2.11345
C	3.18798	1.74063	0.781159
O	2.44611	2.01917	-0.15075
H	2.13551	3.04626	2.08576
H	3.91472	2.94322	2.38817
H	2.82873	1.57726	2.8791
N	4.19218	0.869056	0.661442
C	4.46332	0.153118	-0.560224
C	5.1135	-1.16918	-0.199183
O	5.47202	-1.40061	0.953905
H	4.76201	0.62188	1.43993
H	3.52803	-0.0723852	-1.05722
C	5.38531	0.974395	-1.48796
H	6.34912	1.19699	-0.982416
H	5.5903	0.439704	-2.43801
H	4.89296	1.94087	-1.73263
N	5.2736	-2.07639	-1.18273
C	5.8774	-3.36434	-0.932132
H	4.97342	-1.87245	-2.10867
H	5.91942	-3.96734	-1.86586
H	5.29075	-3.93238	-0.174206
H	6.91525	-3.24337	-0.545628
