44
  This energy is -1.0144 and Call times are: 138672
C	-2.11352	-1.75152	2.1396
C	-1.73001	-0.527706	1.40045
O	-2.49617	0.42129	1.30654
H	-3.1477	-1.63552	2.53063
H	-1.42278	-1.91525	2.99332
H	-2.0814	-2.63237	1.46421
N	-0.51447	-0.524291	0.848339
C	-0.0167991	0.577298	0.0626003
C	0.977255	0.0292909	-0.943928
O	1.35713	-1.13844	-0.882231
H	0.0819612	-1.32028	0.898697
H	-0.83415	1.01508	-0.496786
C	0.653194	1.63859	0.962603
H	1.49846	1.19248	1.52878
H	1.02824	2.49856	0.370726
H	-0.0902594	2.01982	1.69629
N	1.41756	0.863953	-1.90595
C	2.3602	0.429439	-2.91035
H	1.09555	1.80421	-1.94194
H	2.5985	1.25954	-3.61133
H	1.94263	-0.418449	-3.50027
H	3.30872	0.0866782	-2.4371
C	6.67216	-0.313557	-3.41864
C	7.1471	-0.117882	-2.03036
O	8.33746	-0.175867	-1.75448
H	7.54224	-0.521666	-4.07857
H	6.15798	0.601826	-3.7798
H	5.97155	-1.17379	-3.46572
N	6.20939	0.120101	-1.11034
C	6.51322	0.288547	0.288904
C	5.30779	-0.162183	1.09225
O	4.24344	-0.426342	0.536287
H	5.24112	0.123683	-1.34332
H	7.33909	-0.35909	0.555608
C	6.85536	1.76088	0.605808
H	6.00442	2.42453	0.342174
H	7.10469	1.901	1.67759
H	7.7352	2.07155	0.00107238
N	5.45096	-0.269004	2.42795
C	4.36037	-0.69575	3.27333
H	6.32117	-0.0547916	2.85913
H	4.67574	-0.720261	4.33972
H	4.0166	-1.71582	2.986
H	3.49491	-0.000557474	3.17933
