44
  This energy is -3.6745 and Call times are: 131443
C	0.0847411	-0.915231	3.35676
C	0.704	-0.315362	2.15351
O	1.7445	0.323475	2.22879
H	0.69911	-0.665887	4.2491
H	0.0352927	-2.01943	3.25163
H	-0.939594	-0.511666	3.50155
N	0.0648375	-0.509696	0.99762
C	0.521787	0.0482211	-0.250773
C	-0.68607	0.262404	-1.14339
O	-1.78965	-0.176893	-0.825845
H	-0.802741	-0.997186	0.958513
H	0.963695	1.01968	-0.0674151
C	1.54062	-0.889918	-0.934235
H	1.08446	-1.8833	-1.13211
H	1.91045	-0.464982	-1.88984
H	2.41216	-1.03879	-0.259995
N	-0.504904	0.955108	-2.28504
C	-1.59724	1.21304	-3.19413
H	0.394706	1.30614	-2.52284
H	-1.24731	1.79709	-4.07371
H	-2.40225	1.79234	-2.68654
H	-2.03788	0.257554	-3.56024
C	7.83025	-3.41736	0.451433
C	7.9126	-2.01637	0.922189
O	8.16875	-1.75482	2.0894
H	8.01378	-4.10355	1.3066
H	8.59647	-3.60414	-0.330079
H	6.82114	-3.62277	0.0360235
N	7.6909	-1.06909	0.00791075
C	7.69419	0.337499	0.324198
C	6.76691	1.04294	-0.647436
O	6.29617	0.446865	-1.61429
H	7.4432	-1.29831	-0.929085
H	7.28949	0.481052	1.3183
C	9.12128	0.920576	0.23104
H	9.53288	0.782968	-0.791549
H	9.1392	2.00005	0.485855
H	9.78417	0.384235	0.94466
N	6.47498	2.33622	-0.406152
C	5.59741	3.08751	-1.27311
H	6.86232	2.80028	0.383595
H	5.48194	4.1314	-0.906793
H	4.58842	2.61683	-1.31403
H	6.00435	3.12243	-2.30961
