44
  This energy is -3.2243 and Call times are: 128183
C	2.36207	0.331283	-2.53447
C	0.991937	0.499017	-1.99993
O	0.160427	1.17458	-2.59037
H	2.46119	0.909338	-3.47888
H	2.56172	-0.740169	-2.7463
H	3.10722	0.70825	-1.80252
N	0.723938	-0.121703	-0.84873
C	-0.550892	-0.0171885	-0.183565
C	-0.322852	-0.191805	1.30609
O	0.772444	-0.545665	1.73832
H	1.4234	-0.634433	-0.359105
H	-0.951891	0.977382	-0.334103
C	-1.53648	-1.08377	-0.709161
H	-1.13027	-2.10466	-0.545407
H	-2.52625	-1.00476	-0.214552
H	-1.6822	-0.941852	-1.80231
N	-1.35761	0.0624926	2.13109
C	-1.23262	-0.0712723	3.5638
H	-2.23499	0.351759	1.76284
H	-2.19135	0.18223	4.06757
H	-0.441089	0.608688	3.9542
H	-0.957259	-1.11522	3.83856
C	5.14867	0.853113	3.22216
C	6.02787	1.02128	2.04322
O	6.78624	1.97661	1.95028
H	5.30095	1.70616	3.91855
H	5.39481	-0.0913182	3.75151
H	4.08437	0.832869	2.90603
N	5.94178	0.0806599	1.09972
C	6.70239	0.130221	-0.12404
C	5.91362	-0.591022	-1.20072
O	4.90321	-1.23216	-0.918398
H	5.29016	-0.669146	1.17064
H	6.80789	1.16134	-0.437548
C	8.08904	-0.52405	0.0613589
H	7.98129	-1.58492	0.372781
H	8.6897	-0.479829	-0.870184
H	8.64534	0.0147605	0.859195
N	6.35583	-0.49496	-2.47006
C	5.66693	-1.14315	-3.56159
H	7.17304	0.0317617	-2.67935
H	6.18462	-0.945544	-4.52605
H	4.6204	-0.769661	-3.64263
H	5.62887	-2.24524	-3.40322
