44
  This energy is -2.2787 and Call times are: 134871
C	1.31442	2.65283	-1.82961
C	0.203797	1.74444	-1.46563
O	-0.941145	1.96444	-1.83592
H	0.915518	3.4976	-2.4322
H	2.07241	2.10863	-2.43131
H	1.79237	3.0592	-0.913353
N	0.523623	0.686385	-0.716892
C	-0.454944	-0.262809	-0.247853
C	0.0465693	-0.853814	1.05628
O	1.1891	-0.629415	1.45123
H	1.45305	0.542952	-0.389073
H	-1.38079	0.255728	-0.0320634
C	-0.688529	-1.37613	-1.29246
H	0.258869	-1.91531	-1.50636
H	-1.45021	-2.10572	-0.948861
H	-1.04745	-0.920048	-2.24088
N	-0.805762	-1.62151	1.76352
C	-0.41856	-2.22176	3.0189
H	-1.7276	-1.78829	1.42966
H	-1.25683	-2.81494	3.44628
H	-0.131736	-1.43808	3.75704
H	0.454496	-2.89928	2.87789
C	7.61372	2.1471	1.74209
C	6.27045	1.73491	1.2764
O	5.25784	2.25266	1.72692
H	7.5072	2.9325	2.52162
H	8.20269	2.5585	0.895556
H	8.15077	1.27848	2.17816
N	6.23246	0.775135	0.349155
C	4.99879	0.239426	-0.17012
C	5.24821	-1.19519	-0.595831
O	6.38831	-1.65463	-0.623926
H	7.06364	0.334722	0.0220089
H	4.2584	0.217416	0.619785
C	4.49231	1.07822	-1.36391
H	5.24714	1.09241	-2.17882
H	3.5357	0.683956	-1.76387
H	4.3242	2.12581	-1.0313
N	4.17839	-1.94289	-0.93117
C	4.31802	-3.32006	-1.34359
H	3.26335	-1.5547	-0.898253
H	3.3249	-3.76333	-1.57693
H	4.79128	-3.92558	-0.536954
H	4.95804	-3.39526	-2.25236
