44
  This energy is 0.1506 and Call times are: 134927
C	-3.37552	0.635582	-0.560873
C	-2.14311	0.759914	0.249585
O	-2.08126	1.53681	1.19246
H	-4.14159	1.34294	-0.175301
H	-3.7749	-0.398227	-0.493948
H	-3.16175	0.881038	-1.62254
N	-1.11682	-0.0154017	-0.108192
C	0.161372	0.0247107	0.557515
C	1.22912	-0.372417	-0.444365
O	0.922225	-0.815108	-1.54961
H	-1.16874	-0.612966	-0.903232
H	0.371301	1.04102	0.866843
C	0.179844	-0.926448	1.77415
H	-0.0250419	-1.97085	1.45591
H	1.15419	-0.894214	2.30342
H	-0.614531	-0.621977	2.49012
N	2.51717	-0.214071	-0.0812169
C	3.6013	-0.559688	-0.970814
H	2.74565	0.149515	0.815819
H	4.58391	-0.35709	-0.490543
H	3.54196	0.0341918	-1.91159
H	3.55893	-1.63965	-1.24105
C	6.09257	2.13149	-2.45469
C	5.12554	1.11783	-1.97667
O	4.11881	0.851255	-2.61841
H	5.72899	2.56299	-3.41254
H	7.08482	1.66336	-2.62512
H	6.19231	2.94729	-1.70797
N	5.41439	0.522453	-0.817154
C	4.54831	-0.452974	-0.203153
C	4.75309	-0.38853	1.29867
O	5.66291	0.282537	1.782
H	6.21674	0.779516	-0.286112
H	3.51672	-0.188719	-0.399675
C	4.85386	-1.8719	-0.730908
H	5.90915	-2.1476	-0.520165
H	4.18419	-2.63022	-0.275927
H	4.70519	-1.8936	-1.83262
N	3.89987	-1.08355	2.07647
C	4.01372	-1.0776	3.51632
H	3.16741	-1.61744	1.66713
H	3.22105	-1.70809	3.9761
H	3.91236	-0.0418411	3.91406
H	5.00535	-1.47384	3.83383
