44
  This energy is -2.0155 and Call times are: 128211
C	0.0811591	-3.3211	-1.0375
C	-0.457286	-1.94442	-1.11481
O	-1.19237	-1.60276	-2.03096
H	-0.276936	-3.90524	-1.91296
H	-0.268032	-3.81694	-0.107475
H	1.19132	-3.29906	-1.04998
N	-0.0945276	-1.1096	-0.138148
C	-0.503161	0.272477	-0.100294
C	0.565333	1.06171	0.632497
O	1.48326	0.488105	1.21567
H	0.537301	-1.39073	0.578531
H	-0.55286	0.658104	-1.11096
C	-1.8685	0.424962	0.605285
H	-1.81518	0.0391486	1.64564
H	-2.20064	1.4831	0.628569
H	-2.63326	-0.167094	0.0566903
N	0.474175	2.40607	0.612007
C	1.44819	3.23996	1.27692
H	-0.273549	2.85209	0.131337
H	1.20006	4.31618	1.14493
H	2.46663	3.06165	0.861873
H	1.47635	3.0177	2.36822
C	3.8657	-1.63614	2.53535
C	5.07715	-0.972326	2.00347
O	6.00981	-0.675073	2.73709
H	3.9732	-1.77142	3.63353
H	3.73569	-2.63184	2.06161
H	2.96888	-1.01233	2.33621
N	5.08817	-0.719391	0.692638
C	6.1783	-0.0404417	0.0374993
C	5.62283	0.690123	-1.17052
O	4.46391	0.508131	-1.5386
H	4.30437	-0.930308	0.115565
H	6.58739	0.706574	0.706258
C	7.27354	-1.04132	-0.391391
H	6.85679	-1.8017	-1.08579
H	8.12486	-0.529059	-0.884711
H	7.65987	-1.56996	0.507289
N	6.44072	1.54619	-1.81413
C	5.99784	2.28992	-2.97037
H	7.37394	1.68318	-1.49885
H	6.81415	2.9393	-3.3566
H	5.12816	2.93657	-2.71196
H	5.68388	1.59871	-3.78572
