44
  This energy is -2.5167 and Call times are: 134384
C	2.8283	-1.4431	1.42508
C	1.67808	-0.512337	1.46773
O	1.35071	0.0421215	2.50783
H	3.26763	-1.53092	2.44251
H	3.60491	-1.06018	0.730115
H	2.49527	-2.44788	1.08951
N	1.02761	-0.319705	0.317877
C	-0.136922	0.523538	0.211268
C	-0.99875	-0.00122339	-0.92162
O	-0.584141	-0.882337	-1.67226
H	1.28078	-0.809697	-0.511388
H	-0.718484	0.446225	1.12145
C	0.266721	1.99112	-0.0504844
H	0.854387	2.07247	-0.989669
H	-0.620816	2.65283	-0.120773
H	0.903236	2.35162	0.786913
N	-2.23032	0.52632	-1.06641
C	-3.12326	0.0854849	-2.1126
H	-2.5496	1.23555	-0.446636
H	-4.08735	0.638243	-2.06557
H	-3.3382	-1.00314	-2.01269
H	-2.66901	0.257096	-3.11527
C	4.49357	2.1775	0.215619
C	5.88308	1.78884	0.546326
O	6.64899	2.57536	1.08593
H	4.32635	3.23454	0.516574
H	3.77503	1.53048	0.761332
H	4.31958	2.08314	-0.877034
N	6.24468	0.545308	0.221884
C	7.57568	0.0366565	0.441585
C	7.85429	-1.02657	-0.604117
O	6.95871	-1.43556	-1.34057
H	5.62263	-0.0698645	-0.254015
H	8.29241	0.834066	0.289751
C	7.71365	-0.552217	1.86265
H	6.98571	-1.37735	2.01533
H	8.73812	-0.934677	2.04892
H	7.49767	0.241098	2.61121
N	9.11418	-1.49528	-0.699006
C	9.47449	-2.50383	-1.66811
H	9.82615	-1.1491	-0.0970678
H	10.5548	-2.75668	-1.58943
H	9.27331	-2.14374	-2.70307
H	8.88368	-3.43421	-1.50535
