44
  This energy is -1.5271 and Call times are: 134107
C	0.661939	2.79539	1.96477
C	0.673991	2.08133	0.668189
O	0.924236	2.66837	-0.375443
H	0.887179	3.87057	1.79405
H	1.43142	2.37029	2.64295
H	-0.337897	2.70876	2.44007
N	0.396538	0.775998	0.706983
C	0.32827	-0.0433492	-0.477319
C	-0.641493	-1.17929	-0.211314
O	-1.08707	-1.37561	0.917681
H	0.154655	0.320714	1.55908
H	-0.0764433	0.541789	-1.29368
C	1.72213	-0.596599	-0.846508
H	2.13323	-1.2057	-0.0134199
H	1.68521	-1.21788	-1.76475
H	2.41721	0.251876	-1.029
N	-0.999146	-1.95339	-1.25481
C	-1.92095	-3.05429	-1.09835
H	-0.631172	-1.77637	-2.16163
H	-2.08843	-3.56816	-2.07052
H	-2.90413	-2.6925	-0.719223
H	-1.52365	-3.79935	-0.371582
C	4.53833	0.632224	3.13989
C	4.63331	0.888181	1.68503
O	3.80717	1.58272	1.10924
H	3.6361	1.14059	3.54411
H	5.43674	1.02903	3.65772
H	4.45272	-0.458146	3.33181
N	5.66031	0.320447	1.04838
C	5.86134	0.442836	-0.373999
C	6.59383	-0.795033	-0.8564
O	7.05419	-1.60653	-0.0556174
H	6.30136	-0.27569	1.52329
H	4.89914	0.46224	-0.870397
C	6.66956	1.71543	-0.709463
H	7.66097	1.69112	-0.208919
H	6.81912	1.82828	-1.80281
H	6.11868	2.60797	-0.34035
N	6.71167	-0.973091	-2.18697
C	7.38756	-2.12418	-2.73863
H	6.329	-0.307559	-2.8192
H	7.37903	-2.08985	-3.85038
H	6.88882	-3.06582	-2.41326
H	8.44733	-2.15892	-2.39683
