44
  This energy is -1.9768 and Call times are: 134619
C	-0.380859	3.37439	-0.762304
C	-0.43811	2.2376	0.184043
O	-0.582314	2.42037	1.38496
H	-0.468866	4.32762	-0.19707
H	-1.21721	3.30935	-1.48965
H	0.58559	3.36879	-1.30915
N	-0.32196	1.01778	-0.34598
C	-0.315814	-0.182986	0.451942
C	0.500504	-1.23232	-0.278862
O	0.883067	-1.04228	-1.43179
H	-0.164045	0.886968	-1.32057
H	0.182369	0.0157689	1.39266
C	-1.75396	-0.689751	0.697216
H	-2.26191	-0.903832	-0.267252
H	-1.76339	-1.60622	1.32214
H	-2.33517	0.0970598	1.22587
N	0.794775	-2.36854	0.383283
C	1.57122	-3.42107	-0.2295
H	0.479835	-2.50231	1.31709
H	1.70603	-4.27134	0.474834
H	2.57843	-3.04612	-0.52311
H	1.06389	-3.80138	-1.14554
C	4.01625	1.83692	-2.23587
C	4.19116	1.09978	-0.964183
O	3.34415	1.14804	-0.0829002
H	3.05721	2.39834	-2.20605
H	3.99079	1.12712	-3.08926
H	4.8497	2.55666	-2.37872
N	5.31549	0.390846	-0.838969
C	5.64643	-0.343687	0.356646
C	7.15798	-0.412758	0.46616
O	7.87431	-0.0379507	-0.460177
H	6.01433	0.394276	-1.54852
H	5.28486	0.199229	1.22102
C	5.04095	-1.76392	0.316961
H	5.41972	-2.32496	-0.563835
H	5.27711	-2.33482	1.23827
H	3.93508	-1.68908	0.228658
N	7.68066	-0.889431	1.61316
C	9.10819	-0.98703	1.81017
H	7.0849	-1.18404	2.35299
H	9.3389	-1.40201	2.81605
H	9.58567	0.0161505	1.72698
H	9.56632	-1.65212	1.04276
