44
  This energy is -2.5127 and Call times are: 130463
C	1.32582	3.17394	-0.530076
C	0.930111	1.83029	-1.00877
O	0.893015	1.56946	-2.20334
H	1.53931	3.82704	-1.40401
H	2.23917	3.10308	0.0972327
H	0.503744	3.62597	0.0640273
N	0.618293	0.933848	-0.0698648
C	0.173658	-0.401561	-0.382186
C	-0.72675	-0.875559	0.743045
O	-0.834386	-0.224314	1.78035
H	0.61373	1.17325	0.896847
H	-0.423884	-0.377133	-1.28495
C	1.37487	-1.35705	-0.553512
H	1.98231	-1.39056	0.375972
H	1.04606	-2.38549	-0.807911
H	2.02413	-0.986446	-1.3766
N	-1.40527	-2.02521	0.558834
C	-2.29001	-2.55143	1.57201
H	-1.30832	-2.536	-0.288969
H	-2.75452	-3.50339	1.23257
H	-3.10417	-1.82528	1.79813
H	-1.73259	-2.75007	2.51592
C	7.56356	-1.49815	-2.4913
C	6.2737	-1.25784	-1.80597
O	5.21616	-1.62173	-2.30155
H	7.37499	-2.00972	-3.46011
H	8.21524	-2.14315	-1.86518
H	8.07774	-0.533835	-2.68823
N	6.33444	-0.626276	-0.631312
C	5.16078	-0.283765	0.132735
C	5.47376	0.955026	0.950666
O	6.62074	1.39299	1.01658
H	7.19913	-0.299899	-0.260301
H	4.35559	-0.028081	-0.544692
C	4.74297	-1.45014	1.05482
H	5.56485	-1.70587	1.75707
H	3.83225	-1.20386	1.6383
H	4.52651	-2.34801	0.435684
N	4.45156	1.55674	1.59024
C	4.65293	2.744	2.38776
H	3.52974	1.18986	1.52159
H	3.69241	3.0874	2.8313
H	5.0665	3.57005	1.76496
H	5.37027	2.54393	3.21633
