44
  This energy is -4.6793 and Call times are: 136775
C	0.782004	0.297547	-3.37826
C	0.453655	0.885198	-2.05993
O	0.572219	2.08528	-1.85461
H	1.13992	1.10007	-4.05924
H	-0.119551	-0.174725	-3.82199
H	1.58234	-0.464433	-3.26895
N	0.0283582	0.0364903	-1.12121
C	-0.288171	0.452772	0.222326
C	-0.0393236	-0.720062	1.15189
O	0.205714	-1.83828	0.703268
H	-0.0239117	-0.94345	-1.29106
H	0.385403	1.24739	0.518142
C	-1.75624	0.921634	0.323188
H	-2.44805	0.103447	0.0299216
H	-2.00834	1.25782	1.34981
H	-1.91748	1.77504	-0.371115
N	-0.0886175	-0.487939	2.47843
C	0.140501	-1.54176	3.43924
H	-0.284295	0.424487	2.82232
H	0.057191	-1.15206	4.47771
H	1.1575	-1.9777	3.30903
H	-0.604803	-2.35976	3.31064
C	5.01977	3.14147	-1.45161
C	5.13497	2.21488	-0.302994
O	5.7487	2.53156	0.706685
H	5.57195	4.07909	-1.22393
H	3.9536	3.38863	-1.63849
H	5.45681	2.67901	-2.36166
N	4.53822	1.02802	-0.435795
C	4.59924	0.0054362	0.578678
C	4.48353	-1.34482	-0.103232
O	4.19923	-1.42531	-1.29672
H	4.07717	0.769142	-1.27976
H	5.56705	0.0402277	1.0632
C	3.4682	0.187663	1.61443
H	2.4748	0.141515	1.11939
H	3.51276	-0.58553	2.4086
H	3.56796	1.18534	2.09507
N	4.71124	-2.44367	0.642882
C	4.62931	-3.77074	0.0786682
H	4.94407	-2.35815	1.60598
H	4.84991	-4.54058	0.85062
H	5.36034	-3.8895	-0.753654
H	3.60979	-3.96302	-0.32724
