44
  This energy is -3.6673 and Call times are: 131649
C	1.05754	3.31314	-0.131827
C	0.972421	1.94876	-0.699584
O	1.31534	1.71988	-1.85129
H	1.44217	4.01042	-0.907547
H	1.74979	3.32396	0.736166
H	0.0524711	3.65589	0.192908
N	0.502758	0.99713	0.110477
C	0.321655	-0.369159	-0.312624
C	-0.808908	-0.970343	0.500986
O	-1.28722	-0.364734	1.45815
H	0.189221	1.20674	1.03223
H	0.0150094	-0.383881	-1.35108
C	1.61991	-1.18313	-0.119713
H	1.92917	-1.17713	0.947228
H	1.49742	-2.23347	-0.454824
H	2.43531	-0.720659	-0.717708
N	-1.27043	-2.18116	0.130905
C	-2.34752	-2.8293	0.842219
H	-0.87339	-2.6538	-0.648861
H	-2.58266	-3.81596	0.385662
H	-3.2684	-2.20274	0.81628
H	-2.07143	-2.99323	1.90901
C	5.08021	-0.169338	-3.46573
C	4.95279	-0.767825	-2.11787
O	4.37709	-1.83413	-1.95059
H	4.57399	-0.824311	-4.20776
H	6.15124	-0.0737637	-3.74233
H	4.60252	0.832894	-3.48612
N	5.49515	-0.0807897	-1.10979
C	5.41459	-0.513965	0.26295
C	5.45656	0.715881	1.15024
O	5.70893	1.82348	0.679892
H	5.92471	0.805721	-1.25619
H	4.46084	-0.999147	0.429043
C	6.57648	-1.47093	0.608579
H	7.55506	-0.970152	0.448408
H	6.51778	-1.82245	1.65906
H	6.53067	-2.35962	-0.0580972
N	5.19992	0.549113	2.46262
C	5.21193	1.6625	3.38262
H	4.99374	-0.354258	2.82384
H	4.97702	1.32202	4.41515
H	4.45706	2.42601	3.08512
H	6.21247	2.15234	3.39385
