44
  This energy is 0.1156 and Call times are: 135678
C	-3.35555	0.0930889	0.918856
C	-2.28526	0.0124504	-0.100516
O	-2.53894	-0.268157	-1.26384
H	-4.33184	-0.150959	0.446445
H	-3.40655	1.11919	1.33987
H	-3.16066	-0.632481	1.73657
N	-1.04318	0.25904	0.322347
C	0.107071	0.176742	-0.542929
C	1.31062	-0.191742	0.303977
O	1.23668	-0.205565	1.53119
H	-0.847475	0.445918	1.28081
H	-0.040671	-0.622463	-1.25852
C	0.347117	1.51769	-1.27058
H	0.509219	2.336	-0.537008
H	1.22194	1.46293	-1.95044
H	-0.549198	1.77137	-1.87772
N	2.4527	-0.509139	-0.337068
C	3.64769	-0.877992	0.385516
H	2.49187	-0.49623	-1.33073
H	4.47908	-1.10315	-0.318271
H	3.46481	-1.78081	1.01221
H	3.97151	-0.0508297	1.05789
C	2.55671	2.87839	-1.42239
C	3.18657	2.15314	-0.296137
O	3.61287	2.75088	0.682327
H	2.57371	3.96982	-1.21179
H	1.50249	2.55254	-1.54563
H	3.11545	2.68503	-2.36233
N	3.26188	0.825365	-0.413287
C	3.88584	-0.0121083	0.580626
C	4.42748	-1.24726	-0.114068
O	4.15613	-1.47791	-1.29087
H	2.94742	0.356916	-1.23398
H	4.72997	0.51234	1.01076
C	2.87671	-0.408239	1.68061
H	2.01563	-0.95554	1.24123
H	3.34865	-1.04185	2.45928
H	2.4875	0.511222	2.16995
N	5.21857	-2.07079	0.601468
C	5.78426	-3.26713	0.0227345
H	5.43014	-1.86518	1.55122
H	6.40507	-3.80959	0.769432
H	6.42789	-3.01441	-0.850848
H	4.97919	-3.95248	-0.32841
