44
  This energy is -1.531 and Call times are: 132352
C	-0.217444	-3.35841	-0.886821
C	-0.137319	-2.28001	0.124002
O	-0.335443	-2.50761	1.30948
H	-0.487669	-4.31288	-0.384973
H	0.763388	-3.48312	-1.39195
H	-0.994319	-3.11739	-1.64277
N	0.15802	-1.06034	-0.331585
C	0.229002	0.0971761	0.524966
C	-0.125571	1.31927	-0.301055
O	-0.248195	1.24033	-1.52189
H	0.276285	-0.88298	-1.30443
H	-0.515137	0.00924546	1.30673
C	1.64006	0.246553	1.13475
H	2.40266	0.347383	0.33331
H	1.70367	1.12646	1.80724
H	1.88151	-0.662246	1.72816
N	-0.307805	2.48394	0.351907
C	-0.652825	3.69816	-0.350115
H	-0.208244	2.5271	1.34049
H	-0.759574	4.54677	0.361
H	-1.61589	3.57569	-0.89673
H	0.134948	3.96	-1.09308
C	6.08187	-3.26544	1.10929
C	5.5732	-1.91362	0.785238
O	4.37265	-1.68519	0.731202
H	5.22284	-3.95544	1.25701
H	6.68274	-3.2347	2.04244
H	6.71059	-3.64729	0.277445
N	6.49235	-0.972766	0.556451
C	6.15144	0.378666	0.187712
C	7.28489	0.940727	-0.649515
O	8.34388	0.32751	-0.768698
H	7.46565	-1.18368	0.563899
H	5.26571	0.366374	-0.435149
C	5.92003	1.25083	1.44112
H	6.83193	1.27231	2.07516
H	5.64327	2.29035	1.17033
H	5.0919	0.816464	2.04268
N	7.0837	2.12533	-1.25964
C	8.10319	2.73529	-2.08108
H	6.21859	2.60453	-1.15461
H	7.74732	3.70469	-2.49442
H	8.37233	2.06896	-2.93246
H	9.02582	2.92509	-1.4862
