44
  This energy is -2.4175 and Call times are: 134496
C	-2.69238	1.95899	-1.01298
C	-1.45892	1.19174	-1.29768
O	-1.12775	0.928874	-2.44556
H	-3.20446	2.19947	-1.96997
H	-2.44183	2.90661	-0.491457
H	-3.37869	1.35875	-0.379119
N	-0.741403	0.807625	-0.23938
C	0.459485	0.018281	-0.354984
C	0.607996	-0.805012	0.910594
O	-0.124611	-0.609765	1.87852
H	-1.04541	0.993871	0.690543
H	0.353291	-0.674898	-1.18012
C	1.69534	0.921127	-0.561766
H	1.8108	1.62533	0.289587
H	2.62462	0.324395	-0.666068
H	1.56131	1.52004	-1.48896
N	1.5615	-1.75713	0.928861
C	1.77266	-2.5933	2.08749
H	2.14178	-1.90295	0.134453
H	2.60044	-3.31395	1.90678
H	0.851045	-3.17129	2.32796
H	2.03391	-1.9746	2.97636
C	8.30958	-2.35417	1.65248
C	7.07983	-1.54001	1.52591
O	6.1032	-1.75475	2.23054
H	8.15663	-3.13176	2.4321
H	9.16516	-1.71157	1.94881
H	8.53917	-2.85315	0.687406
N	7.10095	-0.57202	0.606709
C	5.96528	0.274453	0.337849
C	6.03786	0.71709	-1.11142
O	7.03684	0.488036	-1.7906
H	7.8886	-0.435937	0.0126136
H	5.05536	-0.300977	0.454193
C	5.95534	1.49947	1.27831
H	6.88392	2.09594	1.15175
H	5.07805	2.15186	1.09049
H	5.90997	1.15173	2.33347
N	4.96916	1.3587	-1.62351
C	4.94533	1.8123	-2.99459
H	4.16842	1.53124	-1.0595
H	3.98092	2.31616	-3.22541
H	5.0687	0.954201	-3.6944
H	5.77247	2.53411	-3.18424
