44
  This energy is 0.1355 and Call times are: 138486
C	-0.805908	-3.38478	0.0803546
C	-0.718307	-2.08221	-0.617341
O	-0.884245	-1.99937	-1.82648
H	-1.01396	-4.18577	-0.661943
H	-1.62743	-3.36453	0.826973
H	0.153321	-3.60984	0.592529
N	-0.448518	-1.01862	0.143157
C	-0.289952	0.308262	-0.397965
C	0.652683	1.07869	0.507258
O	1.00779	0.613747	1.58867
H	-0.275515	-1.10793	1.11987
H	0.179221	0.243209	-1.37176
C	-1.65216	1.0288	-0.500178
H	-2.12908	1.10516	0.500199
H	-1.54514	2.04649	-0.928414
H	-2.32834	0.443381	-1.16079
N	1.08883	2.27965	0.0788753
C	1.99234	3.08197	0.870161
H	0.793615	2.63728	-0.800909
H	2.23406	4.03346	0.347228
H	2.9438	2.53327	1.05706
H	1.53713	3.32951	1.85639
C	0.727838	0.0465514	0.233845
C	2.03586	-0.627665	0.39402
O	2.13286	-1.68488	1.00172
H	-0.0573187	-0.547782	0.749742
H	0.468219	0.127336	-0.842639
H	0.763078	1.06167	0.682574
N	3.08886	-0.0183334	-0.155797
C	4.43215	-0.530458	-0.0468594
C	5.39228	0.642269	-0.11338
O	4.99204	1.76826	-0.402636
H	3.00043	0.862488	-0.612076
H	4.55917	-0.996775	0.922178
C	4.7311	-1.5398	-1.17695
H	4.61118	-1.059	-2.17118
H	5.75786	-1.95178	-1.09596
H	4.01169	-2.38524	-1.11371
N	6.6896	0.404699	0.163265
C	7.67507	1.46014	0.130397
H	6.99368	-0.512314	0.399275
H	8.68281	1.06537	0.386985
H	7.41656	2.26174	0.859711
H	7.72578	1.91911	-0.883464
