44
  This energy is 0.1051 and Call times are: 129454
C	1.30349	-3.18342	-0.528637
C	1.08893	-1.98675	0.315812
O	1.36323	-1.9958	1.5079
H	1.70704	-4.00791	0.0984572
H	2.03125	-2.95666	-1.33591
H	0.342802	-3.51142	-0.978727
N	0.582525	-0.912775	-0.294526
C	0.278433	0.311367	0.403732
C	-0.859075	1.00158	-0.325124
O	-1.24754	0.592159	-1.41745
H	0.326093	-0.933828	-1.25664
H	-0.0728708	0.0761565	1.40067
C	1.51708	1.23154	0.469059
H	1.87154	1.4817	-0.553594
H	1.29955	2.17153	1.01643
H	2.33923	0.703164	0.999369
N	-1.4282	2.06767	0.271179
C	-2.52047	2.78452	-0.344654
H	-1.10278	2.38154	1.15699
H	-2.85052	3.6283	0.300579
H	-3.3905	2.10844	-0.509727
H	-2.21218	3.19782	-1.33222
C	7.9527	-1.42202	1.82115
C	7.44096	-0.503888	0.778884
O	8.16723	0.332821	0.260361
H	9.0223	-1.19293	2.01942
H	7.86813	-2.47481	1.47877
H	7.377	-1.29205	2.76177
N	6.15546	-0.641609	0.445886
C	5.5039	0.206957	-0.520535
C	4.0318	0.287637	-0.162811
O	3.5545	-0.43792	0.707508
H	5.56656	-1.29989	0.906028
H	5.90904	1.20851	-0.447172
C	5.68397	-0.346643	-1.95104
H	5.25906	-1.37003	-2.02961
H	5.19849	0.305422	-2.70579
H	6.76872	-0.404478	-2.18833
N	3.27558	1.18489	-0.825436
C	1.8661	1.33656	-0.548763
H	3.68066	1.76603	-1.52347
H	1.42078	2.12398	-1.19599
H	1.7034	1.62407	0.515261
H	1.32396	0.381289	-0.735017
