44
  This energy is 0.1002 and Call times are: 139324
C	-1.52111	-3.12331	-0.20944
C	-1.58275	-1.6489	-0.0934037
O	-2.63973	-1.04726	-0.22466
H	-2.53571	-3.51654	-0.437097
H	-1.1692	-3.56794	0.745129
H	-0.830729	-3.41413	-1.02913
N	-0.4296	-1.02464	0.157463
C	-0.323298	0.409851	0.254902
C	1.07928	0.809649	-0.162824
O	1.94754	-0.0408119	-0.348705
H	0.429419	-1.52455	0.221075
H	-1.01114	0.867404	-0.445209
C	-0.616862	0.888341	1.69369
H	0.0952193	0.427397	2.41098
H	-0.551765	1.99246	1.77853
H	-1.64519	0.577979	1.98103
N	1.33174	2.1229	-0.329122
C	2.63564	2.59706	-0.730607
H	0.61517	2.79578	-0.178
H	2.64244	3.70627	-0.813306
H	2.92158	2.17016	-1.71917
H	3.4093	2.2959	0.0122959
C	2.85537	3.32421	0.834227
C	2.25709	1.99904	1.11198
O	1.77387	1.73929	2.20534
H	2.79182	3.95461	1.74768
H	2.30554	3.82743	0.0113045
H	3.92269	3.21018	0.549833
N	2.27911	1.11631	0.110633
C	1.7739	-0.227487	0.243007
C	2.54267	-1.11829	-0.714609
O	3.30869	-0.635573	-1.54642
H	2.71267	1.32857	-0.760477
H	1.97085	-0.586014	1.24565
C	0.261213	-0.280898	-0.0638622
H	0.0597253	0.0768902	-1.09606
H	-0.142556	-1.308	0.0481347
H	-0.280481	0.384262	0.643575
N	2.36077	-2.44966	-0.612729
C	3.05388	-3.37565	-1.47778
H	1.73988	-2.82161	0.0693444
H	2.77141	-4.42445	-1.23806
H	4.15695	-3.27386	-1.35875
H	2.80232	-3.17981	-2.54526
