44
  This energy is 0.169 and Call times are: 136590
C	-1.6255	2.37415	-1.95802
C	-1.5544	1.04277	-1.31497
O	-2.53289	0.310239	-1.26633
H	-2.659	2.54824	-2.32877
H	-0.922869	2.42261	-2.81633
H	-1.36835	3.16748	-1.22482
N	-0.373877	0.696418	-0.796528
C	-0.161274	-0.54876	-0.101624
C	0.946601	-0.340616	0.91368
O	1.60613	0.697007	0.922337
H	0.402361	1.32027	-0.807776
H	-1.05752	-0.808847	0.447673
C	0.214284	-1.6748	-1.08966
H	1.13958	-1.41314	-1.64589
H	0.367042	-2.64194	-0.568284
H	-0.606973	-1.80422	-1.828
N	1.17194	-1.3266	1.80423
C	2.20161	-1.21511	2.81097
H	0.625145	-2.15707	1.78402
H	2.23036	-2.12731	3.4468
H	2.01445	-0.335369	3.46847
H	3.20178	-1.08574	2.3376
C	6.70067	-0.506795	-1.77467
C	5.46517	-1.00647	-1.13044
O	5.08196	-2.15542	-1.30207
H	7.14312	-1.31489	-2.39682
H	7.43859	-0.202584	-1.00286
H	6.46813	0.361839	-2.42618
N	4.8028	-0.137557	-0.363208
C	3.56207	-0.464209	0.294392
C	2.75914	0.813416	0.451046
O	3.26001	1.90717	0.196991
H	5.10518	0.806359	-0.266016
H	2.98782	-1.13071	-0.336983
C	3.82178	-1.11284	1.67174
H	4.40182	-0.425266	2.32354
H	2.87428	-1.38165	2.18213
H	4.41743	-2.04152	1.53359
N	1.48255	0.702448	0.868203
C	0.640196	1.86295	1.04097
H	1.09371	-0.191531	1.06488
H	-0.373282	1.56493	1.38922
H	0.531921	2.41627	0.0800363
H	1.07886	2.55869	1.79242
