44
  This energy is -7.4883 and Call times are: 132827
C	0.610249	2.66682	2.15136
C	0.710633	1.23499	1.78955
O	1.4365	0.473691	2.41401
H	1.28333	2.87651	3.01093
H	-0.431982	2.91598	2.44191
H	0.915971	3.30089	1.29253
N	-0.027595	0.83168	0.752852
C	-0.00275812	-0.521484	0.255971
C	-0.328025	-0.487409	-1.22545
O	-0.715427	0.549068	-1.7615
H	-0.582217	1.47178	0.228897
H	0.998665	-0.920893	0.357241
C	-1.01766	-1.40588	1.01298
H	-2.04658	-1.00246	0.900645
H	-0.998249	-2.45355	0.648934
H	-0.765083	-1.40975	2.09582
N	-0.168681	-1.62693	-1.92697
C	-0.448304	-1.68839	-3.34268
H	0.149691	-2.45442	-1.47646
H	-0.256024	-2.71033	-3.73751
H	0.194363	-0.970101	-3.90153
H	-1.51268	-1.42874	-3.54473
C	3.47211	0.127232	-3.17139
C	3.59531	-0.465198	-1.82046
O	2.77775	-1.2763	-1.40801
H	2.55952	-0.27144	-3.66543
H	4.35799	-0.135787	-3.78685
H	3.38775	1.23206	-3.09849
N	4.63765	-0.0637262	-1.08919
C	4.86684	-0.518672	0.259526
C	5.61474	0.570338	1.00537
O	6.06259	1.54817	0.409558
H	5.27174	0.627885	-1.42305
H	3.9148	-0.65503	0.757168
C	5.67571	-1.83431	0.268013
H	6.6569	-1.6922	-0.233105
H	5.84684	-2.20226	1.30041
H	5.1133	-2.6145	-0.28997
N	5.76031	0.429006	2.3376
C	6.45262	1.41732	3.1314
H	5.38741	-0.367148	2.80253
H	6.46643	1.12128	4.2035
H	5.95182	2.40906	3.0481
H	7.5054	1.53207	2.78554
