44
  This energy is -3.1109 and Call times are: 130434
C	-0.390988	-3.29638	-1.04581
C	0.381916	-2.03622	-0.969858
O	1.55258	-1.98948	-1.32169
H	0.264435	-4.10646	-1.43319
H	-1.25534	-3.17442	-1.73193
H	-0.757362	-3.58197	-0.0371996
N	-0.26739	-0.969312	-0.498173
C	0.363622	0.315397	-0.325235
C	-0.338529	1.03842	0.808689
O	-1.37435	0.589718	1.29598
H	-1.20811	-1.03272	-0.177406
H	1.39409	0.169854	-0.0259124
C	0.289423	1.14595	-1.62521
H	-0.767852	1.30451	-1.92697
H	0.784122	2.132	-1.50905
H	0.802422	0.594219	-2.44299
N	0.218119	2.17849	1.263
C	-0.3761	2.93191	2.34256
H	1.0587	2.52354	0.858722
H	0.229552	3.83653	2.57074
H	-0.440645	2.31137	3.26561
H	-1.40665	3.25842	2.07331
C	6.67916	-2.81033	-1.24926
C	6.37356	-1.36219	-1.27488
O	7.0177	-0.591578	-1.97321
H	7.543	-3.01529	-1.91831
H	5.8032	-3.39265	-1.6047
H	6.94018	-3.12814	-0.217785
N	5.36733	-0.954175	-0.498083
C	4.98028	0.429957	-0.384384
C	4.37656	0.640785	0.99135
O	4.13557	-0.314801	1.72653
H	4.87898	-1.58716	0.0957996
H	5.86287	1.0541	-0.448429
C	3.96618	0.811432	-1.48498
H	3.05608	0.178502	-1.41315
H	3.6709	1.87851	-1.41661
H	4.42639	0.641693	-2.48285
N	4.12471	1.90745	1.37623
C	3.55598	2.20542	2.67004
H	4.33035	2.6678	0.769062
H	3.42487	3.30245	2.79878
H	4.21814	1.83356	3.48524
H	2.56097	1.71744	2.78383
