44
  This energy is -4.8908 and Call times are: 130594
C	2.55931	0.458979	2.31343
C	1.23378	0.802446	1.75115
O	0.465678	1.54388	2.3484
H	2.67928	0.955504	3.30083
H	3.36529	0.809138	1.63481
H	2.64359	-0.639677	2.45107
N	0.931393	0.259035	0.569779
C	-0.337432	0.465554	-0.0829036
C	-0.632507	-0.751543	-0.93915
O	0.221477	-1.61784	-1.11791
H	1.55034	-0.375104	0.115199
H	-1.11762	0.530444	0.665245
C	-0.310481	1.74364	-0.949519
H	0.482805	1.67314	-1.72396
H	-1.28622	1.92119	-1.44643
H	-0.0850268	2.62025	-0.303716
N	-1.86078	-0.84922	-1.48488
C	-2.23413	-1.97458	-2.30972
H	-2.53969	-0.140177	-1.32546
H	-3.28363	-1.87178	-2.66357
H	-2.14897	-2.92656	-1.73722
H	-1.56903	-2.04677	-3.20054
C	3.60597	2.67323	-1.38743
C	3.87766	1.22451	-1.25119
O	3.12315	0.390918	-1.73311
H	2.65654	2.81779	-1.94738
H	4.43026	3.16648	-1.94421
H	3.50642	3.13985	-0.38472
N	4.98009	0.88825	-0.577418
C	5.35411	-0.481133	-0.325527
C	6.15083	-0.524137	0.964808
O	6.51557	0.513344	1.51463
H	5.56256	1.57735	-0.155842
H	4.46041	-1.07321	-0.172693
C	6.18692	-1.04967	-1.49533
H	7.10915	-0.448904	-1.64574
H	6.46935	-2.10791	-1.31958
H	5.58729	-1.00097	-2.43042
N	6.43347	-1.73468	1.4851
C	7.18185	-1.87384	2.71259
H	6.12624	-2.56271	1.02787
H	7.31033	-2.947	2.97535
H	6.65463	-1.3678	3.55357
H	8.19158	-1.41406	2.6116
