44
  This energy is -2.9825 and Call times are: 129843
C	2.27186	1.17954	-2.35797
C	1.24961	0.209738	-1.90451
O	0.765576	-0.606931	-2.67599
H	2.46559	1.02896	-3.44225
H	3.21897	1.02667	-1.79907
H	1.91196	2.2178	-2.19802
N	0.891659	0.28169	-0.62035
C	-0.121442	-0.56643	-0.0433943
C	-0.766861	0.183063	1.10693
O	-0.297477	1.24628	1.50813
H	1.2647	0.978693	-0.0146312
H	-0.892929	-0.753197	-0.779979
C	0.488459	-1.89633	0.451188
H	1.27265	-1.70579	1.21458
H	-0.283972	-2.5639	0.88505
H	0.962018	-2.42392	-0.405404
N	-1.8713	-0.35395	1.66178
C	-2.55663	0.290848	2.75757
H	-2.23851	-1.21296	1.32072
H	-3.44092	-0.305263	3.07364
H	-2.90652	1.30568	2.4593
H	-1.87799	0.403379	3.63388
C	6.33017	3.37362	0.205628
C	6.23358	2.01729	0.79062
O	6.76957	1.74813	1.85677
H	6.94761	4.01686	0.869602
H	5.31896	3.82199	0.109873
H	6.80926	3.32556	-0.79499
N	5.53727	1.11778	0.0917557
C	5.39114	-0.253858	0.511057
C	5.21062	-1.11053	-0.727936
O	5.04321	-0.594657	-1.83137
H	5.14126	1.34079	-0.794416
H	6.3029	-0.577856	0.9972
C	4.1842	-0.414717	1.46114
H	3.24704	-0.0923645	0.959277
H	4.06937	-1.46406	1.80204
H	4.33407	0.226963	2.35675
N	5.24923	-2.44873	-0.573911
C	5.09243	-3.34368	-1.6967
H	5.38978	-2.84744	0.326286
H	5.15444	-4.40393	-1.36616
H	5.88908	-3.16583	-2.45499
H	4.10563	-3.18695	-2.18945
