44
  This energy is 0.1821 and Call times are: 138407
C	-1.4582	-1.90071	2.5246
C	-1.0388	-1.7035	1.11877
O	-1.04817	-2.62956	0.31957
H	-1.73453	-2.96634	2.67941
H	-2.33844	-1.26418	2.75426
H	-0.6256	-1.64183	3.21225
N	-0.652864	-0.470608	0.782007
C	-0.177187	-0.134142	-0.536735
C	0.790362	1.0273	-0.408486
O	0.923389	1.62114	0.659863
H	-0.611739	0.26334	1.45394
H	0.376606	-0.972146	-0.941327
C	-1.35122	0.239451	-1.46803
H	-1.91333	1.1058	-1.05874
H	-0.999118	0.487183	-2.49037
H	-2.05043	-0.622036	-1.54078
N	1.49904	1.3743	-1.50091
C	2.44755	2.46319	-1.47218
H	1.38061	0.879233	-2.35529
H	2.92853	2.59211	-2.46679
H	3.24567	2.2691	-0.719444
H	1.94177	3.41797	-1.20067
C	3.24495	-2.97016	1.8116
C	3.42624	-1.50528	1.70015
O	3.60565	-0.812373	2.69217
H	3.28441	-3.26468	2.88284
H	4.05316	-3.49858	1.26359
H	2.25995	-3.26676	1.39341
N	3.38018	-0.993651	0.467878
C	3.49699	0.418886	0.203968
C	2.73229	0.726936	-1.06957
O	2.28939	-0.179018	-1.77299
H	3.19253	-1.56508	-0.325919
H	3.02447	0.972378	1.00583
C	4.97798	0.832565	0.0597847
H	5.4604	0.272676	-0.769575
H	5.08185	1.92057	-0.129899
H	5.51981	0.590699	1.00014
N	2.55159	2.02273	-1.39249
C	1.83172	2.41185	-2.58267
H	2.91387	2.7417	-0.808608
H	1.79018	3.51975	-2.67258
H	0.787981	2.0231	-2.55514
H	2.32799	2.00436	-3.49306
