44
  This energy is -3.4608 and Call times are: 3603
C	2.00117	1.73633	-2.25681
C	1.43559	1.53455	-0.903831
O	1.86618	2.15152	0.060713
H	2.82736	2.47819	-2.20264
H	1.2189	2.11927	-2.94541
H	2.40315	0.778875	-2.65024
N	0.44214	0.648513	-0.801987
C	-0.179614	0.313503	0.454894
C	-0.691542	-1.11173	0.364306
O	-0.690376	-1.7144	-0.707371
H	0.130091	0.124136	-1.58908
H	0.565587	0.339279	1.24016
C	-1.33677	1.28521	0.774294
H	-2.10665	1.25137	-0.0258165
H	-1.81471	1.04618	1.74638
H	-0.940527	2.32274	0.827934
N	-1.13622	-1.68961	1.49759
C	-1.63678	-3.04441	1.50918
H	-1.12545	-1.18731	2.35588
H	-1.95421	-3.33762	2.53412
H	-0.850563	-3.75655	1.16861
H	-2.51267	-3.14566	0.828218
C	8.87605	-0.352042	-2.3681
C	8.18397	0.409891	-1.30431
O	8.68609	1.41219	-0.814719
H	9.85564	0.126809	-2.58484
H	8.26508	-0.356145	-3.29516
H	9.05239	-1.39727	-2.03721
N	6.99579	-0.0588164	-0.915822
C	6.22291	0.549763	0.138145
C	5.37835	-0.529453	0.78897
O	5.30428	-1.65367	0.296678
H	6.61879	-0.899031	-1.29499
H	6.89354	0.935361	0.895905
C	5.32616	1.67828	-0.416413
H	4.63074	1.28117	-1.18631
H	4.73626	2.16404	0.387683
H	5.96461	2.45269	-0.894962
N	4.72441	-0.212312	1.92378
C	3.90124	-1.17609	2.61639
H	4.79994	0.701427	2.30908
H	3.44905	-0.724855	3.52696
H	4.50625	-2.05885	2.92619
H	3.07818	-1.53577	1.95734
