44
  This energy is -2.9633 and Call times are: 3307
C	-1.48084	0.244475	-3.14007
C	-0.418606	0.592107	-2.16953
O	0.591657	1.18492	-2.52216
H	-1.17907	0.587715	-4.15348
H	-2.43274	0.742935	-2.86047
H	-1.63272	-0.855285	-3.16358
N	-0.626936	0.221988	-0.903832
C	0.334732	0.451987	0.145385
C	0.161352	-0.632538	1.19195
O	-0.791164	-1.40845	1.14303
H	-1.43549	-0.296034	-0.63972
H	1.3346	0.353515	-0.258603
C	0.140332	1.84856	0.775489
H	-0.881791	1.94637	1.19944
H	0.883789	2.04313	1.57545
H	0.263762	2.62593	-0.009879
N	1.08992	-0.716722	2.16494
C	1.01067	-1.7203	3.20066
H	1.85571	-0.0825121	2.18542
H	1.86569	-1.62604	3.90584
H	1.03167	-2.74297	2.75909
H	0.0649225	-1.61367	3.77974
C	6.4942	2.32337	-2.58726
C	6.86546	1.02625	-1.97834
O	7.43287	0.160359	-2.63002
H	6.79579	2.32652	-3.65725
H	7.01381	3.154	-2.06496
H	5.39618	2.47598	-2.52294
N	6.54535	0.860861	-0.692817
C	6.80317	-0.362607	0.0249613
C	5.76061	-0.497991	1.11871
O	4.99456	0.428458	1.37673
H	6.04701	1.55909	-0.186864
H	6.67803	-1.20345	-0.645817
C	8.22449	-0.358703	0.629191
H	8.34997	0.497708	1.32551
H	8.44014	-1.30134	1.17275
H	8.97048	-0.250704	-0.188229
N	5.70203	-1.66766	1.78538
C	4.73885	-1.89008	2.83847
H	6.3276	-2.40706	1.55951
H	4.84942	-2.91217	3.26312
H	3.70022	-1.78247	2.44995
H	4.87806	-1.15155	3.66086
