44
  This energy is -1.5874 and Call times are: 3756
C	-0.218533	3.28526	-1.12783
C	-0.695171	1.88423	-1.09503
O	-1.77007	1.56962	-1.58699
H	-0.981382	3.92114	-1.62742
H	0.733166	3.35254	-1.69571
H	-0.0594571	3.65965	-0.0945702
N	0.10786	0.997925	-0.501749
C	-0.23886	-0.393681	-0.354169
C	0.45249	-0.924248	0.88764
O	1.29011	-0.246743	1.48017
H	0.960921	1.27643	-0.0697913
H	-1.30589	-0.480651	-0.191351
C	0.186852	-1.20327	-1.59858
H	1.283	-1.12296	-1.75995
H	-0.0871311	-2.27394	-1.50304
H	-0.324864	-0.79262	-2.49628
N	0.108808	-2.15442	1.31726
C	0.709713	-2.7397	2.49308
H	-0.574015	-2.68576	0.826855
H	0.295821	-3.75461	2.68249
H	0.513858	-2.10836	3.38992
H	1.81313	-2.82859	2.36775
C	4.24417	2.92852	-0.524889
C	4.32776	1.45837	-0.3738
O	3.32013	0.777149	-0.243282
H	3.17875	3.24251	-0.478546
H	4.6676	3.23732	-1.50372
H	4.80244	3.42969	0.293787
N	5.55342	0.92925	-0.386192
C	5.79729	-0.480357	-0.207044
C	7.16929	-0.647252	0.418526
O	7.93013	0.311767	0.533004
H	6.36619	1.50102	-0.452176
H	5.07347	-0.882227	0.490959
C	5.72247	-1.22898	-1.55583
H	6.47203	-0.824109	-2.26877
H	5.89482	-2.31746	-1.42927
H	4.71276	-1.08647	-1.99914
N	7.5152	-1.87677	0.84822
C	8.79816	-2.12999	1.46145
H	6.88444	-2.63946	0.750642
H	8.89317	-3.20088	1.74676
H	8.92418	-1.5104	2.37879
H	9.62584	-1.87928	0.75914
