44
  This energy is -4.1853 and Call times are: 3631
C	-1.32208	-3.1383	-0.71825
C	-0.190084	-2.18764	-0.64092
O	0.965712	-2.56805	-0.766734
H	-0.928672	-4.16556	-0.879
H	-1.98832	-2.87195	-1.56555
H	-1.90264	-3.11984	0.228163
N	-0.503555	-0.907811	-0.426089
C	0.490763	0.126449	-0.283966
C	-0.0816185	1.21377	0.605788
O	-1.26611	1.19942	0.935164
H	-1.44643	-0.619821	-0.284941
H	1.3588	-0.279416	0.220434
C	0.885534	0.705098	-1.6604
H	-0.00274729	1.13107	-2.17376
H	1.66073	1.49288	-1.56551
H	1.29432	-0.109455	-2.29738
N	0.754854	2.18378	1.02463
C	0.300916	3.2567	1.87843
H	1.71093	2.17609	0.750899
H	1.13614	3.95285	2.11294
H	-0.0988963	2.8535	2.837
H	-0.510719	3.83691	1.38271
C	7.2376	3.14508	0.962858
C	6.35744	1.96782	1.13759
O	5.69336	1.81927	2.15413
H	7.18117	3.78385	1.87095
H	6.91103	3.74	0.0841271
H	8.28903	2.81863	0.817899
N	6.33503	1.08922	0.132624
C	5.56062	-0.12611	0.175026
C	6.25625	-1.16062	-0.689521
O	7.20496	-0.847368	-1.40613
H	6.91234	1.20314	-0.670868
H	5.54955	-0.507459	1.18847
C	4.12084	0.119353	-0.327004
H	4.13122	0.50061	-1.37035
H	3.5104	-0.805965	-0.286162
H	3.63382	0.885322	0.315216
N	5.80235	-2.42831	-0.63505
C	6.4054	-3.48142	-1.41829
H	5.03619	-2.66321	-0.0460838
H	5.89175	-4.45093	-1.23541
H	7.48147	-3.59978	-1.15496
H	6.33966	-3.24925	-2.50591
