44
  This energy is -1.7386 and Call times are: 3700
C	3.30269	-1.06449	-0.267954
C	2.21463	-0.10523	-0.563054
O	2.45011	0.982327	-1.07117
H	4.27692	-0.616437	-0.561225
H	3.15153	-2.00299	-0.841641
H	3.32555	-1.29498	0.818069
N	0.978073	-0.493573	-0.242897
C	-0.177688	0.347688	-0.430132
C	-1.21362	-0.0333075	0.610656
O	-1.06101	-1.02861	1.3162
H	0.806819	-1.36507	0.207685
H	0.0979531	1.37902	-0.248429
C	-0.754467	0.183968	-1.85342
H	-1.04718	-0.871871	-2.03662
H	-1.63659	0.836968	-2.01459
H	0.0231081	0.460513	-2.59858
N	-2.29515	0.760763	0.736279
C	-3.33053	0.480354	1.70351
H	-2.39895	1.56403	0.159171
H	-4.13414	1.24774	1.653
H	-2.91287	0.477731	2.73638
H	-3.78644	-0.518131	1.51294
C	6.48832	-3.38372	-0.633556
C	6.83221	-2.26499	0.27272
O	6.9102	-2.43116	1.48215
H	6.3164	-4.30332	-0.0330283
H	7.32021	-3.56942	-1.34505
H	5.56338	-3.14654	-1.20039
N	7.04672	-1.07955	-0.302702
C	7.34788	0.111577	0.451667
C	6.84426	1.30834	-0.332988
O	6.43775	1.17953	-1.48619
H	6.93938	-0.950836	-1.28442
H	6.80476	0.0881478	1.3882
C	8.86592	0.232624	0.70886
H	9.42275	0.267315	-0.251754
H	9.10922	1.13866	1.30082
H	9.21396	-0.657393	1.27726
N	6.85196	2.50741	0.281977
C	6.38636	3.70149	-0.384032
H	7.18081	2.59098	1.21683
H	6.47224	4.58473	0.286608
H	5.31925	3.59255	-0.685175
H	6.98578	3.89855	-1.30219
