44
  This energy is -2.7635 and Call times are: 3521
C	-2.66527	-0.316466	-2.21559
C	-1.64947	-0.895368	-1.30776
O	-1.69423	-2.0719	-0.975816
H	-3.40765	-1.09952	-2.48313
H	-2.1822	0.0531074	-3.14446
H	-3.19266	0.522485	-1.71448
N	-0.696157	-0.0655531	-0.877671
C	0.335717	-0.472099	0.0434774
C	0.764864	0.745421	0.840367
O	0.368583	1.86889	0.536249
H	-0.696505	0.899421	-1.12403
H	-0.073451	-1.18874	0.744648
C	1.54005	-1.07832	-0.709718
H	1.96675	-0.339938	-1.42159
H	2.3356	-1.40797	-0.0104591
H	1.20122	-1.96283	-1.29212
N	1.58434	0.547569	1.89172
C	2.04071	1.64566	2.71153
H	1.89101	-0.369364	2.12465
H	2.7053	1.27952	3.52485
H	1.17705	2.17447	3.17601
H	2.60871	2.38337	2.09972
C	8.83572	-2.56442	0.284486
C	7.44081	-2.07064	0.245029
O	6.49768	-2.84451	0.155312
H	8.83529	-3.67315	0.203414
H	9.31746	-2.27426	1.24182
H	9.4152	-2.14232	-0.563519
N	7.27769	-0.747176	0.310089
C	5.98364	-0.115483	0.239811
C	6.16424	1.2676	-0.356883
O	7.28746	1.73492	-0.534921
H	8.05706	-0.12794	0.341602
H	5.34818	-0.676897	-0.433709
C	5.33901	-0.0211318	1.64009
H	5.98557	0.563696	2.32856
H	4.3361	0.450967	1.5974
H	5.22376	-1.04393	2.06073
N	5.05387	1.95498	-0.689418
C	5.12777	3.27621	-1.26828
H	4.15386	1.55848	-0.541583
H	4.10911	3.6741	-1.47141
H	5.69296	3.25345	-2.22813
H	5.64781	3.97923	-0.578017
