44
  This energy is -1.972 and Call times are: 3237
C	0.664165	-3.33754	-0.729653
C	-0.0826519	-2.07881	-0.951003
O	-0.814714	-1.93935	-1.92108
H	0.449591	-4.04306	-1.56156
H	0.351267	-3.8049	0.227644
H	1.75569	-3.1352	-0.702581
N	0.0912474	-1.1177	-0.040836
C	-0.534395	0.177158	-0.143214
C	0.355066	1.18873	0.554733
O	1.32159	0.823548	1.2212
H	0.722119	-1.23111	0.721401
H	-0.592958	0.464179	-1.18572
C	-1.94106	0.162151	0.494211
H	-1.88043	-0.121996	1.56641
H	-2.43878	1.14988	0.409438
H	-2.5721	-0.590582	-0.0268774
N	0.0514256	2.49363	0.409558
C	0.844105	3.528	1.03239
H	-0.732203	2.76977	-0.137017
H	0.434314	4.53435	0.794597
H	1.89796	3.48496	0.67348
H	0.851179	3.40474	2.13959
C	8.31028	2.0326	1.69483
C	7.41411	0.856561	1.62425
O	7.43506	-0.00806012	2.48936
H	8.95018	1.95292	2.60039
H	7.71245	2.96604	1.75821
H	8.96199	2.07154	0.796587
N	6.59471	0.797153	0.571906
C	5.69578	-0.30662	0.343493
C	5.47512	-0.43524	-1.15195
O	5.88983	0.425273	-1.92605
H	6.61809	1.48785	-0.145209
H	6.163	-1.22349	0.680645
C	4.35227	-0.0837852	1.07189
H	3.86749	0.851263	0.718731
H	3.65648	-0.933381	0.915088
H	4.53871	0.0154889	2.16355
N	4.81922	-1.5256	-1.59571
C	4.56769	-1.73603	-3.00234
H	4.49487	-2.21299	-0.954332
H	4.01649	-2.68835	-3.16513
H	5.52532	-1.78398	-3.56973
H	3.95924	-0.902389	-3.42185
