44
  This energy is -2.7676 and Call times are: 3340
C	-0.626852	1.63188	3.00944
C	-1.05244	0.782666	1.87416
O	-2.11522	0.177475	1.89993
H	-1.39582	1.58593	3.81097
H	-0.515423	2.68577	2.67832
H	0.339874	1.26871	3.41766
N	-0.215723	0.716903	0.835914
C	-0.472081	-0.101543	-0.322958
C	0.862275	-0.508605	-0.919069
O	1.91116	-0.0116648	-0.513344
H	0.664517	1.18266	0.846914
H	-0.977901	-1.0082	-0.0151542
C	-1.31866	0.664487	-1.36303
H	-0.795427	1.58932	-1.68699
H	-1.53455	0.0401002	-2.25412
H	-2.28692	0.959317	-0.90271
N	0.853418	-1.4354	-1.89733
C	2.07518	-1.88861	-2.5203
H	-0.00495498	-1.82897	-2.20938
H	1.8593	-2.6515	-3.30045
H	2.75623	-2.34303	-1.7647
H	2.6107	-1.03776	-3.00032
C	4.37007	2.65109	1.78333
C	5.45815	1.6819	1.52274
O	6.55164	1.7987	2.0585
H	4.73536	3.43403	2.48291
H	3.50055	2.13584	2.24291
H	4.05383	3.13537	0.835419
N	5.1774	0.687709	0.67707
C	6.1471	-0.307313	0.292139
C	5.796	-0.796041	-1.1005
O	4.73784	-0.469167	-1.6345
H	4.29591	0.629218	0.217274
H	7.12642	0.15134	0.235675
C	6.15702	-1.48398	1.29244
H	5.15529	-1.96152	1.34289
H	6.90939	-2.25032	1.0146
H	6.40837	-1.10196	2.30595
N	6.68656	-1.58945	-1.72773
C	6.4409	-2.09817	-3.05703
H	7.53914	-1.8397	-1.28101
H	7.28977	-2.73023	-3.39932
H	6.31341	-1.26074	-3.78073
H	5.5137	-2.71546	-3.07653
