44
  This energy is -5.2703 and Call times are: 3369
C	0.690064	-0.337503	-3.39449
C	-0.106382	0.213515	-2.27503
O	-0.921009	1.10762	-2.4577
H	0.425299	0.197954	-4.33208
H	0.47158	-1.41836	-3.52396
H	1.77414	-0.200854	-3.1965
N	0.117568	-0.316271	-1.07023
C	-0.549134	0.145143	0.121897
C	0.36835	-0.105174	1.30389
O	1.39704	-0.765917	1.1738
H	0.8132	-1.01514	-0.930435
H	-0.702972	1.21488	0.0538381
C	-1.89622	-0.58432	0.318064
H	-1.7379	-1.68091	0.398509
H	-2.42575	-0.22787	1.2253
H	-2.54838	-0.3937	-0.562108
N	0.0185154	0.428259	2.49095
C	0.832658	0.247529	3.67022
H	-0.815503	0.963356	2.57554
H	0.377335	0.761896	4.54505
H	1.85333	0.664687	3.51058
H	0.936243	-0.834527	3.91428
C	3.18718	2.96739	0.736461
C	4.18049	1.91677	1.05378
O	4.99094	2.06429	1.95811
H	3.3388	3.83361	1.41656
H	2.15779	2.57585	0.877186
H	3.31259	3.30816	-0.31293
N	4.13959	0.814708	0.301331
C	5.06915	-0.275533	0.462092
C	5.22788	-0.963649	-0.880619
O	4.49709	-0.675242	-1.82638
H	3.50081	0.726465	-0.457639
H	6.0387	0.119533	0.738702
C	4.56788	-1.27544	1.52707
H	3.57804	-1.68898	1.23856
H	5.28175	-2.11239	1.67001
H	4.45139	-0.748472	2.49922
N	6.19946	-1.89015	-0.997423
C	6.42849	-2.59297	-2.23829
H	6.78338	-2.10695	-0.222109
H	7.27007	-3.31263	-2.1331
H	6.67928	-1.87733	-3.05453
H	5.51872	-3.15918	-2.54303
