44
  This energy is -0.5314 and Call times are: 3265
C	-2.04972	-2.59986	-1.07334
C	-1.70763	-1.51702	-0.123831
O	-2.50372	-1.14737	0.728235
H	-3.08569	-2.95005	-0.873323
H	-1.35122	-3.45373	-0.947842
H	-1.9921	-2.22578	-2.11729
N	-0.494716	-0.974606	-0.254243
C	-0.0348206	0.116699	0.568017
C	0.972582	0.920252	-0.232606
O	1.38938	0.50939	-1.3139
H	0.126744	-1.2582	-0.978968
H	-0.867522	0.772518	0.789695
C	0.604393	-0.406947	1.87279
H	1.46528	-1.07141	1.64608
H	0.950032	0.424331	2.52089
H	-0.148205	-0.998497	2.43849
N	1.38297	2.09703	0.280037
C	2.3354	2.93259	-0.413429
H	1.03128	2.4146	1.15441
H	2.54494	3.85683	0.168892
H	1.94281	3.22954	-1.41291
H	3.29591	2.38953	-0.567234
C	7.46563	-3.00125	-1.40346
C	6.45122	-2.17267	-0.713834
O	5.29923	-2.56232	-0.581514
H	6.99315	-3.94484	-1.75311
H	8.29379	-3.25052	-0.707205
H	7.87239	-2.45626	-2.2813
N	6.86447	-0.989524	-0.253658
C	5.98298	-0.0549849	0.400679
C	6.51146	1.3456	0.154412
O	7.61207	1.52119	-0.36474
H	7.79507	-0.668719	-0.405072
H	5.00092	-0.113388	-0.0518297
C	5.89927	-0.343547	1.91559
H	6.90496	-0.273395	2.38219
H	5.2127	0.360766	2.42851
H	5.51784	-1.37621	2.07196
N	5.72943	2.38163	0.516474
C	6.1466	3.74981	0.315924
H	4.84025	2.21951	0.931386
H	5.3669	4.45575	0.677789
H	6.32708	3.951	-0.764923
H	7.09154	3.95759	0.868241
