44
  This energy is -3.2256 and Call times are: 2625
C	-1.76967	-0.686304	2.91718
C	-0.60511	-0.87801	2.02376
O	0.388111	-1.485	2.3999
H	-1.55518	-1.14961	3.90471
H	-2.6697	-1.16899	2.48165
H	-1.9656	0.396896	3.0634
N	-0.703088	-0.353046	0.800165
C	0.364578	-0.42059	-0.166316
C	0.252298	0.785157	-1.08017
O	-0.729781	1.52328	-1.03112
H	-1.50146	0.173604	0.522486
H	1.31567	-0.349224	0.346483
C	0.286848	-1.72865	-0.983733
H	-0.684457	-1.79736	-1.51841
H	1.11181	-1.79893	-1.72199
H	0.363051	-2.59749	-0.294044
N	1.26744	1.01835	-1.93523
C	1.25084	2.1449	-2.839
H	2.05556	0.412176	-1.95737
H	2.17362	2.16471	-3.45974
H	1.18902	3.10217	-2.27235
H	0.370976	2.08946	-3.5201
C	4.67072	-2.88222	1.65715
C	4.40837	-1.71966	0.779215
O	3.36709	-1.62857	0.143718
H	3.81226	-3.58628	1.60061
H	4.79258	-2.54779	2.70884
H	5.59068	-3.41012	1.32839
N	5.36565	-0.79079	0.722564
C	5.27324	0.375425	-0.120026
C	6.68031	0.799458	-0.496747
O	7.65872	0.279779	0.0365104
H	6.22515	-0.898973	1.2139
H	4.75883	0.114185	-1.03641
C	4.53774	1.52339	0.605548
H	5.07089	1.7989	1.54037
H	4.44793	2.42248	-0.037956
H	3.51339	1.18814	0.878765
N	6.81467	1.7547	-1.43775
C	8.11449	2.21808	-1.86426
H	6.0112	2.1604	-1.86074
H	8.01508	3.00452	-2.64456
H	8.71157	1.37802	-2.28743
H	8.68066	2.64567	-1.00534
