44
  This energy is -1.8933 and Call times are: 2697
C	1.1994	1.93657	2.63131
C	0.453575	0.771157	2.10529
O	0.0884564	-0.132719	2.84428
H	1.35362	1.81072	3.72505
H	0.624971	2.87011	2.45445
H	2.18992	2.01268	2.13516
N	0.209355	0.766107	0.792774
C	-0.467609	-0.319798	0.128627
C	0.0244468	-0.377517	-1.30528
O	0.734921	0.515103	-1.76373
H	0.548619	1.4891	0.197758
H	-0.193232	-1.25445	0.601681
C	-1.99878	-0.121854	0.168112
H	-2.28169	0.831801	-0.326399
H	-2.53202	-0.958549	-0.327999
H	-2.33554	-0.0745101	1.22674
N	-0.338011	-1.44169	-2.04837
C	0.0871321	-1.58503	-3.42129
H	-0.909943	-2.15585	-1.65857
H	-0.313336	-2.52504	-3.86088
H	1.19895	-1.61313	-3.48728
H	-0.273658	-0.728762	-4.03592
C	7.40431	1.94687	2.66514
C	7.5785	1.36816	1.31387
O	8.4754	1.74757	0.573579
H	8.17447	2.73126	2.83082
H	7.52279	1.15806	3.43746
H	6.39766	2.40638	2.75777
N	6.70733	0.421594	0.956857
C	6.72295	-0.204346	-0.341799
C	5.30782	-0.637931	-0.674924
O	4.41729	-0.585063	0.171171
H	5.9577	0.152363	1.55471
H	7.02076	0.523926	-1.08581
C	7.67891	-1.41724	-0.358162
H	7.36765	-2.16945	0.397706
H	7.7103	-1.89949	-1.35664
H	8.70679	-1.07785	-0.103946
N	5.06531	-1.07188	-1.92748
C	3.74811	-1.49973	-2.33746
H	5.7979	-1.10358	-2.59933
H	3.75241	-1.81981	-3.40272
H	3.01266	-0.670617	-2.22362
H	3.40166	-2.35638	-1.71514
