44
  This energy is -0.7719 and Call times are: 2550
C	-1.93768	-2.88926	-0.101257
C	-1.76326	-1.43018	-0.279606
O	-2.61558	-0.754562	-0.839511
H	-2.9019	-3.20238	-0.557463
H	-1.952	-3.14371	0.979387
H	-1.10995	-3.43727	-0.598897
N	-0.633311	-0.904657	0.199378
C	-0.302455	0.491951	0.0630765
C	1.20902	0.619535	0.0364059
O	1.92711	-0.346542	0.286924
H	0.0694279	-1.4741	0.616225
H	-0.673706	0.855961	-0.886819
C	-0.894904	1.31546	1.22759
H	-0.506187	0.949233	2.20166
H	-0.658766	2.39461	1.12666
H	-2.00089	1.20095	1.23261
N	1.72956	1.82197	-0.278592
C	3.15679	2.03668	-0.334245
H	1.13236	2.5907	-0.482212
H	3.38561	3.08955	-0.610521
H	3.62568	1.36611	-1.09039
H	3.62516	1.82354	0.65386
C	7.80526	-1.85474	2.92469
C	7.71331	-1.71083	1.45432
O	7.53038	-2.68207	0.73345
H	7.70183	-2.92788	3.19587
H	6.99301	-1.27975	3.41702
H	8.7891	-1.48638	3.28446
N	7.84285	-0.473528	0.969881
C	7.81894	-0.181109	-0.441669
C	8.6554	1.06163	-0.681484
O	9.0762	1.72916	0.2614
H	8.03223	0.301367	1.56614
H	8.28663	-0.994119	-0.982873
C	6.37189	0.0365571	-0.935541
H	5.89517	0.877368	-0.387982
H	6.33901	0.248843	-2.02383
H	5.7762	-0.882321	-0.742795
N	8.92412	1.39763	-1.95855
C	9.71684	2.56048	-2.28343
H	8.57828	0.842741	-2.70793
H	9.82573	2.66688	-3.38527
H	10.7344	2.47945	-1.83691
H	9.23862	3.48539	-1.88721
