44
  This energy is -0.3809 and Call times are: 2522
C	-1.83271	2.95622	0.120906
C	-1.53163	1.58897	0.601648
O	-2.0254	1.15812	1.63459
H	-2.51742	3.45597	0.840148
H	-2.32532	2.91254	-0.873164
H	-0.897181	3.54946	0.0438758
N	-0.697879	0.865916	-0.149645
C	-0.277047	-0.465098	0.21072
C	1.10093	-0.701216	-0.378328
O	1.59458	0.102035	-1.16752
H	-0.271927	1.24503	-0.966164
H	-0.183135	-0.530805	1.28752
C	-1.27701	-1.52011	-0.31107
H	-1.36578	-1.46013	-1.41677
H	-0.971308	-2.54819	-0.0280463
H	-2.28001	-1.32315	0.126596
N	1.76102	-1.81312	0.00113908
C	3.0797	-2.11841	-0.502893
H	1.34684	-2.44908	0.643847
H	3.45356	-3.07376	-0.0730458
H	3.79857	-1.30966	-0.237545
H	3.06357	-2.21556	-1.6126
C	6.43116	-2.75954	-1.48015
C	6.57081	-1.29933	-1.28151
O	5.99757	-0.503385	-2.01245
H	5.77629	-2.94979	-2.35811
H	5.97331	-3.2258	-0.582536
H	7.42545	-3.21704	-1.66763
N	7.3518	-0.909862	-0.271185
C	7.61862	0.476723	0.0199187
C	8.9852	0.568575	0.672303
O	9.58811	-0.446098	1.01675
H	7.84436	-1.56923	0.289602
H	7.66582	1.03377	-0.907494
C	6.53417	1.06383	0.949717
H	6.49255	0.499292	1.90555
H	6.72087	2.13485	1.17012
H	5.54177	0.978827	0.455509
N	9.51188	1.79615	0.850238
C	10.8092	1.9813	1.45753
H	9.01068	2.60508	0.561267
H	11.0659	3.06206	1.51512
H	11.5981	1.46492	0.863932
H	10.8236	1.56183	2.48951
