44
  This energy is -0.2422 and Call times are: 3882
C	1.54692	-2.48116	-1.88774
C	0.753078	-1.23729	-1.7705
O	0.522641	-0.538933	-2.74805
H	1.86816	-2.61369	-2.94374
H	0.933829	-3.3563	-1.58609
H	2.44874	-2.42183	-1.24254
N	0.312224	-0.927562	-0.548986
C	-0.436155	0.272701	-0.269956
C	-0.166862	0.674456	1.16797
O	0.447736	-0.0732268	1.92623
H	0.542605	-1.48446	0.243894
H	-0.074499	1.07421	-0.901953
C	-1.94714	0.0455202	-0.494791
H	-2.32087	-0.769551	0.16097
H	-2.53289	0.96646	-0.296564
H	-2.11984	-0.255243	-1.55123
N	-0.616896	1.87743	1.57584
C	-0.402743	2.34691	2.92488
H	-1.10858	2.47014	0.946549
H	-0.846647	3.35716	3.06481
H	0.686434	2.40829	3.15115
H	-0.869765	1.65345	3.66118
C	6.0442	3.44751	-0.454545
C	6.41546	2.06614	-0.835501
O	6.98287	1.83215	-1.89366
H	6.34579	4.14574	-1.26534
H	6.56381	3.73886	0.482398
H	4.94618	3.52162	-0.306442
N	6.09535	1.10451	0.0335157
C	6.35317	-0.291694	-0.216845
C	5.31061	-1.10582	0.526003
O	4.54456	-0.569816	1.32449
H	5.59701	1.30591	0.871942
H	6.22803	-0.494242	-1.27322
C	7.77449	-0.681665	0.244708
H	7.89997	-0.4839	1.33061
H	7.99014	-1.75123	0.0446234
H	8.52048	-0.0680442	-0.306027
N	5.25203	-2.42792	0.271797
C	4.28885	-3.28172	0.927156
H	5.8776	-2.84273	-0.380632
H	4.39942	-4.33433	0.585069
H	3.25022	-2.94732	0.701995
H	4.42806	-3.25549	2.03218
