44
  This energy is -4.2243 and Call times are: 3728
C	2.39636	0.979716	-2.32601
C	1.3167	1.2841	-1.36017
O	1.09142	2.43241	-1.00377
H	2.91274	1.9227	-2.60885
H	1.97192	0.514232	-3.2403
H	3.13539	0.288576	-1.86857
N	0.615288	0.242657	-0.906519
C	-0.437524	0.375806	0.0693994
C	-0.518987	-0.91837	0.856816
O	0.122155	-1.90832	0.509473
H	0.837245	-0.69046	-1.17465
H	-0.180041	1.16251	0.767563
C	-1.78856	0.679477	-0.61451
H	-2.05828	-0.132459	-1.32306
H	-2.60471	0.797974	0.127359
H	-1.70332	1.62629	-1.19126
N	-1.309	-0.937467	1.94839
C	-1.44464	-2.12268	2.76267
H	-1.81679	-0.125263	2.21587
H	-2.13711	-1.93822	3.61337
H	-0.456736	-2.43084	3.17541
H	-1.8465	-2.96943	2.16045
C	3.0761	0.731078	1.74044
C	4.4813	0.268495	1.68942
O	5.1358	0.118357	2.71192
H	2.78673	0.910621	2.79868
H	2.40344	-0.0401805	1.30982
H	2.96413	1.67817	1.17163
N	4.98415	0.0308046	0.475737
C	6.34879	-0.382834	0.263161
C	6.78435	0.10843	-1.10451
O	5.97124	0.59769	-1.8863
H	4.45191	0.196875	-0.349489
H	6.98569	0.0966502	0.996023
C	6.48014	-1.91899	0.353842
H	5.83495	-2.41111	-0.404829
H	7.52878	-2.24901	0.205642
H	6.14861	-2.25692	1.35994
N	8.08895	-0.00387468	-1.42296
C	8.59644	0.44167	-2.69972
H	8.73241	-0.398722	-0.77556
H	9.69223	0.264422	-2.77091
H	8.40784	1.53086	-2.83895
H	8.09788	-0.10431	-3.53308
