44
  This energy is -1.7238 and Call times are: 3493
C	2.08576	1.08448	2.56636
C	1.07555	1.3356	1.51395
O	0.493576	2.40891	1.43838
H	2.17325	1.98407	3.21363
H	3.07423	0.875507	2.10595
H	1.77953	0.219848	3.19225
N	0.840232	0.331914	0.665645
C	-0.145128	0.411229	-0.3838
C	-0.654577	-0.990583	-0.66118
O	-0.112461	-1.96985	-0.152396
H	1.2922	-0.549966	0.765026
H	-0.987381	0.998261	-0.0393664
C	0.459728	1.0305	-1.66282
H	1.31723	0.42278	-2.02255
H	-0.292856	1.10975	-2.47391
H	0.833166	2.05263	-1.43448
N	-1.72172	-1.1186	-1.4741
C	-2.27966	-2.41262	-1.79096
H	-2.14932	-0.314178	-1.87303
H	-3.15186	-2.30841	-2.47334
H	-2.61898	-2.93141	-0.865219
H	-1.51959	-3.0571	-2.28902
C	5.48357	2.54501	2.09506
C	5.53048	1.86518	0.780988
O	4.75836	2.17024	-0.117445
H	4.66629	3.29859	2.08975
H	6.44658	3.06065	2.29376
H	5.28656	1.8069	2.90095
N	6.45279	0.910362	0.639381
C	6.59168	0.131399	-0.565808
C	7.15476	-1.22609	-0.189326
O	7.56256	-1.44485	0.949775
H	7.04699	0.645189	1.39335
H	5.61309	-0.0341418	-0.998915
C	7.51867	0.840526	-1.57728
H	8.52592	1.00113	-1.13717
H	7.6226	0.257215	-2.51508
H	7.09123	1.83481	-1.83231
N	7.18225	-2.17793	-1.14288
C	7.69527	-3.50133	-0.875306
H	6.84401	-1.98322	-2.05762
H	7.63257	-4.13871	-1.78473
H	7.11192	-3.99185	-0.0626666
H	8.76088	-3.45228	-0.554054
