44
  This energy is -7.8216 and Call times are: 3091
C	-2.95754	1.83437	-0.0275156
C	-1.49097	1.72891	0.143386
O	-0.789657	2.72792	0.224196
H	-3.24501	2.90697	-0.0799628
H	-3.47792	1.36452	0.833408
H	-3.27041	1.33212	-0.967172
N	-0.987495	0.493755	0.200747
C	0.424919	0.231069	0.321753
C	0.714553	-1.10782	-0.330197
O	-0.201736	-1.84136	-0.696331
H	-1.56628	-0.309452	0.0924037
H	0.976591	0.983535	-0.227869
C	0.858372	0.216607	1.80403
H	0.300285	-0.562309	2.36605
H	1.94656	0.0290517	1.90987
H	0.629783	1.20329	2.26289
N	2.00573	-1.45498	-0.498644
C	2.37756	-2.70745	-1.11448
H	2.7332	-0.846342	-0.199622
H	3.48419	-2.80875	-1.16263
H	1.97443	-2.77033	-2.1512
H	1.97154	-3.56694	-0.533466
C	7.16625	-1.10263	3.08818
C	7.39079	-0.625601	1.705
O	8.50631	-0.303861	1.31963
H	8.1293	-1.08615	3.64325
H	6.77625	-2.1421	3.07592
H	6.44064	-0.441893	3.60778
N	6.31566	-0.566669	0.915684
C	6.36874	-0.0824671	-0.441256
C	5.01492	0.509309	-0.785571
O	4.0567	0.37286	-0.0273451
H	5.40747	-0.793003	1.25601
H	7.09634	0.716829	-0.50712
C	6.72625	-1.22228	-1.42016
H	5.97432	-2.03783	-1.36058
H	6.7838	-0.859211	-2.46676
H	7.71675	-1.64565	-1.14447
N	4.90699	1.19242	-1.94217
C	3.65958	1.79532	-2.3504
H	5.69459	1.2956	-2.5406
H	3.77412	2.31198	-3.32875
H	3.31942	2.54249	-1.5972
H	2.86428	1.02195	-2.45305
