44
  This energy is 0.101 and Call times are: 18914
C	-3.2102	-1.14885	0.698195
C	-2.27707	-0.123181	0.180091
O	-2.68389	0.838735	-0.456802
H	-4.24758	-0.888156	0.395279
H	-3.15862	-1.1882	1.80659
H	-2.95365	-2.14537	0.280804
N	-0.982105	-0.311073	0.444908
C	0.0489335	0.578119	-0.0292827
C	1.32669	-0.22338	-0.192021
O	1.40187	-1.3793	0.220189
H	-0.662314	-1.12034	0.929351
H	-0.224203	0.951997	-1.00818
C	0.265066	1.74751	0.956137
H	0.555573	1.36493	1.95777
H	1.04696	2.44681	0.595392
H	-0.684682	2.31519	1.06597
N	2.36521	0.373976	-0.809018
C	3.61935	-0.312595	-1.01375
H	2.28391	1.30851	-1.13934
H	4.34682	0.345354	-1.53826
H	3.46939	-1.22947	-1.62866
H	4.06318	-0.619383	-0.039047
C	1.75732	2.00553	2.28592
C	2.25867	0.690687	1.82658
O	2.23664	-0.287056	2.56139
H	1.41232	1.91948	3.33922
H	0.904758	2.33203	1.65403
H	2.56728	2.76337	2.23385
N	2.73193	0.638777	0.579295
C	3.293	-0.559274	0.00620658
C	4.31826	-0.150438	-1.0346
O	4.43064	1.02405	-1.38053
H	2.78104	1.45256	0.00727965
H	3.81737	-1.11176	0.775895
C	2.19163	-1.43331	-0.63277
H	1.66036	-0.870514	-1.42968
H	2.60923	-2.3655	-1.06538
H	1.44843	-1.71401	0.145173
N	5.10068	-1.1165	-1.55475
C	6.10783	-0.820982	-2.54696
H	4.99763	-2.0605	-1.25925
H	6.64564	-1.74654	-2.84919
H	6.85391	-0.0972623	-2.14587
H	5.64488	-0.371776	-3.45527
