44
  This energy is -5.4999 and Call times are: 21740
C	0.644782	2.63021	-2.18607
C	0.592259	2.0495	-0.825502
O	1.09312	2.6275	0.129201
H	1.19781	3.59403	-2.15295
H	-0.382919	2.8183	-2.56183
H	1.17006	1.93809	-2.87755
N	-0.0246558	0.871527	-0.70645
C	-0.118392	0.1621	0.545143
C	-0.198733	-1.32233	0.242548
O	-0.342961	-1.72305	-0.910855
H	-0.391551	0.393966	-1.49967
H	0.786191	0.326157	1.11737
C	-1.35677	0.619074	1.34691
H	-2.2859	0.441251	0.764553
H	-1.43241	0.0900136	2.31897
H	-1.28052	1.70961	1.55007
N	-0.0980064	-2.17803	1.27872
C	-0.157907	-3.60829	1.08647
H	0.0224745	-1.83489	2.20436
H	-0.0561062	-4.14028	2.05799
H	0.661668	-3.94873	0.412922
H	-1.12842	-3.90259	0.62535
C	5.48319	-3.34169	0.813367
C	4.59506	-2.21446	0.450404
O	3.42718	-2.40353	0.139408
H	4.91853	-4.29568	0.730141
H	5.84111	-3.22587	1.85799
H	6.35469	-3.37882	0.126212
N	5.14001	-0.996063	0.480612
C	4.4138	0.193545	0.111829
C	5.40777	1.20848	-0.420637
O	6.61811	1.01259	-0.32899
H	6.10308	-0.862181	0.696088
H	3.72943	-0.041095	-0.693902
C	3.6476	0.76978	1.32267
H	4.35041	1.02049	2.14561
H	3.07326	1.67826	1.04823
H	2.93187	0.00742857	1.70066
N	4.91558	2.32056	-1.00118
C	5.78523	3.33934	-1.54152
H	3.93317	2.45935	-1.06966
H	5.19131	4.17348	-1.97591
H	6.43447	2.91718	-2.34249
H	6.44485	3.75547	-0.745983
