44
  This energy is 0.1014 and Call times are: 18637
C	3.39522	0.347934	0.681248
C	2.14048	0.805699	0.0431072
O	2.05677	1.91557	-0.464429
H	4.15491	1.15726	0.620058
H	3.7847	-0.550814	0.158463
H	3.2146	0.104641	1.74955
N	1.11938	-0.0542504	0.0574026
C	-0.177502	0.264334	-0.485896
C	-1.21828	-0.536354	0.273862
O	-0.882357	-1.41476	1.06586
H	1.19016	-0.938336	0.510447
H	-0.388808	1.31253	-0.3148
C	-0.238864	-0.0612998	-1.99435
H	-0.0325482	-1.1387	-2.16953
H	-1.22808	0.192554	-2.4274
H	0.536381	0.529688	-2.52921
N	-2.51523	-0.243343	0.054545
C	-3.5753	-0.948821	0.736253
H	-2.76725	0.473577	-0.587002
H	-4.57006	-0.563065	0.421801
H	-3.48387	-0.824189	1.8396
H	-3.5331	-2.03827	0.50722
C	1.0393	3.1439	0.6141
C	1.03838	1.67136	0.765012
O	0.303095	1.11811	1.57104
H	0.315735	3.58716	1.33232
H	0.738444	3.42306	-0.417552
H	2.05086	3.54971	0.82652
N	1.87929	0.993828	-0.0199818
C	2.02238	-0.439421	0.042282
C	3.43459	-0.792753	-0.384781
O	4.18026	0.0603941	-0.862098
H	2.50088	1.46116	-0.642134
H	1.90433	-0.765979	1.06797
C	0.990139	-1.13708	-0.8704
H	1.11768	-0.81037	-1.92446
H	1.08101	-2.24152	-0.820598
H	-0.0356689	-0.85798	-0.54458
N	3.83927	-2.06673	-0.213772
C	5.1678	-2.49423	-0.585827
H	3.22291	-2.74184	0.177888
H	5.30855	-3.57574	-0.367262
H	5.93773	-1.91958	-0.0216791
H	5.34316	-2.33045	-1.67375
