44
  This energy is -1.2263 and Call times are: 20469
C	-0.253667	1.51942	-3.12085
C	-0.843013	1.06191	-1.84237
O	-1.96998	1.40027	-1.50791
H	-0.977582	2.1825	-3.64253
H	-0.0298473	0.648684	-3.77237
H	0.680989	2.08772	-2.92971
N	-0.0787966	0.270305	-1.08626
C	-0.497934	-0.219583	0.20327
C	0.740788	-0.440156	1.0509
O	1.86398	-0.363089	0.556711
H	0.851945	0.0368745	-1.3529
H	-1.09538	0.537317	0.69601
C	-1.29771	-1.53313	0.0611058
H	-0.681622	-2.31319	-0.434851
H	-1.63797	-1.91315	1.04616
H	-2.19513	-1.34999	-0.569321
N	0.563166	-0.713338	2.35851
C	1.68312	-0.932607	3.24384
H	-0.353296	-0.767513	2.74092
H	1.33163	-1.14249	4.27807
H	2.34229	-0.0348815	3.27311
H	2.29366	-1.79808	2.89839
C	6.05452	-3.30307	0.97362
C	6.32848	-1.85321	1.09192
O	6.96459	-1.40412	2.03537
H	6.49149	-3.83199	1.84836
H	6.51254	-3.70458	0.0453106
H	4.9593	-3.4852	0.953898
N	5.84341	-1.0764	0.120502
C	5.99175	0.357672	0.120003
C	4.81538	0.954601	-0.629259
O	4.03376	0.236257	-1.24955
H	5.29254	-1.45172	-0.61945
H	5.9439	0.722102	1.13859
C	7.3233	0.774338	-0.542268
H	7.36839	0.409748	-1.59064
H	7.45568	1.87568	-0.536389
H	8.16965	0.319832	0.0176024
N	4.65721	2.29203	-0.581457
C	3.56375	2.94857	-1.25928
H	5.29767	2.85619	-0.0709508
H	3.60628	4.04865	-1.10036
H	2.58521	2.57693	-0.877665
H	3.60476	2.75053	-2.35484
