44
  This energy is 0.1008 and Call times are: 20782
C	-1.90209	2.24719	1.85605
C	-1.76847	1.19366	0.824849
O	-2.75284	0.643763	0.350468
H	-2.97831	2.39652	2.09125
H	-1.4797	3.20377	1.48284
H	-1.37024	1.94514	2.78287
N	-0.524904	0.883205	0.451292
C	-0.233529	-0.150952	-0.510051
C	1.13695	-0.719049	-0.192865
O	1.86241	-0.183943	0.643246
H	0.267908	1.31075	0.876166
H	-0.949952	-0.95517	-0.397791
C	-0.268071	0.408132	-1.94931
H	0.474123	1.22613	-2.06794
H	-0.0589011	-0.381599	-2.69971
H	-1.27753	0.82565	-2.15671
N	1.5214	-1.82959	-0.852347
C	2.80607	-2.44459	-0.612406
H	0.918863	-2.2505	-1.52232
H	2.93569	-3.34639	-1.25052
H	2.90076	-2.75325	0.453916
H	3.63163	-1.73205	-0.840163
C	2.13058	-2.54601	-1.52325
C	3.39535	-1.97977	-1.00277
O	4.39528	-2.67328	-0.877864
H	2.27189	-3.62843	-1.7336
H	1.83958	-2.03218	-2.46349
H	1.32108	-2.42856	-0.772261
N	3.37726	-0.68436	-0.680337
C	4.51811	-0.00279087	-0.121328
C	4.01159	1.13475	0.745284
O	2.82195	1.44533	0.744781
H	2.54429	-0.142791	-0.749066
H	5.05992	-0.683173	0.523758
C	5.4403	0.535684	-1.23706
H	4.88778	1.24186	-1.89286
H	6.32961	1.05057	-0.819294
H	5.79259	-0.312812	-1.86338
N	4.90852	1.78079	1.5161
C	4.51774	2.87241	2.3774
H	5.86608	1.51234	1.50599
H	5.39686	3.27183	2.92953
H	3.76073	2.53401	3.12151
H	4.0706	3.70162	1.78272
