44
  This energy is -4.4838 and Call times are: 21874
C	1.69761	0.680024	-2.96115
C	1.19068	-0.259633	-1.93586
O	1.20615	-1.46853	-2.12227
H	2.03981	0.105197	-3.84904
H	2.55322	1.2614	-2.55781
H	0.891591	1.37719	-3.27321
N	0.719968	0.285831	-0.811903
C	0.154166	-0.49686	0.258528
C	-0.866672	0.360395	0.982792
O	-0.972368	1.55972	0.733457
H	0.676245	1.2735	-0.691664
H	-0.374707	-1.3443	-0.159529
C	1.25256	-0.971929	1.23479
H	1.78844	-0.102601	1.67198
H	0.83125	-1.58731	2.05596
H	1.99259	-1.59062	0.681689
N	-1.65278	-0.241532	1.89699
C	-2.6562	0.492788	2.63189
H	-1.55514	-1.2138	2.082
H	-3.19797	-0.177614	3.33493
H	-3.39953	0.945646	1.93643
H	-2.18895	1.31493	3.22088
C	5.00336	-1.60794	-3.07676
C	5.67263	-1.37745	-1.77672
O	6.55415	-2.12556	-1.37715
H	5.42167	-2.52385	-3.54791
H	5.1751	-0.74497	-3.75391
H	3.91214	-1.74774	-2.92592
N	5.25917	-0.319072	-1.0758
C	5.78521	0.00953152	0.225684
C	4.70467	0.737985	1.00244
O	3.66666	1.09823	0.450659
H	4.51228	0.256991	-1.39543
H	6.00767	-0.904389	0.76223
C	7.04989	0.887597	0.10396
H	6.8198	1.83007	-0.437191
H	7.47243	1.1359	1.09911
H	7.82404	0.337875	-0.474696
N	4.92202	0.965327	2.31282
C	3.94806	1.64649	3.13355
H	5.76636	0.662652	2.7424
H	4.31056	1.73629	4.18129
H	2.98355	1.0889	3.14298
H	3.751	2.67052	2.74152
