44
  This energy is 0.1519 and Call times are: 20811
C	-3.07092	-0.740012	1.461
C	-2.21739	-0.488399	0.278071
O	-2.62246	-0.713177	-0.854098
H	-4.04812	-1.15227	1.12782
H	-3.24959	0.20697	2.0124
H	-2.58258	-1.4741	2.13608
N	-0.994607	-0.00998193	0.519516
C	-0.034974	0.244051	-0.526013
C	1.35548	0.0788492	0.0578586
O	1.5176	-0.0609397	1.2686
H	-0.664634	0.129233	1.44882
H	-0.148728	-0.500608	-1.30394
C	-0.213623	1.66439	-1.10563
H	-0.0865803	2.42919	-0.310021
H	0.510543	1.86715	-1.9211
H	-1.24049	1.76518	-1.52004
N	2.39716	0.0827689	-0.79707
C	3.75613	-0.073566	-0.333445
H	2.24565	0.193007	-1.77378
H	4.46873	-0.0437569	-1.18699
H	3.88166	-1.04683	0.194074
H	4.02529	0.741358	0.376904
C	2.93146	3.10684	-0.000942935
C	4.10015	2.23691	-0.262772
O	5.06247	2.64407	-0.898826
H	3.09747	4.09791	-0.476414
H	2.79841	3.25033	1.09197
H	2.01282	2.65252	-0.428456
N	4.03922	0.997228	0.229025
C	5.08018	0.0219985	0.0195444
C	4.44885	-1.3572	0.0478864
O	3.27677	-1.50644	0.388
H	3.23167	0.667359	0.709555
H	5.50701	0.161179	-0.965881
C	6.1729	0.139712	1.1046
H	5.73739	-0.0134532	2.11501
H	6.98713	-0.596828	0.946306
H	6.6154	1.15921	1.07073
N	5.21486	-2.40318	-0.319752
C	4.6983	-3.75198	-0.329262
H	6.15983	-2.26199	-0.595723
H	5.48015	-4.4702	-0.661081
H	3.82954	-3.83499	-1.02182
H	4.35783	-4.04967	0.688874
