44
  This energy is 0.1098 and Call times are: 16968
C	2.64597	2.24975	0.224023
C	1.87049	1.09528	0.730958
O	2.30162	0.390045	1.63273
H	3.61073	2.31356	0.772698
H	2.07911	3.19108	0.383129
H	2.85617	2.12364	-0.85903
N	0.689231	0.872749	0.150028
C	-0.159163	-0.237304	0.505794
C	-0.98072	-0.614196	-0.712627
O	-0.978831	0.0945642	-1.7173
H	0.370217	1.43097	-0.610553
H	0.456956	-1.09186	0.756331
C	-1.08188	0.130418	1.68842
H	-1.72165	1.00047	1.42813
H	-1.73041	-0.720708	1.98085
H	-0.459484	0.410396	2.56625
N	-1.70037	-1.75204	-0.653962
C	-2.50796	-2.19389	-1.76695
H	-1.68592	-2.31443	0.16615
H	-3.02233	-3.14986	-1.52455
H	-1.87672	-2.35493	-2.67077
H	-3.28194	-1.43278	-2.01757
C	4.14197	0.622849	-0.3319
C	5.48893	0.977838	0.168929
O	5.7144	2.07818	0.653513
H	3.46083	1.49167	-0.201343
H	3.73707	-0.240003	0.237565
H	4.19085	0.363445	-1.41051
N	6.43	0.0372932	0.0586462
C	7.79764	0.249931	0.462261
C	8.68592	-0.63468	-0.392132
O	8.1998	-1.4843	-1.13613
H	6.2413	-0.838966	-0.37543
H	8.0744	1.27699	0.25937
C	7.98804	-0.076559	1.95972
H	7.71428	-1.13313	2.16647
H	9.03404	0.0964835	2.28601
H	7.32274	0.576893	2.56529
N	10.018	-0.448188	-0.310502
C	10.9412	-1.23932	-1.09024
H	10.3924	0.247036	0.294177
H	11.9912	-0.935511	-0.883866
H	10.7466	-1.10988	-2.17957
H	10.8348	-2.32121	-0.846691
