44
  This energy is 0.1253 and Call times are: 20855
C	-3.31593	0.105171	1.05178
C	-2.28641	0.0698	-0.0112243
O	-2.58981	-0.12601	-1.17999
H	-4.31476	-0.0847765	0.602193
H	-3.32598	1.10142	1.54182
H	-3.10888	-0.678042	1.81126
N	-1.02383	0.25974	0.378881
C	0.091234	0.210549	-0.533685
C	1.31584	-0.240783	0.239749
O	1.28705	-0.335716	1.46526
H	-0.788231	0.37716	1.33939
H	-0.102568	-0.535097	-1.29466
C	0.337206	1.59188	-1.17918
H	0.546492	2.35505	-0.399556
H	1.18465	1.56375	-1.89442
H	-0.57443	1.90572	-1.73305
N	2.42523	-0.539425	-0.464586
C	3.63668	-0.982549	0.1852
H	2.42791	-0.460388	-1.45596
H	4.43564	-1.17807	-0.563564
H	3.4549	-1.92132	0.756993
H	4.00548	-0.21	0.898149
C	2.97925	-3.25919	-0.014017
C	2.78528	-1.79535	0.0894054
O	1.66657	-1.30137	0.0594569
H	1.99039	-3.75329	-0.131833
H	3.46728	-3.64644	0.905014
H	3.60888	-3.50038	-0.896325
N	3.89099	-1.05748	0.213271
C	3.86534	0.382394	0.281518
C	5.1728	0.906	-0.28237
O	6.09717	0.139182	-0.545489
H	4.79692	-1.47078	0.194913
H	3.06905	0.755828	-0.350213
C	3.67244	0.86238	1.73673
H	4.4948	0.488282	2.38312
H	3.63712	1.96926	1.80075
H	2.71364	0.460913	2.13154
N	5.27722	2.23342	-0.489901
C	6.48131	2.82187	-1.02846
H	4.51696	2.83736	-0.274656
H	6.37094	3.92446	-1.12519
H	6.70689	2.40254	-2.03571
H	7.35154	2.61329	-0.364883
