44
  This energy is -8.3544 and Call times are: 19948
C	-0.202757	3.23334	1.27164
C	0.573699	2.05349	0.82869
O	1.78553	2.11509	0.673535
H	0.483934	4.09831	1.39881
H	-0.698844	3.02259	2.24232
H	-0.970866	3.49284	0.51285
N	-0.120483	0.934317	0.609734
C	0.489441	-0.282534	0.134521
C	-0.551362	-1.05777	-0.651158
O	-1.72919	-0.705039	-0.654979
H	-1.11195	0.910932	0.70092
H	1.29233	-0.036351	-0.54914
C	1.02097	-1.12943	1.31159
H	0.195773	-1.39116	2.00771
H	1.5053	-2.06258	0.957786
H	1.77509	-0.539552	1.877
N	-0.135791	-2.13491	-1.3462
C	-1.05376	-2.93066	-2.12742
H	0.822045	-2.40227	-1.33412
H	-0.520972	-3.77104	-2.62454
H	-1.54033	-2.30984	-2.91425
H	-1.85397	-3.35669	-1.47988
C	5.2432	-2.28029	2.52204
C	4.89707	-0.918222	2.05716
O	4.5706	-0.043505	2.84754
H	5.13309	-2.33024	3.62713
H	6.29358	-2.52064	2.2543
H	4.56387	-3.0268	2.05911
N	4.95993	-0.706696	0.740461
C	4.61095	0.554125	0.134575
C	4.11108	0.280919	-1.27151
O	4.21003	-0.839299	-1.76852
H	5.18768	-1.43991	0.10612
H	3.79355	1.00147	0.686273
C	5.82694	1.5057	0.101615
H	6.66209	1.05166	-0.473209
H	5.56744	2.48506	-0.350098
H	6.18076	1.68519	1.14033
N	3.55093	1.30438	-1.94587
C	3.04207	1.13731	-3.28726
H	3.47606	2.20254	-1.52541
H	2.6208	2.09299	-3.66993
H	2.23815	0.366264	-3.30919
H	3.85312	0.810149	-3.97741
