44
  This energy is -0.0809 and Call times are: 16996
C	0.529455	-3.32454	-0.883059
C	0.973543	-2.05224	-0.270533
O	1.9902	-1.9971	0.407531
H	1.2383	-4.13396	-0.603307
H	0.509847	-3.23043	-1.98918
H	-0.484194	-3.59218	-0.517031
N	0.205781	-0.984084	-0.49847
C	0.484984	0.312975	0.0656608
C	-0.830245	1.05173	0.226807
O	-1.86909	0.599753	-0.250921
H	-0.640761	-1.05337	-1.0185
H	0.908465	0.188792	1.05454
C	1.44779	1.11253	-0.839296
H	1.00925	1.2493	-1.85074
H	1.68148	2.10784	-0.408849
H	2.40028	0.54956	-0.949653
N	-0.816666	2.20958	0.916171
C	-2.02102	2.979	1.12523
H	0.0330183	2.5571	1.29872
H	-1.80386	3.89702	1.71456
H	-2.77953	2.37883	1.67816
H	-2.46619	3.28478	0.150822
C	6.44959	-2.45407	-2.45977
C	5.6799	-1.62764	-1.50282
O	4.45738	-1.59715	-1.5333
H	5.74581	-2.96896	-3.14929
H	7.04251	-3.21838	-1.91478
H	7.13246	-1.81291	-3.05616
N	6.39207	-0.925597	-0.618322
C	5.78641	-0.0429662	0.347438
C	6.77706	1.06104	0.665814
O	7.93514	1.00529	0.256622
H	7.38789	-0.928881	-0.632368
H	4.91398	0.423585	-0.0928122
C	5.40045	-0.810779	1.63069
H	6.29683	-1.28082	2.08851
H	4.92047	-0.144784	2.37674
H	4.68124	-1.61858	1.37273
N	6.33877	2.10129	1.40188
C	7.2084	3.2008	1.74968
H	5.3971	2.13054	1.72042
H	6.66323	3.95645	2.35715
H	7.59494	3.70123	0.832379
H	8.08156	2.83982	2.33997
