44
  This energy is 0.1077 and Call times are: 19208
C	-2.23267	0.940316	2.49874
C	-1.88519	0.720726	1.0767
O	-2.74337	0.739735	0.205165
H	-3.33044	1.09036	2.58964
H	-1.71345	1.84266	2.88464
H	-1.9392	0.0575475	3.10511
N	-0.59601	0.501392	0.807848
C	-0.111091	0.228888	-0.522248
C	1.13416	-0.62969	-0.40503
O	1.65576	-0.836644	0.688965
H	0.0848144	0.448243	1.53278
H	-0.851693	-0.348857	-1.06109
C	0.204404	1.54062	-1.27395
H	0.971852	2.12874	-0.72699
H	0.56555	1.34454	-2.30432
H	-0.718975	2.15644	-1.3409
N	1.63725	-1.15947	-1.5374
C	2.81612	-1.99389	-1.52283
H	1.19885	-0.984033	-2.41267
H	3.07118	-2.33222	-2.55128
H	2.65189	-2.89472	-0.888172
H	3.68776	-1.4356	-1.11089
C	3.07415	1.70536	-2.81726
C	2.99404	1.37158	-1.37736
O	2.28024	2.01199	-0.617888
H	2.42655	2.58423	-3.02714
H	2.72474	0.847219	-3.42903
H	4.11998	1.95521	-3.09455
N	3.74006	0.344527	-0.963842
C	3.80005	-0.0717421	0.41517
C	5.15783	-0.702609	0.660158
O	5.92129	-0.936961	-0.274674
H	4.34729	-0.141119	-1.58615
H	3.72895	0.799255	1.05465
C	2.6708	-1.07453	0.738372
H	2.74954	-1.97298	0.0898204
H	2.69783	-1.39201	1.80091
H	1.68689	-0.594302	0.544323
N	5.49501	-0.98596	1.93375
C	6.7685	-1.58219	2.26375
H	4.86557	-0.785238	2.67711
H	6.85749	-1.73717	3.36161
H	7.60655	-0.926622	1.9333
H	6.88284	-2.56912	1.75972
