44
  This energy is 0.1395 and Call times are: 21769
C	2.91213	-1.04003	1.59702
C	2.19916	-0.44713	0.443215
O	2.80909	0.105417	-0.461819
H	4.00474	-0.871876	1.47948
H	2.71982	-2.13247	1.64547
H	2.57473	-0.563275	2.54146
N	0.868026	-0.549	0.452072
C	0.0347115	0.0164079	-0.579655
C	-1.31103	0.356382	0.0326699
O	-1.59396	-0.00667002	1.17278
H	0.38328	-0.965564	1.21585
H	0.474715	0.943137	-0.926355
C	-0.138615	-0.973002	-1.7528
H	-0.599678	-1.91994	-1.39957
H	-0.767003	-0.54389	-2.55996
H	0.85919	-1.21376	-2.18032
N	-2.17413	1.07373	-0.713322
C	-3.47576	1.44887	-0.212112
H	-1.92558	1.36188	-1.63216
H	-4.03619	2.03531	-0.973187
H	-3.37841	2.07046	0.707359
H	-4.07383	0.544577	0.0442242
C	6.13407	-0.941874	2.62341
C	5.21231	-1.26439	1.51098
O	5.08328	-2.41229	1.10839
H	6.64177	-1.87148	2.96095
H	5.56858	-0.511221	3.47635
H	6.9026	-0.215234	2.28513
N	4.54159	-0.23945	0.979919
C	3.64122	-0.389705	-0.136016
C	3.62079	0.916991	-0.906536
O	4.16864	1.92176	-0.457094
H	4.68791	0.695176	1.29124
H	4.02368	-1.15182	-0.803492
C	2.22062	-0.755916	0.346724
H	1.82363	0.0307572	1.02318
H	1.52118	-0.887968	-0.504079
H	2.26084	-1.71097	0.914689
N	2.99075	0.930696	-2.0977
C	2.92464	2.12714	-2.90412
H	2.55685	0.106618	-2.44656
H	2.36532	1.93591	-3.84636
H	3.94791	2.47912	-3.16928
H	2.41041	2.9461	-2.35093
