44
  This energy is 0.1106 and Call times are: 19270
C	-0.643742	-0.0358347	-3.42009
C	-1.02743	-0.318954	-2.01874
O	-2.17022	-0.645233	-1.72893
H	-1.53378	-0.154034	-4.07563
H	0.143705	-0.744731	-3.75196
H	-0.266268	1.00454	-3.51077
N	-0.0636777	-0.195759	-1.10312
C	-0.294828	-0.396316	0.305752
C	0.694347	0.459835	1.07393
O	1.61186	1.03669	0.493307
H	0.851525	0.110398	-1.34916
H	-1.28815	-0.0466644	0.558109
C	-0.131885	-1.88451	0.685188
H	0.890388	-2.24087	0.436191
H	-0.320959	-2.05408	1.76501
H	-0.85993	-2.49291	0.105407
N	0.524012	0.569211	2.40624
C	1.4127	1.36664	3.21896
H	-0.226739	0.0982697	2.85752
H	1.10696	1.33034	4.2878
H	1.40055	2.43006	2.88688
H	2.45909	0.992406	3.14048
C	1.55582	0.910932	-2.07154
C	2.11095	0.560025	-0.744948
O	1.45729	0.71851	0.276825
H	0.531611	1.32381	-1.94355
H	1.50137	0.00755695	-2.71473
H	2.19302	1.6763	-2.56272
N	3.35238	0.0690167	-0.732125
C	4.04244	-0.27772	0.485306
C	5.53149	-0.10797	0.249744
O	5.97001	0.108386	-0.878351
H	3.88686	-0.0158373	-1.56818
H	3.75838	0.415862	1.26689
C	3.72283	-1.72881	0.906515
H	4.02373	-2.44162	0.109394
H	4.23736	-2.00326	1.85015
H	2.62721	-1.83189	1.06569
N	6.34751	-0.194497	1.31869
C	7.77807	-0.0408589	1.19199
H	5.97361	-0.366009	2.22415
H	8.27401	-0.14506	2.18215
H	8.03022	0.962109	0.777553
H	8.19714	-0.812846	0.506744
