44
  This energy is 0.1169 and Call times are: 19437
C	-2.46224	1.87207	1.59543
C	-1.97434	1.06085	0.457451
O	-2.73836	0.667789	-0.413287
H	-3.56113	2.01214	1.5022
H	-1.97157	2.86806	1.5936
H	-2.2459	1.35542	2.55427
N	-0.667897	0.786396	0.441286
C	-0.0535218	-0.0275903	-0.577796
C	1.15995	-0.707552	0.0277547
O	1.56355	-0.396028	1.14658
H	-0.0657831	1.07878	1.17874
H	-0.743765	-0.806392	-0.877236
C	0.357252	0.829431	-1.79518
H	1.07352	1.62197	-1.49041
H	0.818989	0.211897	-2.59266
H	-0.544923	1.32372	-2.21721
N	1.76823	-1.665	-0.699783
C	2.92655	-2.37049	-0.203026
H	1.42449	-1.90606	-1.60134
H	3.2804	-3.11821	-0.946609
H	2.68448	-2.90534	0.743866
H	3.75983	-1.66081	0.004668
C	-0.572676	-0.562859	-0.285025
C	0.710569	-0.677088	0.443941
O	0.745897	-1.04857	1.60892
H	-1.40723	-0.840896	0.394729
H	-0.578273	-1.247	-1.15948
H	-0.724201	0.481124	-0.631741
N	1.8114	-0.352054	-0.237907
C	3.12797	-0.371747	0.349304
C	3.98086	0.65823	-0.367141
O	3.57161	1.2188	-1.38202
H	1.76285	-0.0122195	-1.17279
H	3.06085	-0.0694912	1.38697
C	3.76256	-1.77504	0.233946
H	3.84131	-2.08118	-0.831006
H	4.77106	-1.80671	0.694864
H	3.11772	-2.51366	0.758308
N	5.19181	0.938579	0.153448
C	6.07065	1.9089	-0.456705
H	5.5038	0.477622	0.977617
H	7.01821	1.99808	0.118993
H	5.58567	2.91135	-0.490869
H	6.32108	1.61079	-1.50053
