44
  This energy is 0.3272 and Call times are: 19239
C	-3.31614	-0.101891	-1.05145
C	-2.28126	0.166645	-0.0277011
O	-2.55484	0.753512	1.01016
H	-4.28691	0.320223	-0.711902
H	-3.4324	-1.196	-1.20029
H	-3.03446	0.374073	-2.01436
N	-1.04774	-0.262935	-0.30388
C	0.0726268	-0.0378042	0.575126
C	1.33201	0.0189856	-0.268844
O	1.30483	-0.278592	-1.4615
H	-0.832085	-0.702846	-1.17097
H	-0.0379138	0.926676	1.05491
C	0.178963	-1.15925	1.63168
H	0.302966	-2.14773	1.14019
H	1.02963	-0.989967	2.32322
H	-0.756425	-1.18762	2.23217
N	2.47109	0.413588	0.33349
C	3.71738	0.503301	-0.391008
H	2.47234	0.654263	1.29845
H	4.53735	0.845903	0.27794
H	3.62967	1.22455	-1.23562
H	3.99953	-0.488777	-0.812097
C	5.57854	-2.10217	-2.67827
C	5.9622	-1.87448	-1.26685
O	5.97789	-2.793	-0.459075
H	5.31754	-3.17349	-2.81969
H	6.42421	-1.84649	-3.35074
H	4.69696	-1.47991	-2.94034
N	6.28327	-0.622147	-0.93375
C	6.63576	-0.237532	0.410265
C	6.25061	1.21723	0.602333
O	5.88442	1.90282	-0.350334
H	6.22621	0.122314	-1.59282
H	6.05382	-0.820763	1.11298
C	8.14653	-0.435532	0.662497
H	8.74392	0.170768	-0.0513389
H	8.42807	-0.15592	1.69839
H	8.40718	-1.50544	0.508556
N	6.31698	1.72214	1.85
C	5.96461	3.09463	2.12975
H	6.6117	1.15066	2.60871
H	6.08437	3.31851	3.2127
H	4.90594	3.29409	1.84563
H	6.6141	3.79251	1.55332
