44
  This energy is -2.3919 and Call times are: 21298
C	0.146892	0.206088	3.47111
C	0.497212	-0.443996	2.18822
O	1.35343	-1.31595	2.13351
H	0.780491	-0.215431	4.28152
H	-0.920063	0.020113	3.71558
H	0.325992	1.30013	3.40718
N	-0.167768	-0.0244065	1.10928
C	0.0928269	-0.531693	-0.214848
C	-0.248286	0.557522	-1.21425
O	-0.819634	1.58529	-0.855125
H	-0.832877	0.71492	1.16307
H	1.15038	-0.74182	-0.315165
C	-0.740473	-1.80195	-0.49288
H	-1.8259	-1.58439	-0.400434
H	-0.538322	-2.21014	-1.50433
H	-0.480299	-2.58253	0.255015
N	0.104502	0.359462	-2.49969
C	-0.174007	1.343	-3.52011
H	0.569813	-0.476799	-2.77029
H	0.193337	0.996347	-4.51113
H	0.32465	2.30997	-3.28016
H	-1.26961	1.52948	-3.59769
C	5.6053	3.32337	0.394177
C	4.72999	2.27873	-0.183513
O	3.69866	2.57167	-0.772544
H	5.15491	4.32294	0.210161
H	6.60817	3.28808	-0.0809476
H	5.70981	3.17241	1.48933
N	5.12851	1.01477	-0.0223705
C	4.3608	-0.111873	-0.491246
C	4.66216	-1.29646	0.407374
O	5.56398	-1.24101	1.24126
H	5.94932	0.790096	0.494979
H	3.30533	0.108595	-0.391228
C	4.70805	-0.443585	-1.95911
H	5.78871	-0.680128	-2.06042
H	4.11333	-1.30072	-2.33616
H	4.48711	0.439835	-2.59715
N	3.90279	-2.40027	0.262578
C	4.11263	-3.57433	1.07727
H	3.17507	-2.42467	-0.414849
H	3.38865	-4.37459	0.807697
H	3.98122	-3.33196	2.15675
H	5.1437	-3.97181	0.935725
