44
  This energy is -3.4037 and Call times are: 17355
C	-2.07087	0.598627	-2.73237
C	-0.906144	-0.060198	-2.09951
O	-0.313146	-0.971915	-2.65946
H	-2.27565	0.11882	-3.71406
H	-1.85874	1.67607	-2.89626
H	-2.96799	0.492783	-2.08656
N	-0.549086	0.393865	-0.895888
C	0.536589	-0.175388	-0.137059
C	0.24204	0.0298413	1.33694
O	-0.694588	0.739215	1.6992
H	-1.0668	1.1091	-0.43515
H	0.573965	-1.24324	-0.312906
C	1.8806	0.483493	-0.517527
H	1.84636	1.57744	-0.327405
H	2.72637	0.0440925	0.0500368
H	2.07176	0.327722	-1.60175
N	1.03603	-0.597981	2.22657
C	0.828508	-0.466124	3.64985
H	1.78639	-1.17107	1.91414
H	1.58302	-1.05769	4.21375
H	-0.185576	-0.829478	3.93425
H	0.913496	0.599828	3.96237
C	6.56795	-0.264346	3.38425
C	6.01873	0.476773	2.22655
O	5.37336	1.50439	2.38121
H	6.27773	0.254444	4.32365
H	7.67585	-0.303542	3.32287
H	6.16226	-1.29783	3.4044
N	6.26555	-0.0393188	1.02027
C	5.76081	0.545005	-0.197248
C	5.59015	-0.563669	-1.21866
O	6.0193	-1.69458	-0.998245
H	6.75749	-0.898569	0.912846
H	4.78066	0.96633	-0.0117081
C	6.72402	1.62841	-0.729888
H	7.72676	1.19439	-0.93037
H	6.33971	2.09563	-1.65969
H	6.84017	2.42525	0.0368451
N	4.94713	-0.264592	-2.36456
C	4.73306	-1.25662	-3.39229
H	4.60345	0.65511	-2.52302
H	4.18655	-0.816936	-4.25556
H	4.13521	-2.10942	-2.9966
H	5.7052	-1.65774	-3.75999
