44
  This energy is -4.1546 and Call times are: 20202
C	-1.35959	0.46088	3.17046
C	-1.17367	0.870159	1.76011
O	-1.86085	1.7503	1.26058
H	-2.18611	1.05376	3.61904
H	-0.429812	0.645926	3.7484
H	-1.62004	-0.617217	3.22491
N	-0.224781	0.227053	1.07571
C	0.0439653	0.484758	-0.317098
C	0.59265	-0.786979	-0.936117
O	0.892472	-1.7507	-0.233931
H	0.298564	-0.515325	1.48419
H	-0.885062	0.715216	-0.823485
C	1.05123	1.64422	-0.479273
H	2.00819	1.40384	0.0311072
H	1.25582	1.86149	-1.54766
H	0.632411	2.56225	-0.0121954
N	0.729389	-0.821547	-2.27632
C	1.23815	-1.99102	-2.95431
H	0.477561	-0.0332906	-2.82796
H	1.27516	-1.82349	-4.0533
H	0.588076	-2.87385	-2.75607
H	2.26669	-2.23351	-2.60156
C	5.90452	2.84912	-1.9341
C	6.17848	1.43219	-1.60484
O	6.81459	0.716897	-2.3665
H	6.34149	3.08623	-2.92843
H	6.36254	3.51448	-1.17235
H	4.8093	3.02859	-1.97083
N	5.69341	0.988442	-0.442864
C	5.84175	-0.37723	-0.00526983
C	4.66538	-0.71737	0.890287
O	3.88376	0.155862	1.2621
H	5.14254	1.57145	0.147472
H	5.7939	-1.03479	-0.864305
C	7.1733	-0.572201	0.752489
H	7.21839	0.0945951	1.63984
H	7.30568	-1.62293	1.08259
H	8.01965	-0.309978	0.0807236
N	4.50721	-2.00572	1.25242
C	3.41375	-2.42442	2.09812
H	5.14767	-2.69865	0.938171
H	3.45628	-3.52058	2.28207
H	2.43521	-2.18678	1.62137
H	3.45476	-1.90186	3.08117
