44
  This energy is 0.1077 and Call times are: 18794
C	-3.2238	0.594202	-1.16907
C	-2.032	0.979365	-0.380152
O	-1.91794	2.10464	0.085849
H	-3.9078	1.46674	-1.25089
H	-3.7615	-0.238251	-0.668429
H	-2.9213	0.2778	-2.1896
N	-1.10117	0.0370584	-0.212796
C	0.132524	0.274951	0.494281
C	1.19037	-0.651323	-0.0753986
O	0.887636	-1.54084	-0.868385
H	-1.18939	-0.861654	-0.632799
H	0.459868	1.29055	0.309818
C	-0.0434589	0.0293228	2.00886
H	-0.369101	-1.01553	2.19932
H	0.896001	0.222603	2.56615
H	-0.82765	0.712164	2.40271
N	2.46623	-0.456816	0.31237
C	3.54108	-1.28567	-0.181488
H	2.69213	0.270764	0.951642
H	4.51427	-0.968186	0.253623
H	3.61355	-1.21506	-1.29101
H	3.36883	-2.35334	0.0859759
C	5.5365	-1.74341	2.01776
C	4.24159	-1.62083	1.31111
O	3.49243	-2.58044	1.19149
H	5.66992	-2.79245	2.36065
H	5.5554	-1.07135	2.90135
H	6.37152	-1.47955	1.33498
N	3.94677	-0.416033	0.817212
C	2.74353	-0.152257	0.0680884
C	3.02634	0.984258	-0.89624
O	4.07646	1.62026	-0.829492
H	4.58515	0.345193	0.886975
H	2.49347	-1.02342	-0.5245
C	1.57631	0.21496	1.01042
H	1.82821	1.11489	1.61103
H	0.640554	0.406856	0.446465
H	1.39225	-0.627598	1.71225
N	2.09219	1.26153	-1.8271
C	2.27643	2.32178	-2.79047
H	1.25063	0.733138	-1.86792
H	1.39882	2.3924	-3.47021
H	3.18467	2.1372	-3.4088
H	2.40201	3.30228	-2.27667
