44
  This energy is 0.1043 and Call times are: 21903
C	-2.75738	2.12357	-0.00395574
C	-2.14756	0.779789	0.112293
O	-2.79754	-0.178283	0.50729
H	-3.81664	2.07635	0.330109
H	-2.72838	2.46699	-1.0594
H	-2.21087	2.84845	0.635554
N	-0.861923	0.679605	-0.233378
C	-0.120098	-0.552553	-0.133173
C	1.33937	-0.208545	0.0974274
O	1.73486	0.952054	0.00626553
H	-0.335095	1.47681	-0.514059
H	-0.461798	-1.10584	0.732706
C	-0.2809	-1.39911	-1.41486
H	0.0792899	-0.835934	-2.30206
H	0.274454	-2.3568	-1.34451
H	-1.35725	-1.63227	-1.56805
N	2.17711	-1.21612	0.412065
C	3.58185	-0.983447	0.654473
H	1.83765	-2.14805	0.485219
H	4.10183	-1.93593	0.898649
H	3.72206	-0.279243	1.50636
H	4.06747	-0.539047	-0.244312
C	1.55461	-0.986793	2.03493
C	2.79964	-0.222922	1.79499
O	3.18135	0.629665	2.58481
H	1.08533	-0.636788	2.97998
H	1.78164	-2.0698	2.126
H	0.84108	-0.827907	1.19905
N	3.46973	-0.515914	0.678064
C	4.67474	0.172299	0.287076
C	4.7673	0.140956	-1.22687
O	3.99254	-0.544761	-1.89113
H	3.12483	-1.1836	0.0245368
H	4.60531	1.2112	0.584559
C	5.91833	-0.490161	0.919428
H	5.99584	-1.55311	0.606112
H	6.85145	0.0390576	0.637046
H	5.8253	-0.463046	2.02711
N	5.71927	0.895095	-1.81085
C	5.87916	0.932775	-3.24583
H	6.33417	1.44647	-1.2568
H	6.7143	1.60994	-3.53083
H	4.94795	1.29957	-3.73531
H	6.10069	-0.0840575	-3.64348
