44
  This energy is 0.1024 and Call times are: 20676
C	-2.92658	-1.85124	0.347484
C	-2.20321	-0.614754	-0.0253126
O	-2.7621	0.285868	-0.635992
H	-3.97138	-1.79285	-0.0278082
H	-2.94719	-1.96439	1.4518
H	-2.431	-2.73581	-0.105333
N	-0.920649	-0.544875	0.338756
C	-0.0755181	0.575911	0.00988957
C	1.35384	0.0773173	-0.089616
O	1.64796	-1.06499	0.25727
H	-0.46864	-1.30335	0.799488
H	-0.352371	0.95822	-0.964699
C	-0.189001	1.68481	1.07886
H	0.105022	1.29593	2.07704
H	0.44658	2.55919	0.829836
H	-1.24455	2.02892	1.14007
N	2.2797	0.926359	-0.577402
C	3.66417	0.538011	-0.713794
H	2.02171	1.84533	-0.856702
H	4.26745	1.37327	-1.13288
H	3.76084	-0.339514	-1.39341
H	4.09298	0.25744	0.275421
C	6.32203	0.799743	1.52988
C	4.86608	0.989594	1.34194
O	4.21242	1.67688	2.11446
H	6.64896	1.34568	2.44143
H	6.87612	1.1983	0.654155
H	6.55436	-0.278962	1.65434
N	4.31743	0.371362	0.29353
C	2.90595	0.426817	0.00508468
C	2.52162	-0.847295	-0.723272
O	3.38244	-1.63324	-1.11441
H	4.85511	-0.217847	-0.302787
H	2.35177	0.446352	0.935204
C	2.56657	1.66482	-0.853637
H	3.12686	1.63991	-1.81254
H	1.4805	1.72631	-1.07088
H	2.86353	2.58494	-0.304524
N	1.20936	-1.08601	-0.915622
C	0.748865	-2.2752	-1.59382
H	0.527522	-0.440249	-0.588278
H	-0.361811	-2.28934	-1.65242
H	1.08295	-3.19012	-1.05291
H	1.15543	-2.31903	-2.63013
