44
  This energy is 0.1093 and Call times are: 21452
C	-3.24406	-1.25102	0.153894
C	-2.22972	-0.323432	-0.395494
O	-2.46357	0.356111	-1.38542
H	-4.15856	-1.21075	-0.476948
H	-3.50971	-0.956965	1.19106
H	-2.85257	-2.29017	0.153297
N	-1.05952	-0.276454	0.245437
C	0.0397692	0.54566	-0.195315
C	1.33184	-0.11726	0.243606
O	1.31722	-1.0847	1.00227
H	-0.86964	-0.865809	1.02548
H	0.0472582	0.581888	-1.27756
C	-0.0654785	1.96955	0.393503
H	-0.0625768	1.93371	1.50379
H	0.767829	2.61637	0.050376
H	-1.02194	2.43239	0.0659086
N	2.48682	0.386786	-0.233871
C	3.76517	-0.182078	0.12446
H	2.47813	1.16746	-0.849941
H	4.59414	0.371201	-0.369409
H	3.82139	-1.24996	-0.188187
H	3.92062	-0.13642	1.22668
C	-0.220668	1.07019	1.10855
C	0.738109	0.747085	0.0280366
O	0.375429	0.66909	-1.13764
H	-1.23634	1.19322	0.673667
H	0.0725635	2.01635	1.61008
H	-0.246609	0.248822	1.85538
N	2.00481	0.546511	0.399003
C	3.04303	0.182361	-0.532692
C	4.0874	-0.625176	0.214806
O	4.04714	-0.726794	1.43945
H	2.27681	0.573167	1.35669
H	2.62641	-0.459605	-1.2988
C	3.68094	1.43807	-1.16633
H	4.11779	2.09187	-0.381632
H	4.47246	1.17049	-1.896
H	2.89717	2.01773	-1.70115
N	5.04856	-1.22908	-0.51147
C	6.08124	-2.02289	0.112718
H	5.06212	-1.1386	-1.50178
H	6.77623	-2.4353	-0.651574
H	5.63545	-2.87406	0.676677
H	6.67232	-1.40654	0.828185
