44
  This energy is 0.1203 and Call times are: 21040
C	-1.83668	2.01803	-2.16028
C	-1.73408	0.915486	-1.17794
O	-2.73404	0.409549	-0.687521
H	-2.90781	2.269	-2.32018
H	-1.39124	1.70978	-3.12946
H	-1.30929	2.9187	-1.78114
N	-0.50032	0.514399	-0.862736
C	-0.239251	-0.517995	0.109152
C	1.11735	-0.248598	0.732534
O	1.85947	0.618599	0.275436
H	0.304816	0.963519	-1.23945
H	-0.975687	-0.457848	0.900781
C	-0.264825	-1.91477	-0.549329
H	0.497702	-1.98046	-1.35448
H	-0.078856	-2.71931	0.191381
H	-1.26399	-2.0871	-1.00575
N	1.47064	-0.98568	1.80395
C	2.73997	-0.79612	2.46656
H	0.85496	-1.6799	2.16183
H	2.84395	-1.49599	3.32481
H	2.8307	0.24567	2.85089
H	3.58271	-0.97845	1.76109
C	4.54964	1.99408	2.29077
C	3.75771	0.792392	1.94445
O	3.62601	-0.129237	2.73797
H	4.96826	1.87579	3.31381
H	3.90416	2.8972	2.26879
H	5.38684	2.12077	1.57235
N	3.2057	0.775446	0.728971
C	2.4434	-0.343268	0.233056
C	2.57857	-0.375233	-1.27766
O	3.11305	0.552627	-1.88191
H	3.35586	1.51504	0.0791163
H	2.86924	-1.26291	0.614544
C	0.958759	-0.223637	0.641443
H	0.518548	0.714573	0.241416
H	0.363885	-1.08621	0.277288
H	0.884441	-0.193965	1.75047
N	2.10112	-1.45619	-1.92542
C	2.19031	-1.5771	-3.36194
H	1.67562	-2.19872	-1.4188
H	1.74283	-2.53611	-3.70442
H	3.25365	-1.54846	-3.69326
H	1.65053	-0.740068	-3.86111
