44
  This energy is -3.3829 and Call times are: 17112
C	2.15207	-1.69561	2.1462
C	1.01222	-0.785201	1.89514
O	0.27019	-0.434861	2.80237
H	2.16916	-1.97467	3.22217
H	3.10782	-1.19178	1.89039
H	2.04627	-2.61819	1.53732
N	0.844735	-0.377531	0.634928
C	-0.244445	0.475014	0.228216
C	-0.562297	0.175666	-1.22468
O	0.171125	-0.550222	-1.89318
H	1.43251	-0.703898	-0.0998337
H	-1.12551	0.23019	0.808227
C	0.124479	1.96414	0.406091
H	1.02208	2.21836	-0.197004
H	-0.711205	2.63054	0.109338
H	0.360876	2.15851	1.47506
N	-1.67612	0.72556	-1.74721
C	-2.06201	0.492465	-3.11941
H	-2.2592	1.30687	-1.18938
H	-3.00574	1.03009	-3.35928
H	-2.22156	-0.594735	-3.30329
H	-1.26893	0.847754	-3.81651
C	5.96785	3.46739	-0.206104
C	6.5865	2.1266	-0.102685
O	7.79049	1.97165	-0.253682
H	6.75337	4.21689	-0.444969
H	5.48892	3.74319	0.756865
H	5.20564	3.47589	-1.01359
N	5.7609	1.11071	0.159509
C	6.20876	-0.256888	0.247029
C	5.05644	-1.15852	-0.15396
O	3.92743	-0.701105	-0.320754
H	4.77756	1.24684	0.239257
H	7.00742	-0.41758	-0.46637
C	6.68516	-0.590915	1.67766
H	5.86306	-0.436318	2.40861
H	7.0455	-1.63722	1.75462
H	7.52315	0.0861175	1.95287
N	5.31883	-2.46894	-0.327112
C	4.28628	-3.40192	-0.713845
H	6.23954	-2.81961	-0.191505
H	4.69977	-4.43046	-0.805269
H	3.84377	-3.11362	-1.69484
H	3.4683	-3.41857	0.0423098
