44
  This energy is 0.1272 and Call times are: 17902
C	1.63258	1.15304	-2.84919
C	1.60021	0.838697	-1.40306
O	2.62425	0.830637	-0.733972
H	2.68312	1.34031	-3.16092
H	1.02871	2.06127	-3.05702
H	1.23045	0.299914	-3.43534
N	0.401787	0.566045	-0.881703
C	0.216379	0.200388	0.500498
C	-1.01143	-0.685707	0.594732
O	-1.7512	-0.842019	-0.374815
H	-0.417171	0.53646	-1.44765
H	1.064	-0.386638	0.83151
C	0.0478883	1.45501	1.38525
H	-0.827856	2.05209	1.05268
H	-0.0818149	1.18716	2.45387
H	0.954396	2.09248	1.29455
N	-1.25272	-1.29677	1.77134
C	-2.39414	-2.16296	1.95316
H	-0.6404	-1.16126	2.5432
H	-2.41837	-2.56952	2.98821
H	-2.35494	-3.01902	1.24119
H	-3.34237	-1.60677	1.77242
C	8.12236	-0.147986	-2.96139
C	7.28531	0.579956	-1.98129
O	7.14835	1.79393	-2.04388
H	8.5658	0.578266	-3.67678
H	7.50391	-0.876855	-3.52621
H	8.94248	-0.685167	-2.43994
N	6.69913	-0.159219	-1.03662
C	5.88998	0.411377	0.0113555
C	5.98167	-0.493555	1.22555
O	6.52657	-1.59325	1.15169
H	6.85312	-1.14119	-0.974294
H	6.29858	1.37341	0.294469
C	4.42166	0.55942	-0.44399
H	3.99874	-0.428753	-0.724523
H	3.79117	1.01055	0.349416
H	4.37943	1.219	-1.33814
N	5.45399	-0.0444631	2.38135
C	5.49915	-0.833916	3.59003
H	5.0208	0.849817	2.42239
H	5.01365	-0.292543	4.43172
H	6.55315	-1.05389	3.87634
H	4.97093	-1.80413	3.44576
