44
  This energy is -1.7327 and Call times are: 17024
C	-2.07459	-2.79037	0.150326
C	-0.78839	-2.1393	-0.185754
O	0.196465	-2.80027	-0.48508
H	-1.95308	-3.89403	0.0949922
H	-2.86072	-2.47886	-0.56918
H	-2.38573	-2.51428	1.17991
N	-0.768919	-0.805155	-0.140457
C	0.42018	-0.0322909	-0.39985
C	0.32235	1.26336	0.383262
O	-0.720306	1.57676	0.954546
H	-1.56738	-0.282654	0.144702
H	1.28366	-0.569595	-0.0279089
C	0.571483	0.257444	-1.90929
H	-0.309255	0.817866	-2.28911
H	1.49077	0.840146	-2.1235
H	0.633162	-0.704655	-2.46328
N	1.41743	2.04705	0.434774
C	1.41986	3.29575	1.16068
H	2.25311	1.77456	-0.0304763
H	2.41178	3.7932	1.08413
H	1.19621	3.12393	2.23852
H	0.647752	3.98829	0.754019
C	4.13085	-0.551145	-3.05725
C	4.68747	-1.03202	-1.77269
O	4.48706	-2.17449	-1.3841
H	3.53852	-1.3653	-3.52858
H	4.95226	-0.259801	-3.74511
H	3.46708	0.321999	-2.88373
N	5.40959	-0.153769	-1.07296
C	5.97963	-0.461578	0.215003
C	6.08399	0.828432	1.00656
O	5.86766	1.91444	0.472231
H	5.52968	0.78508	-1.3828
H	5.30865	-1.11797	0.754966
C	7.36993	-1.1162	0.0607738
H	8.06174	-0.438867	-0.483889
H	7.81339	-1.37063	1.04522
H	7.27068	-2.05405	-0.528235
N	6.41223	0.737191	2.31037
C	6.52966	1.9107	3.1442
H	6.57951	-0.150769	2.72585
H	6.80676	1.62834	4.18378
H	5.56495	2.46703	3.17747
H	7.31119	2.5983	2.74727
