44
  This energy is 0.1661 and Call times are: 19465
C	0.392098	3.34153	-0.890568
C	0.243978	1.90966	-1.23545
O	0.0344627	1.55435	-2.38709
H	0.264705	3.95551	-1.80854
H	1.40143	3.53112	-0.468621
H	-0.37983	3.63852	-0.149613
N	0.349289	1.04216	-0.226132
C	0.185693	-0.379854	-0.398375
C	-0.332833	-0.957609	0.905037
O	-0.385842	-0.268967	1.92223
H	0.479172	1.34927	0.712316
H	-0.567032	-0.563807	-1.15481
C	1.52271	-1.04536	-0.791716
H	2.29232	-0.865859	-0.0109958
H	1.4069	-2.13847	-0.940794
H	1.88736	-0.601713	-1.74385
N	-0.737893	-2.24289	0.901957
C	-1.25121	-2.87651	2.0941
H	-0.691202	-2.78283	0.0680743
H	-1.5312	-3.93316	1.88839
H	-2.15446	-2.34062	2.46588
H	-0.486592	-2.86755	2.9043
C	5.37161	-2.40113	-2.4648
C	4.5891	-1.83223	-1.34445
O	3.46516	-2.24012	-1.08601
H	4.7677	-3.18269	-2.97501
H	6.30697	-2.86181	-2.0832
H	5.62372	-1.60616	-3.19798
N	5.17625	-0.858618	-0.644651
C	4.52372	-0.178453	0.446284
C	5.09063	1.22595	0.534834
O	6.06727	1.55432	-0.136011
H	6.07527	-0.509211	-0.892701
H	3.46686	-0.0865823	0.228944
C	4.73952	-0.934311	1.7757
H	5.82324	-1.01961	2.00444
H	4.23024	-0.427938	2.62112
H	4.32425	-1.96179	1.68528
N	4.48107	2.09511	1.3649
C	4.94669	3.45459	1.51049
H	3.68959	1.81205	1.89643
H	4.31495	4.01091	2.23757
H	4.91009	3.98904	0.533605
H	5.9994	3.47264	1.87464
