44
  This energy is -4.5874 and Call times are: 20086
C	-0.975702	0.89547	-3.21851
C	0.0461579	0.763986	-2.15566
O	1.23582	0.910779	-2.39971
H	-0.473435	1.11407	-4.18589
H	-1.67201	1.72653	-2.97925
H	-1.54925	-0.0502736	-3.31705
N	-0.403914	0.477042	-0.931946
C	0.472347	0.276176	0.195165
C	-0.210103	-0.673604	1.16146
O	-1.38399	-1.00124	0.999129
H	-1.37175	0.320109	-0.757202
H	1.38245	-0.204692	-0.141147
C	0.793493	1.61745	0.890205
H	-0.138984	2.10614	1.24476
H	1.47858	1.47779	1.75141
H	1.28503	2.29946	0.162462
N	0.517898	-1.14705	2.19194
C	-0.0454571	-2.06015	3.15893
H	1.46748	-0.873642	2.30429
H	0.710119	-2.33404	3.9279
H	-0.393223	-2.99419	2.66102
H	-0.918486	-1.59785	3.67394
C	3.77854	-3.21701	1.11496
C	4.1622	-1.8084	1.35951
O	4.17789	-1.34394	2.49107
H	3.51754	-3.69973	2.08176
H	4.62421	-3.7695	0.65415
H	2.89696	-3.26206	0.441264
N	4.48327	-1.08549	0.284007
C	4.83576	0.310499	0.35823
C	4.45061	0.966024	-0.954598
O	4.08442	0.288683	-1.91315
H	4.42621	-1.46608	-0.634553
H	4.25382	0.784872	1.13857
C	6.34653	0.484466	0.627601
H	6.94392	0.00709494	-0.178177
H	6.62807	1.55494	0.700717
H	6.60718	-0.00963189	1.58899
N	4.51698	2.31012	-1.02549
C	4.16461	3.02174	-2.23197
H	4.8117	2.84125	-0.238019
H	4.28437	4.11854	-2.09083
H	3.10594	2.8181	-2.51311
H	4.8141	2.70411	-3.07957
