44
  This energy is -3.7243 and Call times are: 16812
C	1.19872	-0.415766	3.24082
C	1.4086	-0.207997	1.79033
O	2.50912	0.0884314	1.34605
H	2.15579	-0.2419	3.77903
H	0.861831	-1.456	3.43362
H	0.437008	0.296097	3.6231
N	0.337443	-0.359584	1.008
C	0.375526	-0.148384	-0.417656
C	-1.004	0.294797	-0.867158
O	-1.95941	0.260839	-0.0940176
H	-0.560527	-0.560847	1.3888
H	1.06227	0.658539	-0.641021
C	0.79704	-1.4381	-1.15536
H	0.0868822	-2.26339	-0.934912
H	0.843542	-1.28453	-2.25298
H	1.80571	-1.74829	-0.805046
N	-1.13817	0.731815	-2.13485
C	-2.41155	1.1788	-2.64953
H	-0.352599	0.7558	-2.74426
H	-2.31638	1.49904	-3.71048
H	-2.79431	2.04067	-2.05628
H	-3.16602	0.360828	-2.59629
C	5.78819	-2.72546	-2.15126
C	5.72997	-2.13776	-0.793915
O	5.57832	-2.84194	0.194793
H	5.65784	-3.8272	-2.08035
H	6.77119	-2.5093	-2.62003
H	4.97715	-2.30763	-2.78427
N	5.84912	-0.810286	-0.71638
C	5.76922	-0.0905822	0.530295
C	5.24026	1.30133	0.239825
O	5.11616	1.69919	-0.916896
H	5.93098	-0.246765	-1.53345
H	5.05305	-0.57886	1.17938
C	7.15285	-0.0126842	1.21201
H	7.8853	0.497552	0.550785
H	7.1019	0.527179	2.17972
H	7.52396	-1.04237	1.40789
N	4.90633	2.07534	1.29121
C	4.38931	3.412	1.11181
H	5.00996	1.73434	2.21968
H	4.17439	3.88578	2.09496
H	3.44635	3.3921	0.518763
H	5.12512	4.04849	0.56903
