44
  This energy is -4.8282 and Call times are: 18487
C	0.644782	2.92369	1.77454
C	0.592259	1.44816	1.66876
O	1.09312	0.733839	2.52625
H	1.19781	3.20636	2.69657
H	-0.382919	3.34022	1.82995
H	1.17006	3.35196	0.894906
N	-0.0246558	0.951837	0.593833
C	-0.118392	-0.462594	0.330854
C	-0.198733	-0.660107	-1.17117
O	-0.342961	0.299827	-1.92579
H	-0.391551	1.5462	-0.116089
H	0.786191	-0.950158	0.672383
C	-1.35677	-1.07175	1.0241
H	-2.2859	-0.579092	0.666256
H	-1.43241	-2.16313	0.84058
H	-1.28052	-0.908551	2.12132
N	-0.0980064	-1.91852	-1.64263
C	-0.157907	-2.20271	-3.05749
H	0.0224745	-2.68187	-1.01664
H	-0.0561062	-3.29454	-3.24395
H	0.661668	-1.67682	-3.59879
H	-1.12842	-1.86262	-3.48596
C	4.74729	-2.12695	2.74367
C	5.09557	-0.88024	2.02563
O	5.69166	0.0283497	2.58737
H	5.09339	-2.05276	3.7975
H	5.24277	-2.99657	2.26304
H	3.64721	-2.27809	2.73652
N	4.72229	-0.808434	0.745826
C	4.95252	0.357384	-0.0705157
C	3.86539	0.417223	-1.12698
O	3.08719	-0.52168	-1.28374
H	4.20169	-1.53945	0.314025
H	4.85741	1.24606	0.540901
C	6.34729	0.301431	-0.73138
H	6.44164	-0.604655	-1.36711
H	6.54207	1.20026	-1.35162
H	7.1266	0.250083	0.0600595
N	3.78152	1.53483	-1.87527
C	2.77559	1.68404	-2.90095
H	4.41761	2.28557	-1.73087
H	2.87053	2.67144	-3.40421
H	1.7539	1.61086	-2.46269
H	2.87863	0.886145	-3.67158
