44
  This energy is -0.42 and Call times are: 18015
C	0.277336	-3.10869	-1.54006
C	0.505855	-1.64661	-1.50515
O	1.24666	-1.10227	-2.31219
H	0.879022	-3.55497	-2.36146
H	-0.796373	-3.32396	-1.72323
H	0.587143	-3.56753	-0.577473
N	-0.135425	-0.968353	-0.550629
C	0.0203281	0.452666	-0.36353
C	-0.215166	0.765362	1.10218
O	-0.644953	-0.0947431	1.86849
H	-0.702934	-1.43106	0.124432
H	1.04057	0.733536	-0.593402
C	-0.970513	1.2378	-1.25068
H	-2.01775	0.957763	-1.00794
H	-0.851008	2.33356	-1.12597
H	-0.785187	0.987499	-2.31809
N	0.0711308	2.01089	1.52965
C	-0.115858	2.39851	2.90841
H	0.421918	2.69195	0.895484
H	0.175686	3.461	3.06121
H	0.504682	1.76442	3.5823
H	-1.1822	2.28066	3.20868
C	7.55442	-3.00161	-0.158537
C	6.89091	-1.91851	0.601605
O	6.67102	-2.02908	1.79987
H	7.76706	-3.85261	0.52442
H	8.51148	-2.63726	-0.587519
H	6.89312	-3.3548	-0.977687
N	6.54987	-0.829766	-0.0917321
C	5.85942	0.288711	0.500588
C	5.03284	0.960291	-0.579834
O	5.15616	0.636774	-1.75959
H	6.69857	-0.771347	-1.07476
H	5.17161	-0.0744295	1.25402
C	6.85975	1.29029	1.11818
H	7.55893	1.67115	0.343489
H	6.33971	2.14923	1.58967
H	7.45909	0.775274	1.90041
N	4.15875	1.91203	-0.197502
C	3.32578	2.60187	-1.15481
H	4.07026	2.1572	0.762258
H	2.67527	3.34661	-0.645474
H	2.67357	1.88114	-1.69929
H	3.9507	3.13732	-1.90575
