44
  This energy is 0.1266 and Call times are: 19298
C	2.69586	2.09632	0.671181
C	1.24408	1.84581	0.527204
O	0.419789	2.6726	0.892402
H	2.85182	3.087	1.15089
H	3.1845	2.09888	-0.325797
H	3.15825	1.31228	1.30723
N	0.894478	0.677417	-0.0159574
C	-0.479486	0.2732	-0.181464
C	-0.536236	-1.24195	-0.129977
O	0.495103	-1.91131	-0.134
H	1.57615	-0.00251911	-0.270665
H	-1.06427	0.646339	0.650058
C	-1.04953	0.79123	-1.52009
H	-0.456337	0.400203	-2.37406
H	-2.11115	0.498267	-1.65296
H	-0.990658	1.90142	-1.53896
N	-1.75192	-1.8205	-0.0714928
C	-1.90406	-3.25568	-0.0141125
H	-2.5748	-1.26202	-0.0650443
H	-2.97966	-3.53569	0.0294598
H	-1.39759	-3.66859	0.888259
H	-1.45289	-3.73501	-0.912907
C	3.933	2.59835	0.471218
C	4.99401	1.68968	0.960857
O	5.54335	1.87992	2.03717
H	3.77797	3.414	1.2105
H	2.9806	2.04177	0.345143
H	4.2308	3.04586	-0.500444
N	5.31175	0.665442	0.165651
C	6.35351	-0.278198	0.486326
C	6.92469	-0.81208	-0.813789
O	6.3867	-0.55738	-1.88962
H	4.88437	0.547174	-0.726096
H	7.1542	0.23571	1.00346
C	5.80408	-1.43371	1.35129
H	4.98975	-1.96788	0.816898
H	6.59968	-2.1598	1.61648
H	5.38413	-1.01911	2.29367
N	8.04114	-1.56356	-0.744336
C	8.65941	-2.11007	-1.92976
H	8.46427	-1.75538	0.135005
H	9.56601	-2.6977	-1.66518
H	8.96119	-1.29495	-2.62674
H	7.95159	-2.78068	-2.46867
