44
  This energy is 0.1059 and Call times are: 21168
C	-3.2583	1.06764	-0.596914
C	-2.25078	-0.000275785	-0.408264
O	-2.58574	-1.16725	-0.258631
H	-4.2765	0.623192	-0.556884
H	-3.11796	1.55613	-1.58405
H	-3.16594	1.82736	0.207696
N	-0.972043	0.383414	-0.409102
C	0.118783	-0.534456	-0.194221
C	1.26674	0.233765	0.433149
O	1.23033	1.45955	0.521703
H	-0.716813	1.34258	-0.491093
H	-0.187324	-1.29329	0.515071
C	0.563735	-1.18333	-1.52321
H	0.887846	-0.405956	-2.24755
H	1.39402	-1.90262	-1.36903
H	-0.294016	-1.73329	-1.96837
N	2.31599	-0.47545	0.893698
C	3.45153	0.169176	1.51111
H	2.32539	-1.46695	0.816788
H	4.20887	-0.583131	1.82366
H	3.13535	0.74334	2.41202
H	3.93444	0.879097	0.801214
C	9.03695	1.53107	-1.50921
C	7.94004	0.537138	-1.50148
O	7.63904	-0.0812623	-2.51311
H	9.46588	1.59672	-2.53271
H	9.83692	1.22364	-0.803326
H	8.65018	2.53008	-1.2169
N	7.30673	0.361269	-0.339423
C	6.19138	-0.539366	-0.186441
C	5.30711	-0.0121374	0.927855
O	5.67567	0.923747	1.63495
H	7.53621	0.901678	0.465037
H	5.60212	-0.535763	-1.09494
C	6.6772	-1.96897	0.138297
H	7.27293	-1.97494	1.07591
H	5.82815	-2.67487	0.244798
H	7.32878	-2.33139	-0.686585
N	4.10746	-0.599853	1.10522
C	3.19638	-0.162	2.13691
H	3.82516	-1.35309	0.520401
H	2.26428	-0.768789	2.12186
H	2.9208	0.907406	1.98958
H	3.66421	-0.262494	3.14298
