44
  This energy is -5.9109 and Call times are: 8144
C	-0.881193	-1.39509	3.0643
C	-0.729035	-1.47003	1.5938
O	-0.82906	-2.53514	1.00055
H	-1.06682	-2.41462	3.46677
H	-1.74038	-0.74293	3.3274
H	0.0446108	-0.990072	3.52467
N	-0.477124	-0.320196	0.963881
C	-0.261869	-0.24043	-0.459447
C	0.647883	0.942003	-0.734685
O	0.935346	1.73673	0.158336
H	-0.357907	0.532176	1.46499
H	0.256592	-1.13078	-0.792777
C	-1.60106	-0.079919	-1.2118
H	-2.12842	0.838975	-0.877785
H	-1.44984	-0.0312541	-2.30965
H	-2.25376	-0.952218	-0.989467
N	1.13162	1.08108	-1.98476
C	2.00902	2.17246	-2.33868
H	0.891005	0.425523	-2.69287
H	2.29831	2.11258	-3.41103
H	2.93733	2.14555	-1.72322
H	1.50774	3.15204	-2.16471
C	7.18945	0.276378	-2.64976
C	5.93679	-0.235972	-2.05019
O	5.08318	-0.780819	-2.73641
H	7.17377	0.0928654	-3.74609
H	8.06542	-0.245607	-2.21049
H	7.28137	1.36822	-2.46945
N	5.79679	-0.0671346	-0.733265
C	4.61483	-0.474242	-0.0150833
C	4.45718	0.434023	1.18981
O	5.34667	1.22215	1.50505
H	6.48214	0.414801	-0.194858
H	3.74613	-0.328282	-0.644913
C	4.71997	-1.94967	0.429095
H	5.60508	-2.09779	1.08384
H	3.80997	-2.27919	0.971154
H	4.84271	-2.59513	-0.467931
N	3.30916	0.349653	1.89049
C	3.06783	1.17829	3.04863
H	2.5994	-0.291278	1.61751
H	2.06855	0.9611	3.48625
H	3.103	2.25739	2.77373
H	3.84034	0.995827	3.83035
