44
  This energy is -6.8191 and Call times are: 2886
C	-1.79937	-2.93283	0.522904
C	-0.618287	-2.20234	0.0105039
O	0.380569	-2.79929	-0.366779
H	-1.5908	-4.02469	0.5081
H	-2.68356	-2.72716	-0.116361
H	-2.01792	-2.62285	1.56657
N	-0.708053	-0.870491	-0.0120491
C	0.3749	-0.02204	-0.443213
C	0.253358	1.30514	0.281617
O	-0.743139	1.56746	0.952359
H	-1.51205	-0.397347	0.336637
H	1.31677	-0.466494	-0.146612
C	0.334068	0.190423	-1.97241
H	-0.627735	0.656054	-2.27598
H	1.17106	0.830837	-2.31859
H	0.416485	-0.794354	-2.48208
N	1.27646	2.175	0.169164
C	1.25192	3.46008	0.828064
H	2.07615	1.94312	-0.374702
H	2.18325	4.02944	0.614343
H	1.1636	3.33408	1.93151
H	0.383447	4.06425	0.47897
C	6.78198	-1.0043	-3.15174
C	6.9782	-0.858248	-1.69184
O	7.90578	-1.41328	-1.11917
H	7.56852	-1.67375	-3.56288
H	6.85677	-0.0143297	-3.64885
H	5.78619	-1.44872	-3.36144
N	6.09164	-0.0961224	-1.04719
C	6.12663	0.10535	0.379951
C	4.71003	0.3674	0.855497
O	3.79777	0.543304	0.0501729
H	5.31828	0.315836	-1.52054
H	6.46533	-0.803837	0.860867
C	7.0488	1.28841	0.747653
H	6.69566	2.22353	0.262993
H	7.09504	1.44494	1.84487
H	8.07807	1.07851	0.383117
N	4.49109	0.391107	2.18498
C	3.17467	0.627746	2.73015
H	5.2412	0.242534	2.82085
H	3.2002	0.608626	3.842
H	2.45948	-0.152618	2.38256
H	2.78726	1.62044	2.40515
