44
  This energy is -6.8127 and Call times are: 11874
C	-0.922475	-0.604248	3.301
C	-1.09527	0.0919085	2.00615
O	-2.09046	0.765487	1.77747
H	-1.81121	-0.414687	3.94139
H	-0.0174592	-0.225903	3.82114
H	-0.824285	-1.69816	3.13725
N	-0.113056	-0.0603244	1.11482
C	-0.158474	0.52032	-0.204026
C	0.653332	-0.35917	-1.13624
O	1.34278	-1.27667	-0.695145
H	0.67157	-0.645021	1.30018
H	-1.18031	0.513389	-0.562396
C	0.401734	1.95951	-0.192775
H	1.45346	1.96592	0.164798
H	0.359362	2.42251	-1.19993
H	-0.202455	2.5831	0.50181
N	0.58286	-0.10254	-2.4573
C	1.31633	-0.890209	-3.42052
H	0.0163041	0.641592	-2.79546
H	1.12741	-0.52388	-4.45364
H	1.01108	-1.96035	-3.36683
H	2.41122	-0.833187	-3.22279
C	4.20317	2.97843	-1.79449
C	4.6764	1.58747	-1.61434
O	5.23616	0.986834	-2.52116
H	4.42811	3.31158	-2.83095
H	4.71907	3.65375	-1.07998
H	3.1065	3.03395	-1.62922
N	4.45574	1.03568	-0.41884
C	4.82019	-0.323927	-0.107066
C	3.86475	-0.838482	0.953089
O	3.0765	-0.0787209	1.51267
H	3.96235	1.52304	0.295932
H	4.68736	-0.940222	-0.987497
C	6.27884	-0.40297	0.394289
H	6.41308	0.220798	1.30365
H	6.57591	-1.44664	0.62455
H	6.95951	-0.0140655	-0.394234
N	3.90782	-2.1525	1.2489
C	3.03266	-2.73318	2.24041
H	4.54965	-2.75216	0.782494
H	3.22035	-3.82505	2.33951
H	1.96535	-2.58534	1.9571
H	3.19496	-2.25765	3.23473
