44
  This energy is -6.4591 and Call times are: 13965
C	1.47738	2.74909	-1.5403
C	0.887295	1.39223	-1.58338
O	0.612879	0.854804	-2.64747
H	1.58524	3.13578	-2.57698
H	2.47934	2.71571	-1.06313
H	0.818143	3.43508	-0.967656
N	0.673809	0.800279	-0.405924
C	0.0665197	-0.501713	-0.28519
C	-0.653571	-0.565897	1.04857
O	-0.515635	0.327114	1.88236
H	0.864442	1.2669	0.453025
H	-0.679734	-0.621117	-1.06074
C	1.13006	-1.61752	-0.380589
H	1.89004	-1.50161	0.421303
H	0.673197	-2.62537	-0.302898
H	1.64967	-1.5464	-1.36105
N	-1.45086	-1.62778	1.27823
C	-2.18033	-1.77153	2.51654
H	-1.55295	-2.33817	0.589752
H	-2.77889	-2.70905	2.5138
H	-2.87455	-0.912942	2.66539
H	-1.48101	-1.80431	3.38315
C	4.78294	1.42049	3.17618
C	4.64633	1.52316	1.70582
O	4.26519	2.55789	1.17622
H	4.47643	2.38243	3.64157
H	5.83842	1.20963	3.44866
H	4.13184	0.609479	3.56528
N	4.95804	0.431578	1.00319
C	4.8344	0.364795	-0.431664
C	4.567	-1.07805	-0.816711
O	4.65172	-1.97828	0.0164296
H	5.22757	-0.416048	1.45123
H	3.97588	0.946338	-0.743685
C	6.117	0.880257	-1.1205
H	6.9964	0.27729	-0.808843
H	6.02899	0.846869	-2.22579
H	6.2974	1.93496	-0.818181
N	4.22726	-1.33114	-2.09598
C	3.94911	-2.67278	-2.55294
H	4.15986	-0.589012	-2.7546
H	3.68827	-2.67379	-3.63424
H	3.09622	-3.11182	-1.98628
H	4.83642	-3.33011	-2.40549
