44
  This energy is -2.1225 and Call times are: 9974
C	0.293907	-0.278091	3.45673
C	0.829071	-0.439826	2.08611
O	2.00761	-0.705441	1.894
H	1.11679	-0.417375	4.19113
H	-0.493948	-1.0357	3.65182
H	-0.132471	0.739371	3.58348
N	-0.0408676	-0.277938	1.08643
C	0.340103	-0.361787	-0.30152
C	-0.599638	0.518309	-1.10394
O	-1.5939	1.01856	-0.581536
H	-0.987928	-0.0215958	1.2574
H	1.33901	0.0384122	-0.422577
C	0.276693	-1.82086	-0.803841
H	-0.750379	-2.22843	-0.689627
H	0.581164	-1.90053	-1.86755
H	0.966015	-2.44807	-0.197383
N	-0.299393	0.735434	-2.3996
C	-1.13236	1.56372	-3.24001
H	0.511694	0.325332	-2.80336
H	-0.718405	1.6198	-4.27089
H	-1.19689	2.59824	-2.8315
H	-2.16536	1.15068	-3.29875
C	4.19914	2.56185	-1.77328
C	4.22096	1.55652	-0.687007
O	3.37523	1.56112	0.196809
H	3.34708	3.2576	-1.61275
H	4.07366	2.0607	-2.75606
H	5.14409	3.14507	-1.77396
N	5.20795	0.65849	-0.729251
C	5.38564	-0.354642	0.280969
C	6.86165	-0.698021	0.351986
O	7.65029	-0.263668	-0.485324
H	5.9126	0.692693	-1.43221
H	5.10149	0.0484625	1.24502
C	4.55216	-1.61284	-0.0469151
H	4.8506	-2.03287	-1.03107
H	4.66968	-2.39508	0.73078
H	3.47654	-1.33649	-0.101776
N	7.2725	-1.48479	1.36599
C	8.65904	-1.85982	1.51777
H	6.62012	-1.82316	2.03605
H	8.79545	-2.50861	2.41091
H	9.29924	-0.956218	1.63992
H	9.01586	-2.41712	0.621531
