44
  This energy is -1.4855 and Call times are: 8116
C	2.23759	1.5353	2.17915
C	1.02657	1.55398	1.32814
O	0.230508	2.48133	1.38031
H	2.25012	2.44353	2.82013
H	3.14992	1.52939	1.54641
H	2.23383	0.635882	2.8304
N	0.857707	0.510013	0.513288
C	-0.293225	0.365893	-0.34295
C	-0.541595	-1.11546	-0.556154
O	0.273647	-1.95228	-0.17296
H	1.49321	-0.256798	0.511755
H	-1.16401	0.770141	0.158001
C	-0.0674259	1.07718	-1.69511
H	0.819599	0.655636	-2.21426
H	-0.952044	0.985215	-2.35807
H	0.120209	2.15814	-1.51433
N	-1.68609	-1.47562	-1.1697
C	-2.0105	-2.86228	-1.4108
H	-2.33534	-0.784231	-1.46891
H	-2.99247	-2.9527	-1.92539
H	-2.06456	-3.42562	-0.451114
H	-1.23416	-3.34224	-2.0496
C	5.68373	3.16016	0.627357
C	6.19896	2.12241	-0.293933
O	6.07815	2.23554	-1.50596
H	5.19827	3.96728	0.0368239
H	6.51744	3.59734	1.21605
H	4.9343	2.72021	1.31864
N	6.79318	1.06901	0.27143
C	7.30592	-0.0412292	-0.492123
C	7.24321	-1.28261	0.377715
O	6.96413	-1.20107	1.57236
H	6.84752	0.971558	1.26108
H	6.664	-0.213617	-1.34702
C	8.75654	0.226797	-0.949411
H	9.41758	0.393283	-0.0722786
H	9.15788	-0.614991	-1.55011
H	8.77976	1.14387	-1.57772
N	7.4951	-2.46986	-0.20795
C	7.4532	-3.70527	0.539163
H	7.71509	-2.51604	-1.17673
H	7.68822	-4.57085	-0.118684
H	6.4421	-3.86399	0.979347
H	8.19312	-3.68635	1.37181
