44
  This energy is -2.093 and Call times are: 11154
C	-1.34657	2.92619	1.31789
C	-0.460258	1.74396	1.40692
O	0.371907	1.64237	2.29776
H	-1.10024	3.63266	2.14015
H	-2.40835	2.61674	1.41597
H	-1.20034	3.44172	0.345303
N	-0.621071	0.809576	0.467009
C	0.195931	-0.376237	0.396901
C	0.268181	-0.815768	-1.05332
O	-0.441369	-0.287882	-1.90748
H	-1.27471	0.925631	-0.275387
H	1.20364	-0.134859	0.711387
C	-0.390389	-1.5029	1.2756
H	-1.42027	-1.75819	0.946659
H	0.2373	-2.41686	1.24096
H	-0.441372	-1.15639	2.33091
N	1.14007	-1.7941	-1.36748
C	1.28203	-2.27368	-2.72248
H	1.70863	-2.20618	-0.663205
H	2.04811	-3.07829	-2.77664
H	1.59358	-1.44687	-3.40115
H	0.316227	-2.68299	-3.09777
C	4.99005	1.79283	-2.94736
C	4.83116	0.571065	-2.12688
O	4.09725	-0.340163	-2.48389
H	4.34834	1.71395	-3.85171
H	6.04773	1.90504	-3.26588
H	4.68258	2.68722	-2.36546
N	5.52651	0.5264	-0.988072
C	5.44206	-0.577296	-0.0643417
C	5.7275	-0.0504797	1.32942
O	6.13504	1.09727	1.49763
H	6.08797	1.29345	-0.691
H	4.4308	-0.964558	-0.061967
C	6.44672	-1.68871	-0.43939
H	7.48528	-1.29454	-0.431692
H	6.38172	-2.55023	0.256366
H	6.22398	-2.05367	-1.46581
N	5.51031	-0.880815	2.36835
C	5.74871	-0.465098	3.73089
H	5.17649	-1.80459	2.21251
H	5.51104	-1.28806	4.44045
H	5.11573	0.414481	3.98965
H	6.81535	-0.176549	3.87289
