44
  This energy is 0.1119 and Call times are: 15728
C	3.26499	1.16262	0.317549
C	2.25803	0.249266	-0.268071
O	2.53019	-0.463653	-1.22415
H	4.21392	1.07914	-0.255551
H	3.45931	0.889885	1.37613
H	2.90544	2.212	0.266427
N	1.05075	0.253066	0.301876
C	-0.0443102	-0.549496	-0.183206
C	-1.33991	0.161521	0.159461
O	-1.34175	1.14871	0.892378
H	0.832302	0.868837	1.05352
H	0.0117808	-0.615328	-1.26263
C	-0.0169941	-1.95901	0.447477
H	-0.0851394	-1.89251	1.55426
H	-0.847264	-2.59125	0.0713761
H	0.943074	-2.45755	0.190421
N	-2.47885	-0.322661	-0.373851
C	-3.75876	0.291765	-0.10834
H	-2.4567	-1.11996	-0.967899
H	-4.5729	-0.251276	-0.63701
H	-3.76428	1.35178	-0.45129
H	-3.98106	0.280929	0.983266
C	4.01513	0.199549	-3.0218
C	3.14754	0.784294	-1.97465
O	2.88856	1.97978	-1.962
H	4.35706	1.00502	-3.70748
H	3.45119	-0.556125	-3.60804
H	4.90357	-0.27964	-2.55905
N	2.6736	-0.0610121	-1.05638
C	1.85192	0.366538	0.0484231
C	2.07862	-0.589597	1.20427
O	2.72676	-1.62281	1.04906
H	2.92648	-1.02429	-1.05633
H	2.17344	1.34803	0.373884
C	0.360032	0.389968	-0.35029
H	0.0269592	-0.619073	-0.674241
H	-0.281738	0.730868	0.487827
H	0.218909	1.08986	-1.20268
N	1.55293	-0.26017	2.40057
C	1.72171	-1.106	3.55913
H	1.03502	0.582095	2.50749
H	1.21697	-0.663434	4.44605
H	2.80237	-1.23355	3.79826
H	1.28729	-2.11532	3.37557
