44
  This energy is -4.8596 and Call times are: 9559
C	-1.01369	-3.32774	-0.106196
C	-0.601198	-2.06932	-0.767549
O	-0.332562	-2.03981	-1.9606
H	-1.00647	-4.15337	-0.850617
H	-2.03932	-3.22486	0.306428
H	-0.30865	-3.57767	0.714497
N	-0.538972	-0.98422	0.00772711
C	-0.112564	0.302636	-0.482923
C	0.509157	1.06649	0.671004
O	0.435555	0.639163	1.82152
H	-0.721043	-1.0325	0.985677
H	0.658857	0.162452	-1.22984
C	-1.30259	1.08948	-1.0745
H	-2.08968	1.24272	-0.305708
H	-0.984628	2.07658	-1.46828
H	-1.74691	0.50829	-1.91185
N	1.1477	2.21857	0.386395
C	1.7744	3.01049	1.41901
H	1.20025	2.54599	-0.551211
H	2.24663	3.91944	0.985393
H	2.56253	2.42153	1.94175
H	1.02424	3.33254	2.17708
C	4.37851	0.907248	3.29223
C	5.17928	0.187924	2.27611
O	6.25427	-0.321274	2.56161
H	4.92238	0.898941	4.26176
H	3.39535	0.409363	3.42739
H	4.21923	1.96049	2.97856
N	4.66447	0.13186	1.04557
C	5.34673	-0.495994	-0.0584608
C	4.90746	0.190577	-1.33801
O	3.98288	1.00102	-1.33244
H	3.80781	0.586389	0.8189
H	6.41297	-0.336746	0.0433973
C	5.02785	-2.006	-0.117221
H	3.93515	-2.16973	-0.23231
H	5.55827	-2.50347	-0.954893
H	5.35042	-2.48642	0.83224
N	5.57104	-0.114087	-2.47064
C	5.22701	0.493553	-3.73499
H	6.31911	-0.769227	-2.45442
H	5.88703	0.114375	-4.54607
H	5.338	1.60086	-3.68173
H	4.17095	0.265109	-4.00645
