44
  This energy is -1.288 and Call times are: 10328
C	2.30902	-0.951064	2.42416
C	1.254	-0.0475512	1.91256
O	0.740834	0.797907	2.63247
H	2.49613	-0.726932	3.49684
H	3.25084	-0.800083	1.85589
H	1.98583	-2.00918	2.3292
N	0.900255	-0.211375	0.63569
C	-0.141222	0.563436	0.00835161
C	-0.758728	-0.277975	-1.09268
O	-0.252	-1.34694	-1.42774
H	1.29813	-0.931086	0.073923
H	-0.919607	0.768376	0.732746
C	0.422372	1.88067	-0.568281
H	1.21362	1.67074	-1.31921
H	-0.372431	2.49266	-1.04186
H	0.876218	2.47653	0.253502
N	-1.88063	0.184693	-1.67859
C	-2.54175	-0.550305	-2.73163
H	-2.27804	1.04981	-1.39101
H	-3.44598	-0.00620197	-3.08311
H	-2.85628	-1.55633	-2.37071
H	-1.85859	-0.693097	-3.59998
C	6.98736	3.22001	0.817437
C	5.93022	2.20555	0.606507
O	4.77412	2.41595	0.946502
H	6.54751	4.11039	1.31705
H	7.41894	3.53129	-0.15703
H	7.79124	2.80657	1.46235
N	6.31119	1.06194	0.0325738
C	5.40522	-0.0354853	-0.198556
C	6.20589	-1.32378	-0.170381
O	7.43477	-1.30096	-0.138343
H	7.26376	0.889387	-0.201289
H	4.68825	-0.083507	0.611554
C	4.68141	0.122677	-1.55367
H	5.41602	0.161402	-2.38608
H	3.97069	-0.70906	-1.73697
H	4.10851	1.07563	-1.55471
N	5.52221	-2.48506	-0.1732
C	6.19893	-3.7607	-0.142229
H	4.52793	-2.48317	-0.1952
H	5.46432	-4.59588	-0.149708
H	6.82369	-3.85171	0.775743
H	6.86675	-3.87295	-1.02686
