44
  This energy is -0.2444 and Call times are: 9247
C	2.33296	1.15684	-2.30905
C	1.03449	0.532474	-1.96951
O	0.17223	0.362291	-2.82037
H	2.34064	1.42494	-3.38791
H	3.16287	0.446859	-2.10926
H	2.4829	2.07882	-1.70858
N	0.86378	0.17367	-0.694955
C	-0.361682	-0.406079	-0.204351
C	-0.503321	-0.0423066	1.26165
O	0.420484	0.495456	1.8692
H	1.55908	0.356018	-0.00562799
H	-1.20039	0.034795	-0.728589
C	-0.356774	-1.94006	-0.38358
H	0.497402	-2.39388	0.162739
H	-1.30087	-2.39682	-0.0222385
H	-0.24417	-2.18311	-1.46275
N	-1.67551	-0.321881	1.86484
C	-1.90386	-0.00693267	3.25582
H	-2.4127	-0.753506	1.35559
H	-2.92722	-0.313524	3.5656
H	-1.79717	1.08778	3.43333
H	-1.16798	-0.535156	3.90436
C	7.92169	-1.84923	2.7267
C	6.92529	-0.977764	2.06421
O	5.81905	-0.795433	2.5535
H	7.48091	-2.27032	3.65636
H	8.82674	-1.26315	2.99152
H	8.20671	-2.68509	2.05352
N	7.30205	-0.412785	0.914762
C	6.4274	0.425369	0.133068
C	6.83731	0.308777	-1.32294
O	7.8698	-0.277912	-1.64149
H	8.19107	-0.603347	0.508328
H	5.41275	0.055653	0.213117
C	6.50698	1.89473	0.602003
H	7.54567	2.27778	0.510158
H	5.8276	2.54788	0.016887
H	6.21053	1.95506	1.67196
N	6.02708	0.861892	-2.24684
C	6.33287	0.796121	-3.65692
H	5.19383	1.32892	-1.96995
H	5.54653	1.30818	-4.25416
H	6.39636	-0.263231	-3.99607
H	7.31036	1.28612	-3.87041
