44
  This energy is 0.1243 and Call times are: 16166
C	2.85717	-0.0134379	-1.98723
C	1.71465	-0.699469	-1.3429
O	1.41978	-1.84983	-1.63639
H	3.32389	-0.696065	-2.73025
H	3.61675	0.262416	-1.22585
H	2.50846	0.902196	-2.50982
N	1.0339	0.0053829	-0.436179
C	-0.127618	-0.511742	0.243531
C	-1.02384	0.65774	0.604995
O	-0.635886	1.81581	0.463303
H	1.26085	0.954589	-0.237763
H	-0.684282	-1.14747	-0.433678
C	0.278175	-1.29501	1.51123
H	0.840164	-0.640397	2.21101
H	-0.60664	-1.71004	2.03599
H	0.939934	-2.14105	1.22377
N	-2.25548	0.379493	1.07581
C	-3.17986	1.42763	1.44066
H	-2.55288	-0.563829	1.17959
H	-4.13866	0.997185	1.80485
H	-3.39903	2.08046	0.564846
H	-2.7524	2.06519	2.24809
C	2.19605	-1.82144	-1.58914
C	2.65466	-0.851702	-0.569118
O	1.85708	-0.171391	0.0613129
H	1.08729	-1.78309	-1.66008
H	2.50261	-2.84993	-1.30454
H	2.62853	-1.56788	-2.57997
N	3.97393	-0.764716	-0.383749
C	4.57278	0.163484	0.542735
C	5.95714	0.51527	0.0315009
O	6.45153	-0.0919166	-0.916452
H	4.61257	-1.29556	-0.933473
H	3.99254	1.07766	0.55779
C	4.65753	-0.447545	1.95861
H	5.26152	-1.37978	1.94562
H	5.10424	0.2627	2.68423
H	3.63414	-0.704546	2.30927
N	6.61503	1.5174	0.647071
C	7.93498	1.92583	0.226237
H	6.19688	1.99962	1.40975
H	8.30637	2.76458	0.855374
H	7.92187	2.26326	-0.835482
H	8.65398	1.07902	0.31049
