44
  This energy is -2.6949 and Call times are: 8025
C	1.84754	2.8427	-0.786329
C	1.19502	1.94129	0.189786
O	1.39493	2.05785	1.39098
H	2.5033	3.55821	-0.24419
H	1.08131	3.4144	-1.35096
H	2.46684	2.25444	-1.49591
N	0.388042	1.00487	-0.314487
C	-0.28337	0.0281376	0.506344
C	-0.495749	-1.22285	-0.325214
O	-0.266217	-1.22264	-1.53312
H	0.267343	0.896419	-1.2971
H	0.357101	-0.24147	1.33685
C	-1.63434	0.573345	1.01904
H	-2.29578	0.840211	0.167383
H	-2.15467	-0.164355	1.6637
H	-1.45547	1.49287	1.61807
N	-0.934347	-2.32813	0.308828
C	-1.15994	-3.56652	-0.399456
H	-1.11058	-2.3099	1.28744
H	-1.51863	-4.35738	0.295605
H	-0.219118	-3.92176	-0.878978
H	-1.92399	-3.42879	-1.19846
C	10.1018	1.09908	0.0508167
C	8.76581	1.01526	-0.580961
O	8.47163	1.7213	-1.53562
H	10.705	1.87601	-0.46727
H	10.6257	0.123576	-0.0309855
H	10.0021	1.37625	1.12147
N	7.91276	0.135728	-0.050764
C	6.56286	-0.0289439	-0.529531
C	5.70465	-0.50195	0.628618
O	6.21568	-0.835967	1.69585
H	8.15273	-0.402703	0.751958
H	6.1764	0.931829	-0.84605
C	6.50992	-1.04377	-1.69253
H	6.89648	-2.0325	-1.36536
H	5.47774	-1.16893	-2.07912
H	7.15115	-0.681228	-2.52543
N	4.36988	-0.53322	0.445813
C	3.47338	-0.963907	1.49318
H	3.97475	-0.255217	-0.423473
H	2.41648	-0.918638	1.14946
H	3.57785	-0.31352	2.39171
H	3.69881	-2.01168	1.79732
