44
  This energy is 0.1354 and Call times are: 14094
C	3.297	-1.11278	0.0645876
C	2.26862	-0.0710584	0.284567
O	2.53043	0.958926	0.890371
H	4.25064	-0.793287	0.538283
H	3.46718	-1.25897	-1.0228
H	2.97328	-2.07234	0.52015
N	1.0542	-0.322252	-0.209871
C	-0.0599499	0.576543	-0.0384443
C	-1.33593	-0.243986	-0.0515499
O	-1.31532	-1.43562	-0.35369
H	0.845743	-1.18322	-0.665002
H	0.00916646	1.04994	0.933021
C	-0.0883921	1.6398	-1.15823
H	-0.169919	1.15505	-2.15442
H	-0.933813	2.34637	-1.02959
H	0.858118	2.22283	-1.13484
N	-2.48267	0.377796	0.286668
C	-3.74508	-0.323671	0.307759
H	-2.47863	1.34155	0.532109
H	-4.56927	0.358977	0.610951
H	-3.71054	-1.17293	1.02806
H	-3.98303	-0.735063	-0.699853
C	1.73607	0.979399	2.3591
C	2.31819	1.02946	0.999033
O	1.72663	1.5737	0.0769342
H	0.741234	1.47549	2.35129
H	2.3962	1.50916	3.07765
H	1.60915	-0.0753129	2.68244
N	3.51076	0.450165	0.84225
C	4.18377	0.380564	-0.430845
C	5.05864	-0.858848	-0.436223
O	5.23165	-1.51206	0.590954
H	3.96118	-0.0245632	1.59299
H	3.44906	0.260198	-1.21719
C	5.03551	1.64564	-0.674507
H	5.79633	1.76382	0.126258
H	5.54784	1.61031	-1.65776
H	4.37607	2.54074	-0.658471
N	5.62736	-1.21769	-1.60404
C	6.47121	-2.38542	-1.70652
H	5.47229	-0.678809	-2.4254
H	6.84267	-2.51207	-2.7473
H	5.9079	-3.30336	-1.42132
H	7.35071	-2.29552	-1.02863
