44
  This energy is 0.1249 and Call times are: 9086
C	2.69875	-0.279386	2.17977
C	1.24873	-0.334206	1.88724
O	0.456757	-0.796944	2.6966
H	2.88832	-0.722306	3.18165
H	3.04949	0.774049	2.18035
H	3.26478	-0.856801	1.41866
N	0.864077	0.143574	0.701425
C	-0.507236	0.118728	0.257078
C	-0.512157	0.0424814	-1.25808
O	0.528568	0.176909	-1.89881
H	1.52523	0.479419	0.0366338
H	-0.986334	-0.77927	0.626801
C	-1.266	1.37481	0.738497
H	-0.781044	2.29597	0.350779
H	-2.32681	1.36078	0.414439
H	-1.24274	1.41431	1.84946
N	-1.69163	-0.185132	-1.86887
C	-1.7926	-0.279073	-3.30663
H	-2.52228	-0.295312	-1.33319
H	-2.84406	-0.469663	-3.6154
H	-1.1582	-1.11016	-3.69146
H	-1.45174	0.666444	-3.7872
C	7.64242	-1.47566	1.46205
C	6.95907	-0.328909	0.82239
O	7.46435	0.785117	0.814937
H	8.60312	-1.13135	1.90292
H	7.8545	-2.26338	0.70888
H	7.00739	-1.89774	2.2693
N	5.77293	-0.581164	0.26399
C	4.96942	0.441496	-0.358182
C	3.51218	0.0376413	-0.23604
O	3.20032	-1.07938	0.17226
H	5.35598	-1.48422	0.313964
H	5.0929	1.37132	0.18293
C	5.35863	0.622469	-1.84176
H	5.2221	-0.328416	-2.39964
H	4.75642	1.41689	-2.32834
H	6.43071	0.909969	-1.90748
N	2.58011	0.947389	-0.581911
C	1.16853	0.654467	-0.493522
H	2.8519	1.84741	-0.906199
H	0.564169	1.52873	-0.821623
H	0.883982	0.405157	0.554408
H	0.906416	-0.21518	-1.13862
