44
  This energy is -3.8049 and Call times are: 14589
C	0.030021	-0.0326389	-3.48005
C	-0.613939	-0.324495	-2.17955
O	-1.78723	-0.664796	-2.11642
H	-0.715037	-0.159038	-4.29539
H	0.875138	-0.731398	-3.65399
H	0.405511	1.01229	-3.49519
N	0.153101	-0.193059	-1.09477
C	-0.34364	-0.400627	0.242659
C	0.46813	0.464462	1.18828
O	1.47366	1.05363	0.796477
H	1.0949	0.124367	-1.15898
H	-1.3711	-0.06321	0.298494
C	-0.239444	-1.88802	0.645223
H	0.815843	-2.23182	0.598275
H	-0.631666	-2.06309	1.66798
H	-0.834392	-2.50295	-0.0648728
N	0.0421667	0.567742	2.46261
C	0.747443	1.37282	3.43246
H	-0.77601	0.0867986	2.75985
H	0.241296	1.32969	4.422
H	0.787073	2.43705	3.10517
H	1.79364	1.01089	3.55747
C	7.36362	2.8213	0.824613
C	6.95828	1.41556	1.04991
O	7.57012	0.69738	1.82855
H	8.26189	3.04754	1.43924
H	6.5432	3.50829	1.12074
H	7.61113	2.98129	-0.245999
N	5.90016	0.985011	0.358973
C	5.41339	-0.369644	0.439699
C	4.75006	-0.713352	-0.88069
O	4.55185	0.153058	-1.73025
H	5.43752	1.56926	-0.301691
H	6.25171	-1.04361	0.564605
C	4.41295	-0.527825	1.60561
H	3.54755	0.155848	1.47249
H	4.04143	-1.56989	1.68688
H	4.91751	-0.263545	2.56055
N	4.39712	-1.99735	-1.08757
C	3.76534	-2.41908	-2.31605
H	4.56942	-2.68486	-0.389921
H	3.55335	-3.51079	-2.29462
H	4.4239	-2.20704	-3.18933
H	2.8037	-1.87791	-2.46941
