44
  This energy is -1.5133 and Call times are: 8986
C	1.11953	-2.77067	1.78402
C	0.823772	-2.07137	0.513332
O	1.19978	-2.52241	-0.559789
H	1.71182	-3.68676	1.56987
H	0.174836	-3.06331	2.28866
H	1.70825	-2.111	2.45583
N	0.133132	-0.932869	0.60932
C	-0.193189	-0.118661	-0.534857
C	-0.305306	1.32222	-0.0735093
O	-0.288966	1.60338	1.12332
H	-0.130562	-0.557376	1.49325
H	0.618394	-0.166096	-1.2502
C	-1.51513	-0.583795	-1.18398
H	-2.35008	-0.52532	-0.453588
H	-1.77018	0.0265948	-2.07443
H	-1.41278	-1.64292	-1.50668
N	-0.414079	2.27519	-1.02011
C	-0.520352	3.6739	-0.67588
H	-0.421359	2.02846	-1.98351
H	-0.600483	4.2994	-1.59215
H	0.374805	4.00624	-0.101842
H	-1.42135	3.85645	-0.0465794
C	4.2159	1.20005	-3.26171
C	4.01888	0.136255	-2.25142
O	3.38079	-0.874252	-2.51242
H	3.69469	0.915186	-4.20142
H	5.29772	1.329	-3.47567
H	3.79506	2.15963	-2.89405
N	4.57068	0.345587	-1.05388
C	4.42889	-0.578569	0.0435594
C	4.51455	0.207747	1.33814
O	4.84048	1.39327	1.33453
H	5.05241	1.19156	-0.843826
H	3.44561	-1.03058	0.00516126
C	5.52626	-1.66426	-0.00415679
H	6.53502	-1.20172	0.0458337
H	5.41959	-2.39009	0.827899
H	5.44961	-2.22165	-0.963209
N	4.21338	-0.437086	2.48248
C	4.2618	0.231264	3.76198
H	3.94781	-1.39533	2.46477
H	3.98036	-0.466627	4.58111
H	3.55868	1.0953	3.78065
H	5.28721	0.616152	3.96583
