44
  This energy is 0.1557 and Call times are: 14670
C	2.99053	1.4218	-1.0714
C	1.5888	1.00597	-1.30246
O	0.981221	1.35748	-2.30431
H	3.32439	2.0701	-1.91053
H	3.65078	0.530571	-1.02116
H	3.06867	1.99343	-0.122599
N	1.03542	0.236432	-0.362271
C	-0.33335	-0.211858	-0.425991
C	-0.833021	-0.408987	0.99282
O	-0.0595703	-0.350254	1.94678
H	1.52938	-0.00758115	0.467383
H	-0.941895	0.561585	-0.877754
C	-0.446347	-1.52716	-1.22752
H	0.169473	-2.32391	-0.758475
H	-1.49737	-1.87536	-1.29554
H	-0.0678653	-1.36153	-2.25983
N	-2.14925	-0.640727	1.16567
C	-2.71638	-0.835072	2.47973
H	-2.75999	-0.680597	0.381781
H	-3.81253	-1.01164	2.41279
H	-2.54416	0.061452	3.11837
H	-2.24981	-1.71247	2.98336
C	2.58605	-0.165831	3.30957
C	2.32389	-0.200173	1.85312
O	1.24093	-0.560871	1.41321
H	1.68397	-0.520988	3.8536
H	2.81552	0.8713	3.63276
H	3.44101	-0.828614	3.56023
N	3.32873	0.179149	1.06015
C	3.23876	0.158174	-0.378602
C	4.63309	-0.0563997	-0.936617
O	5.61849	-0.0150755	-0.202462
H	4.21782	0.431042	1.43153
H	2.63465	-0.686152	-0.686473
C	2.63865	1.47703	-0.91313
H	3.26382	2.34257	-0.60645
H	2.55134	1.46777	-2.01894
H	1.62185	1.61739	-0.485638
N	4.74742	-0.300659	-2.25695
C	6.03337	-0.522631	-2.87602
H	3.93815	-0.334285	-2.83403
H	5.91814	-0.706522	-3.96696
H	6.54003	-1.40563	-2.42338
H	6.69447	0.363314	-2.73749
