44
  This energy is -3.1128 and Call times are: 13756
C	0.457117	3.35956	-0.785541
C	-0.279246	2.26775	-0.109632
O	-1.14229	2.50741	0.723507
H	0.102818	4.33825	-0.394994
H	0.276128	3.32272	-1.88036
H	1.54584	3.26657	-0.587733
N	0.0534203	1.02278	-0.458589
C	-0.544595	-0.143012	0.142963
C	0.46561	-1.27359	0.0897604
O	1.50946	-1.1559	-0.549175
H	0.786478	0.842962	-1.10833
H	-0.748394	0.0585892	1.18721
C	-1.8417	-0.540697	-0.59501
H	-1.6314	-0.757854	-1.66396
H	-2.3191	-1.42888	-0.132681
H	-2.56319	0.304167	-0.550214
N	0.179913	-2.40001	0.772091
C	1.08398	-3.52638	0.784048
H	-0.667875	-2.4749	1.2866
H	0.67145	-4.35523	1.40054
H	2.07176	-3.23273	1.20752
H	1.25092	-3.90737	-0.249449
C	7.65289	-1.05218	-2.52403
C	6.30263	-0.929196	-1.93005
O	5.29971	-1.19817	-2.57675
H	7.56053	-1.38801	-3.57975
H	8.25227	-1.798	-1.96078
H	8.17095	-0.0702146	-2.50331
N	6.2473	-0.510278	-0.663621
C	5.00423	-0.300654	0.035936
C	5.22527	0.777074	1.08055
O	6.3558	1.19291	1.32694
H	7.07011	-0.256036	-0.163413
H	4.26157	0.0711275	-0.658941
C	4.51801	-1.60726	0.70047
H	5.275	-1.98344	1.42123
H	3.55453	-1.46218	1.23073
H	4.37056	-2.38388	-0.0814889
N	4.14121	1.26296	1.71674
C	4.25364	2.29386	2.72211
H	3.23424	0.916794	1.50078
H	3.25223	2.55895	3.12726
H	4.71238	3.21357	2.29204
H	4.89425	1.95106	3.56666
