44
  This energy is -4.2297 and Call times are: 10055
C	0.513011	-3.35615	0.765348
C	-0.276817	-2.26571	0.150321
O	-1.2119	-2.50721	-0.600486
H	0.121491	-4.33589	0.415058
H	0.430928	-3.31112	1.87168
H	1.57999	-3.26926	0.470214
N	0.0904321	-1.01989	0.45923
C	-0.554668	0.144425	-0.0946501
C	0.460479	1.27091	-0.14014
O	1.5569	1.15297	0.403605
H	0.879398	-0.838895	1.03944
H	-0.851916	-0.0633261	-1.115
C	-1.77898	0.552754	0.753629
H	-1.47298	0.7762	1.79789
H	-2.29252	1.43987	0.329586
H	-2.50475	-0.289227	0.779613
N	0.119058	2.39394	-0.802153
C	1.02264	3.51623	-0.903007
H	-0.771111	2.46905	-1.23922
H	0.55968	4.3427	-1.48597
H	1.96743	3.21541	-1.4111
H	1.28289	3.90346	0.108659
C	3.99634	-1.67208	2.6563
C	4.35958	-1.55871	1.22579
O	4.21871	-2.50237	0.460225
H	3.62595	-2.7001	2.86083
H	3.19535	-0.94507	2.90652
H	4.88469	-1.47681	3.29331
N	4.84579	-0.380505	0.82853
C	5.28303	-0.131649	-0.522559
C	6.36443	0.931588	-0.481466
O	6.6098	1.54046	0.558138
H	4.99293	0.365181	1.47208
H	5.73089	-1.03187	-0.924616
C	4.10431	0.328808	-1.40791
H	3.65119	1.25818	-1.00172
H	4.42545	0.510339	-2.45406
H	3.32172	-0.460999	-1.41695
N	7.04599	1.1745	-1.61834
C	8.09624	2.16452	-1.67316
H	6.83583	0.668711	-2.44845
H	8.53534	2.21593	-2.69384
H	8.90958	1.91457	-0.953935
H	7.70058	3.17224	-1.4103
