44
  This energy is 0.142 and Call times are: 8646
C	2.60766	-2.29093	0.253758
C	1.23503	-1.91905	-0.156982
O	0.572164	-2.64749	-0.882515
H	2.87876	-3.2643	-0.209859
H	2.66275	-2.39117	1.35814
H	3.33058	-1.51848	-0.083605
N	0.772291	-0.754958	0.304702
C	-0.528017	-0.238375	-0.0430037
C	-0.466543	1.27631	0.0163085
O	0.518823	1.84904	0.477551
H	1.33887	-0.153787	0.86098
H	-0.759577	-0.512043	-1.06482
C	-1.61013	-0.774492	0.919731
H	-1.3786	-0.484999	1.96693
H	-2.61799	-0.394868	0.653997
H	-1.63188	-1.88488	0.865682
N	-1.52271	1.96412	-0.46061
C	-1.55131	3.40816	-0.450557
H	-2.30914	1.48304	-0.833667
H	-2.50327	3.78567	-0.884704
H	-0.705881	3.82192	-1.04665
H	-1.46225	3.79582	0.590083
C	9.41561	-0.836006	-2.30968
C	8.88797	0.00958617	-1.21527
O	9.60247	0.818769	-0.639836
H	10.4934	-0.609768	-2.46162
H	8.8681	-0.627052	-3.25271
H	9.30707	-1.91011	-2.04968
N	7.60295	-0.164408	-0.897695
C	6.95905	0.554357	0.173437
C	5.83994	-0.312531	0.719025
O	5.50861	-1.34816	0.145088
H	7.04496	-0.855853	-1.34759
H	7.66836	0.708881	0.976948
C	6.40286	1.90605	-0.325382
H	5.66726	1.74748	-1.14257
H	5.91677	2.47519	0.493347
H	7.23777	2.52057	-0.727399
N	5.23376	0.0896933	1.85338
C	4.16242	-0.673815	2.44958
H	5.51858	0.928444	2.30555
H	3.79568	-0.179643	3.37615
H	4.51016	-1.69892	2.71323
H	3.3076	-0.770643	1.74173
