44
  This energy is 0.1079 and Call times are: 12963
C	-3.29135	0.235954	1.10635
C	-1.98477	-0.456713	1.04152
O	-1.7296	-1.3973	1.78084
H	-3.91316	-0.226656	1.90336
H	-3.82279	0.142164	0.136034
H	-3.14344	1.3105	1.34421
N	-1.11329	0.00326881	0.140797
C	0.213503	-0.540168	-0.0104271
C	1.1196	0.561191	-0.52768
O	0.654438	1.63716	-0.898659
H	-1.32022	0.795832	-0.425675
H	0.590079	-0.838528	0.960038
C	0.21064	-1.74024	-0.982565
H	-0.165685	-1.43226	-1.98135
H	1.22425	-2.17623	-1.0967
H	-0.464905	-2.53044	-0.588142
N	2.4449	0.318719	-0.556286
C	3.38458	1.30932	-1.02734
H	2.80272	-0.556534	-0.248112
H	4.42554	0.9212	-0.972794
H	3.32267	2.23447	-0.409662
H	3.16794	1.58508	-2.08478
C	4.86085	-3.41967	0.213219
C	4.89382	-2.13304	-0.517986
O	5.51347	-2.0164	-1.56625
H	5.47417	-4.16859	-0.333413
H	3.81753	-3.79268	0.284549
H	5.27757	-3.29029	1.23434
N	4.21713	-1.12126	0.0304458
C	4.19129	0.201883	-0.541544
C	3.99095	1.1997	0.58353
O	3.71918	0.820147	1.72098
H	3.75143	-1.22049	0.90516
H	5.15196	0.414344	-0.993864
C	3.06083	0.329386	-1.58607
H	2.07399	0.121833	-1.12013
H	3.03932	1.33959	-2.04383
H	3.22343	-0.415319	-2.39559
N	4.12992	2.50785	0.291231
C	3.96318	3.52935	1.29866
H	4.35408	2.79529	-0.634086
H	4.11781	4.54082	0.862483
H	4.69615	3.3886	2.12583
H	2.93872	3.4881	1.73445
