44
  This energy is 0.1106 and Call times are: 8958
C	2.565	0.0663938	2.35139
C	1.46031	0.714486	1.60925
O	1.03196	1.81098	1.94185
H	2.87134	0.718859	3.19775
H	3.4374	-0.0872145	1.68201
H	2.23203	-0.913066	2.75497
N	0.965566	0.0371871	0.570559
C	-0.138772	0.518914	-0.221233
C	-0.876668	-0.681435	-0.783571
O	-0.411852	-1.81443	-0.674093
H	1.2972	-0.872426	0.337131
H	-0.830878	1.05248	0.418243
C	0.358139	1.43265	-1.3629
H	1.06005	0.882585	-2.02532
H	-0.484035	1.82116	-1.97144
H	0.90185	2.2999	-0.928616
N	-2.05663	-0.459639	-1.39555
C	-2.83237	-1.54127	-1.95634
H	-2.41837	0.463709	-1.47071
H	-3.76968	-1.15631	-2.41512
H	-3.10561	-2.27889	-1.16733
H	-2.25095	-2.07572	-2.74212
C	4.55335	-1.48201	-3.12914
C	5.11673	-0.952268	-1.86695
O	6.28596	-1.14709	-1.5647
H	5.33928	-2.05084	-3.67193
H	4.20475	-0.647151	-3.77275
H	3.70243	-2.16186	-2.91278
N	4.28139	-0.260479	-1.08847
C	4.67223	0.280237	0.18959
C	3.43989	0.346552	1.07193
O	2.32164	0.129347	0.609279
H	3.32174	-0.145211	-1.32856
H	5.37278	-0.395476	0.6642
C	5.298	1.68283	0.0271605
H	4.57598	2.3792	-0.450115
H	5.61575	2.10413	1.0029
H	6.19324	1.6116	-0.62844
N	3.61866	0.642218	2.37448
C	2.50535	0.722097	3.29118
H	4.5316	0.810774	2.73116
H	2.85679	0.976067	4.31549
H	1.96412	-0.250631	3.33749
H	1.78241	1.50419	2.96434
