44
  This energy is 0.1306 and Call times are: 15583
C	3.03682	0.493164	-1.62702
C	2.22784	0.333518	-0.39771
O	2.75829	0.16801	0.692077
H	4.11557	0.417591	-1.3692
H	2.84546	1.48643	-2.08478
H	2.78508	-0.30477	-2.3571
N	0.902215	0.378293	-0.549674
C	-0.0160673	0.195815	0.546692
C	-1.30183	-0.389994	-0.00575778
O	-1.48527	-0.474589	-1.21857
H	0.484608	0.472691	-1.44887
H	0.395333	-0.526383	1.24082
C	-0.294996	1.53609	1.26161
H	-0.726879	2.274	0.552386
H	-0.989997	1.40648	2.11642
H	0.660692	1.9503	1.65076
N	-2.22422	-0.818508	0.878319
C	-3.47563	-1.39529	0.445316
H	-2.05594	-0.745468	1.85577
H	-4.09832	-1.68573	1.32003
H	-3.29593	-2.30377	-0.174075
H	-4.05231	-0.66684	-0.169456
C	6.92286	0.223293	-3.4256
C	6.0772	-0.141565	-2.26677
O	4.90116	-0.445281	-2.41204
H	6.31177	0.182964	-4.35339
H	7.76899	-0.489211	-3.52131
H	7.3193	1.25303	-3.30089
N	6.66799	-0.116852	-1.0698
C	5.96381	-0.405461	0.154698
C	6.63688	0.359216	1.27889
O	7.70418	0.940966	1.09406
H	7.61509	0.172059	-0.96304
H	4.94804	-0.038153	0.077714
C	5.97061	-1.9212	0.450914
H	7.01233	-2.29648	0.540438
H	5.41954	-2.15777	1.38412
H	5.4804	-2.46134	-0.388298
N	6.01938	0.382664	2.47645
C	6.58217	1.08938	3.60339
H	5.15429	-0.090656	2.60549
H	5.92674	0.990668	4.49665
H	6.6962	2.17288	3.37039
H	7.58764	0.683655	3.85947
