44
  This energy is -2.5336 and Call times are: 9488
C	-2.13951	0.487387	2.70141
C	-1.68024	0.801011	1.32961
O	-2.34833	1.50342	0.583495
H	-3.12832	0.964588	2.87578
H	-1.41521	0.878807	3.44635
H	-2.2431	-0.610881	2.82858
N	-0.509565	0.275581	0.961061
C	0.0472893	0.456272	-0.356446
C	0.91128	-0.749586	-0.674221
O	1.17121	-1.58367	0.190915
H	0.00310287	-0.327702	1.56529
H	-0.755027	0.478799	-1.08337
C	0.881078	1.75422	-0.429731
H	1.71068	1.72712	0.308558
H	1.30384	1.91178	-1.44313
H	0.230682	2.62248	-0.185908
N	1.37201	-0.874021	-1.93449
C	2.19688	-1.99145	-2.33087
H	1.14759	-0.191005	-2.62165
H	2.4737	-1.91425	-3.40541
H	1.656	-2.95317	-2.17653
H	3.1336	-2.02168	-1.72857
C	5.15016	-0.171063	3.4729
C	4.52239	0.0499798	2.1507
O	3.30737	0.12748	2.03187
H	4.35634	-0.26067	4.246
H	5.80885	0.684466	3.73162
H	5.74763	-1.10699	3.46117
N	5.35204	0.155722	1.11008
C	4.8882	0.329243	-0.243914
C	5.91787	-0.277946	-1.17808
O	7.00872	-0.654398	-0.753792
H	6.33651	0.0495925	1.21683
H	3.9657	-0.221581	-0.37885
C	4.67838	1.82467	-0.567823
H	5.627	2.38836	-0.439726
H	4.30801	1.97057	-1.60323
H	3.92714	2.25006	0.132908
N	5.58903	-0.395365	-2.47966
C	6.50284	-0.966043	-3.44166
H	4.70002	-0.0888333	-2.80333
H	6.04929	-0.975652	-4.45725
H	6.76221	-2.01331	-3.16375
H	7.44707	-0.376355	-3.48469
