44
  This energy is 0.1057 and Call times are: 14369
C	-1.25501	2.18952	-2.39658
C	-1.33869	1.50203	-1.08834
O	-2.16352	1.83644	-0.249152
H	-2.01334	3.00157	-2.43393
H	-1.4561	1.4719	-3.21958
H	-0.24618	2.63345	-2.53177
N	-0.469239	0.510016	-0.882574
C	-0.40037	-0.223477	0.356702
C	1.02375	-0.714175	0.537371
O	1.84613	-0.608839	-0.370551
H	0.223152	0.276446	-1.55926
H	-0.618053	0.445221	1.18016
C	-1.38597	-1.4125	0.349534
H	-1.15649	-2.10433	-0.488767
H	-1.35236	-1.97702	1.30384
H	-2.42066	-1.03067	0.208159
N	1.35166	-1.25807	1.72594
C	2.68441	-1.74747	1.99133
H	0.67357	-1.33092	2.44979
H	2.75484	-2.1567	3.02322
H	3.43175	-0.927721	1.88764
H	2.95649	-2.55543	1.27418
C	0.3248	-0.471891	0.912757
C	1.39346	0.294134	0.232806
O	1.12652	1.20936	-0.533687
H	-0.666307	-0.0845454	0.591007
H	0.414505	-0.359326	2.01368
H	0.394762	-1.54714	0.644407
N	2.64891	-0.0716568	0.501918
C	3.79314	0.550967	-0.115848
C	4.91209	-0.471625	-0.177785
O	4.81083	-1.55179	0.400751
H	2.84927	-0.845216	1.09633
H	3.54609	0.82092	-1.13502
C	4.24091	1.79599	0.680807
H	4.50455	1.51786	1.72349
H	5.11275	2.29234	0.20747
H	3.40409	2.52711	0.720014
N	6.00929	-0.155324	-0.893399
C	7.12236	-1.0679	-1.01359
H	6.07106	0.721891	-1.35789
H	7.927	-0.626183	-1.64183
H	6.79696	-2.02469	-1.48259
H	7.54857	-1.30218	-0.0112884
