44
  This energy is -3.9627 and Call times are: 10840
C	-2.86369	-0.764741	-1.82404
C	-1.40314	-0.844626	-1.59703
O	-0.705454	-1.62314	-2.23229
H	-3.15544	-1.5035	-2.60186
H	-3.14184	0.252261	-2.17201
H	-3.41008	-0.99638	-0.885483
N	-0.901464	-0.0278901	-0.667701
C	0.4939	-0.0211118	-0.305108
C	0.604543	0.422537	1.14144
O	-0.375093	0.858297	1.74322
H	-1.4881	0.571093	-0.130162
H	0.883141	-1.02991	-0.363782
C	1.2982	0.924024	-1.22438
H	0.906008	1.96115	-1.15656
H	2.37652	0.927428	-0.964122
H	1.19642	0.585094	-2.27847
N	1.80755	0.313054	1.73877
C	2.00692	0.705322	3.11447
H	2.58747	-0.0457105	1.23669
H	3.06293	0.53906	3.42173
H	1.34789	0.114221	3.7909
H	1.76653	1.78411	3.25437
C	4.84005	-3.12726	-1.45653
C	4.68116	-2.17692	-0.332794
O	3.94725	-2.43116	0.612274
H	4.19834	-4.01737	-1.2783
H	5.89773	-3.45622	-1.53288
H	4.53258	-2.64764	-2.40968
N	5.37651	-1.04014	-0.414113
C	5.29206	-0.000222339	0.580871
C	5.5775	1.32686	-0.0965793
O	5.98504	1.36736	-1.25588
H	5.93797	-0.829557	-1.20927
H	4.2808	0.0448866	0.965504
C	6.29672	-0.250292	1.72689
H	7.33528	-0.286152	1.33428
H	6.23172	0.536312	2.50635
H	6.07398	-1.23015	2.20292
N	5.36031	2.45111	0.613997
C	5.59871	3.75943	0.0504127
H	5.02649	2.39819	1.54933
H	5.36104	4.5555	0.790024
H	4.96573	3.91951	-0.852354
H	6.66535	3.86871	-0.252047
