44
  This energy is -2.2614 and Call times are: 10762
C	1.34016	-2.60035	-1.88543
C	0.247519	-1.99531	-1.09095
O	-0.869326	-2.49384	-1.06791
H	0.955463	-3.49947	-2.41408
H	2.17453	-2.90474	-1.21916
H	1.71408	-1.87387	-2.63743
N	0.551011	-0.886288	-0.412456
C	-0.417601	-0.160289	0.370662
C	-0.00576735	1.29959	0.397404
O	1.08464	1.65457	-0.0461078
H	1.45348	-0.469553	-0.47376
H	-1.38334	-0.214141	-0.116249
C	-0.502255	-0.725387	1.80549
H	0.485772	-0.660682	2.30913
H	-1.25473	-0.183626	2.41443
H	-0.797283	-1.79653	1.76125
N	-0.878928	2.18621	0.914618
C	-0.576017	3.59708	0.976904
H	-1.75807	1.88039	1.26484
H	-1.41884	4.16042	1.43463
H	-0.394915	4.00536	-0.0437731
H	0.338361	3.77619	1.58762
C	6.59088	-3.35282	0.40533
C	6.91929	-1.96607	0.00503586
O	8.07033	-1.63469	-0.243377
H	7.52471	-3.95472	0.444425
H	5.89896	-3.81046	-0.332607
H	6.11694	-3.35918	1.40953
N	5.89669	-1.11063	-0.0649477
C	6.06487	0.281823	-0.398629
C	4.9521	1.06631	0.27061
O	4.01654	0.48819	0.820335
H	4.97119	-1.38513	0.179926
H	7.00188	0.636894	0.0119362
C	6.03021	0.490612	-1.92848
H	5.06492	0.13618	-2.34876
H	6.17253	1.557	-2.1988
H	6.84787	-0.0987712	-2.39794
N	5.03325	2.41125	0.246422
C	4.0236	3.24062	0.861977
H	5.80004	2.86079	-0.199693
H	4.26909	4.31812	0.735627
H	3.94831	3.02384	1.95221
H	3.02628	3.05184	0.402784
