44
  This energy is 0.1057 and Call times are: 14561
C	-2.54445	2.10652	-1.0959
C	-1.2301	1.87393	-0.455959
O	-0.468602	2.80142	-0.218712
H	-2.66317	3.19146	-1.30732
H	-3.36244	1.78056	-0.419591
H	-2.60946	1.54495	-2.05168
N	-0.930067	0.607159	-0.159914
C	0.328976	0.219242	0.425655
C	0.635789	-1.20106	-0.0104177
O	-0.205572	-1.87342	-0.603516
H	-1.54284	-0.141466	-0.396432
H	1.11505	0.85348	0.0351878
C	0.272932	0.312506	1.96624
H	-0.526392	-0.346017	2.36807
H	1.24089	0.0295982	2.42834
H	0.0393007	1.3585	2.26233
N	1.86028	-1.68997	0.268192
C	2.24415	-3.02922	-0.112918
H	2.52898	-1.12933	0.745248
H	3.28843	-3.24422	0.204065
H	2.17999	-3.15678	-1.21785
H	1.57191	-3.78066	0.360971
C	8.85124	2.24951	-0.152981
C	8.11699	1.06473	-0.651312
O	8.40025	0.549522	-1.72403
H	9.62028	2.54562	-0.899133
H	9.35511	2.01146	0.807328
H	8.15111	3.09817	-0.00240065
N	7.13874	0.600942	0.129915
C	6.3081	-0.517891	-0.239954
C	4.95621	-0.343909	0.426154
O	4.77643	0.536081	1.2658
H	6.89295	1.0558	0.981117
H	6.14461	-0.502979	-1.31031
C	6.95607	-1.85213	0.190385
H	7.11434	-1.87219	1.28974
H	6.33261	-2.72208	-0.101162
H	7.94741	-1.95452	-0.302668
N	3.9655	-1.17991	0.0579112
C	2.64418	-1.08613	0.633662
H	4.1291	-1.88304	-0.626138
H	1.97123	-1.85935	0.201798
H	2.19945	-0.0840744	0.435179
H	2.68493	-1.23329	1.73721
