44
  This energy is -3.1708 and Call times are: 16198
C	0.0468494	-2.5282	-2.39138
C	-0.604857	-1.79452	-1.28316
O	-1.78008	-1.98541	-1.00241
H	-0.694823	-3.20307	-2.87133
H	0.889411	-3.13825	-2.0032
H	0.427466	-1.81387	-3.15161
N	0.157507	-0.922171	-0.619703
C	-0.346757	-0.103378	0.454474
C	0.464569	1.17794	0.493467
O	1.47484	1.30489	-0.195701
H	1.10113	-0.747965	-0.886324
H	-1.37283	0.170832	0.243232
C	-0.251733	-0.845768	1.80542
H	0.802093	-1.11801	2.02763
H	-0.649786	-0.230969	2.63855
H	-0.84618	-1.78388	1.75127
N	0.0328949	2.16704	1.30054
C	0.73732	3.42415	1.39882
H	-0.789043	2.04715	1.84746
H	0.226146	4.10658	2.11311
H	0.783702	3.92708	0.405756
H	1.78113	3.26313	1.75334
C	5.76085	-2.84088	1.91547
C	5.79382	-2.10166	0.633431
O	6.41347	-2.53187	-0.329566
H	6.37417	-3.76349	1.82332
H	4.71753	-3.12642	2.16586
H	6.17757	-2.21225	2.73048
N	5.11713	-0.951469	0.594023
C	5.09129	-0.100132	-0.569211
C	4.89095	1.33	-0.104298
O	4.61918	1.57867	1.06874
H	4.65143	-0.594113	1.39855
H	6.05196	-0.145962	-1.06684
C	3.96083	-0.519097	-1.53449
H	2.97399	-0.462135	-1.0276
H	3.93932	0.120228	-2.44076
H	4.12343	-1.57118	-1.85546
N	5.02992	2.31004	-1.01876
C	4.86318	3.70102	-0.667284
H	5.25408	2.08935	-1.96222
H	5.01781	4.35237	-1.55558
H	5.59615	3.9985	0.117275
H	3.83872	3.88612	-0.270601
