44
  This energy is -5.6432 and Call times are: 11818
C	2.52336	1.90712	-1.45197
C	1.77583	1.41592	-0.272541
O	2.18985	1.60476	0.862948
H	3.45318	2.41334	-1.11278
H	1.9059	2.63344	-2.02114
H	2.79721	1.05755	-2.11252
N	0.639117	0.76124	-0.520848
C	-0.175054	0.187186	0.521336
C	-0.911499	-1.00638	-0.0571217
O	-0.888214	-1.23594	-1.26479
H	0.336109	0.579765	-1.45204
H	0.465469	-0.181591	1.31277
C	-1.17614	1.22517	1.0742
H	-1.84044	1.59601	0.264742
H	-1.79949	0.799254	1.88694
H	-0.615527	2.0931	1.48501
N	-1.57996	-1.80374	0.799269
C	-2.30515	-2.96567	0.340822
H	-1.58376	-1.604	1.77352
H	-2.78715	-3.49064	1.19482
H	-1.61938	-3.68104	-0.168339
H	-3.09883	-2.67289	-0.384094
C	4.99005	-3.12726	-1.45653
C	4.83116	-2.17692	-0.332794
O	4.09725	-2.43116	0.612274
H	4.34834	-4.01737	-1.2783
H	6.04773	-3.45622	-1.53288
H	4.68258	-2.64764	-2.40968
N	5.52651	-1.04014	-0.414113
C	5.44206	-0.000222339	0.580871
C	5.7275	1.32686	-0.0965793
O	6.13504	1.36736	-1.25588
H	6.08797	-0.829557	-1.20927
H	4.4308	0.0448866	0.965504
C	6.44672	-0.250292	1.72689
H	7.48528	-0.286152	1.33428
H	6.38172	0.536312	2.50635
H	6.22398	-1.23015	2.20292
N	5.51031	2.45111	0.613997
C	5.74871	3.75943	0.0504127
H	5.17649	2.39819	1.54933
H	5.51104	4.5555	0.790024
H	5.11573	3.91951	-0.852354
H	6.81535	3.86871	-0.252047
