44
  This energy is 0.1562 and Call times are: 15905
C	3.39494	0.764619	-0.0494609
C	1.96921	1.16019	-0.0939554
O	1.63457	2.33315	-0.00125862
H	4.02331	1.67082	0.0913514
H	3.68486	0.2705	-1.00053
H	3.57278	0.0688526	0.797519
N	1.08329	0.171743	-0.237107
C	-0.340795	0.395888	-0.254175
C	-1.02243	-0.852393	0.273766
O	-0.382493	-1.88333	0.472158
H	1.36868	-0.781846	-0.270088
H	-0.583009	1.2062	0.422105
C	-0.831533	0.717743	-1.68275
H	-0.592671	-0.117793	-2.37475
H	-1.92447	0.906005	-1.70678
H	-0.313807	1.62993	-2.05184
N	-2.34508	-0.784721	0.522864
C	-3.07747	-1.92076	1.03199
H	-2.84489	0.0595003	0.359931
H	-4.15121	-1.66605	1.17139
H	-2.66419	-2.24647	2.01402
H	-3.00954	-2.7804	0.326619
C	0.73717	-1.5206	2.51603
C	0.856506	-0.628413	1.3409
O	-0.135818	-0.198989	0.768802
H	-0.338065	-1.70823	2.72703
H	1.20045	-1.04523	3.40605
H	1.23802	-2.49055	2.3125
N	2.09637	-0.32732	0.947866
C	2.37248	0.493841	-0.204526
C	3.71527	0.0750317	-0.772952
O	4.44055	-0.708468	-0.163199
H	2.89413	-0.717508	1.39863
H	1.62636	0.303435	-0.965884
C	2.38852	1.99064	0.175693
H	3.16101	2.18837	0.949131
H	2.5864	2.63421	-0.70589
H	1.39887	2.27299	0.596652
N	4.07518	0.585005	-1.96727
C	5.33227	0.239373	-2.58891
H	3.47308	1.21433	-2.44738
H	5.44436	0.759989	-3.56545
H	5.39309	-0.85857	-2.76809
H	6.18677	0.530472	-1.93605
