44
  This energy is -3.8412 and Call times are: 10989
C	1.67364	1.93819	2.35691
C	0.490905	1.63865	1.51873
O	-0.572432	2.21729	1.6945
H	1.40328	2.70813	3.11188
H	2.50061	2.32766	1.72668
H	2.0113	1.02102	2.88404
N	0.653096	0.709472	0.573894
C	-0.417461	0.280149	-0.291061
C	-0.15019	-1.15701	-0.696891
O	0.920867	-1.69822	-0.429227
H	1.51303	0.217985	0.46984
H	-1.34905	0.291546	0.260883
C	-0.515834	1.18565	-1.53831
H	0.436067	1.16605	-2.11062
H	-1.34539	0.87374	-2.20545
H	-0.703654	2.23349	-1.21721
N	-1.12861	-1.81467	-1.34973
C	-0.966605	-3.18683	-1.77056
H	-1.9899	-1.36118	-1.5537
H	-1.88082	-3.54936	-2.29018
H	-0.777055	-3.84695	-0.893298
H	-0.104096	-3.28456	-2.4689
C	3.37291	0.019532	-2.89805
C	4.63835	-0.242745	-2.17623
O	5.54915	-0.867638	-2.70194
H	3.42262	-0.444561	-3.90701
H	3.21723	1.11287	-3.01265
H	2.51742	-0.419226	-2.34244
N	4.72246	0.235887	-0.932761
C	5.87331	0.023955	-0.0906298
C	5.41044	0.0336242	1.35409
O	4.26245	0.363725	1.64541
H	3.95707	0.707176	-0.503912
H	6.2864	-0.956889	-0.290439
C	6.93778	1.11802	-0.325507
H	6.5176	2.12363	-0.110507
H	7.83481	0.958073	0.307173
H	7.25601	1.09778	-1.39071
N	6.29766	-0.339162	2.29743
C	5.94535	-0.366202	3.69791
H	7.22074	-0.606846	2.04182
H	6.80908	-0.699703	4.31434
H	5.09678	-1.06583	3.87602
H	5.63668	0.646351	4.04518
