44
  This energy is -2.845 and Call times are: 9219
C	2.67898	1.75918	-1.35686
C	1.22779	1.52076	-1.18849
O	0.402735	2.3313	-1.58689
H	2.83458	2.74116	-1.85424
H	3.12718	0.962259	-1.98677
H	3.18173	1.77413	-0.366858
N	0.879682	0.383773	-0.581479
C	-0.491623	0.0328501	-0.307736
C	-0.516578	-0.851343	0.924796
O	0.526688	-1.28396	1.41075
H	1.5638	-0.246771	-0.226149
H	-1.04986	0.930368	-0.0722148
C	-1.12482	-0.698468	-1.51168
H	-0.558737	-1.62484	-1.74707
H	-2.18497	-0.961724	-1.31852
H	-1.08851	-0.03601	-2.40396
N	-1.71738	-1.13471	1.46683
C	-1.83896	-1.96348	2.6435
H	-2.55012	-0.772047	1.06176
H	-2.90626	-2.07894	2.93462
H	-1.28879	-1.51184	3.50059
H	-1.41482	-2.9765	2.45629
C	3.98145	1.12621	2.47826
C	5.1871	0.388682	2.03824
O	6.01569	-0.00891673	2.84556
H	4.00493	1.24227	3.58363
H	3.06559	0.566066	2.19509
H	3.95752	2.13354	2.0116
N	5.314	0.188953	0.724323
C	6.45382	-0.474402	0.141803
C	6.64847	0.0653537	-1.2626
O	5.80661	0.798511	-1.77782
H	4.65186	0.554296	0.0762937
H	7.3414	-0.22416	0.709443
C	6.2449	-2.00429	0.109785
H	5.34037	-2.26217	-0.481278
H	7.12161	-2.52756	-0.323911
H	6.09663	-2.37624	1.1471
N	7.77574	-0.280829	-1.91485
C	8.04954	0.189256	-3.25285
H	8.4471	-0.871695	-1.47986
H	9.02451	-0.204117	-3.61606
H	8.08963	1.30239	-3.27757
H	7.25282	-0.143223	-3.957
