44
  This energy is -3.245 and Call times are: 9810
C	-2.10169	2.73478	0.465372
C	-0.833161	2.01043	0.704756
O	0.116974	2.55947	1.24532
H	-2.00179	3.78052	0.829158
H	-2.93287	2.24193	1.01215
H	-2.33312	2.75263	-0.620543
N	-0.789579	0.739594	0.298001
C	0.389574	-0.0804316	0.423364
C	0.368987	-1.11167	-0.689145
O	-0.624542	-1.25169	-1.39979
H	-1.55703	0.318959	-0.177348
H	1.2692	0.534046	0.277369
C	0.435726	-0.773102	1.80297
H	-0.461317	-1.41189	1.94893
H	1.3461	-1.39658	1.91705
H	0.442069	0.00023831	2.60188
N	1.47706	-1.85653	-0.871866
C	1.55158	-2.85875	-1.90926
H	2.2725	-1.72584	-0.2894
H	2.54301	-3.36289	-1.89853
H	1.40388	-2.39732	-2.91252
H	0.762991	-3.63248	-1.76566
C	4.23124	3.08081	-0.561016
C	4.28792	1.60925	-0.710862
O	3.33411	0.980291	-1.14798
H	3.2306	3.44431	-0.88108
H	5.00717	3.56013	-1.19422
H	4.39384	3.36392	0.500342
N	5.4272	1.01867	-0.342568
C	5.6171	-0.409711	-0.389804
C	6.62025	-0.789225	0.683142
O	7.24118	0.0751279	1.29881
H	6.17993	1.53954	0.0497796
H	4.68372	-0.90237	-0.147488
C	6.11857	-0.853866	-1.78138
H	7.08144	-0.356773	-2.02597
H	6.25542	-1.95339	-1.83476
H	5.37281	-0.558926	-2.55157
N	6.79632	-2.10058	0.938782
C	7.72566	-2.55618	1.94623
H	6.28172	-2.78501	0.433
H	7.72682	-3.66685	2.00669
H	7.45005	-2.15103	2.94681
H	8.75992	-2.21666	1.70923
