44
  This energy is 0.1058 and Call times are: 15439
C	2.60142	1.34957	-1.87721
C	1.34601	1.4836	-1.10447
O	0.917224	2.58208	-0.779071
H	3.03052	2.35893	-2.05873
H	2.399	0.863991	-2.85496
H	3.33772	0.742983	-1.30887
N	0.720486	0.347705	-0.786918
C	-0.488086	0.315029	-0.00152319
C	-0.530202	-1.00386	0.747025
O	0.282982	-1.89304	0.50249
H	1.10337	-0.540694	-1.02359
H	-0.454728	1.10497	0.738419
C	-1.73457	0.467415	-0.900574
H	-1.77489	-0.348752	-1.65309
H	-2.67102	0.457707	-0.306027
H	-1.67859	1.43557	-1.44454
N	-1.48131	-1.15799	1.68919
C	-1.59502	-2.37657	2.45621
H	-2.12775	-0.42559	1.87565
H	-2.43723	-2.30876	3.17961
H	-0.657842	-2.57054	3.02661
H	-1.77763	-3.24739	1.7858
C	6.87245	-1.85373	-0.994973
C	6.03424	-0.634626	-1.04339
O	6.42852	0.383118	-1.59579
H	7.84204	-1.65311	-1.50044
H	6.36163	-2.69032	-1.51645
H	7.06953	-2.14099	0.059405
N	4.83918	-0.712288	-0.453318
C	3.92998	0.404258	-0.380975
C	3.08188	0.243549	0.866615
O	3.11957	-0.794572	1.52433
H	4.54905	-1.53463	0.0277615
H	4.49704	1.32006	-0.269771
C	3.03601	0.470146	-1.63864
H	2.44619	-0.464912	-1.74738
H	2.34095	1.33387	-1.60127
H	3.67796	0.579713	-2.53988
N	2.29811	1.27867	1.2275
C	1.46075	1.21894	2.40284
H	2.28424	2.11199	0.684856
H	0.893317	2.16713	2.53005
H	2.07705	1.0541	3.31623
H	0.730694	0.381191	2.32316
