44
  This energy is 0.1369 and Call times are: 11182
C	-1.16829	-3.27833	-0.0180035
C	-1.28877	-1.84987	-0.386956
O	-2.12125	-1.47435	-1.20082
H	-1.90928	-3.87104	-0.597239
H	-1.36939	-3.41196	1.06572
H	-0.148479	-3.64958	-0.253038
N	-0.443291	-1.00865	0.21296
C	-0.410997	0.403626	-0.07511
C	0.999531	0.904589	0.171877
O	1.83965	0.183007	0.705946
H	0.255992	-1.33494	0.842569
H	-0.629518	0.559302	-1.12423
C	-1.42016	1.16998	0.807801
H	-1.19005	1.01915	1.88406
H	-1.4147	2.25679	0.585685
H	-2.44427	0.781535	0.61638
N	1.29549	2.15895	-0.221844
C	2.61322	2.7194	-0.0329856
H	0.603483	2.72618	-0.655959
H	2.65726	3.76047	-0.422169
H	3.37868	2.11235	-0.56855
H	2.88144	2.73739	1.04816
C	8.33175	1.1307	-1.39408
C	7.48458	0.0611247	-0.820076
O	7.8176	-1.1141	-0.886056
H	9.23018	0.675053	-1.86426
H	8.6592	1.82941	-0.595755
H	7.76701	1.69235	-2.16783
N	6.34946	0.452242	-0.236189
C	5.40204	-0.47585	0.329138
C	4.02158	0.147786	0.245677
O	3.88028	1.32211	-0.0900191
H	6.07224	1.40875	-0.226483
H	5.38513	-1.3781	-0.26943
C	5.75975	-0.805083	1.79505
H	5.76691	0.11885	2.41177
H	5.0455	-1.52953	2.23726
H	6.77679	-1.2529	1.83295
N	2.96394	-0.632456	0.543402
C	1.61204	-0.127212	0.48636
H	3.09808	-1.58142	0.809009
H	0.883727	-0.920232	0.765497
H	1.36801	0.226659	-0.541506
H	1.48288	0.729854	1.18629
