44
  This energy is -3.1724 and Call times are: 7912
C	-0.850897	-3.36141	0.299258
C	0.0141857	-2.20286	0.616332
O	0.853065	-2.2636	1.50459
H	-0.607657	-4.20047	0.986784
H	-0.679154	-3.69241	-0.746538
H	-1.9193	-3.08825	0.429567
N	-0.176343	-1.10224	-0.114906
C	0.559037	0.118216	0.104767
C	-0.314347	1.28098	-0.327373
O	-1.37191	1.0867	-0.923648
H	-0.890964	-1.05476	-0.806954
H	0.749886	0.234495	1.16434
C	1.88504	0.113464	-0.687029
H	1.68925	0.00478947	-1.7751
H	2.46699	1.0421	-0.515282
H	2.50457	-0.750077	-0.36018
N	0.107184	2.52515	-0.0267411
C	-0.660532	3.69248	-0.392982
H	0.963664	2.66203	0.459856
H	-0.148139	4.62116	-0.0579721
H	-1.67081	3.66107	0.075659
H	-0.793935	3.74444	-1.49781
C	9.7572	0.784989	-2.04147
C	8.6596	-0.114954	-1.62132
O	8.33731	-1.08008	-2.30035
H	10.1652	0.436873	-3.01523
H	10.5711	0.774334	-1.28636
H	9.37757	1.82166	-2.16089
N	8.04998	0.188545	-0.472998
C	6.93701	-0.568129	0.0440075
C	6.07626	0.36459	0.875105
O	6.46021	1.50036	1.14772
H	8.29644	1.0008	0.0479245
H	6.3293	-0.918542	-0.780932
C	7.4278	-1.75733	0.898503
H	8.04256	-1.39765	1.75099
H	6.58034	-2.35592	1.29095
H	8.06199	-2.42217	0.272302
N	4.87985	-0.0942541	1.29234
C	3.99052	0.723964	2.0834
H	4.58484	-1.01471	1.05823
H	3.05765	0.169124	2.32657
H	3.71315	1.65052	1.53037
H	4.47871	1.02505	3.03848
