44
  This energy is 0.1058 and Call times are: 11125
C	-2.4838	-2.10467	1.23037
C	-1.99211	-1.09154	0.269659
O	-2.63067	-0.809305	-0.734822
H	-3.4479	-2.52018	0.864667
H	-2.64694	-1.64072	2.2258
H	-1.74863	-2.9316	1.3242
N	-0.8241	-0.514541	0.561557
C	-0.196918	0.457777	-0.298559
C	1.30397	0.370746	-0.0953199
O	1.77835	-0.313059	0.809717
H	-0.296227	-0.784365	1.36181
H	-0.39783	0.20312	-1.33172
C	-0.704342	1.88199	0.0166998
H	-0.489032	2.14774	1.07361
H	-0.239112	2.63819	-0.648315
H	-1.80574	1.92025	-0.131007
N	2.09098	1.0603	-0.944539
C	3.53068	1.03323	-0.831797
H	1.68876	1.60472	-1.67317
H	3.99881	1.66235	-1.62065
H	3.91365	-0.00736867	-0.940246
H	3.85441	1.4184	0.162175
C	3.80134	-2.85857	-1.45686
C	4.19222	-1.43167	-1.50521
O	4.20561	-0.814459	-2.56128
H	3.56733	-3.21032	-2.48515
H	2.90144	-2.98747	-0.819439
H	4.63379	-3.46975	-1.04874
N	4.52682	-0.868278	-0.342019
C	4.97002	0.499507	-0.235737
C	5.89531	0.605178	0.961857
O	6.02188	-0.334364	1.74477
H	4.55045	-1.3946	0.503136
H	5.54866	0.756796	-1.11414
C	3.76919	1.45789	-0.0784346
H	3.18123	1.20095	0.828395
H	4.09661	2.51551	-0.00948915
H	3.10164	1.35791	-0.962019
N	6.57428	1.75736	1.12769
C	7.48178	1.94727	2.23518
H	6.46178	2.50481	0.48136
H	7.94283	2.9588	2.19682
H	8.29766	1.18902	2.20891
H	6.94477	1.84306	3.2057
