44
  This energy is 0.104 and Call times are: 14274
C	-3.22577	1.30014	-0.129195
C	-2.01731	0.884132	0.617599
O	-1.87606	1.16454	1.7999
H	-3.89387	1.87799	0.545802
H	-3.77322	0.407787	-0.498997
H	-2.94181	1.94216	-0.989587
N	-1.10276	0.195755	-0.0695053
C	0.143762	-0.240119	0.509067
C	1.17666	-0.321608	-0.5991
O	0.847326	-0.19864	-1.77729
H	-1.21328	0.0105867	-1.0418
H	0.488251	0.503296	1.21709
C	-0.0184915	-1.61181	1.19998
H	-0.361766	-2.37722	0.471728
H	0.931199	-1.95193	1.66143
H	-0.784609	-1.53056	2.00174
N	2.46063	-0.523993	-0.243458
C	3.51332	-0.609983	-1.22867
H	2.70819	-0.616961	0.715264
H	4.49763	-0.778386	-0.738783
H	3.57365	0.330972	-1.82217
H	3.32389	-1.45139	-1.93386
C	5.18985	1.12988	-2.72967
C	5.02808	0.883654	-1.27903
O	5.97509	0.981449	-0.5109
H	6.25228	1.37721	-2.94398
H	4.55163	1.98125	-3.04684
H	4.90883	0.222911	-3.30543
N	3.80275	0.550641	-0.866628
C	3.4992	0.2392	0.507932
C	2.33017	-0.727529	0.526822
O	1.70751	-0.982994	-0.502132
H	3.05102	0.435053	-1.50958
H	4.34502	-0.268697	0.954314
C	3.15609	1.51935	1.30086
H	2.28185	2.03517	0.849538
H	2.93395	1.29434	2.36413
H	4.02252	2.2154	1.26685
N	2.00897	-1.29733	1.70503
C	0.915203	-2.2338	1.81851
H	2.52713	-1.08123	2.52593
H	0.810482	-2.59102	2.86669
H	1.08541	-3.11794	1.1623
H	-0.0440451	-1.75668	1.51299
