44
  This energy is -3.6371 and Call times are: 11746
C	-1.63192	2.55638	1.70717
C	-0.406972	1.81533	1.33102
O	0.704259	2.2562	1.59027
H	-1.34682	3.50821	2.20579
H	-2.24426	1.9523	2.40921
H	-2.23083	2.79034	0.801814
N	-0.586947	0.653642	0.698201
C	0.508477	-0.159226	0.231456
C	0.0335493	-0.944465	-0.976599
O	-1.15359	-0.950983	-1.29655
H	-1.49683	0.327732	0.457846
H	1.31509	0.483585	-0.0983967
C	0.99748	-1.11581	1.34099
H	0.173123	-1.78265	1.67235
H	1.84991	-1.73746	0.99829
H	1.33264	-0.51992	2.21787
N	0.958235	-1.62238	-1.6847
C	0.600395	-2.39314	-2.85264
H	1.91459	-1.60169	-1.41261
H	1.49916	-2.87596	-3.29571
H	0.135693	-1.7404	-3.62676
H	-0.131712	-3.19021	-2.5884
C	5.85781	-3.03788	1.67857
C	5.2269	-1.71576	1.46618
O	4.17541	-1.42031	2.01708
H	5.22176	-3.64305	2.36052
H	6.86082	-2.91386	2.13826
H	5.95847	-3.57368	0.711173
N	5.86583	-0.878183	0.646037
C	5.35355	0.426394	0.308099
C	5.85991	0.789626	-1.0751
O	6.70759	0.098657	-1.63698
H	6.69957	-1.14827	0.172973
H	4.27285	0.383015	0.25488
C	5.80291	1.4807	1.34335
H	6.91154	1.53306	1.39074
H	5.40334	2.48694	1.1018
H	5.42808	1.19046	2.34913
N	5.34176	1.88614	-1.66263
C	5.75884	2.30628	-2.98009
H	4.65379	2.43021	-1.19385
H	5.21815	3.22814	-3.28843
H	5.55008	1.5099	-3.73075
H	6.85234	2.51864	-2.99711
