44
  This energy is 0.1059 and Call times are: 15331
C	2.61459	1.85573	1.35382
C	2.09862	0.720749	0.555875
O	2.8452	0.0421251	-0.13586
H	3.7092	1.95465	1.18667
H	2.4306	1.67882	2.43438
H	2.11708	2.79888	1.04392
N	0.78637	0.487981	0.634615
C	0.131576	-0.553602	-0.11699
C	-1.3022	-0.125911	-0.367855
O	-1.76841	0.868899	0.184151
H	0.185247	1.07445	1.16994
H	0.61199	-0.653496	-1.08232
C	0.170622	-1.89429	0.648694
H	-0.331396	-1.79514	1.63469
H	-0.318274	-2.70753	0.0741141
H	1.22909	-2.18372	0.828192
N	-2.03635	-0.868658	-1.21955
C	-3.40837	-0.535182	-1.52371
H	-1.64032	-1.66773	-1.65969
H	-3.84002	-1.26471	-2.24391
H	-3.47499	0.48215	-1.97301
H	-4.02966	-0.545551	-0.599025
C	1.98117	-1.86764	-2.83436
C	2.20841	-0.576864	-2.1463
O	2.31477	0.466227	-2.77643
H	1.95168	-1.69818	-3.93266
H	1.01398	-2.30778	-2.51253
H	2.80469	-2.57536	-2.60193
N	2.29135	-0.620802	-0.814543
C	2.55269	0.546309	-0.00949276
C	3.26239	0.0995978	1.25476
O	3.37279	-1.09439	1.52664
H	2.24365	-1.48311	-0.318561
H	3.22737	1.20436	-0.542787
C	1.24004	1.28228	0.337662
H	0.551773	0.610844	0.893999
H	1.42919	2.19056	0.945755
H	0.733799	1.59289	-0.602329
N	3.77056	1.05531	2.05751
C	4.46713	0.724871	3.27889
H	3.67479	2.01594	1.81858
H	4.80936	1.64703	3.79826
H	5.35876	0.0924124	3.06376
H	3.80143	0.159315	3.97036
