44
  This energy is -4.5671 and Call times are: 15156
C	-0.48244	2.8053	-2.00255
C	0.235085	2.07515	-0.933357
O	1.29237	2.49267	-0.481427
H	0.100636	3.70853	-2.28552
H	-1.48425	3.12211	-1.64373
H	-0.59822	2.15753	-2.89702
N	-0.333452	0.9475	-0.500293
C	0.26702	0.106271	0.504857
C	-0.188465	-1.32022	0.261513
O	-1.06729	-1.56898	-0.561596
H	-1.17337	0.599105	-0.906532
H	1.34362	0.125172	0.389903
C	-0.134422	0.568436	1.92277
H	-1.2382	0.539171	2.04468
H	0.332791	-0.0629807	2.70607
H	0.201746	1.6172	2.07585
N	0.409467	-2.29723	0.97141
C	0.0454112	-3.68481	0.803271
H	1.12141	-2.07666	1.62986
H	0.649363	-4.334	1.47485
H	0.217656	-4.01148	-0.247867
H	-1.03188	-3.8401	1.04091
C	4.57308	-1.1495	3.20359
C	4.276	-0.308699	2.02208
O	3.20404	0.269952	1.91035
H	3.69294	-1.15277	3.88271
H	5.44872	-0.743103	3.75208
H	4.78675	-2.19225	2.88723
N	5.23555	-0.223802	1.09772
C	5.07698	0.521335	-0.12628
C	5.94705	-0.12353	-1.18868
O	6.75046	-1.00641	-0.894136
H	6.08687	-0.733479	1.18336
H	4.04981	0.444913	-0.460493
C	5.47294	2.00075	0.0732259
H	6.52983	2.08021	0.405954
H	5.34202	2.58815	-0.858622
H	4.82888	2.4501	0.860379
N	5.79971	0.30019	-2.45942
C	6.58059	-0.259177	-3.53808
H	5.1415	1.01274	-2.67876
H	6.31398	0.219678	-4.50599
H	6.39898	-1.35477	-3.62735
H	7.6688	-0.103208	-3.35749
