44
  This energy is 0.1026 and Call times are: 16717
C	-1.07092	2.86719	-1.65682
C	-1.3059	1.72282	-0.747791
O	-2.3174	1.65561	-0.0631262
H	-1.91732	3.583	-1.57257
H	-1.0023	2.51381	-2.70714
H	-0.130353	3.3887	-1.38031
N	-0.358219	0.782879	-0.719735
C	-0.425157	-0.3679	0.146166
C	0.992782	-0.803539	0.464322
O	1.95138	-0.305326	-0.122687
H	0.478644	0.871905	-1.25228
H	-0.893062	-0.0849266	1.08084
C	-1.20742	-1.51828	-0.5246
H	-0.721838	-1.81607	-1.47831
H	-1.27786	-2.40533	0.137745
H	-2.23933	-1.17456	-0.755645
N	1.15947	-1.74465	1.41435
C	2.47215	-2.21744	1.7879
H	0.371826	-2.13297	1.88114
H	2.39985	-2.98947	2.58537
H	3.09835	-1.37815	2.16835
H	2.99244	-2.66643	0.911066
C	0.79795	-0.651648	0.885763
C	2.2044	-1.07334	0.698104
O	2.60335	-2.15118	1.11706
H	0.250418	-1.43886	1.44822
H	0.307148	-0.506763	-0.0995637
H	0.756413	0.296556	1.46218
N	3.00018	-0.216015	0.0545895
C	4.4026	-0.46729	-0.165975
C	5.11652	0.869227	-0.240904
O	4.48125	1.92104	-0.283597
H	2.67102	0.675106	-0.244426
H	4.80768	-1.00216	0.683993
C	4.62115	-1.27156	-1.46622
H	4.21517	-0.718473	-2.33989
H	5.69607	-1.4834	-1.64
H	4.08347	-2.24201	-1.39223
N	6.46404	0.858662	-0.25013
C	7.22912	2.08207	-0.314117
H	6.96043	-0.00222453	-0.210826
H	8.31991	1.86437	-0.311245
H	6.99975	2.7349	0.559083
H	6.98697	2.64901	-1.24206
