44
  This energy is 0.1477 and Call times are: 14340
C	3.34714	-0.580075	0.756883
C	2.24566	0.303338	0.312493
O	2.40514	1.51196	0.211397
H	4.24716	0.0355513	0.973295
H	3.59566	-1.31227	-0.0398993
H	3.05323	-1.12364	1.67951
N	1.08309	-0.291443	0.0349537
C	-0.0920555	0.440491	-0.36738
C	-1.31263	-0.343555	0.0764874
O	-1.20063	-1.48343	0.523531
H	0.95682	-1.27121	0.16135
H	-0.114508	1.39199	0.149116
C	-0.112324	0.6539	-1.89685
H	-0.0999518	-0.322179	-2.42709
H	-1.00541	1.22839	-2.21759
H	0.793757	1.22259	-2.2001
N	-2.51427	0.257115	-0.0297284
C	-3.73074	-0.409371	0.373007
H	-2.5843	1.18142	-0.390036
H	-4.6125	0.248407	0.208563
H	-3.69153	-0.679405	1.4532
H	-3.87786	-1.34607	-0.211885
C	4.06112	3.45251	-0.396537
C	3.45356	2.14331	-0.0678956
O	2.34393	2.07051	0.441853
H	3.36758	4.26613	-0.0917638
H	4.24351	3.52626	-1.48926
H	5.02125	3.57616	0.147457
N	4.18185	1.06207	-0.355818
C	3.74284	-0.27788	-0.0551985
C	4.97157	-1.13936	0.167642
O	6.09626	-0.708027	-0.0788106
H	5.1004	1.13891	-0.732938
H	3.18171	-0.270612	0.870923
C	2.88323	-0.847754	-1.20479
H	3.46192	-0.865234	-2.15287
H	2.52755	-1.87398	-0.979234
H	1.9941	-0.1973	-1.35542
N	4.78382	-2.38332	0.650676
C	5.89403	-3.27305	0.899668
H	3.8665	-2.71304	0.847849
H	5.53505	-4.24868	1.29529
H	6.59386	-2.82907	1.64424
H	6.4635	-3.46317	-0.038786
