44
  This energy is -1.3371 and Call times are: 16589
C	2.13704	0.117345	2.74444
C	0.803529	-0.0991037	2.13944
O	-0.11171	-0.591899	2.78434
H	2.12721	-0.246424	3.7949
H	2.38786	1.19893	2.74101
H	2.91006	-0.442956	2.17735
N	0.663724	0.269243	0.863839
C	-0.561018	0.081789	0.126663
C	-0.209944	-0.0809496	-1.34024
O	0.935294	0.120279	-1.73981
H	1.42954	0.63114	0.339987
H	-1.03479	-0.837115	0.448819
C	-1.51373	1.28095	0.325614
H	-1.03209	2.22242	-0.0145256
H	-2.46613	1.14222	-0.225938
H	-1.75072	1.38594	1.40689
N	-1.1932	-0.4601	-2.18017
C	-0.95159	-0.645619	-3.59204
H	-2.11263	-0.622192	-1.83744
H	-1.88353	-0.957923	-4.1128
H	-0.177625	-1.42957	-3.7584
H	-0.590268	0.300306	-4.0566
C	5.5486	3.11828	-1.54481
C	5.27947	1.66271	-1.53797
O	4.60269	1.14	-2.4127
H	5.03768	3.58216	-2.41638
H	6.63997	3.30529	-1.62665
H	5.16298	3.58312	-0.612988
N	5.81135	0.965585	-0.531237
C	5.6016	-0.451183	-0.36593
C	5.69177	-0.773183	1.11385
O	6.07105	0.0735344	1.92065
H	6.32573	1.41157	0.195647
H	4.60006	-0.704309	-0.690682
C	6.6495	-1.2605	-1.16102
H	7.67669	-1.00894	-0.820955
H	6.49016	-2.35295	-1.05296
H	6.57066	-1.00307	-2.23983
N	5.33439	-2.01156	1.50719
C	5.38238	-2.40698	2.89554
H	5.02618	-2.68169	0.840107
H	5.05007	-3.46166	3.01577
H	4.71887	-1.75806	3.51193
H	6.41898	-2.31819	3.29392
