44
  This energy is -0.3351 and Call times are: 9191
C	-0.125473	0.466928	3.44658
C	0.622254	0.32867	2.17657
O	1.81773	0.580628	2.11521
H	0.562899	0.830028	4.24042
H	-0.542439	-0.515083	3.75405
H	-0.95252	1.19807	3.32609
N	-0.0789693	-0.0799336	1.11652
C	0.500478	-0.220273	-0.196153
C	-0.59316	0.00712853	-1.2227
O	-1.77015	0.0989039	-0.879193
H	-1.06005	-0.241771	1.17276
H	1.24554	0.551865	-0.342157
C	1.12864	-1.61977	-0.375166
H	0.362433	-2.41196	-0.235886
H	1.59038	-1.73542	-1.37714
H	1.92054	-1.76737	0.391291
N	-0.225688	0.112284	-2.51496
C	-1.19638	0.334566	-3.56116
H	0.732027	0.0394182	-2.77292
H	-0.698224	0.392366	-4.554
H	-1.74753	1.28749	-3.38959
H	-1.94032	-0.494214	-3.58964
C	3.73625	1.33174	-2.17989
C	4.30542	1.1539	-0.825055
O	3.92722	1.83877	0.115328
H	2.98469	2.1506	-2.15794
H	3.23887	0.396234	-2.51185
H	4.53826	1.59927	-2.89979
N	5.24544	0.214851	-0.694835
C	5.9224	-0.0448892	0.551285
C	7.30638	-0.579877	0.235142
O	7.61837	-0.878395	-0.916056
H	5.57195	-0.306449	-1.47809
H	6.05153	0.886401	1.08854
C	5.13241	-1.05894	1.40737
H	5.00878	-2.01812	0.860807
H	5.63643	-1.25675	2.37554
H	4.12043	-0.65016	1.6198
N	8.17636	-0.705977	1.25654
C	9.51739	-1.2013	1.05045
H	7.90685	-0.455397	2.18047
H	10.0776	-1.23096	2.01092
H	10.0732	-0.546638	0.340639
H	9.49514	-2.23083	0.625346
