44
  This energy is -4.0621 and Call times are: 11096
C	0.934277	2.99475	-1.50707
C	-0.091385	2.05258	-1.0056
O	-1.26322	2.38831	-0.903136
H	0.456943	3.97438	-1.72698
H	1.39269	2.60119	-2.43858
H	1.72419	3.14383	-0.740971
N	0.335526	0.831738	-0.674444
C	-0.536507	-0.179852	-0.131483
C	0.291828	-1.09409	0.751458
O	1.51799	-1.00619	0.774259
H	1.29943	0.586322	-0.724727
H	-1.28027	0.290779	0.499354
C	-1.21557	-0.98645	-1.25998
H	-0.453193	-1.47808	-1.90117
H	-1.90027	-1.75948	-0.854839
H	-1.80965	-0.296308	-1.89805
N	-0.364686	-1.99362	1.51032
C	0.33943	-2.90154	2.38558
H	-1.35736	-2.04689	1.48133
H	-0.375242	-3.56187	2.9245
H	0.933397	-2.33762	3.14088
H	1.04036	-3.54349	1.80443
C	3.19288	2.02362	1.49113
C	4.22597	1.76958	0.461892
O	4.36058	2.51625	-0.497681
H	2.61698	2.93402	1.21658
H	3.67	2.18498	2.4806
H	2.49497	1.16217	1.55358
N	4.98956	0.68927	0.64149
C	6.00789	0.288019	-0.296892
C	6.16379	-1.21855	-0.210186
O	5.60298	-1.85973	0.676429
H	4.84092	0.0684566	1.40592
H	5.67919	0.520976	-1.30203
C	7.34887	0.989741	0.0106701
H	7.69181	0.742626	1.03798
H	8.13753	0.699591	-0.713447
H	7.20927	2.09114	-0.0506907
N	6.92832	-1.82265	-1.14108
C	7.12985	-3.25288	-1.14167
H	7.37065	-1.28741	-1.85308
H	7.78801	-3.55694	-1.98524
H	6.15742	-3.78653	-1.24591
H	7.60465	-3.58331	-0.189548
