44
  This energy is 0.1 and Call times are: 12726
C	3.35688	-0.916918	0.0574925
C	1.92233	-1.23368	-0.123837
O	1.56519	-2.30478	-0.594596
H	3.97023	-1.76901	-0.308067
H	3.57891	-0.749373	1.13238
H	3.62408	-0.00753645	-0.521058
N	1.05446	-0.290811	0.250556
C	-0.371528	-0.436208	0.0957245
C	-0.972411	0.946571	-0.0728476
O	-0.290498	1.95493	0.100104
H	1.36165	0.59211	0.593997
H	-0.57769	-0.990295	-0.811533
C	-0.989291	-1.14969	1.31824
H	-0.787111	-0.576183	2.24789
H	-2.08504	-1.28004	1.20483
H	-0.529245	-2.15611	1.42699
N	-2.27073	1.02544	-0.425223
C	-2.92678	2.2983	-0.613907
H	-2.80506	0.198319	-0.564659
H	-3.99144	2.15319	-0.901414
H	-2.42366	2.88429	-1.41688
H	-2.89534	2.89947	0.323507
C	6.5031	2.35985	-1.81458
C	6.30986	1.50004	-0.625232
O	7.20297	1.34609	0.196399
H	7.53501	2.77328	-1.80515
H	5.77873	3.20118	-1.80035
H	6.36211	1.76661	-2.74262
N	5.11843	0.909308	-0.507256
C	4.79606	0.0104004	0.572834
C	3.75619	-0.975033	0.0736744
O	3.21557	-0.82027	-1.01971
H	4.41565	1.01171	-1.20544
H	5.67799	-0.558638	0.839304
C	4.26257	0.787159	1.79647
H	3.35169	1.36278	1.52626
H	4.02378	0.107285	2.63984
H	5.03667	1.50775	2.13975
N	3.45693	-2.02321	0.866007
C	2.48379	-3.0151	0.471898
H	3.90793	-2.13364	1.74548
H	2.37846	-3.79625	1.25672
H	2.79081	-3.51112	-0.4773
H	1.48707	-2.54484	0.308968
