44
  This energy is -4.5228 and Call times are: 13263
C	-2.87504	0.56215	1.87904
C	-1.85015	0.996736	0.903403
O	-1.99305	2.02021	0.248805
H	-3.72007	1.28447	1.87036
H	-2.44124	0.528826	2.90054
H	-3.25934	-0.443768	1.60787
N	-0.776378	0.212771	0.781797
C	0.284525	0.48163	-0.156692
C	0.915471	-0.841086	-0.548975
O	0.618571	-1.87937	0.038841
H	-0.693485	-0.638637	1.2918
H	-0.134948	0.917829	-1.05469
C	1.34133	1.42378	0.460361
H	1.77956	0.972102	1.37578
H	2.15649	1.6495	-0.257341
H	0.855854	2.38212	0.747142
N	1.80091	-0.834604	-1.56484
C	2.44781	-2.04631	-2.01146
H	2.02524	0.014812	-2.03093
H	3.13975	-1.83433	-2.85615
H	1.69334	-2.79074	-2.35482
H	3.03495	-2.50637	-1.18397
C	7.13322	-1.99	-2.79508
C	6.28641	-1.06726	-2.00604
O	5.27912	-0.565815	-2.48597
H	6.70641	-2.09799	-3.81588
H	7.16469	-2.98881	-2.3112
H	8.16458	-1.58681	-2.87761
N	6.68527	-0.817563	-0.756657
C	5.98879	0.0923633	0.118277
C	6.99576	0.677975	1.0902
O	8.14182	0.23696	1.15158
H	7.52967	-1.20113	-0.393731
H	5.58851	0.912482	-0.46465
C	4.85822	-0.632341	0.881069
H	5.26968	-1.4672	1.4875
H	4.30544	0.060757	1.54783
H	4.13758	-1.05966	0.150037
N	6.59026	1.69832	1.87154
C	7.48058	2.32237	2.82236
H	5.6602	2.04413	1.80453
H	6.96178	3.14093	3.36829
H	8.36802	2.75368	2.30497
H	7.84346	1.57837	3.56796
