44
  This energy is -4.0437 and Call times are: 16379
C	0.0428438	3.42156	0.635443
C	0.243706	2.01583	1.05343
O	0.805898	1.74226	2.10487
H	0.486135	4.09836	1.39788
H	-1.04144	3.64285	0.545423
H	0.539674	3.60532	-0.34051
N	-0.217865	1.07801	0.222877
C	-0.0585927	-0.332998	0.472391
C	-0.0170163	-1.04807	-0.864958
O	-0.275213	-0.44952	-1.90745
H	-0.636783	1.31569	-0.648834
H	0.893205	-0.504415	0.959556
C	-1.21619	-0.873957	1.3399
H	-2.19204	-0.707822	0.835764
H	-1.09769	-1.95658	1.55061
H	-1.23243	-0.331063	2.31013
N	0.319769	-2.3529	-0.866114
C	0.39085	-3.11414	-2.09153
H	0.529276	-2.8189	-0.0128702
H	0.684241	-4.16681	-1.88412
H	1.14128	-2.67149	-2.78593
H	-0.596137	-3.12033	-2.60822
C	5.30462	0.139234	-3.39469
C	4.67413	-0.514028	-2.22555
O	3.89311	-1.44507	-2.36551
H	4.93487	-0.340256	-4.32701
H	6.40823	0.0276127	-3.34644
H	5.04306	1.21819	-3.41737
N	5.00384	-0.0298739	-1.02585
C	4.43949	-0.533536	0.2015
C	4.43395	0.593505	1.21704
O	5.01016	1.65429	0.983748
H	5.60939	0.754994	-0.930152
H	3.40892	-0.818533	0.0302881
C	5.25294	-1.73508	0.730508
H	6.30781	-1.44051	0.91631
H	4.82024	-2.14066	1.66795
H	5.25008	-2.54442	-0.0319223
N	3.77052	0.390869	2.37238
C	3.70618	1.40829	3.39555
H	3.30693	-0.47264	2.54124
H	3.11572	1.05171	4.26816
H	3.22501	2.3324	3.00086
H	4.72834	1.67534	3.74914
