44
  This energy is 0.1096 and Call times are: 9531
C	-3.09127	-0.523362	1.5109
C	-1.61124	-0.526225	1.53612
O	-0.996293	-0.66683	2.58421
H	-3.4765	-0.644598	2.54665
H	-3.46504	-1.36294	0.887886
H	-3.46512	0.437553	1.09863
N	-0.997379	-0.365813	0.361465
C	0.437198	-0.304094	0.232076
C	0.766615	0.547209	-0.979668
O	-0.117468	0.911384	-1.75264
H	-1.51158	-0.211558	-0.477388
H	0.852956	0.194147	1.09899
C	1.03876	-1.71838	0.0799306
H	0.620421	-2.22598	-0.81527
H	2.14416	-1.68524	-0.00666829
H	0.778512	-2.32603	0.974018
N	2.05523	0.892981	-1.16927
C	2.46251	1.70563	-2.29172
H	2.75577	0.592126	-0.530683
H	3.56074	1.88095	-2.27235
H	1.94931	2.69423	-2.26762
H	2.20394	1.20579	-3.2532
C	1.51456	-0.843624	0.525241
C	2.60655	0.150257	0.42075
O	2.3687	1.34919	0.371752
H	0.536348	-0.315471	0.528982
H	1.61357	-1.42337	1.46696
H	1.54481	-1.53785	-0.340903
N	3.84944	-0.335591	0.381444
C	5.01214	0.504663	0.237697
C	6.09358	-0.299428	-0.459079
O	5.95667	-1.50628	-0.650071
H	4.02496	-1.31592	0.380988
H	4.76993	1.34306	-0.403431
C	5.5079	1.00066	1.61372
H	5.76652	0.141093	2.26818
H	6.39459	1.65993	1.51539
H	4.6979	1.57957	2.1088
N	7.19788	0.357718	-0.864895
C	8.27709	-0.323452	-1.54128
H	7.28864	1.3351	-0.705015
H	9.09391	0.387933	-1.7942
H	7.91549	-0.791855	-2.48527
H	8.69953	-1.12781	-0.896536
