44
  This energy is 0.1522 and Call times are: 12288
C	-3.03272	-1.10345	-1.30295
C	-2.18644	-0.0675476	-0.669026
O	-2.56846	1.09062	-0.573526
H	-3.98095	-0.639948	-1.65211
H	-3.27188	-1.90304	-0.570689
H	-2.5068	-1.54632	-2.17494
N	-0.996297	-0.468845	-0.216368
C	-0.0453259	0.432346	0.385352
C	1.34787	-0.112262	0.132428
O	1.50851	-1.23284	-0.347364
H	-0.682534	-1.40618	-0.338116
H	-0.10835	1.39663	-0.103334
C	-0.303788	0.575518	1.90125
H	-0.228839	-0.411884	2.40469
H	0.413391	1.27767	2.37364
H	-1.33154	0.967879	2.06286
N	2.39416	0.677818	0.443999
C	3.75634	0.246355	0.233098
H	2.24403	1.58306	0.827502
H	4.47258	1.03577	0.55097
H	3.93553	0.0235624	-0.843717
H	3.97083	-0.67776	0.817177
C	3.38021	-1.18366	-3.26173
C	4.11659	-1.03406	-1.98638
O	5.12841	-1.68311	-1.75977
H	3.88604	-1.94839	-3.89037
H	3.36628	-0.218876	-3.81104
H	2.33778	-1.51212	-3.06546
N	3.61428	-0.161171	-1.10995
C	4.1953	0.0617545	0.19054
C	3.08997	0.497072	1.1341
O	1.96751	0.76349	0.70887
H	2.76702	0.329618	-1.29197
H	4.59328	-0.871624	0.568743
C	5.30359	1.13524	0.122976
H	4.89353	2.09599	-0.255003
H	5.76831	1.30598	1.11565
H	6.09767	0.79923	-0.579067
N	3.38224	0.571424	2.44752
C	2.39259	0.971079	3.42067
H	4.29505	0.347956	2.77297
H	2.8257	0.970121	4.4452
H	1.52395	0.273542	3.40675
H	2.01586	1.99603	3.20001
