44
  This energy is 0.1296 and Call times are: 12492
C	1.67762	-2.71433	1.3895
C	0.882488	-2.08759	0.309637
O	0.731441	-2.64353	-0.769492
H	2.07905	-3.68761	1.0325
H	1.03923	-2.89379	2.28
H	2.52704	-2.05655	1.67039
N	0.349754	-0.893928	0.58121
C	-0.412764	-0.141364	-0.383557
C	-0.25384	1.33348	-0.0655252
O	0.296972	1.69835	0.971388
H	0.515652	-0.435698	1.44975
H	0.000201596	-0.3047	-1.37119
C	-1.90278	-0.545913	-0.345891
H	-2.32968	-0.368658	0.664245
H	-2.49812	0.0167239	-1.09392
H	-1.9945	-1.63039	-0.573591
N	-0.72887	2.22104	-0.961409
C	-0.617747	3.64501	-0.746608
H	-1.16779	1.90657	-1.79659
H	-1.06676	4.20692	-1.59505
H	0.450904	3.94596	-0.65339
H	-1.14337	3.94354	0.189204
C	1.67737	-2.30231	-0.971088
C	2.2466	-1.34075	-0.000244023
O	1.60859	-0.975925	0.977639
H	0.645962	-2.57377	-0.657474
H	2.29663	-3.22322	-1.00556
H	1.63705	-1.84614	-1.9827
N	3.48093	-0.900489	-0.255166
C	4.15078	0.0698497	0.57447
C	5.12212	0.845606	-0.295177
O	5.35221	0.493846	-1.45061
H	3.9718	-1.1752	-1.07701
H	3.42404	0.77635	0.95569
C	4.89715	-0.619966	1.73737
H	5.65017	-1.33716	1.34668
H	5.40559	0.117713	2.39146
H	4.1682	-1.18801	2.35567
N	5.71174	1.93195	0.241672
C	6.64591	2.73515	-0.512234
H	5.50975	2.20317	1.17694
H	7.02096	3.58301	0.102349
H	6.15943	3.15148	-1.42399
H	7.51886	2.12316	-0.835606
