44
  This energy is 0.1452 and Call times are: 11432
C	3.29674	0.156275	1.10443
C	2.2857	0.0872306	0.0254617
O	2.59515	0.266463	-1.14438
H	4.28789	0.400161	0.663951
H	3.36628	-0.820966	1.62683
H	3.02367	0.946971	1.83472
N	1.03248	-0.176657	0.402522
C	-0.067438	-0.233055	-0.527836
C	-1.33314	0.157197	0.211933
O	-1.33203	0.292502	1.43398
H	0.788909	-0.279634	1.3627
H	0.0881344	0.499769	-1.30976
C	-0.207422	-1.6477	-1.1315
H	-0.377564	-2.39848	-0.33061
H	-1.04235	-1.70048	-1.85995
H	0.73292	-1.91545	-1.66105
N	-2.44801	0.356494	-0.51839
C	-3.69789	0.735565	0.0982787
H	-2.42819	0.246222	-1.50658
H	-4.4953	0.851979	-0.668407
H	-3.59047	1.70218	0.641779
H	-4.02536	-0.0376314	0.830447
C	3.02314	1.93314	2.62117
C	3.19708	0.63661	1.92842
O	2.90107	-0.417403	2.47417
H	2.62536	1.75286	3.64349
H	2.30584	2.5716	2.06386
H	3.9986	2.45749	2.70241
N	3.69217	0.687408	0.689587
C	3.95773	-0.493124	-0.0942339
C	5.09387	-0.180704	-1.04983
O	5.51088	0.968803	-1.17804
H	3.9667	1.54988	0.27409
H	4.2954	-1.28754	0.559606
C	2.69917	-0.931981	-0.874414
H	2.35852	-0.121201	-1.55311
H	2.88692	-1.84808	-1.4711
H	1.87857	-1.1477	-0.155796
N	5.62953	-1.20614	-1.74088
C	6.7178	-1.00547	-2.66909
H	5.28134	-2.12992	-1.62059
H	7.01823	-1.96879	-3.13706
H	7.60464	-0.57739	-2.14799
H	6.41925	-0.30038	-3.47832
