44
  This energy is -4.6896 and Call times are: 10575
C	-0.661824	-2.84767	-1.88823
C	0.186633	-1.68809	-1.53238
O	1.32729	-1.58294	-1.96162
H	-0.0865756	-3.53589	-2.54499
H	-1.56811	-2.50643	-2.43132
H	-0.965057	-3.3957	-0.971279
N	-0.361065	-0.77799	-0.723604
C	0.355099	0.382347	-0.255322
C	-0.213964	0.776438	1.09465
O	-1.23333	0.243075	1.5284
H	-1.27624	-0.898073	-0.349567
H	1.39541	0.122856	-0.103536
C	0.228987	1.55029	-1.25794
H	-0.837447	1.82386	-1.40598
H	0.787711	2.44525	-0.91531
H	0.644209	1.23683	-2.24064
N	0.44154	1.72071	1.79799
C	-0.0225349	2.15573	3.09474
H	1.26697	2.13778	1.43221
H	0.650552	2.93705	3.51154
H	-0.05146	1.30088	3.80866
H	-1.05009	2.58006	3.02245
C	5.03901	2.12906	-2.65977
C	4.62541	1.32318	-1.48902
O	3.50176	1.42418	-1.01611
H	4.19851	2.78857	-2.9671
H	5.30257	1.46362	-3.50857
H	5.91463	2.76047	-2.39963
N	5.54201	0.492679	-0.986531
C	5.30152	-0.324112	0.176901
C	6.62929	-0.560035	0.87184
O	7.68635	-0.224819	0.340842
H	6.46552	0.451543	-1.35707
H	4.66727	0.216723	0.868158
C	4.65047	-1.66793	-0.217455
H	5.30557	-2.22792	-0.918386
H	4.44757	-2.30016	0.671162
H	3.68434	-1.47083	-0.731345
N	6.60409	-1.13923	2.08836
C	7.81766	-1.39823	2.82751
H	5.73869	-1.39971	2.50344
H	7.58833	-1.87865	3.80416
H	8.3678	-0.449578	3.02421
H	8.49088	-2.07499	2.25313
