44
  This energy is -1.8488 and Call times are: 10645
C	-0.491703	-3.39632	0.579569
C	-0.610199	-2.18831	-0.267661
O	-0.94077	-2.26916	-1.44265
H	-0.725632	-4.29646	-0.0294563
H	-1.20617	-3.34059	1.42761
H	0.542585	-3.48767	0.973264
N	-0.33568	-1.02167	0.320538
C	-0.365552	0.23496	-0.385538
C	0.61789	1.17679	0.283307
O	1.15153	0.876798	1.34958
H	-0.0282386	-0.97579	1.26671
H	-0.0251025	0.0817484	-1.40203
C	-1.78664	0.83965	-0.375704
H	-2.13221	1.00683	0.66673
H	-1.8257	1.80078	-0.928172
H	-2.49074	0.130208	-0.862829
N	0.887912	2.34238	-0.336782
C	1.81492	3.29878	0.221914
H	0.449312	2.56558	-1.20101
H	1.90212	4.19201	-0.435162
H	2.82669	2.84591	0.333812
H	1.47408	3.63513	1.22781
C	5.03489	-0.558937	3.42333
C	4.84367	0.336986	2.26061
O	4.49431	1.49997	2.40833
H	4.797	-0.00463616	4.35714
H	6.08854	-0.905928	3.46988
H	4.35984	-1.43713	3.34484
N	5.07046	-0.195467	1.05751
C	4.88502	0.539123	-0.169085
C	4.52906	-0.449574	-1.26332
O	4.60188	-1.66091	-1.06565
H	5.31463	-1.1551	0.951017
H	4.04514	1.21358	-0.0580556
C	6.16292	1.32229	-0.541705
H	7.02253	0.629716	-0.666058
H	6.0282	1.9031	-1.47714
H	6.40895	2.03387	0.276507
N	4.12485	0.0482642	-2.44855
C	3.76038	-0.816167	-3.54677
H	4.06841	1.03133	-2.58811
H	3.45582	-0.218015	-4.43373
H	2.91015	-1.47703	-3.26101
H	4.61839	-1.46416	-3.83843
