44
  This energy is -4.5085 and Call times are: 12862
C	-0.27329	2.68355	2.19921
C	0.0980627	1.28431	1.8904
O	0.749896	0.613646	2.6789
H	0.143855	2.96396	3.1908
H	-1.37818	2.78804	2.23157
H	0.140133	3.36814	1.42882
N	-0.314356	0.806718	0.71388
C	0.00578609	-0.521974	0.254919
C	0.0381771	-0.503503	-1.26171
O	-0.345087	0.482783	-1.88786
H	-0.80907	1.37793	0.065152
H	0.998673	-0.788017	0.595548
C	-1.03319	-1.54605	0.761896
H	-2.05046	-1.27944	0.403958
H	-0.790033	-2.57514	0.426664
H	-1.04538	-1.53676	1.8737
N	0.50792	-1.59895	-1.89048
C	0.581351	-1.67039	-3.33121
H	0.817322	-2.3856	-1.36653
H	0.994797	-2.65067	-3.65578
H	1.23713	-0.863579	-3.73156
H	-0.429858	-1.54928	-3.7828
C	5.3039	-2.01706	-2.73421
C	5.26004	-0.700743	-2.05852
O	5.83771	0.270633	-2.52664
H	5.92724	-1.93853	-3.65134
H	4.27941	-2.33381	-3.02201
H	5.75037	-2.77841	-2.06035
N	4.56299	-0.640265	-0.921482
C	4.46448	0.559967	-0.128831
C	4.26372	0.15519	1.31942
O	4.04704	-1.01676	1.62154
H	4.13231	-1.44925	-0.531712
H	5.3996	1.1031	-0.185297
C	3.29419	1.44499	-0.610921
H	2.33322	0.891814	-0.543257
H	3.21647	2.37885	-0.0173065
H	3.45814	1.72254	-1.67507
N	4.34013	1.12189	2.25519
C	4.16788	0.830088	3.65924
H	4.52032	2.06376	1.99161
H	4.26676	1.75558	4.26827
H	4.93421	0.0992119	4.00542
H	3.16165	0.391136	3.84891
