44
  This energy is 0.1074 and Call times are: 13931
C	3.1461	0.565815	-1.37644
C	1.71688	0.200253	-1.49829
O	1.17555	0.118179	-2.5922
H	3.5662	0.748242	-2.38942
H	3.71253	-0.259299	-0.895729
H	3.25437	1.49018	-0.770697
N	1.06353	-0.028868	-0.356798
C	-0.340807	-0.351972	-0.312154
C	-0.897004	0.137915	1.01156
O	-0.148449	0.552582	1.89441
H	1.50738	0.0818758	0.527851
H	-0.856364	0.18633	-1.09769
C	-0.562008	-1.87303	-0.462752
H	-0.0420207	-2.42508	0.348973
H	-1.64021	-2.13313	-0.443855
H	-0.140265	-2.21078	-1.43456
N	-2.23408	0.108876	1.17711
C	-2.85418	0.560135	2.40105
H	-2.82366	-0.22628	0.449695
H	-3.96018	0.457364	2.34268
H	-2.6113	1.63038	2.59303
H	-2.49165	-0.0371629	3.26878
C	2.60872	3.10786	1.56649
C	1.91898	1.87958	1.1118
O	0.782748	1.61783	1.48175
H	1.94332	3.66778	2.25901
H	2.84964	3.75549	0.697428
H	3.54522	2.84486	2.1021
N	2.60447	1.08495	0.28654
C	2.08269	-0.16549	-0.206111
C	3.25279	-1.09234	-0.477029
O	4.40913	-0.677215	-0.429646
H	3.54364	1.29086	0.0268622
H	1.4766	-0.627528	0.563169
C	1.25417	0.0505553	-1.49146
H	1.87836	0.514884	-2.28445
H	0.835384	-0.903177	-1.87294
H	0.408319	0.737982	-1.27165
N	2.97732	-2.38054	-0.761059
C	4.02643	-3.3369	-1.02736
H	2.03551	-2.69862	-0.79076
H	3.59835	-4.34148	-1.23907
H	4.7096	-3.42453	-0.151636
H	4.63209	-3.02107	-1.90745
