44
  This energy is -3.1358 and Call times are: 11553
C	1.50571	3.13537	-0.122411
C	0.498057	2.19368	0.415181
O	-0.164937	2.47293	1.40456
H	1.53561	4.04509	0.515863
H	1.23812	3.43186	-1.15838
H	2.51041	2.66245	-0.121326
N	0.360884	1.03609	-0.235622
C	-0.54792	0.00221029	0.193011
C	0.0119994	-1.33495	-0.254247
O	0.980752	-1.39129	-1.00927
H	0.936583	0.806173	-1.01509
H	-0.58923	-0.0110315	1.27502
C	-1.95641	0.225122	-0.400036
H	-1.9162	0.228262	-1.51018
H	-2.66892	-0.556798	-0.0661811
H	-2.3431	1.21272	-0.0661704
N	-0.584333	-2.44995	0.211793
C	-0.117422	-3.7666	-0.155103
H	-1.36446	-2.38411	0.825098
H	-0.736973	-4.55285	0.329861
H	0.941264	-3.91011	0.160911
H	-0.170612	-3.9091	-1.25874
C	3.22865	0.264823	2.21506
C	4.67868	0.20759	1.92301
O	5.50831	0.473946	2.7816
H	3.07857	0.58769	3.26819
H	2.77075	-0.737275	2.07766
H	2.73108	0.993895	1.5413
N	5.02055	-0.145365	0.681668
C	6.39031	-0.203785	0.23568
C	6.41428	0.0725165	-1.25585
O	5.37	0.133094	-1.90199
H	4.33311	-0.319437	-0.0176051
H	6.95705	0.582515	0.718544
C	7.01138	-1.58455	0.540637
H	6.43654	-2.39068	0.0368913
H	8.07031	-1.63747	0.214443
H	6.97596	-1.76892	1.63658
N	7.61546	0.255987	-1.83854
C	7.73623	0.529474	-3.25162
H	8.44908	0.207245	-1.29837
H	8.80402	0.64952	-3.5391
H	7.19413	1.46559	-3.51825
H	7.30287	-0.303229	-3.85157
