44
  This energy is 0.1204 and Call times are: 11038
C	-3.0688	1.55574	-0.524203
C	-1.60229	1.47157	-0.706968
O	-1.02281	2.18629	-1.51307
H	-3.48271	2.31659	-1.22111
H	-3.30804	1.85502	0.517883
H	-3.53878	0.573904	-0.74375
N	-0.960237	0.578539	0.0497563
C	0.460276	0.351455	-0.0458183
C	0.737167	-1.08637	0.351089
O	-0.149042	-1.78797	0.834933
H	-1.45098	-0.024678	0.671983
H	0.772027	0.467363	-1.07636
C	1.23723	1.32459	0.867744
H	0.925354	1.19872	1.92648
H	2.33298	1.16899	0.792583
H	1.01337	2.37061	0.564322
N	1.98081	-1.5632	0.146128
C	2.3356	-2.92099	0.487762
H	2.68337	-0.981525	-0.25028
H	3.40198	-3.12211	0.24361
H	1.70433	-3.64559	-0.0759079
H	2.18416	-3.10484	1.57607
C	3.25949	-2.99534	0.333668
C	3.51207	-1.58602	0.709422
O	2.73106	-0.97134	1.42259
H	2.29688	-3.32749	0.779649
H	4.07524	-3.64507	0.714657
H	3.19595	-3.09141	-0.77078
N	4.62782	-1.03403	0.226958
C	4.98723	0.34081	0.470276
C	5.81966	0.826541	-0.70135
O	6.21625	0.0415144	-1.56051
H	5.23288	-1.53444	-0.385699
H	4.08902	0.944916	0.500236
C	5.77726	0.479228	1.7901
H	6.70418	-0.132072	1.75581
H	6.04786	1.53518	1.99568
H	5.15204	0.110623	2.63246
N	6.09789	2.14345	-0.767344
C	6.8787	2.69779	-1.84865
H	5.76472	2.76361	-0.0648673
H	6.99767	3.79675	-1.72465
H	6.38373	2.50721	-2.82843
H	7.89226	2.23633	-1.87836
