44
  This energy is -3.6951 and Call times are: 10733
C	-1.3703	3.19518	-0.160515
C	-1.49165	1.73377	0.0412174
O	-2.51915	1.23904	0.483815
H	-2.31167	3.69006	0.163223
H	-1.1967	3.42025	-1.2338
H	-0.528018	3.59602	0.441957
N	-0.424865	0.999369	-0.282827
C	-0.37684	-0.43017	-0.102074
C	1.06889	-0.829868	0.12523
O	1.97865	-0.0172818	-0.0289039
H	0.418747	1.4206	-0.603367
H	-0.929202	-0.696131	0.790558
C	-0.953606	-1.16169	-1.33393
H	-0.38067	-0.897349	-2.2482
H	-0.934937	-2.26285	-1.20121
H	-2.00949	-0.848063	-1.48592
N	1.31411	-2.09847	0.508047
C	2.65797	-2.56774	0.752996
H	0.564494	-2.74027	0.631508
H	2.65148	-3.63725	1.05851
H	3.13947	-1.97454	1.56389
H	3.28221	-2.46874	-0.164425
C	3.62395	2.76949	0.733418
C	4.38742	1.92771	-0.215097
O	4.30253	2.09906	-1.42334
H	3.00861	3.49927	0.163646
H	4.31927	3.32597	1.39645
H	2.95157	2.13705	1.35067
N	5.16168	0.981697	0.321527
C	5.93049	0.0574869	-0.474284
C	6.08813	-1.22864	0.314773
O	5.74253	-1.29098	1.49307
H	5.18878	0.827714	1.3051
H	5.3796	-0.182271	-1.3752
C	7.31275	0.649737	-0.826178
H	7.88251	0.88609	0.0977041
H	7.90898	-0.0468741	-1.45049
H	7.17305	1.5941	-1.39626
N	6.60993	-2.29423	-0.324162
C	6.79241	-3.56157	0.344228
H	6.87986	-2.22552	-1.27888
H	7.23384	-4.31156	-0.348513
H	5.81739	-3.95555	0.712183
H	7.47217	-3.44989	1.21978
