44
  This energy is -1.4227 and Call times are: 8702
C	2.63438	1.94242	-1.18311
C	1.34143	1.2466	-1.37086
O	0.664837	1.42783	-2.37375
H	2.82275	2.60845	-2.05305
H	3.45979	1.20335	-1.11096
H	2.60732	2.55742	-0.258909
N	0.963289	0.422402	-0.391013
C	-0.289036	-0.291634	-0.410953
C	-0.723537	-0.524636	1.02379
O	0.0331324	-0.273198	1.9597
H	1.50518	0.316582	0.437852
H	-1.04472	0.325578	-0.880654
C	-0.146012	-1.63553	-1.15844
H	0.621647	-2.27338	-0.670714
H	-1.10704	-2.18849	-1.19268
H	0.180319	-1.44129	-2.20349
N	-1.96499	-1.00627	1.23076
C	-2.46731	-1.25437	2.56205
H	-2.56412	-1.19973	0.460901
H	-3.50681	-1.64823	2.52309
H	-2.4705	-0.315544	3.16194
H	-1.8294	-1.99945	3.09032
C	6.91705	-3.2125	-1.25477
C	6.06352	-2.15132	-0.674658
O	4.84582	-2.26415	-0.644687
H	6.27309	-4.03582	-1.63333
H	7.60178	-3.61865	-0.480855
H	7.51316	-2.80552	-2.09862
N	6.69538	-1.07749	-0.195023
C	5.9981	0.0553771	0.36082
C	6.85331	1.28968	0.144775
O	8.00591	1.1922	-0.272017
H	7.68433	-0.982044	-0.263645
H	5.07226	0.205665	-0.180355
C	5.71828	-0.15294	1.86533
H	6.66848	-0.296662	2.42257
H	5.1695	0.706595	2.30186
H	5.0979	-1.06577	2.00029
N	6.30129	2.48841	0.417456
C	7.03716	3.71808	0.237016
H	5.36586	2.54729	0.749983
H	6.41168	4.59503	0.514461
H	7.35279	3.83471	-0.825087
H	7.95256	3.72513	0.871949
