44
  This energy is -2.3491 and Call times are: 14699
C	1.29381	2.7	1.77447
C	0.32694	1.5912	1.61055
O	-0.401694	1.24555	2.53034
H	1.23028	3.09224	2.81273
H	1.05842	3.52105	1.06509
H	2.32699	2.33722	1.58998
N	0.301022	0.998356	0.414621
C	-0.555701	-0.12237	0.117031
C	0.115096	-0.958549	-0.956463
O	1.12167	-0.552305	-1.53394
H	0.928918	1.264	-0.311361
H	-0.649604	-0.744208	0.998582
C	-1.94493	0.356208	-0.358615
H	-1.85005	0.985525	-1.26911
H	-2.61844	-0.497558	-0.57769
H	-2.41379	0.972557	0.439282
N	-0.426612	-2.15853	-1.24391
C	0.146132	-3.02568	-2.24701
H	-1.23885	-2.47175	-0.763039
H	-0.441947	-3.96555	-2.33655
H	1.19514	-3.29243	-1.98302
H	0.157502	-2.5229	-3.24111
C	3.7535	-3.09637	-0.985644
C	3.8273	-1.96373	-0.0354698
O	3.02812	-1.85605	0.884384
H	2.89173	-3.74535	-0.717265
H	4.68536	-3.69804	-0.937004
H	3.61083	-2.71922	-2.02028
N	4.80457	-1.07804	-0.242619
C	4.97743	0.0988392	0.57201
C	5.62645	1.17296	-0.280402
O	6.0594	0.911504	-1.40107
H	5.42213	-1.15717	-1.01993
H	4.00605	0.469977	0.874161
C	5.84817	-0.209899	1.80964
H	6.84853	-0.580705	1.5001
H	5.97715	0.68508	2.45221
H	5.35804	-1.00389	2.41437
N	5.70146	2.41719	0.231724
C	6.29723	3.50476	-0.508823
H	5.34189	2.61019	1.13866
H	6.26353	4.44717	0.0810631
H	5.75393	3.67151	-1.4671
H	7.36135	3.27967	-0.749934
