44
  This energy is -3.5686 and Call times are: 9163
C	0.683281	3.41179	0.0742969
C	0.386186	2.15776	-0.653916
O	0.105249	2.16848	-1.84445
H	0.585413	4.27286	-0.622014
H	1.71965	3.38712	0.471889
H	-0.0313485	3.54538	0.913672
N	0.440629	1.03034	0.0590595
C	0.134818	-0.262811	-0.500228
C	-0.393574	-1.14692	0.613642
O	-0.34605	-0.779111	1.78589
H	0.630623	1.04175	1.03663
H	-0.656829	-0.157563	-1.23156
C	1.38752	-0.895114	-1.14534
H	2.19633	-1.01302	-0.393044
H	1.16178	-1.88518	-1.59182
H	1.76153	-0.227501	-1.95204
N	-0.920767	-2.33841	0.269463
C	-1.45306	-3.24414	1.26067
H	-0.954133	-2.61673	-0.684735
H	-1.84048	-4.16946	0.780136
H	-2.2875	-2.76525	1.8225
H	-0.664708	-3.53281	1.993
C	7.27872	-1.72521	2.40669
C	5.99734	-1.26707	1.82418
O	4.92866	-1.72052	2.20983
H	7.07578	-2.50261	3.17502
H	7.80668	-0.874618	2.88679
H	7.92433	-2.16169	1.61564
N	6.07866	-0.343207	0.863845
C	4.92157	0.168608	0.172655
C	5.35079	0.590695	-1.21989
O	6.54019	0.622507	-1.52975
H	6.95802	-0.0137063	0.532156
H	4.19336	-0.624763	0.0591422
C	4.30697	1.36284	0.935099
H	5.05039	2.18125	1.0426
H	3.40704	1.75708	0.420105
H	4.00753	1.03294	1.95385
N	4.38409	0.918626	-2.09965
C	4.69713	1.3271	-3.44921
H	3.42704	0.88279	-1.83162
H	3.76794	1.55441	-4.01683
H	5.24732	0.520652	-3.98606
H	5.33774	2.23856	-3.44541
