44
  This energy is 0.1618 and Call times are: 15406
C	0.123385	-2.14449	2.73836
C	-0.579523	-1.16141	1.8836
O	-1.77951	-0.958641	2.00742
H	-0.607041	-2.61939	3.42889
H	0.908226	-1.63784	3.33842
H	0.589643	-2.93303	2.11073
N	0.165775	-0.520342	0.980307
C	-0.384148	0.433012	0.0490389
C	0.474101	0.42139	-1.20189
O	1.53804	-0.194213	-1.23
H	1.13327	-0.725925	0.863861
H	-1.37908	0.117529	-0.239441
C	-0.422429	1.8482	0.666311
H	0.599404	2.17658	0.952768
H	-0.856705	2.58887	-0.0360596
H	-1.04929	1.83125	1.58452
N	0.0237556	1.10007	-2.27549
C	0.770013	1.14101	-3.51145
H	-0.841485	1.58872	-2.23481
H	0.234829	1.7487	-4.27402
H	0.912186	0.113758	-3.91864
H	1.77644	1.59003	-3.34824
C	1.52587	0.16861	-1.71435
C	2.31648	0.172597	-0.462916
O	1.80875	0.483909	0.605592
H	0.48646	0.495024	-1.49316
H	1.4973	-0.854064	-2.14571
H	1.97301	0.868224	-2.4517
N	3.60034	-0.177276	-0.570932
C	4.50611	-0.179558	0.550733
C	5.90619	0.0826358	0.0286128
O	6.13675	0.0905572	-1.17906
H	4.00939	-0.388524	-1.45406
H	4.2522	0.635797	1.21658
C	4.45177	-1.52841	1.30098
H	4.72242	-2.36414	0.621019
H	5.13468	-1.53774	2.17509
H	3.41655	-1.70323	1.66718
N	6.87794	0.313182	0.933354
C	8.23929	0.577624	0.529664
H	6.67113	0.306718	1.90611
H	8.88809	0.741863	1.4181
H	8.28889	1.48617	-0.113274
H	8.65048	-0.279361	-0.0514106
