44
  This energy is 0.1182 and Call times are: 10480
C	3.30416	-0.644076	0.883382
C	1.91997	-1.08749	0.603121
O	1.64828	-2.27368	0.478475
H	3.97175	-1.53176	0.930526
H	3.34566	-0.111118	1.85651
H	3.66041	0.0310545	0.0769234
N	0.999621	-0.126544	0.493948
C	-0.380981	-0.3995	0.180907
C	-0.949817	0.807449	-0.541073
O	-0.308562	1.85345	-0.621052
H	1.24355	0.836967	0.557311
H	-0.433339	-1.23819	-0.502092
C	-1.18962	-0.694112	1.46331
H	-1.14493	0.170141	2.1598
H	-2.25135	-0.91948	1.23429
H	-0.750909	-1.57592	1.97934
N	-2.1726	0.686133	-1.09435
C	-2.79222	1.77977	-1.80584
H	-2.67431	-0.169561	-1.02265
H	-3.79458	1.48366	-2.18639
H	-2.1654	2.08929	-2.67334
H	-2.9173	2.66256	-1.13787
C	2.70651	1.23564	-2.30778
C	3.14788	0.979326	-0.918304
O	2.57018	1.48668	0.0331476
H	1.83979	1.9317	-2.29534
H	2.39764	0.285736	-2.79259
H	3.53016	1.69774	-2.89184
N	4.20192	0.173564	-0.769537
C	4.77343	-0.135037	0.517594
C	6.24911	-0.427732	0.321984
O	6.72483	-0.53955	-0.806241
H	4.68684	-0.1991	-1.55557
H	4.69926	0.734236	1.15906
C	4.06201	-1.34535	1.16124
H	4.14688	-2.24015	0.508411
H	4.48387	-1.5843	2.15896
H	2.98228	-1.11181	1.28758
N	7.01368	-0.550913	1.42483
C	8.42927	-0.823834	1.33659
H	6.61141	-0.453063	2.32908
H	8.88125	-0.888672	2.35086
H	8.95033	-0.0172382	0.771628
H	8.61155	-1.78797	0.808997
