44
  This energy is 0.1031 and Call times are: 10097
C	2.98544	1.24829	1.28126
C	1.51088	1.27228	1.15379
O	0.823131	1.96652	1.88962
H	3.29276	1.9143	2.11664
H	3.45662	1.60837	0.342601
H	3.33412	0.216413	1.49744
N	0.984902	0.498697	0.201266
C	-0.435807	0.383809	-0.0154034
C	-0.716322	-0.989916	-0.594841
O	0.204033	-1.72224	-0.953119
H	1.55481	-0.0919866	-0.362795
H	-0.94831	0.443104	0.936676
C	-0.939171	1.48769	-0.971081
H	-0.421286	1.42073	-1.95156
H	-2.0341	1.41839	-1.13496
H	-0.716298	2.48405	-0.530691
N	-2.00363	-1.3763	-0.692709
C	-2.36652	-2.66841	-1.22649
H	-2.73429	-0.771452	-0.393755
H	-3.47115	-2.79879	-1.22403
H	-1.91582	-3.48551	-0.617794
H	-2.00274	-2.77727	-2.27385
C	1.72055	0.0207085	1.16512
C	2.89814	-0.675134	0.599238
O	2.94333	-1.89608	0.538802
H	0.976446	-0.732625	1.50373
H	1.25156	0.667876	0.394427
H	2.02412	0.641769	2.03415
N	3.89494	0.100773	0.167086
C	5.12288	-0.431632	-0.368873
C	6.23081	0.568153	-0.095943
O	5.97475	1.6877	0.343103
H	3.8608	1.09171	0.260537
H	5.37561	-1.34445	0.156013
C	4.99402	-0.696608	-1.88493
H	4.74512	0.241627	-2.42512
H	5.92863	-1.11974	-2.3068
H	4.17241	-1.42465	-2.06171
N	7.49754	0.18083	-0.343693
C	8.61718	1.06263	-0.109131
H	7.68514	-0.730503	-0.694909
H	9.57447	0.561534	-0.373197
H	8.66284	1.36289	0.962802
H	8.52437	1.98761	-0.723086
