44
  This energy is 0.1202 and Call times are: 16475
C	-0.48244	-3.36237	0.75791
C	0.235085	-2.27471	0.0555485
O	1.29237	-2.48429	-0.52293
H	0.100636	-4.30465	0.668454
H	-1.48425	-3.51523	0.304311
H	-0.59822	-3.11217	1.83359
N	-0.333452	-1.06737	0.0936903
C	0.26702	0.0978346	-0.50656
C	-0.188465	1.31831	0.270946
O	-1.06729	1.2284	1.12611
H	-1.17337	-0.903781	0.603248
H	1.34362	0.0358327	-0.407932
C	-0.134422	0.22172	-1.99274
H	-1.2382	0.295971	-2.09376
H	0.332791	1.10749	-2.46986
H	0.201746	-0.685604	-2.54056
N	0.409467	2.49417	-0.00449948
C	0.0454112	3.70795	0.688597
H	1.12141	2.54621	-0.696955
H	0.649363	4.56678	0.321336
H	0.217656	3.60142	1.78416
H	-1.03188	3.94324	0.529773
C	7.67197	0.795277	-1.31667
C	6.80975	0.265	-0.236599
O	7.2866	-0.333688	0.717657
H	8.73171	0.53863	-1.10005
H	7.57467	1.89967	-1.3766
H	7.38523	0.34574	-2.29072
N	5.49785	0.475292	-0.367295
C	4.52971	-0.0179963	0.580292
C	3.22286	-0.248113	-0.155076
O	3.07673	0.134498	-1.31437
H	5.12113	0.928504	-1.17012
H	4.85884	-0.976866	0.9609
C	4.33033	0.98468	1.73793
H	3.98255	1.9654	1.34899
H	3.59736	0.610018	2.48151
H	5.30081	1.14396	2.25673
N	2.2391	-0.890992	0.504418
C	0.962936	-1.15953	-0.116437
H	2.37761	-1.19659	1.44063
H	0.288817	-1.69664	0.586633
H	1.09354	-1.78888	-1.02646
H	0.46678	-0.209914	-0.421734
