44
  This energy is -3.2148 and Call times are: 10617
C	-1.84547	-1.6686	2.43366
C	-1.35242	-0.427764	1.79462
O	-1.81547	0.664658	2.09229
H	-2.65554	-1.41513	3.15158
H	-1.02127	-2.16925	2.98392
H	-2.25005	-2.36027	1.6649
N	-0.386471	-0.572387	0.884451
C	0.164269	0.537426	0.147184
C	0.646179	0.0208302	-1.19537
O	0.683746	-1.18564	-1.42931
H	-0.0483793	-1.472	0.623203
H	-0.618032	1.26047	-0.0473406
C	1.32688	1.19323	0.924029
H	2.13437	0.454537	1.11464
H	1.75038	2.05781	0.37296
H	0.953139	1.55671	1.90615
N	1.02048	0.929673	-2.11729
C	1.48765	0.531755	-3.4248
H	0.979164	1.90166	-1.91087
H	1.74698	1.42295	-4.03778
H	0.702601	-0.0473631	-3.96294
H	2.3935	-0.111154	-3.33967
C	6.9623	-3.16222	0.802157
C	6.85205	-2.00153	-0.109871
O	7.57785	-1.89446	-1.08873
H	7.77634	-3.83146	0.448148
H	6.00899	-3.73125	0.814346
H	7.20098	-2.81918	1.83096
N	5.92635	-1.09029	0.198528
C	5.7299	0.114064	-0.569262
C	5.18974	1.18463	0.360091
O	4.83952	0.906222	1.50532
H	5.37098	-1.17082	1.02129
H	6.68623	0.461326	-0.940019
C	4.75202	-0.130938	-1.7393
H	3.76743	-0.477121	-1.3588
H	4.60323	0.785495	-2.34636
H	5.16368	-0.923352	-2.40184
N	5.11749	2.44455	-0.112562
C	4.62185	3.52994	0.701337
H	5.40942	2.65098	-1.04059
H	4.64102	4.48692	0.134714
H	5.24607	3.65172	1.6161
H	3.57335	3.33336	1.02252
