44
  This energy is -6.1347 and Call times are: 15961
C	1.02722	-2.05172	2.61686
C	0.390954	-0.819325	2.09965
O	-0.239254	-0.0746603	2.8377
H	0.811201	-2.14855	3.70306
H	2.127	-2.00439	2.47199
H	0.623059	-2.94139	2.08938
N	0.543063	-0.575123	0.795962
C	-0.0536804	0.561354	0.13955
C	-0.30421	0.192302	-1.31048
O	0.139336	-0.854023	-1.77972
H	1.02417	-1.21183	0.20014
H	-1.01602	0.769571	0.590308
C	0.866739	1.79807	0.232279
H	1.85042	1.58845	-0.239378
H	0.412193	2.68353	-0.257498
H	1.04285	2.0451	1.302
N	-1.03362	1.04576	-2.05586
C	-1.32779	0.775619	-3.44391
H	-1.38742	1.88544	-1.65732
H	-1.93893	1.59471	-3.88302
H	-1.89426	-0.178197	-3.54695
H	-0.387507	0.684218	-4.03439
C	4.01798	2.38634	2.43988
C	4.89227	1.79898	1.39979
O	5.88192	2.39334	0.995152
H	4.40833	3.3873	2.72545
H	4.00366	1.73607	3.33971
H	2.98436	2.50135	2.05069
N	4.53796	0.598527	0.935278
C	5.26505	-0.0808357	-0.107968
C	4.29319	-0.971282	-0.859081
O	3.15002	-1.14805	-0.442409
H	3.70694	0.145428	1.24507
H	5.64444	0.648866	-0.8124
C	6.42194	-0.91761	0.480818
H	6.03221	-1.67339	1.19563
H	6.99803	-1.43462	-0.313749
H	7.11619	-0.246872	1.03259
N	4.72618	-1.54956	-1.99668
C	3.87015	-2.40851	-2.78128
H	5.65328	-1.39127	-2.31994
H	4.408	-2.78606	-3.67873
H	2.96493	-1.85557	-3.12205
H	3.53391	-3.28384	-2.17973
