44
  This energy is 0.125 and Call times are: 13089
C	-3.03272	-0.1419	-1.70151
C	-2.18644	0.333448	-0.583927
O	-2.56846	1.22096	0.166271
H	-3.98095	0.438202	-1.71668
H	-3.27188	-1.21807	-1.56957
H	-2.5068	0.00381133	-2.6686
N	-0.996297	-0.2561	-0.448379
C	-0.0453259	0.128269	0.564771
C	1.34787	-0.168291	0.0426403
O	1.50851	-0.802075	-0.998621
H	-0.682534	-0.948572	-1.09173
H	-0.10835	1.19711	0.726767
C	-0.303788	-0.63531	1.88211
H	-0.228839	-1.73154	1.71871
H	0.413391	-0.337908	2.67441
H	-1.33154	-0.409691	2.2415
N	2.39416	0.294076	0.755045
C	3.75634	0.0652382	0.33282
H	2.24403	0.808439	1.59288
H	4.47258	0.523406	1.04997
H	3.93553	0.509055	-0.673258
H	3.97083	-1.02628	0.271814
C	3.18605	-2.14014	-2.52993
C	2.92389	-1.11996	-1.4899
O	1.84093	-0.55602	-1.41513
H	2.28397	-2.25251	-3.16984
H	3.41552	-3.11826	-2.05731
H	4.04101	-1.82744	-3.1658
N	3.92873	-0.855153	-0.651717
C	3.83876	0.143178	0.384524
C	5.23309	0.681116	0.645378
O	6.21849	0.149338	0.137536
H	4.81782	-1.29282	-0.750789
H	3.23465	0.97005	0.0324527
C	3.23865	-0.454635	1.67593
H	3.86382	-1.29618	2.04337
H	3.15134	0.307661	2.47706
H	2.22185	-0.849202	1.45967
N	5.34742	1.76158	1.44259
C	6.63337	2.34664	1.74297
H	4.53815	2.18042	1.841
H	6.51814	3.22628	2.41393
H	7.14003	2.68213	0.809155
H	7.29447	1.60507	2.24713
