44
  This energy is 0.1024 and Call times are: 13994
C	2.77543	-1.47262	1.49702
C	1.87887	-0.317741	1.26552
O	1.95389	0.690006	1.95489
H	3.44542	-1.25106	2.35604
H	3.39648	-1.66156	0.596282
H	2.17875	-2.37938	1.73121
N	0.994176	-0.442761	0.273527
C	0.027446	0.578609	-0.0439597
C	-1.18975	-0.0942219	-0.650001
O	-1.1676	-1.28724	-0.946516
H	0.917777	-1.28514	-0.252241
H	-0.29334	1.06325	0.869744
C	0.619832	1.61268	-1.02631
H	0.939406	1.1176	-1.96801
H	-0.110373	2.41207	-1.26777
H	1.51381	2.08663	-0.565296
N	-2.29047	0.659372	-0.841152
C	-3.4978	0.104086	-1.407
H	-2.29049	1.62195	-0.591127
H	-4.28983	0.881295	-1.48361
H	-3.88264	-0.727141	-0.772782
H	-3.3039	-0.300895	-2.42658
C	2.1067	-2.75826	-1.60108
C	2.04732	-1.65704	-0.613689
O	0.999281	-1.36334	-0.0553236
H	1.09275	-3.19752	-1.72277
H	2.80157	-3.54992	-1.25009
H	2.45171	-2.37296	-2.58372
N	3.19136	-1.01158	-0.37508
C	3.28212	0.109109	0.527349
C	4.41611	1.00202	0.0600651
O	5.17885	0.636391	-0.832263
H	4.02744	-1.23546	-0.867717
H	2.3697	0.689388	0.469186
C	3.52956	-0.367296	1.97547
H	4.47098	-0.953743	2.03768
H	3.58756	0.485804	2.68213
H	2.69166	-1.02539	2.29355
N	4.54822	2.20588	0.651061
C	5.59439	3.12517	0.268177
H	3.91878	2.48567	1.36842
H	5.5359	4.05969	0.868573
H	5.50556	3.39466	-0.809211
H	6.59754	2.6677	0.42803
