44
  This energy is -5.1784 and Call times are: 8488
C	-0.76346	-2.92145	1.73059
C	0.0936956	-2.13539	0.814877
O	1.19741	-2.54048	0.477043
H	-0.229957	-3.85105	2.0257
H	-1.71244	-3.19701	1.22438
H	-0.989638	-2.33159	2.64382
N	-0.4039	-0.972321	0.388196
C	0.329776	-0.0776144	-0.471908
C	-0.141584	1.3375	-0.194747
O	-1.11827	1.54694	0.522144
H	-1.28673	-0.636918	0.70441
H	1.38193	-0.122352	-0.219733
C	0.11312	-0.439275	-1.95767
H	-0.964987	-0.383279	-2.21956
H	0.68394	0.233883	-2.62965
H	0.457575	-1.48139	-2.13572
N	0.552149	2.34844	-0.753999
C	0.180928	3.72809	-0.541977
H	1.34213	2.15923	-1.32776
H	0.872867	4.40935	-1.0845
H	0.21713	3.98243	0.542123
H	-0.854745	3.91693	-0.906482
C	4.43055	2.66696	2.16236
C	3.9514	1.58874	1.26848
O	2.77041	1.27158	1.23586
H	3.57401	3.0667	2.74752
H	4.87326	3.49121	1.56456
H	5.19256	2.27034	2.866
N	4.87486	0.990481	0.512371
C	4.56844	-0.103907	-0.374747
C	5.80907	-0.966963	-0.507239
O	6.88643	-0.596258	-0.0450964
H	5.83869	1.23194	0.580011
H	3.79448	-0.717588	0.0691029
C	4.12038	0.416205	-1.75821
H	4.91818	1.03718	-2.21859
H	3.86829	-0.41679	-2.44602
H	3.21609	1.05158	-1.63616
N	5.68282	-2.15057	-1.13902
C	6.80742	-3.04105	-1.30779
H	4.80194	-2.43504	-1.50262
H	6.50161	-3.96214	-1.85122
H	7.22384	-3.33975	-0.318523
H	7.61845	-2.54435	-1.88801
