44
  This energy is -6.4371 and Call times are: 13183
C	1.79006	2.6597	-1.35438
C	1.36748	1.82173	-0.209666
O	1.91338	1.91795	0.880815
H	2.63498	3.31065	-1.04091
H	0.948212	3.30068	-1.69082
H	2.1245	2.01723	-2.19608
N	0.369497	0.96483	-0.437967
C	-0.122393	0.0537892	0.565332
C	-0.675317	-1.17118	-0.138423
O	-0.80314	-1.19101	-1.36112
H	-0.0373803	0.869102	-1.34193
H	0.702803	-0.275009	1.18467
C	-1.21503	0.721539	1.42875
H	-2.06654	1.04958	0.795218
H	-1.59207	0.0346559	2.21396
H	-0.790403	1.61984	1.92784
N	-1.01026	-2.23164	0.622679
C	-1.53927	-3.44298	0.0404625
H	-0.895776	-2.19816	1.61002
H	-1.75242	-4.19785	0.829106
H	-0.811333	-3.88353	-0.678772
H	-2.48505	-3.23404	-0.509975
C	4.27249	0.8802	3.3173
C	4.47569	-0.128353	2.25302
O	4.66279	-1.30633	2.52464
H	4.34015	0.385011	4.31031
H	3.27013	1.34685	3.21597
H	5.05414	1.66636	3.25378
N	4.44499	0.320771	0.996149
C	4.66898	-0.532933	-0.143839
C	5.25743	0.311259	-1.25858
O	5.31233	1.53555	-1.15954
H	4.33249	1.28911	0.792388
H	5.40365	-1.28598	0.112681
C	3.35207	-1.19568	-0.603991
H	2.60157	-0.423613	-0.877316
H	3.51376	-1.86636	-1.47265
H	2.93532	-1.80176	0.22987
N	5.72178	-0.329281	-2.3495
C	6.30389	0.3906	-3.45814
H	5.67238	-1.32076	-2.40952
H	6.62589	-0.312285	-4.25783
H	7.19309	0.97318	-3.12468
H	5.56733	1.10395	-3.89376
