44
  This energy is 0.1351 and Call times are: 12794
C	3.43501	-0.559492	0.0187362
C	2.25934	0.323261	-0.153537
O	2.38648	1.53666	-0.242479
H	4.35651	0.0607262	0.0639573
H	3.51567	-1.26101	-0.838063
H	3.34437	-1.13774	0.9624
N	1.06818	-0.277651	-0.202827
C	-0.169761	0.451303	-0.324007
C	-1.26528	-0.363809	0.337045
O	-1.05492	-1.51645	0.709724
H	0.977371	-1.26275	-0.0879247
H	-0.089481	1.3845	0.219439
C	-0.5114	0.715749	-1.80677
H	-0.604261	-0.24168	-2.36242
H	-1.45547	1.28847	-1.91285
H	0.30743	1.30663	-2.27231
N	-2.46626	0.223645	0.506087
C	-3.56711	-0.472545	1.13029
H	-2.61604	1.15851	0.201681
H	-4.46788	0.178302	1.17756
H	-3.30074	-0.778205	2.16802
H	-3.82763	-1.39095	0.556004
C	6.90124	0.877484	2.07695
C	6.16699	0.96265	0.794462
O	6.45025	1.809	-0.0421152
H	7.67028	1.6794	2.11382
H	7.40511	-0.107988	2.16474
H	6.20111	1.0116	2.92837
N	5.18874	0.0729482	0.610481
C	4.3581	0.0581442	-0.56781
C	3.00621	-0.514945	-0.186315
O	2.82643	-1.0221	0.919209
H	4.94295	-0.583631	1.31784
H	4.19461	1.07497	-0.902415
C	5.00607	-0.783386	-1.68906
H	5.16434	-1.82931	-1.34988
H	4.38261	-0.791159	-2.60653
H	5.99741	-0.350589	-1.94649
N	2.0155	-0.439145	-1.09668
C	0.694175	-0.952932	-0.820438
H	2.1791	-0.0214788	-1.98429
H	0.0212275	-0.796529	-1.69217
H	0.249454	-0.438828	0.0622856
H	0.734931	-2.04422	-0.600052
