44
  This energy is -9.7781 and Call times are: 195855
C	-1.60363	1.73918	-2.5527
C	-0.380331	1.28521	-1.85371
O	0.725419	1.42431	-2.35807
H	-1.32474	2.16973	-3.53897
H	-2.11995	2.51835	-1.95349
H	-2.29125	0.88267	-2.71599
N	-0.555748	0.720421	-0.656793
C	0.534388	0.191015	0.124163
C	-0.00444152	-0.935253	0.985986
O	-1.21328	-1.14605	1.06334
H	-1.46541	0.57713	-0.277517
H	1.27481	-0.236995	-0.540071
C	1.16765	1.29087	1.00425
H	0.410929	1.72299	1.69323
H	2.01721	0.898849	1.60014
H	1.54791	2.10817	0.353277
N	0.887653	-1.69504	1.65151
C	0.468099	-2.79257	2.4915
H	1.86196	-1.51159	1.57312
H	1.34781	-3.29446	2.95132
H	-0.0958551	-3.54816	1.89794
H	-0.196106	-2.43012	3.30918
C	5.10764	2.99333	1.70147
C	5.15825	2.16703	0.474352
O	5.37486	2.67047	-0.619285
H	5.2729	4.05949	1.43342
H	5.89996	2.67411	2.41074
H	4.11448	2.89499	2.18833
N	4.95349	0.857224	0.632016
C	4.92982	-0.0680658	-0.473349
C	4.0246	-1.22706	-0.100681
O	3.5914	-1.34504	1.04392
H	4.7378	0.467992	1.52299
H	4.49275	0.417919	-1.33672
C	6.3519	-0.574764	-0.799221
H	6.79668	-1.08271	0.0829357
H	6.34875	-1.27739	-1.65761
H	6.99882	0.290777	-1.06128
N	3.70959	-2.11059	-1.06823
C	2.85025	-3.24198	-0.808094
H	4.06654	-1.99606	-1.98939
H	2.71075	-3.84984	-1.72911
H	1.84882	-2.90217	-0.457444
H	3.28869	-3.89547	-0.0195156
