44
  This energy is -4.1435 and Call times are: 194110
C	-0.11343	1.67953	3.04615
C	-0.434573	1.57066	1.60526
O	-1.2278	2.33547	1.07399
H	-0.704527	2.50849	3.49257
H	0.967242	1.89491	3.18217
H	-0.370141	0.733542	3.56797
N	0.184276	0.598575	0.931123
C	-0.0580173	0.341177	-0.46659
C	0.191645	-1.13251	-0.726349
O	0.69392	-1.84813	0.138131
H	0.796234	-0.0418971	1.38628
H	-1.09938	0.536286	-0.690473
C	0.858944	1.21049	-1.35469
H	1.92748	1.00305	-1.13281
H	0.672241	1.03155	-2.43342
H	0.664784	2.28448	-1.14211
N	-0.163892	-1.62435	-1.92956
C	0.0304954	-3.01574	-2.26483
H	-0.572704	-1.03056	-2.61466
H	-0.325035	-3.22472	-3.29786
H	-0.531811	-3.67156	-1.56128
H	1.10904	-3.28792	-2.20322
C	4.18047	-3.45487	0.200142
C	4.2382	-2.11228	0.820833
O	3.90905	-1.93897	1.98618
H	3.79468	-4.18658	0.942857
H	5.19462	-3.77119	-0.12263
H	3.5007	-3.44166	-0.677814
N	4.66338	-1.11567	0.0408478
C	4.73282	0.252472	0.490212
C	4.54938	1.15593	-0.714643
O	4.54166	0.692945	-1.85363
H	4.88882	-1.26517	-0.917631
H	3.91127	0.447968	1.16804
C	6.08438	0.538453	1.18068
H	6.92712	0.348149	0.482371
H	6.14465	1.58499	1.54351
H	6.20078	-0.139287	2.05444
N	4.38794	2.47459	-0.488579
C	4.20127	3.41013	-1.57306
H	4.39297	2.82984	0.440316
H	4.08641	4.44571	-1.18369
H	3.29012	3.15358	-2.16066
H	5.07479	3.39006	-2.26422
