44
  This energy is -1.5499 and Call times are: 195287
C	0.874648	-0.617689	-3.31152
C	0.174585	0.172982	-2.27426
O	-0.319914	1.26124	-2.53423
H	0.868198	-0.0540127	-4.26969
H	0.360797	-1.59016	-3.46319
H	1.92741	-0.799416	-3.00858
N	0.118878	-0.366002	-1.05411
C	-0.490964	0.302997	0.0679825
C	0.19735	-0.172797	1.33345
O	0.993413	-1.10933	1.30334
H	0.561685	-1.23397	-0.848145
H	-0.316013	1.36856	-0.0132484
C	-2.00527	0.00605045	0.130856
H	-2.18502	-1.08615	0.224812
H	-2.48887	0.526734	0.98264
H	-2.48705	0.355285	-0.808437
N	-0.0894437	0.472018	2.48148
C	0.521321	0.0929426	3.73426
H	-0.733079	1.23017	2.48511
H	0.157805	0.741911	4.56125
H	1.62982	0.188093	3.67547
H	0.278477	-0.964851	3.98574
C	4.31116	0.17086	0.774175
C	5.50571	-0.568448	0.307657
O	5.48673	-1.78469	0.177987
H	3.48924	-0.549705	0.976856
H	3.97656	0.88792	-0.0046781
H	4.54379	0.722917	1.70916
N	6.59062	0.163238	0.0430787
C	7.84097	-0.418112	-0.377866
C	8.96437	0.491261	0.083199
O	8.723	1.59968	0.557381
H	6.6032	1.14779	0.192628
H	7.97532	-1.3725	0.115801
C	7.8799	-0.591705	-1.91201
H	7.75266	0.388589	-2.41884
H	8.8322	-1.05128	-2.24732
H	7.04452	-1.25414	-2.2277
N	10.227	0.0363517	-0.0386128
C	11.3598	0.829475	0.378532
H	10.4021	-0.864906	-0.420913
H	12.311	0.282211	0.197504
H	11.2937	1.06768	1.46489
H	11.3953	1.7904	-0.18405
