44
  This energy is -4.9694 and Call times are: 194989
C	1.17213	-1.56454	2.87941
C	0.46975	-1.5894	1.57665
O	0.167301	-2.64659	1.04066
H	1.36007	-2.60749	3.21531
H	0.549342	-1.04868	3.64018
H	2.14488	-1.03831	2.77974
N	0.192618	-0.403728	1.02915
C	-0.448329	-0.267267	-0.255036
C	0.00915332	1.03935	-0.875525
O	0.66415	1.85065	-0.223995
H	0.481584	0.447491	1.45786
H	-0.11754	-1.06681	-0.906146
C	-1.98572	-0.28849	-0.109333
H	-2.32648	0.53799	0.550096
H	-2.49078	-0.198102	-1.09283
H	-2.29721	-1.25009	0.353965
N	-0.320807	1.27016	-2.16156
C	0.0755169	2.48347	-2.83756
H	-0.847761	0.599906	-2.67356
H	-0.290592	2.48601	-3.88789
H	1.18535	2.5799	-2.85304
H	-0.34142	3.37674	-2.31855
C	6.69685	3.04537	-0.35551
C	6.58816	1.68046	0.20695
O	7.52755	1.16085	0.79344
H	7.71776	3.44139	-0.163792
H	5.9547	3.71732	0.12454
H	6.52013	3.02277	-1.45156
N	5.41903	1.05916	0.0351576
C	5.17647	-0.287746	0.488551
C	4.13472	-0.912378	-0.420383
O	3.53257	-0.232141	-1.24888
H	4.67748	1.47927	-0.48008
H	6.0846	-0.868455	0.385176
C	4.69146	-0.297357	1.95481
H	3.75407	0.289509	2.05945
H	4.51445	-1.32974	2.32002
H	5.46575	0.171488	2.60056
N	3.90326	-2.23361	-0.290773
C	2.93393	-2.91574	-1.11616
H	4.4034	-2.76805	0.382509
H	2.88938	-3.99688	-0.858529
H	3.20102	-2.82299	-2.19382
H	1.9191	-2.47891	-0.973182
