44
  This energy is 0.1026 and Call times are: 199411
C	3.00162	-0.751081	-1.59337
C	1.52298	-0.765117	-1.52571
O	0.847889	-1.07988	-2.49606
H	3.32521	-1.03994	-2.61696
H	3.42493	-1.4744	-0.865117
H	3.38533	0.266512	-1.36896
N	0.979028	-0.415755	-0.35762
C	-0.445847	-0.340336	-0.151214
C	-0.714002	0.697895	0.92197
O	0.209705	1.18898	1.56797
H	1.5407	-0.122578	0.410781
H	-0.920729	0.00584042	-1.06076
C	-1.01587	-1.7129	0.268767
H	-0.536563	-2.06361	1.20755
H	-2.11438	-1.67117	0.417288
H	-0.801167	-2.45867	-0.527526
N	-1.9938	1.0641	1.13182
C	-2.34449	2.04909	2.12831
H	-2.72714	0.658544	0.596273
H	-3.44438	2.21356	2.14866
H	-1.84855	3.02255	1.90993
H	-2.02075	1.71622	3.14099
C	6.65723	1.16412	0.88854
C	5.54462	0.194996	1.00709
O	5.68256	-0.85542	1.61865
H	7.5538	0.759106	1.4062
H	6.37576	2.12939	1.35946
H	6.90526	1.33307	-0.180574
N	4.39809	0.532012	0.411856
C	3.24043	-0.327237	0.403751
C	2.44196	-0.0332139	-0.852258
O	2.7262	0.924073	-1.56955
H	4.31374	1.37173	-0.116924
H	3.56224	-1.35964	0.347111
C	2.37451	-0.0981279	1.6619
H	2.03538	0.958386	1.71492
H	1.48724	-0.763799	1.6742
H	2.98132	-0.311459	2.56888
N	1.42214	-0.861188	-1.153
C	0.610079	-0.663363	-2.33096
H	1.21004	-1.63283	-0.562537
H	-0.175575	-1.44743	-2.40323
H	1.23593	-0.708455	-3.2516
H	0.110652	0.332048	-2.30145
