44
  This energy is -2.8306 and Call times are: 197938
C	0.756856	-2.9939	-1.60512
C	0.977023	-1.54902	-1.37064
O	1.95877	-0.976655	-1.82339
H	1.60093	-3.40183	-2.20263
H	-0.188853	-3.15097	-2.16522
H	0.707158	-3.53549	-0.636981
N	0.0524258	-0.918267	-0.642866
C	0.150975	0.47731	-0.294712
C	-0.575314	0.689166	1.02027
O	-1.25519	-0.207459	1.5158
H	-0.719967	-1.40651	-0.246767
H	1.1909	0.732728	-0.133635
C	-0.460051	1.36614	-1.40009
H	-1.52974	1.1117	-1.55839
H	-0.377821	2.44377	-1.15012
H	0.0815544	1.1888	-2.35485
N	-0.440064	1.88664	1.62342
C	-1.08973	2.17766	2.88017
H	0.117616	2.59824	1.20907
H	-0.85637	3.21303	3.21302
H	-0.749925	1.47032	3.67104
H	-2.19533	2.0813	2.78269
C	3.16555	-0.849257	2.95298
C	4.37518	-0.797907	2.10133
O	5.48058	-1.05934	2.55538
H	3.45717	-1.1288	3.98868
H	2.45466	-1.60759	2.56271
H	2.6705	0.144481	2.97487
N	4.18852	-0.45129	0.825629
C	5.27386	-0.316232	-0.113705
C	4.87105	0.708067	-1.1578
O	3.72151	1.14182	-1.20386
H	3.28816	-0.201624	0.48083
H	6.14458	0.0719529	0.399895
C	5.59783	-1.6709	-0.780905
H	4.70791	-2.06449	-1.3168
H	6.4411	-1.58292	-1.49622
H	5.88222	-2.40707	0.00236985
N	5.81767	1.12689	-2.02065
C	5.52823	2.10352	-3.04467
H	6.74327	0.767388	-1.96503
H	6.43527	2.3171	-3.65203
H	5.17859	3.05831	-2.58925
H	4.72875	1.73308	-3.72639
