44
  This energy is -5.1895 and Call times are: 199981
C	-1.18144	-1.4334	2.94317
C	-0.153068	-1.28017	1.88955
O	0.963303	-1.76308	2.01965
H	-0.752826	-2.00594	3.79426
H	-2.05864	-1.98502	2.54443
H	-1.50675	-0.436427	3.30829
N	-0.513058	-0.590193	0.804787
C	0.391439	-0.320864	-0.285124
C	-0.0330586	0.979188	-0.941798
O	-1.09197	1.52341	-0.634814
H	-1.41221	-0.168301	0.731333
H	1.38979	-0.173031	0.10739
C	0.378308	-1.47523	-1.31104
H	-0.643556	-1.62038	-1.72184
H	1.08112	-1.28608	-2.14818
H	0.684399	-2.41781	-0.806853
N	0.793861	1.51429	-1.86152
C	0.475873	2.75186	-2.53494
H	1.64829	1.06134	-2.09361
H	1.27939	3.02631	-3.25346
H	0.364591	3.58166	-1.79988
H	-0.48108	2.65849	-3.09767
C	7.54094	-0.742635	-2.51254
C	6.15523	-0.563439	-2.02381
O	5.21042	-0.524169	-2.79983
H	7.53355	-0.806779	-3.62235
H	7.97372	-1.67877	-2.10132
H	8.1692	0.12037	-2.20664
N	6.00235	-0.446582	-0.702685
C	4.7204	-0.22439	-0.0815609
C	4.94673	0.536681	1.21116
O	6.08256	0.712766	1.64772
H	6.78518	-0.439473	-0.0870669
H	4.11619	0.403792	-0.724162
C	4.0028	-1.56333	0.196898
H	4.61754	-2.20385	0.864631
H	3.00847	-1.40506	0.662494
H	3.85482	-2.10672	-0.761831
N	3.86278	1.01578	1.85267
C	3.98098	1.75693	3.08672
H	2.95217	0.866686	1.48168
H	2.97875	2.06522	3.45784
H	4.59643	2.67349	2.93702
H	4.47049	1.1369	3.87227
