44
  This energy is 0.3615 and Call times are: 201118
C	0.224638	3.31142	1.04723
C	0.487814	1.86622	1.22961
O	1.25318	1.46661	2.09618
H	0.827256	3.88992	1.78076
H	-0.851176	3.52868	1.21506
H	0.509274	3.6257	0.0209249
N	-0.150723	1.03745	0.400281
C	0.036516	-0.391807	0.42735
C	-0.212636	-0.92801	-0.969778
O	-0.674124	-0.203455	-1.84942
H	-0.73897	1.38013	-0.326632
H	1.06647	-0.612461	0.678624
C	-0.922114	-1.0547	1.44068
H	-1.97921	-0.837402	1.17731
H	-0.778045	-2.15386	1.4809
H	-0.727391	-0.641597	2.45448
N	0.0973709	-2.21744	-1.20916
C	-0.100225	-2.81346	-2.50988
H	0.473654	-2.78679	-0.485749
H	0.214604	-3.88027	-2.50556
H	0.494989	-2.27553	-3.28295
H	-1.17335	-2.76556	-2.80527
C	9.31081	3.10579	1.41133
C	8.94975	1.95569	0.552227
O	7.81533	1.82473	0.11364
H	8.41365	3.74339	1.56765
H	10.1029	3.713	0.924919
H	9.67339	2.74755	2.39787
N	9.92405	1.08109	0.291069
C	9.71452	-0.109946	-0.493849
C	10.7027	-1.1629	-0.0286379
O	11.6047	-0.876944	0.756435
H	10.8318	1.17948	0.688827
H	8.7202	-0.493682	-0.302281
C	9.90199	0.181165	-1.99896
H	10.9254	0.564916	-2.19752
H	9.7297	-0.725034	-2.61511
H	9.17423	0.959917	-2.31556
N	10.5489	-2.41616	-0.499483
C	11.4379	-3.48508	-0.108122
H	9.81048	-2.62906	-1.13078
H	11.1471	-4.43885	-0.601064
H	11.4074	-3.63727	0.99514
H	12.488	-3.24788	-0.394975
