44
  This energy is 0.1971 and Call times are: 198550
C	-2.98391	-0.2608	1.77227
C	-1.91302	0.536878	1.1335
O	-2.03504	1.74274	0.967908
H	-3.83827	0.405024	2.02252
H	-2.60738	-0.728668	2.70611
H	-3.33676	-1.0528	1.07849
N	-0.822052	-0.131671	0.752418
C	0.285301	0.49984	0.0789765
C	0.957688	-0.537369	-0.800596
O	0.644618	-1.72407	-0.726796
H	-0.754531	-1.1198	0.856886
H	-0.0900973	1.27993	-0.571533
C	1.2912	1.08084	1.09675
H	1.68458	0.279158	1.7575
H	2.14155	1.58196	0.590491
H	0.775597	1.83151	1.73471
N	1.89828	-0.108892	-1.66531
C	2.5879	-1.02269	-2.54598
H	2.13505	0.855837	-1.71337
H	3.32256	-0.47893	-3.17987
H	1.86547	-1.54372	-3.21523
H	3.13499	-1.79608	-1.95973
C	3.93714	2.0751	0.8461
C	5.26582	1.48279	1.11982
O	5.97626	1.91018	2.01928
H	3.75756	2.91584	1.55092
H	3.14213	1.31278	0.98601
H	3.89801	2.46318	-0.193581
N	5.63697	0.469181	0.33418
C	6.9187	-0.180505	0.450912
C	7.30106	-0.721006	-0.914089
O	6.49486	-0.714699	-1.84237
H	5.06518	0.159284	-0.420059
H	7.6664	0.551823	0.728881
C	6.86605	-1.32194	1.48995
H	6.10652	-2.07886	1.19974
H	7.85068	-1.82106	1.59908
H	6.57666	-0.904704	2.47914
N	8.55218	-1.19677	-1.07018
C	9.00731	-1.72612	-2.33462
H	9.19152	-1.1897	-0.308424
H	10.0636	-2.06681	-2.26101
H	8.94423	-0.949613	-3.13108
H	8.3802	-2.59244	-2.64665
