44
  This energy is -5.2557 and Call times are: 198733
C	1.73186	-2.96144	-0.585859
C	0.690553	-2.1777	0.115975
O	-0.151401	-2.72581	0.813898
H	1.58191	-4.04271	-0.375527
H	2.74037	-2.66266	-0.230352
H	1.66223	-2.79547	-1.68162
N	0.724858	-0.854599	-0.0589933
C	-0.247628	0.0356875	0.524291
C	-0.373741	1.25207	-0.373513
O	0.405429	1.42851	-1.30812
H	1.39137	-0.426862	-0.662875
H	-1.2137	-0.453176	0.542724
C	0.173958	0.455918	1.94939
H	1.16014	0.966882	1.92971
H	-0.573672	1.13058	2.41458
H	0.26783	-0.45044	2.58661
N	-1.37094	2.12042	-0.113534
C	-1.57202	3.30332	-0.917595
H	-1.99387	1.95844	0.644619
H	-2.44155	3.88866	-0.545436
H	-1.76368	3.02814	-1.98005
H	-0.670358	3.95696	-0.887525
C	6.08784	-1.95501	2.645
C	4.99853	-1.34654	1.84856
O	3.83314	-1.68147	2.01014
H	5.65893	-2.7152	3.33347
H	6.60362	-1.17653	3.24558
H	6.82127	-2.45056	1.97449
N	5.3613	-0.424352	0.953935
C	4.41981	0.224903	0.0760891
C	5.15001	0.615301	-1.19511
O	6.37299	0.516603	-1.27452
H	6.31824	-0.191889	0.805347
H	3.64493	-0.479226	-0.200302
C	3.80429	1.47015	0.751162
H	4.59787	2.19753	1.0254
H	3.06732	1.971	0.0904438
H	3.28201	1.16193	1.68313
N	4.4103	1.06298	-2.22876
C	5.01748	1.4524	-3.48009
H	3.42155	1.13196	-2.14687
H	4.2439	1.79145	-4.20387
H	5.56919	0.596502	-3.93213
H	5.74063	2.28531	-3.32368
