44
  This energy is -3.6618 and Call times are: 199633
C	2.42704	0.285342	2.47805
C	1.02075	0.129695	2.04302
O	0.139647	-0.1593	2.84086
H	2.4985	0.0836272	3.56896
H	2.77646	1.32051	2.28035
H	3.07702	-0.433774	1.93631
N	0.776922	0.319149	0.744161
C	-0.533533	0.160596	0.164394
C	-0.362538	-0.25403	-1.28488
O	0.745699	-0.240716	-1.81719
H	1.51117	0.513699	0.100033
H	-1.05328	-0.643236	0.6707
C	-1.34173	1.47317	0.260332
H	-0.814052	2.29567	-0.267953
H	-2.35774	1.35999	-0.170293
H	-1.44762	1.76169	1.32893
N	-1.46334	-0.642643	-1.95811
C	-1.39675	-1.05955	-3.3394
H	-2.3507	-0.65063	-1.50911
H	-2.40544	-1.34105	-3.71427
H	-0.722835	-1.93956	-3.45201
H	-1.00138	-0.237803	-3.97936
C	4.32693	2.8872	0.28039
C	4.49426	1.4636	-0.0890905
O	3.52957	0.763225	-0.36343
H	3.24532	3.14396	0.272687
H	4.85564	3.5365	-0.448731
H	4.73208	3.06854	1.29825
N	5.74502	0.996906	-0.102042
C	6.06262	-0.377511	-0.39981
C	7.34582	-0.734492	0.326512
O	8.01362	0.131847	0.887933
H	6.51624	1.56841	0.163401
H	5.28168	-1.01748	-0.00840921
C	6.22462	-0.589204	-1.92105
H	7.0328	0.0594215	-2.32126
H	6.45568	-1.64655	-2.16428
H	5.27655	-0.314311	-2.43285
N	7.7175	-2.02975	0.339273
C	8.92055	-2.46435	1.01006
H	7.16191	-2.71684	-0.117145
H	9.05246	-3.56407	0.907788
H	8.87672	-2.21607	2.09529
H	9.81552	-1.96187	0.576837
