44
  This energy is -5.3388 and Call times are: 197809
C	0.0756329	0.287954	3.46757
C	-0.327458	-0.410695	2.22638
O	-0.802483	-1.53747	2.26
H	-0.11125	-0.375544	4.33977
H	-0.515503	1.21958	3.59156
H	1.15686	0.538486	3.4318
N	-0.141137	0.25429	1.08382
C	-0.444679	-0.311131	-0.2072
C	0.479409	0.322343	-1.2301
O	1.19206	1.27782	-0.928615
H	0.284524	1.15455	1.06938
H	-0.229782	-1.37236	-0.191868
C	-1.92156	-0.0630387	-0.584699
H	-2.13986	1.02586	-0.610873
H	-2.17134	-0.505747	-1.57067
H	-2.57937	-0.528304	0.181573
N	0.494556	-0.204797	-2.47023
C	1.34606	0.328465	-3.5079
H	-0.0862096	-0.980493	-2.69401
H	1.21515	-0.240111	-4.4549
H	2.41711	0.266913	-3.20735
H	1.10355	1.39791	-3.70441
C	7.49084	2.16986	-0.973965
C	6.10361	1.66194	-1.06763
O	5.24724	2.27146	-1.69337
H	7.56696	3.13356	-1.52292
H	8.19635	1.44174	-1.42656
H	7.76553	2.3389	0.0885993
N	5.84753	0.515004	-0.434114
C	4.53546	-0.0814686	-0.398737
C	4.41438	-0.882283	0.884076
O	5.39422	-1.07415	1.60158
H	6.54492	0.0516824	0.105175
H	3.78808	0.701289	-0.362103
C	4.30891	-0.989484	-1.62732
H	5.06903	-1.79895	-1.65957
H	3.29696	-1.44379	-1.61878
H	4.41008	-0.384289	-2.5546
N	3.19825	-1.36406	1.208
C	2.98592	-2.13269	2.41229
H	2.41658	-1.19491	0.616852
H	1.92007	-2.43815	2.50107
H	3.25518	-1.53436	3.31272
H	3.61515	-3.05203	2.40788
