44
  This energy is -4.3716 and Call times are: 197355
C	0.127271	-3.47705	-0.0814117
C	-0.608282	-2.19701	-0.189202
O	-1.75197	-2.15863	-0.621533
H	-0.514884	-4.30253	-0.458364
H	0.388509	-3.68025	0.978403
H	1.05548	-3.43742	-0.689645
N	0.0449403	-1.10205	0.206679
C	-0.523706	0.220058	0.121573
C	0.610941	1.21306	-0.0459701
O	1.78178	0.857794	0.074993
H	0.990051	-1.14416	0.517903
H	-1.14349	0.286028	-0.76395
C	-1.34835	0.54833	1.38547
H	-0.710499	0.491099	2.29316
H	-1.8029	1.55847	1.32599
H	-2.16787	-0.195514	1.49242
N	0.287809	2.48817	-0.338757
C	1.3005	3.50167	-0.521639
H	-0.66505	2.75563	-0.436722
H	0.835425	4.48449	-0.756147
H	1.98311	3.22833	-1.35866
H	1.91413	3.61521	0.401239
C	5.90565	-1.44803	-3.06054
C	5.23614	-1.4779	-1.74068
O	4.4242	-2.34951	-1.46235
H	5.53175	-2.29115	-3.68119
H	7.00377	-1.5535	-2.93509
H	5.68331	-0.492573	-3.58087
N	5.56652	-0.507334	-0.885557
C	4.96766	-0.379295	0.419637
C	4.98863	1.08713	0.807859
O	5.60569	1.90864	0.132523
H	6.19847	0.218595	-1.14153
H	3.92997	-0.684504	0.368046
C	5.73012	-1.22633	1.46196
H	6.79223	-0.906556	1.52285
H	5.27032	-1.14706	2.46835
H	5.70868	-2.29437	1.15349
N	4.30257	1.45238	1.90873
C	4.26075	2.82636	2.35211
H	3.80601	0.773887	2.43992
H	3.64595	2.92358	3.27396
H	3.81852	3.47967	1.56541
H	5.28689	3.19923	2.57383
