44
  This energy is 0.1174 and Call times are: 200260
C	-2.9903	-0.464418	1.71904
C	-1.57959	-0.0207275	1.65443
O	-1.08021	0.634909	2.5584
H	-3.44956	-0.0924462	2.66063
H	-3.04365	-1.57336	1.7068
H	-3.55928	-0.057639	0.856555
N	-0.89603	-0.373155	0.563139
C	0.472286	0.0210615	0.337604
C	0.700642	0.101387	-1.16005
O	-0.14962	-0.305521	-1.94947
H	-1.3281	-0.871935	-0.182786
H	0.629346	1.01344	0.74153
C	1.44994	-0.986562	0.981133
H	1.29637	-2.00275	0.559454
H	2.50664	-0.686673	0.826291
H	1.25946	-1.03493	2.07554
N	1.85951	0.639944	-1.58785
C	2.16199	0.762848	-2.99483
H	2.53346	0.967408	-0.933923
H	3.16039	1.23022	-3.14307
H	1.39999	1.3942	-3.50671
H	2.16679	-0.237726	-3.4847
C	-0.650409	-0.7878	0.516612
C	0.587608	-0.0601239	0.875718
O	0.572566	0.849606	1.69338
H	-1.50635	-0.356693	1.07996
H	-0.552409	-1.86229	0.778571
H	-0.850174	-0.689489	-0.571276
N	1.70556	-0.45068	0.259242
C	2.97948	0.189741	0.472611
C	3.80462	0.034125	-0.790918
O	3.42473	-0.694633	-1.70541
H	1.69466	-1.16545	-0.434186
H	2.82462	1.25014	0.62818
C	3.71474	-0.433005	1.6796
H	3.88322	-1.51876	1.51589
H	4.69099	0.0608791	1.86273
H	3.08927	-0.314694	2.59126
N	4.9572	0.727385	-0.874367
C	5.80535	0.646231	-2.04065
H	5.24583	1.31508	-0.125782
H	6.70521	1.28845	-1.91798
H	5.25617	0.98242	-2.94986
H	6.14281	-0.402052	-2.20907
