44
  This energy is -3.4225 and Call times are: 196753
C	1.29178	-1.38043	2.92205
C	0.191731	-1.17539	1.95304
O	-0.831301	-1.84398	2.006
H	1.01823	-2.2014	3.61995
H	1.46358	-0.45304	3.50787
H	2.22503	-1.65848	2.38835
N	0.383032	-0.230767	1.02921
C	-0.578324	0.054513	-0.00663351
C	0.170701	0.588414	-1.21306
O	1.3661	0.866558	-1.13975
H	1.23798	0.277018	0.973742
H	-1.06184	-0.866156	-0.308642
C	-1.62446	1.08152	0.479265
H	-1.12992	2.02992	0.779275
H	-2.37844	1.2991	-0.304761
H	-2.1547	0.67319	1.36722
N	-0.518415	0.736585	-2.36162
C	0.111973	1.23272	-3.56272
H	-1.48408	0.502285	-2.40244
H	-0.619593	1.28224	-4.39913
H	0.950847	0.566934	-3.86979
H	0.524822	2.25408	-3.39681
C	5.68774	-1.77726	2.91224
C	5.86409	-1.53133	1.46325
O	6.74749	-2.0915	0.829029
H	6.46496	-2.49161	3.26078
H	4.68546	-2.21335	3.10719
H	5.79354	-0.827207	3.47728
N	5.01316	-0.670824	0.899477
C	5.08659	-0.297803	-0.491213
C	4.53052	1.10644	-0.634254
O	3.9679	1.66007	0.308436
H	4.32531	-0.191679	1.4372
H	6.12452	-0.266565	-0.798356
C	4.29114	-1.28736	-1.37057
H	3.22405	-1.31193	-1.06273
H	4.35142	-1.01881	-2.44518
H	4.71019	-2.30947	-1.244
N	4.6839	1.72156	-1.82342
C	4.19203	3.0604	-2.05091
H	5.14555	1.25892	-2.57303
H	4.41499	3.39009	-3.08957
H	4.66835	3.77904	-1.34524
H	3.08948	3.10542	-1.89759
