44
  This energy is 0.1058 and Call times are: 199261
C	-3.30605	-0.925592	0.570957
C	-2.22269	-0.440542	-0.313459
O	-2.37692	-0.373647	-1.52513
H	-4.18764	-1.20353	-0.0466455
H	-3.60378	-0.128334	1.28404
H	-2.96724	-1.81926	1.13635
N	-1.08208	-0.0877271	0.283969
C	0.0758064	0.362525	-0.447552
C	1.31182	0.0022873	0.354978
O	1.21435	-0.426182	1.50329
H	-0.957649	-0.186486	1.26714
H	0.1345	-0.171827	-1.38758
C	0.0149188	1.88602	-0.693508
H	-0.0346686	2.43516	0.270871
H	0.894242	2.24277	-1.268
H	-0.901313	2.12751	-1.27536
N	2.51109	0.161121	-0.238773
C	3.74179	-0.160744	0.445315
H	2.56949	0.50524	-1.17003
H	4.61901	0.0376123	-0.209182
H	3.7589	-1.23557	0.738118
H	3.84883	0.450806	1.37035
C	0.589086	-0.0511386	0.363618
C	1.88134	-0.721448	0.0954164
O	1.96584	-1.94122	0.0574737
H	-0.197203	-0.820343	0.524642
H	0.300072	0.582714	-0.500933
H	0.666837	0.579393	1.27436
N	2.93466	0.0758479	-0.0974845
C	4.26529	-0.429819	-0.326161
C	5.25639	0.596008	0.190526
O	4.88033	1.7107	0.547925
H	2.85812	1.06602	-0.022936
H	4.40753	-1.33498	0.250965
C	4.50139	-0.702324	-1.82791
H	4.36591	0.228283	-2.41923
H	5.51782	-1.10515	-2.01536
H	3.76013	-1.44961	-2.18627
N	6.55397	0.237157	0.249897
C	7.568	1.14518	0.733018
H	6.83839	-0.670692	-0.0399151
H	8.57114	0.665424	0.704936
H	7.35444	1.44969	1.78323
H	7.6018	2.0659	0.106697
