44
  This energy is -0.5996 and Call times are: 200786
C	-0.745884	-2.95411	1.68214
C	-0.483562	-1.49745	1.66027
O	-0.693622	-0.801605	2.64418
H	-1.15067	-3.2395	2.67742
H	0.195233	-3.51518	1.5026
H	-1.48958	-3.22077	0.901824
N	-0.0124421	-0.996417	0.515982
C	0.250307	0.408684	0.328326
C	0.0732465	0.730514	-1.14362
O	-0.0812701	-0.166443	-1.97025
H	0.114704	-1.56868	-0.289135
H	-0.484792	0.985741	0.875379
C	1.67797	0.769928	0.793657
H	2.43294	0.185884	0.225381
H	1.88761	1.85186	0.66715
H	1.78732	0.518675	1.87128
N	0.0833759	2.02858	-1.50548
C	-0.0832988	2.4307	-2.88269
H	0.20557	2.74028	-0.821647
H	-0.0461035	3.53844	-2.97618
H	-1.06311	2.07825	-3.27895
H	0.722285	1.99769	-3.51883
C	7.26812	3.4537	0.0993652
C	7.28216	2.12026	0.741923
O	7.75966	1.95976	1.85666
H	7.75317	4.19183	0.774449
H	6.22282	3.77498	-0.0926725
H	7.82705	3.42226	-0.859631
N	6.7512	1.11712	0.0389322
C	6.73103	-0.244083	0.513559
C	6.74855	-1.1655	-0.69154
O	6.61061	-0.718118	-1.82844
H	6.4034	1.25566	-0.883942
H	7.63273	-0.437951	1.08097
C	5.47935	-0.508123	1.3789
H	4.55392	-0.319529	0.794038
H	5.45932	-1.54903	1.76183
H	5.4833	0.182477	2.25034
N	6.92841	-2.48239	-0.469182
C	6.96465	-3.43427	-1.5549
H	7.04233	-2.82493	0.457516
H	7.1218	-4.46549	-1.16873
H	7.79295	-3.19418	-2.26028
H	6.00838	-3.41551	-2.12616
