44
  This energy is 0.1005 and Call times are: 197891
C	3.18707	1.0375	-0.937487
C	1.73488	1.27379	-0.774812
O	1.25867	2.39429	-0.893588
H	3.69493	2.00351	-1.14911
H	3.36927	0.342674	-1.7841
H	3.61102	0.604957	-0.00675644
N	0.987598	0.204188	-0.492134
C	-0.43367	0.282955	-0.263327
C	-0.824847	-0.843316	0.674783
O	-0.019528	-1.72342	0.972431
H	1.39531	-0.694524	-0.358141
H	-0.663692	1.21486	0.237937
C	-1.21317	0.1761	-1.59231
H	-0.985632	-0.784444	-2.10184
H	-2.30821	0.249324	-1.43092
H	-0.905223	1.00528	-2.26609
N	-2.0774	-0.83648	1.17188
C	-2.53734	-1.86445	2.07626
H	-2.71337	-0.113649	0.922622
H	-3.59388	-1.68316	2.37306
H	-1.9127	-1.88436	2.9986
H	-2.47516	-2.86751	1.59549
C	7.36636	-0.271069	-2.22031
C	6.34008	0.521902	-1.5068
O	6.36731	1.74486	-1.51357
H	8.09828	0.417879	-2.69518
H	6.891	-0.890202	-3.0099
H	7.90423	-0.930868	-1.50727
N	5.39747	-0.169995	-0.862482
C	4.35753	0.460828	-0.0884442
C	3.94354	-0.494546	1.01494
O	4.35648	-1.6525	1.03315
H	5.41211	-1.16534	-0.832087
H	4.75467	1.34934	0.386375
C	3.14672	0.81756	-0.978351
H	2.73239	-0.0950619	-1.45741
H	2.34475	1.31646	-0.396568
H	3.47454	1.51104	-1.78331
N	3.11859	-0.0251533	1.97156
C	2.67564	-0.85982	3.06395
H	2.79836	0.915938	1.94199
H	2.0038	-0.292404	3.74505
H	3.54546	-1.22697	3.65546
H	2.11975	-1.74611	2.68104
