44
  This energy is -4.1937 and Call times are: 198606
C	-0.461763	-3.28357	-1.05717
C	-0.559746	-2.21769	-0.0347045
O	-1.19851	-2.38514	0.995027
H	-1.05032	-4.1663	-0.725097
H	0.597379	-3.58802	-1.19235
H	-0.869159	-2.92363	-2.02545
N	0.08096	-1.07751	-0.302759
C	0.0424247	0.0650158	0.575714
C	0.21599	1.31505	-0.266209
O	0.519673	1.23652	-1.45504
H	0.562761	-0.941577	-1.16372
H	-0.932701	0.123635	1.04297
C	1.15159	-0.0248467	1.64665
H	2.15284	-0.0743763	1.16803
H	1.12366	0.842359	2.33781
H	1.00942	-0.950899	2.24545
N	0.0173838	2.5054	0.333503
C	0.154716	3.74827	-0.389403
H	-0.231832	2.54851	1.29533
H	-0.0489364	4.61533	0.276894
H	-0.559869	3.78702	-1.2433
H	1.18605	3.85387	-0.79725
C	3.33194	-1.94652	-2.06186
C	4.65935	-1.51001	-1.5734
O	5.67697	-2.11637	-1.87867
H	3.4517	-2.86004	-2.68394
H	2.87039	-1.1484	-2.68051
H	2.66654	-2.18047	-1.2042
N	4.67719	-0.430371	-0.788253
C	5.88757	0.0886184	-0.201586
C	5.52386	0.781733	1.09798
O	4.34798	0.972103	1.40255
H	3.83635	0.02827	-0.515322
H	6.54638	-0.734576	0.045282
C	6.58832	1.07356	-1.16288
H	5.91665	1.92371	-1.40813
H	7.52892	1.46955	-0.728173
H	6.83806	0.547078	-2.10987
N	6.53236	1.16988	1.90315
C	6.28235	1.8319	3.16227
H	7.47728	1.00342	1.64145
H	7.23866	2.07064	3.67775
H	5.67495	1.18257	3.83363
H	5.72318	2.78213	3.00252
