44
  This energy is 0.1259 and Call times are: 201062
C	-0.357798	2.45595	-2.43987
C	-0.677027	1.1267	-1.87213
O	-1.5994	0.454986	-2.31307
H	-1.0774	2.68991	-3.25431
H	0.670766	2.45653	-2.85796
H	-0.437757	3.2368	-1.6544
N	0.0913607	0.712817	-0.861849
C	-0.123694	-0.538622	-0.179053
C	0.374923	-0.391577	1.24619
O	1.00735	0.604306	1.59256
H	0.812431	1.28852	-0.487026
H	-1.18642	-0.740649	-0.129771
C	0.614103	-1.69139	-0.894606
H	1.7057	-1.48959	-0.936095
H	0.444981	-2.66276	-0.386304
H	0.239053	-1.77547	-1.93797
N	0.0921887	-1.38387	2.11305
C	0.520893	-1.32861	3.49121
H	-0.424244	-2.17987	1.81513
H	0.191478	-2.23694	4.04225
H	0.0922669	-0.435127	4.00037
H	1.63118	-1.26288	3.55514
C	3.45262	1.38262	0.543239
C	4.93079	1.45498	0.57399
O	5.50861	2.51365	0.778325
H	3.03166	2.39799	0.709623
H	3.08586	0.70596	1.34346
H	3.10828	1.00816	-0.443818
N	5.58544	0.31026	0.365584
C	7.02431	0.230123	0.32323
C	7.40722	-0.925472	-0.582062
O	6.55507	-1.70673	-1.00061
H	5.10167	-0.535641	0.159984
H	7.41945	1.13416	-0.123082
C	7.60735	0.0253507	1.73863
H	7.21041	-0.907495	2.19281
H	8.7154	-0.0240564	1.72105
H	7.30799	0.8785	2.38583
N	8.70684	-1.05589	-0.913726
C	9.16399	-2.12183	-1.77451
H	9.38102	-0.411407	-0.568481
H	10.2637	-2.05843	-1.92885
H	8.66651	-2.06375	-2.76971
H	8.92901	-3.11533	-1.32855
