44
  This energy is -0.7838 and Call times are: 197064
C	-1.62252	-1.78929	-2.50571
C	-0.424137	-1.1242	-1.94652
O	0.677124	-1.26872	-2.45911
H	-1.32673	-2.39842	-3.38738
H	-2.36671	-1.03037	-2.82656
H	-2.07982	-2.45659	-1.745
N	-0.616	-0.36939	-0.862169
C	0.460061	0.305543	-0.180172
C	0.080816	0.442694	1.28233
O	-1.05229	0.161753	1.66814
H	-1.51127	-0.294358	-0.432365
H	1.35192	-0.306921	-0.226072
C	0.723698	1.6937	-0.803671
H	-0.187854	2.32611	-0.747331
H	1.55933	2.21773	-0.296096
H	0.991626	1.56964	-1.87567
N	1.02994	0.8731	2.1367
C	0.762489	1.02912	3.54748
H	1.94219	1.09157	1.80634
H	1.66807	1.39223	4.08162
H	0.455253	0.0579268	3.99877
H	-0.0599338	1.76219	3.71291
C	7.49614	-2.88188	-1.45861
C	6.83314	-1.56138	-1.54723
O	6.68134	-1.00026	-2.62358
H	7.80851	-3.205	-2.47541
H	6.79484	-3.63501	-1.0418
H	8.39537	-2.81585	-0.810452
N	6.41893	-1.02684	-0.396109
C	5.7957	0.270822	-0.317289
C	6.096	0.857536	1.04915
O	6.62621	0.176047	1.92446
H	6.58627	-1.47694	0.476398
H	6.24135	0.926529	-1.0549
C	4.27078	0.164784	-0.537801
H	3.8116	-0.499442	0.225086
H	3.78123	1.1592	-0.493252
H	4.0746	-0.27429	-1.54033
N	5.76905	2.14754	1.26132
C	6.02197	2.79285	2.52851
H	5.34446	2.68394	0.539474
H	5.68301	3.852	2.50504
H	7.11032	2.77839	2.76635
H	5.48195	2.26981	3.35067
