44
  This energy is 0.1182 and Call times are: 197522
C	-2.86549	-1.22034	-1.55319
C	-2.1385	-0.727016	-0.361868
O	-2.73102	-0.452396	0.672497
H	-3.95342	-1.26209	-1.32837
H	-2.51452	-2.23908	-1.82103
H	-2.70204	-0.535606	-2.41198
N	-0.815209	-0.599769	-0.484717
C	0.021952	-0.0914398	0.573263
C	1.23115	0.572529	-0.0580395
O	1.4495	0.46773	-1.26347
H	-0.352243	-0.788335	-1.3461
H	-0.517079	0.672563	1.1195
C	0.461986	-1.22735	1.52264
H	1.02415	-2.00626	0.964677
H	1.0958	-0.846472	2.34951
H	-0.43898	-1.70404	1.96691
N	2.04551	1.2833	0.746729
C	3.2172	1.95448	0.234045
H	1.85002	1.35998	1.71883
H	3.75552	2.48457	1.0504
H	2.93365	2.702	-0.5419
H	3.91733	1.22308	-0.23072
C	5.77295	-3.37538	-0.205678
C	6.07115	-1.98374	0.201216
O	7.00582	-1.72913	0.948189
H	6.4971	-4.06374	0.281774
H	5.86357	-3.47976	-1.30733
H	4.74496	-3.65399	0.108493
N	5.26713	-1.03706	-0.288405
C	5.40522	0.357218	0.0514238
C	4.03733	1.00583	-0.0472883
O	3.08409	0.395476	-0.527418
H	4.48563	-1.26412	-0.86247
H	5.7296	0.443537	1.08096
C	6.40643	1.05858	-0.892461
H	6.06868	0.979418	-1.94778
H	6.53195	2.12959	-0.632292
H	7.39811	0.562541	-0.80963
N	3.90722	2.26449	0.416236
C	2.64248	2.96045	0.368977
H	4.68911	2.74052	0.804981
H	2.7397	3.98237	0.79732
H	1.86865	2.40885	0.950528
H	2.28385	3.05312	-0.681709
