44
  This energy is 0.1014 and Call times are: 194395
C	-2.77175	2.06683	0.397849
C	-2.00098	0.844366	0.718201
O	-2.30922	0.131149	1.66304
H	-3.59156	2.18882	1.13873
H	-3.21397	1.98539	-0.617312
H	-2.11128	2.95838	0.442669
N	-0.961854	0.573119	-0.0749102
C	-0.0920865	-0.557052	0.136703
C	1.27996	-0.206382	-0.407422
O	1.45397	0.818393	-1.06414
H	-0.698768	1.18521	-0.815176
H	0.0170936	-0.729607	1.20016
C	-0.645837	-1.8179	-0.562488
H	-0.748098	-1.64492	-1.65504
H	0.0079104	-2.69836	-0.395374
H	-1.65354	-2.05113	-0.154461
N	2.29437	-1.05144	-0.137465
C	3.63574	-0.797283	-0.608979
H	2.13478	-1.8735	0.399023
H	4.32671	-1.60603	-0.283863
H	4.01599	0.170469	-0.208801
H	3.65766	-0.743289	-1.72152
C	1.21551	2.08567	2.18043
C	1.29244	1.24922	0.961578
O	0.285844	0.952181	0.333134
H	0.152702	2.33925	2.38537
H	1.78793	3.026	2.03602
H	1.62723	1.53247	3.05079
N	2.51063	0.842667	0.596746
C	2.74039	-0.011606	-0.541667
C	3.99492	-0.82308	-0.278537
O	4.71473	-0.574646	0.68679
H	3.31591	1.05855	1.14152
H	1.91827	-0.710082	-0.635841
C	2.89478	0.820474	-1.83358
H	3.74468	1.52985	-1.74144
H	3.05836	0.173257	-2.71951
H	1.96851	1.41208	-2.00197
N	4.28244	-1.82464	-1.13307
C	5.45224	-2.65389	-0.959571
H	3.68572	-2.01301	-1.90606
H	5.51355	-3.42051	-1.76317
H	5.41994	-3.178	0.0230497
H	6.37948	-2.03717	-0.99157
