44
  This energy is -4.2191 and Call times are: 199577
C	1.67246	2.20208	2.11339
C	1.15031	1.81544	0.783343
O	1.12184	2.61469	-0.142293
H	1.98085	3.26991	2.09067
H	2.55358	1.57903	2.37452
H	0.885686	2.07162	2.88608
N	0.716263	0.559102	0.658492
C	0.141322	0.0491529	-0.561325
C	-0.83825	-1.05107	-0.198687
O	-0.907181	-1.47885	0.951951
H	0.707954	-0.0677018	1.43239
H	-0.422538	0.835982	-1.04671
C	1.23834	-0.491743	-1.50431
H	1.81025	-1.30617	-1.01068
H	0.809505	-0.874621	-2.45301
H	1.94811	0.328154	-1.74997
N	-1.62969	-1.53137	-1.17795
C	-2.59586	-2.5749	-0.925473
H	-1.56214	-1.1697	-2.10191
H	-3.14882	-2.8323	-1.85564
H	-3.33436	-2.24901	-0.157556
H	-2.09173	-3.4951	-0.551003
C	4.04167	1.79513	-2.65428
C	5.17541	1.41915	-1.77997
O	6.32244	1.74167	-2.05695
H	4.42612	2.3576	-3.53274
H	3.32776	2.43945	-2.09937
H	3.51627	0.884745	-3.01236
N	4.87366	0.714244	-0.687062
C	5.87358	0.239239	0.236559
C	5.35216	-1.02795	0.887655
O	4.1885	-1.38848	0.721493
H	3.94017	0.424175	-0.496466
H	6.76943	-0.0247992	-0.311491
C	6.18836	1.30768	1.30642
H	5.27175	1.57122	1.876
H	6.96703	0.959137	2.01544
H	6.56069	2.22865	0.806901
N	6.21041	-1.74183	1.6425
C	5.80519	-2.9641	2.29674
H	7.14924	-1.43618	1.76184
H	6.65187	-3.40316	2.8691
H	5.46129	-3.71467	1.54863
H	4.96599	-2.7719	3.0038
