44
  This energy is -3.4188 and Call times are: 201005
C	-2.37525	-0.599807	-2.47206
C	-1.15018	0.0668636	-1.97618
O	-0.415429	0.685565	-2.73364
H	-2.45848	-0.445792	-3.56989
H	-3.27189	-0.168185	-1.97963
H	-2.3285	-1.6897	-2.26462
N	-0.898754	-0.0489653	-0.670137
C	0.276728	0.508446	-0.0487705
C	0.622403	-0.342882	1.15842
O	-0.146352	-1.21743	1.55327
H	-1.48449	-0.590244	-0.073648
H	1.10957	0.444262	-0.737889
C	0.0350339	1.97419	0.373625
H	-0.812541	2.03935	1.08875
H	0.937437	2.41902	0.840869
H	-0.224121	2.57687	-0.524131
N	1.79998	-0.110335	1.77101
C	2.21614	-0.874413	2.92391
H	2.4105	0.598878	1.43434
H	3.21246	-0.533933	3.28259
H	2.2854	-1.95771	2.67303
H	1.4852	-0.758958	3.7567
C	3.95127	3.17404	-0.468108
C	4.47055	1.88906	-0.988018
O	4.33721	1.58204	-2.16461
H	3.45061	3.72803	-1.29169
H	4.78499	3.79233	-0.0739347
H	3.21364	2.98935	0.341129
N	5.08272	1.09583	-0.105729
C	5.60185	-0.203672	-0.452632
C	5.56224	-1.07551	0.788299
O	5.29322	-0.594684	1.88745
H	5.14735	1.34137	0.857283
H	4.95423	-0.661963	-1.18963
C	7.04483	-0.0952077	-0.992347
H	7.71185	0.365258	-0.232673
H	7.45082	-1.0878	-1.276
H	7.05111	0.553533	-1.89536
N	5.82313	-2.38906	0.638193
C	5.80314	-3.29686	1.76143
H	6.03474	-2.76028	-0.259855
H	6.04259	-4.33265	1.43426
H	4.79814	-3.30473	2.24226
H	6.55042	-2.98964	2.52846
