44
  This energy is -6.3818 and Call times are: 198353
C	0.904692	-2.21638	2.52624
C	0.695532	-1.88141	1.09963
O	1.08992	-2.62356	0.210762
H	1.45718	-3.17822	2.60049
H	-0.0729271	-2.32278	3.04168
H	1.49954	-1.42101	3.02285
N	0.0609687	-0.734466	0.846216
C	-0.177787	-0.253219	-0.491677
C	-0.233927	1.26215	-0.446255
O	-0.250378	1.85984	0.628089
H	-0.217754	-0.121122	1.57969
H	0.657862	-0.526241	-1.12396
C	-1.49523	-0.827156	-1.05752
H	-2.35422	-0.538497	-0.414989
H	-1.68333	-0.474938	-2.09245
H	-1.43471	-1.9373	-1.07409
N	-0.256261	1.92251	-1.62075
C	-0.304116	3.36502	-1.67609
H	-0.238205	1.42156	-2.4797
H	-0.315865	3.71793	-2.73086
H	0.583587	3.80723	-1.16844
H	-1.21867	3.74773	-1.16789
C	4.03443	2.88429	1.89126
C	4.7688	1.63913	1.5728
O	5.85722	1.39955	2.07715
H	4.63648	3.49508	2.59861
H	3.05942	2.64317	2.3645
H	3.86044	3.47321	0.966064
N	4.17958	0.806389	0.711551
C	4.79064	-0.423181	0.271877
C	4.27675	-0.735078	-1.12104
O	3.35743	-0.0839626	-1.61359
H	3.31246	1.0344	0.277989
H	5.86174	-0.282812	0.196603
C	4.46283	-1.57971	1.24153
H	3.36451	-1.73103	1.31102
H	4.93913	-2.52899	0.921348
H	4.8409	-1.32637	2.25604
N	4.86871	-1.74055	-1.7953
C	4.45049	-2.10568	-3.12869
H	5.61378	-2.25323	-1.38166
H	5.05823	-2.95437	-3.5129
H	4.56887	-1.24554	-3.82684
H	3.37892	-2.41041	-3.13492
