44
  This energy is 0.1181 and Call times are: 200977
C	-1.57882	3.02649	0.678498
C	-0.752493	2.15233	-0.184153
O	-0.482922	2.47022	-1.33423
H	-1.88261	3.92836	0.103838
H	-0.99693	3.34649	1.5683
H	-2.49125	2.48641	1.00843
N	-0.327428	1.01053	0.361739
C	0.449004	0.0383066	-0.366608
C	0.162652	-1.33118	0.219951
O	-0.487884	-1.44881	1.25662
H	-0.589253	0.746569	1.28566
H	0.122886	0.0216143	-1.39908
C	1.95711	0.359832	-0.280154
H	2.29444	0.366685	0.778242
H	2.56469	-0.373805	-0.848614
H	2.1422	1.36946	-0.70763
N	0.63843	-2.40578	-0.439517
C	0.410876	-3.74896	0.0403692
H	1.15916	-2.29066	-1.27896
H	0.880392	-4.4941	-0.638991
H	-0.680409	-3.96589	0.0979136
H	0.843286	-3.8811	1.05855
C	7.96758	0.666217	0.813986
C	6.68766	1.02659	0.163534
O	6.49656	2.15138	-0.27778
H	8.63556	1.55474	0.827684
H	8.4667	-0.149977	0.250553
H	7.78639	0.336716	1.85882
N	5.76668	0.0627715	0.0912511
C	4.4576	0.274434	-0.47449
C	3.49084	-0.680666	0.199847
O	3.89969	-1.56701	0.947476
H	5.92168	-0.835885	0.491561
H	4.12849	1.28066	-0.246834
C	4.4722	0.0418079	-2.00122
H	4.79966	-0.993668	-2.2349
H	3.47298	0.215218	-2.45068
H	5.19207	0.745855	-2.47286
N	2.17591	-0.515217	-0.04426
C	1.18164	-1.37291	0.557382
H	1.86409	0.210241	-0.648874
H	0.159344	-1.07685	0.234107
H	1.22962	-1.31041	1.66872
H	1.34876	-2.43451	0.263777
