44
  This energy is 0.1224 and Call times are: 201033
C	-2.57115	-0.637557	-2.2573
C	-1.52226	0.239796	-1.69053
O	-1.18972	1.27377	-2.25332
H	-2.93518	-0.203978	-3.21405
H	-3.42461	-0.718692	-1.55177
H	-2.15808	-1.64911	-2.45533
N	-0.967607	-0.162295	-0.544643
C	0.0952316	0.563308	0.105306
C	0.934491	-0.428194	0.888967
O	0.566875	-1.59322	1.02785
H	-1.22002	-1.02699	-0.119836
H	0.736988	1.00616	-0.646134
C	-0.472553	1.65181	1.04233
H	-1.12258	1.19688	1.81985
H	0.336202	2.22676	1.5382
H	-1.08958	2.36145	0.448989
N	2.09396	0.0127016	1.41554
C	2.96086	-0.860335	2.17215
H	2.37648	0.957813	1.28897
H	3.86409	-0.312396	2.52024
H	3.29232	-1.72178	1.54819
H	2.43007	-1.26437	3.06443
C	5.05093	-0.549163	3.38379
C	4.13712	-0.302085	2.24578
O	2.92568	-0.417715	2.37009
H	4.45632	-0.849492	4.27379
H	5.61897	0.37361	3.62579
H	5.76117	-1.36539	3.13401
N	4.70852	0.0475214	1.09094
C	3.95355	0.278765	-0.11534
C	4.84311	-0.0480124	-1.30002
O	6.04084	-0.277665	-1.14381
H	5.6985	0.0976483	0.994592
H	3.11215	-0.402203	-0.146224
C	3.46822	1.74303	-0.190258
H	4.33162	2.4417	-0.169235
H	2.87383	1.93018	-1.10797
H	2.82572	1.96222	0.690362
N	4.27149	-0.0847622	-2.51982
C	5.03792	-0.392319	-3.7048
H	3.3	0.0998685	-2.62565
H	4.38952	-0.373625	-4.60838
H	5.49719	-1.40415	-3.62389
H	5.85779	0.348656	-3.84593
