44
  This energy is -2.3529 and Call times are: 196529
C	0.636889	-3.39366	-0.436007
C	0.732683	-1.98294	-0.873968
O	1.46609	-1.65493	-1.79643
H	1.3205	-4.01688	-1.05257
H	-0.40167	-3.76462	-0.564577
H	0.932099	-3.4841	0.630653
N	-0.018264	-1.10254	-0.208114
C	0.000336075	0.311115	-0.490593
C	-0.343101	1.05333	0.787188
O	-0.736959	0.446668	1.78145
H	-0.579219	-1.37854	0.56714
H	1.00289	0.605401	-0.775048
C	-1.00528	0.663602	-1.60851
H	-2.03546	0.371493	-1.31281
H	-0.990439	1.74732	-1.84483
H	-0.739416	0.10324	-2.53136
N	-0.192498	2.39248	0.792184
C	-0.489497	3.18217	1.96452
H	0.131305	2.86511	-0.0207398
H	-0.30218	4.26114	1.76969
H	0.146326	2.86548	2.82284
H	-1.55625	3.05929	2.26129
C	6.18718	-3.02436	0.34563
C	5.06722	-2.11238	0.66992
O	4.08904	-2.50661	1.28973
H	5.95667	-4.04095	0.731968
H	7.12406	-2.66358	0.819803
H	6.32802	-3.08136	-0.754363
N	5.18756	-0.851399	0.248227
C	4.16146	0.140942	0.450557
C	4.25343	1.1529	-0.675971
O	5.19841	1.13573	-1.46237
H	5.97114	-0.555661	-0.290658
H	3.18937	-0.331159	0.381509
C	4.32943	0.837159	1.81888
H	5.32243	1.33059	1.88619
H	3.53709	1.59385	1.99248
H	4.26668	0.0767655	2.62771
N	3.26188	2.05896	-0.785058
C	3.26155	3.05714	-1.82899
H	2.50351	2.05438	-0.141686
H	2.36302	3.70806	-1.75043
H	3.25832	2.57504	-2.83341
H	4.16821	3.70061	-1.75784
