44
  This energy is -2.563 and Call times are: 200814
C	-2.65329	0.652111	2.15581
C	-1.77292	1.02009	1.02413
O	-2.03947	1.96672	0.296627
H	-3.52546	1.34097	2.18172
H	-2.09977	0.736889	3.11455
H	-3.02077	-0.388445	2.03214
N	-0.686582	0.264463	0.847292
C	0.241501	0.472626	-0.23617
C	0.881014	-0.860969	-0.573962
O	0.704074	-1.8439	0.143154
H	-0.504656	-0.527729	1.42279
H	-0.301507	0.801399	-1.11348
C	1.32012	1.50741	0.152469
H	1.88451	1.16564	1.04617
H	2.03275	1.68673	-0.67851
H	0.828974	2.47294	0.403228
N	1.63784	-0.927425	-1.68699
C	2.28163	-2.1556	-2.0911
H	1.76596	-0.122423	-2.25675
H	2.85755	-2.00693	-3.03101
H	1.52645	-2.95592	-2.26567
H	2.98362	-2.50958	-1.30177
C	5.73458	-3.24868	-0.899936
C	6.72715	-2.23183	-0.485238
O	7.8563	-2.55287	-0.141178
H	6.189	-4.26	-0.818782
H	5.42711	-3.07627	-1.95278
H	4.84135	-3.20221	-0.241866
N	6.31926	-0.960798	-0.507234
C	7.15755	0.135655	-0.0905768
C	6.26231	1.2438	0.431095
O	5.04167	1.18309	0.296787
H	5.38434	-0.718662	-0.750468
H	7.78456	-0.1864	0.731474
C	8.0226	0.6456	-1.26399
H	7.37961	0.985942	-2.1035
H	8.68265	1.48091	-0.952361
H	8.66363	-0.18377	-1.63488
N	6.85248	2.28512	1.05026
C	6.08089	3.38335	1.58385
H	7.84125	2.31442	1.15295
H	6.74688	4.13985	2.05438
H	5.36274	3.02086	2.35466
H	5.49786	3.88289	0.776583
