44
  This energy is -8.2756 and Call times are: 197036
C	1.55325	2.78592	-1.3924
C	1.04173	2.02335	-0.231374
O	1.3092	2.3592	0.914083
H	2.18207	3.6282	-1.03042
H	0.707618	3.19675	-1.98305
H	2.17115	2.12855	-2.03983
N	0.283089	0.960026	-0.507395
C	-0.251153	0.0953355	0.51508
C	-0.41399	-1.29215	-0.0764637
O	-0.264378	-1.48453	-1.28159
H	0.107965	0.675401	-1.44558
H	0.461965	0.0184547	1.32636
C	-1.606	0.625432	1.03336
H	-2.34112	0.694507	0.20338
H	-2.02105	-0.0243028	1.83092
H	-1.46447	1.64477	1.45439
N	-0.718323	-2.29918	0.765736
C	-0.887307	-3.65393	0.294276
H	-0.831366	-2.12457	1.73826
H	-1.13397	-4.33593	1.13764
H	0.0462374	-4.02022	-0.191116
H	-1.71047	-3.70978	-0.454343
C	7.22662	-3.16156	-1.31326
C	6.3199	-2.15315	-0.719856
O	5.10864	-2.32329	-0.702523
H	6.62485	-4.00634	-1.71334
H	7.9237	-3.55063	-0.541598
H	7.80944	-2.71046	-2.14387
N	6.89707	-1.06076	-0.213933
C	6.14326	0.0270173	0.35795
C	6.94132	1.30397	0.173399
O	8.10037	1.26873	-0.235333
H	7.88097	-0.917892	-0.272206
H	5.21556	0.144663	-0.188093
C	5.86202	-0.224068	1.85565
H	6.81363	-0.334338	2.41809
H	5.27025	0.600039	2.30418
H	5.28408	-1.16737	1.96743
N	6.33168	2.46994	0.464716
C	7.01049	3.73598	0.314649
H	5.39201	2.47844	0.790307
H	6.3425	4.57706	0.603812
H	7.32841	3.88836	-0.742229
H	7.91967	3.77312	0.957414
