44
  This energy is -1.3831 and Call times are: 195421
C	-0.774874	-1.60779	2.98785
C	-0.252139	-0.449542	2.22868
O	-0.0213996	0.617288	2.78099
H	-0.914109	-1.31701	4.05177
H	-0.0574928	-2.45371	2.93743
H	-1.7534	-1.92794	2.5718
N	-0.0529939	-0.637452	0.922001
C	0.410975	0.408158	0.0445083
C	-0.127937	0.132086	-1.3465
O	-0.692158	-0.929528	-1.60408
H	-0.284196	-1.49904	0.479195
H	-0.00178175	1.35551	0.368203
C	1.95412	0.468008	0.025331
H	2.37781	-0.500232	-0.316768
H	2.32355	1.27828	-0.636112
H	2.32665	0.662987	1.05468
N	0.0273582	1.0923	-2.27919
C	-0.458125	0.920869	-3.62867
H	0.48294	1.94629	-2.05067
H	-0.235116	1.8202	-4.24405
H	-1.56035	0.758515	-3.63191
H	0.0222196	0.0384469	-4.11007
C	8.86019	2.78845	-0.829737
C	8.29563	1.84297	0.159453
O	8.67792	1.8394	1.32146
H	9.63803	3.41273	-0.338715
H	8.06208	3.45244	-1.22327
H	9.32468	2.23086	-1.67022
N	7.35838	1.00451	-0.288811
C	6.74696	-0.000804223	0.544286
C	6.32565	-1.15756	-0.342279
O	6.37439	-1.0625	-1.56714
H	7.08698	0.991888	-1.24695
H	7.48172	-0.380915	1.24304
C	5.5286	0.574554	1.29914
H	4.76984	0.955073	0.582516
H	5.05739	-0.186177	1.95471
H	5.85893	1.42456	1.9353
N	5.90724	-2.28759	0.261012
C	5.49193	-3.4421	-0.501097
H	5.87866	-2.34688	1.25335
H	5.1838	-4.26969	0.175201
H	6.32413	-3.80749	-1.14547
H	4.63046	-3.18867	-1.16048
