44
  This energy is 0.1206 and Call times are: 194425
C	3.33979	0.919308	0.33666
C	1.89557	1.24268	0.308608
O	1.48497	2.33759	0.667774
H	3.90389	1.79172	0.732357
H	3.70119	0.692614	-0.688397
H	3.52327	0.0441251	0.995055
N	1.07987	0.278607	-0.124491
C	-0.353277	0.429421	-0.168126
C	-0.978509	-0.943074	-0.00412616
O	-0.285068	-1.95808	-0.0290524
H	1.42511	-0.62143	-0.374714
H	-0.674719	1.03275	0.671695
C	-0.800069	1.0724	-1.49936
H	-0.479715	0.448429	-2.36079
H	-1.90049	1.20658	-1.53943
H	-0.324347	2.07217	-1.60191
N	-2.31244	-1.00491	0.177084
C	-2.99443	-2.26665	0.347585
H	-2.85612	-0.172422	0.198438
H	-4.08698	-2.10797	0.483106
H	-2.60509	-2.80594	1.24137
H	-2.84243	-2.91904	-0.542599
C	4.06955	-3.41795	-0.386036
C	3.58536	-2.01951	-0.353269
O	2.45942	-1.73039	-0.734187
H	3.27502	-4.07196	-0.806555
H	4.31279	-3.76287	0.640906
H	4.9741	-3.49483	-1.02554
N	4.44186	-1.10561	0.108886
C	4.12999	0.301005	0.161127
C	5.4268	1.07803	0.0342053
O	6.51251	0.502592	0.076743
H	5.36926	-1.35043	0.376935
H	3.51301	0.561944	-0.689677
C	3.41168	0.658189	1.48086
H	4.04858	0.4004	2.35376
H	3.15383	1.7361	1.52711
H	2.46972	0.0722218	1.55623
N	5.34228	2.41238	-0.134254
C	6.52282	3.23343	-0.269753
H	4.45463	2.85944	-0.170258
H	6.24537	4.30272	-0.399679
H	7.12202	2.9169	-1.15408
H	7.16838	3.14581	0.633966
