44
  This energy is 0.1071 and Call times are: 200374
C	0.712203	0.939025	-3.2747
C	0.554795	-0.0851051	-2.21757
O	0.534057	-1.27758	-2.48957
H	0.78015	0.437655	-4.2646
H	1.63953	1.52539	-3.10445
H	-0.162292	1.62338	-3.27778
N	0.436154	0.366446	-0.966813
C	0.233564	-0.50644	0.162607
C	-0.535503	0.260932	1.22149
O	-0.732179	1.46906	1.10543
H	0.413791	1.34161	-0.765756
H	-0.382196	-1.34442	-0.139485
C	1.58349	-1.00172	0.726202
H	2.21133	-0.142904	1.04602
H	1.44048	-1.68576	1.58769
H	2.13249	-1.55341	-0.0678936
N	-0.998365	-0.429992	2.28187
C	-1.74551	0.21478	3.33649
H	-0.832704	-1.40781	2.3561
H	-2.03807	-0.521016	4.11767
H	-2.67182	0.683224	2.93179
H	-1.13643	1.01388	3.81774
C	2.5944	2.76012	-2.07292
C	2.03769	2.11588	-0.862062
O	1.52377	2.77892	0.0282609
H	2.47196	3.86207	-1.9919
H	2.05712	2.40434	-2.97707
H	3.67535	2.52476	-2.16897
N	2.13174	0.785526	-0.801157
C	1.67418	0.0214334	0.332579
C	2.51254	-1.23978	0.422392
O	3.29031	-1.54457	-0.479765
H	2.58947	0.263194	-1.51496
H	1.84669	0.588646	1.23874
C	0.177404	-0.332213	0.191718
H	0.0015051	-0.923147	-0.73235
H	-0.190325	-0.908754	1.06516
H	-0.416012	0.605341	0.119683
N	2.3785	-2.00247	1.52527
C	3.13916	-3.21766	1.70097
H	1.74704	-1.73723	2.24637
H	2.88855	-3.70179	2.67053
H	4.23217	-3.00206	1.6891
H	2.92086	-3.93999	0.881382
