44
  This energy is 0.1007 and Call times are: 200437
C	3.45103	0.0997988	-0.439456
C	2.1582	0.747991	-0.12388
O	2.1137	1.87966	0.338454
H	4.28195	0.788627	-0.17306
H	3.50895	-0.130614	-1.52403
H	3.56112	-0.838592	0.143978
N	1.05923	0.0307468	-0.369227
C	-0.268083	0.510016	-0.0740917
C	-1.15189	-0.689852	0.210082
O	-0.746328	-1.83279	0.00777267
H	1.11316	-0.904482	-0.707316
H	-0.239126	1.10994	0.826957
C	-0.83302	1.3314	-1.25367
H	-0.872794	0.71323	-2.1758
H	-1.84922	1.7177	-1.03315
H	-0.166289	2.19955	-1.44898
N	-2.38635	-0.455766	0.697263
C	-3.29571	-1.53554	1.00277
H	-2.6951	0.475812	0.858215
H	-4.25937	-1.13974	1.39253
H	-2.85785	-2.21201	1.77214
H	-3.50777	-2.14051	0.0916189
C	6.78718	1.75953	-2.484
C	5.66722	0.909663	-2.02076
O	4.68904	0.710759	-2.72787
H	6.55667	2.14966	-3.49914
H	7.72406	1.1656	-2.53143
H	6.92802	2.61716	-1.79284
N	5.78756	0.382873	-0.799941
C	4.76146	-0.429716	-0.195476
C	4.85343	-0.265235	1.30987
O	5.79841	0.332172	1.82156
H	6.57114	0.587164	-0.220179
H	3.78937	-0.0634049	-0.501194
C	4.92943	-1.91361	-0.589302
H	5.92243	-2.29285	-0.266527
H	4.13709	-2.54762	-0.141266
H	4.86668	-2.00914	-1.69532
N	3.86188	-0.788241	2.05774
C	3.86155	-0.676118	3.49774
H	3.10351	-1.26457	1.62524
H	2.96302	-1.16878	3.93035
H	3.85832	0.393816	3.80841
H	4.76821	-1.15829	3.92974
