44
  This energy is -5.4738 and Call times are: 197727
C	1.25637	0.441657	-3.21546
C	0.257571	0.71476	-2.15765
O	-0.563908	1.61295	-2.27942
H	1.12031	1.1685	-4.04555
H	1.122	-0.586501	-3.61242
H	2.28394	0.549185	-2.80847
N	0.309187	-0.0669904	-1.07664
C	-0.568851	0.104775	0.0538926
C	0.154153	-0.387614	1.2934
O	1.22504	-0.984803	1.20234
H	1.00977	-0.767378	-0.974168
H	-0.76807	1.15986	0.19442
C	-1.88762	-0.673095	-0.148613
H	-1.68455	-1.75703	-0.282303
H	-2.57793	-0.537589	0.709077
H	-2.39566	-0.30179	-1.06533
N	-0.41495	-0.139088	2.48938
C	0.202894	-0.564828	3.72356
H	-1.27971	0.349163	2.54302
H	-0.417708	-0.266908	4.59724
H	1.21138	-0.105081	3.83697
H	0.324359	-1.67212	3.74078
C	5.57662	-2.29484	-2.54044
C	4.6699	-1.6376	-1.57242
O	3.45864	-1.79878	-1.6296
H	4.97485	-2.88698	-3.26369
H	6.2737	-2.97683	-2.00966
H	6.15944	-1.53155	-3.09792
N	5.24707	-0.86702	-0.647504
C	4.49326	-0.128843	0.335049
C	5.29132	1.10416	0.715002
O	6.45037	1.24732	0.330542
H	6.23097	-0.712957	-0.638995
H	3.56556	0.211265	-0.108043
C	4.21202	-0.996998	1.58103
H	5.16363	-1.33746	2.04209
H	3.62025	-0.444289	2.33921
H	3.63408	-1.89733	1.27816
N	4.68168	2.03313	1.47748
C	5.36049	3.24151	1.88393
H	3.74201	1.90141	1.77536
H	4.6925	3.87779	2.50536
H	5.67841	3.83172	0.994065
H	6.26967	2.99986	2.4807
