44
  This energy is -2.0755 and Call times are: 201090
C	-1.06699	3.30751	-0.185951
C	-0.0754962	2.2411	-0.452139
O	0.873221	2.43136	-1.20057
H	-0.796901	4.21418	-0.769804
H	-1.07237	3.56409	0.894272
H	-2.08071	2.97236	-0.49112
N	-0.278774	1.07448	0.164345
C	0.575912	-0.070337	-0.0291939
C	-0.253708	-1.32192	0.187178
O	-1.39726	-1.2502	0.633103
H	-1.07814	0.921864	0.73844
H	0.923755	-0.0871746	-1.05455
C	1.77157	-0.0376355	0.947833
H	1.41542	-0.0310025	2.00005
H	2.44465	-0.906791	0.799338
H	2.35982	0.890335	0.777017
N	0.304703	-2.50554	-0.134166
C	-0.410952	-3.74902	0.0324507
H	1.22971	-2.54299	-0.497522
H	0.216651	-4.60986	-0.28738
H	-1.34382	-3.74999	-0.576676
H	-0.695025	-3.89915	1.09918
C	11.1006	-1.80242	0.397399
C	10.0679	-0.866623	0.896313
O	10.0278	-0.537269	2.07374
H	11.7485	-2.1194	1.24334
H	11.7297	-1.30438	-0.37005
H	10.6211	-2.70128	-0.0444476
N	9.19363	-0.412361	-0.00464124
C	8.10649	0.470323	0.338196
C	6.97314	0.22714	-0.640558
O	7.13659	-0.485757	-1.62887
H	9.21408	-0.721495	-0.951148
H	7.73969	0.218564	1.32546
C	8.55768	1.94652	0.288255
H	8.92423	2.20823	-0.727223
H	7.73311	2.6355	0.563787
H	9.3927	2.09955	1.00635
N	5.78696	0.81184	-0.381485
C	4.6496	0.633052	-1.25362
H	5.67293	1.3819	0.425425
H	3.76825	1.19298	-0.870313
H	4.3758	-0.444469	-1.32615
H	4.87958	1.00064	-2.27984
