44
  This energy is -5.1883 and Call times are: 196306
C	0.310127	2.58864	-2.30552
C	-0.144858	2.05037	-1.00383
O	-0.557772	2.79094	-0.122097
H	0.220805	3.69671	-2.2962
H	-0.317586	2.1844	-3.12729
H	1.37169	2.31518	-2.48273
N	-0.0756305	0.725717	-0.852558
C	-0.441882	0.0594538	0.372397
C	0.372454	-1.21612	0.478754
O	1.05498	-1.60818	-0.465794
H	0.301118	0.139854	-1.56438
H	-0.172254	0.68539	1.2139
C	-1.95289	-0.259165	0.396631
H	-2.2281	-0.909945	-0.46056
H	-2.24993	-0.759926	1.34084
H	-2.52908	0.687814	0.309589
N	0.325342	-1.89277	1.64321
C	1.07146	-3.11397	1.83855
H	-0.229443	-1.55755	2.39748
H	0.90209	-3.5191	2.86052
H	2.16311	-2.93211	1.71012
H	0.760866	-3.88694	1.09882
C	3.68326	-0.826274	3.36088
C	3.35034	-0.00114736	2.17788
O	2.40327	0.772972	2.19229
H	2.94863	-0.621787	4.16981
H	4.70084	-0.576096	3.72786
H	3.63943	-1.9047	3.09984
N	4.13482	-0.153346	1.10839
C	3.91054	0.548558	-0.130797
C	4.4476	-0.30684	-1.2628
O	5.10934	-1.31656	-1.02987
H	4.87701	-0.817349	1.09795
H	2.84535	0.661829	-0.289452
C	4.60574	1.9276	-0.117363
H	5.69998	1.81133	0.0348396
H	4.42892	2.48369	-1.06077
H	4.20305	2.53342	0.723565
N	4.16573	0.0759583	-2.52377
C	4.6298	-0.678802	-3.66444
H	3.62534	0.89371	-2.69211
H	4.29516	-0.203731	-4.6129
H	4.23297	-1.71944	-3.63468
H	5.74248	-0.733745	-3.67311
