44
  This energy is -8.1744 and Call times are: 200346
C	0.0960483	0.639883	3.41965
C	-0.0828326	-0.274555	2.26946
O	-0.133629	-1.48666	2.42639
H	0.183959	0.0428631	4.35331
H	-0.777912	1.31892	3.50824
H	1.02002	1.24197	3.28977
N	-0.181581	0.296759	1.06687
C	-0.315488	-0.464011	-0.150451
C	0.292038	0.343417	-1.28205
O	0.637252	1.5106	-1.10823
H	-0.0973437	1.28229	0.950671
H	0.256344	-1.37955	-0.0642591
C	-1.79883	-0.777634	-0.444666
H	-2.38389	0.161488	-0.543638
H	-1.91413	-1.37499	-1.37224
H	-2.22492	-1.36198	0.399928
N	0.445095	-0.266985	-2.4737
C	1.01905	0.420445	-3.60692
H	0.163533	-1.21322	-2.59381
H	1.06039	-0.249693	-4.49373
H	2.05449	0.761081	-3.37648
H	0.411928	1.31614	-3.87204
C	3.62103	2.79443	-2.02975
C	4.25955	2.09626	-0.891326
O	5.23318	2.5712	-0.323082
H	4.17559	3.73427	-2.24197
H	2.56835	3.04631	-1.78246
H	3.64423	2.15134	-2.93472
N	3.71657	0.931536	-0.529434
C	4.25279	0.11622	0.53183
C	3.9147	-1.33212	0.232512
O	3.14873	-1.62358	-0.684032
H	2.94934	0.5381	-1.02786
H	5.33232	0.201064	0.53684
C	3.67014	0.536892	1.89887
H	2.5635	0.439994	1.89771
H	4.08582	-0.0744213	2.72593
H	3.92284	1.60209	2.0934
N	4.48921	-2.27967	0.999385
C	4.23117	-3.68454	0.785126
H	5.10949	-2.02444	1.73368
H	4.79589	-4.30409	1.51621
H	4.53777	-3.98802	-0.242092
H	3.14574	-3.90699	0.901295
