44
  This energy is 0.1019 and Call times are: 199666
C	-3.17295	1.35195	-0.466136
C	-2.26115	0.331861	0.0988121
O	-2.64774	-0.464835	0.942747
H	-4.17269	1.25518	0.0103425
H	-3.28097	1.20425	-1.56124
H	-2.77749	2.37049	-0.26796
N	-1.00784	0.336235	-0.36117
C	0.00524147	-0.567484	0.124132
C	1.35429	0.11038	-0.0246298
O	1.46266	1.16906	-0.6404
H	-0.697224	1.01726	-1.01813
H	-0.151465	-0.745663	1.1807
C	-0.021422	-1.89819	-0.659289
H	0.149796	-1.71702	-1.74183
H	0.74498	-2.60785	-0.285741
H	-1.02023	-2.3727	-0.542802
N	2.41949	-0.484555	0.547583
C	3.742	0.0899166	0.463126
H	2.31121	-1.33878	1.04522
H	4.48207	-0.546705	0.996254
H	3.75906	1.10548	0.920953
H	4.06211	0.184949	-0.599719
C	1.7361	0.0705276	-3.10838
C	2.94116	0.160664	-2.25347
O	4.06363	0.161394	-2.73974
H	2.04614	-0.00759531	-4.17309
H	1.10876	0.977899	-2.98239
H	1.14287	-0.82896	-2.83991
N	2.73068	0.237658	-0.937353
C	3.80433	0.287352	0.0235662
C	3.30838	-0.326808	1.3191
O	2.12125	-0.610267	1.46776
H	1.8125	0.194663	-0.554018
H	4.62712	-0.322441	-0.328262
C	4.26909	1.7416	0.256808
H	3.42792	2.36518	0.627799
H	5.10487	1.79187	0.984448
H	4.62018	2.17353	-0.705746
N	4.21468	-0.555539	2.28982
C	3.83619	-1.14181	3.55441
H	5.17143	-0.323205	2.14937
H	4.72183	-1.24963	4.21868
H	3.38806	-2.1503	3.40137
H	3.08382	-0.504876	4.07345
