44
  This energy is -3.5073 and Call times are: 199075
C	-2.07365	0.349568	-2.77317
C	-1.55221	-0.426143	-1.62534
O	-2.09185	-1.46299	-1.26459
H	-2.97788	-0.15535	-3.17727
H	-1.30729	0.409554	-3.57431
H	-2.34959	1.37497	-2.44835
N	-0.473265	0.0696919	-1.01509
C	0.122996	-0.549643	0.142262
C	0.791876	0.534034	0.966761
O	0.906182	1.67759	0.529811
H	-0.06966	0.936171	-1.2947
H	-0.655876	-0.986486	0.754763
C	1.15058	-1.62443	-0.275055
H	1.95552	-1.17477	-0.894658
H	1.60662	-2.11836	0.607316
H	0.640816	-2.40277	-0.883886
N	1.24466	0.198557	2.19088
C	1.88983	1.16465	3.04914
H	1.13934	-0.730889	2.52868
H	2.19001	0.696389	4.01239
H	1.20303	2.01337	3.27106
H	2.80194	1.57735	2.56041
C	6.38173	-2.86529	-1.71437
C	5.66751	-2.18887	-0.608245
O	4.88787	-2.8002	0.109287
H	6.07023	-3.93168	-1.75488
H	7.47839	-2.81731	-1.54773
H	6.13363	-2.38142	-2.68256
N	5.9212	-0.888266	-0.445613
C	5.27064	-0.0855302	0.559843
C	5.20894	1.34432	0.0565615
O	5.81061	1.68006	-0.961761
H	6.52719	-0.395274	-1.06334
H	4.25091	-0.427599	0.685365
C	6.03414	-0.155197	1.90054
H	7.07724	0.205548	1.7746
H	5.53538	0.447812	2.68675
H	6.07384	-1.21139	2.24581
N	4.46752	2.22314	0.759406
C	4.3455	3.60391	0.353506
H	3.98461	1.9317	1.57851
H	3.6942	4.16518	1.05921
H	3.90158	3.6759	-0.665827
H	5.34443	4.09661	0.330604
