44
  This energy is -2.8115 and Call times are: 195172
C	0.777953	2.59715	-2.18226
C	0.450513	2.08197	-0.83374
O	0.568158	2.78699	0.158991
H	1.13434	3.6468	-2.09789
H	-0.123644	2.57471	-2.82984
H	1.57913	1.98156	-2.64296
N	0.0270737	0.817539	-0.768204
C	-0.288356	0.163223	0.477162
C	-0.0373516	-1.32328	0.307278
O	0.208255	-1.79801	-0.799982
H	-0.024449	0.243466	-1.58039
H	0.384788	0.518039	1.24763
C	-1.75676	0.421875	0.879806
H	-2.44812	0.0485443	0.0945104
H	-2.00804	-0.0653051	1.84419
H	-1.91958	1.51619	0.990733
N	-0.0853887	-2.09562	1.41055
C	0.145808	-3.51993	1.34683
H	-0.281555	-1.6926	2.29834
H	0.0632826	-3.97733	2.35737
H	1.16307	-3.73521	0.9467
H	-0.598857	-4.00948	0.678276
C	3.28425	-1.23921	1.71107
C	4.74522	-1.06705	1.54649
O	5.52337	-1.37502	2.43872
H	3.07431	-1.64782	2.7234
H	2.89417	-1.94706	0.949797
H	2.76927	-0.261205	1.6044
N	5.15553	-0.559912	0.381661
C	6.54243	-0.294534	0.0907354
C	6.60679	0.852612	-0.899965
O	5.58637	1.27822	-1.43784
H	4.50743	-0.275898	-0.319167
H	7.041	0.0317868	0.994929
C	7.23467	-1.54843	-0.487021
H	6.73003	-1.8774	-1.42039
H	8.3066	-1.36093	-0.702241
H	7.16848	-2.37719	0.251298
N	7.816	1.3882	-1.15875
C	7.97405	2.4865	-2.08337
H	8.62965	1.03294	-0.710598
H	9.04276	2.78514	-2.16027
H	7.38634	3.37109	-1.74665
H	7.61586	2.20019	-3.09869
