44
  This energy is 0.1192 and Call times are: 196850
C	3.14883	-1.40878	-0.46141
C	1.67075	-1.48608	-0.48253
O	1.09377	-2.43414	-0.996996
H	3.57055	-2.29801	-0.978418
H	3.51637	-1.39427	0.586183
H	3.49162	-0.491999	-0.985917
N	1.01522	-0.47057	0.0843953
C	-0.423743	-0.38362	0.103688
C	-0.808502	1.08344	0.139198
O	0.0426614	1.95375	0.311783
H	1.49828	0.313879	0.462763
H	-0.819047	-0.798623	-0.815083
C	-1.00492	-1.1256	1.32718
H	-0.607819	-0.693353	2.27033
H	-2.11301	-1.07769	1.34583
H	-0.704214	-2.19523	1.28462
N	-2.10865	1.39322	-0.0330616
C	-2.56755	2.76268	-0.0200964
H	-2.78202	0.675333	-0.175477
H	-3.66745	2.81038	-0.178723
H	-2.07142	3.35082	-0.825842
H	-2.33245	3.24678	0.955366
C	5.42739	1.09166	-3.12414
C	4.357	0.727495	-2.16873
O	3.18298	0.972183	-2.41004
H	4.97676	1.59927	-4.00455
H	5.95955	0.180024	-3.46834
H	6.15133	1.78242	-2.64266
N	4.74643	0.126127	-1.04219
C	3.82519	-0.249093	0.00139479
C	4.57048	-0.221881	1.32252
O	5.79099	-0.0767064	1.3542
H	5.70948	-0.0294297	-0.841694
H	3.0344	0.488206	0.061909
C	3.23761	-1.65325	-0.260002
H	4.04768	-2.41164	-0.311678
H	2.51619	-1.9479	0.529465
H	2.70373	-1.65193	-1.23535
N	3.84667	-0.353513	2.45158
C	4.46887	-0.334094	3.75491
H	2.85958	-0.465907	2.40585
H	3.70713	-0.456324	4.55619
H	5.00128	0.630279	3.92166
H	5.21166	-1.15914	3.84819
