44
  This energy is 0.1013 and Call times are: 198676
C	3.34181	0.794499	0.56015
C	2.28645	-0.0402865	-0.0566854
O	2.55363	-0.857543	-0.926809
H	4.32119	0.552831	0.092943
H	3.40328	0.590269	1.64976
H	3.12206	1.87082	0.397835
N	1.04217	0.152539	0.387118
C	-0.0955834	-0.55389	-0.146776
C	-1.31824	0.330154	0.011788
O	-1.2638	1.36851	0.667961
H	0.834586	0.850287	1.06677
H	0.0500379	-0.715782	-1.20754
C	-0.301824	-1.89925	0.583095
H	-0.461766	-1.733	1.66975
H	-1.16666	-2.45905	0.171753
H	0.608005	-2.52656	0.46045
N	-2.45525	-0.0600964	-0.59726
C	-3.6674	0.720077	-0.506739
H	-2.47861	-0.90132	-1.12723
H	-4.49128	0.233914	-1.07427
H	-3.50944	1.74106	-0.92378
H	-3.98791	0.826591	0.554895
C	2.37164	0.0867319	-0.0789174
C	3.68283	0.684776	0.259131
O	3.77411	1.85312	0.609916
H	1.57798	0.857954	0.0268262
H	2.14717	-0.756449	0.607673
H	2.37765	-0.281439	-1.12653
N	4.74508	-0.117438	0.156807
C	6.09096	0.332762	0.410708
C	7.03634	-0.504865	-0.429656
O	6.63037	-1.49292	-1.03845
H	4.65972	-1.05453	-0.169444
H	6.19191	1.35986	0.0828334
C	6.4417	0.205733	1.9094
H	6.34849	-0.849528	2.24374
H	7.47081	0.562254	2.11999
H	5.73242	0.820323	2.50568
N	8.32684	-0.121318	-0.488977
C	9.29804	-0.853702	-1.26779
H	8.63559	0.68336	0.0072542
H	10.302	-0.381374	-1.18931
H	9.00407	-0.875612	-2.34222
H	9.37632	-1.90577	-0.90978
