44
  This energy is -2.1014 and Call times are: 200622
C	-0.0287058	-3.05348	1.66977
C	-0.44527	-1.63979	1.5315
O	-1.33719	-1.17191	2.22575
H	-0.652824	-3.54596	2.44683
H	1.03709	-3.11022	1.9757
H	-0.165567	-3.58872	0.706514
N	0.201624	-0.917557	0.61374
C	-0.120891	0.45954	0.334189
C	0.23202	0.743441	-1.11371
O	0.855326	-0.0784458	-1.78282
H	0.897312	-1.32347	0.0279745
H	-1.18868	0.605021	0.440432
C	0.651416	1.40917	1.27598
H	1.7471	1.26775	1.15974
H	0.401138	2.47192	1.07991
H	0.383809	1.17816	2.3302
N	-0.1689	1.91922	-1.63604
C	0.116571	2.27399	-3.00674
H	-0.675805	2.56966	-1.08012
H	-0.295561	3.27883	-3.24689
H	-0.334939	1.53367	-3.70627
H	1.21579	2.29342	-3.18696
C	4.61199	-2.79449	1.97396
C	5.53356	-1.79277	1.39222
O	6.68901	-1.69423	1.78163
H	5.14124	-3.36169	2.77023
H	4.27484	-3.50499	1.19021
H	3.72904	-2.28917	2.41907
N	5.03251	-1.01278	0.431512
C	5.79439	0.0359507	-0.199557
C	4.82864	1.11358	-0.655211
O	3.61372	0.929731	-0.611853
H	4.07827	-1.07744	0.153834
H	6.45731	0.484368	0.529881
C	6.59938	-0.51182	-1.39838
H	5.91887	-0.962547	-2.1519
H	7.20106	0.28341	-1.88429
H	7.2936	-1.30431	-1.04291
N	5.3506	2.27443	-1.0979
C	4.50908	3.35914	-1.54671
H	6.3361	2.40598	-1.12168
H	5.12519	4.22654	-1.87114
H	3.83284	3.69629	-0.727983
H	3.87714	3.03683	-2.40573
