44
  This energy is -3.6706 and Call times are: 201174
C	-3.12548	-1.47214	-0.420516
C	-1.69047	-1.53978	-0.0637137
O	-1.21883	-2.53015	0.477707
H	-3.62752	-2.41193	-0.103274
H	-3.24175	-1.35558	-1.51853
H	-3.60805	-0.615204	0.0951202
N	-0.953414	-0.467556	-0.362812
C	0.447828	-0.368023	-0.0385065
C	0.785086	1.09813	0.156959
O	-0.0296771	1.97477	-0.124772
H	-1.36007	0.34711	-0.766317
H	0.633128	-0.869937	0.90297
C	1.31808	-0.979176	-1.15851
H	1.13612	-0.457679	-2.12234
H	2.39858	-0.921106	-0.914261
H	1.04871	-2.04998	-1.28957
N	2.00028	1.39911	0.655695
C	2.40745	2.76647	0.880886
H	2.6444	0.675773	0.881459
H	3.4391	2.80651	1.29478
H	1.721	3.26707	1.60162
H	2.38891	3.34404	-0.0715908
C	4.70044	0.904982	-2.62405
C	5.31586	1.15602	-1.3014
O	5.21753	2.24557	-0.754017
H	4.20049	1.83249	-2.97851
H	3.94394	0.0959781	-2.54679
H	5.4796	0.613198	-3.35947
N	5.97758	0.135241	-0.751379
C	6.66511	0.240096	0.5115
C	7.82258	-0.740594	0.502741
O	7.94268	-1.56501	-0.401478
H	6.08369	-0.732937	-1.22768
H	7.08483	1.23361	0.608312
C	5.70928	-0.0608893	1.68668
H	5.28655	-1.08395	1.59345
H	6.22346	0.0301524	2.66537
H	4.86602	0.66363	1.66868
N	8.71174	-0.667443	1.51272
C	9.84811	-1.55602	1.58521
H	8.59995	0.00907031	2.23307
H	10.4606	-1.33834	2.48781
H	10.4955	-1.43986	0.685974
H	9.51431	-2.61772	1.63545
