44
  This energy is -0.9988 and Call times are: 201146
C	-3.32342	0.865778	-0.563893
C	-2.28513	-0.0702172	-0.0770696
O	-2.58073	-1.05274	0.589017
H	-4.32063	0.524097	-0.210759
H	-3.32487	0.89209	-1.67387
H	-3.13324	1.8866	-0.170399
N	-1.02367	0.221027	-0.403088
C	0.0986538	-0.571489	0.0337873
C	1.31044	0.336345	0.12844
O	1.26963	1.48796	-0.300304
H	-0.795045	1.04656	-0.911121
H	-0.0980861	-0.95163	1.02848
C	0.368188	-1.7339	-0.946717
H	0.580472	-1.34399	-1.96502
H	1.22147	-2.35978	-0.613979
H	-0.534389	-2.38055	-1.00628
N	2.42203	-0.162549	0.704198
C	3.62186	0.629452	0.843223
H	2.43447	-1.09537	1.04883
H	4.42479	0.042773	1.34156
H	3.4229	1.54004	1.45356
H	3.99435	0.957065	-0.154307
C	9.82092	-3.07832	-1.30155
C	8.79245	-2.05849	-0.995989
O	7.66365	-2.1389	-1.46049
H	9.39074	-3.83953	-1.98811
H	10.1502	-3.58141	-0.368142
H	10.6959	-2.60387	-1.79392
N	9.16797	-1.05827	-0.195406
C	8.29159	0.030853	0.157168
C	9.14469	1.25585	0.427652
O	10.3695	1.16884	0.491084
H	10.1022	-0.984615	0.141815
H	7.65264	0.262488	-0.68587
C	7.44344	-0.323134	1.39837
H	8.09833	-0.550592	2.26637
H	6.75453	0.502253	1.6716
H	6.83344	-1.22687	1.18044
N	8.51262	2.43545	0.585937
C	9.2421	3.6556	0.841404
H	7.52115	2.48654	0.52708
H	8.5453	4.51686	0.941019
H	9.94977	3.87185	0.00850401
H	9.83217	3.57105	1.78258
