44
  This energy is -5.2828 and Call times are: 199383
C	-1.37023	-1.14535	-2.98719
C	-1.17927	-1.23505	-1.52205
O	-1.8643	-1.98386	-0.839095
H	-2.198	-1.82204	-3.2918
H	-0.442354	-1.45302	-3.51362
H	-1.6314	-0.105445	-3.27611
N	-0.228359	-0.457628	-0.998833
C	0.0452953	-0.403322	0.415636
C	0.595468	0.973145	0.738439
O	0.892396	1.7591	-0.159234
H	0.293211	0.176815	-1.56214
H	-0.881874	-0.516731	0.963475
C	1.05369	-1.49916	0.824931
H	2.00877	-1.37695	0.270922
H	1.26206	-1.47662	1.91424
H	0.633727	-2.49722	0.572256
N	0.736788	1.30108	2.03787
C	1.24729	2.59074	2.44079
H	0.487249	0.653234	2.74998
H	1.28815	2.66856	3.54962
H	0.5961	3.40868	2.05582
H	2.2745	2.74959	2.03986
C	3.33243	0.0937458	-2.99661
C	4.59258	0.171832	-2.22389
O	5.68002	0.166207	-2.78412
H	3.57003	0.0174008	-4.07993
H	2.72178	1.00519	-2.82597
H	2.75171	-0.802396	-2.69206
N	4.47112	0.245366	-0.896403
C	5.60693	0.283569	-0.00925761
C	5.19405	-0.331864	1.3145
O	4.01741	-0.607205	1.54126
H	3.58031	0.207626	-0.452681
H	6.39975	-0.33088	-0.417318
C	6.09719	1.73349	0.197184
H	5.28743	2.36178	0.625639
H	6.98009	1.77489	0.867478
H	6.38642	2.16649	-0.78526
N	6.16146	-0.570891	2.2217
C	5.86391	-1.15918	3.50683
H	7.10841	-0.345023	2.01836
H	6.79113	-1.27598	4.11003
H	5.39896	-2.16377	3.38076
H	5.15274	-0.518737	4.0771
