44
  This energy is 0.6 and Call times are: 198761
C	0.654978	3.33496	-0.74948
C	-0.0664366	2.28653	0.00649234
O	-0.754206	2.56693	0.978479
H	0.468078	4.32338	-0.276211
H	0.295456	3.36555	-1.7995
H	1.74666	3.13197	-0.738536
N	0.0795153	1.03338	-0.430176
C	-0.525551	-0.0980977	0.227261
C	0.345013	-1.31419	-0.0272607
O	1.27741	-1.26496	-0.827212
H	0.675481	0.816156	-1.19797
H	-0.535599	0.0733404	1.29644
C	-1.9585	-0.338871	-0.296106
H	-1.94764	-0.52525	-1.39118
H	-2.44022	-1.19906	0.21237
H	-2.57544	0.566554	-0.106503
N	0.0635944	-2.43931	0.658987
C	0.84099	-3.64434	0.48648
H	-0.692336	-2.45851	1.30495
H	0.453946	-4.45865	1.13787
H	1.90877	-3.46375	0.748238
H	0.798772	-3.99126	-0.571351
C	5.98779	0.53858	-3.43729
C	5.44261	-0.135069	-2.23724
O	4.42458	-0.810588	-2.29814
H	5.32657	0.331908	-4.30673
H	7.00593	0.156523	-3.66126
H	6.03282	1.63586	-3.27289
N	6.11946	0.039411	-1.09978
C	5.68891	-0.517517	0.158395
C	6.1904	0.383767	1.27094
O	6.97843	1.29741	1.03435
H	6.92354	0.625533	-1.05763
H	4.60687	-0.510466	0.20057
C	6.22861	-1.95316	0.339773
H	7.33899	-1.95948	0.307124
H	5.89247	-2.39808	1.29872
H	5.85558	-2.59298	-0.489575
N	5.73504	0.150678	2.51767
C	6.15261	0.960223	3.63858
H	5.09461	-0.590731	2.68866
H	5.6687	0.611505	4.57744
H	5.87592	2.0273	3.47711
H	7.25731	0.906462	3.77235
