44
  This energy is 0.1119 and Call times are: 198080
C	-1.55284	-0.757375	3.02122
C	-1.15394	0.199903	1.96498
O	-1.60779	1.3355	1.93568
H	-2.2912	-0.272705	3.69635
H	-0.66652	-1.06123	3.6169
H	-2.01834	-1.65708	2.56631
N	-0.282387	-0.246767	1.05764
C	0.166755	0.553846	-0.0540476
C	0.521023	-0.379429	-1.19643
O	0.560603	-1.59647	-1.02625
H	0.0467319	-1.18664	1.07108
H	-0.646604	1.18361	-0.392397
C	1.38779	1.41252	0.342197
H	2.22613	0.766365	0.679388
H	1.73453	2.0439	-0.501394
H	1.10784	2.08187	1.18478
N	0.780267	0.173186	-2.39786
C	1.12088	-0.636298	-3.54456
H	0.739213	1.15969	-2.51698
H	1.29749	0.00211922	-4.43812
H	0.297938	-1.34934	-3.78039
H	2.0443	-1.22769	-3.34787
C	7.98399	0.980107	0.191396
C	6.93427	-0.0600457	0.105867
O	7.21757	-1.22803	-0.122106
H	8.97669	0.516426	0.00321899
H	7.98725	1.43828	1.20274
H	7.8051	1.76788	-0.570502
N	5.67671	0.349566	0.287937
C	4.54469	-0.538067	0.192011
C	3.34336	0.273991	-0.254003
O	3.39808	1.50103	-0.309494
H	5.45834	1.31051	0.432032
H	4.73567	-1.27902	-0.574241
C	4.26306	-1.22151	1.54805
H	4.05669	-0.462153	2.33216
H	3.40214	-1.91808	1.48369
H	5.15817	-1.80345	1.85863
N	2.22529	-0.397834	-0.592521
C	1.03452	0.290133	-1.03404
H	2.20159	-1.39094	-0.545058
H	0.224176	-0.435663	-1.26597
H	1.24318	0.887328	-1.95116
H	0.667208	0.985821	-0.245222
