44
  This energy is -7.5594 and Call times are: 196338
C	-0.465467	-3.31456	0.9538
C	-0.906943	-1.90322	0.887618
O	-2.04682	-1.58154	1.19359
H	-1.31438	-3.94964	1.28829
H	0.369769	-3.42074	1.67757
H	-0.132193	-3.65865	-0.048008
N	0.00197015	-1.01574	0.476971
C	-0.291517	0.38708	0.320408
C	0.616526	0.942501	-0.760574
O	1.535	0.266585	-1.22019
H	0.913487	-1.2985	0.192269
H	-1.31151	0.502323	-0.0244928
C	-0.0798032	1.14657	1.64841
H	0.969212	1.0374	1.99724
H	-0.315896	2.22544	1.54439
H	-0.748398	0.718229	2.42678
N	0.373345	2.19308	-1.19982
C	1.18157	2.80299	-2.22985
H	-0.377023	2.72291	-0.818628
H	0.823501	3.83221	-2.45283
H	1.13744	2.2054	-3.16911
H	2.24674	2.8639	-1.90915
C	6.53621	-1.69836	-3.03714
C	7.20503	-0.826419	-2.0454
O	8.39222	-0.548892	-2.14523
H	7.27766	-2.02464	-3.79849
H	5.71963	-1.14368	-3.54533
H	6.11683	-2.59621	-2.53608
N	6.44413	-0.369811	-1.04794
C	6.96268	0.453525	0.0159098
C	6.12471	0.206804	1.25628
O	5.09131	-0.45667	1.19644
H	5.48917	-0.637676	-0.957566
H	7.97548	0.145899	0.24442
C	6.92543	1.94735	-0.374394
H	5.88518	2.26609	-0.598706
H	7.33501	2.59063	0.431188
H	7.5386	2.10316	-1.28877
N	6.5588	0.73224	2.41882
C	5.83001	0.545148	3.65171
H	7.39951	1.26274	2.44802
H	6.3475	1.05278	4.49537
H	5.74218	-0.538424	3.89552
H	4.80134	0.964592	3.56777
