44
  This energy is -4.6663 and Call times are: 195353
C	1.55529	-2.64303	-1.64563
C	0.99773	-2.01359	-0.427415
O	0.829626	-2.65881	0.598173
H	1.74757	-3.71991	-1.4475
H	2.51123	-2.153	-1.92633
H	0.834538	-2.55534	-2.48582
N	0.691694	-0.71712	-0.516273
C	0.101342	0.0222092	0.571586
C	-0.733313	1.14405	-0.0169535
O	-0.68748	1.3993	-1.21881
H	0.796005	-0.215367	-1.37022
H	-0.570416	-0.625677	1.12078
C	1.19052	0.591125	1.50715
H	1.87367	1.26417	0.946472
H	0.748116	1.15087	2.35655
H	1.79392	-0.246636	1.91995
N	-1.52722	1.83883	0.821512
C	-2.36117	2.92009	0.350796
H	-1.55383	1.61481	1.79011
H	-2.93888	3.36541	1.19054
H	-3.08235	2.5548	-0.415841
H	-1.74132	3.72153	-0.112478
C	3.87477	2.22444	-1.91001
C	4.28438	0.852098	-1.53576
O	3.67314	-0.124949	-1.94587
H	2.97426	2.17457	-2.55997
H	4.69213	2.72942	-2.4665
H	3.62926	2.812	-1.00031
N	5.34561	0.747794	-0.732471
C	5.83683	-0.518116	-0.247973
C	6.50448	-0.284084	1.09405
O	6.70174	0.856372	1.50897
H	5.80783	1.55381	-0.373928
H	5.00052	-1.18525	-0.0802168
C	6.83501	-1.1418	-1.24791
H	7.69838	-0.462378	-1.4123
H	7.2099	-2.12352	-0.892664
H	6.32727	-1.29682	-2.2249
N	6.86231	-1.36709	1.81173
C	7.49845	-1.24216	3.10243
H	6.6907	-2.28181	1.46114
H	7.71413	-2.2447	3.53326
H	6.84126	-0.689611	3.8124
H	8.4586	-0.68393	3.01502
