44
  This energy is -5.8308 and Call times are: 196081
C	-2.05418	-0.611721	2.74205
C	-1.4415	0.300761	1.75051
O	-1.82441	1.45657	1.63259
H	-2.86455	-0.0760266	3.28262
H	-1.29189	-0.945877	3.47689
H	-2.48753	-1.4971	2.23078
N	-0.460658	-0.208784	1.00172
C	0.202169	0.543533	-0.0342523
C	0.685148	-0.431435	-1.09148
O	0.632868	-1.64484	-0.900087
H	-0.187859	-1.16332	1.08116
H	-0.512247	1.20523	-0.507961
C	1.38749	1.34909	0.541362
H	2.12586	0.669766	1.01818
H	1.89755	1.9435	-0.244155
H	1.01188	2.05016	1.31839
N	1.16211	0.0806874	-2.24311
C	1.63883	-0.770091	-3.30852
H	1.19263	1.06511	-2.38111
H	1.98956	-0.161323	-4.17085
H	0.82789	-1.44644	-3.66377
H	2.48644	-1.4021	-2.95742
C	6.13415	2.90456	1.50802
C	5.52219	2.18382	0.369066
O	5.02664	2.7899	-0.570889
H	6.0358	3.99984	1.3451
H	7.2115	2.6485	1.58855
H	5.61846	2.63416	2.45354
N	5.54194	0.850347	0.43099
C	4.94755	0.0127464	-0.58078
C	4.51322	-1.28474	0.0745435
O	4.83495	-1.54393	1.23257
H	5.91234	0.371777	1.22196
H	4.05683	0.494037	-0.96496
C	5.94811	-0.266319	-1.72369
H	6.85758	-0.76958	-1.33172
H	5.49774	-0.898924	-2.51584
H	6.25831	0.697428	-2.18337
N	3.75956	-2.13157	-0.654087
C	3.29511	-3.3873	-0.112254
H	3.50597	-1.90247	-1.58805
H	2.69097	-3.94079	-0.864523
H	2.66209	-3.2163	0.788484
H	4.15558	-4.02846	0.187175
