44
  This energy is 0.1093 and Call times are: 197629
C	-2.92807	1.81312	0.501665
C	-1.98502	1.07537	-0.368694
O	-2.28847	0.767462	-1.51304
H	-3.87703	1.98823	-0.0503244
H	-2.49462	2.79343	0.791253
H	-3.1478	1.22188	1.41558
N	-0.800412	0.768929	0.165316
C	0.204493	0.0163912	-0.543496
C	1.03744	-0.737641	0.475911
O	0.909026	-0.51988	1.67916
H	-0.583498	0.990492	1.11174
H	-0.278778	-0.720034	-1.17338
C	1.09828	0.949655	-1.38931
H	1.60252	1.6987	-0.742235
H	1.86737	0.380644	-1.95079
H	0.466805	1.49697	-2.12282
N	1.91076	-1.65449	0.0146936
C	2.74184	-2.42453	0.91053
H	1.99749	-1.81954	-0.962194
H	3.39148	-3.12449	0.34023
H	2.11515	-3.02111	1.6124
H	3.39446	-1.75399	1.51519
C	1.61255	0.810187	-1.99066
C	2.9677	1.08676	-1.46319
O	3.66964	1.96269	-1.94944
H	1.40592	1.48903	-2.84643
H	0.851588	0.985096	-1.20131
H	1.54578	-0.241178	-2.34173
N	3.37202	0.330468	-0.439985
C	4.68092	0.452624	0.151984
C	5.07032	-0.898432	0.721705
O	4.25433	-1.8163	0.779789
H	2.80532	-0.405942	-0.08165
H	5.40049	0.696914	-0.619477
C	4.68737	1.52938	1.25915
H	3.95685	1.27381	2.05606
H	5.69308	1.64266	1.71328
H	4.39182	2.50777	0.821278
N	6.33837	-1.05429	1.1504
C	6.80111	-2.30613	1.70262
H	6.98525	-0.301208	1.09144
H	7.87143	-2.23447	1.99678
H	6.69692	-3.12695	0.956514
H	6.20721	-2.58153	2.60405
