44
  This energy is -5.797 and Call times are: 197385
C	1.55381	-3.09522	0.343452
C	0.899621	-1.8952	0.911901
O	0.565796	-1.8535	2.08801
H	1.64588	-3.87219	1.13321
H	2.5681	-2.8384	-0.0280064
H	0.946475	-3.50248	-0.49224
N	0.697043	-0.876357	0.0732753
C	0.0335867	0.340861	0.469212
C	-0.644919	0.929004	-0.753602
O	-0.438164	0.464519	-1.87308
H	0.937221	-0.940779	-0.891106
H	-0.7423	0.107384	1.18763
C	1.03993	1.34832	1.06716
H	1.83022	1.59625	0.326882
H	0.539057	2.28442	1.38865
H	1.53011	0.89389	1.95574
N	-1.48326	1.96708	-0.564891
C	-2.17796	2.58795	-1.66856
H	-1.64092	2.32639	0.348951
H	-2.81962	3.42267	-1.30975
H	-2.82592	1.84754	-2.19126
H	-1.45311	2.99619	-2.40955
C	4.27634	0.12583	3.4122
C	5.18049	0.309759	2.25469
O	6.24924	0.893071	2.37271
H	4.72759	0.60151	4.30995
H	4.1288	-0.955866	3.61447
H	3.29349	0.601167	3.20937
N	4.76262	-0.191021	1.08979
C	5.51286	-0.0530502	-0.133594
C	4.53357	-0.0594888	-1.29226
O	3.34813	-0.33238	-1.11343
H	3.87177	-0.627258	1.00073
H	6.01318	0.9073	-0.139443
C	6.53771	-1.19855	-0.284445
H	6.02397	-2.18348	-0.289093
H	7.13131	-1.09589	-1.21591
H	7.23904	-1.17949	0.578175
N	5.00877	0.251606	-2.51432
C	4.15004	0.276599	-3.67541
H	5.97022	0.473602	-2.63844
H	4.72664	0.554557	-4.58508
H	3.32903	1.01763	-3.54086
H	3.68845	-0.723145	-3.8445
