44
  This energy is 0.1553 and Call times are: 196898
C	2.61488	-2.2784	-0.289794
C	1.81958	-1.13633	-0.79408
O	2.20398	-0.467399	-1.74339
H	3.54695	-2.36986	-0.888757
H	2.03401	-3.22003	-0.382916
H	2.88624	-2.11545	0.774583
N	0.67417	-0.883296	-0.156596
C	-0.185742	0.220407	-0.504375
C	-0.935314	0.647459	0.743552
O	-0.881643	-0.0249462	1.77151
H	0.394729	-1.4113	0.640269
H	0.420799	1.06027	-0.819603
C	-1.1756	-0.181586	-1.61964
H	-1.80531	-1.03639	-1.2928
H	-1.83407	0.663954	-1.90601
H	-0.605172	-0.497952	-2.52012
N	-1.64986	1.78847	0.684032
C	-2.39098	2.27655	1.82364
H	-1.67781	2.32106	-0.155397
H	-2.91203	3.22753	1.57591
H	-1.70908	2.46449	2.68443
H	-3.15454	1.5314	2.14437
C	6.39627	2.835	0.692594
C	5.56524	1.68676	1.1193
O	5.48414	1.36719	2.29731
H	6.8914	3.28083	1.5825
H	5.76213	3.60772	0.209354
H	7.17678	2.49797	-0.0217409
N	4.92056	1.0291	0.15272
C	4.1085	-0.134596	0.407538
C	4.12584	-1.00478	-0.835063
O	4.62322	-0.596676	-1.88281
H	5.02897	1.27594	-0.806014
H	4.55133	-0.710311	1.2107
C	2.66154	0.269947	0.765139
H	2.20318	0.851591	-0.0628946
H	2.02973	-0.616845	0.977128
H	2.67372	0.912579	1.67245
N	3.58645	-2.23632	-0.743549
C	3.56261	-3.13688	-1.87252
H	3.19242	-2.55025	0.113927
H	3.07824	-4.09966	-1.59742
H	4.59736	-3.35312	-2.22439
H	2.99607	-2.68892	-2.72076
