44
  This energy is 0.1053 and Call times are: 199947
C	0.790722	-1.32511	-3.11954
C	-0.0766313	-1.23594	-1.92334
O	-1.18022	-1.76319	-1.90095
H	0.264284	-1.89884	-3.91299
H	1.73795	-1.84658	-2.86742
H	1.01948	-0.308388	-3.50301
N	0.411764	-0.552303	-0.885805
C	-0.33236	-0.342609	0.331104
C	0.132917	0.961413	0.951264
O	1.11301	1.55588	0.506579
H	1.29473	-0.0941297	-0.933993
H	-1.38262	-0.229748	0.0926573
C	-0.123234	-1.5149	1.31459
H	0.952845	-1.62444	1.56775
H	-0.702074	-1.37188	2.25001
H	-0.463042	-2.45974	0.836941
N	-0.56998	1.44316	1.99524
C	-0.20506	2.67992	2.64596
H	-1.36256	0.949981	2.33826
H	-0.904229	2.90616	3.48094
H	-0.23572	3.52768	1.92372
H	0.827192	2.61644	3.06017
C	1.7383	-1.88869	-2.61248
C	1.64712	-0.789555	-1.62519
O	0.756895	0.046957	-1.68962
H	0.918141	-1.78387	-3.35558
H	1.63833	-2.87007	-2.10293
H	2.71237	-1.84587	-3.14392
N	2.58445	-0.766266	-0.674786
C	2.65233	0.265488	0.329919
C	4.10148	0.421004	0.751023
O	4.95627	-0.378009	0.373373
H	3.32646	-1.43037	-0.659616
H	2.33951	1.20726	-0.103477
C	1.77011	-0.090349	1.5466
H	2.09732	-1.0512	1.99799
H	1.80302	0.70291	2.32131
H	0.715648	-0.207129	1.2137
N	4.414	1.46617	1.54221
C	5.7679	1.69789	1.98879
H	3.70925	2.10431	1.83406
H	5.82077	2.60567	2.6294
H	6.44904	1.84255	1.11908
H	6.14113	0.829814	2.57894
