44
  This energy is -4.287 and Call times are: 195660
C	-0.197159	-3.37374	-0.831666
C	-0.561954	-2.21734	0.0173282
O	-1.46695	-2.29418	0.836774
H	-0.869031	-4.22788	-0.597319
H	0.852392	-3.67744	-0.634294
H	-0.310288	-3.11146	-1.90475
N	0.145976	-1.10027	-0.165348
C	-0.120105	0.119528	0.555663
C	0.302602	1.28646	-0.316777
O	0.926946	1.09958	-1.35936
H	0.85242	-1.04067	-0.864814
H	-1.18622	0.210801	0.722115
C	0.641772	0.143822	1.89887
H	1.73629	0.0608237	1.72805
H	0.434217	1.07199	2.46978
H	0.322583	-0.723168	2.51757
N	-0.0379721	2.52573	0.0884984
C	0.3164	3.69633	-0.679797
H	-0.546795	2.65653	0.932927
H	-0.0527764	4.62001	-0.18204
H	-0.128656	3.64616	-1.69994
H	1.42231	3.77478	-0.789099
C	3.895	-1.25478	3.08679
C	4.40244	-0.161995	2.22686
O	4.45926	0.989928	2.6346
H	3.59196	-0.836806	4.07133
H	4.68821	-2.0148	3.2478
H	3.01299	-1.7358	2.61375
N	4.78671	-0.505658	0.995345
C	5.26201	0.453379	0.0294827
C	4.93689	-0.0704832	-1.35668
O	4.51201	-1.21343	-1.51434
H	4.69613	-1.44048	0.664042
H	4.72449	1.38479	0.156587
C	6.78223	0.680574	0.17968
H	7.33488	-0.272739	0.0389265
H	7.1579	1.42742	-0.549441
H	6.99775	1.05616	1.2038
N	5.12261	0.762683	-2.39944
C	4.83511	0.353471	-3.75446
H	5.46331	1.68524	-2.25148
H	5.05198	1.17812	-4.46871
H	3.76256	0.0711379	-3.86031
H	5.45388	-0.528376	-4.0384
