44
  This energy is 0.1042 and Call times are: 197863
C	-0.0970751	2.5154	-2.40333
C	-0.632715	1.28104	-1.78641
O	-1.72853	0.839165	-2.10318
H	-0.840548	2.91761	-3.12539
H	0.846585	2.29418	-2.94491
H	0.0959066	3.28089	-1.62238
N	0.141791	0.689253	-0.874108
C	-0.261664	-0.494424	-0.156687
C	0.427848	-0.486503	1.19463
O	1.30396	0.337529	1.44981
H	1.01342	1.08349	-0.597128
H	-1.32844	-0.455629	0.0252739
C	0.107169	-1.77007	-0.945306
H	1.20278	-1.81564	-1.12309
H	-0.210772	-2.68798	-0.409692
H	-0.402044	-1.75067	-1.93358
N	0.0392691	-1.40566	2.10027
C	0.634935	-1.47084	3.41447
H	-0.674162	-2.0615	1.87676
H	0.181265	-2.29236	4.01156
H	0.482007	-0.513219	3.96296
H	1.73117	-1.65502	3.34044
C	7.27655	0.448726	1.82941
C	6.05288	0.970055	1.17979
O	5.67232	2.11628	1.37412
H	7.71342	1.23912	2.47769
H	8.02434	0.160045	1.06116
H	7.03059	-0.434547	2.45583
N	5.39796	0.123496	0.381783
C	4.16849	0.472215	-0.285552
C	3.36224	-0.797279	-0.485362
O	3.85444	-1.89935	-0.25111
H	5.69752	-0.81919	0.26574
H	3.58801	1.12574	0.353652
C	4.45128	1.15328	-1.64254
H	5.03774	0.479171	-2.3026
H	3.51257	1.43914	-2.15989
H	5.04897	2.0754	-1.47286
N	2.09242	-0.669922	-0.918197
C	1.24752	-1.82175	-1.1318
H	1.71051	0.230493	-1.0984
H	0.240605	-1.51036	-1.48731
H	1.12269	-2.39802	-0.18649
H	1.69406	-2.50088	-1.89372
