44
  This energy is 0.1484 and Call times are: 199751
C	-2.73626	-1.28793	-1.72244
C	-1.8347	-1.25106	-0.549
O	-2.10965	-1.85329	0.479656
H	-3.63053	-1.90201	-1.4794
H	-2.21472	-1.74088	-2.59168
H	-3.0662	-0.260389	-1.98396
N	-0.7198	-0.528358	-0.67968
C	0.233134	-0.362584	0.38943
C	0.92505	0.974621	0.203178
O	0.75843	1.63254	-0.822049
H	-0.529796	-0.0104873	-1.50888
H	-0.293656	-0.324293	1.33476
C	1.26578	-1.51101	0.39103
H	1.81386	-1.5441	-0.574658
H	1.99684	-1.40218	1.21822
H	0.736537	-2.48027	0.520566
N	1.71661	1.41349	1.2016
C	2.41139	2.67685	1.11569
H	1.83577	0.868922	2.0252
H	3.01012	2.85971	2.0351
H	1.68792	3.51563	0.996013
H	3.10046	2.68775	0.24036
C	1.35128	-1.04495	0.373153
C	2.5128	-0.224476	0.78403
O	2.39238	0.680015	1.59877
H	0.441141	-0.682151	0.898398
H	1.52056	-2.1091	0.640879
H	1.19155	-0.960547	-0.722492
N	3.68308	-0.526536	0.216924
C	4.89339	0.209963	0.483892
C	5.78172	0.120615	-0.742667
O	5.49896	-0.633771	-1.67146
H	3.75727	-1.23886	-0.475138
H	4.65057	1.25498	0.630881
C	5.62186	-0.356173	1.72246
H	5.88055	-1.4254	1.56797
H	6.54828	0.211296	1.94664
H	4.95044	-0.28802	2.60614
N	6.87987	0.900922	-0.777556
C	7.78119	0.887428	-1.9061
H	7.08976	1.5079	-0.0182147
H	8.62266	1.59699	-1.74585
H	7.24736	1.18173	-2.83867
H	8.20551	-0.131393	-2.05808
