44
  This energy is -2.9143 and Call times are: 195570
C	-0.419995	-1.36635	3.17323
C	-0.0271236	-0.259251	2.2726
O	0.19817	0.861446	2.70814
H	-0.477292	-0.987998	4.21699
H	0.331813	-2.18209	3.12743
H	-1.41458	-1.76368	2.87992
N	0.0626713	-0.554334	0.973666
C	0.392126	0.427618	-0.0292245
C	-0.255322	0.00587413	-1.33479
O	-0.786005	-1.09753	-1.447
H	-0.1636	-1.46105	0.629365
H	-0.0371896	1.38165	0.250321
C	1.92224	0.551131	-0.198725
H	2.36183	-0.424857	-0.495784
H	2.18905	1.31415	-0.958424
H	2.3757	0.852836	0.770654
N	-0.233539	0.884789	-2.35609
C	-0.829396	0.573153	-3.63438
H	0.196976	1.77437	-2.24484
H	-0.708578	1.42267	-4.34215
H	-1.91779	0.364401	-3.51996
H	-0.350358	-0.327453	-4.08223
C	5.29622	2.46884	-2.44825
C	5.11523	1.07207	-1.99281
O	4.52041	0.253983	-2.6808
H	4.80712	2.59869	-3.43809
H	6.37719	2.70176	-2.54819
H	4.83252	3.17079	-1.72345
N	5.6318	0.764931	-0.800665
C	5.49893	-0.541297	-0.205126
C	5.52659	-0.37858	1.30296
O	5.80915	0.703123	1.81461
H	6.07754	1.45218	-0.23422
H	4.53388	-0.956838	-0.467081
C	6.6359	-1.47765	-0.669658
H	7.62577	-1.05692	-0.391827
H	6.53691	-2.49074	-0.22878
H	6.60131	-1.57577	-1.77669
N	5.22327	-1.45576	2.05375
C	5.21836	-1.39423	3.49679
H	4.99322	-2.32137	1.62146
H	4.94403	-2.38062	3.93155
H	4.48401	-0.636862	3.85514
H	6.2242	-1.10881	3.88147
