44
  This energy is -4.608 and Call times are: 195111
C	-1.88327	-1.60751	-2.44579
C	-1.67941	-0.518633	-1.46399
O	-2.41271	0.460271	-1.44305
H	-2.74532	-1.35489	-3.10072
H	-2.09876	-2.56142	-1.92009
H	-0.976966	-1.72941	-3.07574
N	-0.658909	-0.667402	-0.61616
C	-0.309171	0.327352	0.367053
C	1.18069	0.224968	0.634225
O	1.83996	-0.706682	0.176946
H	-0.0459479	-1.45035	-0.672237
H	-0.496933	1.31319	-0.0397578
C	-1.10885	0.118548	1.67172
H	-0.908438	-0.888735	2.0951
H	-0.858601	0.886683	2.4319
H	-2.19631	0.189728	1.45101
N	1.75022	1.19249	1.37959
C	3.16267	1.18144	1.68132
H	1.20106	1.94048	1.73738
H	3.43844	2.06015	2.30506
H	3.76471	1.2139	0.744431
H	3.43863	0.256208	2.23713
C	8.85768	2.79964	-0.201764
C	7.53683	2.16557	0.00911937
O	6.58896	2.80633	0.441989
H	8.80623	3.86662	0.106094
H	9.13997	2.74828	-1.27434
H	9.63038	2.28637	0.408616
N	7.44553	0.868972	-0.295653
C	6.23812	0.104844	-0.103786
C	6.62741	-1.34016	0.145178
O	7.78932	-1.71389	-0.00311873
H	8.23671	0.351153	-0.608316
H	5.72841	0.459063	0.783539
C	5.31539	0.212168	-1.3376
H	5.83416	-0.160919	-2.24629
H	4.37603	-0.360745	-1.19655
H	5.04978	1.27874	-1.50556
N	5.6587	-2.18949	0.540463
C	5.93633	-3.58177	0.806256
H	4.72522	-1.86753	0.658905
H	5.01143	-4.11438	1.11952
H	6.69163	-3.68349	1.61894
H	6.33868	-4.08302	-0.103696
