44
  This energy is -4.2766 and Call times are: 196927
C	1.60371	3.01106	0.688708
C	0.9243	1.76825	1.11877
O	0.933281	1.41464	2.2898
H	2.08753	3.48845	1.56843
H	0.866968	3.71963	0.255246
H	2.38265	2.77919	-0.067976
N	0.31171	1.06559	0.163059
C	-0.355112	-0.186517	0.420215
C	-0.299835	-1.02057	-0.845821
O	0.100812	-0.535838	-1.90234
H	0.347964	1.34494	-0.7922
H	0.184853	-0.727921	1.18699
C	-1.81965	0.046768	0.851434
H	-2.37683	0.592905	0.0606649
H	-2.33987	-0.909249	1.06574
H	-1.83614	0.66574	1.77499
N	-0.696037	-2.30611	-0.765484
C	-0.673058	-3.17754	-1.91711
H	-1.01318	-2.68145	0.0991634
H	-1.03563	-4.19416	-1.6483
H	0.361799	-3.26956	-2.31946
H	-1.32392	-2.77575	-2.7271
C	5.9396	0.198133	3.22652
C	5.23538	0.788429	2.06601
O	4.65427	1.86103	2.15682
H	5.81874	0.865154	4.10762
H	7.02183	0.0903652	3.00312
H	5.5113	-0.797495	3.46809
N	5.27093	0.0869336	0.930659
C	4.59632	0.511134	-0.270803
C	4.23153	-0.725588	-1.07019
O	4.65599	-1.83299	-0.745849
H	5.71326	-0.804113	0.883388
H	3.6715	1.00771	-0.00484994
C	5.49451	1.45004	-1.10564
H	6.43886	0.937504	-1.38767
H	4.98109	1.79466	-2.0266
H	5.75548	2.3441	-0.498272
N	3.42328	-0.564988	-2.13647
C	3.01817	-1.68511	-2.95341
H	3.08666	0.338387	-2.38075
H	2.35448	-1.34906	-3.78035
H	2.46561	-2.43634	-2.34382
H	3.90665	-2.18825	-3.39906
