44
  This energy is -3.2498 and Call times are: 200730
C	-0.0376108	0.0832157	-3.47913
C	-0.023302	-0.649743	-2.19316
O	-0.222815	-1.85586	-2.14977
H	-0.264813	-0.62664	-4.30397
H	0.953815	0.546543	-3.6666
H	-0.817235	0.873739	-3.46038
N	0.215067	0.0766683	-1.09868
C	0.217959	-0.487881	0.227904
C	-0.188725	0.598814	1.20528
O	-0.293648	1.76791	0.839315
H	0.335008	1.06422	-1.14574
H	-0.529416	-1.26941	0.285172
C	1.61281	-1.04506	0.587315
H	2.37819	-0.24138	0.538973
H	1.62441	-1.49498	1.6012
H	1.89328	-1.8329	-0.145479
N	-0.436812	0.233723	2.47853
C	-0.834934	1.19798	3.47748
H	-0.350536	-0.717779	2.75471
H	-0.992312	0.703064	4.4611
H	-1.78445	1.70037	3.18202
H	-0.0532018	1.98216	3.60039
C	6.56415	-3.25288	0.419838
C	6.46393	-1.99411	-0.352555
O	7.17952	-1.7883	-1.32311
H	7.36144	-3.89092	-0.0195699
H	5.60084	-3.80357	0.380789
H	6.82162	-3.0334	1.47748
N	5.55885	-1.10861	0.0706666
C	5.37501	0.178537	-0.552244
C	4.8659	1.14506	0.50047
O	4.52471	0.743809	1.61146
H	5.01223	-1.27311	0.886752
H	6.3329	0.549756	-0.894672
C	4.37858	0.0849091	-1.72851
H	3.39257	-0.285875	-1.37588
H	4.2391	1.06693	-2.22519
H	4.76756	-0.633583	-2.48269
N	4.81085	2.45168	0.175302
C	4.3451	3.44535	1.11438
H	5.09512	2.75765	-0.727277
H	4.37479	4.46023	0.660091
H	4.98259	3.45159	2.02807
H	3.29721	3.231	1.42602
