44
  This energy is -2.4801 and Call times are: 198704
C	0.356028	1.82856	2.93978
C	-0.329491	1.53873	1.66024
O	-1.40646	2.05144	1.38882
H	-0.267957	2.52477	3.54128
H	1.34086	2.30372	2.74725
H	0.504582	0.890618	3.51535
N	0.29007	0.693387	0.833255
C	-0.273135	0.281647	-0.428423
C	0.249423	-1.10598	-0.749318
O	1.14126	-1.61504	-0.0731536
H	1.14654	0.252394	1.08594
H	-1.3491	0.206793	-0.331891
C	0.102185	1.27443	-1.55036
H	1.20577	1.34364	-1.6569
H	-0.337119	0.975828	-2.52421
H	-0.283221	2.28456	-1.29065
N	-0.304044	-1.75705	-1.79134
C	0.125148	-3.08376	-2.16793
H	-1.02741	-1.33036	-2.32403
H	-0.449596	-3.44807	-3.04779
H	-0.0286182	-3.7995	-1.32808
H	1.20786	-3.08692	-2.43036
C	4.52964	-2.41994	-2.49552
C	4.77206	-2.00722	-1.09479
O	4.8882	-2.83534	-0.201961
H	4.46433	-3.52857	-2.5457
H	5.36353	-2.0793	-3.14463
H	3.57524	-1.98677	-2.86237
N	4.85267	-0.693942	-0.868546
C	5.04243	-0.138619	0.44833
C	4.404	1.23728	0.477935
O	3.99263	1.76302	-0.554573
H	4.71524	-0.0308961	-1.59885
H	4.52131	-0.751686	1.17304
C	6.54415	-0.0463505	0.797016
H	7.07731	0.591086	0.0598217
H	6.70295	0.366886	1.81414
H	6.99232	-1.06331	0.761458
N	4.29862	1.85212	1.67246
C	3.70039	3.16067	1.7989
H	4.63359	1.40897	2.49738
H	3.70639	3.49498	2.85977
H	2.64509	3.14625	1.44196
H	4.25988	3.90894	1.19211
