44
  This energy is -2.5476 and Call times are: 195513
C	0.0268838	-2.04542	2.81571
C	-0.400949	-1.73784	1.43242
O	-0.957141	-2.57907	0.740038
H	-0.22513	-3.10214	3.05172
H	-0.497386	-1.38168	3.53497
H	1.12395	-1.90642	2.91681
N	-0.143972	-0.503901	0.992268
C	-0.461864	-0.0699592	-0.345342
C	0.526097	1.01197	-0.738933
O	1.30009	1.48933	0.0885815
H	0.346158	0.156985	1.5534
H	-0.324968	-0.896751	-1.03113
C	-1.90897	0.464013	-0.422824
H	-2.04703	1.31901	0.272848
H	-2.17045	0.788418	-1.45089
H	-2.61404	-0.341812	-0.123048
N	0.527749	1.42	-2.02328
C	1.43635	2.44074	-2.49094
H	-0.103226	1.01896	-2.6791
H	1.28348	2.63653	-3.57516
H	2.49387	2.12554	-2.33742
H	1.27614	3.3936	-1.93638
C	4.41142	1.92033	1.64917
C	5.33172	0.763034	1.57944
O	5.57003	0.0833253	2.56819
H	4.04126	2.03295	2.69136
H	3.54387	1.76055	0.974954
H	4.94243	2.84984	1.35401
N	5.87985	0.511618	0.388336
C	6.82746	-0.553577	0.17399
C	7.7388	-0.152664	-0.970694
O	7.4978	0.844867	-1.64786
H	5.70796	1.09854	-0.397686
H	7.44642	-0.663846	1.05566
C	6.10371	-1.87917	-0.14886
H	5.47679	-1.76959	-1.05936
H	6.8222	-2.71028	-0.302366
H	5.43657	-2.14894	0.698771
N	8.81917	-0.92217	-1.20877
C	9.74587	-0.615481	-2.27335
H	8.99966	-1.72304	-0.647425
H	10.5673	-1.3647	-2.30772
H	10.1967	0.392255	-2.12347
H	9.22694	-0.618353	-3.25917
