44
  This energy is 0.1473 and Call times are: 194812
C	-2.91	0.74096	-1.75942
C	-1.51202	0.258383	-1.69697
O	-0.990245	-0.295636	-2.65469
H	-3.33882	0.49641	-2.7555
H	-2.94184	1.84133	-1.61478
H	-3.52068	0.24731	-0.974259
N	-0.865434	0.460031	-0.546475
C	0.484794	0.00821098	-0.319971
C	0.651942	-0.257424	1.1643
O	-0.220741	0.0721165	1.96526
H	-1.31679	0.875768	0.23794
H	0.638086	-0.931843	-0.835171
C	1.50694	1.0618	-0.799969
H	1.3569	2.02327	-0.264142
H	2.55053	0.719722	-0.643671
H	1.36101	1.24624	-1.88672
N	1.78205	-0.871729	1.56619
C	2.026	-1.17051	2.9581
H	2.47479	-1.13444	0.90275
H	3.0083	-1.67659	3.08538
H	1.23196	-1.8401	3.36111
H	2.03117	-0.236626	3.56552
C	0.753715	-0.818356	2.10718
C	2.19534	-0.801737	1.77164
O	3.04178	-1.10602	2.60072
H	0.627515	-1.11747	3.17041
H	0.219198	-1.54762	1.46281
H	0.315751	0.191924	1.96368
N	2.51072	-0.437079	0.526674
C	3.87249	-0.331634	0.0651356
C	3.92051	0.71573	-1.03136
O	2.88525	1.19002	-1.49501
H	1.81298	-0.152769	-0.124618
H	4.49808	0.0209779	0.875644
C	4.38333	-1.69067	-0.461461
H	3.74815	-2.04781	-1.29994
H	5.43544	-1.62582	-0.806973
H	4.33175	-2.44354	0.355161
N	5.13334	1.10893	-1.46777
C	5.2775	2.10448	-2.50425
H	5.95969	0.716619	-1.07749
H	6.3519	2.29161	-2.72309
H	4.81062	3.06675	-2.19226
H	4.78146	1.76864	-3.44356
