44
  This energy is 0.1049 and Call times are: 200593
C	2.59077	0.513703	-2.26643
C	1.86414	0.846375	-1.02044
O	2.34431	1.60714	-0.191539
H	3.5715	1.03718	-2.27059
H	2.0046	0.841673	-3.1505
H	2.76748	-0.580988	-2.32573
N	0.670272	0.271305	-0.858119
C	-0.135522	0.46434	0.321709
C	-0.987474	-0.775086	0.520598
O	-1.03862	-1.6493	-0.342451
H	0.31083	-0.377653	-1.52259
H	0.511417	0.553098	1.18555
C	-1.02718	1.71758	0.181828
H	-1.69849	1.62243	-0.698132
H	-1.64239	1.8849	1.0896
H	-0.383142	2.61104	0.029236
N	-1.67396	-0.883291	1.67518
C	-2.50665	-2.02984	1.95489
H	-1.61667	-0.167482	2.36323
H	-2.9867	-1.93296	2.95358
H	-1.90229	-2.96576	1.94585
H	-3.3088	-2.12945	1.18823
C	4.92358	1.11095	-3.02104
C	3.78165	0.724159	-2.16224
O	2.62826	0.941901	-2.50677
H	4.54098	1.60691	-3.93946
H	5.50423	0.211042	-3.31388
H	5.5867	1.81862	-2.48015
N	4.08373	0.133459	-1.00371
C	3.08281	-0.26088	-0.0439137
C	3.70809	-0.214828	1.33756
O	4.91752	-0.042076	1.47599
H	5.02862	-1.04712e-06	-0.718704
H	2.27347	0.458462	-0.0558004
C	2.55207	-1.67835	-0.35107
H	3.38031	-2.41833	-0.328609
H	1.77072	-1.98802	0.372887
H	2.10624	-1.69057	-1.36961
N	2.89081	-0.361051	2.39901
C	3.39525	-0.325597	3.75195
H	1.91434	-0.49578	2.267
H	2.56885	-0.463778	4.48353
H	3.88921	0.650808	3.96152
H	4.14521	-1.13351	3.91312
