44
  This energy is -2.4025 and Call times are: 199103
C	0.278171	2.17505	-2.70267
C	0.603009	0.906982	-2.01158
O	1.17557	-0.0031499	-2.59488
H	0.616379	2.11423	-3.75993
H	0.795559	3.02386	-2.20812
H	-0.818245	2.35019	-2.68563
N	0.235736	0.818005	-0.731119
C	0.444918	-0.368577	0.0606039
C	-0.637068	-0.425468	1.1225
O	-1.39339	0.527022	1.30264
H	-0.266044	1.55157	-0.281715
H	0.326605	-1.24263	-0.567613
C	1.84442	-0.356434	0.713654
H	1.9625	0.534549	1.36653
H	2.02291	-1.27147	1.3148
H	2.62004	-0.306523	-0.0815079
N	-0.741242	-1.5556	1.84911
C	-1.7442	-1.703	2.87796
H	-0.122759	-2.31713	1.68593
H	-1.66816	-2.70204	3.36104
H	-2.76657	-1.59869	2.44767
H	-1.61903	-0.923023	3.66352
C	4.35679	-2.69509	-0.936147
C	5.63626	-2.12448	-0.458102
O	6.52929	-2.84293	-0.0306358
H	4.37922	-3.7999	-0.814706
H	4.20789	-2.4545	-2.00978
H	3.51062	-2.2857	-0.344989
N	5.75314	-0.795944	-0.5191
C	6.92125	-0.0924942	-0.0508887
C	6.49194	1.2922	0.396183
O	5.35385	1.70105	0.174113
H	5.00191	-0.221463	-0.831328
H	7.32119	-0.60207	0.816867
C	7.98937	0.00422201	-1.1622
H	7.58289	0.536208	-2.04867
H	8.89935	0.531687	-0.80973
H	8.28274	-1.0203	-1.47942
N	7.39746	2.04731	1.04877
C	7.07734	3.37572	1.51677
H	8.31207	1.69758	1.22272
H	7.95217	3.83375	2.02874
H	6.22713	3.34448	2.23611
H	6.78546	4.03261	0.665633
