44
  This energy is -2.2094 and Call times are: 198578
C	-3.36737	0.205177	-0.855235
C	-2.01088	-0.361353	-1.02882
O	-1.82179	-1.34913	-1.7252
H	-4.09837	-0.411984	-1.42147
H	-3.39992	1.24556	-1.24161
H	-3.64928	0.200971	0.218822
N	-1.02071	0.261877	-0.385748
C	0.345487	-0.197072	-0.423409
C	1.02161	0.223886	0.867793
O	0.460214	0.984777	1.65366
H	-1.19632	1.04027	0.210182
H	0.357976	-1.27939	-0.456089
C	1.09136	0.390166	-1.64163
H	1.08795	1.50036	-1.60307
H	2.14055	0.033195	-1.68951
H	0.574682	0.0759303	-2.57472
N	2.24873	-0.271929	1.12153
C	2.967	0.0684497	2.32752
H	2.685	-0.889491	0.475499
H	3.9565	-0.438978	2.3524
H	2.39082	-0.242688	3.22891
H	3.13504	1.16812	2.38781
C	6.28621	-0.45645	-3.41181
C	6.60068	-0.972908	-2.06068
O	6.62515	-2.1744	-1.83215
H	6.08053	-1.3107	-4.09285
H	7.14624	0.121796	-3.81021
H	5.38862	0.196131	-3.37269
N	6.85016	-0.0595457	-1.11945
C	7.12912	-0.407235	0.251624
C	6.67025	0.739118	1.13304
O	6.31257	1.80765	0.64109
H	6.78626	0.91568	-1.31104
H	6.54606	-1.27779	0.525113
C	8.63571	-0.678275	0.456479
H	9.2336	0.218077	0.186058
H	8.86132	-0.960548	1.50526
H	8.95114	-1.51531	-0.203983
N	6.66209	0.538732	2.46562
C	6.23609	1.57024	3.38252
H	6.95118	-0.3341	2.84465
H	6.30085	1.21305	4.43393
H	5.18199	1.86711	3.17754
H	6.87614	2.47629	3.27976
