44
  This energy is -1.7451 and Call times are: 200920
C	-0.93333	2.67468	-2.0218
C	-0.406928	2.12101	-0.753927
O	0.102047	2.8455	0.0901544
H	-0.763413	3.77315	-2.04146
H	-2.02314	2.47812	-2.10197
H	-0.410346	2.21462	-2.88662
N	-0.518114	0.800535	-0.591558
C	-0.0136802	0.111384	0.569983
C	0.347822	-1.30391	0.160349
O	0.042812	-1.7356	-0.949756
H	-0.897753	0.218824	-1.30525
H	0.896897	0.593129	0.903754
C	-1.06437	0.0958404	1.70182
H	-1.99494	-0.407637	1.36331
H	-0.682767	-0.419965	2.60672
H	-1.31972	1.14169	1.97992
N	1.01871	-2.0606	1.05106
C	1.40984	-3.41743	0.747409
H	1.26024	-1.69234	1.94275
H	1.95147	-3.87207	1.60599
H	2.07939	-3.44334	-0.142711
H	0.515768	-4.04385	0.525224
C	8.09084	1.20117	-2.05283
C	6.70361	0.733243	-1.83419
O	5.84724	0.86619	-2.69754
H	8.16696	1.66706	-3.05931
H	8.79635	0.345562	-1.99857
H	8.36553	1.95573	-1.28586
N	6.44753	0.167255	-0.652465
C	5.13546	-0.297841	-0.277342
C	5.01438	-0.205033	1.23206
O	5.99422	0.0553429	1.92764
H	7.14492	0.103145	0.0556243
H	4.38808	0.360735	-0.701994
C	4.90891	-1.75046	-0.750431
H	5.66903	-2.42824	-0.306702
H	3.89696	-2.11538	-0.479701
H	5.01008	-1.79611	-1.85679
N	3.79825	-0.409214	1.77552
C	3.58592	-0.335793	3.2023
H	3.01658	-0.614723	1.19601
H	2.52007	-0.532951	3.45194
H	3.85518	0.674158	3.58802
H	4.21515	-1.08687	3.73249
