44
  This energy is 0.1242 and Call times are: 201348
C	-2.61188	0.380034	-2.26855
C	-2.04075	0.494074	-0.90769
O	-2.62268	1.11185	-0.0267118
H	-3.57305	0.936989	-2.31134
H	-2.80267	-0.685506	-2.51547
H	-1.91237	0.812628	-3.01463
N	-0.866798	-0.108321	-0.704392
C	-0.166424	-0.0492282	0.554395
C	1.31961	-0.172749	0.275096
O	1.72745	-0.46051	-0.848548
H	-0.385719	-0.572717	-1.44247
H	-0.329744	0.919987	1.0089
C	-0.635208	-1.17674	1.50001
H	-0.458178	-2.17162	1.03859
H	-0.113192	-1.13357	2.47785
H	-1.7267	-1.07127	1.68407
N	2.16872	0.0519873	1.29712
C	3.59993	-0.0373444	1.12438
H	1.81988	0.287712	2.19813
H	4.12579	0.181818	2.07972
H	3.94916	0.690984	0.357015
H	3.89239	-1.05876	0.789251
C	2.75578	2.92044	0.735851
C	3.99088	2.10455	0.737809
O	5.07449	2.59717	1.01981
H	3.00869	3.97028	0.999914
H	2.03516	2.52566	1.48258
H	2.28906	2.90576	-0.271636
N	3.85181	0.816563	0.415105
C	4.96771	-0.0925029	0.331909
C	4.62535	-1.17033	-0.679357
O	3.4906	-1.26032	-1.14406
H	2.96952	0.439532	0.148141
H	5.83376	0.438397	-0.0432217
C	5.27208	-0.719946	1.70992
H	4.38734	-1.27358	2.09042
H	6.13817	-1.41138	1.6619
H	5.51206	0.0873952	2.43583
N	5.60855	-2.01332	-1.05177
C	5.37751	-3.06664	-2.01266
H	6.5214	-1.92212	-0.667767
H	6.30777	-3.65103	-2.18686
H	5.04223	-2.64288	-2.98697
H	4.58808	-3.7638	-1.64945
