44
  This energy is -3.7651 and Call times are: 200842
C	-0.110963	-3.47842	-0.0312292
C	0.290354	-2.182	-0.622307
O	1.08216	-2.1288	-1.55323
H	0.424635	-4.30131	-0.552639
H	-1.20453	-3.63036	-0.14855
H	0.152125	-3.50508	1.04727
N	-0.255536	-1.08952	-0.0829723
C	0.0702489	0.244427	-0.522297
C	-0.110905	1.18683	0.652695
O	-0.631946	0.798944	1.69662
H	-0.86696	-1.14645	0.701111
H	1.1142	0.281582	-0.807628
C	-0.829352	0.67162	-1.70275
H	-1.89986	0.643814	-1.40733
H	-0.578936	1.69181	-2.05916
H	-0.686387	-0.036415	-2.54809
N	0.326124	2.45373	0.511275
C	0.201134	3.41992	1.5776
H	0.748807	2.74782	-0.339563
H	0.618689	4.40334	1.26815
H	0.748825	3.0765	2.48499
H	-0.868438	3.56419	1.8539
C	8.66084	2.09975	0.285655
C	7.28353	1.70065	0.652945
O	6.71116	2.20714	1.60808
H	9.02576	2.86467	1.00508
H	8.67406	2.53265	-0.736678
H	9.33706	1.21975	0.323001
N	6.71324	0.765335	-0.110171
C	5.39414	0.244083	0.148341
C	5.33724	-1.17914	-0.373944
O	6.2545	-1.6384	-1.05174
H	7.20695	0.33306	-0.859337
H	5.22995	0.202	1.21787
C	4.31419	1.11396	-0.531554
H	4.47602	1.14886	-1.63002
H	3.29317	0.730823	-0.328428
H	4.37959	2.15265	-0.140172
N	4.25403	-1.91719	-0.0609627
C	4.11499	-3.28326	-0.508971
H	3.524	-1.52941	0.491991
H	3.15734	-3.71968	-0.148875
H	4.95216	-3.90985	-0.124514
H	4.12771	-3.3352	-1.62175
