44
  This energy is -1.5117 and Call times are: 195632
C	-0.640797	-2.56271	-2.26596
C	-0.52712	-1.12824	-1.91883
O	-0.536996	-0.264627	-2.78514
H	-0.709794	-2.66898	-3.37042
H	-1.5531	-2.99676	-1.80547
H	0.252963	-3.11532	-1.90692
N	-0.412395	-0.839129	-0.620509
C	-0.250186	0.507473	-0.131726
C	0.526294	0.447752	1.17022
O	0.759145	-0.629205	1.7158
H	-0.36473	-1.55552	0.0696963
H	0.345252	1.0741	-0.836721
C	-1.62125	1.18423	0.0860635
H	-2.2284	0.609065	0.817218
H	-1.50955	2.22643	0.449216
H	-2.17513	1.20978	-0.877733
N	0.954801	1.61191	1.69666
C	1.7059	1.65286	2.92969
H	0.760129	2.47285	1.23844
H	1.96666	2.70068	3.19671
H	2.65065	1.0702	2.83364
H	1.11362	1.21486	3.76544
C	9.18063	-2.25171	0.799056
C	8.39496	-1.02581	1.06561
O	8.49212	-0.430622	2.12991
H	9.79643	-2.49472	1.69214
H	9.85393	-2.09344	-0.0694883
H	8.50051	-3.10394	0.588802
N	7.58339	-0.616707	0.0876634
C	6.72456	0.53418	0.215792
C	5.51085	0.319446	-0.668731
O	5.46559	-0.622003	-1.45824
H	7.48462	-1.13472	-0.757181
H	6.37114	0.604251	1.23697
C	7.46841	1.82551	-0.189667
H	7.82202	1.75836	-1.24062
H	6.82194	2.72052	-0.0821122
H	8.35704	1.95822	0.46536
N	4.48868	1.18952	-0.54981
C	3.29056	1.06156	-1.34625
H	4.54211	1.94262	0.0975372
H	2.5681	1.87149	-1.10275
H	2.79555	0.0816464	-1.15645
H	3.53214	1.12171	-2.43214
