44
  This energy is -4.2783 and Call times are: 195541
C	0.433317	3.44603	-0.223126
C	0.506637	2.16886	0.521584
O	1.08955	2.09427	1.59446
H	0.983116	4.23144	0.339666
H	-0.62496	3.76124	-0.339049
H	0.896636	3.33152	-1.22578
N	-0.0921211	1.11755	-0.0428757
C	-0.0691873	-0.200537	0.540807
C	-0.170521	-1.21653	-0.581268
O	-0.416992	-0.861205	-1.73223
H	-0.527399	1.18449	-0.936139
H	0.882831	-0.35694	1.03257
C	-1.23171	-0.381113	1.54139
H	-2.20903	-0.231145	1.03504
H	-1.21681	-1.38739	2.00799
H	-1.14184	0.377638	2.34921
N	0.0271603	-2.51287	-0.270731
C	-0.044043	-3.54977	-1.27371
H	0.229586	-2.78046	0.665483
H	0.147524	-4.54789	-0.821748
H	0.712539	-3.37586	-2.07284
H	-1.05112	-3.56765	-1.74975
C	5.31241	3.08152	1.5168
C	5.7095	1.6895	1.20733
O	6.83608	1.28256	1.45556
H	6.17826	3.62081	1.95876
H	4.47508	3.08752	2.24591
H	4.99838	3.60508	0.589254
N	4.77631	0.916958	0.646322
C	5.02649	-0.446149	0.248952
C	4.11015	-0.775443	-0.914429
O	3.21732	-0.000382747	-1.25182
H	3.87656	1.27443	0.412831
H	6.0451	-0.532913	-0.108164
C	4.78002	-1.41748	1.42412
H	3.73218	-1.33642	1.78398
H	4.98267	-2.46899	1.13467
H	5.45548	-1.15289	2.26679
N	4.31718	-1.93795	-1.56383
C	3.49847	-2.33299	-2.68625
H	5.04726	-2.55012	-1.27868
H	3.82557	-3.31894	-3.0839
H	3.56915	-1.58308	-3.50718
H	2.42933	-2.41392	-2.38371
