%nprocshared=8
%mem=8GB
%chk=C:\Users\Tao\Desktop\SSH\Result\0501-chooh-2\opt-chooh-final.chk
# opt b3lyp/6-31g geom=connectivity

Title Card Required

0 1
 C                 -1.76581600   -0.26601100    0.00004000
 O                 -2.97560600   -0.45570400   -0.00024000
 O                 -1.21713500    0.98692600    0.00026400
 H                 -1.02389600   -1.07726100    0.00012900
 H                 -0.23027300    0.97551900    0.00085000
 C                  2.27789000   -0.24852600    0.00000600
 O                  1.66274600   -1.29813600    0.00010900
 O                  1.60844700    0.96572900   -0.00025300
 H                  3.37020900   -0.15838400   -0.00001600
 H                  2.18389900    1.75682600   -0.00027800

 1 2 2.0 3 1.0 4 1.0
 2
 3 5 1.0
 4
 5
 6 7 2.0 8 1.0 9 1.0
 7
 8 10 1.0
 9
 10

