10
  This energy is -0.0072909 and Call times are: 762
C	-0.243298	-0.0498661	0.37955
O	0.773733	-0.724717	0.383413
O	-0.541561	0.725863	-0.661986
H	-0.913626	-0.0830329	1.23761
H	0.125814	0.658593	-1.33568
C	6.54667	0.227076	-0.305496
O	7.22275	-0.204822	0.614382
O	5.23162	0.0153288	-0.341634
H	7.02486	0.79167	-1.10505
H	4.94938	-0.488041	0.41384
