10
  This energy is -0.0036071 and Call times are: 10091
C	0.215178	-0.0843569	0.390283
O	0.157053	-1.06529	-0.333717
O	-0.318157	1.07568	0.00899236
H	0.708755	-0.159423	1.35851
H	-0.714024	0.998999	-0.851929
C	4.31076	-0.00245736	0.330399
O	3.18709	-0.241283	0.742859
O	4.52559	0.230532	-0.96385
H	5.14625	0.0201652	1.02907
H	3.71368	0.179722	-1.45579
