10
  This energy is 0.000137538 and Call times are: 8897
C	0.420901	0.11983	-0.119258
O	-0.421158	0.907815	-0.519018
O	0.0677379	-0.954402	0.585594
H	1.47231	0.297901	-0.341842
H	-0.874872	-0.98534	0.705207
C	4.61124	-0.418965	-0.173439
O	4.47868	-0.418028	1.03991
O	4.7061	0.725804	-0.84873
H	4.65229	-1.36675	-0.708912
H	4.6555	1.47066	-0.260168
