10
  This energy is 9.3209e-05 and Call times are: 12328
C	0.208263	-0.0315832	0.401706
O	-0.977501	0.23718	0.509038
O	0.762191	-0.199852	-0.798446
H	0.819254	-0.134733	1.29767
H	0.118106	-0.0816334	-1.48762
C	8.59556	-0.196178	-0.397645
O	9.57415	0.321977	0.115854
O	7.40711	-0.150643	0.20321
H	8.69625	-0.701056	-1.35768
H	7.46334	0.317728	1.02859
