10
  This energy is -0.00122123 and Call times are: 10556
C	0.387359	-0.117246	-0.204807
O	0.478457	0.939437	0.399274
O	-0.75818	-0.797765	-0.217086
H	1.25279	-0.50713	-0.739343
H	-1.4256	-0.345271	0.28648
C	4.10342	0.115766	-0.187254
O	4.0027	-0.833942	0.572812
O	5.28329	0.698982	-0.395315
H	3.21828	0.489678	-0.700494
H	5.96487	0.273833	0.113089
