10
  This energy is -8.012e-06 and Call times are: 12412
C	0.293257	0.262139	-0.225882
O	0.710922	-0.872799	-0.0607693
O	-0.904359	0.620591	0.235359
H	0.907302	0.988994	-0.756294
H	-1.32909	-0.107507	0.674967
C	7.99615	0.26607	0.206447
O	8.70744	0.883005	-0.570244
O	8.15313	-1.046	0.377776
H	7.22493	0.795109	0.765061
H	8.85749	-1.37637	-0.168581
