10
  This energy is -0.00270666 and Call times are: 5342
C	-0.19153	0.0884071	0.401546
O	0.617733	0.940327	0.0712199
O	-0.434509	-0.960472	-0.38352
H	-0.720245	0.187857	1.34879
H	0.0928542	-0.920791	-1.17351
C	3.89693	0.0247369	-0.20654
O	4.70143	-0.649576	-0.829329
O	4.23692	0.595955	0.948288
H	2.89028	0.160255	-0.600235
H	5.13917	0.396208	1.17151
