10
  This energy is -0.000472256 and Call times are: 3021
C	0.235303	0.306273	-0.237841
O	-0.113991	0.728374	0.852853
O	-0.0772015	-0.931138	-0.620817
H	0.808755	0.949236	-0.904517
H	-0.576102	-1.37798	0.0538761
C	3.99894	0.340324	-0.0235217
O	3.23419	0.453477	0.921009
O	3.90604	-0.697494	-0.854074
H	4.76536	1.09676	-0.188175
H	3.19805	-1.27622	-0.594064
