10
  This energy is -0.00427586 and Call times are: 4760
C	-0.420706	-0.0999701	0.136937
O	-0.134006	1.07182	0.322687
O	0.458085	-0.936786	-0.413501
H	-1.40614	-0.464359	0.424764
H	1.27205	-0.488402	-0.613977
C	4.33399	0.026881	0.421255
O	3.88921	-0.926785	-0.1972
O	5.20934	0.856903	-0.144724
H	4.01095	0.200211	1.44708
H	5.40166	0.588811	-1.03631
