10
  This energy is -0.000700872 and Call times are: 11656
C	-0.222483	-0.11305	0.378761
O	0.96594	0.0841473	0.575119
O	-0.740047	0.0092544	-0.842993
H	-0.865949	-0.39203	1.21232
H	-0.0700763	0.255741	-1.47082
C	4.58091	-0.0266673	0.244814
O	4.00837	1.04216	0.38479
O	4.08175	-0.966379	-0.557245
H	5.51007	-0.213101	0.78205
H	3.27248	-0.672067	-0.960022
