10
  This energy is -0.000117262 and Call times are: 1174
C	-0.226904	0.190191	0.343629
O	-0.404081	0.773227	-0.713948
O	0.561425	-0.882268	0.405953
H	-0.719238	0.551598	1.24568
H	0.923774	-1.08561	-0.449109
C	7.32284	-0.257043	0.250702
O	6.72259	0.406501	-0.579479
O	8.64942	-0.182819	0.351694
H	6.76676	-0.916748	0.915731
H	9.00335	0.427317	-0.285676
