10
  This energy is -0.00111675 and Call times are: 386
C	0.314032	-0.162423	-0.284151
O	-0.421491	-1.03492	0.148923
O	0.152167	1.10834	0.0825528
H	1.11114	-0.426863	-0.97798
H	-0.575894	1.19546	0.687628
C	4.3846	0.105798	-0.42571
O	5.59346	0.0948816	-0.257358
O	3.55486	-0.173163	0.57889
H	3.98094	0.346394	-1.4085
H	4.03923	-0.363727	1.37441
