10
  This energy is -0.00196547 and Call times are: 7637
C	-0.328492	0.245921	-0.193273
O	0.199388	-0.527578	-0.976108
O	0.0696409	0.306284	1.07691
H	-1.13381	0.893447	-0.538074
H	0.775427	-0.309494	1.23957
C	5.16651	0.380884	-0.206993
O	4.44004	0.0753396	0.725036
O	6.21981	-0.371161	-0.524
H	4.95028	1.27847	-0.785171
H	6.28925	-1.1187	0.059213
