10
  This energy is -0.000854851 and Call times are: 12118
C	-0.1238	0.0996796	0.424825
O	0.41783	1.038	-0.137293
O	-0.298424	-1.06189	-0.204292
H	-0.467734	0.214432	1.45208
H	0.0467312	-1.02228	-1.08921
C	4.4318	0.0639931	-0.302574
O	4.69999	0.532173	0.792265
O	3.2704	-0.55456	-0.512465
H	5.15067	0.1535	-1.11616
H	2.74264	-0.560144	0.278238
