10
  This energy is 3.5907e-05 and Call times are: 6965
C	-0.38101	0.0263432	-0.244696
O	0.477821	-0.650402	-0.787113
O	-0.152819	0.595473	0.938323
H	-1.34417	0.165782	-0.734182
H	0.722766	0.39231	1.24792
C	11.0104	0.414682	-0.146952
O	9.82418	0.166726	-0.292751
O	11.8324	-0.484344	0.393021
H	11.4	1.38192	-0.462147
H	11.3622	-1.27865	0.620526
