10
  This energy is 3.036e-06 and Call times are: 8603
C	-0.0753696	-0.318299	-0.314236
O	-0.402908	0.796208	-0.688912
O	0.441046	-0.503825	0.900017
H	-0.207204	-1.16977	-0.980806
H	0.49934	0.319369	1.37196
C	8.00121	-0.00527973	0.453552
O	8.57854	-0.967176	-0.0273165
O	7.45093	0.920482	-0.331096
H	7.93581	0.0962746	1.5362
H	7.58216	0.707654	-1.2483
