10
  This energy is -0.00382357 and Call times are: 4466
C	-0.294988	0.00185404	-0.344554
O	0.179455	1.10551	-0.12858
O	0.0621549	-1.04884	0.393007
H	-1.01821	-0.124176	-1.1494
H	0.696054	-0.797178	1.05529
C	4.15395	-0.0229601	-0.450657
O	3.48018	-0.857529	0.131848
O	4.91822	0.830516	0.229782
H	4.12931	0.0235785	-1.53874
H	4.8444	0.678527	1.16532
