10
  This energy is 0.000259754 and Call times are: 11824
C	-0.426891	0.133697	-0.0750236
O	0.227061	0.056938	-1.10276
O	0.120868	-0.159173	1.10383
H	-1.46965	0.445167	-0.123455
H	1.03067	-0.414533	0.99975
C	8.21934	0.12057	-0.12391
O	8.1542	-1.04388	0.236098
O	7.13437	0.8941	-0.12616
H	9.17555	0.530689	-0.446663
H	6.37401	0.410798	0.177233
