10
  This energy is 1.1355e-05 and Call times are: 9233
C	0.248485	0.0673913	-0.373434
O	-0.4101	-0.958791	-0.428276
O	0.192965	0.855341	0.699678
H	0.888249	0.340908	-1.21164
H	-0.400822	0.498501	1.35072
C	13.4857	-0.261736	0.320574
O	14.3124	0.419874	-0.264011
O	12.1947	-0.191795	-0.00218257
H	13.808	-0.93419	1.11467
H	12.0558	0.430862	-0.706994
