10
  This energy is 0.000368675 and Call times are: 1258
C	-0.384128	-0.174981	0.16603
O	0.188332	-0.939441	-0.594024
O	0.123905	1.02777	0.432116
H	-1.32055	-0.480575	0.631259
H	0.938879	1.16217	-0.0385562
C	7.73862	-0.298439	0.0448433
O	7.82084	0.351555	-0.984982
O	6.73477	-0.0981804	0.897902
H	8.49485	-1.05018	0.267788
H	6.15193	0.582407	0.580296
