10
  This energy is -0.0078582 and Call times are: 7763
C	-0.353162	0.0699171	0.275912
O	0.717066	0.13937	0.858647
O	-0.401405	-0.187072	-1.03066
H	-1.27827	0.219869	0.831248
H	0.473522	-0.295289	-1.38643
C	3.6517	-0.0510972	0.376135
O	3.10437	-0.5127	-0.612369
O	4.84922	0.525962	0.28413
H	3.15466	-0.112208	1.34356
H	5.16409	0.510137	-0.612746
