10
  This energy is -0.00133762 and Call times are: 2406
C	0.324793	0.175289	-0.26367
O	0.723901	-0.0852876	0.859986
O	-0.941476	-0.057161	-0.607245
H	1.01236	0.60253	-0.992659
H	-1.42654	-0.42891	0.120967
C	4.11455	0.31239	0.163314
O	5.16058	0.797699	-0.236798
O	3.90407	-1.00163	0.0958099
H	3.34547	0.961732	0.57993
H	4.65305	-1.44474	-0.286889
