10
  This energy is 2.5093e-05 and Call times are: 7259
C	-0.340118	-0.288108	0.0839801
O	0.470843	-0.242932	0.995075
O	-0.178393	0.45692	-1.00886
H	-1.20513	-0.945121	0.166434
H	0.613452	0.979424	-0.947638
C	12.3943	-0.146965	0.382592
O	12.9667	-0.549158	-0.617601
O	11.3206	0.635957	0.284005
H	12.7663	-0.431933	1.36601
H	11.1075	0.804252	-0.62705
