10
  This energy is -0.000392149 and Call times are: 12244
C	0.374641	0.20708	0.150004
O	-0.603291	0.452752	0.837818
O	0.276705	-0.591934	-0.911833
H	1.33744	0.646494	0.408146
H	-0.615073	-0.903233	-1.01954
C	4.32978	-0.032281	-0.260061
O	5.11713	-0.945157	-0.451182
O	4.59619	0.920873	0.632146
H	3.39945	0.00241545	-0.825749
H	5.43609	0.767355	1.05021
