10
  This energy is -0.00502283 and Call times are: 9653
C	0.340571	-0.108973	0.279062
O	-0.725479	0.0027857	0.862875
O	0.419285	0.0831305	-1.03715
H	1.2367	-0.36865	0.841395
H	-0.432298	0.302627	-1.39827
C	4.43734	-0.0361839	-0.421865
O	3.55891	-0.0839299	0.424234
O	5.71438	0.107996	-0.0698938
H	4.17305	-0.112397	-1.47593
H	5.80056	0.161281	0.875363
