10
  This energy is -0.001349 and Call times are: 8939
C	-0.039175	0.362083	-0.27037
O	0.666299	-0.508856	-0.753654
O	-0.600435	0.197119	0.92683
H	-0.211027	1.28386	-0.824905
H	-0.367835	-0.647626	1.29572
C	3.71546	-0.168805	0.310289
O	4.72522	-0.84299	0.185217
O	3.53686	0.931531	-0.419697
H	2.95269	-0.471082	1.0269
H	4.27586	1.07581	-1.00007
