10
  This energy is 5.4108e-05 and Call times are: 6671
C	0.18238	-0.0990121	0.403328
O	1.0109	-0.0785722	-0.492733
O	-1.1013	0.15237	0.149381
H	0.497151	-0.325383	1.42136
H	-1.23405	0.333074	-0.77447
C	13.7589	0.0573421	0.42096
O	12.5635	0.28886	0.336226
O	14.457	-0.318805	-0.649873
H	14.2593	0.15973	1.38314
H	13.8984	-0.36724	-1.41763
