10
  This energy is -3.3583e-05 and Call times are: 7469
C	-0.423821	-0.146344	0.0685455
O	0.403272	-1.03642	0.184654
O	-0.0484944	1.09711	-0.228896
H	-1.48007	-0.372341	0.20989
H	0.895849	1.15159	-0.323897
C	13.8309	0.219772	0.374573
O	12.9641	0.819238	-0.241067
O	14.2942	-0.949142	-0.0664217
H	14.2293	0.64615	1.29447
H	13.8613	-1.20127	-0.874384
