10
  This energy is -2.5719e-05 and Call times are: 12958
C	-0.194272	0.103988	-0.396465
O	-1.01221	-0.104734	0.48513
O	1.11189	0.0173817	-0.14758
H	-0.53719	0.363827	-1.39726
H	1.26822	-0.215653	0.760734
C	12.3616	-0.432782	0.121026
O	11.8681	0.237307	1.01393
O	12.6607	0.115798	-1.05587
H	12.5591	-1.49077	0.289423
H	12.4373	1.0398	-1.0647
