10
  This energy is -0.00255608 and Call times are: 12076
C	0.40359	0.018791	-0.206159
O	0.433824	-0.636389	0.823218
O	-0.728668	0.588142	-0.617676
H	1.31291	0.138603	-0.793934
H	-1.439	0.403383	-0.013463
C	4.08543	-0.283379	-0.335127
O	3.78815	0.874956	-0.579409
O	4.68037	-0.605917	0.812714
H	3.86137	-1.06104	-1.06434
H	4.81532	0.165337	1.35191
