10
  This energy is 0.00049748 and Call times are: 8183
C	-0.363155	0.268769	0.0402576
O	0.275991	0.18711	1.07689
O	0.0243462	-0.388813	-1.05196
H	-1.26	0.886342	0.00900171
H	0.817449	-0.885367	-0.884034
C	6.69866	0.337459	0.0515955
O	7.07484	-0.501995	-0.750652
O	5.52558	0.21	0.670577
H	7.32983	1.19982	0.262962
H	5.08166	-0.583702	0.393539
