10
  This energy is -0.0058324 and Call times are: 2574
C	0.22825	0.190093	-0.342791
O	0.900797	0.0941952	0.671248
O	-1.03309	-0.238859	-0.366157
H	0.66518	0.631386	-1.23781
H	-1.28339	-0.598875	0.477355
C	4.08264	-0.0910981	0.152473
O	4.28976	-0.561941	-0.954413
O	5.02768	0.604098	0.784228
H	3.11415	-0.241598	0.627963
H	5.81732	0.657233	0.257524
