10
  This energy is -0.00161449 and Call times are: 4298
C	0.0254252	0.42361	-0.160147
O	0.914183	0.170498	0.637245
O	-0.886132	-0.494944	-0.477695
H	-0.0219329	1.41165	-0.616475
H	-0.726	-1.30631	-0.00885316
C	4.61428	-0.183198	-0.0234466
O	3.80602	-0.921144	0.516872
O	4.2472	1.0169	-0.471243
H	5.64672	-0.510506	-0.140234
H	3.32416	1.17203	-0.304752
