10
  This energy is 4.1372e-05 and Call times are: 11698
C	-0.289879	-0.341987	0.0689517
O	0.876271	-0.696218	0.135318
O	-0.602047	0.928781	-0.182473
H	-1.08316	-1.07374	0.217084
H	0.182564	1.45477	-0.289687
C	5.98794	0.106565	0.42641
O	6.63777	0.983519	-0.119911
O	5.6787	-1.01568	-0.222007
H	5.6578	0.244131	1.45538
H	6.02799	-1.00249	-1.10609
