10
  This energy is -0.0199746 and Call times are: 3838
C	-0.38604	-0.114028	-0.20907
O	0.382445	0.488651	-0.94119
O	-0.0584988	-0.373212	1.05626
H	-1.34991	-0.443064	-0.595585
H	0.805156	-0.0313204	1.25871
C	3.64243	-0.0749455	0.0661938
O	3.11067	0.464371	1.02336
O	2.93642	-0.380969	-1.02165
H	4.70591	-0.308102	0.10298
H	2.02723	-0.123179	-0.91818
