10
  This energy is -0.0027993 and Call times are: 11236
C	0.0473192	0.163827	0.42031
O	0.667903	-0.873233	0.249505
O	-0.670031	0.69838	-0.5672
H	0.0811265	0.656757	1.39118
H	-0.610765	0.16763	-1.35369
C	4.06537	0.446635	-0.0445399
O	4.66969	-0.0223451	0.906587
O	3.31407	-0.330362	-0.823867
H	4.14191	1.51223	-0.257512
H	3.33751	-1.23252	-0.524981
