10
  This energy is -2.3552e-05 and Call times are: 9275
C	-0.142539	0.126093	0.411731
O	-0.0971845	1.05905	-0.373971
O	0.204263	-1.10261	0.0302498
H	-0.470304	0.301223	1.43575
H	0.468077	-1.11119	-0.883044
C	10.9935	0.0611218	-0.399208
O	11.0267	-1.11209	-0.064132
O	11.5267	1.00551	0.374964
H	10.5225	0.337805	-1.34173
H	11.9014	0.625847	1.1619
