10
  This energy is -0.0015693 and Call times are: 8015
C	-0.172899	-0.259507	-0.329395
O	-0.433433	0.923387	-0.479973
O	0.546728	-0.67059	0.713995
H	-0.533244	-0.986069	-1.0567
H	0.793843	0.0639092	1.26465
C	3.90262	-0.147415	-0.161534
O	4.73071	0.0248673	-1.04151
O	4.2047	0.0924658	1.11389
H	2.90605	-0.501184	-0.423083
H	5.10229	0.394267	1.19771
