10
  This energy is 1.3048e-05 and Call times are: 6293
C	0.238914	-0.325403	0.206814
O	-0.634554	0.139839	0.921232
O	0.413151	0.123627	-1.03557
H	0.882386	-1.11634	0.590316
H	-0.213267	0.809452	-1.23811
C	12.1229	0.129162	0.216405
O	12.8961	-0.474228	0.942914
O	12.4215	0.347636	-1.06367
H	11.1786	0.492512	0.620175
H	13.2705	-0.0213167	-1.28045
