10
  This energy is -8.2868e-05 and Call times are: 13000
C	0.416397	0.175569	-0.0390853
O	0.302385	-0.54563	0.939007
O	-0.61422	0.378759	-0.858876
H	1.37171	0.657792	-0.242901
H	-1.38063	-0.0998981	-0.563455
C	10.5984	0.0548605	-0.209774
O	9.8994	1.05399	-0.263859
O	10.1712	-1.04176	0.415093
H	11.582	0.0610599	-0.677888
H	9.30165	-0.908447	0.77544
