10
  This energy is 0.00024113 and Call times are: 3502
C	0.293838	-0.334431	-0.0869141
O	-0.760533	-0.744921	0.370896
O	0.489278	0.968977	-0.282989
H	1.08289	-1.04246	-0.337525
H	-0.276549	1.46854	-0.0227557
C	5.48625	-0.185043	-0.398195
O	5.78721	0.993568	-0.498656
O	5.51216	-0.79569	0.785846
H	5.19345	-0.742665	-1.28703
H	5.78386	-0.19453	1.47036
