10
  This energy is 0.000449583 and Call times are: 8981
C	0.146731	0.0154248	0.428918
O	0.0182185	-1.12703	0.0189455
O	-0.132748	1.05563	-0.355537
H	0.49379	0.185116	1.44748
H	-0.423223	0.764294	-1.21258
C	6.3509	-0.0492592	0.000614408
O	5.84162	-0.413731	-1.04704
O	5.60042	0.43075	0.991512
H	7.4309	-0.117676	0.125621
H	4.68136	0.434104	0.748392
