10
  This energy is 4.19e-06 and Call times are: 6545
C	-0.127395	-0.106637	-0.422064
O	0.459548	0.962085	-0.366184
O	-0.335119	-0.827573	0.679125
H	-0.484811	-0.473944	-1.38334
H	0.0269019	-0.391153	1.44218
C	15.4779	0.164572	-0.0223198
O	16.1416	0.695482	0.8537
O	16.0033	-0.788446	-0.79125
H	14.4449	0.474178	-0.17617
H	16.9068	-0.958294	-0.549207
