10
  This energy is -0.0124789 and Call times are: 1597
C	-0.302628	-0.0582607	0.332808
O	-0.788946	-0.217649	-0.77529
O	0.985656	0.252062	0.472587
H	-0.92977	-0.171235	1.21634
H	1.41118	0.318785	-0.374912
C	4.08375	-0.039077	-0.238642
O	3.3842	0.883534	-0.624914
O	3.69717	-0.806326	0.779886
H	5.0343	-0.236329	-0.732856
H	2.85351	-0.523732	1.1148
