10
  This energy is -0.00234126 and Call times are: 11110
C	0.396129	0.0142966	0.220492
O	0.20574	-1.05786	-0.330899
O	-0.506703	0.990987	0.139961
H	1.31461	0.173141	0.78429
H	-1.25474	0.717893	-0.37931
C	4.91753	0.396284	-0.037101
O	5.51596	-0.51879	-0.579612
O	3.75573	0.179612	0.57834
H	5.33897	1.40062	-0.0570073
H	3.50734	-0.736113	0.518948
