10
  This energy is -0.000549354 and Call times are: 3544
C	-0.228226	0.183608	-0.346324
O	0.0707364	-0.982396	-0.54843
O	0.112612	0.786235	0.792177
H	-0.779731	0.736497	-1.10584
H	0.587306	0.190536	1.36102
C	3.8838	0.151049	-0.0984795
O	4.74253	0.648087	-0.809342
O	4.20832	-0.7329	0.844301
H	2.84105	0.434067	-0.237356
H	5.14643	-0.886544	0.855108
