10
  This energy is 6.3694e-05 and Call times are: 2853
C	-0.331617	-0.253466	-0.177551
O	-0.718391	0.853981	0.159729
O	0.941626	-0.609588	-0.0115863
H	-1.03607	-0.957461	-0.618954
H	1.44167	0.0967455	0.381894
C	7.82108	-0.0985077	-0.343858
O	7.92683	-1.01841	0.451371
O	8.4836	1.0424	-0.157001
H	7.1777	-0.212783	-1.21547
H	9.00376	1.00497	0.637862
