10
  This energy is -0.00183995 and Call times are: 2727
C	0.371806	0.251107	-0.0666709
O	-0.657555	0.883244	-0.241628
O	0.330348	-1.03445	0.281399
H	1.33426	0.744504	-0.196833
H	-0.568274	-1.33471	0.359482
C	4.27856	0.333514	-0.130037
O	4.16599	-0.538979	-0.97613
O	3.62349	0.248144	1.02716
H	4.92194	1.19085	-0.324339
H	3.10238	-0.54618	1.06282
