10
  This energy is -0.00546221 and Call times are: 10237
C	-0.439431	-0.109597	0.0250589
O	-0.0764992	0.586273	0.959851
O	0.418339	-0.469189	-0.92911
H	-1.47622	-0.439607	-0.0285583
H	1.2832	-0.113638	-0.757698
C	3.49031	0.133886	0.379267
O	3.29338	0.8918	-0.556991
O	4.25028	-0.950291	0.229198
H	3.03924	0.347299	1.34761
H	4.57747	-1.01316	-0.661177
