10
  This energy is -0.00327072 and Call times are: 11362
C	0.347604	0.285998	0.0558176
O	0.271391	-0.538744	0.952357
O	-0.530711	0.28532	-0.946219
H	1.14285	1.03022	0.0762881
H	-1.16612	-0.413525	-0.838312
C	4.16579	-0.363806	-0.214241
O	3.36723	0.25779	-0.89668
O	4.46901	0.0421033	1.01816
H	4.63501	-1.26005	-0.618314
H	3.98988	0.832308	1.24128
