10
  This energy is 0.000151059 and Call times are: 4911
C	0.0298555	-0.121837	0.435894
O	0.712229	-0.822939	-0.29391
O	-0.698282	0.875567	-0.0646201
H	0.0168701	-0.314701	1.50797
H	-0.593702	0.930149	-1.00794
C	6.00578	0.055158	-0.330452
O	5.96809	-1.09163	0.085787
O	5.20534	0.990822	0.178811
H	6.70186	0.315235	-1.12702
H	4.65317	0.62786	0.862289
