10
  This energy is -0.000786781 and Call times are: 632
C	-0.231909	-0.304962	0.242808
O	-0.832039	0.0500026	-0.759007
O	0.970823	0.192652	0.527996
H	-0.685659	-1.03665	0.910231
H	1.24436	0.81667	-0.134993
C	4.1858	-0.288795	-0.153671
O	4.62048	0.440232	-1.03081
O	4.63316	-0.189785	1.09756
H	3.42381	-1.02805	-0.397768
H	5.29201	0.491914	1.16805
