10
  This energy is -0.00422301 and Call times are: 7847
C	0.223111	-0.382304	0.0990151
O	0.852424	0.618749	0.401753
O	-0.983212	-0.285319	-0.458563
H	0.65352	-1.36517	0.287258
H	-1.23438	0.625422	-0.564604
C	4.53323	-0.385108	-0.199201
O	5.16666	0.584561	-0.584303
O	3.56879	-0.250722	0.710368
H	4.75984	-1.37061	-0.604342
H	3.47833	0.657752	0.975453
