10
  This energy is -0.00431399 and Call times are: 11950
C	-0.110736	-0.229991	0.374941
O	0.729624	0.630071	0.584416
O	-0.604108	-0.415926	-0.848794
H	-0.460368	-0.851698	1.19831
H	-0.213159	0.191536	-1.4668
C	4.23614	-0.357236	-0.244103
O	4.86	-0.237283	0.798107
O	3.2728	0.505977	-0.564021
H	4.47048	-1.17943	-0.919222
H	3.17495	1.16861	0.110601
