10
  This energy is -0.00381198 and Call times are: 8855
C	-0.150986	0.186053	0.385132
O	-0.210763	0.95485	-0.561002
O	0.318519	-1.05108	0.228382
H	-0.485452	0.516179	1.36791
H	0.573058	-1.20416	-0.674699
C	4.44519	-0.38117	-0.0181751
O	3.30528	-0.537972	-0.425385
O	4.85469	0.809695	0.417326
H	5.13429	-1.22485	-0.0112367
H	4.15558	1.45094	0.355553
