10
  This energy is -0.000468383 and Call times are: 4550
C	0.326233	0.0950473	-0.300461
O	-0.351286	1.07101	-0.0207019
O	0.0760488	-1.08951	0.256097
H	1.14409	0.194881	-1.01309
H	-0.660292	-1.03297	0.854748
C	5.1524	-0.340488	-0.161554
O	5.81694	0.494864	0.430369
O	3.83261	-0.200859	-0.280589
H	5.64491	-1.20921	-0.596821
H	3.53753	0.597279	0.143293
