10
  This energy is -5.3939e-05 and Call times are: 1300
C	0.0814396	-0.0468159	-0.443751
O	0.0485146	-1.11735	0.141624
O	-0.110062	1.09545	0.215085
H	0.269537	-0.0263941	-1.51656
H	-0.262418	0.931349	1.13901
C	5.06714	-0.363437	-0.139378
O	5.41772	-0.450961	1.02648
O	5.37175	0.713301	-0.862812
H	4.49905	-1.17518	-0.592206
H	5.86662	1.33903	-0.345757
