10
  This energy is 0.000163063 and Call times are: 3065
C	-0.349383	-0.00323658	0.28924
O	-0.707648	-0.000404825	-0.877563
O	0.945432	0.00293114	0.603773
H	-1.09739	-0.0108905	1.08116
H	1.48364	0.00933347	-0.179854
C	4.7445	-0.00330226	-0.426085
O	4.58157	1.07437	0.123337
O	5.32407	-1.01529	0.218505
H	4.412	-0.13793	-1.45469
H	5.56281	-0.760457	1.10272
