10
  This energy is -0.00571957 and Call times are: 4953
C	-0.420245	0.0703995	0.15549
O	0.124075	1.10144	-0.205699
O	0.21321	-1.09894	0.0725031
H	-1.43504	0.107982	0.549817
H	1.08587	-0.985879	-0.287299
C	3.37819	0.108585	-0.126589
O	3.54209	-1.09704	-0.0295991
O	4.37634	0.953896	0.127677
H	2.40475	0.496451	-0.424369
H	5.1639	0.482387	0.375077
