10
  This energy is 0.000157872 and Call times are: 11992
C	0.195153	0.406991	0.0448645
O	-0.973142	0.406545	0.398242
O	0.768381	-0.7055	-0.412616
H	0.774427	1.32763	0.104648
H	0.151634	-1.42896	-0.410715
C	5.1893	-0.232749	0.0032515
O	4.94613	0.257513	-1.08776
O	4.35515	-0.0607853	1.02801
H	6.09857	-0.817061	0.139338
H	3.60705	0.46615	0.77019
