10
  This energy is -0.000515779 and Call times are: 11866
C	0.280426	-0.334604	-0.123046
O	0.532152	0.102135	0.988567
O	-0.724889	0.166591	-0.839747
H	0.88503	-1.14299	-0.532532
H	-1.16515	0.862184	-0.36425
C	5.61689	0.374547	-0.241962
O	5.4762	-0.64621	-0.89622
O	5.97744	0.317441	1.03954
H	5.4455	1.34219	-0.712066
H	6.09266	-0.584067	1.31845
