10
  This energy is -0.00385329 and Call times are: 4340
C	0.186294	0.218318	0.351241
O	0.865859	0.292702	-0.659921
O	-0.966963	-0.449144	0.348775
H	0.527496	0.703362	1.26504
H	-1.14108	-0.819982	-0.509094
C	3.99937	-0.329304	0.295676
O	4.06564	0.782921	0.794028
O	3.66486	-0.482575	-0.985
H	4.21631	-1.2054	0.905673
H	3.50356	0.35965	-1.39539
