10
  This energy is -0.000104258 and Call times are: 2979
C	-0.288014	-0.0890714	0.3389
O	-0.277689	-0.966552	-0.509458
O	0.489776	0.985841	0.215936
H	-0.940702	-0.187007	1.20557
H	1.00406	0.941436	-0.582384
C	3.83477	-0.220278	0.294734
O	4.48543	-0.978257	-0.406616
O	3.94359	1.1002	0.153263
H	3.15805	-0.629094	1.04416
H	4.56531	1.3166	-0.532599
