10
  This energy is 0.000227902 and Call times are: 9695
C	0.380216	-0.247068	0.0115013
O	0.593794	0.94721	0.145202
O	-0.861831	-0.702952	-0.14662
H	1.21504	-0.946834	0.0217398
H	-1.48826	0.0120671	-0.136171
C	6.11548	-0.238889	0.0285369
O	6.45494	-0.03441	-1.12591
O	6.84533	0.220623	1.04425
H	5.20566	-0.803364	0.229302
H	7.60718	0.692441	0.726837
