10
  This energy is -0.00905287 and Call times are: 4241
C	0.121631	-0.0572936	-0.4332
O	-0.984993	0.445113	-0.320228
O	0.837475	-0.376617	0.64435
H	0.527325	-0.246169	-1.4264
H	0.36565	-0.158719	1.44039
C	4.54019	-0.0959023	-0.0526614
O	4.28972	1.08097	-0.257682
O	3.5738	-0.948654	0.285582
H	5.56543	-0.45169	-0.147588
H	2.73357	-0.506326	0.33182
