10
  This energy is -0.0050129 and Call times are: 12202
C	-0.301312	-0.168551	-0.294178
O	-0.729014	-0.138822	0.848616
O	0.92784	0.264184	-0.572462
H	-0.932393	-0.55331	-1.09443
H	1.36456	0.570627	0.214394
C	6.62453	0.23723	0.314715
O	7.00246	-0.921176	0.243626
O	5.65249	0.686029	-0.478519
H	7.08782	0.910512	1.03497
H	5.34073	-0.00321741	-1.0543
