10
  This energy is 2.2399e-05 and Call times are: 7091
C	-0.136404	0.399201	0.166649
O	-1.01347	-0.448741	0.20589
O	1.06755	0.110951	-0.326229
H	-0.341454	1.40222	0.538965
H	1.10737	-0.794451	-0.61335
C	12.2201	-0.247743	-0.00114089
O	12.2514	0.556912	0.916102
O	13.2293	-0.332642	-0.86704
H	11.3569	-0.903067	-0.111949
H	13.9118	0.293572	-0.653116
