10
  This energy is -0.00164009 and Call times are: 3712
C	0.283994	-0.289268	-0.203496
O	0.72359	0.848716	-0.16426
O	-0.90907	-0.576421	0.315789
H	0.874499	-1.07785	-0.66842
H	-1.31227	0.200597	0.686537
C	4.03713	0.279312	0.267386
O	3.5876	-0.679804	0.873862
O	3.8146	0.424226	-1.03837
H	4.62653	1.02426	0.800634
H	3.2893	-0.293777	-1.3735
