10
  This energy is -0.0023957 and Call times are: 7973
C	0.105786	0.434715	0.0746406
O	1.07858	-0.300257	0.131861
O	-1.10514	-0.0576791	-0.183675
H	0.230284	1.50473	0.236722
H	-1.06842	-1.0001	-0.303122
C	4.28285	-0.314961	0.243686
O	5.30782	-0.740565	-0.264324
O	3.90556	0.949526	0.0586298
H	3.67072	-0.977163	0.854828
H	4.52831	1.411	-0.491837
