10
  This energy is 0.000379723 and Call times are: 8477
C	0.3097	-0.305628	0.128127
O	0.813326	0.731948	-0.27136
O	-1.01432	-0.452916	0.156248
H	0.950796	-1.11936	0.465078
H	-1.44841	0.329985	-0.163761
C	6.47768	0.257908	-0.328102
O	6.93027	-0.87565	-0.326923
O	5.56302	0.626621	0.567974
H	6.82619	0.975032	-1.07039
H	5.35177	-0.0936397	1.15139
