10
  This energy is -0.000900409 and Call times are: 590
C	0.0392035	0.0875088	-0.443333
O	-1.00051	0.518685	0.0287613
O	0.917053	-0.560291	0.321684
H	0.250558	0.234571	-1.50183
H	0.607186	-0.61621	1.2187
C	4.11421	0.0702582	-0.447885
O	3.8398	1.08264	0.176279
O	4.33534	-1.08102	0.185505
H	4.17871	0.109723	-1.53462
H	4.2467	-0.97201	1.12574
