10
  This energy is 0.000218253 and Call times are: 3754
C	-0.244702	0.161261	-0.346201
O	-0.331471	0.857344	0.652664
O	0.50664	-0.939193	-0.345867
H	-0.787963	0.443889	-1.24714
H	0.921515	-1.065	0.5002
C	5.46844	-0.357751	0.155348
O	4.81323	0.325115	-0.615487
O	6.7224	-0.026448	0.460858
H	5.02198	-1.24753	0.59769
H	6.9826	0.767146	0.00667301
