10
  This energy is -0.00274986 and Call times are: 7805
C	0.120452	0.416649	0.132794
O	-1.0784	0.319869	-0.0750277
O	0.926895	-0.630983	-0.0334349
H	0.534362	1.3705	0.457685
H	0.435858	-1.39387	-0.31746
C	4.2975	-0.0903437	0.188608
O	5.22901	-0.545561	0.8327
O	4.51559	0.587985	-0.937368
H	3.27717	-0.240983	0.539227
H	5.44616	0.643397	-1.12379
