10
  This energy is -0.0031166 and Call times are: 10007
C	-0.206141	-0.400663	0.0520946
O	0.515256	-0.369843	-0.931992
O	-0.32592	0.665748	0.841991
H	-0.757539	-1.31057	0.286044
H	0.207119	1.38498	0.522063
C	3.55242	-0.209997	-0.399219
O	3.27216	0.976502	-0.458089
O	3.94806	-0.759881	0.748217
H	3.47785	-0.824996	-1.29528
H	3.96789	-0.112544	1.44416
