10
  This energy is -0.00049323 and Call times are: 3275
C	0.132093	-0.402544	-0.162014
O	-0.397495	-0.490068	0.934191
O	0.272631	0.781132	-0.75756
H	0.493368	-1.30274	-0.657824
H	-0.0844906	1.47637	-0.216367
C	3.74783	-0.183408	-0.219267
O	3.40228	0.511493	0.722806
O	5.03821	-0.340247	-0.512227
H	2.99202	-0.680257	-0.82639
H	5.58431	0.146266	0.0951143
