10
  This energy is -0.00337046 and Call times are: 4802
C	0.338669	-0.107893	0.281783
O	0.450149	-0.641813	-0.810139
O	-0.693038	0.692988	0.545764
H	1.09156	-0.288941	1.048
H	-1.26921	0.761409	-0.207312
C	4.54536	-0.368926	0.0971141
O	3.36326	-0.508491	0.36719
O	4.99438	0.772127	-0.424321
H	5.23983	-1.18694	0.284913
H	4.28521	1.39559	-0.534537
