10
  This energy is 0.00014885 and Call times are: 5747
C	-0.271907	0.0957183	0.350206
O	0.903633	0.0354453	0.673108
O	-0.642115	-0.108919	-0.913355
H	-1.02565	0.319337	1.10425
H	0.112722	-0.292962	-1.46119
C	7.64399	-0.0617055	-0.421416
O	8.76171	0.428348	-0.403132
O	7.01165	-0.357261	0.71362
H	7.15921	-0.259101	-1.37679
H	7.54715	-0.134383	1.46684
