10
  This energy is 0.00024314 and Call times are: 3107
C	0.442633	-0.0219815	0.096601
O	0.212542	0.654147	-0.893196
O	-0.54975	-0.602455	0.770205
H	1.47099	-0.151482	0.431895
H	-1.38961	-0.407186	0.369856
C	6.35324	0.0392082	-0.0678631
O	6.79613	-1.02486	-0.469599
O	7.1553	0.940122	0.498322
H	5.29043	0.253448	-0.173964
H	8.05166	0.624616	0.526134
