10
  This energy is 0.000361922 and Call times are: 5384
C	-0.358724	0.0442902	-0.274034
O	0.608813	0.678441	-0.663285
O	-0.294464	-0.677632	0.844096
H	-1.2843	0.0696468	-0.84795
H	0.566625	-0.609854	1.24122
C	6.44309	0.382646	-0.0151214
O	6.94655	-0.517854	-0.667362
O	5.30137	0.18946	0.644178
H	6.93354	1.35442	0.0276358
H	4.98563	-0.698658	0.520372
