10
  This energy is 0.000104453 and Call times are: 9023
C	0.448615	0.0245664	-0.0622888
O	0.150757	-0.536906	0.979738
O	-0.495921	0.489343	-0.879203
H	1.4985	0.146385	-0.326133
H	-1.36207	0.315967	-0.527771
C	7.5146	-0.0845458	-0.342258
O	8.38862	-0.930579	-0.241716
O	7.46695	0.948197	0.498388
H	6.76593	-0.175956	-1.12829
H	8.1761	0.903013	1.12992
