10
  This energy is -1.5402e-05 and Call times are: 12874
C	-0.2455	0.175208	0.338778
O	-0.930853	-0.144408	-0.619307
O	1.07514	-0.00108486	0.320106
H	-0.719937	0.60923	1.21812
H	1.35315	-0.386329	-0.503348
C	13.7111	-0.0906076	-0.435463
O	13.0289	-0.753504	0.329312
O	14.6006	0.785203	0.0307413
H	13.5906	-0.217339	-1.51069
H	14.6009	0.793105	0.98138
