10
  This energy is 2.5442e-05 and Call times are: 9107
C	-0.283092	0.02069	0.353793
O	-0.870258	-0.105653	-0.708782
O	1.04732	0.0838139	0.393058
H	-0.854146	0.0823981	1.27943
H	1.41482	0.0178493	-0.481222
C	11.4953	-0.441269	-0.00773363
O	12.2046	-0.111961	-0.944889
O	11.1096	0.453384	0.901298
H	11.1748	-1.47825	0.0853508
H	11.4595	1.31374	0.698547
