10
  This energy is 3.0481e-05 and Call times are: 7301
C	0.200837	-0.374385	0.15887
O	0.973164	0.34885	-0.449598
O	-1.08007	-0.0358436	0.300918
H	0.563986	-1.30655	0.590018
H	-1.2586	0.796644	-0.122009
C	14.494	0.197883	0.106577
O	13.5635	0.987573	0.0879202
O	14.2982	-1.0914	-0.167181
H	15.4949	0.552304	0.349846
H	13.383	-1.26067	-0.360909
