10
  This energy is 7.197e-06 and Call times are: 7049
C	0.284586	0.17355	0.30762
O	0.801742	0.049395	-0.790982
O	-0.983579	-0.183394	0.507278
H	0.86728	0.580758	1.13306
H	-1.36991	-0.520529	-0.293261
C	10.7722	0.233286	-0.382232
O	11.4069	0.67443	0.562407
O	9.97341	-0.822584	-0.231996
H	10.8607	0.708911	-1.35828
H	9.99169	-1.1353	0.665585
