10
  This energy is 1.0338e-05 and Call times are: 6041
C	0.0100902	0.0060974	0.453431
O	-0.990325	0.538645	0.00027211
O	0.930317	-0.515124	-0.357139
H	0.150956	-0.0429468	1.53253
H	0.681269	-0.402938	-1.26772
C	8.72114	0.0345172	-0.247005
O	9.2097	-1.08306	-0.292958
O	9.29425	0.998953	0.471966
H	7.80653	0.24446	-0.800293
H	10.0805	0.679423	0.900364
