10
  This energy is 0.000194317 and Call times are: 9443
C	0.276047	-0.147516	0.328292
O	-0.567397	0.632206	0.74112
O	0.320298	-0.482863	-0.960544
H	0.999969	-0.573188	1.02216
H	-0.365182	-0.0405529	-1.44866
C	6.9286	-0.141595	0.218515
O	7.05154	-0.659578	-0.879833
O	7.82772	0.736346	0.66159
H	6.074	-0.400755	0.842379
H	8.51623	0.868342	0.0194802
