10
  This energy is -0.00196392 and Call times are: 8099
C	-0.144026	-0.0443975	-0.427813
O	-0.592391	0.9521	0.116018
O	0.674604	-0.8671	0.2268
H	-0.416901	-0.262402	-1.45967
H	0.827011	-0.557981	1.1128
C	4.38562	0.063067	0.346673
O	3.63411	1.01047	0.181023
O	4.31659	-1.00699	-0.444361
H	5.12035	0.0939331	1.15037
H	3.63534	-0.900213	-1.09878
