10
  This energy is -0.00168684 and Call times are: 310
C	-0.0142914	-0.447697	-0.0714292
O	-0.771581	-0.0909903	0.816864
O	0.742263	0.438574	-0.717697
H	0.0427383	-1.50245	-0.337809
H	0.592714	1.31669	-0.385537
C	3.78286	-0.327642	-0.290979
O	3.70271	-0.684992	0.873352
O	4.17911	0.906855	-0.598416
H	3.52737	-1.02658	-1.08654
H	4.36878	1.40663	0.187731
