10
  This energy is -0.00323594 and Call times are: 2937
C	-0.0277713	0.366599	-0.265656
O	-1.05561	-0.291678	-0.26737
O	1.02197	-0.012195	0.462402
H	0.0306907	1.27349	-0.866349
H	0.833881	-0.815834	0.934168
C	4.62684	-0.0487146	0.145509
O	4.16199	1.04681	0.416689
O	3.90005	-0.953431	-0.509307
H	5.64717	-0.288168	0.442643
H	3.03403	-0.613767	-0.705275
