10
  This energy is -0.000790619 and Call times are: 1384
C	0.201888	-0.31947	0.250837
O	0.147392	-0.617626	-0.931502
O	-0.298542	0.8366	0.685103
H	0.664973	-1.00691	0.95772
H	-0.66995	1.33553	-0.0338582
C	4.70958	-0.067679	-0.220753
O	4.92261	-0.920731	0.625836
O	5.57535	0.925591	-0.419185
H	3.80135	-0.120111	-0.819973
H	6.31846	0.848813	0.168745
