10
  This energy is -5.7595e-05 and Call times are: 6167
C	0.275799	0.278208	0.228635
O	0.87806	-0.629371	-0.322157
O	-1.04897	0.377313	0.125268
H	0.828575	1.01458	0.810783
H	-1.40002	-0.326819	-0.408338
C	10.9341	0.245531	0.357034
O	11.8009	0.14901	-0.496824
O	9.74617	-0.334426	0.189694
H	11.1351	0.812295	1.26537
H	9.7081	-0.793111	-0.642133
