10
  This energy is 0.000164635 and Call times are: 2685
C	0.213029	0.356858	0.181686
O	-0.678048	-0.0708006	0.897842
O	0.474731	-0.213793	-0.993637
H	0.800027	1.21451	0.508144
H	-0.109744	-0.946848	-1.15111
C	5.62435	-0.206261	0.40324
O	5.17522	-0.933431	-0.468134
O	5.98328	1.0467	0.126145
H	5.73243	-0.587008	1.41816
H	5.83624	1.2453	-0.791849
