10
  This energy is 0.000151182 and Call times are: 9611
C	0.363542	0.169995	-0.211372
O	0.23812	0.600669	0.923784
O	-0.511733	-0.702887	-0.708852
H	1.20065	0.503697	-0.823423
H	-1.18684	-0.905535	-0.0709318
C	4.16317	0.374529	0.197089
O	3.77185	-0.448943	1.0086
O	4.08773	0.130561	-1.1107
H	4.57841	1.31885	0.547137
H	3.70733	-0.725339	-1.27352
