10
  This energy is -0.0107024 and Call times are: 3450
C	-0.362138	0.268758	0.0486278
O	-0.40993	-0.401269	-0.970476
O	0.673405	0.168642	0.881179
H	-1.17563	0.955729	0.278867
H	1.306	-0.463821	0.559324
C	4.16446	-0.24283	-0.381458
O	3.22134	-0.416569	0.373613
O	5.15517	0.585791	-0.0537369
H	4.19537	-0.771594	-1.33338
H	5.00045	0.977247	0.798672
