10
  This energy is 0.000486468 and Call times are: 3191
C	0.213844	-0.367542	-0.157868
O	0.960835	0.588978	-0.0280008
O	-1.07863	-0.268731	0.150781
H	0.609405	-1.31176	-0.530279
H	-1.28613	0.605485	0.46137
C	6.6434	0.0514734	0.44856
O	7.67065	-0.344065	-0.078784
O	5.55148	0.285463	-0.278405
H	6.62035	0.214573	1.5254
H	5.71166	0.102605	-1.19747
