10
  This energy is 0.000799029 and Call times are: 2196
C	-0.259906	0.107889	-0.355736
O	-0.855973	-0.559831	0.47411
O	1.01553	0.445482	-0.169196
H	-0.777464	0.430712	-1.2583
H	1.33977	0.0994767	0.654774
C	5.76583	0.205555	-0.368764
O	5.95435	-1.00031	-0.380389
O	5.13376	0.785935	0.650632
H	6.11868	0.812792	-1.20151
H	4.88258	0.142018	1.30336
