10
  This energy is 1.2338e-05 and Call times are: 6377
C	-0.326427	-0.150202	-0.27681
O	-0.582552	0.944577	0.198216
O	0.808845	-0.776697	0.0300735
H	-1.03456	-0.619126	-0.958985
H	1.32985	-0.256824	0.631793
C	16.0997	-0.379155	0.147911
O	16.9711	-0.601344	-0.677452
O	15.8218	0.868149	0.525418
H	15.544	-1.21056	0.579864
H	16.379	1.4907	0.071861
