10
  This energy is -0.00361231 and Call times are: 9737
C	0.418849	-0.108329	0.136268
O	0.264784	-0.255778	-1.06553
O	-0.580526	0.327592	0.902255
H	1.38444	-0.335964	0.586301
H	-1.36055	0.48607	0.382426
C	4.38835	0.0975113	0.442826
O	5.30016	0.664585	-0.13754
O	3.55633	-0.706393	-0.218226
H	4.25442	0.251163	1.51295
H	3.78767	-0.748696	-1.13935
