10
  This energy is 8.48e-07 and Call times are: 12832
C	0.434621	-0.0252321	0.127305
O	-0.318753	0.163475	1.0689
O	-0.0400821	-0.135021	-1.1129
H	1.5066	-0.10457	0.304158
H	-0.986591	-0.0465847	-1.12164
C	16.3067	-0.112106	0.166562
O	15.4776	-0.994119	0.322797
O	15.9801	1.03009	-0.436922
H	17.3246	-0.261609	0.524881
H	15.0656	1.02558	-0.696869
