10
  This energy is 5.899e-06 and Call times are: 6419
C	0.196363	0.210698	-0.35041
O	-0.99876	0.0316159	-0.521883
O	0.791699	-0.195787	0.770241
H	0.781539	0.708412	-1.12278
H	0.166603	-0.611635	1.35342
C	18.0675	-0.0481686	-0.431125
O	18.0618	-1.10408	0.181093
O	18.4352	1.08394	0.167753
H	17.7685	-0.0325323	-1.47854
H	18.6693	0.925624	1.07544
