10
  This energy is -0.00172194 and Call times are: 5258
C	-5.81655e-05	-0.133512	-0.43349
O	0.313659	1.03902	-0.304862
O	-0.297123	-0.879309	0.63002
H	-0.0372074	-0.573857	-1.42919
H	-0.224542	-0.371142	1.43019
C	3.49194	0.0138909	0.197572
O	3.55413	-0.821756	-0.689907
O	4.54886	0.767619	0.498133
H	2.5616	0.143913	0.749181
H	5.28848	0.549879	-0.0580373
