10
  This energy is 9.001e-06 and Call times are: 6461
C	-0.260182	-0.136793	-0.345444
O	-0.348476	1.06302	-0.13942
O	0.534936	-0.899465	0.403978
H	-0.838279	-0.587781	-1.15112
H	0.976972	-0.37916	1.06554
C	19.6784	0.165772	-0.0230039
O	20.3374	0.683941	0.864145
O	20.2069	-0.778457	-0.800607
H	18.6471	0.479596	-0.179714
H	21.1084	-0.953381	-0.554778
