10
  This energy is -0.00191794 and Call times are: 674
C	-0.0251505	0.450199	-0.0492672
O	-1.11907	-0.0639742	0.120339
O	1.08003	-0.293727	-0.0752358
H	0.0470354	1.52919	-0.18072
H	0.872015	-1.21266	0.0515144
C	4.43879	0.105651	0.253188
O	4.17475	-0.697894	-0.626806
O	5.67668	0.578048	0.394576
H	3.65291	0.439439	0.929713
H	6.25767	0.204637	-0.258713
