10
  This energy is -0.00496347 and Call times are: 8771
C	-0.0566334	0.280328	0.352063
O	0.817216	0.658514	-0.411582
O	-0.729676	-0.84453	0.112846
H	-0.287842	0.869785	1.23851
H	-0.427149	-1.2554	-0.689303
C	3.98043	0.171946	-0.0117605
O	4.1364	-0.736986	-0.811327
O	4.97996	0.562906	0.777928
H	3.013	0.668126	0.0559806
H	5.7617	0.0473184	0.61412
