10
  This energy is 0.000123216 and Call times are: 4676
C	-0.392479	0.190998	-0.123367
O	-0.320871	0.004198	1.0807
O	0.612909	-0.154306	-0.926782
H	-1.28869	0.645061	-0.544485
H	1.32702	-0.536922	-0.429359
C	4.34293	0.219773	-0.17303
O	5.36044	0.394167	-0.824213
O	4.35532	-0.54642	0.917067
H	3.4152	0.696307	-0.487577
H	5.22501	-0.896744	1.07416
