10
  This energy is -0.000259313 and Call times are: 11446
C	0.0510144	-0.235112	-0.384524
O	-0.410265	-0.912033	0.520347
O	0.348544	1.04913	-0.190343
H	0.220834	-0.687049	-1.36106
H	0.151307	1.31063	0.702123
C	6.02641	-0.249647	-0.336576
O	7.20367	0.0200606	-0.512952
O	5.38572	0.177483	0.750892
H	5.49486	-0.846154	-1.07708
H	5.96621	0.683493	1.30835
