10
  This energy is -0.000818366 and Call times are: 12160
C	0.230555	-0.335893	0.199397
O	-0.977536	-0.46136	0.320083
O	0.744679	0.701475	-0.460194
H	0.894602	-1.08086	0.636179
H	0.0558164	1.26948	-0.786711
C	4.17022	-0.274677	-0.278373
O	5.3155	-0.0801877	-0.652922
O	3.71348	0.292162	0.837693
H	3.51533	-0.918926	-0.86384
H	4.38647	0.825281	1.24593
