10
  This energy is 0.000453544 and Call times are: 12286
C	0.364315	0.118286	-0.242944
O	0.495137	0.362019	0.945867
O	-0.755847	-0.436085	-0.704924
H	1.17294	0.357082	-0.932739
H	-1.37313	-0.590015	0.0015039
C	6.85621	0.19566	0.319078
O	7.30328	0.358161	-0.804985
O	5.73204	-0.493328	0.511527
H	7.383	0.619054	1.17344
H	5.37994	-0.803537	-0.315258
