10
  This energy is 2.0888e-05 and Call times are: 13126
C	0.259103	0.0134776	-0.372052
O	0.91469	-0.102048	0.651007
O	-1.07053	0.0860752	-0.32395
H	0.767822	0.0575952	-1.33432
H	-1.37959	0.0354285	0.573654
C	11.6915	0.0693816	-0.396817
O	11.6501	-1.0984	-0.0441768
O	12.3008	0.986046	0.354176
H	11.2249	0.364109	-1.336
H	12.6618	0.592955	1.14092
