10
  This energy is 1.281e-05 and Call times are: 6125
C	0.154288	-0.356159	-0.234702
O	-0.389661	0.473167	-0.946128
O	0.247739	-0.167969	1.08111
H	0.567459	-1.25962	-0.681638
H	-0.15214	0.656634	1.3339
C	12.5229	-0.160631	0.194184
O	12.7855	0.976561	0.551443
O	13.3054	-0.798791	-0.675287
H	11.6388	-0.65815	0.591263
H	14.0363	-0.250583	-0.937888
