10
  This energy is -0.00253178 and Call times are: 5300
C	0.0921636	-0.432636	-0.100353
O	-0.529862	-0.316479	0.943382
O	0.429465	0.640355	-0.814799
H	0.374027	-1.42494	-0.450498
H	0.121958	1.43613	-0.39532
C	3.64695	0.135479	-0.250478
O	3.62028	0.591442	0.881414
O	4.63763	-0.666978	-0.63793
H	2.85152	0.388122	-0.950596
H	5.25896	-0.802431	0.0687359
