10
  This energy is 0.000401136 and Call times are: 4424
C	-0.284494	-0.204304	0.288206
O	-0.744824	0.828885	-0.170497
O	0.929581	-0.624505	-0.0653038
H	-0.873682	-0.788333	0.994232
H	1.32887	-0.0227084	-0.683512
C	6.07133	0.349286	-0.177331
O	7.01723	0.00917193	-0.8697
O	5.80046	-0.283601	0.963546
H	5.44247	1.17948	-0.496745
H	6.42541	-0.982974	1.11877
