10
  This energy is 4.3809e-05 and Call times are: 12706
C	-0.114333	0.0300412	0.437909
O	1.07025	-0.217771	0.279331
O	-0.923993	0.182677	-0.609309
H	-0.512718	0.127232	1.44714
H	-0.447127	0.0720395	-1.42425
C	14.4889	-0.339463	-0.0838504
O	13.3997	-0.511822	-0.606974
O	14.7308	0.752093	0.641059
H	15.2709	-1.08697	-0.211788
H	13.9657	1.31562	0.669235
