10
  This energy is 0.000140384 and Call times are: 9779
C	-0.349752	0.237818	-0.163875
O	-0.628102	-0.935875	0.0225589
O	0.870358	0.699492	0.107608
H	-1.10802	0.914234	-0.556547
H	1.42768	0.00566839	0.441941
C	4.69376	0.113845	-0.166586
O	5.54262	0.964333	-0.380825
O	5.00038	-1.00324	0.491918
H	3.67473	0.271003	-0.518114
H	5.9185	-1.0091	0.738501
