10
  This energy is 4.289e-05 and Call times are: 1048
C	0.344998	-0.165551	0.243532
O	-0.207655	0.77376	0.793131
O	-0.0747993	-0.602779	-0.943109
H	1.19057	-0.650849	0.729536
H	-0.815651	-0.0915455	-1.24898
C	10.3098	0.14868	-0.125217
O	9.86789	-0.699702	-0.883328
O	9.60787	0.545894	0.935441
H	11.289	0.585086	-0.318997
H	8.77738	0.0856531	0.982855
