10
  This energy is 1.0142e-05 and Call times are: 12454
C	0.322941	-0.30466	0.0928989
O	0.201445	0.531935	0.973318
O	-0.44503	-0.26418	-0.995263
H	1.06775	-1.09249	0.199146
H	-1.04707	0.470568	-0.956982
C	9.93836	-0.390362	0.165008
O	10.9864	-0.0567071	0.694254
O	9.38744	0.360967	-0.787626
H	9.44907	-1.31271	0.475795
H	9.91685	1.13185	-0.958632
