10
  This energy is -0.000829476 and Call times are: 4995
C	0.0681756	0.112151	0.434181
O	-0.20615	1.07715	-0.261028
O	0.141653	-1.10879	-0.0944258
H	0.254754	0.251965	1.4983
H	-0.0428956	-1.08519	-1.02671
C	4.13896	0.16934	-0.397182
O	4.5478	0.813937	0.555255
O	3.37163	-0.904426	-0.213453
H	4.40503	0.476317	-1.40796
H	3.21911	-1.05649	0.712501
