10
  This energy is -0.00380991 and Call times are: 186
C	-0.180606	0.358273	-0.211569
O	0.684524	-0.190191	-0.875292
O	-0.506387	-0.101793	0.995793
H	-0.691202	1.23338	-0.611807
H	0.0144662	-0.86527	1.21849
C	3.54664	-0.394409	-0.163282
O	4.28401	0.181658	-0.947001
O	3.2674	0.138319	1.02573
H	3.11274	-1.35451	-0.44014
H	3.71032	0.972394	1.13488
