10
  This energy is -0.0028463 and Call times are: 4592
C	0.22371	-0.247881	-0.306998
O	0.179391	-0.786643	0.787334
O	-0.346034	0.940384	-0.504312
H	0.734958	-0.744999	-1.13053
H	-0.753884	1.25649	0.294134
C	4.23078	0.336264	-0.302849
O	5.27524	-0.284116	-0.18443
O	3.15706	0.00451575	0.413097
H	4.17717	1.17007	-1.00185
H	3.34364	-0.736459	0.978715
