10
  This energy is 3.2143e-05 and Call times are: 3233
C	0.166926	-0.283614	0.31215
O	0.989532	0.536429	-0.0628682
O	-1.06889	-0.285003	-0.186121
H	0.447439	-1.02189	1.06246
H	-1.17554	0.40852	-0.827548
C	4.53394	0.345441	0.291989
O	4.26697	0.714263	-0.840479
O	4.69407	-0.948596	0.566476
H	4.64222	1.08329	1.08607
H	4.57206	-1.47736	-0.214104
