10
  This energy is -5.489e-06 and Call times are: 1090
C	-0.0871084	-0.410164	-0.172965
O	-0.9563	-0.0322253	0.596099
O	0.974583	0.353358	-0.428624
H	-0.181582	-1.38252	-0.654944
H	0.928604	1.16967	0.056456
C	11.7622	0.376616	0.249941
O	11.0887	0.420172	-0.767061
O	12.5037	-0.694503	0.530012
H	11.7561	1.22336	0.935288
H	12.4153	-1.35381	-0.149158
