10
  This energy is 8.686e-06 and Call times are: 7007
C	-0.173981	0.351019	0.228594
O	-0.801891	-0.680529	0.405873
O	0.896666	0.368475	-0.564453
H	-0.493425	1.26672	0.72474
H	1.06083	-0.493709	-0.929784
C	8.89784	-0.441931	-0.0293882
O	8.86104	-0.046379	1.12472
O	8.66516	0.39177	-1.04246
H	9.12349	-1.48822	-0.23204
H	8.48276	1.26861	-0.72361
