10
  This energy is -0.00193013 and Call times are: 11404
C	-0.00877594	0.111298	0.43963
O	0.870643	0.694811	-0.173498
O	-0.817961	-0.74588	-0.181642
H	-0.132391	0.294194	1.50639
H	-0.599206	-0.808889	-1.10466
C	3.91467	-0.193638	-0.294668
O	3.53389	-0.294115	0.860626
O	5.05566	0.431057	-0.583455
H	3.3142	-0.619778	-1.0975
H	5.47483	0.752008	0.20716
