10
  This energy is 8.76e-07 and Call times are: 12622
C	-0.276398	-0.307948	-0.185772
O	0.889426	-0.469922	-0.508898
O	-0.62512	0.687592	0.628358
H	-1.03915	-0.985393	-0.567849
H	0.135456	1.1975	0.883892
C	14.3497	-0.338392	-0.29782
O	15.3621	0.313653	-0.496859
O	13.5281	-0.0308252	0.705141
H	14.1164	-1.18075	-0.947983
H	13.8514	0.721242	1.18849
