10
  This energy is 6.698e-06 and Call times are: 7385
C	-0.380735	-0.208346	-0.131803
O	0.568169	-0.972157	-0.054563
O	-0.238634	1.08503	0.155432
H	-1.35389	-0.589487	-0.439046
H	0.65727	1.27888	0.407537
C	18.2293	-0.0555158	0.306984
O	18.3748	-0.772043	-0.670356
O	17.191	0.775147	0.393494
H	18.9569	-0.0965441	1.11668
H	16.6394	0.708291	-0.377903
