10
  This energy is -7.6298e-05 and Call times are: 9149
C	0.227351	0.257379	0.296322
O	-0.48187	0.915543	-0.447733
O	0.277595	-1.06998	0.190968
H	0.825286	0.761894	1.05437
H	-0.290328	-1.37539	-0.507581
C	9.34527	-0.41092	0.113764
O	8.56551	0.480839	0.407936
O	10.5071	-0.132137	-0.476029
H	9.08729	-1.44561	0.336382
H	10.602	0.804216	-0.610271
