10
  This energy is -7.0159e-05 and Call times are: 9527
C	-0.0242007	0.0915936	-0.443581
O	-1.12479	-0.00246591	0.0757011
O	1.0847	-0.0697543	0.277407
H	0.0509209	0.309869	-1.5082
H	0.873458	-0.254272	1.18576
C	6.79868	-0.0693913	-0.331857
O	6.81389	1.08919	0.0518782
O	7.60823	-0.977309	0.212043
H	6.11531	-0.363054	-1.12777
H	8.1473	-0.586325	0.890509
