10
  This energy is -0.00276411 and Call times are: 10598
C	-0.16925	0.294104	0.300992
O	0.217134	-0.739461	0.822759
O	-0.0725075	0.469104	-1.0164
H	-0.597674	1.0813	0.92025
H	0.317571	-0.292386	-1.43083
C	3.27551	-0.285546	0.34424
O	3.23347	0.88016	0.703619
O	3.10886	-0.609142	-0.937566
H	3.45127	-1.06898	1.08048
H	2.96493	0.167665	-1.46637
