10
  This energy is -0.00769974 and Call times are: 11278
C	-0.440011	0.109131	0.0148352
O	-0.105286	-0.612692	0.940429
O	0.446069	0.494586	-0.902662
H	-1.47478	0.441146	-0.0608231
H	1.30544	0.133875	-0.715199
C	3.97298	0.088928	-0.426259
O	3.06949	-0.388023	0.241581
O	5.17631	0.29763	0.106615
H	3.79227	0.346353	-1.46923
H	5.19335	0.0293961	1.0185
