10
  This energy is -0.000137344 and Call times are: 13168
C	-0.428418	-0.14834	0.0138789
O	0.367655	-1.03943	-0.235158
O	-0.0111319	1.10153	0.211871
H	-1.4914	-0.378732	0.0746555
H	0.934215	1.15933	0.129676
C	10.2224	0.100505	0.131164
O	9.37597	0.659517	0.810013
O	9.86926	-0.703947	-0.870662
H	11.2778	0.261883	0.347749
H	8.92295	-0.753441	-0.946957
