10
  This energy is 0.000205434 and Call times are: 8351
C	0.404602	0.201633	-0.0371541
O	-0.277653	0.681808	0.853773
O	-0.0553933	-0.804661	-0.779643
H	1.40028	0.601058	-0.226318
H	-0.932116	-1.05211	-0.507787
C	5.77633	-0.297509	-0.111642
O	6.70533	-0.297459	-0.903311
O	5.78124	0.515981	0.94369
H	4.93459	-0.970459	-0.270758
H	6.57113	1.04476	0.959229
