10
  This energy is -0.00188313 and Call times are: 7889
C	0.160399	0.424265	0.00327288
O	-0.829223	0.303386	-0.700877
O	0.659382	-0.62136	0.661452
H	0.639981	1.39818	0.09376
H	0.145677	-1.40334	0.492968
C	4.18736	0.110173	-0.431242
O	4.56528	0.963288	0.355624
O	3.59042	-0.999357	0.00248954
H	4.34036	0.258717	-1.49953
H	3.52247	-0.99809	0.950729
