10
  This energy is 1.2031e-05 and Call times are: 5831
C	-0.255898	0.374344	-0.0110234
O	0.797698	0.544821	0.581146
O	-0.55435	-0.810812	-0.541916
H	-0.959039	1.20097	-0.105829
H	0.143866	-1.43676	-0.385526
C	11.5959	0.156957	0.425543
O	12.69	-0.27153	0.0951432
O	10.5705	0.133718	-0.425072
H	11.4576	0.562541	1.42708
H	10.8305	-0.244231	-1.25773
