10
  This energy is -6.2631e-05 and Call times are: 1132
C	0.336266	0.300997	0.0454416
O	-0.717202	0.822195	-0.283724
O	0.414831	-1.01587	0.233041
H	1.22118	0.920335	0.187066
H	-0.426194	-1.43044	0.076238
C	9.80614	-0.339914	0.280948
O	8.64721	-0.390889	-0.0986294
O	10.6139	0.637873	-0.127681
H	10.183	-1.10276	0.96122
H	10.1575	1.23024	-0.71471
