10
  This energy is -0.000769952 and Call times are: 8267
C	0.0275192	-0.329601	-0.310395
O	0.258066	-0.730061	0.819326
O	-0.266158	0.951096	-0.531948
H	0.0625638	-1.02788	-1.14579
H	-0.261813	1.44439	0.280712
C	4.48787	0.441022	0.0593124
O	5.36857	-0.132395	-0.561444
O	3.41319	-0.22168	0.485243
H	4.5827	1.50624	0.266719
H	3.46048	-1.13799	0.236417
