10
  This energy is 0.000459901 and Call times are: 1997
C	-0.0570284	0.0510365	-0.447082
O	0.672829	0.903966	0.0320964
O	-0.59257	-0.896609	0.321475
H	-0.272142	0.0658382	-1.51489
H	-0.322599	-0.790279	1.22679
C	6.10374	0.290356	-0.334913
O	5.10154	-0.171959	0.186289
O	7.31647	-0.0656124	0.0871039
H	6.00427	1.00167	-1.15396
H	7.25602	-0.688472	0.802764
