10
  This energy is 0.000398696 and Call times are: 4634
C	0.228396	0.102936	-0.378125
O	-0.863087	0.646925	-0.327799
O	0.637947	-0.69393	0.608175
H	0.873799	0.271582	-1.23936
H	-0.0201371	-0.751208	1.29186
C	6.26928	0.162298	0.388258
O	6.86397	0.579878	-0.592436
O	5.24297	-0.677131	0.255704
H	6.58199	0.480133	1.38219
H	5.07949	-0.869117	-0.660917
