10
  This energy is -1.239e-05 and Call times are: 6587
C	0.383155	0.193071	0.147156
O	0.365463	-1.01315	0.332945
O	-0.647818	0.807921	-0.431263
H	1.25191	0.772109	0.458093
H	-1.3329	0.186113	-0.649892
C	13.8664	0.343642	-0.28851
O	14.8855	0.0256177	0.303232
O	12.7193	-0.29474	-0.0602127
H	13.8964	1.15846	-1.01092
H	12.8367	-0.978977	0.589264
