10
  This energy is -0.000448513 and Call times are: 11530
C	-0.401915	0.0787978	0.194921
O	0.511256	0.668333	0.75022
O	-0.168043	-0.695215	-0.864193
H	-1.41877	0.187471	0.570298
H	0.757251	-0.699069	-1.08235
C	5.84797	0.375334	0.204331
O	7.02239	0.46032	-0.117116
O	5.15102	-0.731533	-0.049864
H	5.36553	1.21429	0.704445
H	5.69253	-1.37899	-0.487293
