10
  This energy is -0.00015571 and Call times are: 9401
C	0.198173	-0.35593	-0.199451
O	-1.0155	-0.469783	-0.137628
O	0.806137	0.725225	0.287374
H	0.789631	-1.14759	-0.657889
H	0.173539	1.33153	0.656143
C	5.21757	-0.167781	-0.379879
O	4.96825	-0.850835	0.600461
O	5.95264	0.938157	-0.269902
H	4.83435	-0.466695	-1.35481
H	6.21927	1.07857	0.631745
