10
  This energy is -1.55e-06 and Call times are: 6503
C	-0.0317851	-0.399549	-0.212343
O	0.209529	-0.519984	0.978058
O	-0.173496	0.807118	-0.759508
H	-0.132153	-1.28909	-0.833108
H	-0.0612596	1.48943	-0.107101
C	17.645	0.237164	0.153116
O	17.3564	-0.480467	-0.791095
O	18.8892	0.268542	0.62899
H	16.876	0.858288	0.610865
H	19.4535	-0.318764	0.138726
