10
  This energy is 0.00030058 and Call times are: 8813
C	0.401183	0.211576	-0.00520823
O	-0.332958	0.577847	-0.908909
O	-0.000305817	-0.713991	0.865222
H	1.39526	0.646927	0.089641
H	-0.882941	-1.00541	0.665711
C	6.67733	0.169582	0.186026
O	6.09502	-0.603073	0.930144
O	6.19722	0.437894	-1.02766
H	7.59952	0.644333	0.519002
H	5.39207	-0.0420083	-1.18638
