10
  This energy is -0.00108758 and Call times are: 7931
C	-0.279463	0.26109	-0.243867
O	-0.429998	0.40956	0.958251
O	0.627348	-0.593524	-0.715931
H	-0.893828	0.83414	-0.93732
H	1.08927	-1.02327	-0.00478851
C	4.09101	0.13957	-0.421872
O	4.31761	0.999039	0.414644
O	3.62746	-1.05636	-0.0608024
H	4.27014	0.353856	-1.47482
H	3.51805	-1.10588	0.882254
