10
  This energy is 2.469e-05 and Call times are: 6251
C	0.0077924	0.118996	-0.437628
O	-1.08001	-0.310805	-0.0886953
O	1.01709	0.200806	0.428475
H	0.153772	0.438869	-1.46868
H	0.751942	-0.109976	1.2869
C	10.5134	0.301299	0.327821
O	11.6517	0.392529	-0.103168
O	9.67168	-0.609034	-0.160273
H	10.1834	0.97205	1.12018
H	10.0885	-1.12346	-0.842488
