10
  This energy is -0.00142364 and Call times are: 2448
C	0.214435	0.383517	-0.112568
O	-0.962115	0.566513	0.155822
O	0.742756	-0.838582	-0.0590315
H	0.838298	1.22941	-0.398858
H	0.0898318	-1.47794	0.203046
C	6.71027	-0.0279665	-0.32968
O	6.99973	-0.704463	0.644156
O	5.5876	0.689437	-0.350809
H	7.37793	-0.0114018	-1.1903
H	5.10301	0.582858	0.460112
