10
  This energy is -0.00406875 and Call times are: 5663
C	-0.392009	0.085076	0.211731
O	0.521517	-0.137935	0.989887
O	-0.185561	0.0637223	-1.10449
H	-1.3865	0.303825	0.598835
H	0.72221	-0.139001	-1.30104
C	3.70593	-0.119941	0.323844
O	4.37426	-1.06086	-0.0733865
O	3.87687	1.09949	-0.185359
H	2.9619	-0.280219	1.10323
H	4.55393	1.0953	-0.852701
