10
  This energy is -0.000491516 and Call times are: 1216
C	0.260651	0.0472257	-0.368198
O	0.0986116	1.09948	0.228713
O	-0.298577	-1.07884	0.0731088
H	0.869344	0.0298885	-1.27147
H	-0.799271	-0.91969	0.865418
C	5.82043	-0.282377	-0.152722
O	4.99585	-0.845729	0.549053
O	5.72544	1.02351	-0.399983
H	6.64253	-0.854623	-0.580974
H	4.96543	1.39525	0.0335738
