10
  This energy is 3.1751e-05 and Call times are: 8561
C	0.220492	-0.37081	0.14008
O	-0.98231	-0.439452	0.335904
O	0.757123	0.708201	-0.428496
H	0.861153	-1.20146	0.433826
H	0.0873674	1.35139	-0.632229
C	10.4506	0.234487	-0.166919
O	10.0487	0.684943	0.893926
O	9.87268	-0.83349	-0.715551
H	11.2909	0.711729	-0.669653
H	9.15679	-1.14619	-0.173805
