10
  This energy is -0.000822723 and Call times are: 8141
C	0.0704463	0.349907	-0.279896
O	-1.0965	-0.00744142	-0.261752
O	0.983406	-0.26835	0.468287
H	0.367483	1.18354	-0.915142
H	0.588615	-0.972802	0.96995
C	4.21076	0.303924	-0.172365
O	4.09151	-0.79804	-0.683486
O	5.11466	0.516875	0.783214
H	3.57059	1.1214	-0.501934
H	5.60118	-0.277873	0.971489
