10
  This energy is 8.676e-06 and Call times are: 12790
C	-0.248226	-0.0748812	0.372177
O	-0.734628	0.779857	-0.350753
O	0.891376	-0.679919	0.0393843
H	-0.752305	-0.34511	1.29932
H	1.22019	-0.349375	-0.789108
C	13.8494	0.121808	0.410156
O	14.0436	1.07986	-0.320759
O	14.0772	-1.11896	-0.0189259
H	13.4859	0.284286	1.42414
H	14.3897	-1.11413	-0.916765
