10
  This energy is 2.7951e-05 and Call times are: 6083
C	0.317968	-0.28429	-0.154321
O	-0.619017	-0.868042	0.366336
O	0.336211	1.04616	-0.225615
H	1.14775	-0.858456	-0.564817
H	-0.445385	1.41658	0.168941
C	11.3313	0.302857	0.0652183
O	11.2464	-0.0546454	-1.09873
O	10.5058	-0.186597	0.98963
H	12.0907	1.03008	0.350075
H	9.89736	-0.80746	0.604824
