10
  This energy is 4.097e-06 and Call times are: 12538
C	0.345606	-0.285541	0.0690086
O	0.162737	0.46508	1.01395
O	-0.426197	-0.215888	-1.01496
H	1.14892	-1.01998	0.113604
H	-1.0827	0.465015	-0.91931
C	13.5705	-0.246058	0.191317
O	14.6825	-0.693573	0.421362
O	13.418	0.850772	-0.549788
H	12.6939	-0.749821	0.596917
H	14.2606	1.18472	-0.836674
