10
  This energy is -0.00962175 and Call times are: 2125
C	-0.297831	0.311542	0.141341
O	0.859542	0.673601	0.279879
O	-0.579938	-0.883391	-0.376409
H	-1.10807	0.973507	0.444701
H	0.216778	-1.35346	-0.59562
C	4.62236	0.0545022	0.15613
O	4.59574	-0.249258	-1.02574
O	3.49263	0.193256	0.848926
H	5.58087	0.213623	0.648737
H	2.7358	0.0262182	0.298399
