10
  This energy is -0.00385553 and Call times are: 3317
C	-0.362607	0.030284	0.27081
O	0.596887	-0.477961	0.828349
O	-0.280109	0.428996	-0.997944
H	-1.29601	0.158753	0.817577
H	0.586025	0.257763	-1.35046
C	3.58385	-0.156137	0.40972
O	4.36282	0.781629	0.469687
O	3.16344	-0.617645	-0.767471
H	3.22923	-0.619958	1.3294
H	3.54982	-0.123496	-1.48183
