10
  This energy is -0.000560426 and Call times are: 8645
C	0.333572	0.0413773	-0.30456
O	0.553585	0.669097	0.718843
O	-0.787024	-0.666486	-0.441341
H	1.06213	0.060904	-1.11421
H	-1.32906	-0.595017	0.336388
C	6.27668	-0.185223	-0.171875
O	6.37119	1.02363	-0.0321496
O	5.15711	-0.824034	0.165736
H	7.11756	-0.746821	-0.577131
H	4.50945	-0.215566	0.503498
