10
  This energy is 0.000104668 and Call times are: 2490
C	0.321969	0.191633	-0.25564
O	0.775957	-0.606973	0.548048
O	-0.988573	0.424234	-0.318028
H	0.996673	0.719324	-0.92871
H	-1.45594	-0.100856	0.321993
C	7.97724	0.22891	-0.221735
O	9.09533	0.459574	-0.653546
O	7.80052	-0.615579	0.793707
H	7.11526	0.719471	-0.672333
H	8.63246	-0.969143	1.08805
