10
  This energy is -0.000324698 and Call times are: 1955
C	-0.367449	-0.250287	0.0898706
O	0.613788	-0.617732	0.715929
O	-0.292311	0.782247	-0.749023
H	-1.31437	-0.773063	0.21928
H	0.58745	1.14221	-0.76412
C	4.22847	-0.422754	0.14799
O	5.16611	-0.351578	-0.630185
O	3.53573	0.66583	0.480575
H	3.95603	-1.38739	0.57455
H	3.87948	1.43365	0.0377802
