10
  This energy is -0.00477767 and Call times are: 4869
C	-0.160307	0.161422	-0.392407
O	0.415756	1.01405	0.264078
O	-0.267725	-1.08778	0.0586575
H	-0.590883	0.425944	-1.35747
H	0.150277	-1.17772	0.907753
C	3.51117	0.343655	0.0649585
O	4.66486	0.64647	0.324004
O	3.20794	-0.882962	-0.358096
H	2.72174	1.08525	0.181326
H	3.9878	-1.42379	-0.413709
