10
  This energy is 1.6603e-05 and Call times are: 11740
C	-0.0432057	-0.426492	0.148246
O	-0.406635	-0.294238	-1.00943
O	0.419262	0.614447	0.839683
H	-0.0980527	-1.40679	0.620166
H	0.412098	1.40302	0.308757
C	8.43436	-0.0905059	0.0942515
O	7.93278	0.682165	0.894994
O	7.72182	-0.575066	-0.922122
H	9.47602	-0.386393	0.212959
H	6.83396	-0.23571	-0.904651
