10
  This energy is -0.000933729 and Call times are: 4157
C	-0.0157938	-0.0464436	-0.450924
O	-0.11982	1.11681	-0.0962277
O	0.125951	-1.02154	0.446076
H	-0.0392451	-0.288752	-1.51274
H	0.129994	-0.670263	1.32946
C	3.93066	0.226396	0.212483
O	3.07647	0.967364	-0.247001
O	3.83575	-1.09469	0.066776
H	4.77937	0.651059	0.747321
H	3.05073	-1.3259	-0.417022
