10
  This energy is -0.00248022 and Call times are: 10514
C	-0.148835	-0.243827	0.352329
O	-0.983293	0.548693	-0.0543431
O	1.04874	-0.327937	-0.225821
H	-0.387027	-0.888858	1.19726
H	1.12049	0.288506	-0.945978
C	4.25059	-0.286522	0.0394535
O	4.20425	0.622937	0.852182
O	5.24995	-0.364674	-0.838431
H	3.46572	-1.04193	0.0327988
H	5.86026	0.354674	-0.720802
