10
  This energy is -2.863e-06 and Call times are: 6335
C	0.145456	0.40219	-0.151078
O	-1.07097	0.30487	-0.17593
O	0.900184	-0.605393	0.285589
H	0.617999	1.3234	-0.489874
H	0.360644	-1.3427	0.548367
C	14.0526	0.270781	-0.108457
O	13.7246	-0.902188	-0.0287915
O	15.3132	0.641632	0.11264
H	13.3057	1.02167	-0.363179
H	15.8548	-0.110611	0.323812
