10
  This energy is -0.00275244 and Call times are: 5037
C	-0.0954807	0.0642229	0.438746
O	0.644206	-0.889202	0.255345
O	-0.535187	0.791904	-0.587243
H	-0.39873	0.321988	1.4528
H	-0.194603	0.457505	-1.40941
C	4.19963	0.0810855	0.198639
O	3.2545	0.416994	0.894106
O	4.00228	-0.458891	-1.00344
H	5.2151	0.224861	0.565884
H	3.07366	-0.52541	-1.19582
