10
  This energy is -0.000463888 and Call times are: 2532
C	0.228073	0.332997	0.206965
O	-0.648269	-0.142146	0.911276
O	0.434677	-0.127419	-1.02626
H	0.847362	1.14228	0.592002
H	-0.173132	-0.829034	-1.2314
C	6.1589	-0.265118	0.365735
O	5.43305	0.714976	0.414094
O	6.95898	-0.46872	-0.680181
H	6.15159	-0.980441	1.1873
H	6.86433	0.228899	-1.31905
