10
  This energy is -0.00105908 and Call times are: 12034
C	-0.132414	-0.414809	0.127039
O	-0.801322	0.467763	0.640283
O	0.863412	-0.116688	-0.706609
H	-0.352998	-1.45722	0.353835
H	0.944224	0.824455	-0.813835
C	4.96764	-0.265587	0.00666433
O	5.1767	0.809745	-0.531615
O	3.76427	-0.558138	0.49842
H	5.77454	-0.99321	0.085251
H	3.15915	0.16232	0.362228
