10
  This energy is -9.7e-05 and Call times are: 2616
C	-0.32977	0.0944403	-0.296769
O	0.674695	-0.341339	-0.836155
O	-0.379672	0.249063	1.02577
H	-1.19421	0.359478	-0.904397
H	0.438485	-0.0194655	1.42862
C	4.1413	-0.421978	-0.0498864
O	5.09728	-0.367824	0.707055
O	3.66954	0.680611	-0.630618
H	3.66954	-1.38285	-0.252041
H	4.17244	1.44312	-0.367084
