10
  This energy is -0.00124507 and Call times are: 11572
C	-0.304334	0.126019	-0.311831
O	-0.817076	-0.437582	0.64171
O	1.01365	0.315391	-0.362539
H	-0.932218	0.477567	-1.12968
H	1.4361	-0.0387853	0.411974
C	4.30416	0.211162	-0.271348
O	4.71293	0.930979	0.625625
O	4.72585	-1.04823	-0.379163
H	3.58677	0.603863	-0.990956
H	5.34608	-1.25725	0.310326
