10
  This energy is -0.00072475 and Call times are: 11782
C	0.0757542	-0.0779252	0.440373
O	1.0752	-0.237314	-0.241905
O	-1.07829	0.28617	-0.117417
H	0.129177	-0.235381	1.51697
H	-0.982043	0.387852	-1.05772
C	5.64263	-0.231932	-0.29276
O	6.60442	0.293927	-0.829625
O	5.43518	-0.0959274	1.01643
H	4.947	-0.818592	-0.891618
H	6.1148	0.437771	1.41274
