44
  This energy is -7.6704 and Call times are: 117187
C	0.429743	-1.24495	-3.22151
C	0.787895	-0.318784	-2.12374
O	1.8028	0.36214	-2.17581
H	1.21376	-1.20232	-4.00851
H	-0.543648	-0.95136	-3.66767
H	0.361709	-2.28484	-2.83799
N	-0.0518475	-0.274654	-1.08679
C	0.184374	0.545767	0.0749609
C	-0.477478	-0.120042	1.26668
O	-1.22009	-1.08817	1.1151
H	-0.852519	-0.865108	-1.04035
H	1.24783	0.583002	0.275744
C	-0.377977	1.9693	-0.131345
H	-1.47088	1.93241	-0.326914
H	-0.190069	2.61485	0.750968
H	0.114635	2.43428	-1.01309
N	-0.214668	0.38224	2.48925
C	-0.794896	-0.189412	3.68204
H	0.392048	1.16351	2.59211
H	-0.457777	0.362743	4.58685
H	-0.495965	-1.2571	3.79137
H	-1.90721	-0.145092	3.63814
C	6.92532	-2.23003	2.19389
C	5.74189	-1.72683	1.46077
O	4.70409	-2.37278	1.41456
H	6.69176	-3.2261	2.6288
H	7.19148	-1.53251	3.0157
H	7.7883	-2.33309	1.50273
N	5.87569	-0.542343	0.859547
C	4.82654	0.0571444	0.0731308
C	5.4702	0.936342	-0.982465
O	6.67684	1.17097	-0.956395
H	6.73985	-0.0474388	0.871808
H	4.27939	-0.720698	-0.444767
C	3.87574	0.887362	0.963056
H	4.43473	1.69211	1.48646
H	3.05553	1.34284	0.371178
H	3.42233	0.225539	1.73296
N	4.67495	1.43915	-1.94723
C	5.19973	2.28148	-2.99664
H	3.70168	1.23475	-1.95387
H	4.38994	2.59347	-3.69244
H	5.97665	1.73988	-3.58345
H	5.66681	3.19783	-2.56853
