44
  This energy is -4.3645 and Call times are: 114416
C	-3.00087	-1.30875	-1.18094
C	-1.67387	-1.46148	-0.543079
O	-1.3479	-2.50969	-0.00325775
H	-3.57895	-2.25009	-1.05605
H	-2.88268	-1.10077	-2.26515
H	-3.5612	-0.477007	-0.704143
N	-0.866846	-0.399001	-0.590437
C	0.437665	-0.381297	0.0231583
C	0.759335	1.05013	0.409304
O	0.0411381	1.97806	0.0420804
H	-1.16199	0.460664	-0.997537
H	0.411049	-0.963407	0.935886
C	1.50871	-0.935594	-0.941649
H	1.5437	-0.332334	-1.87379
H	2.51543	-0.940085	-0.47579
H	1.24881	-1.98104	-1.21702
N	1.85003	1.26201	1.17188
C	2.23163	2.58989	1.59292
H	2.41649	0.498005	1.46255
H	3.15476	2.5559	2.21252
H	1.42118	3.05851	2.19695
H	2.42528	3.24161	0.710362
C	4.65936	1.26901	-3.14281
C	4.78571	0.148444	-2.18389
O	4.3211	-0.954969	-2.43495
H	4.09272	0.926193	-4.0357
H	5.66491	1.61205	-3.46519
H	4.11343	2.1145	-2.67357
N	5.42687	0.412991	-1.04314
C	5.59135	-0.563446	0.00475014
C	5.68172	0.173328	1.32784
O	5.77783	1.39863	1.36108
H	5.76366	1.32697	-0.835617
H	4.71226	-1.1944	0.0462823
C	6.85857	-1.41491	-0.22853
H	7.76192	-0.769183	-0.260697
H	6.98878	-2.17973	0.564328
H	6.77406	-1.93863	-1.20573
N	5.6442	-0.561737	2.45668
C	5.71849	0.0527899	3.76168
H	5.562	-1.55174	2.40958
H	5.67151	-0.717765	4.56247
H	4.87369	0.763931	3.90962
H	6.67082	0.619553	3.87561
