44
  This energy is -2.0038 and Call times are: 113535
C	-1.54116	-3.12004	0.0533532
C	-1.59326	-1.64072	0.0470601
O	-2.64683	-1.04521	-0.131137
H	-2.55883	-3.52422	-0.13864
H	-1.18934	-3.4864	1.04065
H	-0.854915	-3.48217	-0.741018
N	-0.435541	-1.0053	0.242739
C	-0.320015	0.431622	0.220833
C	1.08385	0.786411	-0.23177
O	1.94626	-0.0821029	-0.348587
H	0.420517	-1.50375	0.345556
H	-1.00695	0.83408	-0.51318
C	-0.606535	1.02945	1.61573
H	0.104673	0.624883	2.36709
H	-0.534309	2.13637	1.60871
H	-1.63597	0.750584	1.93014
N	1.34403	2.07974	-0.506804
C	2.64973	2.51061	-0.949152
H	0.632103	2.76742	-0.410272
H	2.66322	3.60909	-1.12342
H	2.93022	2.0015	-1.89963
H	3.42358	2.26699	-0.185639
C	8.83943	-2.96106	0.565056
C	8.10612	-2.02914	-0.320921
O	8.10265	-2.18047	-1.5348
H	9.3468	-3.73309	-0.0533184
H	8.134	-3.46357	1.25974
H	9.60493	-2.40968	1.15078
N	7.45976	-1.02601	0.277686
C	6.7381	-0.0150037	-0.45418
C	6.75211	1.26214	0.364529
O	7.17103	1.26463	1.52047
H	7.50572	-0.892399	1.26353
H	7.25545	0.191449	-1.38281
C	5.28681	-0.464731	-0.731167
H	4.7524	-0.666517	0.221587
H	4.72479	0.29945	-1.30622
H	5.30087	-1.40499	-1.3245
N	6.29878	2.38677	-0.223436
C	6.27918	3.6503	0.476044
H	5.96763	2.36567	-1.16097
H	5.87208	4.4544	-0.175823
H	7.30767	3.94116	0.790521
H	5.64465	3.58417	1.38936
