44
  This energy is -3.2707 and Call times are: 113607
C	-0.212718	3.46321	-0.271331
C	-0.144807	2.11088	-0.869431
O	-0.36094	1.93389	-2.06039
H	-0.492681	4.19853	-1.0567
H	0.775136	3.74556	0.149579
H	-0.977769	3.48787	0.533145
N	0.160247	1.10993	-0.0403245
C	0.221485	-0.26599	-0.466549
C	-0.117837	-1.14501	0.722456
O	-0.222659	-0.666235	1.85006
H	0.293272	1.26417	0.93455
H	-0.534307	-0.439818	-1.22232
C	1.62378	-0.612292	-1.01326
H	2.39835	-0.444172	-0.234927
H	1.67966	-1.66531	-1.35757
H	1.8542	0.0483411	-1.87745
N	-0.30677	-2.45968	0.494424
C	-0.638386	-3.37231	1.56368
H	-0.221677	-2.82777	-0.425542
H	-0.753487	-4.40815	1.17508
H	-1.59359	-3.07344	2.0531
H	0.160896	-3.37555	2.33974
C	4.65513	0.738369	-3.18432
C	4.95281	-0.216462	-2.09306
O	4.53634	-1.36617	-2.12679
H	4.02143	0.237355	-3.94803
H	5.59733	1.07635	-3.66471
H	4.10809	1.61809	-2.78443
N	5.69142	0.248439	-1.08276
C	6.02698	-0.548779	0.0706707
C	6.2077	0.383589	1.25372
O	6.22783	1.60294	1.09727
H	5.98865	1.1984	-1.04981
H	5.19941	-1.20754	0.302615
C	7.31492	-1.36404	-0.177924
H	8.16659	-0.688113	-0.405554
H	7.5762	-1.99265	0.697923
H	7.1625	-2.03333	-1.05266
N	6.33574	-0.172736	2.47442
C	6.50646	0.635426	3.65929
H	6.31284	-1.16122	2.58145
H	6.59308	-0.00613628	4.56379
H	5.63784	1.31946	3.79669
H	7.42709	1.2579	3.58121
