44
  This energy is -4.1321 and Call times are: 113655
C	0.330648	2.67134	-2.2062
C	0.899652	1.56158	-1.40882
O	2.05576	1.19517	-1.56869
H	1.09888	3.04338	-2.91843
H	0.0255391	3.50473	-1.53903
H	-0.550707	2.31676	-2.78116
N	0.0842206	0.991584	-0.518564
C	0.481108	-0.12706	0.299775
C	-0.758465	-0.939576	0.623548
O	-1.87887	-0.51789	0.343224
H	-0.866633	1.27384	-0.428709
H	1.14666	-0.76604	-0.26713
C	1.16712	0.354322	1.59704
H	0.481028	1.00134	2.18415
H	1.48983	-0.498097	2.22931
H	2.06684	0.953217	1.33595
N	-0.584018	-2.13625	1.21817
C	-1.70456	-2.98151	1.55892
H	0.330574	-2.46222	1.43343
H	-1.35582	-3.92211	2.0394
H	-2.28662	-3.24858	0.647239
H	-2.38988	-2.45978	2.26551
C	7.62509	1.77797	2.54375
C	6.43578	1.45208	1.72491
O	5.32376	1.85697	2.0346
H	7.31272	2.38952	3.41799
H	8.3565	2.35783	1.94246
H	8.10452	0.845796	2.91017
N	6.64803	0.697703	0.644058
C	5.58382	0.262857	-0.225961
C	5.99637	-1.05403	-0.856176
O	7.14006	-1.48515	-0.722683
H	7.55261	0.341679	0.427671
H	4.69522	0.0740338	0.363401
C	5.29642	1.31835	-1.31618
H	6.20484	1.5047	-1.92782
H	4.46948	1.00132	-1.98414
H	5.00423	2.27577	-0.832118
N	5.06473	-1.73157	-1.55547
C	5.36418	-2.99613	-2.18585
H	4.14355	-1.36858	-1.64893
H	4.469	-3.39504	-2.71193
H	5.68836	-3.74576	-1.42806
H	6.18539	-2.87983	-2.92966
