44
  This energy is -6.704 and Call times are: 120116
C	1.58618	2.25465	-2.12444
C	1.1756	0.881847	-1.753
O	1.28756	-0.047315	-2.54073
H	1.95976	2.25564	-3.1715
H	2.39756	2.6063	-1.45306
H	0.720351	2.94607	-2.05117
N	0.680323	0.72277	-0.523453
C	0.198887	-0.544791	-0.0334853
C	-0.876931	-0.27413	1.00136
O	-1.08527	0.866754	1.40964
H	0.55734	1.49614	0.0918806
H	-0.265221	-1.08909	-0.846491
C	1.34882	-1.37032	0.584085
H	1.81843	-0.816836	1.42501
H	0.993421	-2.35442	0.952546
H	2.12802	-1.54957	-0.188618
N	-1.59539	-1.32408	1.44572
C	-2.64355	-1.16207	2.42618
H	-1.41487	-2.23911	1.10047
H	-3.11642	-2.14091	2.66173
H	-3.43316	-0.473632	2.04692
H	-2.23591	-0.73319	3.37013
C	5.76147	2.73958	2.05757
C	5.26215	2.1403	0.799509
O	4.60408	2.79595	0.00358818
H	5.42478	3.79724	2.11953
H	6.87124	2.71382	2.07965
H	5.36156	2.18336	2.9315
N	5.56787	0.857568	0.590929
C	5.11671	0.125465	-0.566237
C	5.00042	-1.33813	-0.184216
O	5.42571	-1.74274	0.896121
H	6.06947	0.325752	1.26726
H	4.12647	0.466746	-0.841136
C	6.09704	0.300724	-1.74669
H	7.11063	-0.0590043	-1.46868
H	5.75352	-0.247033	-2.64807
H	6.17262	1.37984	-2.00387
N	4.40953	-2.16925	-1.06518
C	4.24946	-3.57725	-0.785741
H	4.06801	-1.82247	-1.93246
H	3.74099	-4.09069	-1.63136
H	3.63905	-3.72826	0.133972
H	5.24005	-4.06136	-0.625968
