44
  This energy is 0.161 and Call times are: 115943
C	3.28098	-0.543058	-1.02614
C	2.28641	-0.0548481	-0.0444878
O	2.61927	0.264213	1.08857
H	4.28484	-0.570457	-0.549281
H	3.31827	0.136472	-1.9034
H	3.01516	-1.56719	-1.36316
N	1.02115	0.0126777	-0.465114
C	-0.0643816	0.427274	0.388285
C	-1.33224	-0.250545	-0.09611
O	-1.34793	-0.873213	-1.15618
H	0.759429	-0.289317	-1.37735
H	0.121697	0.0802795	1.39705
C	-0.228626	1.96277	0.365406
H	-0.430015	2.31817	-0.667632
H	-1.05251	2.29565	1.02943
H	0.71353	2.4379	0.716032
N	-2.42982	-0.151247	0.679446
C	-3.68012	-0.768333	0.302439
H	-2.39645	0.353366	1.53579
H	-4.46179	-0.573655	1.06946
H	-3.55829	-1.87086	0.198206
H	-4.03819	-0.366814	-0.673119
C	2.70658	-2.26818	-1.39111
C	3.4774	-1.73306	-0.246279
O	3.25164	-2.1037	0.89743
H	1.94672	-2.98859	-1.01764
H	3.38408	-2.79383	-2.0964
H	2.18822	-1.44253	-1.9228
N	4.41938	-0.831918	-0.534403
C	5.22148	-0.190055	0.477128
C	5.62532	1.17874	-0.037535
O	5.40911	1.50198	-1.20393
H	4.56366	-0.509859	-1.4657
H	4.62095	-0.0365338	1.36505
C	6.4715	-1.03454	0.808096
H	7.09336	-1.18344	-0.10029
H	7.09017	-0.557627	1.5957
H	6.15226	-2.03439	1.17516
N	6.21804	2.02295	0.829657
C	6.63196	3.34814	0.431303
H	6.38085	1.74484	1.77052
H	7.09828	3.88771	1.28491
H	5.7589	3.94217	0.0760895
H	7.37406	3.29548	-0.39795
