44
  This energy is 0.1141 and Call times are: 116954
C	3.37416	0.58195	0.623748
C	2.28277	-0.104877	-0.103083
O	2.51056	-0.775763	-1.1003
H	4.33873	0.38883	0.105878
H	3.44164	0.198983	1.66371
H	3.19034	1.67688	0.644464
N	1.05149	0.0525858	0.388377
C	-0.116719	-0.5187	-0.234097
C	-1.30561	0.366472	0.0892712
O	-1.20684	1.28011	0.906112
H	0.876765	0.635123	1.17704
H	0.0102592	-0.508151	-1.30946
C	-0.361137	-1.95854	0.268271
H	-0.501959	-1.96858	1.37014
H	-1.25	-2.41437	-0.214077
H	0.524582	-2.58635	0.0280734
N	-2.46291	0.119235	-0.555369
C	-3.64577	0.912889	-0.316367
H	-2.52217	-0.62189	-1.21589
H	-4.49302	0.554054	-0.941375
H	-3.45718	1.98296	-0.562667
H	-3.94945	0.853306	0.753853
C	7.82937	1.40345	-1.36099
C	7.14503	0.436986	-0.472867
O	7.75723	-0.481501	0.0543865
H	8.90251	1.12647	-1.44766
H	7.75557	2.42835	-0.940402
H	7.37072	1.38514	-2.37212
N	5.83643	0.625324	-0.287135
C	5.0266	-0.2573	0.515173
C	3.60898	-0.219107	-0.0237917
O	3.28209	0.602063	-0.878499
H	5.344	1.35322	-0.755678
H	5.38676	-1.27244	0.403868
C	5.053	0.166975	1.99994
H	4.6737	1.20463	2.11592
H	4.44423	-0.513165	2.63028
H	6.10083	0.139348	2.37094
N	2.7312	-1.11927	0.461195
C	1.36186	-1.16205	0.00372805
H	3.01549	-1.77845	1.14948
H	0.799587	-1.97061	0.520749
H	1.31998	-1.35225	-1.09324
H	0.849435	-0.193734	0.206018
