44
  This energy is -2.7342 and Call times are: 124307
C	-0.703783	-1.9894	-2.76761
C	0.23622	-1.22434	-1.91778
O	1.44631	-1.31428	-2.07274
H	-0.1266	-2.61085	-3.48632
H	-1.35704	-1.29507	-3.33672
H	-1.33162	-2.65606	-2.13954
N	-0.310114	-0.442857	-0.983334
C	0.476136	0.328552	-0.0531204
C	-0.329198	0.496227	1.22159
O	-1.5094	0.154966	1.27038
H	-1.29553	-0.411557	-0.842463
H	1.37193	-0.223996	0.201602
C	0.840547	1.7062	-0.648544
H	-0.0781743	2.27771	-0.900266
H	1.45771	2.3043	0.0528166
H	1.4225	1.55916	-1.58452
N	0.297477	1.02197	2.29252
C	-0.386873	1.21397	3.54989
H	1.25394	1.28827	2.23484
H	0.297474	1.65735	4.3064
H	-0.763332	0.242467	3.94453
H	-1.25853	1.89603	3.42283
C	4.58894	-0.0679642	-2.68689
C	5.40297	0.659318	-1.6871
O	5.57857	1.86699	-1.77138
H	4.22873	0.647441	-3.4578
H	3.71161	-0.53942	-2.19621
H	5.2008	-0.851475	-3.18167
N	5.92834	-0.0738978	-0.70284
C	6.77796	0.484911	0.319138
C	7.72295	-0.602248	0.795214
O	7.57244	-1.76876	0.437029
H	5.81038	-1.06228	-0.670597
H	7.38341	1.2729	-0.111128
C	5.93985	1.02792	1.49726
H	5.32646	0.217578	1.94574
H	6.58194	1.47337	2.28454
H	5.25016	1.81633	1.12433
N	8.73108	-0.240387	1.61298
C	9.68289	-1.20528	2.11219
H	8.83894	0.709103	1.88849
H	10.4346	-0.713183	2.76794
H	10.2212	-1.69781	1.27023
H	9.16719	-1.997	2.70241
