44
  This energy is -4.681 and Call times are: 123513
C	1.64141	-1.3743	-2.74404
C	0.561178	-1.38483	-1.73205
O	-0.387483	-2.15131	-1.82678
H	1.41265	-2.12309	-3.53326
H	2.6114	-1.63553	-2.27114
H	1.71725	-0.370316	-3.21239
N	0.683003	-0.516926	-0.724937
C	-0.308944	-0.380117	0.312312
C	-0.261329	1.04615	0.827141
O	0.636064	1.81147	0.479752
H	1.44008	0.128812	-0.683441
H	-1.29297	-0.537405	-0.111466
C	-0.0478027	-1.3793	1.46065
H	0.957409	-1.21146	1.90271
H	-0.81297	-1.29333	2.25918
H	-0.0794205	-2.41585	1.05951
N	-1.23857	1.44071	1.66699
C	-1.27859	2.7811	2.20359
H	-1.95842	0.808295	1.93333
H	-2.15743	2.91064	2.87299
H	-1.34984	3.53088	1.3826
H	-0.356226	2.99755	2.7897
C	4.15721	-2.98025	1.53035
C	4.43891	-1.52757	1.56914
O	4.1434	-0.8513	2.54471
H	3.65433	-3.2822	2.4747
H	5.10409	-3.55112	1.42898
H	3.48926	-3.21784	0.675672
N	5.02497	-1.00764	0.488123
C	5.3225	0.397279	0.360743
C	5.29295	0.755267	-1.11321
O	5.20784	-0.120156	-1.97234
H	5.22222	-1.56321	-0.314561
H	4.54527	0.972639	0.848072
C	6.70285	0.726363	0.970317
H	7.50184	0.144195	0.463616
H	6.93749	1.80763	0.890838
H	6.70411	0.448953	2.04706
N	5.35458	2.06096	-1.4409
C	5.32721	2.49688	-2.81763
H	5.419	2.75495	-0.731454
H	5.38736	3.6058	-2.88029
H	4.38598	2.1683	-3.31504
H	6.18505	2.06649	-3.38333
