44
  This energy is 0.1694 and Call times are: 121835
C	-2.81178	0.0398151	-2.05061
C	-1.59251	-0.613246	-1.52333
O	-1.35861	-1.79274	-1.74804
H	-3.41133	-0.704987	-2.61778
H	-2.53603	0.872553	-2.73123
H	-3.42669	0.434358	-1.21436
N	-0.776404	0.152822	-0.795665
C	0.425841	-0.351619	-0.180272
C	0.702795	0.472978	1.06266
O	0.0546419	1.49026	1.30089
H	-1.0009	1.10044	-0.587147
H	0.261701	-1.37291	0.140137
C	1.61942	-0.27579	-1.15744
H	1.79487	0.773181	-1.47824
H	2.54814	-0.674196	-0.699976
H	1.39147	-0.87974	-2.06278
N	1.67391	0.0451661	1.89329
C	2.00408	0.762119	3.1029
H	2.18466	-0.782537	1.68565
H	2.82757	0.252316	3.64987
H	1.11962	0.822145	3.77774
H	2.32983	1.80116	2.86746
C	1.56309	0.92185	0.677616
C	2.64543	-0.0852926	0.604386
O	2.50738	-1.19934	1.09045
H	0.698912	0.492805	1.22986
H	1.23259	1.20344	-0.344257
H	1.91841	1.82715	1.21358
N	3.76671	0.292443	-0.0140218
C	4.92224	-0.562305	-0.126762
C	6.15584	0.317544	-0.20214
O	6.0534	1.53624	-0.328599
H	3.87927	1.21626	-0.368623
H	5.00983	-1.16456	0.768914
C	4.82231	-1.46299	-1.37737
H	4.74305	-0.845535	-2.29743
H	5.69971	-2.13569	-1.46777
H	3.90841	-2.09211	-1.30447
N	7.35885	-0.283731	-0.117104
C	8.5878	0.473001	-0.173747
H	7.42138	-1.27059	-0.0108941
H	9.46873	-0.200516	-0.086717
H	8.63071	1.21513	0.656121
H	8.66393	1.02749	-1.13702
