44
  This energy is -3.1107 and Call times are: 114324
C	1.95936	2.83156	-0.505816
C	1.60776	1.42218	-0.790694
O	2.09918	0.82654	-1.73945
H	2.67632	3.1938	-1.27434
H	2.43359	2.91295	0.494797
H	1.04897	3.46669	-0.535942
N	0.731829	0.849815	0.0384776
C	0.260226	-0.501477	-0.135194
C	-1.1359	-0.594215	0.451144
O	-1.60732	0.334199	1.105
H	0.309426	1.36018	0.782095
H	0.180919	-0.718972	-1.19304
C	1.20557	-1.50877	0.555417
H	1.27902	-1.29254	1.64256
H	0.860699	-2.55397	0.417074
H	2.22299	-1.41775	0.116196
N	-1.83681	-1.72208	0.221653
C	-3.1753	-1.89792	0.735183
H	-1.43996	-2.46067	-0.313198
H	-3.58277	-2.8898	0.439584
H	-3.85451	-1.10812	0.340031
H	-3.18119	-1.83354	1.84737
C	3.83659	0.397282	2.69715
C	4.90339	0.892389	1.79827
O	5.24846	2.06591	1.81178
H	3.44827	1.24214	3.30646
H	4.2406	-0.381042	3.37813
H	3.00215	-0.0297264	2.10179
N	5.45642	-0.00745906	0.981682
C	6.4758	0.332659	0.0205738
C	6.36981	-0.634362	-1.14356
O	5.63064	-1.61497	-1.08241
H	5.13654	-0.950187	0.953454
H	6.28466	1.32573	-0.366582
C	7.8808	0.260988	0.657829
H	8.08152	-0.760414	1.04577
H	8.67347	0.534214	-0.06849
H	7.93294	0.970764	1.51213
N	7.10555	-0.373552	-2.24205
C	7.06513	-1.23473	-3.40089
H	7.69465	0.42707	-2.27427
H	7.73838	-0.851712	-4.19917
H	6.03118	-1.29182	-3.81196
H	7.38834	-2.26715	-3.13483
