44
  This energy is -2.1477 and Call times are: 113947
C	-1.22153	0.0349623	-3.25873
C	-0.995351	-0.636158	-1.95889
O	-1.54344	-1.6962	-1.68999
H	-1.93775	-0.564374	-3.86181
H	-0.265467	0.12053	-3.81673
H	-1.64712	1.04787	-3.0975
N	-0.169804	-0.0208496	-1.10904
C	0.114641	-0.529512	0.209638
C	0.447317	0.646404	1.10858
O	0.602888	1.77267	0.640573
H	0.236727	0.862053	-1.32603
H	-0.774359	-1.00045	0.610298
C	1.28882	-1.5321	0.172789
H	2.2039	-1.04654	-0.22832
H	1.50855	-1.94143	1.18011
H	1.02652	-2.38001	-0.496986
N	0.556334	0.41129	2.43103
C	0.864731	1.46983	3.36407
H	0.422925	-0.506014	2.79134
H	0.910699	1.07676	4.40359
H	0.0872574	2.26687	3.32483
H	1.84776	1.93418	3.12079
C	5.66615	-0.298641	-3.45587
C	5.08976	-0.335151	-2.09293
O	3.88016	-0.388302	-1.91842
H	4.84313	-0.309319	-4.20311
H	6.31347	-1.18537	-3.6215
H	6.2646	0.626544	-3.5936
N	5.95891	-0.304551	-1.08
C	5.5476	-0.290704	0.301731
C	6.61325	0.430654	1.10523
O	7.68727	0.739529	0.592608
H	6.93864	-0.219962	-1.23762
H	4.63158	0.279048	0.396069
C	5.34893	-1.72734	0.832628
H	6.29131	-2.30908	0.745802
H	5.01872	-1.72973	1.89163
H	4.57072	-2.23878	0.225039
N	6.3351	0.724845	2.39057
C	7.28602	1.41451	3.23099
H	5.45895	0.470397	2.78642
H	6.87208	1.56403	4.25253
H	7.53552	2.41301	2.80434
H	8.23059	0.830152	3.31728
