44
  This energy is -0.9386 and Call times are: 124815
C	-2.27544	2.39745	-1.08963
C	-1.24096	1.91604	-0.146633
O	-0.73947	2.66583	0.679637
H	-2.46009	3.47913	-0.911386
H	-3.22346	1.84072	-0.934595
H	-1.9328	2.25917	-2.1368
N	-0.89211	0.631793	-0.253411
C	0.130548	0.0297398	0.565285
C	0.757061	-1.1069	-0.220264
O	0.268647	-1.48098	-1.2848
H	-1.27973	0.0443295	-0.958041
H	0.90939	0.757371	0.756568
C	-0.461528	-0.491535	1.89305
H	-1.2533	-1.24581	1.69758
H	0.318553	-0.945012	2.53831
H	-0.921487	0.355522	2.44738
N	1.86632	-1.68028	0.286507
C	2.53471	-2.76502	-0.393775
H	2.24901	-1.36107	1.14716
H	3.42625	-3.09975	0.180973
H	2.87052	-2.44569	-1.40695
H	1.849	-3.63457	-0.515492
C	5.15998	-2.39139	2.30486
C	6.1091	-1.3544	1.84121
O	6.98526	-0.923294	2.57803
H	5.38469	-2.64827	3.36287
H	5.25953	-3.30641	1.68393
H	4.11807	-2.01277	2.24049
N	5.95087	-0.922885	0.587753
C	6.76971	0.113213	0.00934539
C	5.94923	0.830682	-1.04593
O	4.85374	0.395443	-1.39549
H	5.20741	-1.25382	0.0136402
H	7.01912	0.839433	0.772904
C	8.05245	-0.480379	-0.613126
H	7.79718	-1.21772	-1.40383
H	8.69806	0.309037	-1.04962
H	8.63307	-1.0073	0.175277
N	6.46062	1.95974	-1.57482
C	5.749	2.71291	-2.58105
H	7.34675	2.29842	-1.27623
H	6.33328	3.60796	-2.88881
H	4.76292	3.05508	-2.19138
H	5.56497	2.08664	-3.48386
