44
  This energy is -4.1615 and Call times are: 122846
C	-2.14785	-0.0169363	2.73845
C	-1.55033	0.641374	1.55493
O	-2.00828	1.68614	1.11316
H	-3.02211	0.575375	3.0859
H	-1.4037	-0.0752013	3.5604
H	-2.48885	-1.04051	2.47558
N	-0.497087	0.0320799	1.00554
C	0.164227	0.528941	-0.175285
C	0.771338	-0.651677	-0.909527
O	0.796065	-1.76814	-0.395129
H	-0.161185	-0.839226	1.35175
H	-0.569593	0.975946	-0.834319
C	1.25649	1.55609	0.195053
H	2.01527	1.09502	0.862661
H	1.76366	1.95645	-0.706621
H	0.790844	2.40722	0.738296
N	1.27089	-0.431973	-2.14168
C	1.8633	-1.49621	-2.91798
H	1.23806	0.477486	-2.54278
H	2.21483	-1.11614	-3.90245
H	1.12295	-2.30862	-3.10001
H	2.73417	-1.93677	-2.38072
C	5.47917	-3.02382	1.67099
C	6.304	-1.86479	1.26177
O	7.40007	-1.65891	1.76441
H	6.01183	-3.59182	2.46439
H	5.30519	-3.69494	0.803769
H	4.50324	-2.67672	2.07117
N	5.78441	-1.06777	0.325192
C	6.44933	0.122281	-0.144094
C	5.3896	1.10809	-0.598771
O	4.21053	0.770244	-0.684532
H	4.87337	-1.22536	-0.0449832
H	6.9844	0.580409	0.678361
C	7.41593	-0.206403	-1.30292
H	6.86577	-0.666777	-2.15111
H	7.9444	0.699672	-1.66385
H	8.17778	-0.935268	-0.94982
N	5.78713	2.3613	-0.894457
C	4.84861	3.36904	-1.33013
H	6.74496	2.61693	-0.815024
H	5.36843	4.33319	-1.52359
H	4.06846	3.54116	-0.553581
H	4.33801	3.05141	-2.26798
