44
  This energy is -3.9241 and Call times are: 123111
C	-3.20833	0.711898	1.14565
C	-2.13104	0.820229	0.136269
O	-2.34857	1.28463	-0.974325
H	-4.15938	1.08767	0.70957
H	-2.95768	1.32064	2.03972
H	-3.34524	-0.348082	1.44696
N	-0.924845	0.383878	0.506497
C	0.211923	0.384673	-0.380249
C	1.13706	-0.743435	0.0357341
O	0.943432	-1.36444	1.07908
H	-0.772761	-0.0292916	1.39982
H	-0.121453	0.173241	-1.38861
C	0.951932	1.73923	-0.327339
H	1.30336	1.95167	0.704847
H	1.82121	1.75727	-1.01622
H	0.253792	2.55081	-0.627821
N	2.1665	-1.04136	-0.781293
C	3.09561	-2.10263	-0.470409
H	2.30442	-0.53032	-1.62324
H	3.87006	-2.19223	-1.26376
H	2.56409	-3.0783	-0.387714
H	3.60772	-1.90523	0.499083
C	4.91746	1.63199	2.87706
C	5.06424	1.54202	1.40685
O	4.46649	2.3074	0.663013
H	4.20527	2.44856	3.12577
H	5.89847	1.8553	3.34664
H	4.52338	0.675859	3.28151
N	5.8759	0.586062	0.948876
C	6.08609	0.347665	-0.457374
C	6.42439	-1.11953	-0.642989
O	6.64099	-1.84349	0.326899
H	6.32358	-0.0555313	1.56515
H	5.16432	0.536471	-0.993388
C	7.2228	1.23883	-1.00415
H	8.17118	1.03798	-0.461676
H	7.38503	1.07455	-2.08915
H	6.95738	2.30761	-0.850598
N	6.46941	-1.59633	-1.90261
C	6.7777	-2.98061	-2.17628
H	6.28719	-0.996044	-2.67431
H	6.7657	-3.17719	-3.27102
H	6.03263	-3.65223	-1.69144
H	7.78655	-3.24368	-1.78365
