44
  This energy is -5.1758 and Call times are: 121103
C	-1.85949	0.857972	-2.81405
C	-1.41788	-0.116738	-1.79128
O	-1.97068	-1.20122	-1.66999
H	-2.72383	0.4378	-3.37284
H	-1.03486	1.06288	-3.52871
H	-2.17213	1.80661	-2.32884
N	-0.395014	0.256228	-1.0186
C	0.118533	-0.566674	0.0480103
C	0.7089	0.34546	1.1068
O	0.842166	1.54968	0.897463
H	0.0180644	1.15858	-1.10222
H	-0.699471	-1.10726	0.507642
C	1.18825	-1.54829	-0.478653
H	2.03263	-0.993846	-0.940871
H	1.5815	-2.19705	0.330658
H	0.73624	-2.2003	-1.2577
N	1.07079	-0.210441	2.27984
C	1.63638	0.579947	3.34829
H	0.951419	-1.18597	2.43203
H	1.86772	-0.0581642	4.22949
H	0.924167	1.37466	3.66838
H	2.57805	1.07378	3.01584
C	6.26193	-3.31872	-0.629682
C	6.58305	-2.20866	0.295419
O	6.41771	-2.32238	1.50213
H	5.86222	-4.17762	-0.0479873
H	7.17632	-3.64424	-1.16883
H	5.49529	-2.99464	-1.36474
N	7.05539	-1.09057	-0.260593
C	7.37212	0.0889992	0.505475
C	7.18422	1.29912	-0.390003
O	6.97972	1.16523	-1.59498
H	7.14587	-0.998773	-1.24814
H	6.67023	0.181943	1.32483
C	8.82076	0.0287968	1.0375
H	9.54187	-0.0559449	0.196753
H	9.07225	0.925147	1.64069
H	8.93742	-0.868541	1.68366
N	7.24135	2.51686	0.184316
C	7.06866	3.72545	-0.587482
H	7.40367	2.60482	1.16155
H	7.14946	4.62318	0.0642668
H	6.06892	3.73809	-1.07906
H	7.84537	3.79827	-1.38282
