44
  This energy is -5.8643 and Call times are: 114800
C	2.3617	1.41924	-2.12623
C	0.996913	1.34621	-1.55774
O	0.178405	2.23235	-1.76073
H	2.47056	2.36537	-2.69969
H	2.53786	0.56232	-2.8099
H	3.11671	1.40359	-1.3121
N	0.718863	0.269981	-0.818282
C	-0.551631	0.0790135	-0.164114
C	-0.323315	-0.765909	1.07505
O	0.765352	-1.29836	1.28245
H	1.40855	-0.422894	-0.628224
H	-0.931723	1.03811	0.164964
C	-1.56118	-0.60814	-1.10956
H	-1.1764	-1.59677	-1.43908
H	-2.54769	-0.74825	-0.622016
H	-1.70682	0.0237376	-2.01281
N	-1.35016	-0.901788	1.93711
C	-1.22415	-1.68241	3.1458
H	-2.22216	-0.459979	1.75411
H	-2.17589	-1.67243	3.72141
H	-0.417234	-1.27271	3.79565
H	-0.970388	-2.74031	2.9058
C	5.27114	-1.41801	-3.11708
C	4.54567	-1.37172	-1.82762
O	3.549	-2.05495	-1.63717
H	4.75289	-2.12085	-3.80504
H	6.31146	-1.77199	-2.95839
H	5.29083	-0.409548	-3.58149
N	5.03769	-0.548225	-0.899099
C	4.41651	-0.363137	0.3887
C	4.73967	1.03788	0.872734
O	5.55551	1.73784	0.275934
H	5.82585	0.0320149	-1.08344
H	3.34107	-0.426448	0.278963
C	4.9205	-1.41535	1.40067
H	6.02247	-1.34382	1.52153
H	4.43916	-1.29201	2.39244
H	4.68042	-2.43295	1.02226
N	4.09598	1.48464	1.96912
C	4.33487	2.80657	2.49978
H	3.43626	0.905107	2.43601
H	3.71073	2.98659	3.40271
H	4.08735	3.58473	1.74183
H	5.40533	2.92883	2.78317
