44
  This energy is -2.1038 and Call times are: 117663
C	0.202176	1.67397	-3.04461
C	0.0808251	0.434587	-2.24439
O	-0.201482	-0.63325	-2.77016
H	-0.0160523	1.44578	-4.11053
H	1.23277	2.07981	-2.96768
H	-0.522246	2.43456	-2.68434
N	0.29314	0.552628	-0.931617
C	0.16897	-0.555525	-0.0177577
C	-0.228849	-0.00694605	1.33958
O	-0.230384	1.20378	1.55371
H	0.481843	1.43618	-0.512577
H	-0.631223	-1.20491	-0.350363
C	1.49603	-1.33914	0.0826894
H	2.31503	-0.675909	0.433975
H	1.40924	-2.20323	0.772857
H	1.77176	-1.72444	-0.923225
N	-0.58592	-0.89163	2.29134
C	-0.984866	-0.461937	3.61134
H	-0.582335	-1.86715	2.09789
H	-1.24085	-1.33662	4.24902
H	-1.87658	0.203608	3.55497
H	-0.162415	0.103966	4.10578
C	7.97884	-0.177876	-2.78559
C	6.99709	-0.774208	-1.85194
O	6.45622	-1.84306	-2.09979
H	8.08788	-0.836937	-3.67419
H	8.96691	-0.0774554	-2.28922
H	7.63023	0.821882	-3.1203
N	6.74004	-0.0823515	-0.739447
C	5.77677	-0.513086	0.242965
C	5.22125	0.718791	0.932491
O	5.71815	1.82668	0.739152
H	7.1576	0.806017	-0.571207
H	4.95069	-1.00274	-0.25748
C	6.4262	-1.46344	1.27268
H	7.26704	-0.95805	1.79385
H	5.69134	-1.81308	2.0265
H	6.83276	-2.35373	0.745031
N	4.16453	0.553444	1.75225
C	3.5652	1.66878	2.44724
H	3.77374	-0.350209	1.89285
H	2.70948	1.32925	3.0715
H	3.19096	2.42784	1.72264
H	4.30976	2.16369	3.11194
