44
  This energy is -2.8304 and Call times are: 114139
C	-0.0712514	2.18094	2.71129
C	-0.729946	1.23766	1.7799
O	-1.86144	0.824322	1.99272
H	-0.752769	2.39119	3.56406
H	0.158436	3.13462	2.19123
H	0.86868	1.73816	3.10318
N	-0.022245	0.869084	0.709534
C	-0.512335	-0.075407	-0.263251
C	0.68037	-0.784251	-0.876888
O	1.82645	-0.403556	-0.646059
H	0.913029	1.18217	0.571297
H	-1.11099	-0.825967	0.237654
C	-1.33976	0.636892	-1.35561
H	-0.722963	1.39969	-1.8769
H	-1.73434	-0.0815202	-2.10308
H	-2.20248	1.15525	-0.882996
N	0.436449	-1.84464	-1.67194
C	1.50888	-2.58461	-2.29526
H	-0.497515	-2.14015	-1.84357
H	1.10541	-3.4197	-2.90931
H	2.18986	-3.01338	-1.52474
H	2.11102	-1.92129	-2.9575
C	4.216	-2.64914	1.07636
C	4.77518	-1.78956	0.00884506
O	4.65614	-2.08792	-1.1715
H	3.73369	-3.53895	0.616501
H	3.45506	-2.08902	1.65944
H	5.02506	-2.99009	1.75624
N	5.41059	-0.685307	0.407944
C	6.04403	0.226661	-0.511635
C	7.19859	0.898041	0.207951
O	7.35516	0.753968	1.41891
H	5.53488	-0.47704	1.37388
H	6.46151	-0.333126	-1.33926
C	5.0384	1.28113	-1.02354
H	4.6177	1.86279	-0.175764
H	5.5107	1.98088	-1.74313
H	4.19832	0.766986	-1.53954
N	8.04416	1.64581	-0.528171
C	9.17439	2.31804	0.0691941
H	7.90337	1.74718	-1.50745
H	9.74844	2.88092	-0.699483
H	9.85974	1.5827	0.549675
H	8.83634	3.03659	0.85057
