44
  This energy is 0.1646 and Call times are: 122980
C	3.43013	0.109095	0.578806
C	2.26253	0.0682794	-0.33014
O	2.38772	0.266713	-1.53071
H	4.34307	0.353111	-0.00674691
H	3.56964	-0.878214	1.06717
H	3.28288	0.888265	1.35618
N	1.08063	-0.192439	0.233349
C	-0.151445	-0.222655	-0.514746
C	-1.282	0.163994	0.420083
O	-1.08889	0.276555	1.62911
H	0.988645	-0.311268	1.21787
H	-0.111731	0.523292	-1.29872
C	-0.399219	-1.62467	-1.11325
H	-0.45056	-2.38879	-0.308573
H	-1.33804	-1.65715	-1.70324
H	0.444087	-1.89011	-1.78759
N	-2.49487	0.385824	-0.123753
C	-3.62912	0.763454	0.686841
H	-2.63058	0.293777	-1.10466
H	-4.53501	0.900529	0.0561247
H	-3.42776	1.7189	1.22336
H	-3.84682	-0.020544	1.44783
C	3.10504	1.76214	2.0469
C	3.43605	0.611325	1.17672
O	2.70537	-0.367944	1.11708
H	2.15779	1.55186	2.58944
H	2.97277	2.67907	1.43494
H	3.91503	1.92657	2.78849
N	4.56643	0.705509	0.472623
C	5.0428	-0.351258	-0.384627
C	6.55615	-0.264441	-0.446153
O	7.15203	0.696265	0.0372545
H	5.17153	1.49136	0.562883
H	4.79223	-1.30847	0.0553607
C	4.4355	-0.229959	-1.79945
H	4.70108	0.747586	-2.25543
H	4.78386	-1.04607	-2.46513
H	3.32733	-0.288096	-1.72938
N	7.217	-1.27805	-1.03935
C	8.65784	-1.28476	-1.13992
H	6.71763	-2.04879	-1.42102
H	9.01149	-2.2022	-1.65999
H	9.12237	-1.2546	-0.127699
H	9.01614	-0.397697	-1.71076
