44
  This energy is -5.8494 and Call times are: 120753
C	1.31206	2.1762	-2.3781
C	1.32062	0.892777	-1.64061
O	2.03314	-0.0362359	-1.9951
H	2.0072	2.10749	-3.24293
H	1.64502	3.00139	-1.71406
H	0.290445	2.39437	-2.75466
N	0.512486	0.811802	-0.581012
C	0.379764	-0.386149	0.210101
C	-1.01417	-0.405746	0.808522
O	-1.75071	0.574905	0.721588
H	-0.0918506	1.56228	-0.329172
H	0.466062	-1.25163	-0.434979
C	1.44811	-0.432575	1.32442
H	1.35328	0.449701	1.99273
H	1.36516	-1.357	1.93194
H	2.45994	-0.40923	0.863971
N	-1.41335	-1.5346	1.42688
C	-2.72488	-1.64758	2.02129
H	-0.804712	-2.31909	1.4835
H	-2.86354	-2.6513	2.48014
H	-3.51828	-1.50081	1.25302
H	-2.86494	-0.877182	2.81376
C	4.16978	1.96335	2.64208
C	4.23672	1.63069	1.20125
O	3.48794	2.16265	0.393321
H	3.36206	2.70854	2.80983
H	5.13449	2.39682	2.97998
H	3.94644	1.05163	3.23534
N	5.15016	0.725311	0.843034
C	5.30549	0.268003	-0.515382
C	5.84372	-1.14993	-0.478477
O	6.22415	-1.65186	0.577476
H	5.72467	0.270927	1.51781
H	4.33453	0.232119	-0.993458
C	6.26266	1.1902	-1.30191
H	7.26206	1.21907	-0.817758
H	6.37967	0.856533	-2.35333
H	5.85298	2.22386	-1.30913
N	5.88015	-1.83528	-1.63821
C	6.37109	-3.19227	-1.69919
H	5.56412	-1.41359	-2.48164
H	6.32025	-3.5825	-2.73956
H	5.76441	-3.85924	-1.04469
H	7.43005	-3.24291	-1.35686
