44
  This energy is 0.1079 and Call times are: 125095
C	-3.14424	-0.697507	-1.31907
C	-2.23111	0.12109	-0.49007
O	-2.58005	1.20685	-0.0475984
H	-4.10566	-0.155247	-1.45135
H	-3.34533	-1.66936	-0.821263
H	-2.69428	-0.880075	-2.31772
N	-1.01946	-0.390207	-0.260156
C	-0.00724288	0.307983	0.492512
C	1.35127	-0.144524	-0.00873027
O	1.4517	-1.08724	-0.791621
H	-0.735796	-1.25656	-0.661188
H	-0.0857693	1.37018	0.29706
C	-0.14905	0.0234897	2.00387
H	-0.0580315	-1.06502	2.20611
H	0.616185	0.566479	2.59556
H	-1.15328	0.35523	2.34712
N	2.43454	0.527725	0.427875
C	3.76769	0.17219	0.000676565
H	2.33281	1.29041	1.05798
H	4.52236	0.842007	0.468692
H	3.86143	0.257974	-1.10618
H	4.00518	-0.877961	0.286894
C	7.48553	-1.0632	2.19191
C	6.94872	-0.112073	1.19274
O	7.49063	0.965673	0.989745
H	8.38171	-0.619154	2.67724
H	7.77827	-2.01316	1.69731
H	6.72169	-1.27209	2.97036
N	5.85078	-0.49639	0.537597
C	5.188	0.338762	-0.432865
C	3.71483	-0.0235631	-0.441223
O	3.30401	-1.00441	0.175929
H	5.39765	-1.35913	0.743063
H	5.26381	1.37401	-0.124424
C	5.80104	0.145792	-1.83721
H	5.71406	-0.914034	-2.15852
H	5.30838	0.793766	-2.59082
H	6.88088	0.40904	-1.80559
N	2.87951	0.770746	-1.13932
C	1.46065	0.507533	-1.2002
H	3.2301	1.56223	-1.62893
H	0.945144	1.27222	-1.82209
H	1.01357	0.526159	-0.179878
H	1.26564	-0.495408	-1.6443
