44
  This energy is -4.1899 and Call times are: 123847
C	0.713937	-1.44555	-3.08437
C	-0.00574679	-0.466055	-2.23952
O	-0.648551	0.44782	-2.73756
H	0.571267	-1.18204	-4.15493
H	0.315822	-2.46717	-2.9096
H	1.79951	-1.42722	-2.85137
N	0.0904164	-0.637552	-0.919017
C	-0.518969	0.259162	0.0313061
C	0.308912	0.235167	1.30237
O	1.21131	-0.586643	1.45078
H	0.65092	-1.36199	-0.52801
H	-0.48397	1.26926	-0.357425
C	-1.97658	-0.157299	0.326549
H	-2.01214	-1.18964	0.735265
H	-2.46123	0.533578	1.0465
H	-2.56176	-0.140319	-0.618766
N	0.024088	1.1485	2.25143
C	0.762301	1.20534	3.49159
H	-0.707067	1.80795	2.11137
H	0.37885	2.02344	4.14035
H	1.84362	1.39005	3.29691
H	0.670888	0.244406	4.04781
C	7.15606	-2.67575	-1.48681
C	5.92286	-2.00413	-1.0185
O	4.81652	-2.4302	-1.31998
H	6.88178	-3.54697	-2.12052
H	7.74924	-3.0347	-0.619611
H	7.76976	-1.97269	-2.08859
N	6.08995	-0.918633	-0.259446
C	4.98607	-0.134221	0.235238
C	5.46154	1.29623	0.406475
O	6.65213	1.58186	0.294091
H	6.99676	-0.56036	-0.0565125
H	4.19489	-0.124839	-0.504058
C	4.4671	-0.696582	1.57675
H	5.2756	-0.696608	2.33858
H	3.60804	-0.109397	1.96113
H	4.132	-1.74652	1.42949
N	4.53363	2.23553	0.67607
C	4.89181	3.62394	0.849851
H	3.5746	1.98568	0.759227
H	3.99006	4.23886	1.06422
H	5.37713	4.02253	-0.070402
H	5.60659	3.74252	1.69612
