44
  This energy is -0.886 and Call times are: 121025
C	2.03224	-0.349761	2.80363
C	1.04332	-0.877535	1.83687
O	0.760523	-2.06729	1.80646
H	2.43114	-1.18785	3.41549
H	1.55142	0.390093	3.47755
H	2.87396	0.133927	2.2645
N	0.488508	0.0119258	1.01018
C	-0.457973	-0.35717	-0.0128097
C	-0.340387	0.641708	-1.14858
O	0.34153	1.65741	-1.02592
H	0.759182	0.970317	1.01963
H	-0.193947	-1.32948	-0.409728
C	-1.89721	-0.373428	0.547156
H	-2.17233	0.62664	0.944915
H	-2.63387	-0.669678	-0.2275
H	-1.95793	-1.10526	1.38207
N	-1.0008	0.369736	-2.29135
C	-0.94329	1.25944	-3.4277
H	-1.54415	-0.459221	-2.37302
H	-1.55118	0.861463	-4.26991
H	0.10692	1.37966	-3.77967
H	-1.33453	2.26711	-3.15814
C	5.47444	1.79887	2.92328
C	5.72818	1.7256	1.46677
O	5.60773	2.71163	0.752874
H	5.16483	2.83256	3.19061
H	6.39693	1.5432	3.48578
H	4.66255	1.09608	3.2061
N	6.0892	0.533379	0.986512
C	6.32817	0.295997	-0.415308
C	6.01408	-1.1589	-0.708924
O	5.78687	-1.95075	0.203793
H	6.14322	-0.269263	1.57363
H	5.64486	0.898094	-1.00114
C	7.79149	0.61995	-0.788108
H	8.49265	-0.00499347	-0.194923
H	7.98446	0.454392	-1.86787
H	8.0013	1.68725	-0.557478
N	5.98575	-1.54424	-1.99994
C	5.6905	-2.90727	-2.37563
H	6.16823	-0.888086	-2.72467
H	5.71473	-3.02444	-3.48149
H	4.67947	-3.20421	-2.01382
H	6.43518	-3.60729	-1.93228
