44
  This energy is -2.3826 and Call times are: 115662
C	-0.35469	3.38785	-0.713684
C	-0.671768	1.9635	-0.962329
O	-1.58935	1.63932	-1.70352
H	-1.07103	4.02689	-1.27437
H	0.675974	3.61619	-1.05769
H	-0.441589	3.61578	0.369638
N	0.0930391	1.06698	-0.334875
C	-0.120746	-0.354622	-0.444002
C	0.370069	-1.00629	0.835055
O	0.996953	-0.358773	1.67139
H	0.810014	1.34647	0.297341
H	-1.18294	-0.551391	-0.519253
C	0.62503	-0.932404	-1.6668
H	1.71606	-0.740047	-1.58494
H	0.457005	-2.02405	-1.76971
H	0.255604	-0.435574	-2.59039
N	0.0866914	-2.31058	1.02091
C	0.50818	-3.01369	2.2101
H	-0.425207	-2.81668	0.334692
H	0.179409	-4.07576	2.17632
H	0.073598	-2.54108	3.12062
H	1.61787	-2.99285	2.3065
C	5.74518	1.33784	1.26173
C	7.2152	1.35721	1.08906
O	7.87766	2.3336	1.41188
H	5.41233	2.31013	1.68567
H	5.45224	0.523414	1.95717
H	5.24674	1.18375	0.28148
N	7.76563	0.259814	0.564517
C	9.17766	0.146124	0.296583
C	9.36297	-0.811161	-0.865672
O	8.41637	-1.46397	-1.30097
H	7.20866	-0.511022	0.268793
H	9.56086	1.10981	-0.0150107
C	9.93647	-0.361358	1.54234
H	9.55085	-1.35478	1.85612
H	11.0267	-0.439942	1.35301
H	9.78027	0.350219	2.38234
N	10.5946	-0.910651	-1.40353
C	10.8647	-1.79158	-2.51579
H	11.347	-0.371248	-1.04025
H	11.9346	-1.73159	-2.81412
H	10.2395	-1.51614	-3.39587
H	10.6345	-2.84762	-2.24573
