44
  This energy is 0.1312 and Call times are: 117076
C	3.27537	-1.02079	0.585324
C	2.28417	-0.116666	-0.0401554
O	2.63094	0.920094	-0.589058
H	4.2919	-0.584737	0.473955
H	3.25402	-2.0139	0.0893222
H	3.05322	-1.14294	1.66644
N	1.00616	-0.495806	0.0326422
C	-0.0755764	0.300189	-0.491578
C	-1.31981	0.00310561	0.32401
O	-1.33242	-0.914864	1.14187
H	0.735539	-1.322	0.518487
H	0.155333	1.34958	-0.357076
C	-0.318685	-0.0138716	-1.98406
H	-0.565968	-1.08813	-2.12137
H	-1.14018	0.602729	-2.40296
H	0.607117	0.20328	-2.56033
N	-2.39956	0.784346	0.124438
C	-3.62645	0.580126	0.858755
H	-2.36879	1.52483	-0.538747
H	-4.39592	1.32295	0.553232
H	-3.45126	0.687197	1.9538
H	-4.03094	-0.440988	0.672065
C	4.29601	-0.672338	3.27881
C	4.08975	-0.76709	1.81606
O	3.24829	-1.51835	1.34281
H	3.60442	-1.37425	3.79347
H	4.08615	0.360242	3.62879
H	5.34136	-0.944395	3.53628
N	4.86924	0.00520313	1.05557
C	4.81512	-0.00889021	-0.385065
C	6.18616	0.368589	-0.913595
O	7.06216	0.779854	-0.155187
H	5.57765	0.581166	1.45341
H	4.60431	-1.01525	-0.724789
C	3.74425	0.974227	-0.906562
H	3.96587	2.00848	-0.567082
H	3.68326	0.962403	-2.01411
H	2.75061	0.683599	-0.500915
N	6.40704	0.228359	-2.23555
C	7.68259	0.557426	-2.82787
H	5.68713	-0.10985	-2.83256
H	7.66581	0.374056	-3.92484
H	8.49432	-0.0615148	-2.38147
H	7.93128	1.62956	-2.65517
