44
  This energy is 0.1557 and Call times are: 116481
C	0.344562	-2.30036	2.58888
C	0.867681	-1.20781	1.7381
O	1.90829	-0.629475	2.01931
H	1.02427	-2.44813	3.45608
H	0.291711	-3.24545	2.00857
H	-0.667354	-2.04103	2.96553
N	0.142904	-0.895218	0.661364
C	0.500911	0.17359	-0.237546
C	-0.772446	0.714688	-0.859903
O	-1.84677	0.13926	-0.69731
H	-0.723141	-1.3474	0.468072
H	0.951586	0.979856	0.32766
C	1.46837	-0.327072	-1.33235
H	1.00247	-1.14711	-1.91931
H	1.76242	0.489906	-2.02272
H	2.38945	-0.725753	-0.853808
N	-0.681809	1.8468	-1.58525
C	-1.84142	2.43872	-2.21064
H	0.195581	2.30023	-1.70211
H	-1.56206	3.36397	-2.76117
H	-2.60766	2.70348	-1.44641
H	-2.30485	1.72757	-2.93219
C	0.0213057	-0.593914	0.063876
C	1.42478	-1.04506	0.19758
O	1.69491	-2.14391	0.662299
H	-0.656971	-1.38282	0.45557
H	-0.221193	-0.409056	-1.00372
H	-0.138042	0.338364	0.645717
N	2.36461	-0.189993	-0.21227
C	3.7749	-0.46981	-0.105803
C	4.50978	0.850081	0.033486
O	3.921	1.91819	-0.122025
H	2.13078	0.717149	-0.550317
H	3.95909	-1.03842	0.797181
C	4.27914	-1.24222	-1.3445
H	4.09996	-0.654714	-2.27012
H	5.36087	-1.47579	-1.26813
H	3.72217	-2.20066	-1.43115
N	5.82123	0.806199	0.340408
C	6.60127	2.01148	0.498564
H	6.27921	-0.067559	0.466396
H	7.65674	1.76666	0.750088
H	6.18435	2.64489	1.31481
H	6.59431	2.61028	-0.44087
