44
  This energy is 0.1802 and Call times are: 117830
C	2.94142	-0.545929	1.7784
C	1.62093	-0.987998	1.27637
O	1.27286	-2.15802	1.3558
H	3.49334	-1.42266	2.18166
H	2.81195	0.201273	2.58937
H	3.53372	-0.0968645	0.953407
N	0.84503	-0.0449072	0.736985
C	-0.44832	-0.329505	0.167063
C	-0.721244	0.692492	-0.920406
O	0.0180653	1.66308	-1.07239
H	1.15887	0.895525	0.642324
H	-0.424213	-1.30391	-0.304727
C	-1.55071	-0.278045	1.24749
H	-1.58288	0.724683	1.7245
H	-2.54948	-0.509118	0.823696
H	-1.32632	-1.02837	2.03679
N	-1.79275	0.491601	-1.71258
C	-2.12807	1.40815	-2.77733
H	-2.3768	-0.301816	-1.57678
H	-3.04169	1.07	-3.31415
H	-1.29448	1.47713	-3.51329
H	-2.31657	2.42882	-2.37254
C	7.7643	0.993272	-2.69586
C	7.06703	-0.0449762	-1.90402
O	6.92785	-1.18178	-2.33382
H	8.08109	0.561245	-3.66995
H	8.66377	1.35005	-2.15143
H	7.0841	1.84995	-2.88691
N	6.60381	0.330927	-0.709656
C	5.86706	-0.555432	0.156436
C	4.92913	0.283174	1.00414
O	5.00619	1.51027	1.00256
H	6.68889	1.27064	-0.39097
H	5.2548	-1.21551	-0.445278
C	6.82357	-1.37164	1.05316
H	7.44454	-0.695172	1.67833
H	6.26891	-2.06798	1.71497
H	7.50571	-1.97134	0.411763
N	4.00973	-0.364483	1.74661
C	3.07138	0.350314	2.58012
H	3.96019	-1.35766	1.73158
H	2.39776	-0.358116	3.11078
H	2.44443	1.03684	1.9662
H	3.60812	0.961192	3.34162
