44
  This energy is -2.1823 and Call times are: 115690
C	-1.47467	0.255461	3.1421
C	-1.3164	-0.404388	1.82654
O	-1.82001	-1.49621	1.60135
H	-2.07163	-0.400359	3.81248
H	-2.00356	1.22441	3.02308
H	-0.480314	0.431618	3.60396
N	-0.598316	0.255029	0.914449
C	-0.321215	-0.278344	-0.396004
C	0.998905	0.298188	-0.871871
O	1.55382	1.20027	-0.247344
H	-0.160411	1.12411	1.12613
H	-0.19782	-1.35189	-0.325972
C	-1.4537	0.0732104	-1.38551
H	-1.57366	1.17467	-1.46571
H	-1.25871	-0.343766	-2.39478
H	-2.41138	-0.35178	-1.01325
N	1.53942	-0.219213	-1.99266
C	2.79569	0.26243	-2.51801
H	1.07753	-0.951569	-2.48192
H	3.07186	-0.288556	-3.44395
H	3.61179	0.125359	-1.77203
H	2.7296	1.34745	-2.76193
C	7.6093	-1.93758	-2.72732
C	7.44264	-1.72857	-1.27141
O	7.56888	-2.6533	-0.480622
H	7.83113	-3.00947	-2.92146
H	8.45079	-1.32166	-3.10851
H	6.67672	-1.66088	-3.26286
N	7.1479	-0.486647	-0.880062
C	6.91391	-0.137282	0.498977
C	5.96475	1.04573	0.532704
O	5.66303	1.64072	-0.500085
H	7.00802	0.246958	-1.53894
H	6.41957	-0.961773	0.997433
C	8.23873	0.21093	1.21231
H	8.74109	1.06356	0.707632
H	8.07345	0.468285	2.2786
H	8.92072	-0.666167	1.16843
N	5.46258	1.41057	1.72884
C	4.54769	2.52077	1.85771
H	5.71529	0.914319	2.55282
H	4.24808	2.66224	2.91953
H	3.6278	2.34373	1.25461
H	5.02026	3.46333	1.49797
