44
  This energy is 0.1027 and Call times are: 119874
C	-3.32761	0.93774	0.400455
C	-2.13909	0.14934	0.796671
O	-2.11432	-0.472528	1.8498
H	-4.10031	0.862345	1.19614
H	-3.74911	0.544066	-0.54828
H	-3.0518	2.00513	0.267363
N	-1.10937	0.160437	-0.0529936
C	0.13119	-0.523675	0.214542
C	1.24439	0.21855	-0.500602
O	0.990026	1.12119	-1.29575
H	-1.12895	0.704478	-0.886962
H	0.342735	-0.477953	1.27557
C	0.0657409	-1.99132	-0.261883
H	-0.140804	-2.03859	-1.35236
H	1.01024	-2.53269	-0.0489108
H	-0.760686	-2.51285	0.268558
N	2.51346	-0.141909	-0.225704
C	3.63786	0.511704	-0.853947
H	2.69943	-0.871855	0.423656
H	4.59643	0.0741221	-0.49772
H	3.64086	1.60069	-0.618636
H	3.59028	0.397889	-1.96116
C	0.990228	-0.885586	2.39999
C	1.38723	-0.617669	0.999364
O	0.648763	-0.902349	0.0666094
H	-0.0110559	-1.36843	2.41198
H	0.937707	0.064946	2.97138
H	1.72326	-1.56635	2.88197
N	2.58502	-0.0562588	0.819074
C	3.127	0.224977	-0.48696
C	4.64007	0.165464	-0.394002
O	5.20093	0.0736632	0.69628
H	3.19195	0.132078	1.5859
H	2.81554	-0.549072	-1.17722
C	2.66939	1.61269	-0.987038
H	2.99779	2.40821	-0.284646
H	3.0689	1.83513	-1.9977
H	1.55897	1.636	-1.03967
N	5.33941	0.208241	-1.54514
C	6.78263	0.15188	-1.55534
H	4.86762	0.27848	-2.41781
H	7.17072	0.199884	-2.59664
H	7.14204	-0.794799	-1.09068
H	7.21332	1.00368	-0.980804
