44
  This energy is 1.3821 and Call times are: 121571
C	-0.822474	3.33891	-0.53658
C	0.165908	2.25992	-0.312912
O	1.36387	2.45815	-0.461239
H	-0.292004	4.26295	-0.853801
H	-1.37941	3.5481	0.400869
H	-1.53763	3.04368	-1.33312
N	-0.323783	1.07311	0.0532404
C	0.509894	-0.0838308	0.265432
C	-0.313525	-1.32185	-0.0359602
O	-1.52433	-1.2402	-0.233472
H	-1.30427	0.916231	0.130098
H	1.33306	-0.0648224	-0.437898
C	1.03797	-0.12471	1.71619
H	0.19394	-0.154869	2.43782
H	1.6925	-1.00363	1.88831
H	1.63071	0.79435	1.91703
N	0.33087	-2.50431	-0.0867111
C	-0.369168	-3.73501	-0.372209
H	1.31162	-2.5497	0.0718195
H	0.333867	-4.59696	-0.369954
H	-0.859487	-3.68529	-1.3714
H	-1.15865	-3.92422	0.390721
C	6.45814	1.70837	-3.00677
C	5.91323	0.950782	-1.85773
O	4.70835	0.885637	-1.65661
H	5.6202	2.17047	-3.57262
H	7.0167	1.02803	-3.68345
H	7.13604	2.51165	-2.64864
N	6.8052	0.353296	-1.06415
C	6.42972	-0.383695	0.116704
C	7.57614	-0.305852	1.10729
O	8.66167	0.168546	0.778228
H	7.78455	0.449483	-1.21741
H	5.57272	0.0918689	0.577142
C	6.11183	-1.85497	-0.229057
H	6.99414	-2.34631	-0.691826
H	5.80795	-2.42961	0.669809
H	5.27557	-1.88747	-0.96114
N	7.35683	-0.765754	2.35485
C	8.38698	-0.727511	3.36653
H	6.47053	-1.14228	2.60341
H	8.01289	-1.15041	4.32489
H	8.71747	0.320328	3.55116
H	9.27533	-1.31818	3.04546
