44
  This energy is -3.1286 and Call times are: 122874
C	-2.7727	0.0246705	-2.10339
C	-1.56988	0.664965	-1.52511
O	-1.11984	1.703	-1.99026
H	-3.12522	0.622267	-2.972
H	-3.58331	-0.0212694	-1.34606
H	-2.53084	-1.00272	-2.44845
N	-1.01283	0.0473178	-0.480802
C	0.185878	0.526214	0.161313
C	0.911912	-0.665428	0.756642
O	0.381182	-1.774	0.789801
H	-1.36669	-0.818703	-0.139251
H	0.839659	0.963308	-0.5831
C	-0.151239	1.55871	1.25929
H	-0.813403	1.10767	2.02879
H	0.764442	1.94534	1.7518
H	-0.689013	2.41799	0.80236
N	2.15514	-0.464412	1.23622
C	2.92474	-1.54032	1.81616
H	2.56934	0.438892	1.19682
H	3.92039	-1.1752	2.15171
H	3.08251	-2.3553	1.07307
H	2.39502	-1.97282	2.69564
C	5.00745	1.50866	2.53805
C	5.4282	1.39619	1.12332
O	4.85149	2.01584	0.240223
H	4.13345	2.19209	2.60807
H	5.83578	1.92047	3.15208
H	4.71647	0.511731	2.93116
N	6.45984	0.586412	0.873574
C	6.95593	0.341594	-0.457785
C	7.56746	-1.04648	-0.486857
O	7.72732	-1.68611	0.550944
H	6.89284	0.0571449	1.59762
H	6.12651	0.343315	-1.15399
C	8.00302	1.40313	-0.860244
H	8.85911	1.39457	-0.152375
H	8.38247	1.23359	-1.88873
H	7.53587	2.41151	-0.824261
N	7.91796	-1.55032	-1.68657
C	8.50202	-2.86529	-1.81275
H	7.77705	-1.01932	-2.51557
H	8.71992	-3.09822	-2.87834
H	7.80799	-3.64277	-1.4189
H	9.45415	-2.92929	-1.23786
