44
  This energy is -1.0595 and Call times are: 118681
C	-0.586178	3.15195	1.35437
C	0.0497676	1.81575	1.39041
O	0.934192	1.55716	2.19498
H	-0.117798	3.80253	2.12459
H	-1.67196	3.06495	1.56943
H	-0.443379	3.61692	0.356117
N	-0.393407	0.923434	0.501737
C	0.157477	-0.403913	0.38669
C	-0.0135702	-0.864221	-1.04872
O	-0.689316	-0.21263	-1.84277
H	-1.08535	1.16161	-0.173806
H	1.2206	-0.368274	0.589497
C	-0.546291	-1.3792	1.35559
H	-1.63533	-1.42412	1.1411
H	-0.121608	-2.40164	1.28642
H	-0.414933	-1.01845	2.39912
N	0.60651	-2.00209	-1.41858
C	0.505411	-2.51472	-2.76512
H	1.15227	-2.51331	-0.762932
H	1.08473	-3.4583	-2.87121
H	0.902663	-1.77532	-3.49775
H	-0.556957	-2.72393	-3.02731
C	5.95226	2.72991	-2.07307
C	5.03575	1.81908	-1.35088
O	3.84468	2.0756	-1.24147
H	5.38202	3.61214	-2.43688
H	6.40207	2.20861	-2.94408
H	6.7589	3.07844	-1.39416
N	5.58174	0.717029	-0.831504
C	4.82601	-0.242209	-0.0651589
C	5.7689	-0.911058	0.917279
O	6.98251	-0.725213	0.851569
H	6.56026	0.542397	-0.893623
H	4.07233	0.277052	0.513589
C	4.17124	-1.29306	-0.988324
H	4.94484	-1.83334	-1.57457
H	3.57508	-2.0293	-0.411216
H	3.49179	-0.78049	-1.70384
N	5.22731	-1.70398	1.86278
C	6.04568	-2.37772	2.84386
H	4.24277	-1.83884	1.90243
H	5.4157	-2.98127	3.53385
H	6.62062	-1.63995	3.44919
H	6.77388	-3.05905	2.34721
