44
  This energy is 0.1235 and Call times are: 116251
C	-3.34407	0.588878	-0.763627
C	-2.01179	0.0313943	-1.08829
O	-1.8577	-0.731468	-2.03206
H	-4.0944	0.187602	-1.47906
H	-3.32589	1.69601	-0.845243
H	-3.63933	0.299203	0.266906
N	-1.00327	0.405262	-0.297422
C	0.341748	-0.0872242	-0.461599
C	1.01953	-0.0732091	0.895593
O	0.482396	0.464138	1.86227
H	-1.15185	0.994523	0.491603
H	0.306937	-1.11719	-0.794148
C	1.12799	0.780683	-1.46848
H	1.17303	1.83535	-1.12252
H	2.16095	0.40341	-1.61403
H	0.609704	0.762217	-2.45204
N	2.22032	-0.675695	1.00108
C	2.93772	-0.717241	2.254
H	2.63702	-1.10866	0.208626
H	3.90351	-1.25637	2.13648
H	2.33714	-1.23993	3.03334
H	3.15329	0.313429	2.61785
C	5.33608	0.572058	2.97456
C	5.82197	-0.325356	1.90231
O	5.75783	-1.54153	2.01726
H	4.95926	-0.0397107	3.82285
H	4.50921	1.20866	2.59538
H	6.16333	1.21809	3.337
N	6.32955	0.265857	0.818235
C	6.88088	-0.474632	-0.289133
C	7.94411	0.383033	-0.949081
O	8.09162	1.56082	-0.628518
H	6.41254	1.2564	0.756697
H	7.37096	-1.36482	0.0850508
C	5.77971	-0.849165	-1.3052
H	5.28374	0.0642504	-1.69728
H	6.18936	-1.43164	-2.15574
H	5.00865	-1.46979	-0.798614
N	8.72013	-0.194769	-1.88714
C	9.76144	0.541554	-2.56514
H	8.58835	-1.15012	-2.13008
H	10.2876	-0.107352	-3.29949
H	10.5111	0.924032	-1.8351
H	9.33448	1.41406	-3.11066
