44
  This energy is -5.0727 and Call times are: 122457
C	2.03224	2.8251	0.038139
C	1.04332	1.92252	0.669405
O	0.760523	2.02363	1.85524
H	2.43114	3.52574	0.803564
H	1.55142	3.41324	-0.771586
H	2.87396	2.23588	-0.38308
N	0.488508	1.00269	-0.123364
C	-0.457973	0.0266956	0.356401
C	-0.340387	-1.2124	-0.510998
O	0.34153	-1.20261	-1.53404
H	0.759182	0.906288	-1.07694
H	-0.193947	-0.260466	1.36658
C	-1.89721	0.585034	0.310746
H	-2.17233	0.869968	-0.727117
H	-2.63387	-0.152186	0.690698
H	-1.95793	1.49563	0.945943
N	-1.0008	-2.31816	-0.114541
C	-0.94329	-3.54578	-0.873367
H	-1.54415	-2.30783	0.718365
H	-1.55118	-4.33891	-0.384855
H	0.10692	-3.90887	-0.953999
H	-1.33453	-3.3891	-1.90464
C	8.25736	1.74294	-1.09254
C	6.80466	1.46048	-1.12454
O	6.02922	2.19838	-1.71667
H	8.46103	2.68329	-1.64942
H	8.81918	0.91321	-1.57072
H	8.60043	1.86505	-0.0435082
N	6.39815	0.367475	-0.474561
C	5.01114	-0.0144681	-0.380351
C	4.82018	-0.78789	0.910743
O	5.78723	-1.13299	1.58707
H	7.03612	-0.200856	0.0371562
H	4.39887	0.876394	-0.316274
C	4.5919	-0.873658	-1.59331
H	5.21271	-1.79291	-1.6534
H	3.52224	-1.16255	-1.5394
H	4.74755	-0.290747	-2.52729
N	3.55824	-1.07211	1.28855
C	3.27897	-1.79924	2.50488
H	2.7885	-0.780895	0.73018
H	2.18305	-1.93276	2.64043
H	3.67747	-1.25215	3.38985
H	3.75451	-2.80637	2.47875
