44
  This energy is -4.1876 and Call times are: 118276
C	1.22941	2.34927	-2.25437
C	0.153993	1.46677	-1.74859
O	-0.992054	1.56268	-2.16547
H	0.804836	3.05448	-3.00157
H	2.02325	1.74474	-2.74131
H	1.66989	2.93322	-1.41887
N	0.506304	0.573792	-0.820767
C	-0.437478	-0.323965	-0.202813
C	0.0639391	-0.651156	1.19113
O	1.18694	-0.305921	1.55363
H	1.43448	0.535289	-0.461783
H	-1.39003	0.179262	-0.0931128
C	-0.59927	-1.61382	-1.03668
H	0.375712	-2.13597	-1.14062
H	-1.33386	-2.30731	-0.57847
H	-0.959323	-1.34976	-2.05501
N	-0.766789	-1.32243	2.0129
C	-0.378141	-1.6728	3.35915
H	-1.67321	-1.58962	1.70294
H	-1.1971	-2.22111	3.87479
H	-0.142062	-0.758462	3.95036
H	0.527392	-2.3217	3.35055
C	7.29225	1.71485	-2.76204
C	6.39124	1.60617	-1.59263
O	5.75835	2.57216	-1.18923
H	7.28121	2.76089	-3.13824
H	6.95035	1.03772	-3.57281
H	8.33032	1.44843	-2.47136
N	6.31467	0.406466	-1.01191
C	5.514	0.156136	0.160608
C	6.15595	-0.977084	0.938607
O	7.08713	-1.62148	0.459702
H	6.8672	-0.360013	-1.32667
H	5.52803	1.03251	0.796531
C	4.06431	-0.207399	-0.2286
H	4.04858	-1.11259	-0.872363
H	3.43417	-0.388943	0.666106
H	3.61709	0.632594	-0.803705
N	5.67471	-1.24195	2.16916
C	6.22644	-2.29816	2.98537
H	4.92346	-0.706901	2.5412
H	5.69675	-2.35823	3.96161
H	7.30768	-2.11709	3.18386
H	6.12969	-3.28246	2.47259
