44
  This energy is 0.1121 and Call times are: 123055
C	3.43013	0.0725228	-0.584516
C	2.26253	-0.16566	0.293618
O	2.38772	-0.720597	1.37657
H	4.34307	-0.338364	-0.101206
H	3.56964	1.16171	-0.748699
H	3.28288	-0.432618	-1.56239
N	1.08063	0.254409	-0.163587
C	-0.151445	0.0551593	0.558118
C	-1.282	-0.0281443	-0.450079
O	-1.08889	0.233177	-1.63588
H	0.988645	0.667676	-1.06504
H	-0.111731	-0.894254	1.07741
C	-0.399219	1.20802	1.55549
H	-0.45056	2.18106	1.02202
H	-1.33804	1.05912	2.1273
H	0.444087	1.25529	2.27865
N	-2.49487	-0.405185	0.000260255
C	-3.62912	-0.517767	-0.886865
H	-2.63058	-0.61651	0.962548
H	-4.53501	-0.840569	-0.327945
H	-3.42776	-1.26421	-1.68908
H	-3.84682	0.460879	-1.37267
C	6.13989	3.42481	-0.48109
C	5.40597	2.26059	0.06399
O	4.49654	2.406	0.869098
H	5.7368	4.35728	-0.0295688
H	6.01338	3.47523	-1.583
H	7.2201	3.3449	-0.236507
N	5.79372	1.05877	-0.369227
C	5.20383	-0.169154	0.102772
C	6.25012	-1.26361	0.00782437
O	7.31952	-1.06453	-0.565275
H	6.56263	0.954026	-0.99346
H	4.94352	-0.061597	1.14838
C	3.957	-0.538243	-0.730549
H	4.2255	-0.659039	-1.8017
H	3.48563	-1.47469	-0.368048
H	3.20825	0.280099	-0.652878
N	5.96689	-2.45068	0.579365
C	6.90391	-3.54928	0.544215
H	5.09791	-2.59138	1.04213
H	6.488	-4.43784	1.06835
H	7.86041	-3.26573	1.04019
H	7.13251	-3.83743	-0.507384
