44
  This energy is -2.8095 and Call times are: 114168
C	-2.38196	-1.45796	2.07685
C	-1.3366	-1.54292	1.03227
O	-0.88577	-2.62225	0.674225
H	-2.62483	-2.48111	2.43748
H	-3.30182	-0.995695	1.66103
H	-2.01865	-0.851839	2.93342
N	-0.920213	-0.385227	0.513856
C	0.121262	-0.304254	-0.479791
C	0.816334	1.03571	-0.328329
O	0.362254	1.89978	0.419269
H	-1.26739	0.487645	0.844662
H	0.858686	-1.07367	-0.287885
C	-0.460675	-0.45463	-1.90246
H	-1.20957	0.340801	-2.10365
H	0.333183	-0.407881	-2.67584
H	-0.971321	-1.43864	-1.98798
N	1.94696	1.23686	-1.03348
C	2.67976	2.47864	-0.948872
H	2.30104	0.52421	-1.63
H	3.57969	2.44949	-1.60193
H	3.01207	2.6681	0.0975273
H	2.04176	3.3341	-1.26871
C	4.05124	-2.7689	0.805166
C	4.3155	-1.3125	0.820058
O	3.45628	-0.516846	1.17377
H	3.00546	-2.95578	1.1327
H	4.74373	-3.2906	1.49873
H	4.18369	-3.17137	-0.221257
N	5.53141	-0.925927	0.426986
C	5.92252	0.459421	0.34699
C	6.98151	0.590404	-0.731406
O	7.47971	-0.407227	-1.24933
H	6.20653	-1.58248	0.102938
H	5.07171	1.0535	0.0374321
C	6.46656	0.958303	1.70359
H	7.3459	0.355916	2.01654
H	6.7582	2.02763	1.65873
H	5.67777	0.84571	2.47914
N	7.34565	1.83369	-1.10245
C	8.34169	2.05626	-2.12447
H	6.92827	2.62861	-0.674711
H	8.50191	3.1449	-2.28702
H	8.02237	1.60103	-3.08991
H	9.31424	1.59837	-1.83184
