44
  This energy is -2.5341 and Call times are: 115522
C	-2.07103	2.58911	1.05833
C	-1.56947	1.19966	1.15336
O	-1.85688	0.486639	2.10489
H	-2.684	2.82056	1.95643
H	-2.70202	2.70709	0.152417
H	-1.21993	3.30079	1.01099
N	-0.793102	0.779192	0.151946
C	-0.195512	-0.532569	0.124975
C	1.0936	-0.448779	-0.670464
O	1.38173	0.568851	-1.29746
H	-0.534591	1.38466	-0.595343
H	0.0664283	-0.826596	1.13372
C	-1.15598	-1.56347	-0.507469
H	-1.41668	-1.26779	-1.54605
H	-0.712725	-2.58025	-0.521394
H	-2.09538	-1.60224	0.0861493
N	1.9082	-1.52221	-0.655924
C	3.15857	-1.53208	-1.37887
H	1.65982	-2.33497	-0.139397
H	3.68407	-2.50288	-1.24241
H	3.82754	-0.717644	-1.01769
H	2.98394	-1.37778	-2.46829
C	7.34253	-0.374873	-3.44158
C	7.11073	-0.824953	-2.05059
O	6.32038	-1.72429	-1.79967
H	6.69413	-0.959619	-4.12968
H	8.40408	-0.536234	-3.72413
H	7.09325	0.702578	-3.54171
N	7.80578	-0.196239	-1.09979
C	7.65596	-0.493732	0.302924
C	7.97829	0.762573	1.08993
O	8.45698	1.7489	0.533399
H	8.41485	0.561558	-1.31573
H	6.62258	-0.745527	0.506304
C	8.58828	-1.6507	0.724161
H	9.64937	-1.38867	0.525464
H	8.47217	-1.89849	1.79917
H	8.33983	-2.55713	0.130025
N	7.71337	0.757897	2.41122
C	7.98174	1.90994	3.24003
H	7.32223	-0.0482175	2.8428
H	7.69573	1.70982	4.29615
H	7.40556	2.79391	2.8824
H	9.06473	2.16984	3.21308
