44
  This energy is -5.7232 and Call times are: 123667
C	1.89875	2.28197	-1.8166
C	0.615127	1.81942	-1.24258
O	-0.367202	2.54807	-1.2198
H	1.7878	3.33144	-2.16616
H	2.18411	1.64408	-2.67939
H	2.69847	2.24212	-1.04722
N	0.596336	0.576362	-0.75593
C	-0.566784	0.00134244	-0.127388
C	-0.0978064	-1.02727	0.884334
O	1.0832	-1.36501	0.937876
H	1.41531	0.00977002	-0.744536
H	-1.09596	0.772579	0.418323
C	-1.49332	-0.653258	-1.17537
H	-0.954043	-1.45171	-1.72826
H	-2.39942	-1.08755	-0.705371
H	-1.81779	0.115939	-1.90981
N	-1.01797	-1.54587	1.72122
C	-0.663419	-2.52674	2.7204
H	-1.96799	-1.25707	1.66532
H	-1.55742	-2.82949	3.3089
H	0.0958888	-2.11426	3.42367
H	-0.233247	-3.43663	2.24271
C	5.18125	-1.64493	-3.05528
C	4.5857	-0.939772	-1.89803
O	3.41703	-0.578556	-1.90988
H	4.41789	-1.74438	-3.85731
H	5.51932	-2.65845	-2.75323
H	6.04503	-1.0699	-3.45061
N	5.39181	-0.723177	-0.856075
C	4.96822	-0.0120601	0.324364
C	6.18479	0.657589	0.935183
O	7.31501	0.410962	0.51868
H	6.35196	-0.986808	-0.877597
H	4.27707	0.771742	0.0404653
C	4.31105	-0.971711	1.34046
H	5.02319	-1.76993	1.64005
H	3.96809	-0.433794	2.24795
H	3.42805	-1.45632	0.869499
N	5.97876	1.53303	1.93876
C	7.07549	2.22258	2.5774
H	5.05658	1.72261	2.25928
H	6.70219	2.89874	3.37783
H	7.63948	2.83444	1.83656
H	7.78413	1.49491	3.03507
