44
  This energy is 0.1278 and Call times are: 115494
C	-2.78336	-1.30933	-1.62827
C	-2.15629	-0.378312	-0.663315
O	-2.79194	0.541113	-0.166311
H	-3.83988	-1.00717	-1.79664
H	-2.76514	-2.34483	-1.22809
H	-2.2419	-1.27815	-2.59726
N	-0.871676	-0.599236	-0.374614
C	-0.114087	0.24719	0.513182
C	1.34242	0.190358	0.0925594
O	1.72297	-0.618192	-0.751915
H	-0.35648	-1.3269	-0.818401
H	-0.443567	1.27219	0.397212
C	-0.272346	-0.209882	1.97991
H	0.0753678	-1.25789	2.10157
H	0.295216	0.442421	2.67481
H	-1.34666	-0.167863	2.26352
N	2.19447	1.06001	0.670266
C	3.5977	1.08332	0.328811
H	1.867	1.70949	1.34851
H	4.1309	1.86755	0.910103
H	3.73447	1.29733	-0.75598
H	4.07223	0.0997567	0.549165
C	3.83308	0.188777	1.31474
C	4.81979	0.44749	0.242063
O	4.46611	0.83208	-0.86402
H	2.80945	0.382164	0.926618
H	4.02248	0.859695	2.17888
H	3.89755	-0.868812	1.64703
N	6.1013	0.235988	0.550913
C	7.17164	0.402902	-0.400435
C	8.29858	-0.536419	-0.014115
O	8.27129	-1.14772	1.05232
H	6.37011	-0.116296	1.44282
H	6.82616	0.105426	-1.38266
C	7.66848	1.86508	-0.420962
H	8.03281	2.1674	0.583983
H	8.48338	2.00954	-1.15961
H	6.82564	2.53522	-0.698202
N	9.31865	-0.679805	-0.882969
C	10.4323	-1.55598	-0.603263
H	9.32094	-0.179875	-1.7427
H	11.1669	-1.53709	-1.43826
H	10.0824	-2.60505	-0.467998
H	10.9539	-1.24299	0.330065
