44
  This energy is -1.2488 and Call times are: 122361
C	1.89533	-1.73302	-2.34884
C	1.45971	-1.47838	-0.957249
O	1.74294	-2.2527	-0.0535828
H	2.45887	-2.6905	-2.38791
H	2.5562	-0.912503	-2.69919
H	1.01269	-1.80796	-3.01849
N	0.746682	-0.368438	-0.752303
C	0.216367	-0.00830231	0.539064
C	-1.04173	0.81121	0.321914
O	-1.35402	1.19985	-0.801985
H	0.489269	0.230847	-1.50494
H	-0.0717016	-0.906939	1.07019
C	1.25174	0.795278	1.35607
H	1.53971	1.72259	0.816429
H	0.860303	1.06663	2.3579
H	2.16686	0.179362	1.49591
N	-1.8021	1.08703	1.39978
C	-3.01986	1.85578	1.28905
H	-1.5351	0.760393	2.30038
H	-3.50179	1.97461	2.28446
H	-3.74253	1.35086	0.607819
H	-2.8087	2.86958	0.878238
C	4.8565	2.31424	1.01399
C	6.12101	1.57246	1.21878
O	6.90187	1.88559	2.10683
H	4.79177	3.14116	1.75418
H	3.98824	1.63678	1.15514
H	4.82675	2.74468	-0.00919453
N	6.35473	0.556405	0.384883
C	7.56137	-0.231185	0.432524
C	7.83922	-0.75576	-0.963611
O	7.0094	-0.626614	-1.86162
H	5.729	0.339442	-0.358922
H	8.39263	0.405204	0.709355
C	7.41809	-1.40017	1.43162
H	6.572	-2.05924	1.14212
H	8.34564	-2.00599	1.48765
H	7.20729	-0.993318	2.44472
N	9.02567	-1.3566	-1.18118
C	9.38023	-1.88184	-2.47909
H	9.68587	-1.44803	-0.44303
H	10.3951	-2.33658	-2.45548
H	9.37659	-1.07248	-3.24472
H	8.65314	-2.66296	-2.79901
