44
  This energy is -3.0867 and Call times are: 121933
C	-2.16972	-2.03603	-1.80543
C	-1.26923	-1.78589	-0.657529
O	-1.22932	-2.55292	0.294566
H	-2.75203	-2.96467	-1.61989
H	-1.57742	-2.16312	-2.73589
H	-2.87573	-1.18799	-1.92986
N	-0.515556	-0.685867	-0.723206
C	0.377358	-0.286674	0.335996
C	0.50682	1.22448	0.301121
O	0.0377202	1.87542	-0.630505
H	-0.589082	-0.0497132	-1.48594
H	-0.0601306	-0.550996	1.29065
C	1.76107	-0.952619	0.171419
H	2.21494	-0.673307	-0.803274
H	2.4534	-0.66399	0.988673
H	1.64121	-2.05786	0.191912
N	1.14382	1.82133	1.32778
C	1.31027	3.255	1.38322
H	1.51304	1.27809	2.07453
H	1.85883	3.55189	2.30418
H	0.320043	3.7656	1.38515
H	1.88439	3.61847	0.500373
C	4.68684	-2.74533	1.85624
C	5.68961	-1.71043	1.51772
O	6.66721	-1.51996	2.22796
H	4.97882	-3.2427	2.80662
H	4.63797	-3.50861	1.05141
H	3.68658	-2.28094	1.98623
N	5.46344	-1.00594	0.406449
C	6.32671	0.0632663	-0.0295662
C	5.49079	1.05508	-0.8164
O	4.33024	0.793771	-1.12712
H	4.64199	-1.14473	-0.139271
H	6.71526	0.584409	0.836498
C	7.48234	-0.480103	-0.898195
H	7.08443	-1.00571	-1.79232
H	8.16198	0.331918	-1.22869
H	8.0757	-1.20968	-0.30492
N	6.06319	2.22819	-1.15136
C	5.34312	3.23552	-1.89498
H	7.00202	2.42311	-0.88742
H	5.98415	4.1272	-2.07167
H	4.43533	3.56146	-1.33734
H	5.01686	2.83672	-2.88274
