44
  This energy is -5.2865 and Call times are: 120665
C	-0.271173	-3.46047	-0.25362
C	0.449716	-2.18908	-0.488222
O	1.61118	-2.1815	-0.872101
H	0.410685	-4.31327	-0.462601
H	-1.15155	-3.53101	-0.926457
H	-0.607898	-3.52014	0.802859
N	-0.235286	-1.06691	-0.256095
C	0.344502	0.245422	-0.398196
C	-0.367549	1.1832	0.558417
O	-1.37522	0.820703	1.16249
H	-1.16688	-1.08941	0.0953177
H	1.38514	0.210322	-0.10075
C	0.213366	0.752102	-1.85123
H	-0.854641	0.798324	-2.15333
H	0.668453	1.75593	-1.97671
H	0.734761	0.0465607	-2.53439
N	0.148825	2.41672	0.725162
C	-0.457608	3.37555	1.61908
H	0.967202	2.69032	0.230714
H	0.113643	4.32995	1.61832
H	-0.48032	2.98152	2.66095
H	-1.50536	3.59356	1.30952
C	5.01557	0.282687	3.45866
C	4.25413	0.408244	2.19548
O	3.04777	0.610906	2.20104
H	4.3188	0.383182	4.31905
H	5.78401	1.08148	3.52331
H	5.50971	-0.710392	3.51051
N	4.95471	0.286067	1.0656
C	4.34638	0.341784	-0.240305
C	5.18585	-0.492813	-1.18915
O	6.27743	-0.937463	-0.839219
H	5.92911	0.0804669	1.07737
H	3.36354	-0.110662	-0.196141
C	4.2496	1.7992	-0.742109
H	5.25867	2.26044	-0.797641
H	3.77026	1.85664	-1.74084
H	3.63773	2.39316	-0.0285499
N	4.688	-0.732905	-2.41817
C	5.41333	-1.52154	-3.38674
H	3.80111	-0.368028	-2.68155
H	4.83868	-1.60519	-4.33542
H	5.59842	-2.54888	-2.99737
H	6.39945	-1.05556	-3.61382
