44
  This energy is -1.8155 and Call times are: 114529
C	1.14505	-2.78293	1.74838
C	0.447428	-1.47883	1.68688
O	-0.210213	-1.06753	2.63279
H	0.943468	-3.2613	2.73144
H	2.24009	-2.63676	1.63765
H	0.778125	-3.45165	0.941364
N	0.57636	-0.789846	0.550628
C	-0.0785502	0.474669	0.325565
C	-0.324513	0.621379	-1.16424
O	0.163138	-0.174596	-1.96445
H	1.08131	-1.15647	-0.225572
H	-1.04549	0.467919	0.813013
C	0.783994	1.64367	0.84967
H	1.77214	1.65738	0.34231
H	0.28431	2.62185	0.694698
H	0.957924	1.51141	1.9399
N	-1.09954	1.64557	-1.57216
C	-1.39315	1.86132	-2.96981
H	-1.48854	2.2768	-0.90936
H	-2.0457	2.7524	-3.10157
H	-1.91543	0.977395	-3.40245
H	-0.454928	2.025	-3.54782
C	6.46764	3.30243	-0.519961
C	6.73547	1.92453	-0.050058
O	7.86598	1.56676	0.250515
H	7.4223	3.87108	-0.55359
H	5.76862	3.81444	0.174276
H	6.02645	3.28033	-1.53875
N	5.68247	1.107	0.0222882
C	5.79217	-0.274265	0.420579
C	4.6751	-1.05039	-0.251247
O	3.77787	-0.466521	-0.856049
H	4.77519	1.40072	-0.264802
H	6.72909	-0.677542	0.0570201
C	5.70163	-0.414565	1.95595
H	4.73613	-0.0105706	2.32829
H	5.79868	-1.47218	2.27618
H	6.52361	0.167675	2.42679
N	4.70936	-2.39491	-0.166926
C	3.69205	-3.21688	-0.779793
H	5.4457	-2.84939	0.323299
H	3.89636	-4.29528	-0.599409
H	3.65902	-3.04573	-1.8802
H	2.68764	-2.97553	-0.362582
