44
  This energy is -4.9109 and Call times are: 123139
C	0.331684	0.386381	3.44287
C	-0.476778	0.107437	2.23468
O	-1.61715	-0.326446	2.32242
H	-0.257819	0.123543	4.34802
H	0.595663	1.46396	3.48632
H	1.26094	-0.221409	3.43023
N	0.107808	0.352839	1.05977
C	-0.536696	0.09077	-0.202959
C	0.539087	-0.208318	-1.22999
O	1.72772	-0.0404116	-0.964127
H	1.05117	0.667159	1.00372
H	-1.15197	-0.79576	-0.112788
C	-1.38955	1.29889	-0.64828
H	-0.756927	2.20622	-0.751137
H	-1.90206	1.10416	-1.61261
H	-2.16487	1.50456	0.121738
N	0.144133	-0.669807	-2.43293
C	1.0971	-0.986883	-3.47096
H	-0.821936	-0.80307	-2.62793
H	0.577116	-1.3514	-4.38418
H	1.80143	-1.77941	-3.12879
H	1.6954	-0.0874471	-3.74334
C	3.86736	2.7255	-2.05388
C	4.60573	1.48089	-1.74257
O	5.30764	0.934432	-2.58228
H	4.05714	3.01036	-3.11156
H	4.20988	3.54919	-1.39284
H	2.77697	2.56871	-1.91405
N	4.45873	0.996903	-0.507041
C	5.07958	-0.22848	-0.0693963
C	4.2108	-0.837938	1.01474
O	3.2655	-0.21196	1.4904
H	3.85158	1.43053	0.152657
H	5.10593	-0.929909	-0.893972
C	6.50509	0.034934	0.463305
H	6.47757	0.746346	1.31605
H	6.99894	-0.902909	0.790538
H	7.12069	0.488133	-0.34415
N	4.50848	-2.08603	1.42664
C	3.73413	-2.74923	2.44973
H	5.27475	-2.57812	1.02693
H	4.13539	-3.7674	2.64863
H	2.66984	-2.84726	2.13516
H	3.76104	-2.16958	3.40075
