44
  This energy is -1.1203 and Call times are: 124279
C	1.71055	-1.41869	2.67844
C	1.68118	-0.742608	1.36193
O	2.70017	-0.286971	0.861466
H	2.74868	-1.40386	3.07586
H	1.38064	-2.4737	2.57431
H	1.04429	-0.892175	3.39396
N	0.490491	-0.65977	0.763781
C	0.296054	0.00668712	-0.499781
C	-1.12576	0.534115	-0.54247
O	-1.93922	0.222974	0.325391
H	-0.336719	-0.999165	1.20242
H	0.958904	0.860959	-0.558794
C	0.550967	-0.958975	-1.67781
H	-0.135978	-1.8303	-1.6236
H	0.417941	-0.453929	-2.65646
H	1.59457	-1.33861	-1.62194
N	-1.45704	1.35752	-1.55652
C	-2.78502	1.91277	-1.67634
H	-0.783912	1.60104	-2.24693
H	-2.85914	2.56463	-2.57456
H	-3.03824	2.52253	-0.778928
H	-3.54335	1.10179	-1.76787
C	5.18356	2.44996	2.20546
C	6.23989	1.82481	1.37809
O	7.30443	2.39247	1.17581
H	5.52879	3.44963	2.54799
H	4.97022	1.81948	3.09412
H	4.25484	2.57518	1.60975
N	5.96233	0.62125	0.871356
C	6.87326	-0.093281	0.0121676
C	6.05725	-0.981996	-0.907556
O	4.84922	-1.1292	-0.73234
H	5.0756	0.189915	1.01108
H	7.40535	0.614215	-0.61149
C	7.86565	-0.937918	0.841016
H	7.32074	-1.67108	1.47315
H	8.58129	-1.48211	0.191225
H	8.44621	-0.268104	1.51231
N	6.70206	-1.59222	-1.92139
C	6.00696	-2.45224	-2.85056
H	7.67908	-1.45759	-2.04941
H	6.70941	-2.85855	-3.6113
H	5.20355	-1.89055	-3.38001
H	5.53502	-3.3083	-2.31616
