44
  This energy is -1.9654 and Call times are: 124251
C	-0.0373665	-3.13717	1.50647
C	0.146123	-1.66922	1.55725
O	0.243024	-1.07998	2.62488
H	-0.0821844	-3.53778	2.54251
H	0.814141	-3.61111	0.97443
H	-0.984664	-3.38655	0.983466
N	0.1963	-1.03644	0.382753
C	0.327886	0.394982	0.271944
C	-0.334165	0.832121	-1.02117
O	-0.715813	0.00297785	-1.84493
H	0.0748849	-1.52467	-0.476757
H	-0.209343	0.867106	1.08503
C	1.81392	0.815311	0.288477
H	2.36323	0.33955	-0.551727
H	1.92805	1.91644	0.217715
H	2.28008	0.478285	1.24003
N	-0.493942	2.15446	-1.22593
C	-1.11829	2.66373	-2.42468
H	-0.182351	2.80985	-0.545896
H	-1.15713	3.7752	-2.40609
H	-2.15927	2.27821	-2.51955
H	-0.549346	2.34765	-3.32887
C	7.0825	-2.88898	-1.57606
C	6.37957	-2.19654	-0.47263
O	5.70602	-2.81814	0.337529
H	6.86871	-3.97854	-1.52122
H	8.17834	-2.73295	-1.48926
H	6.73079	-2.50263	-2.55591
N	6.52196	-0.870214	-0.418122
C	5.86435	-0.0542799	0.572006
C	5.63975	1.32291	-0.0233644
O	6.14302	1.63264	-1.10155
H	7.0401	-0.373859	-1.10879
H	4.89035	-0.473801	0.790966
C	6.71338	0.0438162	1.85838
H	7.70885	0.483901	1.63611
H	6.21132	0.658179	2.63363
H	6.8718	-0.975983	2.27221
N	4.8659	2.18378	0.666617
C	4.59197	3.51425	0.175717
H	4.46409	1.91351	1.53528
H	3.93712	4.06778	0.884251
H	4.08042	3.47051	-0.813063
H	5.53783	4.08928	0.0499195
