44
  This energy is -0.6285 and Call times are: 115550
C	2.98621	-1.49592	0.978505
C	2.22627	-0.391539	0.350819
O	2.7693	0.665389	0.0602386
H	4.04074	-1.17747	1.12825
H	2.97101	-2.39191	0.322977
H	2.54472	-1.75214	1.96467
N	0.929443	-0.615907	0.12662
C	0.0511294	0.378303	-0.437889
C	-1.35169	0.11755	0.0775454
O	-1.61064	-0.905116	0.709059
H	0.492732	-1.46622	0.406111
H	0.347403	1.35833	-0.0851771
C	0.079222	0.326845	-1.9812
H	-0.234787	-0.67511	-2.34386
H	-0.58256	1.09689	-2.42795
H	1.11662	0.5124	-2.33576
N	-2.2935	1.0478	-0.174721
C	-3.65473	0.888291	0.281129
H	-2.06383	1.87071	-0.68379
H	-4.27639	1.75847	-0.0247094
H	-3.68991	0.805475	1.39161
H	-4.10748	-0.034565	-0.148396
C	8.26147	-1.50212	-3.13236
C	8.87248	-0.812254	-1.97395
O	10.0872	-0.74071	-1.84839
H	9.0654	-1.91262	-3.78124
H	7.65105	-0.788322	-3.72449
H	7.61855	-2.33799	-2.78445
N	8.02816	-0.2824	-1.08582
C	8.47248	0.382077	0.114011
C	7.39549	0.221136	1.17031
O	6.29624	-0.24845	0.882488
H	7.04201	-0.384357	-1.18056
H	9.36384	-0.108444	0.484812
C	8.74905	1.87775	-0.153809
H	7.8321	2.38375	-0.524229
H	9.10513	2.39746	0.759223
H	9.53433	1.97155	-0.935393
N	7.69176	0.602255	2.42848
C	6.73169	0.481345	3.50078
H	8.58805	0.976183	2.64274
H	7.16359	0.846922	4.45841
H	6.42678	-0.581554	3.637
H	5.81695	1.07712	3.2784
