44
  This energy is -3.7207 and Call times are: 118182
C	-0.834411	-2.49226	2.28146
C	-0.69877	-1.98461	0.897615
O	-0.79723	-2.73417	-0.0640881
H	-1.00725	-3.59012	2.25466
H	-1.69563	-2.00507	2.78513
H	0.0934396	-2.28849	2.8565
N	-0.46333	-0.677132	0.765543
C	-0.265277	-0.0447847	-0.514875
C	0.631804	1.16185	-0.312771
O	0.923314	1.5476	0.817685
H	-0.345062	-0.0871209	1.55912
H	0.256322	-0.727779	-1.17373
C	-1.61436	0.381173	-1.13437
H	-2.14507	1.09007	-0.463663
H	-1.4763	0.856909	-2.12691
H	-2.25748	-0.516296	-1.26586
N	1.09986	1.78423	-1.41258
C	1.96439	2.93743	-1.31825
H	0.856234	1.45484	-2.3188
H	2.24166	3.30494	-2.33081
H	2.89998	2.68309	-0.769384
H	1.45741	3.76506	-0.771306
C	4.71984	1.43726	3.1582
C	4.77364	1.51721	1.68108
O	4.8388	2.5957	1.10749
H	4.73087	2.46483	3.58227
H	5.59942	0.879969	3.54358
H	3.78832	0.92565	3.48006
N	4.74469	0.35626	1.02248
C	4.74688	0.274782	-0.41693
C	4.02364	-0.996512	-0.819806
O	3.70089	-1.83153	0.0229806
H	4.65023	-0.511546	1.50191
H	4.18593	1.10743	-0.822707
C	6.18991	0.27442	-0.967291
H	6.76269	-0.585629	-0.559511
H	6.20473	0.225988	-2.07542
H	6.70254	1.20994	-0.653677
N	3.74349	-1.16917	-2.1266
C	3.05326	-2.34521	-2.60273
H	4.00905	-0.48043	-2.79308
H	2.91655	-2.3014	-3.70574
H	2.04884	-2.43022	-2.12821
H	3.63021	-3.26603	-2.35703
