44
  This energy is -2.3001 and Call times are: 116535
C	-0.504009	2.99294	1.70321
C	-0.100262	2.22974	0.500861
O	0.0900737	2.7897	-0.569948
H	-0.603692	4.06827	1.43935
H	0.263283	2.88776	2.49879
H	-1.48076	2.62355	2.08083
N	0.0391475	0.910874	0.654229
C	0.385246	0.0304775	-0.433741
C	-0.209565	-1.33491	-0.144836
O	-0.716433	-1.58271	0.947591
H	-0.159084	0.464279	1.52206
H	-0.0702465	0.394209	-1.34635
C	1.91783	-0.0698805	-0.59606
H	2.38458	-0.452979	0.336366
H	2.1969	-0.734132	-1.43951
H	2.33243	0.941724	-0.798817
N	-0.168452	-2.2556	-1.12803
C	-0.714598	-3.58034	-0.946398
H	0.24215	-2.03508	-2.00657
H	-0.584728	-4.18904	-1.86826
H	-1.80239	-3.5279	-0.711402
H	-0.204609	-4.10385	-0.105574
C	6.93878	3.24803	-0.614497
C	6.62879	1.8711	-1.06073
O	6.586	1.58547	-2.24943
H	7.08821	3.89757	-1.50423
H	7.86732	3.25313	-0.00577877
H	6.09915	3.65285	-0.010986
N	6.39968	0.973224	-0.0996359
C	6.04367	-0.395704	-0.378659
C	5.20164	-0.909769	0.773856
O	5.0695	-0.247877	1.80154
H	6.39782	1.2302	0.862559
H	5.4278	-0.430348	-1.26867
C	7.3053	-1.26811	-0.558796
H	7.93222	-1.24132	0.357886
H	7.04442	-2.32168	-0.787838
H	7.9102	-0.868915	-1.40205
N	4.60193	-2.1073	0.62462
C	3.77694	-2.6745	1.6657
H	4.71737	-2.62623	-0.215894
H	3.37363	-3.6629	1.35322
H	2.91853	-2.00277	1.89637
H	4.36584	-2.81562	2.6008
