44
  This energy is -2.819 and Call times are: 116925
C	-1.05291	2.47017	2.21412
C	-0.0619933	1.47418	1.74803
O	1.06966	1.44245	2.21146
H	-0.583768	3.12376	2.98133
H	-1.92796	1.9571	2.66556
H	-1.39163	3.0996	1.36431
N	-0.472781	0.626041	0.802365
C	0.39031	-0.37049	0.218791
C	-0.0869311	-0.639651	-1.1959
O	-1.14911	-0.172053	-1.60191
H	-1.3841	0.690687	0.40589
H	1.39637	0.0241958	0.150221
C	0.374249	-1.67062	1.05224
H	-0.655938	-2.08163	1.11405
H	1.04569	-2.44104	0.620794
H	0.719455	-1.44841	2.08559
N	0.697267	-1.3985	-1.9866
C	0.327498	-1.7032	-3.34917
H	1.55516	-1.76453	-1.64147
H	1.10112	-2.33865	-3.83388
H	0.218343	-0.768138	-3.94501
H	-0.643858	-2.24784	-3.38042
C	3.98614	-2.91745	-0.814822
C	4.3259	-1.8246	0.124007
O	3.69033	-1.65572	1.15549
H	3.10804	-3.47679	-0.425028
H	4.84268	-3.61692	-0.913963
H	3.73257	-2.50017	-1.81214
N	5.35275	-1.04404	-0.220518
C	5.77441	0.0856744	0.569735
C	6.40287	1.10572	-0.36092
O	6.63156	0.828662	-1.53678
H	5.83437	-1.16875	-1.08327
H	4.90617	0.551093	1.01937
C	6.78129	-0.347241	1.65786
H	7.67693	-0.815253	1.19652
H	7.10298	0.51153	2.28199
H	6.30274	-1.09947	2.32229
N	6.6905	2.32082	0.145848
C	7.28488	3.35703	-0.666032
H	6.49434	2.52755	1.09866
H	7.44405	4.28182	-0.0688164
H	6.6259	3.60629	-1.52911
H	8.26949	3.02518	-1.068
