44
  This energy is 0.1621 and Call times are: 119662
C	-1.90359	1.70988	2.35909
C	-1.39771	1.52228	0.980678
O	-1.87171	2.14717	0.0419256
H	-2.73298	2.45007	2.34839
H	-1.0926	2.08835	3.0162
H	-2.28578	0.747736	2.76072
N	-0.407797	0.639807	0.826794
C	0.158726	0.318224	-0.459362
C	0.677236	-1.10646	-0.404934
O	0.724574	-1.71918	0.659984
H	-0.0602509	0.108869	1.59438
H	-0.620388	0.349449	-1.21078
C	1.29858	1.29588	-0.820144
H	2.10302	1.25652	-0.0550541
H	1.73377	1.06722	-1.81455
H	0.898114	2.33284	-0.846435
N	1.07283	-1.67253	-1.56213
C	1.57533	-3.02586	-1.60861
H	1.02318	-1.16222	-2.4143
H	1.84794	-3.30861	-2.64926
H	0.806416	-3.7432	-1.24054
H	2.48057	-3.13123	-0.967853
C	6.50975	1.74585	1.58507
C	5.87328	1.18058	0.374063
O	6.2743	1.46897	-0.745055
H	7.33102	2.43126	1.28243
H	6.93303	0.931849	2.21034
H	5.76462	2.31747	2.17761
N	4.84752	0.350118	0.575418
C	4.1007	-0.244719	-0.504851
C	2.68759	-0.502919	-0.0169881
O	2.3959	-0.365155	1.16945
H	4.50652	0.157078	1.49101
H	4.03529	0.460012	-1.32442
C	4.76072	-1.56016	-0.973089
H	4.8185	-2.28735	-0.135296
H	4.20268	-2.02075	-1.8139
H	5.79634	-1.34859	-1.31814
N	1.76977	-0.878033	-0.929628
C	0.398615	-1.14028	-0.55904
H	2.02389	-0.980191	-1.88569
H	-0.199792	-1.43521	-1.44907
H	-0.0667636	-0.233757	-0.108564
H	0.344295	-1.96413	0.188926
