44
  This energy is -3.523 and Call times are: 125008
C	1.55924	-1.51759	2.71632
C	0.88079	-0.366612	2.07906
O	0.50972	0.594164	2.73908
H	1.63059	-1.34144	3.81165
H	2.58334	-1.63458	2.30368
H	0.980894	-2.44881	2.53903
N	0.699206	-0.441565	0.758532
C	0.0168513	0.58066	0.00486887
C	-0.625889	-0.0726552	-1.20411
O	-0.38128	-1.24265	-1.49219
H	0.970109	-1.2483	0.241171
H	-0.780061	0.997319	0.608158
C	0.998207	1.68867	-0.436144
H	1.81012	1.26343	-1.06384
H	0.482257	2.48875	-1.00553
H	1.46255	2.14727	0.464092
N	-1.4755	0.67154	-1.9392
C	-2.13837	0.132992	-3.104
H	-1.66396	1.61515	-1.68791
H	-2.79566	0.898815	-3.57167
H	-2.76538	-0.745621	-2.82799
H	-1.39272	-0.199489	-3.86201
C	7.27308	-2.76982	1.59858
C	6.12261	-2.02684	1.03685
O	5.03324	-2.5636	0.889968
H	6.96455	-3.81568	1.81501
H	7.61293	-2.29287	2.54186
H	8.11089	-2.78579	0.869955
N	6.34451	-0.753421	0.702854
C	5.33492	0.0843953	0.105065
C	6.03027	1.12083	-0.757414
O	7.2527	1.24881	-0.725846
H	7.24748	-0.342495	0.790246
H	4.71419	-0.515426	-0.548792
C	4.4749	0.770689	1.18885
H	5.10981	1.39454	1.85349
H	3.68494	1.40781	0.741007
H	3.98199	-0.00650341	1.81283
N	5.26205	1.88393	-1.55961
C	5.83596	2.89245	-2.41965
H	4.27504	1.76281	-1.57433
H	5.04228	3.41206	-3.00043
H	6.55296	2.43386	-3.1386
H	6.38693	3.65295	-1.82029
