44
  This energy is -8.3218 and Call times are: 119084
C	-2.49218	-1.99863	1.38101
C	-1.08315	-1.55657	1.27928
O	-0.24986	-1.90299	2.10513
H	-2.61433	-2.63056	2.28745
H	-2.77175	-2.59474	0.487004
H	-3.16437	-1.11858	1.46322
N	-0.78239	-0.765702	0.24659
C	0.536007	-0.220663	0.0384493
C	0.392137	1.09583	-0.701617
O	-0.693685	1.44469	-1.16097
H	-1.4803	-0.459066	-0.394317
H	0.988368	-0.00350211	0.998055
C	1.41742	-1.20076	-0.76639
H	0.959043	-1.41565	-1.7552
H	2.4395	-0.798433	-0.921344
H	1.50232	-2.15967	-0.209938
N	1.49094	1.86581	-0.827298
C	1.44867	3.13751	-1.51079
H	2.3597	1.56844	-0.445327
H	2.45138	3.61895	-1.50808
H	0.727707	3.82659	-1.01414
H	1.12621	3.00455	-2.56884
C	3.39344	-0.486204	2.7653
C	3.94051	0.359674	1.6807
O	3.45041	1.44966	1.41967
H	2.52093	0.0260274	3.22596
H	4.16497	-0.653987	3.5459
H	3.06174	-1.46431	2.35743
N	4.98557	-0.134256	1.01268
C	5.59926	0.553133	-0.0961215
C	6.20232	-0.486526	-1.02187
O	6.2631	-1.6681	-0.687371
H	5.3476	-1.04087	1.2098
H	4.83669	1.08004	-0.65601
C	6.68517	1.53482	0.396146
H	7.47321	0.993237	0.961592
H	7.15561	2.08045	-0.447355
H	6.22292	2.28155	1.07809
N	6.65745	-0.0685766	-2.21944
C	7.24243	-0.98711	-3.16826
H	6.59585	0.890883	-2.47384
H	7.55497	-0.452192	-4.09207
H	6.51065	-1.77793	-3.45179
H	8.13787	-1.48586	-2.7317
