44
  This energy is -2.2974 and Call times are: 118459
C	1.19216	-2.57364	-2.01688
C	0.461173	-1.30099	-1.82412
O	0.118884	-0.616779	-2.77864
H	1.35933	-2.74028	-3.10323
H	0.600147	-3.42039	-1.61034
H	2.17627	-2.53114	-1.50423
N	0.204084	-0.949563	-0.562067
C	-0.460782	0.281511	-0.214257
C	0.0179584	0.705276	1.16153
O	0.708507	-0.0462193	1.84718
H	0.525039	-1.49649	0.205872
H	-0.165809	1.05606	-0.911172
C	-1.99465	0.101425	-0.222127
H	-2.29869	-0.685742	0.500343
H	-2.5184	1.04605	0.030625
H	-2.32166	-0.216368	-1.23624
N	-0.333616	1.93165	1.59562
C	0.0802917	2.42303	2.88922
H	-0.889377	2.52692	1.02479
H	-0.308399	3.45074	3.0623
H	1.19171	2.45195	2.96117
H	-0.301141	1.76234	3.70109
C	4.9595	-2.82687	-1.99225
C	5.23264	-2.17772	-0.690269
O	5.26221	-2.82623	0.34654
H	4.78678	-3.91329	-1.8319
H	5.82648	-2.69754	-2.6737
H	4.05407	-2.38398	-2.45819
N	5.43949	-0.859038	-0.716436
C	5.67462	-0.0816983	0.474788
C	5.17313	1.32835	0.226078
O	4.82111	1.68257	-0.897449
H	5.37168	-0.338563	-1.56282
H	5.09192	-0.492194	1.29001
C	7.17607	-0.066534	0.836237
H	7.7732	0.364232	0.0044159
H	7.36833	0.517389	1.7596
H	7.52322	-1.10912	1.00606
N	5.12106	2.16822	1.27865
C	4.65244	3.52727	1.13879
H	5.40632	1.86206	2.18085
H	4.68467	4.05693	2.11637
H	3.6029	3.54439	0.765357
H	5.28579	4.08885	0.414473
