44
  This energy is -4.0034 and Call times are: 125123
C	-2.45716	-2.4645	0.0361411
C	-1.35869	-1.70989	0.680394
O	-1.13574	-1.81566	1.87852
H	-2.98829	-3.06761	0.804278
H	-2.04937	-3.1476	-0.738345
H	-3.17939	-1.76342	-0.432864
N	-0.637826	-0.916078	-0.114972
C	0.435582	-0.0872639	0.374336
C	0.546512	1.12573	-0.53004
O	-0.0933933	1.19066	-1.5779
H	-0.857388	-0.809269	-1.0805
H	0.186907	0.271034	1.3655
C	1.76799	-0.867855	0.399124
H	2.02889	-1.22662	-0.619334
H	2.59964	-0.244677	0.7871
H	1.66118	-1.75527	1.06051
N	1.36119	2.12522	-0.138446
C	1.52591	3.32093	-0.931749
H	1.86758	2.05617	0.714711
H	2.23578	4.02324	-0.441791
H	0.550423	3.84305	-1.06246
H	1.92163	3.07053	-1.94261
C	4.69255	-2.70154	2.09338
C	5.06511	-1.28647	1.8699
O	5.1015	-0.48769	2.79567
H	4.45971	-2.85447	3.1696
H	5.5338	-3.36818	1.80942
H	3.79622	-2.96091	1.4914
N	5.35266	-0.939865	0.613093
C	5.69027	0.409214	0.232883
C	5.26714	0.614045	-1.20954
O	4.88689	-0.333265	-1.8949
H	5.27886	-1.59182	-0.136147
H	5.12098	1.10391	0.837797
C	7.2047	0.66535	0.394508
H	7.78889	-0.0401831	-0.233974
H	7.47521	1.70502	0.118031
H	7.49334	0.501936	1.45579
N	5.31598	1.86685	-1.7036
C	4.92742	2.15868	-3.06376
H	5.62254	2.62105	-1.13239
H	5.03745	3.24423	-3.27989
H	3.86501	1.87243	-3.23877
H	5.56083	1.59165	-3.78376
