44
  This energy is 0.1117 and Call times are: 116048
C	-2.75967	-0.864992	1.93615
C	-2.15079	-0.23676	0.742116
O	-2.83872	0.129094	-0.200913
H	-3.85939	-0.939574	1.79145
H	-2.55675	-0.249689	2.8378
H	-2.34673	-1.88508	2.08442
N	-0.823031	-0.0980651	0.756467
C	-0.0837314	0.455632	-0.350518
C	1.30672	-0.151096	-0.34138
O	1.68747	-0.839028	0.603868
H	-0.272673	-0.437988	1.51372
H	-0.557589	0.162258	-1.27897
C	-0.00374974	1.99443	-0.245927
H	0.491778	2.29577	0.701534
H	0.551259	2.43387	-1.09997
H	-1.03253	2.41627	-0.246361
N	2.09886	0.0847802	-1.40576
C	3.43573	-0.455842	-1.48766
H	1.77158	0.640483	-2.16282
H	3.92588	-0.150419	-2.43828
H	3.41241	-1.56899	-1.44724
H	4.05929	-0.0925613	-0.638927
C	2.75529	-2.11788	-2.14087
C	3.09637	-0.769538	-1.63411
O	2.74464	0.238676	-2.23094
H	2.18717	-2.02012	-3.09142
H	2.12753	-2.65734	-1.40084
H	3.68121	-2.69968	-2.33384
N	3.80358	-0.722138	-0.502746
C	4.24697	0.515171	0.0897266
C	5.52438	0.23953	0.860338
O	5.91678	-0.912094	1.03779
H	4.11758	-1.552	-0.050434
H	4.48969	1.22037	-0.695387
C	3.16511	1.09764	1.02543
H	2.92334	0.378848	1.83717
H	3.48909	2.05763	1.47708
H	2.23703	1.28401	0.442102
N	6.2112	1.29883	1.33169
C	7.44058	1.13404	2.07173
H	5.87992	2.22328	1.17447
H	7.85391	2.1219	2.3726
H	8.20385	0.608421	1.45333
H	7.26735	0.531098	2.99237
