44
  This energy is 0.1048 and Call times are: 121543
C	3.38525	-0.414101	-0.693739
C	2.26743	0.300159	-0.036899
O	2.47466	1.14918	0.819039
H	4.34877	-0.0591521	-0.267688
H	3.37919	-0.212644	-1.78558
H	3.29613	-1.50712	-0.519239
N	1.03633	-0.0361711	-0.428897
C	-0.152012	0.540568	0.148837
C	-1.2715	-0.477824	0.0431035
O	-1.12569	-1.50832	-0.611517
H	0.882325	-0.758216	-1.09733
H	0.0168019	0.72615	1.20226
C	-0.539215	1.84811	-0.576175
H	-0.72279	1.65637	-1.65486
H	-1.44489	2.30922	-0.131585
H	0.297507	2.57563	-0.492753
N	-2.4201	-0.214544	0.696879
C	-3.53825	-1.12802	0.658381
H	-2.5177	0.622657	1.22475
H	-4.3886	-0.734208	1.25758
H	-3.24847	-2.1212	1.07179
H	-3.88701	-1.27846	-0.388937
C	5.38989	1.83681	2.93034
C	4.65597	0.864085	2.0899
O	3.74654	0.188408	2.55121
H	4.9868	1.80512	3.96589
H	5.26338	2.86337	2.5267
H	6.4701	1.58091	2.9572
N	5.04372	0.769149	0.815925
C	4.45383	-0.162854	-0.112489
C	5.50012	-0.522802	-1.15042
O	6.56952	0.0816471	-1.20254
H	5.81263	1.2963	0.46556
H	4.19352	-1.07354	0.412397
C	3.207	0.447304	-0.78951
H	3.4755	1.37591	-1.33691
H	2.73563	-0.265786	-1.4965
H	2.45825	0.710345	-0.0107126
N	5.21689	-1.52901	-2.00091
C	6.15391	-1.94524	-3.01822
H	4.34791	-2.0089	-1.94051
H	5.738	-2.78635	-3.61553
H	7.11041	-2.28232	-2.55695
H	6.38251	-1.10277	-3.71042
