44
  This energy is -3.191 and Call times are: 120809
C	-3.15327	-0.470068	1.39594
C	-1.76934	0.0525103	1.44891
O	-1.41914	0.829087	2.32681
H	-3.74362	-0.0315533	2.22964
H	-3.14926	-1.57537	1.50094
H	-3.63062	-0.192216	0.432597
N	-0.939129	-0.368089	0.491719
C	0.425184	0.0859166	0.386408
C	0.833	0.0237299	-1.07351
O	0.108459	-0.516141	-1.90736
H	-1.25002	-0.96824	-0.23974
H	0.481256	1.12295	0.693095
C	1.36467	-0.785383	1.24864
H	1.31544	-1.84768	0.927491
H	2.41611	-0.437271	1.18689
H	1.04275	-0.731178	2.31155
N	2.00759	0.586682	-1.41914
C	2.47551	0.580894	-2.7856
H	2.57815	1.02244	-0.730928
H	3.45999	1.09226	-2.86632
H	1.75222	1.10607	-3.45067
H	2.59091	-0.463038	-3.15712
C	5.18122	-2.59373	2.03314
C	5.80362	-1.26458	1.84042
O	5.99443	-0.51191	2.78566
H	4.93507	-2.73158	3.10844
H	5.88376	-3.39435	1.71977
H	4.24666	-2.66855	1.4381
N	6.13712	-0.941317	0.588752
C	6.71156	0.333706	0.238192
C	6.31863	0.652309	-1.19208
O	5.76503	-0.190382	-1.89572
H	5.93809	-1.54778	-0.175737
H	6.2847	1.10339	0.86906
C	8.24883	0.304967	0.383806
H	8.68812	-0.477429	-0.271118
H	8.70184	1.28522	0.130019
H	8.51331	0.0621961	1.43616
N	6.59045	1.88851	-1.65461
C	6.2482	2.28402	-3.00094
H	7.03522	2.558	-1.06892
H	6.55243	3.33693	-3.19086
H	5.14971	2.20116	-3.16742
H	6.76026	1.63133	-3.74453
