44
  This energy is -4.2141 and Call times are: 121187
C	-0.376813	-1.66413	3.03338
C	-0.845045	-0.70904	2.00396
O	-1.98036	-0.254401	2.03196
H	-1.20353	-1.86844	3.74799
H	0.482298	-1.23525	3.59082
H	-0.0688496	-2.61905	2.5576
N	0.0347944	-0.380734	1.05502
C	-0.288206	0.503009	-0.037329
C	0.575773	0.122502	-1.22489
O	1.49132	-0.689108	-1.1033
H	0.941868	-0.790637	1.0224
H	-1.32033	0.350252	-0.327201
C	-0.048729	1.9771	0.356306
H	1.01241	2.13666	0.64366
H	-0.307003	2.66845	-0.471858
H	-0.685083	2.23114	1.23201
N	0.296941	0.69822	-2.41099
C	1.06179	0.393218	-3.59765
H	-0.450457	1.34949	-2.49048
H	0.678791	0.966499	-4.47051
H	0.999019	-0.693088	-3.83698
H	2.13518	0.652952	-3.45098
C	4.42975	-3.22233	1.10027
C	5.31006	-2.24181	0.425888
O	6.46228	-2.52523	0.128452
H	4.99442	-4.16395	1.27446
H	3.54714	-3.44493	0.464501
H	4.08899	-2.82151	2.07818
N	4.77741	-1.04508	0.167957
C	5.52323	0.0260438	-0.444402
C	4.94031	1.34229	0.0344176
O	3.89448	1.37005	0.680302
H	3.85112	-0.81564	0.452933
H	6.55065	-0.0143173	-0.104682
C	5.45809	-0.0665931	-1.98467
H	4.40497	-0.0146293	-2.33437
H	6.04007	0.744755	-2.46792
H	5.88248	-1.0408	-2.31201
N	5.61325	2.47042	-0.266403
C	5.13774	3.76854	0.15188
H	6.4599	2.42739	-0.786404
H	5.82856	4.56982	-0.19156
H	5.0647	3.82099	1.26237
H	4.1271	3.97179	-0.270543
