44
  This energy is -4.3501 and Call times are: 114014
C	0.769667	1.76008	-2.90214
C	-0.152407	1.40234	-1.8008
O	-1.18172	2.03416	-1.60658
H	0.370858	2.64644	-3.44177
H	0.858972	0.914697	-3.61634
H	1.77295	2.0081	-2.49594
N	0.204573	0.363757	-1.04167
C	-0.568329	-0.076308	0.0930249
C	0.377996	-0.719709	1.08905
O	1.54975	-0.942862	0.790865
H	1.06573	-0.114996	-1.1868
H	-1.0116	0.784098	0.578661
C	-1.66204	-1.07739	-0.339249
H	-1.20709	-1.96514	-0.828074
H	-2.27299	-1.4131	0.523636
H	-2.33805	-0.587804	-1.07387
N	-0.110275	-1.02682	2.30696
C	0.717511	-1.63651	3.32146
H	-1.06003	-0.834858	2.53098
H	0.134348	-1.81073	4.25248
H	1.58371	-0.980646	3.56805
H	1.11521	-2.6154	2.96826
C	5.45716	-1.46015	-1.80497
C	6.0508	-0.325062	-1.06313
O	5.53495	0.78393	-1.08412
H	4.54821	-1.11251	-2.34238
H	5.1709	-2.26959	-1.10098
H	6.18384	-1.8549	-2.54603
N	7.16946	-0.581878	-0.381198
C	7.88591	0.43068	0.353641
C	9.35225	0.0429258	0.386273
O	9.72105	-1.06	-0.012783
H	7.59989	-1.47961	-0.406993
H	7.81325	1.37357	-0.173907
C	7.3302	0.568428	1.78802
H	7.41418	-0.395847	2.33315
H	7.86454	1.35473	2.35963
H	6.25425	0.844735	1.73979
N	10.2288	0.95114	0.858264
C	11.6447	0.672973	0.922121
H	9.91181	1.83975	1.17282
H	12.1981	1.54334	1.3386
H	12.0482	0.454327	-0.0930897
H	11.8427	-0.211344	1.57013
