44
  This energy is 0.1022 and Call times are: 123742
C	2.75164	1.1457	1.79681
C	2.07765	0.800275	0.524975
O	2.56509	1.10862	-0.553794
H	3.68743	1.70405	1.57673
H	3.00761	0.222142	2.35741
H	2.09008	1.78435	2.41933
N	0.920133	0.142803	0.62626
C	0.127331	-0.223768	-0.520758
C	-1.32716	-0.277325	-0.0928156
O	-1.63814	-0.191498	1.09363
H	0.515818	-0.0651347	1.51235
H	0.213244	0.547776	-1.27572
C	0.575532	-1.58862	-1.08779
H	0.477619	-2.38244	-0.31688
H	-0.0182418	-1.87555	-1.97977
H	1.64474	-1.52849	-1.38699
N	-2.2582	-0.413045	-1.05758
C	-3.66743	-0.467918	-0.745735
H	-1.98734	-0.476753	-2.01238
H	-4.27127	-0.581211	-1.67297
H	-3.99171	0.463774	-0.227981
H	-3.88843	-1.33005	-0.0756326
C	5.0669	2.46737	-2.39951
C	5.07333	1.99061	-0.998152
O	5.59615	2.64748	-0.108439
H	5.60207	3.43994	-2.45904
H	4.02321	2.60939	-2.75064
H	5.58084	1.73365	-3.0557
N	4.48379	0.814974	-0.76855
C	4.4477	0.200949	0.535377
C	4.38541	-1.30327	0.348271
O	4.20857	-1.79255	-0.765749
H	4.09857	0.272682	-1.50975
H	5.36847	0.422851	1.06032
C	3.22963	0.696771	1.34514
H	2.28425	0.459973	0.812014
H	3.19835	0.241691	2.3563
H	3.29194	1.80067	1.46289
N	4.5389	-2.07622	1.44143
C	4.49986	-3.51773	1.35948
H	4.68513	-1.66199	2.33368
H	4.64591	-3.97283	2.36386
H	5.30171	-3.8946	0.68399
H	3.51962	-3.86216	0.957426
