44
  This energy is -1.7715 and Call times are: 115051
C	1.78592	-0.460842	-2.95141
C	0.856402	0.312929	-2.09793
O	0.528196	1.45405	-2.3921
H	2.09988	0.165623	-3.81445
H	1.28373	-1.37412	-3.33411
H	2.68717	-0.750523	-2.37094
N	0.406419	-0.301699	-1.00152
C	-0.469806	0.337742	-0.0518326
C	-0.220943	-0.279568	1.31145
O	0.490248	-1.2753	1.43158
H	0.714702	-1.2158	-0.754026
H	-0.215203	1.38793	0.0182693
C	-1.94858	0.165243	-0.462559
H	-2.21316	-0.911892	-0.524359
H	-2.63265	0.665148	0.253451
H	-2.1058	0.617099	-1.46628
N	-0.798695	0.306962	2.37832
C	-0.614116	-0.206826	3.71554
H	-1.36746	1.11439	2.26157
H	-1.16873	0.412234	4.45472
H	0.464886	-0.201182	3.99302
H	-0.983805	-1.25524	3.78828
C	3.81209	-3.35668	-0.378623
C	4.04515	-2.15801	0.458061
O	3.73013	-2.14004	1.63995
H	3.32247	-4.14358	0.235313
H	4.77723	-3.74898	-0.762487
H	3.14989	-3.10385	-1.23339
N	4.61021	-1.11156	-0.148592
C	4.86018	0.139256	0.523361
C	4.8142	1.24885	-0.510203
O	4.75582	0.989354	-1.7106
H	4.8235	-1.127	-1.12128
H	4.06561	0.327739	1.23452
C	6.23058	0.118837	1.23527
H	7.04706	-0.0640108	0.504535
H	6.42867	1.07145	1.768
H	6.24438	-0.705599	1.98123
N	4.83111	2.52025	-0.0638134
C	4.785	3.64137	-0.97329
H	4.87443	2.71025	0.91143
H	4.80782	4.60261	-0.414072
H	3.8538	3.61342	-1.58432
H	5.65505	3.61936	-1.66876
