44
  This energy is 0.1254 and Call times are: 124636
C	1.19459	2.15195	-2.46064
C	1.40157	1.12344	-1.41639
O	2.47704	0.553637	-1.2935
H	2.12698	2.26418	-3.05555
H	0.947141	3.12797	-1.99278
H	0.369819	1.84784	-3.13915
N	0.356276	0.857954	-0.629462
C	0.391553	-0.14783	0.402872
C	-1.0162	-0.680585	0.592469
O	-1.9735	-0.140475	0.0414969
H	-0.524972	1.3007	-0.768174
H	1.00809	-0.97529	0.074513
C	0.931479	0.438208	1.72585
H	0.293239	1.28033	2.06865
H	0.97654	-0.329937	2.52488
H	1.95935	0.829177	1.56161
N	-1.17385	-1.76586	1.37564
C	-2.47548	-2.34654	1.60961
H	-0.386676	-2.19141	1.80961
H	-2.39681	-3.23128	2.27914
H	-2.93809	-2.67316	0.650138
H	-3.15666	-1.60514	2.08653
C	7.4194	-2.19989	1.45707
C	6.95641	-0.832521	1.12981
O	7.46996	0.15025	1.64638
H	8.23552	-2.14104	2.20962
H	7.80678	-2.70123	0.545285
H	6.5833	-2.79613	1.87957
N	5.95633	-0.739193	0.250316
C	5.37015	0.52041	-0.134838
C	3.92438	0.270899	-0.520938
O	3.49051	-0.874259	-0.63084
H	5.52126	-1.55003	-0.130611
H	5.36572	1.18793	0.717813
C	6.14398	1.15177	-1.31289
H	6.13983	0.471852	-2.19138
H	5.71067	2.12882	-1.60974
H	7.20099	1.31811	-1.01055
N	3.13829	1.34556	-0.728743
C	1.74797	1.20575	-1.09427
H	3.5064	2.26427	-0.631028
H	1.27217	2.20326	-1.22004
H	1.1894	0.64763	-0.308275
H	1.64779	0.645984	-2.05228
