44
  This energy is -5.1843 and Call times are: 117560
C	-1.87433	-2.06765	2.07952
C	-1.01715	-1.84376	0.893658
O	-0.549699	-2.7827	0.264146
H	-1.97139	-3.16004	2.26158
H	-2.88475	-1.64083	1.90744
H	-1.42038	-1.59305	2.97493
N	-0.786882	-0.571884	0.559468
C	0.0620198	-0.195699	-0.543442
C	0.664932	1.16176	-0.234651
O	0.277087	1.81849	0.729709
H	-1.14083	0.181784	1.10589
H	0.879562	-0.901465	-0.621875
C	-0.738296	-0.14514	-1.86336
H	-1.57073	0.586478	-1.78701
H	-0.0927482	0.129917	-2.72251
H	-1.17692	-1.14675	-2.0652
N	1.64071	1.61213	-1.0477
C	2.27712	2.89012	-0.828873
H	1.94392	1.06455	-1.82056
H	3.0532	3.08059	-1.60259
H	2.76552	2.91943	0.172066
H	1.52886	3.71437	-0.872166
C	6.59728	0.587318	-3.17567
C	6.10966	-0.322757	-2.11494
O	5.89413	-1.50476	-2.3448
H	6.69435	0.0224541	-4.12822
H	7.59054	0.99951	-2.89946
H	5.87942	1.42142	-3.32405
N	5.91994	0.218688	-0.909441
C	5.40827	-0.530227	0.211214
C	4.67179	0.430596	1.12554
O	4.72901	1.64478	0.940659
H	6.0607	1.19131	-0.748064
H	4.68644	-1.25537	-0.143402
C	6.55265	-1.23343	0.973531
H	7.28797	-0.489019	1.34663
H	6.17004	-1.8247	1.83058
H	7.08256	-1.92548	0.283165
N	3.95106	-0.095533	2.13537
C	3.21277	0.740722	3.05285
H	3.9136	-1.08067	2.2664
H	2.68507	0.12171	3.81153
H	2.45467	1.34824	2.50742
H	3.89743	1.43997	3.58523
