44
  This energy is -1.7271 and Call times are: 123819
C	0.17552	-1.70931	3.02657
C	-0.460191	-0.72749	2.11935
O	-1.55856	-0.251535	2.37129
H	-0.502969	-1.91005	3.88403
H	1.13504	-1.30694	3.41409
H	0.364992	-2.66155	2.48766
N	0.228195	-0.399723	1.02342
C	-0.2787	0.509065	0.0255609
C	0.332472	0.132739	-1.311
O	1.23596	-0.698429	-1.37868
H	1.10274	-0.826461	0.811446
H	-1.35042	0.381391	-0.0624242
C	0.0647727	1.97114	0.385565
H	1.16463	2.10509	0.46559
H	-0.332191	2.68173	-0.368097
H	-0.385769	2.2221	1.37064
N	-0.155969	0.734392	-2.41348
C	0.359799	0.435446	-3.72908
H	-0.889981	1.40129	-2.33898
H	-0.170753	1.0312	-4.5042
H	0.227996	-0.645092	-3.96644
H	1.44691	0.671766	-3.78811
C	4.81985	-2.97121	1.55547
C	5.14367	-2.17801	0.348359
O	5.31365	-2.71708	-0.7365
H	4.78855	-4.04994	1.28862
H	3.82876	-2.67117	1.95605
H	5.59562	-2.81616	2.33472
N	5.23979	-0.856823	0.514568
C	5.59058	0.0415573	-0.557074
C	6.28344	1.2491	0.0457144
O	6.31491	1.41428	1.26368
H	5.1391	-0.436753	1.41193
H	6.30224	-0.444862	-1.21248
C	4.33595	0.475197	-1.34644
H	3.6101	0.983655	-0.676617
H	4.59452	1.15626	-2.18299
H	3.8407	-0.424885	-1.77178
N	6.8659	2.12233	-0.799406
C	7.55312	3.29749	-0.316827
H	6.8334	1.96946	-1.78157
H	7.96425	3.88858	-1.16466
H	8.39649	3.01204	0.352899
H	6.85872	3.94932	0.261149
