44
  This energy is 0.3417 and Call times are: 123457
C	-0.789545	2.27329	-2.51425
C	-0.00129017	1.13793	-1.98438
O	0.724428	0.476172	-2.71364
H	-0.609236	2.36726	-3.6072
H	-0.482726	3.21737	-2.01692
H	-1.87288	2.10032	-2.34233
N	-0.131067	0.882677	-0.680398
C	0.53869	-0.215482	-0.0292218
C	-0.306734	-0.651196	1.15271
O	-1.27809	0.0120983	1.5108
H	-0.75705	1.40454	-0.107974
H	0.595771	-1.05432	-0.711661
C	1.95094	0.199033	0.438732
H	1.89222	1.05278	1.14705
H	2.48222	-0.642087	0.929423
H	2.54921	0.521564	-0.441265
N	0.0411211	-1.78959	1.78445
C	-0.707617	-2.28541	2.9157
H	0.82789	-2.31478	1.47746
H	-0.265243	-3.23269	3.29541
H	-1.76625	-2.48277	2.63002
H	-0.706748	-1.54087	3.74444
C	4.91825	0.613113	2.64137
C	5.20558	0.116464	1.27684
O	4.37968	-0.536375	0.653863
H	3.90278	0.279805	2.94728
H	4.9531	1.7227	2.66
H	5.66122	0.208024	3.36038
N	6.40561	0.418582	0.775787
C	6.84583	-0.0307382	-0.521467
C	8.35766	-0.153459	-0.491574
O	9.00478	0.266392	0.46585
H	7.08256	0.915822	1.3109
H	6.44571	-1.01877	-0.712033
C	6.40429	0.954608	-1.62572
H	6.82317	1.96591	-1.43636
H	6.72534	0.612598	-2.63094
H	5.29528	1.03483	-1.62398
N	8.95798	-0.743883	-1.54372
C	10.3916	-0.909804	-1.60075
H	8.41712	-1.08096	-2.30722
H	10.6916	-1.41685	-2.54422
H	10.7504	-1.52418	-0.74334
H	10.9038	0.0785123	-1.55544
