44
  This energy is -3.6127 and Call times are: 117926
C	2.44205	1.92847	1.55887
C	1.184	1.79021	0.791185
O	0.441271	2.74621	0.615634
H	2.54021	2.97614	1.91751
H	3.31264	1.68641	0.913718
H	2.43177	1.2478	2.43618
N	0.912435	0.574496	0.310897
C	-0.294391	0.274779	-0.418694
C	-0.631029	-1.18759	-0.195748
O	0.161986	-1.93711	0.370877
H	1.50645	-0.202938	0.496944
H	-1.11114	0.859178	-0.0136783
C	-0.115136	0.565629	-1.92485
H	0.715801	-0.0414831	-2.34317
H	-1.04204	0.351939	-2.49556
H	0.138423	1.63931	-2.06366
N	-1.82775	-1.62732	-0.63223
C	-2.23703	-3.00164	-0.459297
H	-2.45765	-1.00483	-1.08478
H	-3.25185	-3.16616	-0.883902
H	-2.26139	-3.27119	0.621455
H	-1.52671	-3.69065	-0.971015
C	5.32814	0.099893	3.45897
C	6.15498	0.185184	2.23414
O	7.30815	0.591229	2.27588
H	5.91858	0.46585	4.32691
H	5.02884	-0.95279	3.64612
H	4.41933	0.728888	3.35173
N	5.57221	-0.200653	1.09665
C	6.23507	-0.134434	-0.181934
C	5.17792	0.0544005	-1.25355
O	3.98235	-0.0383163	-0.982038
H	4.61959	-0.490118	1.07238
H	6.87817	0.736462	-0.206223
C	7.05166	-1.41821	-0.447151
H	6.39065	-2.3109	-0.432792
H	7.57801	-1.37362	-1.4226
H	7.81363	-1.54042	0.353354
N	5.5974	0.334041	-2.50329
C	4.66369	0.535342	-3.58672
H	6.56884	0.409109	-2.70264
H	5.20262	0.754806	-4.53468
H	3.98282	1.38888	-3.36498
H	4.0386	-0.373847	-3.74094
