44
  This energy is -0.2197 and Call times are: 116363
C	-0.277364	-3.39821	0.698507
C	0.0423542	-2.00821	1.09452
O	0.228089	-1.71073	2.26644
H	-0.325032	-4.0372	1.60697
H	0.508915	-3.79381	0.0217419
H	-1.26023	-3.43277	0.182885
N	0.112248	-1.11128	0.108102
C	0.371654	0.287561	0.341549
C	-0.289192	1.08285	-0.768567
O	-0.772463	0.516679	-1.74715
H	-0.0817546	-1.36062	-0.836388
H	-0.0928293	0.586428	1.27298
C	1.88987	0.568378	0.378921
H	2.36516	0.27171	-0.580312
H	2.10274	1.63983	0.571823
H	2.35383	-0.0299561	1.19322
N	-0.332888	2.42328	-0.636777
C	-0.946464	3.26185	-1.64002
H	0.0599279	2.86286	0.164181
H	-0.881963	4.33367	-1.34975
H	-2.02112	2.99775	-1.769
H	-0.439005	3.13357	-2.62347
C	5.31059	0.891305	2.36834
C	6.22764	-0.0913962	1.74828
O	6.45985	-1.16628	2.28411
H	4.93654	0.486349	3.33372
H	4.44531	1.08239	1.69937
H	5.84563	1.84491	2.56185
N	6.77984	0.26352	0.585746
C	7.72507	-0.568653	-0.116102
C	8.64227	0.332638	-0.921071
O	8.40707	1.53449	-1.03032
H	6.61294	1.15868	0.182393
H	8.3401	-1.09534	0.602897
C	6.9986	-1.56824	-1.04256
H	6.37573	-1.02814	-1.78712
H	7.71517	-2.22409	-1.5782
H	6.32719	-2.21197	-0.433331
N	9.72125	-0.230025	-1.50006
C	10.6532	0.549954	-2.28061
H	9.89701	-1.20344	-1.39692
H	11.4725	-0.0925053	-2.67214
H	11.1065	1.35663	-1.66009
H	10.1383	1.0277	-3.14534
