44
  This energy is -1.7258 and Call times are: 115851
C	1.35239	1.71682	-2.70855
C	0.930766	0.467011	-2.03673
O	0.865724	-0.589939	-2.64913
H	1.55546	1.50674	-3.78117
H	2.27767	2.11085	-2.23808
H	0.548307	2.4794	-2.6377
N	0.627834	0.563353	-0.740065
C	0.160859	-0.55691	0.0380762
C	-0.721567	-0.02448	1.15136
O	-0.799814	1.18289	1.37013
H	0.646235	1.4386	-0.265219
H	-0.454988	-1.19301	-0.585415
C	1.34674	-1.35555	0.622118
H	1.97292	-0.706075	1.27028
H	1.00042	-2.22886	1.21197
H	1.98313	-1.72869	-0.20982
N	-1.41747	-0.919476	1.87987
C	-2.28719	-0.505347	2.9561
H	-1.34429	-1.892	1.68515
H	-2.77002	-1.38672	3.43284
H	-3.08773	0.170107	2.5764
H	-1.71268	0.0446554	3.73622
C	5.99659	3.4245	-0.431377
C	6.34147	2.1359	0.210271
O	7.3461	2.02038	0.898594
H	6.77948	4.17602	-0.190214
H	5.0187	3.79042	-0.0537717
H	5.94426	3.30118	-1.5337
N	5.50169	1.12109	-0.00730249
C	5.72626	-0.203953	0.514596
C	5.07501	-1.19969	-0.426656
O	4.34682	-0.818551	-1.34109
H	4.70993	1.21975	-0.603322
H	6.78914	-0.411071	0.518201
C	5.14267	-0.342577	1.93778
H	4.05033	-0.140507	1.93283
H	5.32139	-1.35431	2.35608
H	5.62785	0.400757	2.6074
N	5.33094	-2.50772	-0.227783
C	4.7599	-3.52726	-1.07668
H	5.926	-2.79642	0.514937
H	5.08922	-4.53896	-0.752265
H	5.07475	-3.37884	-2.13504
H	3.64702	-3.49185	-1.03937
