44
  This energy is -2.3472 and Call times are: 114388
C	-1.96325	2.59943	-1.22528
C	-1.73007	1.46558	-0.302705
O	-2.46907	1.26312	0.650869
H	-2.85136	3.17425	-0.88365
H	-2.15172	2.22404	-2.25304
H	-1.08068	3.2733	-1.23416
N	-0.677028	0.689736	-0.570208
C	-0.297346	-0.42529	0.261127
C	1.20229	-0.618469	0.13737
O	1.8504	0.00433952	-0.701546
H	-0.0610173	0.891432	-1.32633
H	-0.507532	-0.186932	1.29633
C	-1.04533	-1.70861	-0.161763
H	-0.821721	-1.95946	-1.22059
H	-0.77191	-2.57128	0.479771
H	-2.14088	-1.54169	-0.0708754
N	1.79275	-1.4865	0.982297
C	3.2157	-1.73107	0.942244
H	1.25222	-1.97803	1.65705
H	3.50864	-2.4757	1.71485
H	3.78145	-0.789874	1.13029
H	3.51925	-2.12284	-0.0555115
C	5.26787	1.20943	3.04181
C	5.7928	1.41478	1.67308
O	5.77052	2.51823	1.14551
H	4.87413	2.17283	3.43255
H	6.07768	0.853532	3.71286
H	4.44498	0.46395	3.02822
N	6.28303	0.336308	1.05747
C	6.78951	0.370115	-0.291927
C	6.59221	-1.00316	-0.905726
O	6.22852	-1.9545	-0.216957
H	6.25683	-0.563146	1.48427
H	6.20552	1.07107	-0.875221
C	8.28322	0.762164	-0.310888
H	8.88424	0.0374161	0.278662
H	8.68141	0.805193	-1.34535
H	8.40489	1.76665	0.150132
N	6.82125	-1.13625	-2.22703
C	6.65429	-2.40371	-2.89923
H	7.111	-0.353961	-2.76845
H	6.8899	-2.30858	-3.98213
H	5.60553	-2.76618	-2.79928
H	7.329	-3.1736	-2.45972
