44
  This energy is -0.5064 and Call times are: 121961
C	-2.35833	-0.996511	2.35753
C	-1.06924	-1.16839	1.65054
O	-0.233858	-1.97095	2.04354
H	-2.38608	-1.67188	3.24013
H	-3.20203	-1.25229	1.68262
H	-2.46766	0.0527117	2.70433
N	-0.876081	-0.40271	0.574061
C	0.345118	-0.42608	-0.191894
C	0.533871	0.940571	-0.822917
O	-0.359126	1.78444	-0.776512
H	-1.54839	0.275089	0.290409
H	1.18199	-0.591792	0.475046
C	0.293655	-1.52196	-1.27892
H	-0.558469	-1.3465	-1.96967
H	1.23377	-1.55926	-1.86656
H	0.147052	-2.51227	-0.79503
N	1.71292	1.1942	-1.42421
C	1.98507	2.46862	-2.04708
H	2.42483	0.500159	-1.44795
H	3.0072	2.48171	-2.48562
H	1.91295	3.2935	-1.30166
H	1.25172	2.67319	-2.8604
C	5.2913	-2.77686	2.08764
C	4.755	-1.50477	1.5535
O	3.60847	-1.15133	1.79219
H	4.49943	-3.29202	2.67365
H	6.1581	-2.57768	2.75226
H	5.60914	-3.43814	1.25411
N	5.58711	-0.7782	0.803774
C	5.19557	0.46102	0.179605
C	6.0239	0.639146	-1.07885
O	6.96745	-0.110361	-1.3231
H	6.50414	-1.09888	0.584521
H	4.15805	0.396067	-0.123636
C	5.40571	1.65265	1.13934
H	6.47191	1.72608	1.44242
H	5.09485	2.61102	0.675218
H	4.79644	1.49716	2.05638
N	5.6821	1.63816	-1.9162
C	6.40917	1.8804	-3.14048
H	4.91294	2.23163	-1.70344
H	5.97556	2.74415	-3.69105
H	6.36986	0.986346	-3.80411
H	7.47915	2.10334	-2.92464
