44
  This energy is 0.1192 and Call times are: 115381
C	-3.07854	-1.43872	0.751913
C	-2.19898	-0.620075	-0.112575
O	-2.55423	-0.275027	-1.23112
H	-4.02265	-1.6618	0.20899
H	-3.32174	-0.885706	1.68346
H	-2.57792	-2.39563	1.01035
N	-1.00986	-0.288088	0.395513
C	-0.0291271	0.468481	-0.342274
C	1.34729	0.0762376	0.160898
O	1.47519	-0.631673	1.158
H	-0.71856	-0.6109	1.29151
H	-0.0800992	0.194784	-1.38875
C	-0.257352	1.98593	-0.16763
H	-0.194693	2.26893	0.90476
H	0.483088	2.57942	-0.742127
H	-1.27338	2.24891	-0.53489
N	2.41573	0.523767	-0.527704
C	3.76433	0.197049	-0.126817
H	2.29199	1.09209	-1.33441
H	4.50296	0.657851	-0.819148
H	3.91944	-0.906212	-0.132592
H	3.96928	0.569097	0.903095
C	6.377	-1.88216	-0.926553
C	5.51926	-0.681248	-1.04165
O	5.88505	0.299584	-1.67456
H	7.33151	-1.70504	-1.4682
H	5.86725	-2.76089	-1.37459
H	6.60267	-2.09038	0.140588
N	4.33942	-0.732764	-0.418988
C	3.41507	0.373546	-0.404645
C	2.59846	0.291081	0.871253
O	2.6672	-0.696615	1.60025
H	4.0731	-1.5224	0.12636
H	3.97039	1.30264	-0.372713
C	2.49151	0.336881	-1.64195
H	1.91379	-0.61155	-1.66951
H	1.7843	1.19147	-1.64959
H	3.1108	0.390344	-2.56388
N	1.80737	1.33858	1.17611
C	0.998276	1.35179	2.37251
H	1.76822	2.1306	0.575899
H	0.419413	2.29881	2.44535
H	1.63788	1.2613	3.28025
H	0.279545	0.500578	2.37036
