44
  This energy is -1.3095 and Call times are: 113907
C	-0.0401918	0.207961	3.47388
C	-0.725777	0.0867018	2.16758
O	-1.91501	-0.191867	2.10031
H	-0.764046	-0.0065989	4.28989
H	0.354307	1.23749	3.60493
H	0.796881	-0.519076	3.53568
N	0.0236312	0.294827	1.08248
C	-0.491806	0.170143	-0.258171
C	0.652363	-0.232865	-1.16922
O	1.81173	-0.237486	-0.759877
H	0.999616	0.480485	1.15214
H	-1.22338	-0.627734	-0.286855
C	-1.12027	1.49848	-0.733365
H	-0.367382	2.31507	-0.714158
H	-1.53319	1.41135	-1.75925
H	-1.94977	1.77801	-0.0477033
N	0.349367	-0.591013	-2.43253
C	1.37166	-0.994795	-3.36958
H	-0.595054	-0.584879	-2.74415
H	0.923151	-1.25093	-4.35469
H	1.92043	-1.88767	-2.99156
H	2.11027	-0.174979	-3.52289
C	7.22075	0.351923	-3.17962
C	6.84777	-0.467513	-2.00464
O	6.8809	-1.68954	-2.04891
H	7.48933	-0.318589	-4.02468
H	8.09458	0.992658	-2.93751
H	6.36684	0.992152	-3.48626
N	6.47595	0.199732	-0.909687
C	6.04423	-0.459554	0.297588
C	5.07581	0.45953	1.01802
O	4.90953	1.61837	0.642323
H	6.41475	1.19374	-0.901961
H	5.50188	-1.36026	0.0383609
C	7.24883	-0.794703	1.20415
H	7.79941	0.130157	1.47899
H	6.93076	-1.31508	2.13074
H	7.94796	-1.46158	0.653857
N	4.40388	-0.0429598	2.07255
C	3.45756	0.755672	2.81607
H	4.54885	-0.984243	2.35898
H	3.00949	0.164394	3.64484
H	2.63491	1.10872	2.15284
H	3.95653	1.65058	3.25346
