44
  This energy is -1.5865 and Call times are: 121599
C	0.586102	-3.41014	-0.374347
C	0.439025	-2.1971	0.461155
O	0.35473	-2.27379	1.67911
H	0.58333	-4.30912	0.279645
H	1.54455	-3.37564	-0.933747
H	-0.257995	-3.4852	-1.09195
N	0.402181	-1.03072	-0.187359
C	0.219977	0.231353	0.485345
C	-0.462271	1.18582	-0.476468
O	-0.613697	0.886596	-1.65937
H	0.430808	-0.987404	-1.18193
H	-0.444717	0.0937468	1.32907
C	1.57448	0.808642	0.95151
H	2.25299	0.959885	0.0850316
H	1.44623	1.77374	1.48317
H	2.05942	0.0902348	1.64798
N	-0.900021	2.36184	0.0148255
C	-1.56574	3.33077	-0.824321
H	-0.771984	2.58431	0.975652
H	-1.84941	4.23134	-0.236322
H	-2.4907	2.89636	-1.26818
H	-0.900378	3.65157	-1.6583
C	10.6647	0.178685	1.4372
C	9.4288	0.811482	0.924073
O	9.19555	1.99611	1.12072
H	11.2588	0.933557	1.99673
H	11.2758	-0.206611	0.594095
H	10.4105	-0.65787	2.12175
N	8.5949	0.0203787	0.245
C	7.33331	0.481787	-0.278515
C	6.38224	-0.699058	-0.329904
O	6.78433	-1.84128	-0.116923
H	8.77901	-0.951397	0.128342
H	6.90844	1.20878	0.402356
C	7.51082	1.09567	-1.68453
H	7.93686	0.347071	-2.38606
H	6.54863	1.46726	-2.09274
H	8.21665	1.95271	-1.62435
N	5.08775	-0.447688	-0.607616
C	4.10889	-1.50778	-0.672328
H	4.78062	0.483646	-0.773019
H	3.10246	-1.09962	-0.912609
H	4.04598	-2.04433	0.302063
H	4.38348	-2.24895	-1.45745
