44
  This energy is -3.127 and Call times are: 121627
C	-1.62449	2.63339	1.59341
C	-1.04281	1.27223	1.58955
O	-0.878458	0.65114	2.63054
H	-1.837	2.93902	2.64094
H	-2.57273	2.64599	1.01598
H	-0.909937	3.35618	1.14612
N	-0.71105	0.772021	0.397027
C	-0.0955426	-0.521819	0.23675
C	0.756466	-0.488097	-1.01804
O	0.704705	0.468348	-1.78892
H	-0.812974	1.3058	-0.437572
H	0.567848	-0.707777	1.07219
C	-1.16405	-1.6324	0.136046
H	-1.83842	-1.44775	-0.727185
H	-0.702364	-2.63505	0.0262741
H	-1.78067	-1.63341	1.06132
N	1.57224	-1.53573	-1.24826
C	2.42381	-1.58885	-2.41368
H	1.60326	-2.29847	-0.610817
H	3.01833	-2.52889	-2.4238
H	3.13017	-0.727322	-2.4236
H	1.81626	-1.54792	-3.3466
C	4.51674	-1.74609	2.809
C	4.90896	-0.493868	2.12397
O	4.71708	0.597717	2.64169
H	4.0429	-1.49861	3.78372
H	5.41118	-2.37731	2.99419
H	3.78873	-2.30992	2.18839
N	5.47491	-0.627062	0.922161
C	5.87053	0.50083	0.116
C	5.79058	0.0909976	-1.3425
O	5.59453	-1.08121	-1.65745
H	5.58714	-1.52025	0.496159
H	5.16567	1.30967	0.262884
C	7.30194	0.958499	0.472155
H	8.02693	0.132268	0.31159
H	7.61303	1.83514	-0.132197
H	7.3389	1.24597	1.54562
N	5.93327	1.05628	-2.27195
C	5.86648	0.761466	-3.68432
H	6.08714	1.99974	-1.99757
H	6.00679	1.6863	-4.28618
H	4.87828	0.319005	-3.94692
H	6.65843	0.0324533	-3.97156
