44
  This energy is -4.8051 and Call times are: 119520
C	-0.852072	1.97834	2.73365
C	-0.400316	0.699414	2.14085
O	0.0353844	-0.203944	2.84122
H	-0.704558	1.94505	3.83502
H	-1.92963	2.13964	2.5201
H	-0.262589	2.82238	2.31748
N	-0.494112	0.594799	0.813208
C	-0.0542595	-0.571529	0.0887976
C	0.363857	-0.134379	-1.30247
O	0.143258	1.00933	-1.69614
H	-0.812576	1.35401	0.252803
H	0.821442	-0.984234	0.574033
C	-1.17797	-1.62805	0.00956469
H	-2.07284	-1.20844	-0.49757
H	-0.847098	-2.5367	-0.533941
H	-1.47353	-1.92736	1.03884
N	0.98936	-1.03945	-2.08069
C	1.42868	-0.712175	-3.41713
H	1.16264	-1.95871	-1.74305
H	1.92099	-1.58781	-3.89474
H	2.15685	0.130791	-3.39583
H	0.565021	-0.406392	-4.05095
C	5.7049	-1.08362	-3.30568
C	5.09093	-1.06599	-1.95888
O	3.98752	-1.55514	-1.75978
H	5.00685	-1.57003	-4.02121
H	6.65569	-1.65663	-3.28535
H	5.90577	-0.0466226	-3.64826
N	5.80443	-0.489413	-0.988898
C	5.32124	-0.357725	0.363042
C	5.96242	0.872652	0.976745
O	6.86648	1.46858	0.394296
H	6.6832	-0.0593238	-1.17501
H	4.2517	-0.18925	0.345315
C	5.6577	-1.61525	1.19411
H	6.75557	-1.78254	1.22138
H	5.27866	-1.53188	2.23329
H	5.18502	-2.50424	0.72231
N	5.49979	1.28843	2.1722
C	6.04518	2.45268	2.83042
H	4.76487	0.795519	2.62607
H	5.53298	2.63152	3.80145
H	5.91788	3.35889	2.19492
H	7.13357	2.31918	3.02724
