44
  This energy is -1.9618 and Call times are: 121159
C	-1.93754	-2.30257	-1.74836
C	-1.24729	-0.997813	-1.63747
O	-1.1024	-0.273467	-2.61253
H	-2.24379	-2.4675	-2.80424
H	-2.84298	-2.31236	-1.10585
H	-1.25639	-3.12333	-1.43937
N	-0.796833	-0.665875	-0.42533
C	-0.068032	0.551476	-0.16947
C	0.860154	0.308932	1.00577
O	0.781718	-0.724395	1.66744
H	-0.886258	-1.28431	0.350179
H	0.551149	0.78406	-1.02688
C	-1.03281	1.71857	0.134382
H	-1.66095	1.48485	1.0203
H	-0.484204	2.66477	0.319514
H	-1.70762	1.87293	-0.735763
N	1.77259	1.2595	1.28847
C	2.70149	1.11341	2.38482
H	1.82342	2.08695	0.739107
H	3.3704	1.99939	2.45422
H	3.33395	0.206824	2.24562
H	2.15623	1.00898	3.3507
C	9.46214	2.54159	0.731959
C	8.28728	1.70605	1.06767
O	7.7995	1.72119	2.1894
H	9.7792	3.10885	1.63393
H	9.20248	3.26148	-0.0724537
H	10.3043	1.90043	0.396237
N	7.80097	0.943812	0.0853859
C	6.68853	0.045838	0.271612
C	6.84127	-1.10524	-0.704738
O	7.69979	-1.07525	-1.58437
H	8.23397	0.91151	-0.810898
H	6.72905	-0.370764	1.27032
C	5.34651	0.775231	0.0431078
H	5.30011	1.19375	-0.984869
H	4.48171	0.0977983	0.197143
H	5.2598	1.61827	0.762904
N	6.01096	-2.1575	-0.565632
C	6.08585	-3.30088	-1.44497
H	5.32538	-2.16527	0.154785
H	5.32101	-4.05992	-1.16911
H	7.09085	-3.77793	-1.38426
H	5.91187	-2.99571	-2.50221
