44
  This energy is -3.8424 and Call times are: 119306
C	1.31135	3.19049	-0.462412
C	0.999565	1.82687	-0.946628
O	1.10209	1.53671	-2.13057
H	1.60806	3.82729	-1.324
H	2.14982	3.15606	0.264584
H	0.418695	3.63726	0.0240627
N	0.602889	0.946117	-0.0250503
C	0.22366	-0.406424	-0.349671
C	-0.787357	-0.874278	0.680141
O	-1.02406	-0.201078	1.68138
H	0.484981	1.20843	0.928447
H	-0.269209	-0.417607	-1.31382
C	1.45591	-1.33738	-0.360538
H	1.95579	-1.33441	0.631503
H	1.17893	-2.37903	-0.622798
H	2.18564	-0.971501	-1.1155
N	-1.41714	-2.04357	0.451769
C	-2.39894	-2.56593	1.37339
H	-1.21521	-2.57211	-0.366124
H	-2.80277	-3.53636	1.00949
H	-3.24809	-1.85383	1.48796
H	-1.94697	-2.72882	2.37854
C	6.06147	2.73958	2.05757
C	5.56215	2.1403	0.799509
O	4.90408	2.79595	0.00358818
H	5.72478	3.79724	2.11953
H	7.17124	2.71382	2.07965
H	5.66156	2.18336	2.9315
N	5.86787	0.857568	0.590929
C	5.41671	0.125465	-0.566237
C	5.30042	-1.33813	-0.184216
O	5.72571	-1.74274	0.896121
H	6.36947	0.325752	1.26726
H	4.42647	0.466746	-0.841136
C	6.39704	0.300724	-1.74669
H	7.41063	-0.0590043	-1.46868
H	6.05352	-0.247033	-2.64807
H	6.47262	1.37984	-2.00387
N	4.70953	-2.16925	-1.06518
C	4.54946	-3.57725	-0.785741
H	4.36801	-1.82247	-1.93246
H	4.04099	-4.09069	-1.63136
H	3.93905	-3.72826	0.133972
H	5.54005	-4.06136	-0.625968
