44
  This energy is -1.653 and Call times are: 118304
C	1.42161	3.16396	0.284738
C	1.44949	1.69899	0.495045
O	2.47114	1.13051	0.854877
H	2.43138	3.58319	0.485947
H	0.692226	3.63601	0.976051
H	1.13919	3.39469	-0.764118
N	0.307719	1.04514	0.268768
C	0.190792	-0.386779	0.389197
C	-0.897017	-0.853953	-0.559473
O	-1.617	-0.0438031	-1.13999
H	-0.504503	1.51624	-0.0632253
H	1.11689	-0.848862	0.0706681
C	-0.145697	-0.792679	1.84084
H	-1.10107	-0.327346	2.1645
H	-0.224714	-1.8938	1.9495
H	0.659617	-0.433752	2.51833
N	-1.03639	-2.18129	-0.745929
C	-2.04063	-2.71849	-1.63424
H	-0.441647	-2.82105	-0.270462
H	-1.99582	-3.82975	-1.65231
H	-1.88715	-2.34463	-2.67249
H	-3.06033	-2.4138	-1.30481
C	6.09881	0.853296	3.28997
C	6.31055	0.979631	1.8304
O	7.00357	1.87455	1.36643
H	6.63568	1.67528	3.81149
H	6.49343	-0.119633	3.65112
H	5.01629	0.92386	3.52712
N	5.70524	0.0709699	1.06207
C	5.78244	0.08943	-0.377458
C	4.51744	-0.542446	-0.927095
O	3.72099	-1.10892	-0.181123
H	5.11114	-0.626959	1.45168
H	5.80561	1.11617	-0.720812
C	7.02924	-0.675577	-0.872938
H	7.00073	-1.73175	-0.529813
H	7.10742	-0.65675	-1.97931
H	7.94238	-0.200797	-0.452123
N	4.29861	-0.45164	-2.2537
C	3.1194	-1.01818	-2.86581
H	4.95262	0.0142197	-2.84049
H	3.12159	-0.839213	-3.96362
H	2.19722	-0.562092	-2.43821
H	3.07458	-2.11731	-2.68962
