44
  This energy is 0.1313 and Call times are: 118653
C	-2.83693	1.95063	-0.50948
C	-2.10169	0.880386	0.201256
O	-2.53672	0.392789	1.23538
H	-3.76169	2.19854	0.0555269
H	-3.11852	1.61007	-1.52804
H	-2.20712	2.86202	-0.58561
N	-0.949566	0.487138	-0.346785
C	-0.10167	-0.513662	0.251572
C	1.33046	-0.227024	-0.158773
O	1.58351	0.623274	-1.01005
H	-0.588358	0.92206	-1.16669
H	-0.151942	-0.426243	1.32975
C	-0.520089	-1.93105	-0.196943
H	-0.458574	-2.02451	-1.30217
H	0.116557	-2.71148	0.267965
H	-1.57364	-2.11601	0.10667
N	2.30731	-0.929629	0.447982
C	3.69985	-0.721323	0.126102
H	2.08308	-1.61053	1.1373
H	4.34803	-1.39314	0.730879
H	3.99745	0.332217	0.332893
H	3.88928	-0.928286	-0.952057
C	6.6544	0.210166	-3.39303
C	6.28919	0.362214	-1.96662
O	5.26536	0.943092	-1.63378
H	5.88441	0.704923	-4.02406
H	6.70321	-0.8657	-3.66299
H	7.63884	0.6852	-3.58872
N	7.13521	-0.16415	-1.07804
C	6.93718	-0.0588832	0.346124
C	8.29789	-0.0882388	1.01632
O	9.31163	-0.351171	0.372182
H	7.98515	-0.59815	-1.36283
H	6.48586	0.898672	0.574212
C	6.05213	-1.2125	0.866813
H	6.51983	-2.19481	0.642394
H	5.88083	-1.13485	1.96004
H	5.0646	-1.17625	0.357108
N	8.35233	0.191437	2.33345
C	9.60366	0.192874	3.05479
H	7.52178	0.405853	2.83672
H	9.44013	0.446373	4.12541
H	10.3063	0.940781	2.62093
H	10.0892	-0.808408	3.00155
