44
  This energy is -0.0264 and Call times are: 116335
C	0.722941	-3.40038	0.165704
C	1.08214	-2.00711	-0.182039
O	2.2267	-1.7072	-0.492596
H	1.63079	-4.03931	0.106956
H	-0.0363893	-3.78865	-0.545216
H	0.318498	-3.4448	1.19892
N	0.0945061	-1.11008	-0.134292
C	0.298768	0.291358	-0.404132
C	-0.731526	1.07956	0.382499
O	-1.65134	0.508176	0.964892
H	-0.82306	-1.3618	0.159943
H	1.27578	0.586179	-0.0419864
C	0.169128	0.586996	-1.91444
H	-0.836708	0.294464	-2.28424
H	0.338032	1.66057	-2.13676
H	0.927156	-0.00634371	-2.47094
N	-0.595009	2.41957	0.424517
C	-1.52426	3.25157	1.15284
H	0.158137	2.8634	-0.0496782
H	-1.24226	4.32413	1.06727
H	-1.53443	2.97693	2.23253
H	-2.55761	3.12773	0.755364
C	9.45775	2.87378	1.95684
C	9.87627	2.06911	0.787014
O	10.5459	2.55943	-0.111674
H	9.83065	3.91443	1.83917
H	9.88129	2.44346	2.88861
H	8.34994	2.89514	2.03003
N	9.48156	0.793818	0.77209
C	9.77462	-0.101595	-0.319196
C	8.67189	-1.14128	-0.387117
O	7.82723	-1.2225	0.502636
H	8.90236	0.420122	1.49093
H	9.75452	0.45122	-1.25012
C	11.1477	-0.780667	-0.122132
H	11.1653	-1.35657	0.827639
H	11.391	-1.46218	-0.962869
H	11.9383	-0.000778057	-0.067241
N	8.64979	-1.96032	-1.45702
C	7.63492	-2.97657	-1.61016
H	9.3394	-1.87661	-2.16871
H	7.78736	-3.54556	-2.55369
H	6.62022	-2.51732	-1.63789
H	7.66582	-3.69437	-0.758718
