44
  This energy is 0.1019 and Call times are: 124731
C	-2.96593	-1.11281	1.44139
C	-2.12954	-0.792907	0.262719
O	-2.47053	-1.12471	-0.864245
H	-3.86498	-1.67738	1.11145
H	-3.29282	-0.178173	1.94372
H	-2.39298	-1.73705	2.15912
N	-0.994918	-0.131326	0.502126
C	-0.057227	0.21256	-0.537603
C	1.32806	0.277758	0.0774498
O	1.47953	0.217409	1.29611
H	-0.710974	0.0958964	1.42928
H	-0.0434104	-0.574808	-1.2809
C	-0.425321	1.56439	-1.18744
H	-0.429327	2.37439	-0.427227
H	0.281327	1.83364	-1.99904
H	-1.44571	1.49603	-1.62389
N	2.37849	0.394922	-0.758552
C	3.73424	0.458917	-0.264559
H	2.23616	0.438089	-1.74189
H	4.45535	0.553845	-1.10611
H	3.98641	-0.461111	0.310969
H	3.86561	1.33532	0.410574
C	9.79809	1.03354	-0.408878
C	8.60532	0.276463	-0.850811
O	8.5484	-0.219634	-1.96753
H	10.5409	1.06375	-1.23538
H	10.2601	0.539812	0.471747
H	9.51422	2.07355	-0.14265
N	7.60849	0.17183	0.0310945
C	6.36732	-0.497446	-0.269103
C	5.27284	0.138201	0.567349
O	5.54589	0.946858	1.45235
H	7.65288	0.615915	0.921417
H	6.11515	-0.332756	-1.30925
C	6.46908	-2.00907	0.0306992
H	6.7174	-2.17879	1.10008
H	5.52402	-2.53793	-0.20946
H	7.28124	-2.45174	-0.586373
N	3.99887	-0.209268	0.298515
C	2.89103	0.348241	1.03881
H	3.79754	-0.862158	-0.424173
H	1.92517	-0.0611895	0.669044
H	2.86552	1.45695	0.932025
H	2.98196	0.10783	2.12282
