44
  This energy is -1.8314 and Call times are: 119398
C	1.63884	1.34575	2.75968
C	0.411339	0.901871	2.06158
O	-0.651592	0.793543	2.65727
H	1.40812	1.52053	3.83304
H	2.01198	2.29158	2.31367
H	2.42561	0.565814	2.68361
N	0.534412	0.628599	0.760597
C	-0.560815	0.145346	-0.0428362
C	0.0126035	-0.698144	-1.1659
O	1.22465	-0.736735	-1.36881
H	1.4152	0.682203	0.298861
H	-1.1871	-0.501429	0.558901
C	-1.3858	1.31926	-0.614292
H	-0.746116	1.97726	-1.24029
H	-2.24035	0.959898	-1.2235
H	-1.78891	1.92729	0.224847
N	-0.851437	-1.40465	-1.92109
C	-0.397141	-2.23964	-3.00856
H	-1.82828	-1.3638	-1.73895
H	-1.25729	-2.73799	-3.50757
H	0.296228	-3.02784	-2.63538
H	0.146462	-1.63347	-3.76894
C	7.43592	-2.96183	-1.79651
C	7.23821	-2.22087	-0.5304
O	6.90933	-2.79867	0.496443
H	7.22286	-4.03987	-1.62829
H	8.48478	-2.85275	-2.14398
H	6.74623	-2.57674	-2.57697
N	7.43581	-0.901372	-0.577923
C	7.24029	-0.0409348	0.562242
C	6.85021	1.33471	0.0552808
O	6.9079	1.60401	-1.14299
H	7.66336	-0.439854	-1.43061
H	6.41291	-0.413495	1.15321
C	8.52336	0.0410993	1.41796
H	9.36996	0.4332	0.814988
H	8.38127	0.689769	2.30653
H	8.79448	-0.977656	1.77147
N	6.43308	2.24015	0.962029
C	6.03632	3.57303	0.571933
H	6.38928	2.00231	1.9267
H	5.72555	4.16655	1.45985
H	5.18118	3.53539	-0.141229
H	6.8791	4.10372	0.072687
