44
  This energy is -1.93 and Call times are: 124912
C	-2.1067	2.71514	-0.550028
C	-1.56914	1.38668	-0.920653
O	-2.10063	0.708571	-1.78904
H	-3.01358	2.92682	-1.15719
H	-1.34982	3.50302	-0.747834
H	-2.38281	2.72977	0.525446
N	-0.48516	0.978788	-0.25658
C	0.126724	-0.308088	-0.475917
C	0.800882	-0.737218	0.813623
O	0.905783	0.0419018	1.75897
H	-0.0881129	1.52418	0.476066
H	-0.643381	-1.03706	-0.695386
C	1.15355	-0.241621	-1.62763
H	1.94959	0.498475	-1.39827
H	1.62159	-1.22964	-1.81548
H	0.639807	0.0820203	-2.55912
N	1.26899	-1.99891	0.884649
C	1.92026	-2.49771	2.07344
H	1.17111	-2.61586	0.11079
H	2.23328	-3.55613	1.93565
H	1.23282	-2.44666	2.9487
H	2.82512	-1.89214	2.30936
C	5.84191	3.30177	1.09666
C	5.69772	2.28673	0.0289186
O	5.30935	2.5951	-1.08933
H	5.53333	4.29477	0.703508
H	6.89964	3.35978	1.4292
H	5.19637	3.0414	1.96185
N	6.01094	1.0312	0.357445
C	5.88066	-0.0720879	-0.561431
C	5.61792	-1.3303	0.244445
O	5.71073	-1.32381	1.47043
H	6.28647	0.789096	1.28337
H	5.01801	0.0909569	-1.19537
C	7.15756	-0.232703	-1.41523
H	8.04118	-0.410497	-0.765877
H	7.06435	-1.07039	-2.13642
H	7.33466	0.702422	-1.99013
N	5.27312	-2.44454	-0.430536
C	4.99883	-3.68744	0.252203
H	5.19918	-2.4291	-1.42219
H	4.73275	-4.48548	-0.475518
H	4.15069	-3.56555	0.9643
H	5.8898	-4.02306	0.830715
