44
  This energy is -3.3164 and Call times are: 116705
C	-0.561108	-3.36618	0.683128
C	-0.77033	-2.14973	-0.133943
O	-1.32098	-2.20688	-1.22478
H	-0.955533	-4.2492	0.134878
H	-1.09821	-3.27447	1.65053
H	0.522249	-3.51673	0.874872
N	-0.32525	-1.00279	0.384532
C	-0.418208	0.256648	-0.310979
C	0.724665	1.13929	0.15414
O	1.43272	0.805357	1.10223
H	0.157535	-0.978264	1.25527
H	-0.285045	0.0891845	-1.37251
C	-1.77602	0.939499	-0.0365769
H	-1.90853	1.12108	1.05131
H	-1.86537	1.90374	-0.577676
H	-2.59778	0.272523	-0.377476
N	0.936921	2.29075	-0.513029
C	2.00446	3.19156	-0.145502
H	0.355976	2.54183	-1.28019
H	2.01536	4.08144	-0.812756
H	2.99241	2.68256	-0.223973
H	1.87907	3.54196	0.904567
C	3.96091	-3.16981	0.806926
C	4.77515	-2.25644	-0.0260938
O	5.58863	-2.68945	-0.830554
H	4.23788	-4.22161	0.57703
H	2.88166	-3.02655	0.589121
H	4.14939	-2.97576	1.88391
N	4.57166	-0.949281	0.153702
C	5.3185	0.0616753	-0.552519
C	5.38311	1.29951	0.32221
O	4.71658	1.37819	1.35238
H	3.93537	-0.611656	0.841451
H	6.33458	-0.282514	-0.69995
C	4.65607	0.390701	-1.90831
H	3.6172	0.753865	-1.75692
H	5.22944	1.15794	-2.46787
H	4.61221	-0.531047	-2.52863
N	6.2	2.29817	-0.0668965
C	6.33064	3.51202	0.704898
H	6.73448	2.21437	-0.901393
H	7.04883	4.21022	0.221204
H	6.69869	3.28669	1.73205
H	5.3473	4.02768	0.795922
