44
  This energy is -0.2005 and Call times are: 122204
C	1.896	-2.68988	1.13245
C	0.609761	-2.08331	0.721576
O	-0.382985	-2.77237	0.531666
H	1.77603	-3.79283	1.20295
H	2.20447	-2.2978	2.12435
H	2.68345	-2.46119	0.383638
N	0.600498	-0.756826	0.570838
C	-0.564576	-0.0287004	0.133807
C	-0.09784	1.22088	-0.588877
O	1.08677	1.54991	-0.576948
H	1.42708	-0.214056	0.689312
H	-1.11347	-0.628812	-0.581183
C	-1.46443	0.343326	1.33259
H	-0.904937	0.967802	2.06131
H	-2.37192	0.892306	1.00762
H	-1.7876	-0.585672	1.85113
N	-1.02424	1.94573	-1.24645
C	-0.672366	3.14703	-1.96704
H	-1.97719	1.66121	-1.24805
H	-1.57156	3.59922	-2.44053
H	0.069385	2.92198	-2.76731
H	-0.221613	3.89955	-1.28025
C	4.81636	3.24545	-0.982707
C	4.74721	1.7775	-1.16015
O	3.97498	1.27267	-1.96341
H	4.07661	3.73192	-1.655
H	5.83176	3.61446	-1.23871
H	4.57914	3.5155	0.067947
N	5.5663	1.04843	-0.398607
C	5.5831	-0.392897	-0.427575
C	6.02536	-0.888262	0.93646
O	6.45275	-0.105333	1.78267
H	6.15999	1.47159	0.279865
H	4.57738	-0.758615	-0.593065
C	6.53572	-0.911531	-1.52702
H	7.56973	-0.545244	-1.35182
H	6.5469	-2.01998	-1.56862
H	6.19764	-0.530307	-2.51531
N	5.92409	-2.20883	1.18515
C	6.31575	-2.77076	2.45677
H	5.57202	-2.82601	0.489287
H	6.15703	-3.87165	2.46586
H	5.71863	-2.32374	3.28436
H	7.39247	-2.56985	2.66037
