44
  This energy is -3.2409 and Call times are: 114352
C	-0.832377	-1.11485	3.19013
C	-1.06699	-0.256682	2.00707
O	-2.10424	0.379699	1.88239
H	-1.72065	-1.07162	3.8572
H	0.0564455	-0.757875	3.75165
H	-0.67142	-2.16705	2.87378
N	-0.0916214	-0.222236	1.09611
C	-0.192566	0.532963	-0.127836
C	0.655655	-0.156109	-1.1801
O	1.40571	-1.08203	-0.877128
H	0.729456	-0.777685	1.1919
H	-1.21769	0.513272	-0.476226
C	0.280515	1.98821	0.0812134
H	1.33549	2.00933	0.428523
H	0.194581	2.5838	-0.850671
H	-0.348907	2.47032	0.86079
N	0.549083	0.277639	-2.45153
C	1.31313	-0.321179	-3.52103
H	-0.0663086	1.02541	-2.67781
H	1.08631	0.173488	-4.49113
H	1.07342	-1.40507	-3.61584
H	2.40562	-0.225058	-3.3252
C	6.05288	1.21309	3.24799
C	6.21924	0.14759	2.23399
O	6.87646	-0.856187	2.47252
H	6.6137	0.936253	4.16706
H	4.9793	1.33301	3.5045
H	6.44991	2.17514	2.86083
N	5.61827	0.347724	1.05876
C	5.72471	-0.578956	-0.0405539
C	5.58034	0.202009	-1.33316
O	5.24395	1.38454	-1.32028
H	5.12082	1.18857	0.865414
H	6.71284	-1.02192	-0.0399644
C	4.64011	-1.67435	0.0542852
H	3.62596	-1.22113	0.0430955
H	4.7202	-2.4021	-0.779076
H	4.76002	-2.22766	1.01127
N	5.84158	-0.444085	-2.48656
C	5.7361	0.219309	-3.76521
H	6.11642	-1.39982	-2.47644
H	5.99108	-0.478878	-4.59271
H	6.42997	1.08959	-3.81461
H	4.6999	0.594195	-3.92923
