44
  This energy is -4.1226 and Call times are: 116279
C	0.38757	2.13124	2.72402
C	0.869073	1.53295	1.45858
O	1.84895	1.98084	0.879228
H	1.03325	2.99611	2.99044
H	0.433347	1.38287	3.54293
H	-0.657961	2.48624	2.606
N	0.176491	0.490548	0.993707
C	0.497643	-0.169577	-0.247122
C	-0.780469	-0.757825	-0.814527
O	-1.81579	-0.772101	-0.151485
H	-0.64316	0.163165	1.45507
H	0.859154	0.562743	-0.958212
C	1.55183	-1.27648	-0.0264104
H	1.17723	-2.03363	0.695
H	1.81778	-1.78299	-0.976795
H	2.47551	-0.824512	0.396546
N	-0.738795	-1.25252	-2.06735
C	-1.90724	-1.82723	-2.69236
H	0.107193	-1.22832	-2.58964
H	-1.67076	-2.17737	-3.72129
H	-2.72737	-1.07597	-2.75764
H	-2.28088	-2.69592	-2.10337
C	12.0812	-0.460573	-1.64702
C	10.6036	-0.372569	-1.63717
O	9.96616	-0.310788	-2.67944
H	12.4433	-0.440339	-2.69788
H	12.4113	-1.40792	-1.1713
H	12.5194	0.40021	-1.09925
N	10.0176	-0.362528	-0.437601
C	8.5916	-0.237761	-0.266105
C	8.3327	0.43091	1.07084
O	9.24854	0.616879	1.86982
H	10.5523	-0.372134	0.402565
H	8.19501	0.413752	-1.03479
C	7.90617	-1.62064	-0.321629
H	8.30517	-2.28596	0.473478
H	6.80627	-1.53665	-0.204663
H	8.11561	-2.09482	-1.30531
N	7.07073	0.817719	1.34252
C	6.73046	1.46685	2.58712
H	6.34388	0.66233	0.681745
H	5.64497	1.70719	2.62139
H	7.30327	2.41516	2.70495
H	6.97144	0.80816	3.45269
