44
  This energy is -1.1439 and Call times are: 117870
C	1.38268	-3.19388	-0.00624004
C	0.293113	-2.24612	0.318937
O	-0.800821	-2.64409	0.694885
H	1.01799	-4.23472	0.133509
H	2.25066	-3.02404	0.664961
H	1.70101	-3.06335	-1.06204
N	0.573048	-0.948539	0.176434
C	-0.398036	0.0904131	0.41336
C	-0.0461274	1.27604	-0.465281
O	1.01331	1.30556	-1.08853
H	1.455	-0.641626	-0.169732
H	-1.37643	-0.258607	0.107489
C	-0.411394	0.504178	1.90127
H	0.589371	0.872229	2.21279
H	-1.16485	1.2939	2.09916
H	-0.663284	-0.380502	2.52596
N	-0.937391	2.28391	-0.541852
C	-0.691044	3.4505	-1.35706
H	-1.79099	2.24003	-0.0334114
H	-1.54066	4.16507	-1.288
H	-0.561089	3.16274	-2.42551
H	0.235026	3.97343	-1.02528
C	7.73412	2.58519	-1.8745
C	7.38736	1.15977	-1.67676
O	7.47635	0.353721	-2.5926
H	8.04105	2.74538	-2.93091
H	8.57558	2.87028	-1.20861
H	6.85505	3.22696	-1.65443
N	6.97503	0.813271	-0.455155
C	6.56199	-0.527075	-0.121342
C	5.54591	-0.442931	1.00208
O	5.33085	0.621695	1.5783
H	6.8687	1.48865	0.26901
H	6.06363	-0.970217	-0.9745
C	7.77172	-1.38685	0.305974
H	8.27706	-0.938274	1.18771
H	7.46863	-2.42511	0.552273
H	8.5057	-1.42797	-0.528241
N	4.88729	-1.57043	1.33521
C	3.89853	-1.58523	2.38797
H	5.07205	-2.42134	0.854701
H	3.46975	-2.60424	2.51047
H	3.06717	-0.880759	2.15594
H	4.3521	-1.27658	3.35758
