44
  This energy is -3.5262 and Call times are: 116982
C	1.67777	0.929918	-2.90397
C	0.966412	1.25808	-1.64801
O	0.964198	2.39665	-1.20073
H	2.17176	1.84533	-3.29624
H	0.959977	0.555284	-3.66368
H	2.45209	0.156873	-2.71443
N	0.33816	0.248712	-1.04069
C	-0.360518	0.403782	0.210857
C	-0.323827	-0.925594	0.940902
O	0.0909686	-1.93947	0.382582
H	0.383302	-0.680816	-1.39538
H	0.164133	1.12419	0.825991
C	-1.81954	0.852612	-0.0237422
H	-2.36124	0.108683	-0.645969
H	-2.36411	0.98892	0.933016
H	-1.82222	1.82322	-0.566199
N	-0.752469	-0.949495	2.21829
C	-0.74923	-2.16786	2.99402
H	-1.08065	-0.11802	2.6542
H	-1.13784	-1.98215	4.01955
H	0.283758	-2.57644	3.07933
H	-1.38818	-2.94262	2.51169
C	2.77951	1.02555	2.71528
C	3.97193	1.13873	1.84551
O	4.72427	2.10003	1.92474
H	2.71688	1.92107	3.371
H	2.85462	0.118762	3.35156
H	1.85895	0.967799	2.09697
N	4.17171	0.142268	0.979748
C	5.2643	0.132314	0.0391598
C	4.8339	-0.665482	-1.17733
O	3.78465	-1.30638	-1.17119
H	3.52801	-0.613345	0.898751
H	5.46003	1.14465	-0.291727
C	6.53087	-0.485256	0.671328
H	6.3336	-1.52745	1.00141
H	7.38326	-0.48597	-0.0385785
H	6.82293	0.109777	1.56406
N	5.63645	-0.637341	-2.25951
C	5.30585	-1.36135	-3.46479
H	6.47937	-0.1097	-2.24685
H	6.08911	-1.21239	-4.24039
H	4.33216	-1.01183	-3.87837
H	5.2209	-2.45257	-3.25702
