44
  This energy is 0.1221 and Call times are: 118747
C	3.08341	0.433502	-1.55479
C	2.01952	-0.424794	-0.986799
O	2.02369	-1.63583	-1.15935
H	3.79787	-0.197348	-2.12702
H	3.63314	0.950887	-0.740634
H	2.6417	1.18776	-2.23968
N	1.06721	0.195643	-0.286414
C	-0.0560941	-0.49978	0.290771
C	-1.22372	0.46609	0.363519
O	-1.06837	1.66137	0.120856
H	1.05516	1.18674	-0.189212
H	-0.348842	-1.31101	-0.364084
C	0.290729	-1.03689	1.69664
H	0.580964	-0.203858	2.37181
H	-0.561705	-1.58637	2.14603
H	1.15262	-1.73524	1.62038
N	-2.43025	-0.0352159	0.693702
C	-3.60023	0.807079	0.782354
H	-2.53694	-1.0058	0.882514
H	-4.49443	0.209488	1.06611
H	-3.8042	1.30023	-0.195641
H	-3.4538	1.60401	1.54694
C	10.6403	-0.594706	1.12229
C	9.67883	0.0423911	0.194474
O	10.0324	0.923824	-0.576555
H	11.6415	-0.130068	0.989784
H	10.717	-1.68126	0.907223
H	10.3124	-0.448333	2.17307
N	8.41921	-0.396325	0.251723
C	7.36227	0.156311	-0.558227
C	6.05487	-0.00850281	0.193506
O	5.99966	-0.681677	1.22088
H	8.13808	-1.08577	0.913151
H	7.52883	1.21857	-0.68664
C	7.29115	-0.550402	-1.92963
H	7.10978	-1.63853	-1.79877
H	6.49009	-0.124446	-2.5679
H	8.26094	-0.423597	-2.45856
N	4.9667	0.614174	-0.300631
C	3.68069	0.518998	0.349993
H	5.03205	1.15778	-1.13087
H	2.9136	1.09967	-0.208242
H	3.73544	0.918478	1.3886
H	3.34582	-0.542099	0.40545
