44
  This energy is -2.8047 and Call times are: 124664
C	-2.89889	-1.54604	1.14843
C	-1.71755	-0.677294	1.35055
O	-1.6023	0.0107494	2.3554
H	-3.59129	-1.43088	2.01052
H	-2.58503	-2.60878	1.07904
H	-3.43197	-1.25677	0.21824
N	-0.79957	-0.688901	0.381238
C	0.382714	0.135471	0.415514
C	0.796267	0.428994	-1.0143
O	0.255135	-0.145638	-1.95701
H	-0.927099	-1.22306	-0.449592
H	0.14437	1.08259	0.883263
C	1.52628	-0.571368	1.17569
H	1.77834	-1.53815	0.690059
H	2.43787	0.0590832	1.22098
H	1.19868	-0.783528	2.21685
N	1.76664	1.34352	-1.20934
C	2.22174	1.69172	-2.53516
H	2.18969	1.80091	-0.434159
H	3.0233	2.46136	-2.48631
H	1.38223	2.09823	-3.14447
H	2.62681	0.796119	-3.05953
C	6.65022	-0.55012	3.36449
C	6.09098	0.270855	2.26704
O	5.38986	1.24585	2.49989
H	6.31139	-0.13889	4.34017
H	7.75981	-0.528668	3.3313
H	6.29815	-1.59946	3.27506
N	6.39266	-0.114192	1.02482
C	5.88736	0.558841	-0.145761
C	5.79851	-0.45363	-1.27207
O	6.28022	-1.57799	-1.14765
H	6.93078	-0.933892	0.850534
H	4.88262	0.911643	0.0508387
C	6.8056	1.73449	-0.545674
H	7.83391	1.37162	-0.757701
H	6.41978	2.26939	-1.4376
H	6.8622	2.45874	0.296106
N	5.16819	-0.0778641	-2.40235
C	5.03012	-0.975901	-3.52513
H	4.78127	0.834773	-2.48269
H	4.4822	-0.482751	-4.35809
H	4.46796	-1.89116	-3.22922
H	6.03013	-1.29151	-3.90131
