44
  This energy is -9.3243 and Call times are: 118803
C	0.562717	-0.274281	-3.42357
C	-0.244586	0.1763	-2.26755
O	-1.17905	0.952377	-2.4121
H	0.183587	0.21246	-4.34835
H	0.484215	-1.37575	-3.53911
H	1.62725	0.00717342	-3.27987
N	0.106405	-0.307765	-1.07387
C	-0.556986	0.0719447	0.148542
C	0.442156	-0.0431165	1.28434
O	1.54218	-0.562352	1.10527
H	0.894964	-0.906576	-0.966788
H	-0.855176	1.11104	0.0852662
C	-1.78365	-0.828346	0.413161
H	-1.47684	-1.89334	0.488658
H	-2.31113	-0.537068	1.34452
H	-2.49749	-0.734352	-0.434157
N	0.0825788	0.450066	2.4858
C	0.970016	0.3902	3.6238
H	-0.810205	0.870246	2.61012
H	0.493351	0.847553	4.5187
H	1.91697	0.9379	3.41268
H	1.22868	-0.666148	3.86539
C	6.73871	1.72869	-2.53753
C	5.51454	1.16762	-1.92289
O	4.40413	1.45323	-2.3493
H	6.45347	2.40852	-3.36958
H	7.3727	0.911893	-2.94206
H	7.31548	2.30535	-1.78396
N	5.6942	0.344106	-0.887552
C	4.59841	-0.245765	-0.159642
C	5.05641	-0.494406	1.26513
O	6.23646	-0.354597	1.58079
H	6.6024	0.153432	-0.526062
H	3.7777	0.459333	-0.116238
C	4.14408	-1.56565	-0.820491
H	4.98285	-2.29316	-0.855732
H	3.29167	-2.02253	-0.27718
H	3.82091	-1.36109	-1.86455
N	4.12463	-0.863395	2.16605
C	4.46626	-1.11637	3.54643
H	3.17412	-0.967329	1.89256
H	3.56381	-1.40733	4.12795
H	4.90691	-0.206705	4.01507
H	5.21286	-1.93979	3.62203
