44
  This energy is 0.1312 and Call times are: 125338
C	3.15853	0.368233	-1.41449
C	1.92098	0.927704	-0.825754
O	1.84609	2.10804	-0.513325
H	3.92694	1.16866	-1.48336
H	2.95473	-0.0229152	-2.43341
H	3.54969	-0.451402	-0.775517
N	0.906586	0.0763128	-0.6569
C	-0.345969	0.463186	-0.0569046
C	-0.946491	-0.758113	0.613437
O	-0.456076	-1.87317	0.446544
H	0.996629	-0.890536	-0.878177
H	-0.159645	1.19714	0.717191
C	-1.31449	1.02946	-1.11829
H	-1.51426	0.273196	-1.90708
H	-2.27759	1.34383	-0.666484
H	-0.851235	1.91741	-1.60129
N	-2.02512	-0.572871	1.39974
C	-2.66088	-1.67532	2.08282
H	-2.40511	0.337508	1.5258
H	-3.52982	-1.31985	2.67932
H	-1.94356	-2.17614	2.77268
H	-3.02379	-2.43382	1.35198
C	-0.0324822	-1.48879	-0.62815
C	0.936969	-0.381747	-0.788713
O	0.758688	0.500644	-1.61697
H	-0.858234	-1.36316	-1.36178
H	-0.458162	-1.479	0.397252
H	0.466192	-2.4638	-0.811858
N	2.00412	-0.406445	0.0131399
C	3.05492	0.578309	-0.0548502
C	4.34484	-0.0738471	0.405995
O	4.33876	-1.19624	0.907896
H	2.15597	-1.15341	0.654104
H	3.19603	0.879573	-1.08536
C	2.72198	1.80213	0.826424
H	2.5875	1.49513	1.88553
H	3.51712	2.57367	0.771713
H	1.77048	2.25859	0.476218
N	5.48969	0.616655	0.237061
C	6.76613	0.0741719	0.640282
H	5.47489	1.5218	-0.174723
H	7.58632	0.791978	0.418297
H	6.97705	-0.877015	0.0998753
H	6.77426	-0.140707	1.7334
