44
  This energy is 0.1189 and Call times are: 121990
C	1.01057	-1.77861	-2.81567
C	0.658026	-1.70149	-1.38008
O	0.490186	-2.71385	-0.71423
H	1.06353	-2.84536	-3.12407
H	1.99834	-1.30373	-2.99322
H	0.238722	-1.2656	-3.42736
N	0.533935	-0.476282	-0.86447
C	0.153327	-0.240682	0.506001
C	-0.56078	1.09602	0.575451
O	-0.584744	1.8485	-0.396621
H	0.633456	0.338166	-1.42895
H	-0.553278	-1.00038	0.81616
C	1.39065	-0.242234	1.43027
H	2.11107	0.543963	1.11894
H	1.10925	-0.0756123	2.49025
H	1.90197	-1.22691	1.35735
N	-1.17035	1.41989	1.73284
C	-1.87921	2.66846	1.89024
H	-1.14347	0.796176	2.50701
H	-2.31121	2.74932	2.91203
H	-2.70979	2.7444	1.15156
H	-1.19426	3.53227	1.72956
C	2.46174	0.548861	0.999432
C	3.52665	-0.312441	0.437923
O	3.35272	-1.51309	0.281049
H	1.57304	-0.0746904	1.23868
H	2.16823	1.32476	0.261479
H	2.81739	1.03966	1.92987
N	4.67336	0.292769	0.119874
C	5.8155	-0.419856	-0.396112
C	7.06719	0.334324	0.0113731
O	6.99169	1.44817	0.526505
H	4.81418	1.26363	0.291519
H	5.8641	-1.39848	0.0649236
C	5.73717	-0.548601	-1.93317
H	5.69792	0.455294	-2.40719
H	6.6041	-1.10756	-2.34122
H	4.80976	-1.09659	-2.20876
N	8.25547	-0.263675	-0.20403
C	9.49963	0.375405	0.156277
H	8.29609	-1.16692	-0.61824
H	10.3646	-0.275307	-0.0998839
H	9.53095	0.585548	1.24996
H	9.61582	1.34244	-0.384535
