44
  This energy is 0.1141 and Call times are: 123174
C	-3.47576	0.0798507	-0.159382
C	-2.16331	0.743443	0.00870184
O	-2.06474	1.96271	-0.00011217
H	-4.26268	0.852474	-0.299698
H	-3.71892	-0.521209	0.74192
H	-3.45866	-0.581734	-1.05107
N	-1.10823	-0.059344	0.165955
C	0.238562	0.437932	0.297956
C	1.18697	-0.61628	-0.241226
O	0.779345	-1.73781	-0.537424
H	-1.19879	-1.05049	0.129937
H	0.355015	1.3215	-0.317167
C	0.566471	0.757797	1.77288
H	0.457371	-0.1508	2.40263
H	1.59617	1.15463	1.88589
H	-0.144741	1.52539	2.14882
N	2.48216	-0.274995	-0.389621
C	3.45662	-1.21063	-0.900704
H	2.79225	0.638632	-0.148361
H	4.4643	-0.742097	-0.948525
H	3.17782	-1.54761	-1.92539
H	3.51867	-2.11017	-0.246403
C	4.84502	3.46632	0.0660686
C	4.45117	2.11448	0.522767
O	3.72282	1.96154	1.49361
H	4.39593	4.22725	0.740718
H	4.48015	3.64244	-0.96766
H	5.95017	3.57169	0.0907464
N	4.93485	1.08673	-0.178777
C	4.67479	-0.287868	0.169649
C	5.84615	-1.12622	-0.306421
O	6.71973	-0.639213	-1.02153
H	5.5596	1.22587	-0.941784
H	4.62874	-0.380595	1.24757
C	3.35968	-0.78058	-0.472972
H	3.41039	-0.695514	-1.57942
H	3.1412	-1.83355	-0.200855
H	2.51757	-0.147918	-0.116698
N	5.89552	-2.41346	0.089315
C	6.97516	-3.28603	-0.309638
H	5.18149	-2.78835	0.671277
H	6.83639	-4.30381	0.117088
H	7.95346	-2.88781	0.0448133
H	7.01987	-3.37398	-1.41933
