44
  This energy is -3.3817 and Call times are: 120177
C	0.0869257	3.47336	0.202275
C	-0.345428	2.14919	0.703077
O	-0.868398	2.02807	1.80228
H	-0.12852	4.24556	0.972444
H	-0.463706	3.72942	-0.727231
H	1.17792	3.4667	-0.00456265
N	-0.130402	1.10947	-0.106318
C	-0.457566	-0.246019	0.259964
C	0.49316	-1.17585	-0.470166
O	1.24609	-0.748147	-1.34302
H	0.333518	1.21828	-0.98085
H	-0.28843	-0.380045	1.32112
C	-1.92233	-0.576803	-0.100998
H	-2.09367	-0.449637	-1.19118
H	-2.1906	-1.61343	0.188743
H	-2.59972	0.120846	0.438239
N	0.48602	-2.47744	-0.121093
C	1.35993	-3.43545	-0.757233
H	-0.127446	-2.80388	0.59036
H	1.20501	-4.45172	-0.332473
H	2.42727	-3.15254	-0.608823
H	1.16361	-3.47952	-1.85298
C	3.66194	2.20476	1.70052
C	4.10774	0.836125	1.3552
O	3.70168	-0.137159	1.97507
H	2.96699	2.15703	2.56691
H	3.13182	2.66326	0.839418
H	4.53501	2.83391	1.97439
N	4.96996	0.730929	0.341349
C	5.52623	-0.529623	-0.0830658
C	6.89256	-0.264398	-0.686694
O	7.27526	0.884708	-0.898356
H	5.32287	1.53588	-0.127013
H	5.67338	-1.16443	0.781794
C	4.60473	-1.2209	-1.11176
H	4.46194	-0.574499	-2.00385
H	5.01536	-2.19907	-1.43593
H	3.60832	-1.39799	-0.651167
N	7.66766	-1.32931	-0.971621
C	8.98509	-1.17408	-1.543
H	7.34223	-2.25125	-0.78942
H	9.46338	-2.16538	-1.70363
H	9.6381	-0.575222	-0.86755
H	8.92874	-0.648684	-2.52377
