44
  This energy is 0.1435 and Call times are: 120986
C	-3.23227	-0.316788	-1.2509
C	-2.28086	0.0307746	-0.171473
O	-2.65247	0.618845	0.834751
H	-4.24525	0.0531055	-0.980828
H	-3.27535	-1.41834	-1.38306
H	-2.91891	0.157756	-2.20468
N	-1.00964	-0.329885	-0.361998
C	0.0385314	-0.0231673	0.579183
C	1.34289	0.09301	-0.186791
O	1.40776	-0.226894	-1.37219
H	-0.714956	-0.771662	-1.20453
H	-0.157577	0.941486	1.03042
C	0.143325	-1.11731	1.66413
H	0.354972	-2.10533	1.20255
H	0.937762	-0.885651	2.40286
H	-0.824616	-1.19029	2.20645
N	2.41721	0.565045	0.475814
C	3.69913	0.71544	-0.172453
H	2.34406	0.822556	1.43363
H	4.45434	1.11787	0.538124
H	3.62282	1.41504	-1.03617
H	4.06414	-0.265552	-0.553982
C	3.92524	-0.39704	3.17256
C	4.04304	-0.77613	1.74653
O	3.53476	-1.80413	1.32076
H	3.35119	-1.17977	3.71446
H	3.39087	0.571494	3.26819
H	4.93338	-0.309486	3.62978
N	4.73048	0.0599749	0.965032
C	4.96695	-0.195284	-0.434068
C	6.27014	0.476578	-0.823776
O	6.84275	1.23851	-0.0470591
H	5.17311	0.872009	1.33454
H	5.09469	-1.25976	-0.586371
C	3.80293	0.339407	-1.29685
H	3.67824	1.43331	-1.14895
H	3.96665	0.136598	-2.37508
H	2.85841	-0.160065	-0.989034
N	6.77587	0.200849	-2.04206
C	8.01386	0.789243	-2.49743
H	6.30018	-0.421402	-2.65492
H	8.26164	0.439036	-3.52368
H	8.85349	0.511148	-1.81996
H	7.93786	1.90058	-2.51478
