44
  This energy is 0.1022 and Call times are: 122414
C	-3.36276	-0.439543	-0.781863
C	-2.22962	-0.482371	0.169612
O	-2.41533	-0.639432	1.36847
H	-4.31682	-0.55023	-0.222035
H	-3.27818	-1.26879	-1.51531
H	-3.37312	0.531079	-1.32119
N	-1.00974	-0.338709	-0.353473
C	0.186857	-0.315767	0.450388
C	1.2238	0.526211	-0.268906
O	1.03196	0.914054	-1.41977
H	-0.877322	-0.170706	-1.32615
H	-0.0259349	0.171147	1.39393
C	0.719987	-1.7458	0.687051
H	0.948402	-2.242	-0.280241
H	1.63346	-1.74253	1.31639
H	-0.0580299	-2.34611	1.20731
N	2.35097	0.837039	0.40109
C	3.3913	1.63829	-0.20048
H	2.48629	0.517437	1.33308
H	4.23545	1.78388	0.50906
H	2.99848	2.64039	-0.488154
H	3.78567	1.14552	-1.11852
C	3.51194	1.23079	-2.49758
C	3.95774	1.16302	-1.08768
O	3.55168	1.96318	-0.256248
H	2.81699	2.08949	-2.62218
H	2.98182	0.296001	-2.77669
H	4.38501	1.37479	-3.16847
N	4.81996	0.190016	-0.784009
C	5.37623	0.0233423	0.535589
C	6.74256	-0.620823	0.395011
O	7.12526	-1.05561	-0.689519
H	5.17287	-0.428321	-1.48041
H	5.52338	0.996686	0.986776
C	4.45473	-0.848283	1.4167
H	4.31194	-1.85061	0.959536
H	4.86536	-0.972552	2.43966
H	3.45832	-0.361759	1.49917
N	7.51766	-0.689465	1.49525
C	8.83509	-1.28026	1.45611
H	7.19223	-0.328492	2.36293
H	9.31338	-1.24163	2.45959
H	9.4881	-0.73662	0.735468
H	8.77874	-2.34559	1.1351
