44
  This energy is -2.2425 and Call times are: 121131
C	2.71168	2.16637	-0.257521
C	1.65724	1.32084	-0.861163
O	1.41034	1.37506	-2.05804
H	3.1657	2.80575	-1.04552
H	3.50389	1.5295	0.189173
H	2.27578	2.81915	0.527957
N	0.999862	0.508525	-0.0302781
C	-0.0809017	-0.342231	-0.462392
C	-1.01684	-0.551806	0.713045
O	-0.707218	-0.17091	1.84033
H	1.18432	0.505397	0.948412
H	-0.644431	0.161989	-1.23752
C	0.454732	-1.6966	-0.976232
H	1.024	-2.21907	-0.178114
H	-0.366866	-2.35537	-1.32481
H	1.14341	-1.5185	-1.83084
N	-2.19547	-1.15953	0.473224
C	-3.15219	-1.39682	1.52896
H	-2.42993	-1.45695	-0.446365
H	-4.05748	-1.90679	1.13197
H	-3.46779	-0.435953	1.99629
H	-2.70862	-2.03833	2.32448
C	4.77803	-0.449453	-2.35594
C	6.10005	0.075367	-1.94605
O	6.88534	0.525314	-2.76902
H	4.6776	-0.369935	-3.46022
H	3.96742	0.139802	-1.87799
H	4.68192	-1.51602	-2.06223
N	6.37968	0.0259828	-0.641542
C	7.64207	0.459496	-0.0965672
C	7.91036	-0.336732	1.16661
O	7.04329	-1.06229	1.64979
H	5.7468	-0.380714	0.011079
H	8.43302	0.226822	-0.798626
C	7.6194	1.97266	0.211736
H	6.81493	2.21036	0.939996
H	8.5905	2.32141	0.619001
H	7.41364	2.53504	-0.725138
N	9.12985	-0.224891	1.72906
C	9.47796	-0.949001	2.92933
H	9.81964	0.364052	1.32113
H	10.5238	-0.724728	3.23455
H	9.38864	-2.04736	2.76527
H	8.80006	-0.668952	3.76788
