44
  This energy is -0.7303 and Call times are: 115578
C	-2.01566	-0.352928	2.81518
C	-1.38477	0.470206	1.75897
O	-1.71648	1.63409	1.58077
H	-2.78755	0.2512	3.33968
H	-1.25268	-0.679645	3.55265
H	-2.50131	-1.24494	2.36624
N	-0.446298	-0.128056	1.0216
C	0.22623	0.530398	-0.0705138
C	0.638788	-0.526243	-1.07792
O	0.534944	-1.72261	-0.814021
H	-0.216146	-1.08824	1.15175
H	-0.467696	1.19664	-0.567731
C	1.46065	1.31082	0.431881
H	2.17775	0.626036	0.932754
H	1.97917	1.83363	-0.397774
H	1.13611	2.07293	1.17364
N	1.11189	-0.105197	-2.26742
C	1.52375	-1.03818	-3.29021
H	1.18466	0.866976	-2.46403
H	1.88202	-0.497938	-4.19409
H	0.674332	-1.69473	-3.58803
H	2.3492	-1.68827	-2.91986
C	7.59748	-3.31495	-0.798342
C	6.78196	-2.08663	-0.929907
O	5.933	-1.98112	-1.80428
H	7.31073	-4.03346	-1.5967
H	7.42088	-3.78744	0.190755
H	8.67573	-3.07157	-0.904278
N	7.02812	-1.11372	-0.0494306
C	6.34583	0.156019	-0.0776735
C	7.27413	1.20484	0.505254
O	8.32748	0.880591	1.05026
H	7.75054	-1.19837	0.630863
H	6.15052	0.433801	-1.10593
C	5.02835	0.0923614	0.725712
H	5.22921	-0.182285	1.7832
H	4.48678	1.06012	0.700022
H	4.36796	-0.686934	0.286486
N	6.90567	2.49643	0.395442
C	7.728	3.5639	0.915502
H	6.05166	2.73936	-0.0525649
H	7.2544	4.55258	0.727219
H	8.73148	3.55813	0.431488
H	7.87385	3.44825	2.01391
