44
  This energy is -4.4114 and Call times are: 123377
C	-0.199669	-2.68527	-2.20502
C	-0.299728	-2.10343	-0.847605
O	-0.789724	-2.736	0.0776882
H	-0.6392	-3.70638	-2.20025
H	0.86438	-2.75348	-2.51469
H	-0.756616	-2.0577	-2.93239
N	0.168968	-0.862344	-0.697891
C	0.101805	-0.14781	0.552505
C	0.0297725	1.33623	0.245934
O	0.199053	1.75178	-0.898782
H	0.527565	-0.345098	-1.46973
H	-0.812025	-0.415382	1.06821
C	1.33175	-0.459766	1.43294
H	2.26897	-0.175685	0.908566
H	1.28492	0.0737334	2.40438
H	1.36879	-1.55198	1.63798
N	-0.23348	2.17384	1.26825
C	-0.326473	3.60163	1.07089
H	-0.371546	1.81839	2.18676
H	-0.549514	4.1176	2.0307
H	-1.13587	3.84595	0.345312
H	0.630774	4.00608	0.669344
C	6.42545	-3.41151	0.139082
C	7.11164	-2.24188	-0.454443
O	8.02227	-2.38325	-1.25892
H	6.88562	-4.34481	-0.25213
H	5.34858	-3.40115	-0.131064
H	6.5292	-3.3957	1.24455
N	6.68317	-1.04005	-0.0615032
C	7.28079	0.189842	-0.518408
C	7.09623	1.23624	0.564435
O	6.37959	1.01477	1.53865
H	5.9684	-0.941487	0.624969
H	8.34595	0.0432112	-0.647079
C	6.6351	0.659117	-1.84057
H	5.54414	0.81983	-1.70638
H	7.09621	1.59797	-2.20998
H	6.77531	-0.125231	-2.61612
N	7.75039	2.40575	0.421813
C	7.63958	3.45855	1.40441
H	8.32892	2.56484	-0.371328
H	8.25143	4.33896	1.10817
H	7.99297	3.10524	2.40018
H	6.58039	3.78716	1.51064
