44
  This energy is -4.9184 and Call times are: 124871
C	-2.27121	-2.5965	-0.460912
C	-1.30707	-1.84052	0.369783
O	-1.21479	-2.04091	1.573
H	-2.8436	-3.29641	0.185909
H	-1.73247	-3.18197	-1.23534
H	-2.98177	-1.89916	-0.95275
N	-0.556568	-0.937513	-0.265596
C	0.395238	-0.095216	0.414963
C	0.524911	1.19889	-0.366078
O	0.0050888	1.32084	-1.47361
H	-0.671952	-0.756898	-1.23819
H	0.0118209	0.157016	1.39578
C	1.76643	-0.79598	0.533277
H	2.1651	-1.0455	-0.473124
H	2.50416	-0.163047	1.06776
H	1.64617	-1.74421	1.10138
N	1.21969	2.20464	0.201172
C	1.39126	3.47466	-0.465004
H	1.62954	2.08841	1.09983
H	1.9913	4.16998	0.162461
H	0.403517	3.94879	-0.667093
H	1.91529	3.34005	-1.43887
C	4.66954	-1.51666	3.07824
C	5.11581	-0.371588	2.25313
O	5.33361	0.722888	2.75423
H	4.56876	-1.18995	4.13605
H	5.41335	-2.33928	3.02548
H	3.685	-1.88531	2.72064
N	5.26169	-0.602883	0.946378
C	5.64788	0.423159	0.0100835
C	5.0562	0.0757424	-1.34298
O	4.51874	-1.01338	-1.53444
H	5.04116	-1.48817	0.547018
H	5.21706	1.36786	0.317581
C	7.18546	0.53409	-0.0836457
H	7.6271	-0.431817	-0.409254
H	7.49545	1.33024	-0.791154
H	7.59741	0.780995	0.919188
N	5.13474	1.00399	-2.31674
C	4.5946	0.76448	-3.63471
H	5.56978	1.88099	-2.14153
H	4.75736	1.64643	-4.29267
H	3.4998	0.565145	-3.58026
H	5.08341	-0.119177	-4.1052
