44
  This energy is -2.8235 and Call times are: 118052
C	2.05946	-2.79881	0.194865
C	1.60696	-1.55774	-0.473071
O	2.24602	-1.06437	-1.39209
H	3.01554	-3.13442	-0.262471
H	1.30054	-3.59947	0.0694529
H	2.22465	-2.61259	1.27705
N	0.475596	-1.01627	-0.0156842
C	-0.0675153	0.213742	-0.535939
C	-0.85399	0.889309	0.571591
O	-1.08007	0.305546	1.62981
H	-0.0116064	-1.407	0.760094
H	0.744822	0.877097	-0.805566
C	-0.974137	-0.0562933	-1.75674
H	-1.81364	-0.728332	-1.47811
H	-1.38742	0.884346	-2.17498
H	-0.379874	-0.558063	-2.55136
N	-1.28437	2.1478	0.354815
C	-2.03557	2.87231	1.3533
H	-1.08807	2.60506	-0.506263
H	-2.29742	3.88945	0.987133
H	-1.44234	2.97909	2.2903
H	-2.97942	2.33506	1.60161
C	7.90084	-0.991675	-2.41567
C	6.6582	-1.19613	-1.63774
O	5.85395	-2.06471	-1.94623
H	7.92716	-1.71218	-3.26185
H	8.78845	-1.16209	-1.7708
H	7.9323	0.0412378	-2.82209
N	6.47061	-0.384131	-0.594736
C	5.28971	-0.433479	0.230845
C	5.05066	0.953253	0.797767
O	5.88956	1.84195	0.662987
H	7.11447	0.344898	-0.380678
H	4.43397	-0.682416	-0.384263
C	5.45563	-1.46299	1.37007
H	6.32712	-1.20216	2.00765
H	4.54758	-1.52033	2.00462
H	5.63742	-2.46876	0.932209
N	3.88792	1.1733	1.44247
C	3.57073	2.46295	2.01023
H	3.21977	0.44285	1.53783
H	2.57102	2.443	2.49749
H	3.55976	3.24811	1.21985
H	4.32775	2.75293	2.77442
