44
  This energy is 0.1061 and Call times are: 120371
C	3.35947	0.777237	0.471741
C	2.26976	0.0997876	-0.266315
O	2.46996	-0.417541	-1.35659
H	4.29342	0.732621	-0.129618
H	3.5342	0.272146	1.44493
H	3.09715	1.84148	0.649701
N	1.07124	0.0902786	0.32177
C	-0.0954714	-0.492644	-0.292679
C	-1.31856	0.242	0.222983
O	-1.22578	1.04941	1.14558
H	0.914447	0.55122	1.19057
H	-0.0519457	-0.334929	-1.36313
C	-0.193554	-1.99998	0.029103
H	-0.248862	-2.16173	1.12674
H	-1.08037	-2.46332	-0.449851
H	0.715354	-2.51612	-0.350162
N	-2.50011	-0.0169128	-0.371087
C	-3.71686	0.638505	0.0485946
H	-2.55448	-0.670398	-1.1188
H	-4.58036	0.292648	-0.56131
H	-3.62738	1.74317	-0.0653571
H	-3.93285	0.418246	1.1191
C	9.28485	-2.08109	0.162624
C	8.5377	-0.869682	0.569335
O	8.90325	-0.189207	1.51788
H	10.1467	-2.22876	0.849063
H	9.66641	-1.96548	-0.873616
H	8.62578	-2.97318	0.216262
N	7.45418	-0.570907	-0.151155
C	6.60153	0.552018	0.149808
C	5.19872	0.221001	-0.323634
O	4.98338	-0.780734	-1.00324
H	7.14608	-1.15729	-0.894849
H	6.55596	0.688393	1.2231
C	7.11632	1.83552	-0.537827
H	7.15326	1.69972	-1.63975
H	6.476	2.71024	-0.302521
H	8.14703	2.05405	-0.182556
N	4.20437	1.05709	0.0344498
C	2.83676	0.820046	-0.365098
H	4.39766	1.86033	0.588088
H	2.16843	1.61775	0.02762
H	2.47825	-0.160489	0.0238758
H	2.74887	0.803919	-1.47557
