44
  This energy is -1.2232 and Call times are: 122176
C	0.0815568	-2.49502	-2.42506
C	0.115588	-1.07247	-2.01721
O	0.424515	-0.193819	-2.81027
H	0.385329	-2.57881	-3.49117
H	-0.94538	-2.90138	-2.31099
H	0.784806	-3.0883	-1.80333
N	-0.204837	-0.811246	-0.747771
C	-0.175532	0.519093	-0.192885
C	0.114899	0.405992	1.29184
O	0.117288	-0.688769	1.85149
H	-0.414382	-1.54114	-0.103402
H	0.639618	1.0746	-0.639619
C	-1.51842	1.2447	-0.428203
H	-2.35367	0.680651	0.0389669
H	-1.50368	2.27512	-0.0176558
H	-1.71431	1.30897	-1.52084
N	0.376541	1.54302	1.96618
C	0.669385	1.53272	3.38051
H	0.37404	2.41892	1.49514
H	0.856962	2.56467	3.7508
H	1.57296	0.915535	3.59004
H	-0.182897	1.10326	3.95525
C	10.1376	-1.57223	-1.36751
C	9.51309	-0.592143	-0.450685
O	10.1682	-0.0286574	0.415196
H	11.213	-1.68389	-1.10862
H	10.0554	-1.2205	-2.4174
H	9.63976	-2.55987	-1.26867
N	8.20866	-0.365896	-0.622942
C	7.45331	0.528059	0.218986
C	6.0149	0.0467928	0.249426
O	5.63419	-0.848181	-0.502765
H	7.68024	-0.862689	-1.30545
H	7.83366	0.472119	1.23132
C	7.52821	1.97773	-0.308352
H	7.12838	2.03756	-1.34305
H	6.96188	2.67802	0.339251
H	8.5903	2.30613	-0.329543
N	5.1795	0.628466	1.13247
C	3.79454	0.232014	1.23693
H	5.50704	1.34816	1.73565
H	3.27332	0.826272	2.0195
H	3.71382	-0.84659	1.5041
H	3.26687	0.388161	0.268263
