44
  This energy is -6.5673 and Call times are: 122787
C	0.477205	1.85413	2.9064
C	-0.382236	1.33124	1.82054
O	-1.60059	1.42542	1.87661
H	-0.163142	2.28652	3.7057
H	1.14822	2.64741	2.51501
H	1.08799	1.0341	3.33952
N	0.245159	0.756479	0.791755
C	-0.457444	0.1633	-0.318672
C	0.404889	-0.94955	-0.883914
O	1.56371	-1.10363	-0.502978
H	1.23538	0.650734	0.779678
H	-1.37404	-0.288923	0.0390609
C	-0.761919	1.21754	-1.40546
H	0.178796	1.67425	-1.7803
H	-1.31498	0.775998	-2.25969
H	-1.38717	2.02602	-0.967563
N	-0.147736	-1.76153	-1.80659
C	0.594696	-2.85103	-2.39648
H	-1.08818	-1.62355	-2.09915
H	-0.0324535	-3.40157	-3.13187
H	0.927618	-3.5693	-1.61257
H	1.49984	-2.47036	-2.92274
C	4.96919	2.26404	2.63417
C	4.44473	1.8473	1.31416
O	3.52587	2.45167	0.778585
H	4.39137	3.141	2.99874
H	6.03887	2.54892	2.54838
H	4.86507	1.43558	3.36621
N	5.02648	0.784725	0.752995
C	4.59734	0.235042	-0.508847
C	4.91476	-1.24847	-0.510951
O	5.59304	-1.74865	0.384292
H	5.74592	0.278474	1.21988
H	3.52255	0.335068	-0.595038
C	5.3032	0.941468	-1.68697
H	6.40542	0.830145	-1.60468
H	4.97082	0.536523	-2.66475
H	5.06333	2.02688	-1.66095
N	4.42066	-1.99218	-1.5203
C	4.66611	-3.41315	-1.60265
H	3.87053	-1.57019	-2.23328
H	4.17637	-3.8453	-2.503
H	4.26626	-3.93364	-0.702371
H	5.759	-3.62033	-1.66425
