44
  This energy is -1.7646 and Call times are: 124940
C	2.06709	0.158681	2.79547
C	0.728592	0.100581	2.16604
O	-0.276565	-0.100811	2.8335
H	1.96736	-0.0214846	3.88793
H	2.52178	1.15901	2.63624
H	2.72818	-0.620924	2.36157
N	0.686671	0.276683	0.843309
C	-0.537018	0.204858	0.0843708
C	-0.196142	-0.256536	-1.32008
O	0.973778	-0.340892	-1.68871
H	1.5177	0.398881	0.308216
H	-1.18512	-0.544394	0.521653
C	-1.24422	1.57733	0.0467369
H	-0.583704	2.34405	-0.411407
H	-2.19486	1.53182	-0.523124
H	-1.47699	1.89885	1.08539
N	-1.21794	-0.575973	-2.13856
C	-0.989887	-1.03001	-3.49061
H	-2.1577	-0.505215	-1.82088
H	-1.9545	-1.24252	-4.00206
H	-0.378601	-1.96146	-3.4943
H	-0.444195	-0.256619	-4.07817
C	5.82363	-3.43806	-0.261154
C	5.15981	-2.25531	0.33181
O	4.17338	-2.37447	1.04537
H	5.27364	-4.35656	0.0383514
H	6.87035	-3.5115	0.101801
H	5.82119	-3.36291	-1.36904
N	5.69494	-1.06699	0.0421146
C	5.13518	0.176481	0.51008
C	5.48055	1.25874	-0.495407
O	6.26718	1.0371	-1.41399
H	6.47341	-0.983203	-0.573368
H	4.05577	0.0943765	0.537635
C	5.68657	0.538826	1.90647
H	6.793	0.633527	1.87642
H	5.25254	1.48739	2.28379
H	5.4291	-0.270562	2.62407
N	4.88922	2.46069	-0.348217
C	5.15263	3.54942	-1.26005
H	4.25238	2.61966	0.398934
H	4.57176	4.45314	-0.971749
H	4.86947	3.26789	-2.30017
H	6.23525	3.81223	-1.25613
