44
  This energy is -3.7753 and Call times are: 122727
C	-2.95501	-0.935314	1.58298
C	-1.48919	-1.02851	1.39898
O	-0.786855	-1.62469	2.20377
H	-3.24088	-1.45464	2.52343
H	-3.47905	-1.4188	0.731882
H	-3.26521	0.128723	1.65147
N	-0.987548	-0.428298	0.317095
C	0.424082	-0.396182	0.0258423
C	0.714258	0.862221	-0.770257
O	-0.201694	1.56176	-1.1985
H	-1.567	0.0879449	-0.307083
H	0.978684	-0.326218	0.953287
C	0.852271	-1.64988	-0.767962
H	0.291175	-1.71645	-1.7244
H	1.93983	-1.64367	-0.986383
H	0.623358	-2.55886	-0.169873
N	2.00556	1.18519	-0.980616
C	2.37792	2.3672	-1.72249
H	2.73277	0.608891	-0.622678
H	3.48458	2.45891	-1.78657
H	1.97838	3.28272	-1.22906
H	1.96872	2.32655	-2.75789
C	4.96439	-0.60855	-3.36726
C	5.89115	-0.358971	-2.24033
O	7.09861	-0.506953	-2.36908
H	5.54585	-0.942855	-4.25383
H	4.41747	0.322319	-3.62632
H	4.23607	-1.40144	-3.09534
N	5.33579	0.0298403	-1.0902
C	6.10382	0.268987	0.106253
C	5.2141	-0.00976796	1.30303
O	4.01016	-0.213386	1.1589
H	4.34796	0.106314	-0.989238
H	6.92855	-0.431548	0.147314
C	6.62515	1.72222	0.145914
H	5.77891	2.4412	0.114448
H	7.22974	1.91488	1.05579
H	7.26719	1.90618	-0.743061
N	5.79239	-0.0336801	2.52
C	5.02624	-0.296235	3.71593
H	6.76874	0.129375	2.61607
H	5.68063	-0.273569	4.61509
H	4.54194	-1.29805	3.66011
H	4.22558	0.467529	3.84539
