44
  This energy is 0.2883 and Call times are: 122759
C	3.43013	0.398423	-0.433794
C	2.26253	-0.305355	0.142874
O	2.38772	-1.38595	0.702389
H	4.34307	-0.216728	-0.278858
H	3.56964	1.38054	0.064924
H	3.28288	0.554913	-1.52325
N	1.08063	0.302115	0.014523
C	-0.151445	-0.27914	0.486435
C	-1.282	0.238406	-0.382787
O	-1.08889	1.13966	-1.19652
H	0.988645	1.16198	-0.479474
H	-0.111731	-1.35364	0.357997
C	-0.399219	0.0804125	1.96784
H	-0.45056	1.18238	2.09846
H	-1.33804	-0.372818	2.34695
H	0.444087	-0.300973	2.58407
N	-2.49487	-0.330045	-0.235043
C	-3.62912	0.0933679	-1.02269
H	-2.63058	-1.06082	0.425736
H	-4.53501	-0.493966	-0.75505
H	-3.42776	-0.0486005	-2.10923
H	-3.84682	1.17222	-0.850007
C	2.32616	-0.49265	-1.45315
C	3.42491	0.385328	-0.991578
O	3.45214	1.57263	-1.28481
H	1.61922	0.0993141	-2.07418
H	1.77756	-0.909125	-0.582326
H	2.73285	-1.32465	-2.06589
N	4.37233	-0.190712	-0.247962
C	5.52596	0.524392	0.238153
C	6.66662	-0.464461	0.388595
O	6.47246	-1.67272	0.269768
H	4.35783	-1.16704	-0.0519092
H	5.82921	1.25684	-0.499536
C	5.22172	1.20959	1.5884
H	4.92074	0.45741	2.34845
H	6.09802	1.77503	1.96643
H	4.3789	1.92273	1.45638
N	7.89312	0.0303781	0.64713
C	9.03998	-0.834054	0.800945
H	8.03118	1.01128	0.735751
H	9.95622	-0.238594	1.00869
H	9.21093	-1.42844	-0.125751
H	8.88548	-1.54578	1.64399
