44
  This energy is 0.1041 and Call times are: 122816
C	-2.22493	1.88704	-1.89775
C	-1.82293	1.2273	-0.635104
O	-2.4251	1.4378	0.408682
H	-3.08946	2.5581	-1.70245
H	-2.5233	1.12597	-2.64908
H	-1.384	2.49165	-2.29821
N	-0.775959	0.401778	-0.704061
C	-0.241212	-0.279186	0.448716
C	1.23837	-0.517619	0.213054
O	1.74473	-0.296921	-0.885404
H	-0.270699	0.272201	-1.55246
H	-0.330324	0.362921	1.31612
C	-0.973961	-1.61749	0.688032
H	-0.873926	-2.28075	-0.197468
H	-0.58059	-2.14485	1.58116
H	-2.05604	-1.41956	0.850155
N	1.9718	-0.969224	1.24947
C	3.38842	-1.21977	1.12067
H	1.545	-1.138	2.13176
H	3.81199	-1.586	2.08175
H	3.92743	-0.288275	0.832465
H	3.58214	-1.98732	0.336781
C	8.10421	1.31974	-2.02484
C	7.51558	0.217531	-1.23123
O	7.96689	-0.917796	-1.29262
H	8.94367	0.924013	-2.63685
H	8.4931	2.11149	-1.35056
H	7.33926	1.75437	-2.70234
N	6.47493	0.53375	-0.456998
C	5.77016	-0.439436	0.339726
C	4.33517	0.0272895	0.496345
O	3.99389	1.14915	0.126669
H	6.09316	1.45356	-0.448839
H	5.74621	-1.38415	-0.189007
C	6.43827	-0.60911	1.72178
H	6.45362	0.357554	2.26893
H	5.91296	-1.36603	2.33956
H	7.48959	-0.943341	1.58264
N	3.45426	-0.832655	1.04453
C	2.0662	-0.478136	1.22831
H	3.7484	-1.73759	1.33375
H	1.50412	-1.31776	1.69343
H	1.58975	-0.23652	0.250605
H	1.97258	0.414734	1.88797
