44
  This energy is -4.9257 and Call times are: 124787
C	-2.59368	-1.8135	-1.448
C	-1.76316	-1.42934	-0.284473
O	-2.07998	-1.74981	0.852775
H	-3.48259	-2.37948	-1.09389
H	-2.00982	-2.45704	-2.13916
H	-2.93719	-0.90667	-1.98906
N	-0.663716	-0.719535	-0.548625
C	0.220433	-0.236506	0.482647
C	0.883404	1.03253	-0.0189155
O	0.757779	1.38858	-1.18903
H	-0.440828	-0.431329	-1.47551
H	-0.361204	0.0273557	1.35712
C	1.28372	-1.29822	0.839598
H	1.88763	-1.56153	-0.0548257
H	1.96213	-0.94349	1.64238
H	0.775831	-2.22071	1.19655
N	1.6028	1.7531	0.863855
C	2.26492	2.9776	0.478678
H	1.68951	1.45098	1.8074
H	2.80381	3.42232	1.34415
H	1.52589	3.72308	0.105361
H	3.00303	2.7866	-0.333638
C	3.56219	-0.198459	-2.47598
C	4.77467	-0.708462	-1.79703
O	5.22316	-1.81782	-2.0512
H	3.18101	-0.972258	-3.17725
H	3.80339	0.720182	-3.05102
H	2.7728	0.0298047	-1.7291
N	5.33939	0.104389	-0.901071
C	6.49838	-0.269068	-0.129186
C	6.44945	0.479087	1.18969
O	5.62032	1.36685	1.37976
H	4.93913	0.987944	-0.675286
H	6.45063	-1.32677	0.0979959
C	7.79962	0.0627893	-0.892011
H	7.8541	1.14947	-1.11607
H	8.69903	-0.232793	-0.313906
H	7.81021	-0.489265	-1.85713
N	7.33811	0.129164	2.14041
C	7.36314	0.781816	3.42866
H	7.99862	-0.594418	1.96944
H	8.16385	0.353483	4.07102
H	6.38807	0.654618	3.95243
H	7.55286	1.87346	3.31261
