44
  This energy is -0.2762 and Call times are: 123485
C	-2.84106	1.23325	-1.5875
C	-1.53898	1.42661	-0.910489
O	-0.979151	2.51427	-0.91384
H	-3.15258	2.18807	-2.06411
H	-3.61432	0.930402	-0.85056
H	-2.75228	0.452276	-2.3719
N	-1.01931	0.355407	-0.306467
C	0.260549	0.377122	0.356885
C	0.851343	-1.01863	0.290667
O	0.182131	-1.96721	-0.114388
H	-1.46716	-0.533204	-0.347349
H	0.930346	1.03674	-0.180617
C	0.113383	0.833729	1.82491
H	-0.565364	0.151262	2.3795
H	1.09388	0.867903	2.34258
H	-0.328026	1.85398	1.84942
N	2.13128	-1.17507	0.682208
C	2.77965	-2.46529	0.648825
H	2.65792	-0.394815	1.00304
H	3.82916	-2.38745	1.00895
H	2.79434	-2.87077	-0.388791
H	2.23964	-3.19342	1.2964
C	8.98857	1.3339	-2.63688
C	8.13972	0.276169	-2.04374
O	7.66335	-0.614411	-2.73392
H	9.07101	1.16713	-3.73289
H	10.0051	1.30358	-2.19128
H	8.53654	2.33233	-2.4583
N	7.92704	0.354135	-0.728038
C	7.08801	-0.577384	-0.0160964
C	6.50085	0.138125	1.18593
O	6.89252	1.2591	1.50484
H	8.28795	1.10805	-0.186548
H	6.262	-0.871834	-0.651421
C	7.89494	-1.81573	0.431795
H	8.73617	-1.51521	1.09214
H	7.25685	-2.54695	0.969084
H	8.32181	-2.31896	-0.463126
N	5.53456	-0.494897	1.87989
C	4.91333	0.110375	3.03483
H	5.22802	-1.39988	1.60401
H	4.14325	-0.566031	3.46691
H	4.42075	1.07056	2.75788
H	5.6721	0.325974	3.82154
