44
  This energy is 0.1106 and Call times are: 119973
C	-3.39604	0.160722	0.744145
C	-2.0787	0.798665	0.523255
O	-1.97383	2.01236	0.412052
H	-4.18466	0.944011	0.764465
H	-3.40159	-0.380069	1.71381
H	-3.61865	-0.552104	-0.0776918
N	-1.02711	-0.020706	0.451515
C	0.312329	0.448259	0.197454
C	1.07682	-0.659982	-0.50177
O	0.595007	-1.78594	-0.610388
H	-1.1337	-1.00957	0.503011
H	0.273003	1.29101	-0.481407
C	1.01675	0.845209	1.5133
H	1.06674	-0.0218556	2.20593
H	2.04414	1.22107	1.32966
H	0.435829	1.6517	2.01175
N	2.29176	-0.361746	-1.00276
C	3.0899	-1.35068	-1.68917
H	2.66304	0.556057	-0.908594
H	4.05479	-0.912108	-2.02661
H	2.55016	-1.73966	-2.58284
H	3.3116	-2.21173	-1.01791
C	1.80858	-2.59389	0.365926
C	2.17111	-1.22749	-0.0730401
O	1.4194	-0.568945	-0.778495
H	0.817671	-2.86528	-0.0586867
H	1.74877	-2.6367	1.47378
H	2.56495	-3.32401	0.00828882
N	3.35339	-0.765395	0.340558
C	3.86251	0.528656	-0.0399455
C	5.37807	0.460616	-0.0356056
O	5.96306	-0.522484	0.414956
H	3.97212	-1.32886	0.880502
H	3.55249	0.750593	-1.05348
C	3.36686	1.62352	0.930031
H	3.69363	1.4018	1.96835
H	3.74086	2.62667	0.639633
H	2.25535	1.64997	0.916538
N	6.05248	1.50835	-0.54887
C	7.49603	1.53019	-0.592134
H	5.56145	2.29303	-0.912515
H	7.86148	2.47565	-1.05014
H	7.88391	0.676484	-1.19381
H	7.92128	1.4504	0.434479
