44
  This energy is -2.5945 and Call times are: 114111
C	1.28215	2.34216	2.23228
C	0.601661	1.98355	0.967574
O	0.0544248	2.83445	0.279881
H	1.17889	3.43504	2.40783
H	2.36133	2.08832	2.17152
H	0.821596	1.7965	3.08271
N	0.619598	0.692129	0.629519
C	-0.0363865	0.184429	-0.549669
C	-0.436883	-1.2548	-0.285494
O	-0.0489825	-1.84148	0.722994
H	1.03371	0.00550399	1.22022
H	-0.946109	0.745946	-0.722106
C	0.89443	0.270519	-1.77906
H	1.82322	-0.314035	-1.6068
H	0.395905	-0.104638	-2.69626
H	1.18111	1.33135	-1.94877
N	-1.23532	-1.85745	-1.18845
C	-1.67236	-3.22356	-1.01833
H	-1.54221	-1.36505	-1.99618
H	-2.32173	-3.53707	-1.86524
H	-2.25088	-3.33602	-0.0728392
H	-0.798453	-3.91299	-0.972421
C	4.19084	1.70627	-1.01321
C	5.28535	0.739187	-1.25392
O	5.26971	-0.00595088	-2.22394
H	3.42575	1.60159	-1.81291
H	4.58654	2.74355	-1.02798
H	3.71331	1.50699	-0.0306998
N	6.27559	0.72868	-0.358541
C	7.38759	-0.185763	-0.43474
C	7.8904	-0.437448	0.974306
O	7.46938	0.224699	1.92089
H	6.25392	1.31269	0.447882
H	7.04392	-1.13404	-0.828786
C	8.51623	0.390474	-1.31755
H	8.87639	1.35819	-0.907845
H	9.37252	-0.31041	-1.39537
H	8.12368	0.574227	-2.34151
N	8.80325	-1.41353	1.14743
C	9.3351	-1.72817	2.45292
H	9.12878	-1.94124	0.36985
H	10.0715	-2.55927	2.38772
H	8.51888	-2.03668	3.14566
H	9.84522	-0.841255	2.89373
