44
  This energy is -1.9436 and Call times are: 113820
C	-0.874389	-0.652671	-3.30487
C	-1.12806	-0.736025	-1.8489
O	-2.20831	-1.1119	-1.41508
H	-1.79131	-0.956074	-3.8554
H	-0.0436108	-1.3326	-3.58813
H	-0.612779	0.388515	-3.58874
N	-0.120309	-0.378532	-1.04951
C	-0.230549	-0.365829	0.387931
C	0.717005	0.689892	0.925655
O	1.5277	1.2441	0.185827
H	0.739237	-0.0357298	-1.41766
H	-1.23437	-0.0703444	0.666623
C	0.110169	-1.75112	0.97963
H	1.14364	-2.05005	0.702816
H	0.0154836	-1.75803	2.08485
H	-0.590476	-2.50915	0.566301
N	0.629996	1.00002	2.2342
C	1.48698	1.99631	2.83351
H	-0.035123	0.543698	2.81597
H	1.2621	2.10804	3.9171
H	1.34272	2.9856	2.34181
H	2.55813	1.70989	2.72522
C	9.29968	1.48357	0.781805
C	8.33011	0.36913	0.877253
O	8.64772	-0.70605	1.36666
H	10.2792	1.1543	1.19159
H	8.9397	2.35525	1.36776
H	9.43604	1.78236	-0.278951
N	7.10553	0.605472	0.40089
C	6.06731	-0.394734	0.385076
C	5.13795	-0.0934672	-0.775568
O	5.24072	0.955419	-1.4088
H	6.87398	1.47212	-0.0317331
H	6.50958	-1.36579	0.200513
C	5.28589	-0.399895	1.71721
H	4.82318	0.593006	1.90187
H	4.49257	-1.17523	1.72273
H	5.987	-0.61445	2.55313
N	4.20809	-1.01742	-1.08813
C	3.2837	-0.82013	-2.18026
H	4.14308	-1.86179	-0.566708
H	2.59868	-1.69102	-2.27787
H	3.83253	-0.696435	-3.14191
H	2.66819	0.0934695	-2.01407
