44
  This energy is 0.1148 and Call times are: 118154
C	2.09529	1.79682	-2.11988
C	1.77645	1.19492	-0.80565
O	2.62266	1.1098	0.0736079
H	3.16398	2.10272	-2.1342
H	1.46274	2.69251	-2.29418
H	1.92192	1.05858	-2.93107
N	0.526716	0.754714	-0.64204
C	0.0788063	0.106887	0.565543
C	-1.04238	-0.848256	0.201959
O	-1.52969	-0.846846	-0.926865
H	-0.139524	0.793815	-1.38127
H	0.887743	-0.485852	0.974093
C	-0.408268	1.14478	1.60033
H	-1.24516	1.74607	1.18549
H	-0.742847	0.659218	2.53991
H	0.4259	1.83788	1.84554
N	-1.474	-1.69756	1.15507
C	-2.53279	-2.64606	0.899147
H	-1.0645	-1.68653	2.0613
H	-2.74348	-3.25445	1.80617
H	-2.25	-3.33663	0.0718532
H	-3.46936	-2.11961	0.60448
C	6.71839	-1.6051	-2.74309
C	5.92411	-0.510902	-2.1406
O	5.61106	0.476492	-2.79134
H	6.95722	-1.34779	-3.7979
H	6.13934	-2.55229	-2.72649
H	7.66734	-1.74235	-2.18298
N	5.57728	-0.664651	-0.860577
C	4.84141	0.333769	-0.125582
C	5.21856	0.216418	1.33919
O	5.89789	-0.726317	1.74103
H	5.87444	-1.45499	-0.332451
H	5.14466	1.31844	-0.458862
C	3.31974	0.14448	-0.309763
H	3.00645	-0.86166	0.0417721
H	2.74239	0.915681	0.240182
H	3.06778	0.226384	-1.38964
N	4.79018	1.18321	2.17455
C	5.10474	1.15834	3.58402
H	4.24498	1.94025	1.83
H	4.66336	2.03874	4.10105
H	6.20764	1.17649	3.74071
H	4.70357	0.234432	4.06004
