44
  This energy is 0.1216 and Call times are: 124137
C	0.945084	0.415456	-3.32369
C	0.7861	0.920033	-1.9412
O	1.28645	1.9806	-1.593
H	1.56906	1.12832	-3.90537
H	-0.0468598	0.323288	-3.81389
H	1.44596	-0.575567	-3.31413
N	0.0750003	0.156033	-1.10872
C	-0.130064	0.493273	0.277919
C	-0.311391	-0.796127	1.05646
O	-0.433804	-1.8718	0.473659
H	-0.291463	-0.724461	-1.39561
H	0.75764	0.980012	0.662234
C	-1.36438	1.40603	0.446993
H	-2.27713	0.902957	0.0625053
H	-1.52477	1.68405	1.50883
H	-1.21313	2.33979	-0.13745
N	-0.324347	-0.717729	2.40171
C	-0.48612	-1.89281	3.22584
H	-0.219722	0.161169	2.85522
H	-0.469992	-1.62189	4.30453
H	0.334298	-2.62213	3.03537
H	-1.45462	-2.3973	3.00527
C	6.35547	-0.734343	2.24568
C	5.72086	0.140496	1.2342
O	6.1221	1.27994	1.04161
H	7.17568	-0.178255	2.74953
H	6.77982	-1.6373	1.75851
H	5.60889	-1.04215	3.00788
N	4.69649	-0.382344	0.556198
C	3.95149	0.361065	-0.429134
C	2.53852	-0.189876	-0.468536
O	2.24578	-1.21687	0.140809
H	4.35522	-1.29705	0.752915
H	3.88534	1.39686	-0.120311
C	4.61424	0.25185	-1.81985
H	4.67279	-0.809749	-2.14176
H	4.05761	0.831452	-2.58454
H	5.64971	0.653331	-1.76548
N	1.62201	0.490133	-1.1852
C	0.251092	0.0446139	-1.27607
H	1.87697	1.32132	-1.6681
H	-0.34617	0.736744	-1.90968
H	-0.216254	0.00320574	-0.265546
H	0.197776	-0.974436	-1.7231
