44
  This energy is -3.7176 and Call times are: 95606
C	3.39259	0.455871	0.628651
C	2.08799	0.92757	0.112269
O	1.91722	2.09732	-0.202288
H	4.09901	1.31276	0.679535
H	3.81434	-0.31795	-0.046679
H	3.26988	0.0303581	1.64697
N	1.12201	0.0112126	0.0145263
C	-0.212431	0.32766	-0.4301
C	-1.17177	-0.653129	0.217421
O	-0.752031	-1.62471	0.84318
H	1.26408	-0.928242	0.313037
H	-0.479568	1.31768	-0.0820592
C	-0.314364	0.248841	-1.96914
H	-0.0506059	-0.76959	-2.32588
H	-1.33363	0.503931	-2.32486
H	0.401785	0.969004	-2.42173
N	-2.49176	-0.414653	0.0879613
C	-3.47921	-1.29027	0.674835
H	-2.81205	0.378981	-0.41863
H	-4.50721	-0.925024	0.45797
H	-3.35138	-1.34133	1.78042
H	-3.38056	-2.32264	0.267864
C	8.76801	-2.58431	1.76911
C	8.02645	-1.30451	1.71116
O	7.52509	-0.817418	2.71505
H	8.75217	-2.97111	2.81122
H	9.82288	-2.42975	1.45912
H	8.29241	-3.33275	1.10074
N	7.93765	-0.723844	0.512276
C	7.21178	0.501846	0.290111
C	6.71212	0.502641	-1.14234
O	7.0837	-0.356595	-1.93942
H	8.31584	-1.15314	-0.302914
H	6.34221	0.52396	0.935072
C	8.11071	1.73036	0.5507
H	8.99757	1.71366	-0.118069
H	7.55928	2.68043	0.396414
H	8.47123	1.70489	1.60223
N	5.84506	1.46969	-1.50157
C	5.31177	1.54707	-2.84164
H	5.55293	2.15372	-0.841399
H	4.61662	2.40992	-2.93905
H	4.75385	0.617027	-3.09667
H	6.1324	1.67208	-3.58465
