44
  This energy is -6.1358 and Call times are: 96006
C	-2.47995	2.43645	-0.161996
C	-1.25851	1.85831	0.442151
O	-0.592883	2.48955	1.2514
H	-2.62956	3.46712	0.226881
H	-3.36552	1.82082	0.101603
H	-2.37635	2.4807	-1.26671
N	-0.931282	0.623796	0.0532209
C	0.252129	-0.054223	0.520543
C	0.69873	-1.02358	-0.557628
O	-0.00998149	-1.24596	-1.53742
H	-1.4603	0.138503	-0.637066
H	1.04792	0.667778	0.654926
C	-0.0271623	-0.804469	1.84129
H	-0.836269	-1.55266	1.70131
H	0.880085	-1.31925	2.21868
H	-0.360095	-0.0768575	2.61335
N	1.89734	-1.62019	-0.404565
C	2.40764	-2.55312	-1.38201
H	2.4583	-1.42438	0.392963
H	3.40699	-2.9347	-1.07719
H	2.5083	-2.06314	-2.37753
H	1.71923	-3.42199	-1.49292
C	3.62439	2.78826	-0.173827
C	4.91728	2.10898	-0.415019
O	5.77908	2.61926	-1.11741
H	3.60628	3.75125	-0.728959
H	3.49722	2.9955	0.909514
H	2.78605	2.15273	-0.529302
N	5.08178	0.920753	0.171019
C	6.26821	0.12079	-0.00503274
C	5.88266	-1.33804	0.152231
O	4.76254	-1.65422	0.548531
H	4.35519	0.499827	0.706514
H	6.63925	0.249387	-1.0142
C	7.35258	0.508257	1.02416
H	6.97603	0.366488	2.05961
H	8.27625	-0.0912025	0.890012
H	7.61343	1.58151	0.895998
N	6.80625	-2.2666	-0.165233
C	6.52758	-3.67933	-0.0524989
H	7.70573	-1.99132	-0.488074
H	7.41172	-4.28031	-0.359653
H	5.66807	-3.96319	-0.702067
H	6.26952	-3.94647	0.997827
