44
  This energy is -4.0661 and Call times are: 97250
C	0.483858	0.334366	3.43027
C	0.0210698	0.851794	2.12289
O	-0.653612	1.86943	2.04779
H	0.105906	0.994342	4.24111
H	1.59351	0.321146	3.46555
H	0.0967614	-0.693503	3.59377
N	0.378294	0.148129	1.04604
C	-0.0322777	0.502443	-0.289798
C	-0.0958279	-0.767349	-1.11753
O	0.333628	-1.83054	-0.67379
H	0.893082	-0.700625	1.12652
H	-1.03209	0.917169	-0.258043
C	0.952666	1.51114	-0.920394
H	1.97648	1.08213	-0.962854
H	0.639889	1.80244	-1.94403
H	0.989115	2.42908	-0.293968
N	-0.645035	-0.686455	-2.34548
C	-0.753421	-1.8438	-3.20279
H	-0.990747	0.181847	-2.68549
H	-1.23291	-1.57366	-4.1694
H	-1.36699	-2.6366	-2.71671
H	0.253438	-2.26955	-3.41753
C	3.44969	-2.71747	-0.961446
C	4.25196	-1.97817	0.0390318
O	4.24981	-2.30405	1.2181
H	2.8908	-3.53341	-0.453754
H	4.11413	-3.16226	-1.73179
H	2.72329	-2.03428	-1.44997
N	4.96618	-0.94685	-0.417745
C	5.76185	-0.106291	0.44186
C	5.83617	1.27399	-0.183348
O	5.4135	1.47387	-1.32049
H	4.92567	-0.668575	-1.37314
H	5.26473	-0.000926498	1.3981
C	7.17824	-0.692698	0.629519
H	7.6926	-0.791156	-0.350165
H	7.79625	-0.0616935	1.30065
H	7.09917	-1.7058	1.08085
N	6.37176	2.2665	0.554262
C	6.47914	3.61366	0.0445558
H	6.7046	2.08617	1.47392
H	6.94584	4.28383	0.799737
H	5.47287	4.01891	-0.209389
H	7.10329	3.63629	-0.877976
