44
  This energy is -3.4532 and Call times are: 99364
C	-0.324509	2.33828	-2.55731
C	-0.900926	1.39073	-1.57698
O	-2.10283	1.36735	-1.3505
H	-1.13683	2.96815	-2.98072
H	0.166944	1.78253	-3.38336
H	0.419354	2.99682	-2.06125
N	-0.0401935	0.576243	-0.962064
C	-0.445486	-0.369806	0.0475338
C	0.723919	-0.586438	0.989402
O	1.83504	-0.128598	0.72957
H	0.940214	0.635178	-1.12697
H	-1.25442	0.0536503	0.629721
C	-0.880535	-1.70661	-0.59195
H	-0.0476189	-2.14669	-1.18069
H	-1.20808	-2.43879	0.174307
H	-1.73194	-1.52289	-1.28311
N	0.496608	-1.28773	2.11747
C	1.54757	-1.53944	3.07576
H	-0.410184	-1.64668	2.31229
H	1.16271	-2.13174	3.93499
H	1.95989	-0.581306	3.46723
H	2.38197	-2.10718	2.60397
C	3.31457	0.819723	-2.49352
C	4.48955	1.13163	-1.64894
O	5.20407	2.095	-1.88933
H	3.24586	1.56395	-3.31648
H	2.38496	0.866398	-1.88821
H	3.4182	-0.194403	-2.93384
N	4.71967	0.307083	-0.624463
C	5.84866	0.456312	0.259661
C	6.21628	-0.915522	0.793041
O	5.48982	-1.88617	0.588569
H	4.15293	-0.496371	-0.465948
H	6.69805	0.821462	-0.304095
C	5.51611	1.41779	1.42165
H	4.6514	1.03825	2.00668
H	6.38208	1.55182	2.10184
H	5.24235	2.41282	1.00775
N	7.36581	-1.0291	1.48708
C	7.80003	-2.29588	2.02827
H	7.94241	-0.233089	1.63869
H	8.76789	-2.18333	2.56476
H	7.93535	-3.04491	1.21468
H	7.04646	-2.6964	2.74441
