44
  This energy is -2.6967 and Call times are: 96182
C	2.46659	2.02858	-1.38329
C	1.91737	1.21714	-0.273756
O	2.60287	0.924945	0.696359
H	3.53064	2.2699	-1.1701
H	1.8963	2.97596	-1.48329
H	2.41072	1.46138	-2.33631
N	0.646404	0.827257	-0.396291
C	-0.0135316	-0.00244828	0.580762
C	-1.084	-0.809353	-0.129567
O	-1.37647	-0.57464	-1.3005
H	0.113753	1.03844	-1.21088
H	0.699832	-0.705195	0.992941
C	-0.637758	0.856294	1.70243
H	-1.3774	1.57019	1.28134
H	-1.13701	0.228078	2.46834
H	0.162405	1.44402	2.20309
N	-1.69097	-1.79151	0.5654
C	-2.71767	-2.61506	-0.0294456
H	-1.43783	-1.96905	1.51063
H	-3.09271	-3.36506	0.70135
H	-2.31994	-3.15882	-0.916809
H	-3.57758	-1.99074	-0.363991
C	7.01311	3.35765	0.421644
C	6.51864	2.22969	-0.399551
O	5.9888	2.42171	-1.48528
H	6.80072	4.31457	-0.102814
H	8.10902	3.26759	0.575291
H	6.5014	3.3667	1.40711
N	6.68205	1.00719	0.111498
C	6.21392	-0.184919	-0.550532
C	5.90411	-1.22435	0.51021
O	6.2167	-1.03818	1.68466
H	7.07817	0.869707	1.01485
H	5.28811	0.033908	-1.06784
C	7.27343	-0.719211	-1.53907
H	8.22003	-0.953804	-1.00713
H	6.91928	-1.6292	-2.0654
H	7.49038	0.0606173	-2.30139
N	5.2701	-2.34727	0.118947
C	4.92927	-3.38952	1.05902
H	5.02165	-2.47802	-0.835127
H	4.41249	-4.22949	0.54462
H	4.25414	-2.99655	1.85341
H	5.84508	-3.78979	1.55118
