44
  This energy is -1.1463 and Call times are: 98196
C	1.09257	1.18645	3.08404
C	0.518538	0.126954	2.22434
O	0.398128	-1.02097	2.62955
H	1.37671	0.749042	4.06578
H	0.345122	1.9902	3.25153
H	1.99801	1.61752	2.60712
N	0.147667	0.495534	0.995932
C	-0.387215	-0.431986	0.0304432
C	-0.0404249	0.0763036	-1.35626
O	0.448341	1.19348	-1.51353
H	0.289785	1.42457	0.666442
H	0.0967787	-1.39301	0.152117
C	-1.91708	-0.57217	0.188854
H	-2.41501	0.411615	0.0536697
H	-2.33901	-1.29422	-0.539942
H	-2.14801	-0.937679	1.21327
N	-0.279426	-0.741916	-2.40001
C	0.0234142	-0.346021	-3.75564
H	-0.671573	-1.64386	-2.25238
H	-0.244348	-1.15488	-4.47067
H	1.10976	-0.125276	-3.86698
H	-0.545406	0.57061	-4.0338
C	3.81787	-3.35111	-0.910462
C	3.63953	-2.24952	0.0620927
O	3.00369	-2.41313	1.09425
H	3.28631	-4.25551	-0.54255
H	4.89616	-3.58969	-1.02497
H	3.39651	-3.0629	-1.8966
N	4.20537	-1.08213	-0.253178
C	4.0826	0.0933874	0.572442
C	4.18043	1.31335	-0.32405
O	4.49981	1.20223	-1.50615
H	4.68511	-0.952878	-1.11631
H	3.10139	0.107424	1.03033
C	5.18519	0.125961	1.6534
H	6.19196	0.122219	1.1839
H	5.09308	1.01939	2.30442
H	5.09938	-0.779824	2.29256
N	3.89737	2.51334	0.219916
C	3.95841	3.72905	-0.557585
H	3.63683	2.58264	1.1772
H	3.69122	4.60946	0.0674887
H	3.25088	3.68166	-1.4169
H	4.98421	3.88511	-0.963208
