44
  This energy is -0.0179 and Call times are: 99247
C	1.05426	1.52361	2.94615
C	0.532907	0.359294	2.19536
O	0.482239	-0.751523	2.70519
H	1.37278	1.19469	3.95919
H	0.263933	2.29633	3.05117
H	1.92879	1.95899	2.41819
N	0.129231	0.592305	0.944306
C	-0.361629	-0.448318	0.0755598
C	-0.0584124	-0.0508517	-1.35679
O	0.364251	1.07273	-1.62258
H	0.214815	1.49367	0.529467
H	0.177573	-1.36559	0.276818
C	-1.87934	-0.658597	0.269432
H	-2.43388	0.279282	0.0528618
H	-2.26676	-1.46691	-0.384067
H	-2.07868	-0.940883	1.32628
N	-0.260911	-0.973464	-2.31794
C	0.00515156	-0.687345	-3.70846
H	-0.599486	-1.87854	-2.08284
H	-0.223272	-1.57209	-4.3427
H	1.07597	-0.417423	-3.85602
H	-0.617785	0.166688	-4.06019
C	4.74956	3.15226	1.12813
C	4.96434	2.1655	0.045847
O	4.55253	2.36968	-1.08779
H	4.17601	4.01667	0.72852
H	5.72523	3.51572	1.51378
H	4.17308	2.69106	1.9576
N	5.62382	1.0535	0.3789
C	5.87153	-0.0167569	-0.55477
C	5.96127	-1.31435	0.22611
O	5.99226	-1.30885	1.45522
H	5.91696	0.883314	1.31536
H	5.02927	-0.104066	-1.22974
C	7.17525	0.231031	-1.34481
H	8.04121	0.310171	-0.653513
H	7.36983	-0.579332	-2.07691
H	7.09015	1.18944	-1.90208
N	5.99677	-2.46476	-0.47483
C	6.07648	-3.74833	0.182625
H	5.96658	-2.44912	-1.46877
H	6.09474	-4.57232	-0.564332
H	5.19941	-3.90177	0.852315
H	6.99991	-3.81593	0.802189
