44
  This energy is 0.1167 and Call times are: 100079
C	-2.01363	1.49999	-2.40998
C	-1.14004	0.40031	-1.94235
O	-1.05434	-0.648729	-2.56572
H	-2.5325	1.18601	-3.34168
H	-1.40778	2.40553	-2.62374
H	-2.77497	1.73871	-1.63766
N	-0.462706	0.619805	-0.813009
C	0.393756	-0.371412	-0.210912
C	0.420106	-0.127216	1.28616
O	-0.0860035	0.884281	1.76828
H	-0.574301	1.46309	-0.295052
H	-0.03111	-1.35469	-0.369925
C	1.82074	-0.296808	-0.796912
H	2.26106	0.708434	-0.62474
H	2.48625	-1.06428	-0.351264
H	1.77638	-0.470515	-1.89428
N	1.008	-1.05954	2.06152
C	1.07593	-0.915417	3.49707
H	1.40836	-1.87331	1.65341
H	1.59675	-1.78485	3.95539
H	0.0531939	-0.849365	3.93402
H	1.62986	0.0108574	3.77334
C	0.20096	-0.747091	0.033718
C	1.6125	-1.10984	-0.22538
O	1.93598	-2.26578	-0.461128
H	-0.427554	-1.66303	-0.00972919
H	-0.156731	-0.0290386	-0.733879
H	0.101872	-0.290729	1.04118
N	2.49877	-0.112232	-0.184203
C	3.91342	-0.316177	-0.373192
C	4.65366	0.760798	0.397359
O	4.04709	1.70353	0.90237
H	2.22591	0.816661	0.0493833
H	4.19686	-1.2704	0.0531243
C	4.28342	-0.261144	-1.87163
H	4.00243	0.721494	-2.30696
H	5.368	-0.430588	-2.03133
H	3.72428	-1.05251	-2.41702
N	5.99083	0.639862	0.512879
C	6.77847	1.61337	1.23266
H	6.46337	-0.132152	0.100837
H	7.85601	1.33798	1.21516
H	6.45	1.67611	2.29542
H	6.66714	2.62374	0.776689
