44
  This energy is 0.2046 and Call times are: 98872
C	-1.29575	2.16613	-2.39616
C	-0.820795	0.831582	-1.96658
O	-0.998494	-0.15804	-2.66335
H	-1.81092	2.07444	-3.37702
H	-0.436868	2.86127	-2.50493
H	-2.01062	2.57581	-1.6517
N	-0.197374	0.774793	-0.787387
C	0.282717	-0.458978	-0.216527
C	0.264759	-0.319726	1.29405
O	0.0415719	0.767184	1.8237
H	-0.0965181	1.58205	-0.212901
H	-0.3979	-1.2607	-0.474669
C	1.70949	-0.778594	-0.713912
H	2.41026	0.038712	-0.440105
H	2.08505	-1.7334	-0.292222
H	1.70034	-0.868181	-1.82217
N	0.492854	-1.42743	2.02684
C	0.489936	-1.3924	3.47078
H	0.667467	-2.29869	1.5802
H	0.696764	-2.40209	3.88907
H	-0.498962	-1.05039	3.85338
H	1.26791	-0.690086	3.84848
C	7.57991	3.31166	0.675927
C	7.0421	1.99387	1.08253
O	6.81952	1.7362	2.25746
H	7.73745	3.93892	1.58014
H	6.86304	3.82618	0.00205262
H	8.55142	3.18383	0.153528
N	6.82022	1.1153	0.102085
C	6.33925	-0.221805	0.34578
C	6.85396	-1.11918	-0.763887
O	7.41516	-0.643694	-1.74911
H	7.04489	1.32522	-0.845182
H	6.75621	-0.587445	1.27587
C	4.79592	-0.252529	0.39505
H	4.36773	0.112565	-0.562763
H	4.41365	-1.27432	0.595895
H	4.44131	0.417115	1.20879
N	6.68078	-2.44829	-0.624228
C	7.14263	-3.38018	-1.62644
H	6.22799	-2.81441	0.182005
H	6.90744	-4.42592	-1.32922
H	8.24488	-3.29448	-1.76424
H	6.65522	-3.17616	-2.60723
