44
  This energy is -1.8896 and Call times are: 97789
C	-1.68678	-3.01192	-0.442467
C	-1.33199	-1.64128	-0.874452
O	-1.61641	-1.23668	-1.9933
H	-2.19622	-3.53994	-1.27766
H	-2.37285	-2.97279	0.429614
H	-0.770552	-3.57547	-0.166732
N	-0.689437	-0.885191	0.0187603
C	-0.241023	0.454162	-0.270404
C	0.98071	0.738476	0.582877
O	1.32505	-0.0409221	1.46926
H	-0.428675	-1.24245	0.91108
H	0.0687345	0.511301	-1.30646
C	-1.35528	1.48361	0.0192722
H	-1.66605	1.43266	1.08457
H	-1.0269	2.5175	-0.212597
H	-2.24204	1.25149	-0.610119
N	1.67323	1.86593	0.327364
C	2.85236	2.21668	1.0842
H	1.3814	2.48211	-0.396674
H	3.2794	3.17839	0.723688
H	3.6324	1.42749	0.984239
H	2.60748	2.32504	2.1656
C	8.08309	-2.80487	1.90584
C	8.25888	-1.95218	0.708693
O	9.1903	-2.13026	-0.0640649
H	8.90772	-3.54905	1.95101
H	7.11435	-3.34471	1.85228
H	8.10925	-2.18324	2.82561
N	7.35244	-0.9888	0.527979
C	7.41523	-0.0529462	-0.566914
C	6.75613	1.23935	-0.122932
O	6.14107	1.29982	0.939965
H	6.62338	-0.830167	1.18765
H	8.45167	0.172083	-0.785509
C	6.7085	-0.619255	-1.81794
H	5.64249	-0.840411	-1.59716
H	6.76205	0.0863597	-2.6722
H	7.20222	-1.56859	-2.12018
N	6.87768	2.31235	-0.929107
C	6.28863	3.58584	-0.586465
H	7.38269	2.24496	-1.78321
H	6.49927	4.34148	-1.37506
H	6.69996	3.96204	0.378196
H	5.18397	3.4913	-0.477286
