44
  This energy is -4.6159 and Call times are: 95866
C	2.22307	2.02266	-1.75485
C	0.936424	1.30117	-1.63179
O	0.0286576	1.48504	-2.43089
H	2.17755	2.70834	-2.62872
H	3.0533	1.30132	-1.90692
H	2.4159	2.62014	-0.838925
N	0.828272	0.451112	-0.608033
C	-0.37699	-0.29067	-0.332962
C	-0.436966	-0.559255	1.15896
O	0.524131	-0.307607	1.88331
H	1.56101	0.342707	0.0577119
H	-1.23641	0.317597	-0.586015
C	-0.400823	-1.6173	-1.12336
H	0.475037	-2.24625	-0.856296
H	-1.33036	-2.19121	-0.930723
H	-0.348033	-1.39693	-2.21194
N	-1.57935	-1.07258	1.65645
C	-1.73045	-1.35592	3.06466
H	-2.3476	-1.26568	1.05514
H	-2.73995	-1.7725	3.27587
H	-1.60081	-0.428361	3.66806
H	-0.968294	-2.09573	3.40073
C	4.87975	-1.94709	-2.86086
C	4.35717	-1.36413	-1.60459
O	3.166	-1.41468	-1.33078
H	4.03697	-2.37661	-3.44488
H	5.60808	-2.75394	-2.6344
H	5.37562	-1.16199	-3.46979
N	5.25289	-0.785796	-0.801094
C	4.88994	-0.13776	0.434572
C	5.90337	0.957104	0.709902
O	6.92206	1.05808	0.0288966
H	6.21289	-0.716427	-1.05692
H	3.92435	0.338352	0.318047
C	4.85717	-1.15077	1.5999
H	5.85044	-1.6318	1.72663
H	4.56544	-0.666544	2.55433
H	4.11481	-1.94694	1.37329
N	5.64092	1.81318	1.71701
C	6.54478	2.88979	2.04884
H	4.80938	1.71787	2.25417
H	6.15302	3.4825	2.90468
H	6.67635	3.57419	1.17961
H	7.54644	2.49007	2.32821
