44
  This energy is -3.4776 and Call times are: 100995
C	0.128525	2.52893	2.38761
C	-0.595209	1.47036	1.64816
O	-1.70318	1.09379	2.00454
H	-0.484599	2.85541	3.25558
H	0.30923	3.40239	1.72643
H	1.09981	2.14006	2.75972
N	0.0278783	0.957404	0.58467
C	-0.531068	-0.108593	-0.208922
C	0.614236	-0.89843	-0.813894
O	1.77224	-0.49405	-0.728881
H	0.946913	1.24547	0.331175
H	-1.08256	-0.782081	0.435204
C	-1.44781	0.451848	-1.3183
H	-0.879947	1.13463	-1.98567
H	-1.8953	-0.359931	-1.92764
H	-2.27401	1.03264	-0.853079
N	0.315636	-2.05601	-1.43588
C	1.3405	-2.87757	-2.0366
H	-0.626836	-2.36873	-1.49087
H	0.895613	-3.78682	-2.49765
H	2.08365	-3.20026	-1.27182
H	1.8833	-2.31243	-2.82851
C	3.68864	3.30589	0.509576
C	4.09827	2.18876	-0.370985
O	4.01048	2.27704	-1.58791
H	3.30685	4.14367	-0.113485
H	4.55677	3.66478	1.10143
H	2.88337	2.97452	1.19863
N	4.56074	1.09338	0.236191
C	4.95719	-0.090569	-0.484672
C	4.7409	-1.28945	0.41947
O	4.45365	-1.14005	1.60559
H	4.58783	1.02122	1.22912
H	4.31374	-0.216274	-1.34653
C	6.43594	-0.00139614	-0.921242
H	7.09735	0.116991	-0.0366199
H	6.74938	-0.901158	-1.48931
H	6.57252	0.887322	-1.57535
N	4.86665	-2.51508	-0.126452
C	4.67369	-3.71418	0.655272
H	5.09557	-2.61573	-1.08902
H	4.82013	-4.62068	0.0275404
H	3.6442	-3.74466	1.08012
H	5.39755	-3.7526	1.50126
