44
  This energy is -3.1683 and Call times are: 99444
C	0.515699	3.07234	-1.55159
C	-0.00888809	1.68819	-1.54357
O	-0.762486	1.29178	-2.42184
H	0.101313	3.6171	-2.42761
H	1.62341	3.06137	-1.62635
H	0.213287	3.60158	-0.623396
N	0.383638	0.910643	-0.53178
C	-0.0766058	-0.445421	-0.364973
C	-0.0547758	-0.773505	1.11605
O	0.464368	-0.0054184	1.92367
H	0.964711	1.26007	0.197689
H	-1.10515	-0.51685	-0.696057
C	0.815107	-1.43131	-1.15118
H	1.86851	-1.36596	-0.804606
H	0.462708	-2.47745	-1.04195
H	0.790352	-1.16746	-2.23105
N	-0.629894	-1.92696	1.50951
C	-0.662086	-2.32006	2.89898
H	-1.04848	-2.53352	0.84172
H	-1.17801	-3.29813	3.01911
H	-1.20306	-1.56116	3.50945
H	0.371171	-2.41635	3.30426
C	5.44437	-3.44838	-0.44788
C	5.97086	-2.18397	0.113584
O	6.8517	-2.18662	0.962425
H	5.95849	-4.30721	0.0358037
H	5.6302	-3.48802	-1.54179
H	4.35364	-3.52771	-0.255312
N	5.43119	-1.05637	-0.355101
C	5.80954	0.249096	0.125686
C	4.61882	1.17547	-0.0343498
O	3.61963	0.815508	-0.653829
H	4.68642	-1.0717	-1.01611
H	6.03191	0.189461	1.18381
C	7.02703	0.792586	-0.653785
H	6.79586	0.863902	-1.738
H	7.33668	1.79138	-0.283578
H	7.88385	0.0949988	-0.529025
N	4.69545	2.39581	0.53212
C	3.60916	3.34295	0.43686
H	5.51063	2.66745	1.03289
H	3.86328	4.28741	0.966625
H	2.68218	2.9245	0.891702
H	3.39173	3.58583	-0.628445
