44
  This energy is -0.732 and Call times are: 99111
C	-2.03057	-1.91159	2.08214
C	-1.64991	-0.625567	1.45573
O	-2.38217	0.352086	1.52207
H	-3.03013	-1.80701	2.55735
H	-1.29018	-2.1921	2.86052
H	-2.07992	-2.71173	1.31375
N	-0.475798	-0.599307	0.820784
C	0.0105973	0.566879	0.12653
C	0.910819	0.103541	-1.00328
O	1.24706	-1.07534	-1.09757
H	0.090402	-1.41467	0.740315
H	-0.824943	1.09064	-0.32088
C	0.78242	1.49851	1.08653
H	1.64592	0.964819	1.53774
H	1.15018	2.40692	0.56686
H	0.106694	1.81874	1.90945
N	1.31732	1.02623	-1.89739
C	2.17096	0.677023	-3.00894
H	1.03142	1.97444	-1.80673
H	2.39375	1.5724	-3.63014
H	1.6805	-0.0855279	-3.65642
H	3.13516	0.25308	-2.646
C	4.99442	-3.35809	-0.322489
C	4.73361	-1.98884	0.175793
O	3.65232	-1.68741	0.661981
H	4.08125	-3.9778	-0.188599
H	5.82871	-3.81986	0.246261
H	5.25429	-3.32954	-1.40171
N	5.73618	-1.11468	0.0614112
C	5.6186	0.265225	0.462151
C	6.56018	1.08887	-0.3961
O	7.37293	0.543995	-1.14058
H	6.59654	-1.36395	-0.37392
H	4.61248	0.611246	0.260602
C	5.96053	0.436206	1.95851
H	6.9963	0.0911571	2.16385
H	5.86025	1.49234	2.28262
H	5.26431	-0.181384	2.56695
N	6.46557	2.43083	-0.317309
C	7.31645	3.29588	-1.10081
H	5.7989	2.85326	0.287825
H	7.08572	4.36462	-0.896365
H	7.17168	3.10813	-2.18941
H	8.38901	3.11608	-0.859117
