44
  This energy is -2.2297 and Call times are: 99140
C	-0.212631	-2.32133	2.58436
C	-0.147994	-1.97363	1.14698
O	0.0308233	-2.83325	0.295214
H	-0.0594492	-3.41583	2.70473
H	-1.2059	-2.04966	2.99952
H	0.581416	-1.78362	3.14423
N	-0.292482	-0.681983	0.84178
C	-0.210272	-0.184835	-0.509015
C	0.286962	1.24749	-0.456414
O	0.38767	1.8402	0.616092
H	-0.396433	0.0112135	1.54927
H	0.524067	-0.761267	-1.05774
C	-1.58596	-0.255135	-1.20744
H	-2.33717	0.344646	-0.650687
H	-1.53284	0.11201	-2.25286
H	-1.93386	-1.31103	-1.22743
N	0.619437	1.83714	-1.62166
C	1.10733	3.19577	-1.66912
H	0.535025	1.33998	-2.47885
H	1.32589	3.49876	-2.71681
H	2.0425	3.29836	-1.07229
H	0.35182	3.89955	-1.25074
C	5.0882	-1.64838	3.0652
C	5.14616	-1.6477	1.58608
O	5.43838	-2.65939	0.963584
H	5.35914	-2.65822	3.44291
H	4.06183	-1.39988	3.40808
H	5.80488	-0.906627	3.47659
N	4.86614	-0.49066	0.981733
C	4.92304	-0.323216	-0.449099
C	5.25695	1.12726	-0.742657
O	5.26712	1.96563	0.156643
H	4.67003	0.334634	1.50354
H	5.72896	-0.926782	-0.847623
C	3.57971	-0.712855	-1.104
H	2.75424	-0.0867636	-0.703181
H	3.61526	-0.601443	-2.20711
H	3.35167	-1.77555	-0.869447
N	5.54807	1.4564	-2.0166
C	5.88313	2.81093	-2.38966
H	5.53864	0.763286	-2.72975
H	6.09023	2.87863	-3.48043
H	6.78748	3.15771	-1.83905
H	5.04497	3.50393	-2.14804
