44
  This energy is -2.8841 and Call times are: 95928
C	2.22307	-0.547093	-2.62132
C	0.936424	-0.791121	-1.9313
O	0.0286576	-1.3994	-2.48118
H	2.17755	-0.976184	-3.64587
H	3.0533	-1.03133	-2.06547
H	2.4159	0.54387	-2.69688
N	0.828272	-0.311217	-0.690181
C	-0.37699	-0.432385	0.0916267
C	-0.436966	0.739652	1.05303
O	0.524131	1.49482	1.18616
H	1.56101	0.217362	-0.271169
H	-1.23641	-0.357036	-0.562856
C	-0.400823	-1.76895	0.865097
H	0.475037	-1.84215	1.54447
H	-1.33036	-1.88033	1.46014
H	-0.348033	-2.61224	0.142307
N	-1.57935	0.924024	1.74368
C	-1.73045	2.01577	2.67719
H	-2.3476	0.304829	1.61937
H	-2.73995	1.99727	3.14388
H	-1.60081	2.99462	2.16112
H	-0.968294	1.94883	3.48699
C	5.76871	3.11065	-1.54374
C	6.54627	2.03829	-0.882973
O	7.7695	2.04823	-0.888242
H	6.46852	3.83688	-2.01141
H	5.14238	3.64415	-0.798198
H	5.11719	2.68003	-2.33314
N	5.84038	1.07189	-0.291228
C	6.45561	-0.0603807	0.355309
C	5.49429	-1.23122	0.274317
O	4.34268	-1.07398	-0.126641
H	4.84537	1.05593	-0.330661
H	7.35006	-0.339256	-0.187654
C	6.79396	0.261587	1.82742
H	5.87514	0.537534	2.38747
H	7.28083	-0.597818	2.33229
H	7.49217	1.12622	1.86286
N	5.95137	-2.44255	0.648172
C	5.11031	-3.61577	0.599786
H	6.88754	-2.55063	0.965958
H	5.66766	-4.51378	0.946436
H	4.75637	-3.80271	-0.439955
H	4.2157	-3.48518	1.25076
