44
  This energy is -6.8536 and Call times are: 100560
C	-0.634445	0.986349	-3.27678
C	-0.802906	0.051713	-2.14134
O	-1.64646	-0.833723	-2.17013
H	-1.37782	0.742526	-4.0666
H	0.386546	0.891209	-3.70254
H	-0.798172	2.03161	-2.93956
N	0.0094321	0.233437	-1.09757
C	-0.0637891	-0.569047	0.09793
C	0.419489	0.273376	1.2634
O	0.938708	1.37167	1.07402
H	0.663366	0.984155	-1.07187
H	-1.09746	-0.826383	0.292681
C	0.795113	-1.8451	-0.0407092
H	1.85753	-1.58153	-0.230028
H	0.736035	-2.47831	0.868175
H	0.428744	-2.44206	-0.904285
N	0.250825	-0.221931	2.50527
C	0.674653	0.51107	3.67543
H	-0.175117	-1.11068	2.63861
H	0.449408	-0.0622804	4.60158
H	0.151152	1.49274	3.73493
H	1.77101	0.705984	3.64139
C	3.36651	3.20262	-1.07762
C	3.68563	1.78118	-1.33997
O	3.51963	1.28915	-2.44756
H	2.9675	3.66679	-2.00562
H	4.28166	3.7493	-0.767149
H	2.59995	3.28146	-0.278095
N	4.15693	1.07839	-0.307323
C	4.47167	-0.325691	-0.396981
C	4.28285	-0.941389	0.976639
O	4.07931	-0.233853	1.96136
H	4.24795	1.48223	0.598483
H	3.76913	-0.807268	-1.06567
C	5.92003	-0.53601	-0.890185
H	6.64181	-0.0511248	-0.198827
H	6.17	-1.6133	-0.976665
H	6.0374	-0.0706619	-1.89319
N	4.33806	-2.28441	1.07283
C	4.16437	-2.95941	2.33789
H	4.49963	-2.84024	0.26411
H	4.24361	-4.06147	2.20975
H	3.16494	-2.7281	2.77254
H	4.94151	-2.6342	3.06688
