44
  This energy is -5.0734 and Call times are: 100010
C	1.11247	-2.00096	2.62131
C	0.608177	-1.82279	1.24106
O	0.62371	-2.74499	0.437495
H	1.48566	-3.04086	2.74462
H	0.296474	-1.82287	3.35286
H	1.94605	-1.29428	2.81837
N	0.144024	-0.61009	0.930746
C	-0.339719	-0.272175	-0.384688
C	-0.112328	1.21142	-0.605583
O	0.253078	1.93684	0.317429
H	0.175767	0.141675	1.58321
H	0.244093	-0.802031	-1.12701
C	-1.83834	-0.617355	-0.526901
H	-2.43894	-0.065945	0.227598
H	-2.21934	-0.374612	-1.54003
H	-1.98223	-1.70618	-0.353423
N	-0.316797	1.6975	-1.84572
C	-0.120253	3.09535	-2.15162
H	-0.608385	1.09412	-2.58056
H	-0.338628	3.29788	-3.22331
H	0.93172	3.39852	-1.94494
H	-0.791314	3.73176	-1.53049
C	3.90774	-2.29781	-2.50637
C	4.68586	-1.15714	-1.97293
O	5.69328	-0.757596	-2.54027
H	4.40081	-2.68058	-3.42627
H	2.87685	-1.97263	-2.75991
H	3.86328	-3.11504	-1.75588
N	4.22831	-0.600501	-0.849008
C	4.90141	0.489153	-0.187077
C	4.59097	0.406042	1.29559
O	3.74725	-0.381618	1.71918
H	3.43002	-0.962984	-0.376574
H	5.97169	0.369113	-0.299767
C	4.44561	1.84888	-0.760338
H	3.34925	1.97706	-0.635473
H	4.96704	2.69537	-0.268306
H	4.67533	1.88431	-1.84768
N	5.27718	1.21721	2.12452
C	5.05331	1.20424	3.55137
H	5.95887	1.8449	1.76344
H	5.71341	1.94119	4.05973
H	5.26489	0.194917	3.973
H	3.99489	1.46125	3.78552
