44
  This energy is 0.1104 and Call times are: 97411
C	-1.93308	2.30937	1.74433
C	-0.878948	1.2718	1.68601
O	-0.135646	1.07049	2.63648
H	-1.88991	2.82182	2.72993
H	-2.93436	1.84484	1.62436
H	-1.77566	3.06037	0.94164
N	-0.789043	0.580501	0.54742
C	0.213723	-0.431266	0.325279
C	0.502955	-0.49187	-1.16275
O	-0.193432	0.126629	-1.96538
H	-1.3745	0.783807	-0.232177
H	1.13141	-0.139534	0.820636
C	-0.266159	-1.80603	0.840044
H	-1.20188	-2.11061	0.324587
H	0.502786	-2.59083	0.687274
H	-0.479428	-1.7361	1.92907
N	1.5503	-1.23769	-1.56628
C	1.90487	-1.35045	-2.9619
H	2.10453	-1.72762	-0.901549
H	2.79373	-2.00676	-3.09005
H	2.14395	-0.349403	-3.38854
H	1.06191	-1.7831	-3.54789
C	7.09674	3.24184	0.220997
C	6.31859	2.18912	-0.469958
O	5.5944	2.45708	-1.41872
H	6.88382	4.22553	-0.251101
H	8.18367	3.03107	0.137881
H	6.8103	3.28814	1.29285
N	6.45204	0.946987	0.000871685
C	5.72627	-0.17525	-0.539862
C	5.53708	-1.19432	0.567963
O	6.11059	-1.06451	1.64775
H	7.01361	0.751019	0.799681
H	4.74132	0.151765	-0.848981
C	6.48647	-0.802765	-1.72879
H	7.49299	-1.14796	-1.40973
H	5.93111	-1.65938	-2.16273
H	6.6205	-0.0371536	-2.52391
N	4.71536	-2.23481	0.326776
C	4.4701	-3.25111	1.32334
H	4.25704	-2.32049	-0.551676
H	3.76702	-4.02078	0.935372
H	4.02639	-2.80207	2.24136
H	5.42013	-3.75694	1.61097
