44
  This energy is -3.1578 and Call times are: 101690
C	-2.37876	-1.7696	-1.82282
C	-1.55249	-0.565254	-1.58206
O	-1.4699	0.323332	-2.41873
H	-2.84101	-1.70223	-2.83162
H	-3.18459	-1.83918	-1.0622
H	-1.74764	-2.68211	-1.77694
N	-0.910081	-0.5103	-0.41302
C	-0.0348326	0.577421	-0.0533479
C	1.01578	0.0431108	0.901789
O	0.924989	-1.0912	1.36743
H	-0.954576	-1.2603	0.24073
H	0.481925	0.927671	-0.938174
C	-0.827251	1.72937	0.602638
H	-1.34906	1.37309	1.51632
H	-0.166432	2.57879	0.871583
H	-1.59541	2.09941	-0.11105
N	2.04891	0.851349	1.21067
C	3.09915	0.426754	2.10672
H	2.10715	1.76435	0.820669
H	3.85673	1.2312	2.23386
H	3.6126	-0.478525	1.70908
H	2.68288	0.175269	3.10902
C	4.21892	2.71546	-1.2517
C	4.44936	1.25974	-1.11412
O	3.61721	0.448298	-1.49556
H	3.22126	2.8876	-1.71095
H	4.99697	3.16621	-1.90302
H	4.2443	3.20287	-0.254274
N	5.60402	0.892028	-0.553827
C	5.95144	-0.486465	-0.313794
C	6.87902	-0.538527	0.885563
O	7.33873	0.493125	1.37142
H	6.25341	1.56484	-0.211084
H	5.05766	-1.04019	-0.0546078
C	6.633	-1.10743	-1.55279
H	7.55569	-0.546104	-1.81278
H	6.89288	-2.17278	-1.38539
H	5.93933	-1.0513	-2.41997
N	7.17017	-1.7501	1.39871
C	8.03943	-1.89741	2.54276
H	6.78527	-2.57316	0.994345
H	8.15507	-2.97011	2.81328
H	7.62412	-1.35659	3.42385
H	9.04908	-1.47954	2.32565
