44
  This energy is 0.2145 and Call times are: 101381
C	2.37656	-2.32213	-1.03553
C	1.98505	-0.959738	-0.609224
O	2.82704	-0.117103	-0.330955
H	3.48515	-2.40496	-1.02805
H	2.00818	-2.52209	-2.06366
H	1.9551	-3.07707	-0.338729
N	0.674842	-0.711344	-0.545727
C	0.140237	0.553561	-0.106667
C	-1.2224	0.302308	0.511101
O	-1.75903	-0.800604	0.425476
H	0.00126235	-1.41987	-0.735861
H	0.776364	0.960104	0.669668
C	0.0256368	1.54348	-1.28657
H	-0.635309	1.13143	-2.07865
H	-0.371837	2.52587	-0.958765
H	1.03301	1.70628	-1.7282
N	-1.8131	1.32524	1.15973
C	-3.10742	1.17802	1.78364
H	-1.36139	2.20907	1.22194
H	-3.42226	2.12982	2.26548
H	-3.07934	0.382908	2.56356
H	-3.87727	0.895049	1.02971
C	6.22584	2.50631	-2.05022
C	5.3768	2.04673	-0.928136
O	4.86753	2.84349	-0.152096
H	6.30443	3.61484	-2.02124
H	5.77656	2.20309	-3.01921
H	7.24385	2.07147	-1.96284
N	5.20533	0.727543	-0.815307
C	4.44149	0.127678	0.250184
C	5.00037	-1.25851	0.510409
O	5.83547	-1.7528	-0.244563
H	5.6597	0.089452	-1.43032
H	4.57706	0.705405	1.15598
C	2.9447	0.0469944	-0.121776
H	2.8041	-0.554433	-1.04512
H	2.34379	-0.40046	0.696274
H	2.55896	1.07168	-0.315582
N	4.55521	-1.91814	1.59795
C	5.03428	-3.23992	1.92897
H	3.88234	-1.50004	2.19921
H	4.54968	-3.61257	2.85824
H	6.13686	-3.22952	2.08863
H	4.81144	-3.95642	1.1055
