44
  This energy is -1.7448 and Call times are: 100290
C	-0.541305	1.73385	2.96874
C	0.354599	1.15571	1.94198
O	1.54984	1.41561	1.92599
H	0.0471662	2.39958	3.63686
H	-0.997177	0.925295	3.57798
H	-1.34412	2.32912	2.48477
N	-0.214483	0.346378	1.04559
C	0.519567	-0.256953	-0.038717
C	-0.44009	-0.482232	-1.19191
O	-1.64966	-0.316607	-1.04621
H	-1.19587	0.176853	1.04696
H	1.28048	0.432679	-0.382297
C	1.15823	-1.59198	0.402942
H	0.377049	-2.30358	0.745592
H	1.7378	-2.05957	-0.419242
H	1.85039	-1.4043	1.25268
N	0.0822343	-0.859831	-2.37539
C	-0.753021	-1.09212	-3.53063
H	1.06385	-0.98475	-2.47487
H	-0.137608	-1.3944	-4.40648
H	-1.31645	-0.169448	-3.79988
H	-1.49188	-1.90026	-3.32534
C	5.20404	2.90586	1.90449
C	5.02077	2.20332	0.61453
O	4.63527	2.7994	-0.381713
H	4.92474	3.97505	1.78333
H	6.26519	2.84578	2.22559
H	4.55608	2.45121	2.68328
N	5.29594	0.896953	0.605914
C	5.12471	0.0705589	-0.562977
C	4.82718	-1.34406	-0.102649
O	4.92799	-1.65497	1.08263
H	5.56952	0.417518	1.43486
H	4.26365	0.41583	-1.12154
C	6.39036	0.0971763	-1.44766
H	7.272	-0.26691	-0.878273
H	6.2659	-0.52441	-2.35797
H	6.59347	1.14291	-1.76629
N	4.44276	-2.23734	-1.03554
C	4.13339	-3.60524	-0.690135
H	4.36301	-1.9659	-1.98897
H	3.83738	-4.18181	-1.59412
H	3.29413	-3.64542	0.0415174
H	5.0169	-4.10384	-0.229755
