44
  This energy is -4.8817 and Call times are: 101057
C	-2.85733	-0.996095	-1.71934
C	-1.59386	-1.29453	-1.0082
O	-1.30453	-2.43821	-0.684629
H	-3.43063	-1.93804	-1.86057
H	-2.64109	-0.55432	-2.71474
H	-3.47209	-0.286783	-1.12601
N	-0.8017	-0.253052	-0.743291
C	0.439136	-0.379769	-0.0202226
C	0.702061	0.928783	0.700968
O	0.00786122	1.91951	0.481262
H	-1.07002	0.67721	-0.976715
H	0.335649	-1.14908	0.734817
C	1.60397	-0.713879	-0.977706
H	1.7173	0.080295	-1.74613
H	2.56253	-0.827679	-0.431147
H	1.38646	-1.6709	-1.50034
N	1.71322	0.959861	1.59126
C	2.03406	2.15934	2.32916
H	2.26113	0.146902	1.75847
H	2.89543	1.98332	3.01053
H	1.16373	2.48799	2.94218
H	2.29997	2.9888	1.63458
C	4.55223	-1.94407	-2.4678
C	5.72488	-1.25303	-1.88598
O	6.8521	-1.44336	-2.32136
H	4.89064	-2.61592	-3.2863
H	3.83838	-1.20231	-2.88369
H	4.04234	-2.55236	-1.69123
N	5.48037	-0.422706	-0.869529
C	6.52389	0.287865	-0.173312
C	6.0619	0.530188	1.25126
O	4.90451	0.28758	1.58787
H	4.56267	-0.309411	-0.499608
H	7.40851	-0.334746	-0.124035
C	6.84226	1.62664	-0.874433
H	5.93763	2.27005	-0.915856
H	7.6539	2.17681	-0.355715
H	7.17054	1.42564	-1.91759
N	6.96533	1.01005	2.1285
C	6.61821	1.26653	3.50687
H	7.89818	1.19631	1.83837
H	7.49594	1.65736	4.06729
H	6.27203	0.332103	4.00515
H	5.79756	2.01712	3.57241
