44
  This energy is 0.1021 and Call times are: 99416
C	3.03496	0.808389	1.4994
C	2.21972	0.0146639	0.552555
O	2.74469	-0.708612	-0.282721
H	4.11304	0.634224	1.29136
H	2.81625	0.501053	2.54365
H	2.816	1.89038	1.37918
N	0.894864	0.136784	0.663135
C	-0.0276064	-0.539019	-0.214874
C	-1.28853	0.298982	-0.311754
O	-1.45748	1.2699	0.423422
H	0.483122	0.760855	1.32106
H	0.400052	-0.59433	-1.20819
C	-0.356269	-1.95282	0.312746
H	-0.804758	-1.89598	1.32747
H	-1.05495	-2.48869	-0.361944
H	0.581843	-2.54557	0.38305
N	-2.20517	-0.0549103	-1.23401
C	-3.43319	0.686542	-1.40248
H	-2.04874	-0.841211	-1.82251
H	-4.05464	0.239938	-2.20968
H	-3.21848	1.74625	-1.67116
H	-4.02701	0.682896	-0.459873
C	1.543	-0.662195	0.258094
C	2.92765	-1.06643	-0.0743298
O	3.20977	-2.23596	-0.295708
H	0.892223	-1.56326	0.278566
H	1.15613	0.043225	-0.507058
H	1.5154	-0.176233	1.25617
N	3.83738	-0.0901354	-0.114805
C	5.233	-0.333839	-0.382018
C	6.04286	0.745246	0.311723
O	5.48962	1.71601	0.824798
H	3.60044	0.851203	0.107908
H	5.51976	-1.28275	0.0538158
C	5.51299	-0.328792	-1.90084
H	5.22878	0.648213	-2.34663
H	6.58178	-0.529112	-2.1201
H	4.90398	-1.12076	-2.38892
N	7.38145	0.594703	0.350595
C	8.23318	1.56784	0.993812
H	7.81046	-0.199631	-0.0666103
H	9.30112	1.2657	0.919894
H	7.97102	1.66759	2.07205
H	8.11767	2.56783	0.516501
