44
  This energy is -2.0754 and Call times are: 101529
C	1.18824	-1.18567	3.04876
C	1.05152	-1.27962	1.57784
O	1.72327	-2.06953	0.928847
H	1.96675	-1.90134	3.39172
H	0.225292	-1.43971	3.53962
H	1.49155	-0.15793	3.34004
N	0.164107	-0.459098	1.01071
C	-0.0496392	-0.404462	-0.41403
C	-0.513929	0.995456	-0.769305
O	-0.805063	1.80445	0.109607
H	-0.345735	0.206973	1.54763
H	0.891488	-0.571089	-0.923095
C	-1.09668	-1.45051	-0.855324
H	-2.06544	-1.27359	-0.341289
H	-1.25992	-1.42781	-1.9523
H	-0.739774	-2.46648	-0.57827
N	-0.585948	1.3176	-2.07585
C	-1.01198	2.628	-2.50891
H	-0.342305	0.650796	-2.77233
H	-1.00442	2.69704	-3.61905
H	-0.334903	3.4148	-2.10422
H	-2.04469	2.84376	-2.15102
C	3.85694	-2.4356	-1.77267
C	5.11074	-1.86505	-1.23081
O	6.15206	-2.50697	-1.23519
H	4.04815	-3.47162	-2.12758
H	3.4958	-1.82422	-2.62622
H	3.07697	-2.46452	-0.98281
N	5.03575	-0.625073	-0.741719
C	6.16133	0.0471965	-0.141976
C	5.63247	1.03163	0.884069
O	4.42869	1.26706	0.968908
H	4.1719	-0.130642	-0.707786
H	6.76849	-0.676075	0.387978
C	7.001	0.778961	-1.21189
H	6.38125	1.52849	-1.7487
H	7.8785	1.28907	-0.764348
H	7.37093	0.0405487	-1.95636
N	6.52629	1.62684	1.69821
C	6.11516	2.57351	2.70864
H	7.49577	1.42041	1.6171
H	6.99495	2.95149	3.27464
H	5.41241	2.09738	3.43025
H	5.5965	3.44339	2.24448
