44
  This energy is 0.1416 and Call times are: 101417
C	-2.93949	0.704308	1.72511
C	-1.98837	0.947648	0.617285
O	-2.28441	1.67093	-0.323795
H	-3.88645	1.2504	1.52281
H	-2.51236	1.0683	2.68314
H	-3.16101	-0.380664	1.80794
N	-0.805022	0.335915	0.705932
C	0.2072	0.441788	-0.315223
C	1.03859	-0.82696	-0.290419
O	0.90293	-1.65128	0.611694
H	-0.594068	-0.282311	1.4577
H	-0.2692	0.496332	-1.28615
C	1.10072	1.67936	-0.0801079
H	1.59794	1.61878	0.911428
H	1.87547	1.77969	-0.867646
H	0.470341	2.5952	-0.0943997
N	1.91877	-1.01746	-1.29293
C	2.74902	-2.19768	-1.35582
H	2.01133	-0.341064	-2.01612
H	3.40501	-2.16963	-2.25366
H	2.12166	-3.11686	-1.40872
H	3.39521	-2.27232	-0.451387
C	2.0084	1.847	-0.953064
C	2.69383	0.890929	-0.0545794
O	2.19391	0.552263	1.00928
H	1.05178	2.16817	-0.486621
H	1.78846	1.36491	-1.92875
H	2.64573	2.74123	-1.11816
N	3.87571	0.429241	-0.469766
C	4.68079	-0.473457	0.314802
C	6.1367	-0.241432	-0.0430539
O	6.44535	0.481315	-0.98861
H	4.28856	0.745662	-1.31906
H	4.56472	-0.234988	1.3647
C	4.28446	-1.94174	0.0459103
H	4.41338	-2.18995	-1.02918
H	4.88787	-2.64601	0.654539
H	3.21344	-2.08653	0.307235
N	7.07127	-0.847178	0.715668
C	8.48187	-0.680392	0.45384
H	6.80209	-1.42497	1.47907
H	9.08868	-1.25735	1.18606
H	8.77086	0.393058	0.527804
H	8.7363	-1.0366	-0.570622
