44
  This energy is -2.2256 and Call times are: 100195
C	1.88533	2.70787	-1.10709
C	0.59372	2.07576	-0.75591
O	-0.42861	2.73958	-0.652985
H	1.73818	3.80355	-1.2242
H	2.26732	2.29235	-2.06321
H	2.62998	2.52922	-0.302933
N	0.613331	0.755468	-0.558868
C	-0.555545	0.00657193	-0.169709
C	-0.0996028	-1.20276	0.624759
O	1.09241	-1.49496	0.698495
H	1.46113	0.235015	-0.606123
H	-1.16584	0.613082	0.487802
C	-1.3664	-0.433538	-1.40828
H	-0.74395	-1.06452	-2.07795
H	-2.27639	-0.999236	-1.1212
H	-1.68279	0.466918	-1.97874
N	-1.04447	-1.93352	1.24867
C	-0.704376	-3.09828	2.03216
H	-2.00344	-1.67892	1.18067
H	-1.61832	-3.56201	2.46444
H	-0.0217122	-2.82336	2.86862
H	-0.189363	-3.85913	1.40208
C	7.95135	1.70422	2.23615
C	6.66369	1.51966	1.52974
O	5.66584	2.14624	1.85854
H	7.81822	2.44406	3.05515
H	8.72305	2.0817	1.53277
H	8.28944	0.74109	2.67336
N	6.65779	0.637936	0.527289
C	5.47015	0.319232	-0.225377
C	5.5987	-1.10534	-0.730987
O	6.65752	-1.72021	-0.619051
H	7.46766	0.105588	0.297999
H	4.61077	0.351644	0.432675
C	5.28573	1.29813	-1.40563
H	6.16241	1.25756	-2.08668
H	4.36711	1.07169	-1.98475
H	5.20189	2.33496	-1.01282
N	4.51254	-1.66886	-1.29554
C	4.53906	-3.02187	-1.80035
H	3.66352	-1.15683	-1.37347
H	3.5503	-3.30238	-2.22568
H	4.78665	-3.7403	-0.98559
H	5.30774	-3.12815	-2.59972
