44
  This energy is 0.1267 and Call times are: 100624
C	-3.24974	0.75844	0.988241
C	-2.18937	-0.209811	0.628753
O	-2.33629	-1.40918	0.819362
H	-4.10744	0.213323	1.43889
H	-3.60117	1.29511	0.0820217
H	-2.86319	1.49293	1.72594
N	-1.07743	0.299447	0.0933769
C	0.0580311	-0.512272	-0.267738
C	1.30604	0.342746	-0.153847
O	1.22396	1.55459	0.0369936
H	-0.956261	1.2817	-0.0177789
H	0.157181	-1.3239	0.442229
C	-0.0917488	-1.06326	-1.70274
H	-0.182917	-0.230831	-2.43266
H	0.769825	-1.70128	-1.98759
H	-1.01546	-1.67909	-1.76485
N	2.49901	-0.274856	-0.260739
C	3.74049	0.456405	-0.159913
H	2.54516	-1.25688	-0.410973
H	4.61017	-0.227662	-0.273578
H	3.81928	0.96199	0.829759
H	3.80229	1.23708	-0.952291
C	8.0302	-2.82671	1.57592
C	8.15035	-1.42587	1.11292
O	9.07956	-0.717181	1.4745
H	8.87054	-3.05891	2.26568
H	8.07337	-3.52086	0.710441
H	7.07113	-2.96999	2.11695
N	7.19436	-0.988822	0.289847
C	7.15216	0.362797	-0.210052
C	5.70281	0.723701	-0.475975
O	4.82049	-0.130728	-0.419634
H	6.42224	-1.56483	0.037055
H	7.51773	1.03775	0.553771
C	7.98989	0.500245	-1.50023
H	7.60866	-0.184376	-2.28763
H	7.97664	1.5397	-1.88738
H	9.0449	0.223617	-1.28398
N	5.42163	2.00939	-0.765732
C	4.07038	2.44706	-1.02793
H	6.14855	2.6871	-0.802669
H	4.04546	3.53759	-1.24552
H	3.41603	2.25024	-0.147946
H	3.64443	1.90489	-1.90301
