44
  This energy is -1.9399 and Call times are: 95571
C	-2.6226	1.94725	1.20121
C	-2.06184	0.957602	0.253948
O	-2.78583	0.32265	-0.500429
H	-3.72936	1.96775	1.09855
H	-2.2223	2.95883	0.979367
H	-2.36357	1.668	2.24429
N	-0.736153	0.801099	0.27488
C	-0.0494584	-0.154818	-0.557727
C	1.21812	-0.581348	0.158419
O	1.58975	-0.00424266	1.1785
H	-0.164169	1.29552	0.923148
H	-0.667096	-1.03677	-0.673117
C	0.28655	0.455173	-1.93622
H	0.928881	1.3539	-1.81898
H	0.803229	-0.275613	-2.5916
H	-0.654923	0.767356	-2.43874
N	1.91077	-1.61518	-0.358734
C	3.12595	-2.09458	0.25747
H	1.59198	-2.07213	-1.18253
H	3.5466	-2.94996	-0.315761
H	2.93003	-2.43408	1.30036
H	3.89242	-1.28698	0.295561
C	8.58694	-2.54535	2.29988
C	7.80828	-1.94068	1.19569
O	6.95402	-2.58124	0.598747
H	8.27003	-3.60204	2.43707
H	8.40606	-1.99039	3.24436
H	9.67102	-2.52351	2.06036
N	8.09329	-0.671768	0.894014
C	7.45013	0.0381079	-0.183472
C	8.41619	1.08651	-0.702277
O	9.46461	1.32656	-0.106538
H	8.81971	-0.176432	1.36178
H	7.2529	-0.649306	-0.996605
C	6.13963	0.699602	0.296396
H	6.3428	1.41277	1.12353
H	5.62785	1.23777	-0.527605
H	5.4511	-0.0851716	0.679013
N	8.08653	1.73324	-1.83765
C	8.9466	2.74297	-2.40939
H	7.23583	1.52229	-2.30764
H	8.50173	3.15692	-3.34104
H	9.94441	2.31416	-2.65796
H	9.1001	3.58095	-1.6915
