44
  This energy is -2.1566 and Call times are: 101718
C	-0.160922	3.43489	0.536953
C	0.286784	2.07605	0.91676
O	1.12199	1.907	1.79441
H	0.386233	4.18587	1.14731
H	-1.24994	3.54502	0.723136
H	0.0509865	3.6214	-0.537012
N	-0.267493	1.06068	0.250294
C	0.0982272	-0.315168	0.478011
C	-0.123723	-1.08319	-0.811343
O	-0.698735	-0.560992	-1.76444
H	-0.915714	1.21625	-0.489621
H	1.15482	-0.370471	0.708611
C	-0.73872	-0.926206	1.62317
H	-1.82218	-0.879276	1.38243
H	-0.456807	-1.98134	1.81746
H	-0.566864	-0.343677	2.55455
N	0.338173	-2.34764	-0.873382
C	0.177756	-3.15356	-2.06121
H	0.80452	-2.75146	-0.0933066
H	0.623864	-4.162	-1.91544
H	0.677237	-2.67205	-2.93296
H	-0.901317	-3.27961	-2.3079
C	7.32283	-1.96979	-2.74875
C	7.60526	-1.43407	-1.39805
O	8.5045	-1.89588	-0.709207
H	8.0215	-2.80694	-2.96531
H	7.4648	-1.17649	-3.51248
H	6.2805	-2.34932	-2.79964
N	6.8276	-0.431514	-0.982707
C	6.95324	0.164447	0.324045
C	5.5932	0.697527	0.733527
O	4.66195	0.730105	-0.0686153
H	6.07331	-0.0936975	-1.53839
H	7.22916	-0.599605	1.04009
C	7.99949	1.30045	0.314032
H	7.71145	2.08963	-0.412785
H	8.11547	1.75817	1.3178
H	8.98488	0.889115	0.00395522
N	5.44478	1.1227	2.00365
C	4.18548	1.64102	2.48498
H	6.2088	1.08465	2.63918
H	4.26517	1.93775	3.55402
H	3.38376	0.872829	2.39333
H	3.87682	2.53423	1.89504
