44
  This energy is -2.4966 and Call times are: 99006
C	-0.737502	-2.43404	2.37576
C	-0.154114	-2.00871	1.08352
O	0.563308	-2.75832	0.435595
H	-0.398872	-3.4668	2.60944
H	-1.84619	-2.42403	2.31692
H	-0.404517	-1.75421	3.1882
N	-0.45297	-0.773167	0.675478
C	0.0743068	-0.203004	-0.539205
C	0.15318	1.30142	-0.360185
O	-0.350568	1.84626	0.620174
H	-1.00498	-0.16029	1.23363
H	1.08389	-0.562815	-0.693847
C	-0.81843	-0.558353	-1.74833
H	-1.85163	-0.180236	-1.59485
H	-0.415448	-0.136649	-2.69189
H	-0.868187	-1.66398	-1.85543
N	0.799522	2.01066	-1.30636
C	0.929733	3.44641	-1.21777
H	1.20418	1.55153	-2.09027
H	1.49351	3.84472	-2.08997
H	1.47219	3.73501	-0.2884
H	-0.0729746	3.93148	-1.19699
C	3.45527	2.11881	1.28323
C	4.70305	1.87753	0.524299
O	5.21597	2.76144	-0.148038
H	3.11533	3.16278	1.10878
H	3.63443	1.97599	2.36962
H	2.6606	1.42086	0.94495
N	5.22565	0.652397	0.615524
C	6.41262	0.25452	-0.0995671
C	6.33073	-1.23805	-0.358616
O	5.45082	-1.92039	0.162781
H	4.77439	-0.0683392	1.13394
H	6.43169	0.74855	-1.06299
C	7.68381	0.594848	0.708822
H	7.66971	0.0798744	1.69302
H	8.60508	0.305915	0.162657
H	7.71884	1.69075	0.89351
N	7.24815	-1.78083	-1.18308
C	7.24563	-3.19164	-1.49259
H	7.94993	-1.21178	-1.59872
H	8.07711	-3.44335	-2.18723
H	6.2852	-3.48638	-1.97423
H	7.36724	-3.79761	-0.565686
