44
  This energy is -2.9144 and Call times are: 97649
C	-0.136182	1.09628	3.30035
C	0.178064	1.30654	1.8692
O	0.446704	2.41891	1.43691
H	-0.0969402	2.07173	3.83217
H	0.604897	0.407542	3.75772
H	-1.15495	0.668176	3.40957
N	0.14839	0.223085	1.0897
C	0.389671	0.276175	-0.330693
C	-0.375337	-0.859859	-0.983184
O	-0.918697	-1.72669	-0.301212
H	-0.112037	-0.668779	1.44834
H	-0.00845326	1.20226	-0.726296
C	1.89861	0.160045	-0.63868
H	2.30529	-0.794683	-0.242264
H	2.09864	0.213533	-1.72847
H	2.43942	0.996706	-0.144851
N	-0.442565	-0.876613	-2.329
C	-1.15325	-1.91545	-3.03746
H	4.53028e-05	-0.164225	-2.86348
H	-1.09354	-1.75369	-4.13632
H	-2.22766	-1.92745	-2.74286
H	-0.720655	-2.91568	-2.80607
C	5.26245	3.34793	-0.844182
C	5.92348	2.03521	-1.02013
O	6.64608	1.81424	-1.98212
H	5.52521	4.00891	-1.69853
H	5.60447	3.8254	0.0980442
H	4.15978	3.22021	-0.814539
N	5.68402	1.11927	-0.0788004
C	6.22153	-0.217315	-0.135099
C	5.26508	-1.14281	0.59307
O	4.32417	-0.691327	1.24312
H	5.06097	1.30045	0.676736
H	6.26237	-0.54274	-1.16711
C	7.62501	-0.275029	0.506894
H	7.58187	0.0486819	1.56868
H	8.05547	-1.29619	0.457354
H	8.30597	0.415649	-0.0367993
N	5.48071	-2.46928	0.493085
C	4.61942	-3.42653	1.14732
H	6.24492	-2.81566	-0.0408412
H	4.96113	-4.46556	0.945134
H	3.5714	-3.32515	0.783095
H	4.61886	-3.26566	2.24971
