44
  This energy is -4.3573 and Call times are: 101445
C	1.36483	-0.0306892	3.2014
C	0.537632	0.591605	2.14328
O	-0.19332	1.5415	2.38784
H	1.17864	0.488954	4.16638
H	2.44194	0.0585009	2.94719
H	1.0993	-1.10306	3.31365
N	0.635219	0.0584013	0.923215
C	-0.139449	0.527885	-0.198406
C	-0.345007	-0.634768	-1.15105
O	0.251837	-1.69701	-0.986355
H	1.20357	-0.740578	0.748649
H	-1.1175	0.838064	0.147763
C	0.576749	1.69416	-0.91402
H	1.57587	1.37344	-1.27861
H	-0.0163128	2.07366	-1.77121
H	0.723746	2.5304	-0.19608
N	-1.20732	-0.461615	-2.17206
C	-1.47079	-1.51393	-3.12569
H	-1.68393	0.403736	-2.28646
H	-2.20754	-1.17811	-3.88834
H	-1.88189	-2.41404	-2.61375
H	-0.534369	-1.81259	-3.65015
C	3.34371	-1.12427	-2.39957
C	4.31926	-0.134108	-1.89061
O	4.73711	0.767321	-2.60423
H	3.1158	-0.901368	-3.46457
H	2.40305	-1.07157	-1.81209
H	3.76625	-2.14877	-2.32931
N	4.71137	-0.284634	-0.62334
C	5.68771	0.574266	-0.000756121
C	6.40236	-0.223168	1.07393
O	6.00441	-1.34025	1.3987
H	4.39349	-1.0475	-0.0676013
H	6.42937	0.863049	-0.735026
C	5.01459	1.82328	0.609263
H	4.26109	1.52789	1.3702
H	5.75765	2.49943	1.07959
H	4.49123	2.38712	-0.193551
N	7.48715	0.333227	1.64808
C	8.23433	-0.353402	2.67591
H	7.79627	1.23637	1.36906
H	9.09032	0.267415	3.02102
H	8.63457	-1.3195	2.29153
H	7.58441	-0.573717	3.55353
