44
  This energy is -1.6026 and Call times are: 97705
C	-2.11311	-2.13045	1.76313
C	-1.13686	-1.86385	0.682859
O	-0.626417	-2.77856	0.0510572
H	-2.2488	-3.22837	1.87283
H	-3.09278	-1.67021	1.51578
H	-1.7426	-1.71631	2.72454
N	-0.849935	-0.581799	0.445376
C	0.112643	-0.167464	-0.54474
C	0.707186	1.15605	-0.101588
O	0.236865	1.76896	0.854889
H	-1.24264	0.149667	0.995477
H	0.920329	-0.887846	-0.581137
C	-0.549697	-0.0258636	-1.93272
H	-1.37149	0.720804	-1.89842
H	0.184143	0.27933	-2.70658
H	-0.98479	-1.00399	-2.23325
N	1.76822	1.62562	-0.786955
C	2.40362	2.87386	-0.43432
H	2.13716	1.11339	-1.55544
H	3.25711	3.08678	-1.1151
H	2.78931	2.83693	0.610266
H	1.67936	3.7174	-0.505291
C	4.52527	-0.769682	-1.43748
C	5.34829	-0.226252	-0.33364
O	4.84119	0.408823	0.580656
H	3.46244	-0.485763	-1.27733
H	4.6016	-1.87707	-1.46241
H	4.86579	-0.353919	-2.40921
N	6.66001	-0.466454	-0.397583
C	7.5941	0.0341101	0.579893
C	8.93784	0.216924	-0.100204
O	9.12864	-0.201413	-1.24051
H	7.0633	-0.949819	-1.16931
H	7.26845	1.00984	0.918299
C	7.71886	-0.938977	1.7727
H	8.06306	-1.93716	1.42743
H	8.42489	-0.558062	2.53883
H	6.7225	-1.06391	2.25017
N	9.9039	0.858468	0.586202
C	11.2126	1.08356	0.0179719
H	9.72926	1.19333	1.50623
H	11.8651	1.62685	0.736459
H	11.1372	1.68922	-0.914104
H	11.7018	0.115869	-0.237749
