44
  This energy is -4.1182 and Call times are: 99181
C	0.267185	-3.42762	-0.541042
C	0.302655	-2.02646	-1.01712
O	0.726123	-1.74663	-2.13012
H	0.684085	-4.09346	-1.32764
H	-0.77887	-3.73332	-0.328781
H	0.877467	-3.53423	0.380524
N	-0.14744	-1.09966	-0.168104
C	-0.135958	0.309537	-0.472416
C	-0.0153973	1.0742	0.83231
O	-0.110918	0.495215	1.91276
H	-0.450852	-1.33863	0.749883
H	0.741422	0.540168	-1.06372
C	-1.41999	0.721892	-1.22505
H	-2.31988	0.495179	-0.614432
H	-1.41687	1.80212	-1.47728
H	-1.49161	0.144251	-2.17244
N	0.207302	2.40136	0.760968
C	0.341427	3.2103	1.95
H	0.285716	2.85129	-0.12248
H	0.520728	4.27511	1.68305
H	1.1955	2.85624	2.57167
H	-0.58285	3.15477	2.56949
C	7.51871	2.49465	-1.18344
C	6.34527	2.04396	-0.401726
O	5.76673	2.80135	0.365128
H	7.74377	3.55355	-0.930575
H	7.305	2.42238	-2.27057
H	8.4041	1.87075	-0.938693
N	5.96394	0.77711	-0.580784
C	4.86681	0.182388	0.141144
C	5.13302	-1.3061	0.264049
O	6.05967	-1.83286	-0.348766
H	6.4699	0.160997	-1.17767
H	4.83733	0.588724	1.14446
C	3.52727	0.434749	-0.584933
H	3.55324	0.00882911	-1.61058
H	2.67301	-0.00644041	-0.0316642
H	3.35698	1.53019	-0.670642
N	4.32535	-2.02114	1.07176
C	4.5058	-3.4424	1.25514
H	3.58341	-1.57642	1.5625
H	3.7435	-3.84841	1.95606
H	5.51599	-3.65954	1.67187
H	4.41041	-3.9793	0.283661
