44
  This energy is 0.1049 and Call times are: 98366
C	2.40953	0.489864	2.46311
C	2.0132	0.246257	1.05786
O	2.82562	0.33105	0.147257
H	3.48803	0.757065	2.4995
H	2.24511	-0.424484	3.07112
H	1.81724	1.32755	2.88804
N	0.732003	-0.0650249	0.848046
C	0.187971	-0.287652	-0.468399
C	-1.28236	0.0851356	-0.441801
O	-1.84859	0.339083	0.61962
H	0.0737285	-0.0900884	1.59498
H	0.675834	0.374127	-1.17315
C	0.365408	-1.76083	-0.896781
H	-0.14386	-2.43957	-0.179852
H	-0.0371229	-1.94188	-1.91448
H	1.44815	-2.01379	-0.901493
N	-1.9362	0.134908	-1.61911
C	-3.33541	0.485641	-1.69243
H	-1.45995	-0.0698718	-2.46783
H	-3.68968	0.471395	-2.74672
H	-3.5068	1.50587	-1.27887
H	-3.95202	-0.232907	-1.10539
C	2.12884	-0.708377	-3.18115
C	2.57673	0.242784	-2.13911
O	2.77312	1.4216	-2.40034
H	2.03966	-0.174291	-4.15206
H	1.13869	-1.13254	-2.91203
H	2.8661	-1.53156	-3.29024
N	2.75297	-0.258445	-0.914329
C	3.22691	0.533945	0.192942
C	3.96395	-0.383798	1.15007
O	3.93478	-1.60388	1.00089
H	2.62849	-1.22852	-0.726404
H	3.94106	1.26292	-0.16929
C	2.05359	1.23583	0.911204
H	1.32597	0.487872	1.29222
H	2.40698	1.86016	1.75728
H	1.52391	1.89591	0.190038
N	4.65355	0.186957	2.15739
C	5.38985	-0.606168	3.11395
H	4.66864	1.17613	2.2593
H	5.88969	0.0459399	3.86371
H	6.17077	-1.21392	2.60201
H	4.70876	-1.30319	3.65378
