44
  This energy is -2.9259 and Call times are: 100223
C	-1.15379	1.38531	2.97697
C	-1.0075	0.250045	2.0384
O	-1.30384	-0.889034	2.37171
H	-1.53306	1.00927	3.95197
H	-1.87518	2.12595	2.57225
H	-0.171364	1.87692	3.139
N	-0.536641	0.541295	0.823563
C	-0.299332	-0.462878	-0.183354
C	0.820841	0.0246987	-1.08282
O	1.24747	1.17414	-0.990657
H	-0.261237	1.46703	0.580597
H	0.0427746	-1.37298	0.293414
C	-1.57777	-0.730758	-1.00742
H	-1.92318	0.200305	-1.50526
H	-1.41171	-1.51216	-1.77707
H	-2.38618	-1.0788	-0.327941
N	1.33169	-0.847519	-1.97405
C	2.40337	-0.474589	-2.8677
H	0.976127	-1.77457	-2.03091
H	2.68412	-1.32844	-3.52294
H	3.3049	-0.163669	-2.29164
H	2.09632	0.378382	-3.51524
C	7.453	-0.633884	-3.33825
C	6.61108	-0.817348	-2.13465
O	5.52202	-1.37033	-2.20225
H	6.9234	-1.04815	-4.22355
H	8.41865	-1.16776	-3.21481
H	7.64708	0.446127	-3.50849
N	7.10541	-0.346688	-0.987262
C	6.38406	-0.412839	0.259265
C	6.83005	0.749603	1.12609
O	7.78437	1.45123	0.796392
H	7.97513	0.137491	-0.955324
H	5.32613	-0.284562	0.0670184
C	6.64518	-1.75507	0.977222
H	7.72917	-1.88236	1.18411
H	6.08431	-1.8239	1.93179
H	6.3187	-2.59161	0.321506
N	6.13906	0.98626	2.25858
C	6.48716	2.07367	3.1432
H	5.36727	0.410085	2.50643
H	5.80163	2.10329	4.01864
H	6.41858	3.05015	2.61117
H	7.52984	1.95716	3.51788
