44
  This energy is 0.1032 and Call times are: 97999
C	2.96304	1.29196	1.28993
C	1.67236	0.584461	1.44717
O	1.39344	-0.000484354	2.4847
H	3.56433	1.1695	2.21693
H	2.78742	2.37436	1.11586
H	3.5304	0.867555	0.434904
N	0.843977	0.621501	0.400848
C	-0.428673	-0.0558173	0.38807
C	-0.757928	-0.416832	-1.04818
O	-0.07651	0.0120071	-1.97742
H	1.10226	1.06706	-0.451581
H	-0.34589	-0.982206	0.94267
C	-1.53545	0.838117	0.989047
H	-1.62796	1.78407	0.414024
H	-2.51761	0.322554	0.997553
H	-1.26971	1.0964	2.03739
N	-1.81337	-1.22669	-1.26313
C	-2.19878	-1.62847	-2.59587
H	-2.35017	-1.56687	-0.498145
H	-3.08931	-2.29418	-2.56385
H	-1.36847	-2.17768	-3.09609
H	-2.44819	-0.738582	-3.21799
C	1.14422	1.10913	2.02299
C	2.47046	1.28904	1.39063
O	3.03691	2.37316	1.40533
H	0.806517	2.07831	2.4502
H	1.20804	0.35929	2.83933
H	0.403051	0.771384	1.26822
N	3.0019	0.211046	0.809344
C	4.26575	0.240738	0.116274
C	4.23872	-0.825517	-0.962587
O	3.32011	-1.64076	-1.01945
H	2.51038	-0.654238	0.769945
H	4.37952	1.1973	-0.378368
C	5.43641	-0.00660167	1.09281
H	5.32571	-0.992448	1.59271
H	6.41605	0.0275896	0.573533
H	5.4319	0.78065	1.87802
N	5.24896	-0.838463	-1.85436
C	5.3048	-1.8127	-2.91921
H	5.98115	-0.168089	-1.79451
H	6.21048	-1.65846	-3.54626
H	4.40711	-1.73079	-3.57399
H	5.33678	-2.84639	-2.50496
