44
  This energy is 0.1003 and Call times are: 101301
C	1.76471	-1.66978	-2.49205
C	1.19072	-1.59327	-1.12977
O	1.13298	-2.58128	-0.410803
H	2.07907	-2.71565	-2.69995
H	2.65083	-1.00558	-2.57184
H	1.00649	-1.36616	-3.24439
N	0.744027	-0.396941	-0.740338
C	0.120583	-0.175256	0.540573
C	-0.852003	0.980486	0.39953
O	-0.880739	1.65782	-0.626195
H	0.760487	0.388822	-1.35203
H	-0.455805	-1.0504	0.813567
C	1.17803	0.135859	1.62236
H	1.76258	1.03974	1.34789
H	0.71155	0.294863	2.61616
H	1.88353	-0.719804	1.70277
N	-1.68261	1.2282	1.4314
C	-2.64555	2.30375	1.38525
H	-1.64723	0.666585	2.2514
H	-3.23454	2.34499	2.32792
H	-3.35268	2.16169	0.536105
H	-2.13386	3.28381	1.24813
C	1.11103	-2.36922	-0.551907
C	1.57583	-1.0652	-0.0278179
O	0.78134	-0.216073	0.351882
H	-0.000348153	-2.39376	-0.54254
H	1.49412	-3.19543	0.0832017
H	1.46482	-2.5105	-1.59496
N	2.89686	-0.874544	0.00237175
C	3.49791	0.358768	0.445352
C	4.82457	0.5228	-0.272037
O	5.29274	-0.391881	-0.947228
H	3.52939	-1.55923	-0.348301
H	2.86765	1.18895	0.151781
C	3.70698	0.352184	1.97554
H	4.36209	-0.493125	2.2761
H	4.15646	1.30208	2.33076
H	2.72435	0.223083	2.47965
N	5.46058	1.70437	-0.147992
C	6.72546	1.95398	-0.799112
H	5.06396	2.43391	0.39932
H	7.08636	2.98223	-0.576215
H	6.62596	1.84927	-1.90384
H	7.49631	1.22859	-0.451626
