44
  This energy is -1.0081 and Call times are: 95536
C	-1.72994	-2.78444	1.16912
C	-0.545936	-1.89612	1.15731
O	0.326495	-1.99284	2.00932
H	-1.66551	-3.47074	2.04132
H	-1.76441	-3.38859	0.238232
H	-2.65922	-2.18242	1.25345
N	-0.490685	-0.993945	0.17476
C	0.577255	-0.032665	0.0564202
C	0.0285212	1.20121	-0.634954
O	-1.09518	1.19622	-1.13395
H	-1.2286	-0.900233	-0.487483
H	0.898503	0.268015	1.04588
C	1.76162	-0.619377	-0.742515
H	1.43494	-0.918277	-1.76133
H	2.59604	0.106452	-0.828701
H	2.14197	-1.52566	-0.222575
N	0.811822	2.29713	-0.672847
C	0.371813	3.51927	-1.30447
H	1.71647	2.28313	-0.259942
H	1.15627	4.30441	-1.23104
H	-0.553944	3.90212	-0.81695
H	0.148288	3.34638	-2.3821
C	4.27767	2.87695	-0.717671
C	5.52325	2.19269	-0.303579
O	6.58397	2.79777	-0.231598
H	4.50134	3.94237	-0.94284
H	3.52679	2.83218	0.0989838
H	3.86194	2.39676	-1.62853
N	5.41977	0.892264	-0.0197406
C	6.55195	0.0824051	0.35556
C	6.27656	-1.34526	-0.0774497
O	5.16782	-1.67397	-0.494999
H	4.55762	0.404419	-0.122497
H	7.42753	0.420149	-0.184734
C	6.79675	0.14851	1.87902
H	5.9026	-0.207823	2.4336
H	7.67445	-0.460033	2.17876
H	6.98817	1.2032	2.17455
N	7.28962	-2.2301	0.00492209
C	7.12252	-3.60937	-0.389876
H	8.18076	-1.94431	0.341474
H	8.06896	-4.17635	-0.248392
H	6.82981	-3.67815	-1.46266
H	6.32655	-4.09831	0.217181
