44
  This energy is -2.1876 and Call times are: 95508
C	1.76217	2.99746	-0.150549
C	1.69778	1.53224	0.0497603
O	2.71532	0.855395	0.103581
H	2.82492	3.30822	-0.249894
H	1.31395	3.52266	0.718939
H	1.21674	3.28164	-1.07512
N	0.477898	1.00196	0.164119
C	0.253236	-0.413618	0.319789
C	-1.10274	-0.745445	-0.274164
O	-1.87115	0.147107	-0.627161
H	-0.342232	1.56027	0.0772561
H	0.996574	-0.957986	-0.249195
C	0.306314	-0.820173	1.80879
H	-0.463117	-0.269768	2.39109
H	0.148527	-1.91023	1.94075
H	1.3044	-0.56089	2.22467
N	-1.42583	-2.04703	-0.406479
C	-2.69215	-2.4584	-0.966302
H	-0.789205	-2.75491	-0.118921
H	-2.7693	-3.56774	-0.991254
H	-2.80454	-2.07578	-2.00661
H	-3.53777	-2.06148	-0.359245
C	9.63864	1.03533	-2.80029
C	8.80702	1.31549	-1.6082
O	8.65904	2.45683	-1.19365
H	10.0675	1.9877	-3.18101
H	9.01981	0.575154	-3.59906
H	10.4694	0.34809	-2.53442
N	8.23827	0.260464	-1.02012
C	7.43667	0.369627	0.173229
C	7.55028	-0.934346	0.940249
O	8.10359	-1.91238	0.441237
H	8.4013	-0.666755	-1.34499
H	7.84039	1.1514	0.804472
C	5.96189	0.664578	-0.177877
H	5.54411	-0.142456	-0.81678
H	5.33697	0.764645	0.733155
H	5.90357	1.61887	-0.745561
N	7.03243	-0.975516	2.18369
C	7.09847	-2.1715	2.9908
H	6.59218	-0.172671	2.57189
H	6.61832	-2.00522	3.98026
H	8.15759	-2.47228	3.16133
H	6.57685	-3.01617	2.48524
