44
  This energy is -1.1871 and Call times are: 98900
C	-1.62218	1.031	2.90142
C	-1.1343	-0.0252518	1.9863
O	-1.13256	-1.20176	2.32131
H	-1.93406	0.56853	3.86305
H	-2.49433	1.55228	2.4538
H	-0.814891	1.76672	3.10164
N	-0.700172	0.379639	0.790489
C	-0.15625	-0.526082	-0.19052
C	0.835655	0.24134	-1.04418
O	0.936185	1.46299	-0.948365
H	-0.669644	1.34504	0.547701
H	0.392366	-1.31167	0.313967
C	-1.27629	-1.1257	-1.0687
H	-1.83266	-0.320818	-1.59468
H	-0.871615	-1.83544	-1.81906
H	-1.99461	-1.67581	-0.422364
N	1.60228	-0.464206	-1.89889
C	2.57771	0.1798	-2.7474
H	1.50931	-1.45253	-1.95925
H	3.1066	-0.56909	-3.37721
H	3.33533	0.720245	-2.13485
H	2.08624	0.919479	-3.42005
C	5.7904	-3.10878	1.54301
C	6.53501	-2.10681	0.747546
O	7.72736	-2.24499	0.511693
H	6.48553	-3.91638	1.85991
H	4.97669	-3.55394	0.932717
H	5.35593	-2.63316	2.44749
N	5.83562	-1.05654	0.31144
C	6.43125	0.0216255	-0.437784
C	5.63631	1.28421	-0.162974
O	4.57507	1.23801	0.456171
H	4.87512	-0.937459	0.546192
H	7.43928	0.190882	-0.0802311
C	6.43883	-0.295227	-1.94934
H	5.40402	-0.45857	-2.31883
H	6.90755	0.521402	-2.5358
H	7.01922	-1.22703	-2.12608
N	6.13956	2.45039	-0.613299
C	5.45574	3.70359	-0.394134
H	7.00172	2.4681	-1.10872
H	6.02824	4.54706	-0.839155
H	5.33396	3.89921	0.695906
H	4.44246	3.68461	-0.856782
