44
  This energy is -1.2844 and Call times are: 101589
C	-2.47113	-2.01738	-1.39153
C	-1.89226	-1.25876	-0.259924
O	-2.53782	-1.0491	0.757772
H	-3.51605	-2.30537	-1.14438
H	-1.87912	-2.93801	-1.5778
H	-2.47833	-1.39095	-2.30839
N	-0.640652	-0.821521	-0.417022
C	0.0417691	-0.0329592	0.578483
C	1.05241	0.850134	-0.128847
O	1.29411	0.697614	-1.32469
H	-0.14246	-0.964854	-1.26739
H	-0.670759	0.619789	1.06721
C	0.744661	-0.938826	1.61318
H	1.48332	-1.6013	1.11363
H	1.26221	-0.343388	2.39299
H	-0.0127078	-1.58167	2.11266
N	1.66376	1.80648	0.597558
C	2.63585	2.69766	0.00845552
H	1.45197	1.91716	1.56294
H	3.02414	3.41277	0.766785
H	2.17968	3.2821	-0.823169
H	3.4962	2.12305	-0.404795
C	4.97046	1.49765	2.96814
C	5.88393	0.6241	2.19766
O	6.92886	0.214781	2.68448
H	5.40814	1.69299	3.9712
H	3.98495	1.00258	3.09627
H	4.83202	2.46556	2.44178
N	5.50375	0.31664	0.95536
C	6.30757	-0.487923	0.0693007
C	5.99822	-0.0737598	-1.357
O	5.06802	0.691738	-1.60284
H	4.67033	0.69081	0.558798
H	7.35481	-0.276943	0.246527
C	6.01608	-1.99098	0.272013
H	4.94401	-2.20976	0.0800487
H	6.63894	-2.6217	-0.394887
H	6.2419	-2.26994	1.3244
N	6.7824	-0.567373	-2.33549
C	6.56712	-0.22458	-3.72197
H	7.5328	-1.18219	-2.11648
H	7.31448	-0.729885	-4.37262
H	6.65765	0.875515	-3.87321
H	5.54895	-0.53555	-4.05023
