44
  This energy is 0.1348 and Call times are: 97360
C	-1.98945	1.42825	-2.47283
C	-1.45311	1.38738	-1.09377
O	-1.61755	2.32267	-0.322661
H	-2.50195	2.40069	-2.63893
H	-2.72054	0.606354	-2.62363
H	-1.16328	1.32729	-3.2079
N	-0.786177	0.283466	-0.748873
C	-0.169679	0.115312	0.543494
C	1.01987	-0.812457	0.382965
O	1.21553	-1.40844	-0.674501
H	-0.625351	-0.452119	-1.40073
H	0.209813	1.07022	0.885219
C	-1.17469	-0.464252	1.56295
H	-1.55634	-1.4488	1.21792
H	-0.715863	-0.585449	2.5656
H	-2.04041	0.22696	1.65844
N	1.85193	-0.949943	1.43406
C	3.013	-1.80683	1.37199
H	1.6793	-0.456279	2.27997
H	3.56954	-1.78534	2.33481
H	3.70217	-1.47635	0.561369
H	2.71392	-2.85946	1.16306
C	4.15601	2.27778	2.5088
C	4.655	0.960037	2.05524
O	5.20378	0.189745	2.83107
H	4.38419	2.40483	3.58937
H	3.0571	2.34151	2.36362
H	4.65179	3.09159	1.93872
N	4.47396	0.668956	0.764934
C	4.94356	-0.556226	0.167467
C	5.22819	-0.28882	-1.2985
O	4.89811	0.774372	-1.82039
H	4.06226	1.32313	0.136911
H	5.87926	-0.843745	0.630511
C	3.89608	-1.68094	0.319291
H	2.93924	-1.39077	-0.16475
H	4.25168	-2.63331	-0.124616
H	3.69747	-1.8541	1.39953
N	5.85979	-1.25162	-1.99857
C	6.17736	-1.08403	-3.39758
H	6.12261	-2.10352	-1.5578
H	6.69592	-1.98478	-3.79379
H	6.84257	-0.202786	-3.54653
H	5.25067	-0.921824	-3.9943
