44
  This energy is -0.286 and Call times are: 97733
C	-2.6892	0.263472	2.1935
C	-1.93096	0.707033	1.00209
O	-2.40934	1.50566	0.208521
H	-3.68869	0.750189	2.19493
H	-2.14851	0.550252	3.11987
H	-2.82606	-0.838293	2.17167
N	-0.710902	0.187381	0.847789
C	0.129319	0.489974	-0.284035
C	1.03461	-0.701664	-0.533049
O	1.08764	-1.63101	0.2702
H	-0.351369	-0.492716	1.4803
H	-0.488687	0.615105	-1.1644
C	0.966841	1.76149	-0.025094
H	1.60884	1.62974	0.871854
H	1.60782	2.01288	-0.894845
H	0.284058	2.6188	0.16244
N	1.76626	-0.705388	-1.66473
C	2.6517	-1.79953	-1.98878
H	1.70677	0.0537351	-2.30447
H	3.16372	-1.6169	-2.9592
H	2.08357	-2.75475	-2.06661
H	3.42866	-1.92325	-1.2
C	6.08546	0.0531855	-2.72483
C	7.41977	-0.171551	-2.12462
O	8.31455	-0.716027	-2.75654
H	6.0739	-0.356378	-3.75826
H	5.86272	1.14011	-2.7665
H	5.30478	-0.461214	-2.12566
N	7.58362	0.248509	-0.867996
C	8.81146	0.0613792	-0.135909
C	8.47309	-0.0276589	1.34029
O	7.33808	0.220929	1.74234
H	6.83345	0.65302	-0.352761
H	9.25763	-0.882894	-0.422097
C	9.79249	1.2252	-0.397321
H	9.33923	2.19301	-0.094084
H	10.7472	1.08576	0.149987
H	10.0197	1.27646	-1.48455
N	9.45577	-0.395386	2.18594
C	9.2256	-0.512461	3.60703
H	10.3667	-0.596455	1.84126
H	10.1551	-0.826063	4.13144
H	8.4336	-1.26775	3.81575
H	8.89416	0.462079	4.03313
