44
  This energy is -0.4888 and Call times are: 96118
C	1.71545	0.281453	3.01508
C	0.530121	-0.115451	2.22223
O	-0.356238	-0.803198	2.70986
H	1.63776	-0.154053	4.03497
H	1.76661	1.38735	3.09948
H	2.64204	-0.0955259	2.53299
N	0.489581	0.315317	0.959231
C	-0.578054	-0.0248687	0.0520447
C	-0.0201879	-0.0179943	-1.35873
O	1.1117	0.404794	-1.58633
H	1.23828	0.840071	0.564325
H	-0.916358	-1.03226	0.260234
C	-1.74779	0.97585	0.17665
H	-1.40357	2.00807	-0.0471343
H	-2.58203	0.716644	-0.506995
H	-2.13505	0.959807	1.21882
N	-0.804824	-0.497729	-2.34373
C	-0.356643	-0.535975	-3.71627
H	-1.71621	-0.839281	-2.13933
H	-1.14371	-0.964459	-4.37517
H	0.560111	-1.16169	-3.81281
H	-0.114817	0.489077	-4.07949
C	8.27725	-1.60549	-2.28477
C	7.13245	-1.597	-1.34641
O	6.33873	-2.52701	-1.3078
H	8.24635	-2.53524	-2.89343
H	9.23377	-1.57613	-1.72177
H	8.22151	-0.729065	-2.96436
N	7.01967	-0.525863	-0.557529
C	5.93448	-0.35438	0.376017
C	5.69611	1.133	0.556153
O	6.4772	1.95756	0.0853078
H	7.65022	0.24168	-0.629237
H	5.03086	-0.777212	-0.0450504
C	6.26257	-1.01823	1.73134
H	7.18367	-0.577456	2.16876
H	5.42892	-0.905057	2.45435
H	6.44102	-2.10443	1.57431
N	4.59848	1.51204	1.23993
C	4.28675	2.90559	1.45674
H	3.9761	0.830209	1.60983
H	3.34507	3.01194	2.03911
H	4.15955	3.43543	0.484952
H	5.10604	3.40869	2.01958
