44
  This energy is 0.1039 and Call times are: 101329
C	2.17657	-0.502512	2.66884
C	1.78724	0.182966	1.41597
O	2.37537	1.18513	1.03365
H	3.018	0.0482758	3.14266
H	2.50402	-1.54084	2.45115
H	1.31956	-0.525708	3.3746
N	0.767523	-0.350942	0.739586
C	0.246935	0.22796	-0.473847
C	-1.2227	-0.133828	-0.577904
O	-1.72841	-0.943365	0.197098
H	0.272362	-1.14314	1.08469
H	0.309752	1.30715	-0.41037
C	1.02022	-0.287921	-1.70719
H	0.947276	-1.39409	-1.77869
H	0.637796	0.161192	-2.64665
H	2.09434	-0.0189854	-1.6058
N	-1.94837	0.468787	-1.54034
C	-3.35542	0.191192	-1.71165
H	-1.52238	1.12412	-2.15528
H	-3.7736	0.784693	-2.55433
H	-3.9218	0.447858	-0.787205
H	-3.51937	-0.889261	-1.92818
C	4.84333	-0.298007	-1.46405
C	3.92307	-0.4388	-0.313192
O	4.25531	-1.05237	0.69158
H	5.79252	-0.832777	-1.24287
H	5.06857	0.774031	-1.64502
H	4.38661	-0.738511	-2.37533
N	2.72412	0.134974	-0.438403
C	1.70637	0.0472573	0.578965
C	0.351795	0.140256	-0.0978378
O	0.261646	0.430309	-1.28924
H	2.45328	0.596007	-1.27861
H	1.76206	-0.922661	1.05727
C	1.8695	1.17524	1.62121
H	1.8019	2.17059	1.13258
H	1.10001	1.11033	2.41758
H	2.87057	1.09241	2.098
N	-0.73979	-0.113966	0.650377
C	-2.07012	-0.0550065	0.0909795
H	-0.646422	-0.351033	1.61171
H	-2.83282	-0.295717	0.864013
H	-2.17709	-0.783074	-0.745535
H	-2.28403	0.962977	-0.307887
