44
  This energy is -2.9293 and Call times are: 100167
C	1.03429	2.81893	-1.7597
C	1.23265	1.78958	-0.7146
O	2.31003	1.66033	-0.149838
H	1.98502	3.37425	-1.91341
H	0.246184	3.5355	-1.44639
H	0.738898	2.34024	-2.71714
N	0.178877	1.02015	-0.431897
C	0.23059	-0.0519315	0.530665
C	-0.783192	-1.10392	0.121867
O	-1.58702	-0.886031	-0.782622
H	-0.679382	1.11036	-0.92901
H	1.20847	-0.515839	0.496489
C	-0.072561	0.46843	1.95283
H	-1.07996	0.935037	1.99097
H	-0.0221617	-0.345201	2.70515
H	0.676696	1.2426	2.22783
N	-0.76253	-2.28064	0.778318
C	-1.68577	-3.34316	0.454491
H	-0.101961	-2.43977	1.50454
H	-1.50974	-4.2287	1.10415
H	-1.56538	-3.65806	-0.607404
H	-2.73812	-3.00669	0.597616
C	6.62989	3.11862	0.215467
C	6.45882	1.71739	0.660959
O	7.25644	1.19496	1.42731
H	7.55477	3.53761	0.668119
H	5.76222	3.73149	0.5384
H	6.72039	3.1602	-0.890495
N	5.39668	1.06718	0.179844
C	5.12081	-0.313848	0.488406
C	4.35778	-0.915501	-0.676658
O	3.93684	-0.205322	-1.58779
H	4.77899	1.49285	-0.475224
H	6.0553	-0.854014	0.575362
C	4.30196	-0.434886	1.79228
H	3.33849	0.110297	1.69984
H	4.09494	-1.49424	2.04808
H	4.87595	0.0187819	2.62957
N	4.16843	-2.24973	-0.67784
C	3.45865	-2.91151	-1.74762
H	4.52007	-2.80817	0.0661836
H	3.40815	-4.00787	-1.56685
H	3.9695	-2.74028	-2.7228
H	2.41842	-2.52118	-1.82959
