44
  This energy is 0.1421 and Call times are: 101029
C	-1.47551	-2.96459	-1.07088
C	-0.533646	-2.21447	-0.209862
O	0.0205505	-2.751	0.739561
H	-1.57101	-4.00512	-0.691336
H	-1.09793	-2.99596	-2.11452
H	-2.47585	-2.48278	-1.05425
N	-0.330828	-0.93366	-0.527324
C	0.524154	-0.0643941	0.242053
C	0.0116346	1.35574	0.0933912
O	-0.871014	1.62492	-0.719128
H	-0.820532	-0.500057	-1.27835
H	0.449538	-0.326194	1.29016
C	1.98856	-0.164619	-0.238261
H	2.06725	0.114036	-1.31073
H	2.65918	0.489738	0.355546
H	2.34002	-1.21373	-0.127862
N	0.551719	2.30167	0.886827
C	0.12314	3.67936	0.819907
H	1.26199	2.06376	1.54103
H	0.685176	4.30198	1.55044
H	-0.963644	3.76425	1.05006
H	0.293605	4.09494	-0.199591
C	2.90454	-0.323744	-2.55083
C	3.27629	-0.294157	-1.11832
O	2.42244	-0.246815	-0.24362
H	1.79769	-0.278427	-2.64404
H	3.26666	-1.26219	-3.02087
H	3.34561	0.547957	-3.07872
N	4.58253	-0.319578	-0.843554
C	5.09916	-0.252891	0.500766
C	6.47172	0.391247	0.448575
O	7.02662	0.604931	-0.627594
H	5.2665	-0.316755	-1.56745
H	4.46339	0.390368	1.09629
C	5.18541	-1.66107	1.12913
H	5.84594	-2.3183	0.524326
H	5.56881	-1.62171	2.16932
H	4.17125	-2.11646	1.14981
N	7.05061	0.725192	1.61878
C	8.35311	1.34755	1.66732
H	6.58421	0.54809	2.47912
H	8.65587	1.54455	2.71934
H	8.34621	2.31644	1.11733
H	9.12063	0.689989	1.19864
