44
  This energy is -0.4838 and Call times are: 97761
C	-0.255629	-3.44134	-0.45221
C	-0.811962	-2.13842	-0.0232191
O	-1.99864	-2.01491	0.246874
H	-1.07195	-4.1951	-0.488887
H	0.517153	-3.78328	0.26795
H	0.19549	-3.35073	-1.46284
N	0.0484975	-1.1201	0.0475422
C	-0.352139	0.217154	0.407819
C	0.597056	1.19217	-0.262947
O	1.60914	0.792845	-0.835607
H	1.00329	-1.22668	-0.214894
H	-1.34312	0.410807	0.0165467
C	-0.32857	0.406082	1.94046
H	0.690305	0.217814	2.34107
H	-0.648461	1.42764	2.23133
H	-1.02418	-0.32278	2.41082
N	0.285185	2.50228	-0.214121
C	1.12597	3.50286	-0.829011
H	-0.540198	2.80571	0.25036
H	0.700157	4.51964	-0.680444
H	1.21939	3.31856	-1.92381
H	2.14842	3.48269	-0.387047
C	8.51164	1.94691	2.42561
C	8.5525	0.980496	1.30511
O	9.60802	0.685782	0.761564
H	9.53961	2.31892	2.62745
H	8.12123	1.45497	3.34122
H	7.86243	2.80896	2.16395
N	7.38266	0.459372	0.927912
C	7.25704	-0.461269	-0.174446
C	5.87086	-0.300244	-0.769554
O	5.02092	0.38886	-0.208809
H	6.52691	0.740055	1.35307
H	7.97126	-0.19652	-0.944132
C	7.47968	-1.9161	0.293668
H	6.74049	-2.19166	1.07579
H	7.39925	-2.63337	-0.548701
H	8.49702	-2.00873	0.73273
N	5.61254	-0.930446	-1.93237
C	4.32342	-0.830644	-2.57608
H	6.3144	-1.48021	-2.37308
H	4.3088	-1.41836	-3.52033
H	4.08732	0.230493	-2.82006
H	3.51988	-1.2185	-1.90897
