44
  This energy is -3.3436 and Call times are: 101244
C	2.37796	1.54101	2.02072
C	0.975192	1.27185	1.6322
O	0.0436105	1.61223	2.34824
H	2.39424	2.04849	3.00969
H	2.8631	2.20021	1.2705
H	2.94363	0.588434	2.09626
N	0.791894	0.641522	0.469672
C	-0.512457	0.272764	-0.0214949
C	-0.35858	-0.958944	-0.893718
O	0.755638	-1.37127	-1.2103
H	1.56169	0.334396	-0.0825521
H	-1.14466	-0.000627669	0.814092
C	-1.14672	1.42932	-0.824814
H	-0.50367	1.70312	-1.68827
H	-2.15724	1.16267	-1.19668
H	-1.24238	2.3223	-0.169226
N	-1.48235	-1.58344	-1.29766
C	-1.43405	-2.76612	-2.12538
H	-2.37475	-1.23717	-1.02785
H	-2.46048	-3.13092	-2.35026
H	-0.876633	-3.58259	-1.61163
H	-0.919327	-2.55031	-3.08955
C	5.42564	-1.76657	2.99608
C	5.57672	-1.70494	1.52485
O	5.95687	-2.67662	0.886301
H	5.72139	-2.77678	3.35366
H	4.36874	-1.57986	3.28042
H	6.07771	-1.00901	3.47979
N	5.279	-0.539305	0.946016
C	5.41779	-0.313174	-0.471079
C	5.69805	1.16173	-0.689476
O	5.61034	1.96359	0.23844
H	5.01013	0.254764	1.48362
H	6.27586	-0.862368	-0.838107
C	4.13917	-0.738888	-1.22551
H	3.26036	-0.168211	-0.856642
H	4.23875	-0.582586	-2.31921
H	3.94916	-1.81947	-1.045
N	6.05248	1.55398	-1.92904
C	6.3436	2.93629	-2.23014
H	6.12205	0.889804	-2.66599
H	6.61554	3.05647	-3.30197
H	7.19332	3.30288	-1.60976
H	5.45891	3.57943	-2.01841
