44
  This energy is -1.2236 and Call times are: 100952
C	-1.35302	-1.65757	2.7449
C	-0.673393	-1.65367	1.4299
O	-0.171149	-2.67163	0.973914
H	-1.29406	-2.67641	3.18579
H	-2.42112	-1.37935	2.6245
H	-0.859412	-0.939178	3.43291
N	-0.640673	-0.486675	0.782256
C	0.0218336	-0.316213	-0.486833
C	0.486186	1.1245	-0.588228
O	0.135827	1.95915	0.243829
H	-1.01807	0.342407	1.18483
H	0.90476	-0.942496	-0.515855
C	-0.926706	-0.662907	-1.6553
H	-1.82771	-0.0135299	-1.63213
H	-0.423934	-0.54891	-2.63752
H	-1.26015	-1.71902	-1.55634
N	1.2984	1.44899	-1.61343
C	1.79501	2.79403	-1.78787
H	1.57427	0.758871	-2.27427
H	2.44672	2.85911	-2.6869
H	2.38925	3.11148	-0.900523
H	0.951748	3.5112	-1.91318
C	3.68926	-0.995279	-2.99807
C	4.56508	-1.24116	-1.83032
O	5.00281	-2.35819	-1.59143
H	3.5209	-1.9519	-3.53879
H	4.16823	-0.27089	-3.68988
H	2.70926	-0.594211	-2.66368
N	4.84212	-0.184158	-1.06326
C	5.64477	-0.274835	0.13092
C	5.19831	0.816999	1.08493
O	4.41117	1.68846	0.720694
H	4.44515	0.710484	-1.24736
H	5.45666	-1.22427	0.616529
C	7.14568	-0.123978	-0.200394
H	7.34085	0.854358	-0.689078
H	7.77529	-0.205852	0.709225
H	7.44843	-0.928331	-0.905868
N	5.68803	0.789338	2.34009
C	5.3154	1.78391	3.31895
H	6.32069	0.0738421	2.61736
H	5.82226	1.58943	4.28978
H	4.21455	1.77346	3.49007
H	5.60118	2.80327	2.97199
