44
  This energy is 0.1038 and Call times are: 98338
C	-0.967097	-2.7856	1.84874
C	-0.689437	-1.33705	1.72327
O	-1.00617	-0.552933	2.60716
H	-1.48837	-2.97759	2.8117
H	-0.017109	-3.36008	1.83357
H	-1.61704	-3.12433	1.01452
N	-0.0826982	-0.944142	0.60083
C	0.214263	0.437665	0.316251
C	0.213838	0.621094	-1.18971
O	0.1481	-0.348969	-1.94228
H	0.132016	-1.58866	-0.127425
H	-0.573963	1.06242	0.717521
C	1.58123	0.841899	0.910579
H	2.39161	0.208236	0.491304
H	1.81506	1.90757	0.710099
H	1.56125	0.692019	2.01216
N	0.279232	1.87991	-1.66629
C	0.278843	2.15209	-3.08478
H	0.327719	2.65221	-1.04158
H	0.337817	3.24638	-3.27525
H	-0.651369	1.76344	-3.55904
H	1.14893	1.66255	-3.57918
C	-0.179904	-0.48608	0.887818
C	0.891965	0.28951	0.223956
O	0.628627	1.2145	-0.53199
H	-1.16949	-0.0952408	0.5656
H	-0.09646	-0.387864	1.9906
H	-0.107621	-1.55768	0.605827
N	2.14617	-0.0789056	0.495308
C	3.29337	0.552533	-0.107827
C	4.41342	-0.46839	-0.176847
O	4.30975	-1.5561	0.386936
H	2.34378	-0.860036	1.08066
H	3.05183	0.835626	-1.12475
C	3.73571	1.78734	0.707543
H	3.99371	1.49578	1.74796
H	4.60981	2.29044	0.245642
H	2.89813	2.51731	0.751608
N	5.51438	-0.141999	-0.882089
C	6.6288	-1.05216	-1.00795
H	5.57808	0.741259	-1.33472
H	7.43661	-0.601708	-1.62583
H	6.30677	-2.00295	-1.49125
H	7.04956	-1.29923	-0.00642124
