44
  This energy is 0.1031 and Call times are: 101215
C	-0.120161	-2.91488	1.89782
C	-0.743612	-1.92038	0.995924
O	-1.82738	-2.13419	0.47043
H	-0.776199	-3.80967	1.96747
H	0.00825162	-2.48353	2.9128
H	0.869263	-3.22479	1.50022
N	-0.0588902	-0.792524	0.79226
C	-0.516272	0.249688	-0.0927001
C	0.699689	0.975633	-0.636758
O	1.82109	0.7521	-0.184855
H	0.840962	-0.650421	1.19468
H	-1.02921	-0.196817	-0.935412
C	-1.44757	1.23368	0.648702
H	-0.918499	1.69994	1.50703
H	-1.81754	2.03308	-0.0255434
H	-2.32624	0.679438	1.04507
N	0.5049	1.862	-1.63297
C	1.60314	2.59607	-2.21709
H	-0.409362	2.02632	-1.98821
H	1.23983	3.27404	-3.02058
H	2.35109	1.8984	-2.6588
H	2.11908	3.21178	-1.44518
C	0.143587	0.189315	-0.360731
C	1.50218	0.758721	-0.506163
O	1.6968	1.77215	-1.16305
H	-0.5781	0.809711	-0.9353
H	-0.15724	0.185193	0.708022
H	0.119309	-0.848347	-0.755372
N	2.4886	0.106059	0.113031
C	3.86873	0.514252	0.0283337
C	4.73748	-0.718851	0.190521
O	4.24624	-1.79619	0.521778
H	2.32053	-0.740423	0.610099
H	4.06207	0.91761	-0.957842
C	4.20282	1.55883	1.11575
H	4.01465	1.1419	2.12807
H	5.25917	1.89141	1.05224
H	3.54989	2.44893	0.982553
N	6.05728	-0.589827	-0.0492363
C	6.96101	-1.70973	0.0743184
H	6.43555	0.289107	-0.32027
H	8.00304	-1.40236	-0.164274
H	6.66902	-2.52878	-0.622231
H	6.94386	-2.11607	1.11149
