44
  This energy is -1.4464 and Call times are: 101473
C	-0.465996	-0.279975	3.43761
C	-0.971485	-0.0198808	2.07087
O	-2.171	0.0571539	1.84361
H	-1.32667	-0.396394	4.13156
H	0.160886	0.569291	3.78186
H	0.135898	-1.21304	3.4519
N	-0.0507559	0.121147	1.11444
C	-0.389799	0.335296	-0.270384
C	0.724823	-0.238901	-1.12447
O	1.7746	-0.624703	-0.61376
H	0.92047	0.0150895	1.30768
H	-1.29262	-0.214186	-0.506223
C	-0.578445	1.83939	-0.565958
H	0.350924	2.40203	-0.334143
H	-0.853404	2.01629	-1.62597
H	-1.39331	2.24012	0.0757229
N	0.517237	-0.316723	-2.45371
C	1.51881	-0.853958	-3.34501
H	-0.340328	-0.00326957	-2.84793
H	1.16018	-0.833378	-4.39771
H	1.7582	-1.90851	-3.07687
H	2.4593	-0.259996	-3.28311
C	3.50976	0.546372	2.07492
C	4.3279	0.869525	0.884385
O	3.91772	1.63563	0.023426
H	2.53771	1.08174	2.0089
H	4.03496	0.867654	2.99887
H	3.31594	-0.54605	2.121
N	5.52325	0.27989	0.807918
C	6.41389	0.462488	-0.310996
C	7.26277	-0.787317	-0.448689
O	7.24123	-1.66163	0.415499
H	5.82617	-0.373039	1.49623
H	5.83172	0.558651	-1.21899
C	7.30841	1.70486	-0.107078
H	7.91365	1.60202	0.818744
H	7.98914	1.86421	-0.96832
H	6.666	2.60617	-0.000773712
N	8.02894	-0.90447	-1.55109
C	8.86553	-2.0612	-1.77074
H	8.02988	-0.188376	-2.24122
H	9.41714	-1.97071	-2.73239
H	8.25075	-2.98971	-1.8054
H	9.60935	-2.17016	-0.948547
