%nprocshared=8
%mem=8GB
%chk=ir2cl8-45.chk
#p b3lyp/genecp pop=full

Title Card Required

0 1
 Ir                 0.00000000    0.00000000    0.00000000
 Ir                 0.00000000    0.00000000    2.24015797
 Cl                 0.84967788    2.05130385    2.78200000
 Cl                 2.05130385   -0.84967788    2.78200000
 Cl                -2.05130385    0.84967788    2.78200000
 Cl                -0.84967788   -2.05130385    2.78200000
 Cl                 2.05130385    0.84967788   -0.54000000
 Cl                 0.84967788   -2.05130385   -0.54000000
 Cl                -0.84967788    2.05130385   -0.54000000
 Cl                -2.05130385   -0.84967788   -0.54000000

 Cl 0
6-31g**
****
Ir 0
LanL2DZ
****

Ir 0
LanL2DZ





