%nprocshared=8
%mem=8GB
%chk=re2cl8-stable.chk
#p b3lyp/genecp pop=full

Title Card Required

-2 1
 Re                -0.00    0.00    0.000
 Re                 0.00    0.0    2.24015797
 Cl                 1.57    1.57    2.782
 Cl                 1.57   -1.57    2.782
 Cl                -1.570    1.57    2.782
 Cl                -1.57   -1.57    2.782
 Cl                 1.57    1.57   -0.54
 Cl                 1.57   -1.57   -0.54
 Cl                -1.57    1.57   -0.54
 Cl                -1.57   -1.57   -0.54

 Cl 0
6-31g**
****
Re 0
LanL2DZ
****

Re 0
LanL2DZ





