%nprocshared=8
%mem=8GB
%chk=tccl8-opt.chk
#opt b3lyp/genecp pop=full

Title Card Required

-2 1
 Tc                -0.00    0.00    0.000
 Tc                 0.00    0.0    2.24015797
 Cl                 1.57    1.57    2.782
 Cl                 1.57   -1.57    2.782
 Cl                -1.570    1.57    2.782
 Cl                -1.57   -1.57    2.782
 Cl                 1.57    1.57   -0.54
 Cl                 1.57   -1.57   -0.54
 Cl                -1.57    1.57   -0.54
 Cl                -1.57   -1.57   -0.54

 Cl 0
6-31g**
****
Tc 0
LanL2DZ
****

Tc 0
LanL2DZ





