15
  This energy is -0.00209564 and Call times are: 192
C	-0.099254	1.17856	1.4726
O	-0.523369	0.0397759	1.35479
O	0.555643	1.81794	0.491752
H	-0.192131	1.81375	2.36594
H	0.605217	1.19479	-0.280122
C	0.0994556	-1.17863	-1.47252
O	0.523038	-0.0396464	-1.35492
O	-0.555494	-1.818	-0.491693
H	0.192908	-1.81408	-2.36563
H	-0.605501	-1.19468	0.280004
C	6.1451	0.223929	-0.390616
O	5.11337	0.153831	0.257771
O	7.27271	-0.32199	0.0632221
H	6.14265	0.738711	-1.35067
H	7.13195	-0.736177	0.907267
