15
  This energy is -1.5204e-05 and Call times are: 46334
C	-0.881467	0.183221	-1.66038
O	0.159812	0.687205	-1.27011
O	-1.61823	-0.645686	-0.90548
H	-1.34204	0.333651	-2.648
H	-1.15121	-0.738827	-0.0338287
C	0.881581	-0.183403	1.66029
O	-0.16	-0.686905	1.27024
O	1.61831	0.645551	0.905419
H	1.3425	-0.33435	2.64768
H	1.15104	0.739082	0.0339511
C	43.6978	0.110577	-0.427855
O	43.7778	1.08608	0.301377
O	43.9015	-1.11601	0.0512191
H	43.4571	0.245591	-1.48168
H	44.1017	-1.08718	0.980123
