15
  This energy is -0.000916366 and Call times are: 13093
C	-0.00913883	1.53659	-1.09827
O	0.885189	1.07873	-0.40465
O	-1.22158	0.970122	-1.19251
H	0.0534892	2.44297	-1.71852
H	-1.21212	0.163107	-0.61355
C	0.0092085	-1.53672	1.09809
O	-0.885303	-1.07852	0.404946
O	1.22163	-0.970215	1.19238
H	-0.0531967	-2.44347	1.71783
H	1.21201	-0.16293	0.613805
C	4.47054	-0.370844	-0.12474
O	5.62929	-0.386405	-0.507922
O	4.00017	0.657969	0.579397
H	3.81478	-1.20783	-0.361682
H	4.67569	1.31349	0.712584
