15
  This energy is -0.00037321 and Call times are: 26193
C	1.37549	-0.30097	1.25891
O	0.587074	0.627134	1.17175
O	1.38462	-1.33298	0.401799
H	2.15796	-0.414793	2.02372
H	0.660248	-1.17037	-0.258049
C	-1.37564	0.300853	-1.25877
O	-0.586834	-0.626942	-1.17198
O	-1.38473	1.3329	-0.401699
H	-2.15854	0.414356	-2.02319
H	-0.660037	1.17053	0.257851
C	4.51236	0.349595	-0.0280185
O	4.74273	-0.155329	-1.11511
O	5.08065	-0.127992	1.07854
H	3.83455	1.19993	0.0368752
H	5.6451	-0.865986	0.8772
