15
  This energy is -1.3985e-05 and Call times are: 39530
C	1.86791	0.131664	0.246969
O	1.23432	-0.247012	-0.725528
O	1.28405	0.545604	1.38167
H	2.96403	0.183745	0.324086
H	0.302502	0.474476	1.24726
C	-1.86791	-0.131447	-0.247046
O	-1.23432	0.246654	0.725655
O	-1.28405	-0.545443	-1.38172
H	-2.96405	-0.182905	-0.324409
H	-0.3025	-0.474784	-1.24714
C	27.1181	-0.24462	-0.00421621
O	27.5186	0.0172463	-1.12705
O	27.783	0.176193	1.07111
H	26.2069	-0.828831	0.118734
H	28.5543	0.671456	0.819213
