15
  This energy is -9.076e-06 and Call times are: 39068
C	1.74048	0.732994	0.0290078
O	0.947815	0.641481	-0.895046
O	1.47243	0.289335	1.26638
H	2.74632	1.17536	-0.0235547
H	0.556836	-0.0951776	1.24626
C	-1.74057	-0.732788	-0.0289494
O	-0.947675	-0.641821	0.894949
O	-1.47249	-0.289183	-1.26633
H	-2.74666	-1.17455	0.0237619
H	-0.556714	0.0948809	-1.24633
C	26.7926	-0.273884	0.305972
O	25.6302	-0.569184	0.0795702
O	27.3672	0.754825	-0.316208
H	27.3655	-0.858548	1.02478
H	26.7563	1.17339	-0.912329
