15
  This energy is -2.2715e-05 and Call times are: 32456
C	-0.293342	-0.333019	-1.83588
O	-0.0914569	0.722803	-1.25704
O	-0.341602	-1.51447	-1.20215
H	-0.457403	-0.45664	-2.9166
H	-0.187099	-1.33447	-0.237631
C	0.293568	0.332989	1.83585
O	0.0910846	-0.722753	1.25709
O	0.341769	1.51445	1.20212
H	0.45829	0.456545	2.91648
H	0.186775	1.33451	0.237681
C	16.2968	-0.350232	0.210578
O	16.0519	-0.586409	-0.961609
O	15.9907	0.831235	0.745313
H	16.7709	-1.11457	0.825202
H	15.5843	1.39915	0.10025
