15
  This energy is -1.1974e-05 and Call times are: 51626
C	-1.39367	-1.26942	0.116912
O	-1.19791	-0.400463	-0.718053
O	-0.580593	-1.47012	1.16496
H	-2.23246	-1.98113	0.124772
H	0.15019	-0.800627	1.09942
C	1.39379	1.26927	-0.117034
O	1.1977	0.400712	0.718254
O	0.580685	1.47001	-1.16505
H	2.23294	1.98055	-0.125266
H	-0.150364	0.80084	-1.09924
C	12.5113	0.268205	-0.313349
O	13.4955	0.77251	0.203094
O	12.0948	-0.942991	0.0542101
H	11.9683	0.815363	-1.08306
H	12.6576	-1.30318	0.730439
