15
  This energy is 7.95e-07 and Call times are: 44066
C	-1.15737	-0.874875	1.20933
O	-1.20388	0.263148	0.769658
O	-0.196718	-1.74836	0.871785
H	-1.87016	-1.32427	1.91653
H	0.409245	-1.28412	0.23629
C	1.15725	0.874798	-1.20951
O	1.2041	-0.26302	-0.769369
O	0.196624	1.7483	-0.871915
H	1.86965	1.32399	-1.91722
H	-0.409057	1.28423	-0.236041
C	54.254	-0.303624	-0.221491
O	53.8202	0.569027	-0.956436
O	53.9704	-0.300138	1.08048
H	54.8796	-1.09337	-0.63577
H	53.4189	0.441102	1.30436
