15
  This energy is -1.5125e-05 and Call times are: 41000
C	-1.58265	-0.0817694	-1.02759
O	-0.63148	-0.846597	-0.99773
O	-1.65274	1.02463	-0.272118
H	-2.47994	-0.190286	-1.65468
H	-0.818817	1.06351	0.266044
C	1.58254	0.0816515	1.02776
O	0.631653	0.846791	0.997454
O	1.65266	-1.02472	0.272242
H	2.47954	0.189808	1.65533
H	0.818965	-1.06333	-0.266279
C	38.8492	-0.00905618	0.378906
O	37.9578	0.823473	0.42464
O	39.0123	-0.773051	-0.700539
H	39.518	-0.127773	1.23057
H	38.3636	-0.56463	-1.36341
