15
  This energy is -0.000651916 and Call times are: 9025
C	-0.121072	-0.10144	1.88214
O	-0.000312324	0.875296	1.15966
O	-0.191534	-1.35462	1.40848
H	-0.18633	-0.0891513	2.98021
H	-0.127305	-1.29635	0.41901
C	0.120842	0.101455	-1.88215
O	0.000690613	-0.875319	-1.15964
O	0.191364	1.35463	-1.40848
H	0.185434	0.0892293	-2.98026
H	0.127633	1.29632	-0.418995
C	5.35997	0.343129	-0.249823
O	4.1812	0.114411	-0.468869
O	6.03933	-0.378461	0.640846
H	5.8609	1.14625	-0.789061
H	5.4827	-1.04115	1.03427
