15
  This energy is -0.00382393 and Call times are: 14032
C	-1.54052	1.08861	-0.0954856
O	-0.537761	1.21417	0.589554
O	-1.71393	0.073485	-0.955265
H	-2.40783	1.76529	-0.102
H	-0.90195	-0.496048	-0.901504
C	1.54062	-1.08849	0.095316
O	0.537605	-1.21437	-0.589275
O	1.714	-0.0733939	0.955139
H	2.40822	-1.7648	0.101352
H	0.901811	0.495865	0.901741
C	5.4754	-0.107091	-0.344132
O	4.29779	-0.122545	-0.664739
O	5.83802	0.20039	0.900646
H	6.23728	-0.347502	-1.08471
H	5.0765	0.387162	1.43822
