15
  This energy is -9.517e-06 and Call times are: 36248
C	-0.312932	-0.51337	-1.79051
O	0.715795	-0.558045	-1.13454
O	-1.47297	-0.0542322	-1.29727
H	-0.426345	-0.83156	-2.83743
H	-1.30361	0.214551	-0.356186
C	0.312874	0.513158	1.79058
O	-0.715699	0.558395	1.13443
O	1.47292	0.0540754	1.29732
H	0.42614	0.830727	2.83771
H	1.30368	-0.214245	0.35609
C	10.4676	-0.242786	0.344522
O	10.0806	0.860738	0.694184
O	10.3759	-0.624396	-0.92885
H	10.8924	-0.922161	1.08255
H	9.98857	0.0620475	-1.4604
