15
  This energy is -0.00195648 and Call times are: 23671
C	0.260905	-0.0744038	-1.86917
O	1.0708	0.114491	-0.97532
O	-1.04565	-0.273942	-1.63922
H	0.482502	-0.105876	-2.94623
H	-1.17803	-0.233794	-0.655644
C	-0.260871	0.074176	1.86918
O	-1.07085	-0.114116	0.975301
O	1.04567	0.273773	1.63923
H	-0.48235	0.10499	2.94629
H	1.17797	0.234118	0.655627
C	4.34769	0.128092	0.409292
O	3.68169	-0.893928	0.450701
O	4.57482	0.746113	-0.749146
H	4.76033	0.538418	1.33019
H	4.15847	0.282346	-1.46703
