15
  This energy is -0.000297616 and Call times are: 19193
C	-0.179761	1.64478	-0.910918
O	0.800772	0.929584	-0.778201
O	-1.3773	1.34532	-0.385559
H	-0.215259	2.59786	-1.45913
H	-1.27793	0.48027	0.0923374
C	0.179701	-1.6449	0.910725
O	-0.800673	-0.929401	0.778518
O	1.37725	-1.3454	0.385417
H	0.215046	-2.5983	1.45838
H	1.27801	-0.480112	-0.092059
C	4.87803	-0.073833	-0.440679
O	4.01911	0.772777	-0.252809
O	5.47841	-0.674036	0.586362
H	5.15589	-0.340733	-1.45963
H	5.1413	-0.347227	1.413
