15
  This energy is -1.8495e-05 and Call times are: 52256
C	1.79988	0.51087	-0.258546
O	1.22457	0.170506	0.763092
O	1.1892	0.579335	-1.45109
H	2.85885	0.797661	-0.339163
H	0.243533	0.310177	-1.31026
C	-1.79982	-0.511088	0.258501
O	-1.22467	-0.170146	-0.763018
O	-1.18915	-0.579496	1.45105
H	-2.85862	-0.79852	0.339008
H	-0.243617	-0.309864	1.31031
C	12.6146	-0.405214	0.203289
O	12.4614	0.510645	0.995448
O	12.7198	-0.164867	-1.10311
H	12.6658	-1.42984	0.569647
H	12.6584	0.766911	-1.28143
