15
  This energy is -3.3128e-05 and Call times are: 8143
C	0.364434	-1.60697	0.923169
O	-0.362268	-1.40653	-0.0371964
O	1.07255	-0.634692	1.51732
H	0.532562	-2.57629	1.41542
H	0.877719	0.207954	1.02891
C	-0.364255	1.60693	-0.923308
O	0.361973	1.4066	0.037425
O	-1.07242	0.634662	-1.51742
H	-0.531877	2.57612	-1.41598
H	-0.87797	-0.20789	-1.0287
C	12.7066	-0.198458	-0.407812
O	13.3057	0.864889	-0.395003
O	12.121	-0.663217	0.695211
H	12.6507	-0.772824	-1.33177
H	12.2478	-0.0648422	1.42299
