15
  This energy is -0.00135788 and Call times are: 26649
C	0.722325	-1.52217	-0.853616
O	0.855133	-1.13642	0.297093
O	-0.0183202	-0.868166	-1.76109
H	1.17476	-2.42551	-1.28885
H	-0.395742	-0.0688851	-1.30803
C	-0.722511	1.52204	0.853674
O	-0.854828	1.13662	-0.297189
O	0.0181825	0.868075	1.76113
H	-1.17548	2.42503	1.2891
H	0.396003	0.0690646	1.30793
C	4.36618	-0.354182	0.0971763
O	4.21956	-0.194455	-1.10398
O	3.77723	0.462997	0.969456
H	4.98555	-1.17417	0.458711
H	3.27027	1.1294	0.519254
