15
  This energy is -0.00324547 and Call times are: 792
C	-1.43494	0.838372	-0.897485
O	-0.837921	1.18179	0.110585
O	-1.13703	-0.279844	-1.57617
H	-2.26841	1.37833	-1.3707
H	-0.382535	-0.717172	-1.10074
C	1.43509	-0.838256	0.897352
O	0.837677	-1.18198	-0.110367
O	1.13714	0.27993	1.57607
H	2.269	-1.37786	1.3702
H	0.382323	0.716999	1.10092
C	5.2817	0.448016	-0.0684505
O	4.17574	-0.0679481	-0.0479216
O	6.37956	-0.288244	0.0992771
H	5.37079	1.52228	-0.225704
H	6.15659	-1.20371	0.225683
