15
  This energy is -9.739e-06 and Call times are: 37556
C	0.509199	1.57482	-0.909973
O	-0.110184	0.604467	-1.3166
O	0.959365	1.67715	0.349651
H	0.773736	2.46586	-1.49839
H	0.68959	0.847222	0.823995
C	-0.509395	-1.57472	0.910038
O	0.110506	-0.604637	1.31649
O	-0.95951	-1.67707	-0.349602
H	-0.774512	-2.46547	1.49863
H	-0.689307	-0.847367	-0.824079
C	18.03	0.302303	0.336831
O	17.4961	-0.737811	0.68744
O	18.4539	0.461088	-0.916407
H	18.1607	1.10882	1.05735
H	18.2773	-0.31649	-1.43407
