15
  This energy is -0.00233788 and Call times are: 11980
C	-0.0669181	1.61646	-0.974669
O	0.873347	0.863348	-0.776437
O	-1.29701	1.39064	-0.48923
H	-0.0363456	2.54929	-1.55695
H	-1.25695	0.540234	0.0223967
C	0.0668607	-1.61658	0.974477
O	-0.873252	-0.863159	0.776752
O	1.29697	-1.39073	0.489089
H	0.0361425	-2.54975	1.5562
H	1.25703	-0.540069	-0.022121
C	4.59239	0.158511	-0.414823
O	4.73837	1.00451	0.452801
O	4.20145	-1.07645	-0.102502
H	4.78413	0.41723	-1.4555
H	4.07097	-1.16274	0.835212
