15
  This energy is -2.1088e-05 and Call times are: 42008
C	0.51474	-1.81067	0.154679
O	-0.238668	-1.27944	-0.645784
O	1.14277	-1.13167	1.12644
H	0.772923	-2.87949	0.188286
H	0.869084	-0.180667	1.04132
C	-0.51456	1.81071	-0.154818
O	0.238371	1.27938	0.646012
O	-1.14264	1.1317	-1.12654
H	-0.772232	2.87963	-0.188845
H	-0.869337	0.180617	-1.04111
C	32.3891	0.423662	0.161647
O	33.2059	0.285584	-0.734723
O	31.6451	-0.604021	0.568867
H	32.268	1.39825	0.633049
H	31.8532	-1.38891	0.0744865
