15
  This energy is -0.00170413 and Call times are: 4913
C	0.357699	-0.219503	-1.84154
O	0.727043	0.655069	-1.0739
O	-0.423427	-1.24165	-1.46098
H	0.60522	-0.287506	-2.91124
H	-0.608951	-1.12198	-0.492573
C	-0.357513	0.219376	1.84159
O	-0.727349	-0.65486	1.07381
O	0.423564	1.24156	1.46102
H	-0.604483	0.287028	2.91144
H	0.60868	1.12215	0.492504
C	4.06305	0.0633108	0.103951
O	4.34042	-1.11461	-0.0552828
O	4.9951	1.00618	-0.0294406
H	3.04197	0.345502	0.357869
H	5.83578	0.621537	-0.250978
