15
  This energy is -2.768e-06 and Call times are: 49988
C	-1.3548	1.02309	-0.82778
O	-1.40813	0.316779	0.166632
O	-0.232104	1.19289	-1.54227
H	-2.18883	1.59631	-1.25901
H	0.477062	0.653235	-1.10362
C	1.35485	-1.0229	0.827908
O	1.40804	-0.31708	-0.166842
O	0.232146	-1.19276	1.54237
H	2.18905	-1.5956	1.25953
H	-0.477137	-0.653494	1.10343
C	26.5051	-0.143952	-0.419547
O	27.6758	-0.314924	-0.11948
O	25.6554	0.411666	0.44341
H	26.1525	-0.449385	-1.40394
H	26.0944	0.628015	1.25841
