15
  This energy is -3.356e-06 and Call times are: 16939
C	1.08973	0.878175	-1.26835
O	1.23881	0.756551	-0.0627131
O	0.0416619	0.363668	-1.92911
H	1.76887	1.4067	-1.95361
H	-0.528325	-0.0967076	-1.25849
C	-1.08961	-0.87837	1.26831
O	-1.239	-0.75623	0.0627763
O	-0.0415762	-0.363812	1.92909
H	-1.76841	-1.40746	1.95348
H	0.528153	0.096984	1.25854
C	13.0712	0.426072	-0.0872704
O	12.1239	-0.334956	0.0280723
O	14.3208	-0.0180021	0.0420911
H	12.8917	1.47961	-0.298281
H	14.3309	-0.951083	0.22385
