15
  This energy is -1.2584e-05 and Call times are: 40874
C	0.0151176	-1.80623	0.552004
O	0.592996	-1.27061	-0.380597
O	-0.78481	-1.13666	1.39555
H	0.0686291	-2.87199	0.819313
H	-0.789819	-0.18796	1.10143
C	-0.0149394	1.80627	-0.551863
O	-0.593289	1.27054	0.380367
O	0.784941	1.13669	-1.39544
H	-0.0679195	2.87215	-0.818784
H	0.789559	0.187903	-1.10162
C	36.8237	0.217811	0.390474
O	36.0266	-0.68565	0.194853
O	37.7875	0.47817	-0.491938
H	36.745	0.817089	1.29678
H	37.7391	-0.117671	-1.23113
