15
  This energy is -0.0011557 and Call times are: 17485
C	-0.427375	-1.82482	-0.234094
O	0.241491	-1.08381	-0.937016
O	-1.00842	-1.42073	0.905589
H	-0.638022	-2.88644	-0.430926
H	-0.781224	-0.461128	1.02437
C	0.427562	1.82475	0.234214
O	-0.241799	1.08391	0.936817
O	1.00856	1.42068	-0.9055
H	0.638765	2.88621	0.431379
H	0.780953	0.461217	-1.02454
C	4.13564	-0.368226	-0.0162442
O	5.2652	-0.584511	-0.425036
O	3.78835	0.8436	0.415475
H	3.40441	-1.17561	-0.00475389
H	4.51915	1.44809	0.349913
