15
  This energy is -3.503e-06 and Call times are: 22915
C	-0.436294	0.622773	-1.72893
O	0.342759	-0.253615	-1.38894
O	-1.16011	1.33527	-0.852453
H	-0.64445	0.937363	-2.76231
H	-0.927369	1.00463	0.0547783
C	0.436121	-0.622925	1.72892
O	-0.342475	0.253866	1.38896
O	1.15998	-1.33538	0.852443
H	0.643793	-0.937976	2.76225
H	0.92761	-1.0044	-0.0547542
C	16.8082	-0.285024	0.340696
O	16.0463	-0.422595	-0.602895
O	17.7811	0.62471	0.303047
H	16.6905	-0.913495	1.22266
H	17.7682	1.09951	-0.520469
