15
  This energy is 0.000166617 and Call times are: 8983
C	-0.0265286	1.77899	-0.633949
O	0.237243	1.35113	0.478674
O	-0.365961	0.983573	-1.65956
H	-0.0224126	2.8363	-0.937654
H	-0.350854	0.0496874	-1.32164
C	0.0267496	-1.77901	0.633886
O	-0.237607	-1.3511	-0.478569
O	0.366124	-0.983586	1.65951
H	0.0232818	-2.83637	0.937428
H	0.350536	-0.0496666	1.32172
C	7.59145	0.345977	-0.0330763
O	7.09551	0.256346	1.07859
O	7.26434	-0.515176	-0.995849
H	8.30922	1.13913	-0.239062
H	6.63177	-1.1508	-0.680247
