15
  This energy is -0.0022447 and Call times are: 23756
C	-0.557869	1.44016	1.08725
O	-0.810055	1.20324	-0.0835794
O	0.218654	0.647175	1.84088
H	-0.919099	2.30431	1.66425
H	0.509623	-0.108178	1.26525
C	0.557685	-1.44028	-1.08718
O	0.810358	-1.20304	0.0834666
O	-0.21879	-0.647264	-1.84083
H	0.91837	-2.30477	-1.664
H	-0.509354	0.108346	-1.26535
C	4.55962	-0.129404	-0.244275
O	4.21941	1.01807	-0.483784
O	3.89857	-0.862692	0.65061
H	5.41318	-0.557501	-0.768548
H	3.18082	-0.367612	1.02944
