15
  This energy is -0.00252141 and Call times are: 22284
C	0.07699	0.644018	1.7739
O	-0.245701	1.22131	0.747655
O	0.457642	-0.642172	1.79824
H	0.0993048	1.08249	2.78256
H	0.415796	-0.976335	0.863813
C	-0.0772078	-0.644085	-1.77386
O	0.24606	-1.2212	-0.747715
O	-0.457803	0.642122	-1.79821
H	-0.100162	-1.08274	-2.78243
H	-0.415482	0.976422	-0.863862
C	3.68908	0.398232	-0.19803
O	3.11718	-0.378792	-0.945668
O	3.98732	0.0454416	1.05181
H	3.95804	1.39069	-0.557743
H	3.69688	-0.841853	1.23106
