15
  This energy is 0.000153813 and Call times are: 20877
C	0.75205	-1.73129	0.0667583
O	0.302869	-1.04056	0.967706
O	0.781938	-1.33109	-1.21337
H	1.17833	-2.73948	0.176259
H	0.385893	-0.420702	-1.24354
C	-0.752257	1.7312	-0.0667954
O	-0.302528	1.04072	-0.967645
O	-0.782091	1.33102	1.21334
H	-1.17914	2.73912	-0.176383
H	-0.385596	0.420836	1.24358
C	6.32607	-0.452023	-0.0271014
O	6.40101	-0.046867	1.12182
O	6.18378	0.400176	-1.04151
H	6.37619	-1.52227	-0.223968
H	6.15476	1.29717	-0.727922
