15
  This energy is -0.000323067 and Call times are: 52719
C	-0.886954	-1.65046	0.238106
O	-0.850477	-0.672056	0.967465
O	-0.248955	-1.70543	-0.940753
H	-1.42781	-2.587	0.439426
H	0.215878	-0.835995	-1.06151
C	0.886767	1.65054	-0.238214
O	0.850784	0.67192	-0.967287
O	0.248817	1.70549	0.940673
H	1.42708	2.58733	-0.43983
H	-0.215608	0.835875	1.06165
C	4.54063	0.011874	-0.299282
O	3.91109	-1.03269	-0.347801
O	4.20563	0.969049	0.56507
H	5.38539	0.161983	-0.97051
H	3.45478	0.706636	1.08578
