15
  This energy is -5.659e-06 and Call times are: 46628
C	-0.995581	-0.191417	-1.59361
O	-0.197509	0.674577	-1.27157
O	-1.31237	-1.22364	-0.797408
H	-1.54453	-0.242866	-2.54553
H	-0.786916	-1.11872	0.0389246
C	0.99575	0.19129	1.59351
O	0.197231	-0.674368	1.27172
O	1.31249	1.22355	0.797339
H	1.5452	0.242389	2.54517
H	0.786672	1.11889	-0.0387883
C	37.5749	0.360752	0.00317508
O	36.6169	0.49573	0.747373
O	37.7308	-0.753603	-0.710579
H	38.3098	1.16082	-0.0774543
H	37.0208	-1.3636	-0.544297
