15
  This energy is -2.3851e-05 and Call times are: 16729
C	-0.173703	1.71718	0.76716
O	0.7285	1.25404	0.087378
O	-1.26906	1.01762	1.09973
H	-0.211518	2.73404	1.18515
H	-1.17323	0.115848	0.694541
C	0.173594	-1.7171	-0.767348
O	-0.728321	-1.25416	-0.0870677
O	1.26897	-1.01757	-1.09987
H	0.211112	-2.73375	-1.1859
H	1.17338	-0.115959	-0.694268
C	15.6494	0.358792	-0.272855
O	16.5579	-0.374982	-0.627964
O	14.927	0.0728737	0.809704
H	15.4278	1.25693	-0.848132
H	15.2268	-0.734334	1.21262
