15
  This energy is -0.0025305 and Call times are: 18751
C	-0.734638	-1.68537	-0.432715
O	-1.21854	-0.764064	0.205725
O	0.494687	-1.63543	-0.967542
H	-1.2217	-2.64764	-0.649423
H	0.876924	-0.748019	-0.737401
C	0.734552	1.68545	0.432519
O	1.21868	0.763923	-0.205402
O	-0.49475	1.63549	0.967396
H	1.22135	2.64798	0.648668
H	-0.876793	0.747895	0.737677
C	4.50212	0.0117276	0.405893
O	4.58182	1.07529	-0.187626
O	3.87392	-1.02799	-0.141704
H	4.94989	-0.0872394	1.39403
H	3.53309	-0.803132	-1.00022
