15
  This energy is -0.00154358 and Call times are: 1668
C	-0.88736	-1.0185	-1.3201
O	0.00885371	-1.34199	-0.556732
O	-1.42134	0.21208	-1.33802
H	-1.36293	-1.66722	-2.07053
H	-0.951771	0.743801	-0.642791
C	0.8872	1.01843	1.32025
O	-0.00859085	1.34209	0.556479
O	1.42122	-0.212127	1.33813
H	1.36232	1.66696	2.07114
H	0.951994	-0.743702	0.64257
C	4.75758	-0.103086	0.418125
O	3.84924	-0.0952276	-0.397136
O	6.00761	0.171357	0.0471638
H	4.54261	-0.337185	1.46009
H	6.0509	0.356385	-0.884323
