15
  This energy is -3.5613e-05 and Call times are: 6547
C	1.63114	0.323589	0.895591
O	1.009	1.03787	0.125322
O	1.21536	-0.901271	1.25143
H	2.58294	0.576373	1.38582
H	0.357957	-1.06703	0.778204
C	-1.63125	-0.323501	-0.895411
O	-1.00881	-1.03802	-0.125619
O	-1.21545	0.901335	-1.2513
H	-2.58339	-0.576011	-1.38513
H	-0.357796	1.0669	-0.778458
C	16.3115	-0.19811	-0.398331
O	15.3038	0.21352	0.153755
O	17.5082	-0.0463679	0.167842
H	16.2304	-0.694793	-1.36447
H	17.4326	0.400838	1.00335
