15
  This energy is -4.205e-06 and Call times are: 43226
C	1.67246	0.69191	0.539955
O	1.27628	-0.462698	0.517669
O	0.916258	1.72997	0.152174
H	2.66703	1.02782	0.868805
H	0.0382516	1.36154	-0.130538
C	-1.67238	-0.691929	-0.54017
O	-1.27641	0.462728	-0.517315
O	-0.916199	-1.72998	-0.152333
H	-2.66672	-1.02792	-0.869645
H	-0.038369	-1.3615	0.130844
C	49.7455	-0.0883066	0.371039
O	48.9542	0.825513	0.539882
O	49.8239	-0.712608	-0.803531
H	50.3942	-0.395874	1.19038
H	49.2048	-0.344553	-1.42398
