15
  This energy is -0.000343441 and Call times are: 13393
C	-1.78306	-0.62	0.0608645
O	-1.02552	-0.332326	0.974075
O	-1.43385	-0.532038	-1.23146
H	-2.81786	-0.977669	0.167723
H	-0.496016	-0.206006	-1.2585
C	1.78298	0.620217	-0.0608737
O	1.02565	0.331969	-0.97406
O	1.43379	0.532198	1.23145
H	2.81756	0.978519	-0.167738
H	0.496127	0.205697	1.2585
C	7.6598	0.00585383	0.384716
O	8.64036	0.731011	0.434018
O	7.38762	-0.697185	-0.713997
H	7.00077	-0.0664697	1.2491
H	8.04107	-0.540063	-1.38638
