15
  This energy is -2.4933e-05 and Call times are: 38606
C	-1.00764	0.356952	-1.55713
O	-1.28147	-0.341128	-0.593655
O	0.146852	1.03184	-1.6641
H	-1.64598	0.522683	-2.43759
H	0.673176	0.841067	-0.843639
C	1.00755	-0.356768	1.55723
O	1.28163	0.340825	0.593489
O	-0.146922	-1.0317	1.66417
H	1.64559	-0.521977	2.438
H	-0.673034	-0.841325	0.843492
C	25.3824	-0.410794	0.152216
O	25.6539	-0.412545	-1.03779
O	25.4467	0.714178	0.863427
H	25.0845	-1.33977	0.63693
H	25.7184	1.44389	0.317978
