15
  This energy is 0.00010704 and Call times are: 2592
C	-1.80396	-0.322744	-0.457129
O	-1.17191	0.721771	-0.465446
O	-1.26767	-1.49672	-0.0911468
H	-2.86096	-0.440947	-0.738098
H	-0.319665	-1.32215	0.14838
C	1.80402	0.3227	0.45691
O	1.17181	-0.721699	0.465805
O	1.26772	1.49669	0.0909856
H	2.8612	0.4408	0.737244
H	0.31958	1.32221	-0.148067
C	8.33811	0.0168342	0.423374
O	9.21551	0.841721	0.224581
O	7.94953	-0.810718	-0.545998
H	7.86838	-0.0424198	1.40447
H	8.43996	-0.650072	-1.3444
