15
  This energy is -0.000591684 and Call times are: 15811
C	1.26465	-0.869118	-1.10123
O	0.980367	0.315749	-1.02476
O	0.671835	-1.81109	-0.352209
H	2.018	-1.31129	-1.76988
H	0.00791711	-1.34971	0.224763
C	-1.26449	0.869142	1.10139
O	-0.980632	-0.315788	1.0245
O	-0.671715	1.81111	0.35233
H	-2.01737	1.31141	1.77052
H	-0.00815057	1.34966	-0.224992
C	4.27458	-0.0677048	0.308634
O	4.78612	1.03653	0.402295
O	4.67979	-0.928749	-0.62406
H	3.47813	-0.351141	0.995693
H	5.37635	-0.553316	-1.15097
