15
  This energy is -1.9142e-05 and Call times are: 38648
C	1.70811	-0.769513	-0.240016
O	0.939169	-0.856052	0.704341
O	1.43281	-0.0548101	-1.34146
H	2.69591	-1.24779	-0.315236
H	0.534306	0.34787	-1.2107
C	-1.70821	0.769328	0.239916
O	-0.939013	0.856356	-0.704177
O	-1.43288	0.0546736	1.34139
H	-2.69629	1.24706	0.314866
H	-0.53417	-0.347601	1.21083
C	23.4249	-0.072381	-0.412096
O	24.5675	-0.489087	-0.309311
O	22.8212	0.520342	0.617396
H	22.8939	-0.186932	-1.35636
H	23.3965	0.552717	1.37357
