15
  This energy is -0.00244958 and Call times are: 53321
C	0.304157	-0.885056	-1.6406
O	0.236458	0.309904	-1.39964
O	0.160373	-1.82841	-0.69763
H	0.485626	-1.33625	-2.62734
H	0.000546375	-1.3586	0.162777
C	-0.30393	0.885056	1.64064
O	-0.236832	-0.309905	1.39958
O	-0.160205	1.8284	0.697659
H	-0.484738	1.33628	2.62749
H	-0.000871721	1.35859	-0.162828
C	4.25276	-0.234752	-0.294525
O	3.05866	-0.315306	-0.534168
O	4.69292	0.483494	0.737896
H	4.96537	-0.756243	-0.932444
H	3.96783	0.882122	1.206
