15
  This energy is -0.00139607 and Call times are: 12443
C	-0.439837	1.83682	0.00675808
O	-0.135106	1.10417	0.934623
O	-0.514775	1.41205	-1.26357
H	-0.685821	2.90642	0.081553
H	-0.283007	0.446209	-1.26218
C	0.440058	-1.83676	-0.00679257
O	0.134742	-1.10426	-0.934566
O	0.514939	-1.41201	1.26354
H	0.686689	-2.90621	-0.0816664
H	0.28269	-0.446288	1.26222
C	3.66302	-0.0181584	0.120258
O	4.17834	-1.12299	0.0603363
O	4.36971	1.07824	-0.151816
H	2.61381	0.0711311	0.399344
H	5.26541	0.855279	-0.379394
