15
  This energy is -2.0879e-05 and Call times are: 32288
C	-0.327206	1.0671	1.52369
O	-0.496988	-0.130661	1.359
O	0.157565	1.87322	0.567174
H	-0.540347	1.62957	2.44476
H	0.327848	1.3081	-0.2317
C	0.327421	-1.06713	-1.52362
O	0.496634	0.130721	-1.35913
O	-0.157405	-1.87325	-0.567119
H	0.541182	-1.62973	-2.44446
H	-0.328152	-1.30804	0.231589
C	12.1448	0.235505	-0.155304
O	13.2059	0.80682	-0.348656
O	12.1107	-0.94976	0.45256
H	11.2162	0.700792	-0.483774
H	12.9871	-1.23635	0.683915
