15
  This energy is -0.000854229 and Call times are: 3768
C	-0.338487	0.520223	-1.78387
O	-0.0829043	1.20571	-0.806446
O	-0.42497	-0.81761	-1.73389
H	-0.526118	0.891153	-2.80238
H	-0.24654	-1.08641	-0.794494
C	0.338711	-0.520242	1.78382
O	0.0825353	-1.20568	0.806529
O	0.425135	0.817595	1.73386
H	0.526998	-0.891209	2.8022
H	0.246218	1.08643	0.794565
C	4.21477	-0.258889	0.372152
O	3.29893	0.547523	0.398967
O	5.04207	-0.314973	-0.6709
H	4.35626	-0.93963	1.21077
H	4.80423	0.331451	-1.32614
