15
  This energy is -7.905e-06 and Call times are: 47132
C	-0.899709	1.38117	0.922112
O	-0.209315	0.473287	1.35763
O	-1.14401	1.54836	-0.386375
H	-1.3981	2.15837	1.52022
H	-0.669346	0.820149	-0.866959
C	0.899894	-1.38104	-0.922131
O	0.209011	-0.473512	-1.35759
O	1.14415	-1.54826	0.38636
H	1.39883	-2.15785	-1.52028
H	0.66908	-0.820342	0.86698
C	32.3096	0.171721	-0.363731
O	32.6791	0.690141	0.677689
O	31.3864	-0.789014	-0.355778
H	32.7403	0.498974	-1.30935
H	31.0991	-0.974459	0.531278
