15
  This energy is -0.00270134 and Call times are: 21574
C	0.708421	0.190909	1.74043
O	0.502041	1.03718	0.884972
O	0.441074	-1.11099	1.55777
H	1.12646	0.372387	2.74166
H	0.0691636	-1.20652	0.641731
C	-0.708633	-0.19088	-1.74034
O	-0.501692	-1.03722	-0.885113
O	-0.441231	1.11101	-1.5577
H	-1.12729	-0.372255	-2.74134
H	-0.0688614	1.20647	-0.641853
C	4.60427	-0.440638	0.0491208
O	3.78013	0.280377	0.58831
O	5.64686	0.0811757	-0.596041
H	4.48497	-1.5224	0.096609
H	5.62661	1.0309	-0.558787
