15
  This energy is -3.3481e-05 and Call times are: 23419
C	-0.738979	-0.600327	1.63123
O	-0.951678	0.429224	1.01046
O	0.124052	-1.53866	1.21352
H	-1.20814	-0.889817	2.5832
H	0.510062	-1.21875	0.356069
C	0.73881	0.600219	-1.63135
O	0.951956	-0.429045	-1.01028
O	-0.124177	1.53858	-1.2136
H	1.20747	0.889414	-2.58365
H	-0.509816	1.21889	-0.355907
C	15.8832	-0.412636	0.0435851
O	14.9623	-0.391572	-0.757241
O	16.2547	0.695758	0.683125
H	16.4063	-1.34847	0.236665
H	15.7163	1.43402	0.420652
