15
  This energy is -0.0014827 and Call times are: 27280
C	-0.72463	-1.07027	-1.37726
O	0.179166	-0.250567	-1.41989
O	-1.39555	-1.35814	-0.25175
H	-1.09954	-1.66374	-2.22425
H	-1.01141	-0.793184	0.469242
C	0.724779	1.0701	1.37731
O	-0.179412	0.250844	1.4198
O	1.39566	1.35801	0.251787
H	1.10014	1.66309	2.22443
H	1.0112	0.793421	-0.469306
C	4.54413	0.18093	0.413589
O	5.41939	0.548107	-0.353806
O	3.59421	-0.661695	0.00968273
H	4.54069	0.546856	1.43965
H	3.71796	-0.89844	-0.902684
