15
  This energy is -0.00162319 and Call times are: 8941
C	-1.48783	1.01222	0.573737
O	-1.28815	-0.190149	0.644569
O	-0.607084	1.86705	0.0321569
H	-2.38404	1.5408	0.930897
H	0.173054	1.33059	-0.268096
C	1.48793	-1.01218	-0.573531
O	1.28799	0.190095	-0.644907
O	0.607157	-1.86703	-0.032005
H	2.38443	-1.54069	-0.930088
H	-0.173191	-1.33063	0.267799
C	5.56371	-0.105243	0.409708
O	6.39208	-0.245803	-0.475637
O	4.33122	0.315713	0.128163
H	5.83628	-0.32671	1.4409
H	4.23161	0.470296	-0.804554
