15
  This energy is -1.5603e-05 and Call times are: 7135
C	0.408772	-1.83001	0.226655
O	0.812991	-0.85795	0.844942
O	-0.458931	-1.737	-0.792273
H	0.689794	-2.87716	0.412807
H	-0.670721	-0.773485	-0.907823
C	-0.408949	1.82999	-0.22651
O	-0.812699	0.857989	-0.845181
O	0.458799	1.73698	0.79238
H	-0.690476	2.87708	-0.412225
H	0.670969	0.773518	0.907608
C	26.6039	-0.00803178	0.220946
O	27.2556	0.994886	0.464502
O	27.0696	-0.936259	-0.61398
H	25.6312	-0.144537	0.691973
H	27.924	-0.690291	-0.950412
