15
  This energy is -0.000550909 and Call times are: 34012
C	-0.251022	1.26268	1.38204
O	0.694712	1.11273	0.624627
O	-1.34581	0.488244	1.34383
H	-0.332881	2.02503	2.17088
H	-1.20928	-0.173917	0.616188
C	0.250921	-1.26253	-1.38219
O	-0.694546	-1.11297	-0.624384
O	1.34574	-0.488137	-1.34394
H	0.332507	-2.02446	-2.17147
H	1.20941	0.173706	-0.615975
C	5.52489	0.367891	-0.140789
O	6.12957	-0.248833	0.721649
O	4.33704	-0.0538038	-0.572897
H	5.96221	1.2728	-0.561006
H	4.07704	-0.850144	-0.123433
