15
  This energy is -0.00191907 and Call times are: 30515
C	1.6621	0.868627	-0.224317
O	1.2653	0.168653	0.693921
O	0.914765	1.15008	-1.3023
H	2.65028	1.34725	-0.291921
H	0.0421766	0.691643	-1.17989
C	-1.66201	-0.868811	0.224207
O	-1.26544	-0.168349	-0.69374
O	-0.914703	-1.15022	1.30222
H	-2.64996	-1.34798	0.291511
H	-0.0423001	-0.691377	1.18004
C	5.01351	-0.2887	-0.33092
O	5.07436	0.877532	-0.685871
O	4.64547	-0.604169	0.910268
H	5.26307	-1.07933	-1.03756
H	4.4578	0.178366	1.41642
