15
  This energy is 5.6515e-05 and Call times are: 9733
C	0.381119	0.37613	1.81126
O	0.35176	1.12595	0.848208
O	0.126103	-0.937833	1.72048
H	0.612106	0.663751	2.84764
H	-0.0734585	-1.13088	0.766815
C	-0.381342	-0.376092	-1.81122
O	-0.351392	-1.12601	-0.848276
O	-0.126268	0.93786	-1.72045
H	-0.612978	-0.663584	-2.84749
H	0.0737767	1.13082	-0.766873
C	6.24662	-0.089257	0.4415
O	6.08033	-1.07501	-0.258809
O	6.55014	1.08874	-0.102289
H	6.14548	-0.174838	1.52277
H	6.60661	1.01966	-1.04876
