15
  This energy is -0.00409503 and Call times are: 18666
C	-0.265445	1.0539	1.54475
O	-0.150645	-0.156759	1.43656
O	-0.216588	1.88775	0.494947
H	-0.419047	1.60737	2.48295
H	-0.0771562	1.32942	-0.314614
C	0.265672	-1.05387	-1.54472
O	0.15027	0.15672	-1.4366
O	0.216757	-1.88773	-0.494928
H	0.419938	-1.6073	-2.48285
H	0.0768306	-1.32944	0.314572
C	3.26593	0.346577	-0.285091
O	3.17098	0.707861	0.876911
O	3.17561	-0.943425	-0.606422
H	3.42626	1.08788	-1.06706
H	3.0365	-1.47594	0.168722
