15
  This energy is -1.6797e-05 and Call times are: 39446
C	-1.47522	-1.03895	0.558298
O	-0.604713	-0.499551	1.223
O	-1.51857	-0.969458	-0.780756
H	-2.31288	-1.63415	0.951009
H	-0.741301	-0.422675	-1.06963
C	1.47509	1.03914	-0.558287
O	0.60493	0.49924	-1.22302
O	1.51847	0.969598	0.780763
H	2.31238	1.6349	-0.950947
H	0.741487	0.422404	1.0696
C	23.616	-0.440941	-0.0651603
O	24.6349	-0.0707732	-0.625953
O	22.8804	0.414103	0.644329
H	23.3056	-1.482	-0.146379
H	23.2652	1.28332	0.630592
