15
  This energy is -2.0695e-05 and Call times are: 24134
C	0.451044	-0.799057	-1.6509
O	-0.0903408	0.271548	-1.42445
O	0.839312	-1.63966	-0.680118
H	0.686391	-1.20692	-2.64509
H	0.600075	-1.21562	0.185633
C	-0.450836	0.799156	1.65091
O	0.0899982	-0.271711	1.42444
O	-0.839157	1.63973	0.680123
H	-0.685588	1.20733	2.64511
H	-0.600369	1.21547	-0.185637
C	13.3723	0.196798	-0.168619
O	12.8317	0.875806	0.689571
O	12.8665	-0.984654	-0.520602
H	14.2781	0.561823	-0.651287
H	12.08	-1.17757	-0.0226496
