15
  This energy is -1.4192e-05 and Call times are: 37934
C	-1.7441	0.718136	0.0990093
O	-1.33303	-0.381572	0.434032
O	-0.952864	1.66085	-0.434855
H	-2.78128	1.07443	0.185453
H	-0.0373618	1.27889	-0.485106
C	1.74414	-0.718051	-0.0987997
O	1.33296	0.381431	-0.434376
O	0.952897	-1.66079	0.435009
H	2.78145	-1.07412	-0.184626
H	0.0373015	-1.27901	0.484802
C	27.3929	0.226285	0.262163
O	27.5957	-0.977326	0.264629
O	26.3998	0.747842	-0.457057
H	28.0316	0.880144	0.854869
H	25.9261	0.0676048	-0.922442
