15
  This energy is -3.31e-07 and Call times are: 47972
C	0.317335	0.938053	-1.60834
O	-0.643199	0.261538	-1.27626
O	1.38121	1.13314	-0.814692
H	0.43845	1.46146	-2.56831
H	1.21004	0.638159	0.0292613
C	-0.317432	-0.937864	1.60843
O	0.643359	-0.26185	1.27612
O	-1.38129	-1.13299	0.814758
H	-0.438851	-1.46073	2.56865
H	-1.20989	-0.638427	-0.0293843
C	26.3004	-0.407972	-0.171375
O	25.4295	0.418094	-0.392577
O	27.3979	-0.0750114	0.506822
H	26.1777	-1.42825	-0.532914
H	27.3739	0.840926	0.760308
