15
  This energy is -1.804e-06 and Call times are: 49274
C	1.32455	0.961089	0.94301
O	0.677261	1.28478	-0.0402543
O	1.18077	-0.225304	1.55258
H	2.08655	1.57469	1.44602
H	0.483824	-0.726978	1.05343
C	-1.32471	-0.961001	-0.94287
O	-0.676997	-1.28492	0.0400238
O	-1.18089	0.225368	-1.55247
H	-2.08718	-1.57433	-1.44549
H	-0.483594	0.726845	-1.05362
C	34.5706	0.0405368	-0.25841
O	33.9956	1.10462	-0.0943656
O	34.102	-1.07845	0.292791
H	35.4766	0.00667279	-0.862274
H	33.3106	-0.904678	0.789972
