15
  This energy is -0.00365265 and Call times are: 27154
C	-0.499735	1.22492	1.34805
O	-1.05793	0.950377	0.29752
O	0.648875	0.650123	1.73545
H	-0.848581	1.95427	2.09405
H	0.907728	0.00732814	1.02385
C	0.499618	-1.22509	-1.34794
O	1.05813	-0.950105	-0.297702
O	-0.64896	-0.650245	-1.73536
H	0.84811	-1.95492	-2.09364
H	-0.907553	-0.00709423	-1.024
C	4.94094	-0.0440425	0.0968124
O	4.742	0.187399	-1.08499
O	3.92367	-0.142882	0.951746
H	5.96178	-0.170973	0.45524
H	3.09402	-0.0111328	0.506664
