15
  This energy is -2.8743e-05 and Call times are: 45410
C	1.83504	-0.44275	-0.0632236
O	1.28764	0.552696	0.384006
O	1.15917	-1.45671	-0.624333
H	2.91759	-0.638294	-0.0676319
H	0.195295	-1.21951	-0.589027
C	-1.83506	0.442645	0.0634278
O	-1.28762	-0.552521	-0.384342
O	-1.15918	1.45663	0.624483
H	-2.91765	0.6379	0.0684394
H	-0.195274	1.21965	0.588731
C	53.1848	0.399302	-0.0020553
O	52.6426	-0.428277	-0.716838
O	54.2869	0.0914832	0.680768
H	52.7621	1.40014	0.0776344
H	54.544	-0.809394	0.519297
