15
  This energy is -0.00340421 and Call times are: 2052
C	-0.705755	-0.699964	-1.60604
O	-1.15157	-0.750594	-0.470586
O	0.449294	-0.0887176	-1.90938
H	-1.17225	-1.13242	-2.50354
H	0.816626	0.277418	-1.06228
C	0.705643	0.700161	1.606
O	1.15176	0.750268	0.470651
O	-0.449376	0.0888641	1.90935
H	1.1718	1.13319	2.50341
H	-0.816459	-0.277697	1.06234
C	4.82091	-0.11341	0.299818
O	4.60667	-0.997859	-0.513595
O	4.14635	1.03466	0.250616
H	5.57208	-0.265577	1.07396
H	3.52649	1.0319	-0.470175
