15
  This energy is -0.00210864 and Call times are: 26321
C	0.362526	-0.403436	-1.8092
O	-0.0717578	-1.12074	-0.921822
O	0.67402	0.887195	-1.6168
H	0.551282	-0.705183	-2.85011
H	0.482048	1.09463	-0.664607
C	-0.36274	0.403499	1.80914
O	0.0721095	1.12063	0.921919
O	-0.674177	-0.887148	1.61676
H	-0.552125	0.705412	2.84988
H	-0.48174	-1.09471	0.664691
C	3.54012	-0.229649	0.356987
O	4.2124	0.735191	0.683978
O	3.34038	-0.515789	-0.928991
H	3.09917	-0.862943	1.12589
H	3.77983	0.115269	-1.48794
