15
  This energy is -7.928e-06 and Call times are: 50912
C	-1.42466	0.0506997	-1.23902
O	-0.361422	-0.546594	-1.29675
O	-1.77003	0.82609	-0.200143
H	-2.21662	0.0360314	-2.0024
H	-1.01825	0.79653	0.44833
C	1.42456	-0.0508793	1.23912
O	0.361586	0.54689	1.29658
O	1.76995	-0.826222	0.200221
H	2.21624	-0.0367464	2.0028
H	1.01839	-0.796268	-0.448474
C	28.1849	0.0059726	0.399268
O	27.7798	-0.878788	-0.337555
O	29.1569	0.827885	0.00555696
H	27.746	0.123879	1.38932
H	29.4458	0.612872	-0.874291
