15
  This energy is -2.1775e-05 and Call times are: 50030
C	-0.121781	1.84605	0.380364
O	0.383722	1.27801	-0.574815
O	-0.716332	1.18975	1.38811
H	-0.158127	2.9338	0.540489
H	-0.649721	0.219979	1.18396
C	0.121578	-1.84604	-0.380473
O	-0.383388	-1.27803	0.574994
O	0.716181	-1.18974	-1.38819
H	0.157345	-2.93376	-0.540934
H	0.650007	-0.219997	-1.1838
C	28.8931	0.131803	-0.184019
O	28.4	-0.821107	-0.765941
O	28.2854	0.674199	0.870507
H	29.8403	0.542369	-0.531595
H	27.4728	0.219806	1.06313
