15
  This energy is -0.00212436 and Call times are: 29183
C	-0.222765	1.44292	1.19823
O	-0.322953	1.41645	-0.018254
O	0.0868429	0.360739	1.92816
H	-0.367155	2.32487	1.83969
H	0.203155	-0.395003	1.29421
C	0.222542	-1.44297	-1.19821
O	0.323321	-1.41636	0.0182148
O	-0.087008	-0.360777	-1.92814
H	0.366278	-2.32507	-1.83962
H	-0.202834	0.395071	-1.29424
C	3.60398	-0.185081	-0.364772
O	2.86635	0.592598	0.219104
O	4.83885	-0.415771	0.0795163
H	3.24762	-0.695484	-1.25876
H	5.01684	0.0928403	0.862721
