15
  This energy is -0.000162092 and Call times are: 32918
C	0.829704	1.69604	0.0493342
O	0.922165	0.806184	-0.781434
O	0.0608352	1.59468	1.14402
H	1.34486	2.66747	0.016122
H	-0.373039	0.701699	1.11389
C	-0.829882	-1.69595	-0.0494473
O	-0.921871	-0.806337	0.78162
O	-0.0609674	-1.59461	-1.1441
H	-1.34555	-2.66712	-0.0165826
H	0.37329	-0.70183	-1.11372
C	9.29423	0.344572	0.0209884
O	8.23172	0.602594	0.563478
O	9.49631	-0.842114	-0.550372
H	10.0851	1.09353	0.00445154
H	8.72792	-1.39493	-0.462348
