15
  This energy is -2.1408e-05 and Call times are: 50702
C	-0.689139	-0.47436	1.69336
O	0.248967	-0.948359	1.07219
O	-1.43433	0.539359	1.22771
H	-1.0397	-0.800913	2.68363
H	-1.06859	0.785149	0.337545
C	0.689278	0.474513	-1.69326
O	-0.249196	0.948107	-1.07236
O	1.43443	-0.539245	-1.22763
H	1.04027	0.801497	-2.68323
H	1.06839	-0.785361	-0.337692
C	27.201	-0.271771	0.20314
O	26.0766	-0.746361	0.189241
O	27.4432	0.921023	-0.339176
H	28.0146	-0.830499	0.664268
H	26.6484	1.29441	-0.703437
