15
  This energy is -3.4197e-05 and Call times are: 6505
C	-1.04617	-0.688702	1.41372
O	-1.09767	0.400066	0.863723
O	-0.164865	-1.63931	1.06816
H	-1.69124	-1.0278	2.23778
H	0.382854	-1.27282	0.325019
C	1.04602	0.688614	-1.41388
O	1.09792	-0.399921	-0.863474
O	0.164755	1.63924	-1.06827
H	1.69064	1.02748	-2.23837
H	-0.382635	1.27294	-0.324804
C	18.8998	0.161837	0.140418
O	18.1189	-0.0197394	1.06079
O	18.5464	-0.108675	-1.11554
H	19.8962	0.549328	0.349434
H	17.6554	-0.438265	-1.15249
