15
  This energy is -9.766e-05 and Call times are: 34222
C	1.365	1.30393	-0.0627331
O	0.856193	0.752868	0.900602
O	1.00054	1.04493	-1.32759
H	2.16272	2.06062	-0.0277871
H	0.282891	0.359299	-1.28964
C	-1.36484	-1.3041	0.0627178
O	-0.856456	-0.752596	-0.900576
O	-1.00043	-1.04506	1.32758
H	-2.1621	-2.06127	0.0277491
H	-0.283121	-0.359063	1.28965
C	5.11785	0.378373	-0.236273
O	4.40186	-0.550084	-0.575559
O	6.02083	0.223358	0.731262
H	5.01653	1.34378	-0.730674
H	6.00142	-0.663625	1.07282
