15
  This energy is -1.3621e-05 and Call times are: 45914
C	0.430144	1.78287	-0.45139
O	0.62164	1.17363	0.589155
O	-0.164666	1.23183	-1.52019
H	0.708521	2.82867	-0.648761
H	-0.389083	0.294991	-1.27823
C	-0.42994	-1.78294	0.451308
O	-0.621977	-1.17352	-0.589019
O	0.164817	-1.23188	1.52012
H	-0.707716	-2.82894	0.648461
H	0.388787	-0.294896	1.27834
C	45.2004	-0.0773453	0.198601
O	44.6395	0.910579	0.644966
O	44.6369	-0.801829	-0.76737
H	46.1722	-0.368863	0.595153
H	43.7957	-0.436136	-1.01723
