15
  This energy is -2.6882e-05 and Call times are: 47510
C	-1.45729	-0.45669	1.11137
O	-0.270842	-0.357931	1.38184
O	-1.94546	-0.237727	-0.118883
H	-2.25977	-0.728691	1.81294
H	-1.176	0.00177827	-0.699508
C	1.45726	0.456912	-1.11132
O	0.270899	0.357565	-1.38192
O	1.94544	0.237891	0.11892
H	2.25966	0.72956	-1.81273
H	1.17604	-0.00209512	0.699429
C	33.2777	-0.0047576	-0.446855
O	33.5144	1.08106	0.0578907
O	32.841	-1.02048	0.296858
H	33.4255	-0.143638	-1.51717
H	32.7576	-0.761184	1.20767
