15
  This energy is -2.0456e-05 and Call times are: 51416
C	-0.113679	0.533143	-1.80838
O	0.621757	0.936003	-0.921019
O	-1.02857	-0.429126	-1.61659
H	-0.127103	0.89028	-2.84878
H	-0.965279	-0.706069	-0.664824
C	0.113833	-0.533305	1.80832
O	-0.622009	-0.935737	0.921117
O	1.02868	0.429006	1.61655
H	0.127719	-0.890899	2.84856
H	0.965053	0.706293	0.664909
C	11.29	0.426979	-0.123834
O	11.9903	0.050764	0.802337
O	10.3805	-0.384156	-0.662689
H	11.4108	1.43717	-0.513218
H	10.3823	-1.22995	-0.228637
