15
  This energy is -1.1075e-05 and Call times are: 43940
C	-0.524817	-1.48625	1.04069
O	0.406003	-1.37075	0.259147
O	-1.38742	-0.491901	1.29945
H	-0.775271	-2.38794	1.61895
H	-1.10777	0.286984	0.750179
C	0.524949	1.48632	-1.04051
O	-0.40622	1.37063	-0.259434
O	1.38752	0.491956	-1.29932
H	0.775805	2.38822	-1.61828
H	1.10758	-0.287083	-0.750426
C	59.5377	0.369722	0.0147876
O	58.9173	-0.632011	-0.303757
O	60.8428	0.307786	0.276148
H	59.0174	1.32421	0.0858211
H	61.1657	-0.580751	0.17628
