15
  This energy is -3.5338e-05 and Call times are: 4702
C	0.381119	1.6302	-0.874418
O	0.35176	0.494017	-1.32029
O	0.126103	1.91582	0.411334
H	0.612106	2.54243	-1.44418
H	-0.0734585	1.05608	0.866942
C	-0.381342	-1.63017	0.87437
O	-0.351392	-0.494065	1.32037
O	-0.126268	-1.9158	-0.411369
H	-0.612978	-2.54234	1.44398
H	0.0737767	-1.05612	-0.866866
C	3.98952	-0.377709	-0.164793
O	3.70253	-0.475419	1.01753
O	3.74318	0.747706	-0.834326
H	4.45207	-1.22053	-0.67705
H	3.34004	1.39645	-0.268298
