15
  This energy is 0.000176134 and Call times are: 14480
C	0.917276	0.490764	1.57644
O	1.08123	-0.474252	0.846756
O	-0.0174498	1.42599	1.34971
H	1.49194	0.718064	2.48652
H	-0.497074	1.16379	0.520388
C	-0.917125	-0.49064	-1.57656
O	-1.08147	0.474047	-0.846553
O	0.0175604	-1.4259	-1.3498
H	-1.49134	-0.717599	-2.48701
H	0.496854	-1.16396	-0.520212
C	7.88255	0.252942	-0.202452
O	7.71677	-0.942167	-0.386901
O	8.90768	0.693551	0.525903
H	7.18407	0.966094	-0.638623
H	9.43358	-0.0321015	0.843121
