15
  This energy is -1.7221e-05 and Call times are: 40076
C	0.0839152	-0.996303	-1.60242
O	0.630949	-1.19686	-0.529522
O	-0.726721	0.049544	-1.82343
H	0.176783	-1.62214	-2.50234
H	-0.767629	0.57034	-0.978645
C	-0.0840981	0.996178	1.60248
O	-0.630648	1.19706	0.529415
O	0.726586	-0.0496355	1.82348
H	-0.177484	1.62164	2.50261
H	0.767885	-0.570156	0.978549
C	32.4021	-0.0196064	-0.405606
O	33.0428	0.629179	0.405751
O	31.2424	-0.580668	-0.0651799
H	32.7836	-0.140506	-1.41879
H	31.0313	-0.395944	0.843155
