15
  This energy is -0.0010124 and Call times are: 25834
C	1.11123	1.20528	0.938014
O	0.103425	0.623924	1.30804
O	1.6239	1.06405	-0.293654
H	1.71543	1.8992	1.54099
H	1.03652	0.42993	-0.782987
C	-1.1111	-1.20545	-0.937942
O	-0.103643	-0.623636	-1.30816
O	-1.6238	-1.06418	0.293707
H	-1.71493	-1.89989	-1.54069
H	-1.03671	-0.429681	0.782877
C	5.56058	-0.0768743	0.363216
O	4.62028	0.661349	0.609495
O	5.73888	-0.566073	-0.863327
H	6.26095	-0.337863	1.15573
H	5.05852	-0.258903	-1.45199
