15
  This energy is 0.000157269 and Call times are: 33802
C	0.566295	1.7558	0.40482
O	0.367359	0.809032	1.14955
O	0.398287	1.68595	-0.92434
H	0.898359	2.75931	0.709551
H	0.100495	0.761507	-1.13239
C	-0.566074	-1.75586	-0.404848
O	-0.367722	-0.808929	-1.14951
O	-0.398124	-1.686	0.924319
H	-0.8975	-2.75956	-0.709639
H	-0.10081	-0.761416	1.13242
C	6.44257	0.407753	0.138389
O	6.04574	0.417519	-1.01583
O	6.42868	-0.716497	0.853501
H	6.81187	1.32891	0.587606
H	6.08362	-1.43895	0.340895
