15
  This energy is 0.000448261 and Call times are: 2550
C	-1.32796	-1.2367	-0.523943
O	-0.671639	-0.462486	-1.20248
O	-1.19383	-1.33356	0.807373
H	-2.09135	-1.9356	-0.896678
H	-0.495061	-0.68169	1.07819
C	1.32811	1.23653	0.523918
O	0.671376	0.462756	1.20252
O	1.19395	1.33344	-0.807391
H	2.09198	1.93497	0.896561
H	0.494832	0.681922	-1.07815
C	6.35439	0.378985	0.0422279
O	6.96273	0.330778	-1.01484
O	6.44966	-0.611675	0.928247
H	5.72705	1.24191	0.262472
H	7.02673	-1.2964	0.608993
