15
  This energy is -4.866e-06 and Call times are: 43520
C	-1.31142	0.730462	-1.1463
O	-0.13192	1.02133	-1.02491
O	-1.90331	-0.232056	-0.423109
H	-2.02496	1.19996	-1.83954
H	-1.21034	-0.612928	0.177967
C	1.31147	-0.730619	1.14613
O	0.131837	-1.02108	1.02517
O	1.90335	0.23194	0.42299
H	2.02518	-1.20056	1.83891
H	1.21027	0.613146	-0.177733
C	59.6251	0.424525	-0.141085
O	58.8822	-0.383922	-0.674275
O	60.5338	0.0296076	0.749869
H	59.5433	1.48016	-0.397299
H	60.4953	-0.911678	0.877452
