15
  This energy is -1.8431e-05 and Call times are: 43268
C	-0.843159	1.57752	0.606554
O	0.130182	0.991729	1.0538
O	-1.51701	1.15337	-0.473166
H	-1.28541	2.49954	1.01208
H	-1.07042	0.324042	-0.788338
C	0.843293	-1.5774	-0.606691
O	-0.130403	-0.991938	-1.05357
O	1.51711	-1.15328	0.473064
H	1.28595	-2.49905	-1.0126
H	1.07023	-0.324225	0.788528
C	51.2131	-0.214137	-0.353472
O	50.7229	0.886938	-0.160628
O	52.1886	-0.671767	0.43039
H	50.8481	-0.82842	-1.17575
H	52.4076	-0.0368061	1.10317
