15
  This energy is -0.000159452 and Call times are: 10967
C	-0.187202	-1.67217	0.85803
O	-0.598716	-0.572764	1.1935
O	0.519289	-1.8751	-0.264229
H	-0.333487	-2.61293	1.40913
H	0.615308	-0.993561	-0.711703
C	0.187008	1.67213	-0.858147
O	0.599034	0.572832	-1.19331
O	-0.519432	1.87507	0.264141
H	0.332719	2.61279	-1.40958
H	-0.615027	0.993616	0.711864
C	6.11931	-0.229558	-0.382794
O	6.97988	0.624767	-0.521861
O	5.52463	-0.411242	0.795709
H	5.83524	-0.849605	-1.23224
H	5.86686	0.194118	1.44394
