15
  This energy is -1.1332e-05 and Call times are: 3054
C	0.282632	1.79648	-0.510094
O	0.729257	0.768519	-0.994245
O	-0.545115	1.80572	0.545616
H	0.489596	2.81879	-0.859673
H	-0.690619	0.859501	0.810304
C	-0.282815	-1.79648	0.509954
O	-0.728955	-0.768505	0.994475
O	0.544979	-1.80573	-0.545719
H	-0.490299	-2.81883	0.859113
H	0.690875	-0.859487	-0.810097
C	15.0818	0.301118	-0.117575
O	15.5888	-0.245569	-1.08394
O	15.4715	-0.00434195	1.11949
H	14.3023	1.04673	-0.269497
H	16.1542	-0.665825	1.10521
