15
  This energy is -0.00823792 and Call times are: 21904
C	-1.0168	-0.651725	1.45216
O	0.192016	-0.658097	1.28101
O	-1.87695	-0.138226	0.55984
H	-1.54765	-1.05125	2.32894
H	-1.33809	0.202875	-0.20163
C	1.01681	0.651931	-1.45206
O	-0.192034	0.657758	-1.28118
O	1.87696	0.138378	-0.559764
H	1.54771	1.05205	-2.32853
H	1.33806	-0.203167	0.201478
C	5.336	-0.0724403	0.295962
O	5.44551	0.995779	-0.284303
O	4.31346	-0.886411	0.0364133
H	6.0831	-0.362338	1.03387
H	3.74156	-0.510882	-0.623657
