15
  This energy is -0.00323028 and Call times are: 26776
C	-0.605181	-0.495095	-1.71931
O	-1.15402	0.181359	-0.863887
O	0.612064	-1.034	-1.55297
H	-1.01765	-0.746652	-2.70762
H	0.926013	-0.7713	-0.647985
C	0.60528	0.495282	1.71922
O	1.15386	-0.181668	0.864037
O	-0.611991	1.03413	1.5529
H	1.01802	0.747398	2.70727
H	-0.926146	0.771027	0.648115
C	4.64114	0.197428	-0.224461
O	3.75546	0.98476	0.0678931
O	4.54741	-1.08838	0.112342
H	5.51729	0.551097	-0.766674
H	3.73648	-1.25738	0.578827
