15
  This energy is -0.000192291 and Call times are: 21862
C	0.317833	1.68046	0.801531
O	-0.525855	0.837945	1.06409
O	1.22163	1.5269	-0.177933
H	0.448458	2.64571	1.31279
H	1.05061	0.642494	-0.59642
C	-0.317685	-1.68055	-0.801383
O	0.525611	-0.837786	-1.06433
O	-1.22152	-1.52697	0.178042
H	-0.447897	-2.64609	-1.3122
H	-1.05081	-0.642355	0.596202
C	4.60643	-0.16088	-0.306059
O	5.40237	-1.00686	0.0688979
O	4.65511	1.08055	0.175613
H	3.84847	-0.424959	-1.04259
H	5.36075	1.17105	0.806206
