15
  This energy is -0.00207365 and Call times are: 18370
C	0.253275	1.84386	-0.321611
O	-0.77037	1.23017	-0.0644876
O	1.45265	1.25145	-0.423275
H	0.330503	2.92682	-0.498785
H	1.31457	0.28257	-0.253675
C	-0.253235	-1.84382	0.321835
O	0.770304	-1.23023	0.0641185
O	-1.45262	-1.25143	0.423441
H	-0.330369	-2.92668	0.499666
H	-1.31462	-0.282623	0.253353
C	4.50957	0.298323	-0.144598
O	4.13093	-0.450233	-1.03121
O	4.02179	0.191761	1.09081
H	5.25448	1.06143	-0.367054
H	3.3841	-0.511383	1.14298
