15
  This energy is -9.615e-06 and Call times are: 51332
C	1.22388	1.3843	0.391459
O	0.832037	0.467155	1.09565
O	0.809301	1.5621	-0.871983
H	1.94407	2.16237	0.684851
H	0.166155	0.832416	-1.0732
C	-1.22371	-1.38443	-0.391537
O	-0.832324	-0.466942	-1.09552
O	-0.809172	-1.56219	0.871924
H	-1.94339	-2.16289	-0.685139
H	-0.166406	-0.832229	1.07331
C	15.1559	-0.35962	0.129773
O	16.1705	-0.218293	0.793456
O	14.8621	0.489861	-0.85388
H	14.4841	-1.18973	0.345
H	15.5303	1.16168	-0.931206
