15
  This energy is -1.43e-06 and Call times are: 45578
C	0.87888	-1.18781	1.17647
O	1.31037	-0.594739	0.200429
O	-0.390735	-1.0761	1.59524
H	1.45029	-1.87014	1.82306
H	-0.848764	-0.451067	0.973872
C	-0.878822	1.18799	-1.17633
O	-1.31047	0.59445	-0.200655
O	0.390777	1.07623	-1.59514
H	-1.45005	1.87083	-1.82253
H	0.848673	0.450816	-0.974064
C	45.5078	-0.308162	0.126714
O	45.8889	0.836813	0.309821
O	44.3051	-0.550273	-0.393265
H	46.1589	-1.1403	0.391726
H	43.8461	0.261942	-0.576173
