15
  This energy is -0.000837441 and Call times are: 9195
C	-0.638132	0.886631	1.5408
O	-1.05384	0.919594	0.393342
O	0.423495	0.154766	1.91107
H	-1.06094	1.43213	2.39744
H	0.755595	-0.309234	1.09806
C	0.637995	-0.88681	-1.54075
O	1.05407	-0.919299	-0.393422
O	-0.423596	-0.154898	-1.91103
H	1.06039	-1.43283	-2.39726
H	-0.755392	0.309486	-1.09813
C	4.15087	0.0545944	-0.375089
O	3.88327	0.874995	0.488119
O	5.08564	-0.871962	-0.167235
H	3.61892	0.0812808	-1.32537
H	5.46662	-0.779465	0.698836
