15
  This energy is -1.6231e-05 and Call times are: 38984
C	-1.30887	1.28417	0.452972
O	-0.789357	0.422362	1.14433
O	-1.00301	1.46369	-0.840859
H	-2.07098	2.00546	0.78324
H	-0.314964	0.78651	-1.07447
C	1.30903	-1.28402	-0.452915
O	0.789086	-0.42261	-1.14442
O	1.00314	-1.46358	0.840901
H	2.07163	-2.00488	-0.782999
H	0.314729	-0.786723	1.07438
C	27.041	0.332344	-0.192893
O	27.602	-0.149862	0.777947
O	25.8505	-0.119594	-0.585226
H	27.5199	1.14098	-0.743756
H	25.5518	-0.821679	-0.0181136
