15
  This energy is 0.000105139 and Call times are: 10336
C	-0.993882	1.43581	-0.719764
O	-0.41648	0.523503	-1.28975
O	-1.01055	1.56708	0.61525
H	-1.55905	2.24582	-1.20415
H	-0.486852	0.810444	0.989163
C	0.993688	-1.43593	0.719777
O	0.416799	-0.523297	1.28973
O	1.0104	-1.56717	-0.61524
H	1.5583	-2.24632	1.20419
H	0.487128	-0.810264	-0.989172
C	6.28051	-0.275384	0.311959
O	6.52651	0.900617	0.527124
O	5.55384	-0.636522	-0.744944
H	6.65979	-1.03704	0.992199
H	5.28984	0.124604	-1.24969
