15
  This energy is -9.0953e-05 and Call times are: 16897
C	1.66319	-0.70081	-0.556847
O	0.531862	-1.02477	-0.882007
O	1.91665	0.283838	0.318366
H	2.59598	-1.15467	-0.922994
H	1.03967	0.649009	0.608403
C	-1.66318	0.700964	0.556675
O	-0.531878	1.02451	0.88229
O	-1.91664	-0.283724	-0.318493
H	-2.59596	1.15526	0.922314
H	-1.03968	-0.649223	-0.608153
C	11.1935	-0.345456	0.273977
O	10.8796	-0.554689	-0.886819
O	11.7821	0.797423	0.624556
H	10.9897	-1.10217	1.03066
H	11.8988	1.36308	-0.130555
