15
  This energy is -0.00417443 and Call times are: 15196
C	1.16815	0.42661	-1.42156
O	0.573834	-0.613407	-1.1855
O	1.07338	1.5139	-0.641432
H	1.83834	0.608833	-2.27467
H	0.458638	1.28493	0.104372
C	-1.16833	-0.426532	1.42143
O	-0.573542	0.613278	1.1857
O	-1.07351	-1.51384	0.64134
H	-1.83904	-0.608551	2.27418
H	-0.458384	-1.28503	-0.10419
C	4.50773	0.075279	0.338596
O	3.94793	-0.200983	-0.710262
O	5.83731	0.131167	0.406422
H	3.91267	0.278153	1.22824
H	6.22746	-0.066454	-0.437679
