15
  This energy is -2.3223e-05 and Call times are: 7681
C	-1.88299	0.140792	-0.0440453
O	-1.04675	0.625741	-0.789765
O	-1.56374	-0.629266	1.00708
H	-2.97293	0.263768	-0.12801
H	-0.573211	-0.700282	1.02631
C	1.88297	-0.140981	0.0439143
O	1.04677	-0.62543	0.78998
O	1.56373	0.629125	-1.00718
H	2.97289	-0.264495	0.127481
H	0.57323	0.700547	-1.02612
C	15.9992	-0.374169	-0.161426
O	16.5134	0.64915	-0.583542
O	14.9673	-0.320524	0.679915
H	16.3891	-1.34126	-0.476753
H	14.7321	0.580903	0.869309
