15
  This energy is -1.4809e-05 and Call times are: 42890
C	-0.463185	-0.220783	-1.81772
O	0.577943	0.179014	-1.32094
O	-1.52388	-0.594447	-1.08623
H	-0.667543	-0.325855	-2.89353
H	-1.27588	-0.476537	-0.131689
C	0.463261	0.220565	1.81773
O	-0.578068	-0.178656	1.32094
O	1.52393	0.594286	1.08624
H	0.667862	0.325013	2.89355
H	1.27576	0.476845	0.131685
C	56.4394	-0.0686604	-0.444237
O	55.4777	0.467995	0.0820628
O	57.5163	-0.38935	0.271896
H	56.4156	-0.287288	-1.51117
H	57.4019	-0.143338	1.18304
