15
  This energy is -2.2208e-05 and Call times are: 37430
C	0.827613	1.10968	1.28494
O	0.285422	1.40561	0.231839
O	0.925743	-0.153931	1.72475
H	1.29311	1.81212	1.99208
H	0.489629	-0.733513	1.04619
C	-0.827813	-1.10966	-1.28483
O	-0.285094	-1.40565	-0.232026
O	-0.92589	0.153946	-1.72467
H	-1.2939	-1.81202	-1.99166
H	-0.489342	0.733475	-1.04635
C	11.902	0.114254	0.185181
O	12.3025	0.945702	-0.613616
O	12.6108	-0.985907	0.435605
H	10.9545	0.274585	0.698301
H	13.4107	-0.996899	-0.0780613
