15
  This energy is -9.3945e-05 and Call times are: 22115
C	1.41371	0.444119	1.17115
O	0.401959	-0.206217	1.38089
O	1.69734	0.986922	-0.0224599
H	2.2029	0.666431	1.90457
H	0.951553	0.751061	-0.634619
C	-1.4136	-0.444309	-1.17121
O	-0.402148	0.20653	-1.38079
O	-1.69725	-0.987062	0.0224131
H	-2.20247	-0.667187	-1.90481
H	-0.951713	-0.750785	0.634701
C	5.7423	0.339198	0.178812
O	5.87556	-0.706391	0.794259
O	4.95348	0.402281	-0.893237
H	6.27465	1.22981	0.510653
H	4.55361	-0.442136	-1.06887
