15
  This energy is -1.0855e-05 and Call times are: 53489
C	0.952679	-0.742877	1.45187
O	1.10879	0.324919	0.880897
O	0.0016676	-1.62318	1.10487
H	1.54807	-1.11654	2.29807
H	-0.496297	-1.22858	0.341404
C	-0.952827	0.742973	-1.45173
O	-1.10854	-0.325078	-0.881142
O	-0.00177708	1.62325	-1.10476
H	-1.54864	1.11693	-2.29749
H	0.496502	1.22844	-0.341618
C	10.3886	0.267536	0.348932
O	11.5811	0.00911019	0.319306
O	9.56339	-0.219201	-0.577152
H	9.99591	0.903177	1.14169
H	10.0369	-0.754399	-1.20417
