15
  This energy is -0.00276401 and Call times are: 33844
C	1.58725	1.02053	-0.0808787
O	1.35585	-0.0976569	-0.512935
O	0.672658	1.75406	0.571221
H	2.542	1.5607	-0.163594
H	-0.159738	1.21363	0.611456
C	-1.58732	-1.02044	0.0806804
O	-1.35573	0.0974997	0.513261
O	-0.672709	-1.75398	-0.571367
H	-2.54226	-1.56035	0.162809
H	0.159831	-1.21376	-0.611168
C	5.26234	-0.436848	-0.116126
O	4.61294	0.298266	-0.842539
O	5.98057	0.0612443	0.889641
H	5.25379	-1.51171	-0.293081
H	5.89748	1.00749	0.928219
