15
  This energy is -2.0041e-05 and Call times are: 44024
C	-0.682911	0.209689	1.74845
O	0.435469	0.437839	1.31515
O	-1.67841	-0.264248	0.984162
H	-1.01618	0.355806	2.78659
H	-1.31482	-0.373029	0.0662692
C	0.682843	-0.209474	-1.7485
O	-0.435358	-0.438193	-1.31507
O	1.67836	0.264406	-0.984199
H	1.01594	-0.354961	-2.78678
H	1.31491	0.372719	-0.0662013
C	56.1613	0.289973	-0.231012
O	56.8046	-0.607346	0.289401
O	54.8373	0.347187	-0.0923631
H	56.6765	1.05175	-0.814951
H	54.5215	-0.375489	0.438443
