15
  This energy is -0.00277755 and Call times are: 18898
C	0.0633876	-0.511716	-1.81701
O	0.167646	0.596017	-1.31439
O	-0.128249	-1.62544	-1.09406
H	0.110447	-0.740867	-2.89192
H	-0.161079	-1.35158	-0.139864
C	-0.0631599	0.511683	1.81703
O	-0.168021	-0.595963	1.31436
O	0.128418	1.62542	1.09407
H	-0.109555	0.740761	2.89198
H	0.160753	1.35162	0.139845
C	3.91	0.438458	-0.115731
O	4.99726	0.0278292	0.257146
O	2.85256	-0.371462	-0.152539
H	3.80433	1.47867	-0.421502
H	3.08596	-1.24561	0.13929
