15
  This energy is -1.8253e-05 and Call times are: 37514
C	1.83145	-0.353565	0.296935
O	0.905221	-1.12976	0.123192
O	1.67481	0.978796	0.30404
H	2.88301	-0.629313	0.465341
H	0.710771	1.15985	0.147804
C	-1.83141	0.353574	-0.297162
O	-0.905288	1.12975	-0.122819
O	-1.67478	-0.978789	-0.304207
H	-2.88286	0.629328	-0.466229
H	-0.710828	-1.15985	-0.14748
C	16.2558	0.38964	0.172217
O	15.5937	0.556557	-0.839486
O	16.4571	-0.83397	0.659804
H	16.6862	1.25128	0.681135
H	16.0273	-1.48793	0.119998
