15
  This energy is -9.195e-06 and Call times are: 39656
C	1.59544	0.796424	-0.622637
O	0.487395	0.765903	-1.13437
O	1.86977	0.220456	0.557524
H	2.48843	1.28228	-1.04296
H	1.02844	-0.196943	0.8808
C	-1.59549	-0.796228	0.622747
O	-0.487309	-0.766225	1.13419
O	-1.86981	-0.220312	-0.557441
H	-2.48865	-1.28151	1.04338
H	-1.02836	0.196661	-0.88095
C	33.6496	0.0273131	-0.0535236
O	33.2542	0.657987	0.913784
O	32.7948	-0.64489	-0.823615
H	34.7132	0.014679	-0.288727
H	31.9044	-0.547742	-0.50502
