15
  This energy is -2.1844e-05 and Call times are: 49400
C	-0.458136	-0.0720876	1.83093
O	0.257508	-0.813389	1.17603
O	-1.07911	0.994339	1.30472
H	-0.684073	-0.17257	2.90285
H	-0.835552	1.02807	0.342375
C	0.458316	0.0722218	-1.83088
O	-0.257804	0.813168	-1.17612
O	1.07924	-0.994239	-1.30468
H	0.68479	0.173077	-2.90265
H	0.83529	-1.02825	-0.342451
C	32.3579	0.197152	0.196874
O	32.4621	-1.01788	0.145689
O	31.2804	0.809196	-0.292983
H	33.1552	0.786462	0.648232
H	30.6684	0.178099	-0.654723
