15
  This energy is -0.00184508 and Call times are: 28846
C	-0.453618	1.34508	-1.24595
O	-0.54967	1.34462	-0.0288411
O	0.028602	0.303061	-1.9398
H	-0.738592	2.16924	-1.91655
H	0.265477	-0.401419	-1.28089
C	0.453832	-1.345	1.24596
O	0.549319	-1.34476	0.0288204
O	-0.028444	-0.302998	1.9398
H	0.739421	-2.1689	1.91662
H	-0.265779	0.401289	1.28086
C	3.31527	0.315636	0.158241
O	3.69805	-0.448584	1.02958
O	3.73121	0.176573	-1.1
H	2.62605	1.11975	0.41336
H	4.32571	-0.560961	-1.17995
