15
  This energy is -0.00316265 and Call times are: 30421
C	1.57229	0.423008	0.957278
O	0.42572	0.803966	1.13286
O	1.91706	-0.424007	-0.0242885
H	2.44817	0.710976	1.55732
H	1.08764	-0.643374	-0.524792
C	-1.57232	-0.423188	-0.957139
O	-0.425664	-0.803669	-1.13309
O	-1.91708	0.423874	0.0243915
H	-2.44832	-0.711669	-1.55677
H	-1.08758	0.643626	0.524587
C	5.93245	0.341058	0.188114
O	4.80876	0.228889	0.651293
O	6.36143	-0.485291	-0.765109
H	6.59081	1.12574	0.558961
H	5.68871	-1.11738	-0.992445
