15
  This energy is -2.258e-05 and Call times are: 48896
C	-0.553396	-1.20195	1.34777
O	0.385618	-0.42177	1.3358
O	-1.40461	-1.33438	0.319332
H	-0.821068	-1.8787	2.1727
H	-1.10973	-0.700943	-0.386615
C	0.553258	1.20211	-1.34768
O	-0.38539	0.421505	-1.33595
O	1.4045	1.3345	-0.319266
H	0.820547	1.87935	-2.17234
H	1.10992	0.700711	0.386481
C	45.0099	-0.333182	0.225087
O	44.0453	-0.731344	-0.407993
O	45.3498	0.955131	0.209384
H	45.5985	-1.03984	0.808918
H	44.7539	1.45532	-0.336926
