15
  This energy is -0.00106131 and Call times are: 13519
C	-0.553178	-1.79264	-0.218764
O	0.573	-1.32782	-0.139765
O	-1.65995	-1.03696	-0.157276
H	-0.806296	-2.85554	-0.346494
H	-1.3643	-0.0957003	-0.04248
C	0.553168	1.79261	0.218993
O	-0.572984	1.32786	0.139388
O	1.65995	1.03694	0.157445
H	0.806283	2.85544	0.347388
H	1.36431	0.0957426	0.0421533
C	5.2136	-0.188109	0.145076
O	6.12672	-0.318572	0.944437
O	5.4051	0.449877	-1.00897
H	4.23184	-0.598207	0.378907
H	6.30281	0.754075	-1.08215
