15
  This energy is -2.7465e-05 and Call times are: 31910
C	-0.130225	1.78861	0.592729
O	0.167028	0.780532	1.21401
O	-0.434936	1.77677	-0.713711
H	-0.18709	2.80767	1.00315
H	-0.365348	0.834742	-1.02079
C	0.130446	-1.78857	-0.592784
O	-0.167391	-0.780592	-1.21392
O	0.435099	-1.77674	0.71367
H	0.187959	-2.80754	-1.00334
H	0.36503	-0.834792	1.02086
C	15.0552	0.241967	0.168338
O	15.003	-0.934149	0.490537
O	16.0475	0.694592	-0.59724
H	14.2816	0.928052	0.511088
H	16.6482	-0.00716476	-0.821995
