15
  This energy is -3.896e-06 and Call times are: 17107
C	-1.84309	0.312071	-0.27028
O	-0.969623	1.07663	0.107988
O	-1.6056	-0.972364	-0.576223
H	-2.90568	0.56159	-0.407321
H	-0.635812	-1.1318	-0.432504
C	1.84312	-0.312014	0.27006
O	0.969558	-1.07672	-0.107626
O	1.60563	0.972405	0.57606
H	2.90585	-0.561349	0.406469
H	0.635755	1.13171	0.432815
C	13.0498	-0.0421675	0.376261
O	13.504	-0.678649	-0.560928
O	11.9364	0.676157	0.235294
H	13.5612	-0.0624478	1.33792
H	11.5974	0.604069	-0.649955
