15
  This energy is -1.944e-05 and Call times are: 39950
C	-0.386164	1.83641	-0.214172
O	-1.01079	0.85843	-0.593607
O	0.764985	1.74655	0.468875
H	-0.670488	2.88701	-0.374053
H	0.96401	0.779669	0.578869
C	0.386049	-1.83641	0.214372
O	1.01097	-0.858432	0.593278
O	-0.76507	-1.74655	-0.468727
H	0.670021	-2.88702	0.374824
H	-0.963838	-0.77967	-0.57915
C	34.3914	0.00421014	0.440376
O	35.5872	0.159768	0.251594
O	33.5554	-0.154682	-0.584972
H	34.0047	-0.00462273	1.45875
H	34.0246	-0.126224	-1.41128
