15
  This energy is 0.000305292 and Call times are: 27028
C	0.819367	-1.1902	-1.21634
O	0.159372	-1.42774	-0.217061
O	1.0845	0.0561756	-1.6359
H	1.27085	-1.93749	-1.88557
H	0.652072	0.678215	-0.993536
C	-0.819557	1.1902	1.21621
O	-0.15906	1.42774	0.217276
O	-1.08464	-0.0561754	1.63581
H	-1.2716	1.93748	1.88508
H	-0.651798	-0.678207	0.993719
C	6.47308	-0.39248	-0.147453
O	6.34409	0.427733	-1.04211
O	6.12201	-0.0963363	1.10337
H	6.87978	-1.37702	-0.37542
H	5.7846	0.790716	1.15877
