15
  This energy is -0.00227173 and Call times are: 18454
C	-0.300259	1.77576	0.569148
O	-1.10296	0.909123	0.260631
O	1.02695	1.58119	0.548344
H	-0.545384	2.79759	0.894611
H	1.17996	0.646723	0.248478
C	0.300255	-1.77583	-0.568928
O	1.10297	-0.90901	-0.260993
O	-1.02695	-1.58124	-0.548181
H	0.545349	-2.79787	-0.893756
H	-1.17994	-0.646624	-0.248792
C	4.23872	-0.385821	-0.235334
O	4.04322	-0.580364	0.953667
O	4.31806	0.853518	-0.718304
H	4.34938	-1.23557	-0.907937
H	4.20406	1.49431	-0.0253593
