15
  This energy is -3.3491e-05 and Call times are: 22831
C	-1.63222	-0.255059	0.915531
O	-1.43059	0.067448	-0.2446
O	-0.642073	-0.496764	1.78786
H	-2.61687	-0.387027	1.38798
H	0.213771	-0.361308	1.30232
C	1.63222	0.254836	-0.915588
O	1.43059	-0.0670805	0.244695
O	0.642074	0.496599	-1.7879
H	2.61687	0.386161	-1.38823
H	-0.213766	0.361625	-1.30223
C	13.2569	-0.424541	0.029809
O	13.0779	-0.0716515	-1.12484
O	12.9975	0.402027	1.04224
H	13.6329	-1.42646	0.233475
H	12.6773	1.2381	0.722514
