15
  This energy is -2.4758e-05 and Call times are: 47930
C	0.902947	-1.64016	-0.248908
O	0.21462	-1.00221	-1.0298
O	1.14134	-1.23896	1.00886
H	1.40394	-2.59629	-0.460988
H	0.66469	-0.376741	1.13514
C	-0.902758	1.64027	0.248839
O	-0.214931	1.00202	1.02991
O	-1.1412	1.23904	-1.00891
H	-1.40321	2.59674	0.460701
H	-0.664958	0.376581	-1.13503
C	24.0855	-0.167406	-0.0767268
O	24.8781	-0.457654	-0.95837
O	24.468	0.565353	0.968373
H	23.0543	-0.511819	-0.14625
H	25.3879	0.795833	0.90107
