15
  This energy is -1.7165e-05 and Call times are: 44234
C	-0.196279	-0.890974	1.6538
O	-0.937027	-0.0893285	1.10678
O	0.966022	-1.29318	1.11802
H	-0.373102	-1.37598	2.62522
H	1.06498	-0.822209	0.249134
C	0.196173	0.890798	-1.6539
O	0.937201	0.0896181	-1.10661
O	-0.966099	1.29305	-1.11809
H	0.37267	1.37531	-2.62563
H	-1.06483	0.822457	-0.248986
C	53.3076	-0.182932	-0.135359
O	53.1951	0.452363	0.900757
O	54.4871	-0.2846	-0.746863
H	52.4334	-0.671673	-0.563786
H	55.1585	0.187298	-0.266928
