15
  This energy is -0.000299132 and Call times are: 25407
C	-0.11469	-1.81038	-0.526102
O	0.731474	-0.972128	-0.794274
O	-1.17972	-1.55007	0.247023
H	-0.12034	-2.85575	-0.86863
H	-1.11528	-0.597512	0.520969
C	0.114807	1.81031	0.52629
O	-0.731667	0.972234	0.793965
O	1.17981	1.55002	-0.246884
H	0.120817	2.85551	0.869355
H	1.11511	0.597604	-0.521232
C	5.81601	-0.0910742	-0.34175
O	6.23019	-1.10096	0.204481
O	6.20018	1.11476	0.0752502
H	5.12477	-0.177918	-1.17922
H	6.8006	1.04333	0.808844
