15
  This energy is -5.801e-06 and Call times are: 14074
C	0.596393	1.65616	0.68473
O	0.703912	0.533952	1.15341
O	-0.012761	1.90269	-0.484854
H	0.970222	2.5853	1.13982
H	-0.324681	1.02947	-0.840874
C	-0.596193	-1.65618	-0.684843
O	-0.704241	-0.533914	-1.15323
O	0.0129087	-1.90271	0.484771
H	-0.969434	-2.58541	-1.14024
H	0.324391	-1.02943	0.841027
C	7.31874	0.357209	0.174054
O	7.74386	0.0378228	-0.924606
O	6.31783	-0.316982	0.739003
H	7.76334	1.20288	0.697387
H	6.02727	-1.02564	0.175841
