15
  This energy is 0.000294539 and Call times are: 35828
C	-1.49623	-1.0902	-0.37437
O	-0.369096	-1.12486	-0.842275
O	-1.8735	-0.19775	0.553518
H	-2.32697	-1.76095	-0.639179
H	-1.08403	0.373113	0.746964
C	1.49629	1.09006	0.374538
O	0.368996	1.12509	0.841998
O	1.87354	0.197643	-0.553393
H	2.32723	1.76038	0.639824
H	1.08394	-0.3729	-0.747199
C	7.45646	-0.0549242	-0.42219
O	8.02364	0.846816	0.173596
O	6.49127	-0.759065	0.167822
H	7.74342	-0.285558	-1.44745
H	6.34423	-0.453133	1.05583
