15
  This energy is -0.00206215 and Call times are: 19370
C	-1.40251	1.10943	-0.607902
O	-0.864534	0.160697	-1.1566
O	-1.04876	1.54335	0.611255
H	-2.22098	1.71668	-1.02203
H	-0.311312	0.95746	0.92663
C	1.40235	-1.10957	0.607999
O	0.86479	-0.160468	1.15644
O	1.04864	-1.54346	-0.611182
H	2.22038	-1.71724	1.0224
H	0.311535	-0.957257	-0.926761
C	5.01126	0.436637	-0.0520468
O	4.23956	0.257683	0.876527
O	5.43815	-0.587799	-0.789479
H	5.35397	1.4454	-0.279339
H	5.06214	-1.40519	-0.482456
