15
  This energy is -2.9883e-05 and Call times are: 43016
C	-1.06653	0.153352	1.55126
O	-1.27032	-0.472812	0.523169
O	0.0377922	0.888546	1.75058
H	-1.73536	0.199373	2.42344
H	0.595161	0.805077	0.932696
C	1.06664	-0.153533	-1.55116
O	1.27014	0.47311	-0.523324
O	-0.0377125	-0.888679	-1.75051
H	1.73577	-0.200095	-2.42309
H	-0.595308	-0.804813	-0.932827
C	54.5041	-0.0868117	-0.432851
O	53.5433	-0.731473	-0.0441667
O	55.1297	0.761342	0.382528
H	54.853	-0.207109	-1.45779
H	54.7226	0.766711	1.24164
