15
  This energy is -0.00216091 and Call times are: 35654
C	-0.555703	1.26445	-1.28832
O	-1.05029	0.19001	-0.985773
O	0.549567	1.74925	-0.70255
H	-0.934005	1.95741	-2.05438
H	0.838075	1.08131	-0.0264015
C	0.555575	-1.26434	1.28847
O	1.0505	-0.190189	0.985512
O	-0.549661	-1.74917	0.702667
H	0.933491	-1.957	2.055
H	-0.837885	-1.08146	0.0261779
C	4.34745	0.22522	0.175272
O	5.20406	-0.0247029	1.00807
O	4.49993	-0.15386	-1.09302
H	3.44892	0.764141	0.473463
H	5.32443	-0.611884	-1.21215
