15
  This energy is -2.6326e-05 and Call times are: 7093
C	0.566873	-1.21575	1.32966
O	-0.410662	-0.48468	1.30668
O	1.46056	-1.27002	0.330585
H	0.83955	-1.90511	2.14243
H	1.15863	-0.629343	-0.365785
C	-0.566992	1.21558	-1.32976
O	0.410858	0.484959	-1.30651
O	-1.46065	1.2699	-0.330661
H	-0.840035	1.90446	-2.14282
H	-1.15845	0.629584	0.365924
C	25.0979	-0.202699	-0.405768
O	25.2378	-0.994659	0.512385
O	24.9711	1.1019	-0.166079
H	25.0766	-0.567744	-1.43192
H	25.0072	1.27921	0.767214
