15
  This energy is -1.272e-05 and Call times are: 45326
C	1.39978	1.22606	-0.323717
O	0.611146	1.17025	0.606611
O	1.38993	0.352091	-1.34149
H	2.19748	1.97281	-0.451026
H	0.652596	-0.290168	-1.16714
C	-1.39963	-1.2262	0.323829
O	-0.61139	-1.17002	-0.606795
O	-1.38982	-0.352192	1.34157
H	-2.19691	-1.97333	0.451483
H	-0.652806	0.290358	1.16697
C	56.9051	-0.061444	-0.214437
O	57.8307	0.135264	-0.98539
O	57.1081	-0.0797915	1.10236
H	55.9025	-0.223635	-0.608511
H	58.0239	0.0748535	1.30538
