15
  This energy is 9.1906e-05 and Call times are: 21196
C	-1.48756	0.236623	1.13955
O	-0.696528	-0.690864	1.07169
O	-1.41338	1.31768	0.348615
H	-2.33851	0.311059	1.83273
H	-0.63029	1.18878	-0.24864
C	1.48769	-0.236516	-1.13939
O	0.696309	0.690687	-1.07194
O	1.41348	-1.3176	-0.348501
H	2.33904	-0.310659	-1.83213
H	0.630099	-1.18893	0.248415
C	5.54568	-0.252311	-0.128602
O	6.24248	-0.812736	0.702175
O	5.8544	0.968592	-0.56404
H	4.66203	-0.756894	-0.517517
H	6.6451	1.28757	-0.143546
