15
  This energy is -4.8599e-05 and Call times are: 31448
C	-0.30937	1.77631	0.562494
O	-0.790083	0.732511	0.974758
O	0.585595	1.8228	-0.43583
H	-0.535325	2.78506	0.938713
H	0.744929	0.887062	-0.728348
C	0.309544	-1.77633	-0.562343
O	0.789798	-0.732486	-0.975007
O	-0.585466	-1.82281	0.435941
H	0.535991	-2.78513	-0.938111
H	-0.745171	-0.887038	0.728125
C	10.281	-0.0341571	-0.170313
O	11.0844	-0.740028	-0.758606
O	10.6656	0.728005	0.85277
H	9.23844	-0.0281294	-0.486135
H	11.5959	0.625643	1.01957
