15
  This energy is -2.6817e-05 and Call times are: 41420
C	0.890457	0.227059	1.65013
O	0.277154	1.0397	0.976303
O	1.03683	-1.05687	1.28976
H	1.38905	0.428018	2.60991
H	0.567421	-1.17144	0.42195
C	-0.890649	-0.227115	-1.65002
O	-0.276838	-1.03961	-0.976491
O	-1.03697	1.05683	-1.28967
H	-1.38981	-0.42822	-2.60947
H	-0.567145	1.17152	-0.422114
C	33.3161	-0.211549	-0.116589
O	33.3179	0.145629	1.05055
O	34.3642	0.02853	-0.903554
H	32.4475	-0.732202	-0.518019
H	35.047	0.48704	-0.426709
