15
  This energy is -1.0603e-05 and Call times are: 47006
C	-1.72061	0.256405	-0.735632
O	-1.29965	-0.648694	-0.032668
O	-0.960909	1.29159	-1.12424
H	-2.74278	0.344682	-1.13254
H	-0.057566	1.15243	-0.73544
C	1.72055	-0.256284	0.735817
O	1.29975	0.648496	0.032362
O	0.960862	-1.2915	1.12438
H	2.74253	-0.344231	1.13328
H	0.0576608	-1.1526	0.735171
C	34.0936	-0.0674266	0.327553
O	34.3938	-1.09876	-0.252115
O	34.6471	1.09407	-0.0189462
H	33.365	-0.09825	1.13685
H	35.2611	0.975648	-0.735027
