15
  This energy is -0.00203855 and Call times are: 35190
C	-0.797843	0.717949	1.55416
O	-0.0345809	-0.227412	1.43459
O	-1.22044	1.45026	0.512571
H	-1.22828	1.08596	2.49726
H	-0.798731	1.06917	-0.301978
C	0.79802	-0.717804	-1.55413
O	0.0342893	0.227173	-1.43463
O	1.22057	-1.45016	-0.512552
H	1.22899	-1.08541	-2.49715
H	0.798474	-1.06937	0.301934
C	4.06712	-0.400454	0.132087
O	4.37862	-0.11822	-1.01382
O	3.31501	0.427189	0.856558
H	4.40838	-1.33955	0.566068
H	3.08995	1.20413	0.357072
