15
  This energy is -0.000804893 and Call times are: 21238
C	0.084923	-1.71108	0.795229
O	0.969285	-1.04549	0.280001
O	-1.18679	-1.29257	0.881068
H	0.204387	-2.70858	1.24344
H	-1.22662	-0.39305	0.461726
C	-0.0848807	1.71118	-0.795023
O	-0.969355	1.04533	-0.28034
O	1.18682	1.29264	-0.880916
H	-0.204201	2.70896	-1.24264
H	1.22656	0.392915	-0.462019
C	4.51779	0.357394	-0.253246
O	3.92236	-0.494198	-0.893596
O	4.75982	0.186922	1.04594
H	4.85448	1.26628	-0.750515
H	4.41291	-0.645017	1.34811
