15
  This energy is -1.0884e-05 and Call times are: 48854
C	1.75818	-0.353442	0.592698
O	1.37364	0.312342	-0.355687
O	0.919803	-0.987581	1.42623
H	2.80605	-0.51903	0.883735
H	-0.00296329	-0.79912	1.11071
C	-1.75818	0.353627	-0.59256
O	-1.37363	-0.312646	0.35546
O	-0.919808	0.987717	-1.42612
H	-2.80608	0.519764	-0.883214
H	0.00296947	0.798851	-1.11091
C	42.6578	0.0439657	0.380957
O	41.9786	0.180535	-0.623983
O	43.9636	-0.205647	0.291338
H	42.19	0.1273	1.36123
H	44.2372	-0.252243	-0.617908
