15
  This energy is -1.1106e-05 and Call times are: 41588
C	1.72405	-0.771303	0.012189
O	1.0722	-0.303386	0.932363
O	1.27673	-0.811174	-1.25197
H	2.73054	-1.20846	0.0898117
H	0.370496	-0.404609	-1.25352
C	-1.72414	0.771094	-0.012153
O	-1.07205	0.30373	-0.932422
O	-1.2768	0.811019	1.25199
H	-2.7309	1.20765	-0.0896503
H	-0.370367	0.404906	1.25346
C	32.9776	0.300867	-0.106234
O	33.9786	0.82908	0.350767
O	32.9108	-1.02229	-0.248712
H	32.1303	0.919083	-0.40045
H	33.7151	-1.43501	0.0456722
