15
  This energy is -1.0898e-05 and Call times are: 48308
C	-1.5009	-0.23451	-1.12237
O	-0.312857	-0.366892	-1.37057
O	-1.95747	0.128095	0.0858661
H	-2.32995	-0.388545	-1.82884
H	-1.16518	0.250386	0.672277
C	1.50088	0.234288	1.12243
O	0.312883	0.367256	1.37047
O	1.95746	-0.128259	-0.0858185
H	2.32991	0.387677	1.82908
H	1.16519	-0.250068	-0.672361
C	41.461	-0.249966	-0.293485
O	42.3443	-0.88921	0.255104
O	41.2777	1.0392	-0.0106999
H	40.8162	-0.739944	-1.02206
H	41.9065	1.3358	0.637657
