15
  This energy is -0.00140073 and Call times are: 2010
C	-0.583003	1.55704	-0.896171
O	-0.131821	0.517792	-1.3511
O	-0.745992	1.76738	0.418731
H	-0.906078	2.43171	-1.4799
H	-0.438122	0.94655	0.885652
C	0.582789	-1.55713	0.896161
O	0.132174	-0.517654	1.35112
O	0.745833	-1.76744	-0.418738
H	0.905247	-2.43205	1.47985
H	0.438427	-0.946427	-0.885629
C	4.15204	-0.195373	-0.322562
O	4.00747	1.00307	-0.503166
O	3.59981	-0.796565	0.73059
H	4.73918	-0.778702	-1.03087
H	3.11847	-0.17246	1.26217
