15
  This energy is -0.000400718 and Call times are: 24512
C	0.0868624	1.87843	0.177084
O	0.768882	1.12638	-0.501037
O	-0.910161	1.4479	0.964714
H	0.19186	2.97201	0.233697
H	-0.951924	0.46019	0.868535
C	-0.0870133	-1.8784	-0.177256
O	-0.768634	-1.12643	0.501321
O	0.910048	-1.44788	-0.964841
H	-0.192433	-2.97192	-0.234385
H	0.952133	-0.460227	-0.868283
C	4.17163	-0.398969	-0.213912
O	4.0109	0.548264	-0.966711
O	4.40149	-0.205423	1.08425
H	4.12644	-1.41318	-0.608941
H	4.41477	0.722503	1.29053
