15
  This energy is -0.00236507 and Call times are: 2676
C	-0.037371	1.28038	1.38803
O	0.747352	1.15761	0.460829
O	-1.07816	0.455184	1.57665
H	-0.000642799	2.05564	2.16764
H	-1.05434	-0.216097	0.844961
C	0.0372358	-1.28024	-1.38816
O	-0.74713	-1.15783	-0.46062
O	1.07806	-0.455083	-1.57675
H	0.000132401	-2.0551	-2.16815
H	1.05453	0.215897	-0.844776
C	4.48051	-0.156345	0.385633
O	4.16743	1.02111	0.45896
O	4.28353	-0.84437	-0.73835
H	4.92574	-0.648919	1.24926
H	3.89038	-0.294482	-1.40681
