15
  This energy is -8.8838e-05 and Call times are: 4503
C	-1.63202	0.217465	-0.925545
O	-0.604887	0.874261	-0.990322
O	-1.7677	-0.846408	-0.119606
H	-2.55355	0.40057	-1.49774
H	-0.907663	-0.95671	0.364887
C	1.63209	-0.217605	0.925377
O	0.604766	-0.874031	0.990598
O	1.76775	0.846304	0.119482
H	2.55385	-0.4011	1.49708
H	0.907555	0.956902	-0.364643
C	6.36462	0.397	0.145021
O	5.14948	0.407856	0.030553
O	7.06573	-0.698879	-0.143088
H	6.88035	1.29371	0.486554
H	6.49243	-1.40197	-0.427279
