15
  This energy is 2.78e-07 and Call times are: 6631
C	-1.87654	-0.0654366	-0.204223
O	-1.18843	-0.32334	0.770743
O	-1.36031	0.336591	-1.3754
H	-2.97383	-0.124907	-0.254978
H	-0.373939	0.369318	-1.26335
C	1.87653	0.0656571	0.204288
O	1.18846	0.322977	-0.77085
O	1.3603	-0.336428	1.37545
H	2.97377	0.125762	0.255253
H	0.373965	-0.369631	1.26325
C	20.1556	-0.152737	0.424784
O	21.1619	0.520983	0.272314
O	19.3236	-0.373378	-0.592331
H	19.9365	-0.577713	1.40361
H	19.6349	0.0537309	-1.38253
