15
  This energy is -2.9943e-05 and Call times are: 50534
C	0.335637	-0.210467	1.84674
O	4.46661e-05	-1.0392	1.01539
O	0.532732	1.0827	1.54901
H	0.515975	-0.402607	2.91479
H	0.355008	1.18858	0.577532
C	-0.335414	0.210426	-1.84678
O	-0.000411439	1.03927	-1.01532
O	-0.532567	-1.08273	-1.54904
H	-0.515111	0.402427	-2.91496
H	-0.355325	-1.18851	-0.577471
C	23.569	-0.291345	0.220277
O	22.9141	-0.830608	-0.657305
O	23.4539	1.01625	0.449374
H	24.2546	-0.88672	0.822078
H	22.8246	1.40949	-0.14487
