15
  This energy is -0.00118974 and Call times are: 19794
C	1.70646	-0.638897	-0.497208
O	0.748239	-0.3483	-1.19574
O	1.69025	-0.540272	0.840621
H	2.67904	-1.00792	-0.855069
H	0.791466	-0.204329	1.09732
C	-1.70638	0.639113	0.497195
O	-0.74837	0.347944	1.19576
O	-1.69019	0.540432	-0.840629
H	-2.67874	1.00877	0.855003
H	-0.791578	0.20402	-1.0973
C	5.95008	0.44044	0.0962259
O	4.96522	-0.217625	0.390823
O	7.01967	-0.140473	-0.446012
H	5.95336	1.51433	0.279121
H	6.88088	-1.07531	-0.548976
