15
  This energy is -4.3947e-05 and Call times are: 52424
C	-1.03464	0.741389	-1.39544
O	-0.464334	1.29457	-0.468452
O	-1.01063	-0.587522	-1.57763
H	-1.62485	1.23779	-2.17992
H	-0.465937	-0.972874	-0.841848
C	1.03483	-0.74137	1.39531
O	0.464024	-1.2946	0.46867
O	1.01077	0.587535	1.57753
H	1.62559	-1.2377	2.17942
H	0.465668	0.972839	0.842034
C	12.166	-0.34399	-0.293693
O	11.21	-0.277712	0.462217
O	13.1647	0.533854	-0.206759
H	12.202	-1.12989	-1.0472
H	13.0042	1.16055	0.489856
