15
  This energy is 0.00071082 and Call times are: 18076
C	1.53605	-0.978873	0.499764
O	1.37983	-0.185879	-0.415293
O	0.558411	-1.30169	1.35987
H	2.46531	-1.51797	0.736407
H	-0.24688	-0.785013	1.0932
C	-1.53598	0.979043	-0.499622
O	-1.37994	0.1856	0.41506
O	-0.558364	1.30181	-1.35977
H	-2.46506	1.51864	-0.735871
H	0.246783	0.784767	-1.0934
C	6.04497	0.450886	-0.0204717
O	5.92187	-0.0578061	-1.12314
O	6.03863	-0.300111	1.0802
H	6.1612	1.53078	0.0633299
H	5.93027	-1.219	0.861852
