15
  This energy is 0.000209764 and Call times are: 30902
C	0.087436	0.189181	-1.87722
O	-0.646456	0.738817	-1.07108
O	1.02009	-0.707132	-1.52147
H	0.0852805	0.34717	-2.96589
H	0.970292	-0.803437	-0.534144
C	-0.0872793	-0.189013	1.87725
O	0.646198	-0.739093	1.07104
O	-1.01997	0.707256	1.52148
H	-0.0846845	-0.346502	2.96598
H	-0.970509	0.803192	0.534113
C	4.20989	0.25777	-0.321173
O	4.3586	-0.90014	-0.677433
O	4.58885	0.649933	0.894602
H	3.76233	0.977454	-1.00561
H	4.96109	-0.0757075	1.38313
