15
  This energy is -0.00200284 and Call times are: 4607
C	0.0140212	1.47868	-1.17504
O	0.703238	1.2568	-0.192022
O	-0.936826	0.635304	-1.60444
H	0.0753123	2.36758	-1.82022
H	-0.940652	-0.140151	-0.983778
C	-0.0138689	-1.47878	1.1749
O	-0.703488	-1.25662	0.192246
O	0.936938	-0.635383	1.60434
H	-0.0747014	-2.36799	1.8197
H	0.940428	0.140299	0.983968
C	3.86332	-0.167157	0.420062
O	3.703	-1.01965	-0.438628
O	4.11551	1.0976	0.0849491
H	3.79928	-0.444666	1.47153
H	4.14366	1.19776	-0.860013
