15
  This energy is 2.4457e-05 and Call times are: 52887
C	0.30021	-1.6859	-0.796878
O	0.667133	-0.577638	-1.15422
O	-0.433066	-1.89029	0.307797
H	0.512332	-2.63439	-1.31217
H	-0.588501	-1.00152	0.723124
C	-0.300019	1.68587	0.797003
O	-0.667448	0.577684	1.15401
O	0.433207	1.89027	-0.307703
H	-0.511574	2.6343	1.31265
H	0.588222	1.00156	-0.723297
C	8.54022	0.213671	-0.210557
O	7.87327	-0.468388	-0.971978
O	8.24178	0.275589	1.0866
H	9.38847	0.777457	-0.596978
H	7.48301	-0.261739	1.28493
