15
  This energy is -0.00188796 and Call times are: 9111
C	-0.587363	-1.31979	-1.21678
O	0.421086	-1.28583	-0.529432
O	-1.50696	-0.343018	-1.21115
H	-0.870528	-2.12593	-1.90968
H	-1.19394	0.348411	-0.570444
C	0.587247	1.31969	1.21695
O	-0.420895	1.286	0.529155
O	1.50687	0.342939	1.21128
H	0.870094	2.12551	1.91035
H	1.1941	-0.348253	0.570202
C	4.4597	-0.193765	0.40813
O	4.03558	-0.902558	-0.490498
O	4.97172	1.00761	0.143484
H	4.41857	-0.548415	1.43732
H	4.94538	1.18825	-0.789496
