15
  This energy is 0.000145717 and Call times are: 2886
C	1.5377	0.232075	-1.07193
O	0.68148	1.04085	-0.75045
O	1.51314	-1.05064	-0.679739
H	2.41471	0.435946	-1.70394
H	0.703236	-1.16795	-0.116834
C	-1.53757	-0.232023	1.07212
O	-0.681686	-1.04093	0.750143
O	-1.51304	1.05068	0.679877
H	-2.41423	-0.435724	1.70467
H	-0.703413	1.16786	0.116569
C	8.15621	0.00594873	0.0935661
O	8.72385	-0.959885	0.57807
O	8.83196	0.904737	-0.621321
H	7.08541	0.133366	0.248037
H	9.75185	0.671042	-0.675687
