15
  This energy is 0.000204188 and Call times are: 13771
C	-0.216997	-0.50793	-1.80619
O	-0.993761	0.0642224	-1.05796
O	1.01017	-0.89469	-1.42638
H	-0.40902	-0.775281	-2.85586
H	1.11963	-0.625834	-0.476488
C	0.217085	0.508131	1.80612
O	0.993616	-0.0645539	1.05807
O	-1.0101	0.894839	1.42633
H	0.409345	0.776078	2.8556
H	-1.11975	0.625543	0.476588
C	7.17773	0.413842	0.0537091
O	6.05749	0.320187	0.529193
O	7.75307	-0.629075	-0.543643
H	7.71193	1.36098	0.119091
H	7.17838	-1.38625	-0.529254
