15
  This energy is -0.00211515 and Call times are: 11854
C	0.834528	0.247207	-1.67626
O	-0.155666	-0.405554	-1.38645
O	1.53804	0.945355	-0.772142
H	1.27021	0.349157	-2.68122
H	1.09588	0.812296	0.107262
C	-0.834658	-0.247021	1.67622
O	0.155879	0.405247	1.38652
O	-1.53814	-0.945217	0.772113
H	-1.27074	-0.348441	2.68106
H	-1.09569	-0.812557	-0.107202
C	4.69929	-0.407455	0.00106151
O	3.62838	-0.408635	0.58667
O	5.16894	0.707846	-0.556661
H	5.27644	-1.32895	-0.0656344
H	4.56732	1.43176	-0.423266
