15
  This energy is 0.000347654 and Call times are: 28931
C	-1.23921	0.833157	-1.15656
O	-1.36919	0.486036	0.0067086
O	-0.101623	0.660384	-1.84636
H	-2.00824	1.31741	-1.77643
H	0.546589	0.222065	-1.23459
C	1.23928	-0.832949	1.15662
O	1.36907	-0.486378	-0.00681707
O	0.101679	-0.66023	1.84641
H	2.00852	-1.3166	1.7767
H	-0.54669	-0.222363	1.23449
C	6.12717	-0.322164	0.268472
O	7.17655	-0.661721	-0.254287
O	5.60556	0.880496	0.0296119
H	5.6124	-1.01081	0.93742
H	6.15518	1.37465	-0.568316
