15
  This energy is -1.1555e-05 and Call times are: 16603
C	0.165337	0.954544	-1.62139
O	-0.651468	0.108188	-1.29416
O	1.15111	1.36845	-0.811019
H	0.204234	1.47508	-2.58973
H	1.06032	0.863962	0.0397494
C	-0.165472	-0.954376	1.62147
O	0.65169	-0.108465	1.29402
O	-1.15121	-1.36833	0.81108
H	-0.204777	-1.47444	2.59005
H	-1.06012	-0.864198	-0.0398636
C	18.3388	-0.271005	-0.132257
O	17.3598	-0.358395	-0.855918
O	18.3398	0.552851	0.915014
H	19.2207	-0.873688	-0.346025
H	17.5115	1.01433	0.982898
