15
  This energy is -0.000115294 and Call times are: 17191
C	-0.218775	1.86147	-0.2334
O	0.804184	1.20294	-0.131101
O	-1.44401	1.31665	-0.191631
H	-0.274868	2.95172	-0.368884
H	-1.32404	0.338365	-0.0686754
C	0.218776	-1.86149	0.233171
O	-0.804185	-1.20289	0.131478
O	1.44401	-1.31667	0.191462
H	0.274893	-2.95183	0.36799
H	1.32403	-0.338329	0.0690027
C	8.30908	0.0127251	-0.347764
O	8.74003	1.11713	-0.0573342
O	8.69631	-1.06842	0.328034
H	7.60017	-0.0888042	-1.16865
H	9.31294	-0.835896	1.01322
