15
  This energy is -9.2583e-05 and Call times are: 52466
C	0.578008	-1.10141	-1.42134
O	-0.234146	-1.32893	-0.538603
O	1.23764	0.0623316	-1.5231
H	0.870051	-1.79345	-2.22505
H	0.930786	0.637861	-0.773989
C	-0.578173	1.1015	1.4212
O	0.234418	1.32878	0.538827
O	-1.23776	-0.0622681	1.523
H	-0.870713	1.79377	2.22453
H	-0.930544	-0.637975	0.774181
C	10.3878	-0.244716	0.251094
O	9.64513	-0.941142	-0.422166
O	10.3045	1.08427	0.202343
H	11.1263	-0.716073	0.898491
H	9.62147	1.35833	-0.399471
