15
  This energy is 0.000144233 and Call times are: 34811
C	-1.04901	1.40309	0.705916
O	-1.18969	0.194892	0.810935
O	-0.0443393	1.96298	0.0152998
H	-1.70226	2.17067	1.14664
H	0.504165	1.2218	-0.353981
C	1.04914	-1.40309	-0.705726
O	1.18947	-0.194901	-0.811247
O	0.0444367	-1.96297	-0.0151599
H	1.70276	-2.17067	-1.1459
H	-0.504347	-1.22181	0.353706
C	6.70926	0.433842	-0.0747088
O	5.98904	-0.0244024	-0.947109
O	7.09284	-0.318344	0.956115
H	7.04139	1.46923	-0.140758
H	6.73226	-1.19529	0.887361
