15
  This energy is -2.401e-05 and Call times are: 44276
C	0.474683	0.977677	1.54474
O	1.04091	0.900236	0.465872
O	-0.665087	0.325226	1.81862
H	0.808496	1.57099	2.40886
H	-0.910582	-0.187329	1.00401
C	-0.474807	-0.977496	-1.54481
O	-1.04071	-0.900532	-0.465752
O	0.664994	-0.325093	-1.81867
H	-0.808965	-1.57028	-2.40917
H	0.910752	0.187069	-1.0039
C	52.1138	0.176725	0.275783
O	52.547	-0.0480894	-0.842949
O	50.8453	-0.0935338	0.581571
H	52.7724	0.602991	1.03159
H	50.3877	-0.459565	-0.167034
