15
  This energy is -0.00015791 and Call times are: 27912
C	0.435147	-0.912156	-1.59563
O	-0.568232	-0.278958	-1.30777
O	1.46583	-1.06883	-0.751278
H	0.625421	-1.42253	-2.55138
H	1.23256	-0.587955	0.0859236
C	-0.435046	0.912346	1.59554
O	0.568066	0.278646	1.3079
O	-1.46575	1.06897	0.751217
H	-0.625047	1.42328	2.55106
H	-1.2327	0.587682	-0.0858001
C	4.84981	-0.266888	-0.363306
O	4.21481	-0.663923	0.600498
O	5.58867	0.839076	-0.28298
H	4.81123	-0.823724	-1.2988
H	5.53116	1.22171	0.585389
