15
  This energy is 0.000153564 and Call times are: 33464
C	-1.01654	0.976528	-1.25716
O	-0.51151	1.34388	-0.208077
O	-0.917561	-0.281316	-1.71301
H	-1.60063	1.60287	-1.94758
H	-0.382697	-0.790817	-1.04902
C	1.01673	-0.976473	1.25704
O	0.511194	-1.34397	0.208268
O	0.917703	0.281355	1.71293
H	1.60138	-1.60265	1.94715
H	0.382422	0.790732	1.04918
C	6.94411	0.260968	-0.268619
O	7.08778	0.736036	0.846487
O	7.50772	-0.902738	-0.590562
H	6.34836	0.795204	-1.00779
H	7.99571	-1.25681	0.14447
