15
  This energy is -4.1286e-05 and Call times are: 8521
C	-1.26096	-1.10763	-0.866337
O	-1.42733	-0.271332	0.00744409
O	-0.0567337	-1.38968	-1.38601
H	-2.04622	-1.72233	-1.33074
H	0.602764	-0.805339	-0.927574
C	1.26093	1.10779	0.866173
O	1.42738	0.27107	-0.00717403
O	0.0567118	1.3898	1.38589
H	2.04609	1.72296	1.33011
H	-0.602713	0.805108	0.927804
C	9.98827	0.319432	-0.309695
O	8.79539	0.212644	-0.0742339
O	10.8771	-0.452879	0.314082
H	10.3287	1.05456	-1.03799
H	10.4446	-1.04528	0.918913
