15
  This energy is -3.0992e-05 and Call times are: 16267
C	-1.20574	-1.4284	-0.270659
O	-0.490581	-1.1821	0.6877
O	-1.24607	-0.657325	-1.36774
H	-1.89018	-2.28462	-0.363352
H	-0.610716	0.0919147	-1.22101
C	1.20557	1.42853	0.27075
O	0.490863	1.18189	-0.687849
O	1.24594	0.657418	1.36781
H	1.88952	2.28511	0.363726
H	0.610959	-0.0920892	1.22087
C	14.8614	-0.28599	-0.346675
O	15.7518	0.544541	-0.261761
O	13.85	-0.290818	0.520855
H	14.8951	-1.03088	-1.14085
H	13.9466	0.409345	1.15663
