15
  This energy is 3.3127e-05 and Call times are: 17317
C	1.34644	-0.875791	-0.993726
O	0.965162	-1.07578	0.148729
O	0.822972	0.0759176	-1.78113
H	2.14212	-1.42778	-1.5156
H	0.115967	0.533626	-1.25462
C	-1.34659	0.875642	0.993644
O	-0.964907	1.07603	-0.148593
O	-0.823087	-0.0760277	1.78107
H	-2.14273	1.42719	1.5153
H	-0.115748	-0.533407	1.25474
C	5.44547	0.0143694	-0.0841761
O	5.00988	1.0823	0.315291
O	4.64002	-1.03671	-0.232463
H	6.5045	-0.0791365	-0.321712
H	3.74763	-0.815539	0.00943407
