15
  This energy is -0.000236357 and Call times are: 34937
C	-0.300384	0.720407	1.71994
O	-0.986486	-0.0487685	1.06556
O	0.867756	1.21108	1.27896
H	-0.536556	1.10295	2.72395
H	1.02135	0.829895	0.374714
C	0.300497	-0.720583	-1.71984
O	0.986299	0.0490585	-1.06572
O	-0.867671	-1.21121	-1.27889
H	0.536982	-1.10366	-2.72358
H	-1.0215	-0.829639	-0.374852
C	4.74436	0.171697	0.389917
O	5.90045	0.492513	0.165583
O	4.07465	-0.601756	-0.463768
H	4.2559	0.522208	1.29835
H	4.61835	-0.832801	-1.20861
