15
  This energy is -0.000456135 and Call times are: 27322
C	0.000451619	-1.79714	0.581126
O	-0.399951	-1.31632	-0.467236
O	0.545725	-1.05979	1.56029
H	-0.0295213	-2.86159	0.857175
H	0.543203	-0.116079	1.2505
C	-0.000241518	1.7971	-0.581216
O	0.399605	1.31637	0.467383
O	-0.545569	1.05976	-1.56036
H	0.0303329	2.86147	-0.857547
H	-0.543499	0.116126	-1.25036
C	3.63299	0.0659582	-0.41653
O	3.63141	1.08505	0.255222
O	4.09117	-1.07991	0.086034
H	3.25542	0.0949053	-1.43795
H	4.38763	-0.961715	0.981531
