15
  This energy is -0.0025288 and Call times are: 12924
C	-1.72915	-0.758957	0.0379274
O	-0.912063	-0.634143	0.936463
O	-1.5029	-0.341217	-1.2167
H	-2.7264	-1.21418	0.129687
H	-0.592969	0.0567331	-1.23185
C	1.72906	0.759163	-0.0378784
O	0.912213	0.633804	-0.936544
O	1.50283	0.341369	1.21673
H	2.72605	1.21499	-0.129474
H	0.593099	-0.0570251	1.23177
C	5.49213	-0.367514	0.165717
O	5.06099	0.669561	0.64361
O	6.46902	-0.3451	-0.740202
H	5.07281	-1.32118	0.48417
H	6.73887	0.547677	-0.924339
