15
  This energy is -9.496e-06 and Call times are: 40496
C	1.51574	-0.0626626	1.12517
O	0.333491	-0.192209	1.401
O	1.9529	0.162891	-0.122941
H	2.35433	-0.111203	1.8355
H	1.15286	0.195207	-0.710696
C	-1.51572	0.0624359	-1.12521
O	-0.333525	0.192582	-1.40094
O	-1.95289	-0.163059	0.122913
H	-2.35427	0.110314	-1.83563
H	-1.15289	-0.194882	0.710741
C	35.4419	-0.212649	0.374663
O	34.2298	-0.0724258	0.346771
O	36.2022	0.235988	-0.623425
H	35.906	-0.710192	1.22542
H	35.6699	0.646326	-1.29577
