15
  This energy is -0.00360117 and Call times are: 12148
C	0.618651	1.78226	-0.0907242
O	-0.519522	1.34679	-0.164926
O	1.69108	0.994614	0.0804141
H	0.910936	2.84104	-0.15168
H	1.3611	0.0589465	0.127347
C	-0.618669	-1.78224	0.0909531
O	0.519552	-1.34683	0.16455
O	-1.69109	-0.994599	-0.0802446
H	-0.911029	-2.84096	0.152572
H	-1.36107	-0.058979	-0.127674
C	4.72284	0.199563	0.153835
O	4.48588	-0.751866	-0.573093
O	5.97868	0.555268	0.421884
H	3.89769	0.763222	0.58757
H	6.59428	-0.0192197	-0.0194603
