15
  This energy is -9.993e-06 and Call times are: 38438
C	0.362722	-1.64881	0.846913
O	-0.678623	-1.23175	0.365011
O	1.50137	-0.939399	0.847883
H	0.505682	-2.62732	1.32882
H	1.30586	-0.0736548	0.401982
C	-0.362661	1.64872	-0.847115
O	0.678522	1.2319	-0.364679
O	-1.50132	0.93933	-0.848032
H	-0.505465	2.62696	-1.32962
H	-1.30594	0.0737905	-0.401692
C	21.6816	-0.210464	-0.337247
O	20.9198	0.256354	0.494373
O	23.0006	-0.0772265	-0.202945
H	21.2774	-0.741603	-1.1982
H	23.2128	0.404685	0.58857
