15
  This energy is -1.4833e-05 and Call times are: 44864
C	-1.75989	0.379454	0.571148
O	-0.73307	0.276567	1.22355
O	-1.79598	0.22529	-0.761032
H	-2.75983	0.604372	0.970744
H	-0.868951	0.0258467	-1.05667
C	1.75992	-0.379229	-0.571178
O	0.73301	-0.276939	-1.2235
O	1.79601	-0.225123	0.761009
H	2.75999	-0.603491	-0.970843
H	0.868896	-0.0261698	1.0567
C	55.5641	0.452143	-0.00407505
O	55.1086	-0.044453	1.01362
O	56.0938	-0.313751	-0.95712
H	55.5366	1.53345	-0.133374
H	56.0524	-1.23208	-0.714771
