15
  This energy is -4.904e-06 and Call times are: 45074
C	1.64118	0.625874	-0.694419
O	1.28372	0.496086	0.465734
O	0.856418	0.318077	-1.73806
H	2.61954	0.999173	-1.03147
H	-0.0050073	-0.0101974	-1.36827
C	-1.6411	-0.626088	0.694416
O	-1.28386	-0.495733	-0.465729
O	-0.856356	-0.318236	1.73806
H	-2.61922	-1.00001	1.03149
H	0.00488463	0.0105032	1.36826
C	52.9081	0.041695	0.34466
O	54.036	-0.2382	0.717776
O	52.6377	0.192859	-0.95131
H	52.1147	0.169031	1.08023
H	53.4171	0.0540973	-1.47769
