15
  This energy is 0.000683543 and Call times are: 53013
C	-1.77063	-0.3113	0.579094
O	-1.22398	-0.629695	-0.46511
O	-1.14374	0.364413	1.55387
H	-2.81371	-0.526526	0.854448
H	-0.213647	0.525917	1.24501
C	1.7707	0.311102	-0.578995
O	1.22387	0.63002	0.464946
O	1.14379	-0.364559	-1.5538
H	2.81397	0.525745	-0.854081
H	0.213556	-0.52563	-1.24515
C	7.52765	-0.121425	0.0900485
O	6.86798	-1.03866	-0.371813
O	6.98323	1.07962	0.281391
H	8.57281	-0.287854	0.34823
H	6.07075	1.08354	0.0146427
