15
  This energy is -2.0817e-05 and Call times are: 49064
C	-1.25533	1.35649	-0.389231
O	-1.02811	0.311486	-0.978227
O	-0.591937	1.73014	0.715338
H	-2.00731	2.10781	-0.672414
H	0.0667935	1.01432	0.915955
C	1.25517	-1.35659	0.389364
O	1.02837	-0.311314	0.978008
O	0.591821	-1.73021	-0.715239
H	2.00669	-2.10824	0.672918
H	-0.0665659	-1.01417	-0.916138
C	39.9753	0.0527956	-0.150254
O	40.1361	-1.00527	0.436628
O	40.9843	0.910869	-0.295413
H	38.9957	0.29706	-0.559366
H	41.7763	0.572604	0.107221
