15
  This energy is -2.585e-05 and Call times are: 48644
C	0.47332	1.68832	-0.70209
O	1.16674	0.702857	-0.505635
O	-0.838933	1.72356	-0.425462
H	0.816081	2.64753	-1.11753
H	-1.0831	0.834251	-0.056573
C	-0.47337	-1.6884	0.701877
O	-1.16666	-0.702738	0.505986
O	0.838896	-1.72361	0.425304
H	-0.816257	-2.64783	1.1167
H	1.08317	-0.834146	0.0568789
C	49.2914	0.347171	-0.0177416
O	49.4855	-0.378165	0.944543
O	48.3107	0.0850356	-0.88092
H	49.9275	1.21803	-0.171414
H	47.8377	-0.69957	-0.627086
