15
  This energy is 4.735e-06 and Call times are: 27660
C	-1.03281	-1.41709	-0.701826
O	0.0914381	-1.04784	-1.00231
O	-1.76536	-0.821999	0.251598
H	-1.57982	-2.25734	-1.15451
H	-1.21862	-0.0778158	0.617421
C	1.0329	1.41695	0.701985
O	-0.0915781	1.04808	1.00205
O	1.76542	0.821892	-0.251479
H	1.58017	2.25678	1.15512
H	1.21849	0.0780237	-0.617642
C	9.32222	-0.375914	-0.181167
O	8.60727	0.1124	0.679173
O	10.4857	0.189379	-0.500875
H	9.00445	-1.28382	-0.692468
H	10.6365	0.970314	0.0198689
