15
  This energy is -0.000761071 and Call times are: 36290
C	1.85134	-0.329177	0.177776
O	1.26597	0.468956	-0.536997
O	1.21456	-1.16254	1.01432
H	2.941	-0.46985	0.232441
H	0.241928	-0.98606	0.917304
C	-1.85132	0.329332	-0.177606
O	-1.26599	-0.469212	0.536718
O	-1.21455	1.16265	-1.01419
H	-2.94096	0.470474	-0.231793
H	-0.241949	0.985831	-0.91754
C	8.39865	0.111267	0.392295
O	7.25034	-0.27445	0.541952
O	8.94337	0.172446	-0.822222
H	8.98349	0.408458	1.26198
H	8.32502	-0.114423	-1.48489
