15
  This energy is -0.00187146 and Call times are: 11557
C	-0.884995	0.489711	-1.59511
O	-1.34904	0.169118	-0.512308
O	0.433646	0.546937	-1.83529
H	-1.46255	0.765586	-2.4898
H	0.894654	0.288607	-0.994278
C	0.884999	-0.489489	1.59517
O	1.34903	-0.169483	0.512204
O	-0.433642	-0.546773	1.83533
H	1.46256	-0.764725	2.49006
H	-0.894652	-0.288923	0.994184
C	4.75509	0.379883	-0.0380165
O	5.18736	-0.00778617	-1.11163
O	5.01525	-0.291617	1.08311
H	4.1501	1.28489	0.00267185
H	5.55041	-1.05635	0.902651
