15
  This energy is -0.00142329 and Call times are: 14242
C	-1.10106	1.20095	-0.955405
O	0.035694	1.35007	-0.53572
O	-1.79774	0.0669378	-0.786834
H	-1.68893	1.94799	-1.50902
H	-1.21519	-0.561133	-0.284119
C	1.10114	-1.20103	0.955205
O	-0.0358257	-1.34993	0.536049
O	1.7978	-0.0669992	0.786686
H	1.68926	-1.94831	1.50824
H	1.21507	0.561244	0.284405
C	5.43202	0.266974	-0.283955
O	5.7053	0.479137	0.886557
O	4.53865	-0.664073	-0.616454
H	5.92459	0.84582	-1.06435
H	4.18941	-1.08957	0.158635
