15
  This energy is -0.000523325 and Call times are: 14985
C	0.564492	-1.18268	-1.36016
O	0.189239	-1.42309	-0.223511
O	0.638964	0.0617999	-1.85563
H	0.881481	-1.92561	-2.10697
H	0.341538	0.6799	-1.13727
C	-0.564708	1.18266	1.36008
O	-0.188883	1.42312	0.223642
O	-0.639123	-0.0618108	1.85558
H	-0.88233	1.92553	2.10668
H	-0.341228	-0.67987	1.13737
C	3.67063	0.447781	-0.0660997
O	3.50602	0.135283	1.10225
O	3.90689	-0.480604	-0.992274
H	3.62363	1.4975	-0.35347
H	3.92106	-1.34865	-0.604884
