15
  This energy is -1.8889e-05 and Call times are: 52004
C	-0.719112	0.19468	-1.73562
O	0.445981	0.179574	-1.37106
O	-1.75036	0.0647405	-0.887432
H	-1.07092	0.312523	-2.77124
H	-1.36761	-0.0371055	0.0234448
C	0.719114	-0.194909	1.73559
O	-0.445983	-0.179198	1.37111
O	1.75036	-0.0649098	0.887411
H	1.07094	-0.313416	2.77113
H	1.3676	0.0374318	-0.0233999
C	12.9936	0.388088	0.234704
O	13.6814	0.460547	-0.770996
O	12.3594	-0.741786	0.545733
H	12.898	1.25737	0.884254
H	12.5297	-1.41481	-0.103749
