15
  This energy is -2.5728e-05 and Call times are: 16855
C	0.854335	1.60991	-0.495673
O	0.194502	1.35084	0.498347
O	1.09155	0.715472	-1.467
H	1.32772	2.57643	-0.723488
H	0.640502	-0.128937	-1.20226
C	-0.854141	-1.60998	0.495778
O	-0.19482	-1.35073	-0.49852
O	-1.09141	-0.715522	1.46708
H	-1.32698	-2.5767	0.723921
H	-0.640776	0.12903	1.2021
C	13.7579	0.264238	-0.0884253
O	12.7354	0.668316	-0.618489
O	13.748	-0.841153	0.655569
H	14.6881	0.814248	-0.225894
H	12.8756	-1.21744	0.69028
