15
  This energy is -1.2582e-05 and Call times are: 23377
C	0.829131	1.52411	0.746345
O	-0.288115	1.07094	0.938631
O	1.70973	0.960915	-0.0945661
H	1.25209	2.4232	1.21847
H	1.26955	0.160464	-0.484543
C	-0.829045	-1.52424	-0.746174
O	0.287973	-1.07073	-0.938913
O	-1.70966	-0.96101	0.0946925
H	-1.25178	-2.4237	-1.21779
H	-1.26967	-0.160283	0.484293
C	18.074	0.356891	0.0574116
O	16.9444	0.682056	-0.271431
O	18.3949	-0.927094	0.211973
H	18.827	1.12579	0.226073
H	17.647	-1.48629	0.0339701
