15
  This energy is -1.9947e-05 and Call times are: 48728
C	-1.34401	-0.716695	1.11687
O	-0.939717	0.431293	1.02072
O	-0.85332	-1.72655	0.382564
H	-2.13683	-1.06828	1.79361
H	-0.147212	-1.34519	-0.202703
C	1.34385	0.716733	-1.11703
O	0.939978	-0.431355	-1.02046
O	0.853203	1.72657	-0.382685
H	2.13621	1.06845	-1.79424
H	0.147441	1.34513	0.202932
C	48.8575	-0.295154	0.0361152
O	49.5776	-0.528636	-0.921321
O	49.1118	0.73315	0.844457
H	47.9978	-0.935222	0.230776
H	49.887	1.2038	0.559087
