15
  This energy is -0.00417789 and Call times are: 6253
C	-1.35776	-1.20301	-0.525969
O	-1.44074	-0.0337433	-0.184649
O	-0.192317	-1.86499	-0.583358
H	-2.19591	-1.85089	-0.822478
H	0.51827	-1.22886	-0.305931
C	1.35779	1.20307	0.525749
O	1.44069	0.0336416	0.185012
O	0.192338	1.86503	0.583195
H	2.19601	1.85115	0.821622
H	-0.518303	1.22876	0.306245
C	6.86349	-0.363013	0.134259
O	8.01004	-0.640889	-0.178798
O	6.42395	0.89291	0.063727
H	6.19325	-1.15134	0.47488
H	7.10917	1.47391	-0.247212
