15
  This energy is -0.00300128 and Call times are: 11473
C	-0.9418	-0.321309	-1.60536
O	0.075141	-0.845494	-1.17917
O	-1.59824	0.642695	-0.942366
H	-1.44149	-0.558298	-2.55631
H	-1.09955	0.808321	-0.0994901
C	0.941669	0.321151	1.60546
O	-0.0749258	0.845754	1.179
O	1.59814	-0.642811	0.942444
H	1.44099	0.557668	2.55672
H	1.09973	-0.808089	0.0993418
C	4.65628	-0.0309039	-0.0888694
O	4.88481	0.562755	0.952829
O	5.65311	-0.508845	-0.832788
H	3.62566	-0.170855	-0.412799
H	6.49454	-0.316769	-0.43419
