15
  This energy is -0.00182265 and Call times are: 4231
C	0.514003	1.81743	-0.0118321
O	0.0247692	1.15088	0.886462
O	0.782357	1.31773	-1.22759
H	0.791901	2.88006	0.0494454
H	0.510422	0.362487	-1.2167
C	-0.51379	-1.81749	0.0118997
O	-0.0251196	-1.15079	-0.886573
O	-0.782199	-1.31778	1.22764
H	-0.791078	-2.88029	-0.0491611
H	-0.510723	-0.362407	1.2166
C	5.97009	-0.0144745	-0.143891
O	6.07819	0.501946	0.956751
O	7.04326	-0.464164	-0.793198
H	4.9849	-0.10815	-0.599231
H	7.83233	-0.319132	-0.283191
