15
  This energy is 0.000101467 and Call times are: 22453
C	0.443772	-0.141256	-1.83044
O	0.0749135	-1.00315	-1.04835
O	0.603094	1.14334	-1.47801
H	0.687284	-0.293412	-2.89238
H	0.368924	1.21272	-0.515251
C	-0.44399	0.141302	1.83038
O	-0.0745545	1.00307	1.04845
O	-0.603255	-1.1433	1.47797
H	-0.688143	0.293572	2.89216
H	-0.368611	-1.21278	0.515336
C	8.06204	-0.11448	-0.434494
O	7.64389	1.02498	-0.305752
O	8.28856	-0.880989	0.631653
H	8.2517	-0.507876	-1.43248
H	8.0817	-0.414283	1.43363
