15
  This energy is -1.6332e-05 and Call times are: 42638
C	-1.55873	0.889388	-0.588852
O	-0.621092	1.31164	0.0692544
O	-1.62925	-0.375781	-1.02948
H	-2.44215	1.46653	-0.899721
H	-0.808086	-0.839363	-0.717465
C	1.55884	-0.889328	0.588656
O	0.620919	-1.31174	-0.0689313
O	1.62932	0.375824	1.02933
H	2.44257	-1.46629	0.898966
H	0.807933	0.83927	0.717741
C	52.7215	-0.352822	0.0607795
O	52.1799	0.577292	-0.514873
O	53.9962	-0.269246	0.439966
H	52.1555	-1.26063	0.266183
H	54.366	0.572706	0.198951
