15
  This energy is -1.8816e-05 and Call times are: 42050
C	0.0532253	-1.07845	-1.54968
O	0.198228	-1.38885	-0.377842
O	-0.185388	0.180693	-1.9464
H	0.0966034	-1.76288	-2.40981
H	-0.212311	0.743859	-1.12867
C	-0.0534526	1.07842	1.54969
O	-0.197854	1.38891	0.377819
O	0.185219	-0.180719	1.94641
H	-0.0974879	1.76273	2.40989
H	0.212634	-0.743801	1.12864
C	33.9858	0.314788	0.0891513
O	35.0847	0.798938	-0.12948
O	33.8038	-1.00469	0.0525049
H	33.1456	0.96969	0.316604
H	34.616	-1.45233	-0.156458
