15
  This energy is -5.195e-06 and Call times are: 45746
C	0.442003	-1.0028	1.53832
O	-0.346982	-1.25644	0.641808
O	1.17494	0.120441	1.56859
H	0.652899	-1.63663	2.41235
H	0.93916	0.644342	0.758348
C	-0.441833	1.00269	-1.53844
O	0.346702	1.25661	-0.641619
O	-1.17481	-0.120518	-1.56868
H	-0.652249	1.63621	-2.41281
H	-0.939398	-0.644185	-0.758182
C	45.2244	-0.266458	-0.345347
O	44.2648	-0.709143	0.265367
O	45.7934	0.88158	0.0203968
H	45.619	-0.816934	-1.19856
H	45.3506	1.2529	0.775276
