15
  This energy is -1.5395e-05 and Call times are: 43562
C	-0.853454	1.10446	-1.27248
O	-1.31567	0.212553	-0.578617
O	0.438326	1.4643	-1.23255
H	-1.41161	1.71336	-1.99901
H	0.882867	0.881065	-0.562635
C	0.853408	-1.1043	1.27264
O	1.31574	-0.212811	0.578349
O	-0.438359	-1.46418	1.23267
H	1.41142	-1.71276	1.99966
H	-0.882794	-0.881285	0.562401
C	62.0165	0.167508	-0.0651149
O	61.1559	0.81724	-0.636995
O	61.693	-0.906114	0.654755
H	63.06	0.469735	-0.144923
H	60.754	-1.05373	0.638376
