15
  This energy is 0.000565784 and Call times are: 9916
C	0.688589	-0.348332	1.72392
O	-0.468066	-0.338059	1.33326
O	1.73195	-0.0920129	0.920514
H	1.02236	-0.561237	2.75029
H	1.36522	0.0906415	0.0156903
C	-0.688569	0.348108	-1.72397
O	0.468033	0.338428	-1.33318
O	-1.73194	0.0918472	-0.920552
H	-1.02231	0.56036	-2.75049
H	-1.36524	-0.0903199	-0.0156215
C	6.18992	-0.210296	-0.38652
O	5.71932	-0.760455	0.596155
O	6.93679	0.885991	-0.260595
H	5.99646	-0.621057	-1.37675
H	7.02371	1.13266	0.653393
