15
  This energy is -0.00455407 and Call times are: 26088
C	-1.05561	0.546684	-1.46773
O	-1.35075	0.451833	-0.286852
O	0.164872	0.25196	-1.94031
H	-1.72475	0.874662	-2.27695
H	0.716071	-0.0350112	-1.16546
C	1.05568	-0.546466	1.46776
O	1.35064	-0.452193	0.286803
O	-0.164822	-0.251799	1.94033
H	1.725	-0.873808	2.27708
H	-0.71616	0.0346976	1.16542
C	4.90303	0.206176	0.0282546
O	3.98441	0.921966	0.393737
O	4.67127	-1.03577	-0.395275
H	5.92304	0.588075	0.049039
H	3.74274	-1.23685	-0.361056
