15
  This energy is 8.91e-07 and Call times are: 22579
C	0.705919	-0.457808	1.691
O	-0.122387	-1.03918	1.00801
O	1.28791	0.689907	1.31178
H	1.07551	-0.782733	2.67486
H	0.913717	0.92668	0.422697
C	-0.705748	0.457691	-1.6911
O	0.122105	1.03938	-1.00784
O	-1.28779	-0.689992	-1.31186
H	-1.07486	0.78226	-2.67526
H	-0.913957	-0.926506	-0.422554
C	13.921	-0.0568068	0.39203
O	12.9651	0.694711	0.498111
O	14.2224	-0.613475	-0.780477
H	14.5336	-0.273973	1.26626
H	13.6088	-0.338901	-1.45274
