15
  This energy is -0.000479788 and Call times are: 24840
C	0.191476	1.07143	-1.54363
O	0.457872	1.32561	-0.379582
O	-0.320487	-0.105438	-1.93433
H	0.329345	1.74712	-2.40071
H	-0.419527	-0.665124	-1.11977
C	-0.191264	-1.07151	1.54359
O	-0.458221	-1.32547	0.379639
O	0.320644	0.105376	1.93431
H	-0.32851	-1.74744	2.40059
H	0.41922	0.665237	1.11982
C	3.3397	-0.274375	-0.0253775
O	3.73587	-0.126666	1.11962
O	3.94959	0.335958	-1.04078
H	2.47799	-0.912421	-0.217882
H	4.68148	0.85774	-0.731165
