15
  This energy is -0.000260236 and Call times are: 25094
C	-0.479347	-0.966684	1.55021
O	-0.519551	-1.30332	0.377337
O	-0.0533361	0.241684	1.94788
H	-0.775826	-1.58469	2.41063
H	0.197306	0.746213	1.12983
C	0.479562	0.966604	-1.55019
O	0.519196	1.30345	-0.37737
O	0.0534957	-0.241742	-1.94786
H	0.776664	1.58436	-2.41058
H	-0.197611	-0.746092	-1.12986
C	4.9723	-0.164502	0.323311
O	3.79887	-0.440884	0.514268
O	5.33943	0.547178	-0.741698
H	5.72669	-0.503982	1.03209
H	4.58438	0.775701	-1.27222
