15
  This energy is 0.000192494 and Call times are: 34096
C	-1.12635	0.153137	-1.50841
O	-0.137291	-0.542726	-1.34073
O	-1.60172	0.983509	-0.568048
H	-1.74123	0.193734	-2.41968
H	-1.00653	0.899773	0.222709
C	1.12621	-0.153303	1.50849
O	0.137515	0.543	1.3406
O	1.60162	-0.983632	0.568109
H	1.74072	-0.1944	2.42
H	1.00672	-0.899529	-0.222822
C	9.4647	-0.135711	-0.233057
O	8.6595	-1.0361	-0.057735
O	9.2303	1.08844	0.238131
H	10.3846	-0.336439	-0.7809
H	8.39609	1.12164	0.692849
