15
  This energy is -0.00350487 and Call times are: 25787
C	-0.0573112	-1.16316	-1.48701
O	0.0655093	0.0509924	-1.45054
O	-0.18071	-1.91708	-0.384215
H	-0.0827848	-1.78331	-2.39526
H	-0.150234	-1.30151	0.394699
C	0.0575399	1.16313	1.48702
O	-0.0658857	-0.0509467	1.45052
O	0.180879	1.91706	0.384223
H	0.0836806	1.78322	2.39529
H	0.149906	1.30154	-0.394708
C	3.83461	-0.199726	0.232127
O	3.60415	-0.756445	-0.829353
O	3.13797	0.873873	0.60305
H	4.61868	-0.585803	0.882431
H	2.49001	1.10024	-0.0547386
