15
  This energy is -0.00012119 and Call times are: 5410
C	0.424143	-1.65144	0.812549
O	-0.144273	-1.425	-0.243954
O	0.870121	-0.680219	1.62347
H	0.640944	-2.64598	1.22974
H	0.644833	0.185824	1.19245
C	-0.423938	1.65144	-0.812655
O	0.143936	1.42501	0.244128
O	-0.869969	0.680218	-1.62355
H	-0.640154	2.64597	-1.23018
H	-0.645122	-0.185816	-1.1923
C	4.85281	-0.440202	-0.0957713
O	5.69287	0.26065	-0.636962
O	3.91251	0.0995234	0.678852
H	4.87313	-1.51861	-0.248544
H	4.01272	1.04382	0.724049
