15
  This energy is -0.00130387 and Call times are: 11683
C	0.126017	1.73175	0.743353
O	-0.419641	1.36165	-0.284197
O	0.772647	0.894211	1.56808
H	0.161411	2.76449	1.12064
H	0.703928	-0.0146144	1.17327
C	-0.12621	-1.73178	-0.743232
O	0.419959	-1.36159	0.283999
O	-0.772789	-0.894237	-1.56799
H	-0.162178	-2.76463	-1.12019
H	-0.703647	0.0146608	-1.17343
C	4.36562	0.154847	-0.421255
O	3.43801	0.712288	0.143182
O	5.06502	-0.796715	0.195902
H	4.6235	0.439325	-1.4407
H	4.7341	-0.943148	1.07501
