15
  This energy is -2.1784e-05 and Call times are: 40370
C	-0.560347	1.41095	1.12367
O	-0.852391	0.225909	1.15471
O	0.271881	1.93323	0.210218
H	-0.925684	2.18506	1.81464
H	0.56364	1.1881	-0.378187
C	0.560527	-1.41099	-1.12353
O	0.852094	-0.225849	-1.15494
O	-0.271747	-1.93325	-0.210115
H	0.926378	-2.18522	-1.81409
H	-0.563892	-1.18804	0.377983
C	37.2967	0.0856596	-0.396298
O	37.4246	-1.10957	-0.184551
O	37.7314	0.983814	0.486762
H	36.8216	0.420445	-1.31768
H	38.1224	0.555451	1.24003
