15
  This energy is -0.00416594 and Call times are: 25491
C	-1.04238	-1.21061	1.00761
O	-1.39375	-0.279265	0.300705
O	0.24464	-1.54197	1.19078
H	-1.7078	-1.88152	1.57086
H	0.788676	-0.902946	0.65952
C	1.04237	1.21046	-1.00779
O	1.39377	0.279504	-0.30041
O	-0.244646	1.54186	-1.19091
H	1.70775	1.88097	-1.57157
H	-0.788655	0.90315	-0.659262
C	4.66949	-0.00799039	-0.142616
O	5.14907	1.11421	-0.164378
O	5.39235	-1.04934	0.267984
H	3.63913	-0.158476	-0.462635
H	6.26829	-0.775891	0.516429
