15
  This energy is -1.9607e-05 and Call times are: 6883
C	1.52693	-0.17913	1.09718
O	0.34353	-0.214328	1.39535
O	1.95701	0.00805087	-0.159702
H	2.37226	-0.291839	1.79207
H	1.15113	0.101859	-0.732682
C	-1.52692	0.178902	-1.09722
O	-0.343533	0.214703	-1.39529
O	-1.95701	-0.00821921	0.159675
H	-2.37227	0.290948	-1.7922
H	-1.15112	-0.101532	0.732726
C	27.2036	-0.187109	0.116726
O	27.5467	-0.485731	-1.01593
O	27.9624	0.607461	0.870645
H	26.2666	-0.575099	0.514397
H	28.7462	0.871025	0.401524
