15
  This energy is -0.00139639 and Call times are: 13947
C	-0.0646967	-0.204276	1.87656
O	0.827551	0.237977	1.17025
O	-1.23099	-0.649284	1.38513
H	-0.0364651	-0.295475	2.97248
H	-1.19232	-0.540142	0.39864
C	0.0646041	0.204486	-1.87654
O	-0.827398	-0.238323	-1.17029
O	1.23092	0.649439	-1.38511
H	0.0361235	0.296305	-2.9724
H	1.19244	0.539838	-0.398673
C	4.2296	0.0673968	-0.442991
O	4.27364	1.11122	0.188115
O	4.38039	-1.10584	0.170439
H	4.06517	0.0966802	-1.51947
H	4.51568	-0.984486	1.10358
