15
  This energy is -0.000533332 and Call times are: 52761
C	0.307294	-0.292688	-1.84046
O	-0.298441	-0.978238	-1.03196
O	0.895336	0.868732	-1.5163
H	0.449174	-0.524101	-2.90652
H	0.731366	1.01829	-0.54815
C	-0.307487	0.292803	1.84041
O	0.298757	0.978048	1.03205
O	-0.895478	-0.868646	1.51626
H	-0.449938	0.524535	2.90632
H	-0.731086	-1.01845	0.548225
C	4.06665	-0.00271099	0.133951
O	4.18284	0.142927	-1.07232
O	5.14156	-0.133279	0.910511
H	3.07275	-0.0260263	0.579271
H	5.9386	-0.0948201	0.393767
