15
  This energy is -0.00152826 and Call times are: 358
C	0.626299	1.78159	-0.0331566
O	1.16705	0.772301	0.390517
O	-0.596578	1.77695	-0.584813
H	1.05133	2.79617	-0.0214465
H	-0.921782	0.83865	-0.565042
C	-0.626207	-1.78162	0.0329476
O	-1.1672	-0.772245	-0.390173
O	0.596645	-1.77698	0.584658
H	-1.05095	-2.79631	0.0206396
H	0.921644	-0.838599	0.565337
C	4.12141	-0.262439	-0.243423
O	4.78193	0.491482	-0.939925
O	4.25742	-0.259085	1.0821
H	3.41333	-0.945015	-0.711845
H	4.90515	0.381522	1.35384
