15
  This energy is -2.0218e-05 and Call times are: 39572
C	0.965517	-1.02619	-1.25782
O	0.507336	0.10105	-1.3577
O	0.8416	-1.76794	-0.146867
H	1.52239	-1.56891	-2.03596
H	0.333386	-1.22465	0.511249
C	-0.965318	1.02627	1.2579
O	-0.507663	-0.101187	1.35757
O	-0.841452	1.768	0.146928
H	-1.52162	1.56926	2.03627
H	-0.33367	1.22452	-0.511359
C	29.6361	0.183222	-0.341228
O	29.433	0.974672	0.565513
O	29.1829	-1.06764	-0.267211
H	30.194	0.504274	-1.22005
H	28.7164	-1.21045	0.548739
