15
  This energy is -0.00034894 and Call times are: 36332
C	0.0290255	0.167735	1.88107
O	0.651033	0.787595	1.03286
O	-0.84131	-0.807683	1.57966
H	0.093989	0.317917	2.9689
H	-0.853085	-0.892375	0.590087
C	-0.029198	-0.167582	-1.88108
O	-0.650749	-0.787846	-1.03285
O	0.841182	0.807796	-1.57966
H	-0.0946484	-0.317306	-2.96895
H	0.853325	0.89215	-0.590074
C	5.90483	0.340377	-0.227576
O	5.22749	-0.674993	-0.232348
O	7.08026	0.371606	0.39925
H	5.54329	1.23009	-0.741775
H	7.27066	-0.467922	0.802629
