15
  This energy is -3.454e-06 and Call times are: 3348
C	1.75764	0.620683	0.304721
O	0.724801	0.877835	0.902789
O	1.80357	-0.210737	-0.747138
H	2.75585	1.02033	0.537153
H	0.877617	-0.534279	-0.903672
C	-1.7576	-0.620861	-0.304581
O	-0.724869	-0.87754	-0.903019
O	-1.80353	0.210604	0.747241
H	-2.7557	-1.02102	-0.536593
H	-0.877674	0.534529	0.903465
C	16.9036	-0.401613	-0.054634
O	17.4941	0.503615	-0.621767
O	15.7873	-0.161041	0.632079
H	17.2945	-1.41684	-0.111295
H	15.5619	0.761882	0.598168
