15
  This energy is -0.00515038 and Call times are: 28542
C	-1.30556	-1.36375	-0.0557092
O	-0.349683	-1.22889	0.69174
O	-1.5968	-0.490813	-1.0319
H	-2.03277	-2.18885	-0.0327134
H	-0.907929	0.223982	-0.998892
C	1.30543	1.36387	0.0558528
O	0.349905	1.22869	-0.691976
O	1.5967	0.490902	1.032
H	2.03226	2.18931	0.0332913
H	0.908118	-0.224149	0.99868
C	4.84091	0.253153	-0.159473
O	4.18213	-0.259406	-1.05002
O	4.53284	0.0465188	1.12033
H	5.68977	0.886244	-0.41511
H	3.77473	-0.521824	1.19804
