15
  This energy is -1.9611e-05 and Call times are: 35996
C	-0.0775841	-0.34005	1.85627
O	-0.790667	0.367362	1.16226
O	0.955047	-1.04076	1.36388
H	-0.179618	-0.494711	2.94063
H	0.992022	-0.858797	0.388134
C	0.0774469	0.339868	-1.85631
O	0.790893	-0.367062	-1.1622
O	-0.955148	1.04063	-1.36391
H	0.179065	0.494016	-2.94078
H	-0.991819	0.859052	-0.388082
C	10.6521	-0.377529	0.0421632
O	10.151	0.577657	0.613401
O	11.8047	-0.250146	-0.614336
H	10.1506	-1.34418	0.0701323
H	12.1294	0.641513	-0.557313
