15
  This energy is 7.944e-05 and Call times are: 10589
C	-1.49664	-0.0171301	1.15203
O	-0.583042	0.788769	1.07185
O	-1.58215	-1.10288	0.368688
H	-2.34413	0.0339239	1.85154
H	-0.793449	-1.08974	-0.234914
C	1.49652	0.0172481	-1.15218
O	0.583245	-0.788963	-1.0716
O	1.58206	1.10296	-0.368803
H	2.34366	-0.0334443	-1.85214
H	0.793623	1.08957	0.235131
C	9.82193	-0.0141674	-0.358069
O	10.1136	1.12665	-0.0367677
O	10.306	-1.05627	0.31666
H	9.15852	-0.180822	-1.20591
H	10.8676	-0.767539	1.02729
