15
  This energy is -0.00126023 and Call times are: 27238
C	1.41968	0.256041	-1.21917
O	1.41652	0.323136	-0.000124737
O	0.323555	-0.0335445	-1.9364
H	2.28929	0.417745	-1.87322
H	-0.419974	-0.167093	-1.29151
C	-1.41963	-0.256266	1.21917
O	-1.41661	-0.322766	0.000111228
O	-0.323518	0.033378	1.93641
H	-2.28908	-0.41862	1.87327
H	0.419895	0.167413	1.29149
C	5.64159	0.355362	0.275764
O	6.80917	0.00744523	0.201443
O	4.69512	-0.286748	-0.407896
H	5.37172	1.20022	0.908293
H	5.06865	-0.998716	-0.915193
