15
  This energy is -1.9832e-05 and Call times are: 32834
C	-0.822693	1.51001	-0.781322
O	-0.928092	1.06184	0.349434
O	-0.041615	0.950522	-1.71763
H	-1.33454	2.40115	-1.17378
H	0.38852	0.157272	-1.30254
C	0.82287	-1.50987	0.781387
O	0.9278	-1.06206	-0.34954
O	0.0417464	-0.950424	1.71768
H	1.33523	-2.40064	1.17405
H	-0.388769	-0.157464	1.30244
C	12.8277	-0.0817282	-0.245864
O	12.8478	1.04986	0.21118
O	13.8267	-0.930341	-0.00656528
H	11.9832	-0.400112	-0.85592
H	14.4931	-0.523665	0.535999
