15
  This energy is -1.8509e-05 and Call times are: 7261
C	0.62986	-1.78064	0.00242401
O	-0.232699	-1.25917	-0.686513
O	1.31752	-1.11163	0.940147
H	0.950234	-2.83178	-0.0487727
H	0.982984	-0.17642	0.935364
C	-0.629698	1.78069	-0.00257824
O	0.232431	1.25908	0.686767
O	-1.3174	1.11167	-0.940261
H	-0.949617	2.832	0.0481544
H	-0.983211	0.176345	-0.935137
C	25.1064	0.00327843	-0.201428
O	24.2127	0.376682	-0.944235
O	24.8418	-0.359458	1.05313
H	26.1311	-0.0333661	-0.569398
H	23.913	-0.279019	1.23953
