15
  This energy is -0.00368629 and Call times are: 17866
C	0.192092	1.87435	-0.131661
O	-0.725264	1.15652	-0.497397
O	1.29417	1.40031	0.468744
H	0.239764	2.96804	-0.239938
H	1.18881	0.414922	0.535594
C	-0.19219	-1.87432	0.131868
O	0.725425	-1.15657	0.497056
O	-1.29424	-1.40029	-0.468591
H	-0.240166	-2.96794	0.240737
H	-1.18866	-0.414962	-0.535886
C	4.81825	-0.100849	0.143643
O	4.0827	-1.07468	0.123535
O	4.37142	1.09756	-0.230097
H	5.8511	-0.214056	0.470929
H	3.45813	1.05183	-0.490049
