15
  This energy is -2.1039e-05 and Call times are: 40790
C	-1.01248	-0.0346847	1.59408
O	-0.486139	0.908269	1.02454
O	-0.945102	-1.29356	1.13532
H	-1.59293	0.0159489	2.52718
H	-0.411939	-1.27044	0.297606
C	1.01228	0.0347151	-1.5942
O	0.486459	-0.908319	-1.02434
O	0.944958	1.29358	-1.13541
H	1.59217	-0.0158087	-2.52765
H	0.412216	1.27039	-0.297435
C	36.7615	0.165057	0.252817
O	37.0148	0.871981	-0.709416
O	37.4471	-0.956048	0.473135
H	35.966	0.454991	0.938208
H	38.1073	-1.0861	-0.198498
