15
  This energy is -0.00236675 and Call times are: 22411
C	-0.177891	1.77044	-0.633477
O	-0.565092	0.722822	-1.12657
O	0.488239	1.82662	0.529661
H	-0.316625	2.77534	-1.05902
H	0.579514	0.893908	0.858708
C	0.177693	-1.77042	0.633592
O	0.565418	-0.722861	1.12638
O	-0.488385	-1.82661	-0.529575
H	0.315841	-2.77526	1.05945
H	-0.579227	-0.89394	-0.858866
C	5.95096	0.332903	0.269632
O	7.1647	0.209129	0.305894
O	5.20859	-0.460152	-0.50203
H	5.47063	1.10051	0.875243
H	5.75388	-1.08042	-0.972882
