15
  This energy is -1.7417e-05 and Call times are: 49778
C	0.300832	1.84516	0.268884
O	-0.70853	1.26463	-0.0982044
O	1.44403	1.20661	0.560664
H	0.408157	2.93137	0.405922
H	1.28121	0.237271	0.417734
C	-0.300895	-1.84518	-0.268663
O	0.708635	-1.2646	0.0978411
O	-1.44407	-1.20663	-0.560501
H	-0.408428	-2.93145	-0.405067
H	-1.28111	-0.237245	-0.418047
C	29.3615	-0.369168	-0.0327179
O	29.9876	0.618477	0.317055
O	28.0532	-0.2954	-0.274635
H	29.8791	-1.32074	-0.147996
H	27.7331	0.588897	-0.135677
