15
  This energy is -0.000523412 and Call times are: 36206
C	-1.7676	0.563497	-0.354229
O	-1.36816	-0.392413	0.291727
O	-0.942226	1.42992	-0.960728
H	-2.82011	0.836064	-0.521806
H	-0.0144457	1.12967	-0.771963
C	1.7676	-0.563363	0.354417
O	1.36816	0.392193	-0.292037
O	0.942228	-1.42983	0.960867
H	2.82012	-0.835561	0.522553
H	0.0144458	-1.12985	0.77169
C	8.68351	-0.324955	0.140593
O	7.61486	-0.770876	-0.245322
O	8.92072	0.986109	0.121768
H	9.45088	-1.00737	0.504141
H	8.16996	1.46065	-0.217269
