15
  This energy is -9.643e-06 and Call times are: 37346
C	-0.154673	1.85039	-0.345736
O	-0.982012	0.961418	-0.471472
O	1.09339	1.62827	0.0933367
H	-0.312556	2.91638	-0.56687
H	1.17007	0.654514	0.273554
C	0.154606	-1.85035	0.345953
O	0.982122	-0.961479	0.471114
O	-1.09343	-1.62824	-0.0931756
H	0.312275	-2.91624	0.567715
H	-1.16997	-0.654567	-0.273862
C	8.18902	0.299205	-0.13966
O	7.70421	-0.787525	0.131957
O	9.49871	0.510626	-0.0150977
H	7.5428	1.10421	-0.48761
H	9.93943	-0.272213	0.295876
