15
  This energy is -4.6195e-05 and Call times are: 32666
C	1.70712	0.00100031	0.80817
O	0.601907	-0.0857499	1.31959
O	1.89093	0.118862	-0.515498
H	2.66883	-0.00527838	1.34225
H	0.991077	0.118067	-0.93601
C	-1.70711	-0.00122952	-0.808191
O	-0.601928	0.0861271	-1.31955
O	-1.89092	-0.119032	0.515482
H	-2.66879	0.00438096	-1.34232
H	-0.991092	-0.117738	0.936033
C	13.9007	-0.313946	0.129348
O	13.7407	0.555701	0.970712
O	13.23	-0.279388	-1.02148
H	14.5999	-1.12668	0.322647
H	12.6585	0.479499	-1.057
