15
  This energy is -3.3751e-05 and Call times are: 42806
C	0.483421	-0.376534	1.7866
O	-0.621016	-0.34599	1.26712
O	1.6146	-0.125997	1.11025
H	0.695475	-0.605172	2.84154
H	1.35559	0.0715336	0.171929
C	-0.483399	0.37631	-1.78665
O	0.620979	0.346359	-1.26703
O	-1.61458	0.125831	-1.11029
H	-0.69541	0.604297	-2.84175
H	-1.35561	-0.0712125	-0.171859
C	53.1423	-0.0750816	-0.0669202
O	52.8577	0.0218393	1.11604
O	52.2025	0.0384034	-1.00469
H	54.1763	-0.256346	-0.35787
H	51.3506	0.194234	-0.61247
