15
  This energy is 0.000502717 and Call times are: 4062
C	-1.24937	1.32168	-0.509547
O	-0.895945	0.970621	0.605092
O	-0.76318	0.775716	-1.63441
H	-1.98769	2.10488	-0.736812
H	-0.107167	0.0815819	-1.36167
C	1.24954	-1.32152	0.509539
O	0.895669	-0.970882	-0.605079
O	0.763304	-0.775599	1.6344
H	1.98834	-2.10426	0.736804
H	0.106929	-0.0818105	1.36167
C	6.10296	-0.359844	0.193463
O	7.13676	-0.0341402	0.754682
O	5.66231	0.315567	-0.867273
H	5.5353	-1.21222	0.564841
H	6.25133	1.03038	-1.08147
