15
  This energy is 1.1058e-05 and Call times are: 2970
C	-1.83845	-0.409302	-0.141376
O	-1.29436	0.628468	0.201523
O	-1.15539	-1.50717	-0.499002
H	-2.92335	-0.580913	-0.202137
H	-0.189737	-1.28739	-0.422975
C	1.83845	0.40937	0.141156
O	1.29436	-0.628579	-0.201161
O	1.15539	1.50722	0.498839
H	2.92335	0.581201	0.201283
H	0.18974	1.28729	0.423287
C	11.2854	0.326684	-0.00411645
O	11.3963	-0.230035	-1.08465
O	12.0407	-0.0391813	1.03086
H	10.5606	1.13131	0.114068
H	12.6255	-0.748422	0.78856
