15
  This energy is -0.0021324 and Call times are: 36374
C	1.416	0.929064	-0.836174
O	1.18013	-0.26839	-0.80387
O	0.640304	1.84167	-0.231836
H	2.26541	1.40706	-1.34625
H	-0.102385	1.34878	0.206387
C	-1.41613	-0.92904	0.835983
O	-1.17993	0.268351	0.804186
O	-0.640397	-1.84165	0.231694
H	-2.2659	-1.40699	1.34549
H	0.102561	-1.34881	-0.20611
C	4.72743	0.390003	0.0437292
O	4.75647	-0.0434526	-1.09691
O	4.07801	-0.265791	1.00482
H	5.23844	1.32331	0.27723
H	3.6805	-1.05909	0.663595
