15
  This energy is -0.0025457 and Call times are: 20554
C	1.12345	-0.697288	1.34872
O	0.739768	-1.21145	0.309977
O	0.775565	0.544084	1.71987
H	1.78274	-1.16356	2.09577
H	0.185049	0.90646	1.00815
C	-1.12326	0.697374	-1.34883
O	-0.740072	1.21131	-0.309802
O	-0.775428	-0.544019	-1.71995
H	-1.78202	1.16389	-2.0962
H	-0.185315	-0.906576	-1.008
C	5.03355	-0.0732498	0.381877
O	3.8879	0.289275	0.596056
O	5.48033	-0.216413	-0.865282
H	5.69699	-0.28171	1.22039
H	4.80058	-0.00247899	-1.49453
