15
  This energy is -0.000353949 and Call times are: 11727
C	-0.424932	0.973986	-1.56147
O	0.180879	-0.0789507	-1.43945
O	-0.921294	1.65493	-0.517578
H	-0.639362	1.49035	-2.50886
H	-0.695399	1.1394	0.300807
C	0.424731	-0.974098	1.56145
O	-0.180549	0.0791358	1.43948
O	0.921146	-1.65502	0.517565
H	0.638591	-1.49081	2.50878
H	0.695681	-1.13923	-0.300776
C	3.71638	0.338004	-0.290691
O	4.01249	-0.702698	-0.855539
O	3.6645	0.399722	1.03935
H	3.49231	1.22534	-0.881564
H	3.88151	-0.441443	1.42552
