15
  This energy is -5.988e-06 and Call times are: 32708
C	1.76513	0.417588	0.526615
O	0.721404	0.510693	1.15314
O	1.82012	-0.0326846	-0.735924
H	2.76709	0.68026	0.897085
H	0.890194	-0.250704	-1.00846
C	-1.7651	-0.417804	-0.52654
O	-0.721455	-0.510338	-1.15326
O	-1.82009	0.0325248	0.735979
H	-2.76698	-0.681099	-0.896773
H	-0.890236	0.25101	1.00834
C	15.689	-0.369686	-0.182605
O	15.9878	0.652218	-0.779478
O	14.8891	-0.32696	0.88222
H	16.0813	-1.32647	-0.52522
H	14.6222	0.566171	1.06889
