15
  This energy is -0.00168575 and Call times are: 4315
C	0.164845	-1.55936	-1.05291
O	0.622005	-1.31202	0.0518089
O	-0.585961	-0.687883	-1.74326
H	0.300437	-2.496	-1.6137
H	-0.669718	0.130118	-1.1861
C	-0.165037	1.55928	1.053
O	-0.621689	1.31216	-0.0519637
O	0.585819	0.687819	1.74332
H	-0.301175	2.49566	1.61409
H	0.669987	-0.12999	1.18596
C	3.65506	0.409299	-0.187566
O	3.60718	0.4555	1.03119
O	3.54986	-0.753698	-0.829347
H	3.78526	1.32966	-0.755633
H	3.44093	-1.47049	-0.214427
