15
  This energy is -0.00368345 and Call times are: 33506
C	-1.10413	1.46166	-0.460274
O	0.0222461	1.18449	-0.841105
O	-1.78402	0.706896	0.415996
H	-1.69488	2.33591	-0.771498
H	-1.19977	-0.059927	0.655166
C	1.10403	-1.46178	0.460102
O	-0.0220932	-1.18429	0.841389
O	1.78395	-0.706987	-0.416123
H	1.69454	-2.33638	0.770813
H	1.1999	0.0600972	-0.654913
C	5.10004	-0.129052	-0.170628
O	6.03515	-0.752564	-0.646642
O	5.30779	0.814571	0.74694
H	4.08501	-0.347388	-0.500411
H	6.23468	0.899895	0.940239
