15
  This energy is -2.2382e-05 and Call times are: 42260
C	0.692043	-1.7564	-0.0593796
O	0.880547	-0.81759	-0.816788
O	-0.101636	-1.67524	1.01917
H	1.13062	-2.76089	-0.153308
H	-0.463202	-0.750527	1.04616
C	-0.691864	1.75647	0.0595101
O	-0.880842	0.817485	0.816573
O	0.101768	1.67529	-1.01907
H	-1.12991	2.76115	0.1538
H	0.462941	0.750434	-1.04633
C	40.3357	-0.125726	0.0105364
O	39.5804	-1.02662	0.338837
O	39.8598	1.0716	-0.329315
H	41.4103	-0.303809	-0.00436724
H	38.911	1.08694	-0.272203
