15
  This energy is -0.00329244 and Call times are: 9449
C	0.120995	1.2887	-1.37551
O	-0.305521	0.145348	-1.41297
O	0.609091	1.84871	-0.258399
H	0.16237	1.99123	-2.22102
H	0.543644	1.16772	0.461698
C	-0.121204	-1.28862	1.37556
O	0.305865	-0.145481	1.41288
O	-0.609245	-1.84864	0.258439
H	-0.163196	-1.99093	2.22123
H	-0.543342	-1.16783	-0.46177
C	4.17709	-0.439689	0.0804369
O	5.19633	0.230264	0.126163
O	3.00064	0.127907	-0.18284
H	4.23118	-1.51329	0.256983
H	3.09909	1.06415	-0.315235
