15
  This energy is -3.5635e-05 and Call times are: 7765
C	-0.989548	-0.774211	1.41025
O	-1.22487	0.224441	0.748514
O	0.0984568	-1.5356	1.21971
H	-1.61388	-1.17262	2.22365
H	0.615524	-1.12477	0.47781
C	0.989433	0.774079	-1.4104
O	1.22506	-0.224224	-0.748267
O	-0.0985414	1.5355	-1.21983
H	1.61342	1.17212	-2.22425
H	-0.615353	1.12496	-0.477595
C	11.3414	-0.33457	0.164113
O	11.6532	0.478558	1.01933
O	11.7531	-0.190069	-1.09491
H	10.7197	-1.18729	0.434417
H	12.2847	0.592421	-1.18902
