15
  This energy is -1.3293e-05 and Call times are: 50996
C	-0.527996	-1.66458	-0.71959
O	0.287362	-1.41582	0.154414
O	-1.23024	-0.713578	-1.3538
H	-0.789565	-2.66548	-1.09367
H	-0.949292	0.159471	-0.972472
C	0.527827	1.66456	0.719746
O	-0.287084	1.41584	-0.154671
O	1.23012	0.713566	1.35392
H	0.788922	2.66541	1.0943
H	0.949528	-0.159443	0.972243
C	23.764	0.101539	0.0732533
O	23.9029	-0.866982	-0.65646
O	24.8246	0.741483	0.564291
H	22.7615	0.445495	0.325048
H	25.6316	0.337266	0.265523
