15
  This energy is -0.000582717 and Call times are: 28973
C	0.109021	1.54167	-1.08572
O	-0.305737	1.41928	0.0560227
O	0.589715	0.513589	-1.80109
H	0.144475	2.47692	-1.66381
H	0.530258	-0.294447	-1.22655
C	-0.108808	-1.54162	1.08579
O	0.305386	-1.41935	-0.05615
O	-0.589557	-0.513558	1.80115
H	-0.143651	-2.47675	1.66414
H	-0.530559	0.294382	1.22643
C	4.12056	0.412115	0.0608376
O	5.33557	0.442527	-0.0515252
O	3.46011	-0.743624	0.000933154
H	3.57132	1.3407	0.211707
H	4.05972	-1.46906	-0.133157
