15
  This energy is -0.000859076 and Call times are: 15238
C	1.16207	1.14607	0.950534
O	0.883982	1.1282	-0.23813
O	0.640829	0.281944	1.83448
H	1.85263	1.84705	1.44238
H	0.0309382	-0.318456	1.33038
C	-1.16224	-1.14593	-0.95049
O	-0.883695	-1.12844	0.238059
O	-0.640958	-0.281837	-1.83445
H	-1.85331	-1.84648	-1.44223
H	-0.0306915	0.318244	-1.33044
C	4.64632	-0.199923	0.201691
O	4.34284	0.849242	-0.343234
O	5.90098	-0.647241	0.166444
H	3.88212	-0.775928	0.722202
H	6.45948	-0.0495389	-0.317919
