15
  This energy is -0.00364466 and Call times are: 876
C	-0.794101	1.66981	0.385429
O	0.281268	1.21609	0.743616
O	-1.64503	0.994092	-0.4014
H	-1.19857	2.65839	0.648629
H	-1.22357	0.11716	-0.6012
C	0.794197	-1.66971	-0.385617
O	-0.281427	-1.21624	-0.743306
O	1.6451	-0.994024	0.40126
H	1.19896	-2.65803	-0.649353
H	1.22342	-0.117294	0.601464
C	4.79805	-0.21016	-0.00286092
O	4.71608	0.961433	-0.335186
O	5.97484	-0.745475	0.319816
H	3.89854	-0.823769	0.0298811
H	6.6703	-0.101294	0.248124
