15
  This energy is -0.000405012 and Call times are: 36458
C	-0.485904	1.52976	-0.995552
O	0.578578	0.933544	-0.951159
O	-1.5606	1.15725	-0.284196
H	-0.702585	2.42141	-1.60233
H	-1.30046	0.353085	0.23754
C	0.485832	-1.5299	0.995378
O	-0.578459	-0.933324	0.951444
O	1.56055	-1.15735	0.284068
H	0.702324	-2.42194	1.60164
H	1.30055	-0.352895	-0.237288
C	4.80881	0.266159	-0.223848
O	5.82088	0.0356023	-0.865994
O	4.6462	-0.243216	0.996648
H	4.03075	0.895398	-0.654408
H	5.39754	-0.769535	1.24615
