15
  This energy is -2.039e-05 and Call times are: 40202
C	-0.964697	-0.739151	-1.44583
O	-0.517271	0.387558	-1.30123
O	-0.827362	-1.70242	-0.52223
H	-1.5214	-1.10624	-2.32074
H	-0.319956	-1.30932	0.235779
C	0.964894	0.73908	1.44573
O	0.516947	-0.387442	1.30139
O	0.827507	1.70236	0.522158
H	1.52218	1.10599	2.32036
H	0.319675	1.30941	-0.235634
C	33.5274	0.19221	0.173031
O	34.513	0.370541	0.870509
O	33.6125	-0.502342	-0.960929
H	32.5682	0.605933	0.482118
H	34.5025	-0.802762	-1.10734
