15
  This energy is -1.3278e-05 and Call times are: 39026
C	0.768537	1.59963	0.646476
O	1.25158	0.481785	0.558929
O	-0.485863	1.88391	0.265113
H	1.27629	2.49457	1.03562
H	-0.885847	1.04025	-0.0737308
C	-0.768464	-1.59958	-0.646688
O	-1.2517	-0.481872	-0.55858
O	0.485917	-1.88387	-0.26527
H	-1.27599	-2.49438	-1.03645
H	0.885734	-1.04033	0.0740318
C	28.6115	-0.443968	-0.0282724
O	27.8052	0.234234	-0.644532
O	29.6174	0.127514	0.632898
H	28.5065	-1.52822	-0.0195071
H	29.5884	1.07327	0.540778
