15
  This energy is -3.0942e-05 and Call times are: 45788
C	-1.34082	1.3257	0.110159
O	-1.20213	0.421668	-0.698589
O	-0.4905	1.53104	1.12729
H	-2.15189	2.06886	0.116196
H	0.21251	0.832125	1.06522
C	1.34069	-1.32583	-0.110022
O	1.20234	-0.421445	0.698364
O	0.490407	-1.53114	-1.12719
H	2.15139	-2.0694	-0.11568
H	-0.212325	-0.831928	-1.06541
C	46.7315	0.334968	0.146511
O	47.7805	0.270234	0.76729
O	46.4719	-0.519669	-0.842264
H	46.0005	1.10028	0.404663
H	47.1913	-1.12997	-0.959256
