15
  This energy is -0.00305716 and Call times are: 29387
C	-0.21826	1.79554	0.543882
O	-0.150801	1.32354	-0.580056
O	-0.140721	1.04749	1.65482
H	-0.347123	2.85961	0.791468
H	-0.0258781	0.104713	1.36406
C	0.218031	-1.79556	-0.543881
O	0.151178	-1.3235	0.580053
O	0.140552	-1.04751	-1.65482
H	0.346228	-2.85972	-0.791483
H	0.0262058	-0.104679	-1.36405
C	3.81043	0.0564452	0.184665
O	3.31623	-1.02419	0.463581
O	3.15633	0.925914	-0.584551
H	4.7971	0.311628	0.569454
H	2.31269	0.575946	-0.848331
