15
  This energy is -1.7499e-05 and Call times are: 48770
C	-1.03876	-1.0003	1.21974
O	0.100364	-0.575198	1.33043
O	-1.78671	-0.804935	0.123307
H	-1.58849	-1.58053	1.97558
H	-1.23664	-0.278998	-0.514948
C	1.03867	1.0005	-1.21965
O	-0.100223	0.574878	-1.33057
O	1.78665	0.805078	-0.123241
H	1.58817	1.58129	-1.97522
H	1.23676	0.27872	0.514814
C	47.3324	-0.362992	-0.141347
O	47.9209	0.683756	-0.359765
O	46.1393	-0.362108	0.4521
H	47.7885	-1.30756	-0.435293
H	45.8623	0.524866	0.652866
