15
  This energy is -0.000501979 and Call times are: 24344
C	0.506908	1.42756	1.12807
O	-0.159789	1.44025	0.105361
O	1.02335	0.303844	1.648
H	0.766444	2.3031	1.74143
H	0.754523	-0.443661	1.05174
C	-0.507097	-1.42759	-1.12794
O	0.160101	-1.4402	-0.105572
O	-1.02349	-0.303867	-1.6479
H	-0.767195	-2.30322	-1.74095
H	-0.754248	0.443699	-1.05191
C	6.90883	0.196324	-0.00720827
O	6.08769	0.800147	-0.678711
O	6.56885	-0.9126	0.648701
H	7.93047	0.569147	0.0557191
H	5.65252	-1.12204	0.506388
