15
  This energy is -0.0021852 and Call times are: 21280
C	1.20076	-1.3668	-0.507386
O	0.7283	-0.457435	-1.17102
O	0.91402	-1.54755	0.790643
H	1.90065	-2.13474	-0.868735
H	0.282551	-0.827081	1.0528
C	-1.20058	1.36693	0.507447
O	-0.728594	0.457218	1.17092
O	-0.913887	1.54765	-0.790597
H	-1.89996	2.13527	0.868954
H	-0.282808	0.82689	-1.05288
C	4.69171	0.399412	0.0531602
O	4.00824	-0.538819	0.430498
O	5.90881	0.196127	-0.449705
H	4.30123	1.41356	0.128881
H	6.12111	-0.730507	-0.457013
