15
  This energy is -0.000645894 and Call times are: 18814
C	0.17736	0.317971	-1.85333
O	0.794766	-0.448261	-1.13065
O	-0.801693	1.11653	-1.40219
H	0.332872	0.454201	-2.9338
H	-0.891186	0.946096	-0.42776
C	-0.177518	-0.318134	1.85329
O	-0.794507	0.448529	1.13072
O	0.801576	-1.11665	1.40215
H	-0.333471	-0.454851	2.93363
H	0.891404	-0.945858	0.427825
C	4.11051	0.386468	-0.237216
O	3.99427	-0.597385	-0.950177
O	4.19189	0.261801	1.08693
H	4.14801	1.37672	-0.689656
H	4.14635	-0.652367	1.34383
