15
  This energy is -5.9485e-05 and Call times are: 30860
C	0.252067	0.507851	-1.80165
O	0.202687	1.19841	-0.79604
O	0.123675	-0.82731	-1.77644
H	0.403018	0.871581	-2.82882
H	-0.00877591	-1.0896	-0.827638
C	-0.251838	-0.507875	1.80168
O	-0.203063	-1.19837	0.796003
O	-0.123506	0.827291	1.77646
H	-0.402126	-0.871658	2.82892
H	0.00844926	1.08962	0.827604
C	3.97447	0.0430524	-0.312912
O	4.98737	0.659048	-0.603374
O	3.90498	-0.658283	0.817935
H	3.11862	0.0677516	-0.986425
H	4.71756	-0.5925	1.30698
