15
  This energy is -0.000263207 and Call times are: 31112
C	-1.66999	-0.513449	0.717559
O	-1.32906	0.545971	0.215598
O	-0.840406	-1.55988	0.846143
H	-2.66725	-0.747402	1.11869
H	0.0360078	-1.28533	0.46788
C	1.66993	0.513368	-0.717764
O	1.32917	-0.545837	-0.21526
O	0.840358	1.55982	-0.846295
H	2.66699	0.747106	-1.1195
H	-0.0359097	1.28544	-0.467585
C	7.43796	-0.39179	-0.21998
O	8.59303	-0.00131504	-0.275971
O	6.51326	0.309611	0.434601
H	7.16135	-1.32406	-0.710955
H	6.89036	1.09616	0.812648
