15
  This energy is -0.00112923 and Call times are: 10757
C	-1.25285	0.00874775	1.41339
O	-0.222623	-0.634282	1.28805
O	-1.6867	0.878472	0.488662
H	-1.9418	-0.0346765	2.26991
H	-1.02525	0.870355	-0.252264
C	1.25297	-0.00857641	-1.41329
O	0.222435	0.633999	-1.28822
O	1.68679	-0.878344	-0.488586
H	1.94226	0.0353312	-2.2695
H	1.02508	-0.870593	0.252112
C	4.98904	-0.0114914	0.191619
O	5.13162	-0.871943	-0.662246
O	5.97772	0.835146	0.476611
H	4.04265	0.0640441	0.725796
H	6.74108	0.656788	-0.0612127
