15
  This energy is 0.00069822 and Call times are: 11303
C	1.06549	-1.4877	-0.46784
O	1.14622	-0.74248	0.495851
O	0.129816	-1.35053	-1.4194
H	1.72426	-2.34256	-0.680903
H	-0.42763	-0.567381	-1.1694
C	-1.06563	1.48756	0.467955
O	-1.14598	0.742712	-0.49604
O	-0.129921	1.35042	1.41949
H	-1.72481	2.34202	0.681373
H	0.427827	0.567581	1.16923
C	6.2666	-0.448575	-0.00921369
O	5.35791	-0.125515	0.738928
O	6.9454	0.471975	-0.692827
H	6.52445	-1.50134	-0.118329
H	6.61711	1.34387	-0.503621
