15
  This energy is -0.00174831 and Call times are: 14775
C	-0.371201	-1.46347	-1.13484
O	0.684572	-1.11626	-0.629512
O	-1.52296	-0.802401	-0.944567
H	-0.518241	-2.3338	-1.7914
H	-1.32295	-0.0340556	-0.347739
C	0.371152	1.46334	1.13503
O	-0.684492	1.11648	0.629212
O	1.52293	0.802303	0.944702
H	0.518073	2.33328	1.79212
H	1.32301	0.0342472	0.347479
C	4.50396	-0.153944	-0.158729
O	4.85908	0.877081	-0.707062
O	5.25048	-0.709804	0.794819
H	3.56625	-0.62381	-0.453064
H	6.0364	-0.198012	0.950257
