15
  This energy is -0.00222608 and Call times are: 17698
C	-0.666645	1.48291	-0.961232
O	0.253482	0.727466	-1.23187
O	-1.40431	1.36381	0.152967
H	-1.00515	2.33371	-1.5709
H	-1.05021	0.583348	0.655015
C	0.666495	-1.48305	0.961122
O	-0.253236	-0.727242	1.23205
O	1.4042	-1.36391	-0.153048
H	1.00459	-2.33426	1.57046
H	1.05042	-0.583153	-0.65485
C	4.33371	-0.452144	0.0130007
O	4.71746	0.0757156	1.04445
O	3.87796	0.284133	-0.999771
H	4.36467	-1.53715	-0.0792971
H	3.9067	1.20969	-0.784594
