15
  This energy is -1.4486e-05 and Call times are: 52214
C	1.18075	-0.764969	1.26018
O	1.01077	0.406499	0.961279
O	0.497614	-1.76938	0.690751
H	1.89101	-1.14437	2.00967
H	-0.121502	-1.3626	0.0290977
C	-1.18092	0.764983	-1.26001
O	-1.01051	-0.406522	-0.961548
O	-0.497734	1.76939	-0.69063
H	-1.89165	1.14444	-2.00903
H	0.12173	1.36257	-0.0293339
C	11.9661	-0.00536786	-0.267741
O	11.7066	-1.10564	0.192531
O	11.2109	1.05174	0.0283217
H	12.8248	0.112316	-0.927661
H	10.5002	0.807097	0.610514
