15
  This energy is -1.4103e-05 and Call times are: 7387
C	-1.1585	1.40087	-0.512674
O	0.0402685	1.42461	-0.282532
O	-1.89516	0.282813	-0.428772
H	-1.77689	2.2609	-0.809511
H	-1.28217	-0.450648	-0.158894
C	1.15854	-1.40092	0.512451
O	-0.0403331	-1.42453	0.282898
O	1.89519	-0.282848	0.428608
H	1.77706	-2.26107	0.808644
H	1.28211	0.450707	0.159212
C	22.0996	0.211419	-0.0275721
O	22.897	0.808994	0.67734
O	22.439	-0.932862	-0.620027
H	21.1	0.619123	-0.173112
H	23.3347	-1.17057	-0.40818
