15
  This energy is -2.8265e-05 and Call times are: 23041
C	-0.83636	-0.089435	-1.69113
O	-0.812122	-0.911003	-0.788347
O	-0.220881	1.09994	-1.61146
H	-1.34716	-0.206709	-2.65833
H	0.217395	1.14236	-0.72114
C	0.836169	0.089531	1.69121
O	0.812435	0.910845	0.788204
O	0.22074	-1.09987	1.61153
H	1.34641	0.207065	2.65868
H	-0.217119	-1.14249	0.721015
C	14.543	-0.223141	-0.390767
O	15.3634	-0.757525	0.338084
O	13.9216	0.893325	-0.0127488
H	14.3173	-0.664815	-1.36066
H	14.2124	1.16647	0.850153
