15
  This energy is -7.112e-06 and Call times are: 51794
C	1.17921	1.2094	0.845112
O	0.568094	0.260953	1.31154
O	1.09822	1.56545	-0.445796
H	1.85533	1.87793	1.39836
H	0.477309	0.927202	-0.885867
C	-1.17903	-1.20954	-0.845163
O	-0.568389	-0.26073	-1.31145
O	-1.09809	-1.56555	0.445757
H	-1.85464	-1.87848	-1.39855
H	-0.477565	-0.927004	0.885933
C	11.9076	-0.127793	0.188248
O	12.8599	-0.760343	0.615876
O	12.0784	0.82095	-0.731661
H	10.9077	-0.342217	0.563594
H	12.9958	0.901954	-0.967447
