15
  This energy is -0.00104581 and Call times are: 30062
C	-1.64611	-0.137782	-0.915822
O	-1.42281	0.159957	0.246959
O	-0.674767	-0.437299	-1.79135
H	-2.6376	-0.199239	-1.3884
H	0.188454	-0.363751	-1.30555
C	1.64613	0.138003	0.915758
O	1.42278	-0.160321	-0.246854
O	0.674778	0.437462	1.7913
H	2.63766	0.200109	1.38817
H	-0.18847	0.363433	1.30563
C	5.31981	-0.137878	-0.424616
O	5.96432	-0.951301	0.217839
O	4.92846	1.00981	0.127815
H	5.06239	-0.353771	-1.46087
H	5.21987	1.06695	1.03092
