15
  This energy is -2.8078e-05 and Call times are: 43646
C	1.61456	-0.246302	-0.948656
O	0.54003	-0.811437	-1.07745
O	1.82838	0.714909	-0.0375418
H	2.5218	-0.440063	-1.53987
H	0.977227	0.840778	0.458703
C	-1.61462	0.246463	0.948504
O	-0.539928	0.81117	1.0777
O	-1.82842	-0.714788	0.0374297
H	-2.52205	0.440681	1.53926
H	-0.977135	-0.841003	-0.458481
C	61.9581	-0.0204802	-0.277598
O	61.0761	0.707339	-0.704339
O	61.8145	-0.654032	0.885797
H	62.8723	-0.152684	-0.855153
H	60.9742	-0.44949	1.2806
