15
  This energy is -2.1917e-05 and Call times are: 49568
C	-0.52594	1.39649	1.15785
O	-0.469268	0.193999	1.36129
O	-0.19591	1.95366	-0.0170565
H	-0.84358	2.16048	1.88282
H	0.0796415	1.21596	-0.622394
C	0.526158	-1.39646	-1.15778
O	0.468909	-0.194043	-1.36141
O	0.196071	-1.95364	0.0171081
H	0.84443	-2.1604	-1.88253
H	-0.0799512	-1.216	0.622287
C	27.741	-0.248728	0.352106
O	26.7316	-0.699667	-0.165082
O	28.3117	0.858647	-0.120729
H	28.1792	-0.758124	1.20957
H	27.8278	1.19654	-0.866021
