15
  This energy is -1.5739e-05 and Call times are: 49484
C	1.059	0.177162	-1.55388
O	-0.156024	0.157867	-1.43586
O	1.89487	0.0658035	-0.510483
H	1.61524	0.284514	-2.49687
H	1.33387	-0.0272624	0.303872
C	-1.05899	-0.176932	1.55391
O	0.156018	-0.158245	1.43582
O	-1.89487	-0.0656341	0.510502
H	-1.61525	-0.283619	2.49696
H	-1.33387	0.0269344	-0.303903
C	31.3922	-0.188081	-0.0638952
O	32.141	-0.902387	0.583381
O	31.7979	1.00298	-0.50242
H	30.3815	-0.529225	-0.284797
H	32.6956	1.17224	-0.239322
