15
  This energy is -2.229e-05 and Call times are: 42848
C	1.77648	0.607378	0.206446
O	1.22423	0.129061	-0.771721
O	1.15267	0.788477	1.38026
H	2.82271	0.943317	0.258321
H	0.219483	0.4677	1.26703
C	-1.77654	-0.607166	-0.206509
O	-1.22413	-0.129411	0.771825
O	-1.15272	-0.788319	-1.38031
H	-2.82296	-0.942494	-0.258589
H	-0.219395	-0.468002	-1.26693
C	54.5174	-0.0976273	0.43518
O	55.7055	-0.150991	0.160891
O	53.6176	0.219892	-0.494948
H	54.1903	-0.312158	1.45189
H	54.039	0.381084	-1.33177
