15
  This energy is 1.964e-06 and Call times are: 35954
C	1.10045	1.46766	-0.449889
O	0.574791	0.636155	-1.17298
O	0.964546	1.46367	0.884761
H	1.73438	2.30366	-0.780635
H	0.385626	0.690567	1.11656
C	-1.10063	-1.46752	0.449873
O	-0.574487	-0.63638	1.17301
O	-0.964683	-1.46357	-0.884771
H	-1.73511	-2.30313	0.780555
H	-0.385362	-0.690761	-1.11653
C	13.1445	0.126837	0.410817
O	12.7631	-1.03235	0.386026
O	13.1107	0.878247	-0.689072
H	13.5164	0.550511	1.34298
H	12.7658	0.385022	-1.42496
