15
  This energy is -3.6661e-05 and Call times are: 31532
C	-0.775017	1.05523	-1.36133
O	-0.146782	1.39685	-0.371792
O	-1.03122	-0.228409	-1.65526
H	-1.20174	1.72776	-2.12014
H	-0.622195	-0.77921	-0.937013
C	0.775211	-1.05525	1.36121
O	0.146463	-1.39683	0.371996
O	1.03137	0.228398	1.65517
H	1.20251	-1.72779	2.11967
H	0.621915	0.779221	0.937187
C	10.6497	-0.167116	-0.393996
O	11.6909	0.457911	-0.517271
O	10.0742	-0.302305	0.800176
H	10.187	-0.618867	-1.27064
H	10.5818	0.139103	1.47196
