15
  This energy is -2.1351e-05 and Call times are: 39194
C	0.995974	1.31086	0.925792
O	1.22979	0.761098	-0.138945
O	-0.0945984	1.0442	1.66017
H	1.62385	2.0723	1.41174
H	-0.61485	0.354672	1.16981
C	-0.99609	-1.31069	-0.925899
O	-1.2296	-0.761374	0.139122
O	0.0945116	-1.04407	-1.66025
H	-1.62429	-2.07165	-1.41218
H	0.61501	-0.354912	-1.16965
C	24.7038	-0.107469	-0.176498
O	23.8134	-0.106154	-1.01134
O	24.4432	0.185158	1.09708
H	25.7222	-0.350712	-0.47722
H	23.5199	0.376474	1.21792
