15
  This energy is 0.000165823 and Call times are: 2382
C	0.495885	-0.709278	1.67882
O	0.359149	0.453533	1.33277
O	0.298323	-1.74501	0.84936
H	0.789007	-1.05525	2.68109
H	0.0380908	-1.36742	-0.031699
C	-0.496106	0.709266	-1.67875
O	-0.358784	-0.453513	-1.33287
O	-0.298487	1.745	-0.849313
H	-0.789873	1.05522	-2.68084
H	-0.0377751	1.36743	0.0316052
C	6.60966	-0.167513	0.285989
O	6.23528	0.949995	0.603493
O	6.11759	-0.768205	-0.796857
H	7.35426	-0.678274	0.895413
H	5.48074	-0.212317	-1.2318
