15
  This energy is -0.00304901 and Call times are: 485
C	-0.645109	-1.5533	0.859359
O	-0.715424	-0.384391	1.20473
O	-0.0489252	-1.94322	-0.277435
H	-1.04595	-2.41587	1.41203
H	0.288703	-1.12361	-0.725556
C	0.644909	1.55332	-0.859472
O	0.715752	0.384363	-1.20454
O	0.0487778	1.94323	0.27735
H	1.04516	2.41596	-1.41247
H	-0.288414	1.12358	0.725712
C	4.50052	0.250082	0.364821
O	5.11179	-0.80606	0.33838
O	3.64652	0.56685	-0.607729
H	4.65576	0.940367	1.19314
H	3.60908	-0.121613	-1.26225
