15
  This energy is -1.9513e-05 and Call times are: 47300
C	-0.526519	-1.79402	-0.267717
O	-1.15632	-0.85726	0.197482
O	0.740406	-1.68089	-0.694187
H	-0.897176	-2.82172	-0.396555
H	1.01287	-0.736468	-0.551357
C	0.526445	1.79407	0.267504
O	1.15644	0.857177	-0.197132
O	-0.740459	1.68092	0.694029
H	0.896873	2.82193	0.395733
H	-1.01276	0.736394	0.551657
C	32.0704	0.0375325	0.259067
O	31.1416	0.714756	0.669467
O	31.9375	-0.706718	-0.838174
H	33.0179	0.0425216	0.796634
H	31.0646	-0.616979	-1.20381
