15
  This energy is -0.00126746 and Call times are: 21778
C	1.36484	0.630335	1.14337
O	1.32747	-0.377013	0.454582
O	0.357813	1.51511	1.19661
H	2.1983	0.939915	1.79118
H	-0.357214	1.17959	0.594342
C	-1.36475	-0.630214	-1.14354
O	-1.32762	0.376815	-0.454296
O	-0.357744	-1.51502	-1.19674
H	-2.19793	-0.939465	-1.79187
H	0.357076	-1.17976	-0.594092
C	5.10016	0.106472	0.185142
O	4.74555	-1.02917	0.457848
O	4.3419	0.891257	-0.579496
H	6.04712	0.481301	0.571744
H	3.54877	0.439669	-0.845558
