15
  This energy is -2.8938e-05 and Call times are: 51122
C	-0.488352	1.82333	0.0661267
O	-1.09982	0.867785	-0.3851
O	0.724037	1.71307	0.6298
H	-0.834257	2.86759	0.0725149
H	0.976631	0.753183	0.592618
C	0.488256	-1.82336	-0.0659194
O	1.09998	-0.867734	0.384758
O	-0.724108	-1.71309	-0.629646
H	0.833865	-2.86772	-0.0717151
H	-0.976485	-0.753137	-0.59291
C	22.2159	-0.325517	0.00175412
O	22.4725	0.579988	0.778915
O	21.109	-0.29329	-0.739345
H	22.9001	-1.16866	-0.0859788
H	20.6068	0.494447	-0.562922
