15
  This energy is -0.00169734 and Call times are: 25178
C	0.620378	-1.38534	-1.12399
O	0.465637	-1.37353	0.0869956
O	0.350868	-0.327612	-1.90395
H	0.988409	-2.23329	-1.72039
H	0.02534	0.398002	-1.30891
C	-0.620594	1.38527	1.12396
O	-0.465281	1.37365	-0.0869442
O	-0.351028	0.327557	1.90393
H	-0.989253	2.23299	1.72029
H	-0.0250325	-0.39789	1.30895
C	4.40583	-0.22294	0.380576
O	5.38041	-0.00691079	-0.321778
O	3.1931	0.182016	0.00532178
H	4.5302	-0.752705	1.32428
H	3.23016	0.628164	-0.833341
