15
  This energy is 0.000448799 and Call times are: 23924
C	-0.64	1.04675	1.43601
O	0.355523	1.19557	0.745097
O	-1.50116	0.0323354	1.26529
H	-0.95641	1.69956	2.26298
H	-1.16064	-0.515154	0.509734
C	0.639875	-1.04662	-1.43615
O	-0.355317	-1.19578	-0.744857
O	1.50106	-0.0322417	-1.2654
H	0.95594	-1.69905	-2.26356
H	1.16081	0.514967	-0.509525
C	7.25735	0.144406	0.354972
O	6.56048	-0.122873	-0.610805
O	8.58111	0.00275593	0.299305
H	6.79071	0.50258	1.27185
H	8.8514	-0.315651	-0.554709
