15
  This energy is -1.9138e-05 and Call times are: 47216
C	-1.79156	0.15784	-0.576894
O	-1.186	0.794336	0.270896
O	-1.22875	-0.832588	-1.28547
H	-2.84297	0.303223	-0.865944
H	-0.287386	-0.912006	-0.978745
C	1.79162	-0.15769	0.57673
O	1.1859	-0.794582	-0.270626
O	1.2288	0.832698	1.28535
H	2.84323	-0.302624	0.865321
H	0.287297	0.911786	0.978973
C	31.9572	0.360737	-0.268955
O	32.3276	-0.677424	-0.793196
O	31.4499	0.357884	0.96318
H	32.0429	1.2992	-0.815456
H	31.4338	-0.523099	1.32009
