15
  This energy is -2.8079e-05 and Call times are: 23966
C	0.5335	-1.23758	-1.32332
O	-0.344895	-0.390288	-1.35635
O	1.31745	-1.43389	-0.2525
H	0.793621	-1.93106	-2.13669
H	1.0333	-0.781426	0.440401
C	-0.533346	1.23773	1.32324
O	0.344641	0.390041	1.35648
O	-1.31734	1.434	0.25244
H	-0.793035	1.93166	2.13637
H	-1.03351	0.781208	-0.440278
C	9.50959	-0.0773907	-0.433289
O	10.113	0.872336	0.0397206
O	8.63825	-0.765561	0.303396
H	9.68628	-0.364504	-1.46917
H	8.58287	-0.408612	1.18277
