15
  This energy is -1.295e-06 and Call times are: 16351
C	-1.2967	0.628278	1.22116
O	-1.29923	0.650352	0.000472417
O	-0.288069	0.111542	1.93908
H	-2.09147	1.01463	1.87632
H	0.391072	-0.217197	1.29313
C	1.2966	-0.628484	-1.22116
O	1.2994	-0.650012	-0.000473683
O	0.287993	-0.111695	-1.93908
H	2.09106	-1.01543	-1.87634
H	-0.39092	0.217489	-1.29312
C	14.2707	-0.220288	-0.220801
O	13.9542	0.071936	0.921241
O	15.471	0.105228	-0.699022
H	13.5631	-0.753046	-0.854991
H	15.9833	0.564265	-0.0427553
