15
  This energy is -0.00388454 and Call times are: 19644
C	0.07699	1.71845	0.780007
O	-0.245701	1.38848	-0.350288
O	0.457642	0.836477	1.71649
H	0.0993048	2.74612	1.17186
H	0.415796	-0.0651834	1.30198
C	-0.0772078	-1.71847	-0.779934
O	0.24606	-1.38845	0.350168
O	-0.457803	-0.836493	-1.71644
H	-0.100162	-2.7462	-1.1716
H	-0.415482	0.0652091	-1.30208
C	3.36692	-0.309889	-0.286085
O	3.00734	0.707768	-0.856054
O	3.25115	-0.426654	1.03622
H	3.78692	-1.13091	-0.865936
H	2.8714	0.359218	1.41301
