15
  This energy is -0.000182318 and Call times are: 23587
C	-1.69162	-0.824497	-0.161342
O	-1.01202	-0.626322	0.833365
O	-1.30698	-0.455985	-1.39261
H	-2.67637	-1.31429	-0.184369
H	-0.417418	-0.0233227	-1.30288
C	1.69151	0.824701	0.161367
O	1.01219	0.625986	-0.833407
O	1.3069	0.456136	1.39263
H	2.67597	1.31509	0.184491
H	0.417568	0.0230328	1.30284
C	7.35167	-0.126016	-0.432654
O	8.22093	0.647124	-0.0632835
O	6.38682	-0.513918	0.400484
H	7.36597	-0.502281	-1.45487
H	6.49581	-0.11134	1.25479
