15
  This energy is -0.00106779 and Call times are: 35443
C	-1.81431	-0.232107	0.470967
O	-0.838649	-0.902071	0.770645
O	-1.73846	0.86108	-0.302959
H	-2.8515	-0.425194	0.782576
H	-0.78319	0.978985	-0.548169
C	1.81434	0.23224	-0.470781
O	0.838602	0.901852	-0.770951
O	1.73848	-0.860981	0.303097
H	2.85163	0.425697	-0.78184
H	0.783147	-0.979168	0.547898
C	6.22544	-0.139818	0.214236
O	7.21303	-0.168762	0.93091
O	6.314	0.269935	-1.05059
H	5.26169	-0.452662	0.61426
H	7.20786	0.511755	-1.26579
