15
  This energy is -1.8296e-05 and Call times are: 42512
C	-0.57943	1.79563	-0.0858776
O	-0.807738	0.941624	0.756215
O	0.180673	1.56823	-1.16768
H	-0.951593	2.83077	-0.07419
H	0.482756	0.623309	-1.11836
C	0.579618	-1.79556	0.085992
O	0.807429	-0.941737	-0.756403
O	-0.180533	-1.56818	1.16777
H	0.952319	-2.83051	0.0746554
H	-0.48302	-0.623406	1.11819
C	47.1099	-0.134873	-0.389091
O	47.7097	0.921996	-0.502912
O	47.0615	-0.767368	0.782712
H	46.609	-0.564649	-1.25576
H	47.538	-0.283502	1.44796
