15
  This energy is -0.000453609 and Call times are: 13435
C	-0.438706	1.57584	0.944277
O	0.054387	1.44253	-0.164624
O	-0.770683	0.536236	1.72452
H	-0.670178	2.53115	1.4382
H	-0.53816	-0.28972	1.22423
C	0.438493	-1.57585	-0.944366
O	-0.0540372	-1.44253	0.164771
O	0.770525	-0.536238	-1.72459
H	0.669357	-2.53116	-1.43857
H	0.53846	0.289718	-1.22409
C	6.02608	-0.24827	0.304939
O	5.21822	0.506499	0.822113
O	6.17325	-0.284465	-1.0189
H	6.63279	-0.898897	0.933668
H	5.5848	0.331155	-1.4414
