15
  This energy is -2.1349e-05 and Call times are: 45956
C	-0.876662	-1.61666	-0.430455
O	0.271654	-1.26809	-0.65506
O	-1.76301	-0.838768	0.209111
H	-1.32619	-2.58068	-0.711045
H	-1.2979	0.00977377	0.433185
C	0.876724	1.61657	0.430658
O	-0.271757	1.26824	0.654727
O	1.76306	0.838701	-0.208961
H	1.32646	2.58033	0.711829
H	1.2978	-0.0096409	-0.433471
C	46.2893	-0.0272087	0.19058
O	46.2364	0.0501573	-1.02639
O	47.4624	-0.0261049	0.822427
H	45.3665	-0.0978806	0.765252
H	48.1802	0.0401226	0.202563
