15
  This energy is -0.000338495 and Call times are: 11641
C	1.58379	-0.393405	-0.950914
O	0.710369	0.424188	-1.19432
O	1.54698	-1.20351	0.117796
H	2.48773	-0.571945	-1.5519
H	0.712857	-0.9933	0.614393
C	-1.58368	0.393559	0.951039
O	-0.71056	-0.424443	1.19411
O	-1.54689	1.20363	-0.117703
H	-2.48728	0.572568	1.55238
H	-0.713022	0.993072	-0.614565
C	5.71448	0.432824	0.105304
O	4.78527	-0.308648	0.382035
O	6.82868	-0.0482409	-0.444831
H	5.63069	1.49933	0.310843
H	6.76601	-0.988807	-0.568059
