15
  This energy is 5.0906e-05 and Call times are: 36080
C	1.28233	-1.1073	0.834814
O	1.22846	-0.707801	-0.317605
O	0.36171	-0.794076	1.759
H	2.06402	-1.75505	1.25855
H	-0.310218	-0.212233	1.31568
C	-1.28221	1.10749	-0.83475
O	-1.22866	0.707497	0.317501
O	-0.36162	0.794213	-1.75895
H	-2.06353	1.75577	-1.25832
H	0.310038	0.211969	-1.31576
C	11.0041	0.282375	-0.183078
O	10.6268	-0.57241	-0.96844
O	10.53	0.320067	1.06162
H	11.7365	1.02195	-0.504522
H	9.90229	-0.379275	1.20558
