15
  This energy is -2.2228e-05 and Call times are: 23335
C	1.30609	-1.06678	0.850584
O	1.27107	-0.640035	-0.292758
O	0.341376	-0.822121	1.75016
H	2.10376	-1.68762	1.28468
H	-0.342887	-0.261356	1.29862
C	-1.30598	1.06697	-0.850512
O	-1.27125	0.639724	0.29264
O	-0.341295	0.82226	-1.7501
H	-2.10332	1.68836	-1.28442
H	0.342723	0.261086	-1.29871
C	15.8709	-0.395351	-0.220435
O	16.1555	-0.536333	0.958097
O	15.6808	0.819304	-0.734228
H	15.7716	-1.27297	-0.858103
H	15.7982	1.4894	-0.0701808
