15
  This energy is -0.00175484 and Call times are: 19235
C	0.75646	1.30284	1.1392
O	0.640767	0.0981706	1.30028
O	0.327584	1.93567	0.0367572
H	1.21136	2.00923	1.8493
H	-0.0693455	1.24704	-0.558897
C	-0.756254	-1.30287	-1.1393
O	-0.641106	-0.0981232	-1.30012
O	-0.327431	-1.93569	-0.0368317
H	-1.21055	-2.00937	-1.84968
H	0.0690493	-1.24699	0.559033
C	4.22595	0.388492	-0.23268
O	5.19514	0.208291	0.487033
O	3.23676	-0.503109	-0.278292
H	4.17027	1.2885	-0.843908
H	3.41455	-1.23522	0.301521
