15
  This energy is -0.00230269 and Call times are: 3726
C	1.43276	-0.729656	0.991068
O	0.26837	-1.09024	0.922122
O	1.90983	0.327742	0.317208
H	2.22191	-1.20433	1.59279
H	1.15331	0.708061	-0.202024
C	-1.4327	0.72952	-0.991246
O	-0.268463	1.09046	-0.921829
O	-1.90978	-0.327842	-0.31734
H	-2.22171	1.20379	-1.59348
H	-1.15339	-0.707861	0.202274
C	6.46942	0.186599	-0.185608
O	6.68109	-0.260343	0.93029
O	5.25871	0.0997899	-0.735294
H	7.28004	0.661409	-0.73711
H	4.65103	-0.335113	-0.147617
