15
  This energy is -0.00214236 and Call times are: 234
C	-1.57115	-0.639873	-0.830331
O	-1.44295	0.132072	0.106812
O	-0.528216	-1.19674	-1.46433
H	-2.52397	-0.972871	-1.26783
H	0.295253	-0.857714	-1.02442
C	1.57116	0.640048	0.830181
O	1.44294	-0.13236	-0.106565
O	0.528221	1.19687	1.46422
H	2.52399	0.973569	1.26726
H	-0.295255	0.85746	1.02463
C	5.8327	0.431917	0.0397157
O	6.71434	-0.35792	0.337476
O	4.63454	-0.000845239	-0.350992
H	6.02883	1.50208	0.0944173
H	4.60237	-0.950971	-0.352796
