15
  This energy is -0.00230979 and Call times are: 29640
C	0.314841	1.46679	-1.14752
O	0.452853	1.37913	0.0623734
O	-0.117695	0.449572	-1.90775
H	0.518516	2.35868	-1.75842
H	-0.282021	-0.318978	-1.30039
C	-0.314624	-1.46686	1.14748
O	-0.45321	-1.37901	-0.0623172
O	0.117855	-0.449624	1.90772
H	-0.517664	-2.35895	1.75831
H	0.281709	0.319074	1.30043
C	4.11073	-0.113599	0.42494
O	2.93115	-0.309798	0.180192
O	4.92551	0.38292	-0.505175
H	4.50036	-0.347401	1.415
H	4.45621	0.539495	-1.31698
