15
  This energy is -1.8543e-05 and Call times are: 48560
C	1.64917	-0.788254	-0.475716
O	0.635774	-0.638293	-1.13988
O	1.75259	-0.382092	0.79869
H	2.58245	-1.25951	-0.817862
H	0.88352	0.0313337	1.04437
C	-1.64909	0.788458	0.475647
O	-0.635906	0.637956	1.14
O	-1.75253	0.382244	-0.79874
H	-2.58215	1.26031	0.817575
H	-0.883632	-0.0316244	-1.04426
C	49.5881	-0.0110176	0.234593
O	49.7493	-0.261559	-0.949047
O	48.3741	0.256479	0.71451
H	50.4468	-0.00637769	0.90489
H	47.7217	0.218186	0.0241179
