15
  This energy is -2.1762e-05 and Call times are: 7639
C	0.39151	-0.0305035	1.84748
O	-0.563101	-0.494985	1.24453
O	1.38949	0.626761	1.23772
H	0.558785	-0.0848241	2.9334
H	1.17932	0.640442	0.26705
C	-0.391392	0.0303068	-1.84751
O	0.562908	0.495309	-1.24449
O	-1.3894	-0.626906	-1.23774
H	-0.558346	0.0840448	-2.93351
H	-1.17948	-0.640156	-0.267015
C	13.7347	0.408995	0.105572
O	13.4125	-0.448555	0.912151
O	14.492	0.103065	-0.947287
H	13.3989	1.4353	0.249196
H	14.7113	-0.821962	-0.948588
