15
  This energy is -1.2523e-05 and Call times are: 48098
C	-1.84317	0.398049	0.108147
O	-0.91739	0.795708	0.797623
O	-1.67693	-0.452945	-0.915546
H	-2.90185	0.672437	0.226759
H	-0.706812	-0.659442	-0.968422
C	1.84319	-0.397873	-0.108293
O	0.917345	-0.795999	-0.797383
O	1.67695	0.453075	0.915438
H	2.90196	-0.671736	-0.227313
H	0.706772	0.659184	0.968623
C	32.3602	-0.269483	0.25578
O	31.6193	0.435462	0.922043
O	32.3507	-0.200466	-1.07488
H	33.0361	-0.962211	0.755721
H	31.7171	0.441345	-1.37557
