15
  This energy is -2.5848e-05 and Call times are: 39740
C	-0.518433	-0.589528	1.71787
O	-0.580047	-1.16632	0.643588
O	-0.0329302	0.653975	1.85114
H	-0.840495	-0.994764	2.68855
H	0.238071	0.959727	0.945798
C	0.518644	0.589445	-1.71783
O	0.579698	1.16646	-0.643649
O	0.033087	-0.654036	-1.85111
H	0.841317	0.994421	-2.68842
H	-0.23837	-0.959599	-0.945849
C	37.4239	0.0223724	0.159941
O	36.8557	1.10227	0.187184
O	36.8032	-1.06193	-0.303228
H	38.4496	-0.0544438	0.518502
H	35.9185	-0.852219	-0.5812
