15
  This energy is 0.000102693 and Call times are: 33633
C	-0.00568172	-0.345292	-1.85692
O	0.220171	0.693969	-1.25733
O	-0.309571	-1.49461	-1.23523
H	0.00831983	-0.477728	-2.9489
H	-0.305584	-1.30825	-0.259618
C	0.00590473	0.345234	1.85693
O	-0.220538	-0.693873	1.25732
O	0.309736	1.49456	1.23523
H	-0.00744344	0.477523	2.94893
H	0.305263	1.30832	0.259609
C	3.70275	0.0430095	-0.406179
O	4.19541	-1.06122	-0.239619
O	3.77537	0.971579	0.546711
H	3.19845	0.270587	-1.34458
H	4.23976	0.640039	1.30711
