15
  This energy is -3.7119e-05 and Call times are: 50492
C	0.713173	-1.44842	0.980239
O	-0.0520567	-1.45169	0.0289317
O	1.20352	-0.321324	1.51781
H	1.09203	-2.33608	1.50814
H	0.825853	0.437189	0.999561
C	-0.712991	1.44841	-0.98038
O	0.0517568	1.45171	-0.0286996
O	-1.20339	0.321318	-1.51792
H	-1.09133	2.33604	-1.50871
H	-0.826109	-0.43717	-0.999354
C	25.3604	-0.279687	0.354884
O	26.4449	-0.374497	-0.196981
O	24.4412	0.574941	-0.0926937
H	25.1427	-0.901134	1.22272
H	24.7622	1.05014	-0.850928
