15
  This energy is -2.2048e-05 and Call times are: 50744
C	-0.256272	0.0441268	1.87077
O	0.758841	0.227988	1.21784
O	-1.44167	-0.241115	1.31108
H	-0.336001	0.0854466	2.96717
H	-1.30206	-0.263435	0.327937
C	0.25622	-0.0439024	-1.87078
O	-0.758754	-0.228357	-1.21783
O	1.44163	0.241281	-1.31109
H	0.335819	-0.0845658	-2.96721
H	1.30212	0.263112	-0.327925
C	28.7572	0.394841	-0.219106
O	28.6626	0.518623	0.991482
O	28.9639	-0.802123	-0.766904
H	28.6715	1.27334	-0.857548
H	29.0181	-1.47529	-0.0978148
