15
  This energy is 3.1383e-05 and Call times are: 31070
C	0.0179444	1.82112	-0.50059
O	0.739541	1.21914	0.278822
O	-0.980079	1.23051	-1.17506
H	0.0840942	2.89094	-0.748115
H	-0.98578	0.273668	-0.908642
C	-0.0178019	-1.82117	0.500415
O	-0.739776	-1.21906	-0.278533
O	0.980183	-1.23055	1.17493
H	-0.083521	-2.89113	0.747447
H	0.98557	-0.273602	0.908887
C	9.44171	-0.0838338	-0.416721
O	9.26597	-1.01903	0.347683
O	10.0411	1.03144	-0.00141624
H	9.10441	-0.163113	-1.44951
H	10.2818	0.964394	0.915826
