15
  This energy is -0.00136695 and Call times are: 24621
C	-0.866471	0.359628	-1.6393
O	-0.145671	1.07725	-0.963989
O	-1.17799	-0.897455	-1.28934
H	-1.34219	0.63454	-2.59233
H	-0.720567	-1.08193	-0.427191
C	0.866653	-0.359709	1.63918
O	0.145372	-1.07712	0.964181
O	1.17812	0.897394	1.28925
H	1.34291	-0.634836	2.59188
H	0.720304	1.08204	0.427358
C	4.88329	0.386987	0.221458
O	5.76522	0.103276	-0.573205
O	3.81997	-0.402431	0.368767
H	4.96761	1.2958	0.816147
H	3.87569	-1.15577	-0.208422
