15
  This energy is -0.000486216 and Call times are: 21681
C	-0.0864508	1.53107	-1.10261
O	-0.672655	0.464657	-1.20108
O	0.780104	1.79831	-0.113955
H	-0.18429	2.38796	-1.78549
H	0.82242	0.990802	0.462846
C	0.0862807	-1.53099	1.10274
O	0.672935	-0.464799	1.20086
O	-0.78023	-1.79825	0.114051
H	0.183612	-2.38764	1.78599
H	-0.822171	-0.990921	-0.463025
C	3.87882	-0.0846794	-0.308889
O	4.15278	-1.06633	0.362744
O	4.49753	1.07692	-0.100556
H	3.12001	-0.16039	-1.08682
H	5.13165	1.00065	0.603605
