15
  This energy is -0.00332558 and Call times are: 13813
C	-1.32587	-1.25161	0.492874
O	-1.21899	-0.0715984	0.78734
O	-0.443785	-1.89056	-0.29035
H	-2.1302	-1.92846	0.817048
H	0.251226	-1.22891	-0.546756
C	1.32575	1.25167	-0.493061
O	1.21919	0.0715103	-0.787032
O	0.443695	1.8906	0.290211
H	2.12972	1.92869	-0.817771
H	-0.251045	1.22883	0.547018
C	5.06324	-0.322824	-0.312288
O	4.36783	0.593477	-0.720439
O	5.54915	-0.30819	0.928354
H	5.28835	-1.16115	-0.970502
H	5.2761	0.477259	1.3891
