15
  This energy is -7.858e-05 and Call times are: 2844
C	-1.41001	0.0751216	-1.25444
O	-1.11515	0.85709	-0.364412
O	-0.719413	-1.04949	-1.49549
H	-2.25125	0.180864	-1.95537
H	0.0204437	-1.08479	-0.833731
C	1.41015	-0.0750096	1.25429
O	1.11493	-0.857274	0.364658
O	0.719513	1.04957	1.49538
H	2.25178	-0.180409	1.9548
H	-0.0206343	1.08462	0.833941
C	6.6672	-0.0988472	-0.441466
O	7.67865	-0.555606	0.0666029
O	5.79862	0.604195	0.284362
H	6.47366	-0.268537	-1.49998
H	6.09058	0.674357	1.18637
