15
  This energy is -0.0011026 and Call times are: 14817
C	-1.32458	-1.33254	-0.192899
O	-0.313447	-1.13694	-0.848577
O	-1.6768	-0.56623	0.850403
H	-2.05893	-2.13422	-0.360862
H	-0.977886	0.132755	0.947842
C	1.3247	1.33241	0.193043
O	0.313257	1.13717	0.848339
O	1.67689	0.566128	-0.850296
H	2.0594	2.13367	0.361409
H	0.977717	-0.132554	-0.948041
C	5.116	0.317158	-0.156503
O	5.92242	0.764407	0.643147
O	5.12857	-0.973844	-0.486155
H	4.37846	0.981776	-0.604856
H	5.81963	-1.43422	-0.023267
