15
  This energy is -0.00197333 and Call times are: 1180
C	0.428035	1.20781	1.38758
O	1.09809	0.311855	0.898839
O	-0.81746	1.49307	0.978756
H	0.741432	1.87971	2.20028
H	-1.03814	0.855702	0.249635
C	-0.427953	-1.20766	-1.38774
O	-1.09822	-0.312104	-0.898586
O	0.81752	-1.49296	-0.97887
H	-0.741094	-1.87914	-2.20089
H	1.03802	-0.855914	-0.249417
C	4.58235	-0.169602	0.0503831
O	5.45296	-0.996173	0.270822
O	4.89957	1.07729	-0.296239
H	3.53491	-0.455701	0.138335
H	5.84301	1.18778	-0.334857
