15
  This energy is -2.1948e-05 and Call times are: 45368
C	0.96614	-1.41891	-0.787821
O	-0.164774	-1.40578	-0.328003
O	1.75944	-0.337158	-0.803847
H	1.4718	-2.28716	-1.23571
H	1.24757	0.405934	-0.388675
C	-0.96622	1.41897	0.787612
O	0.164905	1.40569	0.328346
O	-1.7595	0.337202	0.803693
H	-1.47213	2.28739	1.23491
H	-1.24745	-0.406012	0.388972
C	55.6347	-0.388029	0.00988878
O	56.1338	0.478822	0.709377
O	54.5201	-0.148242	-0.679865
H	56.1066	-1.36801	-0.0502793
H	54.2183	0.74167	-0.535844
