15
  This energy is 0.00071631 and Call times are: 35275
C	1.26792	-1.34952	0.372259
O	0.049847	-1.38089	0.449005
O	1.94605	-0.260669	-0.0205706
H	1.95191	-2.17881	0.605908
H	1.27562	0.445954	-0.214935
C	-1.26793	1.34945	-0.372478
O	-0.0498343	1.38101	-0.448644
O	-1.94605	0.260618	0.0204082
H	-1.95196	2.17852	-0.606761
H	-1.27561	-0.445846	0.215246
C	6.86652	0.387384	-0.194563
O	6.00345	-0.10055	0.517355
O	8.04922	-0.209634	-0.337021
H	6.66642	1.32119	-0.718653
H	8.08709	-1.01086	0.17325
