15
  This energy is -0.00169566 and Call times are: 35147
C	0.232841	0.104005	1.87146
O	-0.78571	-0.0666856	1.22032
O	1.44111	0.256482	1.30878
H	0.297934	0.154441	2.96845
H	1.31376	0.201299	0.325263
C	-0.232804	-0.104233	-1.87145
O	0.785649	0.0670599	-1.22033
O	-1.44108	-0.25665	-1.30877
H	-0.297813	-0.155333	-2.96841
H	-1.31381	-0.200972	-0.325279
C	4.60725	0.355896	0.20475
O	5.81384	0.487144	0.0755281
O	3.99117	-0.741647	-0.23271
H	4.02888	1.14542	0.68313
H	4.61251	-1.34387	-0.626476
