15
  This energy is -0.00202855 and Call times are: 36668
C	-1.01562	1.19065	1.05747
O	-0.95328	1.08512	-0.157248
O	-0.313189	0.411948	1.89412
H	-1.63333	1.9119	1.61281
H	0.219154	-0.21202	1.33391
C	1.01545	-1.19081	-1.05747
O	0.953565	-1.08487	0.157233
O	0.313061	-0.412061	-1.89411
H	1.63265	-1.91249	-1.6128
H	-0.218902	0.212233	-1.33391
C	4.84384	0.0873273	-0.442934
O	4.10609	-0.859928	-0.223357
O	5.42293	0.745985	0.560233
H	5.03006	0.396625	-1.47073
H	5.17457	0.371946	1.3982
