15
  This energy is -2.5646e-05 and Call times are: 49148
C	1.59942	-0.626023	0.785713
O	0.727885	-1.24249	0.193293
O	1.54793	0.699679	0.984801
H	2.51307	-1.05649	1.22171
H	0.705632	1.02424	0.570362
C	-1.59931	0.62606	-0.78591
O	-0.728072	1.24243	-0.192969
O	-1.54785	-0.699651	-0.984947
H	-2.51264	1.05662	-1.22249
H	-0.705794	-1.02428	-0.570078
C	40.2603	0.395663	0.213428
O	39.2356	-0.170798	0.558317
O	41.0662	-0.149595	-0.696946
H	40.5177	1.35747	0.655493
H	40.7223	-0.983684	-0.996601
