15
  This energy is 0.000117502 and Call times are: 25961
C	0.0650239	-0.355989	1.85377
O	0.101851	0.711606	1.26262
O	-0.0352324	-1.53575	1.22299
H	0.107385	-0.492736	2.94448
H	-0.0689033	-1.34369	0.249056
C	-0.0652539	0.355998	-1.85375
O	-0.101472	-0.711622	-1.26264
O	0.0350622	1.53576	-1.22298
H	-0.108283	0.492797	-2.94444
H	0.0692314	1.34367	-0.249076
C	3.68396	-0.154352	0.0939476
O	3.77901	1.05375	0.239715
O	4.73156	-0.876863	-0.301055
H	2.73169	-0.646032	0.289252
H	5.49296	-0.323437	-0.434361
