15
  This energy is -2.0905e-05 and Call times are: 41882
C	-0.0290901	-1.19948	1.4587
O	0.800082	-0.354685	1.15975
O	-1.13694	-1.42191	0.735533
H	0.0161208	-1.8698	2.32978
H	-1.11723	-0.789421	-0.0300561
C	0.0289734	1.19963	-1.45857
O	-0.79989	0.354433	-1.15996
O	1.13685	1.42203	-0.73544
H	-0.0165582	1.87042	-2.32928
H	1.11739	0.789199	0.0298718
C	34.4617	0.0527226	-0.382349
O	33.8345	0.386974	0.609929
O	35.7075	-0.408125	-0.276927
H	33.9968	0.132537	-1.36428
H	35.9861	-0.424609	0.631867
