15
  This energy is 0.000389455 and Call times are: 9238
C	-0.0671269	-0.616221	-1.78414
O	-0.438132	0.446507	-1.31135
O	0.49044	-1.58777	-1.04591
H	-0.136263	-0.912682	-2.84126
H	0.523464	-1.25952	-0.109043
C	0.0673369	0.616307	1.7841
O	0.437786	-0.446649	1.31141
O	-0.490285	1.58783	1.04588
H	0.137075	0.91304	2.8411
H	-0.52376	1.25939	0.109103
C	6.02622	0.107186	-0.345393
O	5.63555	-0.867736	0.276456
O	7.14499	0.737752	0.00992642
H	5.45305	0.464668	-1.20002
H	7.54133	0.322026	0.767464
