15
  This energy is -1.711e-05 and Call times are: 49736
C	0.775371	1.51932	-0.811098
O	-0.186039	1.43958	-0.0628302
O	1.48507	0.450424	-1.20298
H	1.17734	2.44411	-1.2508
H	1.07382	-0.345669	-0.774411
C	-0.775228	-1.51929	0.811277
O	0.185804	-1.43963	0.0625352
O	-1.48496	-0.450405	1.20311
H	-1.1768	-2.444	1.25151
H	-1.07402	0.345627	0.774151
C	30.7962	-0.193007	-0.0737006
O	31.5745	-0.939573	0.497799
O	31.163	1.04208	-0.41362
H	29.791	-0.541485	-0.30784
H	32.0605	1.21265	-0.1506
