15
  This energy is -6.191e-06 and Call times are: 50072
C	-1.58951	0.925505	-0.429322
O	-1.21546	0.472201	0.640809
O	-0.867701	0.825944	-1.55576
H	-2.53472	1.45824	-0.610762
H	-0.0334003	0.338709	-1.32531
C	1.58961	-0.925303	0.429366
O	1.21529	-0.472533	-0.640883
O	0.867777	-0.825795	1.55579
H	2.53512	-1.45746	0.610959
H	0.0332568	-0.338996	1.32524
C	30.5474	-0.417595	-0.0981853
O	30.9993	0.427926	-0.85361
O	29.7163	-0.0767524	0.88601
H	30.8273	-1.46193	-0.23114
H	29.5588	0.860783	0.886005
