15
  This energy is -1.6198e-05 and Call times are: 46040
C	-0.969415	1.59554	-0.286143
O	0.000898239	1.15475	-0.881765
O	-1.54085	0.960084	0.747986
H	-1.48959	2.53936	-0.507012
H	-1.02794	0.122275	0.894807
C	0.969272	-1.59565	0.285999
O	-0.00066235	-1.15457	0.882001
O	1.54075	-0.960166	-0.748092
H	1.48905	-2.53979	0.506437
H	1.02814	-0.12212	-0.894595
C	42.7283	0.179913	0.348239
O	41.7106	-0.39375	0.701928
O	43.0682	0.231445	-0.939112
H	43.3646	0.654552	1.0942
H	42.4275	-0.220848	-1.47634
