15
  This energy is -0.00297964 and Call times are: 35021
C	-1.75078	-0.36076	-0.609928
O	-0.692576	-0.383059	-1.21843
O	-1.83671	-0.0504002	0.692403
H	-2.74278	-0.583758	-1.0299
H	-0.914273	0.138589	1.00856
C	1.75081	0.360538	0.609985
O	0.692537	0.383425	1.21833
O	1.83673	0.050236	-0.69236
H	2.74288	0.582888	1.03011
H	0.914237	-0.13827	-1.00863
C	5.44258	-0.179293	-0.412669
O	4.80697	-0.768934	0.446469
O	6.20179	0.869623	-0.0981969
H	5.38769	-0.515267	-1.44747
H	6.15701	1.05207	0.833728
