15
  This energy is -2.1773e-05 and Call times are: 40916
C	-0.351889	-0.440015	1.80277
O	0.506755	0.288368	1.33079
O	-1.24968	-1.0924	1.04902
H	-0.502238	-0.653883	2.87132
H	-1.06075	-0.85826	0.102419
C	0.351742	0.440192	-1.80275
O	-0.506513	-0.288659	-1.33082
O	1.24957	1.09253	-1.049
H	0.501682	0.654588	-2.87126
H	1.06095	0.858002	-0.102446
C	38.715	-0.431104	0.112533
O	37.759	0.111403	-0.418047
O	39.8532	0.233762	0.307497
H	38.6355	-1.47024	0.429681
H	39.7834	1.1253	-0.0150882
