15
  This energy is -0.00109058 and Call times are: 13135
C	-0.651981	-1.45999	-1.00536
O	-0.837309	-0.262927	-1.1579
O	0.105752	-1.9606	-0.0179442
H	-1.06532	-2.26326	-1.63311
H	0.446058	-1.18971	0.50786
C	0.652168	1.46	1.00523
O	0.837002	0.262915	1.15813
O	-0.105614	1.96061	0.0178444
H	1.06604	2.26331	1.63257
H	-0.44632	1.18969	-0.50766
C	4.08273	0.409448	0.176767
O	3.67087	0.46947	-0.970647
O	4.24671	-0.767051	0.780487
H	4.31847	1.32851	0.71199
H	4.00451	-1.48091	0.201242
