15
  This energy is -0.00254867 and Call times are: 9617
C	-0.280138	-1.39427	-1.24295
O	-1.07707	-0.600378	-0.768393
O	1.02353	-1.39631	-0.926378
H	-0.512434	-2.18783	-1.96853
H	1.16599	-0.662069	-0.272806
C	0.280183	1.39441	1.24278
O	1.07699	0.600142	0.76868
O	-1.0235	1.39642	0.926249
H	0.512592	2.1884	1.96785
H	-1.16604	0.661862	0.273057
C	4.58013	0.200182	0.295285
O	3.83265	0.994226	-0.252951
O	4.52229	-1.09951	0.00724312
H	5.30197	0.559288	1.02789
H	3.85173	-1.27186	-0.644224
