15
  This energy is -0.00163759 and Call times are: 53363
C	0.833577	1.09984	1.28954
O	0.279401	1.40455	0.245211
O	0.943424	-0.168108	1.71382
H	1.30181	1.79692	2.00017
H	0.504122	-0.742489	1.03289
C	-0.833775	-1.09982	-1.28942
O	-0.279074	-1.40458	-0.245402
O	-0.94357	0.168121	-1.71373
H	-1.3026	-1.79683	-1.99973
H	-0.503837	0.742455	-1.03305
C	4.58525	-0.124558	-0.420781
O	5.70837	-0.491007	-0.113992
O	3.83497	0.563228	0.439182
H	4.19317	-0.363062	-1.40876
H	4.29837	0.699951	1.25793
