15
  This energy is -5.401e-06 and Call times are: 16225
C	0.815358	0.698442	-1.55395
O	-0.300548	0.899026	-1.10108
O	1.7048	-0.116665	-0.967216
H	1.22998	1.14185	-2.47136
H	1.27185	-0.481515	-0.151133
C	-0.815272	-0.698266	1.55408
O	0.300407	-0.899317	1.10088
O	-1.70474	0.116795	0.967306
H	-1.22967	-1.14116	2.47183
H	-1.27196	0.481259	0.150961
C	12.6408	-0.334979	0.162271
O	12.0184	0.702575	0.00138535
O	13.9393	-0.401986	-0.12903
H	12.1279	-1.2151	0.548301
H	14.2562	0.433074	-0.454611
