15
  This energy is 0.000269665 and Call times are: 20344
C	1.50015	-0.62989	-0.959273
O	1.37155	-0.417252	0.236059
O	0.512892	-0.431281	-1.84565
H	2.40935	-0.99987	-1.45588
H	-0.27334	-0.100113	-1.33699
C	-1.50022	0.629673	0.959299
O	-1.37143	0.41761	-0.236103
O	-0.512946	0.43112	1.84567
H	-2.40963	0.999022	1.45601
H	0.273437	0.100425	1.33695
C	8.92717	0.312409	-0.0331465
O	8.61397	0.083567	1.12415
O	8.32926	-0.32506	-1.03896
H	9.70417	1.04606	-0.244674
H	7.67542	-0.933184	-0.712689
