15
  This energy is -7.635e-06 and Call times are: 47258
C	-1.34053	0.881621	-0.996556
O	-0.658488	1.29316	-0.0713395
O	-1.23174	-0.362933	-1.48545
H	-2.10967	1.45321	-1.53681
H	-0.52624	-0.822514	-0.958556
C	1.34069	-0.88155	0.996403
O	0.658229	-1.29328	0.0715914
O	1.23185	0.362985	1.48534
H	2.11029	-1.45292	1.53623
H	0.526015	0.822405	0.95877
C	34.0763	0.0014748	0.359688
O	34.5852	-0.520185	-0.619439
O	32.8386	0.491676	0.303773
H	34.6413	0.0663621	1.28881
H	32.465	0.368546	-0.561707
