15
  This energy is -0.00479517 and Call times are: 11219
C	1.71957	0.039928	0.780304
O	1.12581	-0.88439	0.247712
O	1.19624	1.26919	0.902016
H	2.72798	-0.0059593	1.21754
H	0.292508	1.24335	0.49073
C	-1.71948	-0.0398656	-0.780505
O	-1.12596	0.884287	-0.247379
O	-1.19617	-1.26914	-0.902165
H	-2.72762	0.00618216	-1.21834
H	-0.292641	-1.24343	-0.49044
C	5.62689	-0.109586	-0.404674
O	4.86482	-0.362704	0.514551
O	6.82227	0.429886	-0.168993
H	5.32523	-0.327597	-1.42848
H	6.9539	0.566186	0.762604
