15
  This energy is -0.000799158 and Call times are: 19752
C	0.0458306	0.477711	-1.82677
O	0.480628	1.07302	-0.853567
O	-0.582845	-0.70408	-1.73783
H	0.107284	0.815611	-2.87186
H	-0.604712	-0.951017	-0.776001
C	-0.0456305	-0.477822	1.82675
O	-0.480958	-1.07284	0.853611
O	0.582993	0.703996	1.73781
H	-0.106492	-0.81603	2.87177
H	0.604422	0.951169	0.776037
C	6.13997	-0.0862503	0.3615
O	7.30012	-0.427364	0.527289
O	5.75187	0.47278	-0.784092
H	5.4149	-0.241095	1.15963
H	6.48205	0.547276	-1.3883
