15
  This energy is -8.948e-06 and Call times are: 6589
C	-1.1659	1.43644	0.380434
O	-0.765786	0.542372	1.10922
O	-0.808075	1.54196	-0.908211
H	-1.8495	2.24854	0.669113
H	-0.19554	0.78488	-1.10364
C	1.16607	-1.43631	-0.380376
O	0.765491	-0.542591	-1.10931
O	0.808208	-1.54186	0.908252
H	1.8502	-2.24804	-0.668868
H	0.195285	-0.785068	1.10355
C	18.1707	-0.20223	-0.384883
O	19.0602	-0.81099	0.187938
O	17.6815	0.927521	0.124872
H	17.7734	-0.587829	-1.32305
H	18.1167	1.14631	0.94127
