15
  This energy is -2.5957e-05 and Call times are: 40958
C	1.21481	0.786581	1.21364
O	0.661589	-0.300868	1.25807
O	1.02729	1.6598	0.212595
H	1.91715	1.18553	1.96045
H	0.388044	1.24221	-0.422649
C	-1.21463	-0.786671	-1.21376
O	-0.661881	0.301016	-1.25788
O	-1.02716	-1.65987	-0.212681
H	-1.91646	-1.1859	-1.96089
H	-0.388298	-1.24207	0.422809
C	40.7564	-0.114611	-0.435232
O	41.7493	0.409898	0.0430713
O	39.6615	-0.298142	0.30175
H	40.7667	-0.43574	-1.47613
H	39.7907	0.0267261	1.1858
