15
  This energy is -0.000457597 and Call times are: 24428
C	1.1191	1.10427	1.04671
O	0.178588	1.40403	0.328275
O	1.53433	-0.160294	1.21474
H	1.73291	1.80363	1.63348
H	0.943416	-0.736986	0.66265
C	-1.11924	-1.10429	-1.04653
O	-0.178356	-1.40399	-0.328573
O	-1.53444	0.160275	-1.21461
H	-1.73347	-1.80371	-1.63278
H	-0.943211	0.737014	-0.662906
C	5.45996	-0.100859	0.256889
O	5.32867	-0.865095	-0.685712
O	4.60003	0.898996	0.447472
H	6.28967	-0.238822	0.949175
H	3.92993	0.901708	-0.226864
