15
  This energy is -7.918e-06 and Call times are: 38270
C	-0.449756	-0.595132	-1.73521
O	-0.368599	-1.22345	-0.69156
O	-0.211481	0.722778	-1.81338
H	-0.719398	-1.00757	-2.71874
H	0.0246616	1.03109	-0.899188
C	0.449534	0.595178	1.73525
O	0.368965	1.22338	0.691494
O	0.211316	-0.722744	1.81341
H	0.718528	1.00773	2.71891
H	-0.0243424	-1.03114	0.899129
C	18.0119	0.209896	0.280518
O	17.4412	-0.504507	-0.527976
O	19.3404	0.31278	0.279431
H	17.4276	0.768963	1.01043
H	19.7206	-0.225317	-0.405916
