15
  This energy is -8.75e-07 and Call times are: 45830
C	1.06235	-1.24375	0.944411
O	1.19185	-0.809131	-0.189129
O	0.0621952	-0.872621	1.75788
H	1.72324	-1.97242	1.43676
H	-0.493568	-0.219127	1.25724
C	-1.06222	1.24392	-0.944326
O	-1.19206	0.808849	0.188989
O	-0.0621003	0.872747	-1.75782
H	-1.72273	1.9731	-1.43645
H	0.493378	0.218884	-1.25736
C	44.6915	0.318976	-0.246033
O	44.2157	0.204841	0.872162
O	45.7124	-0.445128	-0.632664
H	44.2761	1.05395	-0.934482
H	45.973	-1.03842	0.0629415
