15
  This energy is -1.7959e-05 and Call times are: 43730
C	0.418654	-0.893236	-1.61067
O	0.224531	0.294435	-1.40494
O	0.358509	-1.82034	-0.642876
H	0.660637	-1.34997	-2.58175
H	0.138055	-1.34631	0.201669
C	-0.418429	0.893262	1.61071
O	-0.224902	-0.294476	1.40487
O	-0.358342	1.82036	0.642907
H	-0.659759	1.35009	2.58191
H	-0.138377	1.34627	-0.201724
C	57.7847	-0.377686	0.22314
O	58.5505	-0.595883	-0.701885
O	57.3745	0.861819	0.489357
H	57.4334	-1.20624	0.837015
H	57.7564	1.48269	-0.120932
