15
  This energy is -2.1257e-05 and Call times are: 37850
C	1.65999	0.615124	-0.658389
O	1.39414	0.0726229	0.402551
O	0.735802	0.878377	-1.59453
H	2.6568	0.950405	-0.981048
H	-0.134951	0.553543	-1.24405
C	-1.65995	-0.615328	0.658289
O	-1.39421	-0.0722867	-0.402387
O	-0.735774	-0.878528	1.59445
H	-2.65664	-0.951212	0.98068
H	0.134891	-0.553249	1.24419
C	27.4668	0.421717	-0.00820216
O	26.9274	0.152236	1.05305
O	27.5217	-0.476152	-0.991226
H	27.9078	1.40741	-0.151975
H	27.1006	-1.28794	-0.731481
