15
  This energy is -6.304e-06 and Call times are: 6757
C	-0.386309	1.10104	-1.48522
O	-0.339467	1.38096	-0.297774
O	-0.151108	-0.13408	-1.95312
H	-0.619143	1.797	-2.30472
H	0.0512633	-0.709246	-1.16903
C	0.386532	-1.10099	1.48519
O	0.339099	-1.38104	0.297815
O	0.151274	0.134115	1.9531
H	0.620017	-1.7968	2.30464
H	-0.0515821	0.709169	1.16906
C	25.6174	0.0250894	0.353893
O	26.3177	1.01857	0.242747
O	25.7267	-0.984765	-0.508523
H	24.8955	-0.0353846	1.16749
H	26.3908	-0.799845	-1.16319
