15
  This energy is -0.00106448 and Call times are: 13863
C	1.34147	-1.27417	0.379943
O	1.43687	-0.16998	-0.13215
O	0.171618	-1.7923	0.783375
H	2.17065	-1.97057	0.573962
H	-0.530417	-1.11927	0.581527
C	-1.34144	1.27426	-0.379733
O	-1.43692	0.169831	0.131804
O	-0.171597	1.79237	-0.783219
H	-2.17053	1.97094	-0.573151
H	0.530368	1.11914	-0.581824
C	4.62398	-0.0374986	0.451395
O	4.43587	1.11196	0.086505
O	4.73663	-1.02399	-0.437236
H	4.70042	-0.257946	1.51548
H	4.65055	-0.691796	-1.32381
