15
  This energy is -9.6274e-05 and Call times are: 5325
C	1.74006	-0.448328	0.581904
O	1.22406	0.648752	0.437899
O	1.09507	-1.59669	0.326905
H	2.76673	-0.639428	0.927715
H	0.181154	-1.35611	0.021229
C	-1.74013	0.448318	-0.581686
O	-1.22394	-0.648734	-0.438258
O	-1.09512	1.59668	-0.326743
H	-2.76702	0.639409	-0.926862
H	-0.181052	1.35611	-0.0215421
C	5.77721	-0.0265601	-0.452233
O	5.99945	1.1079	-0.0605564
O	5.62897	-1.02874	0.413311
H	5.69945	-0.220495	-1.52137
H	5.72081	-0.71946	1.30756
