15
  This energy is -8.04e-06 and Call times are: 22747
C	1.175	1.36043	-0.579663
O	0.0308935	1.11657	-0.929129
O	1.8244	0.6383	0.345853
H	1.80762	2.17552	-0.961226
H	1.20308	-0.0755461	0.647435
C	-1.17507	-1.36029	0.579829
O	-0.0307682	-1.1168	0.928855
O	-1.82445	-0.638197	-0.345729
H	-1.80793	-2.17497	0.961866
H	-1.20297	0.0753426	-0.647668
C	17.1709	0.0666776	-0.429667
O	16.6968	-0.951147	0.0490173
O	17.9731	0.848661	0.291737
H	16.9347	0.337594	-1.45803
H	18.0931	0.495021	1.16598
