15
  This energy is -0.00187949 and Call times are: 2339
C	0.705668	-1.62926	-0.644174
O	0.49176	-1.27117	0.503253
O	0.450721	-0.854593	-1.70938
H	1.12145	-2.60027	-0.951433
H	0.0802127	0.000595127	-1.36596
C	-0.705881	1.62917	0.644157
O	-0.49141	1.27131	-0.503225
O	-0.450878	0.854528	1.70937
H	-1.12228	2.59993	0.951391
H	-0.07991	-0.000465839	1.36598
C	4.09261	0.34019	0.216792
O	3.44192	-0.0792793	-0.726842
O	5.2762	-0.192641	0.517998
H	3.70028	1.15917	0.818501
H	5.49448	-0.894178	-0.085305
