15
  This energy is -1.3961e-05 and Call times are: 42302
C	-0.637496	1.59099	0.793572
O	0.370425	1.39869	0.131993
O	-1.51751	0.619998	1.08086
H	-0.951421	2.55115	1.22913
H	-1.17823	-0.214243	0.661932
C	0.637375	-1.59094	-0.793762
O	-0.370226	-1.39877	-0.13168
O	1.51742	-0.619961	-1.081
H	0.95097	-2.55095	-1.22988
H	1.1784	0.214168	-0.661657
C	42.1623	0.105239	-0.251818
O	41.1736	0.750548	-0.561395
O	42.1083	-0.793918	0.730078
H	43.0984	0.267141	-0.784886
H	41.236	-0.831884	1.10613
