15
  This energy is -0.00576159 and Call times are: 35569
C	0.0464746	-0.764215	1.72662
O	0.921221	-0.702026	0.877195
O	-1.18236	-0.257004	1.54643
H	0.14168	-1.22744	2.71986
H	-1.20214	0.143372	0.637654
C	-0.0464076	0.764416	-1.72653
O	-0.921331	0.701694	-0.877343
O	1.18241	0.257154	-1.54636
H	-0.141398	1.22822	-2.71952
H	1.20203	-0.143657	-0.637782
C	4.27	0.153705	-0.212628
O	3.38931	0.995496	-0.138082
O	4.09262	-1.06413	0.298174
H	5.21084	0.402048	-0.702374
H	3.23155	-1.14285	0.69331
