15
  This energy is -2.6757e-05 and Call times are: 49526
C	-0.478285	1.54562	-0.974529
O	-1.11261	0.924349	-0.136538
O	0.757172	1.19456	-1.36206
H	-0.819532	2.4454	-1.50754
H	1.00422	0.381741	-0.847411
C	0.478377	-1.54549	0.974692
O	1.11246	-0.92457	0.136269
O	-0.757102	-1.19446	1.36218
H	0.819876	-2.44488	1.50819
H	-1.00434	-0.381934	0.847174
C	29.7664	-0.423153	-0.14925
O	29.0966	-0.386098	0.870442
O	30.2195	0.69885	-0.707209
H	29.9955	-1.38467	-0.607159
H	29.9468	1.45949	-0.206379
