15
  This energy is -0.00012101 and Call times are: 34895
C	-0.736772	1.54195	-0.804332
O	-0.636882	0.406244	-1.24109
O	-0.301608	1.89545	0.414456
H	-1.18081	2.40007	-1.33029
H	0.084928	1.08199	0.833296
C	0.736566	-1.542	0.804423
O	0.637221	-0.406164	1.24094
O	0.301455	-1.89549	-0.414389
H	1.18	-2.40027	1.33063
H	-0.0846309	-1.08191	-0.833419
C	6.22123	0.379481	0.172549
O	7.20576	0.00374992	0.788424
O	5.77731	-0.30223	-0.88278
H	5.70068	1.28217	0.490174
H	6.32249	-1.06349	-1.04718
