15
  This energy is -3.3678e-05 and Call times are: 39782
C	1.41045	-0.728613	-1.02331
O	0.83705	0.343251	-1.13688
O	1.09884	-1.62552	-0.0755585
H	2.23108	-1.09323	-1.65874
H	0.357052	-1.23836	0.459624
C	-1.41029	0.728706	1.02346
O	-0.837305	-0.343405	1.13664
O	-1.09873	1.62559	0.0756648
H	-2.23048	1.09361	1.65929
H	-0.357274	1.23822	-0.459823
C	34.6682	0.159395	0.355821
O	34.3982	0.746333	-0.679731
O	35.5579	-0.832549	0.363939
H	34.1758	0.45068	1.28285
H	35.9074	-0.980257	-0.507704
