15
  This energy is -0.000280227 and Call times are: 12882
C	-1.58131	-0.107278	-1.0273
O	-0.818995	0.832372	-0.864501
O	-1.39529	-1.30523	-0.452774
H	-2.4919	-0.101497	-1.64452
H	-0.563249	-1.24403	0.0862228
C	1.58143	0.107206	1.02712
O	0.818796	-0.832254	0.864802
O	1.39538	1.30518	0.452639
H	2.49238	0.101237	1.6438
H	0.563076	1.24412	-0.085959
C	7.11892	0.139037	-0.32772
O	8.25611	0.556057	-0.478278
O	6.81013	-0.636254	0.711071
H	6.34895	0.404325	-1.05123
H	7.57242	-0.787034	1.25875
