15
  This energy is -1.3481e-05 and Call times are: 47552
C	-0.453853	-0.212806	1.82103
O	-0.594636	0.754728	1.08984
O	0.0901904	-1.36697	1.40667
H	-0.742897	-0.269564	2.88093
H	0.327294	-1.25035	0.449204
C	0.453645	0.212725	-1.82108
O	0.594978	-0.754596	-1.08974
O	-0.090344	1.36691	-1.40672
H	0.742079	0.269272	-2.88116
H	-0.326994	1.25046	-0.449121
C	30.7379	-0.175997	0.208868
O	30.9807	0.963312	0.573301
O	31.4981	-0.774144	-0.707553
H	29.8901	-0.708523	0.638314
H	32.1978	-0.198137	-0.994595
