15
  This energy is -2.0212e-05 and Call times are: 38942
C	0.636878	0.245766	1.76108
O	0.172572	1.0599	0.978662
O	0.776658	-1.05472	1.46282
H	0.991437	0.458315	2.78052
H	0.44085	-1.17909	0.536356
C	-0.637087	-0.245811	-1.76099
O	-0.172227	-1.05983	-0.978801
O	-0.776813	1.05469	-1.46275
H	-0.992264	-0.458471	-2.7802
H	-0.440549	1.17915	-0.536477
C	24.8775	0.444236	0.0888222
O	25.6414	0.188226	-0.828118
O	24.2153	-0.527974	0.71467
H	24.7366	1.47927	0.397925
H	24.4316	-1.37667	0.344973
