15
  This energy is -5.878e-05 and Call times are: 51584
C	1.03084	1.25887	-0.959174
O	1.26551	0.706157	0.103847
O	-0.0882536	1.03705	-1.665
H	1.68042	1.98781	-1.46598
H	-0.626941	0.375008	-1.15698
C	-1.03074	-1.25904	0.959058
O	-1.26568	-0.705877	-0.103656
O	0.0883297	-1.03717	1.66491
H	-1.68	-1.98848	1.46554
H	0.626787	-0.374765	1.15714
C	10.8584	0.340706	-0.29368
O	10.6699	-0.729401	-0.849658
O	10.8773	0.422894	1.03613
H	11.0128	1.23762	-0.892361
H	10.73	-0.429865	1.42966
