15
  This energy is -8.54e-06 and Call times are: 40706
C	-1.66649	-0.0912975	-0.884239
O	-0.564365	0.195119	-1.32453
O	-1.87765	-0.410719	0.401512
H	-2.60348	-0.125684	-1.45959
H	-0.999133	-0.361214	0.862292
C	1.66652	0.0910744	0.884192
O	0.564308	-0.194752	1.32461
O	1.87768	0.410554	-0.401546
H	2.60363	0.124818	1.45939
H	0.99908	0.36153	-0.862217
C	32.8648	0.0978529	0.0824933
O	33.0542	-0.258781	-1.06935
O	33.8754	0.168159	0.9482
H	31.8582	0.361271	0.404997
H	34.6925	-0.0881509	0.535488
