15
  This energy is 0.000163756 and Call times are: 25365
C	1.48443	0.835857	0.8156
O	1.27932	-0.347243	0.594753
O	0.613421	1.80113	0.484899
H	2.37839	1.25785	1.29821
H	-0.165128	1.35713	0.0567774
C	-1.48433	-0.835831	-0.815806
O	-1.27948	0.347202	-0.594415
O	-0.613346	-1.80111	-0.485051
H	-2.37799	-1.25777	-1.29902
H	0.164978	-1.35716	-0.0564852
C	7.91874	0.318459	0.158796
O	8.146	-0.556497	0.978916
O	8.47253	0.27659	-1.05243
H	7.25574	1.14203	0.421213
H	9.02493	-0.491545	-1.1452
