15
  This energy is -2.3271e-05 and Call times are: 43856
C	-1.82149	0.468845	-0.172569
O	-0.915139	1.05659	0.396343
O	-1.64558	-0.696107	-0.814223
H	-2.86834	0.801011	-0.235191
H	-0.68694	-0.938623	-0.720686
C	1.82153	-0.468733	0.172372
O	0.915065	-1.05678	-0.39602
O	1.64562	0.696189	0.814078
H	2.86853	-0.800558	0.234435
H	0.686875	0.938455	0.720962
C	55.6963	0.00785265	-0.336833
O	55.6884	1.03364	0.324601
O	56.5343	-0.985474	-0.0424245
H	55.0104	-0.0954212	-1.17677
H	57.0722	-0.762456	0.70904
