15
  This energy is -2.0175e-05 and Call times are: 47174
C	-1.16395	-1.30448	-0.714806
O	0.0327702	-1.14377	-0.895367
O	-1.8936	-0.512346	0.0851332
H	-1.78583	-2.09162	-1.16628
H	-1.27777	0.17176	0.45837
C	1.16399	1.30434	0.714985
O	-0.0328382	1.14399	0.895072
O	1.89363	0.512244	-0.085
H	1.78602	2.09108	1.16697
H	1.2777	-0.171558	-0.458622
C	29.7399	0.14441	0.342406
O	30.8203	0.71103	0.30398
O	29.4275	-0.787308	-0.557495
H	29.0241	0.404198	1.12144
H	30.1394	-0.913072	-1.17494
