15
  This energy is -0.00164066 and Call times are: 34180
C	1.15677	1.47949	-0.200924
O	1.40457	0.338065	0.154474
O	-0.0777224	1.88921	-0.529439
H	1.88442	2.2989	-0.297216
H	-0.682235	1.10843	-0.422161
C	-1.15674	-1.47955	0.200703
O	-1.40463	-0.337972	-0.154111
O	0.0777492	-1.88925	0.529276
H	-1.88426	-2.29913	0.296361
H	0.682175	-1.10835	0.422473
C	5.26193	0.129651	-0.240705
O	4.31571	-0.178632	-0.947406
O	5.16871	0.067196	1.08705
H	6.19223	0.459286	-0.701776
H	4.30685	-0.234451	1.3516
