15
  This energy is -2.2631e-05 and Call times are: 36164
C	0.593551	1.54256	0.914123
O	-0.467864	0.945291	0.999243
O	1.5806	1.16155	0.0893014
H	0.876441	2.44196	1.48087
H	1.26409	0.350676	-0.389101
C	-0.593459	-1.54269	-0.913957
O	0.467713	-0.945076	-0.999516
O	-1.58054	-1.16164	-0.089179
H	-0.876103	-2.44248	-1.48021
H	-1.26421	-0.35049	0.388859
C	10.3647	0.2399	-0.360402
O	11.5318	-0.108189	-0.441018
O	9.62888	-0.0863168	0.701492
H	9.92106	0.823612	-1.16609
H	10.1389	-0.593118	1.32342
