15
  This energy is -0.00326606 and Call times are: 30734
C	-1.22783	-0.720074	1.2415
O	-0.862047	0.434295	1.08592
O	-0.774663	-1.73599	0.491623
H	-1.95243	-1.07325	1.99009
H	-0.129587	-1.35283	-0.159239
C	1.22766	0.720104	-1.24165
O	0.862331	-0.434344	-1.08567
O	0.774535	1.73602	-0.491734
H	1.95175	1.07339	-1.99067
H	0.129836	1.35278	0.159449
C	5.23838	0.000525519	-0.431962
O	4.03777	0.19248	-0.324801
O	5.99747	-0.182774	0.647708
H	5.69304	-0.0209363	-1.42167
H	5.47417	-0.13936	1.4402
