15
  This energy is -0.000164114 and Call times are: 8689
C	-1.32006	0.370177	-1.29916
O	-0.204469	-0.107028	-1.43447
O	-1.81789	0.734258	-0.107782
H	-2.04393	0.560355	-2.10539
H	-1.12062	0.538049	0.571837
C	1.31997	-0.370387	1.29919
O	0.204619	0.107373	1.43442
O	1.81782	-0.734412	0.107804
H	2.04359	-0.561184	2.10549
H	1.12075	-0.537746	-0.571872
C	9.7671	0.35572	0.0886644
O	10.3987	-0.627709	-0.263137
O	8.43835	0.314732	0.179518
H	10.2967	1.27637	0.330728
H	8.10953	-0.544688	-0.0593439
