15
  This energy is -0.000525097 and Call times are: 4545
C	1.46149	0.740933	0.939394
O	0.926103	-0.349248	1.06363
O	1.05852	1.65325	0.0421435
H	2.31629	1.11171	1.5242
H	0.2902	1.25954	-0.449025
C	-1.46135	-0.741018	-0.93955
O	-0.926345	0.349388	-1.06338
O	-1.05841	-1.65331	-0.0422596
H	-2.31572	-1.11206	-1.52481
H	-0.29041	-1.25941	0.449243
C	4.81916	-0.0228751	-0.437055
O	4.69888	1.12647	-0.0441966
O	4.60727	-1.04924	0.385865
H	5.10288	-0.210232	-1.472
H	4.3677	-0.743065	1.25341
