15
  This energy is -9.256e-06 and Call times are: 12714
C	-1.27899	-1.38595	0.103693
O	-0.729918	-0.762524	0.998367
O	-1.03608	-1.16202	-1.19655
H	-2.02095	-2.18738	0.23538
H	-0.363245	-0.433047	-1.24612
C	1.27881	1.3861	-0.103701
O	0.7302	0.76227	-0.998353
O	1.03595	1.16213	1.19654
H	2.02029	2.18799	-0.235391
H	0.36349	0.432826	1.24612
C	15.441	-0.0873147	0.263133
O	15.619	-0.94601	-0.585831
O	16.254	0.964996	0.347928
H	14.608	-0.183494	0.958493
H	16.9332	0.921808	-0.315869
