15
  This energy is 5.076e-06 and Call times are: 7849
C	-1.17443	-0.674961	1.31627
O	-0.977243	0.477101	0.963499
O	-0.53277	-1.72262	0.777314
H	-1.87914	-1.00074	2.09563
H	0.0834412	-1.36304	0.0862635
C	1.17426	0.674937	-1.31642
O	0.977516	-0.47706	-0.963239
O	0.532648	1.7226	-0.777431
H	1.87849	1.00067	-2.09624
H	-0.0832003	1.36307	-0.0860403
C	15.8353	0.0932294	-0.0869594
O	15.6617	-1.07031	0.238358
O	14.8094	0.940663	-0.157383
H	16.8404	0.441398	-0.32204
H	13.9957	0.506165	0.0723225
