15
  This energy is -0.00293693 and Call times are: 27196
C	1.07706	0.752168	1.35705
O	-0.0893865	0.393736	1.39569
O	1.83261	0.658233	0.252468
H	1.64816	1.18543	2.19149
H	1.26234	0.262608	-0.458052
C	-1.07699	-0.752378	-1.35699
O	0.0892694	-0.39339	-1.39579
O	-1.83256	-0.658389	-0.252421
H	-1.6479	-1.18625	-2.19124
H	-1.26244	-0.262308	0.457956
C	4.98446	-0.364878	-0.196407
O	4.45357	-0.62603	0.871181
O	4.98303	0.8803	-0.670793
H	5.46435	-1.15939	-0.766633
H	4.53253	1.46848	-0.0750848
