15
  This energy is -3.2886e-05 and Call times are: 16309
C	-1.43474	0.980429	-0.740064
O	-0.330301	1.36134	-0.385515
O	-1.82874	-0.298769	-0.649564
H	-2.22951	1.61008	-1.16672
H	-1.07161	-0.810164	-0.259955
C	1.43481	-0.980471	0.739851
O	0.330173	-1.36127	0.385865
O	1.82879	0.298737	0.649407
H	2.22983	-1.61023	1.1659
H	1.07149	0.810216	0.260258
C	12.3159	-0.12116	-0.208656
O	12.2108	-0.129554	1.00735
O	13.4658	0.218104	-0.79016
H	11.4595	-0.394225	-0.824101
H	14.1242	0.431509	-0.138392
