15
  This energy is 2.248e-06 and Call times are: 30379
C	0.788929	1.10023	-1.317
O	-0.389961	0.879946	-1.08839
O	1.78487	0.547555	-0.608183
H	1.18246	1.75774	-2.10629
H	1.36549	-0.0299318	0.0826071
C	-0.78893	-1.10005	1.31715
O	0.389962	-0.88024	1.08815
O	-1.78487	-0.547422	0.608291
H	-1.18248	-1.75704	2.10686
H	-1.36548	0.0296738	-0.0828119
C	5.69685	-0.340376	0.0420014
O	4.83325	-0.572266	-0.788786
O	5.70332	0.810078	0.714258
H	6.4702	-1.08292	0.235034
H	4.97621	1.36147	0.447678
