15
  This energy is -8.732e-06 and Call times are: 24050
C	1.16969	-1.06369	-1.03333
O	0.66432	0.0171613	-1.29203
O	0.951897	-1.71316	0.120151
H	1.84804	-1.6329	-1.68602
H	0.336523	-1.15049	0.659853
C	-1.16951	1.0638	1.03343
O	-0.66462	-0.0173315	1.29187
O	-0.951762	1.71324	-0.120079
H	-1.84734	1.63333	1.68638
H	-0.336784	1.15034	-0.659984
C	13.5356	-0.280425	-0.120431
O	13.8109	0.382152	0.866974
O	12.3571	-0.141347	-0.726606
H	14.2621	-0.992906	-0.509345
H	11.8243	0.510125	-0.284451
