15
  This energy is -3.3438e-05 and Call times are: 31616
C	1.40618	1.24578	-0.195186
O	1.35399	0.0706482	-0.522174
O	0.387583	1.8824	0.402259
H	2.26362	1.91957	-0.339937
H	-0.349028	1.22374	0.502915
C	-1.40626	-1.24571	0.194981
O	-1.35386	-0.0707554	0.522511
O	-0.387645	-1.88235	-0.40241
H	-2.26394	-1.91933	0.339127
H	0.349141	-1.22383	-0.502618
C	10.0152	0.437493	-0.0845911
O	9.80839	0.137329	1.08027
O	10.443	-0.474446	-0.956896
H	9.84794	1.46249	-0.413376
H	10.5458	-1.32136	-0.537447
