15
  This energy is -3.076e-06 and Call times are: 6379
C	-0.104225	-1.64803	0.916806
O	-0.0590731	-1.42396	-0.282496
O	-0.0853628	-0.676202	1.84145
H	-0.164357	-2.64067	1.38714
H	-0.0307299	0.188048	1.35498
C	0.104455	1.64802	-0.916795
O	0.0586945	1.42398	0.282478
O	0.085533	0.676194	-1.84144
H	0.165256	2.64062	-1.38712
H	0.0304012	-0.188028	-1.35499
C	13.2242	-0.160142	0.0123748
O	12.9017	0.391924	1.05211
O	12.3697	-0.245275	-1.00653
H	14.2217	-0.587512	-0.0823161
H	11.5413	0.166884	-0.788329
