15
  This energy is -1.5883e-05 and Call times are: 47846
C	-1.84707	-0.278003	0.280072
O	-1.28003	0.44463	-0.524192
O	-1.18863	-1.04757	1.15984
H	-2.93551	-0.393482	0.3902
H	-0.218342	-0.898023	1.00904
C	1.84707	0.277827	-0.280222
O	1.28003	-0.444341	0.524439
O	1.18863	1.04744	-1.15995
H	2.93552	0.392813	-0.390803
H	0.218342	0.898267	-1.00882
C	27.974	-0.117937	-0.101673
O	28.0563	0.461442	0.969461
O	29.0609	-0.344357	-0.838469
H	27.0006	-0.453065	-0.458035
H	29.8371	-0.000895294	-0.410315
