15
  This energy is -4.474e-06 and Call times are: 24008
C	-0.953779	-1.6302	-0.0128501
O	-0.979494	-0.717659	0.797819
O	-0.179214	-1.61108	-1.10805
H	-1.5403	-2.55932	0.0408948
H	0.320272	-0.752623	-1.09694
C	0.953609	1.63029	0.0127284
O	0.979773	0.717498	-0.797619
O	0.179089	1.61115	1.10796
H	1.53963	2.55971	-0.0413518
H	-0.320026	0.752482	1.0971
C	11.7107	-0.185302	-0.0523312
O	11.1568	-0.555781	0.970306
O	11.1124	0.672406	-0.878104
H	12.705	-0.560726	-0.291364
H	10.2545	0.916158	-0.54885
