15
  This energy is 8.1928e-05 and Call times are: 35401
C	0.165592	-1.80781	0.52135
O	0.476647	-1.26687	-0.52803
O	-0.387196	-1.14428	1.54796
H	0.291002	-2.87413	0.760918
H	-0.472442	-0.194724	1.26932
C	-0.165384	1.80785	-0.521261
O	-0.47699	1.2668	0.527884
O	0.38735	1.14431	-1.54789
H	-0.290179	2.8743	-0.760593
H	0.47214	0.194666	-1.26944
C	8.38836	0.159462	0.288431
O	7.96458	0.0627486	-0.852114
O	9.64204	-0.184957	0.580299
H	7.73346	0.531568	1.07542
H	10.098	-0.490722	-0.195823
