15
  This energy is 1.0123e-05 and Call times are: 16393
C	-0.328151	-0.0876639	1.85797
O	0.6478	-0.450018	1.22016
O	-1.40466	0.474026	1.28752
H	-0.454726	-0.168723	2.94772
H	-1.22773	0.51785	0.311129
C	0.328242	0.0878738	-1.85794
O	-0.64795	0.449672	-1.22021
O	1.40473	-0.47387	-1.2875
H	0.455102	0.169535	-2.94761
H	1.22759	-0.518146	-0.311172
C	16.31	-0.0181006	-0.411458
O	15.4834	0.068041	0.482524
O	17.6127	-0.0502175	-0.13331
H	15.9776	-0.069208	-1.44763
H	17.7595	0.0018576	0.804513
