15
  This energy is -1.7625e-05 and Call times are: 39992
C	-1.07128	-1.53311	-0.263337
O	0.107107	-1.44828	0.0445445
O	-1.84759	-0.460526	-0.479372
H	-1.6379	-2.46593	-0.400945
H	-1.2803	0.342795	-0.340019
C	1.07121	1.53311	0.263559
O	-0.107004	1.44827	-0.0449097
O	1.84754	0.460528	0.479536
H	1.63768	2.46593	0.401817
H	1.28038	-0.342793	0.3397
C	32.7627	-0.271791	0.0187687
O	33.0032	0.792569	-0.528114
O	31.5431	-0.536982	0.485576
H	33.5546	-1.01215	0.12575
H	30.9541	0.191967	0.325883
