15
  This energy is -2.7349e-05 and Call times are: 46964
C	-0.59161	-0.0966488	-1.79111
O	0.544612	-0.0741955	-1.34494
O	-1.6823	-0.0519994	-1.01125
H	-0.867504	-0.154435	-2.85445
H	-1.36648	-0.0010796	-0.0709202
C	0.591606	0.0964186	1.79112
O	-0.544604	0.0745744	1.34492
O	1.6823	0.0518291	1.01126
H	0.867509	0.153535	2.8545
H	1.36647	0.00140882	0.070907
C	36.9523	0.000886544	0.0334642
O	36.4422	0.977445	0.558697
O	36.1987	-0.926754	-0.555662
H	38.0357	-0.112335	0.0471829
H	35.2769	-0.70273	-0.493798
