15
  This energy is -2.2081e-05 and Call times are: 23083
C	1.43909	1.17448	-0.342088
O	0.533808	0.814752	-1.07805
O	1.55824	0.7544	0.926418
H	2.25164	1.86686	-0.607658
H	0.799923	0.137289	1.10162
C	-1.43921	-1.1743	0.342162
O	-0.533602	-0.815046	1.07793
O	-1.55833	-0.754268	-0.926362
H	-2.25214	-1.86617	0.607928
H	-0.799741	-0.137546	-1.10172
C	16.1921	0.113921	0.312939
O	16.2976	-1.0946	0.178236
O	16.9342	0.947384	-0.41517
H	15.4831	0.514198	1.03668
H	17.5059	0.465722	-1.00248
