15
  This energy is -2.5075e-05 and Call times are: 7723
C	0.080419	1.75897	-0.683347
O	-0.873144	1.13514	-0.245026
O	1.31819	1.24612	-0.751683
H	0.0570939	2.7892	-1.06836
H	1.271	0.321602	-0.391676
C	-0.0803705	-1.75889	0.683557
O	0.873064	-1.13527	0.24468
O	-1.31816	-1.24606	0.751838
H	-0.0569259	-2.78889	1.06918
H	-1.27106	-0.32172	0.391374
C	13.4523	0.18949	-0.329384
O	13.361	0.789946	0.729341
O	14.2161	-0.897556	-0.431748
H	12.9029	0.547253	-1.19935
H	14.6352	-1.09562	0.39826
