15
  This energy is -1.972e-05 and Call times are: 6715
C	-0.26995	1.61498	0.941473
O	0.164424	0.544679	1.33688
O	-0.653317	1.82251	-0.327281
H	-0.401982	2.52296	1.54834
H	-0.509825	0.971049	-0.818187
C	0.270162	-1.61491	-0.941528
O	-0.164774	-0.544795	-1.33679
O	0.653473	-1.82246	0.327239
H	0.40282	-2.5227	-1.54855
H	0.509518	-0.971147	0.818259
C	23.8794	-0.275034	-0.339934
O	25.0336	0.11008	-0.436342
O	23.1156	0.112178	0.680952
H	23.4705	-0.942581	-1.09747
H	23.5966	0.689968	1.26286
