15
  This energy is -1.4609e-05 and Call times are: 41546
C	-0.155986	1.09626	1.53013
O	-0.681851	1.20738	0.433913
O	0.6822	0.0952702	1.83875
H	-0.291838	1.77621	2.38416
H	0.761254	-0.478137	1.03158
C	0.15581	-1.09638	-1.53005
O	0.682141	-1.20717	-0.434039
O	-0.68233	-0.0953651	-1.83869
H	0.291137	-1.7767	-2.38388
H	-0.760997	0.478314	-1.03169
C	31.4952	-0.00986244	-0.443374
O	32.1945	-0.773709	0.20263
O	30.5724	0.740794	0.156989
H	31.628	0.057959	-1.52248
H	30.5647	0.581859	1.09425
