15
  This energy is 0.000543727 and Call times are: 20089
C	1.75155	0.700733	0.0918687
O	1.29933	-0.332872	0.558481
O	1.01051	1.5671	-0.615258
H	2.79029	1.05116	0.183465
H	0.0908011	1.19476	-0.660744
C	-1.7515	-0.700841	-0.0920646
O	-1.29942	0.333049	-0.558158
O	-1.01046	-1.56718	0.615112
H	-2.79007	-1.0516	-0.18422
H	-0.090884	-1.1946	0.66102
C	8.62292	-0.0263708	-0.161815
O	8.09608	-1.1215	-0.0481372
O	7.96559	1.08329	0.172966
H	9.64169	0.0431983	-0.541243
H	7.09222	0.877171	0.486823
