15
  This energy is -0.00247143 and Call times are: 26278
C	-0.233644	-0.379858	1.83535
O	-1.06465	-0.110372	0.982492
O	1.08055	-0.45254	1.57578
H	-0.440131	-0.592328	2.89478
H	1.19854	-0.252005	0.610158
C	0.233625	0.379633	-1.8354
O	1.06468	0.110742	-0.982415
O	-1.08057	0.452373	-1.57582
H	0.440037	0.591453	-2.89497
H	-1.1985	0.252326	-0.610091
C	4.22612	0.221653	-0.35549
O	4.99215	-0.668538	-0.687963
O	3.97584	0.458934	0.931589
H	3.74242	0.828054	-1.12036
H	4.46185	-0.140668	1.48661
