15
  This energy is -3.1381e-05 and Call times are: 41294
C	-1.29302	-1.03243	0.910823
O	-0.173121	-1.33999	0.534244
O	-1.81795	0.187018	0.718027
H	-1.99978	-1.68831	1.44041
H	-1.13496	0.726009	0.238884
C	1.2931	1.0325	-0.91062
O	0.172984	1.33987	-0.534578
O	1.81801	-0.186965	-0.717877
H	2.00012	1.68858	-1.43962
H	1.13484	-0.726103	-0.239175
C	36.2476	0.0545542	0.376108
O	35.5509	1.02592	0.12931
O	36.2306	-1.01492	-0.418534
H	36.8899	0.0633383	1.25596
H	35.6296	-0.887479	-1.14401
