15
  This energy is -0.000117167 and Call times are: 20131
C	-0.250168	-0.302445	1.84752
O	-0.541112	-1.00855	0.894979
O	0.340109	0.894889	1.71434
H	-0.425349	-0.541664	2.90688
H	0.469413	1.04963	0.74177
C	0.250376	0.302347	-1.84751
O	0.540769	1.00871	-0.895003
O	-0.339955	-0.894961	-1.71433
H	0.426155	0.541264	-2.90684
H	-0.469707	-1.04948	-0.741789
C	5.99891	0.281097	-0.341326
O	5.88623	-0.893546	-0.653269
O	6.3821	0.625325	0.88757
H	5.78353	1.05552	-1.07657
H	6.53575	-0.145641	1.42216
