15
  This energy is -7.7983e-05 and Call times are: 28038
C	0.614691	-1.78591	0.00959233
O	0.157506	-1.12312	-0.908159
O	0.761305	-1.30553	1.25358
H	0.956721	-2.82949	-0.0545179
H	0.436809	-0.366826	1.24375
C	-0.614477	1.78598	-0.00964191
O	-0.157858	1.123	0.90824
O	-0.761147	1.30558	-1.25362
H	-0.955893	2.82977	0.0543033
H	-0.437113	0.366726	-1.24367
C	4.08541	0.117941	0.141213
O	4.62829	-0.674979	0.893771
O	4.70477	0.546664	-0.957926
H	3.08357	0.478275	0.371829
H	5.56705	0.153868	-1.03505
