15
  This energy is -2.1649e-05 and Call times are: 7429
C	0.971285	1.6143	0.13437
O	0.650545	0.976956	-0.856334
O	0.656107	1.23194	1.38106
H	1.54168	2.55491	0.141198
H	0.145919	0.383081	1.30547
C	-0.971481	-1.61418	-0.134379
O	-0.650222	-0.977155	0.856349
O	-0.656251	-1.23185	-1.38107
H	-1.54245	-2.55445	-0.141256
H	-0.14564	-0.383255	-1.30544
C	20.2094	-0.172615	-0.373651
O	21.3911	-0.461748	-0.274615
O	19.611	0.573331	0.554266
H	19.6389	-0.528942	-1.23051
H	20.2228	0.813328	1.24125
