15
  This energy is -1.5831e-05 and Call times are: 37808
C	-0.158351	-0.321326	-1.85448
O	-0.651794	0.561637	-1.17076
O	0.636903	-1.2764	-1.34931
H	-0.292735	-0.450758	-2.93861
H	0.717072	-1.10356	-0.374498
C	0.158537	0.321456	1.85443
O	0.651488	-0.56185	1.17083
O	-0.636764	1.27649	1.34928
H	0.293451	0.451283	2.93846
H	-0.717332	1.10337	0.374557
C	25.7165	0.324822	0.00811252
O	24.5915	0.771218	-0.149804
O	25.9169	-0.986328	0.135543
H	26.5651	1.00687	0.0450944
H	25.0945	-1.46052	0.0846469
