15
  This energy is -0.00623252 and Call times are: 8857
C	-1.24344	0.206295	-1.40667
O	-0.231841	-0.475174	-1.3533
O	-1.6588	0.975852	-0.389305
H	-1.92833	0.280548	-2.26432
H	-1.00218	0.864359	0.347567
C	1.24331	-0.206468	1.40675
O	0.23205	0.47546	1.35316
O	1.65871	-0.97598	0.389367
H	1.92785	-0.281241	2.26464
H	1.00236	-0.864105	-0.347681
C	5.43473	0.292746	0.0894258
O	5.08799	0.321303	-1.08051
O	4.84792	-0.534821	0.953318
H	6.23277	0.951547	0.429745
H	4.1729	-1.04853	0.524105
