15
  This energy is -0.00644187 and Call times are: 2508
C	-1.28305	1.38032	0.126142
O	-1.25329	0.407867	-0.611438
O	-0.328992	1.6366	1.03382
H	-2.06701	2.15176	0.147424
H	0.343179	0.908702	0.963731
C	1.28293	-1.38044	-0.125983
O	1.25349	-0.407671	0.611175
O	0.328907	-1.63669	-1.0337
H	2.06655	-2.15224	-0.146816
H	-0.343008	-0.908528	-0.963952
C	4.36071	-0.00547969	0.30098
O	4.42872	-1.03786	-0.346591
O	5.22407	0.987612	0.0914771
H	3.58522	0.103941	1.05818
H	5.84282	0.758851	-0.593061
