15
  This energy is -3.2094e-05 and Call times are: 38144
C	1.64817	0.317983	-0.865931
O	1.08366	-0.737732	-0.626419
O	1.14061	1.51096	-0.521038
H	2.6148	0.432382	-1.37846
H	0.274582	1.33885	-0.0661281
C	-1.64827	-0.317966	0.865728
O	-1.08348	0.737705	0.626754
O	-1.14068	-1.51095	0.520888
H	-2.61523	-0.432342	1.37767
H	-0.27443	-1.33886	0.0664201
C	20.5776	0.40078	0.211217
O	21.7108	-0.0520609	0.185347
O	19.5652	-0.266118	-0.341845
H	20.3933	1.36075	0.69203
H	19.8668	-1.08305	-0.723229
