15
  This energy is 5.8361e-05 and Call times are: 34054
C	1.21415	-1.43499	-0.184509
O	1.03554	-0.466491	-0.906088
O	0.516388	-1.64351	0.942179
H	1.9446	-2.24023	-0.352381
H	-0.120521	-0.886993	1.03489
C	-1.21399	1.43511	0.184632
O	-1.0358	0.466302	0.905887
O	-0.516271	1.64359	-0.942088
H	-1.94398	2.2407	0.352842
H	0.120292	0.886826	-1.03506
C	7.3572	-0.378927	-0.193502
O	8.01319	-0.0433628	0.779563
O	6.30584	0.339324	-0.586278
H	7.63536	-1.27563	-0.746005
H	6.17799	1.09032	-0.0175649
