15
  This energy is 0.000396705 and Call times are: 21049
C	1.44773	-0.206846	1.19528
O	1.27063	0.627065	0.321326
O	0.567282	-1.18377	1.46026
H	2.32108	-0.269871	1.8612
H	-0.191728	-1.07115	0.82956
C	-1.44783	0.206979	-1.19513
O	-1.27045	-0.627285	-0.321581
O	-0.56736	1.18387	-1.46015
H	-2.32149	0.270411	-1.8606
H	0.191875	1.07095	-0.829778
C	6.74906	-0.338971	-0.297373
O	5.85855	0.434306	-0.611739
O	7.4586	-0.14468	0.813629
H	6.96511	-1.19694	-0.932917
H	7.16568	0.636426	1.26953
