15
  This energy is -0.00697552 and Call times are: 28888
C	0.730663	1.64573	-0.570183
O	0.664333	0.576769	-1.15627
O	0.255109	1.82761	0.671002
H	1.17301	2.57265	-0.964276
H	-0.127717	0.960057	0.966575
C	-0.730868	-1.64567	0.570099
O	-0.663996	-0.576874	1.15641
O	-0.25526	-1.82756	-0.671064
H	-1.17381	-2.57241	0.963929
H	0.128007	-0.960145	-0.966446
C	3.91718	0.0126088	0.177603
O	3.0456	0.163306	1.01869
O	3.60217	-0.164644	-1.10492
H	4.96365	0.0233487	0.480087
H	2.65935	-0.152245	-1.22627
