15
  This energy is -0.00152805 and Call times are: 27996
C	-1.12472	1.45995	-0.413459
O	-1.36485	0.262952	-0.423075
O	0.074536	1.96048	-0.0802308
H	-1.83217	2.26324	-0.667233
H	0.662323	1.18958	0.136063
C	1.12465	-1.45994	0.413679
O	1.36496	-0.262978	0.422711
O	-0.0745832	-1.96047	0.0803942
H	1.83191	-2.2632	0.668093
H	-0.662224	-1.1896	-0.136377
C	4.83697	-0.384892	-0.037971
O	4.74419	-0.00441597	1.11807
O	4.27688	0.30712	-1.0294
H	5.38393	-1.30039	-0.260264
H	3.83426	1.0791	-0.694846
