15
  This energy is 0.000160729 and Call times are: 11135
C	0.633852	0.0468458	1.77861
O	1.25177	0.118215	0.728055
O	-0.699911	-0.0871277	1.83249
H	1.06924	0.0812661	2.78826
H	-1.02857	-0.11147	0.895495
C	-0.633877	-0.0466167	-1.7786
O	-1.25172	-0.118592	-0.728063
O	0.699891	0.0872971	-1.83248
H	-1.06932	-0.0803693	-2.78826
H	1.0286	0.111141	-0.8955
C	8.55811	-0.411567	0.127355
O	7.67596	0.429302	0.19474
O	9.78188	-0.0828005	-0.284738
H	8.34125	-1.44172	0.407472
H	9.83027	0.842944	-0.495526
