15
  This energy is -0.004841 and Call times are: 18709
C	0.396527	0.484055	-1.78209
O	1.11667	0.479613	-0.796223
O	-0.892814	0.115273	-1.74501
H	0.694407	0.780014	-2.79887
H	-1.09671	-0.138068	-0.8065
C	-0.396468	-0.484273	1.78205
O	-1.11677	-0.479255	0.796303
O	0.892856	-0.115435	1.74498
H	-0.694162	-0.780862	2.79869
H	1.09662	0.138377	0.806568
C	4.45094	-0.200106	0.206252
O	3.61656	0.211814	0.996145
O	4.28181	-0.0431804	-1.10611
H	5.34318	-0.701336	0.579577
H	3.46532	0.407632	-1.29021
