15
  This energy is -0.00011085 and Call times are: 13990
C	0.525627	-0.429371	1.7626
O	0.941129	0.441781	1.01492
O	-0.448058	-1.28461	1.4158
H	0.879123	-0.625881	2.78563
H	-0.720999	-1.05527	0.488723
C	-0.525786	0.429514	-1.76252
O	-0.940866	-0.442016	-1.01506
O	0.447939	1.28472	-1.41573
H	-0.879735	0.626458	-2.7853
H	0.721221	1.05506	-0.488845
C	4.54298	-0.108682	0.436665
O	5.45189	-0.733288	-0.0863498
O	3.83778	0.780275	-0.261875
H	4.30676	-0.280815	1.48608
H	4.1491	0.829148	-1.1588
