15
  This energy is -7.2382e-05 and Call times are: 28332
C	-0.571865	-0.53991	1.71723
O	-1.10428	0.215372	0.919318
O	0.597479	-1.15099	1.47435
H	-0.962931	-0.813371	2.70841
H	0.894237	-0.864109	0.570916
C	0.571755	0.539729	-1.71732
O	1.10446	-0.215074	-0.919168
O	-0.59756	1.15086	-1.47442
H	0.962485	0.812679	-2.70878
H	-0.894071	0.864362	-0.570786
C	8.45032	-0.0868965	-0.368573
O	8.87234	1.05821	-0.348374
O	8.73324	-0.934185	0.62015
H	7.83575	-0.418565	-1.20464
H	9.27451	-0.515202	1.27989
