15
  This energy is -2.6808e-05 and Call times are: 46460
C	-0.509199	-1.46529	1.07751
O	0.454938	-1.33743	0.339501
O	-1.42932	-0.504064	1.24838
H	-0.747562	-2.35318	1.68166
H	-1.15766	0.2639	0.680049
C	0.509318	1.46538	-1.07734
O	-0.455134	1.33729	-0.339793
O	1.42941	0.504128	-1.24824
H	0.748047	2.35351	-1.68098
H	1.15748	-0.264019	-0.6803
C	41.9039	0.275356	-0.193842
O	42.3848	-0.391227	0.708489
O	40.6173	0.153934	-0.518674
H	42.5345	0.976846	-0.738767
H	40.1883	-0.48946	0.034298
