15
  This energy is -1.1881e-05 and Call times are: 49022
C	0.284965	-1.78843	0.536408
O	1.0932	-0.933844	0.20928
O	-1.03795	-1.5676	0.566354
H	0.521153	-2.81894	0.840394
H	-1.18293	-0.626559	0.283535
C	-0.284952	1.78849	-0.536187
O	-1.09323	0.933735	-0.209643
O	1.03796	1.56765	-0.566191
H	-0.521081	2.81921	-0.839537
H	1.1829	0.626464	-0.28385
C	42.432	0.0109694	-0.448324
O	41.6509	0.723888	0.161181
O	43.3579	-0.694464	0.200155
H	42.3703	-0.048339	-1.53432
H	43.2984	-0.549261	1.13778
