15
  This energy is -0.000262805 and Call times are: 15492
C	-0.582836	-0.279321	1.77474
O	0.32448	0.420014	1.3525
O	-1.36799	-1.01664	0.974944
H	-0.870973	-0.396953	2.82986
H	-1.05785	-0.86681	0.0433182
C	0.582686	0.279496	-1.77475
O	-0.324234	-0.420301	-1.35247
O	1.36788	1.01677	-0.974958
H	0.870408	0.39765	-2.82994
H	1.05806	0.866555	-0.0432943
C	6.59418	-0.162688	0.376254
O	6.06398	0.922142	0.554639
O	6.56553	-0.745614	-0.821616
H	7.09595	-0.658679	1.20626
H	6.09792	-0.205851	-1.44913
