15
  This energy is -0.00324045 and Call times are: 13561
C	-1.36946	0.523978	-1.19056
O	-1.41483	-0.233363	-0.234031
O	-0.246103	1.15021	-1.57223
H	-2.212	0.787519	-1.84693
H	0.470871	0.871666	-0.943804
C	1.36941	-0.523798	1.1907
O	1.41491	0.233067	0.233809
O	0.246065	-1.15008	1.57233
H	2.21179	-0.786831	1.84747
H	-0.470792	-0.871918	0.943608
C	4.6193	0.405087	-0.203152
O	4.46799	0.493914	1.00474
O	4.70988	-0.786777	-0.792023
H	4.68081	1.31089	-0.805192
H	4.64063	-1.48623	-0.15191
