15
  This energy is -1.2904e-05 and Call times are: 46376
C	-0.862103	1.44674	-0.855064
O	0.32466	1.26774	-0.631173
O	-1.81209	0.569643	-0.497293
H	-1.29984	2.31934	-1.36213
H	-1.35436	-0.188858	-0.0481568
C	0.862121	-1.44684	0.85486
O	-0.32469	-1.26757	0.631508
O	1.8121	-0.569722	0.497143
H	1.29993	-2.31975	1.36133
H	1.35433	0.189006	0.0484493
C	41.3638	0.0151341	0.304117
O	42.4613	-0.102835	0.825058
O	41.2433	0.0855169	-1.02104
H	40.4739	0.0632848	0.930541
H	42.0944	0.03137	-1.44121
