15
  This energy is -1.4791e-05 and Call times are: 6925
C	-0.203276	-1.04557	1.55977
O	-0.0273437	-1.39552	0.403413
O	-0.285958	0.241962	1.92747
H	-0.314132	-1.71281	2.42733
H	-0.17876	0.787661	1.1045
C	0.203503	1.04557	-1.55973
O	0.0269693	1.39551	-0.403474
O	0.286126	-0.241956	-1.92745
H	0.315024	1.71282	-2.4272
H	0.178434	-0.787663	-1.10455
C	25.6967	0.36004	0.193403
O	25.3979	0.56014	-0.97299
O	25.4418	-0.814066	0.769614
H	26.177	1.15081	0.768493
H	25.0231	-1.40775	0.156418
