15
  This energy is 0.000458885 and Call times are: 4997
C	-1.21854	-1.4257	0.223466
O	-0.605617	-0.784538	1.0624
O	-1.10954	-1.19515	-1.09363
H	-1.91861	-2.25015	0.424307
H	-0.468019	-0.445256	-1.20623
C	1.21836	1.42585	-0.223457
O	0.605906	0.784293	-1.06241
O	1.1094	1.19526	1.09363
H	1.91793	2.25074	-0.424253
H	0.46827	0.445044	1.20621
C	7.54763	0.0732269	0.00190235
O	7.10882	-0.172794	1.11398
O	6.73933	0.106075	-1.05691
H	8.61192	0.267891	-0.125012
H	5.84237	-0.0809126	-0.803382
