15
  This energy is -5.91e-06 and Call times are: 6799
C	-1.71245	0.234087	0.761653
O	-0.681563	0.859709	0.95254
O	-1.79071	-0.800598	-0.0886858
H	-2.68314	0.425347	1.24263
H	-0.888425	-0.919998	-0.486408
C	1.71239	-0.233945	-0.761824
O	0.681661	-0.859942	-0.952257
O	1.79067	0.800702	0.0885584
H	2.68293	-0.424777	-1.24329
H	0.888507	0.919788	0.486648
C	28.1556	-0.249966	-0.129754
O	27.8225	-0.472777	1.02316
O	27.4988	0.644661	-0.867243
H	28.9991	-0.78908	-0.559285
H	26.79	1.03746	-0.370285
