15
  This energy is -1.9511e-05 and Call times are: 37682
C	-1.0863	-1.45893	-0.508802
O	-0.215303	-1.395	0.344337
O	-1.4317	-0.415423	-1.27794
H	-1.68568	-2.34782	-0.755337
H	-0.858088	0.34889	-1.0071
C	1.08614	1.45899	0.508955
O	0.215567	1.3949	-0.344589
O	1.43158	0.41547	1.27805
H	1.68506	2.34806	0.755952
H	0.858313	-0.348975	1.00687
C	23.4315	-0.112691	0.347776
O	23.4213	-0.948696	-0.541484
O	24.1753	0.987514	0.239292
H	22.8254	-0.268947	1.23935
H	24.6502	0.994671	-0.584254
