15
  This energy is -5.411e-05 and Call times are: 34390
C	-0.416239	1.6783	0.759905
O	-0.759607	1.19929	-0.309308
O	0.374839	1.03078	1.62864
H	-0.697645	2.66993	1.14414
H	0.591155	0.149419	1.22495
C	0.416055	-1.67839	-0.7598
O	0.75991	-1.19914	0.309135
O	-0.374975	-1.03085	-1.62856
H	0.696914	-2.67029	-1.14375
H	-0.590887	-0.149292	-1.22509
C	6.99972	-0.0766582	-0.435797
O	5.9451	-0.590898	-0.0994473
O	7.72621	0.620167	0.437221
H	7.34971	-0.189378	-1.46123
H	7.30534	0.637619	1.28948
