15
  This energy is 4.31e-07 and Call times are: 51542
C	1.4359	0.11016	-1.22207
O	0.332792	-0.395065	-1.35799
O	1.82719	0.713338	-0.0894459
H	2.23148	0.139405	-1.98125
H	1.06946	0.652815	0.549886
C	-1.43598	-0.109957	1.22199
O	-0.332662	0.394731	1.35812
O	-1.82725	-0.713188	0.0893892
H	-2.23181	-0.138625	1.98094
H	-1.06934	-0.6531	-0.549769
C	12.5571	-0.25839	-0.146191
O	12.7059	-0.318739	1.06377
O	13.3538	0.505352	-0.89278
H	11.7638	-0.835732	-0.619632
H	13.9977	0.950659	-0.353429
