15
  This energy is -1.9907e-05 and Call times are: 44738
C	-0.519698	-1.34059	-1.2248
O	-1.20278	-0.66461	-0.471789
O	0.814508	-1.22348	-1.30198
H	-0.890171	-2.11022	-1.91803
H	1.08308	-0.517987	-0.656445
C	0.519677	1.34075	1.22464
O	1.20281	0.66435	0.472064
O	-0.814523	1.2236	1.30185
H	0.890072	2.11085	1.91739
H	-1.08304	0.517762	0.656682
C	53.6446	0.438729	0.106158
O	52.5109	0.155238	-0.246328
O	54.5967	-0.492386	0.149824
H	53.8792	1.46455	0.387869
H	54.2556	-1.33764	-0.120279
