15
  This energy is -0.000530517 and Call times are: 18244
C	-0.627188	1.03432	1.45059
O	-0.765123	1.20952	0.250237
O	0.0472953	-0.00602929	1.96296
H	-1.02219	1.68121	2.24788
H	0.375176	-0.546666	1.19695
C	0.626995	-1.03445	-1.45058
O	0.765441	-1.20931	-0.250251
O	-0.0474381	0.00593634	-1.96295
H	1.02143	-1.68169	-2.24786
H	-0.374896	0.546838	-1.19696
C	4.54662	-0.0260889	0.450427
O	5.47091	-0.55367	-0.147183
O	3.54344	0.545094	-0.215072
H	4.54302	-0.0228502	1.53978
H	3.6741	0.469587	-1.15369
