15
  This energy is -0.00115653 and Call times are: 2760
C	0.725708	-1.69335	0.41633
O	-0.4367	-1.36504	0.238577
O	1.74814	-0.828466	0.336358
H	1.08179	-2.70585	0.657583
H	1.36193	0.0600948	0.117574
C	-0.725682	1.6933	-0.416554
O	0.436658	1.36512	-0.238208
O	-1.74812	0.828431	-0.336524
H	-1.08171	2.70566	-0.658461
H	-1.36196	-0.0600241	-0.117254
C	6.9023	0.25306	0.376423
O	7.1774	-0.915591	0.596341
O	6.63537	0.668278	-0.861259
H	6.87503	0.963356	1.20192
H	6.69485	-0.0514695	-1.47948
