15
  This energy is -0.000841666 and Call times are: 14284
C	1.00303	1.54524	0.416604
O	-0.206879	1.38389	0.391179
O	1.87532	0.567681	0.128032
H	1.52538	2.47959	0.670179
H	1.34364	-0.242347	-0.0904534
C	-1.00303	-1.5453	-0.416382
O	0.206866	-1.38378	-0.391544
O	-1.87531	-0.567728	-0.127868
H	-1.52538	-2.47983	-0.66931
H	-1.34365	0.242431	0.0901348
C	5.36851	-0.138185	-0.277049
O	5.21098	1.01031	0.104975
O	6.42422	-0.848428	0.118601
H	4.63728	-0.586266	-0.948791
H	6.977	-0.337505	0.699261
