15
  This energy is 3.773e-05 and Call times are: 34600
C	-0.379769	-0.310164	-1.824
O	-1.0792	-0.490954	-0.839786
O	0.868378	0.176407	-1.75222
H	-0.665831	-0.513702	-2.86654
H	1.06363	0.337707	-0.791792
C	0.379689	0.310379	1.82398
O	1.07934	0.490599	0.839823
O	-0.868436	-0.176248	1.7522
H	0.665502	0.514537	2.86647
H	-1.06351	-0.338012	0.791822
C	6.66066	0.215807	-0.31919
O	6.02032	0.035321	0.704128
O	7.92181	-0.203319	-0.415884
H	6.19484	0.725243	-1.16192
H	8.19927	-0.628571	0.387829
