15
  This energy is -0.00449729 and Call times are: 20792
C	-0.74895	1.72781	0.145418
O	-1.30146	0.64516	0.0306342
O	0.58488	1.86486	0.188862
H	-1.24991	2.70387	0.226047
H	0.974182	0.954323	0.111915
C	0.748947	-1.72783	-0.145188
O	1.30146	-0.64513	-0.0310125
O	-0.584881	-1.86488	-0.188692
H	1.24988	-2.70396	-0.225151
H	-0.974169	-0.954295	-0.112243
C	4.66447	0.316139	0.189338
O	4.76704	-0.769584	0.737497
O	3.84409	0.4803	-0.847745
H	5.25059	1.15933	0.552931
H	3.39773	-0.332404	-1.05763
