15
  This energy is -0.0018939 and Call times are: 1626
C	-1.18913	-1.17491	-0.879181
O	-1.42566	-0.176529	-0.217468
O	0.0550063	-1.62576	-1.0997
H	-1.93568	-1.81851	-1.36765
H	0.676481	-1.0053	-0.635634
C	1.18914	1.17504	0.878988
O	1.42564	0.176322	0.217785
O	-0.054995	1.62585	1.09956
H	1.93572	1.81902	1.3669
H	-0.676494	1.00512	0.635907
C	4.57284	-0.192561	-0.409783
O	4.7153	1.01817	-0.47002
O	4.51214	-0.813081	0.767835
H	4.4946	-0.770977	-1.32958
H	4.59332	-0.191139	1.48224
