15
  This energy is -2.0641e-05 and Call times are: 46544
C	0.574324	-0.683612	-1.6644
O	1.23154	-0.274022	-0.72054
O	-0.766931	-0.711913	-1.66147
H	0.976272	-1.07149	-2.6121
H	-1.06423	-0.351575	-0.784921
C	-0.574322	0.683398	1.66449
O	-1.23154	0.274374	0.720398
O	0.766931	0.711755	1.66153
H	-0.976246	1.07066	2.61245
H	1.06422	0.35188	0.784796
C	41.794	0.338485	-0.0689717
O	42.17	-0.43978	0.792811
O	40.6338	0.150248	-0.696843
H	42.4145	1.19595	-0.326665
H	40.1983	-0.631148	-0.375175
