15
  This energy is -0.00231797 and Call times are: 19067
C	-0.519225	-1.21765	-1.34727
O	0.598164	-0.884266	-0.985511
O	-1.64034	-0.7282	-0.796537
H	-0.752204	-1.93848	-2.14494
H	-1.36253	-0.0886262	-0.0892009
C	0.519222	1.21748	1.34742
O	-0.598159	0.884549	0.985258
O	1.64034	0.728073	0.796651
H	0.752215	1.93781	2.14554
H	1.36252	0.088874	0.0889838
C	4.81774	-0.00425757	0.355038
O	5.76962	-0.753458	0.504769
O	4.68774	0.717196	-0.75767
H	4.06698	0.0745119	1.14044
H	5.40931	0.551688	-1.3541
