15
  This energy is -0.000422408 and Call times are: 27450
C	-1.45119	0.890224	0.817899
O	-0.896884	1.11623	-0.24617
O	-1.08198	-0.107688	1.63499
H	-2.29823	1.45268	1.2378
H	-0.318963	-0.57258	1.20113
C	1.45104	-0.890367	-0.818002
O	0.897129	-1.11599	0.246339
O	1.08187	0.107582	-1.63506
H	2.29766	-1.45323	-1.23822
H	0.319177	0.572778	-1.20097
C	4.82473	0.20686	0.14873
O	5.6895	0.132258	1.00687
O	5.0316	-0.288117	-1.07099
H	3.87386	0.683564	0.383894
H	5.89835	-0.673006	-1.13709
