15
  This energy is -1.7503e-05 and Call times are: 45284
C	-1.16093	-1.10262	1.00194
O	0.00501941	-0.805591	1.20911
O	-1.85078	-0.653291	-0.0572901
H	-1.78344	-1.7553	1.63174
H	-1.2366	-0.0744415	-0.581002
C	1.16085	1.1028	-1.00182
O	-0.00490014	0.805291	-1.20931
O	1.85073	0.653426	0.0573791
H	1.78318	1.75601	-1.63125
H	1.2367	0.0741827	0.580823
C	55.1858	0.390449	-0.0861321
O	56.3509	0.405523	-0.449711
O	54.6677	-0.691512	0.493859
H	54.5639	1.27184	-0.238056
H	55.3175	-1.38199	0.562948
