15
  This energy is -1.5692e-05 and Call times are: 42134
C	-1.39512	0.83321	-0.962704
O	-0.363856	1.30904	-0.514766
O	-1.7201	-0.461296	-0.827001
H	-2.17116	1.37988	-1.51864
H	-0.984128	-0.895086	-0.320314
C	1.39523	-0.83326	0.962505
O	0.363683	-1.30896	0.515094
O	1.72018	0.461259	0.826853
H	2.17159	-1.38006	1.51786
H	0.983974	0.89515	0.320599
C	38.3042	-0.261905	0.308975
O	37.4158	0.423373	0.789639
O	38.5875	-0.194976	-0.991308
H	38.8708	-0.935175	0.951139
H	38.0195	0.428824	-1.42942
