15
  This energy is -1.9357e-05 and Call times are: 50366
C	-1.3322	0.688225	-1.14847
O	-0.610902	-0.287079	-1.2866
O	-1.2829	1.48483	-0.0701541
H	-2.09364	1.03541	-1.8625
H	-0.581301	1.11936	0.530474
C	1.33204	-0.688353	1.14858
O	0.611166	0.28729	1.28643
O	1.28278	-1.48492	0.0702325
H	2.09302	-1.03593	1.8629
H	0.581529	-1.11917	-0.530618
C	31.2966	0.0727397	-0.194304
O	32.1023	0.954995	-0.443828
O	31.6363	-0.962037	0.573424
H	30.2892	0.133172	-0.604363
H	32.5393	-0.887506	0.861119
