15
  This energy is -0.00245969 and Call times are: 36542
C	-0.258628	1.86778	0.109162
O	0.748185	1.23436	-0.165936
O	-1.43087	1.28378	0.399993
H	-0.340444	2.96385	0.154809
H	-1.29006	0.302296	0.341554
C	0.258566	-1.86777	-0.109384
O	-0.748084	-1.23437	0.166302
O	1.43082	-1.28378	-0.400157
H	0.340225	-2.96383	-0.155682
H	1.29014	-0.302307	-0.341234
C	4.34635	-0.428797	0.0213232
O	3.86168	-0.0466867	1.07436
O	4.40535	0.381724	-1.03465
H	4.73457	-1.44379	-0.0546956
H	4.03327	1.23211	-0.829286
