15
  This energy is -1.815e-05 and Call times are: 48140
C	1.14498	0.885288	1.21354
O	1.28734	0.673304	0.0196561
O	0.0636054	0.487862	1.9009
H	1.85719	1.41177	1.86602
H	-0.535172	0.0229628	1.25911
C	-1.14508	-0.885087	-1.21359
O	-1.28716	-0.673634	-0.0195841
O	-0.0636835	-0.487714	-1.90093
H	-1.85759	-1.41099	-1.86622
H	0.535316	-0.0232512	-1.25904
C	33.5511	0.0645362	-0.00811637
O	34.0274	-0.0532601	-1.12574
O	34.3274	-0.00033428	1.07295
H	32.4795	0.224413	0.105397
H	35.2352	-0.142254	0.82918
