15
  This energy is -1.5557e-05 and Call times are: 7555
C	-0.327151	-0.88702	-1.63511
O	-1.11251	-0.362686	-0.861246
O	0.997205	-0.914755	-1.42277
H	-0.587393	-1.39027	-2.57806
H	1.16436	-0.447623	-0.562301
C	0.327176	0.887218	1.63499
O	1.11247	0.36236	0.861435
O	-0.997185	0.914902	1.42269
H	0.587473	1.39106	2.57762
H	-1.16439	0.447339	0.562465
C	17.8378	0.363871	-0.0677048
O	18.8436	0.376542	-0.759019
O	17.6018	-0.643136	0.772402
H	17.126	1.18543	-0.139277
H	18.3002	-1.28693	0.733028
