15
  This energy is -0.00112496 and Call times are: 24705
C	-0.636642	0.648811	1.65564
O	-1.1543	0.689435	0.550669
O	0.562771	0.0908625	1.87896
H	-1.06626	1.04916	2.58586
H	0.893521	-0.248533	1.00605
C	0.636543	-0.649014	-1.65559
O	1.15446	-0.6891	-0.550741
O	-0.562844	-0.0910131	-1.87893
H	1.06585	-1.04995	-2.5857
H	-0.893371	0.248821	-1.00611
C	4.44845	-0.100344	-0.363859
O	5.23642	0.807476	-0.575431
O	4.38977	-0.686045	0.83156
H	3.78649	-0.434432	-1.16192
H	5.01889	-0.297982	1.42938
