15
  This energy is -2.4574e-05 and Call times are: 46250
C	0.0849773	1.69073	-0.837628
O	-0.827525	1.17538	-0.211264
O	1.26318	1.08283	-1.04275
H	0.0676185	2.68743	-1.30285
H	1.21379	0.194613	-0.600946
C	-0.0848923	-1.69063	0.837821
O	0.827385	-1.17554	0.210947
O	-1.26311	-1.08276	1.0429
H	-0.0673066	-2.68707	1.30362
H	-1.2139	-0.194749	0.600668
C	40.0535	-0.420187	0.162224
O	41.016	0.295347	0.389152
O	38.9953	0.0508965	-0.496374
H	40.0611	-1.45505	0.502386
H	39.1225	0.96301	-0.732271
