15
  This energy is -0.00283138 and Call times are: 25533
C	0.500208	1.65351	0.7636
O	0.420726	1.32867	-0.410594
O	0.221227	0.814753	1.77277
H	0.800343	2.6419	1.14197
H	-0.040968	-0.0529483	1.36668
C	-0.500428	-1.65345	-0.7636
O	-0.420364	-1.32878	0.410593
O	-0.22139	-0.814702	-1.77277
H	-0.801202	-2.64163	-1.14199
H	0.0412811	0.0528458	-1.36667
C	3.7603	0.16455	-0.420816
O	4.8583	0.382864	0.065509
O	2.82859	-0.492247	0.269146
H	3.54093	0.510992	-1.43006
H	3.15281	-0.734276	1.12942
