15
  This energy is -0.00285449 and Call times are: 26003
C	-1.14367	0.532981	1.40548
O	-1.13354	0.87812	0.234431
O	-0.270839	-0.350442	1.91293
H	-1.84376	0.885605	2.17728
H	0.328258	-0.627595	1.17075
C	1.14352	-0.533155	-1.40552
O	1.13377	-0.877834	-0.234352
O	0.270733	0.350313	-1.91297
H	1.84319	-0.886273	-2.17749
H	-0.328047	0.627838	-1.17068
C	4.29635	-0.403253	-0.179954
O	4.16497	0.512401	-0.976261
O	4.70425	-0.168073	1.06657
H	4.07742	-1.42343	-0.493038
H	4.85812	0.760173	1.20245
