15
  This energy is -0.00201022 and Call times are: 15727
C	-1.116	-0.896158	-1.23242
O	-1.39062	-0.391168	-0.155316
O	0.123481	-0.890436	-1.74567
H	-1.82072	-1.40648	-1.90554
H	0.706504	-0.418621	-1.09448
C	1.11596	0.896356	1.23231
O	1.39069	0.390841	0.155496
O	-0.123512	0.890583	1.74558
H	1.82054	1.40727	1.90514
H	-0.706435	0.418336	1.09464
C	4.90999	-0.24239	0.372672
O	4.42807	0.878197	0.415384
O	5.61271	-0.641249	-0.686864
H	4.76326	-0.92288	1.21059
H	5.66135	0.0484307	-1.33936
