15
  This energy is -2.7833e-05 and Call times are: 39320
C	-1.65303	-0.459704	-0.789659
O	-0.780155	-1.17999	-0.331571
O	-1.56183	0.878687	-0.80254
H	-2.59941	-0.796216	-1.2383
H	-0.691458	1.11562	-0.386751
C	1.65293	0.459716	0.789864
O	0.780326	1.17997	0.331233
O	1.56175	-0.878677	0.802692
H	2.59902	0.796243	1.23911
H	0.691605	-1.11562	0.386457
C	22.0582	0.444641	-0.0681769
O	20.8846	0.112991	-0.118362
O	23.011	-0.457013	0.165799
H	22.3283	1.48952	-0.216468
H	22.6364	-1.3239	0.275383
