15
  This energy is -2.6694e-05 and Call times are: 8437
C	0.760715	-1.72654	-0.0881246
O	-0.340845	-1.34019	-0.445715
O	1.67295	-0.915217	0.468072
H	1.14296	-2.75485	-0.169617
H	1.26868	-0.00904187	0.512502
C	-0.760627	1.72659	0.087917
O	0.340699	1.34012	0.446057
O	-1.67288	0.915253	-0.468225
H	-1.14263	2.75503	0.168797
H	-1.2688	0.00897805	-0.512202
C	11.0332	0.403475	0.158761
O	11.8341	-0.484062	0.405019
O	9.91018	0.14105	-0.50868
H	11.24	1.42083	0.488811
H	9.85846	-0.781094	-0.733965
