15
  This energy is -7.108e-06 and Call times are: 44990
C	1.49834	0.624433	0.965638
O	0.721067	1.23632	0.250087
O	1.39705	-0.693905	1.19257
H	2.35694	1.05367	1.50296
H	0.608382	-1.01771	0.682948
C	-1.49847	-0.624394	-0.965453
O	-0.720849	-1.23638	-0.250391
O	-1.39714	0.693933	-1.19244
H	-2.35747	-1.0535	-1.50225
H	-0.608192	1.01765	-0.683209
C	52.8949	0.0998759	-0.177862
O	53.2565	0.918681	0.651933
O	53.6601	-0.948991	-0.477669
H	51.9358	0.229174	-0.678082
H	54.4637	-0.937343	0.0301438
