15
  This energy is -1.5245e-05 and Call times are: 43814
C	-1.59583	0.84983	0.546375
O	-0.555971	1.33597	0.130519
O	-1.77667	-0.471673	0.690248
H	-2.49441	1.40752	0.849173
H	-0.93539	-0.914141	0.402095
C	1.59574	-0.849845	-0.546589
O	0.556109	-1.33595	-0.130166
O	1.77661	0.471661	-0.690407
H	2.4941	-1.40756	-0.850016
H	0.935506	0.914154	-0.401787
C	54.1676	0.15009	0.42266
O	54.5221	-1.00849	0.275023
O	53.6469	0.83734	-0.593226
H	54.2787	0.626288	1.39611
H	53.6086	0.30293	-1.37854
