15
  This energy is -2.9042e-05 and Call times are: 16813
C	0.0179977	1.59326	1.01421
O	0.884671	1.11245	0.301269
O	-1.17752	1.01377	1.20049
H	0.094951	2.5329	1.58104
H	-1.1823	0.176765	0.665741
C	-0.0180853	-1.59314	-1.01438
O	-0.884527	-1.11265	-0.300976
O	1.17746	-1.01369	-1.20062
H	-0.0952734	-2.53245	-1.58174
H	1.18242	-0.176934	-0.665484
C	15.2269	0.360449	0.0354588
O	16.2097	0.445154	0.754342
O	15.0425	-0.705449	-0.74259
H	14.4934	1.16577	0.0308417
H	15.7549	-1.32652	-0.639542
