15
  This energy is 4.687e-06 and Call times are: 37472
C	0.194167	-1.10711	1.5179
O	0.986962	-0.326651	1.01497
O	-1.03717	-1.31343	1.02696
H	0.373428	-1.72572	2.40971
H	-1.13459	-0.729664	0.229288
C	-0.194251	1.10727	-1.51776
O	-0.986822	0.326377	-1.01519
O	1.0371	1.31355	-1.02686
H	-0.37374	1.72639	-2.40919
H	1.13471	0.729424	-0.229483
C	14.5626	0.23787	0.132828
O	13.9653	0.770582	-0.788659
O	14.137	-0.917289	0.642651
H	15.4534	0.713058	0.542004
H	13.3544	-1.217	0.193695
