15
  This energy is -0.00292076 and Call times are: 18202
C	-0.55883	-1.79774	-0.152416
O	0.399845	-1.23345	-0.655498
O	-1.43304	-1.1737	0.651381
H	-0.828008	-2.85624	-0.2839
H	-1.13543	-0.229209	0.728392
C	0.558955	1.79769	0.152601
O	-0.400051	1.23355	0.655193
O	1.43314	1.17365	-0.651243
H	0.828517	2.85602	0.284611
H	1.13524	0.229293	-0.728651
C	4.73706	-0.0228577	0.302663
O	3.63524	-0.0284751	0.827776
O	4.85926	0.0449688	-1.02247
H	5.62949	-0.0738964	0.925305
H	4.00565	0.0842926	-1.43909
