15
  This energy is -2.8458e-05 and Call times are: 37892
C	-0.967277	-0.470661	-1.5525
O	-1.22393	0.359923	-0.695278
O	0.132191	-1.23861	-1.51784
H	-1.57931	-0.695543	-2.4385
H	0.637293	-0.987869	-0.700186
C	0.967393	0.470818	1.55238
O	1.22374	-0.360181	0.69548
O	-0.132104	1.23872	1.51775
H	1.57975	0.696171	2.43804
H	-0.637453	0.987639	0.70036
C	25.0138	-0.256043	-0.324839
O	24.3617	0.748465	-0.0892339
O	26.1407	-0.507592	0.340213
H	24.6697	-0.953719	-1.0874
H	26.321	0.179541	0.971984
