15
  This energy is -6.5447e-05 and Call times are: 8773
C	0.385044	0.239144	1.83356
O	1.1357	0.250769	0.87078
O	-0.936853	0.0375906	1.72522
H	0.678099	0.386825	2.88355
H	-1.1345	-0.0877699	0.759927
C	-0.38508	-0.238917	-1.83358
O	-1.13564	-0.251143	-0.870747
O	0.936826	-0.0374229	-1.72523
H	-0.678219	-0.385937	-2.88364
H	1.13454	0.0874445	-0.759897
C	9.65105	-0.189095	-0.216206
O	9.04191	-0.988718	0.476138
O	9.26822	1.08557	-0.280936
H	10.517	-0.522466	-0.786941
H	8.50356	1.23693	0.263274
