15
  This energy is -0.000740139 and Call times are: 28592
C	-0.285156	-0.583661	1.77354
O	-0.718662	-1.034	0.724802
O	0.526657	0.482956	1.8289
H	-0.492664	-0.975731	2.7802
H	0.673549	0.786345	0.894584
C	0.285341	0.583524	-1.77355
O	0.718357	1.03422	-0.724781
O	-0.526519	-0.483056	-1.8289
H	0.493376	0.975184	-2.78027
H	-0.673809	-0.786143	-0.894563
C	4.22606	0.429353	0.0741879
O	3.38037	0.0462202	0.866536
O	4.68257	-0.38172	-0.879369
H	4.61098	1.44573	0.148503
H	4.26316	-1.23333	-0.828177
