15
  This energy is -0.00220989 and Call times are: 21091
C	0.842717	1.45914	0.853319
O	0.391668	0.430239	1.33133
O	0.804242	1.73126	-0.459784
H	1.32491	2.27459	1.41251
H	0.360369	0.961772	-0.904111
C	-0.842511	-1.45923	-0.853349
O	-0.392007	-0.430076	-1.33129
O	-0.804089	-1.73133	0.459762
H	-1.32411	-2.27499	-1.41261
H	-0.360663	-0.961627	0.904144
C	4.54078	-0.423702	0.0294308
O	3.64959	0.408116	-0.030864
O	5.8205	-0.0531775	0.00607748
H	4.2858	-1.48023	0.103117
H	5.8976	0.892045	-0.0601642
