15
  This energy is -1.461e-05 and Call times are: 47804
C	0.707726	0.601101	-1.64475
O	0.664481	-0.526932	-1.17973
O	0.218474	1.67332	-1.00386
H	1.13778	0.883392	-2.61713
H	-0.152217	1.3526	-0.139979
C	-0.707931	-0.60113	1.64465
O	-0.664143	0.526981	1.1799
O	-0.218626	-1.67334	1.00378
H	-1.13858	-0.883529	2.61674
H	0.152507	-1.35255	0.140127
C	26.3671	-0.381714	-0.205825
O	25.432	0.247358	0.262965
O	27.6164	0.0660817	-0.0871409
H	26.1767	-1.31935	-0.7267
H	27.6367	0.889843	0.386973
