15
  This energy is 5.9001e-05 and Call times are: 22157
C	0.226871	0.379047	-1.83637
O	0.622588	-0.572297	-1.18145
O	-0.488224	1.38259	-1.30597
H	0.395777	0.538656	-2.91162
H	-0.604785	1.17915	-0.340785
C	-0.227068	-0.379157	1.83632
O	-0.622265	0.572479	1.18153
O	0.488079	-1.38267	1.30594
H	-0.396534	-0.539106	2.91143
H	0.605061	-1.17898	0.340857
C	7.24102	0.424668	0.0110286
O	6.58917	-0.30026	-0.723385
O	8.29332	-0.049769	0.676673
H	6.95834	1.47078	0.122629
H	8.42529	-0.972018	0.487413
