15
  This energy is -0.00310963 and Call times are: 21133
C	-0.593994	0.0367705	-1.79255
O	-0.745688	0.859539	-0.903383
O	0.0729211	-1.11373	-1.61548
H	-0.969231	0.122112	-2.82311
H	0.383028	-1.12872	-0.671989
C	0.59419	-0.0366698	1.79248
O	0.745364	-0.859705	0.90349
O	-0.0727752	1.1138	1.61543
H	0.969993	-0.121699	2.82287
H	-0.383306	1.12857	0.672082
C	3.75442	-0.429412	0.0122252
O	4.223	-0.124715	-1.07285
O	3.70857	0.456135	1.00682
H	3.36982	-1.43667	0.167909
H	4.07557	1.28973	0.734424
