15
  This energy is -2.4445e-05 and Call times are: 7345
C	0.459709	-0.0352945	1.83162
O	-0.234476	-0.805062	1.18653
O	1.04963	1.04183	1.29164
H	0.688698	-0.115721	2.90458
H	0.805068	1.05634	0.329074
C	-0.459521	0.0351708	-1.83167
O	0.234165	0.805265	-1.18645
O	-1.04949	-1.04192	-1.29168
H	-0.687975	0.11522	-2.90477
H	-0.805333	-1.05616	-0.329007
C	24.1884	0.170886	0.281837
O	24.062	0.581929	-0.86047
O	25.1602	-0.685833	0.593406
H	23.4984	0.508919	1.05412
H	25.6849	-0.8946	-0.171406
