15
  This energy is 0.00103372 and Call times are: 18286
C	1.73941	-0.379504	0.630732
O	1.09418	0.654878	0.696319
O	1.27116	-1.49563	0.0521348
H	2.75583	-0.53329	1.02241
H	0.356908	-1.29137	-0.277991
C	-1.7395	0.379433	-0.63053
O	-1.09404	-0.65476	-0.696651
O	-1.27122	1.49558	-0.051986
H	-2.75617	0.533032	-1.02161
H	-0.356786	1.29146	0.277699
C	6.83116	-0.0620641	-0.126428
O	6.0386	-0.348308	-1.00943
O	6.40304	0.378845	1.05587
H	7.89995	-0.168675	-0.308212
H	5.45363	0.42303	1.07658
