15
  This energy is -2.4731e-05 and Call times are: 41630
C	-0.264123	0.803676	-1.68871
O	0.511984	-0.0786454	-1.35744
O	-1.11738	1.38406	-0.831458
H	-0.367008	1.22864	-2.69815
H	-0.97483	0.958647	0.0546955
C	0.263961	-0.803832	1.68866
O	-0.511717	0.0789019	1.35753
O	1.11726	-1.38417	0.83142
H	0.366391	-1.22927	2.69795
H	0.975055	-0.958419	-0.0546181
C	31.0155	-0.315957	-0.157986
O	31.0186	-0.256301	1.06112
O	31.7906	0.491505	-0.880988
H	30.3716	-1.03767	-0.659185
H	32.297	1.06685	-0.318561
