15
  This energy is -3.6988e-05 and Call times are: 32792
C	-1.58619	-0.968283	-0.33741
O	-1.35732	0.223892	-0.467456
O	-0.668952	-1.84326	0.101755
H	-2.54047	-1.47073	-0.554305
H	0.16287	-1.32985	0.277942
C	1.58625	0.968242	0.337194
O	1.35721	-0.223824	0.467812
O	0.669003	1.84323	-0.101915
H	2.54073	1.4706	0.553455
H	-0.162964	1.3299	-0.277631
C	15.5792	0.212697	-0.287353
O	14.4669	0.0375642	-0.758587
O	15.8696	-0.202996	0.944871
H	16.3418	0.714466	-0.881724
H	15.1165	-0.621484	1.34673
