15
  This energy is 0.000152019 and Call times are: 29015
C	0.688577	0.333558	1.72685
O	-0.219236	0.888715	1.12831
O	1.39291	-0.68169	1.2044
H	1.0411	0.580031	2.73934
H	1.02764	-0.853315	0.296827
C	-0.688724	-0.333711	-1.72676
O	0.219478	-0.888464	-1.12846
O	-1.39302	0.681576	-1.20433
H	-1.04169	-0.580612	-2.73899
H	-1.02742	0.853526	-0.296958
C	4.94681	0.301127	0.22573
O	5.61181	0.81758	-0.657918
O	5.00912	-1.0116	0.445663
H	4.29563	0.921318	0.840582
H	5.61276	-1.4275	-0.159675
