15
  This energy is -0.00119144 and Call times are: 19878
C	0.00102591	1.48172	-1.17129
O	0.434936	0.353161	-1.34055
O	-0.591086	1.87217	-0.0325476
H	0.034462	2.30346	-1.90189
H	-0.589164	1.0903	0.580016
C	-0.00123199	-1.48178	1.1712
O	-0.434597	-0.353058	1.34068
O	0.590933	-1.87222	0.032487
H	-0.0352571	-2.30372	1.90156
H	0.589454	-1.09021	-0.579891
C	3.74955	0.0728916	-0.371082
O	4.26232	1.09497	0.0557859
O	3.94859	-1.09477	0.239214
H	3.12256	0.117169	-1.26081
H	4.51218	-0.988208	0.997362
