15
  This energy is -8.2787e-05 and Call times are: 17149
C	0.448693	-1.70997	0.664886
O	1.06344	-0.657811	0.739823
O	-0.737109	-1.81932	0.047075
H	0.770297	-2.67739	1.07819
H	-0.968749	-0.918304	-0.300884
C	-0.448803	1.71002	-0.664688
O	-1.06326	0.657737	-0.740148
O	0.737027	1.81935	-0.0469293
H	-0.770711	2.67759	-1.07742
H	0.968898	0.918237	0.300598
C	10.2686	-0.0826619	0.113109
O	10.9839	-1.06246	0.247982
O	10.7706	1.07166	-0.323969
H	9.20838	-0.154029	0.353038
H	11.7026	0.992228	-0.493839
