15
  This energy is -0.00439136 and Call times are: 9322
C	-1.64007	0.48669	0.800441
O	-0.57203	1.07806	0.788371
O	-1.82508	-0.697019	0.196803
H	-2.56359	0.830058	1.28969
H	-0.960494	-0.948857	-0.222286
C	1.64	-0.486584	-0.800634
O	0.572138	-1.07823	-0.788052
O	1.82503	0.697097	-0.196946
H	2.56335	-0.829628	-1.29044
H	0.960584	0.948697	0.22256
C	5.59382	0.13395	-0.433311
O	4.70523	-0.662564	-0.17686
O	6.45259	0.522302	0.508607
H	5.68469	0.530918	-1.44369
H	6.2583	0.100224	1.33799
