15
  This energy is 0.000179863 and Call times are: 15280
C	0.624934	-1.25297	1.26765
O	0.52517	-0.0392392	1.35411
O	0.276928	-1.93671	0.167118
H	0.999947	-1.92818	2.05098
H	-0.0506971	-1.27411	-0.496345
C	-0.625148	1.25294	-1.26756
O	-0.524818	0.0392848	-1.35424
O	-0.277086	1.93669	-0.167058
H	-1.00078	1.92809	-2.05065
H	0.0510011	1.27414	0.496223
C	6.47716	-0.132742	-0.0965591
O	6.51009	0.74656	0.749334
O	7.60222	-0.602833	-0.633939
H	5.51683	-0.536748	-0.414778
H	8.36135	-0.163769	-0.266909
