15
  This energy is -1.1352e-05 and Call times are: 32582
C	1.13736	-1.25848	-0.830682
O	0.303621	-1.42008	0.0464344
O	1.39288	-0.0626832	-1.38254
H	1.77047	-2.04187	-1.27299
H	0.79298	0.595549	-0.942758
C	-1.13752	1.25844	0.830519
O	-0.303361	1.42014	-0.0461655
O	-1.393	0.0626553	1.38242
H	-1.7711	2.04171	1.27236
H	-0.792751	-0.595487	0.942986
C	13.5139	-0.151825	-0.317587
O	14.2187	0.760028	-0.719695
O	13.6285	-0.600573	0.93182
H	12.7838	-0.602834	-0.988502
H	14.2997	-0.12008	1.40338
