15
  This energy is -0.00199649 and Call times are: 10673
C	-1.31916	-1.30813	-0.340607
O	-0.706017	-0.596872	-1.12082
O	-1.13299	-1.26379	0.98723
H	-2.08045	-2.05559	-0.60875
H	-0.439057	-0.574848	1.16149
C	1.31932	1.30797	0.340592
O	0.705749	0.59714	1.12085
O	1.13311	1.26367	-0.98724
H	2.08109	2.05496	0.608674
H	0.438825	0.57508	-1.16146
C	6.01265	-0.0403636	0.437515
O	6.96491	-0.204683	-0.308133
O	4.80241	0.225691	-0.0524208
H	6.15511	-0.112276	1.51512
H	4.82217	0.259474	-1.00229
