15
  This energy is -1.9661e-05 and Call times are: 38564
C	1.22142	1.32906	0.556003
O	0.279946	0.83467	1.15582
O	1.55822	0.9733	-0.692908
H	1.89819	2.10546	0.94245
H	0.913482	0.274805	-0.980979
C	-1.22128	-1.32922	-0.555921
O	-0.280181	-0.834403	-1.15595
O	-1.55811	-0.97342	0.692967
H	-1.89764	-2.1061	-0.942115
H	-0.913682	-0.274575	0.980854
C	24.0436	-0.0755552	0.057158
O	23.4306	-1.08848	-0.239595
O	23.4113	1.09072	0.182011
H	25.1193	-0.126938	0.221462
H	22.4813	0.991006	0.011863
