15
  This energy is -0.000126527 and Call times are: 8815
C	1.03051	1.01724	1.21271
O	0.433402	1.37103	0.208294
O	1.04624	-0.253647	1.64211
H	1.61615	1.66747	1.87934
H	0.503572	-0.784527	1.00161
C	-1.0307	-1.0172	-1.21258
O	-0.433095	-1.3711	-0.208507
O	-1.04638	0.253674	-1.64201
H	-1.61688	-1.66731	-1.87885
H	-0.503303	0.784464	-1.00179
C	7.28539	0.353499	0.271083
O	6.14514	-0.0647292	0.392388
O	8.13219	-0.216902	-0.585119
H	7.61307	1.20244	0.86994
H	7.71701	-0.941809	-1.0389
