15
  This energy is -2.155e-05 and Call times are: 45704
C	0.710093	-1.74535	-0.130135
O	0.135282	-1.20441	0.801288
O	0.943786	-1.13004	-1.29913
H	1.1011	-2.77354	-0.139
H	0.569044	-0.213099	-1.226
C	-0.710293	1.74527	0.130051
O	-0.134953	1.20453	-0.80115
O	-0.943934	1.12998	1.29907
H	-1.10189	2.77324	0.138692
H	-0.568756	0.213213	1.22611
C	43.3374	0.122614	0.414527
O	43.7229	0.890347	-0.452523
O	42.5965	-0.940042	0.102471
H	43.6026	0.30937	1.45446
H	42.4414	-0.980607	-0.834584
