15
  This energy is -0.000305006 and Call times are: 29556
C	-0.80826	0.15036	-1.70044
O	-0.745403	-0.809556	-0.948659
O	-0.267208	1.34256	-1.4077
H	-1.29891	0.169427	-2.68485
H	0.156563	1.25869	-0.5133
C	0.808063	-0.150292	1.70054
O	0.745727	0.809443	0.948498
O	0.267062	-1.34251	1.40777
H	1.29813	-0.169179	2.68524
H	-0.156278	-1.25878	0.513161
C	4.13982	0.334946	-0.189839
O	3.42567	-0.243069	-0.993381
O	4.16065	-0.0333353	1.09057
H	4.76653	1.16077	-0.52443
H	3.56943	-0.762174	1.24235
