15
  This energy is -0.0017981 and Call times are: 10168
C	1.52046	1.10344	-0.194997
O	0.924684	0.441427	-1.03008
O	1.15455	1.15058	1.09483
H	2.40644	1.72927	-0.378145
H	0.355263	0.569071	1.19257
C	-1.52059	-1.10326	0.194955
O	-0.924462	-0.441727	1.03015
O	-1.15465	-1.15044	-1.09486
H	-2.40697	-1.72857	0.377961
H	-0.355071	-0.56933	-1.19251
C	5.42312	-0.11597	0.340038
O	6.31063	-0.934154	0.159264
O	5.3394	0.976316	-0.418524
H	4.69211	-0.281745	1.13051
H	6.03654	0.993421	-1.06464
