15
  This energy is -1.2189e-05 and Call times are: 48980
C	0.399031	0.598912	1.74628
O	1.13697	0.449018	0.785263
O	-0.916356	0.338761	1.70323
H	0.699677	0.954693	2.74286
H	-1.12139	0.0241484	0.783701
C	-0.399075	-0.598695	-1.74634
O	-1.1369	-0.449376	-0.78516
O	0.916322	-0.338601	-1.70328
H	-0.699829	-0.953843	-2.74312
H	1.12144	-0.0244605	-0.78361
C	40.2062	0.224521	-0.0153416
O	40.6271	0.0949162	1.123
O	40.8843	-0.266639	-1.05189
H	39.2657	0.747663	-0.184361
H	41.6815	-0.695624	-0.761644
