15
  This energy is -6.102e-06 and Call times are: 42932
C	-1.52817	0.10629	-1.1049
O	-1.09993	0.904924	-0.28675
O	-0.927839	-1.06518	-1.36381
H	-2.43165	0.232381	-1.7197
H	-0.12539	-1.1167	-0.780731
C	1.5283	-0.106192	1.10473
O	1.09972	-0.905085	0.287026
O	0.927931	1.06525	1.36369
H	2.43214	-0.23198	1.71906
H	0.125214	1.11655	0.780967
C	54.8379	-0.0664472	0.0977803
O	54.1435	0.0239074	1.09751
O	54.2983	0.0296481	-1.11677
H	55.9104	-0.227406	0.200991
H	53.3596	0.168616	-1.0596
