15
  This energy is -2.5468e-05 and Call times are: 38690
C	-1.45603	0.827325	0.87345
O	-0.257114	1.01537	1.00692
O	-1.96221	-0.0705475	0.0147429
H	-2.25676	1.34873	1.41855
H	-1.19336	-0.502947	-0.441835
C	1.45602	-0.827165	-0.873615
O	0.257132	-1.01563	-1.00664
O	1.9622	0.0706656	-0.0148657
H	2.25673	-1.34809	-1.41919
H	1.19337	0.502712	0.442066
C	25.2406	0.158567	-0.336649
O	25.8896	1.03724	0.208001
O	25.335	-1.10751	0.0678997
H	24.5774	0.413559	-1.16239
H	25.9459	-1.18635	0.792057
