15
  This energy is -0.00183348 and Call times are: 442
C	0.620765	0.270349	1.76323
O	0.496766	-0.766169	1.13012
O	0.308372	1.47406	1.25997
H	0.991905	0.357041	2.79516
H	-0.0175472	1.32698	0.333306
C	-0.62055	-0.270323	-1.7633
O	-0.497121	0.766125	-1.12999
O	-0.308212	-1.47404	-1.26003
H	-0.991063	-0.356959	-2.79547
H	0.0172377	-1.32701	-0.333197
C	3.96839	0.0541766	-0.417672
O	3.06091	0.83325	-0.17412
O	4.3677	-0.832083	0.493702
H	4.45634	0.084794	-1.39116
H	3.85879	-0.748391	1.29231
