15
  This energy is -0.0015966 and Call times are: 17443
C	-1.71741	0.163494	0.768872
O	-0.797151	-0.58159	1.06643
O	-1.6412	1.05245	-0.232991
H	-2.6994	0.20709	1.26278
H	-0.737012	0.96276	-0.634188
C	1.71749	-0.163333	-0.768726
O	0.797022	0.581325	-1.06666
O	1.64126	-1.05233	0.233098
H	2.69972	-0.206476	-1.26221
H	0.736899	-0.962984	0.633974
C	5.77864	-0.270679	-0.36334
O	6.72269	-0.536197	0.363339
O	4.94263	0.721049	-0.0582631
H	5.61894	-0.851606	-1.27093
H	5.19868	1.14079	0.75539
