15
  This energy is -1.7519e-05 and Call times are: 12756
C	0.458636	-0.231123	1.81759
O	1.17953	-0.142955	0.836207
O	-0.879777	-0.172557	1.74691
H	0.794561	-0.365726	2.85643
H	-1.11616	-0.0512406	0.789846
C	-0.45863	0.231352	-1.81756
O	-1.17953	0.142579	-0.836256
O	0.87978	0.172727	-1.74689
H	-0.79452	0.36662	-2.85633
H	1.11614	0.0509141	-0.789887
C	13.7623	0.0278979	0.448415
O	14.54	0.7307	-0.176903
O	12.8551	-0.714241	-0.185331
H	13.8115	0.00807443	1.53648
H	12.924	-0.601463	-1.12677
