15
  This energy is 0.000840612 and Call times are: 34306
C	-0.747237	-0.407093	-1.68621
O	-1.25637	-0.44642	-0.577244
O	0.526217	-0.0382856	-1.89132
H	-1.24392	-0.659232	-2.63484
H	0.914901	0.174519	-1.00239
C	0.747172	0.407312	1.68619
O	1.25647	0.446059	0.577288
O	-0.526264	0.0384482	1.8913
H	1.24365	0.660087	2.63475
H	-0.9148	-0.17483	1.00243
C	6.22761	-0.13782	-0.431257
O	5.38634	0.731817	-0.270699
O	6.94915	-0.584868	0.595896
H	6.38933	-0.552172	-1.42567
H	6.70573	-0.139012	1.39947
