15
  This energy is -0.00493557 and Call times are: 20680
C	-0.659619	0.92553	-1.50854
O	-0.092354	-0.153512	-1.44183
O	-0.921518	1.67961	-0.43033
H	-1.02078	1.41023	-2.42766
H	-0.572919	1.1893	0.360012
C	0.659413	-0.925631	1.50857
O	0.0926922	0.15368	1.44179
O	0.921366	-1.67969	0.430348
H	1.01998	-1.41065	2.42775
H	0.57321	-1.18915	-0.360041
C	4.35868	0.411445	0.106169
O	4.91866	-0.0697709	-0.865761
O	3.39423	-0.257733	0.736682
H	4.65154	1.39889	0.460997
H	3.24156	-1.10017	0.32345
