15
  This energy is -6.0556e-05 and Call times are: 2634
C	-0.485398	-1.68631	-0.698684
O	-0.539824	-1.27215	0.448525
O	-0.0346443	-0.944125	-1.72131
H	-0.787195	-2.6878	-1.03939
H	0.21944	-0.0588972	-1.34932
C	0.485185	1.68638	0.698641
O	0.540175	1.27203	-0.448455
O	0.0344866	0.944182	1.72128
H	0.786358	2.6881	1.03924
H	-0.219132	0.0587912	1.34937
C	6.77828	-0.141428	0.206495
O	6.04369	-1.06408	-0.107949
O	6.43984	1.11945	-0.0602518
H	7.7206	-0.35246	0.710677
H	5.59781	1.15767	-0.499908
