15
  This energy is -0.0012455 and Call times are: 20638
C	1.22209	0.689709	1.2642
O	1.29083	0.665324	0.0454928
O	0.181329	0.188072	1.94608
H	1.97593	1.11066	1.94587
H	-0.458217	-0.173417	1.2776
C	-1.22219	-0.689504	-1.26421
O	-1.29065	-0.665661	-0.0454833
O	-0.181408	-0.187921	-1.94608
H	-1.97633	-1.10986	-1.94592
H	0.458363	0.173122	-1.27758
C	5.54699	0.13317	0.356374
O	4.454	0.674945	0.31563
O	5.90712	-0.744273	-0.579527
H	6.23462	0.370465	1.16728
H	5.21565	-0.855804	-1.22233
