15
  This energy is -2.0715e-05 and Call times are: 7009
C	0.813042	-0.904273	1.44522
O	0.523179	0.275811	1.32709
O	0.578429	-1.81237	0.486006
H	1.28883	-1.36843	2.32177
H	0.151284	-1.33254	-0.271538
C	-0.813249	0.904227	-1.44513
O	-0.522838	-0.275734	-1.32724
O	-0.578582	1.81234	-0.48594
H	-1.28964	1.36828	-2.32141
H	-0.150989	1.3326	0.271403
C	25.3334	0.00506101	0.452324
O	24.3083	-0.532224	0.0646556
O	26.2132	0.500259	-0.417266
H	25.5299	0.0799056	1.52119
H	25.917	0.367138	-1.31075
