15
  This energy is -1.6531e-05 and Call times are: 44570
C	1.57071	-1.04876	0.0195592
O	0.723801	-0.896003	0.885578
O	1.50824	-0.443913	-1.17628
H	2.46836	-1.67989	0.0974193
H	0.681296	0.106266	-1.18188
C	-1.57082	1.04858	-0.0196468
O	-0.723611	0.896298	-0.885434
O	-1.50832	0.44378	1.17621
H	-2.46882	1.67918	-0.0977417
H	-0.681129	-0.106007	1.18199
C	50.2093	-0.00447425	-0.402372
O	49.2423	-0.748464	-0.369498
O	50.5531	0.712635	0.666766
H	50.7969	0.0731902	-1.31639
H	49.9577	0.548716	1.38951
