15
  This energy is -0.00223849 and Call times are: 36500
C	1.00163	-1.13266	-1.13192
O	0.971875	0.0866135	-1.07653
O	0.265607	-1.91723	-0.330364
H	1.61324	-1.73371	-1.82099
H	-0.259232	-1.31763	0.262576
C	-1.00146	1.13265	1.13207
O	-0.972156	-0.0866017	1.07628
O	-0.265481	1.91723	0.330479
H	-1.61257	1.7337	1.82159
H	0.258984	1.31763	-0.262792
C	4.66264	0.372945	0.101552
O	4.08266	-0.348988	-0.69357
O	5.86119	0.0371065	0.577177
H	4.1942	1.30171	0.425073
H	6.14906	-0.792522	0.213003
