15
  This energy is 7.2678e-05 and Call times are: 35870
C	-1.07848	1.53202	0.239144
O	-0.884251	0.589639	0.990649
O	-0.507694	1.62937	-0.971022
H	-1.72421	2.39898	0.443031
H	0.0579757	0.821991	-1.09236
C	1.07866	-1.53191	-0.239054
O	0.883957	-0.589827	-0.990798
O	0.507827	-1.62928	0.971088
H	1.72491	-2.39855	-0.442659
H	-0.0582282	-0.822152	1.09223
C	8.78915	-0.175165	0.0791282
O	8.75484	1.02917	-0.116299
O	9.94512	-0.837194	0.0479052
H	7.8639	-0.713481	0.281171
H	10.6674	-0.247646	-0.137883
