15
  This energy is -7.383e-06 and Call times are: 50450
C	-0.328237	0.893662	1.63127
O	0.662882	0.909862	0.91853
O	-1.42508	0.17865	1.33892
H	-0.453932	1.44263	2.57625
H	-1.24788	-0.289412	0.480968
C	0.328147	-0.893482	-1.63138
O	-0.662733	-0.910157	-0.918343
O	1.42501	-0.178518	-1.339
H	0.453601	-1.44193	-2.5767
H	1.248	0.289152	-0.480806
C	27.1638	0.0474186	0.300725
O	28.1343	0.736384	0.571202
O	27.1637	-0.734991	-0.777862
H	26.2887	0.0733821	0.949031
H	27.9855	-0.660103	-1.24987
