15
  This energy is -1.6835e-05 and Call times are: 22873
C	-0.802038	-1.44722	0.910869
O	-0.360454	-1.38925	-0.225887
O	-0.782822	-0.40448	1.75472
H	-1.25952	-2.32955	1.38242
H	-0.360637	0.353776	1.27164
C	0.802244	1.44716	-0.910788
O	0.360116	1.38936	0.225753
O	0.782974	0.404432	-1.75466
H	1.26033	2.32929	-1.38212
H	0.360343	-0.353676	-1.27175
C	14.9786	0.448397	0.0649621
O	14.5094	0.108088	-1.00921
O	15.4817	-0.455325	0.905021
H	14.9855	1.5028	0.338647
H	15.4114	-1.33089	0.541412
