15
  This energy is -2.6069e-05 and Call times are: 40034
C	1.0448	-1.18554	1.03455
O	0.841916	-1.17195	-0.16929
O	0.511366	-0.285401	1.87417
H	1.66969	-1.91068	1.57663
H	-0.0370085	0.335414	1.32605
C	-1.04462	1.18567	-1.03457
O	-0.842219	1.17173	0.169332
O	-0.51123	0.285503	-1.87419
H	-1.66897	1.9112	-1.57675
H	0.0367431	-0.335604	-1.32601
C	34.325	0.409649	-0.193138
O	34.8793	-0.454018	-0.853909
O	33.7315	0.107727	0.961027
H	34.3161	1.43815	-0.552034
H	33.8151	-0.819877	1.15165
