15
  This energy is -1.0944e-05 and Call times are: 46082
C	-1.87029	0.254823	0.0670049
O	-1.12768	-0.288266	0.869599
O	-1.43328	0.797504	-1.07942
H	-2.95954	0.369815	0.169337
H	-0.449934	0.661022	-1.11036
C	1.87032	-0.254619	-0.0669006
O	1.12763	0.287931	-0.86977
O	1.43331	-0.797353	1.0795
H	2.95966	-0.369031	-0.168911
H	0.449894	-0.661309	1.1102
C	44.5955	-0.104964	0.395609
O	45.1719	-0.602984	-0.558066
O	43.5148	0.653896	0.217355
H	44.9696	-0.283625	1.40298
H	43.3005	0.725405	-0.706089
