15
  This energy is -0.00125526 and Call times are: 34979
C	1.69718	-0.671932	0.485267
O	1.29971	-0.262399	-0.594024
O	0.923603	-0.709866	1.58067
H	2.70679	-1.05214	0.700413
H	0.0326501	-0.35599	1.32079
C	-1.69711	0.672144	-0.485207
O	-1.29982	0.26205	0.593926
O	-0.923552	0.710022	-1.58063
H	-2.70652	1.05297	-0.700202
H	-0.0327524	0.355687	-1.32087
C	5.94677	-0.29212	0.0124376
O	6.11979	0.671161	0.741785
O	4.83461	-0.405956	-0.712575
H	6.71073	-1.06653	-0.0454884
H	4.25825	0.335769	-0.566186
