15
  This energy is -1.5866e-05 and Call times are: 51920
C	0.0137628	-1.22951	1.43371
O	-0.928402	-0.672967	0.892269
O	1.28776	-1.03514	1.06097
H	-0.0496082	-1.94061	2.27066
H	1.27558	-0.38817	0.30741
C	-0.0137763	1.22934	-1.43385
O	0.928424	0.673257	-0.892025
O	-1.28776	1.03501	-1.06108
H	0.049534	1.93992	-2.27124
H	-1.27555	0.388422	-0.307199
C	13.2844	-0.23755	0.377078
O	13.373	-0.916339	-0.633456
O	12.9697	1.05513	0.303366
H	13.4648	-0.694779	1.34924
H	12.8401	1.32052	-0.600278
