15
  This energy is -1.2504e-05 and Call times are: 23209
C	-0.970511	-1.51987	0.561708
O	-0.69206	-0.50154	1.17493
O	-0.597666	-1.7305	-0.709667
H	-1.54414	-2.37334	0.952478
H	-0.0877891	-0.929262	-1.00053
C	0.970314	1.51996	-0.561784
O	0.692383	0.501385	-1.17481
O	0.597521	1.73057	0.70961
H	1.54337	2.37372	-0.952758
H	0.0880709	0.929124	1.00063
C	17.8044	-0.0473919	0.216716
O	18.2153	-1.1007	-0.243123
O	18.4969	1.08013	0.0597704
H	16.861	-0.0303057	0.761169
H	19.295	0.92103	-0.431632
