15
  This energy is 0.000495707 and Call times are: 11093
C	-1.37258	1.01361	0.809962
O	-1.3976	-0.127319	0.376101
O	-0.274714	1.78376	0.773435
H	-2.21534	1.54759	1.2734
H	0.443907	1.24698	0.346805
C	1.37264	-1.01368	-0.809754
O	1.3975	0.127444	-0.376444
O	0.274761	-1.78382	-0.773281
H	2.21558	-1.5479	-1.27259
H	-0.443992	-1.24687	-0.347102
C	6.92183	0.197913	-0.389521
O	6.37592	0.973403	0.378843
O	7.1059	-1.078	-0.0523462
H	7.26182	0.554076	-1.36125
H	6.76325	-1.2506	0.817469
