15
  This energy is -3.553e-06 and Call times are: 12630
C	0.906963	-1.59197	-0.458765
O	0.385372	-1.26759	0.596364
O	0.915499	-0.800223	-1.54174
H	1.42265	-2.54271	-0.659533
H	0.437937	0.035263	-1.29586
C	-0.90716	1.59187	0.458692
O	-0.385048	1.26775	-0.596243
O	-0.915645	0.800154	1.54169
H	-1.42342	2.54235	0.659267
H	-0.437654	-0.0351252	1.29596
C	12.0045	-0.449624	0.0596461
O	12.8063	-0.081295	-0.783692
O	11.2326	0.430905	0.695544
H	11.92	-1.5101	0.294069
H	11.4099	1.31513	0.394711
