15
  This energy is -0.00268391 and Call times are: 27954
C	-0.134415	-1.48178	1.16347
O	0.809113	-1.10419	0.486898
O	-1.31684	-0.848358	1.18393
H	-0.144792	-2.36069	1.82495
H	-1.24152	-0.0704746	0.570917
C	0.134485	1.48191	-1.16329
O	-0.809228	1.10397	-0.48719
O	1.31689	0.848454	-1.1838
H	0.145084	2.3612	-1.82427
H	1.24141	0.0702915	-0.571169
C	5.31683	-0.260796	0.193252
O	5.72286	0.863388	-0.05401
O	4.06578	-0.612731	-0.100932
H	5.98555	-0.983344	0.659549
H	3.59648	0.110496	-0.501523
