15
  This energy is -0.00244861 and Call times are: 2095
C	0.209991	-1.76515	-0.638393
O	-0.284983	-0.791786	-1.18441
O	0.721809	-1.72431	0.601022
H	0.301188	-2.77238	-1.07122
H	0.609056	-0.794817	0.932526
C	-0.209783	1.7652	0.638308
O	0.284641	0.791699	1.18455
O	-0.721655	1.72435	-0.601083
H	-0.300386	2.7726	1.07088
H	-0.609349	0.794739	-0.932397
C	3.99294	0.38342	-0.146633
O	4.17776	0.192227	1.04462
O	3.29024	-0.483898	-0.874286
H	4.40756	1.27325	-0.618866
H	2.99001	-1.20953	-0.338473
