15
  This energy is 0.00048765 and Call times are: 18539
C	0.637231	-0.497942	1.70687
O	-0.170094	-1.05743	0.981766
O	1.24385	0.651038	1.37276
H	0.966343	-0.845788	2.69724
H	0.905734	0.908945	0.475135
C	-0.637057	0.497825	-1.70696
O	0.169807	1.05762	-0.981607
O	-1.24372	-0.651123	-1.37283
H	-0.965678	0.845317	-2.69763
H	-0.905978	-0.908771	-0.474997
C	6.14895	-0.147542	-0.401441
O	5.81078	1.00171	-0.167681
O	6.88239	-0.832922	0.474827
H	5.84719	-0.616877	-1.33705
H	7.07273	-0.305192	1.24232
