15
  This energy is -0.0024314 and Call times are: 15576
C	-0.00144338	0.87975	1.67136
O	-0.0389646	1.3467	0.543918
O	0.0511908	-0.438779	1.9132
H	-0.00546954	1.45431	2.60945
H	0.0519356	-0.89702	1.03196
C	0.00121319	-0.87976	-1.67135
O	0.0393435	-1.34668	-0.543931
O	-0.051361	0.43877	-1.91319
H	0.00456942	-1.45434	-2.60944
H	-0.0516063	0.897027	-1.03197
C	3.6928	-0.0834701	0.336212
O	3.50507	-1.05834	-0.373843
O	3.06999	1.06839	0.089566
H	4.37725	-0.157246	1.18048
H	2.50622	0.991539	-0.672032
