15
  This energy is -5.491e-06 and Call times are: 31490
C	1.34628	-0.802141	-1.05428
O	1.44431	0.0196421	-0.156703
O	0.169145	-1.30066	-1.46121
H	2.1786	-1.23119	-1.63162
H	-0.535387	-0.876106	-0.904482
C	-1.34626	0.801968	1.05443
O	-1.44433	-0.0193567	0.156454
O	-0.169132	1.30053	1.46132
H	-2.17852	1.23052	1.63223
H	0.535355	0.876349	0.904262
C	12.1809	0.0863745	-0.150477
O	12.1844	-0.616799	0.847183
O	13.3236	0.516388	-0.684207
H	11.2326	0.364717	-0.608563
H	14.0693	0.200431	-0.186281
