15
  This energy is -0.00139421 and Call times are: 6085
C	0.164335	-0.421742	-1.83372
O	1.01263	-0.414956	-0.955697
O	-1.1196	-0.103776	-1.60972
H	0.32959	-0.679885	-2.89023
H	-1.20114	0.117301	-0.644816
C	-0.164385	0.421522	1.83376
O	-1.01255	0.41532	0.955624
O	1.11956	0.103613	1.60975
H	-0.329765	0.67902	2.89041
H	1.2012	-0.116984	0.644752
C	5.0751	-0.391138	-0.14863
O	5.79754	0.564273	-0.383286
O	3.91184	-0.226754	0.480117
H	5.38591	-1.3886	-0.457134
H	3.76753	0.689144	0.690076
