15
  This energy is -2.0866e-05 and Call times are: 38312
C	1.87717	0.0747733	-0.195051
O	1.20545	-0.232073	0.777168
O	1.33812	0.435541	-1.36938
H	2.97608	0.0969358	-0.240565
H	0.351517	0.39494	-1.26204
C	-1.87717	-0.0749923	0.194979
O	-1.20546	0.232433	-0.77705
O	-1.33812	-0.435702	1.36933
H	-2.97607	-0.097798	0.240305
H	-0.351524	-0.394624	1.26213
C	19.9601	-0.227577	-0.310485
O	20.5445	-0.967758	0.464347
O	20.0624	1.096	-0.195562
H	19.3485	-0.655005	-1.1042
H	20.6238	1.32948	0.535274
