15
  This energy is -1.3191e-05 and Call times are: 7513
C	1.21144	0.913372	1.12497
O	0.997672	-0.283831	1.01737
O	0.563722	1.83785	0.400005
H	1.93757	1.38174	1.80581
H	-0.0719598	1.35321	-0.189567
C	-1.21128	-0.913382	-1.12513
O	-0.997939	0.283848	-1.01711
O	-0.563602	-1.83785	-0.400126
H	-1.93693	-1.3818	-1.80644
H	0.0717244	-1.35319	0.189796
C	20.5868	0.218417	-0.0918397
O	20.4077	0.0671638	1.106
O	19.6988	-0.235542	-0.975573
H	21.4828	0.730311	-0.440913
H	18.97	-0.658688	-0.535621
