15
  This energy is 0.000822779 and Call times are: 29682
C	-0.480997	1.1169	1.44519
O	-1.03582	0.119442	1.01181
O	0.648114	1.61146	0.915764
H	-0.817806	1.72503	2.29777
H	0.896974	1.02138	0.156525
C	0.481124	-1.11703	-1.44505
O	1.03561	-0.119231	-1.01205
O	-0.64802	-1.61155	-0.915658
H	0.818286	-1.72555	-2.29721
H	-0.897148	-1.0212	-0.156733
C	5.79863	-0.290529	-0.333252
O	5.19087	0.763521	-0.430181
O	6.65163	-0.494713	0.669856
H	5.64106	-1.07206	-1.07561
H	6.69139	0.265159	1.23976
