15
  This energy is -2.2616e-05 and Call times are: 50114
C	-0.946447	1.1915	-1.11891
O	0.255945	1.07739	-0.940578
O	-1.85236	0.423841	-0.494575
H	-1.43468	1.91261	-1.79106
H	-1.35037	-0.200615	0.0924705
C	0.946454	-1.19165	1.11874
O	-0.255956	-1.07714	0.940862
O	1.85236	-0.423954	0.494448
H	1.43473	-1.91321	1.79038
H	1.35035	0.20083	-0.0922211
C	28.7102	-0.000790984	0.193583
O	27.9391	-0.781919	0.727495
O	28.3191	0.741433	-0.84161
H	29.729	0.0895886	0.568456
H	27.4119	0.562382	-1.06233
