15
  This energy is -1.5243e-05 and Call times are: 32750
C	0.927999	0.604961	-1.52979
O	0.45757	1.2415	-0.600223
O	0.849858	-0.731809	-1.61173
H	1.46096	1.02407	-2.39607
H	0.361226	-1.04524	-0.805776
C	-0.927798	-0.604982	1.5299
O	-0.457901	-1.24146	0.60004
O	-0.849709	0.731792	1.61181
H	-1.46018	-1.02414	2.39652
H	-0.361513	1.04526	0.805615
C	17.5391	-0.421054	0.0954147
O	18.1806	0.429976	0.690373
O	16.5509	-0.0759727	-0.729175
H	17.778	-1.47386	0.241034
H	16.4519	0.868981	-0.76131
