15
  This energy is -0.00194494 and Call times are: 20919
C	0.0153944	-0.688128	-1.75888
O	-0.382284	0.38996	-1.34638
O	0.54537	-1.62489	-0.958013
H	-0.00521476	-1.02747	-2.8051
H	0.535036	-1.2589	-0.0347001
C	-0.0151833	0.688214	1.75884
O	0.381937	-0.390102	1.34644
O	-0.545214	1.62495	0.957988
H	0.00603043	1.02783	2.80496
H	-0.535334	1.25877	0.0347526
C	3.89977	-0.32399	-0.103098
O	4.19115	0.367635	-1.06567
O	4.44469	-0.0933041	1.09079
H	3.18628	-1.13844	-0.222723
H	5.04562	0.642308	1.05166
