15
  This energy is -0.00384862 and Call times are: 9575
C	-0.969425	-1.60405	-0.233787
O	-0.314397	-1.22068	0.72253
O	-1.11089	-0.883676	-1.35665
H	-1.51368	-2.55746	-0.304052
H	-0.5996	-0.0417095	-1.22924
C	0.969235	1.60415	0.233871
O	0.314709	1.22052	-0.72267
O	1.11075	0.88375	1.35671
H	1.51295	2.55785	0.304403
H	0.59987	0.0415701	1.22911
C	4.32463	0.251367	0.3564
O	3.71404	0.896422	-0.480782
O	4.56232	-1.04714	0.174994
H	4.67858	0.743831	1.26133
H	4.19975	-1.34488	-0.651848
