15
  This energy is -0.000947621 and Call times are: 17275
C	0.385131	1.82632	0.289172
O	0.991204	0.833132	0.659064
O	-0.739938	1.76501	-0.439
H	0.667417	2.86959	0.494282
H	-0.938526	0.803326	-0.588324
C	-0.385008	-1.82632	-0.289367
O	-0.991405	-0.833144	-0.658742
O	0.740028	-1.765	0.438855
H	-0.666923	-2.86957	-0.495034
H	0.938343	-0.803335	0.588598
C	4.52135	-0.0968651	0.442606
O	5.41849	0.648394	0.0827188
O	3.61299	-0.538065	-0.426731
H	4.46379	-0.403904	1.48622
H	3.7823	-0.193733	-1.29653
