15
  This energy is -0.00267893 and Call times are: 30692
C	-0.769933	0.823475	1.51542
O	-1.1075	-0.188327	0.921381
O	0.286869	1.565	1.15063
H	-1.2672	1.25075	2.39878
H	0.688181	1.12851	0.353765
C	0.770071	-0.823597	-1.51528
O	1.10727	0.188528	-0.92161
O	-0.286767	-1.56509	-1.15052
H	1.26772	-1.25125	-2.39824
H	-0.688371	-1.12833	-0.353964
C	4.47269	0.0374836	-0.147437
O	4.57193	0.229507	1.05384
O	5.54714	-0.246943	-0.882393
H	3.49442	0.0996103	-0.62267
H	6.32955	-0.269199	-0.342835
