15
  This energy is -6.408e-06 and Call times are: 41966
C	1.05626	1.04917	1.16231
O	0.00385803	0.468131	1.37543
O	1.67235	1.02852	-0.0292357
H	1.62336	1.64746	1.89073
H	1.11354	0.476168	-0.636851
C	-1.05614	-1.04935	-1.16225
O	-0.00405641	-0.467825	-1.37553
O	-1.67226	-1.02866	0.0292813
H	-1.62291	-1.6482	-1.89048
H	-1.11371	-0.475901	0.636755
C	34.2321	0.351517	0.101914
O	33.6567	-0.720233	0.202622
O	35.5098	0.405699	-0.272183
H	33.6939	1.27308	0.320552
H	35.8531	-0.466655	-0.430048
