15
  This energy is -2.2056e-05 and Call times are: 46166
C	-1.06147	-1.01467	-1.18791
O	-1.01718	-1.03696	0.0319725
O	-0.298893	-0.198099	-1.93052
H	-1.70862	-1.63783	-1.82275
H	0.257354	0.333026	-1.30198
C	1.0613	1.01483	1.18791
O	1.01745	1.03669	-0.0319801
O	0.298772	0.198219	1.93052
H	1.70798	1.63846	1.82279
H	-0.257115	-0.333253	1.30197
C	44.5116	0.253017	0.211267
O	43.4322	0.816042	0.123987
O	44.6822	-0.97228	-0.28375
H	45.3437	0.758892	0.699436
H	43.8791	-1.29191	-0.679401
