15
  This energy is -0.00260721 and Call times are: 20173
C	-0.989001	-1.11979	1.15557
O	-1.11849	0.0720235	0.924525
O	-0.045678	-1.87683	0.575226
H	-1.60497	-1.71511	1.84574
H	0.471686	-1.28407	-0.0310169
C	0.988857	1.11974	-1.15574
O	1.11873	-0.0719357	-0.924243
O	0.0455716	1.87679	-0.575353
H	1.6044	1.71492	-1.84641
H	-0.471474	1.28414	0.0312595
C	4.35128	-0.000303617	-0.290052
O	4.59101	1.11163	0.15258
O	5.07773	-1.05295	0.083733
H	3.5342	-0.132191	-0.998358
H	5.75292	-0.795532	0.701505
