15
  This energy is -0.00031015 and Call times are: 20512
C	-0.0117148	-1.61199	-0.984249
O	-0.422586	-1.38279	0.142349
O	0.557904	-0.67519	-1.75737
H	-0.0504498	-2.58208	-1.50154
H	0.562035	0.170161	-1.2359
C	0.0115097	1.61205	0.984159
O	0.422924	1.3827	-0.1422
O	-0.558055	0.67523	1.7573
H	0.0496391	2.58229	1.50121
H	-0.561738	-0.170234	1.23602
C	4.08075	-0.401146	-0.174931
O	4.23169	-0.44456	1.03549
O	4.26383	0.736916	-0.843369
H	3.79322	-1.30339	-0.713434
H	4.51064	1.43986	-0.252831
