15
  This energy is -8.658e-06 and Call times are: 44486
C	-1.86964	-0.267937	0.00712245
O	-1.21011	0.642063	0.484085
O	-1.31978	-1.30123	-0.648426
H	-2.96488	-0.362619	0.0475814
H	-0.337171	-1.1562	-0.649474
C	1.86962	0.26805	-0.00732246
O	1.21015	-0.642249	-0.483755
O	1.31977	1.30131	0.648277
H	2.96481	0.36308	-0.0483519
H	0.3372	1.15603	0.649755
C	54.2908	0.015003	0.347758
O	53.9485	1.12589	-0.024424
O	53.8199	-1.07851	-0.250569
H	54.989	-0.0821384	1.17828
H	53.2239	-0.848538	-0.954628
