15
  This energy is -2.3455e-05 and Call times are: 48602
C	0.498223	-0.638249	1.7064
O	0.788074	-1.06339	0.599242
O	-0.283429	0.435908	1.89344
H	0.82578	-1.06151	2.66751
H	-0.542962	0.767794	0.993968
C	-0.498038	0.638386	-1.7064
O	-0.788378	1.06317	-0.599242
O	0.283565	-0.435805	-1.89344
H	-0.825049	1.06203	-2.66752
H	0.542693	-0.767985	-0.993965
C	51.4836	0.0994894	-0.220577
O	50.5026	0.140746	-0.945643
O	51.364	-0.211651	1.06953
H	52.4672	0.319658	-0.633953
H	50.4555	-0.378942	1.29407
