15
  This energy is -0.00243871 and Call times are: 2718
C	0.0585849	1.19384	1.46243
O	0.913489	0.938497	0.629062
O	-1.15235	0.616436	1.46546
H	0.159512	1.90602	2.29476
H	-1.17845	-0.0102535	0.695301
C	-0.0586691	-1.19367	-1.46257
O	-0.913351	-0.938776	-0.628844
O	1.15229	-0.61631	-1.46555
H	-0.159821	-1.90536	-2.29529
H	1.17856	0.0100089	-0.69511
C	5.23223	-0.298302	-0.0798591
O	5.65655	0.814426	0.187685
O	3.92174	-0.536824	-0.114963
H	5.93365	-1.10434	-0.292064
H	3.42928	0.250416	0.0887842
