15
  This energy is -2.126e-05 and Call times are: 22663
C	-0.581934	1.19742	1.33975
O	-1.16044	0.806142	0.33835
O	0.65802	0.80312	1.66658
H	-0.982649	1.90101	2.08443
H	0.959787	0.174118	0.959573
C	0.581849	-1.1976	-1.33963
O	1.16058	-0.805853	-0.338552
O	-0.658082	-0.803249	-1.66649
H	0.9823	-1.9017	-2.08396
H	-0.959657	-0.173869	-0.959745
C	13.2352	-0.186065	-0.317831
O	13.935	0.711788	-0.758321
O	13.2963	-0.52792	0.968607
H	12.5538	-0.712873	-0.984766
H	13.9285	0.0101968	1.43174
