15
  This energy is -1.5181e-05 and Call times are: 51038
C	1.38055	0.521998	-1.17856
O	0.177807	0.719212	-1.24983
O	1.95043	-0.151788	-0.168096
H	2.13477	0.857076	-1.9059
H	1.22107	-0.42427	0.44863
C	-1.38052	-0.521802	1.17867
O	-0.177856	-0.719534	1.24964
O	-1.95041	0.151932	0.168184
H	-2.13468	-0.856303	1.90636
H	-1.22111	0.423986	-0.448792
C	21.9507	-0.152466	0.400248
O	22.985	0.487972	0.499573
O	21.3791	-0.342316	-0.788331
H	21.4909	-0.572901	1.29386
H	21.8834	0.0766214	-1.47676
