15
  This energy is -0.00110408 and Call times are: 1310
C	-1.21611	-1.3413	0.537948
O	-0.0684768	-1.13754	0.90126
O	-1.83821	-0.579749	-0.374628
H	-1.87384	-2.14738	0.895418
H	-1.19522	0.123643	-0.654562
C	1.21603	1.34144	-0.537782
O	0.068611	1.13731	-0.901534
O	1.83815	0.579851	0.374751
H	1.87354	2.14792	-0.894758
H	1.19533	-0.123836	0.654319
C	5.20905	-0.183195	-0.13907
O	5.07196	0.959257	0.268115
O	6.40797	-0.764638	-0.144561
H	4.34094	-0.732371	-0.501682
H	7.07114	-0.175113	0.196676
