15
  This energy is -0.00356357 and Call times are: 31028
C	1.62561	-0.891006	0.361796
O	1.31999	0.277505	0.539979
O	0.782488	-1.79359	-0.161896
H	2.59819	-1.34793	0.597292
H	-0.0703822	-1.32076	-0.350595
C	-1.62569	0.89095	-0.361585
O	-1.31987	-0.277412	-0.540325
O	-0.782544	1.79355	0.162051
H	-2.59849	1.34774	-0.596463
H	0.0704855	1.32084	0.350291
C	7.84891	-0.356777	-0.237224
O	8.7556	0.26166	0.296848
O	6.58269	0.0329041	-0.0945297
H	8.07875	-1.23675	-0.836826
H	6.52749	0.809882	0.450479
