15
  This energy is 8.7904e-05 and Call times are: 25267
C	0.343479	-1.4009	-1.21939
O	-0.229867	-1.42759	-0.14183
O	0.859322	-0.278788	-1.74336
H	0.509988	-2.26116	-1.8845
H	0.676578	0.454672	-1.099
C	-0.343677	1.40094	1.21928
O	0.230194	1.42752	0.14201
O	-0.859468	0.278821	1.74328
H	-0.510774	2.26133	1.88409
H	-0.676291	-0.454728	1.09915
C	4.93927	-0.0198011	-0.111308
O	4.57733	1.11229	0.166465
O	4.081	-1.03823	-0.0701061
H	5.97557	-0.198169	-0.395855
H	3.21666	-0.741503	0.191899
