15
  This energy is -8.975e-06 and Call times are: 22789
C	-1.42128	1.01241	-0.722767
O	-1.07733	0.869913	0.439973
O	-0.788885	0.421744	-1.74793
H	-2.26567	1.62205	-1.07702
H	-0.0428726	-0.109348	-1.36327
C	1.42142	-1.01223	0.722743
O	1.0771	-0.870214	-0.439935
O	0.788988	-0.421609	1.74791
H	2.26621	-1.62134	1.07695
H	0.0426768	0.109084	1.36329
C	15.326	0.171425	0.400584
O	16.0286	-0.762807	0.0492982
O	14.3158	0.587779	-0.361993
H	15.5282	0.66941	1.34813
H	14.2541	0.0672783	-1.15512
