15
  This energy is -0.00146723 and Call times are: 9533
C	-1.21945	1.30166	-0.621303
O	-1.03066	0.160291	-1.01144
O	-0.531471	1.84916	0.391961
H	-1.95238	2.01209	-1.0315
H	0.10827	1.16152	0.715148
C	1.21929	-1.30173	0.621454
O	1.03092	-0.160171	1.01119
O	0.531354	-1.84921	-0.391849
H	1.95176	-2.0124	1.03207
H	-0.10804	-1.16141	-0.715357
C	4.57914	0.103708	0.133636
O	5.1383	1.03746	-0.418852
O	5.20022	-1.06454	0.29165
H	3.5612	0.228112	0.501103
H	6.07741	-1.03315	-0.0735031
