15
  This energy is -2.099e-05 and Call times are: 46712
C	-0.208904	0.633843	1.76692
O	0.569412	-0.195114	1.32237
O	-1.10845	1.27259	1.00365
H	-0.277405	0.959226	2.81553
H	-0.995065	0.936138	0.0760156
C	0.209055	-0.633673	-1.76696
O	-0.569661	0.194835	-1.3223
O	1.10857	-1.27247	-1.00368
H	0.278011	-0.958579	-2.81569
H	0.994843	-0.936375	-0.0759608
C	36.8095	0.33004	0.111404
O	36.44	-0.768114	0.495194
O	37.954	0.467967	-0.556842
H	36.1959	1.20614	0.318105
H	38.385	-0.372316	-0.666177
