15
  This energy is -1.1459e-05 and Call times are: 41504
C	0.38372	-1.78334	-0.489744
O	-0.469626	-1.02288	-0.918769
O	1.24961	-1.43815	0.475057
H	0.55398	-2.81791	-0.822678
H	1.04403	-0.500269	0.729394
C	-0.383569	1.78342	0.489586
O	0.469377	1.02275	0.919029
O	-1.2495	1.4382	-0.475174
H	-0.553407	2.8182	0.822048
H	-1.04424	0.500164	-0.729162
C	33.4054	-0.435364	0.0851264
O	33.2332	0.280153	1.05886
O	33.8273	0.0772364	-1.07019
H	33.2117	-1.50455	0.162783
H	33.9556	1.01632	-0.996543
