15
  This energy is 4.6728e-05 and Call times are: 9958
C	-1.71247	-0.792884	-0.0786789
O	-1.16817	-0.201225	0.840151
O	-1.12721	-0.985377	-1.2704
H	-2.72028	-1.23334	-0.0569718
H	-0.227457	-0.567186	-1.22428
C	1.71238	0.793081	0.0785997
O	1.16832	0.2009	-0.84002
O	1.12714	0.985522	1.27034
H	2.71993	1.23411	0.0566832
H	0.227588	0.566903	1.22438
C	8.27277	-0.264215	0.361433
O	7.70823	-0.85573	-0.544766
O	8.60864	1.0187	0.231652
H	8.50398	-0.792057	1.2859
H	8.34889	1.35164	-0.620083
