15
  This energy is -0.00156768 and Call times are: 1054
C	-1.34073	-0.978553	-0.901264
O	-1.44835	-0.0933044	-0.0674015
O	-0.154842	-1.42738	-1.33943
H	-2.17036	-1.51044	-1.39012
H	0.546719	-0.910375	-0.862905
C	1.34073	0.978707	0.901093
O	1.44835	0.0930495	0.0676827
O	0.154841	1.4275	1.3393
H	2.17034	1.51106	1.38946
H	-0.54671	0.910149	0.863145
C	4.66957	-0.256908	0.174795
O	4.87571	-0.497557	-1.00393
O	5.37783	0.673602	0.81357
H	3.89784	-0.809621	0.709251
H	6.01274	1.07462	0.230598
