15
  This energy is -1.4839e-05 and Call times are: 23461
C	-1.70795	-0.786904	0.176316
O	-0.988656	-0.695666	-0.805958
O	-1.36508	-0.301094	1.3789
H	-2.69943	-1.26231	0.209567
H	-0.466926	0.111646	1.28133
C	1.70805	0.786702	-0.176259
O	0.988497	0.695998	0.805864
O	1.36516	0.300945	-1.37886
H	2.69982	1.26152	-0.209365
H	0.466789	-0.111355	-1.2814
C	14.0098	0.136838	-0.138158
O	13.2285	1.06437	3.92487e-05
O	13.6294	-1.11611	0.108702
H	15.0289	0.336912	-0.46697
H	12.7206	-1.14504	0.386185
