15
  This energy is -9.867e-06 and Call times are: 42974
C	-1.70087	0.107253	-0.814207
O	-0.606062	-0.0895353	-1.31743
O	-1.87531	0.292795	0.502956
H	-2.65956	0.157691	-1.35135
H	-0.97877	0.235772	0.926666
C	1.70084	-0.107479	0.814238
O	0.606113	0.0899079	1.31738
O	1.87528	-0.292962	-0.502933
H	2.65946	-0.15858	1.35145
H	0.978811	-0.235447	-0.926701
C	56.3948	0.170723	0.409405
O	56.9844	0.751345	-0.487815
O	55.577	-0.846213	0.139939
H	56.5395	0.488375	1.44132
H	55.5448	-1.01551	-0.794983
