15
  This energy is -2.9814e-05 and Call times are: 3180
C	1.18056	-1.44159	0.309037
O	0.889661	-0.502487	1.03294
O	0.662456	-1.60453	-0.917663
H	1.88147	-2.25341	0.553636
H	0.0428123	-0.844523	-1.07575
C	-1.18073	1.44146	-0.30895
O	-0.889377	0.502694	-1.03308
O	-0.662584	1.60444	0.917726
H	-1.88215	2.25293	-0.55328
H	-0.0425677	0.8447	1.07562
C	17.263	0.245809	0.344616
O	17.8903	0.414803	-0.688687
O	16.223	-0.586463	0.381243
H	17.5576	0.78187	1.24604
H	16.0783	-0.984302	-0.469965
