15
  This energy is 1.161e-06 and Call times are: 45536
C	0.504336	-1.40696	1.15478
O	0.474468	-0.203488	1.3581
O	0.154505	-1.95737	-0.0175852
H	0.810783	-2.17729	1.87786
H	-0.109592	-1.21418	-0.621317
C	-0.504554	1.40694	-1.15471
O	-0.474109	0.203524	-1.35822
O	-0.154666	1.95735	0.017638
H	-0.811632	2.17722	-1.87756
H	0.109901	1.21421	0.621207
C	47.1395	0.398496	0.145539
O	46.6344	-0.549462	0.725194
O	48.057	0.206931	-0.801616
H	46.8361	1.41172	0.406341
H	48.2255	-0.720324	-0.926374
