15
  This energy is -6.687e-06 and Call times are: 49190
C	-1.36084	0.837426	1.0071
O	-0.178745	1.12435	0.902685
O	-1.9178	-0.203066	0.369172
H	-2.10458	1.37252	1.61593
H	-1.19885	-0.640211	-0.15864
C	1.36078	-0.837291	-1.00727
O	0.178832	-1.12457	-0.902389
O	1.91776	0.203165	-0.369305
H	2.10439	-1.37198	-1.61663
H	1.19892	0.640012	0.158893
C	38.496	-0.145551	-0.166642
O	37.6802	0.0959238	-1.04184
O	38.1861	0.0236779	1.11822
H	39.4879	-0.503272	-0.440309
H	37.2939	0.33816	1.21221
