15
  This energy is -1.65e-05 and Call times are: 50660
C	-1.84245	-0.0568167	0.411753
O	-1.25582	0.571585	-0.455162
O	-1.21426	-0.869328	1.27487
H	-2.9266	-0.0439663	0.597792
H	-0.246268	-0.836109	1.05478
C	1.84242	0.0566381	-0.411896
O	1.25586	-0.571291	0.455397
O	1.21424	0.869195	-1.27498
H	2.92649	0.0432826	-0.598369
H	0.246311	0.836359	-1.05457
C	25.0594	-0.432155	0.124329
O	25.1762	-0.271258	-1.07994
O	24.7864	0.597132	0.925303
H	25.1798	-1.42865	0.547649
H	24.7079	1.40239	0.426124
