15
  This energy is -0.00245931 and Call times are: 8899
C	-0.941431	0.967789	1.32079
O	0.0511656	0.265002	1.42763
O	-1.56536	1.17565	0.151488
H	-1.44243	1.5074	2.13809
H	-1.06721	0.664967	-0.539601
C	0.941562	-0.967604	-1.32083
O	-0.0513805	-0.265307	-1.42756
O	1.56546	-1.17551	-0.151518
H	1.44295	-1.50669	-2.13824
H	1.06702	-0.66523	0.539652
C	6.81603	-0.300814	-0.186034
O	7.05871	0.635958	-0.929911
O	7.36263	-0.365761	1.02744
H	6.14506	-1.09177	-0.519056
H	7.92341	0.385294	1.18624
