15
  This energy is 0.000585576 and Call times are: 11599
C	-1.62576	-0.508233	-0.816097
O	-0.582637	-0.129038	-1.3247
O	-1.78809	-0.631011	0.50993
H	-2.54224	-0.790988	-1.35486
H	-0.931245	-0.362674	0.934633
C	1.62583	0.508013	0.816088
O	0.582521	0.129399	1.32472
O	1.78814	0.630849	-0.509936
H	2.54253	0.790137	1.35481
H	0.931142	0.362986	-0.934611
C	7.05688	-0.343356	-0.251462
O	7.2123	0.740714	-0.790375
O	6.48064	-0.431527	0.946738
H	7.39341	-1.24792	-0.756663
H	6.23771	0.42917	1.26917
