15
  This energy is -0.00228254 and Call times are: 52971
C	1.34722	1.29764	0.261774
O	0.565675	0.811682	1.06402
O	1.36843	0.954748	-1.03505
H	2.11326	2.05544	0.483333
H	0.658653	0.272753	-1.16793
C	-1.34706	-1.29781	-0.26173
O	-0.565929	-0.811409	-1.06409
O	-1.36832	-0.954871	1.03508
H	-2.11267	-2.05609	-0.483144
H	-0.658872	-0.272517	1.16786
C	5.17302	-0.138055	-0.431222
O	4.08118	-0.0818946	0.111479
O	6.28123	0.186248	0.233783
H	5.24084	-0.456955	-1.47065
H	6.07694	0.444597	1.12558
