15
  This energy is -0.00204717 and Call times are: 29514
C	0.0333664	-0.0759825	1.88693
O	-0.670587	-0.681329	1.0941
O	0.967097	0.808554	1.50547
H	0.000368105	-0.168863	2.98258
H	0.945776	0.845284	0.513119
C	-0.0332074	0.0758157	-1.88694
O	0.670325	0.681603	-1.09409
O	-0.966979	-0.808677	-1.50547
H	0.000237189	0.168197	-2.98262
H	-0.945997	-0.845039	-0.513109
C	4.00597	-0.0346477	-0.221982
O	4.06937	-0.784507	0.738997
O	5.02338	0.770532	-0.525429
H	3.10721	-0.0245407	-0.837481
H	5.73835	0.658885	0.0911118
