15
  This energy is -2.062e-06 and Call times are: 40538
C	-1.16283	1.30198	0.721172
O	-1.17979	0.0873465	0.843466
O	-0.238646	1.94897	-0.00481653
H	-1.87638	2.00714	1.17256
H	0.370115	1.26071	-0.381992
C	1.16296	-1.30196	-0.720987
O	1.17956	-0.0873813	-0.843771
O	0.238747	-1.94896	0.0049535
H	1.8769	-2.00708	-1.17183
H	-0.370303	-1.26073	0.381723
C	32.8191	0.202306	-0.140317
O	33.5651	-0.0825137	-1.06337
O	33.1539	-0.0810532	1.1179
H	31.8693	0.693518	-0.348791
H	34.0033	-0.506421	1.15405
