15
  This energy is -1.839e-05 and Call times are: 40748
C	0.949982	-1.55424	-0.499289
O	1.19312	-0.381478	-0.736137
O	-0.118022	-1.94867	0.210334
H	1.55068	-2.4171	-0.822993
H	-0.614334	-1.12854	0.470397
C	-0.94986	1.55424	0.499484
O	-1.19332	0.381463	0.735816
O	0.118112	1.94867	-0.210189
H	-1.55019	2.41715	0.823747
H	0.614152	1.12852	-0.470671
C	35.1971	0.433969	-0.131915
O	34.4519	0.226682	0.812283
O	35.9111	-0.556327	-0.665752
H	35.2784	1.44003	-0.541706
H	35.7442	-1.37552	-0.213167
