15
  This energy is -6.588e-06 and Call times are: 48182
C	1.62407	0.475079	-0.8391
O	1.30665	-0.566675	-0.287226
O	0.798236	1.52741	-0.94091
H	2.59481	0.686674	-1.31139
H	-0.0538874	1.27318	-0.498402
C	-1.62415	-0.475156	0.838898
O	-1.30652	0.566803	0.287558
O	-0.798295	-1.52747	0.94076
H	-2.59512	-0.687	1.31061
H	0.0539965	-1.27306	0.498689
C	36.2059	-0.183858	-0.279937
O	35.8904	-0.936199	0.62795
O	35.6683	1.03169	-0.374607
H	36.935	-0.51096	-1.02026
H	35.0517	1.18466	0.332668
