15
  This energy is -0.000479747 and Call times are: 21007
C	-0.591362	-1.31036	-1.22501
O	-0.656847	-1.29595	-0.00596273
O	-0.0434125	-0.314563	-1.93769
H	-0.958911	-2.11195	-1.88267
H	0.266098	0.371652	-1.28971
C	0.591157	1.31047	1.22499
O	0.657184	1.29577	0.00598995
O	0.0432613	0.31464	1.93768
H	0.958107	2.11235	1.88263
H	-0.265802	-0.371796	1.28973
C	5.02782	0.386978	-0.0639105
O	5.72844	-0.600084	-0.220856
O	3.74106	0.263957	0.259546
H	5.46047	1.37876	-0.189952
H	3.498	-0.651859	0.336875
