15
  This energy is -0.00513586 and Call times are: 35485
C	-1.67894	0.476691	0.722025
O	-0.602213	1.04554	0.809411
O	-1.84569	-0.668581	0.0435541
H	-2.6256	0.812231	1.17081
H	-0.960717	-0.91531	-0.333946
C	1.67889	-0.476573	-0.722217
O	0.602298	-1.04573	-0.809096
O	1.84565	0.668667	-0.0436961
H	2.62542	-0.811755	-1.17155
H	0.960787	0.915134	0.334216
C	4.97714	0.362563	-0.243292
O	4.9142	-0.674369	-0.884073
O	5.37274	0.353552	1.02908
H	4.70665	1.30501	-0.717996
H	5.57656	-0.530393	1.31346
