15
  This energy is -7.283e-06 and Call times are: 51374
C	-1.41802	0.072476	-1.24554
O	-1.42583	0.276106	-0.0417798
O	-0.308385	-0.26169	-1.92143
H	-2.28733	0.132668	-1.91698
H	0.434139	-0.29875	-1.26276
C	1.41806	-0.0722537	1.2455
O	1.42575	-0.276472	0.0418484
O	0.308418	0.261854	1.9214
H	2.2875	-0.131795	1.91684
H	-0.434197	0.29843	1.26281
C	13.0666	0.379186	-0.0863807
O	14.0435	0.25639	-0.807659
O	12.7793	-0.541356	0.833184
H	12.4233	1.25137	-0.196661
H	13.4199	-1.24367	0.820081
