15
  This energy is -0.00306862 and Call times are: 25876
C	1.64098	0.0825381	-0.931544
O	0.899353	-0.86827	-0.740426
O	1.38049	1.31491	-0.469825
H	2.58971	0.0607264	-1.48795
H	0.517299	1.26662	0.0191832
C	-1.64109	-0.0824854	0.931349
O	-0.899171	0.868183	0.740747
O	-1.38057	-1.31487	0.469681
H	-2.59015	-0.0605418	1.48719
H	-0.51714	-1.26668	-0.0189021
C	5.23041	0.258174	0.257693
O	4.68339	-0.769532	-0.108895
O	6.48586	0.525873	-0.0996521
H	4.68516	0.963408	0.883832
H	6.83864	-0.170406	-0.642343
