15
  This energy is -2.6627e-05 and Call times are: 42680
C	0.806617	-1.70751	-0.0343766
O	0.873318	-0.79673	-0.844687
O	0.0902072	-1.62605	1.09695
H	1.30611	-2.68415	-0.117039
H	-0.332007	-0.727101	1.11058
C	-0.806434	1.70759	0.0344901
O	-0.87362	0.796595	0.8445
O	-0.0900719	1.62611	-1.09686
H	-1.30539	2.68448	0.117463
H	0.331741	0.726982	-1.11073
C	51.1117	-0.427983	0.100414
O	49.9153	-0.290898	-0.0983643
O	51.9397	0.612456	0.0141601
H	51.5057	-1.41223	0.351
H	51.4647	1.40479	-0.210235
