15
  This energy is -0.00148641 and Call times are: 11387
C	-0.921115	1.28565	-1.03249
O	-1.23593	0.763409	0.0252031
O	0.221894	1.001	-1.67458
H	-1.50931	2.03375	-1.58434
H	0.702522	0.324823	-1.12838
C	0.921224	-1.28548	1.03261
O	1.23575	-0.76369	-0.0253864
O	-0.221813	-1.00088	1.67466
H	1.50972	-2.03309	1.5848
H	-0.70267	-0.325067	1.12821
C	4.56886	-0.0174661	-0.420618
O	4.88946	-0.983514	0.252998
O	3.80336	0.945553	0.0913584
H	4.91299	0.0570144	-1.45151
H	3.5773	0.753421	0.994551
