15
  This energy is 0.000162857 and Call times are: 3684
C	1.57681	-0.174462	-1.025
O	1.36577	-0.475682	0.139174
O	0.642548	0.371793	-1.81779
H	2.52672	-0.304557	-1.56437
H	-0.184275	0.461736	-1.27481
C	-1.57688	0.174253	1.02493
O	-1.36566	0.476026	-0.139058
O	-0.642597	-0.371947	1.81774
H	-2.52697	0.303732	1.56411
H	0.184365	-0.461433	1.2749
C	8.20794	0.368043	0.264991
O	7.6372	-0.574527	0.789972
O	8.72696	0.254647	-0.957005
H	8.29325	1.31175	0.802439
H	8.581	-0.617238	-1.3067
