15
  This energy is -2.7233e-05 and Call times are: 44948
C	1.43516	-0.908863	-0.825651
O	1.19671	-0.741143	0.359924
O	0.648121	-0.432819	-1.80224
H	2.29611	-1.45316	-1.24117
H	-0.104616	0.0441883	-1.36359
C	-1.43528	0.908667	0.825649
O	-1.19651	0.741465	-0.359922
O	-0.648211	0.432675	1.80224
H	-2.29659	1.45239	1.24119
H	0.104787	-0.0439062	1.36359
C	55.3823	-0.300072	-0.339679
O	56.1469	-0.642435	0.547932
O	54.7063	0.844836	-0.251774
H	55.252	-0.938417	-1.21274
H	54.9144	1.29907	0.557003
