15
  This energy is -0.000105983 and Call times are: 31322
C	1.52057	-0.91055	-0.652824
O	1.44885	0.051358	0.0956162
O	0.43982	-1.51615	-1.16761
H	2.4467	-1.3953	-0.995542
H	-0.356859	-1.0341	-0.821929
C	-1.52057	0.910405	0.653002
O	-1.44884	-0.0511189	-0.0959107
O	-0.439825	1.51604	1.16775
H	-2.44672	1.39475	0.996254
H	0.356864	1.03431	0.821669
C	9.12435	-0.433059	-0.052308
O	9.96514	0.348704	-0.466682
O	7.98773	0.0104758	0.483316
H	9.30641	-1.50485	-0.121733
H	7.96096	0.960767	0.480561
