15
  This energy is -0.00115593 and Call times are: 19962
C	-0.0580885	1.4792	1.17303
O	-0.744156	0.469445	1.15621
O	0.922148	1.70967	0.286583
H	-0.145762	2.30839	1.8906
H	0.94882	0.929782	-0.327924
C	0.0582419	-1.4793	-1.17289
O	0.743903	-0.469278	-1.15643
O	-0.922034	-1.70975	-0.28648
H	0.146346	-2.30881	-1.89005
H	-0.949032	-0.929634	0.32772
C	4.21827	-0.288413	-0.207808
O	5.16027	-0.854791	0.322893
O	4.09619	1.03685	-0.142358
H	3.46986	-0.873956	-0.740475
H	4.81453	1.41862	0.34959
