15
  This energy is 0.00039224 and Call times are: 2171
C	0.484737	-0.846179	1.61753
O	-0.0703763	-1.30624	0.632258
O	0.86561	0.437034	1.70739
H	0.739678	-1.39972	2.53337
H	0.608657	0.877782	0.855174
C	-0.48453	0.846127	-1.61762
O	0.0700355	1.30632	-0.632115
O	-0.865456	-0.437072	-1.70746
H	-0.73888	1.3995	-2.53372
H	-0.60895	-0.877699	-0.855048
C	6.43812	-0.0321704	0.430846
O	5.54926	0.79142	0.284473
O	6.90257	-0.72449	-0.608622
H	6.8554	-0.202115	1.42266
H	6.45175	-0.477053	-1.40819
