15
  This energy is 0.000534372 and Call times are: 25323
C	-0.592892	-0.519244	1.71647
O	0.490333	-0.691198	1.18016
O	-1.61044	0.117352	1.11722
H	-0.873516	-0.850223	2.72734
H	-1.29429	0.388203	0.215413
C	0.592962	0.519445	-1.71638
O	-0.490449	0.690867	-1.1803
O	1.6105	-0.117203	-1.11715
H	0.873814	0.851002	-2.727
H	1.29418	-0.388487	-0.215541
C	6.28363	-0.41396	0.184684
O	5.93006	-0.40826	-0.98354
O	6.66337	0.712611	0.786472
H	6.28833	-1.35098	0.740268
H	6.61079	1.44967	0.188347
