15
  This energy is -0.000448269 and Call times are: 17655
C	0.280605	-1.45902	1.16616
O	-0.252762	-0.381604	1.37893
O	0.790674	-1.79709	-0.0277028
H	0.411636	-2.27093	1.89676
H	0.641071	-1.02725	-0.637234
C	-0.280807	1.45893	-1.16622
O	0.253094	0.381756	-1.37883
O	-0.790823	1.79702	0.0276555
H	-0.412435	2.27059	-1.897
H	-0.640779	1.02738	0.637318
C	3.71566	0.190843	0.297434
O	4.69598	-0.298872	0.83497
O	3.56441	0.132952	-1.02517
H	2.95682	0.680298	0.906784
H	4.29626	-0.319368	-1.42963
