15
  This energy is 0.000313753 and Call times are: 13603
C	-1.5189	-0.363027	1.06233
O	-1.03314	0.708466	0.735974
O	-1.00378	-1.54263	0.684234
H	-2.41264	-0.503803	1.68809
H	-0.205675	-1.34686	0.12633
C	1.51877	0.363026	-1.06252
O	1.03336	-0.708463	-0.735665
O	1.00368	1.54263	-0.684373
H	2.41212	0.503821	-1.68883
H	0.205868	1.34685	-0.126063
C	6.27801	-0.0870201	-0.385858
O	7.48655	-0.0245078	-0.544985
O	5.74004	0.0917102	0.820029
H	5.63328	-0.291228	-1.23987
H	6.41379	0.260811	1.46907
