15
  This energy is -1.276e-05 and Call times are: 32876
C	1.45125	-1.13501	0.415961
O	0.3697	-1.01668	0.96987
O	1.80126	-0.416401	-0.661475
H	2.25788	-1.82158	0.712839
H	1.03561	0.178751	-0.87627
C	-1.45134	1.13485	-0.4161
O	-0.36956	1.01695	-0.96964
O	-1.80132	0.41628	0.661371
H	-2.25822	1.82094	-0.713369
H	-1.03548	-0.178515	0.876462
C	11.0837	-0.286867	-0.35097
O	9.98509	-0.0874779	0.142111
O	12.1691	0.308662	0.141598
H	11.1764	-0.959268	-1.20302
H	11.9444	0.864586	0.879296
