15
  This energy is 0.000517606 and Call times are: 14607
C	-1.23966	-0.00737658	1.42499
O	-0.193955	0.611013	1.30384
O	-1.70447	-0.845096	0.485872
H	-1.91962	0.0354321	2.28869
H	-1.04965	-0.838107	-0.260942
C	1.23954	0.0075483	-1.42509
O	0.194149	-0.611296	-1.30368
O	1.70438	0.845223	-0.485945
H	1.91918	-0.0347471	-2.28907
H	1.04982	0.837855	0.261078
C	5.04012	-0.351282	0.238281
O	4.86107	0.716672	0.801492
O	5.64695	-0.40251	-0.946897
H	4.69961	-1.27187	0.710803
H	5.88974	0.468551	-1.24029
