15
  This energy is 0.000124481 and Call times are: 2424
C	1.128	-0.799379	1.28686
O	1.3312	-0.572666	0.10454
O	-0.02346	-0.48925	1.90146
H	1.83467	-1.27161	1.98527
H	-0.613177	-0.0695933	1.22125
C	-1.12792	0.799586	-1.2868
O	-1.33133	0.572326	-0.104636
O	0.0235213	0.489403	-1.90142
H	-1.83434	1.27241	-1.98506
H	0.613051	0.069299	-1.22133
C	8.10553	-0.0261276	0.442867
O	7.29445	-0.625193	-0.24493
O	9.1323	0.612888	-0.116514
H	7.98753	-0.0145398	1.52576
H	9.11284	0.520928	-1.06253
