15
  This energy is -0.000709027 and Call times are: 12106
C	0.357851	1.34086	1.28119
O	0.817874	1.19009	0.160373
O	-0.546481	0.506981	1.81654
H	0.611934	2.15104	1.98063
H	-0.731314	-0.196116	1.13974
C	-0.358023	-1.34073	-1.28127
O	-0.817591	-1.1903	-0.160236
O	0.546353	-0.506886	-1.8166
H	-0.612594	-2.15053	-1.98097
H	0.731554	0.195928	-1.13962
C	4.77348	0.118211	-0.437106
O	5.83987	0.429983	0.0682557
O	3.83567	-0.500417	0.279365
H	4.58766	0.348811	-1.48544
H	4.12917	-0.638497	1.17299
