15
  This energy is -1.8396e-05 and Call times are: 48056
C	1.08869	-0.0406372	-1.54289
O	0.767871	-0.946922	-0.790362
O	0.682608	1.22663	-1.37291
H	1.73103	-0.134634	-2.43099
H	0.110927	1.24316	-0.560835
C	-1.08888	0.0405986	1.54276
O	-0.767567	0.946985	0.79058
O	-0.682745	-1.22666	1.37281
H	-1.73175	0.134463	2.43048
H	-0.110664	-1.2431	0.561023
C	30.0815	0.208388	0.385068
O	31.077	0.697281	-0.124622
O	29.4623	-0.824637	-0.185005
H	29.6961	0.622061	1.31621
H	29.9029	-1.08207	-0.987149
