15
  This energy is -4.6285e-05 and Call times are: 16645
C	1.79784	0.315998	0.485111
O	1.29926	0.189355	-0.622117
O	1.08426	0.243405	1.61883
H	2.86128	0.50023	0.697955
H	0.140148	0.0770658	1.35894
C	-1.79787	-0.31577	-0.485116
O	-1.2992	-0.18973	0.622125
O	-1.08429	-0.243236	-1.61883
H	-2.86142	-0.499342	-0.697997
H	-0.140099	-0.0773913	-1.35892
C	15.6031	-0.307589	0.151537
O	15.2582	0.837016	0.398024
O	16.7417	-0.550917	-0.496368
H	14.9721	-1.13839	0.465221
H	17.1898	0.260193	-0.708761
