15
  This energy is 6.5831e-05 and Call times are: 27702
C	-0.276667	-1.6097	-0.948541
O	0.696253	-0.872365	-0.930145
O	-1.38893	-1.36724	-0.238717
H	-0.37194	-2.53988	-1.52806
H	-1.23898	-0.520265	0.257978
C	0.276751	1.60958	0.948718
O	-0.69639	0.872565	0.929853
O	1.389	1.36715	0.238849
H	0.372287	2.53941	1.52875
H	1.23885	0.520438	-0.258227
C	11.5582	-0.407216	-0.122012
O	10.4978	-0.135898	-0.662212
O	12.1302	0.449259	0.723428
H	12.0412	-1.36032	-0.334254
H	11.6041	1.2357	0.815485
