15
  This energy is -0.00260405 and Call times are: 15642
C	-0.741797	1.69442	-0.382208
O	-0.978357	0.929052	0.539109
O	0.155436	1.42455	-1.34237
H	-1.21409	2.67435	-0.546026
H	0.542523	0.533074	-1.13745
C	0.741963	-1.69432	0.38233
O	0.978083	-0.929221	-0.53931
O	-0.155313	-1.42447	1.34246
H	1.21473	-2.67395	0.546523
H	-0.542755	-0.533221	1.13727
C	3.81574	0.436137	0.123595
O	3.87798	-0.323175	1.0772
O	3.71374	-0.0370851	-1.11784
H	3.84399	1.51224	0.29064
H	3.70015	-0.98766	-1.11722
