15
  This energy is 0.000235998 and Call times are: 33212
C	1.45897	-0.581413	1.04917
O	0.276053	-0.493724	1.33828
O	1.94113	-0.25001	-0.158088
H	2.26267	-0.931211	1.7139
H	1.17085	0.0551087	-0.705941
C	-1.459	0.581197	-1.04925
O	-0.276004	0.49408	-1.33816
O	-1.94115	0.249851	0.158032
H	-2.26281	0.930365	-1.71418
H	-1.17081	-0.0547981	0.70604
C	8.87838	0.251439	-0.369288
O	8.0482	-0.621649	-0.565002
O	9.45059	0.391066	0.825952
H	9.15363	0.923196	-1.1815
H	9.11949	-0.25752	1.43709
