15
  This energy is -2.542e-05 and Call times are: 39908
C	1.48537	-0.874755	0.771942
O	1.35091	0.294265	0.446538
O	0.517558	-1.79079	0.616998
H	2.38506	-1.32156	1.22035
H	-0.260958	-1.32655	0.210849
C	-1.48545	0.8748	-0.771731
O	-1.35078	-0.294339	-0.446886
O	-0.517618	1.79082	-0.616842
H	-2.38537	1.32176	-1.21953
H	0.261068	1.32648	-0.211151
C	36.3156	0.321534	-0.146455
O	36.9003	0.643838	0.87533
O	36.5394	-0.863058	-0.714039
H	35.6032	1.01079	-0.59829
H	37.18	-1.36007	-0.217693
