15
  This energy is -8.395e-06 and Call times are: 22999
C	0.352802	1.85184	-0.116718
O	1.11461	0.925359	0.111015
O	-0.959416	1.67983	-0.336417
H	0.627043	2.91579	-0.171154
H	-1.14018	0.705158	-0.273906
C	-0.352765	-1.85186	0.116491
O	-1.11467	-0.925328	-0.110642
O	0.959443	-1.67984	0.336249
H	-0.626877	-2.91587	0.170273
H	1.14012	-0.70513	0.274228
C	12.8814	0.389697	0.144774
O	12.7889	-0.442136	1.03319
O	12.4729	0.112173	-1.09282
H	13.3027	1.36931	0.367414
H	12.1291	-0.772616	-1.14489
