15
  This energy is -1.0471e-05 and Call times are: 3012
C	0.112304	1.68648	-0.842953
O	-0.204683	1.4063	0.302294
O	0.457131	0.761347	-1.75124
H	0.15723	2.69841	-1.27207
H	0.396464	-0.123342	-1.3038
C	-0.112083	-1.68646	0.843014
O	0.204319	-1.40633	-0.302395
O	-0.456967	-0.761333	1.75129
H	-0.156371	-2.69834	1.27233
H	-0.396778	0.123311	1.3037
C	13.3631	0.291394	0.319496
O	12.4382	-0.34145	-0.164252
O	14.6137	0.0941512	-0.0958489
H	13.1625	1.02518	1.09925
H	14.6434	-0.569954	-0.77545
