15
  This energy is -4.5853e-05 and Call times are: 52172
C	0.432139	1.16668	1.42109
O	1.16771	0.561086	0.657711
O	-0.90574	1.08788	1.36075
H	0.752934	1.83555	2.23341
H	-1.12816	0.473552	0.612617
C	-0.432146	-1.1665	-1.42124
O	-1.1677	-0.561384	-0.657475
O	0.905734	-1.08774	-1.36085
H	-0.752942	-1.83485	-2.23398
H	1.12816	-0.473809	-0.612411
C	9.78253	0.346323	0.28105
O	10.5534	0.317176	-0.664852
O	8.82653	-0.57308	0.408693
H	9.87824	1.13312	1.02838
H	8.85793	-1.19534	-0.309347
