15
  This energy is -0.00152726 and Call times are: 27365
C	-0.318101	-1.51145	1.08708
O	-0.0721733	-0.358901	1.40604
O	-0.406525	-1.91154	-0.190369
H	-0.494532	-2.34959	1.7774
H	-0.238456	-1.11396	-0.757978
C	0.317875	1.51149	-1.08708
O	0.0725458	0.358828	-1.40604
O	0.406358	1.91157	0.190368
H	0.493652	2.34978	-1.77739
H	0.238778	1.11389	0.757972
C	3.55045	0.370407	0.0791353
O	4.08524	0.391848	-1.01783
O	3.72617	-0.662782	0.902032
H	2.92288	1.20571	0.387569
H	4.29324	-1.31617	0.507963
