15
  This energy is -1.3837e-05 and Call times are: 40454
C	-0.311699	-1.32194	1.31252
O	0.690966	-1.09893	0.652598
O	-1.43735	-0.601656	1.19478
H	-0.426183	-2.11469	2.06658
H	-1.26888	0.0916936	0.503806
C	0.31177	1.32209	-1.31236
O	-0.691084	1.09869	-0.65287
O	1.4374	0.601763	-1.19466
H	0.426484	2.11525	-2.06594
H	1.26877	-0.0918959	-0.504041
C	37.5498	0.133715	-0.354206
O	38.1776	0.145482	0.69244
O	36.2719	-0.243076	-0.377251
H	38.0407	0.434783	-1.27889
H	35.973	-0.478018	0.494083
