15
  This energy is -3.3321e-05 and Call times are: 51668
C	-1.43012	0.223074	-1.21342
O	-0.884257	-0.799634	-0.830443
O	-1.06573	1.44465	-0.795402
H	-2.26491	0.281807	-1.92746
H	-0.313788	1.32244	-0.158062
C	1.42997	-0.223085	1.2136
O	0.884506	0.799652	0.830157
O	1.06562	-1.44466	0.79553
H	2.26432	-0.281872	1.92813
H	0.314005	-1.32241	0.157816
C	10.771	0.171409	0.38354
O	10.3586	-0.968832	0.523447
O	10.694	0.782986	-0.797798
H	11.2066	0.693664	1.23457
H	10.2948	0.21492	-1.44716
