15
  This energy is -6.385e-05 and Call times are: 23545
C	0.653837	1.75605	-0.237019
O	0.417313	1.14398	0.792541
O	0.469236	1.22968	-1.45711
H	1.03667	2.7852	-0.303789
H	0.125403	0.306884	-1.32755
C	-0.65362	-1.75613	0.237017
O	-0.41767	-1.14385	-0.792538
O	-0.469076	-1.22974	1.45711
H	-1.03582	-2.78551	0.303804
H	-0.125713	-0.306773	1.32754
C	9.6685	0.00173267	0.365575
O	8.48289	0.00882293	0.65552
O	10.0576	-0.0097226	-0.908789
H	10.4157	0.00481637	1.15827
H	9.30647	-0.0111685	-1.49156
