15
  This energy is -0.000800756 and Call times are: 21364
C	1.66731	-0.0378276	0.8866
O	0.852068	-0.931178	0.719616
O	1.48645	1.20965	0.427414
H	2.62683	-0.129137	1.41683
H	0.608903	1.22479	-0.0376112
C	-1.6672	0.0377733	-0.886797
O	-0.852243	0.931267	-0.719291
O	-1.48637	-1.20969	-0.42756
H	-2.62642	0.128904	-1.4176
H	-0.609054	-1.2247	0.037891
C	6.09661	0.200612	0.395172
O	7.00929	-0.502136	-0.00849544
O	4.96773	0.317841	-0.302978
H	6.20744	0.7373	1.33665
H	5.00687	-0.201055	-1.09859
