15
  This energy is -3.0146e-05 and Call times are: 22957
C	-1.57111	-0.0287643	-1.04795
O	-1.44248	0.0606651	0.162851
O	-0.528791	-0.128761	-1.8866
H	-2.52387	-0.0392914	-1.59776
H	0.294657	-0.113411	-1.33139
C	1.57112	0.0289937	1.04792
O	1.44247	-0.0610427	-0.162815
O	0.528797	0.128931	1.88659
H	2.52389	0.0401894	1.5977
H	-0.294662	0.113083	1.33142
C	14.4616	0.228805	-0.197093
O	14.1262	-0.890014	0.157246
O	15.7048	0.663137	0.0061464
H	13.7356	0.878358	-0.684716
H	16.2288	-0.00198913	0.438309
