15
  This energy is -5.9004e-05 and Call times are: 8185
C	1.0208	-0.556351	-1.48857
O	0.0590571	-1.0901	-0.958729
O	1.54117	0.602435	-1.05705
H	1.57277	-0.937732	-2.36037
H	1.00162	0.890875	-0.274584
C	-1.02094	0.556469	1.48843
O	-0.0588295	1.0899	0.958962
O	-1.54127	-0.602347	1.05694
H	-1.57333	0.938178	2.35982
H	-1.00141	-0.891037	0.274788
C	10.8893	-0.114738	-0.330007
O	11.4525	0.107717	0.729736
O	9.56465	-0.0117468	-0.431632
H	11.4771	-0.400515	-1.2015
H	9.18067	0.243568	0.39972
