15
  This energy is -1.3443e-05 and Call times are: 32624
C	-1.41612	0.980206	0.775367
O	-0.30667	1.35388	0.428876
O	-1.83114	-0.289085	0.647169
H	-2.19931	1.60928	1.22375
H	-1.0836	-0.800473	0.239457
C	1.41604	-0.98016	-0.775576
O	0.30681	-1.35395	-0.428532
O	1.83108	0.289118	-0.647324
H	2.19899	-1.60908	-1.22457
H	1.08372	0.800399	-0.239158
C	15.5978	0.069252	-0.436466
O	14.6062	0.0110354	0.272894
O	16.8167	-0.0649614	0.0849815
H	15.4837	0.232763	-1.50742
H	16.7692	-0.20149	1.0246
