15
  This energy is -0.000107039 and Call times are: 20428
C	-0.506238	-0.250247	1.80236
O	-0.0720719	0.745461	1.24501
O	-0.705521	-1.41403	1.16543
H	-0.78358	-0.327624	2.86408
H	-0.43794	-1.27777	0.218653
C	0.506022	0.250308	-1.80241
O	0.0724285	-0.745561	-1.24493
O	0.705361	1.41407	-1.16547
H	0.782741	0.327884	-2.86428
H	0.438247	1.27767	-0.218584
C	8.41653	-0.356975	0.279346
O	8.22661	-0.68	-0.88228
O	8.55127	0.925212	0.61603
H	8.47633	-1.12631	1.04827
H	8.47802	1.48505	-0.148817
