15
  This energy is -0.00184129 and Call times are: 10715
C	0.702149	0.271839	-1.73219
O	0.980816	0.827454	-0.68138
O	-0.222272	-0.696185	-1.82247
H	1.15376	0.480522	-2.71334
H	-0.588639	-0.835479	-0.909817
C	-0.701988	-0.272	1.73223
O	-0.981081	-0.827189	0.681318
O	0.22239	0.696065	1.8225
H	-1.15313	-0.481136	2.7135
H	0.588404	0.835702	0.909761
C	4.09534	-0.0375626	0.201438
O	4.94881	0.416481	0.94657
O	4.39328	-0.365021	-1.05535
H	3.07932	-0.176102	0.569158
H	5.30966	-0.193364	-1.24124
