15
  This energy is -3.5954e-05 and Call times are: 47090
C	0.139672	0.801086	1.70475
O	1.01766	0.477273	0.920618
O	-1.1657	0.621387	1.45276
H	0.292125	1.26747	2.68933
H	-1.23419	0.199986	0.555935
C	-0.139686	-0.800876	-1.70484
O	-1.01764	-0.477618	-0.920462
O	1.16568	-0.621232	-1.45283
H	-0.292157	-1.26666	-2.68971
H	1.2342	-0.200286	-0.555799
C	34.6332	0.0643542	0.118161
O	33.8543	0.388199	1.00032
O	34.1866	-0.418441	-1.04073
H	35.7049	0.171709	0.281344
H	33.2368	-0.45801	-1.04695
