15
  This energy is -2.7007e-05 and Call times are: 38900
C	0.897631	-1.66034	-0.0702061
O	1.11063	-0.68758	0.636149
O	-0.0882971	-1.69969	-0.979146
H	1.46363	-2.60357	-0.0592071
H	-0.557135	-0.824978	-0.938776
C	-0.897775	1.66025	0.0703628
O	-1.1104	0.687724	-0.636407
O	0.0881895	1.69963	0.979261
H	-1.46419	2.60324	0.0598351
H	0.557336	0.8251	0.938546
C	27.1397	-0.423488	0.0829752
O	26.0488	-0.185386	0.57588
O	27.7913	0.508953	-0.61091
H	27.5844	-1.40948	0.212501
H	27.291	1.31664	-0.644519
