15
  This energy is -0.000238193 and Call times are: 24748
C	-0.316338	0.0411292	-1.86162
O	0.337568	0.800678	-1.16444
O	-0.96304	-1.02619	-1.36929
H	-0.460097	0.124037	-2.94911
H	-0.794073	-1.04361	-0.390669
C	0.316523	-0.0412617	1.86159
O	-0.337873	-0.80046	1.1645
O	0.963176	1.02609	1.36927
H	0.460834	-0.124537	2.94897
H	0.793804	1.04379	0.390722
C	4.84444	0.14538	-0.427351
O	5.71326	-0.651505	-0.111255
O	3.89978	0.502828	0.44176
H	4.84245	0.568248	-1.43129
H	4.0215	0.0603426	1.27433
