15
  This energy is -4.9373e-05 and Call times are: 52088
C	0.50382	1.55737	0.942425
O	-0.551479	0.943616	0.957298
O	1.5521	1.18736	0.191439
H	0.732189	2.4646	1.52116
H	1.28261	0.368641	-0.302162
C	-0.503738	-1.5575	-0.942252
O	0.551344	-0.943404	-0.957582
O	-1.55204	-1.18745	-0.191312
H	-0.73189	-2.46511	-1.52048
H	-1.28272	-0.368458	0.30191
C	10.0401	0.378044	-0.20783
O	10.5989	-0.622115	-0.628805
O	9.12758	0.291861	0.759322
H	10.2911	1.35117	-0.628254
H	9.00766	-0.611102	1.03145
