15
  This energy is -1.5531e-05 and Call times are: 47594
C	1.87791	0.0284851	-0.200092
O	1.04383	-0.6633	-0.762506
O	1.55971	0.949404	0.722094
H	2.96488	-0.00657346	-0.365735
H	0.571871	0.930702	0.824042
C	-1.87793	-0.0283234	0.199929
O	-1.0438	0.663034	0.762775
O	-1.55972	-0.949284	-0.722214
H	-2.96495	0.00718927	0.365083
H	-0.571846	-0.930926	-0.823802
C	32.5794	-0.152132	0.0756663
O	33.4336	-0.976576	0.359421
O	32.9202	1.04497	-0.400079
H	31.5274	-0.398965	0.213336
H	33.865	1.1249	-0.469007
