15
  This energy is 2.4636e-05 and Call times are: 53531
C	1.27496	1.03898	-0.928654
O	1.00164	-0.14548	-1.04236
O	0.6597	1.84862	-0.0536088
H	2.03507	1.58535	-1.50647
H	-0.00930068	1.29822	0.432246
C	-1.27512	-1.03892	0.928495
O	-1.00138	0.145388	1.04262
O	-0.659817	-1.84858	0.0534919
H	-2.03569	-1.58515	1.50584
H	0.00952338	-1.29829	-0.432015
C	12.696	-0.341414	0.0396083
O	12.6597	0.364476	1.03469
O	11.921	-0.076598	-1.01147
H	13.3698	-1.19696	0.0117857
H	11.3865	0.693278	-0.851983
