15
  This energy is -0.00237373 and Call times are: 18118
C	-0.44422	0.396245	-1.7925
O	-0.434404	1.12374	-0.812077
O	-0.113644	-0.902881	-1.73993
H	-0.71536	0.694505	-2.81606
H	0.118862	-1.10659	-0.796001
C	0.44444	-0.396194	1.79246
O	0.434041	-1.12382	0.812152
O	0.113807	0.902918	1.7399
H	0.716218	-0.694286	2.8159
H	-0.119175	1.10651	0.796065
C	4.46143	0.406222	0.192222
O	5.49479	-0.0574323	-0.262729
O	3.31443	-0.265312	0.0976241
H	4.47844	1.37978	0.680697
H	3.44398	-1.09441	-0.349123
