15
  This energy is -0.000319518 and Call times are: 52845
C	1.7702	-0.077652	0.654025
O	0.760371	0.355997	1.18577
O	1.77515	-0.608422	-0.578059
H	2.77776	-0.0924438	1.09535
H	0.842805	-0.565296	-0.917828
C	-1.77024	0.0774422	-0.653938
O	-0.760307	-0.355652	-1.18592
O	-1.77517	0.608267	0.578123
H	-2.77793	0.0916336	-1.09499
H	-0.842747	0.565592	0.917696
C	5.85828	-0.025791	-0.0997724
O	6.4079	0.915835	-0.648449
O	6.54544	-0.847386	0.692885
H	4.79428	-0.195234	-0.26071
H	7.4575	-0.584018	0.743457
