15
  This energy is -0.00130908 and Call times are: 36584
C	-0.72338	-0.0899203	1.74242
O	-0.539642	0.879265	1.02305
O	-0.412915	-1.34166	1.37292
H	-1.15283	-0.071203	2.75503
H	-0.0329451	-1.28943	0.456705
C	0.723169	0.0898905	-1.74251
O	0.53999	-0.879216	-1.02291
O	0.412758	1.34164	-1.37299
H	1.15201	0.0711084	-2.75538
H	0.0332486	1.28946	-0.456582
C	4.47055	0.0780528	0.445847
O	3.43139	-0.358402	-0.0226162
O	5.53561	0.278126	-0.329485
H	4.52654	0.306103	1.5096
H	5.34789	0.038568	-1.23012
