15
  This energy is -0.00196605 and Call times are: 1875
C	0.568712	1.501	-0.995472
O	-0.07777	1.45031	0.0389668
O	1.00909	0.406738	-1.63455
H	0.868129	2.41676	-1.5264
H	0.70769	-0.379594	-1.10787
C	-0.568514	-1.50099	0.995591
O	0.0774449	-1.45032	-0.0391622
O	-1.00895	-0.406734	1.63464
H	-0.867369	-2.41673	1.52688
H	-0.707969	0.379579	1.10769
C	4.38045	0.330239	0.134273
O	3.843	-0.237414	1.07166
O	4.12276	-0.0349887	-1.121
H	5.07822	1.1442	0.327382
H	3.50015	-0.753074	-1.1431
