15
  This energy is -0.000191995 and Call times are: 5537
C	-1.47045	0.531455	-1.0596
O	-0.34164	0.993256	-1.00383
O	-1.86998	-0.509894	-0.314117
H	-2.28526	0.892066	-1.70473
H	-1.09401	-0.785654	0.241213
C	1.47051	-0.531602	1.05943
O	0.341536	-0.993014	1.00411
O	1.87002	0.509785	0.313994
H	2.28552	-0.892626	1.70408
H	1.09391	0.785857	-0.240972
C	5.55886	0.446075	-0.0711599
O	6.41983	0.18086	0.752363
O	4.85565	-0.522443	-0.656799
H	5.36423	1.48636	-0.329288
H	5.12766	-1.37654	-0.34008
