15
  This energy is -0.00122969 and Call times are: 30463
C	0.871841	1.62818	0.395365
O	1.3045	0.622894	-0.145715
O	-0.393726	1.73681	0.827008
H	1.43888	2.54923	0.596116
H	-0.847962	0.878767	0.617266
C	-0.871906	-1.6281	-0.395569
O	-1.3044	-0.623037	0.14605
O	0.393677	-1.73675	-0.827158
H	-1.43912	-2.54891	-0.596922
H	0.848047	-0.878888	-0.616972
C	5.0753	0.000113955	-0.360481
O	5.00612	-1.09437	0.175341
O	4.38803	1.03675	0.1176
H	5.70619	0.129514	-1.23909
H	3.88274	0.783698	0.882076
