15
  This energy is -3.5966e-05 and Call times are: 51878
C	0.0879437	-1.86156	0.307019
O	-0.103026	-0.94903	1.0953
O	0.280517	-1.66293	-1.0057
H	0.126995	-2.93257	0.555133
H	0.233637	-0.683216	-1.16229
C	-0.0881701	1.86154	-0.307058
O	0.103398	0.949062	-1.09524
O	-0.280685	1.66292	1.00567
H	-0.127884	2.93251	-0.555266
H	-0.233312	0.683243	1.16234
C	14.9191	0.219098	-0.112411
O	15.6224	0.863458	0.649155
O	15.2944	-0.990508	-0.52655
H	13.9745	0.638654	-0.456536
H	16.1339	-1.23106	-0.150827
