15
  This energy is -0.00169524 and Call times are: 21490
C	0.065939	1.80674	-0.546587
O	-0.669477	1.2626	0.261901
O	1.01733	1.14825	-1.22557
H	0.0504936	2.87226	-0.81966
H	0.978791	0.199169	-0.935194
C	-0.065785	-1.80669	0.546752
O	0.669224	-1.26268	-0.262173
O	-1.01722	-1.14822	1.22569
H	-0.0499083	-2.87209	0.82032
H	-0.979004	-0.199238	0.934953
C	4.95637	0.264268	0.333839
O	5.83609	-0.403752	-0.185429
O	3.69531	0.174528	-0.0870737
H	5.20628	0.940846	1.15023
H	3.62061	-0.449485	-0.800379
