15
  This energy is -0.00567763 and Call times are: 23714
C	1.21428	1.38924	-0.403657
O	0.694102	0.568483	-1.14281
O	0.982657	1.43137	0.917083
H	1.91837	2.17803	-0.707322
H	0.344148	0.699381	1.1246
C	-1.21445	-1.3891	0.403624
O	-0.693814	-0.568724	1.14286
O	-0.982787	-1.43126	-0.917106
H	-1.91906	-2.17747	0.707176
H	-0.343898	-0.699589	-1.12454
C	4.39147	-0.274025	-0.213769
O	3.90968	0.567044	-0.955573
O	4.05091	-0.321555	1.07358
H	5.10759	-0.993092	-0.609773
H	3.42159	0.359782	1.28216
