15
  This energy is -0.000395356 and Call times are: 29226
C	0.299923	-0.834497	-1.66765
O	0.576249	0.296571	-1.30036
O	-0.309621	-1.72979	-0.876025
H	0.504982	-1.25968	-2.66129
H	-0.465394	-1.28674	-0.000811955
C	-0.299719	0.834419	1.66773
O	-0.576585	-0.296442	1.30024
O	0.309772	1.72974	0.87608
H	-0.504177	1.2594	2.66158
H	0.465099	1.28684	0.000710716
C	3.45029	-0.185109	0.386083
O	3.47243	1.03449	0.429465
O	3.8387	-0.834407	-0.71076
H	3.10904	-0.747718	1.25426
H	4.1099	-0.223659	-1.38694
