15
  This energy is -1.641e-05 and Call times are: 44444
C	-0.0520572	0.244382	1.87216
O	0.670103	-0.473819	1.19892
O	-0.996605	1.03397	1.33909
H	-0.0287423	0.3396	2.96785
H	-0.965652	0.902051	0.355118
C	0.0522077	-0.244209	-1.87217
O	-0.670351	0.473532	-1.1989
O	0.996716	-1.03384	-1.3391
H	0.0293467	-0.338935	-2.96792
H	0.96543	-0.902294	-0.355096
C	51.9122	-0.261713	-0.31934
O	52.9456	-0.734852	0.12556
O	51.4466	0.902203	0.132383
H	51.3655	-0.797861	-1.09416
H	52.0191	1.25805	0.802738
