15
  This energy is -2.223e-05 and Call times are: 42218
C	-0.563151	-1.79526	-0.165243
O	-0.359033	-1.1309	0.838519
O	-0.404647	-1.30977	-1.40579
H	-0.892895	-2.84446	-0.190008
H	-0.108473	-0.366156	-1.31395
C	0.562931	1.79533	0.165238
O	0.359396	1.13079	-0.838511
O	0.404484	1.30982	1.40578
H	0.892035	2.84472	0.190011
H	0.108789	0.366061	1.31394
C	42.166	-0.0479541	-0.419383
O	43.034	-0.104063	0.436889
O	40.8897	0.136335	-0.0838364
H	42.4391	-0.149802	-1.46903
H	40.7952	0.208599	0.859361
