15
  This energy is -0.00158261 and Call times are: 53055
C	-0.596857	0.399389	1.7469
O	0.459957	0.67532	1.20139
O	-1.57507	-0.286698	1.13685
H	-0.882127	0.665347	2.77551
H	-1.25684	-0.494556	0.219197
C	0.596762	-0.399192	-1.74697
O	-0.459801	-0.675643	-1.20127
O	1.575	0.286843	-1.13691
H	0.881777	-0.664571	-2.77581
H	1.25697	0.494271	-0.219093
C	4.95973	0.10653	0.0235474
O	5.55561	0.761728	-0.816358
O	5.5991	-0.805526	0.754904
H	3.89357	0.270185	0.175914
H	6.51925	-0.843507	0.519018
