15
  This energy is -0.00125016 and Call times are: 29766
C	0.0123624	1.1292	1.51399
O	0.688068	1.17864	0.498333
O	-0.918293	0.186387	1.72554
H	0.071222	1.82496	2.36405
H	-0.921067	-0.404813	0.927389
C	-0.0125238	-1.12907	-1.51408
O	-0.687802	-1.17886	-0.498175
O	0.918173	-0.186289	-1.72561
H	-0.0718371	-1.82443	-2.36444
H	0.921291	0.404616	-0.927249
C	4.04477	-0.0382524	-0.448582
O	4.27503	-1.1102	0.0878012
O	3.97763	1.08194	0.26988
H	3.89269	0.00170583	-1.52653
H	4.12898	0.902285	1.19107
