15
  This energy is -0.000282814 and Call times are: 24883
C	-0.49097	0.64421	-1.70627
O	-0.225692	-0.492433	-1.34816
O	-0.471797	1.69476	-0.872155
H	-0.771833	0.952254	-2.72429
H	-0.213099	1.35142	0.0232513
C	0.490747	-0.644242	1.70632
O	0.226059	0.492485	1.34808
O	0.471632	-1.69479	0.872191
H	0.770966	-0.952401	2.72449
H	0.213417	-1.35137	-0.0233184
C	3.84972	0.0432376	-0.033379
O	4.30451	0.620997	0.940864
O	4.65013	-0.622379	-0.865126
H	2.77754	0.0728656	-0.223833
H	5.5555	-0.565751	-0.580737
