15
  This energy is -1.1679e-05 and Call times are: 42344
C	-0.71393	1.463	-0.957777
O	-0.339003	0.373854	-1.36245
O	-0.671469	1.81425	0.336284
H	-1.12303	2.27625	-1.57537
H	-0.295438	1.04241	0.835699
C	0.713716	-1.46308	0.957808
O	0.339355	-0.373721	1.3624
O	0.671311	-1.81431	-0.33626
H	1.1222	-2.27658	1.57548
H	0.295742	-1.04229	-0.835736
C	43.7421	0.243111	0.380611
O	44.4623	-0.742301	0.372535
O	42.9447	0.51193	-0.652516
H	43.7523	0.909282	1.24248
H	43.0362	-0.147803	-1.33085
