15
  This energy is -4.0659e-05 and Call times are: 28374
C	0.445653	0.28346	-1.81341
O	0.228831	1.09486	-0.927297
O	0.395533	-1.04257	-1.61619
H	0.702446	0.518946	-2.85684
H	0.160821	-1.18673	-0.661888
C	-0.445429	-0.283464	1.81346
O	-0.229201	-1.09485	0.92721
O	-0.395367	1.04257	1.61623
H	-0.701572	-0.51894	2.85706
H	-0.161142	1.18673	0.661812
C	6.25841	-0.26939	-0.128387
O	6.67611	-0.541816	0.98566
O	6.79675	0.725358	-0.832789
H	5.43647	-0.846588	-0.550242
H	7.50036	1.14122	-0.347237
