15
  This energy is -3.6869e-05 and Call times are: 3096
C	-0.89184	0.689735	-1.51535
O	-1.34039	0.361889	-0.428202
O	0.410933	0.601829	-1.8233
H	-1.47237	1.0876	-2.36083
H	0.875583	0.238715	-1.02404
C	0.891874	-0.689519	1.51543
O	1.34033	-0.362244	0.428079
O	-0.410907	-0.601669	1.82335
H	1.4725	-1.08676	2.36114
H	-0.875625	-0.239023	1.02393
C	13.4641	-0.349094	0.238633
O	14.3432	0.39055	-0.173598
O	12.1825	-0.0952569	-0.0233494
H	13.7315	-1.22599	0.827043
H	12.0939	0.696071	-0.542708
