15
  This energy is 0.000191178 and Call times are: 29936
C	-0.0289799	-1.87549	0.221553
O	0.211403	-1.21117	-0.774168
O	-0.334624	-1.32767	1.40741
H	-0.0281457	-2.97393	0.281498
H	-0.318359	-0.341986	1.28607
C	0.0292026	1.8755	-0.221493
O	-0.21177	1.21117	0.77407
O	0.334788	1.32767	-1.40736
H	0.0290209	2.97394	-0.281286
H	0.318038	0.341985	-1.28615
C	5.97988	0.309727	0.0856312
O	6.4774	0.444312	-1.02078
O	6.38388	-0.664729	0.899718
H	5.19709	0.994429	0.409873
H	7.06777	-1.18413	0.491921
