15
  This energy is -0.00256605 and Call times are: 35233
C	1.27691	0.63063	-1.24065
O	1.26559	0.713257	-0.022612
O	0.302484	0.0295002	-1.93987
H	2.05851	1.02305	-1.90794
H	-0.366372	-0.300155	-1.28373
C	-1.2768	-0.630831	1.24066
O	-1.26577	-0.712926	0.0225949
O	-0.302401	-0.0296491	1.93988
H	-2.05806	-1.02383	1.908
H	0.366206	0.300439	1.28371
C	5.0363	-0.41933	-0.160758
O	5.78843	-0.395668	0.80025
O	4.49791	0.704907	-0.631649
H	4.80347	-1.37062	-0.637776
H	4.78487	1.45566	-0.123916
