15
  This energy is -1.6791e-05 and Call times are: 7303
C	-1.74038	0.626812	-0.381545
O	-0.65769	1.14161	-0.612472
O	-1.86773	-0.560771	0.229359
H	-2.72416	1.04993	-0.633151
H	-0.95059	-0.886219	0.428116
C	1.74039	-0.62692	0.381342
O	0.657684	-1.14144	0.612807
O	1.86773	0.56069	-0.229509
H	2.72419	-1.05034	0.632348
H	0.950582	0.886366	-0.427821
C	22.4392	0.407209	0.118525
O	21.6979	-0.503742	0.450834
O	23.5813	0.156757	-0.520419
H	22.1628	1.43577	0.347409
H	23.6959	-0.777434	-0.654304
