15
  This energy is -0.00210201 and Call times are: 15407
C	0.387506	-1.30408	1.3102
O	-0.251591	-1.40433	0.27479
O	0.95827	-0.156547	1.70666
H	0.576464	-2.11075	2.03389
H	0.751803	0.5259	1.01514
C	-0.387311	1.30402	-1.31031
O	0.25127	1.40442	-0.274609
O	-0.958125	0.156507	-1.70674
H	-0.575715	2.11052	-2.03434
H	-0.752077	-0.525814	-1.01498
C	3.90634	0.289887	0.290175
O	4.93264	-0.200328	0.733121
O	3.46356	-0.0383652	-0.922964
H	3.34721	1.00343	0.894267
H	4.04484	-0.666836	-1.33638
