15
  This energy is -0.0012812 and Call times are: 34769
C	-0.918568	-1.64769	0.0935843
O	-0.485283	-0.943913	0.992214
O	-0.797089	-1.33039	-1.20424
H	-1.44858	-2.60342	0.219396
H	-0.313591	-0.463884	-1.2485
C	0.918366	1.6478	-0.0935791
O	0.485616	0.943731	-0.992222
O	0.796939	1.33047	1.20424
H	1.4478	2.60386	-0.219355
H	0.31388	0.463727	1.24849
C	4.82549	-0.144781	0.411133
O	5.77921	0.114917	-0.304947
O	3.57877	0.00507754	-0.0346751
H	4.9968	-0.502909	1.42558
H	3.57606	0.3224	-0.93082
