15
  This energy is -2.2693e-05 and Call times are: 41798
C	1.03959	-0.570135	-1.47024
O	-0.170053	-0.434216	-1.37604
O	1.88314	-0.313905	-0.459037
H	1.58437	-0.908815	-2.36392
H	1.33231	-0.0147902	0.311469
C	-1.03956	0.570353	1.47017
O	0.170014	0.433857	1.37616
O	-1.88312	0.314066	0.458985
H	-1.5843	0.909667	2.36364
H	-1.33234	0.0144796	-0.311362
C	31.0436	0.337679	-0.266622
O	30.8516	0.698626	0.883437
O	30.8328	-0.927672	-0.627141
H	31.3911	1.0589	-1.0054
H	30.5332	-1.44446	0.112419
