15
  This energy is -9.694e-06 and Call times are: 32330
C	-1.3333	-1.00418	-0.883925
O	-1.34032	-0.510295	0.232586
O	-0.290198	-0.89959	-1.72104
H	-2.15082	-1.58155	-1.34052
H	0.408073	-0.371257	-1.25217
C	1.33321	1.00438	0.883834
O	1.34047	0.509978	-0.232437
O	0.290133	0.899733	1.72098
H	2.15046	1.58231	1.34019
H	-0.407941	0.370981	1.25229
C	14.3219	0.353997	0.272619
O	13.9332	0.547008	-0.868218
O	14.9037	-0.796869	0.608002
H	14.191	1.13194	1.02387
H	14.9528	-1.38145	-0.140083
