15
  This energy is -0.0031456 and Call times are: 12022
C	-1.58332	0.225194	1.00488
O	-0.498738	-0.218908	1.34696
O	-1.83507	0.655855	-0.240486
H	-2.47066	0.329588	1.64667
H	-1.00023	0.535404	-0.76497
C	1.58339	-0.22498	-1.00482
O	0.498632	0.218556	-1.34705
O	1.83512	-0.655697	0.240528
H	2.47093	-0.328763	-1.64643
H	1.00013	-0.535706	0.76488
C	5.23058	0.238849	0.309069
O	4.81921	0.93254	-0.607097
O	4.9898	-1.0715	0.33192
H	5.80067	0.697258	1.11626
H	4.48495	-1.33576	-0.429045
