15
  This energy is 0.000425021 and Call times are: 14438
C	-0.518886	0.359319	-1.78018
O	0.139841	-0.565326	-1.33109
O	-1.01459	1.34176	-1.0128
H	-0.786841	0.508865	-2.83659
H	-0.739213	1.1488	-0.0781933
C	0.518691	-0.359438	1.78021
O	-0.13952	0.565521	1.33104
O	1.01444	-1.34184	1.01283
H	0.78609	-0.509348	2.83671
H	0.739488	-1.14862	0.0781528
C	6.74768	-0.065034	0.0330838
O	6.18002	-0.991088	-0.523671
O	6.06132	0.990167	0.4701
H	7.82727	-0.102869	0.173611
H	5.13451	0.891823	0.282676
