15
  This energy is -2.1137e-05 and Call times are: 49946
C	-1.02539	-1.12208	1.12112
O	0.11337	-1.26541	0.70488
O	-1.78346	-0.05715	0.819428
H	-1.56676	-1.82033	1.7765
H	-1.24053	0.529627	0.22996
C	1.02547	1.1222	-1.12093
O	-0.113497	1.26522	-0.705187
O	1.78352	0.057233	-0.81929
H	1.56708	1.82076	-1.77578
H	1.24041	-0.52978	-0.230227
C	25.1453	0.0100739	0.0858867
O	24.8882	0.253309	-1.08226
O	24.1712	-0.24792	0.95776
H	26.1828	0.00415906	0.41799
H	23.3204	-0.209629	0.535251
