15
  This energy is -2.6718e-05 and Call times are: 12840
C	-0.797418	-0.456966	1.65006
O	0.164895	0.258364	1.42022
O	-1.49126	-1.07842	0.684578
H	-1.21283	-0.682209	2.64347
H	-1.06846	-0.835475	-0.180744
C	0.797275	0.457146	-1.65008
O	-0.164659	-0.25866	-1.42019
O	1.49115	1.07855	-0.684591
H	1.21228	0.682926	-2.64353
H	1.06866	0.835213	0.180763
C	9.57197	0.315607	0.31773
O	10.016	0.638922	-0.772258
O	8.95447	-0.853735	0.481582
H	9.68236	0.991338	1.16502
H	8.92914	-1.33998	-0.334936
