15
  This energy is 0.000748052 and Call times are: 33170
C	-1.39933	-0.871424	-0.921901
O	-1.04687	-0.977955	0.242141
O	-0.795115	-0.0510217	-1.79462
H	-2.22998	-1.41323	-1.39796
H	-0.0603207	0.404633	-1.30573
C	1.39918	0.871594	0.921956
O	1.04711	0.977675	-0.242232
O	0.795008	0.0511481	1.79466
H	2.22941	1.41388	1.3982
H	0.060531	-0.404872	1.30564
C	7.34903	0.0631116	-0.011399
O	6.95413	-0.654912	-0.915992
O	6.4953	0.570807	0.876806
H	8.41129	0.290587	0.0695539
H	5.606	0.292765	0.688087
