15
  This energy is 2.1416e-05 and Call times are: 31280
C	1.08507	-0.653955	-1.40085
O	0.105466	0.0732326	-1.44723
O	1.57954	-1.1389	-0.25189
H	1.67539	-0.998982	-2.26261
H	1.00601	-0.792734	0.481459
C	-1.08493	0.654137	1.40087
O	-0.105696	-0.0735326	1.4472
O	-1.57943	1.13903	0.251905
H	-1.67486	0.999707	2.26268
H	-1.00621	0.79247	-0.481481
C	11.5205	0.0664415	0.156478
O	11.0746	-1.02772	0.462628
O	10.7931	0.921395	-0.561464
H	12.5243	0.345832	0.474297
H	9.94268	0.550535	-0.768855
