15
  This energy is -0.00325574 and Call times are: 30642
C	0.168752	0.337315	-1.85071
O	0.132643	1.12075	-0.915034
O	0.0868394	-0.992313	-1.69211
H	0.269672	0.60365	-2.91328
H	-0.00191176	-1.16481	-0.717983
C	-0.168523	-0.33733	1.85073
O	-0.13302	-1.12072	0.915007
O	-0.0866697	0.992301	1.69212
H	-0.268776	-0.603689	2.91335
H	0.00158338	1.16482	0.717959
C	3.42666	0.382808	-0.0884405
O	2.79079	0.444931	0.951561
O	3.40929	-0.722834	-0.831925
H	4.01438	1.24136	-0.411201
H	2.85955	-1.38886	-0.434476
