15
  This energy is -0.00150835 and Call times are: 16057
C	-0.952587	0.803602	1.41923
O	-1.34253	0.457321	0.315322
O	0.317493	0.653232	1.82427
H	-1.56598	1.2693	2.20474
H	0.814334	0.230733	1.07513
C	0.952538	-0.803809	-1.41914
O	1.34261	-0.456979	-0.315466
O	-0.317529	-0.653385	-1.8242
H	1.56577	-1.27012	-2.20442
H	-0.814255	-0.230436	-1.07525
C	4.97505	0.224095	0.223452
O	4.54377	-0.386955	-0.741118
O	6.27223	0.190233	0.526282
H	4.29094	0.803085	0.842699
H	6.75013	-0.349225	-0.0936968
