15
  This energy is -2.6243e-05 and Call times are: 7891
C	-0.335168	1.81696	0.39209
O	0.00669862	1.29556	-0.657598
O	-0.541182	1.11966	1.51953
H	-0.514741	2.89039	0.552266
H	-0.363671	0.165406	1.30869
C	0.334946	-1.81698	-0.392144
O	-0.00633236	-1.29552	0.657687
O	0.541017	-1.11968	-1.51956
H	0.513878	-2.8905	-0.552499
H	0.363987	-0.16537	-1.30861
C	13.1932	0.283585	-0.337525
O	12.3701	0.297592	0.563633
O	14.265	-0.505147	-0.268346
H	13.0489	0.923381	-1.20731
H	14.2646	-1.00593	0.539733
