15
  This energy is 5.0372e-05 and Call times are: 22537
C	1.70155	0.216838	0.790644
O	1.22168	0.763087	-0.190128
O	1.03716	-0.69629	1.51491
H	2.70737	0.391511	1.20049
H	0.143609	-0.807095	1.09557
C	-1.70163	-0.216672	-0.790506
O	-1.22155	-0.763359	0.189901
O	-1.03722	0.696411	-1.51481
H	-2.70769	-0.390851	-1.19997
H	-0.143494	0.806852	-1.09576
C	12.246	-0.0346335	-0.0748718
O	11.5841	-0.271456	-1.07265
O	11.6535	0.284443	1.07519
H	13.333	-0.0850296	-0.126495
H	10.7079	0.291293	0.977753
