15
  This energy is -0.000885422 and Call times are: 15154
C	-1.68099	-0.860802	0.0262195
O	-0.726227	-1.03606	-0.71424
O	-1.68006	0.0455785	1.01528
H	-2.63804	-1.40173	-0.0139525
H	-0.794761	0.495574	0.997521
C	1.68107	0.860644	-0.0260716
O	0.726095	1.03632	0.713996
O	1.68012	-0.0456945	-1.01517
H	2.63836	1.40111	0.0145138
H	0.794644	-0.495344	-0.997726
C	5.6727	-0.228253	0.319333
O	6.87573	-0.208855	0.524614
O	5.15447	0.377525	-0.74837
H	5.01661	-0.746836	1.01742
H	5.83638	0.787692	-1.26851
