15
  This energy is -0.000504339 and Call times are: 35786
C	1.43851	-1.20352	-0.222762
O	0.252544	-1.43018	-0.0419871
O	1.94068	0.038331	-0.29624
H	2.22944	-1.95815	-0.345748
H	1.18111	0.667405	-0.178441
C	-1.43854	1.20352	0.222534
O	-0.252493	1.43018	0.0423632
O	-1.9407	-0.0383289	0.296071
H	-2.22958	1.95815	0.344859
H	-1.18106	-0.6674	0.178767
C	5.31668	-0.438217	0.0822394
O	5.63963	-0.232604	-1.07673
O	5.23854	0.565281	0.955396
H	5.09011	-1.45369	0.40501
H	5.46124	1.39164	0.541488
