15
  This energy is -0.00124919 and Call times are: 21736
C	1.1854	0.495649	1.3844
O	0.868772	1.10297	0.373714
O	0.698626	-0.716733	1.68929
H	1.88732	0.845709	2.15572
H	0.0763133	-0.97317	0.958856
C	-1.18557	-0.495553	-1.38428
O	-0.868486	-1.10312	-0.373907
O	-0.698755	0.716803	-1.6892
H	-1.888	-0.845317	-2.15527
H	-0.0760671	0.973025	-0.95902
C	5.03446	-0.432331	-0.120556
O	6.20333	-0.189172	0.133239
O	4.10626	0.5195	-0.0313482
H	4.74831	-1.43893	-0.423192
H	4.49276	1.34407	0.241554
