15
  This energy is -5.281e-06 and Call times are: 8311
C	1.63983	0.932142	-0.0972722
O	1.25079	0.122006	0.729105
O	0.899173	1.31455	-1.14844
H	2.61498	1.4413	-0.0940619
H	0.0382797	0.822254	-1.09303
C	-1.63974	-0.93231	0.0971435
O	-1.25094	-0.121729	-0.728893
O	-0.899106	-1.31467	1.14835
H	-2.61462	-1.44197	0.0935774
H	-0.0384125	-0.822009	1.09321
C	12.2581	0.372477	0.255434
O	11.94	-0.64313	0.853023
O	12.6741	0.316153	-1.00922
H	12.201	1.33483	0.762696
H	12.675	-0.580485	-1.32516
