15
  This energy is 0.000651858 and Call times are: 12064
C	0.499351	-1.27949	1.29651
O	-0.610075	-0.974864	0.887923
O	1.62499	-0.702917	0.848994
H	0.720783	-2.04039	2.05951
H	1.35761	-0.0311188	0.167998
C	-0.499331	1.27933	-1.29668
O	0.610041	0.975129	-0.887654
O	-1.62497	0.702798	-0.849115
H	-0.720725	2.03976	-2.06015
H	-1.35763	0.0313515	-0.167766
C	6.58992	0.0883105	-0.319044
O	6.09474	-0.353001	0.70557
O	7.90698	0.264936	-0.417366
H	5.94696	0.340134	-1.1616
H	8.3437	0.00603212	0.386386
