15
  This energy is -1.9688e-05 and Call times are: 41462
C	1.76665	0.295783	-0.599058
O	1.3362	-0.542259	0.177453
O	0.984351	1.20942	-1.19324
H	2.81618	0.412973	-0.907137
H	0.0569299	1.05021	-0.875277
C	-1.76668	-0.295925	0.59888
O	-1.33614	0.542492	-0.177159
O	-0.984377	-1.20952	1.19311
H	-2.81631	-0.413544	0.906454
H	-0.056884	-1.05	0.875528
C	32.0158	0.154569	0.0948292
O	31.1942	1.05177	-0.00478638
O	31.6572	-1.11813	-0.0701024
H	33.0531	0.398329	0.321079
H	30.7285	-1.18558	-0.261654
