15
  This energy is -1.0095e-05 and Call times are: 38396
C	1.43969	1.19667	0.250337
O	0.768485	0.981383	-0.74651
O	1.23925	0.562464	1.4154
H	2.27042	1.91363	0.327841
H	0.481872	-0.0654926	1.27898
C	-1.43984	-1.19651	-0.250269
O	-0.768244	-0.981655	0.746398
O	-1.23936	-0.562342	-1.41535
H	-2.271	-1.91299	-0.327598
H	-0.481663	0.0652537	-1.27907
C	20.1122	-0.205573	-0.38845
O	18.9191	0.0418092	-0.317347
O	20.9358	0.122189	0.6064
H	20.5067	-0.699755	-1.27549
H	20.4608	0.544713	1.31323
