15
  This energy is -0.00160296 and Call times are: 4020
C	0.688658	-1.14343	-1.3363
O	1.09305	-0.0562136	-0.95553
O	-0.396686	-1.73945	-0.820009
H	1.14155	-1.76127	-2.12581
H	-0.7553	-1.13482	-0.118315
C	-0.688528	1.14333	1.33646
O	-1.09327	0.0563916	0.955272
O	0.396782	1.73937	0.820124
H	-1.14103	1.76087	2.12642
H	0.755107	1.13497	0.118093
C	4.77771	-0.236877	-0.0834665
O	4.64563	0.714328	-0.83683
O	3.87	-0.490333	0.858527
H	5.64763	-0.884914	-0.183371
H	3.16819	0.150423	0.832838
