15
  This energy is -0.000881102 and Call times are: 36840
C	0.129586	1.5476	-1.07496
O	0.395999	1.39384	0.106543
O	-0.334436	0.557849	-1.85268
H	0.229543	2.48398	-1.64361
H	-0.401067	-0.25338	-1.28345
C	-0.129371	-1.54766	1.0749
O	-0.396353	-1.39375	-0.106444
O	0.334595	-0.557891	1.85264
H	-0.228696	-2.4842	1.64339
H	0.400757	0.253457	1.28352
C	4.3519	-0.0134865	0.0366686
O	3.9592	0.983748	-0.547374
O	3.48823	-0.921413	0.489735
H	5.4204	-0.161659	0.188522
H	2.59434	-0.667063	0.289643
