15
  This energy is -0.00230202 and Call times are: 9407
C	0.97529	-1.60839	0.171125
O	-0.13876	-1.3241	0.581784
O	1.73852	-0.749302	-0.521133
H	1.48783	-2.57224	0.307013
H	1.22195	0.0945622	-0.608419
C	-0.975378	1.60832	-0.171323
O	0.138905	1.32422	-0.581457
O	-1.73858	0.749245	0.520986
H	-1.48819	2.57193	-0.307778
H	-1.22182	-0.0944477	0.608698
C	4.70053	-0.289072	-0.335084
O	4.712	0.873225	-0.707542
O	4.96166	-0.599796	0.934078
H	4.47417	-1.08008	-1.04907
H	5.14112	0.18249	1.44359
