15
  This energy is -1.309e-05 and Call times are: 38816
C	-0.273664	-1.84616	0.290155
O	-1.04712	-0.999067	-0.127886
O	0.992944	-1.57021	0.635594
H	-0.500173	-2.91276	0.435808
H	1.13212	-0.598879	0.481609
C	0.273735	1.84612	-0.290369
O	1.04701	0.999144	0.128239
O	-0.99289	1.57017	-0.635752
H	0.500433	2.91259	-0.436653
H	-1.13221	0.598945	-0.4813
C	23.4942	0.263819	-0.222733
O	23.9826	-0.80382	0.111004
O	22.227	0.553915	0.0701379
H	24.1019	0.986535	-0.765917
H	21.8171	-0.161623	0.543103
