15
  This energy is -0.000244685 and Call times are: 14200
C	-1.74095	0.182689	0.709305
O	-1.33207	0.399751	-0.420417
O	-0.949039	-0.254533	1.7
H	-2.77648	0.310886	1.05773
H	-0.035121	-0.348881	1.32263
C	1.7409	-0.182908	-0.709359
O	1.33215	-0.399391	0.420507
O	0.949004	0.25437	-1.70004
H	2.7763	-0.311735	-1.05796
H	0.0351926	0.349191	-1.32254
C	6.01573	0.445576	-0.0100078
O	5.31126	-0.14615	0.792097
O	6.91359	-0.212232	-0.742576
H	5.90825	1.52326	-0.127288
H	6.90062	-1.14087	-0.539486
