15
  This energy is -0.00125868 and Call times are: 11896
C	1.37785	0.82508	0.994074
O	1.36333	-0.258075	0.430926
O	0.329603	1.66231	0.991747
H	2.221	1.24818	1.55997
H	-0.392103	1.22442	0.468341
C	-1.37777	-0.824977	-0.994264
O	-1.36346	0.257906	-0.430612
O	-0.329545	-1.66223	-0.991888
H	-2.22069	-1.2478	-1.56072
H	0.391984	-1.22456	-0.468068
C	4.79988	-0.0994486	-0.189079
O	5.11266	-0.889261	0.687364
O	5.59767	0.920781	-0.502408
H	3.85792	-0.231203	-0.720177
H	6.38108	0.915077	0.0361238
