15
  This energy is -0.000884456 and Call times are: 11430
C	-0.291102	-1.86609	0.0191425
O	-0.462141	-1.04073	0.90237
O	0.168065	-1.54518	-1.19985
H	-0.482747	-2.94646	0.0980727
H	0.319784	-0.56359	-1.20515
C	0.290886	1.86612	-0.0192187
O	0.462496	1.04068	-0.902245
O	-0.168224	1.5452	1.1998
H	0.4819	2.94659	-0.0983499
H	-0.319473	0.563546	1.20525
C	4.16827	-0.238671	-0.114668
O	3.55802	-0.73826	0.816884
O	3.7394	0.887297	-0.683684
H	5.07329	-0.71958	-0.483957
H	2.94387	1.19608	-0.264679
