15
  This energy is -1.6049e-05 and Call times are: 48224
C	-1.56541	1.00443	0.32865
O	-1.23463	0.378374	-0.665941
O	-0.802973	1.07984	1.42991
H	-2.49941	1.57188	0.45433
H	0.0186485	0.550679	1.25247
C	1.56531	-1.00462	-0.328562
O	1.2348	-0.378067	0.665796
O	0.802897	-1.07998	-1.42984
H	2.49901	-1.57262	-0.454008
H	-0.0184968	-0.550411	-1.25259
C	37.9731	0.249767	-0.336719
O	36.9941	0.76853	0.175224
O	38.4273	-0.924708	0.099009
H	38.4803	0.753512	-1.15876
H	37.8934	-1.24878	0.81574
