15
  This energy is -0.00250188 and Call times are: 24791
C	-0.0856022	0.480643	1.82457
O	-0.336495	1.14364	0.830557
O	0.323174	-0.795764	1.76573
H	-0.157433	0.825543	2.8667
H	0.366855	-1.04391	0.804958
C	0.0853839	-0.480716	-1.82456
O	0.336855	-1.14352	-0.830575
O	-0.323335	0.795708	-1.76572
H	0.156574	-0.825812	-2.86667
H	-0.366541	1.04401	-0.804972
C	3.4161	-0.452157	0.0321527
O	3.30566	-0.0685308	-1.12129
O	3.47671	0.420806	1.03703
H	3.46556	-1.52017	0.240978
H	3.42258	1.31306	0.713419
