15
  This energy is -1.6628e-05 and Call times are: 47048
C	-0.434834	1.80376	-0.353226
O	0.0698841	0.96553	-1.08343
O	-0.785665	1.54875	0.916286
H	-0.663047	2.84492	-0.625357
H	-0.555109	0.59976	1.09747
C	0.434623	-1.80382	0.353158
O	-0.069536	-0.965428	1.08354
O	0.785508	-1.54879	-0.916335
H	0.66223	-2.84518	0.625073
H	0.555408	-0.599672	-1.09736
C	36.2602	-0.178925	0.414899
O	35.3528	-0.515304	-0.32895
O	37.2287	0.629038	-0.0148985
H	36.2772	-0.543948	1.44114
H	37.0898	0.869334	-0.924155
