15
  This energy is -0.000838703 and Call times are: 37262
C	-0.635012	1.28579	-1.22919
O	0.158011	0.372529	-1.39543
O	-1.22385	1.53466	-0.0497337
H	-0.963858	2.0038	-1.995
H	-0.886966	0.856596	0.593147
C	0.634835	-1.28593	1.22913
O	-0.15772	-0.372303	1.39552
O	1.22372	-1.53477	0.0496928
H	0.963183	-2.00435	1.99478
H	0.887214	-0.856396	-0.59306
C	6.7895	-0.397508	-0.218212
O	5.69279	0.135409	-0.163196
O	7.85727	0.184575	0.326364
H	6.89514	-1.35952	-0.718283
H	7.62258	1.01419	0.726905
