15
  This energy is -1.3868e-05 and Call times are: 32162
C	-1.61317	0.607239	-0.772236
O	-0.480934	1.051	-0.880381
O	-1.90671	-0.468257	-0.0259678
H	-2.5152	1.01292	-1.25382
H	-1.05595	-0.783806	0.378021
C	1.6132	-0.607377	0.772054
O	0.480881	-1.05077	0.88068
O	1.90673	0.468154	0.0258338
H	2.51534	-1.01344	1.25311
H	1.0559	0.783997	-0.377757
C	18.4392	-0.0501292	0.270308
O	18.2929	-0.595663	-0.811709
O	19.5644	0.603801	0.556282
H	17.6404	-0.0991477	1.0094
H	20.1718	0.566866	-0.174107
