15
  This energy is -1.8002e-05 and Call times are: 16981
C	-0.742574	1.18225	1.27211
O	0.312051	0.567815	1.30045
O	-1.60517	1.10344	0.24766
H	-1.11705	1.85999	2.05352
H	-1.2108	0.480914	-0.418297
C	0.742676	-1.18207	-1.27221
O	-0.312219	-0.568109	-1.30028
O	1.60524	-1.10331	-0.247737
H	1.11746	-1.85929	-2.05392
H	1.21065	-0.481169	0.418439
C	14.9856	0.0193666	0.438507
O	15.1	-1.1268	0.0347513
O	15.19	1.05231	-0.378059
H	14.7135	0.198412	1.47802
H	15.4197	0.75311	-1.2507
