15
  This energy is -0.00227937 and Call times are: 30188
C	-1.20018	-1.35908	0.529019
O	-1.04621	-0.235182	0.980358
O	-0.479663	-1.83826	-0.496173
H	-1.92395	-2.10602	0.887336
H	0.1498	-1.12065	-0.770709
C	1.20002	1.35916	-0.529169
O	1.04646	0.235055	-0.980111
O	0.479547	1.83832	0.496062
H	1.92334	2.10634	-0.887909
H	-0.149572	1.12053	0.770917
C	4.83565	-0.388475	-0.23142
O	4.23465	0.473136	-0.852877
O	5.30757	-0.142505	0.990181
H	4.98721	-1.36884	-0.681549
H	5.10536	0.746992	1.25792
