15
  This energy is -2.0554e-05 and Call times are: 44906
C	-0.479614	1.75371	0.511744
O	0.471314	1.36627	-0.148712
O	-1.40427	0.922699	1.01593
H	-0.701162	2.79866	0.774717
H	-1.14798	0.00223466	0.744603
C	0.479486	-1.75368	-0.511934
O	-0.471103	-1.36631	0.149025
O	1.40418	-0.922682	-1.01607
H	0.70068	-2.79857	-0.775473
H	1.14815	-0.00227104	-0.744327
C	53.6498	-0.424064	-0.0588858
O	54.5591	0.38428	0.0387955
O	52.3787	-0.0303097	0.0095911
H	53.8814	-1.47865	-0.203608
H	52.3225	0.910133	0.136821
