15
  This energy is -2.0626e-05 and Call times are: 39824
C	-1.73624	-0.711175	-0.21706
O	-1.29909	0.386926	-0.523081
O	-0.98668	-1.65709	0.368752
H	-2.76659	-1.06333	-0.373616
H	-0.0751681	-1.27879	0.480975
C	1.7363	0.711089	0.216854
O	1.29899	-0.386786	0.52342
O	0.986723	1.65703	-0.368904
H	2.76682	1.06301	0.372803
H	0.075088	1.2789	-0.480677
C	36.6747	-0.372038	0.227189
O	37.2619	-0.63289	-0.810521
O	36.461	0.892435	0.589095
H	36.3218	-1.18278	0.863516
H	36.8195	1.49341	-0.0544212
