15
  This energy is -0.00129542 and Call times are: 29809
C	-0.890759	1.00566	-1.32763
O	-0.197249	1.38373	-0.39667
O	-1.14625	-0.289262	-1.56778
H	-1.38343	1.65059	-2.07026
H	-0.676251	-0.813909	-0.867481
C	0.890943	-1.00568	1.32749
O	0.196945	-1.38371	0.396896
O	1.14638	0.289251	1.56767
H	1.38416	-1.65063	2.06974
H	0.675985	0.813921	0.867675
C	4.87612	-0.214921	-0.379741
O	4.01222	-0.251211	0.481739
O	6.03334	0.40716	-0.15753
H	4.69786	-0.696775	-1.34034
H	6.05393	0.780766	0.716411
