15
  This energy is -0.00189085 and Call times are: 25449
C	0.771988	-1.30821	-1.12251
O	0.366558	-1.40569	0.0249689
O	0.726771	-0.161265	-1.81694
H	1.21381	-2.11721	-1.7229
H	0.320516	0.523363	-1.22297
C	-0.772196	1.30816	1.12242
O	-0.366215	1.40578	-0.0248327
O	-0.726924	0.161225	1.81688
H	-1.21463	2.11698	1.7226
H	-0.320218	-0.523278	1.22308
C	4.73536	-0.149236	-0.406382
O	3.52978	0.0337894	-0.352671
O	5.50741	0.085446	0.65398
H	5.18377	-0.508395	-1.33193
H	4.98833	0.392975	1.38866
