15
  This energy is -1.835e-05 and Call times are: 38858
C	1.54577	0.167659	-1.07233
O	1.18898	0.827854	-0.109303
O	0.83401	-0.862235	-1.55449
H	2.46577	0.320501	-1.65576
H	0.0225276	-0.946431	-0.987952
C	-1.54566	-0.167806	1.07246
O	-1.18917	-0.827613	0.109077
O	-0.833926	0.862126	1.55459
H	-2.46533	-0.321057	1.65631
H	-0.0226933	0.946633	0.987752
C	24.8041	0.262202	0.222358
O	25.7679	-0.0407922	0.907253
O	24.7001	-0.167724	-1.03457
H	24.0211	0.891036	0.644502
H	25.4486	-0.703738	-1.27155
