15
  This energy is 0.000511315 and Call times are: 36626
C	-1.57656	0.0100829	1.04008
O	-0.688748	-0.825627	0.977202
O	-1.56532	1.14159	0.31942
H	-2.47469	-0.0472791	1.67272
H	-0.735092	1.1318	-0.225729
C	1.57667	-0.00997256	-1.03991
O	0.688567	0.825445	-0.977482
O	1.5654	-1.1415	-0.319295
H	2.47513	0.0476913	-1.67205
H	0.734933	-1.13195	0.225483
C	6.6128	-0.30462	-0.260122
O	7.03758	0.828027	-0.422779
O	5.62845	-0.544737	0.605286
H	7.044	-1.12729	-0.82931
H	5.34838	0.258334	1.03004
