15
  This energy is -0.00358652 and Call times are: 26819
C	1.03591	0.0131316	-1.57928
O	0.522123	-0.925273	-0.991068
O	0.933848	1.28242	-1.15707
H	1.63119	-0.0502862	-2.50219
H	0.388795	1.27056	-0.326802
C	-1.0361	-0.0131017	1.57915
O	-0.52181	0.925224	0.991277
O	-0.933989	-1.2824	1.15697
H	-1.63194	0.0503817	2.5017
H	-0.388523	-1.2706	0.326984
C	4.67905	0.301358	-0.329656
O	3.73896	-0.434492	-0.583701
O	5.35355	0.174459	0.812475
H	4.96879	1.06984	-1.04534
H	4.99587	-0.531146	1.3397
