15
  This energy is -0.00143136 and Call times are: 24386
C	-1.01165	1.17748	-1.07587
O	-0.521	1.356	0.0277425
O	-0.896854	0.0213273	-1.74662
H	-1.59384	1.91258	-1.65106
H	-0.364627	-0.594427	-1.17728
C	1.01184	-1.17741	1.07577
O	0.520683	-1.35613	-0.0275739
O	0.896996	-0.0212722	1.74654
H	1.59459	-1.91228	1.65068
H	0.364352	0.594313	1.17742
C	4.54042	-0.333524	-0.273463
O	3.77448	0.436851	-0.829923
O	4.88211	-0.151377	1.00152
H	4.94843	-1.17883	-0.826357
H	4.45559	0.619378	1.359
