15
  This energy is -2.2572e-05 and Call times are: 46208
C	1.38698	-1.27944	-0.0819523
O	0.18171	-1.44127	0.0262485
O	1.95539	-0.067134	-0.16561
H	2.14489	-2.07565	-0.1242
H	1.22269	0.602047	-0.121934
C	-1.387	1.27944	0.0817223
O	-0.181685	1.44128	-0.02587
O	-1.9554	0.0671305	0.16544
H	-2.14497	2.07562	0.123304
H	-1.22266	-0.602032	0.122262
C	41.7373	0.258538	0.0856342
O	41.8039	-0.0815827	-1.08469
O	42.666	-0.126193	0.960267
H	40.909	0.883466	0.417423
H	43.3261	-0.664278	0.537702
