15
  This energy is 0.0003116 and Call times are: 20302
C	-1.00384	0.475887	1.52749
O	0.201689	0.523225	1.34034
O	-1.8695	0.0421674	0.598891
H	-1.52704	0.771318	2.44898
H	-1.33741	-0.206974	-0.201965
C	1.00382	-0.475672	-1.52757
O	-0.201647	-0.523578	-1.34021
O	1.86948	-0.0420089	-0.598951
H	1.52697	-0.770476	-2.44929
H	1.33744	0.206665	0.202075
C	6.53253	0.381817	-0.178632
O	5.97425	-0.617424	-0.602458
O	7.5194	0.284447	0.71138
H	6.21961	1.36336	-0.532677
H	7.68807	-0.62501	0.93096
