15
  This energy is -1.9908e-05 and Call times are: 3390
C	-0.0651707	1.87928	0.177344
O	0.713244	1.07602	0.666646
O	-1.07623	1.51792	-0.626984
H	-0.045623	2.96949	0.323051
H	-1.0381	0.529497	-0.717123
C	0.0653057	-1.87926	-0.177529
O	-0.713466	-1.07606	-0.666341
O	1.07633	-1.5179	0.626847
H	0.0461679	-2.9694	-0.323763
H	1.0379	-0.529532	0.717382
C	14.6907	-0.031796	-0.443276
O	15.3295	-0.829879	0.223711
O	13.8375	0.811274	0.136939
H	14.8206	-0.0095471	-1.52464
H	13.8237	0.683413	1.07887
