15
  This energy is -0.000326648 and Call times are: 10420
C	1.62292	0.422798	-0.868776
O	1.41525	0.13543	0.299497
O	0.648169	0.48727	-1.78827
H	2.60145	0.659664	-1.3121
H	-0.202862	0.264518	-1.32709
C	-1.62289	-0.42302	0.868722
O	-1.4153	-0.135064	-0.299409
O	-0.648145	-0.487434	1.78823
H	-2.60132	-0.660536	1.31191
H	0.202812	-0.264199	1.32716
C	5.31851	0.0434689	0.451117
O	4.75733	-0.982808	0.102375
O	5.79957	0.896924	-0.452053
H	5.4266	0.262887	1.51266
H	5.63702	0.582577	-1.3344
