15
  This energy is -0.00202023 and Call times are: 13267
C	-1.73349	-0.749846	0.0124754
O	-0.852128	-0.80826	0.855308
O	-1.59152	-0.0893146	-1.14654
H	-2.72849	-1.21347	0.0844543
H	-0.678987	0.302908	-1.1487
C	1.7334	0.750038	-0.0123796
O	0.852268	0.807944	-0.855465
O	1.59146	0.0894568	1.14661
H	2.72817	1.21421	-0.0840609
H	0.679107	-0.303178	1.14855
C	6.49257	-0.159353	-0.161965
O	5.96178	0.636219	-0.920327
O	5.92197	-0.477349	0.999418
H	7.44317	-0.613672	-0.438838
H	5.10162	-0.0103312	1.11209
