15
  This energy is -0.00121372 and Call times are: 5874
C	0.716188	1.74566	0.0844522
O	-0.162939	1.22974	0.756409
O	1.35953	1.09624	-0.897445
H	1.08819	2.77578	0.187575
H	0.979699	0.179381	-0.938243
C	-0.716027	-1.74574	-0.0843034
O	0.162674	-1.22962	-0.756654
O	-1.35941	-1.09629	0.897554
H	-1.08757	-2.77606	-0.186978
H	-0.979924	-0.179282	0.938024
C	5.17049	-0.249562	-0.0787135
O	5.28068	0.894437	-0.489706
O	4.05299	-0.65099	0.525912
H	5.99551	-0.949039	-0.208265
H	3.41997	0.0568487	0.57087
