15
  This energy is -3.8221e-05 and Call times are: 31742
C	1.12427	-0.747435	-1.32089
O	-0.0853325	-0.581992	-1.32852
O	1.90213	-0.394027	-0.286573
H	1.72095	-1.1925	-2.13086
H	1.30694	-0.00189857	0.4052
C	-1.12424	0.747644	1.3208
O	0.0852774	0.581649	1.32867
O	-1.9021	0.394182	0.286505
H	-1.72085	1.19332	2.13049
H	-1.30698	0.00160227	-0.405062
C	11.5923	-0.395287	0.0797628
O	12.6747	-0.536965	-0.466312
O	11.1347	0.819852	0.379017
H	10.9949	-1.27268	0.324613
H	11.7539	1.48968	0.111103
