15
  This energy is -0.00796536 and Call times are: 21532
C	-0.94203	1.24849	-1.0589
O	-1.3518	0.498685	-0.186855
O	0.34676	1.30292	-1.42745
H	-1.55035	1.95647	-1.64102
H	0.837894	0.645009	-0.868438
C	0.94207	-1.24832	1.05905
O	1.35173	-0.498957	0.186599
O	-0.346729	-1.3028	1.42757
H	1.5505	-1.95583	1.64164
H	-0.837944	-0.645244	0.868212
C	7.16938	0.220806	0.143329
O	7.40021	-0.510579	-0.806189
O	5.94062	0.309946	0.650994
H	7.97765	0.806552	0.579567
H	5.33744	-0.251459	0.176894
