15
  This energy is -7.779e-06 and Call times are: 50786
C	0.830996	-0.329171	1.66388
O	0.382964	0.710952	1.20783
O	0.798124	-1.49217	0.995946
H	1.30573	-0.451657	2.64865
H	0.36074	-1.31425	0.122104
C	-0.831199	0.32912	-1.66379
O	-0.382628	-0.710867	-1.20798
O	-0.798275	1.49213	-0.995877
H	-1.30654	0.451478	-2.64829
H	-0.360447	1.31431	-0.122241
C	26.6814	0.428971	0.146204
O	27.4543	-0.254617	0.798203
O	26.0001	-0.0963987	-0.87131
H	26.548	1.47993	0.399975
H	26.2118	-1.01674	-0.980542
