15
  This energy is -0.000319697 and Call times are: 4146
C	-0.300251	-1.02258	-1.55935
O	-0.236643	0.188782	-1.42103
O	-0.154617	-1.88168	-0.539302
H	-0.47908	-1.5568	-2.50423
H	0.00277286	-1.33976	0.278079
C	0.300478	1.02257	1.55932
O	0.236269	-0.188762	1.42109
O	0.154785	1.88167	0.539273
H	0.479967	1.55677	2.50407
H	-0.00309658	1.33977	-0.278018
C	6.17972	0.346724	-0.281364
O	5.00035	0.0342913	-0.245912
O	7.07909	-0.305384	0.454435
H	6.4992	1.16786	-0.921974
H	6.66495	-0.993803	0.962706
