15
  This energy is -0.00263731 and Call times are: 25702
C	-0.424774	1.17072	1.42
O	-0.747583	0.00623288	1.24581
O	0.344309	1.85121	0.556736
H	-0.709382	1.79917	2.27685
H	0.5649	1.23202	-0.187914
C	0.424964	-1.17078	-1.41988
O	0.74727	-0.00612571	-1.246
O	-0.344168	-1.85125	-0.556652
H	0.710114	-1.79945	-2.2764
H	-0.565166	-1.23192	0.187748
C	3.87942	0.294376	0.29477
O	2.94391	-0.330612	0.768054
O	4.27512	0.081536	-0.959678
H	4.39565	1.03398	0.905674
H	3.74011	-0.586054	-1.37424
