15
  This energy is -9.719e-06 and Call times are: 50198
C	0.190625	1.50637	-1.12335
O	-0.81395	1.03495	-0.614274
O	1.41256	0.981408	-0.947094
H	0.230916	2.39352	-1.77258
H	1.3074	0.189938	-0.356265
C	-0.190591	-1.50623	1.12354
O	0.813893	-1.03517	0.613972
O	-1.41253	-0.981308	0.947229
H	-0.230803	-2.39299	1.77331
H	-1.30744	-0.190133	0.356002
C	32.3034	0.00612648	0.405376
O	31.1597	0.430317	0.449034
O	32.8307	-0.412515	-0.744485
H	32.8984	-0.0300665	1.31716
H	32.205	-0.325413	-1.45489
