15
  This energy is -8.451e-06 and Call times are: 8731
C	1.18379	1.44743	0.266402
O	1.34566	0.412441	-0.360624
O	0.0457007	1.73663	0.91516
H	1.9213	2.2555	0.381612
H	-0.573318	0.973066	0.772488
C	-1.18388	-1.44733	-0.266589
O	-1.34552	-0.412615	0.360932
O	-0.0457629	-1.73655	-0.915298
H	-1.92161	-2.25511	-0.382357
H	0.57343	-0.973213	-0.772216
C	11.3792	-0.356382	-0.279819
O	11.5214	-0.68507	0.887027
O	11.3013	0.929549	-0.620155
H	11.3154	-1.12371	-1.05043
H	11.3711	1.48703	0.146738
