15
  This energy is 0.000246668 and Call times are: 13009
C	-0.488386	1.43371	1.12844
O	-1.03914	0.358816	0.949948
O	0.640898	1.78823	0.496931
H	-0.829412	2.23008	1.80641
H	0.893649	1.03181	-0.0951021
C	0.488513	-1.43379	-1.12827
O	1.03893	-0.358671	-0.95023
O	-0.640804	-1.7883	-0.496805
H	0.829892	-2.23045	-1.80574
H	-0.893823	-1.03168	0.0948546
C	6.45912	0.234185	-0.354371
O	5.46468	-0.416847	-0.631955
O	6.96617	0.210611	0.877644
H	6.93636	0.840712	-1.12318
H	6.45363	-0.356009	1.44335
