15
  This energy is 6.723e-06 and Call times are: 8395
C	-0.904574	1.65723	0.0523742
O	-0.995032	0.744167	-0.753051
O	-0.0798748	1.61787	1.10977
H	-1.46588	2.60288	0.0232542
H	0.393499	0.745246	1.07799
C	0.904408	-1.65732	-0.0522442
O	0.995306	-0.744015	0.752837
O	0.079752	-1.61794	-1.10968
H	1.46522	-2.60325	-0.0227647
H	-0.393257	-0.745112	-1.07816
C	13.0045	-0.170064	0.115024
O	12.8102	0.93754	0.589662
O	12.0825	-0.754397	-0.649192
H	13.9422	-0.685426	0.319195
H	11.3188	-0.196264	-0.743975
