15
  This energy is -0.00155198 and Call times are: 15769
C	1.21562	-1.33706	0.549496
O	0.0643025	-1.44294	0.157287
O	1.84313	-0.156348	0.658709
H	1.87277	-2.16432	0.856006
H	1.20038	0.543313	0.369047
C	-1.21554	1.33704	-0.549711
O	-0.0644337	1.44297	-0.156932
O	-1.84307	0.156334	-0.658868
H	-1.87248	2.16424	-0.856854
H	-1.20048	-0.543278	-0.368738
C	5.06608	-0.24821	-0.180633
O	5.4471	-0.686621	0.892869
O	5.61819	0.845879	-0.703756
H	4.26582	-0.757914	-0.71588
H	6.2997	1.18575	-0.134712
