15
  This energy is 2.336e-06 and Call times are: 6967
C	0.332275	-1.37868	1.24749
O	1.11921	-0.70248	0.604022
O	-0.998251	-1.23235	1.1577
H	0.595811	-2.17165	1.96297
H	-1.16811	-0.506903	0.500866
C	-0.332272	1.37884	-1.24732
O	-1.11922	0.702227	-0.604306
O	0.998252	1.23247	-1.15757
H	-0.595782	2.17226	-1.9623
H	1.16809	0.506683	-0.501111
C	27.3869	0.271108	0.363411
O	26.4295	0.433025	-0.376194
O	28.3298	-0.623638	0.0703864
H	27.4702	0.86523	1.27269
H	28.1319	-1.06808	-0.746375
