15
  This energy is 0.00025038 and Call times are: 28206
C	0.669093	-1.75937	0.156002
O	-0.286589	-1.34156	-0.478572
O	1.45336	-0.965474	0.900606
H	1.00638	-2.8054	0.203008
H	1.0978	-0.041931	0.815704
C	-0.668953	1.7594	-0.156181
O	0.286358	1.34151	0.478868
O	-1.45325	0.9655	-0.900739
H	-1.00585	2.80554	-0.203724
H	-1.09799	0.0418846	-0.815442
C	7.03312	0.0295066	0.451411
O	8.12055	-0.0830415	-0.0913658
O	5.9123	0.0554517	-0.268729
H	6.97971	0.109527	1.53652
H	6.10465	-0.0229874	-1.19643
