15
  This energy is -0.00264621 and Call times are: 33717
C	-0.385112	1.77411	-0.521193
O	-0.256866	1.29971	0.596428
O	-0.261836	1.04582	-1.64109
H	-0.611009	2.82496	-0.755369
H	-0.0596626	0.114191	-1.36224
C	0.385337	-1.77406	0.521183
O	0.256495	-1.29979	-0.596411
O	0.262003	-1.04578	1.64108
H	0.61189	-2.82477	0.755353
H	0.0593412	-0.114263	1.36224
C	3.88503	0.163451	-0.422846
O	4.94329	-0.390763	-0.172422
O	2.92335	0.241572	0.496166
H	3.72629	0.598561	-1.40884
H	3.19443	-0.176972	1.30555
