15
  This energy is -4.7735e-05 and Call times are: 8059
C	-0.724354	1.5097	0.873796
O	-1.27559	0.488109	0.495559
O	0.588607	1.73267	0.711955
H	-1.21009	2.35669	1.38058
H	0.964997	0.936733	0.252192
C	0.724398	-1.5098	-0.87359
O	1.27552	-0.487953	-0.495897
O	-0.588574	-1.73274	-0.711803
H	1.21025	-2.35708	-1.37978
H	-0.965052	-0.936594	-0.252486
C	17.3497	0.0589312	0.00187246
O	17.0264	-1.06546	-0.345962
O	16.4263	0.963064	0.3263
H	18.4052	0.3249	0.047151
H	15.5522	0.598571	0.242612
