15
  This energy is -2.1142e-05 and Call times are: 24092
C	0.998524	-1.25299	-1.00019
O	1.28271	-0.681158	0.0403984
O	-0.162738	-1.06126	-1.64399
H	1.63182	-1.9773	-1.53354
H	-0.684076	-0.401922	-1.1148
C	-0.99862	1.25281	1.0003
O	-1.28255	0.681444	-0.0405907
O	0.162666	1.06113	1.64408
H	-1.63219	1.97663	1.53402
H	0.684207	0.40217	1.11463
C	15.162	0.130278	0.430032
O	14.1578	0.615458	-0.0660135
O	15.9439	-0.685638	-0.275922
H	15.4206	0.36771	1.46127
H	15.6018	-0.805104	-1.15483
