15
  This energy is -0.00269586 and Call times are: 20260
C	-1.59704	-0.262784	0.973563
O	-1.35202	-0.492889	-0.200145
O	-0.693412	0.254966	1.81924
H	-2.55673	-0.441575	1.48068
H	0.144178	0.39154	1.30315
C	1.5971	0.262572	-0.973503
O	1.35191	0.493238	0.200046
O	0.693463	-0.255122	-1.8192
H	2.557	0.440742	-1.48047
H	-0.144272	-0.391234	-1.30323
C	5.03994	-0.353372	0.152632
O	5.03289	-0.283642	-1.06592
O	4.39051	0.546857	0.889751
H	5.58349	-1.1609	0.641657
H	3.96243	1.19103	0.336967
