15
  This energy is -0.00109508 and Call times are: 34684
C	-0.56025	1.79519	0.175556
O	0.555598	1.34225	-0.0251972
O	-1.64741	1.02136	0.313566
H	-0.818527	2.86055	0.26754
H	-1.34809	0.0788388	0.220752
C	0.560209	-1.79518	-0.175783
O	-0.555531	-1.34227	0.0255702
O	1.64738	-1.02135	-0.313733
H	0.818391	-2.8605	-0.268429
H	1.34814	-0.078859	-0.220427
C	5.65902	-0.171751	0.330376
O	5.73502	1.04444	0.260374
O	4.87873	-0.854347	-0.506713
H	6.23595	-0.703743	1.08592
H	4.43591	-0.268127	-1.11007
