15
  This energy is -2.567e-05 and Call times are: 51836
C	-0.756762	-1.71949	0.195152
O	-1.30244	-0.628794	0.138621
O	0.573833	-1.87389	0.121331
H	-1.262	-2.68988	0.310127
H	0.96727	-0.967634	0.0190189
C	0.75675	1.71946	-0.195381
O	1.30246	0.628832	-0.138244
O	-0.573841	1.87387	-0.1215
H	1.26193	2.68981	-0.311022
H	-0.967243	0.967664	-0.0186918
C	13.5469	-0.113954	0.413729
O	14.4036	-0.258741	-0.443539
O	12.3335	0.334827	0.0945874
H	13.7781	-0.354627	1.45071
H	12.2703	0.503917	-0.838789
