15
  This energy is -8.47e-07 and Call times are: 49610
C	-0.764159	1.70278	0.289862
O	-1.23615	0.718766	-0.257425
O	0.471798	1.72481	0.811109
H	-1.2684	2.67095	0.426003
H	0.869554	0.827946	0.656255
C	0.764077	-1.70284	-0.289658
O	1.23628	-0.718652	0.257089
O	-0.471857	-1.72486	-0.810958
H	1.26806	-2.67123	-0.425216
H	-0.869429	-0.827845	-0.656542
C	29.3828	0.319527	-0.299842
O	28.7027	0.356052	0.713036
O	30.3476	-0.588822	-0.439552
H	29.1979	1.03796	-1.09758
H	30.3988	-1.14829	0.32736
