15
  This energy is -5.5515e-05 and Call times are: 27828
C	-0.728748	1.20472	1.25896
O	0.43294	1.03382	0.924526
O	-1.74783	0.503772	0.739432
H	-1.08675	1.92999	2.00459
H	-1.36004	-0.128161	0.0784972
C	0.72872	-1.20456	-1.25912
O	-0.432892	-1.03408	-0.924254
O	1.74781	-0.503655	-0.739554
H	1.08666	-1.92937	-2.00524
H	1.36007	0.127931	-0.0782637
C	9.08327	-0.438546	0.114614
O	9.25371	-0.273814	-1.08272
O	8.96754	0.604585	0.935587
H	9.02533	-1.44995	0.515139
H	9.03664	1.42208	0.455277
