15
  This energy is -0.00213077 and Call times are: 27576
C	1.76692	0.0814179	-0.662384
O	0.788149	0.744467	-0.967238
O	1.73191	-0.885986	0.266421
H	2.77496	0.182006	-1.09123
H	0.801376	-0.925244	0.611561
C	-1.76687	-0.0812663	0.662548
O	-0.788242	-0.744716	0.966968
O	-1.73187	0.886097	-0.266299
H	-2.77475	-0.181398	1.09186
H	-0.801456	0.925021	-0.61179
C	5.45967	0.02614	0.383794
O	5.3967	1.04943	-0.278556
O	6.17651	-1.01483	-0.0381609
H	4.92349	-0.035474	1.33006
H	6.5891	-0.824893	-0.873306
