15
  This energy is -2.2006e-05 and Call times are: 50828
C	1.08533	0.764836	1.34331
O	-0.0558383	0.336425	1.41232
O	1.79998	0.756497	0.207976
H	1.66344	1.20053	2.17163
H	1.22551	0.353866	-0.49518
C	-1.08525	-0.765044	-1.34326
O	0.0556973	-0.336083	-1.41241
O	-1.79992	-0.75665	-0.207937
H	-1.66312	-1.20135	-2.17142
H	-1.22562	-0.353568	0.495099
C	24.8479	0.229677	0.302563
O	25.5152	-0.559264	-0.347044
O	23.5378	0.349089	0.0906608
H	25.3298	0.842279	1.06359
H	23.2514	-0.241379	-0.597167
