15
  This energy is -0.00137737 and Call times are: 400
C	0.340588	0.631824	-1.74706
O	0.594788	-0.452147	-1.24609
O	-0.269672	1.62023	-1.07592
H	0.568371	0.936238	-2.77934
H	-0.446525	1.28368	-0.158307
C	-0.340794	-0.6319	1.74698
O	-0.594449	0.452272	1.24621
O	0.269519	-1.62028	1.07587
H	-0.569168	-0.936556	2.77906
H	0.446815	-1.28357	0.158409
C	3.6767	0.375696	-0.121363
O	4.7173	0.228527	-0.742078
O	3.30142	-0.512211	0.798584
H	3.04883	1.24286	-0.322636
H	3.93869	-1.21395	0.870887
