15
  This energy is 9.887e-05 and Call times are: 51752
C	0.939417	1.57428	0.45448
O	-0.0692928	1.43464	-0.219002
O	1.58687	0.544468	1.02022
H	1.43796	2.52817	0.681847
H	1.08969	-0.280721	0.778504
C	-0.939543	-1.57425	-0.454288
O	0.0695002	-1.43468	0.218687
O	-1.58697	-0.544451	-1.02008
H	-1.43847	-2.52808	-0.681111
H	-1.0895	0.280684	-0.778774
C	10.2874	-0.420691	-0.12679
O	9.39729	0.134151	0.497443
O	11.4386	0.204014	-0.371498
H	10.1377	-1.43773	-0.487236
H	11.4332	1.0799	-0.00194428
