15
  This energy is -0.000781079 and Call times are: 13687
C	0.742227	1.50708	-0.863262
O	-0.407153	1.09537	-0.86333
O	1.73419	0.900148	-0.194372
H	1.10934	2.39921	-1.39193
H	1.33946	0.108627	0.257558
C	-0.742269	-1.50695	0.863448
O	0.407222	-1.09559	0.863024
O	-1.73422	-0.900052	0.19451
H	-1.10953	-2.3987	1.39265
H	-1.33939	-0.108815	-0.25782
C	7.12326	0.44576	-0.0338931
O	8.11895	0.190907	0.624478
O	6.38976	-0.531713	-0.564969
H	6.8322	1.48411	-0.188239
H	6.75617	-1.38285	-0.352639
