15
  This energy is -0.00225331 and Call times are: 12401
C	-0.590615	1.59242	-0.826301
O	-1.2008	0.560368	-0.59584
O	0.699229	1.76526	-0.500413
H	-0.999032	2.48952	-1.31474
H	1.00535	0.925802	-0.0666366
C	0.590555	-1.59233	0.826506
O	1.2009	-0.56051	0.595503
O	-0.699273	-1.76519	0.500564
H	0.998779	-2.48919	1.31554
H	-1.00526	-0.925923	0.066345
C	4.32151	-0.244672	-0.381329
O	4.81608	-0.82184	0.573692
O	3.79412	0.971205	-0.243398
H	4.3118	-0.730002	-1.35656
H	3.87015	1.27273	0.654978
