15
  This energy is -2.308e-05 and Call times are: 10126
C	-0.211815	-1.83767	0.381466
O	-0.9462	-1.07821	-0.23048
O	0.953516	-1.44878	0.920491
H	-0.397405	-2.90575	0.568313
H	1.06047	-0.48236	0.717647
C	0.211926	1.83761	-0.38166
O	0.946017	1.0783	0.2308
O	-0.953433	1.44874	-0.920634
H	0.397822	2.90554	-0.569084
H	-1.06062	0.482439	-0.717365
C	7.6623	-0.0561272	0.428518
O	8.81967	0.324451	0.354793
O	6.94231	-0.263217	-0.673413
H	7.21427	-0.22799	1.40649
H	7.45443	-0.0755365	-1.45206
