15
  This energy is -0.00134085 and Call times are: 26942
C	0.382285	-0.780698	-1.67683
O	0.343088	0.396369	-1.35504
O	0.139088	-1.78051	-0.816023
H	0.613787	-1.16934	-2.67959
H	-0.0614997	-1.36544	0.0637737
C	-0.382061	0.780686	1.67689
O	-0.343457	-0.39635	1.35495
O	-0.138922	1.78051	0.816064
H	-0.612911	1.16931	2.6798
H	0.0611786	1.36545	-0.0638468
C	3.48345	-0.273061	0.175996
O	4.27116	0.132471	1.01555
O	3.60275	0.0894111	-1.10068
H	2.6745	-0.938557	0.475026
H	4.34733	0.668419	-1.21953
