15
  This energy is -1.6912e-05 and Call times are: 42764
C	1.2176	1.0465	0.994834
O	1.36915	0.480196	-0.0761016
O	0.0673499	1.00725	1.68415
H	1.97504	1.64474	1.52261
H	-0.569434	0.456066	1.1576
C	-1.21767	-1.04631	-0.99494
O	-1.36903	-0.480511	0.0762768
O	-0.0674049	-1.00711	-1.68423
H	-1.97532	-1.64401	-1.52304
H	0.569532	-0.456338	-1.15744
C	55.1461	-0.166545	-0.241297
O	54.0631	-0.563408	-0.640702
O	55.2257	0.664869	0.796935
H	56.0567	-0.496431	-0.739967
H	54.3604	0.869195	1.13353
