15
  This energy is -0.00190705 and Call times are: 15364
C	0.677728	1.60829	0.722155
O	0.152051	0.660909	1.28493
O	0.868882	1.65365	-0.604938
H	1.05315	2.52133	1.2075
H	0.511017	0.806484	-0.980171
C	-0.677519	-1.60838	-0.722131
O	-0.152394	-0.660751	-1.28497
O	-0.868727	-1.65372	0.604955
H	-1.05235	-2.52172	-1.20739
H	-0.511312	-0.806344	0.980128
C	4.0259	-0.23002	0.383848
O	4.09347	-0.958772	-0.592956
O	4.1645	1.08941	0.259667
H	3.85032	-0.664321	1.36734
H	4.31182	1.32987	-0.648216
