15
  This energy is -0.00543728 and Call times are: 53153
C	1.69115	0.279344	-0.79334
O	0.773101	1.06451	-0.61651
O	1.63201	-1.00782	-0.419875
H	2.65742	0.510378	-1.26567
H	0.741454	-1.15001	-0.00364331
C	-1.69106	-0.279291	0.793546
O	-0.773249	-1.0646	0.616172
O	-1.63195	1.00786	0.420027
H	-2.65708	-0.510153	1.26647
H	-0.741581	1.14993	0.00335124
C	5.02374	-0.35795	-0.035913
O	4.98807	0.361594	-1.02119
O	5.81297	-0.0608518	0.995769
H	4.40306	-1.25251	-0.000888935
H	6.29574	0.74157	0.831981
