15
  This energy is -0.00100508 and Call times are: 2255
C	1.09903	-0.397826	-1.48367
O	0.26508	-1.09076	-0.922467
O	1.38455	0.855193	-1.0987
H	1.70864	-0.694255	-2.35008
H	0.804722	1.0598	-0.318638
C	-1.09919	0.39791	1.48352
O	-0.264817	1.09062	0.922703
O	-1.38467	-0.85513	1.09859
H	-1.70927	0.694563	2.34952
H	-0.80449	-1.05991	0.318845
C	4.97073	-0.0446149	0.388825
O	6.13836	0.263366	0.566577
O	4.49143	-0.214404	-0.842821
H	4.31437	-0.181871	1.24735
H	5.16865	-0.0639562	-1.49283
