15
  This energy is -1.338e-05 and Call times are: 6673
C	0.293211	1.42959	-1.19904
O	1.08303	0.843756	-0.475472
O	-1.01103	1.12058	-1.25602
H	0.53308	2.26064	-1.87873
H	-1.16044	0.368946	-0.624136
C	-0.293171	-1.42974	1.19887
O	-1.0831	-0.843511	0.475754
O	1.01106	-1.12069	1.25589
H	-0.532904	-2.26123	1.87807
H	1.16037	-0.368734	0.624379
C	21.6745	-0.0305558	-0.154099
O	21.8485	-0.670967	0.8703
O	22.6732	0.65974	-0.703258
H	20.6915	-0.0241075	-0.623532
H	23.4697	0.566106	-0.192718
