15
  This energy is -0.00328308 and Call times are: 53279
C	1.84376	-0.314389	-0.26292
O	0.916499	-1.10704	-0.213198
O	1.67908	1.01002	-0.126583
H	2.90268	-0.567372	-0.420494
H	0.708645	1.17046	0.0115535
C	-1.84378	0.314412	0.262692
O	-0.916455	1.107	0.213573
O	-1.6791	-1.01	0.126414
H	-2.9028	0.567442	0.419603
H	-0.708607	-1.17048	-0.0112271
C	5.6987	-0.256576	0.360784
O	5.32151	-0.916763	-0.594029
O	5.78616	1.07051	0.278837
H	5.96647	-0.759036	1.28951
H	5.5236	1.37401	-0.582976
