15
  This energy is -0.00260741 and Call times are: 9860
C	0.620559	-1.45422	-1.03323
O	-0.507514	-1.20113	-0.640838
O	1.67776	-0.67237	-0.767135
H	0.91476	-2.32574	-1.6366
H	1.34686	0.0904282	-0.223813
C	-0.620595	1.45434	1.03304
O	0.507573	1.20093	0.641157
O	-1.67779	0.672459	0.766992
H	-0.914923	2.3262	1.63584
H	-1.3468	-0.0905952	0.224091
C	4.80172	-0.362308	-0.187503
O	6.01666	-0.467638	-0.13637
O	4.19285	0.728212	0.276778
H	4.20987	-1.16939	-0.617657
H	4.82593	1.34782	0.62185
