15
  This energy is -2.8189e-05 and Call times are: 49442
C	-0.900254	1.44959	-0.809709
O	-0.772123	1.17304	0.372523
O	-0.377503	0.702955	-1.79411
H	-1.44181	2.31679	-1.21571
H	0.0944702	-0.0577445	-1.36383
C	0.900447	-1.44947	0.809713
O	0.771804	-1.17324	-0.372529
O	0.377646	-0.702863	1.79411
H	1.44256	-2.3163	1.21575
H	-0.0947441	0.0575619	1.36382
C	34.0927	-0.297392	-0.28312
O	34.3008	0.860622	-0.607945
O	33.3686	-0.581307	0.798817
H	34.5041	-1.10671	-0.885191
H	33.0742	0.214777	1.22698
