15
  This energy is -2.096e-05 and Call times are: 16771
C	-1.34743	-1.25677	0.415168
O	-0.509517	-1.27594	-0.472583
O	-1.4458	-0.256383	1.30361
H	-2.10894	-2.02834	0.602065
H	-0.735855	0.401761	1.08139
C	1.34758	1.25666	-0.415025
O	0.509281	1.27612	0.472347
O	1.44591	0.256303	-1.3035
H	2.10951	2.02791	-0.601522
H	0.735648	-0.401599	-1.08158
C	17.2363	0.0661271	-0.262815
O	17.1096	-0.895178	0.478554
O	18.3509	0.796067	-0.24654
H	16.4285	0.329129	-0.944763
H	18.9681	0.456463	0.391842
