15
  This energy is -0.000429759 and Call times are: 23840
C	0.805127	0.425413	1.65475
O	-0.145057	0.94666	1.09259
O	1.47689	-0.614801	1.13855
H	1.22583	0.725583	2.62586
H	1.05035	-0.834712	0.268913
C	-0.805267	-0.42556	-1.65464
O	0.145287	-0.946416	-1.09277
O	-1.47699	0.614691	-1.13847
H	-1.2264	-0.726146	-2.62544
H	-1.05014	0.834916	-0.26907
C	4.70657	-0.282941	-0.198957
O	5.08452	-0.688993	0.888272
O	5.15087	0.875463	-0.684979
H	3.99826	-0.875022	-0.777271
H	5.7597	1.28454	-0.0801958
