15
  This energy is -4.7047e-05 and Call times are: 51500
C	0.484856	-1.7152	0.624834
O	-0.391473	-1.38994	-0.16055
O	1.3037	-0.829261	1.21168
H	0.715328	-2.74129	0.947598
H	1.04503	0.0707065	0.880453
C	-0.484704	1.71517	-0.625006
O	0.391223	1.38998	0.160833
O	-1.30358	0.829245	-1.21181
H	-0.714752	2.7412	-0.948285
H	-1.04524	-0.0706706	-0.880202
C	10.7012	-0.118929	0.319888
O	11.7209	-0.788566	0.359588
O	10.5521	0.840713	-0.592456
H	9.9051	-0.308926	1.03877
H	11.3187	0.897395	-1.15183
