15
  This energy is -0.00341478 and Call times are: 35744
C	-0.636343	1.67203	0.605636
O	0.157159	1.41576	-0.286135
O	-1.2248	0.725529	1.35238
H	-0.965968	2.67689	0.908561
H	-0.88722	-0.151439	1.03063
C	0.636167	-1.67204	-0.605784
O	-0.156868	-1.41575	0.286379
O	1.22467	-0.725538	-1.35249
H	0.965293	-2.67693	-0.909156
H	0.887467	0.15145	-1.03041
C	4.04282	0.369757	0.2592
O	4.08169	-0.66356	0.907687
O	3.8889	0.33765	-1.06397
H	4.1351	1.32805	0.768977
H	3.82177	-0.558245	-1.37485
