15
  This energy is -2.9344e-05 and Call times are: 10042
C	1.17944	1.30393	-0.689982
O	0.0582983	0.992433	-1.05955
O	1.79411	0.717788	0.348475
H	1.81652	2.07927	-1.14069
H	1.17059	0.0331568	0.707743
C	-1.17953	-1.30378	0.690126
O	-0.0581556	-0.992693	1.05931
O	-1.79417	-0.717671	-0.348368
H	-1.81688	-2.07866	1.14124
H	-1.17046	-0.033385	-0.707942
C	8.21338	-0.0985491	0.387937
O	8.0968	1.10335	0.210071
O	7.74034	-0.967777	-0.504359
H	8.7098	-0.463277	1.28641
H	7.33416	-0.514964	-1.23494
