15
  This energy is -1.5865e-05 and Call times are: 38774
C	0.834081	0.849192	-1.46649
O	0.0553718	-0.0909564	-1.44901
O	1.24965	1.47267	-0.353676
H	1.28555	1.29802	-2.36364
H	0.80888	1.02287	0.414414
C	-0.834255	-0.849042	1.46647
O	-0.0550845	0.0907097	1.44903
O	-1.24978	-1.47256	0.353665
H	-1.28624	-1.29745	2.36358
H	-0.808626	-1.02308	-0.414386
C	25.083	-0.277878	-0.285377
O	25.4898	0.733139	-0.835091
O	25.291	-0.475886	1.0158
H	24.5442	-1.02571	-0.866016
H	25.7706	0.251555	1.39601
