15
  This energy is -2.5973e-05 and Call times are: 38018
C	0.845844	-0.51325	1.60889
O	-0.285405	-0.746497	1.21336
O	1.73259	0.202881	0.901352
H	1.27797	-0.845709	2.56434
H	1.28359	0.470589	0.0567853
C	-0.845765	0.513058	-1.60899
O	0.285275	0.746813	-1.2132
O	-1.73253	-0.203022	-0.901427
H	-1.27768	0.844952	-2.56474
H	-1.2837	-0.47031	-0.0566451
C	22.5384	0.0129633	-0.273569
O	23.2714	-0.933697	-0.511036
O	22.8327	0.874405	0.699485
H	21.6341	0.153985	-0.864343
H	23.6447	0.632668	1.13085
