15
  This energy is -0.00322059 and Call times are: 22073
C	1.37388	1.13553	-0.624854
O	0.201418	1.38433	-0.392458
O	1.90759	-0.0839023	-0.457758
H	2.12635	1.85025	-0.989709
H	1.18186	-0.677295	-0.129477
C	-1.37382	-1.13547	0.625071
O	-0.201515	-1.38441	0.392101
O	-1.90754	0.0839404	0.457918
H	-2.12614	-1.85003	0.990558
H	-1.18194	0.677213	0.129167
C	6.96555	-0.220979	0.390655
O	6.67047	0.951254	0.559745
O	7.06587	-0.727316	-0.837788
H	7.14863	-0.859133	1.25434
H	6.8812	-0.0637595	-1.49305
