15
  This energy is -0.00295042 and Call times are: 11009
C	0.909208	-1.64189	-0.211978
O	-0.251311	-1.42746	0.100735
O	1.78696	-0.661683	-0.473719
H	1.37776	-2.6315	-0.318298
H	1.30474	0.199297	-0.360875
C	-0.909265	1.64189	0.211754
O	0.251404	1.42747	-0.100367
O	-1.787	0.661679	0.473554
H	-1.378	2.63147	0.317431
H	-1.30465	-0.199284	0.361193
C	5.45018	0.0322459	-0.045159
O	4.86418	0.136271	-1.1108
O	4.77436	-0.154487	1.08794
H	6.53759	0.0929084	-0.0215679
H	3.83887	-0.187762	0.922022
