15
  This energy is -2.2686e-05 and Call times are: 39152
C	-1.34188	0.984765	0.892756
O	-1.24879	-0.218727	0.709684
O	-0.428941	1.86249	0.450124
H	-2.15676	1.49638	1.42601
H	0.274182	1.34044	-0.0185316
C	1.34199	-0.984781	-0.892557
O	1.24859	0.218754	-0.71001
O	0.429028	-1.8625	-0.449977
H	2.15721	-1.49647	-1.42524
H	-0.274344	-1.3404	0.0182461
C	22.35	0.446514	0.0621441
O	21.9267	-0.207218	1.00198
O	22.8877	-0.155113	-0.998217
H	22.2868	1.53363	0.0918143
H	22.8789	-1.09974	-0.891547
