15
  This energy is -0.0046978 and Call times are: 13905
C	-0.553848	-1.6812	-0.658948
O	-1.19754	-0.81855	-0.0826964
O	0.753165	-1.55453	-0.933621
H	-0.942278	-2.64538	-1.01901
H	1.03985	-0.669622	-0.585327
C	0.553799	1.6813	0.658743
O	1.19762	0.818395	0.0830334
O	-0.7532	1.5546	0.93347
H	0.942068	2.64576	1.01822
H	-1.03977	0.669486	0.585617
C	5.31284	0.17898	0.057176
O	5.34433	-1.03185	-0.0934192
O	4.1541	0.836736	0.0435065
H	6.24294	0.726689	0.204275
H	3.42762	0.238907	-0.0929086
