15
  This energy is -0.000171519 and Call times are: 51710
C	0.7477	-0.694569	-1.58932
O	1.24138	-0.584221	-0.478154
O	-0.504819	-0.306368	-1.87264
H	1.24331	-1.11196	-2.47831
H	-0.893709	0.0581245	-1.0345
C	-0.747779	0.694359	1.58937
O	-1.24124	0.584567	0.478069
O	0.504759	0.306213	1.87267
H	-1.2436	1.11114	2.47853
H	0.893815	-0.0578224	1.03442
C	8.13491	-0.126697	0.237482
O	8.56687	-1.02234	-0.470347
O	8.72399	1.06831	0.258704
H	7.25814	-0.307595	0.858167
H	9.47267	1.08658	-0.326897
