15
  This energy is -1.3945e-05 and Call times are: 39866
C	0.398928	-1.51565	-1.05407
O	0.383739	-0.334048	-1.36092
O	0.1101	-1.95205	0.181203
H	0.642454	-2.35419	-1.72317
H	-0.0990757	-1.15209	0.731541
C	-0.398706	1.51566	1.05413
O	-0.384105	0.334025	1.36083
O	-0.109936	1.95206	-0.181158
H	-0.641585	2.35427	1.72339
H	0.0987566	1.15207	-0.731619
C	38.4268	0.352701	0.081984
O	39.554	0.697376	-0.234879
O	38.1059	-0.938311	0.158003
H	37.676	1.10982	0.304815
H	38.8518	-1.48555	-0.0609143
