15
  This energy is -4.911e-06 and Call times are: 16477
C	1.20235	-0.430717	1.39148
O	1.25471	-0.703958	0.202716
O	0.198882	0.275377	1.93393
H	1.94313	-0.715181	2.15338
H	-0.430596	0.499336	1.19897
C	-1.20224	0.430913	-1.39152
O	-1.2549	0.703635	-0.202658
O	-0.198797	-0.275232	-1.93396
H	-1.94267	0.71594	-2.15354
H	0.430426	-0.499613	-1.19892
C	19.9427	-0.189954	0.204955
O	19.8288	-0.168936	-1.01011
O	21.0276	0.309561	0.795686
H	19.148	-0.622096	0.811917
H	21.6363	0.652025	0.150714
