15
  This energy is -2.1006e-05 and Call times are: 44318
C	-1.53635	-0.561056	-0.944591
O	-0.624925	0.169051	-1.30071
O	-1.58848	-1.12141	0.273217
H	-2.40804	-0.849397	-1.55054
H	-0.779183	-0.823587	0.766072
C	1.53646	0.560871	0.944513
O	0.624739	-0.168745	1.30084
O	1.58856	1.12128	-0.273274
H	2.40849	0.848685	1.55022
H	0.77902	0.823847	-0.765954
C	53.3789	-0.14999	-0.28308
O	54.4786	-0.0948843	-0.809692
O	53.215	0.207948	0.989926
H	52.5228	-0.495757	-0.861251
H	54.0398	0.487255	1.3714
