15
  This energy is -1.3293e-05 and Call times are: 32120
C	1.71988	-0.777177	-0.0735501
O	1.2784	0.197462	-0.661554
O	0.988708	-1.50394	0.784926
H	2.74004	-1.17891	-0.163198
H	0.0856346	-1.09189	0.820195
C	-1.71981	0.777309	0.0737257
O	-1.27852	-0.197679	0.661265
O	-0.988656	1.50403	-0.784796
H	-2.73977	1.17944	0.16387
H	-0.0857372	1.0917	-0.82044
C	17.0955	0.039917	-0.407348
O	17.261	1.02783	0.290107
O	16.4042	-1.00521	0.0457555
H	17.5181	0.0136403	-1.41104
H	16.095	-0.84793	0.930873
