15
  This energy is 7.1103e-05 and Call times are: 35317
C	1.02107	1.02587	-1.21343
O	0.33343	1.38778	-0.271756
O	1.16698	-0.262677	-1.55712
H	1.59447	1.68194	-1.88494
H	0.628473	-0.797989	-0.9168
C	-1.02088	-1.02589	1.21357
O	-0.333734	-1.38775	0.271531
O	-1.16684	0.262663	1.55723
H	-1.59376	-1.682	1.88549
H	-0.628735	0.798008	0.916601
C	8.57819	0.306376	-0.0911632
O	9.49298	0.770961	0.569974
O	8.59148	-0.971567	-0.468256
H	7.74234	0.94456	-0.375377
H	9.37478	-1.40877	-0.153498
