15
  This energy is -2.4779e-05 and Call times are: 43142
C	-0.84571	-1.40349	-0.939358
O	-0.27515	-1.41975	0.139886
O	-0.967878	-0.293603	-1.683
H	-1.32062	-2.26454	-1.43252
H	-0.521811	0.441264	-1.18545
C	0.845509	1.40354	0.93946
O	0.27548	1.41967	-0.140054
O	0.967729	0.293641	1.68307
H	1.31985	2.26473	1.43293
H	0.522096	-0.441329	1.1853
C	49.4542	0.381069	-0.0107845
O	50.4777	0.50252	0.643076
O	49.1566	-0.776027	-0.600778
H	48.7775	1.22869	-0.112328
H	49.8299	-1.42525	-0.430561
