15
  This energy is -1.2977e-05 and Call times are: 44696
C	-0.251179	-1.08845	1.52302
O	-0.428551	-1.34531	0.342706
O	0.18501	0.105503	1.95195
H	-0.418315	-1.77497	2.36618
H	0.315435	0.674217	1.14814
C	0.251398	1.08838	-1.52303
O	0.428192	1.34543	-0.342685
O	-0.184848	-0.105556	-1.95196
H	0.419163	1.77468	-2.36624
H	-0.315745	-0.674106	-1.14811
C	51.6887	-0.453229	0.0139394
O	52.2459	0.0312268	0.985856
O	51.1917	0.327137	-0.944997
H	51.5974	-1.53557	-0.0692107
H	51.3405	1.24459	-0.74524
