15
  This energy is -2.1192e-05 and Call times are: 16687
C	0.59745	1.75982	0.336879
O	-0.540101	1.32757	0.238361
O	1.68543	0.985286	0.209755
H	0.876815	2.80502	0.536046
H	1.36655	0.0614358	0.0326299
C	-0.597449	-1.75986	-0.336652
O	0.5401	-1.3275	-0.238734
O	-1.68543	-0.985317	-0.209587
H	-0.876836	-2.80518	-0.535161
H	-1.36654	-0.0613803	-0.0329546
C	18.2082	-0.173872	0.0942124
O	17.3559	-0.518774	0.896951
O	17.8995	0.628348	-0.923945
H	19.2321	-0.526461	0.212597
H	16.9771	0.857695	-0.905948
