15
  This energy is 0.000267341 and Call times are: 17992
C	0.47148	0.00757246	1.82895
O	-0.218025	-0.782984	1.20431
O	1.0459	1.07981	1.26316
H	0.708039	-0.0481737	2.90184
H	0.795192	1.07177	0.302096
C	-0.471291	-0.00769499	-1.82899
O	0.217713	0.783186	-1.20423
O	-1.04576	-1.0799	-1.26319
H	-0.707311	0.0476769	-2.90202
H	-0.795459	-1.07159	-0.302032
C	6.00164	-0.263917	0.355544
O	6.67172	-0.841783	-0.4852
O	5.63575	1.00525	0.179853
H	5.70008	-0.792695	1.25896
H	5.96538	1.34082	-0.646291
