15
  This energy is -0.000168234 and Call times are: 52929
C	0.396519	0.143276	1.8411
O	1.02385	0.546171	0.874297
O	-0.765987	-0.517424	1.73234
H	0.687107	0.261999	2.89543
H	-0.970232	-0.59049	0.76306
C	-0.396636	-0.143078	-1.84109
O	-1.02365	-0.546498	-0.874316
O	0.7659	0.51757	-1.73233
H	-0.687548	-0.261214	-2.8954
H	0.970391	0.590202	-0.763076
C	5.84701	0.373884	0.0441025
O	6.02498	0.0640904	-1.12301
O	6.3702	-0.354993	1.02925
H	5.25376	1.25614	0.281571
H	6.86096	-1.09108	0.681247
