15
  This energy is 2.046e-05 and Call times are: 12190
C	-0.771791	1.68604	0.359163
O	-0.196621	0.915189	1.11118
O	-0.958151	1.43015	-0.944509
H	-1.20057	2.66042	0.636445
H	-0.551096	0.543026	-1.12858
C	0.771989	-1.68594	-0.359214
O	0.196294	-0.915361	-1.1111
O	0.958298	-1.43007	0.94447
H	1.20136	-2.66002	-0.636628
H	0.55081	-0.543175	1.12865
C	4.60711	0.361327	-0.179681
O	4.56583	0.403626	1.03946
O	4.07988	-0.666795	-0.843386
H	5.08046	1.17363	-0.729958
H	3.70223	-1.29922	-0.242391
