15
  This energy is -0.000846564 and Call times are: 26236
C	-0.191541	1.11445	-1.51285
O	0.266042	-0.0142849	-1.42828
O	-0.666671	1.78983	-0.455552
H	-0.274288	1.71113	-2.43333
H	-0.563774	1.20031	0.337191
C	0.19133	-1.11453	1.51281
O	-0.265694	0.014423	1.42834
O	0.666514	-1.78989	0.455525
H	0.273471	-1.71148	2.43318
H	0.564072	-1.20019	-0.337131
C	4.41939	-0.310809	0.0844014
O	4.68156	0.377408	-0.888953
O	3.29763	-0.112938	0.775787
H	5.11091	-1.09504	0.39016
H	2.79053	0.598467	0.400919
