15
  This energy is -0.00218897 and Call times are: 14859
C	0.328526	-1.59689	-0.953634
O	-0.419009	-0.669019	-1.21976
O	1.09289	-1.6245	0.148526
H	0.473059	-2.50443	-1.55831
H	0.916757	-0.783406	0.646622
C	-0.328353	1.59699	0.95352
O	0.418724	0.668853	1.21994
O	-1.09276	1.62457	-0.14861
H	-0.472399	2.50484	1.55786
H	-0.916998	0.78326	-0.646452
C	4.11729	0.245631	-0.362833
O	3.28328	0.804674	0.331211
O	4.58672	-0.955697	-0.0282237
H	4.481	0.735268	-1.26543
H	4.18559	-1.26311	0.776988
