15
  This energy is -6.766e-06 and Call times are: 43982
C	1.26158	-0.301666	-1.37288
O	1.30663	0.46983	-0.427718
O	0.222203	-1.11953	-1.59773
H	2.03807	-0.427908	-2.14184
H	-0.438319	-0.957342	-0.873877
C	-1.26148	0.3015	1.37301
O	-1.30679	-0.469557	0.427512
O	-0.222129	1.11941	1.59782
H	-2.03767	0.427276	2.14234
H	0.438171	0.957573	0.873695
C	57.781	0.158709	0.417126
O	56.5919	-0.0193852	0.206685
O	58.6861	-0.106549	-0.524125
H	58.1044	0.538714	1.38547
H	58.2675	-0.429775	-1.31411
