15
  This energy is -3.9397e-05 and Call times are: 49358
C	1.05339	1.12657	-1.09024
O	0.739936	-0.0425763	-1.24966
O	0.664625	1.84743	-0.0276893
H	1.67465	1.72779	-1.77048
H	0.111474	1.25122	0.542507
C	-1.05358	-1.1265	1.09012
O	-0.739626	0.0424605	1.24984
O	-0.664764	-1.84737	0.0276062
H	-1.67539	-1.72754	1.77002
H	-0.111206	-1.25131	-0.542339
C	34.3573	-0.0558108	-0.273764
O	33.3474	-0.585945	-0.70828
O	34.3371	0.599066	0.886512
H	35.2847	-0.1195	-0.841727
H	33.4687	0.575794	1.2727
