15
  This energy is -0.00347069 and Call times are: 30599
C	-0.435813	0.666468	1.71269
O	-0.396536	-0.485665	1.31067
O	-0.151926	1.72086	0.933297
H	-0.699556	0.986995	2.73144
H	0.0763324	1.36576	0.0342061
C	0.436034	-0.666478	-1.71262
O	0.396171	0.485681	-1.31077
O	0.15209	-1.72086	-0.933251
H	0.70042	-0.987057	-2.73119
H	-0.0766477	-1.36573	-0.0342991
C	3.57861	0.0021939	0.357928
O	2.85869	-0.983092	0.331141
O	3.49883	0.929679	-0.595445
H	4.29374	0.123414	1.1707
H	2.83734	0.69816	-1.23779
