15
  This energy is -1.32e-05 and Call times are: 46418
C	-1.17184	-1.39278	0.504338
O	-1.20763	-0.657359	-0.469541
O	-0.214981	-1.3158	1.4415
H	-1.89235	-2.19025	0.738986
H	0.398404	-0.582404	1.17233
C	1.17196	1.39263	-0.504453
O	1.20742	0.65761	0.46973
O	0.215077	1.31569	-1.44159
H	1.89285	2.18966	-0.739455
H	-0.398583	0.582621	-1.17216
C	43.5655	0.420612	0.103553
O	43.1791	-0.407095	0.913113
O	44.2994	0.0546417	-0.94661
H	43.3067	1.46967	0.242261
H	44.4493	-0.884139	-0.943634
