15
  This energy is -1.534e-05 and Call times are: 43478
C	-0.0130864	1.84393	-0.408845
O	-0.251866	1.27694	0.645708
O	0.322287	1.18783	-1.52993
H	-0.0390226	2.93047	-0.578915
H	0.327697	0.21917	-1.31029
C	0.0133099	-1.84391	0.408899
O	0.251498	-1.27697	-0.645797
O	-0.322121	-1.18781	1.52997
H	0.0398903	-2.93041	0.579148
H	-0.328014	-0.219195	1.31021
C	57.5405	-0.33971	0.151659
O	56.8915	0.654053	-0.13289
O	58.865	-0.352291	0.00653761
H	57.0301	-1.22537	0.528278
H	59.1763	0.48106	-0.328751
