15
  This energy is 0.000256839 and Call times are: 3852
C	-0.826645	-1.10698	1.28789
O	-0.841416	0.108994	1.17945
O	-0.165511	-1.90695	0.437753
H	-1.33446	-1.69257	2.06851
H	0.267469	-1.3208	-0.237166
C	0.826457	1.10696	-1.28802
O	0.841725	-0.108963	-1.17923
O	0.165373	1.90693	-0.437851
H	1.33372	1.69252	-2.06902
H	-0.267197	1.32081	0.237351
C	6.35833	-0.16633	0.419925
O	5.51337	-0.605599	-0.343528
O	7.27281	0.704673	-0.0050429
H	6.36379	-0.490725	1.45985
H	7.15167	0.898815	-0.927761
