15
  This energy is 1.2732e-05 and Call times are: 35912
C	-0.760515	0.252218	1.71038
O	-1.23405	0.469609	0.606262
O	0.47472	-0.239348	1.89019
H	-1.26264	0.423042	2.67415
H	0.87056	-0.370108	0.988652
C	0.760433	-0.252433	-1.71038
O	1.23418	-0.469255	-0.606258
O	-0.47478	0.239188	-1.89019
H	1.2623	-0.423877	-2.67417
H	-0.870435	0.370413	-0.988646
C	11.03	0.447972	-0.0126944
O	11.2069	0.0337896	1.12175
O	11.0538	-0.384597	-1.05278
H	10.8508	1.51012	-0.175265
H	11.2191	-1.27647	-0.768143
