15
  This energy is -0.000696175 and Call times are: 14326
C	0.32822	1.85195	0.173123
O	0.516731	0.948197	0.972044
O	-0.183532	1.64887	-1.05025
H	0.543934	2.91768	0.339955
H	-0.354594	0.67427	-1.13662
C	-0.328009	-1.85197	-0.17321
O	-0.51708	-0.948153	-0.9719
O	0.183689	-1.64889	1.05019
H	-0.543101	-2.9178	-0.340276
H	0.354289	-0.674231	1.13674
C	3.42214	-0.101523	-0.229471
O	3.92853	-1.08042	0.295049
O	3.97562	1.10352	-0.0989279
H	2.50771	-0.215657	-0.81041
H	4.76418	1.05782	0.430095
