15
  This energy is -3.278e-06 and Call times are: 12672
C	0.31596	1.63164	-0.897407
O	1.08474	0.7163	-0.649002
O	-0.977076	1.61522	-0.540247
H	0.568044	2.56142	-1.42854
H	-1.13843	0.755991	-0.0688085
C	-0.316017	-1.63173	0.897206
O	-1.08465	-0.71614	0.649333
O	0.977032	-1.61529	0.540099
H	-0.568249	-2.56182	1.42776
H	1.13851	-0.755851	0.0690974
C	13.6392	-0.35593	-0.104979
O	12.9991	0.677659	0.00354726
O	14.9588	-0.36189	0.0792649
H	13.1247	-1.28297	-0.355238
H	15.2746	0.509492	0.290914
