15
  This energy is -6.3869e-05 and Call times are: 3474
C	0.39841	-0.255402	-1.82851
O	1.14227	-0.256726	-0.860393
O	-0.924575	-0.0552939	-1.73135
H	0.699136	-0.412258	-2.87499
H	-1.12926	0.078635	-0.768683
C	-0.398446	0.255175	1.82853
O	-1.14221	0.257099	0.860357
O	0.924548	0.0551262	1.73137
H	-0.699256	0.411371	2.87508
H	1.1293	-0.0783098	0.768651
C	10.4391	-0.254069	0.270384
O	11.0016	-0.911919	-0.590176
O	10.6196	1.06394	0.346337
H	9.78251	-0.751134	0.983514
H	11.2133	1.36354	-0.333027
