15
  This energy is 0.000331909 and Call times are: 17527
C	0.201079	-1.79277	0.559405
O	0.912746	-0.824174	0.773688
O	-0.924936	-1.72401	-0.166637
H	0.378346	-2.81729	0.918695
H	-1.02638	-0.780068	-0.458614
C	-0.201202	1.79282	-0.559215
O	-0.912543	0.824103	-0.774
O	0.924844	1.72404	0.166777
H	-0.37881	2.81748	-0.917945
H	1.02655	0.780005	0.458338
C	6.44181	-0.0304528	0.42977
O	5.37406	-0.593243	0.248163
O	7.06565	0.586022	-0.573374
H	6.88855	-0.0329284	1.42331
H	6.56694	0.510129	-1.37917
