15
  This energy is -0.000270883 and Call times are: 33338
C	1.87678	-0.169612	-0.127768
O	1.19618	0.317252	0.761228
O	1.35017	-0.70167	-1.24104
H	2.97476	-0.236688	-0.138189
H	0.363731	-0.610105	-1.16951
C	-1.87679	0.169405	0.127869
O	-1.19616	-0.31691	-0.761393
O	-1.35018	0.701516	1.24111
H	-2.9748	0.235888	0.138601
H	-0.363718	0.610397	1.16936
C	6.22391	0.0710795	-0.352791
O	7.35654	-0.226104	-0.697208
O	5.90579	0.158272	0.938222
H	5.46577	0.266923	-1.11014
H	6.65815	-0.0367183	1.48568
