15
  This energy is -1.0224e-05 and Call times are: 4104
C	0.523161	1.79615	-0.259917
O	-0.594641	1.31666	-0.154191
O	1.64178	1.05775	-0.202975
H	0.758532	2.8601	-0.410825
H	1.36189	0.114569	-0.0664854
C	-0.523149	-1.79612	0.260145
O	0.59462	-1.31671	0.153815
O	-1.64177	-1.05773	0.203143
H	-0.758506	-2.85997	0.411716
H	-1.3619	-0.114617	0.0661596
C	8.21473	0.388436	0.233751
O	8.95775	-0.463435	0.694207
O	7.4705	0.133344	-0.841687
H	8.16036	1.36757	0.70815
H	7.61598	-0.753831	-1.15077
