15
  This energy is -1.6454e-05 and Call times are: 42470
C	-0.591337	1.64971	0.704395
O	0.431983	1.02496	0.934774
O	-1.52846	1.22275	-0.155412
H	-0.875534	2.61298	1.1533
H	-1.21347	0.355419	-0.522939
C	0.59144	-1.6496	-0.704568
O	-0.432152	-1.02515	-0.93449
O	1.52854	-1.22267	0.155284
H	0.875956	-2.61254	-1.15396
H	1.21331	-0.355582	0.523181
C	45.3165	-0.308815	0.321552
O	44.5326	-0.380608	-0.611312
O	46.2875	0.603657	0.326089
H	45.22	-0.998863	1.15895
H	46.2549	1.13594	-0.460925
