15
  This energy is -0.00181166 and Call times are: 18160
C	1.7186	-0.120713	-0.774111
O	0.934042	0.814589	-0.758267
O	1.45617	-1.30255	-0.196032
H	2.71187	-0.123318	-1.24693
H	0.551931	-1.23445	0.209286
C	-1.7185	0.120785	0.774307
O	-0.9342	-0.814707	0.757943
O	-1.4561	1.3026	0.196177
H	-2.7115	0.123619	1.2477
H	-0.552068	1.23434	-0.209564
C	5.75032	-0.0239337	0.0487357
O	5.40411	-0.0494654	-1.12143
O	4.84693	0.065702	1.02411
H	6.80977	-0.0750587	0.297044
H	3.96657	0.102346	0.667162
