15
  This energy is -0.00317981 and Call times are: 5039
C	-0.479523	-1.40272	1.1704
O	-1.18964	-0.65162	0.52067
O	0.860375	-1.33941	1.14944
H	-0.827409	-2.20507	1.83775
H	1.10774	-0.600727	0.533225
C	0.47953	1.40257	-1.17058
O	1.18963	0.651869	-0.520383
O	-0.860368	1.33929	-1.14957
H	0.827418	2.20449	-1.83844
H	-1.10774	0.600941	-0.532975
C	5.34492	-0.195173	0.220634
O	5.12456	0.941141	0.607963
O	4.61051	-0.738046	-0.749653
H	6.15109	-0.770719	0.673989
H	3.94658	-0.128653	-1.05231
