15
  This energy is -0.000365849 and Call times are: 18034
C	-0.395094	-1.75634	0.571457
O	-0.996646	-1.0362	-0.209633
O	0.731147	-1.37684	1.19382
H	-0.682833	-2.77764	0.861845
H	0.934773	-0.453189	0.890566
C	0.395221	1.75626	-0.571628
O	0.996436	1.03634	0.209915
O	-0.731052	1.37678	-1.19394
H	0.683315	2.7773	-0.86253
H	-0.934947	0.453313	-0.890316
C	4.38125	0.237043	0.265416
O	3.6664	-0.521558	0.900471
O	4.28944	0.307569	-1.06203
H	5.10178	0.862728	0.790837
H	3.62442	-0.288988	-1.38705
