15
  This energy is -1.0022e-05 and Call times are: 45662
C	0.785316	-0.4799	1.64936
O	0.359719	-1.18998	0.75201
O	0.756623	0.860235	1.59468
H	1.23428	-0.828018	2.59138
H	0.342942	1.1078	0.726263
C	-0.785107	0.479903	-1.64945
O	-0.360063	1.18997	-0.751852
O	-0.756467	-0.860231	-1.59475
H	-1.23347	0.828012	-2.59176
H	-0.343241	-1.1078	-0.726124
C	41.309	0.341365	0.298544
O	41.0222	0.712436	-0.828327
O	41.5562	-0.943657	0.549803
H	41.3631	1.06972	1.10679
H	41.474	-1.46465	-0.241134
