15
  This energy is -0.00103631 and Call times are: 5081
C	-0.475381	1.0022	1.52873
O	0.566634	0.996631	0.892531
O	-1.52758	0.232767	1.21152
H	-0.687343	1.616	2.41669
H	-1.27306	-0.292241	0.407691
C	0.475296	-1.00203	-1.52886
O	-0.566493	-0.996906	-0.892311
O	1.52752	-0.232644	-1.21162
H	0.68703	-1.61534	-2.41722
H	1.27317	0.291998	-0.407501
C	4.55921	0.285746	-0.347249
O	4.2144	0.856505	0.675067
O	4.72398	-1.03638	-0.366266
H	4.73383	0.864738	-1.25333
H	4.53908	-1.41239	0.487084
