15
  This energy is -2.273e-05 and Call times are: 39614
C	-1.75446	-0.291215	-0.635969
O	-0.826562	0.309767	-1.15404
O	-1.65993	-0.884637	0.563484
H	-2.75859	-0.424085	-1.0652
H	-0.736291	-0.728796	0.89388
C	1.75453	0.291018	0.635869
O	0.826453	-0.309442	1.1542
O	1.65998	0.884491	-0.563557
H	2.75886	0.423327	1.0648
H	0.736194	0.729073	-0.89373
C	31.4671	0.208794	-0.366357
O	32.1113	-0.780701	-0.0569086
O	30.3999	0.575321	0.342264
H	31.7691	0.797828	-1.23154
H	30.2517	-0.0243686	1.06489
