15
  This energy is -9.943e-06 and Call times are: 42554
C	0.233882	-1.18456	1.45242
O	0.983784	-0.932835	0.522443
O	-0.970023	-0.609938	1.59452
H	0.434426	-1.89092	2.27157
H	-1.08862	0.0115968	0.828892
C	-0.23379	1.18473	-1.45229
O	-0.983936	0.932556	-0.522651
O	0.970091	0.610063	-1.59443
H	-0.434045	1.89158	-2.27109
H	1.08848	-0.0118362	-0.829069
C	49.0453	-0.405474	-0.131876
O	48.3083	0.13658	0.676132
O	50.1666	0.189736	-0.536788
H	48.7823	-1.38659	-0.525509
H	50.2713	1.03562	-0.115741
