15
  This energy is -0.00182814 and Call times are: 4955
C	-1.64319	-0.910546	0.19553
O	-0.581842	-1.30556	-0.260618
O	-1.81685	0.333898	0.665612
H	-2.56898	-1.49859	0.28083
H	-0.950771	0.808711	0.560633
C	1.64325	0.910477	-0.195319
O	0.581743	1.30568	0.26027
O	1.81689	-0.333948	-0.665455
H	2.56923	1.49831	-0.280013
H	0.950681	-0.808605	-0.560932
C	5.08714	0.0352185	-0.437907
O	5.44767	1.09908	0.039603
O	5.05418	-1.06901	0.307142
H	4.78933	-0.0106478	-1.48476
H	5.33805	-0.885841	1.19576
