15
  This energy is -2.2492e-05 and Call times are: 42428
C	-0.00765634	-1.85339	-0.363729
O	-0.932472	-1.11192	-0.0712933
O	1.25931	-1.42794	-0.480204
H	-0.0828507	-2.93235	-0.564568
H	1.25846	-0.453458	-0.287995
C	0.00762456	1.85343	0.363504
O	0.932524	1.11185	0.0716628
O	-1.25933	1.42797	0.480037
H	0.0827053	2.93252	0.563696
H	-1.25841	0.453399	0.288315
C	43.5254	0.298957	-0.340175
O	44.1336	0.666326	0.652237
O	42.8797	-0.866594	-0.350205
H	43.511	0.931831	-1.22673
H	42.9751	-1.31307	0.483661
