15
  This energy is -1.5245e-05 and Call times are: 46124
C	0.668964	1.27433	-1.2231
O	1.14343	0.880236	-0.169466
O	-0.496625	0.824242	-1.71157
H	1.1151	2.02484	-1.89232
H	-0.844538	0.154942	-1.06538
C	-0.668854	-1.27449	1.22299
O	-1.14361	-0.879962	0.169658
O	0.496706	-0.824365	1.71148
H	-1.11466	-2.02549	1.89188
H	0.844374	-0.154706	1.06554
C	46.7354	0.101741	0.0765094
O	46.3888	-0.924908	0.638386
O	45.8732	0.796204	-0.665041
H	47.761	0.453009	0.183272
H	45.0194	0.378202	-0.671224
