15
  This energy is -0.000188381 and Call times are: 52634
C	-1.25941	0.521848	1.30727
O	-1.13825	0.890472	0.149682
O	-0.448276	-0.384973	1.87252
H	-2.02196	0.869444	2.01991
H	0.212021	-0.656174	1.18185
C	1.25927	-0.522018	-1.30733
O	1.13848	-0.890191	-0.149576
O	0.448172	0.384847	-1.87256
H	2.0214	-0.870099	-2.02018
H	-0.211816	0.656412	-1.18175
C	5.64381	-0.446318	0.0581549
O	6.15163	-0.17475	-1.01802
O	5.31634	0.516845	0.91873
H	5.4568	-1.4879	0.316679
H	5.53352	1.37284	0.566756
