15
  This energy is -2.9327e-05 and Call times are: 46922
C	-1.72221	-0.491272	-0.600029
O	-1.23834	-0.555005	0.519069
O	-1.04702	-0.023934	-1.66092
H	-2.74059	-0.796853	-0.882329
H	-0.142496	0.23283	-1.34081
C	1.72214	0.491485	0.60007
O	1.23847	0.554654	-0.519137
O	1.04696	0.024092	1.66095
H	2.74029	0.797681	0.882512
H	0.14261	-0.233132	1.34074
C	38.579	-0.0168434	-0.452786
O	38.4628	-1.11721	0.0624576
O	38.7465	1.07173	0.2972
H	38.5453	0.074894	-1.53775
H	38.7569	0.847465	1.22098
