15
  This energy is -0.000658696 and Call times are: 13729
C	-0.179943	-1.76664	-0.643436
O	-0.337608	-0.704736	-1.22488
O	0.174156	-1.84527	0.648154
H	-0.301928	-2.7681	-1.08202
H	0.267376	-0.914492	0.982091
C	0.180166	1.76664	0.643377
O	0.337241	0.704742	1.22497
O	-0.173991	1.84527	-0.648196
H	0.302794	2.7681	1.08178
H	-0.267693	0.914494	-0.981999
C	5.23618	-0.0134001	-0.432452
O	4.57354	0.980301	-0.18093
O	5.4916	-0.918215	0.511787
H	5.62239	-0.160961	-1.44031
H	5.09649	-0.664835	1.3385
