15
  This energy is -2.2042e-05 and Call times are: 40580
C	-0.713977	-0.641425	1.62672
O	-0.504444	0.505733	1.2652
O	-0.445967	-1.70844	0.858973
H	-1.1357	-0.946992	2.5957
H	-0.0707845	-1.36647	0.00523888
C	0.713764	0.641432	-1.62681
O	0.504794	-0.505744	-1.26505
O	0.445809	1.70844	-0.859039
H	1.13487	0.947041	-2.59605
H	0.0710898	1.36646	-0.00511619
C	31.1758	0.110454	-0.116573
O	31.2521	-0.313291	1.02553
O	32.2635	0.209885	-0.879864
H	30.2073	0.410291	-0.515014
H	33.035	-0.0843164	-0.408829
