15
  This energy is -0.00323212 and Call times are: 26984
C	-0.21364	0.423949	-1.82812
O	0.374831	1.03397	-0.949402
O	-0.850729	-0.736219	-1.60926
H	-0.299458	0.730024	-2.88126
H	-0.735895	-0.954919	-0.647206
C	0.213831	-0.424067	1.82807
O	-0.375146	-1.03378	0.949488
O	0.85087	0.736131	1.60922
H	0.300217	-0.730468	2.88107
H	0.735617	0.95508	0.64728
C	3.88726	0.397892	-0.0464892
O	3.11814	-0.518859	0.193972
O	5.19768	0.178412	-0.147184
H	3.4968	1.40607	-0.180019
H	5.39812	-0.740559	-0.00900215
