15
  This energy is -0.000217133 and Call times are: 24218
C	-1.15814	1.12227	0.983181
O	-1.32066	0.596219	-0.106514
O	-0.0387677	0.969982	1.70678
H	-1.88018	1.76954	1.50265
H	0.566952	0.379633	1.18606
C	1.15805	-1.12245	-0.983074
O	1.32081	-0.595917	0.106338
O	0.0387013	-0.970117	-1.7067
H	1.87982	-1.77026	-1.50225
H	-0.566816	-0.379371	-1.1862
C	9.02321	-0.355358	-0.172154
O	7.92501	-0.200728	-0.6819
O	9.4533	0.469865	0.781546
H	9.65768	-1.1774	-0.501406
H	8.80288	1.13718	0.969757
