15
  This energy is 0.000176535 and Call times are: 30252
C	-0.118413	-1.36245	-1.30273
O	0.0429574	-0.160474	-1.44339
O	-0.247014	-1.9453	-0.101266
H	-0.178385	-2.10564	-2.11158
H	-0.184336	-1.22542	0.580209
C	0.11864	1.36242	1.30274
O	-0.0433324	0.160529	1.44337
O	0.247183	1.94528	0.101275
H	0.179278	2.10553	2.11161
H	0.184009	1.22547	-0.580219
C	4.20374	-0.183543	-0.0951129
O	4.13589	0.991502	-0.418309
O	3.164	-0.794913	0.471177
H	5.12497	-0.737353	-0.272118
H	2.43075	-0.19724	0.565564
