15
  This energy is 0.00044113 and Call times are: 34348
C	-1.63696	-0.652494	-0.679706
O	-0.49732	-1.03915	-0.885326
O	-1.92208	0.380653	0.127194
H	-2.55307	-1.08189	-1.11159
H	-1.05878	0.720432	0.481917
C	1.63694	0.652352	0.679886
O	0.497353	1.03938	0.88503
O	1.92207	-0.380758	-0.127061
H	2.55301	1.08132	1.11228
H	1.05881	-0.720221	-0.48217
C	8.28728	-0.405507	0.0789231
O	7.6085	-0.392817	-0.935418
O	8.41825	0.691326	0.82412
H	8.79099	-1.32423	0.377128
H	7.92859	1.41498	0.449516
