15
  This energy is -0.00117956 and Call times are: 11345
C	0.225423	1.04519	-1.55698
O	-0.758442	0.442711	-1.15747
O	1.3923	1.05628	-0.895124
H	0.288491	1.63987	-2.4803
H	1.2691	0.50559	-0.0777346
C	-0.225487	-1.045	1.55709
O	0.758547	-0.443022	1.15728
O	-1.39235	-1.05614	0.89521
H	-0.288762	-1.63913	2.48076
H	-1.269	-0.505859	0.0775729
C	5.34291	-0.282871	-0.0902063
O	5.41053	0.75395	-0.730691
O	4.34117	-0.491673	0.763274
H	6.11056	-1.04504	-0.218675
H	3.74733	0.250608	0.775641
