15
  This energy is -0.00309855 and Call times are: 30818
C	-0.349746	-1.57705	-0.978776
O	-0.337599	-1.39458	0.22834
O	-0.0948866	-0.603612	-1.86604
H	-0.563374	-2.52929	-1.48648
H	0.088518	0.223192	-1.34708
C	0.349521	1.5771	0.978766
O	0.337967	1.39449	-0.228323
O	0.094721	0.603652	1.86604
H	0.562497	2.52949	1.48646
H	-0.0881964	-0.223263	1.34709
C	3.51987	0.246193	-0.372434
O	2.71119	-0.656041	-0.224759
O	4.50514	0.42778	0.506074
H	3.43404	0.909521	-1.23228
H	4.46074	-0.218215	1.20213
