15
  This energy is -2.2505e-05 and Call times are: 43058
C	-0.265477	-1.02754	1.5624
O	-0.777722	0.0286915	1.2269
O	0.638988	-1.67111	0.809052
H	-0.467362	-1.57674	2.49394
H	0.775446	-1.12732	-0.0108484
C	0.26531	1.02742	-1.5625
O	0.777998	-0.0284951	-1.22673
O	-0.639111	1.67102	-0.80913
H	0.466694	1.5763	-2.49435
H	-0.775201	1.12749	0.0109939
C	52.7299	-0.0607054	-0.131227
O	52.3563	1.09285	-0.270895
O	51.9083	-0.987617	0.359937
H	53.7465	-0.334129	-0.411576
H	51.0578	-0.613231	0.560911
