15
  This energy is -0.00198072 and Call times are: 20834
C	-0.0363139	0.642565	-1.77572
O	0.370601	-0.422755	-1.33974
O	-0.56267	1.59723	-0.993845
H	-0.0278177	0.954966	-2.83047
H	-0.541332	1.25517	-0.0615885
C	0.0361029	-0.642653	1.77569
O	-0.370254	0.4229	1.33978
O	0.562514	-1.5973	0.993823
H	0.0270024	-0.955331	2.83035
H	0.54163	-1.25504	0.0616346
C	3.48102	0.0781588	-0.430666
O	3.1286	0.972121	0.321947
O	4.14026	-0.982528	0.0339428
H	3.25347	0.149466	-1.49361
H	4.27032	-0.91492	0.973246
