15
  This energy is 8.5083e-05 and Call times are: 27534
C	0.919808	0.781114	1.453
O	1.21378	0.752101	0.268389
O	-0.193758	0.214956	1.94209
H	1.5056	1.25771	2.25292
H	-0.673805	-0.194419	1.17494
C	-0.919924	-0.780917	-1.45303
O	-1.21359	-0.752425	-0.268341
O	0.193671	-0.21481	-1.94211
H	-1.50604	-1.25694	-2.25305
H	0.673965	0.194135	-1.17489
C	8.05694	0.298148	0.225453
O	6.93835	0.72689	-0.00848508
O	8.41412	-0.923336	-0.169408
H	8.77011	0.921949	0.763013
H	7.69904	-1.3542	-0.624152
