15
  This energy is -0.00256056 and Call times are: 1538
C	-0.279081	0.820953	1.67796
O	-0.632601	-0.277154	1.27826
O	0.418942	1.68206	0.922296
H	-0.476757	1.24015	2.67564
H	0.563066	1.24641	0.0413896
C	0.27928	-0.821041	-1.67788
O	0.632275	0.277298	-1.27839
O	-0.418795	-1.68213	-0.922238
H	0.477523	-1.24051	-2.67533
H	-0.563345	-1.24628	-0.0415049
C	3.51208	0.412303	-0.0207816
O	3.32479	-0.133824	1.05461
O	4.20338	-0.197722	-0.982804
H	3.10912	1.40934	-0.194677
H	4.49411	-1.05669	-0.697434
