15
  This energy is 0.000138972 and Call times are: 19836
C	-0.130391	1.84857	-0.364974
O	-0.976742	0.973512	-0.457393
O	1.12476	1.60888	0.0435804
H	-0.274837	2.9145	-0.595355
H	1.18862	0.636146	0.234048
C	0.13033	-1.84852	0.365193
O	0.976841	-0.973579	0.457033
O	-1.12481	-1.60885	-0.0434184
H	0.274581	-2.91435	0.596205
H	-1.18853	-0.636205	-0.234358
C	4.6151	0.237019	-0.386436
O	4.1192	0.869973	0.531848
O	5.04364	-1.01078	-0.199734
H	4.70777	0.698455	-1.36888
H	4.90224	-1.28582	0.699232
