15
  This energy is -0.00287264 and Call times are: 4871
C	-0.718488	1.74578	0.0585215
O	-0.891114	0.805252	0.817584
O	0.0734842	1.67499	-1.02201
H	-1.17161	2.74379	0.152364
H	0.448691	0.75571	-1.04875
C	0.718668	-1.74571	-0.0583975
O	0.890817	-0.805371	-0.817788
O	-0.0733503	-1.67493	1.0221
H	1.17231	-2.74352	-0.151861
H	-0.448944	-0.755812	1.04856
C	3.89249	0.067955	-0.435387
O	4.18659	1.10279	0.141171
O	3.90784	-1.09829	0.208931
H	3.6146	0.0995614	-1.48823
H	4.16687	-0.980008	1.11595
