15
  This energy is -0.00537632 and Call times are: 2213
C	-1.69022	-0.516461	0.666207
O	-0.671091	-1.17473	0.529717
O	-1.76986	0.781287	0.335629
H	-2.64803	-0.88296	1.06423
H	-0.879381	1.04823	-0.0141518
C	1.69028	0.516522	-0.665994
O	0.670987	1.17463	-0.530068
O	1.76991	-0.781241	-0.335471
H	2.64829	0.883181	-1.0634
H	0.879289	-1.0483	0.0138455
C	6.0389	0.221263	-0.204757
O	6.39247	-0.323562	0.828659
O	4.7772	0.132403	-0.623935
H	6.76377	0.78603	-0.789838
H	4.25653	-0.386722	-0.0212798
