15
  This energy is -1.4496e-05 and Call times are: 23251
C	0.0352578	-1.66093	0.898603
O	-0.102354	-1.41993	-0.290327
O	0.195211	-0.702184	1.82327
H	0.0466556	-2.66017	1.35853
H	0.175834	0.168908	1.34642
C	-0.0350288	1.66091	-0.898627
O	0.101977	1.41994	0.290367
O	-0.195041	0.702177	-1.82328
H	-0.0457638	2.66013	-1.35865
H	-0.17616	-0.168887	-1.34638
C	19.8299	-0.310313	-0.191006
O	20.056	-0.546706	0.984915
O	20.3543	0.762201	-0.782798
H	19.1922	-0.984329	-0.761799
H	20.8866	1.25912	-0.171659
