15
  This energy is -0.00179371 and Call times are: 9775
C	0.388336	0.293828	-1.8249
O	-0.37532	0.892095	-1.08363
O	1.12833	-0.74986	-1.42129
H	0.568285	0.519604	-2.88641
H	0.920784	-0.90069	-0.461737
C	-0.388163	-0.293687	1.82496
O	0.375035	-0.892327	1.08354
O	-1.1282	0.749964	1.42133
H	-0.567625	-0.519037	2.88664
H	-0.921026	0.900481	0.461656
C	4.19717	-0.382248	-0.135957
O	4.05011	0.533472	-0.929443
O	4.89114	-0.20457	0.987586
H	3.75573	-1.35492	-0.349857
H	5.21767	0.686358	1.04592
