15
  This energy is -0.00186942 and Call times are: 3642
C	1.71896	-0.743303	0.245087
O	1.27817	0.337617	0.602701
O	0.987778	-1.64087	-0.432782
H	2.73845	-1.11646	0.422734
H	0.0853003	-1.24583	-0.559403
C	-1.71903	0.743205	-0.244889
O	-1.27806	-0.337456	-0.603026
O	-0.987828	1.6408	0.432928
H	-2.73872	1.1161	-0.421953
H	-0.0852062	1.24596	0.559117
C	5.987	0.046148	0.325028
O	5.568	-0.564873	-0.644962
O	7.23986	0.498854	0.355234
H	5.32847	0.222629	1.17467
H	7.69937	0.275674	-0.44653
