15
  This energy is -3.0251e-05 and Call times are: 41756
C	1.17352	-1.38806	0.513357
O	1.3663	-0.183722	0.458739
O	0.00123503	-1.95436	0.189606
H	1.90711	-2.1467	0.823982
H	-0.612252	-1.2211	-0.0797
C	-1.1736	1.38808	-0.513139
O	-1.36618	0.183694	-0.459099
O	-0.00128868	1.95437	-0.189445
H	-1.90737	2.14678	-0.823127
H	0.612347	1.22107	0.0793862
C	28.6432	-0.257524	-0.110124
O	28.3615	0.928156	-0.0422042
O	29.8857	-0.676669	0.12666
H	27.8694	-0.979928	-0.367229
H	30.4548	0.0549491	0.338073
