15
  This energy is -0.00251865 and Call times are: 918
C	0.148682	-0.698991	-1.74834
O	-0.472747	0.272105	-1.34664
O	0.880472	-1.48152	-0.940933
H	0.192655	-1.05309	-2.78894
H	0.799175	-1.11044	-0.0231892
C	-0.148495	0.699121	1.74831
O	0.47244	-0.272319	1.3467
O	-0.880334	1.48161	0.940905
H	-0.19194	1.05362	2.78879
H	-0.799436	1.11024	0.0232478
C	3.84506	0.421709	0.082813
O	3.37595	0.299566	-1.03737
O	3.89284	-0.61573	0.917649
H	4.22853	1.39	0.402304
H	3.52665	-1.39346	0.511684
