15
  This energy is -0.000403365 and Call times are: 26131
C	0.0294003	1.45232	-1.20719
O	0.358297	1.40767	-0.0322841
O	-0.442166	0.38764	-1.87342
H	0.072735	2.33864	-1.85736
H	-0.455999	-0.373114	-1.23497
C	-0.0291869	-1.45237	1.20712
O	-0.358648	-1.40758	0.0323933
O	0.442323	-0.387683	1.87337
H	-0.0718934	-2.33885	1.85712
H	0.455691	0.373189	1.23505
C	3.46915	-0.216529	-0.22225
O	4.2374	0.361813	-0.97399
O	3.646	-0.172368	1.09771
H	2.63015	-0.774542	-0.636264
H	4.4115	0.346079	1.31906
