15
  This energy is -8.124e-06 and Call times are: 47678
C	1.62421	-0.590028	-0.762371
O	1.30853	0.518641	-0.360163
O	0.795647	-1.6443	-0.720215
H	2.59536	-0.867118	-1.19855
H	-0.0566677	-1.3294	-0.319014
C	-1.62413	0.589971	0.762579
O	-1.30866	-0.518546	0.359819
O	-0.795589	1.64425	0.720369
H	-2.59505	0.866915	1.19937
H	0.0565501	1.32948	0.318716
C	29.1024	-0.127254	-0.31322
O	28.0439	0.232275	-0.803284
O	29.2783	-0.119906	1.00758
H	29.9113	-0.457517	-0.963878
H	28.4964	0.189328	1.45106
