15
  This energy is -1.5766e-05 and Call times are: 12966
C	0.131703	0.543028	1.80421
O	0.979184	0.0572195	1.07186
O	-1.126	0.784215	1.40449
H	0.277037	0.83897	2.85371
H	-1.19055	0.497098	0.455829
C	-0.131644	-0.542815	-1.80428
O	-0.979281	-0.05757	-1.07175
O	1.12605	-0.784058	-1.40454
H	-0.276787	-0.838147	-2.85398
H	1.19045	-0.4974	-0.455735
C	4.7905	0.369074	0.239859
O	3.86815	-0.0295139	-0.453106
O	5.96378	-0.262524	0.240498
H	4.65164	1.25093	0.864169
H	5.94533	-1.01057	-0.345895
