15
  This energy is -3.1168e-05 and Call times are: 52298
C	0.423452	1.44737	1.13719
O	1.15833	0.621869	0.618472
O	-0.906789	1.45092	0.963353
H	0.738906	2.2714	1.79417
H	-1.12468	0.688469	0.365223
C	-0.42343	-1.44723	-1.13738
O	-1.15837	-0.622099	-0.618172
O	0.906804	-1.45081	-0.963487
H	-0.738803	-2.27087	-1.79489
H	1.12464	-0.688667	-0.364963
C	10.8193	-0.220581	-0.234814
O	10.7447	-0.598795	0.92328
O	10.0169	0.740926	-0.689924
H	11.5503	-0.674893	-0.902594
H	9.43214	1.0456	-0.00504392
