15
  This energy is -1.8667e-05 and Call times are: 47636
C	0.267421	-1.03195	-1.55915
O	1.07437	-0.406591	-0.889586
O	-1.04018	-1.08451	-1.26386
H	0.492786	-1.61678	-2.46323
H	-1.17599	-0.540629	-0.443914
C	-0.267387	1.03176	1.55928
O	-1.07443	0.406902	0.889375
O	1.0402	1.08437	1.26396
H	-0.492635	1.61605	2.46373
H	1.17593	0.540897	0.443732
C	30.6641	-0.133031	0.36387
O	30.8254	-1.03341	-0.444277
O	31.1563	1.08378	0.134529
H	30.1115	-0.327699	1.28227
H	31.6128	1.11222	-0.698881
