15
  This energy is -2.119e-05 and Call times are: 50156
C	-1.10755	1.4951	0.324687
O	-0.389495	0.874651	1.09281
O	-1.22846	1.18206	-0.97422
H	-1.73119	2.364	0.582073
H	-0.644794	0.395695	-1.14015
C	1.10772	-1.49495	-0.324741
O	0.38921	-0.874885	-1.09272
O	1.22859	-1.18195	0.97418
H	1.73187	-2.36345	-0.582262
H	0.644545	-0.3959	1.14022
C	30.0274	0.345675	-0.237631
O	29.7115	0.383781	0.940727
O	30.7986	-0.635673	-0.704236
H	29.6744	1.12307	-0.914176
H	31.0324	-1.24125	-0.00966528
