15
  This energy is -1.5417e-05 and Call times are: 49106
C	0.761916	0.605432	-1.61875
O	1.23633	-0.114713	-0.754515
O	-0.475346	1.11838	-1.54232
H	1.26476	0.921266	-2.54479
H	-0.871778	0.797667	-0.689941
C	-0.762002	-0.605615	1.61863
O	-1.23619	0.115014	0.754698
O	0.475282	-1.11852	1.54224
H	-1.26508	-0.921994	2.54436
H	0.871893	-0.797401	0.690099
C	42.1295	0.416878	-0.0537825
O	42.7762	0.304746	0.975334
O	41.983	-0.616835	-0.881725
H	41.6676	1.37306	-0.296863
H	42.4354	-1.38367	-0.548395
