15
  This energy is -0.00250317 and Call times are: 30557
C	-0.942249	-1.17196	-1.14284
O	0.209455	-1.23143	-0.742068
O	-1.78217	-0.182343	-0.803791
H	-1.43187	-1.89467	-1.81226
H	-1.28258	0.431187	-0.203329
C	0.942175	1.17184	1.14302
O	-0.209333	1.23163	0.741769
O	1.78212	0.182253	0.803925
H	1.43161	1.89419	1.81297
H	1.28268	-0.431008	0.203071
C	5.32834	0.252243	-0.185215
O	5.16655	0.491827	1.00062
O	4.58378	-0.664501	-0.802239
H	6.09012	0.79453	-0.744081
H	3.96283	-1.05748	-0.1991
