15
  This energy is -0.000755276 and Call times are: 35527
C	-0.198828	-1.04791	1.55877
O	-0.513155	-1.29732	0.405703
O	0.383539	0.104505	1.92288
H	-0.344336	-1.70904	2.42588
H	0.485833	0.65204	1.1005
C	0.199037	1.04781	-1.5588
O	0.512811	1.29747	-0.405649
O	-0.383384	-0.104572	-1.9229
H	0.345144	1.70867	-2.42603
H	-0.486127	-0.651902	-1.10045
C	4.47609	0.02907	0.358707
O	5.05215	0.249856	-0.694477
O	3.17536	-0.2596	0.375638
H	5.0326	0.0687721	1.29435
H	2.81774	-0.260258	-0.505206
