15
  This energy is -9.28e-06 and Call times are: 49694
C	1.87043	0.125462	0.230549
O	1.12341	0.795497	-0.464856
O	1.43933	-0.885592	0.999767
H	2.95943	0.253557	0.319033
H	0.455881	-0.947873	0.875213
C	-1.87046	-0.125318	-0.230371
O	-1.12336	-0.795733	0.464563
O	-1.43935	0.885698	-0.999635
H	-2.95955	-0.252979	-0.318353
H	-0.45584	0.94766	-0.875461
C	33.388	-0.317764	-0.311476
O	33.2379	-0.786143	0.80561
O	33.2895	0.994913	-0.518102
H	33.6048	-0.98126	-1.14782
H	33.0984	1.45148	0.293558
