15
  This energy is -0.00316925 and Call times are: 5367
C	1.02519	1.28629	0.928362
O	0.580056	0.216956	1.31432
O	0.837238	1.74752	-0.317317
H	1.61961	1.99275	1.52646
H	0.297847	1.06834	-0.801395
C	-1.02499	-1.28639	-0.928432
O	-0.580377	-0.216789	-1.3142
O	-0.837094	-1.74759	0.317264
H	-1.61886	-1.99317	-1.52672
H	-0.298125	-1.06819	0.801487
C	4.38797	-0.194932	0.409385
O	3.95867	0.947577	0.422144
O	4.8276	-0.744333	-0.722164
H	4.41142	-0.770662	1.33388
H	4.7498	-0.133938	-1.44683
