15
  This energy is -0.00193946 and Call times are: 13645
C	-1.66768	-0.166497	0.870936
O	-1.37549	-0.360391	-0.298509
O	-0.773592	0.227262	1.79036
H	-2.66709	-0.283548	1.31549
H	0.10126	0.313609	1.32804
C	1.66773	0.166278	-0.870883
O	1.37541	0.360753	0.298423
O	0.773627	-0.227424	-1.79032
H	2.66727	0.282685	-1.31531
H	-0.101323	-0.313293	-1.32811
C	5.63158	0.0790784	0.114999
O	5.52155	-0.353126	-1.02117
O	4.55568	0.27232	0.876972
H	6.62077	0.308945	0.509179
H	3.7632	0.0319293	0.410104
