15
  This energy is -0.0076453 and Call times are: 22031
C	1.06067	0.0602016	1.56165
O	-0.124974	-0.201295	1.43346
O	1.85512	0.370434	0.526092
H	1.62025	0.0768881	2.50862
H	1.29335	0.337706	-0.292384
C	-1.06062	-0.0604236	-1.56168
O	0.124881	0.20166	-1.43342
O	-1.85508	-0.370598	-0.526112
H	-1.62005	-0.0777609	-2.50872
H	-1.29342	-0.337387	0.292417
C	5.30703	0.00868544	-0.199971
O	5.22535	0.795329	0.729712
O	4.27139	-0.760351	-0.533957
H	6.23735	-0.0644866	-0.761988
H	3.52909	-0.594063	0.0362326
