15
  This energy is 3.7799e-05 and Call times are: 31154
C	1.08197	1.53019	-0.235058
O	0.614095	0.7701	-1.06808
O	0.881612	1.38037	1.08296
H	1.70898	2.40994	-0.442554
H	0.312675	0.574901	1.20167
C	-1.08216	-1.53006	0.235048
O	-0.613787	-0.77032	1.0681
O	-0.88175	-1.38027	-1.08297
H	-1.70972	-2.40943	0.442493
H	-0.312407	-0.575091	-1.20165
C	9.67832	-0.214372	0.286913
O	10.0749	0.902957	-0.0030253
O	8.54149	-0.686759	-0.222954
H	10.2611	-0.831105	0.970099
H	8.13843	-0.047625	-0.79987
