15
  This energy is -0.00107282 and Call times are: 17359
C	0.508592	-0.959912	-1.54509
O	-0.505171	-0.316136	-1.32507
O	1.4965	-1.09399	-0.647408
H	0.743078	-1.49874	-2.47506
H	1.22472	-0.588049	0.162971
C	-0.508487	0.960099	1.54501
O	0.504997	0.315828	1.32521
O	-1.49642	1.09413	0.647346
H	-0.742687	1.49948	2.47473
H	-1.22486	0.58778	-0.162846
C	4.85481	-0.433233	0.126513
O	5.96386	-0.189564	-0.321176
O	3.92764	0.520582	0.204716
H	4.62173	-1.44193	0.465501
H	4.26417	1.34687	-0.12356
