15
  This energy is -0.00158728 and Call times are: 26691
C	0.642381	0.15968	1.76897
O	-0.3106	-0.470795	1.33897
O	1.44366	0.895848	0.984256
H	0.963508	0.209251	2.81996
H	1.10211	0.809042	0.0556195
C	-0.642241	-0.159861	-1.769
O	0.310371	0.471093	-1.33892
O	-1.44356	-0.895982	-0.98428
H	-0.962981	-0.209971	-2.82008
H	-1.1023	-0.808778	-0.0555772
C	4.72456	-0.0602331	0.389465
O	5.12356	0.909081	-0.235852
O	3.73248	-0.813878	-0.0830839
H	5.18543	-0.310849	1.34419
H	3.42553	-0.482894	-0.919749
