15
  This energy is -0.0052199 and Call times are: 29724
C	-1.79936	-0.414947	-0.396899
O	-0.893066	-0.0800086	-1.14324
O	-1.64055	-0.54968	0.928394
H	-2.83265	-0.643925	-0.696965
H	-0.693503	-0.330427	1.13233
C	1.79941	0.414725	0.396873
O	0.892975	0.0803747	1.14328
O	1.64059	0.549516	-0.928412
H	2.83287	0.643062	0.696842
H	0.693423	0.330743	-1.13228
C	5.84255	0.380525	-0.0459351
O	4.98625	0.472765	0.818952
O	5.99058	-0.747408	-0.739741
H	6.49221	1.23036	-0.251889
H	5.36168	-1.40242	-0.458293
