15
  This energy is -1.0884e-05 and Call times are: 32036
C	-0.541939	-1.16161	-1.38721
O	-0.709125	-1.25506	-0.18144
O	0.106363	-0.134051	-1.95607
H	-0.886949	-1.88028	-2.14527
H	0.389448	0.473687	-1.22321
C	0.541741	1.16173	1.38719
O	0.709451	1.25487	0.181477
O	-0.106509	0.134137	1.95605
H	0.886169	1.88072	2.1452
H	-0.389162	-0.473847	1.22324
C	16.8985	-0.389423	0.11616
O	17.586	-0.49896	-0.886391
O	16.7981	0.77923	0.748363
H	16.3617	-1.25735	0.4972
H	17.315	1.44606	0.310305
