15
  This energy is -0.00594453 and Call times are: 28676
C	-0.5161	-0.352917	1.78227
O	0.341457	-0.88835	1.09782
O	-1.2856	0.650439	1.33403
H	-0.76677	-0.609743	2.82216
H	-1.01092	0.832304	0.396994
C	0.516252	0.353071	-1.78219
O	-0.341707	0.888095	-1.09794
O	1.28571	-0.650324	-1.33397
H	0.767382	0.610334	-2.82186
H	1.01069	-0.832519	-0.397105
C	4.34898	0.224422	0.183266
O	3.37081	0.935266	0.0168849
O	4.32144	-1.06273	-0.16024
H	5.25377	0.648175	0.617432
H	3.47521	-1.29739	-0.524397
