44
  This energy is 0 and Call times are: 14088
C	0.437307	0.201394	-3.44687
C	-0.411881	0.255093	-2.23561
O	-1.5617	0.669504	-2.28654
H	-0.134608	0.596993	-4.31422
H	0.733989	-0.847063	-3.66008
H	1.34757	0.821112	-3.30384
N	0.147202	-0.168427	-1.09964
C	-0.53916	-0.136445	0.167818
C	0.498751	0.013412	1.2641
O	1.69866	-0.0786817	1.0122
H	1.09751	-0.464521	-1.0664
H	-1.17756	0.737388	0.206397
C	-1.36798	-1.42241	0.378976
H	-0.711981	-2.31843	0.350004
H	-1.91228	-1.40381	1.34537
H	-2.11548	-1.51569	-0.438883
N	0.0575055	0.258035	2.5137
C	0.971864	0.420784	3.61988
H	-0.917057	0.333242	2.69712
H	0.416504	0.615079	4.56383
H	1.66169	1.27627	3.43667
H	1.58869	-0.496571	3.7582
C	680.205	-0.260647	1.33184
C	678.894	0.416047	1.21404
O	678.567	1.30262	1.99093
H	680.757	0.157781	2.20107
H	680.804	-0.0961322	0.411942
H	680.06	-1.35041	1.48868
N	678.1	0.0034463	0.223101
C	676.778	0.536593	0.00825946
C	675.933	-0.541481	-0.644727
O	676.445	-1.58418	-1.04804
H	678.363	-0.747406	-0.37591
H	676.325	0.765553	0.964976
C	676.829	1.79749	-0.882094
H	677.284	1.56077	-1.86763
H	675.819	2.22547	-1.0435
H	677.459	2.56982	-0.388498
N	674.609	-0.31661	-0.7567
C	673.726	-1.28766	-1.35913
H	674.213	0.531463	-0.42072
H	672.677	-0.91884	-1.35778
H	673.76	-2.25019	-0.799069
H	674.025	-1.49068	-2.4129
