44
  This energy is 0.1502 and Call times are: 24790
C	3.08144	-0.857983	1.3716
C	1.60814	-0.737939	1.44983
O	0.978865	-1.25176	2.36438
H	3.44601	-1.46919	2.22564
H	3.55056	0.14703	1.42281
H	3.37507	-1.35484	0.422906
N	1.01641	-0.0461041	0.473304
C	-0.41322	0.120583	0.390106
C	-0.785821	0.286442	-1.07113
O	0.0822235	0.428764	-1.93018
H	1.53805	0.331497	-0.286421
H	-0.899113	-0.779038	0.746787
C	-0.874328	1.34618	1.20897
H	-0.384167	2.27091	0.836618
H	-1.97495	1.4771	1.16416
H	-0.584233	1.20669	2.27327
N	-2.09518	0.263261	-1.38906
C	-2.54423	0.407888	-2.75421
H	-2.78262	0.142974	-0.680525
H	-3.65418	0.361934	-2.81005
H	-2.12726	-0.404151	-3.39296
H	-2.21185	1.38399	-3.17599
C	4.7155	-1.29016	1.80048
C	5.46135	-1.0886	0.537842
O	5.1743	-1.71386	-0.473627
H	3.93458	-2.06613	1.64589
H	4.22511	-0.343534	2.11057
H	5.40499	-1.62895	2.60229
N	6.45419	-0.196663	0.570971
C	7.29681	0.0764783	-0.566548
C	8.65294	0.523556	-0.054108
O	8.82889	0.758378	1.13988
H	6.70232	0.274479	1.41259
H	7.44891	-0.837996	-1.12621
C	6.67245	1.16495	-1.46691
H	6.52593	2.10659	-0.89603
H	7.30518	1.37436	-2.35365
H	5.67759	0.819738	-1.82387
N	9.65159	0.643991	-0.950889
C	10.9774	1.05822	-0.554766
H	9.49091	0.445579	-1.91208
H	11.6567	1.09653	-1.43466
H	11.4057	0.346738	0.187962
H	10.9502	2.06952	-0.0882049
