44
  This energy is 0 and Call times are: 10980
C	2.09754	1.15576	2.52532
C	1.81268	0.279106	1.3671
O	2.70134	-0.365432	0.827405
H	3.18411	1.11668	2.75706
H	1.5279	0.812468	3.41436
H	1.81786	2.20424	2.28959
N	0.544465	0.237516	0.952041
C	0.121103	-0.535943	-0.18861
C	-1.09162	0.143062	-0.796739
O	-1.64485	1.07791	-0.2208
H	-0.160238	0.799374	1.37581
H	0.904264	-0.527655	-0.93642
C	-0.219309	-1.98504	0.22305
H	-1.03	-1.99459	0.982471
H	-0.533405	-2.59459	-0.648913
H	0.680047	-2.45971	0.672714
N	-1.53002	-0.309707	-1.98789
C	-2.6736	0.278282	-2.64567
H	-1.06673	-1.06448	-2.44039
H	-2.87604	-0.231781	-3.61318
H	-2.49661	1.35918	-2.84963
H	-3.58207	0.191782	-2.00665
C	454.782	3.06125	1.64126
C	455.263	1.66467	1.54675
O	456.118	1.23671	2.31016
H	455.325	3.58259	2.45893
H	453.694	3.07689	1.86552
H	454.97	3.59628	0.686555
N	454.716	0.912073	0.589005
C	455.113	-0.452492	0.346231
C	454.882	-0.758219	-1.12169
O	454.28	0.0343526	-1.8428
H	454.051	1.28656	-0.050932
H	456.175	-0.554463	0.533858
C	454.31	-1.42717	1.23517
H	453.222	-1.33042	1.0355
H	454.616	-2.48008	1.06752
H	454.488	-1.17986	2.30455
N	455.368	-1.91981	-1.60234
C	455.201	-2.29322	-2.9876
H	455.857	-2.54636	-1.00431
H	455.67	-3.28203	-3.18749
H	455.675	-1.53923	-3.65737
H	454.12	-2.35768	-3.24996
