44
  This energy is -5.4423 and Call times are: 30139
C	1.81222	-2.32127	-1.85479
C	0.973018	-1.10642	-1.74978
O	0.825955	-0.354321	-2.70326
H	2.24702	-2.38015	-2.87624
H	1.19759	-3.22787	-1.67304
H	2.63867	-2.28066	-1.11423
N	0.39647	-0.883894	-0.566377
C	-0.413302	0.278465	-0.298516
C	-0.309642	0.596324	1.18127
O	0.243905	-0.182177	1.95538
H	0.558674	-1.48336	0.212206
H	-0.0114681	1.12614	-0.839443
C	-1.88451	0.0296725	-0.697141
H	-2.30044	-0.833304	-0.134727
H	-2.51561	0.922241	-0.508599
H	-1.9355	-0.208839	-1.78197
N	-0.836559	1.7605	1.60915
C	-0.78038	2.15015	2.99883
H	-1.27684	2.37929	0.967035
H	-1.26706	3.13884	3.15002
H	0.276454	2.22334	3.34382
H	-1.30124	1.40127	3.63838
C	6.7975	-2.86462	0.337558
C	5.49496	-2.16239	0.375208
O	4.4436	-2.78253	0.45578
H	6.6243	-3.9621	0.37497
H	7.41719	-2.56864	1.20998
H	7.33826	-2.61793	-0.600416
N	5.53742	-0.829399	0.314297
C	4.35112	-0.0102824	0.297465
C	4.669	1.26709	-0.456744
O	5.8232	1.5331	-0.786548
H	6.39864	-0.340729	0.207664
H	3.57075	-0.522995	-0.250966
C	3.88223	0.311172	1.73345
H	4.67858	0.846509	2.29316
H	2.96152	0.929885	1.73391
H	3.66293	-0.638221	2.26908
N	3.64326	2.0882	-0.756129
C	3.84901	3.32322	-1.47624
H	2.71572	1.85384	-0.484402
H	2.88454	3.85692	-1.62529
H	4.29785	3.12462	-2.47643
H	4.53866	3.99492	-0.91558
