44
  This energy is 0 and Call times are: 13864
C	1.09987	2.90531	-1.56912
C	1.25245	1.8291	-0.56432
O	2.29995	1.68022	0.0496578
H	2.05239	3.47329	-1.64649
H	0.290179	3.60128	-1.26454
H	0.859126	2.47043	-2.56211
N	0.19218	1.0405	-0.373716
C	0.203007	-0.0754315	0.539048
C	-0.778713	-1.1134	0.0287558
O	-1.53609	-0.858217	-0.905575
H	-0.639705	1.14859	-0.910513
H	1.1854	-0.530979	0.53469
C	-0.178596	0.375342	1.96608
H	-1.1907	0.833212	1.97296
H	-0.160382	-0.472526	2.68114
H	0.548411	1.14043	2.316
N	-0.781981	-2.31962	0.62964
C	-1.67763	-3.37154	0.208378
H	-0.158868	-2.50861	1.38136
H	-1.52796	-4.28559	0.824276
H	-1.49917	-3.63523	-0.859278
H	-2.73895	-3.04889	0.31154
C	658.903	-0.134261	-2.77474
C	659.211	0.300308	-1.39354
O	658.518	1.13024	-0.821871
H	658.011	0.416555	-3.14289
H	658.687	-1.22311	-2.79413
H	659.762	0.0838817	-3.44461
N	660.278	-0.259615	-0.818965
C	660.728	0.0934867	0.504567
C	662.227	-0.129337	0.569954
O	662.82	-0.695774	-0.346091
H	660.857	-0.903279	-1.31187
H	660.551	1.14856	0.672301
C	660.007	-0.753551	1.57627
H	660.197	-1.83552	1.41086
H	660.335	-0.481398	2.60058
H	658.911	-0.580828	1.50471
N	662.879	0.32214	1.6593
C	664.307	0.160085	1.80664
H	662.383	0.781664	2.38824
H	664.655	0.597034	2.76844
H	664.848	0.667392	0.975092
H	664.584	-0.918932	1.79091
