44
  This energy is -0.1024 and Call times are: 23393
C	0.786345	3.11517	1.33794
C	-0.171433	2.02272	1.05447
O	-1.27806	2.00009	1.57531
H	0.33202	3.82236	2.0655
H	1.02661	3.66542	0.404004
H	1.72026	2.70179	1.77384
N	0.241825	1.07566	0.209082
C	-0.561397	-0.0723709	-0.130652
C	0.372122	-1.21722	-0.47622
O	1.58124	-1.0295	-0.596634
H	1.16063	1.08619	-0.175042
H	-1.13625	-0.375154	0.735664
C	-1.49693	0.240977	-1.31886
H	-0.907143	0.541481	-2.21098
H	-2.13059	-0.630915	-1.58115
H	-2.16542	1.08673	-1.04651
N	-0.17081	-2.44017	-0.63636
C	0.640024	-3.59059	-0.960792
H	-1.15075	-2.57303	-0.530842
H	0.0101733	-4.503	-1.05035
H	1.404	-3.7684	-0.16959
H	1.17299	-3.436	-1.92681
C	4.0645	2.42281	-2.00899
C	4.38158	1.01362	-1.68525
O	3.83297	0.0906107	-2.27134
H	3.28709	2.45123	-2.80315
H	4.97293	2.94478	-2.37649
H	3.67747	2.94458	-1.10842
N	5.28869	0.814702	-0.726094
C	5.66917	-0.499524	-0.271565
C	6.10238	-0.391514	1.17834
O	6.24501	0.706492	1.71289
H	5.69641	1.57583	-0.229811
H	4.80556	-1.1521	-0.302432
C	6.81254	-1.07304	-1.13703
H	7.70244	-0.409302	-1.09728
H	7.10514	-2.09044	-0.805676
H	6.47605	-1.1357	-2.19494
N	6.31478	-1.53768	1.85451
C	6.72388	-1.53341	3.23971
H	6.19022	-2.41656	1.40602
H	6.84639	-2.57266	3.61679
H	5.96466	-1.01844	3.87191
H	7.69402	-0.999404	3.3614
