44
  This energy is 0 and Call times are: 11176
C	2.65356	-2.18886	0.529344
C	2.09062	-0.928419	-0.00500276
O	2.81754	-0.0358869	-0.41898
H	3.76357	-2.14009	0.49243
H	2.31116	-3.05029	-0.0817598
H	2.33507	-2.33374	1.58323
N	0.759491	-0.826066	-0.00517858
C	0.0672852	0.356359	-0.453823
C	-1.24975	0.445726	0.293829
O	-1.63972	-0.485137	0.996064
H	0.182498	-1.54439	0.372911
H	0.647792	1.23171	-0.190385
C	-0.177516	0.307427	-1.97793
H	-0.781968	-0.584776	-2.24747
H	-0.697576	1.21876	-2.33785
H	0.799149	0.234151	-2.50434
N	-1.96574	1.58017	0.165732
C	-3.22844	1.75776	0.844141
H	-1.63176	2.32398	-0.403723
H	-3.66218	2.75557	0.612919
H	-3.09573	1.68048	1.94763
H	-3.95744	0.976664	0.528562
C	468.541	-0.681129	3.38209
C	469.159	0.0902159	2.28016
O	469.782	1.1201	2.49986
H	468.732	-0.161414	4.34616
H	468.981	-1.69958	3.4298
H	467.445	-0.75902	3.22653
N	468.996	-0.399069	1.04879
C	469.502	0.262493	-0.127917
C	468.604	-0.0982991	-1.29646
O	467.739	-0.963703	-1.18173
H	468.452	-1.21639	0.881796
H	469.438	1.33468	0.00943129
C	470.96	-0.159991	-0.414318
H	471.025	-1.25857	-0.565737
H	471.366	0.35322	-1.31011
H	471.597	0.106395	0.457045
N	468.786	0.567943	-2.45364
C	467.976	0.296249	-3.61773
H	469.489	1.2677	-2.52588
H	468.278	0.946382	-4.46806
H	466.899	0.483313	-3.39914
H	468.084	-0.766765	-3.93293
