44
  This energy is 0 and Call times are: 13276
C	2.76365	-2.11331	-0.0939674
C	1.85295	-1.13012	-0.722541
O	2.12706	-0.608613	-1.7946
H	3.66304	-2.24269	-0.734468
H	2.25386	-3.09393	0.0120224
H	3.08377	-1.7533	0.906537
N	0.730873	-0.849683	-0.055709
C	-0.231884	0.118137	-0.519372
C	-0.937637	0.700404	0.690766
O	-0.770872	0.218364	1.80949
H	0.541179	-1.2516	0.835553
H	0.287331	0.930788	-1.01196
C	-1.25131	-0.533872	-1.479
H	-1.79172	-1.36079	-0.97086
H	-1.98975	0.204189	-1.85384
H	-0.711997	-0.96011	-2.35297
N	-1.74163	1.76385	0.494064
C	-2.45015	2.3882	1.58694
H	-1.86072	2.14234	-0.41788
H	-3.05782	3.24575	1.22282
H	-1.73545	2.76566	2.35375
H	-3.13272	1.65903	2.08045
C	621.285	1.852	-1.86021
C	620.951	0.750356	-0.929852
O	621.772	-0.11087	-0.64706
H	622.329	1.7244	-2.22014
H	621.201	2.82998	-1.34137
H	620.6	1.83684	-2.7336
N	619.714	0.753109	-0.427226
C	619.228	-0.276708	0.457083
C	617.727	-0.391513	0.269817
O	617.112	0.4314	-0.405522
H	619.044	1.43784	-0.698717
H	619.662	-1.22675	0.171682
C	619.567	0.0536783	1.92727
H	619.112	1.02319	2.22374
H	619.21	-0.738635	2.61685
H	620.669	0.140845	2.03925
N	617.1	-1.42777	0.861208
C	615.675	-1.62144	0.734095
H	617.616	-2.08561	1.40033
H	615.35	-2.52761	1.29129
H	615.389	-1.74653	-0.335522
H	615.121	-0.743419	1.1388
