44
  This energy is 0.2168 and Call times are: 22860
C	0.0913098	0.456538	3.44905
C	-0.435691	-0.208167	2.23596
O	-1.14041	-1.20486	2.31585
H	-0.243775	-0.102952	4.34936
H	-0.289141	1.49778	3.51077
H	1.20145	0.469557	3.42659
N	-0.0974094	0.337949	1.06562
C	-0.498124	-0.220648	-0.201646
C	0.552667	0.144782	-1.23308
O	1.44876	0.942444	-0.963882
H	0.510545	1.12518	1.0153
H	-0.514629	-1.30081	-0.126706
C	-1.88325	0.31394	-0.626938
H	-1.86404	1.42121	-0.714204
H	-2.20915	-0.119481	-1.59465
H	-2.63479	0.0419348	0.146082
N	0.470806	-0.44128	-2.4438
C	1.42951	-0.159035	-3.48659
H	-0.259097	-1.08723	-2.64146
H	1.19241	-0.738333	-4.40606
H	2.45892	-0.429759	-3.1575
H	1.42309	0.924984	-3.74351
C	1.82788	0.569072	0.279304
C	3.00344	-0.330492	0.276449
O	2.91119	-1.49382	0.643305
H	0.943779	0.0168598	0.665673
H	1.61085	0.918463	-0.751993
H	2.01835	1.44558	0.933918
N	4.15495	0.199099	-0.143011
C	5.39308	-0.539299	-0.161737
C	6.53383	0.44558	0.0122761
O	6.33067	1.65761	-0.0252379
H	4.22308	1.15896	-0.399692
H	5.4187	-1.21525	0.68387
C	5.54944	-1.32074	-1.48466
H	5.53379	-0.626664	-2.35188
H	6.49251	-1.90444	-1.50559
H	4.69982	-2.02951	-1.59486
N	7.76764	-0.0564244	0.216526
C	8.91332	0.80416	0.39808
H	7.91149	-1.03999	0.247764
H	9.83627	0.202887	0.552598
H	8.77238	1.46398	1.28468
H	9.06286	1.45319	-0.494976
