44
  This energy is -2.5085 and Call times are: 23690
C	0.217932	-1.86091	-2.93295
C	-0.239541	-1.67696	-1.53724
O	-1.05796	-2.43439	-1.03434
H	-0.306032	-2.73397	-3.37916
H	1.31204	-2.0484	-2.95551
H	-0.0144016	-0.956643	-3.53414
N	0.286835	-0.64663	-0.871111
C	-0.0921557	-0.314484	0.479668
C	0.0919601	1.17947	0.668796
O	0.653337	1.8584	-0.188887
H	0.921092	-0.0146707	-1.30725
H	-1.14422	-0.529997	0.618756
C	0.760908	-1.09873	1.50068
H	1.8395	-0.86991	1.36531
H	0.469238	-0.862054	2.54444
H	0.616754	-2.18928	1.3386
N	-0.387895	1.7302	1.80125
C	-0.263624	3.14474	2.06549
H	-0.84277	1.1652	2.48165
H	-0.719855	3.40312	3.04647
H	-0.7752	3.73864	1.27376
H	0.808159	3.44803	2.08628
C	3.92143	-1.18322	-2.8391
C	5.00065	-0.412083	-2.18199
O	5.95492	0.0109737	-2.8198
H	4.15643	-1.29624	-3.91978
H	2.95286	-0.650359	-2.73575
H	3.83885	-2.19179	-2.38191
N	4.87151	-0.211514	-0.868417
C	5.86135	0.483277	-0.0835374
C	5.8029	-0.0535609	1.33419
O	4.90038	-0.811809	1.68379
H	4.10975	-0.597187	-0.35574
H	6.84692	0.259968	-0.472637
C	5.60622	2.00642	-0.0967244
H	4.59935	2.23683	0.312151
H	6.36991	2.5539	0.492834
H	5.64574	2.37609	-1.14464
N	6.77639	0.323684	2.18627
C	6.80617	-0.141088	3.55348
H	7.5005	0.934606	1.88377
H	7.68335	0.27953	4.09281
H	6.87287	-1.25265	3.58911
H	5.88165	0.166764	4.09351
