44
  This energy is 0 and Call times are: 14452
C	-1.41876	-0.0673898	-3.17731
C	-0.367307	0.36303	-2.22845
O	0.661015	0.895886	-2.62218
H	-1.09185	0.159333	-4.21538
H	-2.36518	0.475602	-2.9719
H	-1.59257	-1.16033	-3.08591
N	-0.605901	0.134996	-0.934826
C	0.341201	0.458784	0.102824
C	0.126932	-0.503591	1.25585
O	-0.840164	-1.26267	1.2712
H	-1.42947	-0.336725	-0.633041
H	1.34597	0.299145	-0.268115
C	0.163988	1.91833	0.575657
H	-0.8634	2.07986	0.966064
H	0.896727	2.18411	1.36495
H	0.317361	2.60438	-0.285831
N	1.03592	-0.4997	2.25072
C	0.917584	-1.3845	3.38619
H	1.81398	0.118893	2.21853
H	1.76151	-1.23067	4.09425
H	0.925693	-2.44892	3.05723
H	-0.0360675	-1.19892	3.9314
C	704.972	2.1285	1.92229
C	703.671	1.50644	1.58512
O	702.707	1.61314	2.32961
H	704.889	2.64143	2.90514
H	705.25	2.87523	1.14939
H	705.762	1.35141	1.98744
N	703.618	0.829287	0.435781
C	702.435	0.133907	-0.00640309
C	702.868	-1.03448	-0.871467
O	704.04	-1.15737	-1.22237
H	704.423	0.716809	-0.139729
H	701.919	-0.275253	0.853148
C	701.504	1.07779	-0.798467
H	702.029	1.48959	-1.68625
H	700.583	0.557628	-1.13258
H	701.205	1.92929	-0.148637
N	701.928	-1.93001	-1.23024
C	702.248	-3.07684	-2.04765
H	700.985	-1.81577	-0.933113
H	701.341	-3.69332	-2.23337
H	703.01	-3.71642	-1.54561
H	702.661	-2.75542	-3.03109
