44
  This energy is 0 and Call times are: 14620
C	-1.7752	-0.474853	2.95565
C	-1.70669	-0.350603	1.48221
O	-2.66679	-0.631155	0.778
H	-2.77802	-0.857023	3.24578
H	-1.61686	0.515944	3.43104
H	-1.00174	-1.18542	3.31614
N	-0.548118	0.0782228	0.976057
C	-0.315595	0.208754	-0.44079
C	1.16658	0.0111314	-0.697033
O	1.96402	-0.0533034	0.236592
H	0.23755	0.26352	1.55937
H	-0.84135	-0.580674	-0.963298
C	-0.77321	1.59325	-0.949711
H	-0.226531	2.40325	-0.421441
H	-0.612168	1.70094	-2.04195
H	-1.85876	1.71922	-0.744641
N	1.57048	-0.0987063	-1.97798
C	2.96055	-0.294117	-2.31813
H	0.909828	-0.0481562	-2.71963
H	3.08996	-0.360732	-3.42088
H	3.34807	-1.234	-1.86238
H	3.57983	0.552472	-1.94273
C	712.072	-1.44213	-1.20755
C	712.792	-0.507006	-0.313971
O	712.191	0.343598	0.328187
H	710.985	-1.21087	-1.1822
H	712.225	-2.4886	-0.869465
H	712.438	-1.33352	-2.25019
N	714.118	-0.645526	-0.254595
C	714.959	0.217796	0.53697
C	716.324	0.283294	-0.122353
O	716.607	-0.461548	-1.05859
H	714.597	-1.31584	-0.814501
H	714.549	1.22001	0.529983
C	715.081	-0.307158	1.98427
H	715.512	-1.33122	1.99264
H	715.715	0.356564	2.60755
H	714.07	-0.354312	2.44436
N	717.203	1.18886	0.34933
C	718.524	1.32724	-0.219069
H	716.954	1.78559	1.10491
H	719.096	2.12445	0.304796
H	718.46	1.59331	-1.29912
H	719.091	0.372698	-0.131297
