44
  This energy is -4.7404 and Call times are: 26933
C	0.242763	-0.107006	3.4702
C	-0.204799	-0.671551	2.1771
O	-0.649462	-1.80873	2.10287
H	0.116481	-0.870967	4.26788
H	-0.364295	0.786018	3.72853
H	1.31428	0.178712	3.41266
N	-0.0927109	0.124687	1.11135
C	-0.446689	-0.298855	-0.220518
C	0.408804	0.474873	-1.20593
O	1.11182	1.41097	-0.830168
H	0.309243	1.03324	1.1808
H	-0.205059	-1.34789	-0.337826
C	-1.94638	-0.0543475	-0.496881
H	-2.19264	1.0233	-0.38698
H	-2.23438	-0.38917	-1.51446
H	-2.55308	-0.623697	0.240753
N	0.374624	0.093229	-2.4979
C	1.15939	0.766923	-3.50611
H	-0.197258	-0.669192	-2.78205
H	0.995155	0.306281	-4.50513
H	2.2454	0.704092	-3.26546
H	0.880874	1.84393	-3.56631
C	3.98125	2.3596	2.45529
C	4.65102	1.12351	1.99199
O	5.5125	0.578749	2.66838
H	4.404	2.65993	3.43862
H	2.89115	2.18371	2.57136
H	4.14743	3.18097	1.72672
N	4.2642	0.647727	0.806079
C	4.8542	-0.521724	0.203718
C	4.74735	-0.382545	-1.30319
O	4.08346	0.521599	-1.80665
H	3.59092	1.125	0.248618
H	5.90799	-0.557546	0.450438
C	4.14234	-1.80665	0.680647
H	3.06332	-1.77504	0.418423
H	4.59646	-2.7151	0.234534
H	4.22632	-1.88376	1.78669
N	5.41059	-1.2769	-2.06232
C	5.37182	-1.22003	-3.50503
H	5.94586	-1.99895	-1.63663
H	5.97964	-2.03985	-3.9474
H	5.77528	-0.248061	-3.8708
H	4.32557	-1.32044	-3.87438
