44
  This energy is 0 and Call times are: 14592
C	-3.17902	-1.39534	-0.244008
C	-2.06768	-0.581926	-0.786609
O	-2.06082	-0.218536	-1.95465
H	-3.9155	-1.59653	-1.05209
H	-3.68757	-0.848755	0.577798
H	-2.793	-2.36331	0.139542
N	-1.08588	-0.275554	0.0646189
C	0.0824312	0.47269	-0.327481
C	1.23502	0.0519006	0.56472
O	1.04412	-0.669123	1.54216
H	-1.08554	-0.613162	1.00158
H	0.349352	0.211568	-1.34395
C	-0.169127	1.9917	-0.206811
H	-0.432697	2.26164	0.838033
H	0.718537	2.57909	-0.519136
H	-1.02154	2.27571	-0.861857
N	2.46801	0.489152	0.241318
C	3.6261	0.135481	1.02867
H	2.60311	1.06842	-0.555717
H	4.54628	0.591559	0.60148
H	3.76175	-0.970086	1.05306
H	3.5121	0.492544	2.07778
C	716.144	0.817176	-1.24932
C	714.674	0.986998	-1.20669
O	714.129	1.92689	-1.76865
H	716.594	1.65407	-1.8265
H	716.404	-0.141771	-1.74475
H	716.56	0.826051	-0.219893
N	713.99	0.0655371	-0.524789
C	712.559	0.120216	-0.35816
C	712.208	-0.564089	0.949714
O	713.059	-1.18776	1.58176
H	714.451	-0.670877	-0.0383793
H	712.248	1.1542	-0.274546
C	711.839	-0.567665	-1.53894
H	712.15	-1.63131	-1.61866
H	710.736	-0.520029	-1.42923
H	712.116	-0.0556077	-2.4862
N	710.94	-0.455096	1.3923
C	710.516	-1.06831	2.6293
H	710.267	0.0571503	0.869005
H	709.439	-0.864935	2.82002
H	711.105	-0.670462	3.48718
H	710.663	-2.17196	2.59165
