44
  This energy is -3.7239 and Call times are: 22203
C	1.52058	0.770187	-3.03436
C	0.551475	0.00282336	-2.22003
O	-0.304823	-0.694796	-2.74586
H	1.30693	0.60423	-4.11264
H	2.55555	0.432133	-2.81689
H	1.43207	1.85479	-2.81326
N	0.666327	0.119122	-0.895018
C	-0.230474	-0.532581	0.0267149
C	-0.30217	0.305462	1.28929
O	0.461083	1.25422	1.45963
H	1.3424	0.722964	-0.482503
H	-1.22523	-0.558102	-0.400423
C	0.255911	-1.96179	0.352352
H	1.27212	-1.9354	0.80031
H	-0.433707	-2.47911	1.05044
H	0.308375	-2.55453	-0.586931
N	-1.23382	-0.0231675	2.20584
C	-1.37991	0.720517	3.43538
H	-1.84508	-0.791684	2.04828
H	-2.19943	0.296431	4.05648
H	-1.61772	1.78802	3.22285
H	-0.437469	0.688264	4.02859
C	4.76727	-3.21242	-0.852383
C	4.57999	-1.74413	-0.838017
O	3.7148	-1.20968	-1.51789
H	4.03849	-3.66875	-1.55702
H	4.59611	-3.62999	0.162058
H	5.79596	-3.46373	-1.18662
N	5.40339	-1.04853	-0.0502821
C	5.37119	0.390226	0.0363464
C	6.76512	0.874148	0.388985
O	7.6459	0.078216	0.709014
H	6.12939	-1.494	0.465807
H	5.12306	0.801074	-0.934353
C	4.35139	0.856278	1.09844
H	4.6115	0.443616	2.09648
H	4.30723	1.96269	1.16489
H	3.34008	0.484189	0.824324
N	7.00041	2.19972	0.329822
C	8.29789	2.75182	0.642718
H	6.27616	2.82765	0.0648009
H	8.29043	3.85893	0.535545
H	9.0755	2.33888	-0.0399879
H	8.58926	2.50258	1.68872
