44
  This energy is 0.1059 and Call times are: 29798
C	-2.94805	0.266871	1.83042
C	-2.16344	-0.265903	0.693904
O	-2.59681	-1.1713	-0.00528384
H	-3.90576	-0.292054	1.90963
H	-3.17189	1.34248	1.67012
H	-2.38125	0.144616	2.77746
N	-0.969455	0.293029	0.483249
C	-0.0737091	-0.147342	-0.557074
C	1.34753	0.138004	-0.10961
O	1.56819	0.804975	0.899436
H	-0.612985	1.00119	1.08599
H	-0.165027	-1.2197	-0.676826
C	-0.377369	0.574074	-1.88846
H	-0.27354	1.6736	-1.76884
H	0.296719	0.233437	-2.70092
H	-1.42476	0.357653	-2.19256
N	2.35075	-0.371594	-0.851146
C	3.7351	-0.156817	-0.499541
H	2.15227	-0.912213	-1.66195
H	4.40855	-0.655381	-1.23106
H	3.95156	-0.568168	0.512986
H	3.9735	0.931383	-0.488279
C	5.28187	-1.71055	-1.66625
C	4.79694	-0.852865	-0.561547
O	5.5029	-0.60911	0.407278
H	6.31107	-2.06109	-1.43445
H	5.30335	-1.13572	-2.61591
H	4.61937	-2.5939	-1.78399
N	3.55823	-0.370363	-0.684711
C	2.93286	0.443283	0.327929
C	1.43343	0.226066	0.249851
O	0.936508	-0.40855	-0.678611
H	2.98093	-0.610997	-1.45974
H	3.2568	0.108579	1.3055
C	3.27505	1.93567	0.125596
H	2.93349	2.28226	-0.873029
H	2.81063	2.57112	0.90728
H	4.37755	2.06986	0.178693
N	0.674343	0.744769	1.23512
C	-0.760993	0.584069	1.24775
H	1.09508	1.2517	1.98015
H	-1.20454	1.0811	2.13851
H	-1.03514	-0.495436	1.27597
H	-1.21468	1.03169	0.333995
