44
  This energy is 0 and Call times are: 14284
C	0.398226	-1.96366	2.84572
C	-0.199439	-1.70013	1.51738
O	-0.824548	-2.56642	0.921403
H	0.191272	-3.0157	3.13942
H	-0.0432535	-1.28497	3.60547
H	1.49744	-1.81071	2.80794
N	-0.0148895	-0.476745	1.01574
C	-0.499583	-0.0844898	-0.284169
C	0.41816	0.995703	-0.824986
O	1.28086	1.50436	-0.111727
H	0.531079	0.204859	1.49449
H	-0.436245	-0.929129	-0.958856
C	-1.95243	0.432343	-0.198364
H	-2.0161	1.30544	0.485507
H	-2.34185	0.72454	-1.19511
H	-2.60463	-0.371686	0.207248
N	0.257446	1.36682	-2.11047
C	1.08821	2.38293	-2.7134
H	-0.443387	0.940804	-2.67298
H	0.801469	2.54607	-3.77566
H	2.16074	2.08299	-2.682
H	0.984012	3.34959	-2.16947
C	691.349	-3.17471	1.38293
C	690.627	-1.89113	1.23173
O	689.499	-1.74213	1.68163
H	690.7	-3.89971	1.92068
H	692.28	-3.02347	1.9679
H	691.602	-3.59087	0.385195
N	691.273	-0.920396	0.581203
C	690.684	0.369017	0.318206
C	691.303	0.92147	-0.951952
O	692.266	0.365746	-1.47655
H	692.174	-1.07003	0.185058
H	689.624	0.246681	0.133746
C	690.92	1.33478	1.50007
H	692.007	1.46885	1.68296
H	690.459	2.32686	1.31556
H	690.466	0.906658	2.42024
N	690.754	2.03183	-1.48315
C	691.272	2.62636	-2.69318
H	689.972	2.46487	-1.04647
H	690.687	3.53108	-2.9688
H	691.22	1.90372	-3.53954
H	692.337	2.92488	-2.55959
