44
  This energy is 0.1038 and Call times are: 30200
C	-3.09687	1.34436	0.84544
C	-2.22362	0.200781	0.497865
O	-2.61167	-0.952645	0.622102
H	-4.07045	0.961902	1.22193
H	-3.28014	1.97243	-0.0516006
H	-2.62249	1.96116	1.63765
N	-1.00275	0.501338	0.0489684
C	-0.0255732	-0.503522	-0.288592
C	1.35472	0.0853148	-0.0658537
O	1.49703	1.28187	0.178493
H	-0.686937	1.44415	-0.0079036
H	-0.130226	-1.34434	0.385724
C	-0.188835	-0.961369	-1.75453
H	-0.0710867	-0.101004	-2.44731
H	0.549036	-1.7451	-2.02255
H	-1.20856	-1.38134	-1.89644
N	2.40983	-0.749946	-0.137368
C	3.76059	-0.280617	0.0660126
H	2.27429	-1.71576	-0.332081
H	4.48674	-1.11734	-0.0330514
H	3.87351	0.163013	1.08175
H	4.022	0.501325	-0.683235
C	2.0228	1.15424	2.9323
C	3.2107	0.797016	2.12456
O	4.3392	1.09055	2.49435
H	2.34875	1.70577	3.84082
H	1.48178	0.236146	3.24399
H	1.34066	1.80308	2.34343
N	2.97786	0.145975	0.982496
C	4.02867	-0.230403	0.0699752
C	3.44651	-0.272432	-1.33035
O	2.23468	-0.171362	-1.51188
H	2.05106	-0.0497867	0.67497
H	4.79776	0.531879	0.0768254
C	4.62398	-1.60378	0.450335
H	3.83747	-2.3881	0.433198
H	5.44356	-1.89844	-0.236677
H	5.03689	-1.55194	1.48143
N	4.3041	-0.415223	-2.35999
C	3.8422	-0.46013	-3.72777
H	5.28161	-0.491298	-2.1934
H	4.69786	-0.581526	-4.42802
H	3.30394	0.47899	-3.99161
H	3.14188	-1.31337	-3.87833
