44
  This energy is 0 and Call times are: 10000
C	0.232384	3.46531	-0.224308
C	0.823905	2.11117	-0.311169
O	1.93397	1.93511	-0.794053
H	0.93727	4.20302	-0.665665
H	0.0478034	3.73496	0.836806
H	-0.724503	3.5017	-0.786567
N	0.080859	1.10758	0.161137
C	0.503359	-0.269758	0.106461
C	-0.735758	-1.14209	0.0344357
O	-1.85548	-0.660018	0.194257
H	-0.837709	1.26166	0.513784
H	1.06721	-0.434606	-0.803222
C	1.3522	-0.635964	1.34364
H	0.770599	-0.47704	2.27666
H	1.69522	-1.69023	1.30647
H	2.24923	0.0200194	1.38049
N	-0.562729	-2.45445	-0.218131
C	-1.68363	-3.36069	-0.310244
H	0.350816	-2.82522	-0.348648
H	-1.33616	-4.39554	-0.523754
H	-2.3755	-3.04807	-1.12563
H	-2.25822	-3.37345	0.644125
C	382.808	2.70022	0.137025
C	383.201	1.36424	-0.365527
O	382.413	0.666293	-0.989121
H	381.748	2.89738	-0.132569
H	383.448	3.48412	-0.32111
H	382.911	2.73878	1.242
N	384.448	0.972338	-0.0980745
C	384.961	-0.318599	-0.484217
C	386.035	-0.718027	0.510642
O	386.446	0.0822467	1.34858
H	385.065	1.53441	0.445939
H	384.168	-1.053	-0.415521
C	385.538	-0.277143	-1.91611
H	386.359	0.468634	-1.98449
H	385.924	-1.26872	-2.23029
H	384.738	0.0250103	-2.62598
N	386.51	-1.97738	0.445763
C	387.528	-2.44875	1.35498
H	386.162	-2.61167	-0.236558
H	387.785	-3.50973	1.14172
H	387.176	-2.37864	2.40969
H	388.455	-1.83722	1.25885
