44
  This energy is 0.1001 and Call times are: 30611
C	1.05158	2.52841	2.14803
C	0.646531	1.12993	1.88094
O	0.797251	0.255461	2.72296
H	1.49305	2.59486	3.16615
H	0.16861	3.19942	2.0947
H	1.80969	2.85568	1.40556
N	0.116193	0.884648	0.680541
C	-0.285947	-0.434186	0.259211
C	-0.157076	-0.508195	-1.25058
O	0.0764925	0.500981	-1.91294
H	0.037666	1.59875	-0.0092078
H	0.394331	-1.16568	0.677261
C	-1.7373	-0.733665	0.694101
H	-2.43689	0.0102973	0.256922
H	-2.05404	-1.75163	0.387588
H	-1.80993	-0.66609	1.80158
N	-0.299119	-1.71568	-1.83181
C	-0.187508	-1.88399	-3.26198
H	-0.483745	-2.52136	-1.27876
H	-0.334861	-2.94948	-3.54525
H	0.81807	-1.56254	-3.61801
H	-0.953084	-1.27129	-3.79079
C	7.36462	0.99442	-1.52804
C	6.46522	-0.0470418	-0.982516
O	6.68095	-1.23524	-1.17762
H	8.17962	0.50899	-2.10768
H	7.81358	1.58379	-0.701101
H	6.79993	1.67329	-2.20134
N	5.41748	0.384185	-0.276352
C	4.43116	-0.507458	0.28105
C	3.1128	0.238514	0.364867
O	3.05797	1.44706	0.145492
H	5.23254	1.35593	-0.160734
H	4.28607	-1.34442	-0.390569
C	4.86266	-1.0031	1.67868
H	5.00143	-0.145504	2.37101
H	4.11794	-1.70137	2.11265
H	5.83331	-1.53892	1.59453
N	2.01133	-0.471732	0.678437
C	0.712168	0.151858	0.775837
H	2.07503	-1.44954	0.848465
H	-0.0648678	-0.597841	1.04305
H	0.427874	0.620813	-0.193977
H	0.715389	0.947111	1.55603
