44
  This energy is 0 and Call times are: 9216
C	-2.49485	-1.85505	-1.56435
C	-1.11734	-1.31704	-1.49988
O	-0.247061	-1.71223	-2.26332
H	-2.55033	-2.628	-2.36144
H	-3.21258	-1.04187	-1.80173
H	-2.77021	-2.31921	-0.593879
N	-0.885801	-0.388685	-0.568788
C	0.414382	0.196935	-0.35634
C	0.515196	0.609123	1.10019
O	-0.470835	0.575574	1.8339
H	-1.59401	-0.106886	0.07222
H	1.17658	-0.551664	-0.533225
C	0.627956	1.41606	-1.28011
H	-0.147494	2.18885	-1.09167
H	1.63093	1.86747	-1.13586
H	0.541943	1.0926	-2.34045
N	1.72059	1.00229	1.55677
C	1.91356	1.40713	2.92974
H	2.50758	1.01885	0.948943
H	2.97298	1.69417	3.10991
H	1.65253	0.576295	3.62461
H	1.26675	2.27991	3.17679
C	329.98	1.65925	-2.89818
C	328.994	1.3689	-1.8327
O	327.989	2.05231	-1.69726
H	329.648	2.55151	-3.47229
H	330.06	0.795431	-3.5911
H	330.975	1.86862	-2.45213
N	329.267	0.331281	-1.03827
C	328.425	-0.0475583	0.0688271
C	329.295	-0.713058	1.11871
O	330.467	-0.997265	0.877919
H	330.11	-0.190333	-1.13521
H	328.003	0.842928	0.517249
C	327.305	-1.00532	-0.392709
H	327.738	-1.92374	-0.843268
H	326.641	-1.29338	0.448168
H	326.686	-0.500486	-1.16635
N	328.739	-0.970667	2.31914
C	329.492	-1.59655	3.38149
H	327.791	-0.729621	2.49645
H	328.86	-1.72316	4.28854
H	330.376	-0.976871	3.65403
H	329.857	-2.60038	3.06559
