44
  This energy is 0 and Call times are: 10588
C	-3.05466	0.377002	1.62468
C	-2.02218	-0.455554	0.967432
O	-2.061	-1.67673	1.02774
H	-3.7824	-0.283092	2.14483
H	-3.59612	0.983107	0.86824
H	-2.58433	1.05164	2.37083
N	-1.0582	0.199137	0.315893
C	0.0384487	-0.472181	-0.336215
C	1.23373	0.462082	-0.333575
O	1.11644	1.63381	0.0199832
H	-1.01741	1.19421	0.310256
H	0.312795	-1.34859	0.237605
C	-0.337171	-0.866801	-1.78135
H	-0.608539	0.0331146	-2.37342
H	0.494286	-1.39684	-2.28955
H	-1.21882	-1.54397	-1.75949
N	2.42164	-0.0412675	-0.722859
C	3.61543	0.771403	-0.747464
H	2.49751	-0.99293	-1.00152
H	4.48872	0.176969	-1.09567
H	3.84302	1.16595	0.269301
H	3.4859	1.63949	-1.4336
C	426.459	-2.1819	-2.65689
C	426.357	-0.847034	-2.02528
O	426.024	0.135851	-2.67274
H	426.211	-2.09693	-3.7372
H	425.746	-2.88674	-2.17889
H	427.492	-2.57551	-2.5554
N	426.65	-0.782218	-0.724303
C	426.637	0.45353	0.0182161
C	427.636	0.332636	1.15418
O	428.166	-0.74557	1.4142
H	426.959	-1.58346	-0.220188
H	426.974	1.25876	-0.622767
C	425.226	0.753053	0.567733
H	424.884	-0.0677813	1.23376
H	425.2	1.70911	1.12972
H	424.51	0.829395	-0.280173
N	427.922	1.44677	1.85609
C	428.864	1.42913	2.95094
H	427.486	2.31083	1.6281
H	428.964	2.44169	3.40044
H	429.869	1.10151	2.59916
H	428.53	0.723768	3.74579
