44
  This energy is 0 and Call times are: 9468
C	-2.48003	2.065	-1.30304
C	-2.04378	0.860752	-0.561006
O	-2.84188	0.183997	0.0726053
H	-3.5721	2.21169	-1.15562
H	-2.2773	1.9406	-2.38755
H	-1.94309	2.96143	-0.927278
N	-0.743576	0.564111	-0.622986
C	-0.162755	-0.551682	0.0814365
C	1.28403	-0.215062	0.389738
O	1.81478	0.783708	-0.0924215
H	-0.0994886	1.14772	-1.10922
H	-0.672594	-0.681074	1.02798
C	-0.250492	-1.84258	-0.761852
H	0.281414	-1.71388	-1.72857
H	0.181003	-2.71188	-0.224601
H	-1.31737	-2.06518	-0.982228
N	1.95678	-1.04281	1.21331
C	3.33572	-0.79991	1.56789
H	1.50904	-1.84374	1.59686
H	3.71055	-1.59105	2.25405
H	3.44264	0.185206	2.07719
H	3.97949	-0.790182	0.658709
C	345.031	-2.81759	-0.544551
C	346.34	-2.12786	-0.51944
O	347.387	-2.75254	-0.623799
H	345.194	-3.9123	-0.648343
H	344.427	-2.46115	-1.40541
H	344.479	-2.6246	0.399258
N	346.31	-0.800937	-0.375541
C	347.503	0.00323129	-0.290378
C	347.186	1.23405	0.53796
O	346.03	1.49076	0.867324
H	345.451	-0.31105	-0.250719
H	348.27	-0.550864	0.235842
C	347.996	0.409183	-1.69651
H	347.213	0.986729	-2.23279
H	348.923	1.01718	-1.64498
H	348.215	-0.506992	-2.28752
N	348.215	2.02416	0.902923
C	348.01	3.21368	1.69618
H	349.144	1.79773	0.630269
H	348.977	3.72701	1.89219
H	347.545	2.95743	2.67541
H	347.335	3.92627	1.16903
