44
  This energy is 0 and Call times are: 12548
C	-1.92966	2.37133	-1.6631
C	-0.911466	1.99231	-0.657729
O	-0.221254	2.83817	-0.105883
H	-1.91467	3.47405	-1.80333
H	-2.94006	2.06663	-1.31815
H	-1.70814	1.88242	-2.6352
N	-0.792776	0.688618	-0.395665
C	0.182756	0.163183	0.526731
C	0.539239	-1.24439	0.0871714
O	-0.0962695	-1.80617	-0.802913
H	-1.33338	0.00876463	-0.88292
H	1.08594	0.757752	0.468561
C	-0.369295	0.156548	1.9691
H	-1.28999	-0.461885	2.03154
H	0.377623	-0.232971	2.69084
H	-0.630871	1.19546	2.26673
N	1.57724	-1.84683	0.700074
C	1.99276	-3.18362	0.344386
H	2.08188	-1.37459	1.4152
H	2.86278	-3.50189	0.960002
H	2.28701	-3.2309	-0.729139
H	1.16343	-3.90943	0.507319
C	568.036	0.138107	-3.31961
C	567.048	0.405564	-2.25076
O	566.081	1.12906	-2.44884
H	567.746	0.696428	-4.23615
H	568.063	-0.946998	-3.55322
H	569.046	0.472241	-2.99958
N	567.274	-0.18125	-1.07306
C	566.424	0.0182301	0.0745591
C	567.268	-0.153295	1.32342
O	568.421	-0.575814	1.25153
H	568.087	-0.734519	-0.915038
H	566.054	1.03594	0.0725502
C	565.25	-0.984904	0.0727088
H	565.629	-2.02907	0.0854148
H	564.581	-0.83242	0.944165
H	564.651	-0.84676	-0.853677
N	566.712	0.181174	2.5046
C	567.441	0.0567409	3.74526
H	565.78	0.525151	2.54214
H	566.814	0.38129	4.60439
H	568.361	0.685783	3.72542
H	567.75	-1.00013	3.91561
