44
  This energy is 0 and Call times are: 13836
C	3.04716	1.36128	0.987115
C	1.76043	1.43747	0.259348
O	1.36146	2.49335	-0.212184
H	3.50958	2.37163	1.02236
H	3.74023	0.666786	0.467423
H	2.87889	1.00666	2.02587
N	1.07064	0.299394	0.152751
C	-0.217993	0.224547	-0.489419
C	-0.998167	-0.91053	0.14657
O	-0.455333	-1.68539	0.931836
H	1.38887	-0.543456	0.577253
H	-0.765774	1.139	-0.298776
C	-0.0646977	-0.00824569	-2.00848
H	0.488023	-0.951661	-2.20471
H	-1.04979	-0.0538983	-2.51646
H	0.515967	0.830156	-2.45149
N	-2.30162	-1.02997	-0.174027
C	-3.12501	-2.07614	0.3861
H	-2.72408	-0.390862	-0.808168
H	-4.16602	-2.00615	0.000575963
H	-3.15677	-1.9986	1.49707
H	-2.71962	-3.07953	0.121507
C	661.915	1.04407	-1.58935
C	661.207	0.315998	-0.512432
O	661.804	-0.448945	0.232752
H	662.989	0.756573	-1.58253
H	661.835	2.13955	-1.42722
H	661.48	0.784135	-2.57728
N	659.895	0.54056	-0.407382
C	659.064	-0.126813	0.563312
C	657.659	-0.221168	-0.0019245
O	657.355	0.371725	-1.03519
H	659.416	1.13467	-1.04732
H	659.423	-1.13847	0.705761
C	659.058	0.639478	1.90421
H	658.679	1.67407	1.76048
H	658.432	0.128124	2.66431
H	660.096	0.703275	2.29528
N	656.767	-0.98141	0.663304
C	655.409	-1.13486	0.197627
H	657.033	-1.45678	1.49536
H	654.832	-1.79787	0.87942
H	655.391	-1.58136	-0.822972
H	654.895	-0.147284	0.15115
