44
  This energy is 0 and Call times are: 9748
C	-2.31373	-2.04512	1.60524
C	-1.04438	-1.83879	0.872228
O	-0.21034	-2.72964	0.787518
H	-2.32905	-3.07177	2.03143
H	-3.1767	-1.92908	0.916349
H	-2.40098	-1.3108	2.43365
N	-0.867199	-0.636748	0.318994
C	0.334806	-0.2724	-0.388815
C	0.526154	1.22667	-0.255614
O	-0.35437	1.93313	0.231519
H	-1.53723	0.0914696	0.431375
H	1.18525	-0.749263	0.0823261
C	0.242893	-0.676454	-1.87661
H	-0.623241	-0.179237	-2.36305
H	1.16803	-0.413688	-2.42942
H	0.0950538	-1.77606	-1.94981
N	1.6936	1.74825	-0.68111
C	1.96731	3.16346	-0.589316
H	2.39561	1.15997	-1.06865
H	2.97867	3.39522	-0.990151
H	1.92392	3.50398	0.47061
H	1.21734	3.74736	-1.17048
C	368.236	-1.28425	-2.98921
C	368.347	-0.403922	-1.80433
O	369.397	0.159923	-1.53056
H	369.219	-1.32889	-3.50667
H	367.477	-0.884121	-3.69368
H	367.947	-2.31021	-2.678
N	367.246	-0.266925	-1.06189
C	367.21	0.521859	0.144402
C	366.157	-0.0665	1.06358
O	365.395	-0.945994	0.666536
H	366.41	-0.76468	-1.2745
H	368.163	0.440546	0.652392
C	366.89	1.99915	-0.171615
H	365.907	2.08408	-0.68335
H	366.873	2.61959	0.747792
H	367.669	2.40667	-0.851762
N	366.095	0.403144	2.32517
C	365.128	-0.100714	3.27269
H	366.722	1.11208	2.62921
H	365.237	0.410306	4.25468
H	365.266	-1.19505	3.42999
H	364.091	0.0670415	2.9027
