44
  This energy is 0 and Call times are: 10644
C	1.31805	0.0562911	3.2206
C	0.185357	-0.0862548	2.27835
O	-0.904643	-0.493449	2.65585
H	0.997155	-0.272168	4.23303
H	1.64137	1.11718	3.27265
H	2.17099	-0.574168	2.89182
N	0.423836	0.249967	1.00852
C	-0.566531	0.124554	-0.0316712
C	0.154711	-0.108956	-1.34576
O	1.37712	-0.000607257	-1.42116
H	1.32781	0.540889	0.708428
H	-1.17774	-0.748469	0.160396
C	-1.44418	1.39272	-0.113602
H	-0.818859	2.28712	-0.321101
H	-2.21966	1.30291	-0.901694
H	-1.95603	1.54841	0.86114
N	-0.590579	-0.445555	-2.41687
C	0.00900512	-0.692419	-3.70751
H	-1.57793	-0.532378	-2.33521
H	-0.768264	-0.955734	-4.45833
H	0.737635	-1.53314	-3.64776
H	0.552816	0.210805	-4.0675
C	430.9	2.23787	2.6636
C	430.714	0.886343	2.08933
O	430.522	-0.085488	2.8071
H	430.852	2.17562	3.77249
H	430.1	2.91913	2.30661
H	431.891	2.64543	2.36942
N	430.77	0.79413	0.758615
C	430.649	-0.459617	0.0570353
C	431.425	-0.350769	-1.24234
O	431.878	0.729084	-1.61663
H	430.967	1.58755	0.190018
H	431.112	-1.24324	0.644053
C	429.168	-0.795305	-0.222899
H	428.696	0.00322411	-0.834008
H	429.061	-1.76524	-0.750514
H	428.618	-0.862181	0.741307
N	431.603	-1.47714	-1.96033
C	432.333	-1.4714	-3.20692
H	431.232	-2.34222	-1.63908
H	432.37	-2.49302	-3.64521
H	433.378	-1.11906	-3.04884
H	431.847	-0.791359	-3.94354
