44
  This energy is -5.3655 and Call times are: 25656
C	1.8685	1.63523	2.43873
C	0.834088	0.660577	2.025
O	0.361668	-0.137846	2.82234
H	2.10782	1.48278	3.51361
H	1.49636	2.67163	2.2969
H	2.79269	1.48946	1.84063
N	0.455422	0.704301	0.745513
C	-0.509636	-0.208496	0.185134
C	-0.198681	-0.378723	-1.28995
O	0.636322	0.33378	-1.84387
H	0.878675	1.33254	0.0989509
H	-0.397014	-1.17877	0.652597
C	-1.94729	0.321854	0.37776
H	-2.06634	1.31246	-0.110671
H	-2.70048	-0.37884	-0.037281
H	-2.15011	0.446305	1.46391
N	-0.862402	-1.33988	-1.96203
C	-0.628517	-1.57865	-3.36719
H	-1.53139	-1.90906	-1.4956
H	-1.26944	-2.40913	-3.73698
H	0.436657	-1.8511	-3.54733
H	-0.857253	-0.666362	-3.9643
C	3.62959	-2.82831	1.53945
C	4.28419	-2.15218	0.396869
O	4.76558	-2.79351	-0.526912
H	3.68477	-3.92925	1.3954
H	2.56278	-2.52711	1.60229
H	4.14464	-2.5636	2.48693
N	4.31852	-0.818169	0.437107
C	4.95885	-0.0224573	-0.580423
C	5.43829	1.26686	0.0593878
O	5.1137	1.55814	1.20895
H	3.95869	-0.311811	1.21556
H	5.83356	-0.546073	-0.945573
C	3.9843	0.27832	-1.74018
H	3.09168	0.824779	-1.36783
H	4.46971	0.878764	-2.53665
H	3.64027	-0.67942	-2.18819
N	6.23475	2.06997	-0.673205
C	6.74392	3.31446	-0.145811
H	6.48983	1.81525	-1.6001
H	7.37923	3.83023	-0.899207
H	7.35859	3.13266	0.76546
H	5.90702	3.99515	0.132418
