44
  This energy is -2.9838 and Call times are: 28523
C	0.234441	-0.873943	3.36065
C	-0.457553	-0.9006	2.05237
O	-1.39786	-1.65614	1.84894
H	-0.22834	-1.62573	4.03631
H	0.140182	0.131071	3.82304
H	1.30911	-1.12129	3.23024
N	0.00271154	-0.0627727	1.1204
C	-0.540058	-0.00462045	-0.213985
C	0.561676	0.448402	-1.1534
O	1.63733	0.851182	-0.714713
H	0.795055	0.516941	1.2877
H	-0.838031	-0.999065	-0.522081
C	-1.74032	0.965071	-0.279574
H	-1.43273	1.98775	0.026299
H	-2.1758	1.0081	-1.2989
H	-2.5308	0.618564	0.421442
N	0.319895	0.384408	-2.47759
C	1.3109	0.788979	-3.44734
H	-0.55511	0.0518158	-2.81348
H	0.923335	0.661838	-4.48216
H	2.23614	0.177336	-3.34201
H	1.58634	1.85902	-3.30488
C	4.07776	-2.01934	-2.55757
C	5.19268	-1.41053	-1.79766
O	6.34702	-1.78063	-1.96175
H	4.47812	-2.81449	-3.22336
H	3.57347	-1.2501	-3.17943
H	3.34137	-2.47159	-1.86024
N	4.86527	-0.447801	-0.93259
C	5.83456	0.208442	-0.0909358
C	5.13171	0.662816	1.17442
O	3.90785	0.598221	1.27288
H	3.91655	-0.185844	-0.780404
H	6.59529	-0.504788	0.20099
C	6.47177	1.41251	-0.818563
H	5.69295	2.14951	-1.10894
H	7.22995	1.91788	-0.185887
H	6.97344	1.05773	-1.74527
N	5.89639	1.12842	2.18164
C	5.31622	1.57798	3.42561
H	6.88534	1.16921	2.08475
H	6.10781	1.92305	4.12671
H	4.74949	0.753234	3.91541
H	4.61205	2.42286	3.24824
