44
  This energy is 0 and Call times are: 9412
C	-2.15226	-2.61113	0.813933
C	-1.50976	-1.3111	1.11101
O	-1.89747	-0.609981	2.03541
H	-2.98711	-2.77998	1.52835
H	-1.41584	-3.43519	0.920506
H	-2.55839	-2.60997	-0.219579
N	-0.496832	-0.954709	0.317692
C	0.198806	0.300524	0.45567
C	0.7299	0.699374	-0.908299
O	0.680434	-0.0817995	-1.85647
H	-0.219344	-1.51705	-0.456024
H	-0.50247	1.06545	0.765069
C	1.35454	0.181825	1.47323
H	2.07978	-0.595448	1.15088
H	1.88928	1.14559	1.59868
H	0.94371	-0.118631	2.46182
N	1.24623	1.93706	-1.0408
C	1.77035	2.40639	-2.30223
H	1.27381	2.55631	-0.263078
H	2.14869	3.4481	-2.20774
H	0.979219	2.39065	-3.08654
H	2.60915	1.75822	-2.64492
C	346.419	0.47204	0.450721
C	345.267	-0.0810977	-0.296576
O	345.41	-0.569303	-1.40909
H	347.338	0.373089	-0.165998
H	346.561	-0.0845962	1.40073
H	346.25	1.54659	0.673956
N	344.079	-0.0132252	0.308776
C	342.86	-0.47072	-0.310171
C	341.709	0.343037	0.252194
O	341.881	1.10212	1.20404
H	343.972	0.424064	1.19715
H	342.904	-0.274426	-1.37419
C	342.638	-1.97614	-0.0459191
H	342.582	-2.17654	1.0453
H	341.71	-2.34357	-0.529073
H	343.495	-2.55134	-0.458733
N	340.503	0.208573	-0.333547
C	339.351	0.946756	0.129739
H	340.385	-0.407505	-1.10524
H	338.455	0.699585	-0.480031
H	339.533	2.04364	0.0575742
H	339.13	0.702715	1.194
