44
  This energy is 0.1012 and Call times are: 30843
C	-3.10369	0.689906	-1.41557
C	-2.23784	0.40296	-0.249764
O	-2.65117	0.536489	0.8938
H	-4.09828	1.03493	-1.05832
H	-3.23956	-0.227288	-2.02634
H	-2.65047	1.48704	-2.04187
N	-0.994758	-0.0025938	-0.519315
C	-0.0230028	-0.278352	0.509377
C	1.35758	-0.0128086	-0.0607307
O	1.51141	0.21097	-1.25989
H	-0.660077	-0.0671642	-1.4551
H	-0.169656	0.409335	1.33291
C	-0.135544	-1.73937	0.997233
H	0.0252825	-2.4454	0.154798
H	0.598315	-1.96017	1.79924
H	-1.15612	-1.91326	1.40287
N	2.39957	-0.0233425	0.793774
C	3.74928	0.224272	0.343058
H	2.25466	-0.202293	1.76127
H	4.46371	0.172935	1.19405
H	3.82932	1.23384	-0.121318
H	4.05449	-0.530639	-0.41727
C	3.10963	2.28143	-0.840185
C	3.8048	1.41129	0.134888
O	3.5703	1.48963	1.33292
H	2.41712	2.96103	-0.297572
H	2.52285	1.66481	-1.55307
H	3.84732	2.89318	-1.40112
N	4.69273	0.549456	-0.366317
C	5.47841	-0.331873	0.461032
C	6.78571	-0.612908	-0.255602
O	6.95664	-0.252127	-1.4185
H	4.90253	0.525842	-1.3396
H	5.72084	0.17096	1.38894
C	4.72021	-1.64806	0.740351
H	4.48053	-2.16955	-0.210782
H	5.30912	-2.32949	1.38794
H	3.76345	-1.41771	1.25792
N	7.7479	-1.26099	0.430109
C	9.02652	-1.56713	-0.167875
H	7.59243	-1.54129	1.37156
H	9.68092	-2.10195	0.555286
H	9.54504	-0.633659	-0.485776
H	8.89574	-2.21254	-1.06647
