44
  This energy is 0 and Call times are: 13696
C	-0.467959	-1.6542	3.02611
C	0.371927	-0.896313	2.07147
O	1.46327	-0.453321	2.40182
H	0.0497007	-1.70784	4.00847
H	-0.636711	-2.68586	2.65202
H	-1.44588	-1.1461	3.1625
N	-0.128883	-0.726316	0.845632
C	0.552138	0.0255792	-0.178782
C	-0.49322	0.613778	-1.10765
O	-1.67398	0.283231	-1.01674
H	-1.03649	-1.05756	0.60397
H	1.08068	0.853334	0.277395
C	1.53048	-0.874194	-0.965222
H	0.987174	-1.71764	-1.44214
H	2.07126	-0.303679	-1.74791
H	2.2815	-1.29999	-0.264497
N	-0.0812054	1.51227	-2.02361
C	-1.00544	2.12912	-2.94637
H	0.877695	1.77015	-2.07912
H	-0.474925	2.83852	-3.61906
H	-1.79384	2.69152	-2.39555
H	-1.50682	1.35796	-3.57492
C	649.99	3.32632	0.263129
C	648.998	2.28568	-0.0914011
O	647.839	2.57772	-0.349773
H	649.494	4.32142	0.261376
H	650.816	3.33537	-0.477693
H	650.403	3.13234	1.27549
N	649.441	1.02619	-0.109289
C	648.584	-0.0982776	-0.393911
C	649.142	-1.31166	0.32588
O	650.243	-1.26911	0.871845
H	650.377	0.800189	0.143251
H	647.598	0.0920102	0.01119
C	648.504	-0.359819	-1.91391
H	649.514	-0.565494	-2.32814
H	647.837	-1.2147	-2.14691
H	648.101	0.543828	-2.42102
N	648.386	-2.42665	0.350405
C	648.832	-3.62825	1.01622
H	647.496	-2.44048	-0.0935405
H	648.071	-4.43397	0.92545
H	649.01	-3.43446	2.09885
H	649.785	-3.99421	0.56993
