44
  This energy is -0.6054 and Call times are: 22142
C	-0.82917	2.42536	-2.35432
C	-0.750042	1.01652	-1.90704
O	-1.31369	0.123681	-2.52474
H	-1.46231	2.48623	-3.26608
H	0.184951	2.80807	-2.5948
H	-1.28251	3.05435	-1.55937
N	-0.0376247	0.78377	-0.802202
C	0.0952558	-0.528815	-0.220805
C	0.305989	-0.365471	1.27267
O	0.502586	0.74466	1.76325
H	0.381393	1.52625	-0.287413
H	-0.82926	-1.07564	-0.358212
C	1.27713	-1.29549	-0.853755
H	2.22743	-0.740059	-0.703871
H	1.3813	-2.31291	-0.4242
H	1.10546	-1.39628	-1.9477
N	0.261063	-1.47542	2.03557
C	0.445028	-1.41677	3.46696
H	0.0967455	-2.3643	1.62087
H	0.37268	-2.4324	3.9147
H	-0.331582	-0.770573	3.93663
H	1.44443	-0.993172	3.71777
C	6.5157	2.71672	-1.85621
C	6.74965	1.26583	-1.67921
O	6.26339	0.447839	-2.44788
H	5.85547	2.87764	-2.73602
H	7.47884	3.2414	-2.02892
H	6.02221	3.13752	-0.954847
N	7.51138	0.909705	-0.64223
C	7.79259	-0.466167	-0.315958
C	8.02555	-0.559363	1.18024
O	8.1213	0.455871	1.86715
H	7.86636	1.58451	-0.00153963
H	6.92514	-1.07226	-0.545717
C	9.02893	-0.974931	-1.08918
H	9.92149	-0.360008	-0.845757
H	9.2475	-2.0374	-0.857021
H	8.83916	-0.890061	-2.18148
N	8.11419	-1.78927	1.72383
C	8.32952	-1.97615	3.13977
H	8.03008	-2.59886	1.15238
H	8.37285	-3.05875	3.39145
H	7.50408	-1.51256	3.72715
H	9.28701	-1.50351	3.45749
