44
  This energy is -2.954 and Call times are: 28355
C	-0.0389791	-2.98545	-1.78836
C	-0.51069	-1.60273	-1.5502
O	-1.19973	-1.01814	-2.37475
H	-0.395574	-3.32885	-2.78375
H	-0.440057	-3.66632	-1.00843
H	1.07085	-3.01916	-1.77299
N	-0.141109	-1.03992	-0.397365
C	-0.486627	0.314298	-0.0434194
C	0.593241	0.853078	0.875904
O	1.46475	0.11171	1.32598
H	0.453974	-1.51365	0.245535
H	-0.486325	0.92789	-0.935684
C	-1.86524	0.368486	0.650639
H	-1.86289	-0.252427	1.57178
H	-2.14885	1.40764	0.915701
H	-2.63863	-0.0378718	-0.0371787
N	0.56482	2.16774	1.17066
C	1.55457	2.77071	2.03264
H	-0.145888	2.75236	0.793576
H	1.36062	3.85936	2.15277
H	2.5764	2.64155	1.60784
H	1.53773	2.29796	3.04128
C	3.83268	2.59416	-2.08522
C	4.86087	1.89373	-1.28311
O	6.04302	2.19738	-1.36513
H	4.32385	3.36055	-2.72339
H	3.10289	3.09729	-1.41663
H	3.29872	1.87165	-2.73787
N	4.42511	0.922233	-0.477692
C	5.3108	0.122883	0.331713
C	4.66994	-1.23755	0.53193
O	3.51039	-1.44543	0.17988
H	3.46491	0.659101	-0.452344
H	6.23951	-0.0335576	-0.202745
C	5.57718	0.8016	1.69319
H	4.62581	0.952757	2.24645
H	6.26888	0.202486	2.32019
H	6.03879	1.7986	1.52217
N	5.41865	-2.20412	1.09866
C	4.89526	-3.53133	1.32391
H	6.35625	-2.01798	1.37313
H	5.66282	-4.18141	1.79877
H	4.58572	-4.00002	0.361725
H	4.00465	-3.49445	1.99219
