44
  This energy is 0 and Call times are: 13472
C	3.3987	-0.0612776	-0.746861
C	2.04648	0.526976	-0.875729
O	1.87823	1.61723	-1.40435
H	4.14709	0.641363	-1.17357
H	3.45213	-1.02259	-1.29982
H	3.63941	-0.236555	0.322919
N	1.03622	-0.19434	-0.38434
C	-0.33025	0.265159	-0.397617
C	-1.05262	-0.365069	0.778199
O	-0.517099	-1.24675	1.4472
H	1.19359	-1.06137	0.0797224
H	-0.347907	1.33775	-0.249752
C	-1.02562	-0.110112	-1.7246
H	-1.01709	-1.21117	-1.87167
H	-2.07432	0.250383	-1.75272
H	-0.475599	0.355198	-2.57154
N	-2.29145	0.0820672	1.06354
C	-3.05315	-0.454468	2.16722
H	-2.70641	0.799025	0.513222
H	-4.04588	0.0421985	2.23818
H	-2.51364	-0.29845	3.12943
H	-3.21684	-1.54868	2.03669
C	629.718	1.12494	0.279725
C	631.166	1.36467	0.0855916
O	631.585	2.4572	-0.271828
H	629.157	2.05265	0.035758
H	629.514	0.848428	1.33552
H	629.373	0.308926	-0.389298
N	631.976	0.329043	0.319011
C	633.404	0.396436	0.131889
C	633.901	-0.994135	-0.214697
O	633.155	-1.96823	-0.134382
H	631.617	-0.565503	0.56979
H	633.623	1.03751	-0.712718
C	634.103	0.920015	1.40555
H	633.886	0.256816	2.27003
H	635.202	0.989608	1.26941
H	633.718	1.93523	1.64475
N	635.181	-1.11748	-0.619117
C	635.741	-2.40044	-0.975029
H	635.768	-0.317086	-0.6817
H	636.805	-2.29388	-1.28124
H	635.176	-2.85417	-1.8216
H	635.693	-3.10331	-0.111998
