44
  This energy is -2.4233 and Call times are: 24530
C	0.58626	2.09542	2.71629
C	-0.11041	0.958042	2.07428
O	-0.797765	0.186009	2.72843
H	0.38313	2.08095	3.80918
H	0.220093	3.05536	2.29538
H	1.68169	2.01449	2.55328
N	0.0570919	0.827069	0.756265
C	-0.522229	-0.254461	-0.000861707
C	0.370088	-0.525193	-1.19754
O	1.29668	0.233264	-1.47661
H	0.652638	1.43943	0.2442
H	-0.529336	-1.15148	0.605713
C	-1.95331	0.0991568	-0.461512
H	-1.94525	1.01336	-1.09255
H	-2.4154	-0.731212	-1.03377
H	-2.58644	0.301051	0.429965
N	0.114394	-1.62582	-1.93189
C	0.913827	-1.96747	-3.0853
H	-0.637243	-2.22964	-1.68794
H	0.546342	-2.90677	-3.55423
H	1.97944	-2.11423	-2.79511
H	0.872123	-1.15548	-3.84693
C	7.84799	1.38446	-2.4908
C	6.81821	0.427092	-2.02802
O	6.15145	-0.219323	-2.82425
H	7.86432	1.39748	-3.60229
H	8.84894	1.07863	-2.12023
H	7.61398	2.40569	-2.12285
N	6.66241	0.315777	-0.70676
C	5.67125	-0.542308	-0.106888
C	5.27572	0.054815	1.23049
O	5.89625	1.00461	1.70435
H	7.18422	0.878719	-0.0721969
H	4.7853	-0.55436	-0.729437
C	6.22104	-1.97335	0.0804192
H	7.12383	-1.96276	0.72765
H	5.4625	-2.64721	0.528796
H	6.51147	-2.38745	-0.909789
N	4.22034	-0.487116	1.86962
C	3.7677	0.0184617	3.14464
H	3.72832	-1.2526	1.46833
H	2.88824	-0.55837	3.50665
H	3.4736	1.08976	3.06038
H	4.57599	-0.0586734	3.90744
