44
  This energy is 0 and Call times are: 14760
C	-0.0781503	2.21004	-2.68744
C	-0.463969	0.939361	-2.03347
O	-1.33647	0.223794	-2.50582
H	-0.703869	2.36144	-3.59377
H	0.989713	2.17614	-2.98953
H	-0.238889	3.06183	-1.99339
N	0.188056	0.627807	-0.910897
C	-0.106296	-0.553892	-0.139207
C	0.235395	-0.268912	1.31117
O	0.831595	0.758791	1.62753
H	0.867126	1.24043	-0.516662
H	-1.16912	-0.755887	-0.186534
C	0.698878	-1.76577	-0.657159
H	1.78955	-1.5631	-0.598966
H	0.470573	-2.68509	-0.0798696
H	0.438889	-1.951	-1.72226
N	-0.144884	-1.17544	2.23291
C	0.131946	-0.986692	3.63788
H	-0.630013	-1.99894	1.95801
H	-0.260017	-1.84003	4.23404
H	-0.344816	-0.0509724	4.0099
H	1.22905	-0.909322	3.81539
C	725.869	-3.17037	-1.14331
C	726.11	-1.71439	-1.02992
O	727.173	-1.22003	-1.38017
H	726.777	-3.66252	-1.55457
H	725.014	-3.36448	-1.82552
H	725.648	-3.60066	-0.143637
N	725.112	-0.984476	-0.52676
C	725.214	0.438048	-0.315711
C	724.304	0.811441	0.83918
O	723.519	-0.00793383	1.31289
H	724.268	-1.40671	-0.208044
H	726.227	0.683606	-0.0208185
C	724.818	1.21477	-1.59043
H	723.776	0.971212	-1.88738
H	724.906	2.31097	-1.44502
H	725.492	0.919932	-2.42423
N	724.395	2.06428	1.32717
C	723.573	2.50801	2.42862
H	725.039	2.7118	0.933348
H	723.795	3.56758	2.68361
H	723.757	1.88377	3.33284
H	722.492	2.42912	2.16917
