44
  This energy is 0 and Call times are: 14396
C	-2.68933	-0.35526	2.18036
C	-1.26089	-0.529784	1.83362
O	-0.442182	-0.871187	2.67598
H	-2.83236	-0.562141	3.26324
H	-3.31447	-1.06105	1.59401
H	-3.01015	0.686424	1.96808
N	-0.925298	-0.292724	0.563362
C	0.432087	-0.378838	0.0851856
C	0.583181	0.576096	-1.08393
O	-0.397712	1.13357	-1.57258
H	-1.59583	0.0241386	-0.101361
H	1.10689	-0.0450945	0.863574
C	0.77447	-1.82166	-0.346423
H	0.0891906	-2.16074	-1.15231
H	1.82145	-1.90388	-0.703627
H	0.649364	-2.50411	0.52246
N	1.8262	0.794132	-1.55657
C	2.06776	1.6908	-2.66283
H	2.60788	0.336979	-1.1454
H	3.15296	1.73606	-2.90264
H	1.7199	2.72032	-2.41715
H	1.52153	1.34957	-3.57187
C	695.75	1.11137	-0.560521
C	696.716	0.0933393	-0.0904457
O	696.347	-0.880901	0.550899
H	694.729	0.833021	-0.220626
H	695.758	1.16327	-1.66957
H	696.009	2.10685	-0.142225
N	697.997	0.302081	-0.403051
C	699.058	-0.577661	0.0208852
C	700.33	0.239794	0.143026
O	700.373	1.40098	-0.258802
H	698.287	1.12085	-0.890406
H	698.828	-0.965734	1.00537
C	699.251	-1.73334	-0.985203
H	699.497	-1.33607	-1.99298
H	700.056	-2.42548	-0.662847
H	698.306	-2.313	-1.06455
N	701.4	-0.349578	0.712638
C	702.651	0.352183	0.876357
H	701.344	-1.28863	1.03536
H	703.408	-0.30112	1.36493
H	702.513	1.26027	1.50685
H	703.053	0.675518	-0.111287
