44
  This energy is 0.1 and Call times are: 28011
C	3.26095	0.635054	-1.0371
C	1.84844	1.0396	-0.857429
O	1.49807	2.20131	-1.01261
H	3.8688	1.52887	-1.29689
H	3.34487	-0.107625	-1.85815
H	3.65495	0.193234	-0.0976018
N	0.992762	0.0726336	-0.518062
C	-0.405163	0.319812	-0.266528
C	-0.898455	-0.718613	0.723366
O	-0.190141	-1.67193	1.04148
H	1.30025	-0.86056	-0.355379
H	-0.51792	1.29013	0.200811
C	-1.22184	0.25099	-1.57555
H	-1.11495	-0.747792	-2.04994
H	-2.29783	0.453313	-1.39714
H	-0.838462	1.01389	-2.28784
N	-2.1307	-0.551658	1.24273
C	-2.68207	-1.48601	2.19622
H	-2.68727	0.228251	0.976202
H	-3.70462	-1.17558	2.50483
H	-2.0427	-1.54108	3.10697
H	-2.74356	-2.50726	1.75532
C	5.99673	-0.854338	-1.8871
C	5.02055	0.135332	-1.37839
O	5.20388	1.33634	-1.52119
H	6.84974	-0.319821	-2.35882
H	5.51841	-1.50836	-2.64619
H	6.38065	-1.47732	-1.05189
N	3.94397	-0.35644	-0.760717
C	2.92826	0.482634	-0.175198
C	2.29953	-0.272396	0.980746
O	2.55829	-1.45889	1.17304
H	3.82891	-1.33506	-0.616096
H	3.39161	1.37165	0.234159
C	1.85667	0.862749	-1.2204
H	1.37365	-0.0485741	-1.63299
H	1.07632	1.52016	-0.785233
H	2.3404	1.40713	-2.06064
N	1.45941	0.405618	1.78728
C	0.818425	-0.228501	2.91564
H	1.2656	1.36627	1.618
H	0.166526	0.493812	3.45465
H	1.57835	-0.616809	3.63189
H	0.190373	-1.08543	2.58043
