44
  This energy is -4.5448 and Call times are: 26019
C	-0.395333	-2.06326	2.77477
C	-0.439056	-1.81922	1.31543
O	-0.568473	-2.74204	0.522928
H	-0.477653	-3.15508	2.9672
H	-1.24063	-1.54547	3.27487
H	0.564197	-1.69553	3.19568
N	-0.327763	-0.548087	0.92272
C	-0.309859	-0.158294	-0.465193
C	0.498781	1.1195	-0.587209
O	0.866592	1.73012	0.414578
H	-0.181877	0.187832	1.57771
H	0.199776	-0.91899	-1.04333
C	-1.74408	0.0557071	-0.996668
H	-2.26375	0.843443	-0.410622
H	-1.74433	0.342727	-2.06818
H	-2.31977	-0.889592	-0.890213
N	0.802992	1.55096	-1.8271
C	1.57324	2.75392	-2.04107
H	0.49997	1.04108	-2.62539
H	1.71811	2.93999	-3.12809
H	2.57615	2.66832	-1.56344
H	1.05504	3.63608	-1.60014
C	3.17143	-1.18322	-2.8391
C	4.25065	-0.412083	-2.18199
O	5.20492	0.0109737	-2.8198
H	3.40643	-1.29624	-3.91978
H	2.20286	-0.650359	-2.73575
H	3.08885	-2.19179	-2.38191
N	4.12151	-0.211514	-0.868417
C	5.11135	0.483277	-0.0835374
C	5.0529	-0.0535609	1.33419
O	4.15038	-0.811809	1.68379
H	3.35975	-0.597187	-0.35574
H	6.09692	0.259968	-0.472637
C	4.85622	2.00642	-0.0967244
H	3.84935	2.23683	0.312151
H	5.61991	2.5539	0.492834
H	4.89574	2.37609	-1.14464
N	6.02639	0.323684	2.18627
C	6.05617	-0.141088	3.55348
H	6.7505	0.934606	1.88377
H	6.93335	0.27953	4.09281
H	6.12287	-1.25265	3.58911
H	5.13165	0.166764	4.09351
