44
  This energy is 0.1009 and Call times are: 26697
C	2.9324	0.0154706	1.87443
C	1.67189	0.645634	1.42148
O	1.23646	1.65169	1.9643
H	3.33976	0.587166	2.73646
H	3.67995	0.0217737	1.05353
H	2.74369	-1.03105	2.19422
N	1.047	0.05541	0.399951
C	-0.210749	0.527028	-0.123695
C	-0.95409	-0.659043	-0.708702
O	-0.401634	-1.75066	-0.8307
H	1.39252	-0.786381	-0.00486306
H	-0.812351	0.916178	0.688258
C	0.0118521	1.61133	-1.20071
H	0.620107	1.20948	-2.03892
H	-0.949584	1.99246	-1.60184
H	0.564291	2.46588	-0.75248
N	-2.23646	-0.472684	-1.0786
C	-3.02471	-1.54495	-1.63994
H	-2.66743	0.416798	-0.968314
H	-4.05262	-1.19374	-1.87927
H	-3.10248	-2.39295	-0.92153
H	-2.55776	-1.92747	-2.5763
C	3.63049	3.22834	-1.22688
C	3.61185	2.24699	-0.11884
O	4.04275	2.53508	0.989197
H	4.09121	4.17541	-0.870992
H	2.59546	3.43866	-1.56926
H	4.22789	2.83511	-2.07632
N	3.10513	1.04421	-0.399818
C	3.05901	-0.028018	0.56286
C	3.12115	-1.34325	-0.190722
O	3.03183	-1.37148	-1.41666
H	2.7959	0.811477	-1.31746
H	3.93589	0.0225952	1.19621
C	1.77184	0.048712	1.41288
H	0.871946	-0.0137746	0.764552
H	1.73117	-0.763553	2.16726
H	1.74363	1.02239	1.94907
N	3.28541	-2.46983	0.530275
C	3.36124	-3.76682	-0.10079
H	3.3598	-2.42639	1.52106
H	3.49751	-4.56689	0.659833
H	4.21875	-3.8086	-0.810863
H	2.42914	-3.98103	-0.672157
