44
  This energy is 0.2635 and Call times are: 24930
C	0.77597	0.191448	-3.38731
C	0.872622	0.692655	-1.99786
O	1.68277	1.55648	-1.69146
H	1.53463	0.705371	-4.01676
H	-0.233679	0.399342	-3.79978
H	0.967976	-0.901948	-3.41395
N	0.0345985	0.149909	-1.11156
C	0.0391681	0.504153	0.285954
C	-0.449261	-0.693351	1.07903
O	-0.920463	-1.67602	0.509785
H	-0.59113	-0.581411	-1.3675
H	1.05565	0.706162	0.599949
C	-0.862217	1.73075	0.547119
H	-1.90734	1.52034	0.23491
H	-0.856205	2.02191	1.6175
H	-0.491017	2.59262	-0.0493212
N	-0.339303	-0.641499	2.42114
C	-0.77262	-1.73613	3.25792
H	0.0484161	0.160532	2.86328
H	-0.598948	-1.50304	4.33157
H	-0.214755	-2.66725	3.00674
H	-1.85921	-1.93509	3.11342
C	9.29886	-2.53471	0.787649
C	9.61112	-1.18333	0.270521
O	8.76601	-0.517406	-0.311495
H	8.24566	-2.78893	0.538671
H	9.42374	-2.56069	1.89059
H	9.96985	-3.28708	0.322042
N	10.8551	-0.743061	0.473445
C	11.3201	0.533414	-0.00916383
C	12.8134	0.430312	-0.25586
O	13.445	-0.559724	0.108303
H	11.5434	-1.31315	0.912737
H	10.85	0.748354	-0.960728
C	11.0157	1.65287	1.01035
H	11.5064	1.4381	1.98357
H	11.3566	2.64294	0.644181
H	9.91829	1.70491	1.18153
N	13.4142	1.45488	-0.892529
C	14.8305	1.44263	-1.17576
H	12.8857	2.2456	-1.18315
H	15.1338	2.3729	-1.70474
H	15.095	0.57187	-1.81848
H	15.4192	1.36729	-0.232969
