44
  This energy is 0 and Call times are: 14424
C	-3.36369	-0.697381	0.558531
C	-2.27478	0.206409	0.124261
O	-2.51645	1.25326	-0.460638
H	-4.34191	-0.268355	0.250493
H	-3.35162	-0.807909	1.66324
H	-3.24414	-1.69518	0.0860894
N	-1.03004	-0.186829	0.404176
C	0.13429	0.565142	0.00738646
C	1.28455	-0.406603	-0.177473
O	1.17652	-1.58271	0.164308
H	-0.847388	-1.06125	0.844513
H	-0.051491	1.03136	-0.952173
C	0.490516	1.63054	1.06723
H	0.691511	1.15183	2.04931
H	1.3772	2.22553	0.766722
H	-0.368256	2.32577	1.1918
N	2.41761	0.0644023	-0.73457
C	3.56268	-0.787951	-0.954754
H	2.48456	1.01814	-1.00839
H	4.39437	-0.216242	-1.42237
H	3.29794	-1.6353	-1.62794
H	3.92721	-1.21307	0.00833229
C	699.864	-2.38306	-2.26809
C	699.967	-1.83276	-0.897732
O	699.27	-2.26297	0.0108109
H	699.084	-3.17451	-2.28875
H	700.835	-2.82685	-2.57566
H	699.582	-1.58115	-2.98239
N	700.852	-0.8502	-0.717354
C	701.035	-0.186064	0.549226
C	701.51	1.2287	0.277315
O	701.832	1.57784	-0.856755
H	701.383	-0.482817	-1.47562
H	700.08	-0.113854	1.05541
C	702.057	-0.941723	1.42625
H	703.039	-1.00688	0.91186
H	702.196	-0.447837	2.40978
H	701.692	-1.97671	1.60574
N	701.557	2.08342	1.31811
C	701.991	3.45114	1.15398
H	701.289	1.78357	2.22756
H	701.96	3.99298	2.12488
H	701.335	3.9878	0.431602
H	703.035	3.4883	0.765275
