44
  This energy is 0 and Call times are: 13052
C	-0.0297794	-0.474483	3.4477
C	0.0544705	-0.988562	2.06215
O	0.380083	-2.14562	1.835
H	0.256731	-1.28127	4.15685
H	-1.06734	-0.149738	3.67298
H	0.662839	0.383284	3.5804
N	-0.24035	-0.123251	1.08917
C	-0.161728	-0.464297	-0.309429
C	0.145102	0.800938	-1.08827
O	0.120667	1.90043	-0.538506
H	-0.463978	0.826661	1.28797
H	0.664348	-1.14701	-0.464752
C	-1.48422	-1.09414	-0.798885
H	-2.33037	-0.39005	-0.649464
H	-1.43153	-1.37385	-1.87103
H	-1.69278	-2.01387	-0.209865
N	0.451468	0.672444	-2.39428
C	0.762987	1.82008	-3.21408
H	0.470113	-0.225986	-2.82036
H	0.987907	1.50836	-4.25785
H	1.64948	2.36152	-2.81127
H	-0.0945027	2.53093	-3.23729
C	602.421	0.783087	3.34135
C	603.045	-0.0471339	2.28658
O	603.916	-0.863304	2.55564
H	602.884	0.53945	4.32233
H	601.332	0.576292	3.3967
H	602.582	1.86041	3.12569
N	602.607	0.148516	1.04066
C	603.148	-0.553275	-0.0965249
C	602.994	0.334147	-1.31727
O	602.335	1.3709	-1.26298
H	601.927	0.845406	0.831779
H	604.209	-0.713295	0.0539468
C	602.423	-1.89959	-0.310527
H	601.336	-1.73521	-0.475431
H	602.84	-2.45585	-1.17498
H	602.542	-2.5294	0.597994
N	603.61	-0.0513064	-2.45238
C	603.524	0.732356	-3.66259
H	604.142	-0.891303	-2.47563
H	604.096	0.249948	-4.48508
H	603.938	1.75376	-3.49944
H	602.463	0.837535	-3.98813
