44
  This energy is -0.9952 and Call times are: 24324
C	0.34118	-2.7304	-2.13101
C	-0.484347	-1.78343	-1.34813
O	-1.69845	-1.73535	-1.4897
H	-0.315029	-3.31069	-2.8155
H	0.863851	-3.43531	-1.45082
H	1.09011	-2.1762	-2.7352
N	0.168727	-0.994466	-0.491739
C	-0.492633	0.00647814	0.307807
C	0.497384	1.12282	0.582041
O	1.68425	0.998881	0.285879
H	1.16162	-1.01683	-0.417387
H	-1.31091	0.433006	-0.258874
C	-1.00814	-0.597596	1.63241
H	-0.167615	-1.02593	2.21899
H	-1.53154	0.160121	2.25084
H	-1.72477	-1.41748	1.40752
N	0.0267478	2.25021	1.15082
C	0.893605	3.3677	1.44402
H	-0.937554	2.33336	1.37947
H	0.319618	4.1992	1.90917
H	1.37095	3.74948	0.512532
H	1.70268	3.06368	2.14694
C	4.34451	3.15846	-0.826833
C	4.5576	1.72493	-1.12804
O	3.99743	1.18656	-2.07291
H	3.62511	3.58469	-1.5594
H	5.30406	3.71199	-0.9017
H	3.92851	3.27687	0.195909
N	5.3853	1.06436	-0.315055
C	5.65823	-0.344344	-0.455179
C	5.99858	-0.898797	0.915335
O	6.16788	-0.148006	1.87417
H	5.80186	1.50638	0.474218
H	4.76256	-0.849734	-0.794271
C	6.82227	-0.585368	-1.44115
H	7.74417	-0.0758185	-1.08831
H	7.03298	-1.66702	-1.56822
H	6.55454	-0.164619	-2.43495
N	6.09885	-2.23674	1.0413
C	6.41357	-2.85523	2.30803
H	5.95437	-2.82808	0.254846
H	6.45054	-3.9623	2.20672
H	5.64447	-2.59873	3.07221
H	7.40244	-2.50395	2.68204
