44
  This energy is -0.0217 and Call times are: 23958
C	-0.961609	-0.80022	3.24771
C	-0.513897	-1.18245	1.88955
O	-0.152923	-2.3243	1.64001
H	-0.885972	-1.68161	3.921
H	-2.0176	-0.458349	3.2205
H	-0.32009	0.013332	3.64731
N	-0.525881	-0.217308	0.967195
C	-0.0780332	-0.425958	-0.387227
C	0.44194	0.895	-0.922253
O	0.283569	1.93704	-0.289182
H	-0.783469	0.717243	1.19552
H	0.751229	-1.12234	-0.385997
C	-1.22751	-0.954193	-1.27318
H	-2.07427	-0.235208	-1.28322
H	-0.891712	-1.13203	-2.31536
H	-1.59769	-1.91718	-0.858486
N	1.08674	0.880056	-2.10548
C	1.62085	2.08777	-2.69057
H	1.20865	0.0264069	-2.60096
H	2.11451	1.86869	-3.66295
H	2.37269	2.55333	-2.01287
H	0.80969	2.83043	-2.86839
C	4.62388	1.86396	2.78939
C	4.44301	1.45051	1.3796
O	3.43507	1.75253	0.755704
H	3.72817	2.43133	3.12354
H	5.51815	2.51494	2.88557
H	4.7458	0.970597	3.43754
N	5.43265	0.735722	0.839154
C	5.38167	0.225406	-0.508264
C	6.21641	-1.04005	-0.566654
O	6.92272	-1.37298	0.383074
H	6.22843	0.462879	1.37222
H	4.36201	-0.049431	-0.747815
C	5.91151	1.27048	-1.51442
H	6.96107	1.54493	-1.27539
H	5.86448	0.894583	-2.55702
H	5.2909	2.19073	-1.44871
N	6.14718	-1.78356	-1.68845
C	6.90182	-3.00666	-1.8324
H	5.56685	-1.49996	-2.44466
H	6.71044	-3.47241	-2.8242
H	6.61882	-3.73823	-1.0412
H	7.99428	-2.80726	-1.74339
