44
  This energy is 0.1048 and Call times are: 28060
C	-2.57178	2.11337	1.01602
C	-1.55741	1.67517	0.0310501
O	-1.55188	2.11525	-1.11031
H	-3.26346	2.83764	0.533443
H	-2.07855	2.60787	1.87912
H	-3.15798	1.24139	1.37535
N	-0.662897	0.780899	0.458261
C	0.358151	0.228146	-0.396422
C	0.697438	-1.16123	0.109621
O	0.253543	-1.56667	1.18214
H	-0.705262	0.401358	1.37805
H	-0.0359049	0.118925	-1.39913
C	1.61617	1.12402	-0.403531
H	2.02694	1.2278	0.623375
H	2.40457	0.716278	-1.06889
H	1.34278	2.1377	-0.769668
N	1.49143	-1.93069	-0.66079
C	1.86334	-3.26859	-0.26345
H	1.83749	-1.58661	-1.52735
H	2.5192	-3.73827	-1.02927
H	0.958767	-3.90674	-0.137737
H	2.41192	-3.2525	0.706053
C	-0.880102	0.0405176	-0.0029113
C	0.427898	0.401849	-0.594294
O	0.504456	0.877778	-1.71859
H	-1.68705	0.25653	-0.73641
H	-1.06172	0.635437	0.916781
H	-0.901477	-1.0413	0.246651
N	1.50404	0.17734	0.163269
C	2.8472	0.437505	-0.291471
C	3.78218	-0.520349	0.422605
O	3.37828	-1.22255	1.34753
H	1.42897	-0.2486	1.06037
H	2.91345	0.223285	-1.35088
C	3.25171	1.90091	-0.00852092
H	3.19405	2.11816	1.07938
H	4.27902	2.11755	-0.366612
H	2.54939	2.58402	-0.534297
N	5.06082	-0.576993	0.000850471
C	6.0213	-1.46278	0.616505
H	5.36791	-0.00400952	-0.751785
H	7.01635	-1.36365	0.12939
H	5.69138	-2.52318	0.527023
H	6.13572	-1.22704	1.69931
