44
  This energy is 0.113 and Call times are: 26772
C	2.09098	-0.515286	-2.73404
C	1.69345	0.232716	-1.52012
O	2.42937	1.07638	-1.02711
H	3.10514	-0.188492	-3.05115
H	1.37478	-0.315231	-3.55852
H	2.11465	-1.60494	-2.52149
N	0.50008	-0.0674829	-1.0023
C	-0.0055017	0.545042	0.200929
C	-0.941588	-0.439837	0.875694
O	-1.28296	-1.4751	0.307007
H	-0.0699829	-0.785555	-1.39123
H	0.816655	0.726976	0.881803
C	-0.745023	1.8625	-0.11945
H	-1.59502	1.67482	-0.809603
H	-1.12707	2.35088	0.800358
H	-0.0432188	2.565	-0.619773
N	-1.37406	-0.141707	2.11671
C	-2.26279	-1.02167	2.83921
H	-1.08357	0.698741	2.56206
H	-2.50315	-0.601983	3.84086
H	-1.79436	-2.02243	2.98175
H	-3.21599	-1.16312	2.28016
C	5.22921	1.52743	1.96942
C	4.37832	1.47133	0.759473
O	4.28745	2.42958	0.00453998
H	5.70006	2.53194	2.04106
H	6.02863	0.759145	1.91104
H	4.61477	1.35297	2.87777
N	3.72346	0.327473	0.547003
C	2.8246	0.137023	-0.563998
C	1.77473	-0.878593	-0.15427
O	1.88203	-1.50583	0.897758
H	3.77546	-0.429285	1.19235
H	2.31018	1.0672	-0.770809
C	3.5889	-0.348901	-1.81498
H	4.10821	-1.30854	-1.60651
H	2.90975	-0.485987	-2.68128
H	4.35704	0.405819	-2.09191
N	0.723723	-1.05858	-0.978283
C	-0.327225	-1.99968	-0.668443
H	0.652351	-0.538777	-1.82314
H	-1.10089	-2.0024	-1.46761
H	-0.819772	-1.73519	0.295259
H	0.0837273	-3.03091	-0.574487
