44
  This energy is 0 and Call times are: 13948
C	2.22374	1.63163	-2.1226
C	0.983827	1.59233	-1.31501
O	0.34159	2.60915	-1.09135
H	2.42872	2.68011	-2.43008
H	2.10766	1.00638	-3.03273
H	3.0818	1.25818	-1.5248
N	0.615969	0.396051	-0.850273
C	-0.543069	0.205785	-0.0142179
C	-0.293618	-0.999299	0.87297
O	0.682337	-1.7245	0.690441
H	1.1712	-0.415862	-1.00641
H	-0.660655	1.06498	0.634314
C	-1.81168	-0.00481195	-0.8695
H	-1.69567	-0.892363	-1.5274
H	-2.7133	-0.138666	-0.237284
H	-1.97017	0.88558	-1.51636
N	-1.1724	-1.23683	1.86663
C	-1.01353	-2.35701	2.76448
H	-1.95373	-0.636419	2.0011
H	-1.83661	-2.38145	3.51225
H	-0.0452513	-2.28791	3.31123
H	-1.02358	-3.31754	2.20019
C	670.337	-0.25314	-0.95419
C	669.054	0.480474	-0.885921
O	668.984	1.66374	-1.18829
H	671.14	0.440879	-1.28647
H	670.262	-1.08951	-1.68053
H	670.602	-0.655483	0.0464245
N	667.992	-0.218258	-0.477522
C	666.684	0.368707	-0.319322
C	665.947	-0.402421	0.759231
O	666.41	-1.44586	1.21572
H	668.072	-1.17006	-0.195713
H	666.791	1.38863	0.0287012
C	665.897	0.328814	-1.64755
H	665.779	-0.718148	-1.99959
H	664.894	0.79042	-1.54223
H	666.459	0.892387	-2.42413
N	664.778	0.101908	1.19988
C	664.009	-0.559881	2.2278
H	664.421	0.949581	0.821223
H	663.08	0.00985689	2.45241
H	664.602	-0.647774	3.16687
H	663.721	-1.58624	1.90394
