44
  This energy is 0.1002 and Call times are: 26206
C	-2.66477	-0.548497	-2.17045
C	-1.43841	-0.99676	-1.47313
O	-1.10391	-2.17341	-1.47413
H	-3.16888	-1.42716	-2.62838
H	-2.40651	0.175544	-2.97159
H	-3.3612	-0.0696539	-1.45018
N	-0.731024	-0.0515304	-0.849817
C	0.461597	-0.340242	-0.0929401
C	0.593981	0.705379	0.998254
O	-0.141691	1.69029	1.01932
H	-1.03802	0.89553	-0.82344
H	0.352194	-1.30168	0.393157
C	1.70857	-0.33285	-1.00412
H	1.82721	0.656652	-1.49488
H	2.63169	-0.567516	-0.435517
H	1.5863	-1.09993	-1.79972
N	1.53668	0.509326	1.94107
C	1.73215	1.44804	3.02125
H	2.11964	-0.295806	1.90949
H	2.55283	1.11051	3.69191
H	0.802847	1.54821	3.62757
H	1.99543	2.45505	2.62405
C	7.16777	-1.54683	-2.19124
C	6.85957	-0.868377	-0.912234
O	7.67071	-0.844434	0.00312524
H	8.18248	-1.9972	-2.13289
H	7.14641	-0.816117	-3.02691
H	6.42794	-2.35184	-2.38538
N	5.65782	-0.294271	-0.819531
C	5.19805	0.366047	0.376772
C	3.68528	0.261379	0.423154
O	3.05377	-0.166858	-0.540959
H	4.99278	-0.357458	-1.55817
H	5.5842	-0.155585	1.24361
C	5.63921	1.84602	0.394299
H	5.23456	2.38416	-0.489279
H	5.30308	2.36183	1.31706
H	6.74905	1.89867	0.351657
N	3.06642	0.645265	1.55702
C	1.63034	0.576064	1.69502
H	3.59481	0.985242	2.32793
H	1.31397	0.935348	2.69904
H	1.27372	-0.471951	1.56942
H	1.13056	1.20558	0.923604
