44
  This energy is 0.1015 and Call times are: 25818
C	-3.09254	-1.59193	0.121099
C	-2.19199	-0.53057	-0.38256
O	-2.51624	0.180924	-1.32333
H	-4.01952	-1.60875	-0.492337
H	-3.3651	-1.3925	1.17878
H	-2.59532	-2.58215	0.0481229
N	-1.01959	-0.400927	0.242774
C	-0.021304	0.557908	-0.160495
C	1.34171	0.00832896	0.215962
O	1.44385	-1.00061	0.911172
H	-0.752917	-1.01447	0.980555
H	-0.0407143	0.661989	-1.23819
C	-0.261302	1.92346	0.519881
H	-0.231002	1.81912	1.62543
H	0.492795	2.67431	0.206702
H	-1.26744	2.30277	0.236744
N	2.42763	0.659609	-0.245164
C	3.76551	0.206955	0.0571091
H	2.32475	1.47187	-0.809723
H	4.52179	0.873883	-0.412419
H	3.92566	-0.827581	-0.32415
H	3.93886	0.200018	1.15758
C	3.67136	0.811595	0.197128
C	4.84614	0.0126731	0.612796
O	4.79976	-0.718778	1.5922
H	2.83543	0.632654	0.907803
H	3.34683	0.513255	-0.8219
H	3.92269	1.8932	0.202959
N	5.94477	0.139501	-0.13507
C	7.17911	-0.540639	0.168861
C	8.32533	0.3002	-0.360979
O	8.11157	1.27746	-1.07581
H	5.97985	0.77	-0.905197
H	7.29621	-0.605131	1.24345
C	7.20318	-1.94922	-0.464039
H	7.09365	-1.88297	-1.56752
H	8.14281	-2.48845	-0.225617
H	6.35132	-2.54409	-0.0680425
N	9.57685	-0.0584116	-0.0129662
C	10.7296	0.685209	-0.465111
H	9.72952	-0.849851	0.569607
H	11.6674	0.23396	-0.0725761
H	10.6766	1.74211	-0.116643
H	10.782	0.690824	-1.57793
