44
  This energy is 0 and Call times are: 10952
C	1.82958	2.66828	1.28281
C	1.70428	1.46332	0.432209
O	2.5686	1.17102	-0.382598
H	2.77217	3.2004	1.02932
H	1.85718	2.37908	2.35442
H	0.97244	3.35191	1.1066
N	0.604249	0.726781	0.604906
C	0.321265	-0.449764	-0.178817
C	-1.18485	-0.612182	-0.261246
O	-1.93198	0.0879985	0.419385
H	-0.109766	0.999957	1.2432
H	0.685575	-0.302922	-1.18795
C	0.967151	-1.70218	0.453258
H	0.585813	-1.85929	1.48473
H	0.768078	-2.61257	-0.148477
H	2.06815	-1.55786	0.510887
N	-1.66808	-1.54105	-1.1096
C	-3.08748	-1.76277	-1.25906
H	-1.04788	-2.0951	-1.65499
H	-3.28383	-2.56644	-2.00255
H	-3.5959	-0.833658	-1.60479
H	-3.54258	-2.06442	-0.287958
C	453.629	3.11871	1.41088
C	452.704	2.0779	0.909513
O	451.499	2.15169	1.11062
H	453.05	3.88785	1.96698
H	454.152	3.6068	0.561853
H	454.378	2.66742	2.09579
N	453.257	1.06664	0.235817
C	452.491	-0.0422315	-0.276086
C	453.394	-1.26016	-0.321956
O	454.602	-1.15676	-0.114776
H	454.243	0.999455	0.115565
H	451.683	-0.265346	0.40987
C	451.935	0.273294	-1.68225
H	452.764	0.49194	-2.38891
H	451.332	-0.56754	-2.08156
H	451.284	1.17248	-1.6262
N	452.824	-2.45184	-0.588231
C	453.603	-3.66639	-0.646936
H	451.845	-2.51605	-0.749079
H	452.954	-4.53956	-0.877876
H	454.111	-3.85484	0.326817
H	454.387	-3.59308	-1.4359
