44
  This energy is 0.1051 and Call times are: 28654
C	-3.13867	-1.09056	1.03542
C	-2.24008	-0.461525	0.0414449
O	-2.61615	-0.240693	-1.10145
H	-4.1179	-1.3111	0.557555
H	-3.30332	-0.403086	1.89158
H	-2.69665	-2.04026	1.40391
N	-1.01041	-0.156436	0.462421
C	-0.0101182	0.42026	-0.40094
C	1.35482	-0.00530493	0.1064
O	1.47363	-0.58359	1.18491
H	-0.705736	-0.379719	1.38393
H	-0.123682	0.0159845	-1.39909
C	-0.123077	1.96037	-0.424333
H	0.00386707	2.37637	0.597854
H	0.632983	2.4155	-1.09646
H	-1.13234	2.2488	-0.791147
N	2.42273	0.265765	-0.669561
C	3.76034	-0.10638	-0.271439
H	2.3061	0.730797	-1.54089
H	4.50032	0.202243	-1.04241
H	3.8367	-1.20936	-0.134045
H	4.03362	0.381294	0.692217
C	2.81307	2.03396	2.33611
C	4.00336	1.63152	1.55355
O	5.00468	2.33333	1.51832
H	3.00465	3.01824	2.81605
H	2.60322	1.28333	3.12684
H	1.9297	2.1251	1.66945
N	3.91724	0.472899	0.895851
C	4.97724	-0.0300806	0.0580095
C	4.35538	-0.888824	-1.02708
O	3.16358	-1.18839	-0.987507
H	3.08059	-0.0673255	0.901182
H	5.47063	0.800548	-0.431119
C	5.9909	-0.851634	0.884318
H	5.48722	-1.71001	1.37783
H	6.81944	-1.23283	0.252871
H	6.42735	-0.205638	1.67712
N	5.15262	-1.30005	-2.03273
C	4.64767	-2.116	-3.11228
H	6.11347	-1.04403	-2.04952
H	5.45586	-2.34949	-3.83998
H	3.82985	-1.58809	-3.65428
H	4.2393	-3.07604	-2.72153
