44
  This energy is 0.1554 and Call times are: 28551
C	3.40669	-0.321137	-0.635619
C	2.25441	-0.255839	0.291276
O	2.37648	-0.542869	1.47412
H	4.30481	-0.670059	-0.0810845
H	3.61412	0.683778	-1.05972
H	3.19439	-1.03361	-1.46049
N	1.08954	0.127933	-0.236148
C	-0.129407	0.198179	0.530521
C	-1.29474	-0.0411117	-0.410915
O	-1.12252	-0.0862969	-1.62747
H	0.996843	0.318849	-1.2092
H	-0.137292	-0.599496	1.26283
C	-0.26665	1.57134	1.22394
H	-0.26922	2.38934	0.472348
H	-1.19457	1.63294	1.82866
H	0.600665	1.72852	1.90174
N	-2.51525	-0.209394	0.13503
C	-3.68236	-0.44776	-0.681806
H	-2.63401	-0.173549	1.12178
H	-4.5896	-0.560018	-0.0481393
H	-3.5577	-1.37731	-1.28319
H	-3.84891	0.399281	-1.38602
C	2.59386	-2.32527	-1.17795
C	3.05443	-0.932775	-0.97801
O	2.5059	0.00279485	-1.54391
H	1.7437	-2.33166	-1.89422
H	2.25453	-2.75832	-0.213548
H	3.41713	-2.94493	-1.59186
N	4.09225	-0.763291	-0.15546
C	4.67984	0.527298	0.104687
C	6.14462	0.320899	0.441408
O	6.59706	-0.808565	0.61837
H	4.55412	-1.53857	0.265817
H	4.63729	1.12723	-0.795807
C	3.95269	1.24065	1.26556
H	4.00513	0.63043	2.19233
H	4.38702	2.24141	1.46644
H	2.88106	1.37398	1.00063
N	6.9261	1.4152	0.529809
C	8.33322	1.3161	0.840217
H	6.54268	2.32041	0.37926
H	8.80196	2.32446	0.867166
H	8.86227	0.704056	0.0741992
H	8.48372	0.832628	1.83256
