44
  This energy is 0 and Call times are: 14004
C	-1.15837	-2.59496	-2.00924
C	-0.578979	-1.24468	-1.82982
O	-0.121142	-0.621287	-2.77754
H	-1.0755	-2.89121	-3.07753
H	-2.23001	-2.59326	-1.71887
H	-0.608444	-3.333	-1.38796
N	-0.584601	-0.756834	-0.587097
C	-0.0173943	0.524702	-0.248716
C	0.450628	0.468898	1.1933
O	0.17077	-0.490444	1.90958
H	-0.923586	-1.29301	0.180677
H	0.855391	0.702866	-0.864454
C	-1.05365	1.65406	-0.438349
H	-1.9447	1.47726	0.201034
H	-0.624761	2.64754	-0.194244
H	-1.38796	1.67115	-1.49868
N	1.1867	1.50025	1.65213
C	1.6806	1.53175	3.00906
H	1.40635	2.26561	1.05627
H	2.26379	2.46071	3.19383
H	2.34228	0.657427	3.20661
H	0.836609	1.49705	3.73544
C	670.403	-0.271084	3.41803
C	670.04	0.209828	2.06587
O	668.942	0.698249	1.84136
H	669.541	-0.12323	4.10397
H	671.273	0.298995	3.80637
H	670.655	-1.35213	3.38497
N	670.972	0.0774417	1.11914
C	670.751	0.459823	-0.253238
C	671.623	-0.41529	-1.13438
O	672.471	-1.15702	-0.642899
H	671.847	-0.359531	1.30788
H	669.721	0.259521	-0.518214
C	671.086	1.95162	-0.471153
H	672.146	2.15552	-0.209475
H	670.907	2.26173	-1.52099
H	670.443	2.57265	0.189293
N	671.426	-0.354435	-2.46612
C	672.204	-1.15483	-3.38265
H	670.732	0.248782	-2.84474
H	671.893	-0.963766	-4.43335
H	672.069	-2.23987	-3.16891
H	673.288	-0.917081	-3.28904
