44
  This energy is 0.2501 and Call times are: 28758
C	2.91852	-1.83918	-0.460787
C	1.54455	-1.68594	0.0682234
O	0.929231	-2.64257	0.518403
H	3.22495	-2.90505	-0.383862
H	3.62655	-1.21835	0.127432
H	2.95467	-1.53093	-1.52698
N	1.02457	-0.457164	0.0223077
C	-0.316503	-0.15988	0.46015
C	-0.81971	1.03163	-0.332722
O	-0.0610001	1.67034	-1.05944
H	1.52234	0.303437	-0.384601
H	-0.962068	-0.99772	0.227982
C	-0.347843	0.144756	1.9739
H	0.306089	1.01086	2.21111
H	-1.37718	0.361673	2.32596
H	0.031957	-0.737649	2.53378
N	-2.12286	1.35466	-0.216619
C	-2.69244	2.46927	-0.937312
H	-2.72199	0.823402	0.373186
H	-3.77636	2.57211	-0.709757
H	-2.57703	2.32668	-2.03623
H	-2.18343	3.41984	-0.657192
C	6.38595	2.73106	-2.15703
C	6.96512	1.93681	-1.05028
O	8.08893	2.16788	-0.625931
H	7.1272	3.48859	-2.49252
H	5.46838	3.25354	-1.81375
H	6.13594	2.06926	-3.01294
N	6.19724	0.964849	-0.552238
C	6.63938	0.0806994	0.497213
C	5.91588	-1.24305	0.336554
O	4.9944	-1.36347	-0.468479
H	5.30063	0.762296	-0.935536
H	7.69798	-0.11375	0.378144
C	6.35349	0.688737	1.88783
H	5.26632	0.878635	2.0145
H	6.70195	0.0235232	2.70427
H	6.88632	1.66029	1.98015
N	6.32546	-2.27603	1.09894
C	5.70018	-3.57504	1.01088
H	7.07549	-2.16026	1.74168
H	6.17789	-4.29008	1.7164
H	5.79214	-3.98612	-0.0205429
H	4.61648	-3.50734	1.26018
