44
  This energy is 0.13 and Call times are: 31259
C	-0.969219	-3.33972	0.139806
C	-0.300085	-2.15172	0.716045
O	0.0731949	-2.13828	1.8809
H	-1.06381	-4.12366	0.922354
H	-0.371212	-3.74426	-0.703689
H	-1.98349	-3.06949	-0.222584
N	-0.133463	-1.10955	-0.101574
C	0.4619	0.13166	0.326785
C	-0.115062	1.25015	-0.520359
O	-0.816864	1.00131	-1.49876
H	-0.479368	-1.12053	-1.03544
H	0.18051	0.32704	1.35405
C	1.99915	0.0836523	0.186117
H	2.28852	-0.106278	-0.869454
H	2.4704	1.02866	0.525844
H	2.39884	-0.746898	0.808041
N	0.162762	2.51748	-0.156067
C	-0.347119	3.6465	-0.898719
H	0.729095	2.69888	0.641073
H	-0.00891848	4.6027	-0.442085
H	-1.46116	3.63832	-0.91019
H	0.00922158	3.61623	-1.95382
C	6.70829	-1.13081	-2.18879
C	5.62533	-0.19238	-1.81774
O	5.43128	0.833932	-2.45448
H	7.25797	-0.72844	-3.06732
H	6.28226	-2.12117	-2.45418
H	7.41875	-1.24874	-1.34356
N	4.88524	-0.529058	-0.75882
C	3.82358	0.304005	-0.251434
C	3.69046	0.0459854	1.23762
O	4.30496	-0.873502	1.77487
H	5.08148	-1.34725	-0.225984
H	4.09587	1.34473	-0.375396
C	2.49246	0.00267222	-0.974321
H	2.20729	-1.06237	-0.838617
H	1.67013	0.64748	-0.602137
H	2.61548	0.19067	-2.06329
N	2.88504	0.863267	1.94428
C	2.70082	0.697724	3.36724
H	2.39933	1.6043	1.49257
H	2.00266	1.46662	3.76549
H	3.67268	0.795633	3.90314
H	2.28101	-0.308822	3.59476
