44
  This energy is 0 and Call times are: 12268
C	2.85544	-0.486627	1.92934
C	1.39633	-0.279843	1.79015
O	0.642552	-0.426462	2.74238
H	3.08532	-0.790777	2.97362
H	3.3988	0.454361	1.70122
H	3.19615	-1.28669	1.23876
N	0.95941	0.0693312	0.577896
C	-0.437156	0.263653	0.277229
C	-0.653873	-0.0550582	-1.19009
O	0.300844	-0.250115	-1.93987
H	1.58041	0.144874	-0.197033
H	-1.02734	-0.440161	0.850779
C	-0.87156	1.71312	0.586398
H	-0.273576	2.43508	-0.00960543
H	-1.94835	1.87163	0.372092
H	-0.696693	1.92683	1.66348
N	-1.92441	-0.123833	-1.63398
C	-2.22787	-0.426669	-3.01325
H	-2.6838	0.033014	-1.01125
H	-3.32744	-0.437795	-3.1807
H	-1.82032	-1.42452	-3.29514
H	-1.77747	0.334203	-3.69101
C	546.61	3.45814	0.0478803
C	547.365	2.22703	0.374021
O	548.515	2.28027	0.788601
H	547.258	4.34387	0.225872
H	545.709	3.53669	0.691815
H	546.302	3.44683	-1.0189
N	546.723	1.07108	0.188254
C	547.341	-0.210846	0.42065
C	546.687	-1.2245	-0.499431
O	545.686	-0.930802	-1.14997
H	545.802	1.04231	-0.188637
H	548.388	-0.157443	0.149596
C	547.184	-0.639053	1.89627
H	546.11	-0.70421	2.17187
H	547.668	-1.61829	2.09109
H	547.663	0.121024	2.55163
N	547.247	-2.44731	-0.581469
C	546.698	-3.47486	-1.43494
H	548.059	-2.66486	-0.0504798
H	547.299	-4.40789	-1.36433
H	546.692	-3.14111	-2.49789
H	545.649	-3.71034	-1.14153
