44
  This energy is 0 and Call times are: 12156
C	-1.44049	1.17795	2.94111
C	-1.29511	1.18334	1.46802
O	-2.08606	1.78663	0.756101
H	-2.34183	1.76428	3.22337
H	-0.548761	1.63907	3.41537
H	-1.55864	0.137312	3.31018
N	-0.263482	0.496971	0.970997
C	-0.016392	0.374171	-0.444074
C	0.699791	-0.941023	-0.68677
O	1.11554	-1.61469	0.253993
H	0.34801	-0.0227947	1.56073
H	-0.962306	0.328063	-0.969194
C	0.83265	1.55641	-0.960491
H	1.80751	1.59782	-0.429477
H	1.01809	1.48061	-2.05154
H	0.292904	2.50873	-0.765296
N	0.85359	-1.34287	-1.96383
C	1.51746	-2.58314	-2.29125
H	0.506765	-0.786154	-2.71139
H	1.54355	-2.73638	-3.39264
H	0.98609	-3.44681	-1.82974
H	2.56518	-2.58004	-1.91256
C	540.443	0.273964	-3.15537
C	539.347	0.538199	-2.19609
O	538.454	1.33254	-2.45798
H	540.299	0.904484	-4.05965
H	540.437	-0.794379	-3.45763
H	541.422	0.522943	-2.69536
N	539.393	-0.132549	-1.04269
C	538.421	0.0503118	0.00652895
C	539.095	-0.250501	1.33237
O	540.222	-0.740435	1.36955
H	540.148	-0.745106	-0.827128
H	538.112	1.08776	0.0299543
C	537.202	-0.873957	-0.203611
H	537.518	-1.93898	-0.217178
H	536.44	-0.732562	0.590319
H	536.73	-0.641668	-1.18315
N	538.417	0.0460568	2.45902
C	538.98	-0.200012	3.76626
H	537.508	0.445828	2.40866
H	538.271	0.110874	4.56468
H	539.929	0.369195	3.89901
H	539.206	-1.28281	3.89958
