44
  This energy is 0.1195 and Call times are: 26800
C	3.11046	1.47762	-0.504361
C	1.84216	1.33378	0.245227
O	1.6868	1.86773	1.3348
H	3.81944	2.09547	0.0884958
H	2.92495	1.97808	-1.47795
H	3.56501	0.480229	-0.682351
N	0.892415	0.593921	-0.331802
C	-0.378494	0.327693	0.294675
C	-0.884281	-1.01007	-0.21142
O	-0.317664	-1.58846	-1.13669
H	1.04864	0.131999	-1.20018
H	-0.237131	0.235392	1.36431
C	-1.39509	1.44619	-0.022725
H	-1.54842	1.53422	-1.11944
H	-2.37359	1.25974	0.465418
H	-1.00073	2.41696	0.349362
N	-1.96558	-1.5394	0.394071
C	-2.51482	-2.81079	-0.0159242
H	-2.40794	-1.05839	1.14375
H	-3.40091	-3.07425	0.602679
H	-1.75707	-3.62002	0.0946603
H	-2.83015	-2.7767	-1.08389
C	2.80083	-2.34749	2.0499
C	3.83225	-1.95887	1.06182
O	4.76303	-2.70521	0.791587
H	3.04548	-3.35108	2.46077
H	1.80318	-2.39128	1.56459
H	2.77423	-1.61457	2.88368
N	3.68754	-0.759553	0.493414
C	4.63363	-0.225239	-0.454195
C	4.60109	1.28812	-0.352973
O	3.742	1.85606	0.318674
H	2.94724	-0.146382	0.753887
H	5.6316	-0.54536	-0.181802
C	4.29233	-0.679329	-1.89035
H	3.27263	-0.342083	-2.17412
H	5.02167	-0.285726	-2.62769
H	4.31425	-1.78995	-1.93906
N	5.5487	1.97967	-1.01616
C	5.60032	3.42248	-0.973856
H	6.2379	1.5022	-1.55105
H	6.45035	3.80358	-1.58168
H	5.73002	3.78035	0.0732327
H	4.65799	3.86142	-1.37447
