44
  This energy is 0 and Call times are: 9440
C	0.134746	3.46765	0.264386
C	-0.194933	2.22894	-0.475915
O	-0.860756	2.2627	-1.50156
H	-0.324449	4.33794	-0.252935
H	1.23521	3.61061	0.300341
H	-0.264686	3.4129	1.29906
N	0.27056	1.08837	0.0386556
C	-0.00395277	-0.201022	-0.545022
C	0.0189882	-1.23654	0.563455
O	0.403757	-0.941272	1.69327
H	0.776405	1.07292	0.896414
H	-1.00275	-0.198419	-0.963391
C	1.03742	-0.547748	-1.63156
H	2.0612	-0.560901	-1.20058
H	0.828855	-1.53222	-2.09829
H	1.00857	0.227385	-2.42823
N	-0.403753	-2.48094	0.265474
C	-0.422675	-3.53063	1.25743
H	-0.715254	-2.69964	-0.653334
H	-0.802813	-4.47946	0.818751
H	-1.08045	-3.25145	2.11222
H	0.601607	-3.71376	1.65549
C	345.076	3.39493	-0.762509
C	345.746	2.12459	-0.403369
O	346.963	2.01358	-0.456347
H	345.842	4.13785	-1.07564
H	344.522	3.79628	0.112189
H	344.37	3.2307	-1.60332
N	344.951	1.12078	-0.0256334
C	345.452	-0.187919	0.31233
C	344.371	-1.20447	-0.000766266
O	343.236	-0.842788	-0.306227
H	343.959	1.21383	-0.0268491
H	346.303	-0.417904	-0.317027
C	345.847	-0.259228	1.80375
H	344.972	-0.033695	2.45003
H	346.248	-1.25788	2.0732
H	346.634	0.498407	2.01177
N	344.702	-2.50922	0.0603103
C	343.74	-3.54778	-0.226601
H	345.627	-2.78222	0.305319
H	344.204	-4.55327	-0.122779
H	343.351	-3.44686	-1.26581
H	342.875	-3.48667	0.472997
