44
  This energy is 0 and Call times are: 13500
C	-2.88357	-1.20642	-1.53045
C	-1.84722	-0.166982	-1.33887
O	-1.75198	0.780927	-2.1062
H	-3.47809	-0.969177	-2.43937
H	-3.56379	-1.23488	-0.653394
H	-2.40806	-2.2013	-1.66163
N	-1.03277	-0.326639	-0.293132
C	0.0507896	0.578697	-0.00189706
C	1.13558	-0.198564	0.719658
O	0.935913	-1.34904	1.10468
H	-1.09661	-1.12503	0.298786
H	0.475304	0.938336	-0.930917
C	-0.435812	1.76088	0.86465
H	-0.861802	1.39309	1.82241
H	0.386421	2.47241	1.08415
H	-1.23464	2.31046	0.320413
N	2.32031	0.413886	0.912911
C	3.41334	-0.249318	1.58494
H	2.46423	1.34364	0.590539
H	4.30094	0.418326	1.6454
H	3.70727	-1.17444	1.0381
H	3.12071	-0.538515	2.62026
C	634.535	-0.183752	3.4442
C	634.45	-0.763826	2.08496
O	634.2	-1.94948	1.91714
H	634.359	-0.983287	4.19632
H	633.764	0.605565	3.57199
H	635.542	0.252409	3.6122
N	634.663	0.0743049	1.06777
C	634.657	-0.351764	-0.309537
C	635.575	0.566694	-1.09302
O	636.042	1.5802	-0.576806
H	634.906	1.02787	1.22152
H	635.067	-1.35171	-0.376034
C	633.227	-0.313114	-0.892357
H	632.81	0.714721	-0.834002
H	633.207	-0.652231	-1.94835
H	632.57	-0.986138	-0.298831
N	635.864	0.226035	-2.36447
C	636.734	1.03624	-3.18521
H	635.48	-0.600039	-2.76334
H	636.848	0.589551	-4.19749
H	637.744	1.11997	-2.7233
H	636.32	2.06439	-3.29996
