44
  This energy is 0 and Call times are: 9720
C	0.150829	2.9043	-1.9118
C	-0.600958	1.79148	-1.28924
O	-1.82342	1.79991	-1.24533
H	-0.565012	3.67422	-2.27328
H	0.742892	2.53117	-2.77376
H	0.832777	3.36849	-1.16845
N	0.12707	0.793139	-0.783597
C	-0.460111	-0.33754	-0.108805
C	0.543715	-0.858441	0.902407
O	1.6967	-0.431909	0.922402
H	1.12261	0.820034	-0.790451
H	-1.33315	-0.0107806	0.442247
C	-0.83876	-1.44544	-1.11599
H	0.0583903	-1.78841	-1.67413
H	-1.3046	-2.31587	-0.610149
H	-1.56789	-1.03973	-1.85092
N	0.122767	-1.79363	1.77662
C	1.00588	-2.34398	2.77832
H	-0.815058	-2.12334	1.74746
H	0.474118	-3.09745	3.40021
H	1.38674	-1.54092	3.45012
H	1.88222	-2.83888	2.30057
C	364.188	3.14297	-1.25514
C	364.942	1.87024	-1.31586
O	365.582	1.56075	-2.31094
H	364.306	3.68584	-2.21808
H	364.578	3.77976	-0.433502
H	363.109	2.94135	-1.08597
N	364.878	1.09069	-0.233905
C	365.523	-0.196627	-0.159883
C	364.728	-1.06962	0.793024
O	363.82	-0.59543	1.4728
H	364.319	1.33724	0.552681
H	365.49	-0.669132	-1.13368
C	366.982	-0.0553997	0.324616
H	367.016	0.419708	1.3282
H	367.494	-1.03846	0.372558
H	367.543	0.593673	-0.383159
N	365.049	-2.37689	0.858239
C	364.344	-3.28536	1.73237
H	365.784	-2.74289	0.297398
H	364.754	-4.31535	1.64249
H	363.26	-3.3161	1.47565
H	364.438	-2.96165	2.7942
