44
  This energy is -0.945 and Call times are: 30545
C	-0.391992	-3.27534	-1.10958
C	0.00675947	-1.86592	-1.32325
O	0.632975	-1.5292	-2.31868
H	-0.0188247	-3.89468	-1.954
H	-1.49834	-3.35753	-1.06509
H	0.045203	-3.65744	-0.163028
N	-0.351991	-0.997385	-0.374919
C	0.000979265	0.399681	-0.421578
C	0.0952077	0.911562	1.00343
O	-0.272728	0.215931	1.94812
H	-0.825875	-1.29363	0.449426
H	0.981906	0.505586	-0.867893
C	-1.04677	1.20709	-1.21879
H	-2.05136	1.1073	-0.755233
H	-0.779008	2.28218	-1.27371
H	-1.10454	0.810172	-2.25584
N	0.602078	2.14585	1.19222
C	0.735173	2.71442	2.51328
H	0.898246	2.69201	0.415646
H	1.17211	3.7359	2.45959
H	1.39805	2.08261	3.14786
H	-0.257956	2.78349	3.01335
C	4.26513	3.46338	-0.0749755
C	4.90602	2.2266	0.425812
O	5.93223	2.26979	1.09023
H	4.86969	4.34258	0.23706
H	3.24277	3.56234	0.346609
H	4.20712	3.44238	-1.1837
N	4.30493	1.07705	0.110198
C	4.83288	-0.209927	0.489054
C	4.38886	-1.22656	-0.545779
O	3.5664	-0.927922	-1.40954
H	3.49282	1.05574	-0.46589
H	5.91483	-0.174077	0.462484
C	4.33885	-0.61685	1.89461
H	3.22926	-0.664029	1.91955
H	4.74965	-1.59987	2.20353
H	4.66832	0.145169	2.63428
N	4.93358	-2.45773	-0.486648
C	4.57588	-3.4888	-1.43276
H	5.6005	-2.67925	0.217065
H	5.13055	-4.42881	-1.21842
H	4.81711	-3.1688	-2.47233
H	3.4844	-3.70638	-1.38304
