44
  This energy is -0.7556 and Call times are: 22114
C	3.22413	0.146186	1.30241
C	1.99747	-0.598973	0.940215
O	1.97466	-1.82202	0.946748
H	4.03654	-0.575542	1.53691
H	3.03757	0.779727	2.19491
H	3.54661	0.787382	0.455079
N	0.933156	0.135515	0.608355
C	-0.318186	-0.4467	0.191548
C	-1.00805	0.531825	-0.740184
O	-0.572501	1.67167	-0.891024
H	0.979192	1.12956	0.568146
H	-0.121516	-1.34805	-0.375474
C	-1.21473	-0.758144	1.40993
H	-1.42547	0.167984	1.98605
H	-2.17564	-1.21964	1.103
H	-0.686732	-1.46959	2.0818
N	-2.10361	0.103067	-1.39741
C	-2.82272	0.962135	-2.30904
H	-2.43847	-0.824037	-1.26543
H	-3.69283	0.427372	-2.74968
H	-2.15952	1.29635	-3.13954
H	-3.19852	1.86844	-1.78128
C	11.7903	0.0187613	-2.78265
C	11.1563	-0.665916	-1.63356
O	11.2147	-1.88156	-1.51026
H	12.2626	-0.737966	-3.44604
H	12.572	0.721636	-2.4255
H	11.027	0.578939	-3.36293
N	10.5237	0.113715	-0.753575
C	9.82284	-0.410762	0.391992
C	8.698	0.546797	0.737502
O	8.61214	1.64255	0.186453
H	10.4497	1.09758	-0.889217
H	9.37024	-1.35912	0.130483
C	10.7784	-0.579718	1.59352
H	11.2349	0.394858	1.86889
H	10.2536	-0.99593	2.47774
H	11.5977	-1.27805	1.31544
N	7.79875	0.148647	1.65882
C	6.69133	0.990564	2.04739
H	7.8826	-0.74326	2.09073
H	6.06476	0.486426	2.81582
H	6.0478	1.22366	1.16829
H	7.05908	1.95312	2.47092
