44
  This energy is -2.1866 and Call times are: 28988
C	0.00670846	-2.58246	-2.33314
C	0.500404	-1.28187	-1.82732
O	1.49374	-0.752292	-2.30612
H	0.678476	-2.94036	-3.14339
H	-1.01982	-2.46978	-2.74091
H	-0.00112738	-3.33322	-1.51497
N	-0.193983	-0.731185	-0.828842
C	0.188264	0.510436	-0.203681
C	-0.303411	0.48846	1.23135
O	-1.05168	-0.403265	1.62712
H	-0.976481	-1.19404	-0.422232
H	1.26865	0.577428	-0.173501
C	-0.408151	1.71646	-0.961993
H	-1.51703	1.65369	-0.98412
H	-0.109601	2.67901	-0.498427
H	-0.0412526	1.70792	-2.01159
N	0.115885	1.47244	2.05111
C	-0.295523	1.53053	3.43442
H	0.724508	2.1829	1.71363
H	0.154662	2.41202	3.94191
H	0.0240067	0.612084	3.97814
H	-1.40409	1.60945	3.51181
C	5.86053	-1.8918	-2.61082
C	4.99465	-1.73723	-1.42022
O	4.17263	-2.59198	-1.12007
H	5.61031	-2.84476	-3.1257
H	6.92812	-1.91706	-2.30692
H	5.69673	-1.04906	-3.31511
N	5.16201	-0.622111	-0.70545
C	4.36401	-0.310764	0.454209
C	4.28543	1.19882	0.582867
O	4.97818	1.92806	-0.124257
H	5.80667	0.0834449	-0.985548
H	3.35546	-0.67445	0.301941
C	4.97697	-0.931638	1.72858
H	6.0078	-0.550786	1.89103
H	4.36411	-0.71063	2.6264
H	5.03212	-2.03571	1.60892
N	3.42686	1.70522	1.48974
C	3.28014	3.12964	1.67867
H	2.87177	1.09921	2.04983
H	2.52691	3.34613	2.46798
H	2.94869	3.61904	0.734264
H	4.24899	3.58759	1.98322
