44
  This energy is 0 and Call times are: 12884
C	0.250053	1.13403	-3.28087
C	0.737646	1.06568	-1.88491
O	1.84163	1.4942	-1.57833
H	1.03372	1.59368	-3.92155
H	-0.66863	1.75515	-3.33539
H	0.0291952	0.113748	-3.65947
N	-0.0890013	0.513216	-0.993945
C	0.262308	0.337667	0.393255
C	-0.492956	-0.866383	0.923721
O	-1.36927	-1.40646	0.251327
H	-0.967779	0.131857	-1.26631
H	1.31922	0.114316	0.468591
C	-0.0845004	1.59909	1.21409
H	-1.1705	1.8226	1.1457
H	0.19402	1.48159	2.28139
H	0.473137	2.46899	0.803388
N	-0.16219	-1.32235	2.14794
C	-0.822896	-2.46596	2.73258
H	0.552387	-0.874586	2.67516
H	-0.410546	-2.68473	3.7422
H	-0.684188	-3.3685	2.09426
H	-1.91655	-2.27907	2.83324
C	591.575	-2.67165	-2.15503
C	591.372	-2.11034	-0.800484
O	591.183	-2.83807	0.164541
H	591.506	-3.78017	-2.10739
H	592.578	-2.39028	-2.53938
H	590.794	-2.29235	-2.84752
N	591.404	-0.779563	-0.698567
C	591.181	-0.0859931	0.545396
C	590.594	1.27672	0.228283
O	590.54	1.68513	-0.930173
H	591.518	-0.199115	-1.49983
H	590.445	-0.626115	1.12822
C	592.497	0.0625415	1.33882
H	593.249	0.625738	0.745484
H	592.336	0.582809	2.30512
H	592.913	-0.946436	1.55282
N	590.13	2.01263	1.25746
C	589.55	3.31913	1.05139
H	590.179	1.66345	2.1874
H	589.228	3.76349	2.01892
H	588.661	3.25309	0.383025
H	590.287	4.00663	0.577787
