44
  This energy is 0 and Call times are: 12856
C	-3.1403	-0.131662	-1.49462
C	-1.71011	-0.508155	-1.43178
O	-1.25738	-1.39555	-2.14169
H	-3.6581	-0.778339	-2.23594
H	-3.24356	0.928384	-1.80827
H	-3.61673	-0.271113	-0.501308
N	-0.955739	0.16922	-0.563176
C	0.443255	-0.11252	-0.358243
C	0.797989	0.26566	1.06748
O	-0.00203112	0.874691	1.77513
H	-1.34727	0.860818	0.0370421
H	0.612036	-1.17721	-0.461059
C	1.31688	0.673554	-1.36029
H	1.15194	1.76636	-1.24802
H	2.39547	0.454503	-1.22175
H	1.03464	0.386897	-2.39688
N	2.01184	-0.0969141	1.52698
C	2.43484	0.214824	2.87237
H	2.64387	-0.59284	0.940754
H	3.46257	-0.167035	3.05991
H	1.74767	-0.24791	3.61732
H	2.43392	1.3163	3.03941
C	590.151	3.28287	-0.108494
C	590.382	1.82259	-0.0361653
O	591.501	1.35116	-0.17995
H	591.113	3.79724	-0.319177
H	589.748	3.65487	0.857119
H	589.433	3.5167	-0.922629
N	589.308	1.06214	0.190123
C	589.368	-0.377319	0.244202
C	588.022	-0.923492	-0.192364
O	587.061	-0.173677	-0.357199
H	588.397	1.45743	0.264262
H	590.105	-0.731083	-0.465747
C	589.713	-0.861982	1.66955
H	588.951	-0.508159	2.39665
H	589.775	-1.9683	1.72109
H	590.698	-0.443859	1.97122
N	587.923	-2.25147	-0.399031
C	586.683	-2.86058	-0.821074
H	588.712	-2.84143	-0.264406
H	586.805	-3.96015	-0.936854
H	586.351	-2.43986	-1.79791
H	585.879	-2.67328	-0.0734537
