44
  This energy is -3.1228 and Call times are: 28786
C	-3.3679	-0.452963	0.751523
C	-1.97114	-0.938298	0.683296
O	-1.63805	-1.98576	1.22021
H	-3.97542	-1.16542	1.35086
H	-3.79909	-0.383198	-0.269234
H	-3.40285	0.545433	1.23637
N	-1.10882	-0.172116	0.0111651
C	0.292396	-0.490774	-0.105447
C	1.06145	0.807731	-0.260327
O	0.471362	1.87227	-0.434259
H	-1.38609	0.698261	-0.385615
H	0.629927	-0.958216	0.811178
C	0.548435	-1.41906	-1.31291
H	0.211993	-0.935662	-2.25481
H	1.62193	-1.68289	-1.40525
H	-0.030297	-2.35944	-1.18209
N	2.40607	0.750071	-0.191753
C	3.22114	1.93529	-0.32259
H	2.8653	-0.120017	-0.0463948
H	4.30077	1.68143	-0.237854
H	2.97121	2.67369	0.473387
H	3.05162	2.42181	-1.31036
C	3.99065	-2.27431	1.06551
C	4.99992	-1.22463	1.33144
O	5.09065	-0.698002	2.43182
H	3.38689	-2.44426	1.98336
H	4.4916	-3.22429	0.783847
H	3.31438	-1.95569	0.244407
N	5.79242	-0.891001	0.310159
C	6.79279	0.142975	0.403416
C	6.98501	0.741054	-0.977499
O	6.46392	0.226128	-1.96493
H	5.67934	-1.29954	-0.591042
H	6.43084	0.932978	1.04956
C	8.12571	-0.42556	0.937586
H	8.50284	-1.22885	0.26935
H	8.90008	0.36366	1.02707
H	7.95963	-0.864994	1.94538
N	7.73653	1.85517	-1.07729
C	7.97019	2.4979	-2.34949
H	8.14652	2.25947	-0.266413
H	8.61109	3.39822	-2.22341
H	7.00749	2.815	-2.81203
H	8.47885	1.80108	-3.05436
