44
  This energy is 0 and Call times are: 13108
C	-1.55634	-1.04808	-2.93122
C	-0.57957	-1.23663	-1.83508
O	-0.0118668	-2.30761	-1.67038
H	-1.66155	-1.9992	-3.49706
H	-1.20556	-0.254618	-3.62412
H	-2.54687	-0.765113	-2.51666
N	-0.361091	-0.181474	-1.04686
C	0.528751	-0.224465	0.0866689
C	0.0390262	0.7819	1.11085
O	-0.858497	1.57557	0.834709
H	-0.861284	0.671101	-1.16847
H	0.475487	-1.2038	0.545689
C	1.97861	0.0966294	-0.33764
H	2.03565	1.10554	-0.799042
H	2.67583	0.0531065	0.524056
H	2.31326	-0.647473	-1.09307
N	0.616141	0.766109	2.32852
C	0.21157	1.68291	3.36871
H	1.338	0.113735	2.53443
H	0.803079	1.51238	4.29513
H	-0.867375	1.5493	3.61222
H	0.364194	2.73768	3.04419
C	610.177	-1.3445	0.462469
C	608.842	-1.34492	-0.177398
O	608.599	-2.06626	-1.1351
H	610.842	-2.0542	-0.0755061
H	610.093	-1.66365	1.5226
H	610.623	-0.328621	0.416587
N	607.933	-0.519474	0.346156
C	606.604	-0.377457	-0.19462
C	606.116	1.02621	0.111228
O	606.752	1.76437	0.861189
H	608.157	0.0914151	1.0999
H	606.644	-0.477322	-1.27213
C	605.646	-1.4272	0.411173
H	605.597	-1.31835	1.51558
H	604.623	-1.33712	-0.00757648
H	606.027	-2.44648	0.181912
N	604.972	1.43199	-0.47368
C	604.434	2.75287	-0.246059
H	604.473	0.821828	-1.0807
H	603.489	2.89592	-0.815028
H	605.159	3.53382	-0.569838
H	604.219	2.90866	0.835922
