44
  This energy is -0.9384 and Call times are: 24874
C	-2.09753	2.64076	-0.859892
C	-0.985936	1.70947	-1.15686
O	-0.514152	1.62538	-2.28236
H	-2.38874	3.17385	-1.79096
H	-1.77905	3.38775	-0.102715
H	-2.97583	2.07885	-0.477848
N	-0.537766	0.975522	-0.13566
C	0.509497	-0.00490811	-0.27904
C	0.294068	-1.08336	0.765989
O	-0.548014	-0.943592	1.65091
H	-0.959247	1.02552	0.765295
H	0.427146	-0.476096	-1.25055
C	1.90031	0.64448	-0.108241
H	1.98908	1.1189	0.8923
H	2.71569	-0.0976808	-0.230187
H	2.03293	1.43575	-0.878077
N	1.05023	-2.19563	0.681748
C	0.911611	-3.27741	1.6287
H	1.7235	-2.29219	-0.0438269
H	1.6201	-4.1013	1.39105
H	-0.123749	-3.68829	1.60685
H	1.1205	-2.92275	2.66394
C	11.0839	0.729177	-1.05983
C	9.97107	0.851703	-0.0913992
O	10.143	1.35547	1.00999
H	12.0133	1.13507	-0.604588
H	10.8542	1.30428	-1.98139
H	11.2479	-0.337504	-1.32126
N	8.78537	0.38303	-0.487444
C	7.61907	0.393106	0.360019
C	6.72685	-0.763537	-0.049484
O	6.96596	-1.4146	-1.06469
H	8.67056	-0.0613871	-1.37128
H	7.9211	0.220167	1.38544
C	6.85974	1.73239	0.237633
H	6.54048	1.90525	-0.812241
H	5.96723	1.75786	0.895884
H	7.53413	2.56509	0.53455
N	5.67498	-1.05241	0.741795
C	4.77413	-2.13891	0.434939
H	5.50017	-0.516796	1.56133
H	3.97451	-2.21601	1.20429
H	5.32369	-3.10752	0.402372
H	4.29239	-1.98179	-0.55722
