44
  This energy is 0.1062 and Call times are: 30171
C	-0.902769	2.15638	2.57832
C	-0.530398	0.817044	2.06973
O	-0.259761	-0.0979627	2.83519
H	-0.866282	2.15054	3.6894
H	-1.93231	2.41629	2.25392
H	-0.191994	2.92081	2.19944
N	-0.506135	0.671773	0.742824
C	-0.121249	-0.559442	0.098982
C	0.471837	-0.219636	-1.25539
O	0.409399	0.924546	-1.70111
H	-0.689071	1.43708	0.132324
H	0.656342	-1.03878	0.680546
C	-1.3351	-1.50063	-0.0621786
H	-2.12884	-1.01335	-0.66763
H	-1.04894	-2.45786	-0.544206
H	-1.75775	-1.72944	0.940496
N	1.07266	-1.21169	-1.94159
C	1.67012	-0.981163	-3.23623
H	1.11681	-2.13012	-1.56263
H	2.11315	-1.91919	-3.63754
H	2.47593	-0.214984	-3.16613
H	0.907726	-0.615	-3.96137
C	2.1921	-2.00687	-1.58919
C	3.51394	-1.34283	-1.53495
O	4.39238	-1.61451	-2.34176
H	2.18403	-2.74138	-2.42363
H	1.39336	-1.2557	-1.76389
H	1.9936	-2.54255	-0.636977
N	3.68687	-0.443508	-0.563512
C	4.93209	0.253142	-0.356936
C	5.04084	0.600888	1.11575
O	4.08681	0.436675	1.87375
H	2.97644	-0.262958	0.110686
H	5.75547	-0.409146	-0.593647
C	4.99926	1.53115	-1.22147
H	4.16077	2.21564	-0.971593
H	5.95923	2.06917	-1.08173
H	4.90975	1.25353	-2.29444
N	6.21789	1.08508	1.55862
C	6.41631	1.43849	2.94495
H	6.97958	1.20709	0.930914
H	7.44916	1.81675	3.11042
H	6.25776	0.553213	3.60254
H	5.69827	2.23185	3.25498
