44
  This energy is 0.1079 and Call times are: 24029
C	-1.77146	2.23343	1.9966
C	-0.964476	1.00601	1.81395
O	-0.5145	0.395639	2.77383
H	-1.85167	2.46219	3.08155
H	-2.79164	2.08561	1.58412
H	-1.28613	3.09037	1.48358
N	-0.758834	0.612907	0.554758
C	0.041885	-0.537365	0.216699
C	0.644886	-0.306938	-1.1562
O	0.290318	0.645658	-1.84798
H	-1.09712	1.14304	-0.217505
H	0.861721	-0.62087	0.919214
C	-0.811099	-1.82484	0.224308
H	-1.64612	-1.74384	-0.50385
H	-0.202915	-2.71954	-0.0209531
H	-1.24875	-1.96915	1.23623
N	1.58335	-1.17586	-1.5808
C	2.2169	-1.03347	-2.87096
H	1.86007	-1.93814	-1.0051
H	2.95967	-1.84482	-3.03602
H	2.74475	-0.0550139	-2.94348
H	1.46038	-1.07897	-3.68751
C	6.82451	-1.2343	2.1133
C	5.54966	-0.520125	1.87696
O	4.80217	-0.236088	2.80271
H	6.92963	-1.44859	3.19907
H	7.68061	-0.607565	1.78615
H	6.83465	-2.1941	1.55496
N	5.2686	-0.211452	0.608847
C	4.04599	0.444717	0.21743
C	3.71595	0.0223823	-1.20182
O	4.52228	-0.620675	-1.87117
H	5.86744	-0.485549	-0.138225
H	3.23796	0.102535	0.851958
C	4.19102	1.97978	0.305709
H	5.01297	2.33245	-0.353126
H	3.25174	2.49618	0.0200701
H	4.44029	2.26535	1.35101
N	2.51017	0.369767	-1.69318
C	2.1063	0.00703943	-3.03164
H	1.86961	0.886616	-1.13494
H	1.08235	0.383217	-3.249
H	2.10652	-1.10018	-3.15551
H	2.80564	0.438698	-3.7838
