44
  This energy is -2.9828 and Call times are: 25874
C	-1.44723	-2.06561	-2.39822
C	-0.833509	-1.8421	-1.06986
O	-0.86249	-2.70726	-0.205533
H	-1.9071	-3.07739	-2.4248
H	-0.674257	-2.00121	-3.19265
H	-2.23596	-1.3073	-2.58785
N	-0.256554	-0.654016	-0.875033
C	0.344381	-0.274038	0.379182
C	0.248047	1.23414	0.512107
O	-0.125462	1.92703	-0.432407
H	-0.276905	0.0550305	-1.57411
H	-0.223957	-0.706553	1.19316
C	1.81835	-0.730397	0.445378
H	2.40417	-0.278581	-0.383307
H	2.28822	-0.45585	1.41201
H	1.86537	-1.83612	0.338035
N	0.577263	1.77947	1.69965
C	0.511082	3.20523	1.92104
H	0.87331	1.20208	2.45333
H	0.820309	3.45672	2.95948
H	-0.526537	3.57935	1.76403
H	1.18303	3.7443	1.21462
C	5.06208	-1.8159	-2.87589
C	5.56807	-0.60322	-2.19432
O	6.16185	0.269307	-2.81281
H	5.33034	-1.77034	-3.95377
H	3.95727	-1.87446	-2.78266
H	5.51914	-2.72435	-2.42992
N	5.34178	-0.522512	-0.881051
C	5.81091	0.576103	-0.0738892
C	6.03213	0.065422	1.33744
O	5.66122	-1.06002	1.66531
H	4.89301	-1.25985	-0.38426
H	6.76957	0.9115	-0.449528
C	4.79215	1.73686	-0.0762467
H	3.81149	1.39596	0.318897
H	5.14822	2.59444	0.530617
H	4.6398	2.08932	-1.11975
N	6.654	0.884366	2.20842
C	6.91269	0.482229	3.57134
H	6.95042	1.78988	1.92338
H	7.43245	1.29255	4.12854
H	7.55437	-0.428189	3.59717
H	5.96017	0.248331	4.09967
