44
  This energy is -2.1275 and Call times are: 23477
C	1.14435	1.38379	-2.98132
C	0.538756	0.277981	-2.20571
O	0.0291883	-0.682932	-2.76553
H	1.02768	1.17752	-4.06747
H	2.22604	1.46886	-2.74584
H	0.637476	2.34215	-2.74107
N	0.58021	0.393336	-0.876289
C	-0.00535495	-0.580802	0.0106883
C	-0.415749	0.128417	1.28746
O	-0.0845193	1.2942	1.49468
H	0.961916	1.20093	-0.435886
H	-0.905469	-0.9793	-0.440561
C	0.994237	-1.71685	0.319645
H	1.91347	-1.30979	0.792234
H	0.550403	-2.48054	0.990692
H	1.28679	-2.21652	-0.629613
N	-1.15909	-0.561601	2.17478
C	-1.6008	0.032706	3.41489
H	-1.42067	-1.50266	1.98752
H	-2.19946	-0.69351	4.00772
H	-2.23229	0.929179	3.21781
H	-0.728767	0.353101	4.02974
C	4.59736	-0.47596	-3.31341
C	4.92963	-0.991159	-1.96607
O	4.71399	-2.15653	-1.66307
H	4.14004	-1.29079	-3.91572
H	5.51702	-0.123099	-3.82573
H	3.87349	0.362425	-3.23472
N	5.46941	-0.117407	-1.11308
C	5.80625	-0.459475	0.246357
C	5.70361	0.79745	1.08967
O	5.53951	1.8968	0.564113
H	5.60107	0.838122	-1.36104
H	5.07833	-1.16443	0.62818
C	7.22984	-1.05253	0.329467
H	7.97812	-0.32566	-0.0523447
H	7.49581	-1.33282	1.36929
H	7.284	-1.96663	-0.30127
N	5.79015	0.66155	2.4276
C	5.69794	1.80081	3.31063
H	5.91885	-0.236747	2.83451
H	5.7917	1.4838	4.37268
H	4.71899	2.3175	3.18424
H	6.50664	2.53489	3.09092
