44
  This energy is 0 and Call times are: 10364
C	3.15748	-1.02619	-1.04399
C	1.70047	-0.873683	-1.25609
O	1.19646	-1.07078	-2.35315
H	3.64073	-1.30969	-2.00419
H	3.35393	-1.82125	-0.294304
H	3.59501	-0.068773	-0.690423
N	0.980653	-0.510607	-0.191939
C	-0.441362	-0.280903	-0.252521
C	-0.80163	0.738176	0.812017
O	0.0260669	1.09462	1.64843
H	1.41078	-0.314031	0.684538
H	-0.692585	0.152805	-1.21242
C	-1.22237	-1.59472	-0.0307864
H	-0.972951	-2.03458	0.958327
H	-2.31834	-1.4335	-0.0888834
H	-0.937127	-2.32826	-0.816223
N	-2.05233	1.23981	0.799626
C	-2.48387	2.21849	1.77026
H	-2.7067	0.94215	0.11241
H	-3.54356	2.50674	1.59368
H	-1.85589	3.13668	1.70814
H	-2.39862	1.81121	2.8037
C	408.825	-2.71698	-0.00134802
C	409.911	-1.91766	0.608475
O	410.286	-2.12832	1.75378
H	408.453	-3.45727	0.739962
H	409.203	-3.26003	-0.892754
H	407.985	-2.05536	-0.300893
N	410.448	-0.964478	-0.156794
C	411.484	-0.0777319	0.3119
C	411.363	1.23195	-0.444217
O	410.599	1.33836	-1.40145
H	410.105	-0.777944	-1.07283
H	411.321	0.13891	1.36034
C	412.881	-0.699662	0.0978935
H	413.053	-0.91238	-0.978847
H	413.687	-0.0323323	0.467465
H	412.944	-1.6607	0.65357
N	412.114	2.26852	-0.0232918
C	412.062	3.55505	-0.677703
H	412.724	2.16425	0.755668
H	412.751	4.27548	-0.184758
H	411.03	3.974	-0.638118
H	412.357	3.46385	-1.7482
