44
  This energy is 0 and Call times are: 13136
C	-3.24616	1.25431	-0.0428546
C	-1.88743	1.17461	0.539067
O	-1.51665	1.96894	1.39227
H	-3.78788	2.11526	0.405662
H	-3.81028	0.322744	0.173242
H	-3.1838	1.40197	-1.14167
N	-1.1017	0.197637	0.0802187
C	0.259988	0.0195379	0.519132
C	1.0404	-0.626037	-0.610358
O	0.46521	-1.05298	-1.60965
H	-1.40355	-0.41585	-0.643929
H	0.704885	0.989024	0.705666
C	0.320069	-0.857289	1.78909
H	-0.126707	-1.85571	1.59525
H	1.36226	-0.990379	2.14497
H	-0.264122	-0.369578	2.59978
N	2.37937	-0.704793	-0.480043
C	3.20512	-1.2977	-1.50609
H	2.82708	-0.350056	0.334076
H	4.27786	-1.26787	-1.21359
H	3.08907	-0.749619	-2.46911
H	2.91746	-2.36036	-1.67683
C	608.503	0.998509	-3.29683
C	609.318	0.364997	-2.23569
O	610.323	-0.277969	-2.50778
H	608.949	0.767925	-4.28889
H	608.484	2.1	-3.15859
H	607.465	0.604821	-3.26874
N	608.894	0.534128	-0.981163
C	609.557	-0.0576049	0.153919
C	608.523	-0.286857	1.23969
O	607.385	0.166844	1.13158
H	608.052	1.02566	-0.778631
H	609.95	-1.02678	-0.127162
C	610.69	0.857012	0.669563
H	610.286	1.84784	0.967953
H	611.217	0.406069	1.53495
H	611.431	1.01751	-0.143697
N	608.894	-1.00901	2.31502
C	607.976	-1.28309	3.39565
H	609.818	-1.37126	2.3826
H	608.469	-1.89108	4.18597
H	607.089	-1.84468	3.02398
H	607.616	-0.334468	3.85599
