44
  This energy is 0 and Call times are: 14200
C	-0.4594	2.71945	-2.12279
C	-0.258595	2.13576	-0.77738
O	-0.00121155	2.84259	0.187276
H	-0.319825	3.82108	-2.06979
H	-1.4871	2.50436	-2.48377
H	0.278878	2.29763	-2.83701
N	-0.371755	0.808846	-0.683232
C	-0.161437	0.0927617	0.550279
C	0.330598	-1.30136	0.209875
O	0.330231	-1.70309	-0.952163
H	-0.541194	0.243034	-1.48511
H	0.620708	0.581205	1.118
C	-1.46498	0.0204651	1.37538
H	-2.26466	-0.489933	0.797406
H	-1.3127	-0.51656	2.33399
H	-1.81091	1.05169	1.60616
N	0.772635	-2.07301	1.22239
C	1.26473	-3.41152	0.993513
H	0.768992	-1.72889	2.15548
H	1.58184	-3.88282	1.94983
H	2.13939	-3.39582	0.303588
H	0.474021	-4.0478	0.534087
C	686.079	-2.95017	-1.49847
C	686.172	-1.91298	-0.44648
O	686.876	-2.07411	0.540598
H	686.708	-3.82103	-1.21245
H	686.442	-2.54682	-2.46689
H	685.027	-3.28799	-1.61055
N	685.449	-0.807332	-0.637355
C	685.403	0.270907	0.318623
C	684.059	0.96273	0.187816
O	683.296	0.687178	-0.736172
H	684.848	-0.708168	-1.42583
H	685.46	-0.137011	1.32013
C	686.554	1.27228	0.0758234
H	686.49	1.69897	-0.94785
H	686.538	2.09993	0.814241
H	687.527	0.742653	0.168632
N	683.734	1.87791	1.12184
C	682.474	2.58316	1.08214
H	684.362	2.08436	1.86426
H	682.393	3.29215	1.93538
H	681.621	1.868	1.13873
H	682.377	3.1616	0.134959
