44
  This energy is -2.8317 and Call times are: 24107
C	0.513687	2.05697	-2.76002
C	0.707079	0.784328	-2.02917
O	1.19367	-0.19392	-2.57933
H	0.854146	1.93238	-3.81095
H	1.10667	2.86578	-2.28364
H	-0.560574	2.33813	-2.76124
N	0.321037	0.769298	-0.751236
C	0.406331	-0.408071	0.0764638
C	-0.685846	-0.328264	1.12639
O	-1.34746	0.698048	1.27014
H	-0.111066	1.56106	-0.329029
H	0.209292	-1.2847	-0.527965
C	1.79426	-0.512543	0.745783
H	1.99248	0.381672	1.37437
H	1.87721	-1.42242	1.37489
H	2.57838	-0.561673	-0.0410382
N	-0.906306	-1.42099	1.88361
C	-1.92834	-1.43987	2.90403
H	-0.363433	-2.24344	1.74969
H	-1.95443	-2.42686	3.41628
H	-2.93167	-1.24956	2.4586
H	-1.7351	-0.65285	3.66849
C	5.80872	-3.42039	0.588878
C	5.36114	-2.0623	0.971562
O	4.58092	-1.89053	1.89793
H	5.31584	-4.16858	1.247
H	6.90928	-3.50794	0.706495
H	5.53189	-3.63159	-0.465557
N	5.85262	-1.05076	0.252102
C	5.47679	0.322746	0.47744
C	5.60134	1.06903	-0.83752
O	6.12366	0.538253	-1.81587
H	6.45485	-1.20958	-0.525044
H	4.43631	0.364249	0.774588
C	6.37394	0.970572	1.55479
H	7.44042	0.937698	1.24563
H	6.08553	2.02427	1.7473
H	6.27298	0.403562	2.50592
N	5.11303	2.32382	-0.893026
C	5.182	3.10891	-2.10342
H	4.69025	2.73475	-0.0921155
H	4.72751	4.11214	-1.94787
H	4.63668	2.60179	-2.93212
H	6.24051	3.24877	-2.42142
