44
  This energy is 0.101 and Call times are: 27541
C	3.30615	-0.564289	-0.929336
C	2.281	0.127509	-0.115922
O	2.5948	0.820806	0.841825
H	4.31323	-0.351878	-0.509157
H	3.27074	-0.202222	-1.97833
H	3.13314	-1.66102	-0.911016
N	1.01054	-0.0511086	-0.485226
C	-0.0996945	0.522338	0.233875
C	-1.30412	-0.379963	0.0421496
O	-1.27313	-1.3093	-0.762271
H	0.76833	-0.651308	-1.24217
H	0.128575	0.535074	1.29235
C	-0.40624	1.94927	-0.271237
H	-0.650793	1.93536	-1.35477
H	-1.25039	2.40692	0.284175
H	0.491333	2.58984	-0.128488
N	-2.39786	-0.129929	0.788643
C	-3.58931	-0.938945	0.678517
H	-2.40244	0.624074	1.43713
H	-4.37747	-0.574955	1.37388
H	-3.36659	-2.00197	0.926796
H	-3.99352	-0.904142	-0.359047
C	4.41113	-2.81069	0.605591
C	3.78632	-1.54	1.03699
O	3.77199	-1.20948	2.21469
H	4.80395	-3.34774	1.49617
H	5.25153	-2.60684	-0.0907751
H	3.66032	-3.45407	0.100199
N	3.24488	-0.788479	0.0755091
C	2.56357	0.453115	0.345345
C	1.51901	0.663824	-0.734502
O	1.47919	-0.0659922	-1.72318
H	3.22828	-1.09039	-0.873401
H	2.03983	0.37523	1.28994
C	3.55885	1.63373	0.373681
H	4.0888	1.72057	-0.598767
H	3.04832	2.59352	0.594291
H	4.3185	1.4544	1.16559
N	0.637993	1.66928	-0.564535
C	-0.394692	1.94187	-1.53687
H	0.68359	2.2465	0.24405
H	-1.01748	2.80629	-1.21726
H	-1.06046	1.05724	-1.66124
H	0.052577	2.17955	-2.52914
