44
  This energy is 0.1388 and Call times are: 29016
C	-1.43688	-0.779168	-3.07261
C	-1.27985	0.101493	-1.89324
O	-1.75798	1.22732	-1.87579
H	-2.00718	-0.240208	-3.86012
H	-1.9924	-1.69872	-2.79233
H	-0.441104	-1.05801	-3.47729
N	-0.591945	-0.400574	-0.86509
C	-0.319355	0.352026	0.334012
C	0.978563	-0.160441	0.929278
O	1.51847	-1.17225	0.486048
H	-0.173885	-1.30338	-0.910211
H	-0.167114	1.3926	0.0758083
C	-1.47428	0.20937	1.34941
H	-1.62396	-0.856917	1.62266
H	-1.2826	0.795513	2.27148
H	-2.41531	0.582938	0.889763
N	1.51668	0.536442	1.94948
C	2.75256	0.127632	2.57532
H	1.06722	1.35497	2.29164
H	3.03003	0.828809	3.39298
H	3.58226	0.110185	1.83197
H	2.65487	-0.894449	3.00769
C	6.8893	0.736291	-1.1828
C	5.60111	0.0125803	-1.27212
O	5.29996	-0.622502	-2.27332
H	7.45147	0.604115	-2.13272
H	7.4976	0.332999	-0.346094
H	6.70899	1.81979	-1.01971
N	4.79837	0.0963467	-0.208653
C	3.49501	-0.518304	-0.163753
C	2.61889	0.298114	0.767616
O	3.09821	1.19622	1.45708
H	5.03956	0.650757	0.582747
H	3.04612	-0.476245	-1.14831
C	3.59092	-1.97996	0.325728
H	4.04171	-2.02284	1.34012
H	2.59536	-2.46856	0.351459
H	4.24301	-2.55662	-0.366072
N	1.30335	0.00808151	0.802843
C	0.391512	0.735391	1.65475
H	0.933434	-0.719452	0.234571
H	-0.645391	0.349081	1.54147
H	0.391985	1.81906	1.39602
H	0.68822	0.635606	2.72393
