44
  This energy is 0.1125 and Call times are: 29968
C	-2.70477	-1.38541	-1.69633
C	-1.6795	-0.332896	-1.51695
O	-1.47741	0.507939	-2.38215
H	-3.18377	-1.2656	-2.69237
H	-3.48391	-1.29867	-0.910102
H	-2.23526	-2.39024	-1.64191
N	-0.996841	-0.35876	-0.369917
C	0.0611498	0.57348	-0.0696782
C	1.03918	-0.107382	0.869167
O	0.77474	-1.19807	1.37134
H	-1.14439	-1.07402	0.30721
H	0.598526	0.809182	-0.97979
C	-0.502547	1.85886	0.574747
H	-1.04492	1.61878	1.51402
H	0.300903	2.59041	0.797972
H	-1.22165	2.33598	-0.126393
N	2.20384	0.5215	1.12235
C	3.19795	-0.052663	1.99886
H	2.40155	1.40154	0.703405
H	4.08422	0.614682	2.07887
H	3.53737	-1.04137	1.61348
H	2.78029	-0.205185	3.02035
C	7.09667	0.968047	0.554653
C	5.9299	0.0992316	0.828474
O	6.041	-0.916452	1.50112
H	8.00111	0.528597	1.0287
H	6.92654	1.98123	0.975679
H	7.2668	1.04658	-0.53986
N	4.76564	0.485606	0.301599
C	3.55162	-0.278667	0.445113
C	2.67529	-0.00570401	-0.762824
O	2.96821	0.877226	-1.56677
H	4.69928	1.29291	-0.277806
H	3.79131	-1.33466	0.437717
C	2.81216	0.0997231	1.74714
H	2.55671	1.18082	1.75056
H	1.88271	-0.491906	1.87605
H	3.47493	-0.10077	2.61713
N	1.57627	-0.768873	-0.923271
C	0.685888	-0.585422	-2.04565
H	1.35809	-1.48111	-0.264346
H	-0.158236	-1.30835	-2.00025
H	1.2282	-0.73978	-3.00656
H	0.264706	0.445955	-2.04876
