44
  This energy is 0.1059 and Call times are: 25721
C	3.36051	-0.875663	-0.22994
C	1.94187	-1.03787	-0.620191
O	1.62414	-1.72677	-1.57981
H	4.00338	-1.44204	-0.938329
H	3.52268	-1.26892	0.795629
H	3.64653	0.19678	-0.263889
N	1.04323	-0.393225	0.127638
C	-0.370482	-0.420157	-0.1539
C	-0.979198	0.87212	0.35702
O	-0.320482	1.64985	1.04472
H	1.32029	0.196658	0.880725
H	-0.520792	-0.445775	-1.22599
C	-1.04342	-1.63789	0.516561
H	-0.898533	-1.60652	1.6175
H	-2.12979	-1.6775	0.295764
H	-0.576965	-2.57185	0.133823
N	-2.25776	1.13602	0.02287
C	-2.91908	2.34386	0.458746
H	-2.77323	0.496483	-0.537804
H	-3.96492	2.37763	0.0815348
H	-2.38137	3.24394	0.0819342
H	-2.94544	2.39799	1.57118
C	8.00899	1.49565	-1.18893
C	7.24983	0.316753	-0.714562
O	7.70089	-0.814557	-0.828978
H	8.96703	1.1581	-1.64068
H	8.23187	2.17458	-0.33915
H	7.42343	2.04438	-1.95645
N	6.05823	0.560464	-0.164022
C	5.18565	-0.487116	0.304723
C	3.75446	0.00310944	0.190853
O	3.51065	1.17587	-0.086429
H	5.68678	1.48322	-0.11507
H	5.28355	-1.34984	-0.342385
C	5.51365	-0.865902	1.76561
H	5.40313	0.0163442	2.43154
H	4.85762	-1.68121	2.13361
H	6.56786	-1.21411	1.82661
N	2.76859	-0.892514	0.395602
C	1.37653	-0.518693	0.302953
H	2.98568	-1.83794	0.614956
H	0.720092	-1.39388	0.503899
H	1.14101	-0.130215	-0.714348
H	1.13372	0.27895	1.04184
