44
  This energy is -2.6242 and Call times are: 25685
C	-0.332238	3.40603	0.633442
C	-0.90586	2.05883	0.416306
O	-2.08768	1.83125	0.635205
H	-1.12456	4.08519	1.01666
H	0.0593527	3.81381	-0.322129
H	0.489764	3.35644	1.37839
N	-0.0653533	1.11998	-0.024703
C	-0.466569	-0.247671	-0.241757
C	0.746815	-1.13483	-0.0363112
O	1.86726	-0.647535	0.100997
H	0.902921	1.31031	-0.159195
H	-1.20051	-0.52725	0.503759
C	-1.04009	-0.435363	-1.6634
H	-0.283942	-0.158708	-2.42873
H	-1.36547	-1.48138	-1.83808
H	-1.92203	0.229078	-1.79403
N	0.548537	-2.46732	-0.00197354
C	1.64268	-3.38953	0.194363
H	-0.366009	-2.84258	-0.110867
H	1.27682	-4.43994	0.192411
H	2.14911	-3.19662	1.16781
H	2.39925	-3.28005	-0.616048
C	8.21026	-1.0699	-2.3232
C	7.55396	-0.00917547	-1.52615
O	8.02922	1.11585	-1.45645
H	9.14019	-0.665054	-2.77836
H	7.53362	-1.41364	-3.13361
H	8.47376	-1.93005	-1.67221
N	6.4285	-0.351658	-0.894935
C	5.70037	0.559326	-0.0473027
C	4.97345	-0.254107	1.00697
O	4.93147	-1.48095	0.937697
H	6.07613	-1.28257	-0.928105
H	6.40067	1.20412	0.468879
C	4.69812	1.39756	-0.870779
H	3.97293	0.737001	-1.39213
H	4.14105	2.11269	-0.231416
H	5.25114	1.97829	-1.64102
N	4.38739	0.415289	2.01912
C	3.67786	-0.274763	3.07106
H	4.43566	1.40779	2.06017
H	3.26785	0.449147	3.80936
H	4.35664	-0.976381	3.60796
H	2.83156	-0.865893	2.65214
