44
  This energy is -1.5638 and Call times are: 25902
C	-1.27412	-2.47469	2.08931
C	-1.43123	-1.24881	1.27465
O	-2.53869	-0.79769	1.01692
H	-2.27834	-2.86209	2.3674
H	-0.706983	-2.24796	3.0165
H	-0.736571	-3.25377	1.50863
N	-0.305806	-0.675131	0.842568
C	-0.299213	0.497922	0.00443653
C	0.957083	0.464981	-0.845381
O	1.83813	-0.3664	-0.634975
H	0.586686	-1.07712	1.02622
H	-1.14578	0.460029	-0.669743
C	-0.342818	1.78515	0.856716
H	0.531085	1.82964	1.54108
H	-0.352157	2.69518	0.222463
H	-1.26621	1.78407	1.47615
N	1.06463	1.37037	-1.83772
C	2.22165	1.41148	-2.70131
H	0.339416	2.03246	-1.9951
H	2.12209	2.22461	-3.45373
H	2.3419	0.445434	-3.24313
H	3.14778	1.59283	-2.10925
C	6.22114	3.27524	0.835796
C	5.91983	1.98017	0.185272
O	4.80076	1.73145	-0.241607
H	5.29893	3.8954	0.864052
H	7.00214	3.81848	0.263379
H	6.57395	3.10834	1.87538
N	6.92975	1.11152	0.096437
C	6.77963	-0.205092	-0.4715
C	7.79344	-1.1223	0.186152
O	8.66713	-0.669665	0.923372
H	7.82437	1.3124	0.485217
H	5.79534	-0.587509	-0.231607
C	6.99031	-0.17339	-2.00116
H	8.00382	0.208941	-2.24747
H	6.86366	-1.17893	-2.45213
H	6.24296	0.509859	-2.46047
N	7.69416	-2.44334	-0.0608273
C	8.61116	-3.39292	0.52534
H	6.97795	-2.79104	-0.656834
H	8.36498	-4.42836	0.202099
H	8.56139	-3.35183	1.6376
H	9.65839	-3.16913	0.218128
