44
  This energy is 0 and Call times are: 9636
C	0.254915	2.76428	-2.09915
C	-0.237297	2.1022	-0.870122
O	-0.758399	2.74578	0.0302513
H	0.0817574	3.85962	-2.0208
H	-0.288752	2.37706	-2.98641
H	1.34298	2.58045	-2.22333
N	-0.0776558	0.778344	-0.804605
C	-0.467171	0.000796039	0.345289
C	0.433092	-1.21807	0.419069
O	1.20006	-1.49123	-0.502265
H	0.38532	0.273809	-1.52777
H	-0.297844	0.581712	1.24334
C	-1.94842	-0.425246	0.247142
H	-2.12047	-1.03014	-0.668577
H	-2.26429	-1.0129	1.13338
H	-2.58804	0.482231	0.186212
N	0.365704	-1.9789	1.5293
C	1.18849	-3.15496	1.6908
H	-0.258142	-1.73944	2.26588
H	0.987685	-3.64404	2.66943
H	2.26912	-2.88721	1.64801
H	0.983241	-3.89243	0.881384
C	361.84	-0.514058	-1.94553
C	360.658	0.284617	-1.55055
O	360.508	1.43199	-1.94734
H	362.498	0.10152	-2.59621
H	361.521	-1.41677	-2.50796
H	362.411	-0.822559	-1.04494
N	359.779	-0.315028	-0.744018
C	358.602	0.348475	-0.240217
C	358.248	-0.269231	1.09937
O	358.822	-1.28091	1.49788
H	359.935	-1.23514	-0.396528
H	358.829	1.39265	-0.0641312
C	357.424	0.209155	-1.22923
H	357.184	-0.861706	-1.40208
H	356.516	0.727747	-0.859023
H	357.709	0.660693	-2.20471
N	357.293	0.334826	1.83343
C	356.893	-0.177978	3.12322
H	356.843	1.15493	1.49597
H	356.096	0.456789	3.56904
H	357.759	-0.196595	3.82393
H	356.503	-1.21714	3.02928
