44
  This energy is 0 and Call times are: 9804
C	2.89564	0.994522	1.65496
C	1.47113	1.17772	1.29671
O	0.77479	2.0027	1.87197
H	3.15708	1.68503	2.48606
H	3.54225	1.22229	0.781603
H	3.0758	-0.0501481	1.98556
N	0.999026	0.396529	0.322414
C	-0.376918	0.428935	-0.106873
C	-0.739043	-0.945087	-0.638367
O	0.124711	-1.80453	-0.802673
H	1.56734	-0.298717	-0.108304
H	-1.01329	0.622242	0.7477
C	-0.590148	1.50392	-1.19507
H	0.0547492	1.30015	-2.07633
H	-1.64861	1.5482	-1.52403
H	-0.311437	2.49986	-0.786699
N	-2.0359	-1.18741	-0.913099
C	-2.47532	-2.46752	-1.41747
H	-2.72082	-0.480722	-0.769772
H	-3.57565	-2.46939	-1.58026
H	-2.22625	-3.28006	-0.697032
H	-1.97695	-2.70038	-2.38626
C	372.566	-1.68723	-2.61004
C	372.545	-0.646397	-1.55772
O	373.562	-0.0413598	-1.24547
H	373.603	-1.79761	-2.99682
H	371.899	-1.39724	-3.4485
H	372.233	-2.66061	-2.1922
N	371.366	-0.413483	-0.97683
C	371.197	0.538683	0.092409
C	370.037	0.0791645	0.955733
O	369.319	-0.853654	0.601109
H	370.556	-0.942771	-1.21319
H	372.083	0.537749	0.715166
C	370.929	1.95347	-0.466014
H	370.014	1.95722	-1.09643
H	370.811	2.69832	0.34744
H	371.787	2.26593	-1.1009
N	369.832	0.72312	2.12159
C	368.756	0.351934	3.01097
H	370.426	1.47286	2.3933
H	368.753	0.998339	3.91617
H	368.864	-0.707794	3.33741
H	367.771	0.457429	2.50163
