44
  This energy is 0 and Call times are: 14676
C	-2.96389	-0.646253	1.70599
C	-2.14339	-0.643367	0.473953
O	-2.51523	-1.22562	-0.535561
H	-3.88348	-1.24664	1.53345
H	-3.25669	0.390855	1.97323
H	-2.39279	-1.09673	2.54505
N	-0.987687	0.0224694	0.532173
C	-0.0625421	0.0789657	-0.572125
C	1.336	0.248818	-0.00928156
O	1.51026	0.478163	1.18602
H	-0.679523	0.456999	1.37365
H	-0.0837112	-0.863793	-1.10447
C	-0.408967	1.24568	-1.52292
H	-0.377077	2.21416	-0.97972
H	0.287921	1.29132	-2.38477
H	-1.4393	1.10481	-1.91651
N	2.37212	0.130861	-0.862844
C	3.73868	0.271375	-0.416817
H	2.21127	-0.0589673	-1.82574
H	4.44498	0.140251	-1.26603
H	3.97878	-0.490743	0.359588
H	3.90587	1.27988	0.0260308
C	719.749	2.34252	2.46248
C	719.117	1.95532	1.18142
O	718.33	2.69986	0.613689
H	719.375	3.34324	2.76933
H	720.852	2.39206	2.34509
H	719.495	1.60558	3.25313
N	719.452	0.759325	0.691773
C	718.886	0.226527	-0.522743
C	718.89	-1.2872	-0.421796
O	719.473	-1.85556	0.49975
H	720.063	0.147364	1.18608
H	717.854	0.541945	-0.604439
C	719.693	0.688853	-1.75596
H	720.75	0.35644	-1.67764
H	719.259	0.296453	-2.69857
H	719.684	1.79962	-1.80532
N	718.227	-1.97864	-1.36987
C	718.171	-3.42181	-1.35268
H	717.759	-1.50085	-2.1054
H	717.58	-3.80275	-2.21444
H	717.695	-3.78527	-0.413177
H	719.196	-3.85559	-1.4109
