44
  This energy is 0.1092 and Call times are: 28387
C	2.73397	2.10379	0.460626
C	2.11272	0.873399	-0.0791296
O	2.70165	0.169171	-0.887606
H	3.73752	2.24007	0.00215911
H	2.84999	2.02254	1.56184
H	2.10578	2.98715	0.219502
N	0.886385	0.584824	0.362688
C	0.136673	-0.555108	-0.103197
C	-1.34029	-0.224708	0.00147592
O	-1.71851	0.794277	0.576228
H	0.403665	1.1896	0.989663
H	0.356163	-0.72337	-1.15017
C	0.470544	-1.81256	0.729027
H	0.235665	-1.64412	1.80164
H	-0.090109	-2.70031	0.371131
H	1.55751	-2.03086	0.644179
N	-2.21415	-1.08107	-0.563365
C	-3.63863	-0.846402	-0.518763
H	-1.88877	-1.89818	-1.02761
H	-4.18802	-1.66208	-1.03844
H	-3.89342	0.118582	-1.0139
H	-3.99629	-0.798609	0.535245
C	7.00785	-1.73089	1.22925
C	6.06765	-0.587934	1.25824
O	6.05131	0.19457	2.19836
H	7.61554	-1.73028	2.16014
H	7.68807	-1.64482	0.355953
H	6.44628	-2.68686	1.16732
N	5.24847	-0.466647	0.211048
C	4.25008	0.569128	0.116477
C	3.10561	0.0468991	-0.731484
O	3.206	-1.01792	-1.33794
H	5.24559	-1.13502	-0.52728
H	3.85327	0.773943	1.103
C	4.8434	1.85213	-0.505709
H	5.24113	1.64489	-1.52203
H	4.08793	2.66177	-0.57117
H	5.68409	2.2119	0.126866
N	1.98022	0.786147	-0.786534
C	0.837257	0.366242	-1.56338
H	1.91641	1.64295	-0.285642
H	0.0119079	1.10733	-1.48081
H	0.460245	-0.619433	-1.20618
H	1.10947	0.262653	-2.63869
