44
  This energy is -4.0221 and Call times are: 23333
C	-1.71198	-1.88173	-2.37506
C	-0.985417	-0.662303	-1.95525
O	-0.631211	0.17633	-2.77234
H	-1.83307	-1.87499	-3.48012
H	-2.71681	-1.9099	-1.9036
H	-1.14072	-2.78764	-2.08167
N	-0.741805	-0.536914	-0.648605
C	-0.00779966	0.573196	-0.094122
C	0.68179	0.0993973	1.1714
O	0.432671	-1.00619	1.6482
H	-1.00037	-1.24771	-0.00070024
H	0.765747	0.873237	-0.789989
C	-0.949027	1.75843	0.213385
H	-1.73652	1.45402	0.935346
H	-0.393612	2.62455	0.627959
H	-1.44871	2.08336	-0.725272
N	1.5775	0.928137	1.74316
C	2.28691	0.56042	2.94637
H	1.76871	1.81708	1.3403
H	2.97805	1.37374	3.25952
H	2.88583	-0.364553	2.78206
H	1.57333	0.366199	3.77957
C	8.02167	1.87019	2.12791
C	7.47601	1.56023	0.78726
O	7.64624	2.31964	-0.15652
H	8.54639	2.84965	2.09341
H	8.7442	1.08612	2.43765
H	7.19914	1.92916	2.87157
N	6.7942	0.418036	0.673596
C	6.16749	0.00178375	-0.556253
C	4.96839	-0.859882	-0.208038
O	4.77269	-1.22908	0.948294
H	6.62911	-0.169728	1.46045
H	5.79683	0.873407	-1.08114
C	7.15917	-0.783121	-1.44267
H	7.53167	-1.68315	-0.908595
H	6.69252	-1.09723	-2.39875
H	8.03215	-0.136067	-1.6784
N	4.12805	-1.19497	-1.20682
C	2.95762	-2.0073	-0.969397
H	4.3009	-0.883273	-2.13528
H	2.39516	-2.17242	-1.91471
H	2.27753	-1.51228	-0.238841
H	3.24589	-3.0003	-0.554666
