44
  This energy is -4.5475 and Call times are: 25176
C	-2.44925	-2.03934	1.3982
C	-1.06754	-1.51091	1.34543
O	-0.272817	-1.72541	2.25032
H	-2.59315	-2.59697	2.3491
H	-2.62803	-2.72894	0.5466
H	-3.18013	-1.20434	1.35714
N	-0.747228	-0.793883	0.265779
C	0.545031	-0.178681	0.0921335
C	0.369063	1.05525	-0.772743
O	-0.702499	1.28649	-1.32952
H	-1.41739	-0.593426	-0.443142
H	0.915431	0.152052	1.05445
C	1.54039	-1.16141	-0.56265
H	1.16587	-1.49285	-1.55458
H	2.54305	-0.704012	-0.689056
H	1.64756	-2.06005	0.08335
N	1.4227	1.88589	-0.898826
C	1.34684	3.0873	-1.69699
H	2.28022	1.684	-0.437328
H	2.31431	3.63569	-1.67515
H	0.550979	3.76516	-1.31178
H	1.10719	2.8407	-2.75666
C	5.45665	0.956425	-3.33748
C	6.18502	0.330794	-2.21089
O	7.20048	-0.324655	-2.39969
H	5.97159	0.708065	-4.2909
H	5.4384	2.05987	-3.21573
H	4.41569	0.572229	-3.38062
N	5.67145	0.521208	-0.99336
C	6.24379	-0.0602919	0.19527
C	5.13016	-0.265258	1.20491
O	4.00802	0.196776	1.00731
H	4.8215	1.02285	-0.859949
H	6.64676	-1.03671	-0.0431644
C	7.3443	0.851568	0.780619
H	6.92905	1.84997	1.0352
H	7.80239	0.408237	1.68844
H	8.14465	0.994175	0.0220402
N	5.41481	-0.97546	2.31424
C	4.41696	-1.22633	3.32791
H	6.32752	-1.34476	2.45446
H	4.84456	-1.82744	4.16042
H	3.5537	-1.78532	2.89945
H	4.03371	-0.268243	3.74782
