44
  This energy is 0.1242 and Call times are: 24453
C	-0.80235	1.87039	2.82322
C	0.160972	1.11548	1.9906
O	1.36181	1.15273	2.22083
H	-0.24905	2.4327	3.60651
H	-1.51192	1.17252	3.31538
H	-1.36817	2.59089	2.19566
N	-0.353906	0.40331	0.985561
C	0.460682	-0.348167	0.0634502
C	-0.271258	-0.420859	-1.2634
O	-1.43414	-0.0342648	-1.36317
H	-1.32949	0.415589	0.785665
H	1.38839	0.183234	-0.108606
C	0.741667	-1.76687	0.605281
H	-0.209376	-2.31619	0.771995
H	1.37958	-2.3508	-0.0894157
H	1.27056	-1.68927	1.58027
N	0.400949	-0.914102	-2.32212
C	-0.212167	-1.01641	-3.62588
H	1.34263	-1.21808	-2.22264
H	0.501331	-1.4456	-4.3634
H	-0.531037	-0.0128435	-3.98982
H	-1.11245	-1.67146	-3.58654
C	1.39992	-0.698128	0.254572
C	2.52381	0.183092	-0.134627
O	2.34001	1.17558	-0.825713
H	0.457739	-0.309541	-0.18945
H	1.29468	-0.718675	1.35967
H	1.57484	-1.72906	-0.11912
N	3.7338	-0.168273	0.306803
C	4.92953	0.565756	-0.0248155
C	6.09844	-0.401143	-0.00652135
O	5.96122	-1.54715	0.417208
H	3.87337	-1.00146	0.83423
H	4.84455	0.950048	-1.03364
C	5.16461	1.71846	0.975808
H	5.26237	1.32376	2.00958
H	6.07491	2.29984	0.723082
H	4.29352	2.40908	0.951304
N	7.28178	0.0394459	-0.477272
C	8.44861	-0.811393	-0.504323
H	7.37217	0.968752	-0.819755
H	9.3222	-0.267531	-0.926574
H	8.26202	-1.71418	-1.12998
H	8.71072	-1.15187	0.523549
