44
  This energy is 0 and Call times are: 9580
C	-0.85133	1.05892	3.20415
C	0.120439	0.525945	2.22296
O	1.31307	0.457576	2.48633
H	-0.311225	1.36755	4.12552
H	-1.59563	0.278534	3.46826
H	-1.37589	1.94205	2.78224
N	-0.377451	0.132149	1.04848
C	0.448939	-0.36804	-0.0217786
C	-0.237875	-0.0518294	-1.33702
O	-1.38608	0.387361	-1.35827
H	-1.3448	0.232097	0.833757
H	1.39565	0.157661	-0.0176861
C	0.673701	-1.88946	0.119646
H	-0.296601	-2.43014	0.104907
H	1.32002	-2.28424	-0.690874
H	1.17008	-2.09825	1.09246
N	0.457781	-0.261601	-2.47196
C	-0.111902	0.0157339	-3.76993
H	1.38716	-0.613602	-2.43429
H	0.615464	-0.221199	-4.57741
H	-0.391561	1.09086	-3.85454
H	-1.0298	-0.59374	-3.93466
C	354.7	-2.34299	-2.55599
C	355.325	-1.14388	-1.9541
O	356.347	-0.660953	-2.42141
H	355.311	-2.68091	-3.42096
H	353.676	-2.10294	-2.91143
H	354.649	-3.16352	-1.80952
N	354.715	-0.630421	-0.883458
C	355.228	0.508786	-0.163802
C	354.78	0.395617	1.28146
O	353.967	-0.460172	1.62375
H	353.906	-1.0589	-0.49018
H	356.31	0.477601	-0.169932
C	354.72	1.82824	-0.785836
H	353.61	1.86535	-0.7702
H	355.119	2.71317	-0.248996
H	355.052	1.88596	-1.84542
N	355.313	1.25782	2.16997
C	354.951	1.22187	3.56787
H	355.973	1.94065	1.87472
H	355.495	2.00899	4.13515
H	355.202	0.23202	4.01324
H	353.857	1.39014	3.69537
