44
  This energy is 0 and Call times are: 14172
C	1.05909	2.81524	-1.75084
C	-0.00434278	1.96953	-1.16345
O	-1.15583	2.3724	-1.07293
H	0.628272	3.79802	-2.0414
H	1.48134	2.32678	-2.65408
H	1.86826	2.98278	-1.00904
N	0.365793	0.757916	-0.742293
C	-0.547042	-0.161605	-0.110015
C	0.248698	-1.04553	0.83181
O	1.47794	-1.01964	0.831981
H	1.31508	0.459796	-0.785287
H	-1.25538	0.394802	0.491065
C	-1.28483	-1.01787	-1.16249
H	-0.559142	-1.59696	-1.77247
H	-2.00085	-1.72036	-0.688831
H	-1.85387	-0.350002	-1.8455
N	-0.43964	-1.84773	1.66769
C	0.232248	-2.71953	2.60295
H	-1.43408	-1.85169	1.65565
H	-0.505759	-3.2978	3.20142
H	0.866541	-2.12969	3.30368
H	0.889985	-3.4404	2.06548
C	685.054	-1.82563	2.13541
C	684.747	-1.23214	0.814683
O	685.591	-1.18112	-0.0685736
H	686.114	-2.16009	2.14989
H	684.398	-2.7016	2.32342
H	684.904	-1.07269	2.93764
N	683.509	-0.760427	0.649825
C	683.074	-0.116179	-0.564397
C	681.98	0.873478	-0.209171
O	681.497	0.899627	0.921283
H	682.844	-0.772081	1.39183
H	683.897	0.449223	-0.983366
C	682.555	-1.15363	-1.58404
H	681.704	-1.72675	-1.15857
H	682.23	-0.671222	-2.5286
H	683.369	-1.87209	-1.82326
N	681.568	1.72192	-1.17158
C	680.536	2.70187	-0.92415
H	681.973	1.68827	-2.07904
H	680.338	3.30412	-1.83817
H	680.841	3.39504	-0.106795
H	679.587	2.20473	-0.619451
