44
  This energy is -6.3822 and Call times are: 23509
C	1.22686	2.79764	-1.66754
C	0.478885	1.52056	-1.6405
O	-0.209729	1.1701	-2.58887
H	1.02875	3.31903	-2.6292
H	2.31684	2.60467	-1.58127
H	0.899884	3.45042	-0.830849
N	0.598473	0.786134	-0.532036
C	-0.102625	-0.459052	-0.340901
C	-0.330293	-0.650135	1.14679
O	0.201482	0.0964219	1.96629
H	1.13003	1.10415	0.247826
H	-1.07623	-0.396606	-0.810817
C	0.70411	-1.64116	-0.921452
H	1.69894	-1.71211	-0.432258
H	0.168384	-2.60396	-0.79283
H	0.86565	-1.47622	-2.00913
N	-1.13888	-1.65728	1.53131
C	-1.41838	-1.91208	2.92528
H	-1.56333	-2.24821	0.853281
H	-2.10374	-2.78107	3.0365
H	-1.898	-1.02467	3.3983
H	-0.478275	-2.1334	3.48058
C	4.17388	1.86396	2.78939
C	3.99301	1.45051	1.3796
O	2.98507	1.75253	0.755704
H	3.27817	2.43133	3.12354
H	5.06815	2.51494	2.88557
H	4.2958	0.970597	3.43754
N	4.98265	0.735722	0.839154
C	4.93167	0.225406	-0.508264
C	5.76641	-1.04005	-0.566654
O	6.47272	-1.37298	0.383074
H	5.77843	0.462879	1.37222
H	3.91201	-0.049431	-0.747815
C	5.46151	1.27048	-1.51442
H	6.51107	1.54493	-1.27539
H	5.41448	0.894583	-2.55702
H	4.8409	2.19073	-1.44871
N	5.69718	-1.78356	-1.68845
C	6.45182	-3.00666	-1.8324
H	5.11685	-1.49996	-2.44466
H	6.26044	-3.47241	-2.8242
H	6.16882	-3.73823	-1.0412
H	7.54428	-2.80726	-1.74339
