44
  This energy is 0.1225 and Call times are: 26860
C	2.98274	-1.47843	-1.01498
C	1.96367	-1.17324	0.0143362
O	1.97192	-1.73696	1.09995
H	3.67009	-2.26283	-0.630076
H	3.57273	-0.568009	-1.25116
H	2.49329	-1.85157	-1.93926
N	1.04644	-0.25943	-0.311286
C	-0.0333065	0.111375	0.569175
C	-1.20591	0.559121	-0.282926
O	-1.07883	0.718272	-1.49546
H	1.02852	0.160881	-1.214
H	-0.354095	-0.759314	1.12741
C	0.400735	1.24056	1.52927
H	0.71994	2.13774	0.957239
H	-0.417734	1.52548	2.2217
H	1.26481	0.893641	2.13702
N	-2.38533	0.765691	0.335407
C	-3.55792	1.18763	-0.394778
H	-2.46957	0.627708	1.3167
H	-4.42713	1.30268	0.289661
H	-3.82402	0.439774	-1.17656
H	-3.37666	2.16443	-0.898907
C	3.92905	3.25393	0.184342
C	3.87765	1.82012	0.548626
O	3.14855	1.42075	1.44603
H	3.24628	3.82647	0.849083
H	3.60568	3.39307	-0.868663
H	4.9615	3.64347	0.308306
N	4.66665	1.00139	-0.151059
C	4.75769	-0.412448	0.115999
C	6.14107	-0.882778	-0.29222
O	6.90244	-0.139768	-0.908617
H	5.28492	1.34722	-0.851058
H	4.6607	-0.581763	1.18115
C	3.67096	-1.19107	-0.657308
H	3.77653	-1.02611	-1.75078
H	3.72181	-2.27947	-0.449201
H	2.66745	-0.824979	-0.348626
N	6.50288	-2.13437	0.052179
C	7.80166	-2.66655	-0.288591
H	5.87457	-2.71921	0.554439
H	7.90864	-3.70993	0.0817391
H	8.6105	-2.04903	0.164967
H	7.94776	-2.66957	-1.39303
