44
  This energy is 0.1047 and Call times are: 27606
C	3.35434	-0.0938592	0.923191
C	1.95854	-0.574333	1.03292
O	1.68676	-1.59334	1.65272
H	4.02863	-0.799672	1.4552
H	3.45037	0.911539	1.38438
H	3.6583	-0.0415396	-0.143561
N	1.02784	0.161236	0.42046
C	-0.367293	-0.201849	0.402277
C	-0.984825	0.356423	-0.866006
O	-0.35545	1.12982	-1.58535
H	1.26956	0.965721	-0.114558
H	-0.455213	-1.28017	0.356274
C	-1.09682	0.348367	1.64738
H	-1.01591	1.45549	1.68939
H	-2.16895	0.0636902	1.652
H	-0.623257	-0.0670264	2.56364
N	-2.23752	-0.0324221	-1.17516
C	-2.90448	0.442586	-2.365
H	-2.72919	-0.662084	-0.582827
H	-3.92591	0.009176	-2.44285
H	-2.33194	0.156511	-3.27694
H	-2.99483	1.55286	-2.34825
C	6.18098	2.96303	0.401643
C	4.91228	2.21493	0.253704
O	3.83234	2.75524	0.449166
H	5.95793	4.00608	0.714909
H	6.72612	2.98698	-0.565312
H	6.8195	2.48461	1.17397
N	5.01771	0.931602	-0.0989258
C	3.87486	0.064106	-0.239986
C	4.31842	-1.3552	0.0606774
O	5.50935	-1.62628	0.201809
H	5.90541	0.495171	-0.21458
H	3.12948	0.332349	0.498309
C	3.2844	0.15668	-1.66407
H	4.04557	-0.128573	-2.42124
H	2.39538	-0.496348	-1.78119
H	2.97399	1.20526	-1.86522
N	3.36248	-2.29818	0.174543
C	3.68943	-3.67482	0.464587
H	2.4039	-2.05874	0.0610636
H	2.76762	-4.29495	0.518748
H	4.22336	-3.75479	1.43917
H	4.35026	-4.097	-0.326749
