44
  This energy is 0 and Call times are: 13024
C	-3.13927	1.50256	0.00181298
C	-1.66179	1.57093	-0.0575804
O	-1.08771	2.60842	-0.35834
H	-3.56419	2.49138	-0.276693
H	-3.46948	1.24634	1.03043
H	-3.51578	0.736653	-0.708617
N	-1.00357	0.445817	0.230944
C	0.433518	0.34535	0.173979
C	0.794718	-1.09232	-0.148807
O	-0.0641944	-1.97208	-0.151513
H	-1.4859	-0.401514	0.434047
H	0.802759	0.960595	-0.637049
C	1.07019	0.775928	1.51357
H	0.699732	0.138233	2.34432
H	2.17729	0.7162	1.47783
H	0.786082	1.8282	1.73348
N	2.08255	-1.36353	-0.438559
C	2.51866	-2.70163	-0.763322
H	2.76234	-0.637608	-0.435276
H	3.61127	-2.71963	-0.970936
H	1.98441	-3.08103	-1.66438
H	2.31037	-3.39858	0.0804905
C	601.069	-1.81878	2.96648
C	601.158	-1.72699	1.49174
O	601.551	-2.67158	0.821223
H	601.42	-2.82158	3.29381
H	600.018	-1.6806	3.296
H	601.709	-1.04287	3.43733
N	600.79	-0.565392	0.946235
C	600.862	-0.310659	-0.470979
C	601.073	1.17793	-0.673874
O	600.99	1.96026	0.271036
H	600.511	0.208013	1.50829
H	601.726	-0.81784	-0.881699
C	599.572	-0.776548	-1.18138
H	598.686	-0.248793	-0.767613
H	599.621	-0.598465	-2.2752
H	599.433	-1.86686	-1.01286
N	601.36	1.60466	-1.91934
C	601.582	3.00254	-2.20695
H	601.427	0.956016	-2.67028
H	601.806	3.15131	-3.28644
H	602.441	3.39381	-1.61444
H	600.682	3.60501	-1.94864
