44
  This energy is 0.1193 and Call times are: 25355
C	2.15736	0.182329	-2.72493
C	1.8584	0.355469	-1.28556
O	2.74852	0.577941	-0.476475
H	3.25386	0.270533	-2.88551
H	1.64286	0.966131	-3.31964
H	1.82351	-0.81989	-3.06726
N	0.575837	0.253	-0.929324
C	0.135064	0.354974	0.439574
C	-1.13108	-0.466869	0.591247
O	-1.69703	-0.939135	-0.39282
H	-0.132347	0.0309731	-1.59344
H	0.883092	-0.082112	1.08922
C	-0.125288	1.82714	0.827112
H	-0.900226	2.27289	0.167707
H	-0.451941	1.92018	1.88313
H	0.812412	2.41121	0.700898
N	-1.60263	-0.664515	1.83808
C	-2.79814	-1.43799	2.08031
H	-1.12856	-0.277788	2.62216
H	-3.0218	-1.48575	3.16885
H	-2.67613	-2.47864	1.7016
H	-3.67279	-0.982354	1.56211
C	7.95584	0.978204	2.55112
C	7.66058	0.709825	1.12566
O	8.43747	1.04869	0.243604
H	8.92597	1.51524	2.63045
H	8.02649	0.0235596	3.11362
H	7.15788	1.61026	2.99478
N	6.50927	0.0860447	0.865315
C	6.0645	-0.205034	-0.474839
C	4.54762	-0.230364	-0.474747
O	3.91708	-0.185936	0.579835
H	5.86819	-0.146902	1.591
H	6.37371	0.595247	-1.13557
C	6.62862	-1.55779	-0.961739
H	6.30299	-2.38062	-0.290197
H	6.30453	-1.78674	-1.99763
H	7.73974	-1.5191	-0.946015
N	3.92326	-0.294361	-1.66726
C	2.48246	-0.317445	-1.76585
H	4.45057	-0.325428	-2.50991
H	2.16187	-0.371159	-2.8296
H	2.04303	0.600932	-1.31334
H	2.06583	-1.20018	-1.22888
