44
  This energy is -4.2017 and Call times are: 25455
C	0.374301	2.25916	-2.62083
C	-0.272861	1.81444	-1.36602
O	-1.01334	2.55821	-0.737611
H	0.0841135	3.31158	-2.83078
H	0.0466536	1.62026	-3.46771
H	1.47897	2.20385	-2.52214
N	-0.000670968	0.569939	-0.966648
C	-0.521421	0.0106726	0.25589
C	0.462989	-1.02905	0.757347
O	1.4118	-1.38537	0.0612766
H	0.636306	-0.00938898	-1.46716
H	-0.580499	0.78793	1.00756
C	-1.90962	-0.625319	0.0242297
H	-1.84756	-1.42992	-0.739185
H	-2.32741	-1.04727	0.961212
H	-2.61146	0.151698	-0.349953
N	0.262924	-1.53651	1.98962
C	1.15102	-2.52667	2.55268
H	-0.508102	-1.23272	2.53944
H	0.818832	-2.81774	3.57354
H	2.18936	-2.12882	2.62214
H	1.17356	-3.44129	1.91699
C	2.84841	1.77885	0.903799
C	3.71041	1.12385	-0.105698
O	3.31582	0.934612	-1.24802
H	1.86319	2.01645	0.446916
H	3.31851	2.7215	1.25474
H	2.68928	1.10102	1.76884
N	4.92708	0.755356	0.302106
C	5.86279	0.0689461	-0.553371
C	6.75853	-0.790434	0.318809
O	6.72558	-0.693087	1.54402
H	5.21894	0.879225	1.24621
H	5.3211	-0.596574	-1.21388
C	6.70468	1.07447	-1.36908
H	7.26878	1.75066	-0.691876
H	7.41948	0.557934	-2.04196
H	6.02821	1.69783	-1.9937
N	7.57921	-1.66398	-0.297151
C	8.46342	-2.52689	0.450992
H	7.58869	-1.73117	-1.28936
H	9.05634	-3.17182	-0.234392
H	7.88234	-3.18533	1.13662
H	9.17095	-1.92585	1.06686
