44
  This energy is 0 and Call times are: 14116
C	-2.495	-2.1626	-1.10037
C	-1.72033	-1.50753	-0.0224524
O	-2.0762	-1.57862	1.14576
H	-3.38563	-2.66224	-0.661029
H	-1.8705	-2.92536	-1.61119
H	-2.83499	-1.40765	-1.84034
N	-0.625987	-0.841719	-0.398609
C	0.205568	-0.117835	0.530406
C	0.861941	1.02822	-0.216106
O	0.776421	1.11389	-1.43965
H	-0.37179	-0.758474	-1.35794
H	-0.416286	0.315201	1.30397
C	1.27524	-1.04344	1.15033
H	1.92014	-1.47969	0.35797
H	1.91316	-0.500969	1.87787
H	0.772483	-1.87897	1.68462
N	1.53002	1.94619	0.509871
C	2.18175	3.07445	-0.11339
H	1.58471	1.86205	1.49932
H	2.6759	3.71441	0.650476
H	1.44319	3.69754	-0.667967
H	2.95589	2.73069	-0.837042
C	680.846	-1.6243	-2.46272
C	679.959	-0.530129	-2.00782
O	679.747	0.446958	-2.71251
H	681.248	-1.37711	-3.46948
H	680.278	-2.5762	-2.52609
H	681.695	-1.74689	-1.75748
N	679.415	-0.672106	-0.797161
C	678.565	0.328326	-0.200972
C	678.706	0.231127	1.30645
O	679.319	-0.701012	1.82293
H	679.63	-1.45371	-0.218555
H	678.911	1.31168	-0.494463
C	677.093	0.123791	-0.621738
H	676.735	-0.880899	-0.311543
H	676.431	0.896263	-0.180203
H	677.015	0.191063	-1.72887
N	678.144	1.20374	2.0509
C	678.231	1.19785	3.49262
H	677.655	1.95203	1.61461
H	677.707	2.0803	3.92184
H	679.295	1.22732	3.82201
H	677.765	0.27605	3.91073
