44
  This energy is 0.1085 and Call times are: 29166
C	-2.9136	0.602889	1.80558
C	-2.16969	-0.0758708	0.720681
O	-2.6597	-1.0147	0.108394
H	-3.90116	0.109867	1.938
H	-3.07659	1.67052	1.54803
H	-2.34742	0.534985	2.75843
N	-0.947268	0.391495	0.456787
C	-0.0863594	-0.193053	-0.541061
C	1.35233	0.0492407	-0.125116
O	1.61872	0.791625	0.818081
H	-0.546088	1.1299	0.991284
H	-0.239984	-1.26478	-0.561906
C	-0.358439	0.420207	-1.93215
H	-0.190766	1.5182	-1.91396
H	0.288673	-0.0315736	-2.71168
H	-1.41885	0.237892	-2.21257
N	2.31889	-0.58308	-0.81936
C	3.71596	-0.417556	-0.492318
H	2.08343	-1.18304	-1.57677
H	4.35401	-1.01892	-1.17678
H	3.91631	-0.74662	0.553079
H	4.01649	0.65151	-0.581321
C	2.53847	2.0968	2.18789
C	2.5773	1.16399	1.03919
O	1.54841	0.713873	0.554226
H	1.48175	2.26303	2.49046
H	2.98882	3.07139	1.90485
H	3.09533	1.66833	3.04777
N	3.78743	0.846722	0.572994
C	3.98764	-0.0814776	-0.511862
C	5.34235	-0.739087	-0.327763
O	6.12791	-0.33436	0.527101
H	4.61724	1.1891	1.00433
H	3.2397	-0.862577	-0.45632
C	3.91686	0.640133	-1.8755
H	4.6909	1.43457	-1.93706
H	4.05574	-0.0662598	-2.71945
H	2.92012	1.12057	-1.98518
N	5.64498	-1.78166	-1.12618
C	6.90848	-2.47335	-1.01986
H	4.9947	-2.09726	-1.80927
H	6.96757	-3.30054	-1.76115
H	7.03484	-2.90611	-0.00101962
H	7.75599	-1.77454	-1.20567
