44
  This energy is -3.42 and Call times are: 29890
C	2.61179	2.28187	-0.290331
C	1.79422	1.3299	0.494815
O	2.14135	0.967661	1.61047
H	3.52196	2.54933	0.289274
H	2.03172	3.20614	-0.49523
H	2.92081	1.819	-1.25124
N	0.6716	0.895213	-0.0823857
C	-0.204739	-0.065863	0.539646
C	-0.910403	-0.841513	-0.556693
O	-0.816904	-0.495847	-1.73291
H	0.423273	1.1675	-1.00762
H	0.386637	-0.774125	1.10645
C	-1.23266	0.635743	1.45417
H	-1.8467	1.35478	0.871099
H	-1.90444	-0.0947454	1.94979
H	-0.693901	1.2035	2.24395
N	-1.6312	-1.92094	-0.194308
C	-2.33258	-2.72351	-1.16905
H	-1.69161	-2.18732	0.761969
H	-2.86605	-3.5652	-0.674891
H	-1.62075	-3.14851	-1.91334
H	-3.08105	-2.10853	-1.71926
C	8.37118	2.43758	-0.884934
C	7.20953	1.57231	-1.18997
O	6.53691	1.7473	-2.19663
H	8.47246	3.20963	-1.67836
H	9.30121	1.83203	-0.851906
H	8.22504	2.94383	0.0925245
N	6.94333	0.604224	-0.310005
C	5.82067	-0.289673	-0.448297
C	5.3944	-0.731767	0.938935
O	6.07916	-0.462371	1.92394
H	7.4752	0.500112	0.525542
H	4.98825	0.247316	-0.885716
C	6.19243	-1.51215	-1.31581
H	7.03951	-2.0694	-0.861983
H	5.33214	-2.20113	-1.44125
H	6.50875	-1.16451	-2.3235
N	4.24025	-1.41865	1.04919
C	3.75191	-1.87559	2.32938
H	3.69786	-1.62351	0.241156
H	2.78908	-2.41992	2.21151
H	3.58582	-1.01447	3.01653
H	4.48691	-2.56245	2.80806
