44
  This energy is 0 and Call times are: 14788
C	-2.70386	-0.319939	2.16782
C	-1.56557	-0.888545	1.41144
O	-1.17408	-2.02875	1.61898
H	-3.07045	-1.07177	2.90011
H	-3.53165	-0.0594999	1.47524
H	-2.38194	0.589708	2.71737
N	-0.998894	-0.0908359	0.503189
C	0.144465	-0.488	-0.280106
C	0.932405	0.759455	-0.633035
O	0.47818	1.87807	-0.400459
H	-1.30258	0.84888	0.374443
H	0.78866	-1.11695	0.321613
C	-0.295264	-1.23105	-1.56064
H	-0.947611	-0.582492	-2.18341
H	0.576648	-1.55426	-2.16547
H	-0.876813	-2.13581	-1.27856
N	2.14406	0.594346	-1.1993
C	2.96797	1.7231	-1.56435
H	2.49634	-0.318766	-1.37592
H	3.92578	1.38145	-2.015
H	3.20335	2.34337	-0.669291
H	2.44314	2.36985	-2.30424
C	729.61	-0.700119	-2.1935
C	728.86	0.223672	-1.31315
O	729.313	1.31961	-1.01286
H	730.579	-0.234069	-2.47394
H	729.029	-0.904722	-3.1173
H	729.81	-1.65534	-1.66388
N	727.676	-0.207675	-0.871303
C	726.85	0.560711	0.0268637
C	726.022	-0.406109	0.851753
O	726.001	-1.60565	0.582762
H	727.339	-1.11873	-1.09129
H	727.484	1.10947	0.712793
C	725.935	1.52714	-0.755944
H	725.278	0.963819	-1.45218
H	725.304	2.1344	-0.0748373
H	726.562	2.21995	-1.35838
N	725.322	0.0964455	1.88811
C	724.51	-0.748339	2.73236
H	725.355	1.06916	2.09257
H	724.015	-0.149307	3.52795
H	725.134	-1.53171	3.22067
H	723.721	-1.25871	2.13455
