44
  This energy is 1.1884 and Call times are: 24902
C	1.11104	3.29695	-0.0916245
C	1.27488	1.87671	0.29208
O	2.34081	1.45543	0.71954
H	2.07364	3.83188	0.0604409
H	0.330762	3.77557	0.536727
H	0.822421	3.37355	-1.16117
N	0.203481	1.09427	0.142823
C	0.221265	-0.317828	0.433014
C	-0.804214	-0.996258	-0.455625
O	-1.58977	-0.333398	-1.13034
H	-0.645137	1.44269	-0.244893
H	1.19129	-0.723548	0.174045
C	-0.0950803	-0.579092	1.92194
H	-1.09464	-0.172357	2.18555
H	-0.0707769	-1.66203	2.16106
H	0.66319	-0.0668658	2.55361
N	-0.814485	-2.34355	-0.482657
C	-1.75097	-3.07602	-1.30282
H	-0.168316	-2.86246	0.0671322
H	-1.60071	-4.17213	-1.18803
H	-1.61941	-2.81493	-2.37791
H	-2.79939	-2.83353	-1.01446
C	7.77241	-2.16105	1.93054
C	8.22815	-0.803445	1.5559
O	7.66163	0.194108	1.98058
H	6.88524	-2.08018	2.59556
H	8.57881	-2.69986	2.47106
H	7.48968	-2.73401	1.02233
N	9.2793	-0.735608	0.735612
C	9.81068	0.513105	0.24889
C	10.4468	0.260746	-1.10509
O	10.5933	-0.884228	-1.52848
H	9.70432	-1.55683	0.365738
H	8.99794	1.21263	0.0981026
C	10.8483	1.09288	1.23502
H	11.6876	0.380066	1.38193
H	11.2547	2.06139	0.878139
H	10.363	1.26208	2.221
N	10.8341	1.33302	-1.82359
C	11.4437	1.19061	-3.12521
H	10.7034	2.25178	-1.46598
H	11.6906	2.18642	-3.55492
H	10.7543	0.667356	-3.82674
H	12.3831	0.595607	-3.05631
