44
  This energy is 0 and Call times are: 13388
C	2.52066	-1.12633	-2.11904
C	2.00061	-0.196166	-1.09167
O	2.744	0.57679	-0.503174
H	3.62049	-0.993456	-2.2118
H	2.0489	-0.914056	-3.10144
H	2.30896	-2.1765	-1.82676
N	0.689128	-0.253521	-0.848569
C	0.0443572	0.558647	0.153037
C	-1.17255	-0.192463	0.659527
O	-1.55344	-1.22148	0.104767
H	0.103717	-0.916458	-1.30647
H	0.715238	0.689595	0.99292
C	-0.368311	1.92833	-0.429135
H	-1.06487	1.79488	-1.28414
H	-0.853473	2.56829	0.336098
H	0.536624	2.45681	-0.80081
N	-1.80957	0.304094	1.73826
C	-2.97345	-0.345756	2.29438
H	-1.48394	1.13564	2.17595
H	-3.35241	0.214542	3.17737
H	-2.7274	-1.3834	2.61693
H	-3.79	-0.403606	1.53871
C	630.397	-0.241615	0.718203
C	629.006	-0.738	0.815597
O	628.76	-1.84946	1.26367
H	631.093	-1.02658	1.08491
H	630.523	0.669457	1.34022
H	630.646	-0.00518337	-0.337842
N	628.049	0.0893818	0.388154
C	626.653	-0.269309	0.379929
C	625.974	0.497495	-0.739408
O	626.57	1.38526	-1.34626
H	628.268	0.974807	-0.0119457
H	626.556	-1.32379	0.153326
C	625.992	0.0557123	1.73734
H	626.081	1.13924	1.96534
H	624.919	-0.22871	1.74833
H	626.509	-0.510068	2.54248
N	624.705	0.164038	-1.04567
C	623.98	0.835146	-2.09963
H	624.24	-0.559821	-0.546097
H	622.954	0.418594	-2.19804
H	624.503	0.712372	-3.07565
H	623.897	1.92561	-1.88707
