44
  This energy is 0 and Call times are: 13444
C	-2.32238	2.56532	-0.371978
C	-1.9651	1.13037	-0.305498
O	-2.82736	0.266456	-0.224519
H	-3.42768	2.6715	-0.317937
H	-1.96542	3.00473	-1.32708
H	-1.86669	3.113	0.479773
N	-0.662107	0.841184	-0.336547
C	-0.158657	-0.506104	-0.236982
C	1.22111	-0.45022	0.391243
O	1.78929	0.625638	0.568515
H	0.029279	1.55759	-0.361351
H	-0.793668	-1.07641	0.429463
C	-0.0937953	-1.17498	-1.62753
H	0.565922	-0.596066	-2.30846
H	0.279271	-2.21764	-1.56257
H	-1.11289	-1.19781	-2.0717
N	1.79144	-1.61656	0.752349
C	3.09989	-1.66123	1.36239
H	1.31435	-2.47658	0.6046
H	3.39388	-2.7104	1.5861
H	3.10891	-1.08398	2.31527
H	3.86519	-1.21952	0.683905
C	630.184	0.31148	3.36891
C	629.824	0.0244035	1.962
O	628.742	-0.468199	1.67307
H	629.35	-0.00434586	4.03292
H	630.359	1.3994	3.50476
H	631.1	-0.248479	3.65154
N	630.741	0.329693	1.04091
C	630.553	0.0691126	-0.364533
C	631.917	-0.148523	-0.991912
O	632.945	0.0716049	-0.355109
H	631.633	0.692218	1.29517
H	629.992	-0.849178	-0.485642
C	629.823	1.24436	-1.05063
H	630.403	2.18462	-0.935737
H	629.66	1.04973	-2.13046
H	628.831	1.39054	-0.570335
N	631.957	-0.597291	-2.26197
C	633.209	-0.83874	-2.93956
H	631.114	-0.773554	-2.75956
H	633.032	-1.2046	-3.97493
H	633.809	-1.60377	-2.39537
H	633.812	0.0963974	-2.99626
