44
  This energy is 0 and Call times are: 10616
C	1.61251	2.92664	-0.973291
C	1.19045	1.95246	0.0582103
O	1.63995	1.99952	1.19494
H	2.36198	3.62213	-0.536867
H	0.738673	3.51448	-1.32486
H	2.0722	2.3972	-1.83438
N	0.303261	1.03079	-0.323627
C	-0.169563	-0.00942111	0.555548
C	-0.542447	-1.21145	-0.291586
O	-0.574803	-1.13188	-1.5181
H	-0.0224675	0.980198	-1.26342
H	0.635149	-0.314988	1.21259
C	-1.38564	0.472612	1.37655
H	-2.2153	0.776269	0.703141
H	-1.75043	-0.314853	2.06746
H	-1.0919	1.35742	1.98252
N	-0.826305	-2.36321	0.347866
C	-1.18602	-3.56055	-0.375438
H	-0.790749	-2.4091	1.34069
H	-1.38168	-4.4005	0.327003
H	-0.365388	-3.86432	-1.06505
H	-2.1036	-3.3913	-0.984164
C	431.876	1.79272	-0.7921
C	430.41	1.59184	-0.842445
O	429.665	2.47025	-1.25351
H	432.119	2.81555	-1.15341
H	432.386	1.0512	-1.44198
H	432.242	1.6836	0.250735
N	429.958	0.410477	-0.415416
C	428.555	0.0836396	-0.363911
C	428.345	-0.92508	0.749597
O	429.303	-1.4454	1.31718
H	430.574	-0.279266	-0.0453765
H	427.991	0.971141	-0.105889
C	428.073	-0.49145	-1.71365
H	428.644	-1.40793	-1.97371
H	426.99	-0.734172	-1.69114
H	428.243	0.260334	-2.51491
N	427.076	-1.21965	1.09521
C	426.779	-2.16377	2.14713
H	426.314	-0.785277	0.627138
H	425.68	-2.26979	2.28154
H	427.219	-1.82661	3.11342
H	427.201	-3.16619	1.90642
