44
  This energy is -1.2906 and Call times are: 25394
C	-1.04759	-2.88772	1.63595
C	-1.01336	-2.00047	0.451568
O	-1.44498	-2.37265	-0.630832
H	-1.48715	-3.86748	1.34832
H	-1.67098	-2.43496	2.43541
H	-0.0187851	-3.05409	2.01932
N	-0.487669	-0.786924	0.634168
C	-0.346625	0.171684	-0.433416
C	0.840063	1.06195	-0.115984
O	1.39365	1.0063	0.980448
H	-0.103115	-0.513201	1.51113
H	-0.120816	-0.350451	-1.35484
C	-1.63035	1.01594	-0.589962
H	-1.85662	1.56007	0.35172
H	-1.53936	1.74848	-1.41799
H	-2.48694	0.343301	-0.813918
N	1.26556	1.90354	-1.07863
C	2.39083	2.78451	-0.869231
H	0.807328	1.93126	-1.96086
H	2.58512	3.39692	-1.77721
H	3.31018	2.19921	-0.637949
H	2.19676	3.47399	-0.0159468
C	6.16908	3.37116	-0.803886
C	6.26825	1.93459	-1.14679
O	6.44724	1.57014	-2.30072
H	6.26365	3.97741	-1.73091
H	6.98335	3.65473	-0.104387
H	5.1864	3.58526	-0.333176
N	6.14964	1.0731	-0.133795
C	6.18161	-0.356602	-0.316768
C	5.35511	-0.993016	0.784796
O	4.93515	-0.321329	1.7251
H	5.96332	1.38357	0.793971
H	5.71038	-0.606762	-1.2591
C	7.63226	-0.88526	-0.279505
H	8.11269	-0.638079	0.691131
H	7.67126	-1.98317	-0.433103
H	8.22052	-0.400251	-1.08886
N	5.0942	-2.31159	0.68838
C	4.31123	-3.00217	1.68649
H	5.43921	-2.83744	-0.0820292
H	4.20775	-4.07934	1.42914
H	3.29129	-2.56003	1.7607
H	4.79441	-2.92545	2.68739
