44
  This energy is 0.1127 and Call times are: 24762
C	0.91765	-1.31181	-3.09027
C	1.01801	-1.2611	-1.6143
O	1.61527	-2.12733	-0.990328
H	1.43319	-2.22376	-3.46235
H	1.40098	-0.417951	-3.53765
H	-0.147968	-1.34966	-3.4003
N	0.422952	-0.227594	-1.01418
C	0.398043	-0.0648995	0.41812
C	-0.85692	0.704537	0.784984
O	-1.5595	1.21527	-0.0852179
H	-0.0942803	0.447489	-1.53244
H	0.328163	-1.03847	0.887068
C	1.65577	0.684229	0.910217
H	1.72231	1.68727	0.437435
H	1.65509	0.803588	2.01307
H	2.56212	0.107236	0.623909
N	-1.17344	0.798175	2.09153
C	-2.35178	1.50602	2.53498
H	-0.594777	0.374772	2.7807
H	-2.43827	1.47014	3.64334
H	-3.27041	1.0527	2.09691
H	-2.31026	2.57404	2.22073
C	2.04652	-0.383273	0.848547
C	3.14115	-0.329897	-0.146488
O	2.95985	-0.67465	-1.3061
H	1.12876	-0.781669	0.363932
H	1.8341	0.634254	1.23875
H	2.32696	-1.05074	1.69052
N	4.32252	0.10925	0.293845
C	5.49275	0.176797	-0.545541
C	6.71688	0.0129876	0.335506
O	6.61632	0.0196109	1.56088
H	4.46532	0.347506	1.25024
H	5.48218	-0.653463	-1.24065
C	5.54908	1.51954	-1.30653
H	5.57058	2.37128	-0.593708
H	6.43845	1.5781	-1.96691
H	4.63994	1.62163	-1.93851
N	7.90843	-0.14738	-0.273187
C	9.12713	-0.31599	0.483448
H	7.96913	-0.154115	-1.26583
H	9.99937	-0.43295	-0.19681
H	9.06491	-1.2197	1.13208
H	9.3087	0.566977	1.13808
