44
  This energy is -3.4277 and Call times are: 25205
C	-2.84848	-1.00801	1.72706
C	-1.58819	-0.23782	1.62904
O	-1.29961	0.612278	2.45998
H	-3.42046	-0.664761	2.61639
H	-2.62784	-2.09053	1.83755
H	-3.46652	-0.847795	0.818522
N	-0.798001	-0.522361	0.591247
C	0.439487	0.172779	0.338338
C	0.6981	0.149542	-1.15636
O	0.00426843	-0.535951	-1.90497
H	-1.06585	-1.18812	-0.0993288
H	0.332957	1.20985	0.631181
C	1.60907	-0.487794	1.10055
H	1.72549	-1.5488	0.792751
H	2.56511	0.0466834	0.924955
H	1.39469	-0.466717	2.1914
N	1.70501	0.910551	-1.62862
C	2.02154	0.956211	-3.03713
H	2.25269	1.46161	-1.00777
H	2.8798	1.63824	-3.22542
H	1.14809	1.32167	-3.62434
H	2.29016	-0.0576619	-3.41269
C	5.21914	1.2093	3.16869
C	5.55074	0.104918	2.2405
O	5.82899	-1.01077	2.6579
H	5.2909	0.843033	4.21585
H	4.18467	1.56743	2.98332
H	5.93123	2.05041	3.03258
N	5.53007	0.397859	0.938142
C	5.87183	-0.56045	-0.0833254
C	6.42753	0.196346	-1.27498
O	6.37169	1.42364	-1.32336
H	5.34169	1.32107	0.615559
H	6.65873	-1.20784	0.283133
C	4.63659	-1.39012	-0.496906
H	3.83293	-0.727351	-0.882789
H	4.88982	-2.1411	-1.27307
H	4.24202	-1.92898	0.392076
N	6.98807	-0.523485	-2.26677
C	7.54805	0.110533	-3.4375
H	7.0276	-1.51546	-2.2077
H	7.96098	-0.649542	-4.13679
H	8.36946	0.806999	-3.15202
H	6.76971	0.697361	-3.97691
