44
  This energy is 0.1671 and Call times are: 30067
C	-3.172	0.402397	-1.37447
C	-2.26834	0.196992	-0.220195
O	-2.67705	0.293684	0.928726
H	-4.18912	0.655756	-1.00412
H	-3.23171	-0.524108	-1.98338
H	-2.80161	1.23676	-2.00672
N	-0.997123	-0.0938915	-0.506133
C	0.0091681	-0.278668	0.509641
C	1.35218	0.110918	-0.0786539
O	1.46918	0.346324	-1.27974
H	-0.670283	-0.128827	-1.44625
H	-0.188723	0.393792	1.33503
C	0.0367086	-1.74326	0.998964
H	0.250135	-2.43272	0.154489
H	0.798123	-1.89527	1.79122
H	-0.958343	-2.00896	1.41804
N	2.40194	0.196451	0.762015
C	3.71741	0.565514	0.29351
H	2.28668	0.00621698	1.73134
H	4.44468	0.580551	1.13499
H	3.69897	1.57761	-0.171898
H	4.08015	-0.15936	-0.47077
C	4.23972	-0.793422	-3.3849
C	4.00728	-1.11445	-1.95869
O	3.32643	-2.0758	-1.62907
H	3.70002	-1.52936	-4.01971
H	5.32421	-0.845576	-3.61708
H	3.86131	0.224985	-3.61451
N	4.57646	-0.300306	-1.06673
C	4.40557	-0.45903	0.355998
C	4.53334	0.907191	1.00306
O	4.90738	1.88027	0.3512
H	5.09396	0.501867	-1.35057
H	3.40438	-0.819047	0.557562
C	5.45727	-1.43186	0.932848
H	6.48445	-1.05765	0.735549
H	5.32751	-1.57319	2.02542
H	5.35046	-2.42254	0.439415
N	4.21499	1.01314	2.30822
C	4.30061	2.2742	3.00719
H	3.91036	0.215314	2.81787
H	3.99727	2.15571	4.07076
H	3.63354	3.03123	2.53476
H	5.34243	2.668	2.98131
