44
  This energy is -1.996 and Call times are: 23421
C	2.23186	-2.34076	-1.28543
C	1.06938	-1.97227	-0.446381
O	0.3413	-2.82799	0.0374161
H	2.27844	-3.4472	-1.38293
H	3.17177	-1.98146	-0.816162
H	2.13017	-1.89482	-2.2973
N	0.865864	-0.666809	-0.254723
C	-0.248345	-0.153076	0.502361
C	-0.592903	1.22228	-0.0373052
O	0.139147	1.7806	-0.852226
H	1.44317	0.0188843	-0.688789
H	-1.11131	-0.787557	0.34313
C	0.0957982	-0.0741785	2.00588
H	0.974592	0.585028	2.17082
H	-0.758983	0.306921	2.6014
H	0.35234	-1.09028	2.37747
N	-1.72853	1.7998	0.401832
C	-2.14055	3.10476	-0.060226
H	-2.31001	1.33062	1.05821
H	-3.09959	3.40585	0.416023
H	-2.28328	3.1032	-1.16517
H	-1.37029	3.87064	0.187294
C	7.26035	-2.25812	2.4268
C	7.4268	-1.56641	1.12872
O	8.47534	-1.63871	0.502816
H	8.20467	-2.78414	2.68641
H	6.44017	-3.00357	2.36079
H	7.02756	-1.52244	3.22534
N	6.37774	-0.866647	0.69034
C	6.40318	-0.105612	-0.533888
C	5.43742	1.05539	-0.389238
O	4.67798	1.12646	0.575079
H	5.54527	-0.783726	1.23069
H	7.39206	0.31291	-0.673841
C	6.01275	-0.987667	-1.74003
H	4.99412	-1.40878	-1.6018
H	6.04204	-0.416547	-2.69055
H	6.72804	-1.83502	-1.82183
N	5.4506	2.00279	-1.3475
C	4.57095	3.14701	-1.29135
H	6.07513	1.92998	-2.11804
H	4.7328	3.81093	-2.16899
H	4.75496	3.73886	-0.365534
H	3.50491	2.82347	-1.28807
