44
  This energy is 0 and Call times are: 9692
C	-3.05131	-1.53602	0.665452
C	-1.9743	-1.12499	-0.263114
O	-1.93067	-1.54957	-1.40952
H	-3.7264	-2.25351	0.150335
H	-3.64198	-0.65087	0.982251
H	-2.61727	-2.03004	1.56024
N	-1.06488	-0.276128	0.221419
C	0.0654562	0.180402	-0.548311
C	1.19561	0.496791	0.41305
O	1.005	0.506826	1.62766
H	-1.09071	0.0286547	1.16921
H	0.405271	-0.620315	-1.1933
C	-0.302012	1.42789	-1.38136
H	-0.640666	2.25315	-0.719319
H	0.556206	1.78086	-1.98914
H	-1.13611	1.1754	-2.07193
N	2.40924	0.756007	-0.112247
C	3.54566	1.0619	0.725099
H	2.54481	0.739128	-1.09734
H	4.45202	1.24439	0.106687
H	3.7598	0.218017	1.42028
H	3.34939	1.97196	1.337
C	362.555	2.80232	-2.01526
C	362.875	1.36929	-1.82813
O	362.953	0.608255	-2.78265
H	362.399	3.00561	-3.09704
H	363.392	3.43264	-1.64806
H	361.627	3.06228	-1.46346
N	363.068	0.96365	-0.570952
C	363.345	-0.408874	-0.227067
C	362.82	-0.660298	1.17412
O	362.419	0.268674	1.87255
H	362.961	1.58632	0.198862
H	362.8	-1.06184	-0.897414
C	364.859	-0.701139	-0.298814
H	365.418	-0.0387352	0.396477
H	365.084	-1.75849	-0.0495953
H	365.223	-0.502815	-1.33072
N	362.803	-1.93311	1.61648
C	362.317	-2.26905	2.93424
H	363.128	-2.67178	1.03521
H	362.384	-3.3652	3.11073
H	361.253	-1.9601	3.05055
H	362.915	-1.7501	3.71813
