44
  This energy is -1.496 and Call times are: 24360
C	-0.336834	-1.71315	3.0107
C	-0.551315	-1.58802	1.55143
O	-0.954649	-2.53303	0.887586
H	-0.579034	-2.75012	3.32994
H	-0.996119	-1.00588	3.55646
H	0.723381	-1.49833	3.26148
N	-0.279078	-0.397741	1.01151
C	-0.397652	-0.135577	-0.401205
C	0.594505	0.952862	-0.765181
O	1.20629	1.56504	0.108131
H	0.0875019	0.349777	1.55805
H	-0.119003	-1.02404	-0.954029
C	-1.83489	0.298833	-0.762971
H	-2.11744	1.21631	-0.204003
H	-1.94256	0.49026	-1.8503
H	-2.54457	-0.509258	-0.480661
N	0.783712	1.21439	-2.07355
C	1.71193	2.22912	-2.51504
H	0.282479	0.705629	-2.76565
H	1.72569	2.2932	-3.62541
H	2.74369	1.99688	-2.16459
H	1.42595	3.2266	-2.10958
C	3.68635	1.77889	2.45188
C	4.42493	1.70599	1.17112
O	4.45328	2.65663	0.401772
H	3.20024	2.77483	2.53936
H	4.38454	1.64362	3.30451
H	2.90322	0.992423	2.4873
N	5.04755	0.554272	0.909835
C	5.77061	0.317805	-0.314841
C	5.72551	-1.16939	-0.611112
O	5.28474	-1.96356	0.217581
H	4.98127	-0.224552	1.527
H	5.2685	0.824395	-1.12963
C	7.23227	0.801935	-0.194814
H	7.75091	0.274881	0.634201
H	7.79575	0.637994	-1.13616
H	7.24091	1.89085	0.0299661
N	6.17619	-1.58159	-1.81236
C	6.16713	-2.97705	-2.18489
H	6.5253	-0.923558	-2.47129
H	6.5767	-3.11308	-3.21007
H	5.12939	-3.38204	-2.16551
H	6.78497	-3.57665	-1.47786
