44
  This energy is 0 and Call times are: 10224
C	-0.684094	3.3962	-0.332498
C	-0.123296	2.12394	-0.840448
O	0.236822	2.01077	-2.00403
H	-0.719109	4.13828	-1.15952
H	-0.0462737	3.79695	0.483175
H	-1.71425	3.23488	0.0494151
N	-0.0380661	1.12092	0.0365131
C	0.446076	-0.189349	-0.32037
C	-0.215768	-1.20329	0.593658
O	-0.884983	-0.838912	1.55859
H	-0.373233	1.21582	0.969532
H	0.139755	-0.419745	-1.33315
C	1.98309	-0.264192	-0.189174
H	2.29716	-0.0382422	0.852145
H	2.36947	-1.26409	-0.474534
H	2.44598	0.491585	-0.860657
N	-0.0496363	-2.50877	0.303592
C	-0.646493	-3.54499	1.11365
H	0.491974	-2.78395	-0.483811
H	-0.394695	-4.55154	0.712805
H	-1.75568	-3.44139	1.12926
H	-0.279223	-3.48357	2.16364
C	398.098	-1.72651	0.841787
C	398.801	-0.600381	0.186875
O	398.215	0.149951	-0.581802
H	397.04	-1.74723	0.500858
H	398.117	-1.60045	1.94472
H	398.581	-2.68876	0.571198
N	400.095	-0.457363	0.480747
C	400.922	0.564852	-0.110924
C	402.349	0.0529312	-0.153157
O	402.662	-0.989309	0.419375
H	400.567	-1.10068	1.07649
H	400.608	0.730244	-1.13406
C	400.841	1.87725	0.699207
H	401.173	1.71044	1.74617
H	401.463	2.67641	0.245831
H	399.786	2.22914	0.723563
N	403.252	0.775468	-0.8447
C	404.633	0.363451	-0.944914
H	402.98	1.61394	-1.30474
H	405.217	1.08805	-1.55474
H	404.71	-0.639513	-1.42392
H	405.099	0.300183	0.0652075
