44
  This energy is 0 and Call times are: 11568
C	-2.68063	0.315664	-2.1971
C	-1.24425	0.0928533	-1.91726
O	-0.480839	-0.290611	-2.7928
H	-2.89101	0.0651119	-3.25957
H	-2.94458	1.37943	-2.01967
H	-3.30268	-0.333058	-1.54495
N	-0.839293	0.330547	-0.667506
C	0.518879	0.118088	-0.233009
C	0.495618	-0.212574	1.24742
O	-0.539928	-0.102639	1.90108
H	-1.48055	0.602944	0.0441521
H	0.92875	-0.741182	-0.749045
C	1.38408	1.37038	-0.494591
H	0.969995	2.24985	0.0430951
H	2.43543	1.21444	-0.176993
H	1.38023	1.59833	-1.58288
N	1.64372	-0.63642	1.81155
C	1.71587	-0.979343	3.21276
H	2.47035	-0.722909	1.26541
H	2.74377	-1.30536	3.48542
H	1.01053	-1.80817	3.45111
H	1.44601	-0.103489	3.84616
C	499.088	-1.65792	2.23686
C	498.768	-0.509781	1.35916
O	499.427	0.520226	1.3986
H	499.954	-1.39601	2.88288
H	499.352	-2.54574	1.6246
H	498.218	-1.90007	2.88295
N	497.729	-0.664454	0.535065
C	497.27	0.379214	-0.34741
C	495.782	0.186791	-0.574166
O	495.211	-0.826914	-0.177442
H	497.177	-1.49353	0.543532
H	497.401	1.3392	0.136185
C	498.032	0.34079	-1.6903
H	497.889	-0.640098	-2.19182
H	497.697	1.14828	-2.37332
H	499.119	0.475577	-1.4995
N	495.116	1.16697	-1.21503
C	493.697	1.07405	-1.47087
H	495.595	1.98157	-1.52489
H	493.334	1.97813	-2.00772
H	493.131	0.982797	-0.515708
H	493.468	0.179977	-2.09479
