44
  This energy is 0 and Call times are: 10532
C	-2.1757	-2.57401	0.868043
C	-1.06209	-2.02504	0.0620304
O	-0.374067	-2.7498	-0.643493
H	-2.22849	-3.67455	0.720062
H	-3.13825	-2.12191	0.548913
H	-2.0081	-2.36393	1.94548
N	-0.85617	-0.709097	0.15295
C	0.215813	-0.0368776	-0.538088
C	0.607501	1.18499	0.271339
O	-0.0677391	1.54616	1.23327
H	-1.39858	-0.138643	0.763063
H	1.07979	-0.68854	-0.577036
C	-0.217724	0.373401	-1.9625
H	-1.09757	1.0504	-1.92265
H	0.60363	0.879681	-2.50984
H	-0.507442	-0.535342	-2.53399
N	1.72079	1.84877	-0.0974565
C	2.17435	3.01944	0.616676
H	2.25631	1.53885	-0.876074
H	3.10609	3.42149	0.161222
H	2.38359	2.77264	1.68278
H	1.39901	3.8191	0.593199
C	421.702	-1.71846	-2.73404
C	421.831	-0.501718	-1.90086
O	421.399	0.576619	-2.28444
H	421.198	-1.45749	-3.68997
H	421.095	-2.48249	-2.20458
H	422.706	-2.13571	-2.95937
N	422.44	-0.650969	-0.722553
C	422.678	0.449001	0.178697
C	423.919	0.134572	0.992041
O	424.44	-0.977764	0.940964
H	422.823	-1.52666	-0.442036
H	422.886	1.3429	-0.395809
C	421.464	0.673038	1.10746
H	421.256	-0.240235	1.70474
H	421.629	1.52625	1.79689
H	420.566	0.893662	0.490656
N	424.429	1.11747	1.76017
C	425.611	0.912245	2.56433
H	423.995	2.01218	1.78522
H	425.872	1.83785	3.12324
H	426.479	0.63352	1.92332
H	425.448	0.0920775	3.30049
