44
  This energy is 0 and Call times are: 13752
C	1.94667	-1.58084	2.41331
C	0.952595	-1.60966	1.3169
O	0.606468	-2.66484	0.803871
H	2.28567	-2.61738	2.62907
H	1.49163	-1.15314	3.33133
H	2.82529	-0.969703	2.11729
N	0.465576	-0.429585	0.926248
C	-0.47626	-0.293376	-0.156781
C	-0.279156	1.07294	-0.785977
O	0.453894	1.90849	-0.260425
H	0.787533	0.424018	1.32571
H	-0.256473	-1.03309	-0.916482
C	-1.9265	-0.451995	0.350046
H	-2.15588	0.313326	1.12187
H	-2.66052	-0.362947	-0.476885
H	-2.04558	-1.45566	0.813534
N	-0.927451	1.32969	-1.93915
C	-0.796229	2.60028	-2.61336
H	-1.51297	0.639478	-2.35127
H	-1.40569	2.61661	-3.54369
H	0.266609	2.79168	-2.88725
H	-1.13823	3.43161	-1.95528
C	656.194	1.08682	-0.85407
C	654.763	0.871609	-1.16752
O	654.254	1.36137	-2.16578
H	656.647	1.73796	-1.63309
H	656.733	0.116129	-0.839422
H	656.299	1.58252	0.134034
N	654.073	0.122574	-0.304604
C	652.663	-0.139574	-0.452179
C	652.076	-0.35932	0.929232
O	652.804	-0.46161	1.91436
H	654.492	-0.235232	0.524951
H	652.18	0.73316	-0.873157
C	652.422	-1.37596	-1.34585
H	652.909	-2.27379	-0.908965
H	651.34	-1.57997	-1.47848
H	652.867	-1.19604	-2.34884
N	650.734	-0.4289	1.03438
C	650.085	-0.630545	2.30894
H	650.161	-0.339766	0.226427
H	648.98	-0.658941	2.18741
H	650.339	0.194026	3.01381
H	650.412	-1.59101	2.76896
