44
  This energy is 0 and Call times are: 13724
C	1.70822	-2.2406	2.04313
C	1.65431	-1.29395	0.906436
O	2.67541	-0.913646	0.350432
H	2.76917	-2.48629	2.2665
H	1.1687	-3.17671	1.78749
H	1.24789	-1.7832	2.94423
N	0.439938	-0.884623	0.532105
C	0.229798	0.0683444	-0.529146
C	-1.05644	0.819872	-0.242156
O	-1.80537	0.462894	0.665249
H	-0.379166	-1.17123	1.02077
H	1.03475	0.79267	-0.52341
C	0.14873	-0.640365	-1.89896
H	-0.683582	-1.37602	-1.90888
H	0.000902463	0.0841163	-2.72588
H	1.09721	-1.19022	-2.08439
N	-1.33935	1.89093	-1.00951
C	-2.53802	2.67078	-0.806536
H	-0.719027	2.16677	-1.73627
H	-2.59024	3.50875	-1.53613
H	-2.5583	3.09949	0.221606
H	-3.44545	2.03725	-0.934368
C	652.199	-3.22861	-0.501419
C	652.407	-1.79051	-0.218802
O	653.494	-1.36868	0.150804
H	653.143	-3.78164	-0.305181
H	651.913	-3.37223	-1.5645
H	651.401	-3.63606	0.154425
N	651.349	-0.993673	-0.387449
C	651.385	0.420827	-0.110938
C	649.988	0.86119	0.283842
O	649.031	0.0979924	0.168498
H	650.46	-1.35794	-0.649326
H	652.032	0.602566	0.737855
C	651.874	1.21179	-1.34408
H	651.204	1.03396	-2.21223
H	651.919	2.30108	-1.13937
H	652.894	0.867567	-1.61988
N	649.84	2.10921	0.770155
C	648.549	2.61366	1.17685
H	650.626	2.71065	0.859882
H	648.634	3.65852	1.54861
H	648.12	1.98574	1.99148
H	647.835	2.60291	0.321336
