44
  This energy is 0.1043 and Call times are: 30344
C	-1.07139	3.14637	1.03206
C	-1.13758	1.98084	0.121956
O	-2.05444	1.85346	-0.677767
H	-1.95495	3.7984	0.858671
H	-0.148623	3.73224	0.83711
H	-1.07712	2.80709	2.08939
N	-0.150199	1.0885	0.227723
C	-0.100417	-0.118063	-0.559867
C	0.646782	-1.17174	0.235752
O	1.22936	-0.878399	1.27799
H	0.567223	1.18515	0.911704
H	-1.10731	-0.485006	-0.715287
C	0.598676	0.135177	-1.91352
H	1.63527	0.501607	-1.75466
H	0.630981	-0.783123	-2.53497
H	0.0394894	0.915085	-2.47513
N	0.639699	-2.43379	-0.236711
C	1.31893	-3.50397	0.455772
H	0.159297	-2.65247	-1.0796
H	1.19666	-4.46546	-0.0899563
H	0.908047	-3.62972	1.4837
H	2.40802	-3.28643	0.543539
C	1.41188	-3.26091	0.543314
C	1.16718	-1.8522	0.16016
O	0.109739	-1.50966	-0.350616
H	0.524449	-3.87412	0.274432
H	1.58214	-3.33575	1.63792
H	2.29841	-3.65579	0.00368135
N	2.15853	-0.990968	0.400773
C	2.08487	0.403983	0.0440629
C	3.49445	0.900494	-0.217002
O	4.46849	0.197782	0.0459459
H	3.02894	-1.29233	0.779489
H	1.53006	0.507562	-0.880097
C	1.42068	1.22692	1.16962
H	1.9954	1.12944	2.11526
H	1.34556	2.3006	0.901127
H	0.393412	0.841115	1.34907
N	3.63549	2.12917	-0.752242
C	4.93787	2.68315	-1.04046
H	2.83526	2.6812	-0.961933
H	4.84407	3.70203	-1.47671
H	5.48629	2.04019	-1.76649
H	5.54914	2.75406	-0.111773
