44
  This energy is 0 and Call times are: 12604
C	2.07973	-1.48749	2.3611
C	1.2307	-1.54773	1.15004
O	1.22788	-2.53476	0.427425
H	2.66476	-2.42892	2.44671
H	1.44733	-1.37377	3.26657
H	2.78403	-0.631717	2.29251
N	0.480497	-0.47273	0.897156
C	-0.364013	-0.366024	-0.266449
C	-0.487183	1.10208	-0.628451
O	-0.055275	1.97435	0.122764
H	0.524389	0.339195	1.47224
H	0.11277	-0.865098	-1.10086
C	-1.75689	-0.975485	0.00502224
H	-2.25082	-0.456859	0.854195
H	-2.41196	-0.911896	-0.887929
H	-1.64186	-2.0478	0.275705
N	-1.07642	1.40973	-1.80071
C	-1.23305	2.77944	-2.23146
H	-1.41594	0.689868	-2.39702
H	-1.73999	2.82513	-3.22048
H	-0.241075	3.27837	-2.32271
H	-1.84274	3.35492	-1.49781
C	570.448	-1.48914	-3.09692
C	571.348	-0.981355	-2.03679
O	572.548	-1.21769	-2.05815
H	571.04	-2.08454	-3.82623
H	569.969	-0.641597	-3.62999
H	569.664	-2.13887	-2.65444
N	570.777	-0.261651	-1.06818
C	571.515	0.263151	0.0534968
C	570.568	0.371616	1.23386
O	569.36	0.194612	1.09036
H	569.793	-0.112293	-1.0426
H	572.294	-0.437502	0.327955
C	572.122	1.64304	-0.282429
H	571.323	2.3651	-0.553855
H	572.705	2.05151	0.568645
H	572.805	1.54123	-1.1538
N	571.101	0.658961	2.43808
C	570.278	0.776737	3.61945
H	572.081	0.794732	2.53504
H	570.9	1.01672	4.50963
H	569.736	-0.176374	3.81733
H	569.521	1.58429	3.49247
