44
  This energy is -5.3972 and Call times are: 22463
C	-0.0662781	-2.87346	1.96252
C	-0.66414	-1.60501	1.48847
O	-1.82394	-1.31579	1.74852
H	-0.829502	-3.45012	2.52895
H	0.795179	-2.66421	2.63099
H	0.27563	-3.48173	1.09869
N	0.128422	-0.808268	0.767757
C	-0.323966	0.438057	0.201559
C	0.486348	0.709895	-1.05186
O	1.46152	0.0162977	-1.33411
H	1.05762	-1.07625	0.529758
H	-1.35955	0.338838	-0.0990266
C	-0.161881	1.59433	1.2125
H	0.90196	1.70335	1.51315
H	-0.519661	2.557	0.79323
H	-0.756839	1.37034	2.12475
N	0.0931458	1.72827	-1.842
C	0.799623	2.0579	-3.0579
H	-0.700888	2.27559	-1.59905
H	0.322945	2.92432	-3.56713
H	0.796636	1.19333	-3.7606
H	1.85976	2.32016	-2.83774
C	4.29677	3.47108	-0.151863
C	4.72417	2.16532	-0.702744
O	5.15776	2.07057	-1.84267
H	4.42552	4.25686	-0.927633
H	4.91474	3.7342	0.732227
H	3.22725	3.43	0.143983
N	4.60677	1.11175	0.108805
C	4.9414	-0.229761	-0.299745
C	4.08142	-1.19454	0.494731
O	3.39121	-0.79798	1.43178
H	4.21378	1.19814	1.01982
H	4.68907	-0.3583	-1.34494
C	6.4399	-0.520458	-0.0646771
H	6.69703	-0.398987	1.00918
H	6.71301	-1.54577	-0.388198
H	7.05005	0.202256	-0.649263
N	4.09712	-2.49184	0.130332
C	3.30671	-3.48158	0.824473
H	4.65883	-2.79292	-0.633151
H	3.45516	-4.48858	0.375981
H	2.22306	-3.22903	0.767916
H	3.5941	-3.53059	1.89972
