44
  This energy is 0.1406 and Call times are: 28688
C	2.8659	1.95241	-0.295624
C	2.09546	0.718664	-0.570294
O	2.48321	-0.0998824	-1.39251
H	3.76675	1.97545	-0.946637
H	3.18931	1.97319	0.766316
H	2.24451	2.84736	-0.510159
N	0.966013	0.557592	0.123087
C	0.0881991	-0.570465	-0.0653044
C	-1.32353	-0.133733	0.277986
O	-1.5355	0.96012	0.797859
H	0.642553	1.25233	0.759152
H	0.092519	-0.855933	-1.10987
C	0.518431	-1.75863	0.822616
H	0.504011	-1.46942	1.89508
H	-0.141495	-2.63819	0.676347
H	1.55702	-2.05614	0.559611
N	-2.32904	-0.981794	-0.0148713
C	-3.70541	-0.649561	0.270464
H	-2.13805	-1.86075	-0.439181
H	-4.38232	-1.47435	-0.0437475
H	-4.00636	0.27639	-0.271125
H	-3.84935	-0.473803	1.36112
C	7.83002	1.66326	-0.682501
C	6.41355	1.65048	-0.25285
O	5.89567	2.63807	0.250021
H	8.27449	2.65605	-0.453009
H	7.89999	1.48221	-1.77569
H	8.40124	0.879959	-0.140993
N	5.74596	0.51007	-0.443075
C	4.37419	0.331211	-0.037117
C	4.15925	-1.13915	0.268495
O	5.02312	-1.97135	-0.00148712
H	6.19264	-0.298161	-0.816029
H	4.19845	0.880246	0.87956
C	3.40543	0.801401	-1.14422
H	3.57822	0.231136	-2.08176
H	2.34594	0.681679	-0.838164
H	3.58594	1.87772	-1.35702
N	2.99672	-1.49332	0.850817
C	2.70615	-2.86845	1.18364
H	2.31162	-0.805072	1.06537
H	1.70238	-2.95534	1.65495
H	3.4636	-3.26866	1.89593
H	2.72101	-3.50559	0.269871
