44
  This energy is 0 and Call times are: 10168
C	2.95121	-0.787984	1.66797
C	2.19897	-0.453334	0.437811
O	2.77883	-0.174402	-0.602561
H	4.04147	-0.717596	1.46239
H	2.71282	-1.82258	1.9928
H	2.69207	-0.0767255	2.4804
N	0.867435	-0.47209	0.532847
C	0.00115066	-0.127303	-0.566804
C	-1.28933	0.42952	0.00429593
O	-1.52064	0.372202	1.2105
H	0.41024	-0.66108	1.39721
H	0.461446	0.659778	-1.15098
C	-0.285737	-1.36076	-1.45084
H	-0.767564	-2.16458	-0.854394
H	-0.940584	-1.1052	-2.30897
H	0.673169	-1.75621	-1.85143
N	-2.16157	0.99273	-0.854785
C	-3.41303	1.55396	-0.401951
H	-1.95488	1.03342	-1.82674
H	-3.99026	1.96909	-1.25734
H	-3.23353	2.37397	0.330603
H	-4.03527	0.775824	0.0965061
C	393.601	0.306836	0.680653
C	394.838	-0.496226	0.55989
O	394.888	-1.64787	0.969352
H	392.818	-0.298026	1.18876
H	393.233	0.597105	-0.326005
H	393.795	1.22075	1.28085
N	395.883	0.105977	-0.0132213
C	397.167	-0.532219	-0.162154
C	398.234	0.545982	-0.158613
O	397.928	1.73571	-0.206521
H	395.839	1.05738	-0.304446
H	397.35	-1.17023	0.693414
C	397.228	-1.35026	-1.47071
H	397.051	-0.694251	-2.34947
H	398.207	-1.85781	-1.59014
H	396.434	-2.12786	-1.45482
N	399.521	0.151683	-0.0927778
C	400.605	1.10676	-0.0787068
H	399.749	-0.815411	-0.0505323
H	401.586	0.587012	-0.0211041
H	400.517	1.78771	0.798699
H	400.591	1.72996	-1.00207
