44
  This energy is 0.1413 and Call times are: 27713
C	2.98256	1.42954	1.08326
C	2.06117	0.992037	0.0105182
O	2.24947	1.31188	-1.15509
H	3.78492	2.0609	0.643423
H	3.44681	0.547477	1.57233
H	2.43172	2.02508	1.84155
N	1.02523	0.239416	0.38836
C	0.0203601	-0.226053	-0.534752
C	-1.28055	-0.394138	0.227436
O	-1.30855	-0.303154	1.45326
H	0.862626	0.0214995	1.34645
H	-0.145316	0.529029	-1.29306
C	0.444007	-1.5618	-1.18401
H	0.603874	-2.33967	-0.407223
H	-0.315254	-1.92365	-1.90727
H	1.40207	-1.41714	-1.72949
N	-2.39704	-0.636739	-0.487138
C	-3.68151	-0.805384	0.151524
H	-2.35507	-0.702828	-1.47857
H	-4.47465	-0.996165	-0.604624
H	-3.95752	0.108432	0.72601
H	-3.65834	-1.66475	0.860111
C	5.7701	-0.705951	0.768972
C	4.73321	-0.101055	-0.0971206
O	5.03243	0.668261	-0.999912
H	6.77027	-0.330434	0.461553
H	5.75501	-1.81162	0.668889
H	5.59246	-0.428524	1.82942
N	3.4689	-0.440133	0.165422
C	2.34817	0.100007	-0.563119
C	1.14384	0.10794	0.359424
O	1.18565	-0.449619	1.45445
H	3.238	-1.03551	0.929661
H	2.5574	1.1286	-0.82928
C	2.0564	-0.737899	-1.82725
H	1.83134	-1.79084	-1.55393
H	1.20419	-0.323996	-2.40427
H	2.95377	-0.736301	-2.4838
N	0.0378394	0.752481	-0.0617056
C	-1.15461	0.817502	0.750701
H	0.024551	1.20117	-0.949159
H	-1.95374	1.39074	0.231047
H	-0.940604	1.31736	1.72314
H	-1.53994	-0.205434	0.965791
