44
  This energy is -1.8417 and Call times are: 24644
C	-0.751231	-0.693406	-3.32679
C	-0.745857	0.207776	-2.15249
O	-1.02487	1.39364	-2.26336
H	-1.01726	-0.110938	-4.23555
H	-1.49975	-1.50124	-3.18583
H	0.254395	-1.14229	-3.46929
N	-0.420055	-0.344982	-0.981723
C	-0.329744	0.412871	0.241413
C	0.683188	-0.265449	1.14441
O	1.14354	-1.36878	0.857278
H	-0.155597	-1.30279	-0.914359
H	0.0473817	1.40368	0.0207279
C	-1.70472	0.499785	0.939361
H	-2.08722	-0.51608	1.17547
H	-1.65121	1.09265	1.8754
H	-2.43195	0.992228	0.257467
N	1.06198	0.387693	2.26063
C	2.02493	-0.17726	3.177
H	0.681434	1.28144	2.47388
H	2.20456	0.51081	4.03229
H	2.99666	-0.358706	2.66311
H	1.66051	-1.14994	3.5798
C	6.49776	1.48616	-3.04428
C	6.57066	1.42066	-1.56728
O	7.35625	2.11831	-0.940728
H	7.24815	2.2168	-3.41701
H	5.48648	1.81521	-3.36331
H	6.71757	0.489939	-3.48281
N	5.73963	0.563675	-0.969503
C	5.72413	0.35744	0.457305
C	5.25986	-1.06184	0.72504
O	4.8182	-1.76203	-0.184009
H	5.13465	-0.0270609	-1.49571
H	6.73264	0.444875	0.841849
C	4.78996	1.37275	1.15137
H	3.753	1.27628	0.764774
H	4.7801	1.23317	2.2518
H	5.14397	2.40441	0.935314
N	5.35781	-1.52417	1.98705
C	4.94569	-2.86395	2.33535
H	5.72159	-0.944045	2.70829
H	5.10487	-3.05503	3.4195
H	5.5289	-3.61704	1.75743
H	3.86566	-3.01472	2.10743
