44
  This energy is 0 and Call times are: 14144
C	3.38162	-0.613218	-0.548886
C	1.96938	-1.05339	-0.494556
O	1.62818	-2.14188	-0.93636
H	3.9924	-1.39885	-1.04448
H	3.77122	-0.449481	0.477831
H	3.46678	0.328634	-1.13091
N	1.10268	-0.200377	0.0564207
C	-0.311092	-0.469716	0.141643
C	-1.04694	0.856898	0.128529
O	-0.433243	1.91842	0.21945
H	1.38878	0.69898	0.374497
H	-0.623401	-1.02051	-0.736831
C	-0.645459	-1.26172	1.42467
H	-0.334829	-0.692422	2.32659
H	-1.72928	-1.48735	1.49496
H	-0.0900165	-2.22493	1.41661
N	-2.38859	0.826546	0.00566246
C	-3.17275	2.0392	-0.0218686
H	-2.86701	-0.0419818	-0.0707885
H	-4.25492	1.80538	-0.128854
H	-2.86753	2.68499	-0.876895
H	-3.03066	2.62057	0.917793
C	681.975	-1.33724	3.06182
C	682.004	-1.31191	1.58208
O	682.818	-1.97489	0.953848
H	682.782	-2.00513	3.43399
H	680.996	-1.72247	3.41841
H	682.139	-0.315842	3.46539
N	681.103	-0.53016	0.983694
C	681.036	-0.368778	-0.447418
C	680.471	1.00799	-0.742381
O	680.008	1.70478	0.158377
H	680.473	0.0350614	1.50963
H	682.038	-0.401102	-0.857513
C	680.154	-1.4641	-1.08569
H	679.123	-1.42458	-0.673003
H	680.106	-1.35893	-2.18894
H	680.582	-2.46313	-0.850325
N	680.505	1.43729	-2.01932
C	679.995	2.73577	-2.39399
H	680.888	0.860814	-2.73366
H	680.113	2.90396	-3.4872
H	680.542	3.54289	-1.85441
H	678.914	2.82179	-2.14018
