44
  This energy is -5.6409 and Call times are: 30038
C	0.636154	0.230488	3.41392
C	0.0161734	0.732454	2.16701
O	-0.816135	1.62863	2.19017
H	0.208473	0.776834	4.28253
H	1.73362	0.397002	3.3896
H	0.429598	-0.85391	3.53437
N	0.413911	0.153483	1.03168
C	-0.130272	0.504763	-0.256354
C	-0.0409055	-0.713651	-1.15582
O	0.580014	-1.71393	-0.801384
H	1.06199	-0.602734	1.03267
H	-1.17967	0.74828	-0.146426
C	0.639305	1.69223	-0.875154
H	1.71397	1.43912	-0.997896
H	0.220945	1.98121	-1.86105
H	0.567093	2.57002	-0.196464
N	-0.671169	-0.659999	-2.34574
C	-0.645819	-1.77343	-3.26542
H	-1.17193	0.156578	-2.61315
H	-1.22148	-1.5355	-4.18696
H	-1.0931	-2.67999	-2.79707
H	0.400926	-2.01716	-3.55878
C	7.30572	2.5662	0.459389
C	5.92207	2.07619	0.268189
O	4.96101	2.81662	0.424868
H	7.27808	3.63524	0.763082
H	7.87784	2.47637	-0.487899
H	7.81292	1.97979	1.25434
N	5.78925	0.793816	-0.0786071
C	4.50567	0.162402	-0.258342
C	4.65581	-1.31334	0.059809
O	5.76629	-1.80829	0.243004
H	6.57918	0.193121	-0.162421
H	3.80152	0.575716	0.45297
C	3.99318	0.355592	-1.70239
H	4.71017	-0.0776186	-2.43198
H	2.99916	-0.114261	-1.84962
H	3.8985	1.4427	-1.91586
N	3.53221	-2.05283	0.141507
C	3.57662	-3.46427	0.444894
H	2.64249	-1.63359	-0.00586046
H	2.55097	-3.89409	0.467638
H	4.05146	-3.63787	1.43771
H	4.16991	-4.0127	-0.322159
