44
  This energy is 0 and Call times are: 9244
C	-0.759578	1.04171	-3.23273
C	-0.354655	0.00216285	-2.25984
O	-0.325359	-1.18018	-2.5723
H	-1.02128	0.5584	-4.19907
H	0.0753448	1.75385	-3.40159
H	-1.64591	1.59428	-2.85566
N	-0.0301956	0.428083	-1.03686
C	0.342322	-0.468454	0.0289809
C	-0.0417875	0.177863	1.34666
O	-0.423447	1.34593	1.38757
H	-0.0983445	1.38942	-0.785731
H	-0.228006	-1.38474	-0.0592195
C	1.85704	-0.767867	-0.0060296
H	2.44262	0.170707	0.0950146
H	2.15404	-1.46812	0.801414
H	2.11674	-1.23298	-0.982031
N	0.043008	-0.575493	2.4608
C	-0.30688	-0.0473769	3.75882
H	0.350068	-1.5199	2.40705
H	-0.170844	-0.819933	4.54741
H	-1.37004	0.285404	3.7739
H	0.332771	0.82889	4.01208
C	328.192	-1.48436	-1.42256
C	329.362	-0.579681	-1.48746
O	329.735	-0.102788	-2.55034
H	327.785	-1.63268	-2.44644
H	327.4	-1.04129	-0.782091
H	328.493	-2.47006	-1.0092
N	329.977	-0.321692	-0.331213
C	331.155	0.505495	-0.240937
C	331.967	0.042854	0.953709
O	331.51	-0.777854	1.74677
H	329.687	-0.749862	0.519689
H	331.764	0.356308	-1.1232
C	330.773	1.99451	-0.0920806
H	330.156	2.14979	0.818624
H	331.671	2.64319	-0.0354827
H	330.172	2.30915	-0.973274
N	333.204	0.55647	1.10549
C	334.052	0.171133	2.20914
H	333.558	1.2163	0.451112
H	335.028	0.701814	2.1587
H	334.248	-0.925482	2.18979
H	333.568	0.418312	3.18174
