44
  This energy is 0 and Call times are: 11960
C	-2.1277	-2.63972	-0.785776
C	-1.17059	-1.57829	-1.17106
O	-0.700479	-1.52899	-2.29933
H	-2.29059	-3.31898	-1.65062
H	-3.10009	-2.19052	-0.493489
H	-1.72322	-3.22986	0.0634678
N	-0.854602	-0.691871	-0.224074
C	0.0950126	0.372041	-0.435926
C	0.73579	0.706634	0.897868
O	0.305291	0.221957	1.9426
H	-1.214	-0.769153	0.701524
H	0.881677	0.0230883	-1.09321
C	-0.596147	1.6178	-1.03227
H	-1.39625	1.98247	-0.353383
H	0.127065	2.43928	-1.21296
H	-1.06477	1.34773	-2.00377
N	1.79257	1.54281	0.891611
C	2.46997	1.91404	2.11206
H	2.12898	1.92163	0.0358074
H	3.31245	2.60825	1.8987
H	2.87931	1.013	2.62377
H	1.76747	2.41997	2.81325
C	526.065	-2.33239	2.35362
C	524.998	-1.63238	1.6025
O	523.84	-2.02337	1.63546
H	525.628	-3.20841	2.88075
H	526.515	-1.64953	3.104
H	526.853	-2.68828	1.65712
N	525.374	-0.564438	0.894888
C	524.458	0.193588	0.0793324
C	525.242	0.810508	-1.06369
O	526.47	0.762113	-1.08326
H	526.328	-0.282701	0.845183
H	523.728	-0.477304	-0.355518
C	523.758	1.29116	0.910332
H	524.506	1.98587	1.34801
H	523.04	1.87287	0.296758
H	523.197	0.817557	1.74552
N	524.544	1.40156	-2.05332
C	525.204	2.01063	-3.18447
H	523.55	1.42709	-2.02186
H	524.459	2.44224	-3.88887
H	525.813	1.25801	-3.73599
H	525.884	2.82684	-2.84982
