44
  This energy is 0 and Call times are: 13528
C	2.76392	1.05262	1.83451
C	1.88194	-0.00941504	1.30034
O	2.20265	-1.18836	1.3607
H	3.6902	0.59108	2.24053
H	2.24945	1.60311	2.65
H	3.04049	1.76261	1.02672
N	0.732119	0.393043	0.754161
C	-0.20904	-0.519594	0.154266
C	-0.966355	0.225901	-0.928447
O	-0.848611	1.4432	-1.05509
H	0.503665	1.35922	0.675548
H	0.331542	-1.32529	-0.326628
C	-1.1862	-1.07846	1.21166
H	-1.74863	-0.25306	1.69788
H	-1.90723	-1.79314	0.764601
H	-0.609676	-1.61294	1.99798
N	-1.76044	-0.49428	-1.74502
C	-2.51541	0.128294	-2.80738
H	-1.8396	-1.47889	-1.6295
H	-3.10619	-0.630218	-3.36672
H	-1.83447	0.640946	-3.52487
H	-3.21918	0.887903	-2.39648
C	640.422	-0.0419505	-0.630898
C	639.028	-0.393732	-0.982054
O	638.749	-0.852556	-2.08105
H	641.083	-0.247179	-1.50098
H	640.765	-0.6508	0.232065
H	640.492	1.03596	-0.373283
N	638.107	-0.180258	-0.0396442
C	636.703	-0.432938	-0.248575
C	635.915	0.514396	0.636477
O	636.481	1.20234	1.48372
H	638.344	0.232023	0.835435
H	636.447	-0.202678	-1.27538
C	636.351	-1.90028	0.080963
H	636.604	-2.134	1.1373
H	635.276	-2.11104	-0.0892132
H	636.945	-2.57566	-0.57288
N	634.581	0.577962	0.453049
C	633.751	1.45474	1.24483
H	634.142	0.0165667	-0.24029
H	632.684	1.36341	0.943686
H	634.062	2.51623	1.11305
H	633.832	1.20268	2.32691
