44
  This energy is 0 and Call times are: 13248
C	1.31017	-2.58642	1.92525
C	1.35837	-1.20756	1.38899
O	2.15249	-0.385942	1.82571
H	2.06139	-2.69087	2.73804
H	1.54459	-3.31742	1.12311
H	0.301947	-2.80148	2.33796
N	0.492423	-0.91914	0.414658
C	0.390835	0.391646	-0.177017
C	-1.03354	0.58196	-0.663334
O	-1.82725	-0.357015	-0.670722
H	-0.175537	-1.58654	0.097993
H	0.575409	1.14152	0.582099
C	1.38765	0.547902	-1.34628
H	1.19199	-0.214487	-2.13019
H	1.32883	1.55784	-1.80135
H	2.42259	0.396758	-0.968925
N	-1.39422	1.81318	-1.07569
C	-2.73001	2.09033	-1.55007
H	-0.739099	2.56124	-1.05844
H	-2.82963	3.15883	-1.84265
H	-3.48155	1.8726	-0.756941
H	-2.97102	1.45993	-2.43644
C	619.954	0.555736	1.75397
C	618.484	0.393142	1.69576
O	617.821	0.26236	2.71528
H	620.286	0.516925	2.81417
H	620.248	1.53481	1.32081
H	620.452	-0.261823	1.19123
N	617.934	0.395601	0.479095
C	616.522	0.20463	0.259754
C	616.337	-0.428818	-1.10629
O	617.284	-0.53973	-1.88256
H	618.492	0.461967	-0.343444
H	616.138	-0.492876	0.993495
C	615.765	1.54806	0.340759
H	616.152	2.26041	-0.418839
H	614.675	1.41245	0.187288
H	615.921	1.99732	1.34583
N	615.106	-0.869459	-1.4295
C	614.836	-1.49079	-2.70513
H	614.353	-0.774594	-0.786507
H	613.765	-1.78464	-2.78082
H	615.46	-2.40402	-2.83719
H	615.067	-0.79062	-3.5402
