44
  This energy is 0 and Call times are: 14536
C	1.2338	-3.14053	0.852946
C	0.115445	-2.2069	0.590699
O	-1.0335	-2.61133	0.477716
H	0.841514	-4.17967	0.899549
H	1.71787	-2.89536	1.82161
H	1.98511	-3.07627	0.0377797
N	0.433682	-0.91471	0.484217
C	-0.539139	0.107236	0.187893
C	0.167645	1.23714	-0.536898
O	1.39339	1.25537	-0.631416
H	1.37892	-0.605648	0.537862
H	-1.28385	-0.29378	-0.488294
C	-1.20528	0.626353	1.48096
H	-0.442918	1.04746	2.17053
H	-1.96633	1.40394	1.26491
H	-1.70944	-0.218637	1.9988
N	-0.595511	2.20809	-1.07624
C	-0.0114979	3.32023	-1.78916
H	-1.58594	2.17382	-0.992885
H	-0.802361	4.01057	-2.15683
H	0.574932	2.9606	-2.66554
H	0.675376	3.89482	-1.12644
C	710.06	1.51742	2.94745
C	709.751	1.55502	1.50021
O	709.691	2.6153	0.893023
H	710.191	2.5558	3.32201
H	710.997	0.949987	3.12414
H	709.227	1.03756	3.50392
N	709.542	0.377286	0.907138
C	709.19	0.255866	-0.485649
C	708.369	-1.00831	-0.657525
O	708.249	-1.81158	0.265527
H	709.554	-0.47435	1.42332
H	708.561	1.09022	-0.76905
C	710.454	0.205425	-1.37181
H	711.095	-0.65654	-1.08847
H	710.196	0.125918	-2.44773
H	711.043	1.13665	-1.22393
N	707.774	-1.21035	-1.84977
C	706.969	-2.38216	-2.10383
H	707.88	-0.546979	-2.58317
H	706.567	-2.36569	-3.14076
H	706.11	-2.42972	-1.39559
H	707.573	-3.30946	-1.97657
