44
  This energy is -4.6543 and Call times are: 22171
C	1.52657	-1.9516	-2.44408
C	1.03907	-1.73888	-1.06269
O	0.973964	-2.66394	-0.264929
H	1.77449	-3.02614	-2.58469
H	2.439	-1.34555	-2.6255
H	0.741451	-1.66528	-3.17531
N	0.677646	-0.493269	-0.746138
C	0.143389	-0.139554	0.545379
C	-0.775862	1.05394	0.366231
O	-0.830964	1.65091	-0.707225
H	0.697683	0.240993	-1.41869
H	-0.459507	-0.957876	0.91887
C	1.27761	0.194879	1.53882
H	1.89002	1.04124	1.16112
H	0.879617	0.455424	2.54094
H	1.94224	-0.689778	1.64836
N	-1.53011	1.42587	1.41923
C	-2.43818	2.54631	1.34041
H	-1.47471	0.927908	2.27832
H	-2.96733	2.69246	2.30781
H	-3.20077	2.37868	0.545655
H	-1.88639	3.4831	1.09733
C	4.37003	-2.83074	0.423498
C	4.93919	-1.75208	-0.415365
O	4.841	-1.77963	-1.63439
H	3.90193	-3.59726	-0.231637
H	3.5957	-2.41819	1.10391
H	5.17095	-3.31169	1.02373
N	5.55964	-0.76235	0.23106
C	6.20031	0.33462	-0.450663
C	7.33818	0.83293	0.420263
O	7.47685	0.42254	1.57094
H	5.66714	-0.774691	1.22108
H	6.63508	-0.024365	-1.37518
C	5.19467	1.47271	-0.731165
H	4.7562	1.84849	0.217822
H	5.67275	2.31748	-1.26812
H	4.36682	1.08344	-1.3632
N	8.18935	1.72972	-0.115728
C	9.30481	2.25607	0.635858
H	8.06317	2.04679	-1.04987
H	9.88646	2.97882	0.0222192
H	9.98824	1.43477	0.95156
H	8.94896	2.78046	1.55211
