44
  This energy is 0 and Call times are: 14228
C	2.50709	1.2028	-2.09295
C	1.61852	0.12103	-1.61197
O	1.51576	-0.93297	-2.22428
H	2.99189	0.885336	-3.04167
H	3.2951	1.41405	-1.33986
H	1.91905	2.12576	-2.28121
N	0.943806	0.363906	-0.485842
C	0.00874873	-0.575016	0.082184
C	-1.03996	0.207552	0.849878
O	-0.907621	1.41423	1.04516
H	1.00673	1.2424	-0.0209245
H	-0.500701	-1.09944	-0.716611
C	0.728088	-1.57481	1.01396
H	1.24212	-1.03805	1.83961
H	0.0208423	-2.3117	1.44676
H	1.49624	-2.13049	0.432998
N	-2.11806	-0.465113	1.29848
C	-3.17006	0.197122	2.03395
H	-2.20936	-1.44048	1.12705
H	-3.96808	-0.524971	2.31498
H	-3.62933	1.00571	1.42032
H	-2.76873	0.656759	2.96605
C	690.12	-0.667715	1.39047
C	689.067	0.271002	0.942427
O	689.119	1.46081	1.22184
H	690.875	-0.113605	1.98874
H	690.622	-1.12635	0.512965
H	689.677	-1.4666	2.02193
N	688.069	-0.253778	0.226666
C	686.951	0.525484	-0.242746
C	685.749	-0.393109	-0.356321
O	685.871	-1.60966	-0.227194
H	688.02	-1.2312	0.0421346
H	686.71	1.283	0.492497
C	687.266	1.17625	-1.60748
H	687.503	0.398929	-2.36479
H	686.417	1.79028	-1.97309
H	688.153	1.83772	-1.50249
N	684.549	0.173221	-0.593977
C	683.349	-0.620849	-0.712289
H	684.469	1.15973	-0.691389
H	682.466	0.0274229	-0.907155
H	683.163	-1.19368	0.225018
H	683.44	-1.34969	-1.54986
