44
  This energy is 0 and Call times are: 13416
C	-2.45878	0.890071	2.29671
C	-1.16758	0.254351	1.95057
O	-0.387644	-0.108894	2.82015
H	-2.54301	0.972304	3.40216
H	-3.30189	0.275621	1.91677
H	-2.51487	1.9075	1.85537
N	-0.909145	0.106009	0.649197
C	0.323977	-0.455907	0.15704
C	0.603396	0.140681	-1.20955
O	-0.240587	0.82824	-1.7811
H	-1.53567	0.44385	-0.0473673
H	1.13631	-0.161468	0.809762
C	0.231895	-1.99498	0.0674346
H	-0.594621	-2.29749	-0.610351
H	1.18004	-2.44064	-0.297151
H	0.0190723	-2.4093	1.07708
N	1.80696	-0.1037	-1.76428
C	2.16419	0.426942	-3.05927
H	2.47831	-0.658942	-1.28463
H	3.19406	0.115511	-3.34141
H	2.12431	1.54033	-3.05213
H	1.46037	0.0613008	-3.84163
C	629.466	2.90713	-1.85573
C	629.942	1.8787	-0.903188
O	631.119	1.81439	-0.576616
H	630.328	3.52746	-2.18664
H	628.717	3.56434	-1.3667
H	629.01	2.4233	-2.74463
N	629.021	1.03595	-0.430828
C	629.339	-0.0438198	0.470032
C	628.33	-1.15588	0.249891
O	627.344	-0.979845	-0.462907
H	628.074	1.07513	-0.73751
H	630.315	-0.440147	0.221947
C	629.305	0.434552	1.93812
H	628.3	0.83153	2.19624
H	629.562	-0.384477	2.64084
H	630.045	1.25351	2.07419
N	628.561	-2.33777	0.85482
C	627.66	-3.45544	0.698824
H	629.367	-2.46231	1.42446
H	628.022	-4.33627	1.2732
H	627.576	-3.74632	-0.373444
H	626.641	-3.19282	1.06527
