44
  This energy is -4.9449 and Call times are: 23167
C	-0.113036	-3.35011	0.936298
C	0.101355	-2.28424	-0.0682374
O	0.593341	-2.53324	-1.16019
H	0.251318	-4.31795	0.528349
H	-1.1943	-3.44318	1.17072
H	0.447934	-3.11809	1.86612
N	-0.267899	-1.05133	0.286671
C	-0.0824374	0.0955464	-0.567053
C	0.0799163	1.31979	0.314099
O	-0.120069	1.25483	1.5255
H	-0.62911	-0.857516	1.19432
H	0.83604	-0.0218679	-1.12852
C	-1.28271	0.271666	-1.52286
H	-2.22375	0.402711	-0.947267
H	-1.14551	1.14343	-2.19497
H	-1.38739	-0.638993	-2.15222
N	0.457324	2.47032	-0.277402
C	0.64235	3.68519	0.481572
H	0.618431	2.50216	-1.25827
H	0.95316	4.52086	-0.183456
H	1.4272	3.5463	1.26003
H	-0.303375	3.97699	0.993037
C	7.38971	0.756694	-2.36389
C	6.15591	0.0554262	-1.94304
O	5.44721	-0.521768	-2.75607
H	7.50494	0.667793	-3.46602
H	8.27514	0.301811	-1.87212
H	7.32937	1.83226	-2.09449
N	5.86692	0.0930785	-0.640177
C	4.67838	-0.506208	-0.0863058
C	4.29275	0.270953	1.15824
O	5.04383	1.125	1.62535
H	6.43174	0.601612	0.00343273
H	3.86487	-0.406244	-0.794002
C	4.91847	-1.99287	0.256385
H	5.74599	-2.09525	0.990399
H	4.00643	-2.46924	0.670844
H	5.20711	-2.54043	-0.667305
N	3.10006	-0.00352959	1.72228
C	2.64613	0.689328	2.90553
H	2.50432	-0.695091	1.32742
H	1.64253	0.322983	3.21508
H	2.57627	1.78509	2.71656
H	3.35409	0.529204	3.75068
