44
  This energy is -2.7069 and Call times are: 25145
C	1.8106	1.78611	2.37575
C	1.41276	0.51867	1.72272
O	2.00856	-0.525097	1.95073
H	2.68818	1.60114	3.03266
H	0.975098	2.1769	2.99378
H	2.08785	2.54071	1.60972
N	0.379686	0.584261	0.879612
C	-0.0958212	-0.556347	0.137005
C	-0.71667	-0.055261	-1.15335
O	-0.89841	1.14639	-1.33972
H	-0.0691155	1.44902	0.673117
H	0.7451	-1.1834	-0.13186
C	-1.12844	-1.35837	0.959015
H	-1.99628	-0.718402	1.2261
H	-1.49186	-2.24703	0.403384
H	-0.654772	-1.70827	1.90218
N	-1.05067	-0.971351	-2.08354
C	-1.64191	-0.587624	-3.34424
H	-0.89213	-1.93878	-1.91618
H	-1.84363	-1.48293	-3.9727
H	-0.960122	0.0897563	-3.9078
H	-2.60394	-0.0503926	-3.17987
C	6.50479	1.16302	2.91475
C	5.95724	1.37651	1.55616
O	5.77336	2.5036	1.11769
H	6.67442	2.14806	3.40133
H	7.47128	0.619621	2.85679
H	5.78808	0.577675	3.52856
N	5.6781	0.278698	0.849551
C	5.10035	0.325613	-0.470509
C	4.29037	-0.940337	-0.677569
O	4.34443	-1.86238	0.133987
H	5.79482	-0.631962	1.23547
H	4.41407	1.16109	-0.530593
C	6.19865	0.448258	-1.54937
H	6.89687	-0.41405	-1.495
H	5.76572	0.499268	-2.56942
H	6.78369	1.37732	-1.37355
N	3.50882	-1.0104	-1.77314
C	2.69842	-2.17339	-2.05041
H	3.47521	-0.252459	-2.41615
H	2.12789	-2.03887	-2.99573
H	1.9718	-2.3517	-1.22488
H	3.33575	-3.08155	-2.1515
