44
  This energy is -3.4508 and Call times are: 25552
C	0.259212	-1.01233	-3.31974
C	-0.537435	-0.624056	-2.1341
O	-1.73589	-0.395897	-2.22381
H	-0.399314	-1.02916	-4.21525
H	0.69393	-2.02357	-3.17428
H	1.07643	-0.279653	-3.48835
N	0.123652	-0.537112	-0.977477
C	-0.506529	-0.129204	0.253394
C	0.544164	0.530124	1.12683
O	1.73327	0.495974	0.816063
H	1.10714	-0.685994	-0.927992
H	-1.26142	0.61674	0.0381209
C	-1.13288	-1.33955	0.980014
H	-0.357008	-2.10044	1.21048
H	-1.63328	-1.03637	1.92246
H	-1.89287	-1.81113	0.319427
N	0.125123	1.15718	2.24362
C	1.05222	1.81735	3.13292
H	-0.841611	1.17761	2.47617
H	0.514757	2.27348	3.99333
H	1.60401	2.62346	2.5972
H	1.79941	1.09279	3.53023
C	4.82526	1.03769	3.32194
C	4.75362	1.3167	1.86999
O	4.44651	2.42485	1.45275
H	4.5487	1.95472	3.88624
H	5.85696	0.739649	3.60391
H	4.11916	0.22384	3.59052
N	5.03849	0.298192	1.0552
C	4.96987	0.404328	-0.380971
C	4.64638	-0.967712	-0.94172
O	4.65212	-1.96137	-0.217617
H	5.24688	-0.608897	1.40962
H	4.15486	1.06387	-0.651889
C	6.30349	0.925276	-0.960015
H	7.13827	0.243391	-0.691257
H	6.25875	1.02455	-2.06395
H	6.52408	1.92663	-0.529936
N	4.34648	-1.05255	-2.25278
C	4.02025	-2.31532	-2.87339
H	4.34303	-0.236794	-2.82164
H	3.80368	-2.1773	-3.95565
H	3.12421	-2.76976	-2.39185
H	4.86684	-3.0326	-2.77371
