44
  This energy is -2.3501 and Call times are: 25042
C	1.86437	-1.06651	2.7385
C	0.731915	-1.21231	1.79646
O	0.0643352	-2.23682	1.76292
H	1.97273	-2.00148	3.33007
H	1.67758	-0.22108	3.43355
H	2.80621	-0.883874	2.17932
N	0.488789	-0.172412	0.995288
C	-0.551669	-0.182012	-0.00266719
C	-0.132678	0.740669	-1.13168
O	0.854255	1.4653	-1.01947
H	1.06653	0.638737	1.006
H	-0.640372	-1.17869	-0.416674
C	-1.89803	0.276037	0.599619
H	-1.81039	1.30257	1.01507
H	-2.71032	0.259701	-0.155653
H	-2.18099	-0.408579	1.42882
N	-0.874117	0.72859	-2.25691
C	-0.548456	1.5687	-3.38578
H	-1.66672	0.132405	-2.33045
H	-1.27546	1.41456	-4.21338
H	0.471865	1.3354	-3.76761
H	-0.570736	2.6439	-3.09494
C	7.30692	0.987176	3.33098
C	6.53169	0.56697	2.14202
O	5.34872	0.26844	2.23077
H	6.65042	0.955286	4.22756
H	7.68178	2.02361	3.19671
H	8.1657	0.301374	3.48983
N	7.19427	0.532034	0.983508
C	6.58628	0.102443	-0.251138
C	7.67169	-0.484478	-1.13373
O	8.85745	-0.384807	-0.824297
H	8.16732	0.738446	0.934352
H	5.87651	-0.688598	-0.0435125
C	5.88906	1.28264	-0.962662
H	6.61888	2.08999	-1.18533
H	5.40515	0.961791	-1.90786
H	5.10433	1.70151	-0.295519
N	7.28747	-1.12187	-2.25717
C	8.2495	-1.71664	-3.15545
H	6.32307	-1.19581	-2.48856
H	7.73766	-2.19327	-4.02037
H	8.84838	-2.49543	-2.62999
H	8.95245	-0.945283	-3.54534
