44
  This energy is 0 and Call times are: 11596
C	-2.67775	-0.0293894	2.22294
C	-2.11939	-0.105981	0.85418
O	-2.81068	-0.454803	-0.0928435
H	-3.74375	-0.344212	2.20291
H	-2.61769	1.01208	2.60304
H	-2.11656	-0.703965	2.90346
N	-0.83237	0.222185	0.719051
C	-0.137768	0.155367	-0.542545
C	1.32896	-0.111458	-0.261376
O	1.76798	-0.0695427	0.886326
H	-0.272011	0.464711	1.50585
H	-0.514577	-0.683878	-1.11379
C	-0.306684	1.4698	-1.33562
H	0.0893347	2.32969	-0.754407
H	0.212115	1.42574	-2.31512
H	-1.38794	1.64897	-1.52307
N	2.1238	-0.402365	-1.31001
C	3.53159	-0.675998	-1.13842
H	1.74941	-0.43562	-2.23076
H	4.01218	-0.89336	-2.11771
H	3.68232	-1.55541	-0.471193
H	4.04883	0.197793	-0.680058
C	499.669	1.53546	3.0509
C	498.921	0.569907	2.21398
O	498.192	-0.272597	2.71801
H	499.457	1.33305	4.12326
H	499.354	2.57299	2.81194
H	500.76	1.43063	2.87425
N	499.092	0.672125	0.893853
C	498.466	-0.223563	-0.0462921
C	499.353	-0.316972	-1.27358
O	500.318	0.432106	-1.41161
H	499.721	1.33661	0.500667
H	498.41	-1.21428	0.387228
C	497.058	0.279107	-0.432879
H	497.116	1.2911	-0.887331
H	496.559	-0.409352	-1.14578
H	496.428	0.34731	0.481389
N	499.048	-1.25178	-2.19528
C	499.839	-1.41803	-3.39277
H	498.266	-1.85138	-2.06397
H	499.429	-2.23698	-4.024
H	500.893	-1.66828	-3.13568
H	499.843	-0.480228	-3.99414
