44
  This energy is 0 and Call times are: 14732
C	-0.160675	2.39441	-2.52065
C	0.563183	1.35462	-1.75514
O	1.64063	0.92091	-2.13907
H	0.420903	2.65061	-3.43279
H	-0.28224	3.30915	-1.90323
H	-1.16026	2.01891	-2.82548
N	-0.0250386	0.923611	-0.636833
C	0.536614	-0.114906	0.190567
C	-0.603367	-0.829909	0.891114
O	-1.75069	-0.39141	0.835507
H	-0.921511	1.25677	-0.358971
H	1.03551	-0.841883	-0.43811
C	1.52193	0.474888	1.2233
H	1.00807	1.213	1.87536
H	1.97168	-0.316433	1.85738
H	2.34327	1.00007	0.688577
N	-0.312631	-1.96047	1.56441
C	-1.33358	-2.7115	2.25709
H	0.620999	-2.30179	1.59456
H	-0.896497	-3.60828	2.749
H	-2.12179	-3.05075	1.54652
H	-1.82026	-2.08467	3.03898
C	722.885	1.64297	3.06599
C	723.611	0.896102	2.01401
O	724.831	0.809944	2.02625
H	723.618	2.07696	3.78032
H	722.205	0.961657	3.61878
H	722.295	2.46666	2.61225
N	722.863	0.332183	1.06304
C	723.428	-0.390007	-0.0495499
C	722.475	-0.269905	-1.22412
O	721.357	0.220477	-1.08041
H	721.874	0.445625	1.044
H	724.36	0.076388	-0.341642
C	723.655	-1.87377	0.313962
H	722.697	-2.35546	0.603554
H	724.102	-2.43751	-0.530073
H	724.348	-1.93729	1.18064
N	722.903	-0.710639	-2.42365
C	722.068	-0.632119	-3.59944
H	723.812	-1.10059	-2.52096
H	722.597	-1.0445	-4.48633
H	721.793	0.425601	-3.81598
H	721.127	-1.2103	-3.45257
