44
  This energy is 0 and Call times are: 9888
C	-2.89721	1.91317	0.242215
C	-2.07142	0.876431	-0.416868
O	-2.5406	0.147766	-1.28019
H	-3.93106	1.87262	-0.164461
H	-2.47365	2.92083	0.0473748
H	-2.93456	1.73356	1.3374
N	-0.801508	0.785236	-0.0151299
C	0.112265	-0.202491	-0.532793
C	1.13772	-0.507865	0.542728
O	1.19561	0.168434	1.5679
H	-0.445313	1.35804	0.717597
H	-0.428313	-1.11925	-0.732677
C	0.807193	0.306895	-1.81453
H	1.37057	1.24167	-1.60758
H	1.50309	-0.45016	-2.23061
H	0.0374271	0.531537	-2.58481
N	1.97059	-1.54684	0.335623
C	2.97494	-1.91557	1.30593
H	1.90571	-2.08482	-0.498309
H	3.55847	-2.79443	0.953339
H	2.50239	-2.17675	2.28048
H	3.68167	-1.07215	1.47999
C	376.365	3.25309	-1.06171
C	376.017	2.04655	-0.278164
O	375.128	2.07217	0.561632
H	375.722	4.0999	-0.73776
H	376.198	3.06823	-2.14367
H	377.429	3.52474	-0.893268
N	376.724	0.944721	-0.539031
C	376.53	-0.294505	0.171665
C	377.845	-1.04976	0.174105
O	378.794	-0.664147	-0.506229
H	377.472	0.950313	-1.19649
H	376.279	-0.0793538	1.203
C	375.42	-1.14154	-0.489534
H	375.682	-1.37144	-1.54449
H	375.252	-2.09218	0.0566569
H	374.469	-0.566205	-0.487437
N	377.935	-2.14656	0.951882
C	379.149	-2.92571	1.02242
H	377.158	-2.44056	1.4984
H	379.024	-3.78675	1.71541
H	379.996	-2.30113	1.38865
H	379.422	-3.32113	0.0170953
