44
  This energy is 0.1004 and Call times are: 31353
C	-3.12393	-0.108433	-1.53035
C	-2.24201	0.230781	-0.390925
O	-2.64055	0.926899	0.532648
H	-4.11464	0.374362	-1.38441
H	-3.26541	-1.20802	-1.59066
H	-2.68115	0.259716	-2.47982
N	-1.00152	-0.260882	-0.433752
C	-0.0155329	0.0180703	0.580436
C	1.35669	-0.0477606	-0.0631615
O	1.49407	-0.462805	-1.21233
H	-0.679051	-0.791962	-1.21211
H	-0.153132	1.02876	0.944033
C	-0.117728	-0.994123	1.74244
H	0.0338424	-2.03026	1.37166
H	0.627243	-0.781542	2.53639
H	-1.13239	-0.934143	2.19323
N	2.4099	0.371354	0.665626
C	3.75288	0.350667	0.134438
H	2.27826	0.707687	1.59224
H	4.47861	0.734256	0.88503
H	3.82409	0.98563	-0.778265
H	4.05003	-0.686671	-0.142635
C	4.30526	1.63652	-2.80337
C	3.48582	1.60456	-1.57104
O	3.01923	2.62998	-1.09436
H	4.40692	2.68799	-3.14967
H	3.81735	1.04038	-3.60295
H	5.31676	1.22541	-2.60108
N	3.29197	0.404895	-1.01821
C	2.55294	0.219297	0.205697
C	3.09253	-1.01623	0.90131
O	3.89146	-1.75955	0.334832
H	3.71234	-0.41556	-1.39503
H	2.73071	1.06233	0.861677
C	1.04306	0.0641012	-0.0796689
H	0.859182	-0.806972	-0.744097
H	0.461466	-0.0656163	0.855981
H	0.6715	0.976108	-0.595927
N	2.67149	-1.26038	2.15795
C	3.13503	-2.40915	2.90067
H	2.02792	-0.645141	2.60109
H	2.67493	-2.43472	3.91304
H	4.24238	-2.37926	3.01963
H	2.87007	-3.35273	2.37096
