44
  This energy is 0.1424 and Call times are: 23886
C	-1.60752	-1.20772	2.84077
C	-1.52462	-1.00658	1.37659
O	-2.28463	-1.58713	0.613874
H	-2.41375	-1.93928	3.06594
H	-1.84213	-0.247441	3.34631
H	-0.644858	-1.60343	3.2278
N	-0.581065	-0.166195	0.945507
C	-0.350362	0.0979686	-0.452905
C	1.11158	0.46229	-0.630525
O	1.83599	0.653224	0.344405
H	0.0567068	0.267367	1.5757
H	-0.528846	-0.806211	-1.02144
C	-1.25835	1.24177	-0.955406
H	-1.06816	2.17246	-0.379492
H	-1.10002	1.44538	-2.03429
H	-2.32301	0.956745	-0.808371
N	1.58336	0.559272	-1.88911
C	2.96249	0.895687	-2.15558
H	0.982844	0.397142	-2.66511
H	3.15539	0.925985	-3.25061
H	3.64557	0.142549	-1.70009
H	3.21357	1.89306	-1.72739
C	-0.0948227	0.436715	0.630252
C	1.02286	-0.1844	-0.115504
O	0.833198	-1.12853	-0.869868
H	-1.03853	-0.100593	0.392405
H	-0.204488	1.50224	0.33806
H	0.0907584	0.370524	1.72307
N	2.23405	0.340286	0.0847957
C	3.42463	-0.183815	-0.536798
C	4.60194	0.109301	0.374023
O	4.47308	0.840004	1.35442
H	2.37877	1.08228	0.733151
H	3.34048	-1.26029	-0.618873
C	3.64534	0.44978	-1.92787
H	3.74227	1.55316	-1.843
H	4.55152	0.0441377	-2.42266
H	2.7683	0.229395	-2.57485
N	5.7833	-0.46516	0.0733615
C	6.95771	-0.248402	0.885737
H	5.86692	-1.05665	-0.721764
H	7.82822	-0.806061	0.475291
H	6.78171	-0.593077	1.93049
H	7.21851	0.834207	0.918691
