44
  This energy is 0 and Call times are: 13360
C	-2.16119	-1.09025	-2.50066
C	-1.12512	-0.167529	-1.98462
O	-0.549094	0.6161	-2.72659
H	-2.27239	-0.941595	-3.59675
H	-3.13551	-0.884893	-2.00948
H	-1.86553	-2.14332	-2.30901
N	-0.860047	-0.243694	-0.678359
C	0.152338	0.559245	-0.0388877
C	0.679093	-0.209213	1.15842
O	0.130681	-1.24366	1.53375
H	-1.30814	-0.915031	-0.09493
H	0.980857	0.699921	-0.721821
C	-0.422659	1.92278	0.403134
H	-1.26586	1.77924	1.11196
H	0.350686	2.55581	0.884528
H	-0.809409	2.46418	-0.487747
N	1.76842	0.278269	1.78432
C	2.34393	-0.388171	2.92924
H	2.20069	1.11446	1.46338
H	3.23322	0.16673	3.30134
H	2.66217	-1.42213	2.66293
H	1.60206	-0.45784	3.75745
C	622.821	1.80168	-2.02992
C	623.114	0.692605	-1.09436
O	622.215	0.0293699	-0.597299
H	621.721	1.89888	-2.15106
H	623.275	1.59551	-3.02199
H	623.225	2.75604	-1.63029
N	624.403	0.465353	-0.828288
C	624.842	-0.550849	0.095291
C	626.165	-0.107935	0.691998
O	626.758	0.87365	0.249229
H	625.122	1.04002	-1.20873
H	624.131	-0.626341	0.908169
C	624.998	-1.91275	-0.616151
H	625.736	-1.83845	-1.44347
H	625.322	-2.70665	0.0874022
H	624.02	-2.21326	-1.0519
N	626.655	-0.822144	1.72401
C	627.905	-0.47227	2.35913
H	626.159	-1.61081	2.07101
H	628.137	-1.17872	3.18638
H	627.856	0.557669	2.78117
H	628.742	-0.505028	1.6247
