44
  This energy is 0 and Call times are: 14508
C	-1.96308	1.02091	2.6864
C	-0.829887	0.258284	2.11595
O	0.0132683	-0.256912	2.83711
H	-1.87512	1.03564	3.79452
H	-2.92534	0.541695	2.40861
H	-1.94879	2.06583	2.31086
N	-0.783968	0.170519	0.784574
C	0.280813	-0.501795	0.0825805
C	0.435352	0.149984	-1.27862
O	-0.385103	0.973342	-1.67943
H	-1.45497	0.629829	0.209541
H	1.21045	-0.354664	0.618083
C	-0.0238258	-2.00818	-0.0698196
H	-0.972048	-2.15984	-0.628311
H	0.795104	-2.53956	-0.596617
H	-0.140805	-2.46277	0.938158
N	1.50364	-0.19998	-2.02179
C	1.73622	0.372043	-3.3275
H	2.15881	-0.864902	-1.67869
H	2.66478	-0.0421227	-3.77856
H	1.84382	1.47878	-3.25797
H	0.884965	0.150219	-4.01109
C	709.725	-1.51045	1.55083
C	709.113	-0.766072	0.427495
O	709.802	-0.255423	-0.444287
H	710.832	-1.48726	1.44681
H	709.385	-2.56738	1.54008
H	709.445	-1.04217	2.51801
N	707.78	-0.685388	0.425569
C	707.043	0.0418437	-0.577807
C	705.749	0.530003	0.0464148
O	705.407	0.149818	1.16436
H	707.234	-1.07122	1.16406
H	707.609	0.916616	-0.872742
C	706.75	-0.851786	-1.80281
H	706.16	-1.74402	-1.50251
H	706.195	-0.299145	-2.58841
H	707.71	-1.20392	-2.23858
N	705.001	1.39665	-0.663639
C	703.757	1.91938	-0.148322
H	705.296	1.69584	-1.56478
H	703.29	2.61595	-0.879219
H	703.927	2.47282	0.803425
H	703.038	1.09313	0.0569497
