44
  This energy is 0.1158 and Call times are: 28198
C	-3.10369	0.689906	-1.41557
C	-2.23784	0.40296	-0.249764
O	-2.65117	0.536489	0.8938
H	-4.09828	1.03493	-1.05832
H	-3.23956	-0.227288	-2.02634
H	-2.65047	1.48704	-2.04187
N	-0.994758	-0.0025938	-0.519315
C	-0.0230028	-0.278352	0.509377
C	1.35758	-0.0128086	-0.0607307
O	1.51141	0.21097	-1.25989
H	-0.660077	-0.0671642	-1.4551
H	-0.169656	0.409335	1.33291
C	-0.135544	-1.73937	0.997233
H	0.0252825	-2.4454	0.154798
H	0.598315	-1.96017	1.79924
H	-1.15612	-1.91326	1.40287
N	2.39957	-0.0233425	0.793774
C	3.74928	0.224272	0.343058
H	2.25466	-0.202293	1.76127
H	4.46371	0.172935	1.19405
H	3.82932	1.23384	-0.121318
H	4.05449	-0.530639	-0.41727
C	5.66579	-0.211885	1.63364
C	4.19043	-0.329904	1.61071
O	3.58313	-0.856513	2.53282
H	6.05691	-0.675689	2.56518
H	5.96457	0.857223	1.6116
H	6.10527	-0.73641	0.759108
N	3.57215	0.164672	0.535766
C	2.1446	0.08522	0.350457
C	1.862	0.055915	-1.1398
O	2.75899	0.261957	-1.95506
H	4.08333	0.553585	-0.225353
H	1.78176	-0.84662	0.765961
C	1.43462	1.28631	1.0127
H	1.79888	2.24212	0.579362
H	0.333732	1.22941	0.888878
H	1.66182	1.29239	2.10113
N	0.600688	-0.211214	-1.53189
C	0.238927	-0.265377	-2.92916
H	-0.110615	-0.379298	-0.85745
H	-0.842301	-0.49854	-3.04671
H	0.826324	-1.05141	-3.45679
H	0.443445	0.710443	-3.42624
