44
  This energy is 0 and Call times are: 13920
C	-1.53678	-2.80257	1.37717
C	-1.10703	-1.3876	1.44282
O	-1.50127	-0.646971	2.33302
H	-2.23673	-3.01308	2.21481
H	-0.657199	-3.47421	1.46641
H	-2.05668	-3.00041	0.416097
N	-0.276202	-0.974572	0.482868
C	0.194532	0.384911	0.389197
C	0.479252	0.687378	-1.06991
O	0.458081	-0.206272	-1.9141
H	0.00346329	-1.57823	-0.258246
H	-0.590599	1.05777	0.710856
C	1.46563	0.58863	1.24245
H	2.27484	-0.0940306	0.906
H	1.83	1.63504	1.18965
H	1.23602	0.354035	2.3048
N	0.745815	1.96566	-1.40304
C	1.0233	2.34905	-2.76766
H	0.754349	2.6755	-0.706527
H	1.21728	3.44209	-2.83736
H	0.160137	2.10349	-3.4279
H	1.91784	1.80868	-3.1536
C	667.877	1.75049	-0.877971
C	666.804	0.77476	-1.17389
O	666.64	0.337251	-2.30448
H	668.428	1.98573	-1.81443
H	668.589	1.3246	-0.13968
H	667.441	2.68775	-0.472541
N	666.035	0.408498	-0.145899
C	664.924	-0.499677	-0.286408
C	663.9	-0.16366	0.781675
O	664.163	0.637811	1.67618
H	666.154	0.804411	0.760099
H	664.452	-0.340104	-1.24761
C	665.389	-1.96588	-0.148381
H	665.865	-2.13273	0.841697
H	664.545	-2.67555	-0.268485
H	666.144	-2.18714	-0.93475
N	662.698	-0.767107	0.707053
C	661.659	-0.505128	1.67601
H	662.502	-1.40958	-0.02647
H	660.746	-1.09621	1.44334
H	661.387	0.575118	1.67717
H	662.001	-0.776072	2.70124
