44
  This energy is -7.281 and Call times are: 22241
C	-2.03998	-2.7667	-0.544557
C	-0.802162	-1.99219	-0.787637
O	0.142111	-2.48131	-1.39222
H	-1.92445	-3.78702	-0.970553
H	-2.90458	-2.2694	-1.03231
H	-2.23	-2.85207	0.546176
N	-0.779096	-0.745292	-0.311107
C	0.371033	0.115637	-0.431783
C	0.36316	1.08212	0.737581
O	-0.606601	1.15224	1.49015
H	-1.53972	-0.375167	0.214563
H	1.27242	-0.479221	-0.35255
C	0.346012	0.88527	-1.77054
H	-0.573457	1.50386	-1.84773
H	1.23361	1.54131	-1.88152
H	0.344155	0.158246	-2.61184
N	1.45593	1.8487	0.922564
C	1.54106	2.79328	2.01193
H	2.23236	1.77475	0.305502
H	2.51685	3.3269	1.99439
H	1.44406	2.27235	2.99198
H	0.726231	3.54968	1.94088
C	4.66466	0.405467	3.43509
C	5.49289	0.124911	2.24075
O	6.71373	0.0917239	2.31062
H	5.32844	0.579574	4.3097
H	4.00226	-0.458533	3.653
H	4.046	1.31222	3.26735
N	4.8349	-0.0844169	1.09811
C	5.5045	-0.326691	-0.155484
C	4.60972	0.173178	-1.27399
O	3.45547	0.529799	-1.04545
H	3.84273	-0.0136369	1.04872
H	6.41852	0.252956	-0.19012
C	5.80929	-1.82986	-0.336656
H	4.87092	-2.4239	-0.311746
H	6.33725	-2.02762	-1.292
H	6.45863	-2.17575	0.497043
N	5.12859	0.21863	-2.51686
C	4.35367	0.685217	-3.6429
H	6.06591	-0.0702856	-2.68133
H	4.95577	0.647338	-4.57739
H	4.0214	1.73647	-3.48245
H	3.44649	0.0541871	-3.78424
