44
  This energy is 0 and Call times are: 10868
C	-2.06718	2.60386	1.02926
C	-1.68466	1.17404	1.00807
O	-2.19861	0.369892	1.77332
H	-2.82828	2.76873	1.82262
H	-2.49913	2.89902	0.0499543
H	-1.17927	3.23436	1.24651
N	-0.755586	0.821433	0.116522
C	-0.250157	-0.524269	0.00612291
C	1.17268	-0.453799	-0.515535
O	1.64327	0.607589	-0.920157
H	-0.316937	1.49486	-0.47165
H	-0.210826	-0.972998	0.99087
C	-1.13222	-1.36907	-0.939138
H	-1.16438	-0.914847	-1.95239
H	-0.76134	-2.41126	-1.02162
H	-2.17037	-1.40029	-0.542118
N	1.89765	-1.58976	-0.510045
C	3.26231	-1.61784	-0.982359
H	1.50085	-2.4379	-0.174953
H	3.68711	-2.64225	-0.896705
H	3.89846	-0.92371	-0.386723
H	3.31524	-1.30424	-2.05007
C	448.878	0.0788834	-2.92913
C	447.632	-0.219413	-2.18746
O	446.596	-0.496876	-2.77586
H	448.678	0.0200047	-4.02116
H	449.665	-0.65905	-2.66739
H	449.234	1.10163	-2.68352
N	447.707	-0.165465	-0.855587
C	446.568	-0.3889	0.000205044
C	446.777	0.39929	1.27967
O	447.853	0.944976	1.51519
H	448.547	0.101872	-0.392209
H	445.679	0.00223681	-0.47862
C	446.399	-1.89206	0.311721
H	447.307	-2.29138	0.812467
H	445.517	-2.07856	0.958679
H	446.256	-2.45011	-0.639327
N	445.741	0.484253	2.13724
C	445.844	1.21759	3.37728
H	444.876	0.039385	1.92728
H	444.887	1.17009	3.94317
H	446.083	2.28813	3.18178
H	446.652	0.795091	4.01761
