44
  This energy is 0 and Call times are: 10504
C	-1.29214	-2.52165	2.02097
C	-0.494534	-1.29051	1.82283
O	-0.0933984	-0.636029	2.77527
H	-1.4449	-2.68912	3.10932
H	-0.758031	-3.3965	1.59424
H	-2.28314	-2.41865	1.53066
N	-0.245353	-0.941931	0.558397
C	0.480535	0.252938	0.206355
C	-0.00312186	0.716409	-1.15483
O	-0.749861	0.0118147	-1.83132
H	-0.613367	-1.46237	-0.206834
H	0.24512	1.03611	0.916177
C	2.00154	-0.0135744	0.17866
H	2.24473	-0.809607	-0.557019
H	2.5724	0.902367	-0.0776453
H	2.33191	-0.359164	1.18254
N	0.407916	1.92512	-1.58622
C	-0.00541327	2.45163	-2.86611
H	1.00877	2.48248	-1.02284
H	0.437069	3.45738	-3.03906
H	-1.11471	2.54399	-2.91313
H	0.320264	1.77836	-3.69181
C	418.008	-1.57907	-0.817698
C	418.79	-0.586887	-0.0454888
O	418.235	0.270163	0.628217
H	416.923	-1.38048	-0.679138
H	418.234	-2.60582	-0.460613
H	418.253	-1.50155	-1.89813
N	420.118	-0.682082	-0.13018
C	421.011	0.237977	0.529831
C	422.291	0.318628	-0.280329
O	422.495	-0.454431	-1.21441
H	420.555	-1.35949	-0.715179
H	420.568	1.22602	0.532003
C	421.311	-0.223968	1.97259
H	421.776	-1.23315	1.97032
H	421.987	0.483583	2.49606
H	420.36	-0.2835	2.54458
N	423.185	1.26913	0.056125
C	424.429	1.42489	-0.661474
H	423	1.88801	0.812411
H	425.027	2.25984	-0.234745
H	424.237	1.64496	-1.73668
H	425.036	0.492564	-0.602857
