44
  This energy is -3.4453 and Call times are: 24164
C	0.882126	3.27555	-0.777995
C	0.0754181	2.28608	-0.028795
O	-0.621532	2.6242	0.91796
H	0.743271	4.28123	-0.324981
H	0.555807	3.31102	-1.83866
H	1.95833	3.00592	-0.731388
N	0.155932	1.01933	-0.442601
C	-0.536996	-0.0618022	0.212814
C	0.263443	-1.33322	0.00222835
O	1.21991	-1.35462	-0.770055
H	0.759291	0.75326	-1.18895
H	-0.567398	0.127425	1.2786
C	-1.96634	-0.222396	-0.349697
H	-1.9353	-0.427009	-1.44112
H	-2.51505	-1.04283	0.156587
H	-2.53114	0.722295	-0.191869
N	-0.107039	-2.42747	0.696044
C	0.598759	-3.68076	0.564474
H	-0.881123	-2.38948	1.31928
H	0.143198	-4.4589	1.21577
H	1.66764	-3.56202	0.855455
H	0.565799	-4.0417	-0.488983
C	4.49451	3.05163	1.16065
C	4.7076	2.05935	0.0830868
O	4.14743	2.16963	-0.998794
H	3.77511	3.82399	0.81168
H	5.45406	3.54577	1.42108
H	4.07851	2.55422	2.06209
N	5.5353	1.0495	0.361465
C	5.80823	-0.0160761	-0.570528
C	6.14858	-1.26324	0.223397
O	6.31788	-1.20867	1.43998
H	5.95186	0.95113	1.26072
H	4.91256	-0.230675	-1.14005
C	6.97227	0.360155	-1.51323
H	7.89417	0.570155	-0.930102
H	7.18298	-0.44673	-2.24471
H	6.70454	1.27973	-2.07807
N	6.24885	-2.4257	-0.450868
C	6.56357	-3.66474	0.221373
H	6.10437	-2.45054	-1.43453
H	6.60054	-4.50727	-0.503889
H	5.79447	-3.8996	0.992482
H	7.55244	-3.59589	0.729845
