44
  This energy is -2.4462 and Call times are: 21981
C	2.57181	1.61633	1.6988
C	1.79603	0.402514	1.35828
O	2.18972	-0.710703	1.67792
H	3.50022	1.32069	2.23409
H	1.97352	2.28075	2.35709
H	2.84937	2.16502	0.774145
N	0.657399	0.594526	0.688189
C	-0.183212	-0.491546	0.249579
C	-0.921027	-0.044383	-0.998311
O	-0.876543	1.12655	-1.37067
H	0.370769	1.50352	0.399337
H	0.437643	-1.33443	-0.0273873
C	-1.18367	-0.89578	1.35453
H	-1.82792	-0.0342605	1.63159
H	-1.82741	-1.74039	1.03398
H	-0.621876	-1.21171	2.26058
N	-1.61473	-0.975683	-1.68204
C	-2.34331	-0.64411	-2.88429
H	-1.63549	-1.91887	-1.36734
H	-2.84762	-1.54442	-3.29943
H	-1.65546	-0.238237	-3.66108
H	-3.1194	0.126868	-2.67354
C	5.56332	-0.845895	1.83042
C	6.78211	-0.0334515	1.61679
O	7.00065	0.967691	2.28489
H	4.94885	-0.382344	2.63254
H	5.83935	-1.87607	2.13913
H	4.96317	-0.888214	0.89709
N	7.61535	-0.453285	0.66189
C	8.81979	0.256263	0.309156
C	9.12104	-0.0203204	-1.15178
O	8.48676	-0.868741	-1.77593
H	7.40356	-1.24694	0.0987594
H	8.64885	1.32105	0.407286
C	10.0018	-0.186757	1.19905
H	10.1843	-1.27717	1.09072
H	10.9319	0.36246	0.946459
H	9.7561	0.0176407	2.26404
N	10.0979	0.700946	-1.73621
C	10.4508	0.510911	-3.12384
H	10.5972	1.38582	-1.21589
H	11.2756	1.19701	-3.41738
H	9.57554	0.712977	-3.78293
H	10.7846	-0.536485	-3.30464
