44
  This energy is 0 and Call times are: 10028
C	-1.36338	-1.87929	-2.59271
C	-0.569913	-0.73535	-2.08977
O	0.109069	-0.054688	-2.84614
H	-1.20587	-1.98209	-3.68838
H	-2.44355	-1.71034	-2.39922
H	-1.041	-2.81747	-2.09373
N	-0.638049	-0.496929	-0.777942
C	0.111173	0.553901	-0.135306
C	0.379205	0.135174	1.298
O	-0.16013	-0.861866	1.77418
H	-1.16278	-1.08486	-0.168955
H	1.07102	0.659377	-0.625407
C	-0.665849	1.88808	-0.173359
H	-1.64616	1.78328	0.338539
H	-0.0933419	2.70833	0.306163
H	-0.857805	2.17094	-1.23142
N	1.23172	0.888382	2.02045
C	1.55168	0.564003	3.39106
H	1.66148	1.68911	1.61645
H	2.26995	1.30146	3.81234
H	2.00995	-0.449287	3.45818
H	0.63291	0.569796	4.02111
C	388.083	0.773862	3.21586
C	387.161	0.0915067	2.28001
O	386.374	-0.758037	2.67365
H	387.93	0.371462	4.24082
H	387.88	1.86553	3.22447
H	389.136	0.595726	2.91333
N	387.242	0.453488	0.997521
C	386.44	-0.151661	-0.0368536
C	387.213	-0.0741552	-1.34015
O	388.25	0.582301	-1.41969
H	387.916	1.11702	0.685936
H	386.296	-1.20048	0.190688
C	385.079	0.565738	-0.170818
H	385.227	1.63946	-0.414648
H	384.447	0.100284	-0.95472
H	384.535	0.503365	0.796628
N	386.727	-0.754823	-2.39671
C	387.397	-0.744349	-3.67603
H	385.889	-1.28368	-2.31176
H	386.843	-1.36315	-4.4156
H	388.43	-1.15212	-3.58178
H	387.471	0.294119	-4.07262
