44
  This energy is 0.1002 and Call times are: 27258
C	2.19768	2.69659	-0.106313
C	1.85719	1.28148	-0.375914
O	2.56877	0.583191	-1.08476
H	3.13184	2.95935	-0.648696
H	2.35809	2.85108	0.98141
H	1.37962	3.36054	-0.457076
N	0.740166	0.821241	0.192244
C	0.256064	-0.521304	-0.0121546
C	-1.25407	-0.506672	0.132233
O	-1.83792	0.494995	0.541493
H	0.14974	1.41327	0.733321
H	0.480257	-0.831536	-1.02513
C	0.887863	-1.49646	1.00526
H	0.649322	-1.18459	2.04443
H	0.53358	-2.53603	0.849342
H	1.9934	-1.4849	0.886922
N	-1.92588	-1.62326	-0.211185
C	-3.3648	-1.70018	-0.112361
H	-1.43626	-2.4223	-0.544163
H	-3.72871	-2.69869	-0.440661
H	-3.84448	-0.924538	-0.752324
H	-3.69606	-1.53408	0.938266
C	2.47437	3.05112	0.400909
C	2.56733	1.68939	-0.171983
O	1.61627	1.1783	-0.74703
H	1.45261	3.45346	0.227764
H	3.21232	3.7225	-0.0863576
H	2.66808	3.02049	1.49389
N	3.73584	1.06119	-0.0225361
C	3.96446	-0.283916	-0.488358
C	5.01711	-0.919641	0.400098
O	5.63557	-0.24783	1.22343
H	4.48747	1.47424	0.483726
H	3.05511	-0.86077	-0.374523
C	4.42644	-0.286356	-1.96206
H	5.36503	0.296517	-2.07758
H	4.59247	-1.3172	-2.33666
H	3.64454	0.190538	-2.59257
N	5.23981	-2.24113	0.258354
C	6.21845	-2.93344	1.06404
H	4.72651	-2.76867	-0.410448
H	6.25348	-4.01309	0.798767
H	5.96871	-2.84641	2.14632
H	7.23312	-2.50074	0.908006
