44
  This energy is 0 and Call times are: 14648
C	-1.74567	-2.48325	-1.70258
C	-0.548015	-1.99001	-0.986005
O	0.343471	-2.75401	-0.642534
H	-1.67093	-3.58537	-1.82758
H	-1.81291	-2.01157	-2.70544
H	-2.66266	-2.24884	-1.12182
N	-0.502336	-0.678798	-0.739007
C	0.577863	-0.0580174	-0.0134994
C	0.032399	1.17333	0.684924
O	-1.10319	1.58069	0.447845
H	-1.25474	-0.0759304	-0.988631
H	0.928263	-0.735974	0.754763
C	1.73246	0.325846	-0.964709
H	1.37594	1.02961	-1.74678
H	2.57621	0.792232	-0.415987
H	2.11072	-0.589163	-1.4707
N	0.832258	1.79327	1.57483
C	0.396754	2.96902	2.29186
H	1.74646	1.44632	1.75628
H	1.19546	3.33048	2.97643
H	-0.510346	2.74537	2.89884
H	0.143938	3.79049	1.58305
C	715.378	-2.99463	-0.717965
C	716.472	-2.22417	-0.084427
O	717.229	-2.74611	0.722267
H	715.386	-4.03446	-0.324844
H	715.52	-3.02553	-1.81877
H	714.398	-2.52943	-0.484458
N	716.578	-0.941952	-0.440793
C	717.565	-0.0543242	0.12204
C	717.008	1.35625	0.0861483
O	715.965	1.60619	-0.514819
H	715.929	-0.52074	-1.06774
H	717.726	-0.311485	1.16166
C	718.891	-0.132869	-0.665878
H	718.729	0.141074	-1.73021
H	719.664	0.535842	-0.233794
H	719.277	-1.17536	-0.632875
N	717.692	2.31543	0.740997
C	717.235	3.68541	0.766648
H	718.531	2.09301	1.22499
H	717.932	4.32135	1.35591
H	716.223	3.7535	1.22811
H	717.172	4.09808	-0.266237
