44
  This energy is 0.1297 and Call times are: 27898
C	-3.09687	-0.127217	-1.583
C	-2.22362	0.278707	-0.458808
O	-2.61167	1.06852	0.390911
H	-4.07045	0.403294	-1.50191
H	-3.28014	-1.22176	-1.54934
H	-2.62249	0.138331	-2.55126
N	-1.00275	-0.2608	-0.430954
C	-0.0255732	0.0701319	0.576109
C	1.35472	-0.103816	-0.0289394
O	1.49703	-0.624151	-1.1338
H	-0.686937	-0.870599	-1.15226
H	-0.130226	1.11356	0.846182
C	-0.188835	-0.830302	1.82022
H	-0.0710867	-1.90022	1.54553
H	0.549036	-0.575998	2.60851
H	-1.20856	-0.69266	2.24161
N	2.40983	0.33876	0.683031
C	3.76059	0.220824	0.185311
H	2.27429	0.760764	1.57332
H	4.48674	0.642207	0.914943
H	3.87351	0.769088	-0.77798
H	4.022	-0.847399	0.00725072
C	6.16796	2.1098	1.83984
C	4.83621	1.70372	1.33718
O	3.81228	2.20421	1.78158
H	6.04212	2.87343	2.6379
H	6.77097	2.54668	1.01627
H	6.70116	1.23241	2.26288
N	4.82136	0.769041	0.384
C	3.60089	0.24146	-0.173385
C	3.86626	-1.17996	-0.632421
O	5.00916	-1.6329	-0.650581
H	5.66109	0.34165	0.0614414
H	2.84548	0.194604	0.601065
C	3.11308	1.10956	-1.35393
H	3.88345	1.14933	-2.1533
H	2.16654	0.721513	-1.78288
H	2.9329	2.14699	-0.996726
N	2.80719	-1.9236	-1.00845
C	2.96223	-3.28848	-1.4548
H	1.8896	-1.54091	-0.982996
H	1.97622	-3.73016	-1.71925
H	3.42305	-3.91315	-0.655607
H	3.62011	-3.33609	-2.35262
