44
  This energy is 0 and Call times are: 13080
C	-2.47864	2.33104	0.731611
C	-1.0599	1.95285	0.543733
O	-0.181332	2.8018	0.482074
H	-2.56028	3.43872	0.779191
H	-2.86714	1.90105	1.67867
H	-3.089	1.96196	-0.119463
N	-0.802023	0.646684	0.444745
C	0.523557	0.127505	0.217037
C	0.394576	-1.19105	-0.522105
O	-0.704031	-1.72047	-0.678593
H	-1.5326	-0.0300731	0.455793
H	1.0674	0.806767	-0.427533
C	1.27504	-0.0711175	1.5516
H	0.722875	-0.776079	2.20901
H	2.30205	-0.457473	1.38881
H	1.35067	0.904848	2.07897
N	1.52182	-1.75056	-1.00409
C	1.49608	-3.00162	-1.72544
H	2.40097	-1.30506	-0.871025
H	2.52178	-3.29554	-2.03971
H	0.861142	-2.91644	-2.63696
H	1.07802	-3.81422	-1.08821
C	606.414	2.04365	-2.43637
C	606.368	1.49428	-1.06262
O	607.289	1.67335	-0.277681
H	607.377	2.57982	-2.58504
H	605.578	2.75694	-2.59188
H	606.342	1.22191	-3.17976
N	605.275	0.799101	-0.738251
C	605.104	0.167459	0.546422
C	604.206	-1.04165	0.363311
O	603.629	-1.24158	-0.703671
H	604.552	0.627186	-1.40124
H	606.063	-0.192983	0.897626
C	604.488	1.14979	1.5666
H	603.5	1.51174	1.21171
H	604.364	0.679417	2.56357
H	605.158	2.03029	1.67875
N	604.074	-1.88594	1.40531
C	603.245	-3.06581	1.32183
H	604.553	-1.70951	2.2592
H	603.267	-3.63024	2.28005
H	603.602	-3.73998	0.509833
H	602.189	-2.78918	1.10141
