44
  This energy is 0 and Call times are: 10448
C	-1.74249	0.304995	-2.99723
C	-1.69447	0.227228	-1.5198
O	-2.67881	0.483245	-0.84014
H	-2.75655	0.631396	-3.31508
H	-1.53027	-0.690836	-3.43998
H	-0.996315	1.03996	-3.36621
N	-0.526535	-0.132185	-0.982103
C	-0.313412	-0.21024	0.44164
C	1.15331	0.0636055	0.716046
O	1.96336	0.137767	-0.205922
H	0.277056	-0.297678	-1.54666
H	-0.884158	0.568795	0.931522
C	-0.715719	-1.59906	0.984374
H	-0.123024	-2.39784	0.489695
H	-0.569284	-1.66714	2.08185
H	-1.79051	-1.78139	0.765448
N	1.52894	0.229561	1.99955
C	2.90228	0.499364	2.35638
H	0.858265	0.170018	2.73148
H	3.00891	0.604166	3.45859
H	3.25412	1.44254	1.87899
H	3.56646	-0.328086	2.01677
C	413.726	0.547703	-1.04436
C	414.843	0.75475	-0.0955545
O	414.782	1.61032	0.776649
H	412.916	1.277	-0.823444
H	413.321	-0.480915	-0.940304
H	414.075	0.703517	-2.0868
N	415.907	-0.036991	-0.249569
C	417.088	0.0742398	0.569424
C	418.276	-0.395542	-0.248254
O	418.115	-0.934799	-1.34136
H	415.958	-0.701103	-0.989958
H	417.256	1.1156	0.814144
C	416.949	-0.768757	1.85597
H	416.786	-1.83882	1.60552
H	417.846	-0.680444	2.50168
H	416.068	-0.41279	2.43447
N	419.506	-0.192365	0.262893
C	420.697	-0.601015	-0.446201
H	419.617	0.249347	1.14706
H	421.609	-0.347086	0.137428
H	420.76	-0.0907395	-1.4346
H	420.689	-1.70058	-0.625192
