44
  This energy is 0 and Call times are: 12324
C	1.77153	2.8114	1.0346
C	0.858048	1.6768	1.29799
O	0.550372	1.36375	2.43981
H	2.09534	3.25432	2.00147
H	1.25186	3.59069	0.438444
H	2.66838	2.46029	0.481901
N	0.398891	1.02382	0.227862
C	-0.463599	-0.127276	0.326115
C	-0.223573	-1.00324	-0.889052
O	0.469372	-0.60687	-1.82416
H	0.690743	1.26478	-0.693348
H	-0.189551	-0.705461	1.19975
C	-1.94608	0.299018	0.402001
H	-2.23058	0.883227	-0.498997
H	-2.61946	-0.57791	0.491895
H	-2.09685	0.945534	1.29399
N	-0.788394	-2.22672	-0.899296
C	-0.610783	-3.13198	-2.01066
H	-1.3424	-2.53124	-0.131564
H	-1.15249	-4.08665	-1.8307
H	0.468663	-3.36421	-2.15946
H	-0.999593	-2.68001	-2.95177
C	553.07	2.45296	-1.34566
C	551.731	1.91463	-1.01608
O	550.729	2.60961	-1.10984
H	552.974	3.51904	-1.64569
H	553.516	1.88173	-2.187
H	553.737	2.38772	-0.460417
N	551.686	0.642507	-0.613559
C	550.461	-0.00783054	-0.217391
C	550.804	-1.08524	0.794197
O	551.974	-1.38919	1.01859
H	552.515	0.101893	-0.503027
H	549.821	0.709523	0.27998
C	549.742	-0.620992	-1.43884
H	550.395	-1.36471	-1.94326
H	548.791	-1.11272	-1.14875
H	549.508	0.184063	-2.16925
N	549.784	-1.68539	1.43836
C	550.014	-2.7179	2.42184
H	548.844	-1.42299	1.24623
H	549.05	-3.08577	2.83842
H	550.633	-2.32892	3.26226
H	550.552	-3.58104	1.96718
