44
  This energy is -5.6783 and Call times are: 29458
C	-2.06333	-2.67591	0.833595
C	-0.927479	-2.08921	0.0874147
O	-0.13878	-2.7967	-0.523993
H	-2.03124	-3.78323	0.740394
H	-3.025	-2.30802	0.418174
H	-1.99679	-2.40365	1.90809
N	-0.816924	-0.75925	0.124152
C	0.26017	-0.047198	-0.51726
C	0.504172	1.23618	0.254076
O	-0.268315	1.59447	1.14098
H	-1.44296	-0.199841	0.659883
H	1.16566	-0.637862	-0.455366
C	-0.0840817	0.263562	-1.99041
H	-1.00711	0.878398	-2.05395
H	0.7432	0.799544	-2.49918
H	-0.266412	-0.689367	-2.53357
N	1.59711	1.95802	-0.0628811
C	1.91366	3.1902	0.621022
H	2.21256	1.64973	-0.780687
H	2.85026	3.63442	0.217705
H	2.05272	3.00959	1.71158
H	1.09154	3.93156	0.495944
C	3.54955	-3.2129	-0.314478
C	4.03148	-2.0762	0.502114
O	3.8629	-2.05063	1.71345
H	3.03881	-3.94814	0.344627
H	4.40434	-3.71315	-0.816306
H	2.82916	-2.85564	-1.08029
N	4.65067	-1.09327	-0.155788
C	5.13652	0.0974695	0.495861
C	5.1118	1.23154	-0.51153
O	4.87952	1.01401	-1.69915
H	4.74406	-1.10915	-1.14719
H	4.46212	0.365267	1.29966
C	6.56726	-0.114679	1.03736
H	7.26165	-0.37912	0.211563
H	6.94736	0.790639	1.55355
H	6.56299	-0.954142	1.76648
N	5.34421	2.47815	-0.0554965
C	5.33546	3.62031	-0.939559
H	5.52621	2.63474	0.90961
H	5.5472	4.55555	-0.375885
H	4.34289	3.72643	-1.43435
H	6.10739	3.50766	-1.73491
