44
  This energy is -0.0107 and Call times are: 22086
C	-1.36614	-0.841419	-3.08843
C	-1.18464	0.0928034	-1.95466
O	-1.56491	1.25342	-2.0237
H	-1.85412	-0.305549	-3.93139
H	-2.00979	-1.69308	-2.78328
H	-0.381564	-1.22588	-3.42887
N	-0.586684	-0.401592	-0.868196
C	-0.301972	0.396848	0.297991
C	0.920752	-0.184669	0.982343
O	1.39042	-1.26272	0.623262
H	-0.245934	-1.33705	-0.84222
H	-0.0503186	1.40369	-0.0111624
C	-1.50708	0.412136	1.26377
H	-1.75901	-0.619591	1.58951
H	-1.30535	1.03498	2.15926
H	-2.39221	0.83406	0.739499
N	1.47263	0.525503	1.98589
C	2.64117	0.0540919	2.69192
H	1.08075	1.39768	2.25942
H	2.94259	0.777932	3.48086
H	3.49723	-0.0770265	1.99104
H	2.43798	-0.928363	3.17632
C	11.4129	-2.30119	-1.11095
C	10.9142	-1.32021	-0.12092
O	11.4315	-1.21579	0.982648
H	12.2575	-2.87264	-0.668392
H	11.7716	-1.77715	-2.02169
H	10.6046	-3.01073	-1.38718
N	9.87806	-0.568577	-0.500277
C	9.25577	0.399132	0.368546
C	7.80002	0.532044	-0.0372992
O	7.38138	0.000504761	-1.0639
H	9.44168	-0.693583	-1.38673
H	9.27447	0.0296314	1.38626
C	9.97083	1.76485	0.275018
H	9.94273	2.14932	-0.766826
H	9.50957	2.51479	0.949809
H	11.0362	1.64217	0.568711
N	6.98827	1.24299	0.76993
C	5.58689	1.41891	0.467646
H	7.34453	1.66219	1.59844
H	5.08973	2.03286	1.25067
H	5.06988	0.433451	0.414228
H	5.45764	1.93021	-0.513683
