44
  This energy is 0.2043 and Call times are: 31534
C	3.20416	-0.444693	1.28386
C	2.18191	0.364171	0.582511
O	2.36241	1.55221	0.353623
H	4.06933	0.202818	1.54478
H	3.55661	-1.26832	0.627986
H	2.78025	-0.871393	2.2173
N	1.06548	-0.273138	0.22225
C	-0.0366612	0.389935	-0.429046
C	-1.31279	-0.345297	-0.0650683
O	-1.27242	-1.41886	0.53289
H	0.915917	-1.23062	0.45187
H	-0.12451	1.3984	-0.0444466
C	0.158776	0.409647	-1.96093
H	0.238396	-0.625027	-2.35734
H	-0.676608	0.929784	-2.4729
H	1.10233	0.9455	-2.20366
N	-2.48352	0.224404	-0.412728
C	-3.749	-0.399316	-0.103347
H	-2.49598	1.09543	-0.892545
H	-4.59446	0.223165	-0.47069
H	-3.86322	-0.531335	0.997016
H	-3.81938	-1.40348	-0.580674
C	6.3998	0.164689	-2.73203
C	5.06463	-0.0672648	-2.13648
O	4.06754	-0.16835	-2.83791
H	6.3014	0.238022	-3.83693
H	7.07981	-0.678074	-2.48693
H	6.83162	1.11211	-2.34604
N	5.01586	-0.155769	-0.80525
C	3.78349	-0.336979	-0.0793132
C	3.94565	0.291113	1.2921
O	5.04371	0.688368	1.677
H	5.82998	-0.0305481	-0.245434
H	2.98866	0.195867	-0.586197
C	3.43434	-1.8359	0.049464
H	4.2447	-2.38109	0.578743
H	2.48026	-1.98798	0.594543
H	3.32829	-2.27656	-0.965871
N	2.84566	0.403371	2.06244
C	2.90239	0.992723	3.37987
H	1.96519	0.0798631	1.73199
H	1.89599	0.994476	3.85358
H	3.26541	2.04458	3.32432
H	3.59813	0.421622	4.03632
