44
  This energy is 0 and Call times are: 13164
C	-2.03576	2.7615	-0.585224
C	-1.1872	1.64447	-1.05781
O	-1.15906	1.32665	-2.23874
H	-2.59528	3.18745	-1.44626
H	-1.40529	3.55793	-0.136946
H	-2.76278	2.39655	0.170646
N	-0.466371	1.01252	-0.128599
C	0.373273	-0.12044	-0.428527
C	0.456629	-0.989069	0.812476
O	0.0026664	-0.598444	1.88628
H	-0.531102	1.25638	0.834837
H	-0.0912263	-0.71328	-1.20661
C	1.78234	0.337269	-0.864738
H	2.26348	0.936637	-0.0626801
H	2.43416	-0.525641	-1.11179
H	1.69641	0.977848	-1.76952
N	1.03571	-2.19978	0.690532
C	1.15504	-3.0974	1.8158
H	1.39347	-2.49992	-0.187532
H	1.65912	-4.04181	1.51377
H	0.149951	-3.35157	2.2238
H	1.75021	-2.62755	2.63198
C	608.108	-1.87564	-0.483266
C	609.582	-1.7392	-0.443527
O	610.31	-2.72159	-0.48155
H	607.841	-2.95354	-0.530393
H	607.701	-1.36445	-1.38065
H	607.658	-1.43311	0.430344
N	610.061	-0.49562	-0.362394
C	611.47	-0.205904	-0.272129
C	611.638	1.09716	0.48654
O	610.663	1.79494	0.762308
H	609.455	0.291497	-0.290997
H	611.958	-0.98077	0.306146
C	612.103	-0.099555	-1.6771
H	611.61	0.70234	-2.26706
H	613.191	0.10958	-1.62084
H	611.961	-1.0613	-2.21693
N	612.885	1.45272	0.850919
C	613.141	2.67279	1.58047
H	613.66	0.872993	0.622277
H	614.228	2.78719	1.78679
H	612.598	2.66983	2.55333
H	612.799	3.55842	0.997216
