44
  This energy is 0 and Call times are: 10392
C	-1.43756	-1.99517	-2.46281
C	-0.784876	-0.744073	-2.01569
O	-0.379836	0.0817619	-2.82213
H	-1.45735	-2.02228	-3.574
H	-2.48014	-2.03958	-2.08362
H	-0.87171	-2.8757	-2.09189
N	-0.66501	-0.575846	-0.696708
C	-0.0143299	0.569929	-0.111579
C	0.569096	0.151281	1.2248
O	0.306806	-0.947574	1.71001
H	-0.962772	-1.27581	-0.0538577
H	0.811326	0.873118	-0.743244
C	-1.01073	1.73529	0.0737978
H	-1.85253	1.42805	0.730305
H	-0.518596	2.62824	0.510801
H	-1.43102	2.01969	-0.915555
N	1.38662	1.02108	1.8502
C	1.99266	0.707302	3.12316
H	1.59023	1.90382	1.43984
H	2.63055	1.54866	3.47307
H	2.62833	-0.204032	3.04155
H	1.21136	0.515359	3.89379
C	410.529	1.82663	-1.63437
C	411.945	1.5694	-1.28705
O	412.854	2.14538	-1.86853
H	410.483	2.56481	-2.46431
H	409.989	2.23856	-0.756446
H	410.039	0.885958	-1.96233
N	412.166	0.680828	-0.315381
C	413.49	0.294518	0.103515
C	413.423	-1.12524	0.633949
O	412.341	-1.68291	0.805788
H	411.417	0.189876	0.120443
H	414.148	0.286967	-0.75605
C	414.027	1.25323	1.18877
H	413.357	1.25336	2.0751
H	415.052	0.974494	1.50971
H	414.06	2.28725	0.781287
N	414.587	-1.74925	0.899217
C	414.622	-3.10288	1.40184
H	415.453	-1.28303	0.749894
H	415.672	-3.4381	1.55635
H	414.133	-3.80102	0.684282
H	414.084	-3.17495	2.37463
