44
  This energy is 0 and Call times are: 14340
C	-1.19307	2.60762	-1.97221
C	-0.0881212	1.84891	-1.34403
O	1.07705	2.0526	-1.65595
H	-0.77426	3.31274	-2.72273
H	-1.74487	3.18762	-1.20289
H	-1.89246	1.91268	-2.4831
N	-0.436663	0.939747	-0.430627
C	0.522692	0.0943302	0.235307
C	-0.169276	-1.20294	0.609227
O	-1.38651	-1.32551	0.486616
H	-1.39205	0.756699	-0.217086
H	1.32042	-0.152661	-0.454087
C	1.08956	0.787832	1.49346
H	0.272783	1.03194	2.20573
H	1.83971	0.152502	2.00741
H	1.58424	1.73851	1.19707
N	0.597916	-2.21074	1.06943
C	0.0281809	-3.4838	1.44481
H	1.5816	-2.09395	1.15777
H	0.820294	-4.18045	1.7976
H	-0.490406	-3.95307	0.577554
H	-0.716082	-3.35518	2.26375
C	696.466	1.60646	2.71714
C	695.814	1.62559	1.38829
O	695.428	2.67287	0.887493
H	696.505	2.64099	3.12226
H	697.502	1.21592	2.62976
H	695.888	0.967486	3.41771
N	695.673	0.445831	0.779503
C	695.02	0.299266	-0.497507
C	694.411	-1.08884	-0.56087
O	694.658	-1.92493	0.306198
H	695.955	-0.402771	1.21784
H	694.207	1.01147	-0.566986
C	696.021	0.504945	-1.65567
H	696.849	-0.232282	-1.59086
H	695.527	0.408311	-2.64439
H	696.46	1.52408	-1.58476
N	693.589	-1.36447	-1.59234
C	692.959	-2.65675	-1.7326
H	693.398	-0.673623	-2.28185
H	692.321	-2.68651	-2.64315
H	692.319	-2.87975	-0.848489
H	693.726	-3.46073	-1.81517
