44
  This energy is 0 and Call times are: 14368
C	-2.67431	-2.21093	-0.26937
C	-1.64381	-1.50247	0.522651
O	-1.66818	-1.51171	1.74565
H	-3.40617	-2.68483	0.420321
H	-2.20303	-3.00079	-0.891269
H	-3.21139	-1.49474	-0.92642
N	-0.700712	-0.859822	-0.170138
C	0.343268	-0.0905345	0.459831
C	0.75863	1.01346	-0.494221
O	0.343027	1.03546	-1.65116
H	-0.717608	-0.827301	-1.16539
H	-0.0502049	0.383736	1.35027
C	1.55197	-0.985172	0.811839
H	1.96256	-1.46369	-0.102753
H	2.35703	-0.407081	1.31004
H	1.22313	-1.7905	1.50442
N	1.58785	1.96639	-0.0247963
C	2.03243	3.05905	-0.858237
H	1.9102	1.9338	0.915471
H	2.70785	3.73674	-0.290997
H	1.1637	3.65419	-1.22209
H	2.58496	2.67616	-1.74664
C	693.674	-0.405623	-0.941309
C	694.916	-0.893481	-0.299844
O	694.917	-1.90391	0.38968
H	692.832	-1.0783	-0.669833
H	693.79	-0.402132	-2.04556
H	693.441	0.621944	-0.591033
N	696.018	-0.171726	-0.515144
C	697.292	-0.496373	0.0766999
C	698.08	0.789915	0.238366
O	697.679	1.84065	-0.258726
H	695.993	0.671059	-1.04517
H	697.132	-0.903486	1.06734
C	698.069	-1.50048	-0.802663
H	698.242	-1.07906	-1.81579
H	699.046	-1.76905	-0.350746
H	697.47	-2.43081	-0.91393
N	699.223	0.737632	0.94998
C	700.036	1.91244	1.16128
H	699.529	-0.12098	1.34793
H	700.934	1.66525	1.7704
H	699.457	2.70051	1.69466
H	700.378	2.33412	0.188372
