44
  This energy is 0 and Call times are: 9384
C	-3.24725	-0.530879	-1.13411
C	-1.9163	-1.02458	-0.714629
O	-1.71782	-2.21435	-0.51099
H	-3.9536	-1.38705	-1.1967
H	-3.17927	-0.0474318	-2.1313
H	-3.6345	0.201112	-0.394295
N	-0.959837	-0.104154	-0.57193
C	0.37362	-0.425964	-0.128207
C	0.941582	0.78818	0.582306
O	0.350909	1.86622	0.556999
H	-1.14736	0.865318	-0.701649
H	0.324959	-1.22987	0.595676
C	1.2707	-0.824429	-1.32056
H	1.32946	0.00391101	-2.05842
H	2.29637	-1.08793	-0.990256
H	0.831785	-1.70981	-1.83027
N	2.10567	0.63753	1.24429
C	2.71919	1.73568	1.9541
H	2.56665	-0.243616	1.25677
H	3.66938	1.41225	2.43342
H	2.03863	2.11898	2.74858
H	2.94544	2.57591	1.25843
C	339.444	2.91822	-1.08467
C	339.543	1.44296	-1.01378
O	338.63	0.728021	-1.40241
H	338.455	3.20029	-1.50577
H	340.243	3.32413	-1.74053
H	339.541	3.35745	-0.069413
N	340.673	0.947614	-0.504557
C	340.898	-0.465916	-0.33177
C	341.849	-0.654328	0.835524
O	342.415	0.309069	1.34883
H	341.391	1.54295	-0.154643
H	339.965	-0.946694	-0.0681997
C	341.486	-1.09191	-1.61537
H	342.45	-0.606163	-1.88031
H	341.651	-2.18276	-1.49965
H	340.778	-0.935187	-2.45791
N	342.041	-1.90855	1.28961
C	342.923	-2.184	2.39956
H	341.571	-2.67477	0.863925
H	342.946	-3.27352	2.62237
H	342.583	-1.64643	3.31429
H	343.961	-1.85077	2.16892
