44
  This energy is -2.4825 and Call times are: 30287
C	-0.707467	1.64195	2.986
C	-1.07403	1.20688	1.61944
O	-2.22102	1.313	1.20767
H	-1.61273	2.02634	3.50429
H	0.0509287	2.45152	2.93937
H	-0.299033	0.785918	3.56349
N	-0.0901506	0.696535	0.875187
C	-0.301523	0.190991	-0.458345
C	0.728207	-0.891309	-0.722612
O	1.65264	-1.08666	0.0641339
H	0.829583	0.578841	1.23865
H	-1.27848	-0.272804	-0.513874
C	-0.178738	1.32188	-1.50297
H	0.826998	1.79102	-1.45357
H	-0.353146	0.947886	-2.53265
H	-0.93621	2.10627	-1.28544
N	0.585994	-1.63009	-1.84065
C	1.51427	-2.6858	-2.17222
H	-0.170823	-1.4598	-2.46299
H	1.22728	-3.17579	-3.12866
H	1.52962	-3.46097	-1.37213
H	2.54669	-2.28156	-2.28111
C	7.53168	1.79277	-2.61707
C	6.97689	1.70513	-1.24751
O	7.0988	2.62885	-0.45486
H	8.04471	2.77084	-2.74362
H	6.71582	1.71531	-3.36614
H	8.2663	0.977223	-2.78526
N	6.34616	0.570944	-0.934165
C	5.7916	0.321293	0.373003
C	5.81128	-1.17591	0.617077
O	6.09601	-1.95786	-0.288013
H	6.2907	-0.18801	-1.57664
H	6.42477	0.778731	1.12298
C	4.35057	0.867552	0.474455
H	3.69814	0.390837	-0.287855
H	3.91747	0.693761	1.48081
H	4.35916	1.96309	0.284535
N	5.51503	-1.61116	1.85756
C	5.51383	-3.01795	2.18483
H	5.29116	-0.962923	2.57781
H	5.24594	-3.17295	3.25321
H	6.51956	-3.46332	2.00753
H	4.77709	-3.56736	1.55514
