44
  This energy is -2.0518 and Call times are: 23764
C	0.882126	0.114673	3.36473
C	0.0754181	-0.423992	2.2466
O	-0.621532	-1.41892	2.39076
H	0.743271	-0.528325	4.26091
H	0.555807	1.14736	3.60931
H	1.95833	0.122325	3.0912
N	0.155932	0.232218	1.08674
C	-0.536996	-0.196384	-0.102679
C	0.263443	0.261545	-1.30732
O	1.21991	1.0228	-1.17553
H	0.759291	1.01645	0.973565
H	-0.567398	-1.27854	-0.128017
C	-1.96634	0.386779	-0.148827
H	-1.9353	1.49711	-0.133498
H	-2.51505	0.0527938	-1.0532
H	-2.53114	0.0451978	0.745977
N	-0.107039	-0.202103	-2.51719
C	0.598759	0.174784	-3.71969
H	-0.881123	-0.820538	-2.60324
H	0.143198	-0.309711	-4.61129
H	1.66764	-0.133935	-3.66085
H	0.565799	1.27882	-3.86511
C	6.72642	1.77147	-2.81445
C	6.43112	1.68236	-1.36669
O	6.7533	2.57829	-0.598624
H	7.26494	2.72169	-3.02164
H	5.78259	1.75843	-3.39905
H	7.36669	0.919928	-3.12751
N	5.80244	0.578471	-0.956093
C	5.48604	0.329145	0.428206
C	5.46061	-1.17222	0.644581
O	5.52492	-1.94697	-0.307963
H	5.58321	-0.160396	-1.58686
H	6.27371	0.731758	1.05279
C	4.12436	0.953519	0.804007
H	3.31436	0.533053	0.17065
H	3.87585	0.780292	1.87113
H	4.16343	2.05107	0.630263
N	5.37403	-1.61981	1.91272
C	5.34898	-3.03177	2.21591
H	5.32707	-0.977517	2.67056
H	5.27514	-3.1971	3.31338
H	6.27572	-3.52897	1.84817
H	4.47652	-3.52322	1.7276
