44
  This energy is -1.0338 and Call times are: 23449
C	1.24709	3.24714	-0.116424
C	0.758309	2.06476	0.628031
O	0.883015	1.98531	1.84234
H	1.71875	3.9597	0.594681
H	0.401456	3.75489	-0.626153
H	2.00192	2.9394	-0.870502
N	0.183167	1.10282	-0.0974055
C	-0.302449	-0.125855	0.479749
C	-0.218472	-1.21065	-0.57747
O	0.0526599	-0.933335	-1.74422
H	0.125742	1.16362	-1.08981
H	0.347328	-0.418911	1.29494
C	-1.75593	0.0346584	0.976601
H	-2.42481	0.325028	0.138555
H	-2.1366	-0.900667	1.43571
H	-1.79494	0.838844	1.74349
N	-0.442621	-2.48134	-0.188697
C	-0.378945	-3.58031	-1.12378
H	-0.656587	-2.68642	0.760636
H	-0.59254	-4.5447	-0.612359
H	0.63294	-3.64505	-1.58549
H	-1.1234	-3.44437	-1.94137
C	5.94763	3.46292	-0.347724
C	5.29686	2.19188	0.0422692
O	4.25325	2.18482	0.680429
H	5.3514	4.31587	0.0432308
H	6.00351	3.54059	-1.45388
H	6.97169	3.51504	0.0784927
N	5.91155	1.06938	-0.337921
C	5.42237	-0.243031	0.00390512
C	6.60822	-1.18675	0.07251
O	7.72209	-0.82685	-0.303615
H	6.78188	1.09111	-0.82155
H	4.97695	-0.21247	0.99046
C	4.39602	-0.738049	-1.03859
H	4.85553	-0.779631	-2.04912
H	4.00154	-1.74183	-0.779117
H	3.54098	-0.0282985	-1.07751
N	6.39606	-2.42263	0.566073
C	7.46571	-3.38713	0.674609
H	5.48859	-2.69409	0.869187
H	7.09156	-4.34272	1.10367
H	8.27723	-3.00122	1.33324
H	7.90565	-3.60048	-0.326426
