44
  This energy is 0 and Call times are: 13808
C	-1.28824	1.27627	-2.97057
C	-1.38738	0.414986	-1.77077
O	-2.44375	-0.117475	-1.45934
H	-2.28417	1.33973	-3.46044
H	-0.560243	0.847069	-3.69067
H	-0.963836	2.29836	-2.68217
N	-0.269262	0.25911	-1.05811
C	-0.219578	-0.514204	0.157651
C	0.875088	0.0585511	1.03811
O	1.6477	0.91244	0.607227
H	0.572821	0.731943	-1.3014
H	-1.155	-0.401227	0.691359
C	0.0539104	-2.00346	-0.14658
H	1.01857	-2.12088	-0.68481
H	0.0807422	-2.61183	0.780618
H	-0.755139	-2.39946	-0.798482
N	0.961233	-0.395725	2.30391
C	1.9675	0.0952286	3.21636
H	0.324446	-1.08387	2.63562
H	1.87413	-0.399664	4.20812
H	1.86265	1.19479	3.36211
H	2.98909	-0.104532	2.8194
C	656.103	1.67248	-2.91723
C	656.676	0.507273	-2.20691
O	656.92	-0.536325	-2.79666
H	655.942	1.40913	-3.98534
H	656.798	2.5358	-2.86033
H	655.127	1.95355	-2.46635
N	656.905	0.662371	-0.900853
C	657.42	-0.395329	-0.067411
C	656.912	-0.174716	1.34485
O	656.327	0.863158	1.64868
H	656.663	1.50406	-0.426621
H	657.024	-1.34374	-0.408343
C	658.964	-0.41362	-0.0903989
H	659.371	0.555435	0.269259
H	659.373	-1.23245	0.536665
H	659.314	-0.568286	-1.13449
N	657.118	-1.15711	2.24406
C	656.664	-1.03839	3.61029
H	657.589	-1.99134	1.97831
H	656.928	-1.94886	4.19251
H	655.559	-0.906313	3.64721
H	657.134	-0.157607	4.1051
