44
  This energy is 0 and Call times are: 13668
C	2.85315	-1.24199	1.55874
C	1.98412	-1.07589	0.372005
O	2.36855	-1.39708	-0.743999
H	3.83306	-1.65983	1.24082
H	2.38277	-1.93995	2.28286
H	3.02315	-0.260237	2.04899
N	0.772829	-0.559048	0.591134
C	-0.168321	-0.298046	-0.469372
C	-1.05236	0.858811	-0.0431061
O	-1.00813	1.29529	1.10548
H	0.489501	-0.264455	1.49932
H	0.369626	0.0163679	-1.35503
C	-1.02183	-1.54961	-0.769943
H	-1.58208	-1.86634	0.135509
H	-1.741	-1.3656	-1.59423
H	-0.353758	-2.38552	-1.07207
N	-1.8755	1.39061	-0.96813
C	-2.74919	2.49747	-0.655538
H	-1.89415	1.0265	-1.89341
H	-3.3461	2.79122	-1.54696
H	-2.15905	3.38166	-0.322036
H	-3.45314	2.22345	0.163307
C	646.514	1.64707	-3.0271
C	646.002	0.941182	-1.8307
O	644.808	0.929974	-1.56441
H	645.665	2.12845	-3.56016
H	647.008	0.92794	-3.71367
H	647.241	2.43093	-2.72728
N	646.912	0.328083	-1.06949
C	646.572	-0.363307	0.149154
C	647.772	-0.307226	1.07521
O	648.856	0.114406	0.676418
H	647.884	0.380636	-1.2769
H	645.76	0.157971	0.641208
C	646.179	-1.82868	-0.139226
H	647.015	-2.3668	-0.634518
H	645.901	-2.36786	0.789731
H	645.303	-1.84557	-0.824883
N	647.603	-0.726502	2.34465
C	648.687	-0.704736	3.299
H	646.717	-1.06046	2.64989
H	648.349	-1.08802	4.28694
H	649.067	0.333141	3.43737
H	649.533	-1.33877	2.94753
