44
  This energy is -1.4402 and Call times are: 28960
C	1.17577	-2.89387	1.53486
C	0.670509	-1.50354	1.58823
O	0.347352	-0.987777	2.64934
H	1.17706	-3.32379	2.56007
H	2.21235	-2.90936	1.13736
H	0.521953	-3.51399	0.885969
N	0.588115	-0.856934	0.423113
C	0.0752065	0.485686	0.309722
C	-0.532036	0.644954	-1.07138
O	-0.385152	-0.224684	-1.92804
H	0.816189	-1.30394	-0.437139
H	-0.72089	0.626006	1.03026
C	1.19588	1.52496	0.531621
H	2.00793	1.38816	-0.213965
H	0.810771	2.56282	0.460565
H	1.63108	1.38465	1.54516
N	-1.24047	1.76456	-1.31763
C	-1.85957	2.00035	-2.6011
H	-1.35171	2.45494	-0.61047
H	-2.39642	2.97452	-2.60573
H	-2.59244	1.1952	-2.83753
H	-1.09343	2.01815	-3.40971
C	6.36238	3.00224	1.74762
C	6.07566	1.55163	1.67917
O	5.90718	0.891068	2.69488
H	6.40508	3.31833	2.81258
H	5.56166	3.57523	1.23451
H	7.33944	3.22225	1.26802
N	6.01543	1.01559	0.45793
C	5.78768	-0.390061	0.232488
C	6.4547	-0.773548	-1.07503
O	6.9168	0.0865579	-1.82228
H	6.19531	1.55804	-0.357695
H	6.26702	-0.960176	1.0185
C	4.27612	-0.702797	0.181362
H	3.78576	-0.126118	-0.631678
H	4.08764	-1.78429	0.0220675
H	3.80731	-0.406847	1.1452
N	6.5278	-2.08443	-1.37875
C	7.14946	-2.54415	-2.59874
H	6.1518	-2.7658	-0.759526
H	7.11023	-3.65372	-2.66621
H	8.21708	-2.22815	-2.63881
H	6.63026	-2.12	-3.48849
