44
  This energy is -3.9771 and Call times are: 188236
C	2.64184	2.05481	-0.954546
C	1.40105	1.30449	-1.25222
O	0.807113	1.45778	-2.31059
H	2.87651	2.72932	-1.80651
H	3.48868	1.35166	-0.80903
H	2.50824	2.66699	-0.0377703
N	0.974704	0.463711	-0.306861
C	-0.239468	-0.303255	-0.43378
C	-0.786742	-0.556334	0.958339
O	-0.125778	-0.273839	1.95585
H	1.44649	0.380209	0.566245
H	-0.977134	0.281595	-0.968974
C	0.0253392	-1.63891	-1.16258
H	0.774235	-2.24389	-0.60833
H	-0.904553	-2.23247	-1.27882
H	0.432717	-1.42965	-2.17579
N	-2.01977	-1.09092	1.05783
C	-2.62489	-1.36186	2.34103
H	-2.54085	-1.30894	0.23929
H	-3.63928	-1.79982	2.21285
H	-2.72037	-0.424737	2.93598
H	-2.00408	-2.07957	2.92466
C	8.5423	1.47615	-1.79269
C	7.31888	0.646484	-1.71492
O	6.72023	0.305136	-2.72562
H	8.76021	1.71029	-2.85737
H	9.4054	0.926605	-1.36164
H	8.39566	2.42708	-1.23835
N	6.91331	0.300458	-0.490919
C	5.71709	-0.468282	-0.252866
C	5.17755	-0.0923904	1.11431
O	5.83302	0.614466	1.87748
H	7.38797	0.620217	0.324128
H	4.96541	-0.194555	-0.982704
C	6.0119	-1.98278	-0.320978
H	6.77532	-2.26593	0.434713
H	5.09588	-2.58546	-0.153034
H	6.41306	-2.23368	-1.32719
N	3.95738	-0.553141	1.4533
C	3.36029	-0.242495	2.73125
H	3.44048	-1.12038	0.820736
H	2.35617	-0.712542	2.82083
H	3.24383	0.858814	2.85306
H	3.9983	-0.616427	3.56448
