44
  This energy is -4.4308 and Call times are: 188307
C	2.73547	-0.344523	-2.12396
C	2.14412	-0.175894	-0.777475
O	2.82334	-0.300326	0.232275
H	3.81247	-0.600817	-2.02264
H	2.64335	0.598204	-2.7032
H	2.22065	-1.16427	-2.66809
N	0.84166	0.113968	-0.733389
C	0.116716	0.264968	0.50363
C	-1.32987	-0.117835	0.253842
O	-1.73925	-0.32204	-0.887396
H	0.293239	0.17167	-1.56271
H	0.511856	-0.427834	1.23611
C	0.21069	1.71584	1.02458
H	-0.204208	2.42603	0.277906
H	-0.33201	1.84165	1.98383
H	1.27834	1.97696	1.19275
N	-2.14011	-0.232683	1.32452
C	-3.53049	-0.597968	1.18457
H	-1.78953	-0.0674909	2.24043
H	-4.02797	-0.640211	2.17852
H	-3.62736	-1.5972	0.701421
H	-4.07033	0.144503	0.553335
C	6.84691	-1.93647	-2.76507
C	6.46545	-1.79305	-1.34201
O	6.14423	-2.76465	-0.671766
H	6.76602	-3.00495	-3.06111
H	7.89409	-1.59991	-2.91636
H	6.16897	-1.33379	-3.40558
N	6.49091	-0.555169	-0.842635
C	6.10474	-0.251884	0.512891
C	5.57384	1.16888	0.546822
O	5.67942	1.90421	-0.432898
H	6.715	0.23081	-1.41173
H	5.29412	-0.906283	0.808311
C	7.30284	-0.405361	1.47531
H	8.13073	0.273444	1.17889
H	7.01493	-0.187974	2.5243
H	7.67998	-1.45029	1.42812
N	4.97897	1.58716	1.68136
C	4.4389	2.9211	1.80422
H	4.89936	0.976283	2.46211
H	3.99149	3.07303	2.81119
H	3.64816	3.09671	1.03926
H	5.23755	3.68365	1.6565
