44
  This energy is -7.2501 and Call times are: 192840
C	-0.128041	2.2925	-2.61548
C	-0.115099	1.96048	-1.173
O	0.0276937	2.83007	-0.324565
H	0.0240682	3.38646	-2.74195
H	-1.10384	2.0111	-3.06422
H	0.68891	1.75313	-3.13966
N	-0.264405	0.671401	-0.85939
C	-0.229944	0.189114	0.498834
C	0.276007	-1.241	0.480237
O	0.419416	-1.84455	-0.581309
H	-0.338568	-0.0298374	-1.56269
H	0.480639	0.775288	1.06813
C	-1.63095	0.259466	1.14496
H	-2.35799	-0.350232	0.567277
H	-1.61487	-0.0962361	2.19555
H	-1.98459	1.31363	1.1406
N	0.567906	-1.81642	1.66333
C	1.06044	-3.17183	1.74358
H	0.449252	-1.31062	2.51137
H	1.24145	-3.46247	2.80187
H	2.01763	-3.27575	1.18298
H	0.324493	-3.88407	1.30512
C	4.42191	-3.3264	-1.02112
C	5.02989	-1.98048	-0.92094
O	6.20349	-1.79289	-1.21056
H	5.19144	-4.05256	-1.36224
H	3.58778	-3.31596	-1.75383
H	4.03879	-3.64798	-0.029717
N	4.23048	-0.998106	-0.498734
C	4.68956	0.355417	-0.309598
C	3.8437	0.994471	0.77562
O	2.84542	0.425416	1.21303
H	3.28848	-1.17424	-0.227668
H	5.71224	0.339348	0.0460505
C	4.58541	1.16186	-1.62263
H	3.53469	1.18754	-1.98232
H	4.94896	2.20189	-1.49346
H	5.20569	0.671732	-2.40453
N	4.23143	2.19722	1.24367
C	3.49178	2.87931	2.27994
H	5.04434	2.64003	0.880136
H	3.96913	3.85289	2.52796
H	3.45331	2.26175	3.20644
H	2.44527	3.07517	1.95191
