44
  This energy is 0.1547 and Call times are: 193604
C	-0.256624	-3.4705	-0.0495046
C	0.446831	-2.22086	0.317493
O	1.39474	-2.23172	1.09065
H	0.206164	-4.32476	0.490813
H	-0.174219	-3.64931	-1.1422
H	-1.32816	-3.40392	0.234179
N	-0.0118984	-1.09665	-0.237583
C	0.541906	0.20166	0.056082
C	-0.555179	1.23463	-0.119795
O	-1.6377	0.925688	-0.614188
H	-0.810163	-1.09868	-0.833097
H	0.85029	0.232106	1.09368
C	1.73508	0.515465	-0.872951
H	1.41688	0.494735	-1.93707
H	2.17899	1.50674	-0.647483
H	2.52216	-0.257413	-0.733251
N	-0.301476	2.49249	0.291854
C	-1.2872	3.54111	0.169662
H	0.578969	2.72227	0.693211
H	-0.889729	4.50233	0.56375
H	-2.2085	3.28257	0.740294
H	-1.57221	3.69029	-0.896947
C	6.50849	2.4525	0.231985
C	6.07908	1.03616	0.204667
O	6.89395	0.129513	0.10268
H	7.61438	2.50302	0.130422
H	6.21402	2.92319	1.19348
H	6.04455	3.00932	-0.609312
N	4.766	0.812298	0.294544
C	4.19362	-0.509754	0.238744
C	2.79294	-0.395007	-0.332655
O	2.271	0.704892	-0.504433
H	4.11208	1.56233	0.335829
H	4.77134	-1.12063	-0.443676
C	4.15491	-1.15385	1.64191
H	3.55357	-0.532923	2.33968
H	3.72898	-2.17761	1.61012
H	5.18951	-1.22048	2.04381
N	2.15162	-1.53694	-0.650031
C	0.817979	-1.52587	-1.20451
H	2.59195	-2.41722	-0.50762
H	0.463934	-2.56242	-1.39806
H	0.79694	-0.963111	-2.16583
H	0.10447	-1.03678	-0.502487
