44
  This energy is 0.1214 and Call times are: 192236
C	1.84507	2.37603	1.7501
C	0.560885	1.81849	1.26932
O	-0.508082	2.22893	1.69974
H	1.64322	3.15236	2.51981
H	2.39979	2.84061	0.907959
H	2.465	1.57369	2.2029
N	0.639988	0.852055	0.351648
C	-0.521213	0.182951	-0.179834
C	-0.113445	-1.22045	-0.586963
O	1.0695	-1.55556	-0.593782
H	1.51843	0.500197	0.0411589
H	-1.26718	0.0888268	0.59946
C	-1.09581	0.95226	-1.38948
H	-0.334277	1.03992	-2.19348
H	-1.99853	0.45446	-1.79913
H	-1.37997	1.97875	-1.07024
N	-1.09197	-2.08118	-0.929971
C	-0.799682	-3.43909	-1.32599
H	-2.04363	-1.79279	-0.914327
H	-1.73605	-3.98805	-1.56907
H	-0.277031	-3.98342	-0.506349
H	-0.141287	-3.45339	-2.22458
C	0.864847	-1.38889	0.196316
C	1.83889	-0.439598	-0.387848
O	1.57915	0.187815	-1.40535
H	-0.0476746	-1.41566	-0.438067
H	0.581593	-1.06512	1.21988
H	1.30271	-2.40845	0.239239
N	3.00291	-0.313776	0.253723
C	4.06605	0.538491	-0.217356
C	5.38466	-0.0469986	0.25173
O	5.41018	-0.982406	1.04927
H	3.2156	-0.861695	1.05771
H	4.07677	0.53091	-1.30015
C	3.8942	1.97898	0.312464
H	3.89372	1.98856	1.4233
H	4.69909	2.64825	-0.0546116
H	2.91937	2.38444	-0.0363178
N	6.51792	0.488805	-0.242896
C	7.81894	-0.00669951	0.141787
H	6.47689	1.24256	-0.890387
H	8.6244	0.562862	-0.372095
H	7.92457	-1.0828	-0.126784
H	7.96724	0.0907815	1.24163
