44
  This energy is -2.7373 and Call times are: 188982
C	-0.697795	-3.18534	1.21629
C	-0.53829	-1.72548	1.40202
O	-0.893339	-1.17638	2.43587
H	-1.17784	-3.62025	2.11978
H	0.293784	-3.66323	1.07091
H	-1.33992	-3.39096	0.333971
N	0.0070882	-1.05397	0.385151
C	0.187063	0.376388	0.401016
C	0.13416	0.875658	-1.03059
O	0.126005	0.0860835	-1.97304
H	0.253411	-1.5087	-0.465973
H	-0.637511	0.834303	0.933013
C	1.53254	0.755882	1.05745
H	2.37944	0.294947	0.505784
H	1.67661	1.85535	1.0882
H	1.55226	0.373713	2.10144
N	0.0881929	2.2081	-1.22681
C	0.0305472	2.77516	-2.55395
H	0.0914943	2.83095	-0.451491
H	-0.00163874	3.88596	-2.50593
H	-0.877863	2.42121	-3.0932
H	0.923708	2.47545	-3.14858
C	6.12327	0.304854	-3.43451
C	5.88837	-0.505438	-2.2182
O	5.58171	-1.68721	-2.29435
H	5.95757	-0.32672	-4.33424
H	7.16751	0.68186	-3.44741
H	5.42002	1.16372	-3.46386
N	6.02749	0.12457	-1.04939
C	5.78994	-0.519879	0.218211
C	5.34113	0.537241	1.20949
O	5.39115	1.73168	0.922213
H	6.23744	1.09707	-1.00441
H	4.97775	-1.2282	0.112182
C	7.06502	-1.22968	0.72377
H	7.89558	-0.50164	0.842776
H	6.89113	-1.74145	1.69247
H	7.37973	-1.99318	-0.0207867
N	4.88104	0.118343	2.40484
C	4.42703	1.05165	3.40932
H	4.84434	-0.85251	2.61738
H	4.08707	0.513288	4.32137
H	3.57697	1.66032	3.02435
H	5.24726	1.74799	3.69823
