44
  This energy is 0.1057 and Call times are: 192135
C	2.98191	0.0397662	1.79425
C	1.94681	-0.661944	1.00221
O	2.12742	-1.79992	0.591374
H	3.87047	-0.619349	1.90339
H	2.59034	0.285184	2.8038
H	3.28902	0.974699	1.27978
N	0.820725	0.0148867	0.765133
C	-0.259354	-0.519137	-0.0265798
C	-0.989948	0.641967	-0.674364
O	-0.735831	1.80215	-0.356366
H	0.704895	0.955474	1.07131
H	0.149023	-1.12819	-0.823398
C	-1.22649	-1.34774	0.847093
H	-1.65382	-0.720624	1.65835
H	-2.055	-1.77588	0.246438
H	-0.668787	-2.1869	1.31734
N	-1.9152	0.354243	-1.61093
C	-2.65686	1.39411	-2.28532
H	-2.10397	-0.590494	-1.85773
H	-3.36877	0.956496	-3.01942
H	-1.96693	2.07787	-2.83098
H	-3.23692	2.0012	-1.55312
C	2.13552	-1.42374	3.12136
C	1.2423	-1.08315	1.99118
O	0.118768	-1.55952	1.90652
H	1.62048	-2.14545	3.79197
H	2.38515	-0.510036	3.70065
H	3.07053	-1.88856	2.74351
N	1.73227	-0.237775	1.08142
C	0.998115	0.153937	-0.0959195
C	1.99753	0.483039	-1.18882
O	3.20012	0.55235	-0.942447
H	2.66363	0.109622	1.1425
H	0.405381	-0.683479	-0.44236
C	0.0951817	1.37222	0.196879
H	0.703934	2.23488	0.542261
H	-0.485813	1.67492	-0.698296
H	-0.622685	1.11122	1.00489
N	1.51983	0.68642	-2.43238
C	2.39624	0.999338	-3.53699
H	0.543963	0.621986	-2.61296
H	1.81432	1.13004	-4.47589
H	3.13678	0.181998	-3.69457
H	2.95805	1.94068	-3.33853
