44
  This energy is 0.1594 and Call times are: 191676
C	-2.09598	-2.63568	-0.879054
C	-1.71977	-1.20433	-0.908097
O	-2.26919	-0.420779	-1.67007
H	-2.88886	-2.82247	-1.63558
H	-2.48509	-2.90883	0.1243
H	-1.21494	-3.26785	-1.11828
N	-0.755857	-0.826856	-0.0650341
C	-0.252705	0.523018	-0.00812767
C	1.19106	0.470511	0.454841
O	1.68327	-0.579043	0.86457
H	-0.289725	-1.48427	0.520107
H	-0.256822	0.948071	-1.00409
C	-1.09843	1.38696	0.952905
H	-1.08592	0.957137	1.97717
H	-0.72942	2.43224	0.994829
H	-2.15244	1.40469	0.599208
N	1.90971	1.60875	0.391781
C	3.29281	1.65335	0.805553
H	1.49515	2.44707	0.053494
H	3.70873	2.67702	0.677694
H	3.90677	0.947513	0.200469
H	3.39193	1.36574	1.87728
C	5.07884	0.716289	0.921374
C	3.85684	0.992198	0.132858
O	3.73344	2.0314	-0.500578
H	5.77463	1.57893	0.834388
H	5.58507	-0.193958	0.536758
H	4.81917	0.5705	1.99114
N	2.90992	0.0513739	0.157062
C	1.64826	0.19555	-0.525555
C	0.607648	-0.610713	0.228532
O	0.936569	-1.36868	1.13903
H	3.00773	-0.77098	0.710256
H	1.33984	1.233	-0.490867
C	1.75367	-0.289493	-1.98804
H	2.05983	-1.35674	-2.02393
H	0.792193	-0.170713	-2.52838
H	2.52632	0.30893	-2.51837
N	-0.682266	-0.458143	-0.130434
C	-1.74226	-1.17992	0.534115
H	-0.929191	0.162937	-0.866886
H	-2.73071	-0.91862	0.0960261
H	-1.76421	-0.933504	1.62043
H	-1.59302	-2.27925	0.43244
