44
  This energy is -0.784 and Call times are: 193350
C	0.0718271	0.56279	3.43377
C	0.744611	0.40415	2.12483
O	1.92809	0.679687	1.9839
H	0.798261	0.963106	4.17399
H	-0.303118	-0.41867	3.79279
H	-0.777599	1.27237	3.34394
N	-0.00965004	-0.0495489	1.12102
C	0.492681	-0.215082	-0.220179
C	-0.665803	-0.0405912	-1.18404
O	-1.82174	0.0358709	-0.772114
H	-0.981564	-0.230597	1.24132
H	1.20961	0.568268	-0.432344
C	1.14097	-1.60542	-0.398806
H	0.403001	-2.40945	-0.191515
H	1.54401	-1.73988	-1.4235
H	1.98083	-1.71406	0.32174
N	-0.379428	0.0352778	-2.49867
C	-1.41628	0.206712	-3.48949
H	0.562416	-0.024511	-2.8124
H	-0.980361	0.246628	-4.51203
H	-1.97789	1.15219	-3.31077
H	-2.14131	-0.638225	-3.44994
C	5.00695	3.42682	-0.273379
C	5.57179	2.15294	-0.772709
O	6.03392	2.06492	-1.90191
H	5.07177	4.19595	-1.07344
H	5.57917	3.77872	0.610638
H	3.94141	3.28905	0.00716837
N	5.54411	1.1198	0.0724244
C	6.01752	-0.194261	-0.284885
C	5.24256	-1.21361	0.528706
O	4.49905	-0.857571	1.44092
H	5.1275	1.19612	0.973794
H	5.79878	-0.381124	-1.32885
C	7.53277	-0.326505	-0.01695
H	7.75644	-0.145265	1.05597
H	7.91208	-1.32947	-0.301032
H	8.0792	0.434035	-0.616387
N	5.39347	-2.51403	0.209089
C	4.69207	-3.55452	0.92434
H	5.99643	-2.78228	-0.534918
H	4.94788	-4.55575	0.512827
H	3.58999	-3.41312	0.84249
H	4.96271	-3.53977	2.00493
