44
  This energy is 0.1205 and Call times are: 191133
C	-0.20057	-1.51193	3.12834
C	0.453172	-0.603726	2.15936
O	1.33716	0.165722	2.50997
H	0.230713	-1.34279	4.13892
H	-0.0295487	-2.56959	2.83704
H	-1.29202	-1.31073	3.16515
N	0.023107	-0.673353	0.897385
C	0.532748	0.177081	-0.149318
C	-0.562188	0.363085	-1.18279
O	-1.59762	-0.29776	-1.12921
H	-0.725551	-1.27566	0.63545
H	0.757797	1.15342	0.261481
C	1.79075	-0.440446	-0.798418
H	1.55787	-1.43752	-1.22929
H	2.20078	0.211644	-1.59665
H	2.57569	-0.574905	-0.0224414
N	-0.360393	1.28012	-2.14941
C	-1.34879	1.52994	-3.17256
H	0.482135	1.80797	-2.17378
H	-0.997925	2.31858	-3.87411
H	-2.30834	1.86713	-2.71776
H	-1.55091	0.604051	-3.75824
C	7.44999	0.83389	2.2732
C	6.57699	1.15272	1.12108
O	6.49653	2.29249	0.684181
H	7.94655	1.76379	2.62616
H	8.22916	0.102473	1.97207
H	6.84739	0.410595	3.10432
N	5.89063	0.134605	0.596933
C	4.96811	0.296784	-0.499064
C	3.90092	-0.775072	-0.381577
O	4.01112	-1.68653	0.436231
H	5.93527	-0.779637	0.989395
H	4.47317	1.25584	-0.410445
C	5.69831	0.187479	-1.85557
H	6.19744	-0.800309	-1.9514
H	5.00098	0.324447	-2.70733
H	6.47981	0.976089	-1.91628
N	2.83159	-0.684743	-1.19668
C	1.76341	-1.65594	-1.15265
H	2.75828	0.0623176	-1.84906
H	0.976091	-1.40866	-1.89845
H	1.2944	-1.67843	-0.142306
H	2.15048	-2.67636	-1.37637
