44
  This energy is 0.1225 and Call times are: 190911
C	3.34987	-0.156665	0.93088
C	1.97776	0.37664	1.08595
O	1.66548	1.04673	2.06056
H	3.96059	0.139146	1.81144
H	3.81928	0.255696	0.0130816
H	3.32471	-1.26499	0.866973
N	1.11347	0.0834803	0.111555
C	-0.267825	0.495287	0.14295
C	-1.08161	-0.518886	-0.638565
O	-0.528277	-1.39475	-1.30068
H	1.37144	-0.497384	-0.655205
H	-0.623442	0.475132	1.16558
C	-0.436663	1.90648	-0.461426
H	-0.081743	1.92509	-1.51391
H	-1.49398	2.24061	-0.430371
H	0.17366	2.63066	0.121172
N	-2.42449	-0.427881	-0.572125
C	-3.28062	-1.35246	-1.27808
H	-2.85384	0.285165	-0.0277961
H	-4.35171	-1.1129	-1.09749
H	-3.09341	-2.39745	-0.940116
H	-3.0906	-1.30505	-2.3748
C	0.1984	1.79142	2.29945
C	0.33078	0.795621	1.21225
O	-0.59758	0.0570201	0.913873
H	-0.815776	1.7129	2.74794
H	0.335169	2.81732	1.8975
H	0.956007	1.59967	3.08834
N	1.50992	0.752136	0.587654
C	1.8037	-0.19251	-0.461105
C	3.29576	-0.466544	-0.446528
O	4.05192	0.201426	0.256144
H	2.26935	1.33169	0.869141
H	1.30176	-1.12846	-0.249736
C	1.36755	0.357273	-1.83688
H	1.89013	1.31209	-2.05887
H	1.57583	-0.366755	-2.65108
H	0.274021	0.558024	-1.82197
N	3.75503	-1.46874	-1.22157
C	5.15872	-1.80589	-1.26811
H	3.12719	-2.00067	-1.78009
H	5.33598	-2.65681	-1.96219
H	5.5268	-2.09563	-0.257249
H	5.76044	-0.936206	-1.61843
