44
  This energy is 0.1184 and Call times are: 192747
C	-0.20057	-3.473	-0.103688
C	0.453172	-2.21775	0.330026
O	1.33716	-2.22383	1.17557
H	0.230713	-4.32658	0.463125
H	-0.0295487	-3.63866	-1.18815
H	-1.29202	-3.4245	0.0950191
N	0.023107	-1.09405	-0.248528
C	0.532748	0.208582	0.100731
C	-0.562188	1.22799	-0.1512
O	-1.59762	0.909395	-0.732648
H	-0.725551	-1.1007	-0.905288
H	0.757797	0.231971	1.15971
C	1.79075	0.549173	-0.727923
H	1.55787	0.535653	-1.81403
H	2.20078	1.54402	-0.458345
H	2.57569	-0.214121	-0.534015
N	-0.360393	2.48469	0.291541
C	-1.34879	3.52072	0.102083
H	0.482135	2.72234	0.763495
H	-0.997925	4.48302	0.535777
H	-2.30834	3.2431	0.595515
H	-1.55091	3.67757	-0.982207
C	7.76589	1.26364	-0.89845
C	6.8506	0.620507	0.0709733
O	7.27252	0.122841	1.10573
H	8.81025	1.18439	-0.525785
H	7.50658	2.33684	-1.01564
H	7.69667	0.757061	-1.88418
N	5.55472	0.614978	-0.250045
C	4.54925	-0.0109652	0.572017
C	3.41452	-0.460779	-0.328879
O	3.37913	-0.126763	-1.51162
H	5.23154	0.987792	-1.11516
H	4.96602	-0.897752	1.03303
C	4.03042	0.966553	1.64929
H	3.59321	1.87176	1.17654
H	3.2656	0.491929	2.2976
H	4.87883	1.28866	2.29176
N	2.45878	-1.24185	0.211969
C	1.34351	-1.72266	-0.569803
H	2.50685	-1.50495	1.16985
H	0.667475	-2.34885	0.053173
H	1.70098	-2.33853	-1.42666
H	0.754129	-0.870541	-0.979266
