44
  This energy is -1.9076 and Call times are: 192015
C	-1.59607	2.16104	2.2125
C	-0.42476	1.36141	1.78853
O	0.661874	1.49159	2.33505
H	-1.29522	2.84536	3.03534
H	-2.40369	1.49261	2.57815
H	-1.97433	2.76638	1.36186
N	-0.6238	0.503101	0.785495
C	0.429959	-0.312263	0.234737
C	0.102542	-0.588696	-1.22058
O	-0.99153	-0.280682	-1.68946
H	-1.50369	0.437885	0.323542
H	1.35952	0.242784	0.256433
C	0.570801	-1.63537	1.01883
H	-0.379344	-2.21009	0.988001
H	1.38822	-2.26596	0.613002
H	0.802404	-1.40876	2.08248
N	1.05383	-1.17286	-1.97545
C	0.834405	-1.46937	-3.37192
H	1.93437	-1.41097	-1.5792
H	1.7338	-1.94791	-3.81837
H	0.6141	-0.537487	-3.94142
H	-0.0294012	-2.16195	-3.49567
C	4.26488	-2.74714	-1.17446
C	4.90271	-1.97726	-0.0828432
O	4.71408	-2.26752	1.09044
H	3.63011	-3.54799	-0.736786
H	5.04046	-3.21423	-1.81715
H	3.62684	-2.07968	-1.79128
N	5.68369	-0.959427	-0.452272
C	6.33752	-0.0925828	0.496222
C	6.51432	1.26833	-0.150479
O	6.27635	1.43348	-1.34539
H	5.79486	-0.710065	-1.41004
H	5.6967	0.0410027	1.35885
C	7.70461	-0.671649	0.921627
H	8.36617	-0.799019	0.0383603
H	8.21183	-0.0201141	1.66241
H	7.55182	-1.6708	1.38498
N	6.93103	2.28313	0.632169
C	7.12221	3.61446	0.105667
H	7.11454	2.13089	1.59768
H	7.46693	4.30751	0.904462
H	6.16988	4.01087	-0.31529
H	7.88366	3.60994	-0.707543
