44
  This energy is -1.9529 and Call times are: 193528
C	-1.48834	1.45998	2.78675
C	-0.298196	1.00627	2.03253
O	0.831152	1.31665	2.38559
H	-1.16268	2.09278	3.6408
H	-2.04825	0.585687	3.18027
H	-2.15301	2.05868	2.12883
N	-0.529981	0.250045	0.956993
C	0.523883	-0.230828	0.0986866
C	-0.0439929	-0.400838	-1.2978
O	-1.25193	-0.298751	-1.5032
H	-1.45668	0.0398556	0.6588
H	1.30577	0.516072	0.0402282
C	1.09156	-1.56956	0.619058
H	0.291998	-2.33911	0.669222
H	1.91325	-1.94328	-0.0256808
H	1.49432	-1.42333	1.6451
N	0.821917	-0.657705	-2.29792
C	0.373881	-0.8293	-3.66027
H	1.79616	-0.732641	-2.11271
H	1.23473	-1.03251	-4.33472
H	-0.145418	0.0878499	-4.02143
H	-0.339277	-1.68192	-3.73506
C	6.21667	3.16833	-1.2193
C	5.6593	1.80726	-1.38662
O	5.00019	1.51004	-2.37335
H	5.9183	3.79656	-2.08657
H	7.32507	3.12476	-1.17151
H	5.82465	3.63066	-0.288898
N	5.91461	0.936865	-0.407014
C	5.40388	-0.411359	-0.407591
C	5.24932	-0.859209	1.03363
O	5.69308	-0.177855	1.95588
H	6.41802	1.20538	0.409281
H	4.41799	-0.419688	-0.85545
C	6.35342	-1.36068	-1.17074
H	7.36209	-1.36053	-0.705305
H	5.96426	-2.39929	-1.19016
H	6.45796	-1.0093	-2.22048
N	4.60399	-2.02001	1.2619
C	4.4045	-2.5233	2.60096
H	4.2484	-2.55534	0.502923
H	3.85342	-3.48927	2.57999
H	3.81742	-1.79805	3.20976
H	5.38237	-2.68821	3.10863
