44
  This energy is -4.1205 and Call times are: 193322
C	0.181531	-3.4753	-0.0446105
C	0.182606	-2.16141	-0.726388
O	0.496867	-2.05971	-1.90423
H	0.512853	-4.26004	-0.758961
H	-0.841246	-3.72133	0.310554
H	0.878653	-3.45858	0.819585
N	-0.173236	-1.10862	0.0134745
C	-0.179034	0.239239	-0.498182
C	0.0764113	1.18575	0.659585
O	0.0825718	0.775696	1.8187
H	-0.386875	-1.20167	0.981756
H	0.637867	0.35886	-1.19889
C	-1.52719	0.565779	-1.17721
H	-2.36455	0.453425	-0.455929
H	-1.53916	1.59632	-1.58754
H	-1.69703	-0.144025	-2.01607
N	0.303005	2.48203	0.369177
C	0.560951	3.45485	1.40516
H	0.298063	2.79409	-0.575103
H	0.722712	4.46379	0.965741
H	1.46888	3.17671	1.98789
H	-0.298255	3.51363	2.11188
C	6.42477	2.10562	2.48577
C	5.34781	1.2862	1.88588
O	4.32559	1.03111	2.5075
H	6.13669	2.38964	3.52124
H	6.57992	3.0294	1.88971
H	7.37131	1.52615	2.52225
N	5.55876	0.846834	0.642962
C	4.62186	0.00348449	-0.056705
C	5.39828	-0.851458	-1.04048
O	6.59081	-0.641068	-1.25334
H	6.41343	1.02851	0.165063
H	4.14823	-0.666951	0.649558
C	3.56158	0.850214	-0.79433
H	4.04621	1.53069	-1.52653
H	2.82611	0.211971	-1.32561
H	3.01122	1.47352	-0.0561345
N	4.73662	-1.84825	-1.66067
C	5.3944	-2.71687	-2.60882
H	3.77284	-2.00551	-1.4723
H	4.68305	-3.47247	-3.00918
H	6.24221	-3.2549	-2.12609
H	5.8004	-2.12952	-3.464
