44
  This energy is -1.8246 and Call times are: 188152
C	1.42161	2.25713	2.23541
C	0.249093	1.63627	1.579
O	-0.88584	1.83714	1.98887
H	1.079	2.86443	3.10125
H	1.95446	2.91892	1.52067
H	2.11659	1.47154	2.60003
N	0.503004	0.852703	0.528323
C	-0.530429	0.145961	-0.186585
C	0.0790916	-1.11044	-0.779462
O	1.29448	-1.29428	-0.751904
H	1.43527	0.666186	0.231751
H	-1.2979	-0.16595	0.510785
C	-1.136	1.03061	-1.2983
H	-0.350964	1.34219	-2.01988
H	-1.94252	0.502485	-1.84706
H	-1.56902	1.94771	-0.842492
N	-0.758352	-2.01399	-1.32564
C	-0.269714	-3.24168	-1.9089
H	-1.73911	-1.84939	-1.33483
H	-1.11167	-3.85164	-2.30423
H	0.27561	-3.84755	-1.14942
H	0.431637	-3.02661	-2.74735
C	4.18168	1.27757	-2.99938
C	5.05946	1.35659	-1.81008
O	5.95171	2.19016	-1.73614
H	4.49333	2.04803	-3.73771
H	3.12633	1.46401	-2.70916
H	4.26392	0.275047	-3.46975
N	4.82234	0.473023	-0.837729
C	5.61963	0.398501	0.361156
C	5.58396	-1.03213	0.864736
O	4.82116	-1.85684	0.365043
H	4.11886	-0.225865	-0.930148
H	6.64964	0.63004	0.120137
C	5.08529	1.3658	1.44007
H	4.03197	1.12204	1.69531
H	5.69917	1.32784	2.36323
H	5.11312	2.40554	1.04701
N	6.42086	-1.36298	1.8678
C	6.46105	-2.70184	2.40817
H	7.03361	-0.682858	2.25644
H	7.21276	-2.77391	3.22486
H	6.73237	-3.43705	1.61625
H	5.46673	-2.98943	2.82019
