44
  This energy is -4.0471 and Call times are: 188714
C	2.39484	-2.02535	-1.50845
C	1.0027	-1.54614	-1.35525
O	0.13826	-1.84212	-2.1686
H	2.4745	-2.63166	-2.43685
H	2.67973	-2.65717	-0.64105
H	3.09054	-1.16295	-1.58165
N	0.752585	-0.779854	-0.291005
C	-0.543152	-0.203749	-0.0307564
C	-0.340972	1.08406	0.745284
O	0.766336	1.38672	1.18571
H	1.47576	-0.51388	0.339985
H	-1.01368	0.0565385	-0.970694
C	-1.43207	-1.18283	0.767033
H	-0.954704	-1.44194	1.73606
H	-2.43735	-0.756197	0.961768
H	-1.55991	-2.12086	0.183858
N	-1.41274	1.88114	0.924139
C	-1.31489	3.12892	1.64501
H	-2.29961	1.62121	0.556757
H	-2.30257	3.639	1.68412
H	-0.586924	3.81217	1.15053
H	-0.969086	2.9534	2.68941
C	6.60487	-2.57329	1.97895
C	5.80999	-1.3378	1.79761
O	5.06451	-0.929863	2.67754
H	6.38221	-3.01014	2.97667
H	7.68939	-2.34246	1.92161
H	6.34312	-3.31519	1.19529
N	5.95289	-0.706196	0.630115
C	5.21374	0.484174	0.290659
C	5.04893	0.524778	-1.21691
O	5.64717	-0.271796	-1.93752
H	6.53242	-1.0728	-0.0921086
H	4.22231	0.424214	0.722032
C	5.94584	1.74922	0.789593
H	6.95904	1.81674	0.339147
H	5.37977	2.67171	0.546454
H	6.0624	1.69423	1.89401
N	4.22081	1.45559	-1.73053
C	3.9974	1.56614	-3.15322
H	3.74239	2.08872	-1.13108
H	3.2848	2.3905	-3.37652
H	3.57532	0.618405	-3.55934
H	4.95324	1.77466	-3.68616
