44
  This energy is 0.2039 and Call times are: 191987
C	-0.0416936	-2.57816	-2.33753
C	-0.513249	-1.26897	-1.83275
O	-1.20395	-0.534828	-2.52583
H	-0.400075	-2.7205	-3.38021
H	-0.441171	-3.39861	-1.70506
H	1.06817	-2.61359	-2.33103
N	-0.141633	-0.942226	-0.592781
C	-0.486773	0.316443	0.0197465
C	0.594698	0.665681	1.02474
O	1.4672	-0.148883	1.3196
H	0.45475	-1.53218	-0.0559893
H	-0.488266	1.09266	-0.735315
C	-1.8641	0.233086	0.713471
H	-1.8599	-0.555954	1.49541
H	-2.14743	1.20019	1.17711
H	-2.63869	-0.0313777	-0.0391403
N	0.566551	1.89732	1.57092
C	1.55778	2.32066	2.53238
H	-0.144983	2.54397	1.3167
H	1.36383	3.3647	2.86341
H	2.57885	2.27765	2.0887
H	1.54293	1.6598	3.42915
C	2.3883	-0.27362	0.233538
C	3.73208	-0.863431	0.0397537
O	3.89903	-2.07522	0.0504758
H	1.64908	-1.08845	0.393095
H	2.09292	0.30885	-0.664361
H	2.38706	0.391854	1.12248
N	4.73694	-0.00354243	-0.142538
C	6.10642	-0.425215	-0.301523
C	7.00536	0.682847	0.213899
O	6.54182	1.7811	0.515017
H	4.59172	0.981123	-0.107858
H	6.28515	-1.29812	0.31388
C	6.42062	-0.732812	-1.78203
H	6.24751	0.16543	-2.4123
H	7.46834	-1.07187	-1.91562
H	5.74582	-1.54069	-2.14024
N	8.32049	0.415278	0.335834
C	9.25149	1.40628	0.822994
H	8.67617	-0.480621	0.0910274
H	10.2846	0.995121	0.850914
H	8.97588	1.7317	1.85227
H	9.24922	2.30495	0.164573
