44
  This energy is 0.1034 and Call times are: 190187
C	-0.99933	-2.32274	-2.39142
C	-1.23719	-1.1166	-1.56692
O	-2.18778	-0.37819	-1.78493
H	-1.78102	-2.38921	-3.17909
H	-1.0478	-3.23416	-1.7592
H	-0.00296913	-2.26324	-2.87806
N	-0.361407	-0.886157	-0.58596
C	-0.436491	0.269869	0.272251
C	0.968279	0.607291	0.735199
O	1.90608	-0.154983	0.508949
H	0.430431	-1.47396	-0.446866
H	-0.799887	1.11541	-0.298393
C	-1.35539	-0.00109126	1.48363
H	-0.977152	-0.861827	2.07533
H	-1.43243	0.886291	2.1448
H	-2.37573	-0.253651	1.12105
N	1.14784	1.77044	1.39161
C	2.45012	2.17797	1.86507
H	0.377473	2.376	1.56162
H	2.3913	3.16268	2.37897
H	3.16622	2.26782	1.0163
H	2.85852	1.43104	2.58371
C	5.86865	-2.96731	-0.0179264
C	4.76051	-2.11502	-0.504527
O	4.11073	-2.42511	-1.49349
H	5.97878	-3.84583	-0.69019
H	5.65223	-3.32639	1.01016
H	6.81987	-2.39438	-0.0165632
N	4.51872	-1.0015	0.191161
C	3.50159	-0.051343	-0.184618
C	3.93106	1.31926	0.303837
O	4.90317	1.44738	1.04564
H	5.0827	-0.74188	0.969862
H	3.43869	-0.00378288	-1.26462
C	2.13452	-0.438155	0.420977
H	2.19584	-0.476794	1.52949
H	1.34004	0.278215	0.127485
H	1.84397	-1.44757	0.0562788
N	3.21577	2.38334	-0.11103
C	3.55329	3.72689	0.297774
H	2.43491	2.25999	-0.714451
H	2.84797	4.46247	-0.147957
H	4.58574	3.98911	-0.0286788
H	3.50678	3.82372	1.40665
