44
  This energy is 0.1092 and Call times are: 192207
C	-3.2124	0.207597	-1.32289
C	-1.9094	-0.477002	-1.16591
O	-1.74462	-1.62275	-1.56153
H	-3.93421	-0.48371	-1.80968
H	-3.09602	1.11102	-1.95774
H	-3.61163	0.502936	-0.329675
N	-0.939374	0.222248	-0.572208
C	0.368929	-0.324005	-0.310461
C	0.935544	0.371081	0.913204
O	0.369731	1.34741	1.40141
H	-1.10079	1.13926	-0.218788
H	0.275332	-1.37562	-0.0696798
C	1.30197	-0.12756	-1.52541
H	1.4067	0.95181	-1.7663
H	2.30836	-0.556351	-1.34145
H	0.863733	-0.637582	-2.41094
N	2.07003	-0.125116	1.44495
C	2.67967	0.467256	2.61269
H	2.51102	-0.918334	1.03825
H	3.60369	-0.0833331	2.89601
H	1.97778	0.442384	3.47757
H	2.9504	1.53029	2.41825
C	5.75849	-2.26508	-0.968493
C	5.32908	-0.924467	-0.51076
O	6.14395	-0.0920516	-0.137271
H	6.86438	-2.34416	-0.887164
H	5.46402	-2.4203	-2.02771
H	5.29455	-3.05184	-0.336956
N	4.016	-0.683863	-0.528124
C	3.44362	0.558268	-0.072004
C	2.04294	0.274813	0.437227
O	1.521	-0.825105	0.26557
H	3.36208	-1.38562	-0.796061
H	4.02134	0.932063	0.764142
C	3.40491	1.59941	-1.21207
H	2.80357	1.22072	-2.0659
H	2.97898	2.56477	-0.869736
H	4.43951	1.78537	-1.57453
N	1.40162	1.26566	1.08757
C	0.0679788	1.08611	1.61229
H	1.84195	2.14746	1.22026
H	-0.286066	2.01433	2.11258
H	0.0469404	0.25711	2.35634
H	-0.64553	0.834279	0.794597
