44
  This energy is -6.6667 and Call times are: 192554
C	-1.06027	1.94964	-2.68093
C	-0.000959263	1.26622	-1.90509
O	1.13067	1.14128	-2.35254
H	-0.647597	2.27128	-3.66182
H	-1.41996	2.84486	-2.13142
H	-1.91108	1.25844	-2.85825
N	-0.352214	0.799045	-0.704778
C	0.556907	0.0742456	0.147704
C	-0.256304	-0.873738	1.00885
O	-1.48416	-0.81235	1.02641
H	-1.28785	0.872333	-0.371484
H	1.21527	-0.529946	-0.463962
C	1.37474	1.04171	1.03111
H	0.700242	1.6544	1.66649
H	2.08836	0.496425	1.68221
H	1.95558	1.73102	0.380096
N	0.414563	-1.78429	1.74155
C	-0.275084	-2.73114	2.58657
H	1.40793	-1.82117	1.71102
H	0.450096	-3.39529	3.10641
H	-0.963051	-3.3672	1.98375
H	-0.880797	-2.20172	3.35727
C	3.48474	-1.59408	-2.80031
C	3.70792	-1.49803	-1.34013
O	3.10314	-2.21901	-0.558569
H	2.71455	-2.36946	-3.00391
H	4.42692	-1.87995	-3.31347
H	3.12829	-0.620422	-3.19781
N	4.59566	-0.587289	-0.934116
C	4.88767	-0.34749	0.457207
C	5.32022	1.09887	0.607251
O	5.53151	1.79881	-0.381258
H	5.04974	0.0203238	-1.57947
H	3.98358	-0.475833	1.03924
C	5.99532	-1.29889	0.960382
H	6.92634	-1.16017	0.37046
H	6.21953	-1.13351	2.03411
H	5.66041	-2.35157	0.833671
N	5.45441	1.58495	1.85695
C	5.85644	2.95122	2.09746
H	5.275	1.0044	2.64425
H	5.9093	3.15928	3.18886
H	5.12941	3.66088	1.64021
H	6.8587	3.14998	1.65348
