44
  This energy is -2.3536 and Call times are: 188742
C	0.967209	-1.17351	3.13051
C	-0.0187658	-0.547752	2.22088
O	-1.18194	-0.385619	2.56314
H	0.464458	-1.45059	4.08253
H	1.78929	-0.460974	3.35237
H	1.38812	-2.09028	2.66634
N	0.432603	-0.178515	1.01991
C	-0.417319	0.403964	0.0114949
C	0.153856	0.0522791	-1.34925
O	1.25784	-0.479383	-1.45059
H	1.3723	-0.354344	0.740776
H	-1.4021	-0.0421877	0.0730682
C	-0.5054	1.9364	0.182153
H	0.503392	2.3957	0.108542
H	-1.1681	2.39512	-0.580029
H	-0.91839	2.17056	1.18762
N	-0.594363	0.335591	-2.43365
C	-0.135318	0.0320081	-3.76906
H	-1.48691	0.762144	-2.33125
H	-0.891511	0.340051	-4.52437
H	0.0480776	-1.06106	-3.88235
H	0.817315	0.56643	-3.9882
C	5.42389	1.81769	-2.95509
C	5.28831	1.68908	-1.48667
O	5.07179	2.66601	-0.783004
H	5.31626	2.8864	-3.24166
H	4.63405	1.22744	-3.46548
H	6.42263	1.45729	-3.28018
N	5.41738	0.458922	-0.984254
C	5.35336	0.181999	0.429171
C	6.19659	-1.04775	0.708882
O	6.65411	-1.72062	-0.212871
H	5.63418	-0.320225	-1.56545
H	5.79452	1.0066	0.975086
C	3.89441	-0.0476634	0.880817
H	3.44475	-0.900246	0.328593
H	3.83046	-0.248178	1.96996
H	3.29418	0.861721	0.65928
N	6.42969	-1.36621	1.99739
C	7.22564	-2.51567	2.35986
H	6.05438	-0.807227	2.72934
H	7.30172	-2.60845	3.46568
H	8.25543	-2.42731	1.94391
H	6.77079	-3.45067	1.95982
