44
  This energy is -4.2282 and Call times are: 188874
C	-2.15828	1.33229	2.38317
C	-1.27301	1.46987	1.20482
O	-1.25312	2.49965	0.544842
H	-2.75039	2.26479	2.5086
H	-1.55323	1.16486	3.29894
H	-2.85584	0.480168	2.24035
N	-0.510026	0.41491	0.909375
C	0.370122	0.382924	-0.232061
C	0.511684	-1.05963	-0.679888
O	0.06146	-1.97798	0.00250026
H	-0.567348	-0.431113	1.4317
H	-0.0834892	0.931067	-1.0484
C	1.75097	0.978844	0.119177
H	2.22138	0.410329	0.949568
H	2.4333	0.972582	-0.755418
H	1.62234	2.03203	0.451761
N	1.13796	-1.29245	-1.85019
C	1.31457	-2.63244	-2.35951
H	1.49188	-0.536065	-2.39028
H	1.85167	-2.61537	-3.3334
H	0.328365	-3.1279	-2.51181
H	1.90448	-3.2502	-1.64431
C	5.00057	2.93068	1.80954
C	5.40215	1.50899	1.71642
O	5.96931	0.949322	2.6446
H	5.31309	3.33674	2.7961
H	3.89821	3.02392	1.7154
H	5.49111	3.52027	1.00653
N	5.11346	0.884487	0.57228
C	5.47958	-0.486399	0.316974
C	5.66829	-0.654839	-1.17888
O	5.35145	0.241538	-1.95851
H	4.68819	1.36475	-0.189528
H	6.43208	-0.695382	0.787817
C	4.39408	-1.45355	0.838096
H	3.41911	-1.24645	0.347601
H	4.67079	-2.51288	0.65984
H	4.26724	-1.30726	1.93302
N	6.20068	-1.81329	-1.61542
C	6.42241	-2.06104	-3.02099
H	6.45456	-2.52515	-0.968987
H	6.86739	-3.0684	-3.17736
H	7.1158	-1.30132	-3.44914
H	5.46317	-2.0098	-3.58524
