44
  This energy is -1.5404 and Call times are: 189097
C	-2.83005	0.729322	-1.88987
C	-1.45146	0.20714	-1.75586
O	-0.920297	-0.417832	-2.66343
H	-3.23704	0.441029	-2.88341
H	-2.82935	1.83669	-1.80936
H	-3.47995	0.301713	-1.09748
N	-0.832949	0.454696	-0.598905
C	0.494087	-0.0257542	-0.304449
C	0.608099	-0.209878	1.1971
O	-0.276477	0.193119	1.94999
H	-1.29324	0.92939	0.145851
H	0.631083	-0.998534	-0.76004
C	1.56471	0.96526	-0.811299
H	1.43107	1.9605	-0.336245
H	2.59117	0.599946	-0.602848
H	1.45737	1.09079	-1.91088
N	1.70459	-0.835294	1.6689
C	1.89696	-1.06029	3.0826
H	2.40756	-1.15791	1.04375
H	2.85757	-1.58899	3.26953
H	1.06935	-1.67985	3.49791
H	1.91533	-0.0933294	3.63558
C	5.60835	1.78276	-2.98292
C	5.25723	0.622684	-2.13316
O	4.3756	-0.159007	-2.46194
H	4.95027	1.79434	-3.87882
H	6.6654	1.70834	-3.31438
H	5.4638	2.72814	-2.41862
N	5.95058	0.48521	-1.00057
C	5.69411	-0.568908	-0.0510336
C	6.08311	-0.0687692	1.32741
O	6.68032	0.997087	1.46528
H	6.63715	1.15264	-0.726697
H	4.63221	-0.77998	-0.0297869
C	6.49212	-1.8414	-0.41048
H	7.58222	-1.62791	-0.422086
H	6.29248	-2.6649	0.305415
H	6.19716	-2.18493	-1.42602
N	5.7434	-0.828713	2.38717
C	6.06691	-0.430778	3.73742
H	5.25674	-1.68602	2.25582
H	5.70376	-1.18688	4.46794
H	5.59463	0.548145	3.98223
H	7.16874	-0.323307	3.86221
