44
  This energy is 0.1343 and Call times are: 190119
C	0.594919	-1.53164	-3.06803
C	0.770231	-1.44091	-1.601
O	1.27969	-2.35442	-0.96669
H	0.970736	-2.51596	-3.42266
H	1.16771	-0.725321	-3.57251
H	-0.480092	-1.44139	-3.33128
N	0.342005	-0.317499	-1.02052
C	0.405587	-0.101047	0.403439
C	-0.721268	0.838341	0.789837
O	-1.39238	1.40443	-0.0708972
H	-0.107821	0.400023	-1.54463
H	0.233103	-1.0395	0.915473
C	1.771	0.494971	0.810439
H	1.94378	1.46292	0.293478
H	1.83752	0.653364	1.90635
H	2.58108	-0.205341	0.510958
N	-0.961344	1.01985	2.1034
C	-2.01663	1.891	2.56563
H	-0.410242	0.54988	2.78493
H	-2.05483	1.90697	3.67716
H	-3.00552	1.54579	2.1859
H	-1.85281	2.93235	2.20522
C	6.25568	1.49417	-1.89784
C	5.75864	0.417612	-1.01176
O	6.40626	-0.604673	-0.833068
H	7.23285	1.19045	-2.33228
H	6.39525	2.43175	-1.31973
H	5.5353	1.67316	-2.72373
N	4.57557	0.626979	-0.429617
C	3.9424	-0.346645	0.424611
C	2.44065	-0.153277	0.330149
O	1.96636	0.8183	-0.255341
H	4.04135	1.44633	-0.617037
H	4.16328	-1.34122	0.0576459
C	4.41759	-0.190595	1.8858
H	4.18175	0.826128	2.2662
H	3.94763	-0.943637	2.55108
H	5.52007	-0.328132	1.92986
N	1.653	-1.08562	0.901441
C	0.212601	-0.988264	0.857455
H	2.05526	-1.86687	1.36718
H	-0.256	-1.84978	1.38228
H	-0.14861	-0.981354	-0.196471
H	-0.133012	-0.0490961	1.34701
