44
  This energy is -7.9603 and Call times are: 190621
C	1.39729	0.177079	3.18259
C	0.32163	-0.23432	2.25263
O	-0.560521	-1.00453	2.60617
H	1.25103	-0.330343	4.16086
H	1.36789	1.2758	3.33971
H	2.38834	-0.111142	2.7729
N	0.374009	0.277891	1.02085
C	-0.577522	-0.0623408	-0.00744527
C	0.111026	0.0729451	-1.35249
O	1.22948	0.576112	-1.43967
H	1.12119	0.871378	0.735623
H	-0.867731	-1.0997	0.10348
C	-1.8166	0.857	0.0614571
H	-1.52064	1.92048	-0.0628358
H	-2.56296	0.596023	-0.716587
H	-2.29985	0.747604	1.05687
N	-0.542864	-0.384332	-2.43847
C	0.0360232	-0.303035	-3.75925
H	-1.44539	-0.792032	-2.34735
H	-0.6548	-0.731504	-4.51846
H	0.99667	-0.865684	-3.80237
H	0.244072	0.75673	-4.03267
C	2.23946	-2.61624	-0.397538
C	3.60568	-2.05156	-0.47329
O	4.57786	-2.76967	-0.661989
H	2.29115	-3.7202	-0.517719
H	1.60621	-2.19588	-1.20688
H	1.78307	-2.38297	0.587532
N	3.71045	-0.729153	-0.322763
C	4.977	-0.040412	-0.329113
C	4.84216	1.20549	0.525939
O	3.74411	1.56502	0.946312
H	2.91435	-0.162992	-0.128992
H	5.72782	-0.669119	0.133061
C	5.39463	0.333154	-1.76831
H	4.62972	0.986768	-2.2392
H	6.37502	0.851787	-1.78782
H	5.47943	-0.592885	-2.37789
N	5.96577	1.89251	0.81145
C	5.93573	3.08726	1.62254
H	6.84559	1.58364	0.465622
H	6.95896	3.50629	1.74352
H	5.52621	2.8648	2.63451
H	5.29134	3.86518	1.15271
