44
  This energy is 0.1067 and Call times are: 191073
C	2.512	-0.572905	2.33973
C	1.10573	-0.668518	1.88762
O	0.295712	-1.36616	2.48224
H	2.6561	-1.22131	3.23118
H	2.75527	0.474995	2.61444
H	3.19686	-0.912139	1.53414
N	0.780896	0.0416624	0.804801
C	-0.537042	0.016494	0.220879
C	-0.40178	0.295284	-1.26423
O	0.672569	0.654326	-1.74232
H	1.46116	0.57262	0.307619
H	-0.955348	-0.976802	0.325828
C	-1.45569	1.06415	0.887018
H	-1.03229	2.08454	0.770467
H	-2.47744	1.04512	0.455533
H	-1.53377	0.845321	1.97438
N	-1.49492	0.126961	-2.03413
C	-1.45988	0.363232	-3.4586
H	-2.35424	-0.168066	-1.62966
H	-2.45622	0.170189	-3.91387
H	-0.715053	-0.304402	-3.94928
H	-1.1736	1.41788	-3.67517
C	2.32225	-1.05908	1.73059
C	3.54563	-1.33046	0.942651
O	3.99204	-2.46448	0.837146
H	1.95178	-2.00943	2.17268
H	1.53186	-0.634952	1.07627
H	2.54588	-0.344454	2.55057
N	4.1251	-0.275906	0.364266
C	5.34468	-0.375598	-0.398119
C	6.07606	0.949618	-0.29586
O	5.53683	1.92865	0.216413
H	3.77303	0.646755	0.493113
H	5.98204	-1.13079	0.0446881
C	5.04606	-0.716742	-1.8745
H	4.40087	0.0631505	-2.33225
H	5.97792	-0.809898	-2.46903
H	4.50371	-1.68611	-1.92472
N	7.33339	1.00865	-0.777174
C	8.1089	2.22574	-0.71841
H	7.75419	0.204799	-1.18439
H	9.11631	2.07206	-1.16421
H	8.23964	2.55759	0.337079
H	7.59921	3.04393	-1.27692
