44
  This energy is 0.1063 and Call times are: 193266
C	-0.936817	-2.18673	-2.54032
C	-0.497571	-1.9115	-1.1538
O	-0.518517	-2.78528	-0.297941
H	-1.27178	-3.24404	-2.61645
H	-0.0963622	-2.02423	-3.24741
H	-1.78291	-1.52122	-2.81294
N	-0.0851382	-0.667828	-0.897773
C	0.331359	-0.237685	0.41374
C	0.0485634	1.24777	0.536292
O	-0.299669	1.90542	-0.442454
H	-0.112517	0.0431146	-1.59468
H	-0.266713	-0.742713	1.162
C	1.83261	-0.52332	0.637128
H	2.44729	0.00306822	-0.123874
H	2.16235	-0.20922	1.64863
H	2.01767	-1.61495	0.534919
N	0.184757	1.81195	1.75251
C	-0.0681768	3.21784	1.96621
H	0.463478	1.26261	2.53328
H	0.0979297	3.48975	3.0319
H	-1.11934	3.47284	1.69919
H	0.608534	3.83918	1.33602
C	7.51764	2.1959	2.12361
C	7.42963	1.40323	0.876584
O	8.22996	1.56524	-0.0342658
H	8.36864	2.90714	2.04742
H	7.68642	1.52528	2.99225
H	6.58079	2.7717	2.27796
N	6.4356	0.51472	0.807077
C	6.19565	-0.298979	-0.358629
C	4.71402	-0.620323	-0.414309
O	3.9735	-0.342341	0.526998
H	5.76755	0.423174	1.54001
H	6.43575	0.270837	-1.2476
C	7.02978	-1.59771	-0.306098
H	6.77622	-2.18776	0.600314
H	6.86428	-2.22643	-1.2049
H	8.10995	-1.33841	-0.257764
N	4.24367	-1.21013	-1.53096
C	2.84698	-1.54825	-1.67628
H	4.85762	-1.42356	-2.28368
H	2.65837	-2.02482	-2.66346
H	2.21204	-0.635887	-1.60054
H	2.5291	-2.25731	-0.877948
