44
  This energy is 0.11 and Call times are: 193668
C	2.80833	1.32401	-1.57257
C	1.4597	1.46426	-0.978714
O	0.976096	2.56629	-0.759454
H	3.24348	2.33349	-1.73829
H	2.74434	0.795853	-2.54709
H	3.47113	0.755129	-0.886878
N	0.8136	0.329973	-0.698865
C	-0.487949	0.305119	-0.0792586
C	-0.610491	-0.98335	0.712186
O	0.240387	-1.86554	0.614932
H	1.23697	-0.559527	-0.845189
H	-0.564223	1.12452	0.624591
C	-1.60609	0.397049	-1.14065
H	-1.53467	-0.449188	-1.85677
H	-2.61294	0.392825	-0.675091
H	-1.49202	1.34358	-1.71285
N	-1.67598	-1.11824	1.52617
C	-1.87334	-2.30716	2.32223
H	-2.35169	-0.391745	1.59455
H	-2.80499	-2.22696	2.92457
H	-1.01753	-2.45983	3.01905
H	-1.95307	-3.2075	1.67094
C	5.62723	-2.20211	1.58844
C	4.27257	-1.79942	1.14811
O	3.3302	-2.57707	1.20818
H	5.60313	-3.25973	1.93006
H	5.96269	-1.56018	2.42996
H	6.34564	-2.11272	0.746436
N	4.14476	-0.553555	0.68565
C	2.899	-0.0317796	0.181287
C	3.21588	1.0308	-0.854129
O	4.36782	1.42912	-1.01558
H	4.9295	0.0542974	0.604669
H	2.35855	-0.822897	-0.323361
C	2.0469	0.562715	1.32397
H	2.59674	1.38145	1.83524
H	1.07901	0.95533	0.950394
H	1.83387	-0.230291	2.07371
N	2.19425	1.51101	-1.59013
C	2.40097	2.51992	-2.60281
H	1.26969	1.17336	-1.44776
H	1.44018	2.78312	-3.09762
H	3.10817	2.15478	-3.38244
H	2.82951	3.4452	-2.1541
