44
  This energy is 0.119 and Call times are: 190085
C	-1.74841	-2.93581	0.660869
C	-0.948619	-1.76905	1.09693
O	-0.832899	-1.48817	2.28189
H	-2.18822	-3.43349	1.55237
H	-1.10323	-3.66329	0.124908
H	-2.57053	-2.60726	-0.00940951
N	-0.371354	-1.05081	0.130866
C	0.40188	0.136642	0.396604
C	0.298284	1.04867	-0.811298
O	-0.22409	0.657067	-1.85317
H	-0.50842	-1.26801	-0.831375
H	-0.0312156	0.66425	1.23725
C	1.87759	-0.218362	0.682071
H	2.32543	-0.750342	-0.18423
H	2.48052	0.68646	0.901849
H	1.92873	-0.892604	1.56475
N	0.789884	2.29804	-0.695447
C	0.730766	3.23815	-1.79038
H	1.2052	2.59795	0.156985
H	1.18594	4.21033	-1.499
H	-0.325447	3.42247	-2.09323
H	1.28028	2.84496	-2.67614
C	2.48399	1.26734	-3.21856
C	2.08191	1.41007	-1.80113
O	1.8162	2.50544	-1.32575
H	2.50693	2.27072	-3.69664
H	1.75593	0.627677	-3.76033
H	3.4955	0.814117	-3.28562
N	2.03008	0.285876	-1.08288
C	1.69714	0.270035	0.319783
C	2.3857	-0.922785	0.9559
O	2.94869	-1.76824	0.263116
H	2.28883	-0.593113	-1.47311
H	2.09376	1.16061	0.79115
C	0.168532	0.184717	0.523037
H	-0.237354	-0.734146	0.0487041
H	-0.10143	0.185759	1.59897
H	-0.31515	1.0632	0.0427752
N	2.36347	-1.01396	2.30022
C	2.99683	-2.11108	2.99402
H	1.90642	-0.31786	2.84394
H	2.86922	-2.00685	4.09405
H	4.08759	-2.14078	2.769
H	2.55294	-3.08342	2.67992
