44
  This energy is 0.1123 and Call times are: 192285
C	-1.41682	-2.29096	-2.20381
C	-1.47471	-1.43748	-0.995778
O	-2.52876	-1.24779	-0.404682
H	-2.43725	-2.66409	-2.43915
H	-0.748432	-3.15971	-2.02695
H	-1.04012	-1.70505	-3.06863
N	-0.322385	-0.893184	-0.597938
C	-0.227762	-0.00579653	0.534383
C	0.936743	0.937835	0.299772
O	1.71192	0.760574	-0.637987
H	0.519853	-1.02381	-1.11315
H	-1.12527	0.597399	0.591502
C	-0.0253551	-0.800781	1.84292
H	0.900889	-1.41167	1.78889
H	0.035122	-0.129386	2.72388
H	-0.885131	-1.49032	1.99015
N	1.08193	1.97483	1.14805
C	2.15727	2.92767	1.00001
H	0.442181	2.104	1.89846
H	2.10566	3.70534	1.79361
H	2.09998	3.43377	0.00912782
H	3.14582	2.41889	1.07116
C	6.46875	-1.38837	1.03554
C	5.44881	-0.316024	1.06657
O	5.48279	0.565559	1.91396
H	7.18281	-1.24047	1.87464
H	7.02865	-1.35637	0.077298
H	5.9838	-2.38107	1.14711
N	4.50146	-0.37071	0.127468
C	3.41772	0.577376	0.0553919
C	2.22533	-0.114525	-0.577889
O	2.33803	-1.23221	-1.07767
H	4.46362	-1.11748	-0.530372
H	3.12816	0.865834	1.05817
C	3.82434	1.81844	-0.769019
H	4.1114	1.52425	-1.80105
H	3.00292	2.56219	-0.820247
H	4.70336	2.30416	-0.291785
N	1.04497	0.535534	-0.563565
C	-0.145659	-0.0467431	-1.1376
H	0.972633	1.4375	-0.150891
H	-1.01265	0.641186	-1.02665
H	-0.39475	-1.00861	-0.633574
H	0.00160459	-0.253441	-2.22237
