44
  This energy is 0.1072 and Call times are: 192790
C	-3.22516	1.16813	0.588637
C	-2.08763	0.271772	0.894762
O	-2.07035	-0.403251	1.91479
H	-3.96943	1.11152	1.41249
H	-3.7134	0.856976	-0.358753
H	-2.87172	2.21667	0.49508
N	-1.09453	0.247438	0.00283269
C	0.0979529	-0.542477	0.183297
C	1.23702	0.147929	-0.542939
O	1.02328	1.10691	-1.28212
H	-1.10414	0.833351	-0.802451
H	0.354109	-0.56746	1.23515
C	-0.101457	-1.97448	-0.359694
H	-0.353915	-1.94992	-1.44122
H	0.805197	-2.5968	-0.214017
H	-0.944783	-2.45765	0.180397
N	2.48365	-0.322271	-0.340838
C	3.63033	0.274595	-0.985089
H	2.63709	-1.09659	0.264105
H	4.56481	-0.25278	-0.692088
H	3.72825	1.34668	-0.698168
H	3.53033	0.221578	-2.09339
C	2.16057	-0.935645	-2.769
C	2.2922	-0.323685	-1.42761
O	1.37813	0.322325	-0.934101
H	1.16189	-0.687386	-3.18956
H	2.25593	-2.03949	-2.69708
H	2.94495	-0.540552	-3.4485
N	3.45445	-0.515457	-0.799287
C	3.7469	0.0536385	0.492672
C	5.24622	0.264515	0.588203
O	6.00146	-0.184888	-0.271658
H	4.20395	-1.00907	-1.23109
H	3.27876	1.02715	0.568444
C	3.257	-0.872655	1.62723
H	3.74491	-1.86811	1.55616
H	3.46398	-0.439012	2.62705
H	2.15885	-1.01933	1.53288
N	5.71327	0.965691	1.63998
C	7.12446	1.22126	1.81144
H	5.08621	1.32483	2.32328
H	7.30751	1.81339	2.73508
H	7.52864	1.79142	0.943772
H	7.69043	0.264878	1.88991
