44
  This energy is -3.135 and Call times are: 188387
C	-0.30668	-3.35639	0.867896
C	0.370474	-2.25222	0.15137
O	1.46044	-2.41635	-0.379151
H	0.335624	-4.26322	0.836256
H	-1.27877	-3.58747	0.383753
H	-0.479598	-3.07533	1.92818
N	-0.271416	-1.08197	0.122146
C	0.280269	0.0959506	-0.499716
C	-0.278698	1.31294	0.213051
O	-1.18334	1.1994	1.03795
H	-1.13908	-0.952681	0.593647
H	1.35394	0.104588	-0.359037
C	-0.0692838	0.141071	-2.00338
H	-1.17071	0.142875	-2.14793
H	0.361632	1.03643	-2.49651
H	0.342635	-0.762726	-2.50321
N	0.257053	2.51302	-0.0849701
C	-0.207002	3.72598	0.547145
H	0.991167	2.58427	-0.752108
H	0.357618	4.60691	0.169816
H	-0.0717597	3.66986	1.65161
H	-1.28953	3.88797	0.339686
C	8.55759	0.620414	-1.96095
C	7.13153	0.82947	-1.6236
O	6.48275	1.72629	-2.14438
H	8.87712	1.38888	-2.69797
H	8.70191	-0.386439	-2.4061
H	9.18429	0.714501	-1.0491
N	6.60493	-0.00771487	-0.726818
C	5.24285	0.0972737	-0.266102
C	5.17728	-0.453991	1.14577
O	6.14057	-1.03703	1.63957
H	7.15664	-0.706947	-0.281226
H	4.96156	1.14187	-0.217909
C	4.28464	-0.679282	-1.19564
H	4.5664	-1.75303	-1.23715
H	3.23096	-0.594634	-0.859295
H	4.35509	-0.264233	-2.22477
N	4.03349	-0.273342	1.83505
C	3.88092	-0.758605	3.18687
H	3.26639	0.204523	1.41999
H	2.87063	-0.512061	3.58154
H	4.64143	-0.297488	3.8579
H	4.01215	-1.86427	3.22475
