44
  This energy is 0.1002 and Call times are: 190741
C	-2.64052	-2.20901	0.510476
C	-1.44238	-1.47895	0.982296
O	-1.1461	-1.44856	2.16876
H	-3.16421	-2.65777	1.3824
H	-2.34426	-3.02023	-0.187299
H	-3.33432	-1.51255	-0.00594325
N	-0.716477	-0.86239	0.0467274
C	0.452005	-0.0768311	0.356738
C	0.597905	0.994263	-0.707699
O	-0.105835	0.980307	-1.7158
H	-0.993162	-0.86201	-0.909992
H	0.302641	0.427375	1.30336
C	1.71519	-0.963889	0.409012
H	1.87478	-1.47318	-0.565253
H	2.61958	-0.37284	0.660533
H	1.58293	-1.74523	1.18899
N	1.5162	1.95893	-0.502306
C	1.72189	3.02249	-1.45767
H	2.07333	1.95562	0.321506
H	2.5187	3.71577	-1.10886
H	0.785257	3.60862	-1.60063
H	2.02485	2.60912	-2.44685
C	5.66589	-1.13066	-1.06094
C	4.7506	-0.0531738	-0.622285
O	5.17252	1.05958	-0.339142
H	6.71025	-0.749684	-1.05698
H	5.40658	-1.45783	-2.08976
H	5.59667	-1.9967	-0.369385
N	3.45472	-0.366755	-0.553364
C	2.44925	0.562883	-0.102404
C	1.31452	-0.231232	0.51673
O	1.27913	-1.45668	0.423278
H	3.13154	-1.28852	-0.747679
H	2.86602	1.1902	0.675665
C	1.93042	1.4255	-1.27371
H	1.49321	0.783034	-2.06751
H	1.1656	2.15489	-0.936704
H	2.77883	1.99156	-1.71654
N	0.358782	0.453435	1.17538
C	-0.756486	-0.217777	1.80134
H	0.406851	1.44444	1.2438
H	-1.43252	0.516756	2.29191
H	-0.399024	-0.93588	2.57453
H	-1.34587	-0.787711	1.04705
