44
  This energy is -2.1799 and Call times are: 189049
C	-1.46832	-2.75652	-1.53568
C	-0.67393	-2.13918	-0.44987
O	-0.392627	-2.76483	0.56297
H	-1.73903	-3.79556	-1.24759
H	-0.875516	-2.78663	-2.47399
H	-2.39984	-2.17647	-1.70565
N	-0.29071	-0.874555	-0.640219
C	0.450221	-0.126474	0.344644
C	0.114225	1.34302	0.173606
O	-0.540495	1.73111	-0.792024
H	-0.562241	-0.365299	-1.45188
H	0.12406	-0.418794	1.335
C	1.96896	-0.356851	0.18466
H	2.30596	-0.0472669	-0.827579
H	2.54974	0.202981	0.946108
H	2.19067	-1.43969	0.305748
N	0.550966	2.19843	1.11889
C	0.27472	3.6141	1.04305
H	1.07581	1.86494	1.89503
H	0.717149	4.14825	1.91262
H	-0.82373	3.80029	1.03926
H	0.701713	4.04846	0.110229
C	6.13916	-1.0307	3.32032
C	6.86217	-0.872856	2.03833
O	8.06825	-1.0633	1.96419
H	6.86165	-1.31113	4.11733
H	5.37345	-1.82984	3.23197
H	5.64628	-0.0762546	3.60171
N	6.12772	-0.512621	0.983247
C	6.69636	-0.278402	-0.320723
C	5.82817	0.736752	-1.03994
O	4.74742	1.0868	-0.56967
H	5.15401	-0.321436	1.06812
H	7.67984	0.160544	-0.207952
C	6.77872	-1.59091	-1.13053
H	5.76867	-2.03615	-1.25554
H	7.2277	-1.42615	-2.13142
H	7.41217	-2.3216	-0.581751
N	6.28855	1.24216	-2.20124
C	5.53387	2.21756	-2.95306
H	7.16727	0.949671	-2.56369
H	6.07957	2.5098	-3.8772
H	5.36008	3.13416	-2.34402
H	4.54159	1.8052	-3.24713
