44
  This energy is -1.1426 and Call times are: 193294
C	-3.28473	-1.05233	-0.464575
C	-1.8335	-1.15101	-0.739022
O	-1.3677	-2.10478	-1.34711
H	-3.79762	-1.95019	-0.872838
H	-3.70525	-0.146526	-0.949777
H	-3.46465	-1.00235	0.630058
N	-1.07454	-0.150261	-0.28639
C	0.358895	-0.126643	-0.438896
C	0.943935	0.669937	0.712079
O	0.215532	1.30006	1.47634
H	-1.46286	0.598947	0.242539
H	0.743128	-1.13605	-0.360775
C	0.75951	0.502163	-1.79143
H	0.374554	1.54141	-1.86771
H	1.86045	0.513476	-1.92681
H	0.31396	-0.0922218	-2.6188
N	2.28241	0.652881	0.867705
C	2.92825	1.37667	1.93785
H	2.85486	0.133846	0.241623
H	4.03109	1.23779	1.89698
H	2.56637	1.01831	2.92875
H	2.7089	2.46641	1.86369
C	8.14146	2.98195	0.106764
C	6.92255	2.2046	-0.211265
O	5.87484	2.76281	-0.506404
H	7.91153	4.06776	0.0434454
H	8.94795	2.74253	-0.617804
H	8.48742	2.74728	1.13551
N	7.03474	0.875463	-0.154681
C	5.92512	-0.0128384	-0.395966
C	6.15686	-1.28533	0.396901
O	7.23034	-1.48949	0.96052
H	7.88322	0.436584	0.126969
H	5.01637	0.440456	-0.0200579
C	5.78955	-0.329972	-1.90139
H	6.71769	-0.804647	-2.28515
H	4.93013	-1.00212	-2.10172
H	5.62863	0.61625	-2.46273
N	5.14464	-2.17229	0.465664
C	5.27149	-3.40842	1.20191
H	4.28209	-1.98752	0.00637397
H	4.33264	-4.0016	1.13924
H	5.48679	-3.20551	2.27604
H	6.10428	-4.0255	0.793481
