44
  This energy is -4.7916 and Call times are: 192971
C	-0.464211	-0.396227	3.4264
C	-0.845338	0.181302	2.11783
O	-1.90826	0.768596	1.97058
H	-1.27951	-0.21386	4.15982
H	0.467052	0.0803283	3.7984
H	-0.305873	-1.49109	3.32996
N	0.028997	0.0220046	1.12157
C	-0.220429	0.490955	-0.218743
C	0.534233	-0.406034	-1.18179
O	1.33866	-1.23872	-0.767955
H	0.871627	-0.493973	1.24651
H	-1.27509	0.389242	-0.442317
C	0.228565	1.95964	-0.381861
H	1.31275	2.0627	-0.162853
H	0.0290257	2.33673	-1.40583
H	-0.330699	2.59647	0.337872
N	0.283791	-0.261173	-2.49796
C	0.950312	-1.07438	-3.48823
H	-0.373545	0.415256	-2.81328
H	0.609735	-0.804997	-4.51227
H	0.734203	-2.15428	-3.31976
H	2.0539	-0.930989	-3.43648
C	3.41323	2.78736	1.67744
C	4.32635	1.62678	1.57529
O	5.26001	1.48556	2.35295
H	3.74167	3.44049	2.51493
H	2.37669	2.44247	1.87586
H	3.43329	3.37417	0.734928
N	4.07324	0.757048	0.594528
C	4.89875	-0.397773	0.342595
C	4.80707	-0.731566	-1.13448
O	3.99132	-0.16449	-1.85883
H	3.33414	0.907128	-0.0559027
H	5.93181	-0.151414	0.554102
C	4.44239	-1.59951	1.19864
H	3.38586	-1.85932	0.974387
H	5.07895	-2.49101	1.02391
H	4.51018	-1.32998	2.27525
N	5.65418	-1.66074	-1.6193
C	5.64374	-2.03926	-3.01313
H	6.30998	-2.10566	-1.01842
H	6.4133	-2.81652	-3.21534
H	5.85678	-1.15826	-3.661
H	4.64831	-2.44761	-3.30209
