44
  This energy is -2.9311 and Call times are: 193448
C	-0.676011	-1.41962	-3.1049
C	0.0837021	-1.36221	-1.83577
O	0.833295	-2.27061	-1.50511
H	-0.452382	-2.37699	-3.62384
H	-0.383011	-0.576165	-3.76481
H	-1.76632	-1.36759	-2.90092
N	-0.0987274	-0.274394	-1.08361
C	0.538058	-0.0949608	0.197359
C	-0.3558	0.784943	1.05079
O	-1.33627	1.3458	0.565151
H	-0.743392	0.437728	-1.34658
H	0.616592	-1.05368	0.694669
C	1.93344	0.546689	0.0347382
H	1.85235	1.53502	-0.465927
H	2.43977	0.677345	1.01304
H	2.56778	-0.110228	-0.599624
N	-0.0401542	0.919711	2.35395
C	-0.835792	1.73239	3.24429
H	0.754736	0.454743	2.72949
H	-0.414614	1.71595	4.27364
H	-1.88362	1.35637	3.28832
H	-0.862755	2.78931	2.8931
C	5.78633	3.47698	-0.126195
C	5.3042	2.16664	-0.617835
O	4.37658	2.09072	-1.41167
H	5.17131	4.28675	-0.57549
H	6.84719	3.62803	-0.4169
H	5.69536	3.52794	0.979336
N	5.93362	1.08776	-0.14641
C	5.55006	-0.256475	-0.499213
C	5.91808	-1.17135	0.653672
O	6.59422	-0.7587	1.59403
H	6.66005	1.16372	0.530634
H	4.47451	-0.301946	-0.616427
C	6.2558	-0.709134	-1.79624
H	7.35922	-0.672726	-1.67301
H	5.95802	-1.73766	-2.08602
H	5.9784	-0.0209455	-2.62435
N	5.47099	-2.44189	0.610951
C	5.76663	-3.38313	1.66587
H	4.92176	-2.75616	-0.156289
H	5.31094	-4.37411	1.44784
H	5.3661	-3.0199	2.63999
H	6.86704	-3.5192	1.77422
