44
  This energy is 0.1533 and Call times are: 193951
C	1.95288	-0.907208	-2.73421
C	1.77075	-0.668166	-1.28479
O	2.61944	-1.01423	-0.474623
H	2.91869	-1.43173	-2.90145
H	1.96864	0.0582439	-3.2823
H	1.128	-1.54006	-3.12431
N	0.638092	-0.0622678	-0.920978
C	0.299863	0.199334	0.455875
C	-1.21227	0.207525	0.578118
O	-1.92523	0.175174	-0.423058
H	-0.0615951	0.176588	-1.58825
H	0.669099	-0.609293	1.07427
C	0.888071	1.54929	0.921557
H	0.501384	2.38047	0.294141
H	0.646237	1.75568	1.98431
H	1.99465	1.52345	0.815889
N	-1.73917	0.242761	1.81794
C	-3.16752	0.247766	2.03237
H	-1.14605	0.264437	2.61594
H	-3.40191	0.278496	3.11927
H	-3.63294	-0.667129	1.59922
H	-3.63466	1.13537	1.54751
C	5.42181	-0.286993	-2.14992
C	4.83976	-0.135426	-0.797364
O	5.52998	-0.253561	0.20566
H	6.50384	-0.52549	-2.05951
H	5.30856	0.657038	-2.72326
H	4.9161	-1.11251	-2.69383
N	3.53302	0.132049	-0.740191
C	2.81671	0.26429	0.503987
C	1.37463	-0.141711	0.264974
O	0.95858	-0.3469	-0.873668
H	2.9763	0.184745	-1.5643
H	3.23006	-0.425503	1.22921
C	2.89077	1.71382	1.03184
H	2.45725	2.42074	0.292675
H	2.35462	1.82541	1.99652
H	3.95531	1.99215	1.19195
N	0.576072	-0.275863	1.34216
C	-0.809121	-0.66396	1.21257
H	0.931972	-0.1095	2.25579
H	-1.29691	-0.719814	2.21065
H	-0.89339	-1.66217	0.724958
H	-1.36708	0.0725106	0.590121
