44
  This energy is 0.1052 and Call times are: 193826
C	-0.417961	-2.42851	-2.45771
C	0.0205192	-1.99978	-1.11046
O	0.330637	-2.81793	-0.255559
H	-0.420845	-3.53912	-2.50689
H	0.277483	-2.03642	-3.22931
H	-1.44424	-2.05708	-2.66235
N	0.0540071	-0.683796	-0.888113
C	0.418174	-0.116168	0.386147
C	-0.292159	1.21654	0.530621
O	-0.896594	1.71407	-0.417449
H	-0.240552	-0.0315644	-1.58071
H	0.0600505	-0.760254	1.17958
C	1.94766	0.0714381	0.489658
H	2.31411	0.740593	-0.317798
H	2.24197	0.494985	1.47175
H	2.44714	-0.915125	0.373184
N	-0.242124	1.82474	1.73213
C	-0.893047	3.09289	1.9651
H	0.248435	1.40458	2.48836
H	-0.737247	3.42803	3.01421
H	-1.98905	3.01126	1.78237
H	-0.486619	3.87446	1.28311
C	-0.680589	0.172277	1.28311
C	0.663643	0.748746	1.05534
O	0.895588	1.92646	1.29113
H	-1.36244	0.966805	1.65683
H	-0.625938	-0.639187	2.03895
H	-1.08859	-0.234079	0.333649
N	1.59368	-0.0834539	0.581143
C	2.93555	0.341351	0.2689
C	3.46875	-0.550302	-0.83664
O	2.84787	-1.54936	-1.19454
H	1.3789	-1.02939	0.355481
H	2.90936	1.35284	-0.116881
C	3.84393	0.260455	1.51531
H	3.87951	-0.779128	1.90524
H	4.87652	0.598149	1.29114
H	3.43037	0.914339	2.3139
N	4.6364	-0.202155	-1.41231
C	5.21842	-0.987072	-2.47595
H	5.12209	0.612052	-1.11189
H	6.17721	-0.537889	-2.81682
H	4.52704	-1.04086	-3.34795
H	5.42108	-2.02696	-2.13142
