44
  This energy is 0.1056 and Call times are: 193089
C	0.730244	0.778801	-3.31254
C	0.876456	-0.0741909	-2.11163
O	1.42664	-1.16502	-2.1732
H	1.16698	0.255006	-4.19048
H	1.26442	1.74103	-3.16584
H	-0.343773	0.979042	-3.51124
N	0.375874	0.412343	-0.973618
C	0.404112	-0.319944	0.267961
C	-0.780313	0.123661	1.10576
O	-1.46851	1.08381	0.764861
H	-0.105436	1.28386	-0.947689
H	0.276928	-1.37562	0.0630215
C	1.72677	-0.0708212	1.02543
H	1.85265	1.01079	1.2452
H	1.76652	-0.640143	1.97665
H	2.58	-0.395306	0.390564
N	-1.05144	-0.575969	2.22515
C	-2.16177	-0.230734	3.08198
H	-0.485617	-1.35236	2.4823
H	-2.21872	-0.923601	3.95027
H	-3.12324	-0.29051	2.52226
H	-2.05152	0.808181	3.46882
C	5.38992	0.420396	-1.73102
C	4.44075	-0.405095	-0.950763
O	4.58254	-1.61667	-0.859212
H	6.16428	-0.23757	-2.1819
H	5.88771	1.15989	-1.06912
H	4.85411	0.954142	-2.5441
N	3.43318	0.24456	-0.363274
C	2.40629	-0.427498	0.393293
C	1.1359	0.396783	0.302518
O	1.1484	1.52015	-0.197089
H	3.30793	1.22556	-0.480807
H	2.20002	-1.38902	-0.0600814
C	2.83307	-0.604035	1.86704
H	3.03462	0.38279	2.33566
H	2.05648	-1.13265	2.45695
H	3.76878	-1.20322	1.90889
N	0.000356867	-0.149976	0.779598
C	-1.25784	0.557667	0.730979
H	0.00941276	-1.06182	1.1765
H	-2.07273	-0.058275	1.17121
H	-1.53151	0.80047	-0.321366
H	-1.19365	1.51316	1.30024
