44
  This energy is 0.1016 and Call times are: 191166
C	-0.99933	3.30596	-0.429699
C	-1.23719	1.92359	0.043169
O	-2.18778	1.65634	0.765223
H	-1.78102	3.97678	-0.0115636
H	-1.0478	3.3449	-1.53825
H	-0.00296913	3.66023	-0.0907987
N	-0.361407	0.999773	-0.359273
C	-0.436491	-0.37962	0.0532745
C	0.968279	-0.952446	0.0465452
O	1.90608	-0.314994	-0.428751
H	0.430431	1.24011	-0.913436
H	-0.799887	-0.42847	1.07219
C	-1.35539	-1.18796	-0.888768
H	-0.977152	-1.14689	-1.93246
H	-1.43243	-2.24872	-0.573521
H	-2.37573	-0.746332	-0.874117
N	1.14784	-2.17443	0.585568
C	2.45012	-2.79763	0.628713
H	0.377473	-2.67304	0.968968
H	2.3913	-3.79866	1.11007
H	3.16622	-2.17141	1.20865
H	2.85852	-2.92637	-0.39977
C	1.1171	-2.2524	0.327536
C	2.11016	-1.3162	0.900693
O	2.04427	-0.960955	2.0694
H	0.368758	-2.51604	1.10621
H	1.62013	-3.18054	-0.0163542
H	0.592923	-1.77739	-0.528431
N	3.06739	-0.887529	0.0746519
C	4.07861	0.0587022	0.475438
C	4.51102	0.837423	-0.752648
O	4.13481	0.503799	-1.87464
H	3.08397	-1.15361	-0.884922
H	3.64854	0.76757	1.17197
C	5.28681	-0.661875	1.11283
H	5.73487	-1.3816	0.394995
H	6.0664	0.0570603	1.43825
H	4.94568	-1.23152	2.00472
N	5.31056	1.90601	-0.565963
C	5.76821	2.71055	-1.67477
H	5.60111	2.16276	0.349866
H	6.41452	3.5421	-1.31694
H	4.90427	3.14973	-2.22433
H	6.3559	2.0932	-2.39215
