44
  This energy is -4.111 and Call times are: 192043
C	-1.70585	-1.49485	2.63974
C	-0.655338	-1.50105	1.59689
O	0.214984	-2.36051	1.58024
H	-1.5341	-2.34175	3.33912
H	-2.70743	-1.61026	2.1747
H	-1.67153	-0.543729	3.21183
N	-0.713924	-0.523322	0.689701
C	0.26271	-0.372568	-0.36007
C	0.344299	1.09833	-0.722507
O	-0.465025	1.90473	-0.268172
H	-1.40434	0.19265	0.740421
H	1.23584	-0.667486	0.0123109
C	-0.121925	-1.21437	-1.59646
H	-1.11551	-0.905031	-1.98522
H	0.629536	-1.11761	-2.40669
H	-0.183575	-2.28593	-1.30614
N	1.33625	1.4846	-1.54886
C	1.49605	2.86443	-1.94473
H	1.98391	0.81811	-1.90297
H	2.36785	2.9797	-2.62584
H	1.65968	3.51238	-1.0533
H	0.586386	3.22926	-2.4744
C	3.3517	-3.22805	-0.366319
C	4.40303	-2.20632	-0.571024
O	5.51521	-2.51486	-0.97633
H	3.76044	-4.23098	-0.617129
H	2.48209	-3.01953	-1.02439
H	3.02086	-3.22964	0.693688
N	4.06825	-0.94532	-0.287835
C	4.99679	0.152249	-0.396043
C	4.58963	1.21672	0.605305
O	3.52557	1.13315	1.21563
H	3.17188	-0.715221	0.080172
H	5.98673	-0.188764	-0.119714
C	5.00326	0.730254	-1.82821
H	3.99021	1.08988	-2.10829
H	5.7245	1.56715	-1.92797
H	5.29618	-0.0679143	-2.54478
N	5.43753	2.24507	0.80422
C	5.13707	3.30203	1.74163
H	6.29575	2.29316	0.303986
H	5.95662	4.05378	1.76262
H	5.01178	2.89137	2.7697
H	4.19234	3.82074	1.45957
