44
  This energy is 0.1022 and Call times are: 192921
C	-0.140546	-1.29474	-3.22747
C	-0.590845	-0.348196	-2.18228
O	-1.3113	0.601653	-2.4564
H	-0.543426	-0.973154	-4.21244
H	-0.511812	-2.31691	-3.00373
H	0.96859	-1.30776	-3.27981
N	-0.166374	-0.590143	-0.939836
C	-0.485695	0.266282	0.175122
C	0.637829	0.161293	1.18914
O	1.52281	-0.682934	1.06341
H	0.453008	-1.3438	-0.739256
H	-0.520279	1.29454	-0.162694
C	-1.83179	-0.139272	0.814489
H	-1.79333	-1.19077	1.17072
H	-2.09557	0.52147	1.66559
H	-2.6379	-0.0625926	0.0524818
N	0.632366	1.02866	2.22048
C	1.66381	1.00758	3.23135
H	-0.0899228	1.70731	2.30293
H	1.48355	1.79728	3.99365
H	2.66483	1.18311	2.77483
H	1.68808	0.0206443	3.74761
C	5.20568	-0.929437	-2.22946
C	4.70864	-0.680116	-0.857618
O	5.35626	-1.02211	0.122199
H	6.18285	-1.4568	-2.17587
H	5.34525	0.0322029	-2.76659
H	4.4853	-1.56349	-2.78813
N	3.52557	-0.0697268	-0.756843
C	2.8924	0.20193	0.509589
C	1.39065	0.213643	0.294701
O	0.916362	0.175677	-0.839018
H	2.99135	0.165779	-1.56369
H	3.11328	-0.603081	1.19936
C	3.36759	1.55401	1.08519
H	3.13175	2.38155	0.38261
H	2.89763	1.76812	2.06693
H	4.47007	1.52548	1.22676
N	0.603003	0.258327	1.38724
C	-0.837399	0.267343	1.28079
H	1.00526	0.284442	2.2964
H	-1.306	0.305951	2.28884
H	-1.19861	-0.649681	0.761295
H	-1.18301	1.15242	0.69912
