44
  This energy is 0.1059 and Call times are: 191045
C	2.70207	2.16517	0.351472
C	1.42412	1.76791	-0.281126
O	0.811953	2.5374	-1.00883
H	2.94435	3.21148	0.0643932
H	3.52192	1.49947	0.00879237
H	2.61628	2.10657	1.45705
N	0.985664	0.536278	-0.010558
C	-0.262304	0.0226612	-0.517839
C	-0.786196	-1.00514	0.467408
O	-0.0902512	-1.39101	1.40468
H	1.47432	-0.0638239	0.61631
H	-0.9874	0.825709	-0.562355
C	-0.0712951	-0.612469	-1.9126
H	0.66463	-1.44327	-1.86542
H	-1.02778	-0.999322	-2.32003
H	0.320106	0.15545	-2.61507
N	-2.03782	-1.4686	0.281201
C	-2.62285	-2.44416	1.17125
H	-2.58706	-1.14135	-0.480585
H	-3.6575	-2.69784	0.851296
H	-2.66466	-2.05048	2.21267
H	-2.01889	-3.38027	1.18004
C	5.24461	-2.86047	1.30254
C	5.27946	-1.43105	0.919529
O	6.20664	-0.707811	1.25668
H	6.14151	-3.09866	1.91466
H	5.24869	-3.50005	0.39498
H	4.33399	-3.07418	1.90102
N	4.25003	-0.985357	0.195637
C	4.12214	0.390561	-0.215518
C	2.645	0.707443	-0.354111
O	1.80073	-0.183897	-0.287575
H	3.48266	-1.5763	-0.0362738
H	4.51857	1.03357	0.560372
C	4.85662	0.637701	-1.55145
H	4.44319	-0.0141984	-2.35029
H	4.77721	1.69678	-1.87171
H	5.93405	0.391815	-1.42885
N	2.29686	1.99551	-0.543016
C	0.914987	2.39273	-0.680187
H	2.99409	2.70315	-0.590015
H	0.834639	3.49228	-0.827669
H	0.335066	2.11799	0.230578
H	0.445348	1.88627	-1.55431
