44
  This energy is 0.1253 and Call times are: 190539
C	-1.61867	-0.25771	-3.07021
C	-0.708673	0.435634	-2.13089
O	0.000356142	1.36045	-2.50291
H	-1.51082	0.188382	-4.08276
H	-2.67174	-0.143434	-2.73746
H	-1.36327	-1.33705	-3.12399
N	-0.707618	-0.00576299	-0.870909
C	0.155107	0.540182	0.147034
C	0.436618	-0.550485	1.16328
O	-0.171781	-1.61827	1.12599
H	-1.2602	-0.786223	-0.592687
H	1.10211	0.818029	-0.298639
C	-0.50079	1.76033	0.829888
H	-1.46731	1.47345	1.29634
H	0.15957	2.19819	1.60624
H	-0.705061	2.54238	0.0663332
N	1.37853	-0.308003	2.09603
C	1.71786	-1.28891	3.10045
H	1.86299	0.560469	2.10753
H	2.51381	-0.902442	3.77449
H	2.08614	-2.22676	2.62495
H	0.826745	-1.54241	3.71915
C	6.42037	0.515822	0.384402
C	5.24551	0.113641	-0.421273
O	5.33693	-0.0662048	-1.6278
H	7.30309	0.624959	-0.282493
H	6.64189	-0.256947	1.15024
H	6.22623	1.48757	0.885489
N	4.09555	-0.0363521	0.240159
C	2.85807	-0.382425	-0.41362
C	1.7158	0.200621	0.396838
O	1.91822	0.699148	1.50237
H	4.02789	0.153429	1.21549
H	2.82905	0.0811458	-1.39182
C	2.7084	-1.91471	-0.535815
H	2.72753	-2.3898	0.468163
H	1.76588	-2.19362	-1.04998
H	3.55905	-2.32066	-1.12569
N	0.481435	0.158603	-0.142227
C	-0.665722	0.693917	0.553217
H	0.338166	-0.245143	-1.03974
H	-1.58892	0.565075	-0.0536882
H	-0.529368	1.78066	0.757393
H	-0.811612	0.17511	1.52825
