44
  This energy is -1.2123 and Call times are: 190020
C	-1.01339	-3.32364	-0.197893
C	-0.954602	-2.01834	0.497722
O	-1.65317	-1.79021	1.47566
H	-1.76623	-3.97201	0.300823
H	-0.0234389	-3.8246	-0.155894
H	-1.30964	-3.17916	-1.2583
N	-0.105906	-1.11715	-0.00222893
C	0.0309712	0.211646	0.540112
C	0.463447	1.13782	-0.580926
O	0.79406	0.688714	-1.6767
H	0.426073	-1.30308	-0.823383
H	-0.934514	0.556316	0.888928
C	1.062	0.23479	1.68976
H	2.05526	-0.108699	1.32991
H	1.16622	1.24981	2.12495
H	0.729239	-0.455879	2.49511
N	0.462792	2.46242	-0.333009
C	0.853689	3.42027	-1.34092
H	0.188108	2.80698	0.558561
H	0.786259	4.4575	-0.944909
H	0.19238	3.34249	-2.23417
H	1.90213	3.23811	-1.67067
C	7.82609	0.0249105	-3.2177
C	7.33823	-0.68636	-2.01469
O	7.14093	-1.89353	-2.02956
H	7.94158	-0.70082	-4.05187
H	8.81059	0.494983	-3.01142
H	7.0991	0.807758	-3.52052
N	7.12749	0.0605235	-0.928347
C	6.61277	-0.481806	0.304333
C	5.85321	0.616873	1.02373
O	5.89661	1.7786	0.623457
H	7.25358	1.04831	-0.943745
H	5.90469	-1.26973	0.0798074
C	7.75741	-1.01889	1.19124
H	8.47852	-0.208486	1.43058
H	7.37271	-1.45174	2.13737
H	8.30431	-1.81597	0.641783
N	5.12783	0.270551	2.10535
C	4.36805	1.24726	2.8503
H	5.1018	-0.675307	2.41154
H	3.83979	0.767227	3.70339
H	3.60839	1.7351	2.19746
H	5.03726	2.04118	3.25401
