44
  This energy is -4.5206 and Call times are: 215622
C	-0.568609	3.37988	0.604817
C	-0.658671	2.17609	-0.251884
O	-1.34517	2.16964	-1.26435
H	-1.20973	4.18227	0.179361
H	0.480078	3.74214	0.646792
H	-0.920001	3.14581	1.63187
N	0.0436992	1.11201	0.144077
C	0.0222474	-0.144691	-0.562177
C	0.286358	-1.25409	0.438339
O	0.633529	-0.994933	1.589
H	0.565323	1.11937	0.992441
H	-0.967121	-0.307848	-0.971032
C	1.08234	-0.164604	-1.68514
H	2.09866	-0.00778186	-1.26496
H	1.06639	-1.1219	-2.24537
H	0.874117	0.660275	-2.40107
N	0.118487	-2.52469	0.0218889
C	0.341335	-3.6454	0.905364
H	-0.16684	-2.71429	-0.911766
H	0.150985	-4.60596	0.377808
H	-0.33594	-3.59027	1.78828
H	1.39193	-3.65089	1.27598
C	994.95	-1.86743	2.5817
C	995.881	-1.7132	1.44146
O	996.75	-2.54456	1.21681
H	995.202	-2.79598	3.13864
H	993.905	-1.94079	2.21482
H	995.04	-1.00025	3.26941
N	995.718	-0.62503	0.685298
C	996.574	-0.315887	-0.432792
C	996.607	1.1915	-0.600971
O	995.847	1.91341	0.0412439
H	995.033	0.0633593	0.90505
H	997.584	-0.637395	-0.209293
C	996.063	-0.993751	-1.72294
H	995.032	-0.656206	-1.95845
H	996.722	-0.774612	-2.58828
H	996.04	-2.09544	-1.57429
N	997.501	1.70465	-1.46894
C	997.608	3.12786	-1.69064
H	998.111	1.10472	-1.9764
H	998.4	3.35069	-2.43912
H	997.864	3.65489	-0.742814
H	996.644	3.54086	-2.06647
