44
  This energy is -0.7372 and Call times are: 215353
C	-3.19034	1.28067	-0.542502
C	-2.20768	0.174061	-0.573176
O	-2.55972	-0.979619	-0.776884
H	-4.21034	0.87081	-0.708305
H	-2.96392	2.01584	-1.34313
H	-3.1634	1.78913	0.44433
N	-0.931737	0.507512	-0.365427
C	0.132393	-0.464287	-0.323084
C	1.22623	0.0711975	0.581537
O	1.18821	1.22683	0.99961
H	-0.66589	1.44513	-0.160331
H	-0.236748	-1.379	0.123765
C	0.6861	-0.738107	-1.7386
H	1.07455	0.198034	-2.19333
H	1.49677	-1.49509	-1.72101
H	-0.133114	-1.12153	-2.3853
N	2.22895	-0.765817	0.913156
C	3.31068	-0.346123	1.77333
H	2.24018	-1.69857	0.568309
H	4.035	-1.17603	1.92773
H	2.92147	-0.0309514	2.76855
H	3.8558	0.516766	1.32678
C	991.631	0.113935	-3.42081
C	991.173	-0.591872	-2.20283
O	990.593	-1.66665	-2.27424
H	991.344	-0.477093	-4.31754
H	992.735	0.228729	-3.40441
H	991.156	1.11582	-3.48369
N	991.426	0.0093665	-1.03801
C	991.004	-0.533831	0.229083
C	990.795	0.619629	1.19204
O	991.139	1.76112	0.891744
H	991.863	0.903656	-0.998303
H	990.049	-1.02827	0.105479
C	992.056	-1.51895	0.784632
H	993.034	-1.00952	0.921558
H	991.737	-1.95461	1.75344
H	992.199	-2.35033	0.060241
N	990.214	0.347353	2.37689
C	989.969	1.38216	3.35441
H	989.938	-0.581837	2.60015
H	989.484	0.959457	4.26152
H	989.302	2.16944	2.93446
H	990.924	1.86669	3.6612
