44
  This energy is -4.7095 and Call times are: 216441
C	1.111	-2.37431	2.28932
C	0.127694	-1.36829	1.8287
O	-0.96752	-1.26265	2.36326
H	0.671966	-2.96111	3.12526
H	2.03326	-1.87137	2.64882
H	1.36718	-3.06677	1.45989
N	0.503449	-0.595741	0.806766
C	-0.360476	0.398563	0.220632
C	0.0280298	0.56289	-1.23663
O	1.0419	0.0288008	-1.6822
H	1.38238	-0.721197	0.355542
H	-1.38269	0.0419553	0.243706
C	-0.239422	1.74447	0.968379
H	0.806987	2.11597	0.935956
H	-0.910143	2.51451	0.535149
H	-0.520764	1.59876	2.0342
N	-0.780206	1.30452	-2.01942
C	-0.49396	1.51181	-3.41988
H	-1.59833	1.72531	-1.64169
H	-1.27517	2.14823	-3.89094
H	-0.460437	0.539102	-3.96209
H	0.492317	2.01342	-3.54942
C	995.816	3.474	-0.128146
C	995.338	2.21388	0.483919
O	994.783	2.21049	1.57372
H	995.599	4.32122	0.557981
H	995.298	3.65131	-1.09375
H	996.912	3.42375	-0.301041
N	995.55	1.09666	-0.21568
C	995.18	-0.209857	0.268644
C	996.127	-1.22608	-0.340842
O	996.914	-0.900828	-1.22793
H	996.04	1.1107	-1.0825
H	995.316	-0.244779	1.34229
C	993.718	-0.541933	-0.102201
H	993.579	-0.516576	-1.20414
H	993.416	-1.53979	0.277232
H	993.043	0.218924	0.347623
N	996.078	-2.48756	0.130673
C	996.946	-3.52111	-0.384871
H	995.438	-2.73062	0.851614
H	996.754	-4.48819	0.130312
H	998.015	-3.2485	-0.232687
H	996.778	-3.66616	-1.47671
