44
  This energy is -7.1145 and Call times are: 218219
C	0.576208	3.41616	0.332494
C	1.05114	2.02622	0.149051
O	2.2113	1.78902	-0.157827
H	1.41315	4.11978	0.131729
H	0.223197	3.56558	1.37451
H	-0.253109	3.63347	-0.373267
N	0.147547	1.06102	0.334221
C	0.449045	-0.336715	0.149851
C	-0.827755	-1.04585	-0.260599
O	-1.91049	-0.464351	-0.224946
H	-0.803053	1.27163	0.543673
H	1.15455	-0.445594	-0.66442
C	1.01853	-0.953893	1.44601
H	0.290818	-0.85185	2.27911
H	1.26765	-2.02661	1.3128
H	1.94785	-0.41444	1.73186
N	-0.728059	-2.32563	-0.67076
C	-1.88845	-3.07902	-1.0856
H	0.157324	-2.77785	-0.696646
H	-1.60063	-4.11031	-1.38698
H	-2.38707	-2.587	-1.95196
H	-2.62848	-3.14965	-0.255837
C	990.886	0.922856	-1.57265
C	992.333	0.614086	-1.59825
O	992.93	0.465437	-2.65561
H	990.501	0.965311	-2.61469
H	990.712	1.9053	-1.08524
H	990.336	0.13336	-1.01827
N	992.938	0.506974	-0.412977
C	994.333	0.168345	-0.275905
C	994.519	-0.541919	1.05169
O	993.604	-0.594552	1.87139
H	992.43	0.590194	0.439676
H	994.609	-0.52933	-1.05652
C	995.217	1.43312	-0.341849
H	994.94	2.14461	0.465303
H	996.294	1.18416	-0.251378
H	995.058	1.94095	-1.31827
N	995.714	-1.11578	1.2917
C	995.981	-1.81821	2.52513
H	996.441	-1.06609	0.614521
H	997.019	-2.21895	2.53261
H	995.276	-2.67073	2.65252
H	995.862	-1.13754	3.39894
