44
  This energy is -3.6906 and Call times are: 215447
C	-2.65706	-1.35258	-1.79534
C	-1.48221	-0.459431	-1.68067
O	-1.001	0.0831454	-2.66579
H	-2.95891	-1.42721	-2.86267
H	-3.50697	-0.944123	-1.20922
H	-2.40432	-2.36724	-1.42159
N	-0.98557	-0.286723	-0.453521
C	0.180683	0.51864	-0.189315
C	0.865916	-0.0325046	1.04691
O	0.326555	-0.899042	1.73242
H	-1.36299	-0.76747	0.3328
H	0.876002	0.421707	-1.01379
C	-0.207051	1.99873	0.0209771
H	-0.912166	2.09993	0.873391
H	0.683874	2.63156	0.211538
H	-0.713917	2.37874	-0.892826
N	2.08333	0.4552	1.35687
C	2.81367	-0.0131515	2.51161
H	2.50524	1.15315	0.787726
H	3.79262	0.508187	2.59579
H	3.00501	-1.10824	2.43774
H	2.23511	0.174018	3.44509
C	995.892	2.2929	1.43264
C	995.512	0.91244	1.05624
O	996.317	-0.00617754	1.12498
H	996.96	2.30958	1.73938
H	995.268	2.64285	2.2822
H	995.755	2.9764	0.568182
N	994.256	0.734491	0.640695
C	993.753	-0.542734	0.20031
C	992.649	-0.293272	-0.809996
O	992.214	0.840867	-1.0004
H	993.625	1.49933	0.551201
H	994.542	-1.08082	-0.310228
C	993.219	-1.36646	1.39286
H	992.403	-0.819476	1.91058
H	992.842	-2.35777	1.06853
H	994.042	-1.53008	2.12301
N	992.173	-1.35425	-1.49138
C	991.127	-1.21255	-2.47672
H	992.541	-2.26356	-1.32639
H	990.874	-2.19794	-2.92671
H	991.447	-0.525907	-3.29365
H	990.205	-0.791905	-2.01344
