44
  This energy is -4.8804 and Call times are: 217096
C	-0.685855	2.83813	-1.89402
C	-0.109349	2.17393	-0.703381
O	0.627283	2.7781	0.0639319
H	-0.32349	3.88809	-1.94038
H	-1.79431	2.84299	-1.83039
H	-0.371151	2.30825	-2.81775
N	-0.436297	0.892261	-0.522259
C	0.0804847	0.100873	0.56641
C	0.123277	-1.34815	0.119122
O	-0.395756	-1.69597	-0.93981
H	-1.0041	0.402625	-1.17779
H	1.09869	0.403846	0.776388
C	-0.800462	0.25302	1.82579
H	-1.84271	-0.0676252	1.61381
H	-0.405129	-0.340731	2.67531
H	-0.823769	1.32214	2.13039
N	0.755106	-2.23068	0.917837
C	0.85108	-3.62962	0.571508
H	1.17254	-1.92952	1.76879
H	1.40753	-4.19118	1.35396
H	1.38415	-3.7585	-0.398287
H	-0.162874	-4.08002	0.470622
C	996.289	-2.35931	2.33822
C	995.243	-1.52605	1.70406
O	994.057	-1.71148	1.93956
H	995.807	-3.12057	2.98972
H	996.958	-1.72679	2.95864
H	996.888	-2.8788	1.56073
N	995.667	-0.57455	0.869153
C	994.766	0.286928	0.144563
C	995.446	0.703197	-1.14638
O	996.631	0.445018	-1.34572
H	996.633	-0.462536	0.656067
H	993.877	-0.270388	-0.12392
C	994.394	1.52795	0.985113
H	995.304	2.10579	1.2519
H	993.69	2.19227	0.443454
H	993.905	1.19928	1.92832
N	994.702	1.35451	-2.06246
C	995.262	1.78477	-3.32258
H	993.744	1.55074	-1.88476
H	994.493	2.3014	-3.93838
H	995.645	0.912721	-3.90018
H	996.109	2.48861	-3.15645
