44
  This energy is 0 and Call times are: 202697
C	-2.64841	-0.414862	2.21957
C	-1.54825	0.387304	1.63878
O	-1.43525	1.57986	1.88666
H	-3.28994	0.241454	2.84692
H	-2.23599	-1.22715	2.85427
H	-3.26823	-0.856448	1.41092
N	-0.700158	-0.261159	0.837146
C	0.394171	0.393675	0.164691
C	0.680557	-0.362045	-1.11922
O	0.137603	-1.44089	-1.34948
H	-0.829044	-1.22279	0.612368
H	0.0946917	1.39699	-0.111522
C	1.65022	0.431263	1.06255
H	1.96408	-0.598255	1.33756
H	2.49577	0.945335	0.561247
H	1.41526	0.982002	1.99948
N	1.5403	0.195488	-1.99445
C	1.86943	-0.448048	-3.24494
H	1.9665	1.07102	-1.79229
H	2.59215	0.166776	-3.82535
H	0.95508	-0.592545	-3.86491
H	2.32556	-1.44825	-3.06414
C	91.5629	-1.22815	-2.67093
C	91.2931	-0.213271	-1.62769
O	92.1069	0.663447	-1.37188
H	92.5688	-1.04685	-3.10821
H	90.8028	-1.15956	-3.47731
H	91.5416	-2.24652	-2.22873
N	90.1242	-0.313591	-0.990428
C	89.7385	0.574391	0.0778816
C	88.7993	-0.177497	1.00208
O	88.3626	-1.28417	0.691771
H	89.4897	-1.05712	-1.18143
H	90.6151	0.840237	0.655452
C	89.0518	1.84101	-0.478328
H	88.1466	1.56949	-1.06212
H	88.7625	2.53915	0.333725
H	89.7544	2.37092	-1.158
N	88.4718	0.407088	2.17128
C	87.5889	-0.235623	3.11656
H	88.8385	1.30112	2.40654
H	87.4427	0.403257	4.01527
H	88.0105	-1.21284	3.44609
H	86.5926	-0.427075	2.65634
