44
  This energy is 0 and Call times are: 207037
C	0.576195	0.446122	3.40318
C	0.699914	0.878286	1.99284
O	1.0984	1.99892	1.70682
H	0.875013	1.28291	4.0713
H	1.23966	-0.422826	3.59679
H	-0.474724	0.165557	3.62667
N	0.352499	-0.0168167	1.06522
C	0.378189	0.272068	-0.347025
C	-0.673312	-0.586308	-1.02459
O	-1.2551	-1.47523	-0.405681
H	-0.00887305	-0.910757	1.31452
H	0.100748	1.3068	-0.505091
C	1.77462	-0.0112825	-0.942783
H	2.05523	-1.07524	-0.790205
H	1.81115	0.22045	-2.02698
H	2.52913	0.621774	-0.426733
N	-0.948516	-0.332442	-2.31913
C	-1.93805	-1.0941	-3.045
H	-0.470213	0.393692	-2.80186
H	-2.01928	-0.734259	-4.09436
H	-2.93814	-0.998653	-2.56336
H	-1.66598	-2.17425	-3.0646
C	401.06	-2.92753	-1.30088
C	399.968	-2.1807	-0.636583
O	398.861	-2.67887	-0.485435
H	400.684	-3.92561	-1.61477
H	401.91	-3.06751	-0.599903
H	401.409	-2.37622	-2.19929
N	400.261	-0.946414	-0.220473
C	399.291	-0.0821591	0.404218
C	399.676	1.35465	0.106118
O	400.753	1.62101	-0.423798
H	401.155	-0.539567	-0.387281
H	398.319	-0.254821	-0.0415847
C	399.238	-0.323367	1.92877
H	400.232	-0.136151	2.38813
H	398.485	0.326455	2.41943
H	398.962	-1.38282	2.12333
N	398.794	2.31934	0.434683
C	399.072	3.71441	0.183912
H	397.926	2.08385	0.859012
H	398.226	4.35112	0.523971
H	399.23	3.89394	-0.904176
H	399.992	4.03545	0.724328
