44
  This energy is 0.106 and Call times are: 216924
C	2.90823	-1.26192	1.43613
C	2.02162	-0.137303	1.06154
O	2.21654	0.992023	1.48937
H	3.6931	-0.894629	2.13252
H	3.3976	-1.68101	0.531914
H	2.32297	-2.05845	1.9422
N	1.00898	-0.427695	0.241421
C	0.0375921	0.551955	-0.177218
C	-1.2682	-0.167138	-0.458923
O	-1.31952	-1.39545	-0.477265
H	0.839232	-1.35974	-0.0657467
H	-0.144278	1.24449	0.635154
C	0.522074	1.30703	-1.43435
H	0.698704	0.598198	-2.27124
H	-0.211083	2.0738	-1.7585
H	1.48268	1.81901	-1.2075
N	-2.36295	0.587519	-0.67812
C	-3.65029	-0.00881627	-0.948912
H	-2.30242	1.57993	-0.655118
H	-4.42325	0.776419	-1.10111
H	-3.97004	-0.655443	-0.0998496
H	-3.60604	-0.639943	-1.8659
C	993.053	0.388237	-2.39355
C	994.313	-0.221916	-1.91129
O	994.816	-1.17604	-2.48859
H	992.696	-0.166332	-3.28815
H	993.225	1.44906	-2.67302
H	992.275	0.335344	-1.60305
N	994.858	0.323962	-0.821424
C	996.059	-0.186855	-0.209248
C	996.007	0.133657	1.27271
O	995.135	0.871425	1.72769
H	994.415	1.07426	-0.338804
H	996.078	-1.26527	-0.30556
C	997.315	0.437033	-0.855011
H	997.301	1.54258	-0.7472
H	998.247	0.0412988	-0.401614
H	997.328	0.196538	-1.94053
N	996.943	-0.424629	2.06592
C	996.97	-0.181437	3.4894
H	997.638	-1.02218	1.67995
H	997.813	-0.728938	3.96597
H	996.02	-0.519009	3.96365
H	997.094	0.905471	3.70018
