44
  This energy is -3.1846 and Call times are: 224916
C	2.52865	1.66797	1.71361
C	1.69992	0.468564	1.45719
O	1.98538	-0.614858	1.94823
H	3.38559	1.38991	2.36493
H	1.92599	2.4472	2.22581
H	2.92098	2.07363	0.757255
N	0.637962	0.639018	0.666257
C	-0.237923	-0.442915	0.29102
C	-0.83494	-0.119352	-1.06561
O	-0.676374	0.988151	-1.57552
H	0.44182	1.51797	0.241004
H	0.342535	-1.3503	0.179878
C	-1.35363	-0.638914	1.34079
H	-1.95603	0.288318	1.44754
H	-2.02659	-1.47822	1.0702
H	-0.893605	-0.866753	2.3271
N	-1.53328	-1.0889	-1.68876
C	-2.13315	-0.874323	-2.98502
H	-1.64725	-1.97997	-1.26206
H	-2.66354	-1.78943	-3.32925
H	-1.35554	-0.615178	-3.73964
H	-2.86746	-0.0374863	-2.94464
C	991.83	-0.313195	3.03726
C	992.542	0.490586	2.01836
O	992.55	1.71282	2.06843
H	991.341	0.368357	3.76695
H	992.546	-0.965733	3.57912
H	991.051	-0.940544	2.55423
N	993.164	-0.190778	1.05356
C	993.862	0.452899	-0.0310912
C	993.818	-0.468757	-1.23531
O	993.398	-1.61982	-1.13227
H	993.114	-1.18418	1.00322
H	993.341	1.3626	-0.301742
C	995.324	0.762338	0.36034
H	995.862	-0.17184	0.627945
H	995.869	1.27061	-0.461705
H	995.332	1.43156	1.24826
N	994.245	0.022815	-2.41502
C	994.235	-0.778984	-3.61635
H	994.578	0.957992	-2.47939
H	994.624	-0.197054	-4.48093
H	993.2	-1.11375	-3.8562
H	994.87	-1.68536	-3.48948
