44
  This energy is 0 and Call times are: 211713
C	1.45813	2.89862	-1.2588
C	1.37631	1.80842	-0.260834
O	2.2684	1.63076	0.557108
H	2.41583	3.44723	-1.12575
H	0.615346	3.60808	-1.1205
H	1.42366	2.47987	-2.28669
N	0.285446	1.04028	-0.309161
C	0.0837066	-0.0856256	0.56845
C	-0.787561	-1.09701	-0.152354
O	-1.32675	-0.815647	-1.22092
H	-0.412847	1.17177	-1.00699
H	1.03656	-0.561685	0.763582
C	-0.581133	0.357331	1.8902
H	-1.56351	0.836309	1.69133
H	-0.72918	-0.498561	2.58016
H	0.0698967	1.10304	2.39658
N	-0.939146	-2.30943	0.416038
C	-1.74526	-3.33755	-0.199867
H	-0.491593	-2.51978	1.2789
H	-1.74517	-4.26129	0.419761
H	-1.35113	-3.59317	-1.21012
H	-2.79846	-2.99378	-0.317007
C	730.498	-0.992781	-0.933645
C	731.459	0.0269372	-0.456518
O	731.154	1.21068	-0.408732
H	729.548	-0.494218	-1.22536
H	730.286	-1.72594	-0.127216
H	730.911	-1.52418	-1.81692
N	732.662	-0.418169	-0.0889224
C	733.717	0.458677	0.356099
C	735.046	-0.18823	0.0143191
O	735.095	-1.34576	-0.397232
H	732.909	-1.3794	-0.172173
H	733.661	1.39089	-0.192096
C	733.615	0.716958	1.87537
H	733.683	-0.238077	2.43877
H	734.413	1.40188	2.22786
H	732.632	1.18319	2.10337
N	736.16	0.552927	0.170249
C	737.469	0.0234116	-0.134977
H	736.1	1.48903	0.500551
H	738.256	0.785163	0.057914
H	737.53	-0.280368	-1.20515
H	737.687	-0.872121	0.491022
