44
  This energy is 0 and Call times are: 204601
C	2.76109	1.32074	1.65672
C	1.87409	1.22234	0.475745
O	1.95586	2.02269	-0.445753
H	3.43131	2.20004	1.54043
H	3.3822	0.404797	1.74622
H	2.15686	1.449	2.57951
N	0.990168	0.22182	0.479169
C	0.0320935	0.0226461	-0.579596
C	-1.18932	-0.657501	0.00955559
O	-1.17608	-1.08873	1.16089
H	0.908033	-0.397063	1.25512
H	-0.286447	0.985593	-0.958932
C	0.634345	-0.834263	-1.7146
H	0.95164	-1.82622	-1.3281
H	-0.0890991	-0.983156	-2.54224
H	1.53123	-0.321246	-2.1254
N	-2.28372	-0.761963	-0.769811
C	-3.49441	-1.38871	-0.292743
H	-2.27657	-0.403298	-1.69738
H	-4.28013	-1.37642	-1.07996
H	-3.88691	-0.854221	0.602546
H	-3.30194	-2.44781	-0.00568691
C	223.624	-0.150784	2.78902
C	224.224	-0.752748	1.57738
O	224.115	-1.94866	1.34425
H	223.123	-0.945169	3.38434
H	222.87	0.61295	2.50354
H	224.412	0.322561	3.41197
N	224.885	0.0777149	0.767214
C	225.559	-0.367889	-0.42683
C	226.721	0.570776	-0.692395
O	226.854	1.60719	-0.0444475
H	225	1.04125	0.991391
H	225.973	-1.35377	-0.256398
C	224.592	-0.387388	-1.63125
H	224.175	0.626006	-1.81307
H	225.096	-0.742008	-2.55381
H	223.746	-1.07436	-1.4116
N	227.599	0.222315	-1.65317
C	228.739	1.05056	-1.97201
H	227.477	-0.622241	-2.16391
H	229.341	0.59374	-2.78807
H	229.395	1.17601	-1.08038
H	228.409	2.06194	-2.30316
