44
  This energy is 0 and Call times are: 211181
C	1.30548	-1.89473	2.6112
C	0.57046	-0.717811	2.09571
O	-0.0504818	0.0201254	2.84823
H	1.16591	-1.96167	3.71207
H	2.38932	-1.7953	2.39175
H	0.917373	-2.82366	2.14263
N	0.624186	-0.515382	0.777183
C	-0.0752151	0.562636	0.12352
C	-0.398542	0.126453	-1.29308
O	0.0703578	-0.912149	-1.75477
H	1.09986	-1.14803	0.17274
H	-1.0163	0.73698	0.630079
C	0.780107	1.84854	0.112246
H	1.74118	1.67313	-0.416529
H	0.246943	2.68981	-0.376143
H	1.01134	2.14469	1.15875
N	-1.22039	0.911725	-2.01692
C	-1.58859	0.5743	-3.37219
H	-1.59312	1.74615	-1.62464
H	-2.27087	1.34305	-3.79734
H	-2.10742	-0.411118	-3.40449
H	-0.684945	0.510095	-4.0206
C	695.1	2.83355	1.92971
C	695.014	1.37458	1.69488
O	694.669	0.609408	2.58495
H	694.83	3.05214	2.98573
H	694.396	3.37111	1.26015
H	696.134	3.19102	1.74187
N	695.333	0.950824	0.469781
C	695.339	-0.443309	0.102471
C	696.36	-0.637196	-1.00274
O	696.893	0.329344	-1.54383
H	695.651	1.5815	-0.232344
H	695.664	-1.03457	0.949395
C	693.939	-0.895398	-0.368108
H	693.609	-0.296197	-1.24353
H	693.927	-1.97063	-0.640612
H	693.207	-0.737106	0.453527
N	696.663	-1.90091	-1.35941
C	697.627	-2.18287	-2.39734
H	696.224	-2.67009	-0.907178
H	697.738	-3.27994	-2.54368
H	698.624	-1.76224	-2.13217
H	697.307	-1.7305	-3.36399
