44
  This energy is -3.4342 and Call times are: 224345
C	2.0297	1.84502	2.14218
C	1.01799	1.74937	1.06587
O	0.398944	2.73508	0.689611
H	2.08121	2.89436	2.50563
H	3.02786	1.54885	1.75658
H	1.75022	1.18442	2.98988
N	0.82371	0.537722	0.539997
C	-0.157116	0.279252	-0.484569
C	-0.614927	-1.1607	-0.348592
O	-0.0418035	-1.93422	0.416208
H	1.30592	-0.262481	0.884984
H	-1.02177	0.909679	-0.318538
C	0.433635	0.529246	-1.88947
H	1.31436	-0.124812	-2.06433
H	-0.316084	0.346993	-2.68649
H	0.769253	1.5867	-1.96363
N	-1.67167	-1.55323	-1.087
C	-2.1815	-2.90293	-1.01942
H	-2.12487	-0.911767	-1.6971
H	-3.05245	-3.02884	-1.69972
H	-2.50817	-3.14795	0.0171746
H	-1.39595	-3.63512	-1.31598
C	994.666	-3.10307	0.938316
C	994.169	-2.15268	-0.0820159
O	994.292	-2.3854	-1.2767
H	995.141	-3.97115	0.431423
H	993.824	-3.46819	1.56335
H	995.42	-2.60894	1.58651
N	993.59	-1.04036	0.375335
C	993.096	-0.00246673	-0.49508
C	993.175	1.31684	0.249707
O	993.45	1.3482	1.44777
H	993.534	-0.845936	1.35051
H	993.743	0.0760278	-1.36001
C	991.643	-0.292208	-0.930125
H	990.977	-0.362373	-0.0437207
H	991.256	0.492789	-1.61179
H	991.607	-1.26581	-1.46602
N	992.943	2.44485	-0.450089
C	993.002	3.74655	0.173055
H	992.727	2.39949	-1.41967
H	992.782	4.54717	-0.567113
H	994.014	3.93241	0.599896
H	992.259	3.82007	1.00045
