44
  This energy is 0 and Call times are: 213617
C	-3.3581	-0.911724	0.0678428
C	-2.14585	-0.455345	-0.648603
O	-2.10467	-0.430521	-1.87094
H	-4.13093	-1.21246	-0.672541
H	-3.76285	-0.0909512	0.696537
H	-3.11699	-1.78473	0.710353
N	-1.11383	-0.079972	0.110613
C	0.1475	0.347039	-0.441907
C	1.23844	0.017032	0.559344
O	0.957586	-0.371817	1.69144
H	-1.1481	-0.144569	1.10385
H	0.353401	-0.21926	-1.34165
C	0.132089	1.86104	-0.746548
H	-0.0686514	2.44297	0.178166
H	1.09304	2.19948	-1.18536
H	-0.678773	2.08058	-1.47501
N	2.5176	0.157624	0.159347
C	3.62231	-0.138125	1.04158
H	2.72497	0.469573	-0.761933
H	4.59337	0.0392552	0.528932
H	3.58866	-1.20219	1.37006
H	3.5827	0.505129	1.95031
C	871.422	2.86192	-0.977842
C	870.17	2.09467	-0.78983
O	869.077	2.63335	-0.890103
H	871.173	3.92483	-1.18808
H	871.998	2.45139	-1.83397
H	872.043	2.81317	-0.058219
N	870.306	0.797299	-0.505744
C	869.182	-0.0690205	-0.253639
C	869.637	-1.17522	0.679556
O	870.827	-1.31651	0.95579
H	871.204	0.382153	-0.387003
H	868.409	0.489043	0.260266
C	868.636	-0.662248	-1.57105
H	869.426	-1.24367	-2.09346
H	867.761	-1.32026	-1.39158
H	868.317	0.165206	-2.24153
N	868.692	-1.98526	1.19652
C	869.03	-3.06185	2.09804
H	867.734	-1.85264	0.964446
H	868.117	-3.61243	2.41334
H	869.534	-2.66692	3.01011
H	869.723	-3.78325	1.6066
