44
  This energy is -4.7767 and Call times are: 218734
C	-2.80921	0.588877	1.96831
C	-1.96789	0.865079	0.782123
O	-2.37474	1.56792	-0.132696
H	-3.79302	1.09192	1.846
H	-2.31807	0.978056	2.88486
H	-2.97508	-0.50404	2.07373
N	-0.755641	0.305877	0.771158
C	0.159927	0.448029	-0.333418
C	1.04518	-0.783276	-0.375444
O	1.02341	-1.60606	0.537938
H	-0.454284	-0.297092	1.50429
H	-0.399694	0.474748	-1.2601
C	1.0152	1.72486	-0.180251
H	1.59757	1.69316	0.765201
H	1.71462	1.8529	-1.03169
H	0.346389	2.61239	-0.143721
N	1.84389	-0.942792	-1.44906
C	2.71663	-2.08635	-1.57867
H	1.84454	-0.268348	-2.17994
H	3.29158	-2.03648	-2.52955
H	2.12793	-3.03223	-1.57427
H	3.44045	-2.12627	-0.732726
C	994.86	3.34996	0.55951
C	993.917	2.20896	0.565395
O	992.826	2.29239	1.11201
H	994.412	4.19981	1.11866
H	995.063	3.67305	-0.483099
H	995.814	3.06072	1.04926
N	994.326	1.09799	-0.0518536
C	993.537	-0.108005	-0.0927578
C	994.483	-1.2892	-0.194702
O	995.685	-1.11829	-0.393067
H	995.233	1.03182	-0.456793
H	992.992	-0.210371	0.837632
C	992.563	-0.0896681	-1.29115
H	993.122	0.0047308	-2.24659
H	991.94	-1.00689	-1.32563
H	991.885	0.787143	-1.19991
N	993.961	-2.5232	-0.0518646
C	994.786	-3.70657	-0.128112
H	992.987	-2.64114	0.112169
H	994.172	-4.62331	0.014623
H	995.575	-3.6869	0.658337
H	995.289	-3.77194	-1.12005
