44
  This energy is 0 and Call times are: 205973
C	0.419023	2.67617	-2.18522
C	-0.205124	2.0474	-0.99938
O	-0.867576	2.70537	-0.209035
H	0.192209	3.76449	-2.18601
H	0.0148611	2.22418	-3.11533
H	1.52054	2.53869	-2.15605
N	-0.00151064	0.736867	-0.846324
C	-0.508679	-0.00582116	0.28051
C	0.422908	-1.17614	0.533601
O	1.31643	-1.45377	-0.264049
H	0.574054	0.222852	-1.47591
H	-0.484576	0.622212	1.16234
C	-1.94489	-0.505514	0.0106054
H	-1.96835	-1.1584	-0.887855
H	-2.35176	-1.06707	0.876422
H	-2.60734	0.367	-0.179746
N	0.239319	-1.88867	1.66259
C	1.08074	-3.016	1.99019
H	-0.486464	-1.64618	2.29782
H	0.771444	-3.46959	2.95757
H	2.14552	-2.69956	2.07603
H	1.01566	-3.79797	1.19935
C	325.399	-2.43589	1.81472
C	324.624	-1.17777	1.72994
O	324.18	-0.638686	2.73443
H	325.464	-2.75641	2.87722
H	326.426	-2.2796	1.42309
H	324.897	-3.2346	1.22842
N	324.439	-0.675834	0.506699
C	323.669	0.51826	0.260641
C	323.073	0.418438	-1.13085
O	323.411	-0.481576	-1.89751
H	324.771	-1.14786	-0.304893
H	322.845	0.56319	0.962017
C	324.553	1.77894	0.381909
H	325.392	1.73826	-0.344708
H	323.969	2.70588	0.208245
H	324.985	1.82725	1.40535
N	322.16	1.34292	-1.48764
C	321.535	1.32465	-2.78953
H	321.897	2.0611	-0.852064
H	320.813	2.16521	-2.89118
H	320.984	0.369131	-2.94737
H	322.299	1.41933	-3.59417
