44
  This energy is 0 and Call times are: 203789
C	-2.6955	2.19569	0.161014
C	-1.77519	1.31512	-0.593158
O	-1.99804	1.01592	-1.75816
H	-3.55088	2.47736	-0.490797
H	-2.16699	3.11879	0.479291
H	-3.08483	1.66572	1.05581
N	-0.703219	0.871857	0.0677327
C	0.259516	-0.0266902	-0.51905
C	0.875258	-0.852956	0.594368
O	0.654333	-0.584678	1.77375
H	-0.556897	1.09099	1.02817
H	-0.250607	-0.711677	-1.18478
C	1.35197	0.755764	-1.28033
H	1.88269	1.45102	-0.59549
H	2.09166	0.0743807	-1.74841
H	0.87788	1.35923	-2.08495
N	1.66094	-1.88973	0.242455
C	2.28538	-2.73527	1.23306
H	1.8246	-2.09359	-0.717089
H	2.89074	-3.531	0.745654
H	1.51595	-3.22341	1.87413
H	2.95622	-2.13853	1.89263
C	171.057	0.116749	0.910249
C	169.94	0.463613	0.00313651
O	170.078	1.29813	-0.880584
H	171.946	0.731266	0.649718
H	171.318	-0.956983	0.802472
H	170.773	0.323973	1.96359
N	168.788	-0.179592	0.207408
C	167.6	0.0815931	-0.56641
C	166.394	-0.221824	0.30209
O	166.526	-0.770739	1.39428
H	168.679	-0.826392	0.956852
H	167.561	1.13448	-0.816436
C	167.575	-0.780544	-1.84756
H	167.605	-1.86104	-1.59125
H	166.672	-0.578462	-2.45897
H	168.471	-0.547712	-2.46383
N	165.182	0.138916	-0.163298
C	163.977	-0.104367	0.596067
H	165.095	0.585752	-1.04756
H	163.084	0.264192	0.0453421
H	164.022	0.416006	1.5802
H	163.847	-1.19409	0.787334
