44
  This energy is 0 and Call times are: 201969
C	1.24776	2.02269	2.54254
C	0.932886	1.76318	1.11963
O	0.987004	2.65694	0.286156
H	1.49789	3.09799	2.67316
H	2.1178	1.41023	2.85983
H	0.371598	1.77763	3.17922
N	0.588739	0.511791	0.806657
C	0.213367	0.115686	-0.527793
C	-0.745126	-1.05545	-0.421544
O	-0.946343	-1.60866	0.657892
H	0.509477	-0.195577	1.50323
H	-0.321266	0.927858	-1.00442
C	1.45605	-0.2752	-1.35736
H	1.99903	-1.11536	-0.874309
H	1.18149	-0.568905	-2.39122
H	2.14699	0.594058	-1.41517
N	-1.36895	-1.45694	-1.54657
C	-2.30231	-2.55921	-1.54109
H	-1.1963	-0.994181	-2.40977
H	-2.70899	-2.73522	-2.56131
H	-3.15486	-2.34857	-0.855484
H	-1.80444	-3.4941	-1.19577
C	34.2701	-0.30847	0.503514
C	35.6382	-0.0213555	0.990504
O	35.8267	0.473118	2.09339
H	33.5324	0.00919299	1.27213
H	34.1503	-1.39665	0.318451
H	34.0733	0.249921	-0.435918
N	36.6395	-0.32875	0.162699
C	38.0218	-0.0684485	0.478755
C	38.7721	0.146386	-0.822203
O	38.2325	-0.0753596	-1.90447
H	36.4681	-0.69281	-0.748317
H	38.0914	0.850824	1.04684
C	38.6372	-1.24265	1.27115
H	38.5755	-2.18393	0.684437
H	39.6975	-1.0482	1.53254
H	38.0676	-1.38678	2.21515
N	40.0407	0.594514	-0.745728
C	40.8308	0.833344	-1.93104
H	40.4588	0.772113	0.138996
H	41.8457	1.19907	-1.66009
H	40.3445	1.59751	-2.5798
H	40.9421	-0.102931	-2.52445
