44
  This energy is 0 and Call times are: 204237
C	-3.348	0.942546	0.123289
C	-2.22139	0.0777461	0.540435
O	-2.33095	-0.693501	1.48361
H	-4.21448	0.767593	0.797436
H	-3.64895	0.703139	-0.918275
H	-3.05368	2.01142	0.186381
N	-1.0934	0.191349	-0.164629
C	0.101333	-0.552464	0.148288
C	1.29807	0.262256	-0.30514
O	1.14862	1.27809	-0.981503
H	-1.00641	0.853102	-0.903807
H	0.178609	-0.668999	1.2221
C	0.09048	-1.93162	-0.546739
H	0.0218439	-1.81237	-1.64906
H	0.998852	-2.51959	-0.302463
H	-0.797792	-2.50723	-0.206172
N	2.52139	-0.163278	0.066932
C	3.71804	0.550719	-0.31312
H	2.62188	-0.985257	0.617682
H	4.62283	0.0438596	0.0889569
H	3.69567	1.59256	0.081021
H	3.80896	0.603083	-1.42223
C	198.994	1.34181	3.13268
C	198.881	1.34782	1.65676
O	198.083	2.07862	1.08604
H	198.258	2.05732	3.56033
H	200.015	1.6502	3.43945
H	198.78	0.326722	3.52874
N	199.69	0.516555	0.996146
C	199.666	0.379145	-0.438804
C	200.114	-1.02785	-0.786865
O	200.576	-1.77312	0.0751771
H	200.305	-0.101756	1.47673
H	198.648	0.489892	-0.791091
C	200.587	1.42211	-1.10856
H	201.633	1.30211	-0.755432
H	200.566	1.33561	-2.21428
H	200.245	2.4439	-0.833697
N	199.979	-1.42844	-2.06646
C	200.373	-2.75189	-2.48974
H	199.6	-0.812509	-2.74886
H	200.184	-2.88981	-3.57706
H	199.801	-3.52907	-1.93293
H	201.458	-2.91871	-2.29881
