44
  This energy is 0 and Call times are: 206197
C	-0.360317	-1.40773	-3.16246
C	-0.385886	-1.49797	-1.68519
O	-0.848288	-2.47871	-1.11884
H	-0.822608	-2.32187	-3.59433
H	0.686898	-1.32992	-3.52306
H	-0.934752	-0.519983	-3.50162
N	0.11754	-0.456766	-1.01823
C	0.123079	-0.380393	0.421458
C	0.0715748	1.08314	0.817664
O	0.198815	1.96875	-0.0256685
H	0.452942	0.352036	-1.49279
H	-0.772597	-0.850817	0.807589
C	1.3838	-1.05526	1.00487
H	2.30282	-0.566202	0.617241
H	1.39295	-1.01525	2.1134
H	1.40482	-2.12312	0.695719
N	-0.126131	1.37204	2.119
C	-0.194961	2.73625	2.58845
H	-0.23097	0.641761	2.78591
H	-0.362727	2.7659	3.68763
H	-1.03028	3.28093	2.09161
H	0.752357	3.27763	2.36341
C	336.95	-2.12267	0.210432
C	337.549	-0.776803	0.0677501
O	336.868	0.189673	-0.245593
H	335.865	-2.06807	-0.0243498
H	337.075	-2.48872	1.25122
H	337.434	-2.8337	-0.491719
N	338.862	-0.684312	0.296555
C	339.594	0.549581	0.155394
C	341.025	0.21035	-0.214924
O	341.425	-0.952012	-0.18516
H	339.41	-1.48747	0.510782
H	339.176	1.12143	-0.663587
C	339.553	1.36839	1.46425
H	339.991	0.786177	2.30256
H	340.101	2.32726	1.36397
H	338.495	1.59839	1.72011
N	341.833	1.22431	-0.583149
C	343.209	0.996653	-0.957831
H	341.49	2.15766	-0.604996
H	343.707	1.95407	-1.22805
H	343.269	0.31092	-1.83385
H	343.774	0.532923	-0.11691
