44
  This energy is 0 and Call times are: 210117
C	-0.354964	0.389419	-3.44021
C	0.468136	0.357849	-2.21031
O	1.69009	0.349348	-2.26648
H	0.3126	0.384359	-4.32915
H	-0.975411	1.30992	-3.46196
H	-1.01539	-0.502324	-3.48169
N	-0.195826	0.33714	-1.05225
C	0.466288	0.262406	0.226258
C	-0.465224	-0.432523	1.20141
O	-1.63082	-0.675438	0.894648
H	-1.19076	0.303046	-1.02361
H	1.35322	-0.351957	0.133849
C	0.834676	1.67153	0.73996
H	-0.0760718	2.29886	0.844982
H	1.35749	1.62655	1.71729
H	1.51024	2.16433	0.00707763
N	0.0337562	-0.778055	2.40459
C	-0.776664	-1.4478	3.39496
H	0.980541	-0.57675	2.63295
H	-0.186565	-1.64723	4.3165
H	-1.15281	-2.42025	3.00237
H	-1.65694	-0.822986	3.6704
C	620.708	-0.410632	3.30579
C	620.512	-0.920884	1.93015
O	620.988	-1.99144	1.57828
H	621.333	-1.12993	3.8788
H	619.728	-0.29957	3.81601
H	621.224	0.572117	3.27946
N	619.796	-0.150555	1.10788
C	619.556	-0.492777	-0.272004
C	619.379	0.794676	-1.05475
O	619.286	1.87566	-0.476357
H	619.45	0.737424	1.39677
H	620.428	-0.996034	-0.67169
C	618.304	-1.38656	-0.409449
H	617.408	-0.866557	-0.00916115
H	618.117	-1.66833	-1.46592
H	618.453	-2.31909	0.177613
N	619.337	0.708412	-2.39891
C	619.177	1.88097	-3.22692
H	619.418	-0.174765	-2.84892
H	619.166	1.60335	-4.30397
H	620.012	2.59813	-3.05827
H	618.221	2.40229	-2.98936
