44
  This energy is -1.6968 and Call times are: 223122
C	-2.68068	0.407613	-2.18185
C	-1.85005	-0.419785	-1.27819
O	-2.21124	-1.53582	-0.93117
H	-3.61311	-0.143918	-2.4314
H	-2.12785	0.622077	-3.12053
H	-2.95054	1.36354	-1.6854
N	-0.69969	0.120249	-0.86903
C	0.193874	-0.545715	0.0456251
C	0.951772	0.514278	0.822517
O	0.874725	1.70062	0.50886
H	-0.438717	1.04601	-1.12735
H	-0.386326	-1.11622	0.760137
C	1.17494	-1.46595	-0.713258
H	1.77781	-0.879447	-1.43893
H	1.85926	-1.99507	-0.018803
H	0.598273	-2.22861	-1.28084
N	1.70021	0.108449	1.86711
C	2.45183	1.04634	2.66811
H	1.74676	-0.855328	2.10802
H	3.00181	0.519091	3.47851
H	1.77303	1.79604	3.13551
H	3.19178	1.59429	2.04092
C	992.728	-3.08639	-1.04542
C	993.299	-1.74908	-1.32254
O	993.703	-1.45212	-2.43834
H	992.763	-3.69979	-1.9719
H	991.671	-2.99098	-0.717094
H	993.316	-3.59706	-0.253999
N	993.347	-0.899651	-0.293695
C	993.914	0.421673	-0.39798
C	994.452	0.814511	0.965165
O	994.219	0.12577	1.95658
H	993.052	-1.16993	0.618317
H	994.754	0.396972	-1.08112
C	992.856	1.43998	-0.876826
H	991.999	1.47337	-0.170755
H	993.284	2.45868	-0.974427
H	992.471	1.12832	-1.87222
N	995.197	1.9348	1.04444
C	995.755	2.38414	2.29845
H	995.378	2.47672	0.23049
H	996.335	3.32257	2.15686
H	996.436	1.61202	2.7243
H	994.948	2.57946	3.04071
