44
  This energy is -2.5411 and Call times are: 222852
C	-2.88913	-1.55196	1.1649
C	-2.15025	-0.765593	0.151586
O	-2.62667	-0.551909	-0.954654
H	-3.85909	-1.88497	0.735742
H	-3.08811	-0.929099	2.06223
H	-2.3004	-2.44634	1.45915
N	-0.947752	-0.312246	0.51333
C	-0.0927155	0.430927	-0.378391
C	1.3473	0.176153	0.0253483
O	1.61312	-0.423948	1.06503
H	-0.556106	-0.529101	1.40297
H	-0.216157	0.0560109	-1.38677
C	-0.412726	1.94066	-0.31896
H	-0.276052	2.32803	0.713174
H	0.229676	2.52222	-1.01151
H	-1.47343	2.10274	-0.61049
N	2.31596	0.622544	-0.798341
C	3.71461	0.421355	-0.499232
H	2.08108	1.10239	-1.63718
H	4.35431	0.859749	-1.29662
H	3.94722	-0.665423	-0.421245
H	3.98252	0.902118	0.469393
C	994.014	1.54632	3.11058
C	993.682	0.387669	2.25133
O	993.432	-0.707907	2.73477
H	994.006	1.22802	4.1757
H	993.265	2.35364	2.97096
H	995.025	1.93234	2.85867
N	993.674	0.608186	0.934634
C	993.412	-0.430928	-0.0296099
C	994.14	-0.0799084	-1.31346
O	994.674	1.01853	-1.45444
H	993.92	1.49528	0.554324
H	993.825	-1.36501	0.330362
C	991.896	-0.573008	-0.288307
H	991.473	0.381948	-0.667626
H	991.679	-1.3794	-1.01873
H	991.382	-0.822057	0.666017
N	994.185	-1.01535	-2.28243
C	994.86	-0.773028	-3.5361
H	993.75	-1.89977	-2.14824
H	994.786	-1.66197	-4.20063
H	995.938	-0.551614	-3.36509
H	994.408	0.0978898	-4.06388
