44
  This energy is 0 and Call times are: 204629
C	2.18613	-2.55411	-0.900034
C	1.91285	-1.16907	-0.454917
O	2.81365	-0.441772	-0.0599286
H	3.2713	-2.76832	-0.788655
H	1.90338	-2.67609	-1.96676
H	1.61207	-3.27534	-0.280872
N	0.640315	-0.768822	-0.508084
C	0.213124	0.536072	-0.0684033
C	-1.22497	0.429089	0.402762
O	-1.87352	-0.598928	0.217637
H	-0.0875699	-1.38585	-0.793272
H	0.809773	0.839236	0.782909
C	0.333526	1.56959	-1.20972
H	-0.286684	1.26441	-2.07934
H	0.0206042	2.58134	-0.879638
H	1.39251	1.62542	-1.54406
N	-1.7567	1.49386	1.03487
C	-3.11593	1.4818	1.52329
H	-1.2149	2.3153	1.17895
H	-3.36634	2.44848	2.01322
H	-3.25883	0.664611	2.26696
H	-3.83276	1.31645	0.686656
C	230.216	0.601067	-2.32837
C	228.92	0.933927	-1.69441
O	228.358	1.99602	-1.92303
H	230.538	1.44783	-2.97276
H	230.112	-0.308954	-2.95596
H	230.989	0.427315	-1.55053
N	228.412	0.0175704	-0.867534
C	227.18	0.216391	-0.144025
C	227.252	-0.58684	1.14099
O	228.169	-1.38225	1.33624
H	228.901	-0.82459	-0.659809
H	227.093	1.25978	0.132221
C	225.966	-0.223391	-0.990532
H	226.05	-1.29646	-1.26532
H	225.011	-0.0623216	-0.449661
H	225.938	0.371819	-1.9293
N	226.283	-0.38943	2.05655
C	226.272	-1.10484	3.31124
H	225.552	0.26144	1.88224
H	225.396	-0.803997	3.92748
H	227.198	-0.893394	3.89243
H	226.217	-2.20377	3.13662
