44
  This energy is 0 and Call times are: 212833
C	-3.38388	-0.0260413	-0.813241
C	-2.0684	0.647715	-0.73134
O	-1.87241	1.72261	-1.28144
H	-4.07234	0.586779	-1.43481
H	-3.82002	-0.13865	0.201569
H	-3.27265	-1.02713	-1.28072
N	-1.12156	0.0178403	-0.031962
C	0.220319	0.527884	0.101351
C	1.1573	-0.650007	0.291618
O	0.715758	-1.78276	0.475026
H	-1.284	-0.876157	0.375774
H	0.507232	1.02308	-0.81794
C	0.32445	1.5011	1.29603
H	0.040342	0.990643	2.24088
H	1.34972	1.91141	1.40081
H	-0.375338	2.35084	1.13924
N	2.48232	-0.409094	0.243541
C	3.44975	-1.46883	0.40849
H	2.82041	0.513518	0.09007
H	4.48571	-1.07029	0.336523
H	3.3181	-2.24679	-0.378102
H	3.33055	-1.95873	1.40194
C	816.728	-1.14656	-1.27718
C	815.623	-1.20421	-0.29413
O	815.512	-2.14535	0.479453
H	817.355	-2.05941	-1.17904
H	817.361	-0.253982	-1.08935
H	816.32	-1.09982	-2.30901
N	814.765	-0.181401	-0.305108
C	813.615	-0.117108	0.562611
C	812.542	0.697883	-0.133949
O	812.789	1.30828	-1.17224
H	814.844	0.557333	-0.968261
H	813.22	-1.11498	0.706557
C	813.983	0.520507	1.92015
H	814.379	1.5482	1.77385
H	813.11	0.563029	2.60233
H	814.776	-0.0878167	2.4083
N	811.314	0.719341	0.421243
C	810.228	1.46316	-0.173766
H	811.132	0.215779	1.25938
H	809.3	1.35577	0.43033
H	810.019	1.09635	-1.20486
H	810.482	2.54606	-0.237373
