44
  This energy is 0.1126 and Call times are: 216739
C	1.66527	0.0537733	-3.0556
C	1.35992	-0.570554	-1.74865
O	1.72154	-1.71059	-1.49183
H	2.21897	-0.672704	-3.68926
H	2.29462	0.956898	-2.91059
H	0.724729	0.338078	-3.57295
N	0.673168	0.175761	-0.88045
C	0.264775	-0.309369	0.414317
C	-1.00457	0.419247	0.813603
O	-1.41687	1.37272	0.155872
H	0.35037	1.08714	-1.11933
H	0.0228901	-1.36236	0.341253
C	1.37386	-0.0800605	1.46436
H	1.61498	1.00115	1.54729
H	1.07689	-0.461951	2.46261
H	2.29542	-0.615604	1.14772
N	-1.66194	-0.0217245	1.90422
C	-2.88159	0.605809	2.35681
H	-1.31495	-0.797285	2.42111
H	-3.26988	0.0992698	3.26778
H	-3.66564	0.555734	1.56685
H	-2.70481	1.67848	2.60025
C	998.607	1.66309	0.0598292
C	997.22	1.50311	-0.431401
O	996.675	2.38026	-1.08782
H	998.994	2.6579	-0.250576
H	999.258	0.873706	-0.370196
H	998.63	1.59824	1.16813
N	996.607	0.35966	-0.116416
C	995.242	0.0774587	-0.486433
C	994.656	-0.864681	0.548509
O	995.371	-1.38244	1.40465
H	997.048	-0.327507	0.453294
H	994.666	0.993535	-0.451422
C	995.171	-0.553355	-1.89438
H	995.754	-1.49868	-1.92795
H	994.125	-0.762576	-2.19649
H	995.612	0.149898	-2.63416
N	993.331	-1.10317	0.498136
C	992.685	-1.9815	1.4451
H	992.769	-0.671742	-0.199468
H	991.594	-2.04789	1.23855
H	992.822	-1.60711	2.48538
H	993.116	-3.0072	1.38751
