44
  This energy is 0 and Call times are: 204517
C	-0.684813	2.94547	-1.72277
C	0.249927	2.02013	-1.04368
O	1.46109	2.17153	-1.12475
H	-0.103153	3.713	-2.27815
H	-1.32985	3.45422	-0.975879
H	-1.32127	2.3873	-2.44142
N	-0.302343	1.02277	-0.34896
C	0.477902	0.0182299	0.329774
C	-0.339024	-1.25901	0.383215
O	-1.52096	-1.26526	0.0445396
H	-1.28894	0.888725	-0.326066
H	1.36903	-0.192782	-0.248143
C	0.8534	0.480836	1.75464
H	-0.0606182	0.687327	2.35127
H	1.4661	-0.278306	2.28268
H	1.44377	1.42096	1.69162
N	0.27934	-2.37956	0.805135
C	-0.416346	-3.64289	0.883812
H	1.23735	-2.35549	1.07105
H	0.262398	-4.44331	1.25239
H	-0.800374	-3.94287	-0.11809
H	-1.28407	-3.57114	1.57882
C	220.733	-3.29764	0.412602
C	219.729	-2.2873	0.0116088
O	218.722	-2.6061	-0.606084
H	220.413	-4.29834	0.0494265
H	220.824	-3.32892	1.51872
H	221.721	-3.0529	-0.0324646
N	219.986	-1.02409	0.358608
C	219.124	0.0749327	0.001834
C	219.974	1.32675	-0.10759
O	221.149	1.32347	0.253412
H	220.83	-0.774492	0.825483
H	218.695	-0.110117	-0.975093
C	218.01	0.266855	1.05469
H	218.45	0.467185	2.0551
H	217.332	1.10143	0.784181
H	217.406	-0.663956	1.12359
N	219.397	2.43152	-0.620015
C	220.129	3.66766	-0.767479
H	218.446	2.41352	-0.910402
H	219.482	4.45826	-1.207
H	221.01	3.52508	-1.43446
H	220.499	4.02589	0.220602
