44
  This energy is 0 and Call times are: 204209
C	-2.1965	0.445484	-2.66263
C	-1.84734	-0.127206	-1.34306
O	-2.69232	-0.670985	-0.645412
H	-3.28334	0.303729	-2.84858
H	-1.62485	-0.0661507	-3.46524
H	-1.96749	1.5319	-2.681
N	-0.571893	-0.0132825	-0.965402
C	-0.0900578	-0.483259	0.309555
C	1.09596	0.372966	0.711798
O	1.5904	1.17504	-0.0780922
H	0.0956229	0.468226	-1.52615
H	-0.859959	-0.339674	1.0574
C	0.317863	-1.97076	0.230916
H	1.11513	-2.11696	-0.52871
H	0.677617	-2.34824	1.21
H	-0.563161	-2.57736	-0.0727057
N	1.57708	0.227041	1.9621
C	2.6996	1.00299	2.43543
H	1.16108	-0.424175	2.58814
H	2.94432	0.738993	3.48787
H	2.47041	2.09241	2.39159
H	3.60048	0.81421	1.80781
C	199.523	2.94152	0.370477
C	198.336	2.10036	0.645254
O	197.527	2.41056	1.50814
H	199.524	3.81237	1.06148
H	199.495	3.31276	-0.675536
H	200.453	2.35548	0.529756
N	198.207	0.996571	-0.0945772
C	197.128	0.0572892	0.0859921
C	197.62	-1.3147	-0.334837
O	198.706	-1.44965	-0.895765
H	198.896	0.736143	-0.764988
H	196.876	0.000931834	1.13755
C	195.894	0.468438	-0.745906
H	196.149	0.516152	-1.82591
H	195.051	-0.239445	-0.604601
H	195.556	1.47847	-0.426569
N	196.831	-2.37243	-0.0640562
C	197.218	-3.71682	-0.422322
H	195.957	-2.24368	0.394185
H	196.437	-4.44651	-0.115712
H	198.174	-3.99625	0.0774211
H	197.366	-3.80307	-1.52315
