44
  This energy is 0 and Call times are: 208857
C	0.483731	-1.76047	2.96301
C	0.987246	-1.15686	1.70871
O	2.18687	-1.04447	1.49735
H	1.34516	-2.04012	3.60769
H	-0.107919	-2.67268	2.73817
H	-0.152653	-1.03273	3.50937
N	0.0645405	-0.746284	0.835545
C	0.399857	-0.100728	-0.409197
C	-0.742615	0.82387	-0.785269
O	-1.80186	0.802132	-0.161384
H	-0.908343	-0.80721	1.03964
H	1.2794	0.51471	-0.266833
C	0.642409	-1.14258	-1.52318
H	-0.263206	-1.7673	-1.67689
H	0.914993	-0.658438	-2.4833
H	1.47706	-1.81315	-1.22311
N	-0.549165	1.66935	-1.81666
C	-1.5776	2.58964	-2.24278
H	0.316261	1.67509	-2.30663
H	-1.22721	3.19937	-3.10457
H	-1.85419	3.2808	-1.41389
H	-2.49456	2.03818	-2.55296
C	526.518	0.218058	-1.39278
C	527.85	-0.418107	-1.27828
O	528.083	-1.49649	-1.80631
H	525.846	-0.440681	-1.98459
H	526.605	1.19806	-1.90733
H	526.078	0.368002	-0.384501
N	528.766	0.246965	-0.571235
C	530.093	-0.264895	-0.335626
C	530.59	0.298383	0.982391
O	529.962	1.17827	1.56813
H	528.549	1.10406	-0.113115
H	530.047	-1.34156	-0.229407
C	531.047	0.125527	-1.4856
H	531.103	1.23025	-1.58815
H	532.069	-0.274565	-1.32267
H	530.66	-0.290384	-2.44121
N	531.734	-0.20578	1.48621
C	532.281	0.264715	2.73752
H	532.226	-0.920274	0.999727
H	533.224	-0.272386	2.98129
H	531.558	0.0989405	3.56907
H	532.502	1.35534	2.68454
