44
  This energy is 0.1016 and Call times are: 218111
C	-3.43715	0.360704	0.410539
C	-2.06061	0.289422	0.950155
O	-1.81943	0.590369	2.11105
H	-4.12412	0.727529	1.20389
H	-3.77211	-0.645661	0.0822427
H	-3.47506	1.06161	-0.449918
N	-1.11141	-0.115586	0.103181
C	0.280626	-0.194388	0.470038
C	1.1122	0.0192633	-0.780716
O	0.583462	0.0541245	-1.89019
H	-1.31673	-0.317854	-0.850129
H	0.515644	0.610681	1.15507
C	0.606045	-1.562	1.10956
H	0.375017	-2.38774	0.40329
H	1.67198	-1.62989	1.40907
H	-0.0195267	-1.70034	2.01834
N	2.44187	0.176638	-0.628214
C	3.31251	0.390637	-1.76063
H	2.85078	0.149452	0.277946
H	4.3691	0.49716	-1.42975
H	3.02234	1.31549	-2.30993
H	3.25183	-0.465865	-2.47047
C	997.179	-1.97667	0.695326
C	996.561	-0.706784	0.251766
O	997.23	0.308007	0.11292
H	998.264	-1.81453	0.873386
H	997.055	-2.75578	-0.0860047
H	996.707	-2.3223	1.63948
N	995.247	-0.736055	0.018104
C	994.498	0.43062	-0.377444
C	993.073	0.267666	0.116505
O	992.689	-0.799034	0.592847
H	994.709	-1.55933	0.175002
H	994.911	1.30347	0.112359
C	994.522	0.607978	-1.91145
H	994.089	-0.282761	-2.41406
H	993.961	1.51079	-2.22754
H	995.575	0.717361	-2.25151
N	992.252	1.3325	0.0212003
C	990.881	1.27277	0.470625
H	992.582	2.18839	-0.363355
H	990.371	2.24786	0.30812
H	990.834	1.02938	1.55682
H	990.319	0.486501	-0.0840217
