44
  This energy is 0 and Call times are: 211321
C	2.13186	-0.264058	-2.73827
C	1.78924	-0.530066	-1.323
O	2.43773	-1.32167	-0.652745
H	3.00277	-0.890688	-3.02936
H	2.39759	0.805489	-2.87319
H	1.27215	-0.516711	-3.39414
N	0.742194	0.135979	-0.830601
C	0.262024	-0.0492498	0.516131
C	-1.22617	0.244991	0.532333
O	-1.78245	0.732655	-0.449728
H	0.199205	0.74625	-1.40034
H	0.388934	-1.0862	0.801179
C	1.00809	0.878145	1.50029
H	0.869496	1.94262	1.2144
H	0.656981	0.735008	2.54277
H	2.09594	0.650665	1.4659
N	-1.91065	-0.0547911	1.65378
C	-3.33106	0.184987	1.75925
H	-1.44379	-0.452654	2.43661
H	-3.70963	-0.127751	2.7573
H	-3.88483	-0.386528	0.979523
H	-3.55838	1.26682	1.62103
C	704.624	-2.75564	-1.83314
C	704.43	-1.73607	-0.777663
O	703.341	-1.57914	-0.241477
H	703.66	-3.27622	-2.02246
H	705.378	-3.50298	-1.50928
H	704.962	-2.27276	-2.77406
N	705.5	-1.00691	-0.453074
C	705.456	0.0516541	0.524722
C	706.516	1.07496	0.161578
O	707.337	0.843792	-0.72328
H	706.368	-1.11846	-0.927185
H	704.496	0.548691	0.470449
C	705.701	-0.50002	1.94634
H	706.691	-1.00081	2.00535
H	705.656	0.303403	2.70989
H	704.919	-1.25257	2.18766
N	706.515	2.24167	0.835973
C	707.482	3.27725	0.555378
H	705.84	2.41197	1.54576
H	707.317	4.15832	1.21394
H	707.403	3.61202	-0.504301
H	708.518	2.90341	0.722681
