44
  This energy is 0.1395 and Call times are: 221207
C	2.98081	-0.982575	-1.504
C	2.20861	-0.117608	-0.583843
O	2.77146	0.625237	0.208492
H	4.06745	-0.836448	-1.32031
H	2.75565	-0.716969	-2.55828
H	2.72715	-2.0495	-1.32955
N	0.878743	-0.198646	-0.669022
C	-0.00573875	0.549106	0.189534
C	-1.29269	-0.239123	0.344464
O	-1.50656	-1.23689	-0.341423
H	0.435317	-0.838101	-1.29058
H	0.439719	0.63589	1.17273
C	-0.294683	1.94727	-0.399441
H	-0.761357	1.85868	-1.40363
H	-0.963619	2.53805	0.259367
H	0.661781	2.50312	-0.511484
N	-2.18158	0.189133	1.26235
C	-3.4312	-0.500509	1.48373
H	-1.98889	0.996169	1.81065
H	-4.02383	0.00466363	2.27797
H	-3.24831	-1.55332	1.79902
H	-4.03986	-0.520291	0.550842
C	994.423	1.24585	2.89461
C	995.567	1.12577	1.96331
O	996.545	1.85424	2.06434
H	994.621	2.06907	3.61509
H	994.288	0.299198	3.45881
H	993.494	1.47632	2.33165
N	995.467	0.188254	1.01808
C	996.48	-0.0191212	0.0136484
C	995.809	-0.575497	-1.22777
O	994.631	-0.927093	-1.20269
H	994.648	-0.369474	0.923251
H	996.917	0.934591	-0.255685
C	997.57	-0.989307	0.520962
H	997.124	-1.97133	0.787455
H	998.363	-1.14632	-0.238354
H	998.042	-0.565749	1.43414
N	996.546	-0.660531	-2.35258
C	995.991	-1.1721	-3.58372
H	997.497	-0.367256	-2.3543
H	996.753	-1.16179	-4.39351
H	995.124	-0.553065	-3.91056
H	995.636	-2.21953	-3.44941
