44
  This energy is 0 and Call times are: 202865
C	-2.88324	-1.93037	0.270684
C	-1.9996	-0.835963	0.731749
O	-2.3753	-0.0306102	1.57238
H	-3.8641	-1.85322	0.788219
H	-2.42836	-2.9151	0.507634
H	-3.04792	-1.8535	-0.82479
N	-0.785231	-0.781243	0.179751
C	0.170181	0.251304	0.495337
C	1.06202	0.456328	-0.714684
O	1.01001	-0.312369	-1.67287
H	-0.508631	-1.41937	-0.533093
H	-0.354653	1.18213	0.670655
C	1.0133	-0.135895	1.73003
H	1.56019	-1.0853	1.54677
H	1.74335	0.657305	1.99153
H	0.339538	-0.288677	2.60126
N	1.90088	1.51092	-0.701669
C	2.78306	1.78879	-1.81105
H	1.92567	2.12409	0.0809388
H	3.39279	2.69725	-1.61065
H	2.19894	1.95768	-2.74462
H	3.47505	0.933556	-1.98673
C	98.7079	1.67866	0.584886
C	99.7093	0.643036	0.925292
O	99.662	0.0424796	1.98995
H	97.9932	1.79007	1.42909
H	98.1454	1.38257	-0.32545
H	99.2101	2.65316	0.40822
N	100.655	0.409648	0.012709
C	101.722	-0.537649	0.218868
C	102.925	-0.0771499	-0.582953
O	102.831	0.851825	-1.38281
H	100.705	0.935427	-0.831677
H	102.009	-0.531067	1.26307
C	101.293	-1.95597	-0.21581
H	101.009	-1.96549	-1.28967
H	102.101	-2.69708	-0.0490762
H	100.407	-2.26914	0.378244
N	104.094	-0.715862	-0.379292
C	105.293	-0.343323	-1.0929
H	104.152	-1.46253	0.2751
H	106.149	-0.985206	-0.786707
H	105.56	0.718327	-0.885443
H	105.147	-0.454182	-2.19178
