44
  This energy is 0 and Call times are: 204741
C	-2.67923	-1.15565	1.89707
C	-2.1175	-0.343685	0.794206
O	-2.84304	0.175195	-0.042912
H	-3.78529	-1.19974	1.79422
H	-2.42738	-0.697283	2.87647
H	-2.27316	-2.18841	1.85718
N	-0.788792	-0.216208	0.76831
C	-0.0937721	0.507289	-0.267092
C	1.28769	-0.100073	-0.422765
O	1.70233	-0.935426	0.378467
H	-0.208833	-0.678376	1.43308
H	-0.613324	0.372325	-1.20756
C	0.0107807	2.00778	0.0833891
H	0.55295	2.14738	1.04287
H	0.531803	2.57813	-0.7127
H	-1.01141	2.42942	0.200386
N	2.03333	0.302642	-1.47055
C	3.35796	-0.224325	-1.70262
H	1.67899	0.976473	-2.11045
H	3.80806	0.229973	-2.6127
H	3.32214	-1.32894	-1.8434
H	4.0243	-0.00813811	-0.83637
C	235.258	2.26238	2.60755
C	234.746	1.48071	1.45959
O	233.546	1.39618	1.2362
H	234.402	2.69203	3.17083
H	235.904	3.09105	2.24858
H	235.842	1.60646	3.28702
N	235.661	0.8801	0.695091
C	235.314	0.050073	-0.431559
C	236.41	-0.982982	-0.613127
O	237.457	-0.910089	0.0280031
H	236.632	0.924474	0.913558
H	234.399	-0.485724	-0.212253
C	235.152	0.897948	-1.71217
H	236.094	1.4396	-1.94347
H	234.871	0.272014	-2.58393
H	234.35	1.65214	-1.55373
N	236.19	-1.98072	-1.49172
C	237.173	-3.01215	-1.72658
H	235.335	-2.02508	-1.99812
H	236.806	-3.74088	-2.48245
H	237.395	-3.56531	-0.785191
H	238.126	-2.56985	-2.09932
