44
  This energy is 0 and Call times are: 208745
C	-3.23987	0.262464	1.24379
C	-1.9522	-0.453839	1.10255
O	-1.68899	-1.42573	1.79722
H	-3.84011	-0.21611	2.04788
H	-3.8106	0.21491	0.292603
H	-3.05945	1.3244	1.51368
N	-1.10663	0.0208027	0.184893
C	0.201123	-0.543665	-0.0381087
C	1.11017	0.557126	-0.551388
O	0.654455	1.65514	-0.865088
H	-1.31814	0.837517	-0.344356
H	0.608603	-0.884773	0.905415
C	0.134292	-1.70723	-1.05146
H	-0.27383	-1.35549	-2.02293
H	1.13296	-2.15932	-1.22117
H	-0.542434	-2.49736	-0.658912
N	2.42775	0.288927	-0.641175
C	3.36973	1.27669	-1.1136
H	2.77815	-0.604071	-0.378788
H	4.40333	0.86573	-1.11425
H	3.35207	2.1798	-0.461414
H	3.11815	1.59513	-2.15112
C	525.14	0.435729	-0.304174
C	523.871	0.566412	0.446979
O	523.864	0.881377	1.629
H	525.993	0.645691	0.376795
H	525.163	1.16118	-1.14436
H	525.244	-0.595293	-0.703236
N	522.749	0.320541	-0.234719
C	521.442	0.365204	0.370722
C	520.539	-0.59261	-0.383167
O	520.912	-1.11894	-1.42959
H	522.773	0.0253185	-1.18559
H	521.508	0.00987106	1.39147
C	520.865	1.79724	0.332366
H	520.786	2.15827	-0.715279
H	519.864	1.84747	0.808041
H	521.546	2.48224	0.883113
N	519.323	-0.848424	0.139716
C	518.398	-1.75086	-0.504763
H	519.04	-0.416116	0.989498
H	517.454	-1.82937	0.0788407
H	518.84	-2.76942	-0.594219
H	518.148	-1.39187	-1.52935
