44
  This energy is 0 and Call times are: 211237
C	3.44297	-0.478466	0.172342
C	2.15677	-0.517915	-0.559277
O	2.12194	-0.694747	-1.76921
H	4.27939	-0.611308	-0.547825
H	3.48163	-1.29585	0.922764
H	3.5619	0.499459	0.684798
N	1.05267	-0.348666	0.171948
C	-0.268613	-0.319315	-0.404176
C	-1.14902	0.548164	0.475546
O	-0.748671	0.949419	1.56661
H	1.09937	-0.164902	1.14966
H	-0.223086	0.150916	-1.37857
C	-0.852889	-1.74446	-0.517374
H	-0.909625	-2.2234	0.483342
H	-1.86454	-1.73652	-0.97237
H	-0.188441	-2.36363	-1.15885
N	-2.37446	0.866207	0.0138255
C	-3.27987	1.69134	0.779043
H	-2.67904	0.535446	-0.873249
H	-4.23603	1.8394	0.230342
H	-2.82961	2.69146	0.974745
H	-3.50866	1.2176	1.76107
C	699.269	2.00626	2.81107
C	698.744	1.29967	1.62131
O	697.54	1.17243	1.44099
H	698.419	2.34143	3.4445
H	699.858	2.89482	2.49953
H	699.914	1.32601	3.40605
N	699.651	0.814532	0.770279
C	699.293	0.0665859	-0.409294
C	700.428	-0.889091	-0.725331
O	701.498	-0.816925	-0.123921
H	700.627	0.890368	0.951636
H	698.416	-0.532619	-0.200111
C	699.032	1.01084	-1.60321
H	699.935	1.61828	-1.82493
H	698.742	0.447702	-2.51399
H	698.203	1.70627	-1.34668
N	700.216	-1.81849	-1.67785
C	701.236	-2.77384	-2.04215
H	699.342	-1.86379	-2.15056
H	700.871	-3.45362	-2.84299
H	701.527	-3.39291	-1.16257
H	702.148	-2.25269	-2.41374
