44
  This energy is 0 and Call times are: 210873
C	0.759389	3.24424	1.00545
C	-0.196536	2.13179	0.805926
O	-1.32558	2.17563	1.2747
H	0.280618	4.03319	1.6253
H	1.04725	3.68171	0.0264254
H	1.66828	2.87866	1.5283
N	0.243887	1.09122	0.094859
C	-0.555729	-0.0837972	-0.147029
C	0.379843	-1.26611	-0.315556
O	1.59512	-1.10035	-0.401269
H	1.17905	1.05219	-0.245454
H	-1.1721	-0.281376	0.721122
C	-1.43359	0.0956486	-1.40497
H	-0.801169	0.287902	-2.29778
H	-2.06429	-0.797099	-1.594
H	-2.10438	0.970923	-1.26257
N	-0.168625	-2.49629	-0.358699
C	0.643385	-3.68101	-0.511229
H	-1.1537	-2.61057	-0.283583
H	0.0083017	-4.59409	-0.524025
H	1.36914	-3.77065	0.329314
H	1.22078	-3.64189	-1.46319
C	672.944	1.41127	3.09014
C	673.726	1.36635	1.83442
O	674.464	2.2883	1.51505
H	673.14	2.3735	3.61108
H	673.241	0.574531	3.75656
H	671.858	1.33825	2.86745
N	673.577	0.274125	1.08123
C	674.239	0.104854	-0.188215
C	673.377	-0.793161	-1.05532
O	672.399	-1.37178	-0.585644
H	672.942	-0.449701	1.33435
H	674.308	1.06413	-0.685868
C	675.644	-0.509945	-0.000342497
H	675.573	-1.49887	0.500685
H	676.169	-0.63246	-0.969517
H	676.254	0.159861	0.643653
N	673.718	-0.923896	-2.35258
C	672.953	-1.75288	-3.25501
H	674.51	-0.444505	-2.7152
H	673.392	-1.73003	-4.27698
H	671.9	-1.3969	-3.31783
H	672.94	-2.80959	-2.90239
