44
  This energy is 0.1066 and Call times are: 222822
C	3.43159	0.374227	-0.443622
C	2.1288	-0.228224	-0.80547
O	1.99605	-0.879672	-1.83231
H	4.17572	0.143904	-1.23679
H	3.79215	-0.0437633	0.519718
H	3.33171	1.47651	-0.353752
N	1.12113	-0.0178659	0.0446559
C	-0.215246	-0.503959	-0.192792
C	-1.18911	0.435466	0.49323
O	-0.786774	1.3166	1.25049
H	1.23451	0.548893	0.855703
H	-0.42531	-0.467341	-1.25447
C	-0.382259	-1.9428	0.343007
H	-0.17714	-1.97897	1.43418
H	-1.40308	-2.3335	0.153787
H	0.345456	-2.61112	-0.167017
N	-2.50175	0.272845	0.235267
C	-3.50159	1.1232	0.838092
H	-2.80768	-0.443138	-0.38348
H	-4.5208	0.83139	0.501525
H	-3.33174	2.18823	0.558556
H	-3.46391	1.04762	1.94895
C	998.675	1.37868	2.19235
C	997.359	1.38526	1.5154
O	996.469	2.14694	1.86865
H	998.668	2.12527	3.016
H	999.477	1.64528	1.47227
H	998.881	0.374456	2.61931
N	997.203	0.5193	0.511212
C	995.966	0.379015	-0.214625
C	995.876	-1.04632	-0.72652
O	996.838	-1.8077	-0.640534
H	997.923	-0.122661	0.262008
H	995.135	0.530913	0.463155
C	995.897	1.38099	-1.38793
H	996.744	1.21867	-2.08913
H	994.943	1.29233	-1.94625
H	995.973	2.41683	-0.990777
N	994.708	-1.44454	-1.26723
C	994.528	-2.78439	-1.7758
H	993.94	-0.815305	-1.32431
H	993.5	-2.91735	-2.17888
H	994.688	-3.53561	-0.968713
H	995.255	-2.99554	-2.59294
