44
  This energy is 0 and Call times are: 210593
C	-0.305616	1.36284	3.18778
C	-0.887181	0.890908	1.91099
O	-2.09476	0.745016	1.7811
H	-1.12092	1.51904	3.92722
H	0.228208	2.32401	3.03305
H	0.402704	0.607139	3.58814
N	-0.0246396	0.635605	0.924467
C	-0.436247	0.129336	-0.361158
C	0.70711	-0.684677	-0.937069
O	1.81289	-0.685568	-0.399511
H	0.958627	0.720005	1.05837
H	-1.2755	-0.542031	-0.228681
C	-0.812264	1.28479	-1.31445
H	0.0516331	1.96803	-1.45902
H	-1.14419	0.907272	-2.3033
H	-1.64526	1.87155	-0.86927
N	0.462538	-1.40786	-2.04757
C	1.488	-2.21725	-2.6636
H	-0.439741	-1.3976	-2.46574
H	1.09183	-2.73506	-3.56479
H	1.86013	-2.98886	-1.95127
H	2.35311	-1.58714	-2.97295
C	656.643	-1.7704	0.563068
C	655.498	-1.38308	-0.292004
O	655.473	-1.66663	-1.48169
H	657.4	-2.3012	-0.0545173
H	656.303	-2.44732	1.37463
H	657.112	-0.867081	1.0076
N	654.511	-0.712597	0.306115
C	653.352	-0.231246	-0.403717
C	652.84	1.00525	0.310548
O	653.297	1.33663	1.40263
H	654.565	-0.453455	1.2662
H	653.644	0.070612	-1.40175
C	652.254	-1.31501	-0.46563
H	651.946	-1.61746	0.558037
H	651.361	-0.961279	-1.02176
H	652.653	-2.21325	-0.985174
N	651.877	1.72525	-0.298359
C	651.332	2.92006	0.303064
H	651.522	1.44347	-1.18375
H	650.553	3.36935	-0.351137
H	652.133	3.67786	0.465954
H	650.871	2.68788	1.29005
