44
  This energy is 0.112 and Call times are: 216384
C	-2.7317	-1.09097	-1.86019
C	-1.42754	-0.400807	-1.74188
O	-0.795019	-0.0682278	-2.73472
H	-2.97191	-1.24051	-2.93528
H	-3.5324	-0.478522	-1.39486
H	-2.68702	-2.08176	-1.36077
N	-0.989098	-0.168972	-0.502368
C	0.28138	0.454561	-0.227318
C	0.776595	-0.0525373	1.11401
O	0.0492207	-0.728071	1.83947
H	-1.49584	-0.482197	0.295733
H	1.00078	0.144521	-0.974963
C	0.148343	1.99313	-0.20896
H	-0.58174	2.31232	0.565078
H	1.12273	2.48533	-0.0118778
H	-0.222898	2.34122	-1.19758
N	2.03823	0.257012	1.47245
C	2.59768	-0.18637	2.72809
H	2.61291	0.801195	0.870225
H	3.64574	0.169256	2.83907
H	2.59696	-1.29892	2.78737
H	2.0018	0.205339	3.58403
C	999.246	-1.39476	1.09014
C	998.115	-1.317	0.138679
O	998.141	-1.91884	-0.925998
H	1000.05	-2.03637	0.659091
H	998.909	-1.83772	2.05066
H	999.661	-0.38131	1.27597
N	997.08	-0.558386	0.507724
C	995.926	-0.351009	-0.33058
C	995.337	1.007	0.00250711
O	995.744	1.64967	0.968729
H	997.092	-0.0419095	1.35918
H	996.238	-0.321952	-1.36718
C	994.878	-1.46396	-0.111323
H	994.55	-1.48729	0.949757
H	993.99	-1.32314	-0.761308
H	995.333	-2.44928	-0.353397
N	994.365	1.48123	-0.801137
C	993.75	2.76643	-0.56553
H	994.053	0.948425	-1.58053
H	992.974	2.97762	-1.33398
H	994.511	3.57928	-0.603318
H	993.266	2.79263	0.437774
