44
  This energy is 0 and Call times are: 204293
C	-3.38269	0.738452	0.353244
C	-2.17103	-0.0286616	0.720062
O	-2.15278	-0.748359	1.70906
H	-4.17862	0.550023	1.10615
H	-3.74967	0.419919	-0.645057
H	-3.15624	1.8254	0.334066
N	-1.11341	0.11306	-0.0822732
C	0.149554	-0.535416	0.168635
C	1.24897	0.323935	-0.426639
O	0.978228	1.28694	-1.1415
H	-1.13043	0.734272	-0.860523
H	0.320424	-0.583509	1.23687
C	0.17497	-1.9511	-0.448158
H	0.0102218	-1.90145	-1.54562
H	1.13723	-2.46613	-0.249858
H	-0.642685	-2.55971	-0.00388649
N	2.52388	-0.00217215	-0.136317
C	3.63581	0.761138	-0.653175
H	2.7229	-0.782474	0.447287
H	4.60178	0.335992	-0.301903
H	3.57571	1.82097	-0.314918
H	3.63367	0.753663	-1.76721
C	201.002	2.16583	0.374363
C	202.397	1.87977	-0.0287623
O	203.049	2.69054	-0.67234
H	200.705	3.16465	-0.013086
H	200.916	2.16988	1.48136
H	200.317	1.3993	-0.0461436
N	202.892	0.69809	0.345943
C	204.219	0.260006	-0.00850198
C	204.214	-1.25548	-0.0782456
O	203.241	-1.90037	0.306389
H	202.336	0.031873	0.834214
H	204.465	0.627588	-0.99708
C	205.257	0.751033	1.02484
H	205.012	0.365539	2.03737
H	206.285	0.431842	0.755605
H	205.238	1.86205	1.0648
N	205.307	-1.86186	-0.5824
C	205.391	-3.29958	-0.692834
H	206.083	-1.32287	-0.892279
H	206.366	-3.60438	-1.13117
H	204.576	-3.69139	-1.34427
H	205.291	-3.77714	0.308788
