44
  This energy is 0 and Call times are: 203929
C	-2.81331	-1.7002	1.14336
C	-1.59235	-1.61256	0.311071
O	-1.14024	-2.59809	-0.255258
H	-3.17637	-2.7509	1.15334
H	-3.60924	-1.04892	0.724963
H	-2.5896	-1.38739	2.18509
N	-1.02156	-0.409134	0.219681
C	0.19479	-0.175799	-0.518291
C	0.919345	0.993428	0.121617
O	0.377252	1.66889	0.994314
H	-1.37807	0.374996	0.719587
H	0.838476	-1.04202	-0.429115
C	-0.109209	0.122489	-2.00283
H	-0.760932	1.01732	-2.09537
H	0.820217	0.290286	-2.58467
H	-0.646459	-0.743001	-2.44852
N	2.17395	1.25522	-0.294881
C	2.94302	2.34433	0.260593
H	2.59716	0.694918	-0.999171
H	3.94905	2.39601	-0.211054
H	3.07712	2.21057	1.3585
H	2.42608	3.31667	0.0918721
C	181.049	0.0705108	0.94373
C	179.803	-0.65744	0.614192
O	179.804	-1.86869	0.443066
H	181.896	-0.64838	0.977772
H	180.955	0.561795	1.93492
H	181.26	0.838117	0.169536
N	178.694	0.0792208	0.514295
C	177.414	-0.480587	0.157814
C	176.604	0.597095	-0.5373
O	176.998	1.76142	-0.566077
H	178.717	1.06968	0.616022
H	177.561	-1.28328	-0.554022
C	176.67	-0.995841	1.40897
H	176.509	-0.17045	2.13496
H	175.689	-1.44186	1.14601
H	177.285	-1.77765	1.90596
N	175.448	0.229193	-1.12478
C	174.613	1.18481	-1.81447
H	175.148	-0.718478	-1.09439
H	173.708	0.688806	-2.22972
H	175.17	1.65844	-2.65514
H	174.284	1.99175	-1.12061
