44
  This energy is -4.6114 and Call times are: 221809
C	-0.353055	-1.55671	-3.09268
C	0.302689	-0.582808	-2.19121
O	1.34035	-0.0209322	-2.51364
H	0.252672	-1.66587	-4.01846
H	-1.36821	-1.20064	-3.36733
H	-0.430725	-2.54648	-2.59527
N	-0.298314	-0.360229	-1.02004
C	0.24258	0.527435	-0.0210179
C	-0.214847	0.0411632	1.34128
O	-1.05402	-0.85177	1.44212
H	-1.12046	-0.855799	-0.754787
H	1.32371	0.468322	-0.038319
C	-0.224323	1.97966	-0.262421
H	-1.33305	2.04271	-0.234285
H	0.196712	2.67517	0.49225
H	0.114561	2.31175	-1.26802
N	0.336844	0.6161	2.42807
C	-0.0326247	0.214492	3.76537
H	1.01729	1.33422	2.32626
H	0.530362	0.803522	4.52255
H	0.188475	-0.865546	3.92633
H	-1.12197	0.373123	3.93657
C	994.033	-1.74326	-2.85289
C	993.923	-1.44678	-1.40683
O	992.994	-1.88239	-0.740413
H	993.167	-2.3658	-3.16727
H	994.971	-2.30131	-3.05869
H	994.029	-0.799728	-3.43839
N	994.884	-0.683471	-0.882471
C	994.89	-0.274551	0.500029
C	995.614	1.05498	0.597038
O	996.216	1.51623	-0.370648
H	995.612	-0.302577	-1.44629
H	993.871	-0.111576	0.828534
C	995.582	-1.33385	1.38583
H	996.63	-1.49374	1.05584
H	995.58	-1.03698	2.45465
H	995.04	-2.30033	1.29308
N	995.565	1.70951	1.77397
C	996.22	2.98369	1.95834
H	995.069	1.32221	2.5443
H	996.063	3.36012	2.99326
H	995.816	3.7393	1.24587
H	997.316	2.8919	1.78036
