44
  This energy is -0.3645 and Call times are: 222137
C	2.64679	1.4311	1.74903
C	1.27771	0.871926	1.68519
O	0.648595	0.620331	2.70368
H	2.9495	1.54076	2.81309
H	2.67581	2.4287	1.26251
H	3.36206	0.750973	1.2402
N	0.779609	0.659837	0.464828
C	-0.521753	0.080579	0.242393
C	-0.49288	-0.651324	-1.08615
O	0.468483	-0.541781	-1.84477
H	1.31941	0.831326	-0.354362
H	-0.721585	-0.654957	1.0116
C	-1.61678	1.16967	0.236928
H	-1.41795	1.91874	-0.558933
H	-2.62513	0.734664	0.0803493
H	-1.61438	1.69743	1.21561
N	-1.55046	-1.42699	-1.39583
C	-1.60891	-2.16552	-2.63572
H	-2.31711	-1.50624	-0.767311
H	-2.55705	-2.74294	-2.7052
H	-0.75725	-2.8802	-2.70773
H	-1.55432	-1.47442	-3.50782
C	992.131	2.96521	-1.20255
C	993.288	2.09317	-0.897922
O	994.409	2.36237	-1.30733
H	992.468	3.81571	-1.83392
H	991.696	3.36569	-0.262933
H	991.356	2.39337	-1.75461
N	993.036	1.00872	-0.16118
C	994.05	0.0434627	0.180425
C	993.38	-1.30587	0.356578
O	992.154	-1.40313	0.369046
H	992.111	0.78134	0.130225
H	994.748	-0.0480375	-0.642836
C	994.789	0.453781	1.47311
H	994.076	0.537526	2.32038
H	995.583	-0.27441	1.73913
H	995.266	1.44735	1.32395
N	994.174	-2.38638	0.489253
C	993.625	-3.71198	0.656169
H	995.164	-2.28815	0.472544
H	994.438	-4.46551	0.747642
H	992.99	-3.98665	-0.216511
H	992.994	-3.76365	1.57288
