44
  This energy is 0 and Call times are: 214457
C	-2.11241	-2.76563	-0.0414238
C	-1.60483	-1.50456	-0.627279
O	-1.91129	-1.16533	-1.76192
H	-2.7488	-3.28773	-0.788619
H	-2.72153	-2.55019	0.861516
H	-1.26479	-3.42797	0.234133
N	-0.801386	-0.771613	0.147083
C	-0.195266	0.457974	-0.299341
C	1.11257	0.639141	0.447853
O	1.40985	-0.0989432	1.38517
H	-0.528211	-1.08112	1.05342
H	0.0434679	0.376795	-1.35245
C	-1.13347	1.65868	-0.047708
H	-1.37023	1.74874	1.0339
H	-0.683761	2.60962	-0.399862
H	-2.08699	1.5009	-0.59748
N	1.93314	1.62783	0.0414163
C	3.20103	1.87194	0.688747
H	1.67707	2.21208	-0.721577
H	3.72895	2.72601	0.210126
H	3.85586	0.973071	0.621519
H	3.05243	2.11096	1.76667
C	928.452	1.2714	2.98992
C	929.504	0.590294	2.2013
O	930.616	0.390221	2.66903
H	928.861	1.54761	3.98604
H	927.583	0.595596	3.13314
H	928.121	2.19438	2.46908
N	929.169	0.215129	0.964636
C	930.097	-0.419446	0.0625213
C	929.689	-0.0728968	-1.35701
O	928.625	0.498825	-1.5846
H	928.272	0.421512	0.583447
H	931.087	-0.0104589	0.222655
C	930.104	-1.95048	0.265339
H	929.091	-2.37191	0.0908651
H	930.826	-2.44934	-0.414028
H	930.398	-2.18051	1.31286
N	930.537	-0.406159	-2.35021
C	930.236	-0.111494	-3.73174
H	931.395	-0.864707	-2.1459
H	931.055	-0.463284	-4.39657
H	930.11	0.985391	-3.88098
H	929.291	-0.613011	-4.0437
