44
  This energy is 0 and Call times are: 203845
C	-2.17365	1.54847	2.23388
C	-1.47656	1.47911	0.929879
O	-1.78643	2.21901	0.00633523
H	-2.96781	2.32486	2.18497
H	-1.45642	1.81815	3.03737
H	-2.64201	0.569698	2.46997
N	-0.50409	0.570511	0.824409
C	0.234973	0.355652	-0.394682
C	0.693064	-1.09037	-0.421465
O	0.562963	-1.81062	0.566478
H	-0.290942	-0.0524232	1.57166
H	-0.423478	0.501171	-1.24197
C	1.44681	1.30923	-0.480513
H	2.12802	1.15301	0.382961
H	2.01609	1.1631	-1.42131
H	1.08863	2.36146	-0.451212
N	1.23618	-1.55315	-1.56466
C	1.69564	-2.91716	-1.68526
H	1.32931	-0.956357	-2.35475
H	2.10925	-3.10449	-2.70067
H	0.857905	-3.63067	-1.51096
H	2.49266	-3.13107	-0.936837
C	172.004	-3.4031	-0.662851
C	171.261	-2.2415	-0.12448
O	170.088	-2.33935	0.208119
H	171.326	-4.28278	-0.710408
H	172.863	-3.64689	-0.00329009
H	172.375	-3.17959	-1.68537
N	171.94	-1.09593	-0.0277841
C	171.34	0.130075	0.437066
C	172.071	1.28998	-0.212342
O	173.102	1.10353	-0.856348
H	172.882	-1.02174	-0.340835
H	170.31	0.172022	0.105863
C	171.419	0.23384	1.97599
H	172.476	0.201459	2.31554
H	170.948	1.16716	2.34734
H	170.884	-0.629077	2.42983
N	171.546	2.52205	-0.0638511
C	172.169	3.6853	-0.650835
H	170.709	2.65238	0.457384
H	171.587	4.60369	-0.416709
H	172.23	3.58162	-1.75847
H	173.204	3.81653	-0.259282
