44
  This energy is 0 and Call times are: 212413
C	0.155811	1.32431	-3.21475
C	-0.533973	1.1216	-1.92082
O	-1.53348	1.76363	-1.62894
H	-0.368872	2.11757	-3.79036
H	0.144648	0.384447	-3.80575
H	1.20642	1.64024	-3.04297
N	-0.00425263	0.209459	-1.10243
C	-0.538242	-0.0681381	0.207669
C	0.598775	-0.548161	1.0899
O	1.70349	-0.799617	0.612305
H	0.833249	-0.275835	-1.33684
H	-0.917316	0.849176	0.640646
C	-1.6537	-1.13379	0.134325
H	-1.2627	-2.07849	-0.300059
H	-2.08251	-1.34619	1.13509
H	-2.47132	-0.764621	-0.522609
N	0.35457	-0.678904	2.40872
C	1.37726	-1.12419	3.32633
H	-0.544516	-0.466714	2.77708
H	0.982084	-1.16656	4.36521
H	2.24833	-0.429733	3.31076
H	1.74042	-2.1398	3.04742
C	781.941	-0.195618	2.99659
C	782.111	-0.51832	1.56203
O	781.411	-1.35918	1.01483
H	781.136	-0.832668	3.42319
H	781.657	0.870995	3.11784
H	782.885	-0.391989	3.54779
N	783.064	0.153644	0.911777
C	783.377	-0.0811825	-0.475891
C	784.84	0.254849	-0.69443
O	785.498	0.804332	0.186647
H	783.653	0.80564	1.38067
H	783.251	-1.1337	-0.697262
C	782.481	0.776626	-1.39612
H	782.618	1.857	-1.17659
H	782.703	0.5945	-2.46767
H	781.415	0.519682	-1.21349
N	785.388	-0.0777891	-1.87995
C	786.774	0.19768	-2.17595
H	784.84	-0.525589	-2.57891
H	787.035	-0.150893	-3.19963
H	787.441	-0.320035	-1.44918
H	786.98	1.29096	-2.11481
