44
  This energy is 0 and Call times are: 214149
C	3.02102	1.13006	1.30732
C	1.61817	0.684667	1.46473
O	1.15365	0.43406	2.56828
H	3.51	1.16324	2.30515
H	3.05223	2.14484	0.857899
H	3.57701	0.421222	0.658073
N	0.901784	0.572595	0.343743
C	-0.463532	0.109619	0.33256
C	-0.726181	-0.556383	-1.00498
O	0.0966947	-0.4862	-1.91584
H	1.3059	0.740751	-0.55084
H	-0.591281	-0.644573	1.09905
C	-1.44508	1.28084	0.556281
H	-1.32171	2.04989	-0.23579
H	-2.49909	0.935097	0.563613
H	-1.22935	1.75823	1.53705
N	-1.88417	-1.22992	-1.15142
C	-2.21789	-1.89996	-2.38668
H	-2.53564	-1.27897	-0.401592
H	-3.21017	-2.39652	-2.30908
H	-1.45613	-2.67535	-2.63115
H	-2.25415	-1.1735	-3.23053
C	910.906	-0.492515	1.26071
C	909.488	-0.891246	1.11347
O	909.098	-1.9901	1.48316
H	911.478	-1.33073	1.71465
H	910.987	0.396719	1.92061
H	911.343	-0.256261	0.267247
N	908.674	0.0086305	0.558031
C	907.277	-0.250603	0.30972
C	906.847	0.581056	-0.883837
O	907.593	1.43482	-1.3587
H	909.014	0.883136	0.224772
H	907.15	-1.29165	0.040377
C	906.423	0.0970299	1.54839
H	906.545	1.16751	1.81878
H	905.347	-0.111299	1.37454
H	906.76	-0.517439	2.41137
N	905.627	0.343109	-1.40434
C	905.134	1.08144	-2.54371
H	905.039	-0.354644	-1.00886
H	904.112	0.739986	-2.82169
H	905.803	0.938753	-3.42334
H	905.09	2.17125	-2.31672
