44
  This energy is -1.8165 and Call times are: 221586
C	-1.68605	-0.661307	-2.97197
C	-1.2628	-1.03335	-1.60318
O	-1.75113	-1.9972	-1.02963
H	-2.47466	-1.36502	-3.31659
H	-0.823283	-0.719387	-3.6684
H	-2.09716	0.370214	-2.97832
N	-0.330123	-0.261734	-1.04007
C	0.151302	-0.472323	0.302477
C	0.596042	0.86631	0.860887
O	0.666052	1.85837	0.137949
H	0.028196	0.543544	-1.50376
H	-0.662934	-0.82605	0.922581
C	1.32094	-1.48077	0.317313
H	2.16071	-1.11338	-0.310261
H	1.6914	-1.66193	1.3471
H	0.974923	-2.45033	-0.102876
N	0.900779	0.926688	2.17219
C	1.32809	2.15885	2.79297
H	0.834073	0.114221	2.74186
H	1.53117	2.00399	3.87555
H	0.542493	2.94242	2.69234
H	2.25848	2.53906	2.31237
C	992.409	-2.35442	-2.15299
C	992.965	-1.95723	-0.839968
O	992.871	-2.6895	0.135331
H	991.922	-3.34939	-2.05975
H	993.221	-2.42074	-2.90805
H	991.653	-1.61391	-2.48785
N	993.567	-0.766337	-0.785778
C	994.118	-0.224613	0.431173
C	994.059	1.28885	0.344567
O	993.751	1.84798	-0.70619
H	993.6	-0.163915	-1.57814
H	993.499	-0.524208	1.26802
C	995.573	-0.69883	0.636318
H	996.211	-0.382611	-0.216916
H	996.005	-0.299577	1.57716
H	995.594	-1.80931	0.688833
N	994.347	1.9906	1.45837
C	994.311	3.43446	1.47242
H	994.59	1.52024	2.3002
H	994.578	3.82463	2.47932
H	993.294	3.80487	1.21137
H	995.031	3.85257	0.732126
