44
  This energy is 0 and Call times are: 205189
C	-1.90917	2.69405	-1.09994
C	-1.46472	1.75651	-0.0441842
O	-1.74147	1.94993	1.13158
H	-2.47219	3.53176	-0.633978
H	-2.57295	2.17194	-1.82073
H	-1.03084	3.10742	-1.63916
N	-0.75126	0.702862	-0.448144
C	-0.212855	-0.272738	0.46667
C	1.04315	-0.857835	-0.151117
O	1.34783	-0.607188	-1.31562
H	-0.499215	0.580852	-1.40389
H	0.0793685	0.221538	1.38478
C	-1.24354	-1.38611	0.755362
H	-1.53574	-1.9005	-0.184882
H	-0.845815	-2.13614	1.46935
H	-2.15724	-0.934185	1.19951
N	1.81029	-1.65009	0.623387
C	3.0267	-2.24701	0.123164
H	1.54941	-1.83797	1.56451
H	3.51499	-2.86302	0.910138
H	3.74533	-1.46028	-0.202252
H	2.81207	-2.90192	-0.752153
C	266.805	0.771328	3.27353
C	267.817	0.483213	2.23282
O	269.009	0.664583	2.44154
H	267.312	1.16484	4.18088
H	266.257	-0.156476	3.54198
H	266.084	1.53237	2.90627
N	267.356	0.0219365	1.0679
C	268.215	-0.262964	-0.0542516
C	267.412	-0.0676653	-1.32642
O	266.197	0.116481	-1.28224
H	266.38	-0.0816951	0.899075
H	269.028	0.452575	-0.0727251
C	268.764	-1.70432	0.023437
H	267.931	-2.43926	0.0317819
H	269.438	-1.9313	-0.827839
H	269.342	-1.82674	0.965777
N	268.079	-0.095239	-2.49721
C	267.399	0.0866766	-3.75859
H	269.062	-0.241408	-2.51242
H	268.119	0.0310824	-4.60478
H	266.894	1.07903	-3.79295
H	266.624	-0.700462	-3.90472
