44
  This energy is -2.9977 and Call times are: 224271
C	-0.0302514	-3.23759	-1.27662
C	0.595817	-1.90593	-1.11585
O	1.74824	-1.70118	-1.47141
H	0.706942	-3.93825	-1.72551
H	-0.913015	-3.16712	-1.94632
H	-0.346761	-3.63345	-0.288586
N	-0.163163	-0.956006	-0.564508
C	0.32061	0.376961	-0.304275
C	-0.441975	0.933443	0.883306
O	-1.41284	0.336227	1.34425
H	-1.08573	-1.14883	-0.242695
H	1.36529	0.329312	-0.0231912
C	0.133288	1.28306	-1.54086
H	-0.93954	1.34072	-1.82326
H	0.51466	2.30851	-1.35773
H	0.693262	0.852468	-2.39956
N	-0.0114719	2.09478	1.41432
C	-0.671092	2.69754	2.54912
H	0.778421	2.56115	1.03008
H	-0.168586	3.64707	2.8374
H	-0.651051	2.01025	3.42576
H	-1.73593	2.9224	2.31101
C	993.298	-1.425	-3.02923
C	993.545	-1.50505	-1.57195
O	993.187	-2.47697	-0.92151
H	992.756	-2.33703	-3.36036
H	994.261	-1.36078	-3.57779
H	992.679	-0.533483	-3.26396
N	994.173	-0.464817	-1.01846
C	994.445	-0.378847	0.394695
C	994.482	1.08778	0.781044
O	994.459	1.96631	-0.0788321
H	994.422	0.337155	-1.55374
H	993.632	-0.837087	0.943715
C	995.786	-1.06319	0.74083
H	996.622	-0.586575	0.185847
H	996	-1.01584	1.82819
H	995.74	-2.13326	0.442277
N	994.531	1.3875	2.09397
C	994.562	2.75548	2.55635
H	994.544	0.662872	2.77501
H	994.601	2.7943	3.66731
H	993.655	3.3057	2.2178
H	995.457	3.28521	2.15549
