44
  This energy is -3.4514 and Call times are: 220731
C	-1.82905	-1.39743	2.61044
C	-1.5891	-1.15731	1.16965
O	-2.20192	-1.78007	0.313475
H	-2.59288	-2.19666	2.72738
H	-2.20114	-0.470903	3.09607
H	-0.889933	-1.72264	3.10581
N	-0.673873	-0.233892	0.866273
C	-0.300759	0.0795027	-0.490609
C	1.13663	0.564735	-0.485836
O	1.72124	0.791593	0.571747
H	-0.153998	0.235503	1.57427
H	-0.334525	-0.823106	-1.08793
C	-1.23409	1.15718	-1.08453
H	-1.19181	2.08699	-0.478137
H	-0.965657	1.39719	-2.13375
H	-2.28134	0.783776	-1.0707
N	1.74546	0.727877	-1.67694
C	3.11382	1.18061	-1.77071
H	1.25731	0.535255	-2.52174
H	3.43275	1.25107	-2.83397
H	3.79782	0.475088	-1.24566
H	3.22842	2.18512	-1.30276
C	995.205	-2.97238	-1.68792
C	995.272	-1.4983	-1.57064
O	995.97	-0.83443	-2.32438
H	995.873	-3.30606	-2.51134
H	994.166	-3.29127	-1.91638
H	995.537	-3.44712	-0.740691
N	994.535	-0.945817	-0.603699
C	994.531	0.47138	-0.338964
C	994.224	0.676618	1.13253
O	993.87	-0.265128	1.83941
H	994.004	-1.50284	0.0280818
H	995.52	0.87219	-0.521132
C	993.484	1.19289	-1.21608
H	992.467	0.789298	-1.0219
H	993.48	2.2867	-1.03148
H	993.724	1.02249	-2.2884
N	994.361	1.92049	1.63238
C	994.097	2.21006	3.02248
H	994.653	2.66882	1.04565
H	994.267	3.28777	3.23895
H	994.765	1.6104	3.68257
H	993.042	1.96229	3.28181
