44
  This energy is 0.1292 and Call times are: 216064
C	-3.36074	-0.840519	0.334123
C	-1.92103	-1.1809	0.384425
O	-1.53642	-2.23479	0.872065
H	-3.94822	-1.65855	0.804841
H	-3.68949	-0.722488	-0.719791
H	-3.5505	0.102935	0.888177
N	-1.07972	-0.278577	-0.125853
C	0.351806	-0.448997	-0.110037
C	0.991503	0.926227	-0.0768753
O	0.313519	1.94009	-0.232201
H	-1.40488	0.592719	-0.4822
H	0.640564	-0.961086	0.799367
C	0.827241	-1.23758	-1.34993
H	0.540479	-0.707331	-2.28301
H	1.92634	-1.38741	-1.34232
H	0.34051	-2.23727	-1.35789
N	2.32046	0.992686	0.13639
C	3.01513	2.2579	0.189692
H	2.85145	0.161509	0.26394
H	4.10101	2.10286	0.374197
H	2.60813	2.89529	1.00783
H	2.89786	2.81142	-0.769998
C	994.218	2.87656	0.543442
C	994.804	1.85241	-0.349988
O	994.474	1.77346	-1.52516
H	993.477	3.4791	-0.0253297
H	995.012	3.55145	0.925499
H	993.704	2.38922	1.39886
N	995.702	1.03017	0.198523
C	996.327	-0.0434421	-0.533014
C	996.683	-1.14201	0.450986
O	996.582	-0.959084	1.66263
H	995.93	1.08058	1.16661
H	995.616	-0.458171	-1.23626
C	997.59	0.453251	-1.26983
H	998.325	0.869199	-0.547711
H	998.073	-0.361114	-1.84806
H	997.307	1.26199	-1.97859
N	997.102	-2.31994	-0.0516329
C	997.457	-3.42502	0.807916
H	997.173	-2.45026	-1.03501
H	997.776	-4.30441	0.206251
H	996.589	-3.72759	1.43758
H	998.294	-3.14186	1.48663
