44
  This energy is 0.1007 and Call times are: 220351
C	-2.91945	-1.56481	1.06811
C	-2.19072	-0.395987	0.525937
O	-2.79023	0.569696	0.073772
H	-4.01339	-1.39547	0.965585
H	-2.67629	-1.70266	2.14264
H	-2.6436	-2.48205	0.506274
N	-0.85762	-0.460629	0.558166
C	-0.0123171	0.58011	0.02818
C	1.28979	-0.0529864	-0.424886
O	1.54434	-1.22677	-0.161933
H	-0.384029	-1.27075	0.891762
H	-0.482722	1.01158	-0.846567
C	0.255621	1.66803	1.09114
H	0.747768	1.22776	1.98444
H	0.894079	2.4821	0.690897
H	-0.711433	2.1119	1.41384
N	2.14602	0.713439	-1.1288
C	3.40681	0.19532	-1.60642
H	1.92059	1.65982	-1.33523
H	3.96795	0.977813	-2.16324
H	3.24272	-0.670386	-2.28826
H	4.03749	-0.150123	-0.755502
C	999.662	2.02332	-0.33264
C	999.006	0.69671	-0.316925
O	999.596	-0.306127	-0.694325
H	1000.69	1.91872	-0.738174
H	999.722	2.43317	0.697529
H	999.092	2.72498	-0.977106
N	997.747	0.662812	0.126036
C	996.963	-0.546904	0.159931
C	995.501	-0.167966	0.0128804
O	995.149	1.00901	0.0563842
H	997.266	1.49376	0.39129
H	997.223	-1.16495	-0.690355
C	997.193	-1.3163	1.47919
H	996.916	-0.686404	2.35139
H	996.606	-2.2568	1.51151
H	998.27	-1.57633	1.5695
N	994.613	-1.16385	-0.174395
C	993.202	-0.898583	-0.32987
H	994.918	-2.10968	-0.210849
H	992.637	-1.84604	-0.473446
H	993.02	-0.244882	-1.21356
H	992.797	-0.382113	0.570607
