44
  This energy is 0 and Call times are: 209305
C	-1.48491	-3.11705	-0.437836
C	-0.312023	-2.21495	-0.478872
O	0.819391	-2.65426	-0.631565
H	-1.14286	-4.16935	-0.545351
H	-2.18049	-2.8785	-1.26971
H	-2.01685	-3.00931	0.530937
N	-0.561167	-0.910867	-0.338604
C	0.480991	0.0850664	-0.31446
C	-0.00124187	1.25405	0.523684
O	-1.16763	1.31479	0.907817
H	-1.48318	-0.572178	-0.17412
H	1.35525	-0.324538	0.175974
C	0.831098	0.552	-1.74437
H	-0.0629738	0.981948	-2.24419
H	1.64203	1.30889	-1.74013
H	1.17385	-0.320851	-2.34187
N	0.894373	2.21153	0.835342
C	0.527968	3.35845	1.63316
H	1.83465	2.14276	0.518771
H	1.40189	4.03068	1.78008
H	0.159511	3.03864	2.63477
H	-0.282349	3.93989	1.13672
C	563.747	0.78996	-2.70176
C	562.933	-0.167515	-1.91968
O	562.648	-1.26971	-2.36743
H	563.997	0.340005	-3.68695
H	564.689	1.02111	-2.16212
H	563.177	1.72845	-2.86968
N	562.532	0.240967	-0.713467
C	561.698	-0.562289	0.145953
C	560.881	0.371075	1.01935
O	561.112	1.57869	1.03813
H	562.737	1.15651	-0.379573
H	561.002	-1.12917	-0.459683
C	562.554	-1.50843	1.01676
H	563.261	-0.926819	1.64603
H	561.923	-2.14216	1.67303
H	563.149	-2.17667	0.356856
N	559.895	-0.170226	1.76152
C	559.062	0.640642	2.61859
H	559.722	-1.14894	1.72986
H	558.31	0.0122668	3.14498
H	558.52	1.41161	2.02429
H	559.679	1.16518	3.38403
