44
  This energy is 0 and Call times are: 203033
C	-1.49873	-1.15282	2.9219
C	-0.853252	-1.38312	1.60985
O	-0.498951	-2.50248	1.26649
H	-1.56437	-2.11605	3.47304
H	-2.52346	-0.750078	2.77884
H	-0.900281	-0.435419	3.52213
N	-0.681808	-0.30874	0.836096
C	-0.0304438	-0.367664	-0.448743
C	0.616599	0.978796	-0.713196
O	0.39697	1.93857	0.023223
H	-0.938313	0.602144	1.14652
H	0.761839	-1.10504	-0.414113
C	-1.04148	-0.711065	-1.5646
H	-1.84877	0.0508195	-1.60749
H	-0.549591	-0.77301	-2.55694
H	-1.50837	-1.69631	-1.34631
N	1.44186	1.0784	-1.77388
C	2.10673	2.31834	-2.1005
H	1.61035	0.289638	-2.35572
H	2.74162	2.19753	-3.00578
H	2.75666	2.64924	-1.25825
H	1.36233	3.1231	-2.2989
C	114.783	-3.19143	-0.868284
C	114.859	-1.71667	-0.970951
O	115.795	-1.16863	-1.53656
H	115.679	-3.63952	-1.35022
H	113.874	-3.56482	-1.38361
H	114.757	-3.49992	0.198111
N	113.858	-1.03097	-0.414041
C	113.814	0.40996	-0.395572
C	113.032	0.843551	0.830483
O	112.426	0.0210365	1.51435
H	113.124	-1.48976	0.0785083
H	114.82	0.796849	-0.290537
C	113.154	0.958202	-1.67986
H	112.118	0.569937	-1.78262
H	113.127	2.06714	-1.68391
H	113.738	0.622017	-2.56454
N	113.036	2.15442	1.14292
C	112.325	2.65897	2.29461
H	113.536	2.80418	0.579772
H	112.45	3.76083	2.38195
H	112.707	2.18794	3.22926
H	111.237	2.43416	2.21443
