44
  This energy is 0 and Call times are: 210313
C	-0.87701	3.36674	-0.0928734
C	0.101761	2.28095	0.139971
O	1.2916	2.52259	0.289294
H	-0.344314	4.34216	-0.118446
H	-1.62682	3.3881	0.725701
H	-1.39411	3.21413	-1.06365
N	-0.386697	1.03893	0.174167
C	0.447664	-0.123767	0.348931
C	-0.225587	-1.2967	-0.338463
O	-1.3718	-1.19901	-0.772481
H	-1.3516	0.854746	0.0101395
H	1.39636	0.0395336	-0.146987
C	0.665077	-0.426553	1.84769
H	-0.307176	-0.60456	2.35472
H	1.31737	-1.31154	1.99548
H	1.15152	0.448174	2.33203
N	0.479799	-2.43836	-0.461256
C	-0.0766412	-3.6051	-1.10568
H	1.40739	-2.49685	-0.107379
H	0.657289	-4.4409	-1.1076
H	-0.351244	-3.3774	-2.16116
H	-0.995369	-3.94617	-0.575827
C	635.772	0.802243	-2.67914
C	635.154	-0.177241	-1.75674
O	635.23	-1.37987	-1.96745
H	636.25	0.260438	-3.52395
H	636.546	1.39356	-2.14707
H	634.997	1.48734	-3.08397
N	634.517	0.325606	-0.696809
C	633.831	-0.499707	0.26576
C	632.696	0.311889	0.860707
O	632.591	1.51453	0.62726
H	634.429	1.30825	-0.560713
H	633.389	-1.34837	-0.241618
C	634.796	-0.973634	1.37406
H	635.242	-0.103429	1.90187
H	634.283	-1.62139	2.11391
H	635.623	-1.55846	0.915055
N	631.808	-0.334026	1.64216
C	630.692	0.35486	2.24718
H	631.906	-1.30823	1.81613
H	630.077	-0.347667	2.85202
H	630.039	0.807801	1.4658
H	631.049	1.17207	2.9146
