44
  This energy is 0 and Call times are: 204265
C	0.674218	3.32891	0.759263
C	1.10991	1.94369	0.47208
O	2.28511	1.6817	0.256024
H	1.55463	4.00654	0.719564
H	0.222304	3.3858	1.77182
H	-0.0689708	3.6607	0.0038323
N	0.154468	1.01128	0.461195
C	0.417561	-0.372834	0.15528
C	-0.837497	-0.969567	-0.453236
O	-1.89422	-0.341072	-0.460197
H	-0.803496	1.2465	0.598466
H	1.19806	-0.431166	-0.593089
C	0.826005	-1.15059	1.42552
H	0.0212342	-1.0999	2.18959
H	1.04469	-2.21461	1.20067
H	1.74175	-0.691756	1.85822
N	-0.747115	-2.20264	-0.98932
C	-1.88778	-2.84875	-1.59564
H	0.117589	-2.69379	-0.977843
H	-1.61172	-3.85593	-1.97851
H	-2.27488	-2.24398	-2.4475
H	-2.7113	-2.96858	-0.854974
C	202.588	-2.2613	2.49224
C	201.589	-1.63061	1.60044
O	200.463	-2.09532	1.48178
H	202.142	-3.16407	2.96322
H	202.89	-1.55155	3.29075
H	203.483	-2.56512	1.90968
N	201.986	-0.540056	0.941018
C	201.141	0.158266	0.00495468
C	202.029	0.825375	-1.02817
O	203.25	0.856087	-0.883565
H	202.919	-0.197516	1.01666
H	200.52	-0.557798	-0.518151
C	200.268	1.20778	0.726877
H	200.905	1.94876	1.25499
H	199.602	1.74268	0.0186844
H	199.632	0.698324	1.48353
N	201.433	1.37123	-2.10646
C	202.198	2.02254	-3.14424
H	200.445	1.33279	-2.20783
H	201.528	2.40602	-3.94486
H	202.922	1.31114	-3.60397
H	202.774	2.8805	-2.72821
