44
  This energy is -0.7867 and Call times are: 220043
C	0.710553	2.18078	-2.61763
C	0.409321	1.90753	-1.19435
O	0.530855	2.77773	-0.343235
H	1.05321	3.23288	-2.7251
H	-0.199604	2.03427	-3.23641
H	1.51384	1.50287	-2.97577
N	0.00476405	0.669658	-0.90043
C	-0.283934	0.241424	0.445612
C	-0.0143333	-1.24878	0.535934
O	0.222454	-1.90832	-0.474339
H	-0.0499876	-0.0390838	-1.59797
H	0.394832	0.734124	1.13056
C	-1.75008	0.550128	0.820268
H	-2.447	0.0363818	0.124276
H	-1.98093	0.237634	1.8593
H	-1.92679	1.64493	0.739503
N	-0.0360103	-1.81515	1.75855
C	0.214392	-3.22567	1.94273
H	-0.225422	-1.26429	2.56462
H	0.152483	-3.49879	3.01921
H	1.2289	-3.49641	1.57026
H	-0.532551	-3.83385	1.38297
C	990.806	-1.92189	-1.89827
C	991.722	-1.74292	-0.749924
O	991.776	-2.56801	0.151593
H	990.226	-2.86111	-1.76296
H	991.385	-1.98966	-2.84322
H	990.097	-1.06869	-1.95922
N	992.474	-0.639923	-0.757313
C	993.382	-0.306644	0.311954
C	993.511	1.2039	0.369968
O	993.028	1.91128	-0.512255
H	992.39	0.0426502	-1.47757
H	992.959	-0.630828	1.25432
C	994.764	-0.959102	0.0862433
H	995.204	-0.61868	-0.875424
H	995.468	-0.721286	0.910003
H	994.645	-2.06361	0.0391729
N	994.162	1.73614	1.42279
C	994.328	3.16374	1.56555
H	994.542	1.1477	2.1287
H	994.89	3.40311	2.49538
H	993.338	3.67188	1.61361
H	994.89	3.58257	0.699103
