44
  This energy is 0 and Call times are: 213085
C	-2.78642	-1.88583	0.890049
C	-1.45242	-1.74748	0.263606
O	-0.810666	-2.72973	-0.0824379
H	-3.03829	-2.9646	0.983316
H	-3.55692	-1.38979	0.263136
H	-2.78322	-1.42876	1.90206
N	-0.998063	-0.502315	0.103874
C	0.300117	-0.209931	-0.450924
C	0.778962	1.10554	0.133702
O	0.0259509	1.80691	0.806589
H	-1.51426	0.285342	0.427913
H	1.0014	-0.974785	-0.141363
C	0.23544	-0.126091	-1.99171
H	-0.475985	0.665588	-2.30976
H	1.23162	0.0848844	-2.43175
H	-0.124865	-1.09669	-2.39727
N	2.05481	1.46812	-0.104565
C	2.60023	2.70022	0.415671
H	2.65007	0.885395	-0.647866
H	3.66354	2.81894	0.111555
H	2.55053	2.71274	1.52862
H	2.02648	3.57586	0.0346085
C	833.962	2.63074	0.275701
C	833.612	1.2494	-0.125183
O	834.364	0.582973	-0.822564
H	834.944	2.90388	-0.166663
H	834.033	2.70186	1.38141
H	833.192	3.34218	-0.091336
N	832.44	0.782943	0.313053
C	831.944	-0.526465	-0.0295258
C	830.428	-0.477358	-0.00975631
O	829.835	0.509238	0.422908
H	831.82	1.35187	0.845836
H	832.245	-0.76966	-1.04069
C	832.464	-1.59053	0.961598
H	832.146	-1.34715	1.99773
H	832.1	-2.60522	0.700364
H	833.576	-1.60337	0.936212
N	829.761	-1.54592	-0.489278
C	828.318	-1.58694	-0.515683
H	830.258	-2.33319	-0.838908
H	827.959	-2.54803	-0.94599
H	827.912	-0.753416	-1.13389
H	827.903	-1.48696	0.513377
