44
  This energy is 0 and Call times are: 206421
C	-2.90306	-1.01774	1.62761
C	-1.73756	-1.28242	0.754286
O	-1.43611	-2.42255	0.429242
H	-3.37912	-1.98265	1.90726
H	-3.64761	-0.391358	1.0928
H	-2.57769	-0.496229	2.55241
N	-1.04393	-0.215459	0.350743
C	0.139403	-0.316776	-0.466577
C	1.03001	0.872201	-0.158835
O	0.62512	1.79764	0.542125
H	-1.27735	0.703004	0.657028
H	0.687368	-1.20971	-0.19266
C	-0.226954	-0.344994	-1.96665
H	-0.779934	0.575696	-2.25052
H	0.674893	-0.436792	-2.606
H	-0.885264	-1.21833	-2.1673
N	2.27566	0.870047	-0.673003
C	3.19594	1.95625	-0.429181
H	2.58659	0.110335	-1.23446
H	4.16813	1.76932	-0.936259
H	3.38657	2.072	0.662394
H	2.7802	2.9168	-0.810797
C	357.78	2.78131	-0.226177
C	356.783	1.95429	0.490399
O	356.515	2.16238	1.66575
H	358.199	3.53819	0.47185
H	357.3	3.30579	-1.07902
H	358.607	2.14306	-0.603014
N	356.204	0.979457	-0.214386
C	355.247	0.0654929	0.357198
C	355.334	-1.24575	-0.400871
O	356.004	-1.33642	-1.42751
H	356.462	0.796312	-1.15864
H	355.517	-0.138042	1.38581
C	353.817	0.643285	0.277437
H	353.535	0.842412	-0.778458
H	353.072	-0.0451821	0.726891
H	353.778	1.60624	0.832046
N	354.659	-2.30124	0.0961667
C	354.687	-3.59061	-0.554146
H	354.125	-2.20941	0.930306
H	354.072	-4.32769	0.00704038
H	355.73	-3.97791	-0.613293
H	354.287	-3.51661	-1.59125
