44
  This energy is 0 and Call times are: 209501
C	0.577633	-2.10953	2.7072
C	-0.210398	-1.06656	2.01268
O	-1.31473	-0.732091	2.41886
H	-0.00349656	-2.49266	3.57402
H	1.53461	-1.6841	3.07591
H	0.789971	-2.9524	2.01613
N	0.349364	-0.522639	0.929533
C	-0.31334	0.473051	0.124559
C	0.201861	0.351395	-1.29717
O	1.15643	-0.377262	-1.56093
H	1.23129	-0.834361	0.587615
H	-1.37573	0.264647	0.101608
C	-0.0515448	1.89179	0.67582
H	1.03759	2.11004	0.689702
H	-0.567938	2.6664	0.0726308
H	-0.429336	1.95542	1.71965
N	-0.428479	1.06135	-2.25356
C	-0.0120372	1.00439	-3.63541
H	-1.20159	1.64224	-2.02132
H	-0.654243	1.65708	-4.2669
H	-0.0817456	-0.0374375	-4.02402
H	1.04408	1.34263	-3.7419
C	575.417	3.22546	-1.27627
C	575.525	2.27618	-0.145702
O	575.736	2.66973	0.99327
H	575.572	4.26095	-0.902604
H	574.409	3.15689	-1.73792
H	576.19	3.00002	-2.041
N	575.384	0.98204	-0.441718
C	575.507	-0.0625002	0.544382
C	575.995	-1.31759	-0.154366
O	576.058	-1.37129	-1.38108
H	575.254	0.674219	-1.37989
H	576.262	0.217292	1.26902
C	574.155	-0.322957	1.24357
H	573.383	-0.620266	0.501897
H	574.24	-1.11568	2.01489
H	573.813	0.610793	1.74129
N	576.362	-2.36018	0.616757
C	576.844	-3.59377	0.0406276
H	576.307	-2.2963	1.60773
H	577.094	-4.32844	0.837358
H	577.759	-3.41161	-0.568302
H	576.072	-4.04575	-0.623217
