44
  This energy is 0 and Call times are: 210341
C	0.518633	-1.35363	-3.16408
C	0.327262	-1.49201	-1.70279
O	0.123253	-2.58455	-1.19176
H	0.426032	-2.35267	-3.64286
H	1.52732	-0.943368	-3.3808
H	-0.253893	-0.678528	-3.58896
N	0.387816	-0.366594	-0.987141
C	0.178704	-0.335878	0.439004
C	-0.378768	1.02649	0.806064
O	-0.423763	1.93289	-0.0234742
H	0.513836	0.520362	-1.42222
H	-0.568304	-1.07281	0.706471
C	1.49818	-0.602866	1.19594
H	2.26154	0.159069	0.9299
H	1.34762	-0.595554	2.29494
H	1.89201	-1.60145	0.905995
N	-0.827097	1.20013	2.06498
C	-1.37957	2.46054	2.50352
H	-0.786144	0.453606	2.7208
H	-1.69211	2.40332	3.56948
H	-2.26965	2.73344	1.8915
H	-0.627433	3.27606	2.40174
C	633.481	2.63108	0.517867
C	634.164	1.65605	-0.362172
O	633.806	1.4892	-1.51988
H	632.649	3.11089	-0.0415556
H	634.195	3.41667	0.844535
H	633.065	2.11609	1.40933
N	635.179	0.97773	0.178415
C	635.912	-0.035007	-0.539773
C	636.441	-1.03937	0.466751
O	636.359	-0.823257	1.67439
H	635.432	1.09507	1.13436
H	635.236	-0.564784	-1.19948
C	637.074	0.589891	-1.34285
H	637.773	1.12459	-0.665262
H	637.637	-0.17813	-1.91127
H	636.664	1.32722	-2.06739
N	636.991	-2.17281	-0.0110675
C	637.516	-3.18858	0.87142
H	637.044	-2.33159	-0.991395
H	637.925	-4.04289	0.288341
H	636.717	-3.57472	1.5451
H	638.333	-2.7741	1.5062
