44
  This energy is 0.0135 and Call times are: 201661
C	-3.02386	-0.504863	-1.64744
C	-2.10495	-0.73593	-0.510185
O	-2.48864	-1.28859	0.511457
H	-4.03479	-0.886509	-1.38619
H	-2.65935	-1.0407	-2.54897
H	-3.09548	0.581306	-1.86698
N	-0.849844	-0.307974	-0.664949
C	0.147624	-0.423149	0.36963
C	1.14465	0.706621	0.193249
O	1.11491	1.42258	-0.805868
H	-0.563094	0.176754	-1.48634
H	-0.322877	-0.290233	1.33586
C	0.86109	-1.79104	0.29827
H	1.35285	-1.92345	-0.688988
H	1.62196	-1.89741	1.09845
H	0.111402	-2.60287	0.42176
N	2.05173	0.898438	1.17122
C	3.0363	1.95232	1.0929
H	2.0574	0.311404	1.97399
H	3.69045	1.94703	1.99251
H	2.54123	2.94813	1.02543
H	3.67835	1.8242	0.191512
C	19.0476	-0.945103	0.114881
C	17.9616	0.0348631	0.34164
O	18.1548	1.05567	0.987427
H	19.9715	-0.593762	0.623662
H	19.2518	-1.04543	-0.971854
H	18.7628	-1.9348	0.530205
N	16.7743	-0.260871	-0.19249
C	15.6113	0.573718	-0.0211632
C	14.3802	-0.309767	-0.0945952
O	14.4698	-1.48786	-0.434833
H	16.6219	-1.11538	-0.680811
H	15.6319	1.01676	0.966719
C	15.5554	1.67156	-1.10599
H	15.5236	1.2174	-2.11929
H	14.6716	2.32941	-0.97663
H	16.4696	2.30087	-1.03871
N	13.1948	0.241007	0.233479
C	11.9703	-0.524104	0.198455
H	13.1429	1.19483	0.510272
H	11.1046	0.105023	0.502005
H	12.031	-1.39448	0.891306
H	11.7787	-0.912622	-0.827958
