44
  This energy is 0 and Call times are: 207933
C	0.602749	-2.43274	2.41478
C	0.219924	-1.05981	2.01522
O	-0.254313	-0.274174	2.8241
H	0.370044	-2.58018	3.49181
H	1.69091	-2.58764	2.25774
H	0.0338184	-3.17736	1.819
N	0.419068	-0.736971	0.735183
C	0.0565556	0.546712	0.188099
C	-0.258522	0.36143	-1.2843
O	-0.0266667	-0.706119	-1.84848
H	0.767864	-1.40056	0.0795499
H	-0.847519	0.897869	0.669731
C	1.20028	1.568	0.372747
H	2.12506	1.21315	-0.130149
H	0.927993	2.56424	-0.0320914
H	1.41926	1.68174	1.45693
N	-0.806185	1.40215	-1.94232
C	-1.14488	1.31658	-3.3438
H	-0.990183	2.25652	-1.4677
H	-1.58379	2.274	-3.70148
H	-1.88628	0.503788	-3.51979
H	-0.239414	1.09604	-3.95424
C	464.736	-3.15389	1.04511
C	464.991	-1.84543	0.401479
O	466.127	-1.48652	0.1248
H	465.704	-3.67198	1.21948
H	464.103	-3.78673	0.388277
H	464.226	-3.00772	2.02052
N	463.919	-1.09064	0.147209
C	464.011	0.224585	-0.436122
C	462.826	1.03996	0.0465593
O	461.909	0.509703	0.670662
H	463.004	-1.37879	0.415504
H	464.908	0.713457	-0.0754546
C	464.021	0.144588	-1.97844
H	463.097	-0.347412	-2.34948
H	464.106	1.15005	-2.43934
H	464.892	-0.46312	-2.3088
N	462.823	2.35967	-0.226151
C	461.74	3.2163	0.198041
H	463.576	2.77128	-0.728773
H	461.921	4.26637	-0.120931
H	461.638	3.19971	1.30732
H	460.775	2.8773	-0.242946
