44
  This energy is 0.4283 and Call times are: 225554
C	-0.800508	-2.57174	2.20409
C	-0.0144904	-1.37514	1.82796
O	0.698917	-0.804914	2.64178
H	-0.631136	-2.79948	3.27896
H	-0.48198	-3.44518	1.59715
H	-1.88312	-2.38474	2.04264
N	-0.132207	-0.960921	0.564262
C	0.536862	0.213151	0.0618069
C	-0.298974	0.787376	-1.06655
O	-1.26191	0.168267	-1.51507
H	-0.748506	-1.41123	-0.0754779
H	0.580966	0.96122	0.843522
C	1.95679	-0.132398	-0.437839
H	1.91143	-0.892057	-1.2471
H	2.48746	0.765967	-0.814474
H	2.54791	-0.558241	0.40215
N	0.0477361	1.99719	-1.54839
C	-0.692369	2.62531	-2.61792
H	0.827595	2.48459	-1.16979
H	-0.252505	3.61477	-2.87229
H	-1.75529	2.77992	-2.32202
H	-0.677628	1.98926	-3.53246
C	993.584	1.6693	2.95164
C	992.691	0.817511	2.13366
O	991.742	0.231109	2.63474
H	993.246	1.64385	4.01066
H	993.55	2.7181	2.58884
H	994.627	1.29305	2.89755
N	992.983	0.727967	0.834069
C	992.233	-0.0962074	-0.08016
C	993.163	-0.531679	-1.19697
O	994.289	-0.049426	-1.30297
H	993.784	1.17844	0.448635
H	991.904	-0.991164	0.43325
C	991.023	0.675096	-0.652411
H	991.361	1.58778	-1.18828
H	990.429	0.0466274	-1.3472
H	990.361	0.990783	0.1829
N	992.712	-1.46687	-2.0565
C	993.529	-1.94676	-3.14705
H	991.8	-1.84824	-1.95203
H	992.982	-2.71272	-3.7401
H	994.468	-2.40618	-2.76202
H	993.808	-1.10965	-3.82724
