44
  This energy is 0 and Call times are: 210173
C	-1.1886	-2.63254	-1.94156
C	-0.85346	-1.20379	-1.7479
O	-0.832204	-0.42513	-2.69111
H	-1.37678	-2.82267	-3.02059
H	-2.10182	-2.89281	-1.36619
H	-0.345446	-3.27233	-1.60563
N	-0.577383	-0.823071	-0.498419
C	-0.192375	0.524369	-0.159697
C	0.690789	0.468327	1.07255
O	0.830506	-0.5797	1.70011
H	-0.558802	-1.47699	0.252525
H	0.402282	0.938906	-0.964169
C	-1.43461	1.40333	0.103961
H	-2.03944	0.984265	0.93619
H	-1.15175	2.44681	0.352255
H	-2.07023	1.42347	-0.808146
N	1.31801	1.60163	1.44437
C	2.18283	1.64252	2.60048
H	1.19579	2.43874	0.921507
H	2.60426	2.66233	2.74047
H	3.02862	0.926764	2.48382
H	1.62084	1.36566	3.52171
C	626.729	1.61115	0.584547
C	625.925	0.388109	0.365285
O	626.459	-0.691931	0.155041
H	627.809	1.35964	0.504613
H	626.53	2.0239	1.59588
H	626.48	2.37528	-0.181835
N	624.598	0.534607	0.408148
C	623.684	-0.554881	0.171266
C	622.401	0.0197926	-0.397796
O	622.214	1.23469	-0.429701
H	624.178	1.42768	0.539626
H	624.102	-1.21524	-0.578324
C	623.399	-1.32927	1.47667
H	622.96	-0.654567	2.2425
H	622.707	-2.17922	1.30477
H	624.353	-1.73401	1.8794
N	621.484	-0.84671	-0.871081
C	620.235	-0.391682	-1.43619
H	621.654	-1.82602	-0.840372
H	619.616	-1.2542	-1.76919
H	620.418	0.267862	-2.31512
H	619.652	0.188713	-0.684952
