44
  This energy is -3.3048 and Call times are: 222979
C	2.88037	0.168324	-1.94624
C	1.63494	0.760064	-1.40782
O	1.39262	1.95201	-1.53808
H	3.4886	0.965889	-2.42564
H	2.63949	-0.605224	-2.70541
H	3.47177	-0.290552	-1.12601
N	0.805121	-0.0749252	-0.778078
C	-0.424247	0.361309	-0.164146
C	-0.732049	-0.570828	0.992544
O	-0.0784477	-1.59788	1.16481
H	1.03541	-1.03458	-0.644284
H	-0.285214	1.3527	0.248708
C	-1.58264	0.357589	-1.18559
H	-1.73258	-0.661467	-1.60162
H	-2.53183	0.704825	-0.728418
H	-1.33229	1.04014	-2.02689
N	-1.73673	-0.22709	1.8223
C	-2.09805	-1.04968	2.95321
H	-2.25145	0.609942	1.66897
H	-2.94667	-0.598095	3.51281
H	-1.23639	-1.15843	3.65105
H	-2.40124	-2.06786	2.61775
C	994.674	-2.82885	1.91195
C	994.282	-2.1774	0.642068
O	994.22	-2.81158	-0.402187
H	994.896	-3.90145	1.72134
H	993.848	-2.75816	2.64988
H	995.583	-2.3426	2.32667
N	994.005	-0.87291	0.705153
C	993.65	-0.0929498	-0.454355
C	994.088	1.33929	-0.213064
O	994.493	1.69652	0.891724
H	994.099	-0.361665	1.55465
H	994.2	-0.458357	-1.31255
C	992.13	-0.156845	-0.718319
H	991.565	0.227749	0.157733
H	991.846	0.42858	-1.61679
H	991.83	-1.21472	-0.884209
N	994.025	2.1958	-1.25155
C	994.427	3.57685	-1.11767
H	993.699	1.88711	-2.13892
H	994.302	4.11786	-2.08149
H	995.496	3.64745	-0.812151
H	993.812	4.09155	-0.344206
