44
  This energy is -0.9097 and Call times are: 224457
C	0.433234	1.22732	-3.2278
C	0.701337	1.26453	-1.77251
O	1.58765	1.96945	-1.30997
H	1.15176	1.89518	-3.75083
H	-0.599655	1.57753	-3.43573
H	0.557458	0.193443	-3.61349
N	-0.0712559	0.490501	-1.00676
C	0.0976785	0.387821	0.42134
C	-0.375503	-0.986491	0.85599
O	-0.959204	-1.72954	0.0692949
H	-0.761527	-0.108779	-1.40206
H	1.1511	0.45743	0.662365
C	-0.699064	1.49091	1.15185
H	-1.78124	1.41343	0.91323
H	-0.566025	1.43104	2.2515
H	-0.341614	2.48763	0.812537
N	-0.125235	-1.36123	2.12602
C	-0.533203	-2.6529	2.62735
H	0.35197	-0.747789	2.74653
H	-0.236726	-2.7728	3.69269
H	-0.0593302	-3.47071	2.03751
H	-1.63863	-2.7712	2.55537
C	990.302	-1.93694	-1.04031
C	991.661	-1.38391	-1.23502
O	992.393	-1.79981	-2.12301
H	990.122	-2.7403	-1.78731
H	989.541	-1.14022	-1.17884
H	990.206	-2.3662	-0.0207081
N	992.036	-0.41848	-0.392244
C	993.343	0.187051	-0.42964
C	993.688	0.65559	0.971555
O	992.844	0.640854	1.8658
H	991.444	-0.119043	0.351239
H	994.075	-0.56056	-0.708864
C	993.375	1.3719	-1.41979
H	992.631	2.144	-1.12776
H	994.38	1.83791	-1.46794
H	993.112	1.00732	-2.4368
N	994.948	1.07726	1.19779
C	995.369	1.53613	2.50102
H	995.617	1.07797	0.462554
H	996.439	1.8398	2.48437
H	995.245	0.730063	3.26012
H	994.76	2.41159	2.82484
