44
  This energy is -3.192 and Call times are: 223359
C	-0.727357	-3.26709	0.953826
C	-1.0658	-1.82862	0.867686
O	-2.18891	-1.42538	1.13682
H	-1.62883	-3.83852	1.26476
H	0.0758041	-3.42704	1.70355
H	-0.388795	-3.64048	-0.0356419
N	-0.0843531	-1.01016	0.481361
C	-0.273089	0.408787	0.309498
C	0.704499	0.891622	-0.74537
O	1.58654	0.149613	-1.17333
H	0.813178	-1.35833	0.226255
H	-1.27139	0.593324	-0.0672939
C	-0.0488948	1.1603	1.63999
H	0.978648	0.979803	2.02158
H	-0.204896	2.25241	1.52387
H	-0.76953	0.785335	2.39922
N	0.563795	2.15328	-1.19754
C	1.44415	2.69784	-2.20481
H	-0.158557	2.73719	-0.842115
H	1.16666	3.74823	-2.44337
H	1.38661	2.0986	-3.14229
H	2.50068	2.68567	-1.8516
C	995.874	-2.27582	-1.13883
C	994.495	-1.73867	-1.10422
O	993.65	-2.11121	-1.90671
H	995.965	-2.99957	-1.97771
H	996.105	-2.79816	-0.18676
H	996.602	-1.45177	-1.29436
N	994.234	-0.833543	-0.158096
C	992.951	-0.189399	-0.0260083
C	993.171	1.18144	0.585617
O	994.272	1.50485	1.02741
H	994.944	-0.510091	0.461887
H	992.524	-0.0390454	-1.00964
C	992.001	-1.02922	0.854781
H	992.434	-1.17484	1.86737
H	991.005	-0.550548	0.952761
H	991.861	-2.03064	0.392305
N	992.123	2.02722	0.617607
C	992.239	3.3544	1.17554
H	991.241	1.74893	0.251522
H	991.269	3.89506	1.10929
H	993.007	3.94528	0.626871
H	992.54	3.30541	2.24681
