44
  This energy is 0 and Call times are: 201689
C	0.665701	-0.972579	-3.27469
C	-0.272176	-0.622807	-2.18419
O	-1.4603	-0.435325	-2.40695
H	0.11284	-1.00398	-4.23866
H	1.11678	-1.9695	-3.08648
H	1.4703	-0.210638	-3.34655
N	0.25145	-0.523621	-0.960122
C	-0.526887	-0.148899	0.194146
C	0.395215	0.53832	1.1836
O	1.61214	0.54804	1.00838
H	1.22781	-0.638928	-0.801103
H	-1.27871	0.572482	-0.100819
C	-1.1877	-1.38669	0.839463
H	-0.416222	-2.12242	1.15181
H	-1.8011	-1.10953	1.72119
H	-1.85164	-1.87819	0.0951676
N	-0.168384	1.14037	2.24939
C	0.629166	1.82403	3.24071
H	-1.15522	1.12532	2.37184
H	-0.0172222	2.2535	4.03755
H	1.20879	2.65352	2.77461
H	1.35216	1.1221	3.7158
C	17.6189	0.185634	-3.47444
C	17.3923	-0.536528	-2.20231
O	16.7664	-1.58712	-2.17365
H	17.1297	-0.369498	-4.30408
H	18.7067	0.259701	-3.68395
H	17.1832	1.20548	-3.41837
N	17.904	0.02261	-1.10323
C	17.7293	-0.539778	0.212733
C	17.77	0.593414	1.2206
O	18.0921	1.72952	0.878188
H	18.3759	0.898993	-1.13689
H	16.7493	-0.995537	0.279224
C	18.8311	-1.5775	0.519921
H	19.8362	-1.10795	0.462177
H	18.6996	-2.02792	1.52508
H	18.7877	-2.39314	-0.234521
N	17.4336	0.309745	2.49432
C	17.438	1.32529	3.52137
H	17.1718	-0.614645	2.75132
H	17.1321	0.895551	4.50066
H	16.7319	2.14763	3.26362
H	18.4549	1.76608	3.63396
