44
  This energy is 0 and Call times are: 205469
C	-3.10571	-1.46108	-0.576592
C	-2.1217	-0.797584	0.308074
O	-2.44096	-0.389361	1.41615
H	-4.0959	-1.48507	-0.0717754
H	-2.78634	-2.5026	-0.791045
H	-3.20204	-0.900422	-1.53025
N	-0.882294	-0.671741	-0.171931
C	0.173031	-0.0105239	0.554458
C	1.14551	0.574595	-0.452259
O	1.0514	0.305947	-1.64837
H	-0.647779	-0.972349	-1.09199
H	-0.243889	0.815072	1.11766
C	0.897034	-0.997619	1.49611
H	1.33399	-1.83931	0.9176
H	1.70287	-0.497345	2.07133
H	0.164859	-1.41936	2.21888
N	2.10388	1.40075	0.0114278
C	3.07031	2.00903	-0.872994
H	2.16143	1.6094	0.982111
H	3.77402	2.65437	-0.302424
H	2.56081	2.63767	-1.63883
H	3.66208	1.22911	-1.40466
C	288.686	-3.29707	-0.519054
C	288.351	-2.16171	0.369443
O	288.196	-2.32327	1.57214
H	288.741	-4.23037	0.0824342
H	289.669	-3.12464	-1.00558
H	287.904	-3.41732	-1.29833
N	288.226	-0.967682	-0.214666
C	287.861	0.222767	0.511889
C	287.14	1.15676	-0.442186
O	287.101	0.917784	-1.6476
H	288.314	-0.859225	-1.20071
H	287.162	-0.0382019	1.29693
C	289.109	0.91202	1.10507
H	289.821	1.18943	0.29911
H	288.839	1.82245	1.67864
H	289.625	0.20768	1.79378
N	286.543	2.24571	0.0806437
C	285.829	3.18813	-0.749281
H	286.582	2.41995	1.05899
H	285.409	4.01429	-0.134308
H	284.99	2.68546	-1.28158
H	286.508	3.63033	-1.51446
