44
  This energy is 0 and Call times are: 212945
C	-0.24677	-3.27101	-1.16289
C	-0.196227	-2.27811	-0.0661911
O	-0.462899	-2.59287	1.08543
H	-0.565448	-4.25431	-0.753705
H	0.756636	-3.3822	-1.62501
H	-0.976183	-2.95016	-1.93626
N	0.151144	-1.03485	-0.406795
C	0.202663	0.0492758	0.542193
C	-0.0788238	1.34181	-0.200559
O	-0.13751	1.36259	-1.4285
H	0.325521	-0.784731	-1.3549
H	-0.584202	-0.0796475	1.2749
C	1.58201	0.111726	1.2341
H	2.38866	0.25455	0.483798
H	1.62966	0.933899	1.97726
H	1.77027	-0.847205	1.76453
N	-0.268993	2.45598	0.533252
C	-0.547782	3.73063	-0.086203
H	-0.221685	2.41845	1.52594
H	-0.672993	4.52321	0.684095
H	-1.48267	3.67784	-0.689916
H	0.284562	4.02862	-0.764103
C	823.934	1.99039	1.7777
C	823.4	0.669428	1.37653
O	824.001	-0.362892	1.63953
H	824.907	1.85082	2.29722
H	823.227	2.49532	2.46877
H	824.093	2.62695	0.881846
N	822.239	0.674029	0.71718
C	821.616	-0.529175	0.224501
C	820.794	-0.169492	-0.999114
O	820.612	1.00545	-1.31194
H	821.782	1.52497	0.474599
H	822.383	-1.22366	-0.0947412
C	820.722	-1.17069	1.30784
H	819.928	-0.462385	1.62813
H	820.247	-2.10551	0.945216
H	821.342	-1.41831	2.19669
N	820.284	-1.18085	-1.72881
C	819.494	-0.934997	-2.91267
H	820.446	-2.12513	-1.46209
H	819.166	-1.8932	-3.37261
H	820.084	-0.367642	-3.66813
H	818.587	-0.337294	-2.66317
