44
  This energy is 0 and Call times are: 214177
C	1.45005	0.548583	3.11594
C	1.33377	0.82336	1.66607
O	1.90116	1.77928	1.15548
H	2.083	1.33089	3.58843
H	1.92136	-0.443075	3.28093
H	0.446025	0.563912	3.59007
N	0.580242	-0.0230108	0.960223
C	0.337903	0.13856	-0.45177
C	-1.01274	-0.473164	-0.772894
O	-1.62109	-1.133	0.0674854
H	0.0915588	-0.772802	1.39711
H	0.277637	1.19423	-0.685376
C	1.45	-0.537486	-1.2833
H	1.50522	-1.62256	-1.05176
H	1.28211	-0.408144	-2.37216
H	2.43016	-0.0797058	-1.02624
N	-1.5194	-0.259342	-2.00318
C	-2.80062	-0.797447	-2.39703
H	-1.01418	0.280657	-2.66818
H	-3.04186	-0.511866	-3.44463
H	-3.60892	-0.412568	-1.73386
H	-2.79784	-1.90939	-2.3283
C	907.349	1.48786	-2.09033
C	908.593	1.53052	-1.29059
O	909.371	2.47055	-1.37969
H	907.294	2.39267	-2.73394
H	906.464	1.46999	-1.4201
H	907.34	0.585518	-2.73746
N	908.813	0.493382	-0.479199
C	910.001	0.372303	0.328931
C	910.283	-1.10374	0.537686
O	909.466	-1.95566	0.192228
H	908.191	-0.283749	-0.44804
H	910.843	0.788395	-0.20952
C	909.82	1.08626	1.68639
H	908.962	0.65269	2.24377
H	910.733	1.01202	2.31229
H	909.607	2.1631	1.50915
N	911.458	-1.44209	1.10448
C	911.815	-2.82205	1.33756
H	912.107	-0.738698	1.37355
H	912.819	-2.89386	1.81115
H	911.838	-3.38903	0.378776
H	911.074	-3.31165	2.01011
