44
  This energy is 0 and Call times are: 204433
C	1.45636	-3.13379	0.413563
C	0.334667	-2.18435	0.59102
O	-0.761649	-2.56498	0.977821
H	1.11162	-4.16055	0.664182
H	2.29716	-2.86282	1.08615
H	1.80675	-3.11953	-0.640058
N	0.588823	-0.905354	0.304732
C	-0.413665	0.127476	0.387434
C	-0.0603178	1.21086	-0.614054
O	1.01842	1.19576	-1.2038
H	1.47447	-0.61737	-0.0482131
H	-1.37284	-0.281477	0.0952542
C	-0.486529	0.712548	1.81489
H	0.494363	1.14166	2.11111
H	-1.26444	1.49929	1.89495
H	-0.738466	-0.0991831	2.5318
N	-0.971823	2.1782	-0.836395
C	-0.72563	3.24727	-1.7759
H	-1.84072	2.17116	-0.352619
H	-1.59355	3.94167	-1.81775
H	-0.553263	2.83969	-2.79837
H	0.176333	3.83049	-1.48016
C	216.37	1.08261	1.95225
C	215.085	1.31794	1.25547
O	214.443	2.34246	1.44077
H	216.587	1.94226	2.62294
H	217.194	0.985973	1.21403
H	216.31	0.156826	2.56253
N	214.675	0.355728	0.425788
C	213.426	0.422048	-0.289981
C	212.943	-0.995815	-0.530865
O	213.667	-1.9583	-0.283041
H	215.189	-0.490641	0.316581
H	212.685	0.914225	0.328481
C	213.596	1.17091	-1.62987
H	214.348	0.660412	-2.26905
H	212.638	1.24076	-2.18407
H	213.958	2.20321	-1.42988
N	211.696	-1.1578	-1.01536
C	211.149	-2.46987	-1.27092
H	211.124	-0.366947	-1.20582
H	210.112	-2.39342	-1.66611
H	211.123	-3.07399	-0.335141
H	211.769	-3.01593	-2.01772
