44
  This energy is 0 and Call times are: 210229
C	-0.416387	1.9413	-2.85843
C	-0.396601	1.77472	-1.38772
O	-0.426435	2.74285	-0.640566
H	-0.441783	3.02502	-3.10501
H	-1.31748	1.4541	-3.28668
H	0.494797	1.49202	-3.30674
N	-0.342579	0.520569	-0.933213
C	-0.274146	0.201157	0.471014
C	0.459963	-1.11801	0.620779
O	0.735316	-1.80085	-0.36392
H	-0.277483	-0.255381	-1.55412
H	0.311493	0.955913	0.980917
C	-1.68819	0.106654	1.08485
H	-2.28592	-0.674809	0.56902
H	-1.64853	-0.125174	2.16891
H	-2.20969	1.0803	0.956771
N	0.803248	-1.50478	1.8652
C	1.50862	-2.74225	2.10457
H	0.575365	-0.9368	2.64913
H	1.69995	-2.88198	3.19135
H	2.4878	-2.74536	1.57309
H	0.914356	-3.61057	1.73849
C	624.32	-0.566957	-0.606487
C	625.468	0.337435	-0.372654
O	625.369	1.54424	-0.546482
H	623.449	0.0285083	-0.955987
H	624.045	-1.08766	0.334811
H	624.577	-1.31823	-1.38293
N	626.604	-0.237151	0.0316873
C	627.818	0.506682	0.258672
C	628.993	-0.417328	0.00280325
O	628.821	-1.62148	-0.175892
H	626.68	-1.22529	0.129301
H	627.881	1.31519	-0.458941
C	627.866	1.05752	1.70072
H	627.812	0.22768	2.43726
H	628.789	1.64393	1.8837
H	626.992	1.72456	1.86808
N	630.224	0.130814	-0.0291434
C	631.402	-0.669336	-0.271422
H	630.343	1.10779	0.11363
H	632.316	-0.036484	-0.259487
H	631.337	-1.17322	-1.26299
H	631.51	-1.45655	0.509479
