44
  This energy is 0 and Call times are: 211545
C	-1.16933	1.59183	-2.86556
C	-1.37507	0.743652	-1.66998
O	-2.49929	0.442202	-1.29359
H	-2.15733	1.87831	-3.28707
H	-0.59769	1.03398	-3.63677
H	-0.615244	2.51384	-2.58991
N	-0.273743	0.335547	-1.03524
C	-0.314522	-0.458927	0.167141
C	0.93117	-0.154396	0.977737
O	1.84036	0.524445	0.504179
H	0.633143	0.62298	-1.32987
H	-1.16809	-0.161147	0.763285
C	-0.387322	-1.96463	-0.16872
H	0.493486	-2.27289	-0.771374
H	-0.433198	-2.58633	0.748834
H	-1.3022	-2.16299	-0.768726
N	0.99766	-0.646277	2.2306
C	2.14165	-0.403485	3.07826
H	0.250176	-1.18996	2.59767
H	2.0071	-0.890189	4.06934
H	2.28501	0.68932	3.24105
H	3.0692	-0.807663	2.61196
C	723.424	-1.84174	2.39793
C	722.456	-1.73669	1.28258
O	722.017	-2.73546	0.729662
H	723.651	-2.91332	2.58683
H	722.994	-1.39763	3.32038
H	724.366	-1.31444	2.13821
N	722.099	-0.502115	0.920681
C	721.2	-0.238673	-0.175034
C	721.548	1.11874	-0.756445
O	722.35	1.85944	-0.19073
H	722.497	0.302059	1.35321
H	721.361	-0.973869	-0.953681
C	719.73	-0.264233	0.298993
H	719.563	0.49704	1.0904
H	719.028	-0.07644	-0.538385
H	719.501	-1.264	0.727857
N	720.954	1.47432	-1.91287
C	721.228	2.74457	-2.54355
H	720.311	0.859765	-2.3578
H	720.644	2.85049	-3.48424
H	722.311	2.83512	-2.79108
H	720.957	3.58631	-1.86583
