44
  This energy is -1.9583 and Call times are: 224682
C	0.613624	-1.21994	-3.20123
C	0.0470916	-1.35742	-1.84062
O	-0.715644	-2.27231	-1.562
H	0.218608	-2.03367	-3.84751
H	1.72071	-1.29574	-3.16428
H	0.324744	-0.241138	-3.63894
N	0.412767	-0.433143	-0.949342
C	-0.0890647	-0.409782	0.40202
C	-0.0816012	1.02851	0.884531
O	0.45832	1.9123	0.221875
H	1.00206	0.328875	-1.20218
H	-1.11833	-0.746258	0.406726
C	0.774511	-1.29558	1.3266
H	1.82839	-0.944347	1.33032
H	0.390085	-1.29691	2.36715
H	0.760985	-2.3417	0.950033
N	-0.692748	1.29861	2.05482
C	-0.740993	2.63902	2.59068
H	-1.12765	0.570833	2.5747
H	-1.28682	2.65574	3.5597
H	-1.26039	3.32609	1.88397
H	0.287653	3.03164	2.76062
C	993.313	-2.90754	1.3172
C	993.593	-1.45516	1.37469
O	993.039	-0.73571	2.19465
H	992.555	-3.16628	2.08847
H	994.24	-3.48433	1.51679
H	992.916	-3.18134	0.317072
N	994.473	-0.984869	0.487521
C	994.815	0.412399	0.392598
C	995.216	0.704801	-1.04104
O	995.369	-0.207641	-1.85088
H	994.884	-1.57586	-0.200377
H	993.939	1.01042	0.610923
C	995.967	0.765247	1.35958
H	996.869	0.159517	1.12927
H	996.23	1.84144	1.30591
H	995.654	0.535807	2.40168
N	995.389	1.99456	-1.39139
C	995.765	2.36912	-2.73464
H	995.257	2.71916	-0.723115
H	995.857	3.47405	-2.82363
H	995.002	2.02082	-3.46785
H	996.743	1.91228	-3.01078
