44
  This energy is 0 and Call times are: 207065
C	-3.42431	-0.53538	0.316473
C	-2.06849	-0.394425	0.89356
O	-1.90231	-0.288232	2.10084
H	-4.17651	-0.506525	1.13455
H	-3.51331	-1.50361	-0.219572
H	-3.62846	0.297569	-0.388944
N	-1.05257	-0.388045	0.0273912
C	0.319663	-0.21555	0.434543
C	1.07445	0.434279	-0.709825
O	0.54976	0.570607	-1.81338
H	-1.20667	-0.434242	-0.955455
H	0.359859	0.465552	1.27544
C	0.959884	-1.5714	0.804725
H	0.928387	-2.26693	-0.0608881
H	2.01248	-1.45028	1.1332
H	0.386727	-2.03242	1.63857
N	2.32987	0.860609	-0.468628
C	3.12282	1.49576	-1.49528
H	2.73581	0.74518	0.431905
H	4.12529	1.77428	-1.10196
H	2.62146	2.42018	-1.86319
H	3.26411	0.81109	-2.3627
C	399.205	-2.42166	0.157811
C	400.555	-1.96526	-0.243752
O	401.392	-2.75417	-0.659689
H	399.137	-3.52379	0.0293984
H	398.433	-1.93741	-0.476276
H	399.018	-2.17175	1.22345
N	400.8	-0.658327	-0.123534
C	402.08	-0.0717135	-0.433889
C	402.255	1.16457	0.427801
O	401.322	1.60165	1.09906
H	400.122	-0.0348545	0.255186
H	402.866	-0.766343	-0.164916
C	402.17	0.29484	-1.93146
H	401.37	1.01557	-2.20554
H	403.156	0.734743	-2.18586
H	402.031	-0.623323	-2.54305
N	403.466	1.75524	0.435074
C	403.728	2.93309	1.22898
H	404.209	1.38447	-0.111498
H	404.781	3.26769	1.10076
H	403.555	2.72457	2.30977
H	403.055	3.76819	0.926963
