44
  This energy is 0.1031 and Call times are: 216000
C	1.97524	-0.470059	-2.82669
C	0.691097	-0.587842	-2.09988
O	-0.338495	-0.902328	-2.68079
H	1.80889	-0.688275	-3.90399
H	2.71172	-1.19599	-2.42252
H	2.37848	0.559743	-2.72672
N	0.724741	-0.331056	-0.790184
C	-0.451991	-0.362487	0.0422061
C	-0.243377	0.604011	1.19282
O	0.852874	1.12623	1.38578
H	1.56241	-0.0364074	-0.339226
H	-1.30192	-0.00748439	-0.527197
C	-0.713814	-1.78872	0.573754
H	0.15353	-2.1493	1.16682
H	-1.62519	-1.82881	1.20487
H	-0.855578	-2.48028	-0.285317
N	-1.30097	0.872095	1.98381
C	-1.19857	1.78348	3.09963
H	-2.18099	0.442923	1.80932
H	-2.17433	1.87158	3.62627
H	-0.895162	2.79755	2.75194
H	-0.436704	1.42665	3.82996
C	1000.16	0.582908	0.918932
C	998.815	0.0101723	1.17188
O	998.626	-0.779771	2.08663
H	1000.88	0.165141	1.65357
H	1000.13	1.6872	1.03071
H	1000.5	0.323855	-0.106065
N	997.838	0.401445	0.350335
C	996.49	-0.101846	0.444287
C	995.869	-0.0527093	-0.939126
O	996.443	0.514266	-1.86706
H	998.015	1.01345	-0.414962
H	996.517	-1.14061	0.749001
C	995.657	0.733538	1.44135
H	995.62	1.79734	1.12351
H	994.621	0.347415	1.53297
H	996.134	0.689747	2.44481
N	994.677	-0.657658	-1.11155
C	994.013	-0.66719	-2.39402
H	994.231	-1.11479	-0.349647
H	993.046	-1.21399	-2.33213
H	994.649	-1.16481	-3.16193
H	993.807	0.372313	-2.73755
