44
  This energy is -5.0916 and Call times are: 223652
C	-1.18103	-0.124867	-3.27143
C	-1.07538	-0.677002	-1.90208
O	-1.79161	-1.59778	-1.53383
H	-1.98259	-0.662291	-3.82331
H	-0.220808	-0.257717	-3.81278
H	-1.43539	0.95526	-3.22996
N	-0.164743	-0.114601	-1.10407
C	0.0249564	-0.514844	0.267931
C	0.541218	0.682812	1.04295
O	0.882241	1.7105	0.460466
H	0.382464	0.661197	-1.40501
H	-0.93153	-0.788056	0.695856
C	1.01873	-1.69295	0.36657
H	2.00335	-1.40968	-0.0627597
H	1.16264	-2.01944	1.41691
H	0.624482	-2.55525	-0.21424
N	0.602776	0.579743	2.38519
C	1.07562	1.67	3.20613
H	0.31853	-0.258469	2.8387
H	1.05062	1.39123	4.28265
H	0.439828	2.57367	3.06326
H	2.1229	1.93874	2.93755
C	997.048	2.55144	-0.299491
C	995.973	1.69781	-0.853827
O	995.453	1.95441	-1.9309
H	997.242	3.3963	-0.995543
H	997.982	1.96235	-0.180576
H	996.741	2.96092	0.686122
N	995.61	0.646703	-0.115265
C	994.55	-0.250379	-0.502144
C	993.935	-0.828443	0.758879
O	994.456	-0.640436	1.85653
H	996.014	0.474191	0.778427
H	993.775	0.310204	-1.01049
C	995.086	-1.37906	-1.40989
H	995.873	-1.96108	-0.88499
H	994.276	-2.06863	-1.72588
H	995.537	-0.932648	-2.32249
N	992.8	-1.54338	0.630535
C	992.141	-2.12728	1.77545
H	992.391	-1.68119	-0.265516
H	991.225	-2.67543	1.46441
H	991.847	-1.33765	2.50426
H	992.818	-2.84268	2.29614
