44
  This energy is -4.638 and Call times are: 223007
C	-1.31676	-2.3502	-2.2035
C	-0.274229	-1.89033	-1.25861
O	0.596034	-2.65054	-0.857191
H	-1.16046	-3.42797	-2.4268
H	-1.25555	-1.77437	-3.15082
H	-2.32425	-2.21846	-1.75551
N	-0.342565	-0.613406	-0.874998
C	0.575402	-0.032637	0.0729491
C	-0.141034	1.09137	0.797439
O	-1.248	1.47577	0.425174
H	-1.08085	-0.0178704	-1.17854
H	0.841518	-0.776043	0.814003
C	1.83887	0.499989	-0.637824
H	1.56736	1.2703	-1.39078
H	2.55973	0.937223	0.0830828
H	2.34254	-0.33778	-1.16774
N	0.475116	1.64185	1.86203
C	-0.132534	2.71306	2.61665
H	1.36881	1.31454	2.15055
H	0.528981	3.02934	3.45306
H	-1.10801	2.38741	3.04522
H	-0.319804	3.59643	1.96418
C	994.02	-2.36039	2.43562
C	993.703	-1.14883	1.64619
O	992.585	-0.652816	1.66853
H	993.108	-2.69341	2.97837
H	994.817	-2.13778	3.17522
H	994.356	-3.17776	1.7637
N	994.698	-0.639219	0.916693
C	994.532	0.51134	0.0640438
C	995.521	0.398811	-1.08081
O	996.393	-0.467488	-1.07647
H	995.592	-1.07792	0.876845
H	993.538	0.496595	-0.365663
C	994.762	1.81971	0.851748
H	995.785	1.84001	1.28396
H	994.623	2.71336	0.209422
H	994.033	1.87703	1.68912
N	995.401	1.27357	-2.09888
C	996.294	1.2393	-3.23392
H	994.686	1.96483	-2.08639
H	996.033	2.03751	-3.96342
H	996.231	0.255693	-3.7534
H	997.348	1.39157	-2.90925
