44
  This energy is -3.3301 and Call times are: 220592
C	-0.200721	-0.0162782	3.4745
C	-0.157639	0.691082	2.17491
O	-0.40877	1.88569	2.09582
H	-0.498866	0.698525	4.27202
H	0.800363	-0.429857	3.71848
H	-0.942282	-0.841946	3.43639
N	0.165329	-0.0450573	1.109
C	0.206527	0.492779	-0.228012
C	-0.103614	-0.630475	-1.19944
O	-0.173399	-1.79571	-0.813344
H	0.327075	-1.02495	1.18322
H	-0.571561	1.23792	-0.337443
C	1.59061	1.10616	-0.533515
H	2.38808	0.339544	-0.431667
H	1.63063	1.53607	-1.55532
H	1.79995	1.92033	0.194259
N	-0.306461	-0.302309	-2.49063
C	-0.612517	-1.30331	-3.48587
H	-0.249824	0.646521	-2.78318
H	-0.744574	-0.835613	-4.48639
H	-1.55161	-1.84281	-3.22449
H	0.208617	-2.05307	-3.55471
C	993.306	2.76354	1.59149
C	993.919	2.1101	0.413294
O	993.922	2.65417	-0.682328
H	992.878	3.74329	1.28682
H	994.073	2.93459	2.37635
H	992.493	2.12811	2.00145
N	994.46	0.906281	0.616544
C	995.055	0.128696	-0.441635
C	994.912	-1.33955	-0.0875904
O	994.512	-1.68351	1.023
H	994.413	0.458647	1.50499
H	994.505	0.294285	-1.35947
C	996.543	0.498255	-0.628037
H	997.11	0.318594	0.310172
H	997.009	-0.083888	-1.44932
H	996.624	1.57852	-0.878587
N	995.23	-2.24479	-1.03387
C	995.12	-3.66408	-0.789514
H	995.548	-1.94707	-1.92793
H	995.426	-4.24281	-1.68861
H	994.07	-3.93903	-0.536792
H	995.771	-3.96788	0.0619807
