44
  This energy is 0 and Call times are: 202837
C	1.91885	-0.997709	2.72677
C	1.15818	0.0238545	1.97249
O	0.880239	1.10442	2.47403
H	2.13968	-0.612852	3.74608
H	2.87674	-1.21973	2.21113
H	1.32259	-1.93023	2.81611
N	0.797148	-0.302915	0.729408
C	0.0167698	0.569779	-0.112004
C	-0.785159	-0.290188	-1.07061
O	-0.581216	-1.49989	-1.15269
H	0.995298	-1.20197	0.349531
H	-0.69022	1.11691	0.499092
C	0.927181	1.5443	-0.890919
H	1.64569	0.983588	-1.52605
H	0.337151	2.23087	-1.53202
H	1.51022	2.15769	-0.169698
N	-1.72838	0.31792	-1.81665
C	-2.54431	-0.420373	-2.75226
H	-1.88152	1.29703	-1.73323
H	-3.26033	0.256177	-3.26879
H	-3.1266	-1.21147	-2.22655
H	-1.90941	-0.91388	-3.52329
C	101.552	2.77265	-0.998276
C	100.323	2.15438	-0.450218
O	99.4424	2.83655	0.05459
H	101.508	3.87315	-0.847234
H	101.634	2.56209	-2.08532
H	102.447	2.3737	-0.476003
N	100.239	0.824868	-0.537372
C	99.1243	0.0772717	-0.0100149
C	99.6202	-1.30482	0.37146
O	100.751	-1.67547	0.0630218
H	100.982	0.279757	-0.914014
H	98.7706	0.55435	0.895456
C	97.9863	-0.0235002	-1.04921
H	98.3459	-0.522339	-1.97435
H	97.1169	-0.585078	-0.6501
H	97.6445	0.999462	-1.31955
N	98.7817	-2.1009	1.06375
C	99.1686	-3.43037	1.47489
H	97.8719	-1.78177	1.30766
H	98.3432	-3.92536	2.0325
H	100.064	-3.39193	2.13607
H	99.4197	-4.05815	0.589455
