44
  This energy is 0 and Call times are: 202501
C	-3.01078	-0.0452678	1.74524
C	-1.53814	-0.181901	1.68336
O	-0.865249	-0.248758	2.70275
H	-3.33125	-0.00198331	2.80887
H	-3.49678	-0.916925	1.25866
H	-3.33026	0.888051	1.2354
N	-0.996853	-0.224716	0.463709
C	0.425197	-0.312357	0.243135
C	0.739415	0.349232	-1.08544
O	-0.162844	0.69574	-1.84543
H	-1.55378	-0.127948	-0.356252
H	0.941265	0.248151	1.01264
C	0.8932	-1.78416	0.239216
H	0.371799	-2.35715	-0.556937
H	1.98866	-1.86432	0.0840791
H	0.646003	-2.25047	1.21788
N	2.03611	0.548353	-1.39361
C	2.43072	1.17554	-2.6334
H	2.75185	0.264854	-0.763991
H	3.53847	1.24955	-2.70152
H	2.00568	2.20279	-2.70661
H	2.06413	0.587273	-3.50558
C	78.1772	1.61297	1.83697
C	77.6217	0.414078	1.16973
O	78.3029	-0.587365	0.997759
H	79.2411	1.42694	2.10028
H	77.6099	1.83123	2.7661
H	78.1233	2.48902	1.15675
N	76.3501	0.49266	0.770621
C	75.6843	-0.576578	0.0691845
C	74.6143	0.0331245	-0.816672
O	74.3267	1.2252	-0.727404
H	75.821	1.32916	0.881006
H	76.3943	-1.07504	-0.579029
C	75.0584	-1.58138	1.06106
H	74.3223	-1.07258	1.7193
H	74.5546	-2.41689	0.533176
H	75.8583	-2.00895	1.70418
N	74.002	-0.775179	-1.70428
C	72.9753	-0.282307	-2.59252
H	74.2512	-1.73609	-1.76454
H	72.5955	-1.09847	-3.24588
H	73.3747	0.529694	-3.24242
H	72.1183	0.130039	-2.01223
