44
  This energy is 0 and Call times are: 211881
C	-0.538025	2.51904	2.34044
C	0.327422	1.78995	1.3862
O	1.42041	2.23095	1.05863
H	-0.0358602	3.46318	2.64425
H	-0.716996	1.90011	3.24468
H	-1.50996	2.76627	1.86367
N	-0.152507	0.638777	0.909915
C	0.555054	-0.161084	-0.0586614
C	-0.467296	-0.927036	-0.876998
O	-1.65419	-0.93302	-0.556139
H	-1.0614	0.313242	1.15448
H	1.08939	0.490859	-0.738428
C	1.53105	-1.13489	0.637313
H	0.982012	-1.81095	1.3269
H	2.09204	-1.74677	-0.098498
H	2.265	-0.553038	1.23658
N	-0.0280424	-1.58846	-1.96585
C	-0.928947	-2.34014	-2.80819
H	0.935412	-1.56845	-2.21167
H	-0.377721	-2.81127	-3.65164
H	-1.71672	-1.67592	-3.23187
H	-1.43271	-3.14485	-2.22527
C	743.172	-1.48644	1.87391
C	744.285	-0.523183	1.71963
O	744.493	0.343921	2.55719
H	742.615	-1.25808	2.80889
H	743.567	-2.52204	1.93495
H	742.475	-1.40725	1.01279
N	745.037	-0.655582	0.624364
C	746.129	0.233309	0.314663
C	746.285	0.283895	-1.19359
O	745.658	-0.487146	-1.91757
H	744.831	-1.34046	-0.068593
H	745.881	1.23355	0.647063
C	747.438	-0.248588	0.9781
H	747.699	-1.27056	0.62937
H	748.283	0.435183	0.758491
H	747.298	-0.285527	2.08061
N	747.124	1.20576	-1.70505
C	747.332	1.33172	-3.12885
H	747.619	1.82357	-1.1034
H	748.057	2.1458	-3.35005
H	746.373	1.5658	-3.64638
H	747.73	0.382013	-3.55347
