44
  This energy is 0 and Call times are: 202781
C	-1.01246	0.230856	3.32179
C	-0.854309	-0.521571	2.05689
O	-1.03181	-1.73112	2.01345
H	-1.28008	-0.474912	4.13798
H	-1.82056	0.98538	3.21979
H	-0.061869	0.74091	3.58507
N	-0.508588	0.190707	0.981941
C	-0.275908	-0.407125	-0.309189
C	0.725213	0.454241	-1.05575
O	1.06607	1.54996	-0.614242
H	-0.327708	1.16824	1.0418
H	0.17459	-1.38269	-0.175178
C	-1.59226	-0.523651	-1.10849
H	-2.04941	0.478087	-1.25535
H	-1.42855	-0.995201	-2.09913
H	-2.31258	-1.15143	-0.53982
N	1.22872	-0.0288944	-2.20862
C	2.19116	0.717759	-2.98475
H	0.943825	-0.919387	-2.54763
H	2.48387	0.152814	-3.8971
H	3.10941	0.916439	-2.3859
H	1.76605	1.69796	-3.30039
C	95.2519	2.48293	-2.39729
C	95.5251	2.04503	-1.00994
O	95.9118	2.8363	-0.160955
H	95.4715	3.56879	-2.48968
H	94.1848	2.3093	-2.65025
H	95.8959	1.92424	-3.10877
N	95.3286	0.751058	-0.746476
C	95.5926	0.168347	0.545535
C	95.9562	-1.29031	0.341169
O	95.8294	-1.82266	-0.759844
H	95.0529	0.111317	-1.45823
H	96.4521	0.65597	0.988438
C	94.3619	0.295298	1.4699
H	93.4826	-0.213866	1.02085
H	94.5574	-0.137389	2.47245
H	94.1092	1.37039	1.59891
N	96.4279	-1.97192	1.40365
C	96.8048	-3.3626	1.30287
H	96.5273	-1.52282	2.28541
H	97.1684	-3.74349	2.28262
H	97.6168	-3.49606	0.551746
H	95.9357	-3.98337	0.985797
