44
  This energy is 0 and Call times are: 204545
C	0.2231	2.14408	2.73236
C	-0.0668471	0.821668	2.13379
O	-0.234179	-0.167202	2.83418
H	0.269148	2.04438	3.83863
H	-0.577681	2.86693	2.46971
H	1.19942	2.52469	2.36491
N	-0.131276	0.774737	0.801117
C	-0.362559	-0.447978	0.0730816
C	0.300368	-0.322031	-1.28568
O	0.762409	0.7528	-1.66379
H	0.0477104	1.57993	0.243004
H	0.117549	-1.26863	0.591408
C	-1.8749	-0.718137	-0.0852499
H	-2.36608	0.118595	-0.626232
H	-2.06607	-1.66409	-0.632192
H	-2.34067	-0.798676	0.921193
N	0.369932	-1.42807	-2.05239
C	0.987569	-1.40526	-3.35784
H	-0.00594155	-2.2896	-1.72749
H	0.945815	-2.41137	-3.83029
H	2.05575	-1.0979	-3.28166
H	0.467028	-0.681885	-4.02635
C	219.376	1.12816	-2.33203
C	219.903	1.04758	-0.950985
O	219.472	1.77426	-0.0660099
H	218.601	1.92325	-2.38364
H	218.918	0.1599	-2.62395
H	220.194	1.37781	-3.03974
N	220.864	0.147292	-0.734188
C	221.505	-0.0180373	0.546823
C	222.914	-0.527523	0.308883
O	223.274	-0.883075	-0.811594
H	221.233	-0.408581	-1.47384
H	221.588	0.946635	1.03167
C	220.715	-1.00423	1.43522
H	220.638	-1.99711	0.942937
H	221.191	-1.12938	2.42954
H	219.685	-0.615231	1.58947
N	223.751	-0.566679	1.3641
C	225.112	-1.03148	1.23218
H	223.442	-0.27094	2.26209
H	225.639	-0.987551	2.21067
H	225.673	-0.402577	0.503384
H	225.135	-2.08431	0.868604
