44
  This energy is 0 and Call times are: 205917
C	-2.41886	-0.458149	2.46006
C	-1.15789	-0.839743	1.78516
O	-0.397111	-1.65905	2.2815
H	-2.50109	-1.0079	3.42281
H	-3.28887	-0.719349	1.82163
H	-2.42701	0.632749	2.66735
N	-0.904373	-0.241394	0.618932
C	0.302247	-0.477687	-0.133925
C	0.611339	0.772048	-0.936532
O	-0.198915	1.69445	-1.00272
H	-1.51338	0.453702	0.247694
H	1.12623	-0.632964	0.551333
C	0.139142	-1.69555	-1.06957
H	-0.699333	-1.53231	-1.77975
H	1.06626	-1.89625	-1.64464
H	-0.0943728	-2.59677	-0.461604
N	1.80325	0.834468	-1.56222
C	2.18688	1.98643	-2.34452
H	2.44734	0.0798143	-1.49354
H	3.20171	1.84713	-2.77805
H	2.1986	2.90404	-1.71275
H	1.46824	2.15144	-3.17966
C	318.296	-3.16449	-0.357983
C	318.999	-1.98109	-0.903324
O	319.507	-2.00356	-2.01587
H	318.345	-3.99364	-1.09686
H	317.231	-2.9206	-0.162002
H	318.779	-3.49494	0.585722
N	319.045	-0.903604	-0.116392
C	319.73	0.308417	-0.491399
C	320.199	0.998203	0.775842
O	319.835	0.599923	1.88094
H	318.662	-0.914124	0.803008
H	320.612	0.0568816	-1.06702
C	318.801	1.23854	-1.30225
H	317.901	1.50538	-0.708232
H	319.321	2.16921	-1.60882
H	318.464	0.710429	-2.2208
N	321.029	2.0512	0.643909
C	321.531	2.76651	1.79381
H	321.315	2.35613	-0.258495
H	322.199	3.59869	1.47864
H	322.111	2.08504	2.45805
H	320.692	3.19561	2.38727
