44
  This energy is 0 and Call times are: 208661
C	2.41866	2.06509	-1.41357
C	1.79605	0.737756	-1.20937
O	2.11364	-0.222897	-1.8969
H	3.14546	2.00469	-2.25261
H	2.95591	2.38122	-0.494791
H	1.6417	2.81767	-1.66465
N	0.87777	0.655224	-0.243806
C	0.154549	-0.55823	0.0443643
C	-1.19888	-0.178092	0.614708
O	-1.45188	0.987669	0.912542
H	0.6004	1.45555	0.280042
H	-0.0237976	-1.09557	-0.878721
C	0.934336	-1.44128	1.04306
H	1.10837	-0.894227	1.9941
H	0.39424	-2.38506	1.26236
H	1.92431	-1.70065	0.608286
N	-2.10877	-1.15948	0.772826
C	-3.42522	-0.891431	1.30321
H	-1.88694	-2.096	0.522269
H	-4.02578	-1.82619	1.35592
H	-3.96747	-0.162359	0.658474
H	-3.35577	-0.460791	2.32833
C	516.526	-2.60026	2.16088
C	515.831	-1.32878	1.85737
O	514.993	-0.868035	2.61945
H	516.142	-3.00796	3.12144
H	517.618	-2.42657	2.25474
H	516.337	-3.341	1.35537
N	516.17	-0.725417	0.715607
C	515.55	0.495443	0.263852
C	515.601	0.518701	-1.25222
O	516.251	-0.319808	-1.87357
H	516.825	-1.13366	0.0858565
H	514.506	0.493972	0.551741
C	516.272	1.72948	0.848719
H	517.34	1.73704	0.544944
H	515.795	2.67558	0.519305
H	516.229	1.68744	1.95902
N	514.904	1.48199	-1.88642
C	514.888	1.57955	-3.32739
H	514.381	2.14906	-1.36654
H	514.259	2.43556	-3.65687
H	514.478	0.647996	-3.77976
H	515.919	1.72946	-3.72229
