44
  This energy is 0 and Call times are: 212329
C	0.798116	3.32406	-0.652931
C	0.7654	2.14247	0.238082
O	1.38594	2.12717	1.29217
H	1.45642	4.10153	-0.207907
H	-0.223408	3.74274	-0.771012
H	1.19886	3.04114	-1.64915
N	0.0292166	1.10808	-0.174782
C	-0.0655181	-0.126877	0.563102
C	-0.329921	-1.24839	-0.423734
O	-0.589236	-1.00378	-1.60044
H	-0.437213	1.11985	-1.05465
H	0.885443	-0.332903	1.03835
C	-1.19296	-0.0552317	1.61618
H	-2.17043	0.145644	1.12808
H	-1.2669	-0.995293	2.20042
H	-0.982818	0.777186	2.32277
N	-0.26149	-2.51376	0.0347385
C	-0.492725	-3.64547	-0.832409
H	-0.0462769	-2.6918	0.989231
H	-0.391042	-4.59944	-0.269535
H	0.240328	-3.65371	-1.67136
H	-1.51675	-3.60325	-1.26913
C	774.389	-0.356946	-1.01282
C	775.631	-0.887589	-0.40663
O	775.64	-1.95886	0.183903
H	773.554	-1.06311	-0.815854
H	774.516	-0.247079	-2.11039
H	774.138	0.629619	-0.569285
N	776.726	-0.134577	-0.540102
C	777.998	-0.497634	0.0325376
C	778.766	0.777468	0.324332
O	778.356	1.86545	-0.0753066
H	776.694	0.754357	-0.988039
H	777.834	-0.999035	0.978236
C	778.797	-1.40361	-0.929335
H	778.975	-0.885666	-1.8959
H	779.773	-1.70136	-0.493998
H	778.213	-2.32676	-1.13507
N	779.903	0.672468	1.04057
C	780.698	1.83221	1.37148
H	780.217	-0.216079	1.35868
H	781.592	1.53979	1.96443
H	780.102	2.55855	1.97067
H	781.043	2.34876	0.446854
