44
  This energy is 0 and Call times are: 212497
C	1.84584	2.88649	-0.611339
C	0.775722	1.92542	-0.961094
O	-0.0429046	2.1796	-1.83382
H	1.73881	3.79909	-1.23711
H	2.84242	2.43538	-0.801237
H	1.76793	3.17326	0.458608
N	0.757758	0.781172	-0.27352
C	-0.247971	-0.232775	-0.470957
C	-0.423234	-0.98564	0.834429
O	0.346859	-0.802662	1.77527
H	1.40596	0.606072	0.462037
H	-1.19407	0.242124	-0.69897
C	0.159145	-1.20046	-1.60369
H	1.12447	-1.69583	-1.36539
H	-0.613628	-1.97769	-1.77474
H	0.289589	-0.626835	-2.54724
N	-1.45333	-1.84984	0.924392
C	-1.70203	-2.60669	2.12918
H	-2.06816	-1.9813	0.153825
H	-2.59326	-3.26068	2.00582
H	-1.88449	-1.92452	2.99094
H	-0.826685	-3.24966	2.37717
C	789.625	1.77504	2.99272
C	790.333	1.26823	1.79551
O	791.451	1.66998	1.50375
H	790.259	2.53374	3.50062
H	789.425	0.942741	3.6997
H	788.665	2.24859	2.69776
N	789.684	0.360164	1.06267
C	790.226	-0.193557	-0.153271
C	789.068	-0.580074	-1.05395
O	787.911	-0.556235	-0.6378
H	788.758	0.0733273	1.29024
H	790.796	0.568517	-0.6699
C	791.112	-1.42239	0.146925
H	790.525	-2.20875	0.667553
H	791.546	-1.8495	-0.780197
H	791.948	-1.1179	0.813738
N	789.354	-0.939561	-2.32079
C	788.317	-1.31807	-3.25178
H	790.296	-0.948736	-2.64036
H	788.752	-1.57906	-4.24134
H	787.594	-0.482083	-3.39634
H	787.752	-2.20064	-2.87338
