44
  This energy is 0 and Call times are: 205497
C	-3.39549	-0.045489	0.762421
C	-2.12269	0.671911	0.524766
O	-2.09605	1.88812	0.396183
H	-4.23236	0.686164	0.776704
H	-3.36151	-0.571744	1.73948
H	-3.57641	-0.782621	-0.048131
N	-1.02134	-0.0797173	0.457973
C	0.284109	0.470003	0.18935
C	1.11413	-0.597062	-0.499126
O	0.70458	-1.75286	-0.589266
H	-1.06436	-1.07254	0.523763
H	0.187586	1.29884	-0.500832
C	0.96856	0.929634	1.4953
H	1.07735	0.0774151	2.19952
H	1.96891	1.36756	1.30026
H	0.339948	1.70445	1.98607
N	2.30496	-0.229138	-1.01154
C	3.16101	-1.17483	-1.68905
H	2.6174	0.7117	-0.932306
H	4.09419	-0.680482	-2.03836
H	2.64258	-1.61003	-2.57398
H	3.44067	-2.0104	-1.00732
C	287.233	1.93485	-1.51043
C	288.565	1.77809	-0.884885
O	289.396	2.67488	-0.931545
H	287.17	2.93301	-1.99581
H	286.437	1.85927	-0.739897
H	287.077	1.15028	-2.28066
N	288.802	0.613207	-0.277186
C	290.066	0.296975	0.33917
C	290.258	-1.20691	0.281587
O	289.343	-1.94479	-0.0788419
H	288.131	-0.122516	-0.282985
H	290.866	0.746139	-0.23599
C	290.107	0.792318	1.80145
H	289.292	0.323742	2.3945
H	291.08	0.567047	2.28274
H	289.957	1.89391	1.82002
N	291.463	-1.69769	0.630164
C	291.74	-3.11507	0.601072
H	292.193	-1.08447	0.915165
H	292.785	-3.31858	0.921533
H	291.603	-3.52084	-0.427513
H	291.051	-3.66395	1.28301
