44
  This energy is 0 and Call times are: 211993
C	2.30452	2.60529	0.119726
C	1.22621	1.79046	0.723418
O	0.9474	1.88894	1.91042
H	2.76664	3.24255	0.904724
H	1.89015	3.25923	-0.67614
H	3.0857	1.94568	-0.313588
N	0.58719	0.951513	-0.0952375
C	-0.455265	0.0633061	0.355246
C	-0.45676	-1.15866	-0.543831
O	0.229223	-1.19102	-1.56368
H	0.852932	0.852973	-1.04998
H	-0.227754	-0.274696	1.35855
C	-1.83107	0.764062	0.318785
H	-2.06967	1.10167	-0.712297
H	-2.64023	0.0948778	0.676532
H	-1.80439	1.65956	0.97736
N	-1.22704	-2.20248	-0.178942
C	-1.28786	-3.40981	-0.96941
H	-1.77193	-2.15912	0.651893
H	-1.97518	-4.15029	-0.504119
H	-0.27877	-3.87413	-1.05555
H	-1.65487	-3.18829	-1.9977
C	755.114	0.668772	3.10912
C	755.138	0.0200994	1.77879
O	756.152	-0.516093	1.35445
H	756.119	0.585809	3.57662
H	754.37	0.169204	3.76494
H	754.853	1.74321	3.00625
N	754.002	0.0577465	1.07933
C	753.883	-0.492449	-0.247987
C	752.815	0.288883	-0.990169
O	752.107	1.10318	-0.401161
H	753.196	0.533594	1.42087
H	754.816	-0.348513	-0.779023
C	753.517	-1.99185	-0.19298
H	752.555	-2.13911	0.342529
H	753.436	-2.43043	-1.20869
H	754.308	-2.54265	0.361317
N	752.68	0.0632257	-2.31188
C	751.695	0.764066	-3.10171
H	753.265	-0.596546	-2.77161
H	751.741	0.440611	-4.16496
H	751.869	1.86371	-3.06209
H	750.668	0.563449	-2.71783
