44
  This energy is 0 and Call times are: 213869
C	-1.63866	-0.960071	-2.91646
C	-0.740017	-1.24012	-1.77403
O	-0.375037	-2.37978	-1.52032
H	-1.8952	-1.91497	-3.42463
H	-1.13495	-0.289722	-3.64423
H	-2.57427	-0.480668	-2.55883
N	-0.359555	-0.187454	-1.04634
C	0.478286	-0.306773	0.120859
C	0.147054	0.837833	1.05986
O	-0.588475	1.75498	0.699933
H	-0.697842	0.728877	-1.24067
H	0.240668	-1.22775	0.638522
C	1.97281	-0.273677	-0.267122
H	2.21943	0.675521	-0.788887
H	2.62825	-0.378656	0.621645
H	2.19067	-1.11508	-0.96062
N	0.679771	0.80561	2.29727
C	0.416075	1.84848	3.26115
H	1.26929	0.0530549	2.5715
H	0.943347	1.64167	4.21846
H	-0.675581	1.92234	3.47117
H	0.761211	2.83549	2.87665
C	888.767	2.60761	-2.04294
C	887.716	1.89106	-1.28699
O	886.617	2.39472	-1.0989
H	888.384	3.6046	-2.35076
H	889.045	2.0329	-2.95162
H	889.667	2.74921	-1.40695
N	888.036	0.679264	-0.827484
C	887.133	-0.120825	-0.0384444
C	887.96	-1.01219	0.868728
O	889.18	-1.09064	0.733005
H	888.948	0.299726	-0.953476
H	886.543	0.527971	0.597187
C	886.216	-0.97179	-0.943583
H	886.82	-1.64514	-1.5884
H	885.506	-1.58201	-0.348044
H	885.626	-0.299353	-1.60414
N	887.312	-1.70265	1.82722
C	888.016	-2.57184	2.74057
H	886.325	-1.62299	1.92406
H	887.309	-3.0493	3.45386
H	888.77	-1.99777	3.32626
H	888.55	-3.37619	2.1847
