44
  This energy is 0 and Call times are: 203481
C	-0.329186	1.67572	-3.03254
C	-0.577341	1.55165	-1.57852
O	-1.03887	2.48291	-0.933422
H	-0.607248	2.69893	-3.3666
H	-0.942352	0.936682	-3.58985
H	0.745695	1.50534	-3.25321
N	-0.268614	0.378136	-1.02181
C	-0.413812	0.121011	0.389345
C	0.61425	-0.920765	0.788527
O	1.27523	-1.51195	-0.0631342
H	0.144515	-0.356594	-1.55225
H	-0.188805	1.0246	0.9421
C	-1.84018	-0.3728	0.71624
H	-2.06766	-1.30558	0.157478
H	-1.96877	-0.561071	1.80185
H	-2.57622	0.401731	0.408515
N	0.77922	-1.16463	2.10357
C	1.73815	-2.135	2.57793
H	0.237998	-0.673248	2.77788
H	1.72471	-2.19062	3.68876
H	2.76799	-1.86068	2.25319
H	1.50656	-3.14677	2.17318
C	144.357	-0.411664	3.18412
C	144.483	-0.80325	1.76216
O	144.013	-1.85545	1.35139
H	143.816	-1.20954	3.73832
H	143.785	0.536353	3.27084
H	145.363	-0.279218	3.63507
N	145.133	0.0494633	0.96715
C	145.373	-0.213432	-0.429975
C	146.647	0.504015	-0.834412
O	147.193	1.29716	-0.0698583
H	145.545	0.88262	1.32459
H	145.541	-1.27389	-0.570124
C	144.185	0.264804	-1.29314
H	144.018	1.35473	-1.15777
H	144.351	0.0553925	-2.36968
H	143.262	-0.267385	-0.974499
N	147.157	0.233393	-2.05187
C	148.369	0.864092	-2.52063
H	146.704	-0.414403	-2.65476
H	148.626	0.511324	-3.54386
H	149.222	0.627302	-1.84418
H	148.25	1.97132	-2.55095
