44
  This energy is -4.3473 and Call times are: 221399
C	1.37031	-0.667682	-3.12876
C	0.331859	-0.0659518	-2.26234
O	-0.490127	0.720402	-2.71223
H	1.26021	-0.273127	-4.16224
H	1.25687	-1.77192	-3.15167
H	2.38164	-0.407963	-2.75079
N	0.348736	-0.427345	-0.977241
C	-0.571074	0.10646	-0.00381265
C	0.109158	0.0835461	1.35203
O	1.1863	-0.488791	1.50663
H	1.0494	-1.03684	-0.617447
H	-0.781778	1.1417	-0.241534
C	-1.87675	-0.717675	0.0314531
H	-1.66227	-1.77759	0.285648
H	-2.59877	-0.308265	0.767386
H	-2.35322	-0.693535	-0.972909
N	-0.504793	0.717589	2.3704
C	0.0701365	0.753491	3.69492
H	-1.37392	1.17857	2.22482
H	-0.583802	1.32216	4.3922
H	1.07096	1.24262	3.67556
H	0.197695	-0.277967	4.09613
C	993.847	1.6459	3.05661
C	994.344	0.675644	2.05509
O	995.458	0.180113	2.15218
H	994.634	1.81928	3.82199
H	992.94	1.24781	3.558
H	993.604	2.6119	2.56583
N	993.513	0.380535	1.0521
C	993.872	-0.513083	-0.0210218
C	993.098	-0.100145	-1.25878
O	992.206	0.743978	-1.19168
H	992.625	0.823083	0.964448
H	994.925	-0.397506	-0.245539
C	993.555	-1.97798	0.351916
H	992.473	-2.09929	0.572096
H	993.839	-2.67728	-0.460907
H	994.126	-2.25592	1.26467
N	993.429	-0.68423	-2.42716
C	992.751	-0.350345	-3.6581
H	994.156	-1.36208	-2.46217
H	993.167	-0.93613	-4.50737
H	992.868	0.733246	-3.88936
H	991.662	-0.571165	-3.57944
