44
  This energy is 0 and Call times are: 209137
C	0.63951	-0.583474	-3.37094
C	-0.231173	-0.10565	-2.27334
O	-1.24756	0.534556	-2.50464
H	0.219435	-0.249956	-4.34469
H	0.691562	-1.69251	-3.36297
H	1.66183	-0.164827	-3.25832
N	0.156818	-0.410075	-1.03271
C	-0.563632	0.0220485	0.138949
C	0.425846	0.151483	1.28164
O	1.58132	-0.251621	1.16288
H	1.00819	-0.896613	-0.858582
H	-0.979957	1.00552	-0.0402002
C	-1.68065	-0.981178	0.500949
H	-1.25292	-1.98784	0.695143
H	-2.25169	-0.652579	1.3934
H	-2.38845	-1.06599	-0.352384
N	-0.00581812	0.728942	2.42016
C	0.866264	0.899979	3.55876
H	-0.943165	1.05256	2.49581
H	0.32686	1.39441	4.3965
H	1.74585	1.52832	3.28893
H	1.24281	-0.0854299	3.91698
C	548.629	-0.0993532	-3.31
C	549.681	0.0876761	-2.28575
O	550.863	0.150819	-2.59623
H	549.103	-0.18039	-4.3125
H	547.936	0.767809	-3.30912
H	548.058	-1.02945	-3.10624
N	549.267	0.17956	-1.01977
C	550.176	0.320008	0.0905888
C	549.526	-0.296658	1.3148
O	548.35	-0.65345	1.29085
H	548.306	0.0852961	-0.778723
H	551.079	-0.242495	-0.113196
C	550.51	1.80617	0.345554
H	549.586	2.38165	0.565056
H	551.22	1.92662	1.18941
H	550.978	2.23888	-0.565872
N	550.285	-0.444653	2.41828
C	549.754	-1.02653	3.62883
H	551.236	-0.153679	2.41707
H	550.533	-1.06194	4.4226
H	549.397	-2.06514	3.44156
H	548.894	-0.428712	4.00761
