44
  This energy is 0 and Call times are: 206253
C	-3.40231	0.23012	0.695718
C	-2.10411	-0.478245	0.759381
O	-1.95241	-1.45863	1.47509
H	-4.12362	-0.262485	1.38342
H	-3.80807	0.193399	-0.337119
H	-3.2761	1.28895	1.00563
N	-1.12208	0.0131498	9.17101e-05
C	0.208357	-0.542151	-0.0115708
C	1.18205	0.569905	-0.353339
O	0.776815	1.67015	-0.723418
H	-1.24902	0.836282	-0.545993
H	0.457028	-0.894683	0.981664
C	0.317441	-1.69159	-1.0373
H	0.0726719	-1.32803	-2.05806
H	1.33348	-2.13668	-1.04591
H	-0.409337	-2.49025	-0.772191
N	2.49821	0.309004	-0.228098
C	3.49842	1.30762	-0.525631
H	2.80664	-0.586003	0.0767052
H	4.52077	0.90142	-0.361203
H	3.36732	2.20135	0.126546
H	3.41917	1.63952	-1.58615
C	342.634	3.22932	-0.739507
C	343.673	2.17556	-0.706327
O	344.737	2.31709	-1.29299
H	342.99	4.07681	-1.36459
H	342.432	3.60015	0.287366
H	341.696	2.82831	-1.17854
N	343.38	1.07559	-0.00849529
C	344.273	-0.0530243	0.0804842
C	343.437	-1.30217	0.286469
O	342.231	-1.22269	0.513708
H	342.494	0.957883	0.429672
H	344.798	-0.167867	-0.859393
C	345.274	0.125989	1.24245
H	344.736	0.233297	2.20828
H	345.976	-0.730191	1.31273
H	345.87	1.05009	1.07484
N	344.062	-2.49334	0.202741
C	343.346	-3.73582	0.379176
H	345.037	-2.53748	0.0140397
H	344.034	-4.60373	0.272954
H	342.537	-3.83464	-0.38035
H	342.879	-3.78021	1.38941
