44
  This energy is 0 and Call times are: 205021
C	1.99336	1.979	-2.05494
C	1.31966	0.701134	-1.73193
O	1.24114	-0.199116	-2.55643
H	2.35501	1.94818	-3.10572
H	2.86143	2.13513	-1.38054
H	1.28263	2.82498	-1.94418
N	0.808119	0.593919	-0.503432
C	0.0864398	-0.571619	-0.0570451
C	-0.909467	-0.134891	1.00078
O	-0.884981	1.00717	1.45554
H	0.844105	1.35077	0.1429
H	-0.480238	-0.979607	-0.884725
C	1.052	-1.63328	0.513749
H	1.62602	-1.21851	1.36962
H	0.509663	-2.54134	0.848159
H	1.77656	-1.93222	-0.274924
N	-1.82037	-1.03843	1.41297
C	-2.81102	-0.711394	2.41189
H	-1.82693	-1.95635	1.03029
H	-3.46802	-1.58561	2.61516
H	-3.44965	0.134853	2.06942
H	-2.32204	-0.410516	3.36663
C	254.246	2.56435	1.85018
C	254.491	1.85537	0.574115
O	253.846	2.11976	-0.431051
H	253.422	3.29674	1.71081
H	255.16	3.10862	2.16743
H	253.954	1.84056	2.64012
N	255.445	0.921066	0.588073
C	255.768	0.117877	-0.56474
C	256.302	-1.2158	-0.0773052
O	256.551	-1.3975	1.11297
H	255.933	0.688672	1.42436
H	254.864	-0.0823778	-1.12554
C	256.812	0.826304	-1.45559
H	257.744	1.02252	-0.883725
H	257.059	0.224025	-2.35382
H	256.403	1.80325	-1.79418
N	256.484	-2.18869	-0.991955
C	256.983	-3.49211	-0.620222
H	256.273	-2.02402	-1.9498
H	257.062	-4.15197	-1.51216
H	256.302	-3.97804	0.115905
H	257.992	-3.4087	-0.154899
