44
  This energy is 0 and Call times are: 211517
C	0.0953122	2.36653	-2.55012
C	-0.180565	1.96835	-1.15138
O	-0.406181	2.80491	-0.28786
H	0.0733748	3.47532	-2.6275
H	-0.676	1.94368	-3.22763
H	1.09816	2.00443	-2.86039
N	-0.165896	0.658551	-0.893324
C	-0.373791	0.120616	0.428026
C	0.371304	-1.19735	0.524763
O	0.873219	-1.71175	-0.472826
H	0.0597362	-0.00798104	-1.59809
H	0.0605155	0.791106	1.15909
C	-1.87829	-0.086017	0.709136
H	-2.32202	-0.782065	-0.034276
H	-2.05232	-0.486881	1.72872
H	-2.40475	0.889751	0.625074
N	0.467958	-1.77331	1.73924
C	1.16292	-3.02519	1.92898
H	0.058826	-1.33982	2.53534
H	1.13254	-3.33388	2.99716
H	2.22966	-2.93285	1.62106
H	0.695605	-3.83076	1.31757
C	722.558	-0.102335	1.98326
C	721.583	0.623985	1.13878
O	721.578	1.84613	1.08639
H	723.201	0.631585	2.51594
H	723.201	-0.752376	1.35305
H	722.026	-0.724653	2.73326
N	720.721	-0.126178	0.449311
C	719.686	0.437563	-0.381864
C	718.527	-0.540499	-0.42334
O	718.638	-1.66931	0.0511271
H	720.711	-1.11844	0.534018
H	719.321	1.35077	0.0716849
C	720.213	0.713624	-1.80717
H	720.577	-0.224765	-2.27686
H	719.43	1.16073	-2.45299
H	721.065	1.42533	-1.75189
N	717.377	-0.123612	-0.98868
C	716.219	-0.983113	-1.06853
H	717.305	0.794757	-1.36349
H	715.374	-0.459028	-1.56688
H	715.888	-1.29216	-0.0504953
H	716.453	-1.9042	-1.65011
