44
  This energy is 0 and Call times are: 213729
C	-1.41156	-2.98559	-1.09839
C	-0.646288	-2.1915	-0.111007
O	-0.382143	-2.64173	0.995308
H	-1.67998	-3.96742	-0.651356
H	-0.798085	-3.16017	-2.00719
H	-2.34387	-2.45158	-1.37898
N	-0.269393	-0.969938	-0.495869
C	0.443575	-0.0637919	0.369656
C	0.0993437	1.35465	-0.0439549
O	-0.5372	1.57375	-1.0728
H	-0.527227	-0.601901	-1.38465
H	0.0981766	-0.195831	1.38745
C	1.9673	-0.299285	0.28
H	2.32387	-0.153626	-0.761959
H	2.52662	0.383093	0.952348
H	2.19519	-1.34561	0.579375
N	0.508192	2.35676	0.758953
C	0.222048	3.73819	0.449193
H	1.0186	2.15937	1.58937
H	0.640885	4.4111	1.22957
H	-0.877548	3.90849	0.392977
H	0.665821	4.02087	-0.532793
C	874.241	-0.361857	0.127241
C	875.517	0.162382	0.663818
O	875.532	1.00256	1.55279
H	873.392	0.138464	0.642811
H	874.173	-1.45614	0.302348
H	874.171	-0.156927	-0.961868
N	876.634	-0.3295	0.123836
C	877.95	0.114468	0.511648
C	878.877	-0.0575643	-0.677109
O	878.505	-0.65816	-1.68356
H	876.605	-0.982759	-0.62734
H	877.916	1.17158	0.744002
C	878.469	-0.690105	1.72357
H	878.514	-1.77352	1.48221
H	879.476	-0.348261	2.04048
H	877.771	-0.555932	2.57896
N	880.111	0.477093	-0.590483
C	881.06	0.368289	-1.67412
H	880.392	0.963016	0.230497
H	882.016	0.871537	-1.4114
H	880.656	0.842411	-2.59822
H	881.276	-0.700693	-1.90093
