44
  This energy is 0 and Call times are: 208409
C	-0.907337	2.40641	-2.34491
C	-0.387172	1.06799	-1.98549
O	-0.246044	0.195629	-2.83136
H	-1.1346	2.43215	-3.43283
H	-0.149415	3.18527	-2.11758
H	-1.83809	2.6201	-1.77822
N	-0.0879277	0.873418	-0.699034
C	0.387282	-0.389021	-0.19013
C	-0.0388271	-0.504473	1.2613
O	-0.533243	0.454619	1.85072
H	-0.246827	1.57999	-0.0153832
H	-0.0910951	-1.19543	-0.731874
C	1.92345	-0.490407	-0.313177
H	2.415	0.330546	0.25114
H	2.30025	-1.4637	0.0626451
H	2.21304	-0.395386	-1.3825
N	0.136695	-1.69294	1.87186
C	-0.243995	-1.8983	3.24993
H	0.534617	-2.45846	1.37719
H	-0.0205007	-2.94029	3.56856
H	-1.33446	-1.716	3.38753
H	0.309798	-1.20047	3.91887
C	495.574	-1.30981	-2.42436
C	496.548	-0.299776	-1.95365
O	497.048	0.506386	-2.72644
H	495.429	-1.19675	-3.52067
H	494.598	-1.166	-1.91549
H	495.952	-2.33277	-2.21567
N	496.846	-0.323907	-0.652492
C	497.809	0.567959	-0.0551437
C	498.418	-0.129395	1.14683
O	497.957	-1.1925	1.55825
H	496.463	-1.01242	-0.04368
H	498.61	0.753504	-0.760144
C	497.142	1.89504	0.368918
H	496.328	1.70616	1.10021
H	497.876	2.59576	0.817691
H	496.697	2.38401	-0.52485
N	499.48	0.453421	1.736
C	500.129	-0.13986	2.88215
H	499.841	1.31152	1.38615
H	500.981	0.488983	3.22078
H	500.518	-1.1533	2.63215
H	499.412	-0.244583	3.72872
