44
  This energy is 0.5451 and Call times are: 220071
C	2.60561	1.32546	1.88855
C	1.18877	1.29829	1.4608
O	0.336892	1.94846	2.0507
H	2.70757	1.98161	2.78015
H	3.24399	1.72559	1.073
H	2.94466	0.302114	2.15482
N	0.901414	0.529509	0.407814
C	-0.438782	0.367773	-0.0984239
C	-0.537927	-1.0007	-0.74574
O	0.465599	-1.68963	-0.918985
H	1.5986	-0.0257675	-0.0365592
H	-1.13754	0.384764	0.728667
C	-0.780473	1.47552	-1.11891
H	-0.0703156	1.45177	-1.97281
H	-1.81478	1.37003	-1.5057
H	-0.693701	2.46829	-0.625721
N	-1.76087	-1.43167	-1.11276
C	-1.95328	-2.72276	-1.73101
H	-2.5615	-0.861647	-0.960627
H	-3.02866	-2.89372	-1.95805
H	-1.60375	-3.53742	-1.05615
H	-1.3784	-2.7924	-2.68275
C	991.911	3.1106	0.880657
C	992.967	2.07484	0.934631
O	994.066	2.3157	1.41523
H	992.304	4.05808	1.30971
H	991.028	2.7876	1.47077
H	991.606	3.29178	-0.171626
N	992.652	0.879078	0.431458
C	993.589	-0.215565	0.374258
C	993.217	-1.09517	-0.804511
O	992.167	-0.91434	-1.41874
H	991.767	0.710334	0.00656963
H	994.581	0.173288	0.185893
C	993.566	-1.03017	1.68618
H	992.55	-1.43814	1.87446
H	994.293	-1.86772	1.65989
H	993.833	-0.364828	2.53598
N	994.079	-2.06949	-1.15445
C	993.812	-2.95204	-2.26621
H	994.925	-2.19767	-0.647876
H	994.64	-3.68448	-2.39434
H	993.708	-2.37215	-3.2118
H	992.866	-3.5167	-2.10143
