44
  This energy is 0 and Call times are: 202809
C	2.80895	-0.794644	-1.89501
C	1.96548	0.172696	-1.15747
O	2.36889	1.29921	-0.903214
H	3.79079	-0.326126	-2.12379
H	2.31727	-1.08236	-2.84801
H	2.97889	-1.70229	-1.27825
N	0.755266	-0.25468	-0.789906
C	-0.161877	0.55714	-0.0294075
C	-1.04269	-0.366384	0.790855
O	-1.01704	-1.58279	0.613646
H	0.45681	-1.18793	-0.968331
H	0.396751	1.17155	0.665622
C	-1.02164	1.43875	-0.961505
H	-1.60298	0.808448	-1.66776
H	-1.72234	2.07875	-0.387099
H	-0.356029	2.10055	-1.5576
N	-1.84185	0.193957	1.72004
C	-2.71054	-0.606059	2.55163
H	-1.84565	1.17974	1.85157
H	-3.28658	0.0377401	3.25228
H	-2.1184	-1.33461	3.15151
H	-3.43339	-1.17962	1.92741
C	94.9281	-1.5047	1.47154
C	96.2867	-0.921575	1.54469
O	96.8133	-0.676623	2.62132
H	94.5295	-1.63735	2.50078
H	94.963	-2.4943	0.969316
H	94.2512	-0.828216	0.908373
N	96.8926	-0.680596	0.379696
C	98.1982	-0.075865	0.288932
C	98.2801	0.677736	-1.0252
O	97.3959	0.564837	-1.87208
H	96.4349	-0.84731	-0.488951
H	98.3119	0.649859	1.08457
C	99.3088	-1.14614	0.369472
H	99.1989	-1.88493	-0.45281
H	100.319	-0.69165	0.314635
H	99.2247	-1.69027	1.33548
N	99.3476	1.47619	-1.22265
C	99.508	2.23639	-2.44025
H	100.051	1.55772	-0.523975
H	100.448	2.83077	-2.41185
H	98.6538	2.93775	-2.58082
H	99.5477	1.55927	-3.32403
