44
  This energy is 0.1328 and Call times are: 222637
C	0.938242	2.21333	-2.51665
C	0.0509943	1.16234	-1.96953
O	-1.00535	0.877685	-2.51681
H	0.471483	2.65154	-3.42549
H	1.92204	1.77849	-2.79199
H	1.087	3.01768	-1.76566
N	0.467569	0.554345	-0.856341
C	-0.307132	-0.457957	-0.182811
C	0.0404709	-0.415459	1.29331
O	0.973677	0.273484	1.70098
H	1.31012	0.825428	-0.399728
H	-1.35993	-0.221181	-0.273228
C	-0.0144767	-1.85696	-0.767954
H	1.06359	-2.10473	-0.665913
H	-0.615292	-2.64342	-0.266937
H	-0.268644	-1.86253	-1.85041
N	-0.713423	-1.15021	2.13462
C	-0.460653	-1.16774	3.55658
H	-1.46684	-1.69811	1.78642
H	-1.18696	-1.83023	4.07698
H	-0.551999	-0.143105	3.98442
H	0.567834	-1.53988	3.76841
C	993.036	0.642134	-0.619147
C	994.354	0.0992613	-1.01813
O	994.473	-0.609922	-2.0077
H	992.261	0.284204	-1.33089
H	993.057	1.75204	-0.639172
H	992.773	0.296042	0.402679
N	995.39	0.424712	-0.241127
C	996.726	-0.06232	-0.476741
C	997.448	-0.126831	0.856105
O	996.945	0.357196	1.86848
H	995.27	0.969233	0.584116
H	996.675	-1.07186	-0.865132
C	997.484	0.858094	-1.45872
H	997.545	1.89152	-1.0559
H	998.509	0.486099	-1.65903
H	996.933	0.896636	-2.4242
N	998.648	-0.738348	0.888161
C	999.406	-0.852606	2.11253
H	999.037	-1.12753	0.0594347
H	1000.36	-1.38755	1.93333
H	998.828	-1.41621	2.88069
H	999.639	0.15527	2.52627
