44
  This energy is 0 and Call times are: 204825
C	0.258194	-3.0942	1.57224
C	0.208515	-2.24975	0.357506
O	0.48364	-2.70726	-0.743133
H	0.584719	-4.11968	1.29357
H	-0.747254	-3.15178	2.03968
H	0.981292	-2.6727	2.30201
N	-0.147749	-0.975385	0.534821
C	-0.199772	-0.0216061	-0.545067
C	0.0701843	1.3569	0.0279956
O	0.121599	1.53462	1.24351
H	-0.329036	-0.60739	1.44234
H	0.592054	-0.238069	-1.25132
C	-1.57539	-0.0566274	-1.24627
H	-2.38718	0.175746	-0.524437
H	-1.62329	0.663646	-2.08855
H	-1.75522	-1.07658	-1.65087
N	0.258421	2.36946	-0.841091
C	0.526497	3.71448	-0.388045
H	0.217107	2.20523	-1.82109
H	0.651781	4.40302	-1.25259
H	1.45813	3.74503	0.222197
H	-0.311428	4.09134	0.242034
C	240.978	-0.266825	3.39419
C	241.872	0.114981	2.2781
O	242.876	0.787241	2.47248
H	241.369	0.163519	4.34174
H	240.938	-1.37213	3.49122
H	239.955	0.126112	3.21625
N	241.52	-0.311491	1.06298
C	242.267	0.0158398	-0.12619
C	241.306	0.0229081	-1.30057
O	240.152	-0.38167	-1.17285
H	240.679	-0.82323	0.914906
H	242.668	1.01714	-0.0316953
C	243.403	-1.00309	-0.362142
H	242.991	-2.02907	-0.469666
H	243.994	-0.754024	-1.26731
H	244.089	-0.996966	0.512933
N	241.762	0.494395	-2.47796
C	240.918	0.544753	-3.6493
H	242.698	0.821198	-2.56066
H	241.474	0.963707	-4.51673
H	240.026	1.18476	-3.46317
H	240.561	-0.475083	-3.9208
