44
  This energy is 0 and Call times are: 208717
C	-1.76759	0.89302	-2.86196
C	-1.14415	-0.116899	-1.97735
O	-1.34704	-1.31224	-2.13983
H	-2.40693	0.379315	-3.61245
H	-0.983621	1.47204	-3.39382
H	-2.39861	1.58602	-2.26643
N	-0.35969	0.350589	-1.00347
C	0.281426	-0.506795	-0.0378481
C	0.464853	0.280722	1.24579
O	0.241578	1.4893	1.28055
H	-0.236887	1.32824	-0.858595
H	-0.370191	-1.34208	0.186486
C	1.64372	-1.00887	-0.564439
H	2.31633	-0.152666	-0.784765
H	2.14104	-1.6812	0.164379
H	1.48621	-1.5754	-1.50815
N	0.870789	-0.392931	2.34006
C	1.06713	0.271732	3.60729
H	1.04244	-1.37141	2.29327
H	1.4012	-0.451799	4.38325
H	0.119692	0.744611	3.95374
H	1.83863	1.07033	3.51688
C	516.81	-0.110939	1.93548
C	517.548	-0.373131	0.679535
O	517.069	-1.07293	-0.202039
H	515.837	-0.649349	1.90925
H	516.615	0.976689	2.04523
H	517.396	-0.471137	2.80664
N	518.753	0.191257	0.570569
C	519.607	-0.00709761	-0.573465
C	521.048	0.127959	-0.11688
O	521.315	0.526925	1.01502
H	519.146	0.724738	1.31373
H	519.48	-1.01658	-0.943962
C	519.292	1.02067	-1.68234
H	519.433	2.05625	-1.30586
H	519.934	0.86955	-2.57419
H	518.231	0.909007	-1.9954
N	522.015	-0.212075	-0.991102
C	523.414	-0.121528	-0.643262
H	521.78	-0.536689	-1.90107
H	524.053	-0.445356	-1.49444
H	523.644	-0.769591	0.233453
H	523.687	0.925918	-0.378985
