44
  This energy is 0 and Call times are: 212553
C	2.0965	-2.77191	0.184142
C	1.40436	-1.70991	-0.580219
O	1.67954	-1.49166	-1.75199
H	2.85311	-3.26003	-0.467893
H	1.36678	-3.53708	0.522919
H	2.61044	-2.33536	1.0664
N	0.475997	-1.0131	0.0793069
C	-0.251252	0.0792287	-0.517754
C	-0.640462	1.04665	0.584137
O	-0.477135	0.752896	1.76682
H	0.292022	-1.1752	1.04458
H	0.400163	0.611837	-1.19938
C	-1.50675	-0.432716	-1.25726
H	-2.1804	-0.97007	-0.556201
H	-2.06784	0.397532	-1.73307
H	-1.19872	-1.14494	-2.05362
N	-1.16031	2.23487	0.218184
C	-1.5547	3.22106	1.19699
H	-1.28101	2.45605	-0.74389
H	-1.95831	4.13001	0.69886
H	-0.6843	3.52222	1.82387
H	-2.34124	2.81235	1.87187
C	792.565	0.40863	-3.26443
C	793.296	-0.348938	-2.22442
O	793.677	-1.49386	-2.42554
H	792.436	-0.232488	-4.16343
H	793.136	1.31684	-3.54969
H	791.563	0.705431	-2.88802
N	793.51	0.284452	-1.06877
C	794.17	-0.337377	0.0521189
C	793.645	0.301296	1.32404
O	792.925	1.29709	1.27798
H	793.158	1.20167	-0.90546
H	793.905	-1.38691	0.0851172
C	795.702	-0.167905	-0.0461904
H	795.975	0.908742	-0.0694489
H	796.222	-0.654472	0.804044
H	796.063	-0.635553	-0.988062
N	793.988	-0.266474	2.49686
C	793.531	0.268427	3.75827
H	794.568	-1.07428	2.51365
H	793.92	-0.337227	4.60632
H	792.418	0.264616	3.80633
H	793.879	1.31879	3.88888
