44
  This energy is 0 and Call times are: 207821
C	-2.78563	-2.0683	-0.274058
C	-2.13962	-0.737726	-0.332337
O	-2.72509	0.230337	-0.797621
H	-3.80306	-2.00234	-0.717179
H	-2.87397	-2.40498	0.780258
H	-2.19032	-2.80826	-0.849526
N	-0.895302	-0.660733	0.145276
C	-0.122002	0.55573	0.117274
C	1.34621	0.181225	0.0420439
O	1.70618	-0.986349	0.179531
H	-0.417073	-1.4663	0.48324
H	-0.360079	1.10974	-0.782181
C	-0.398312	1.41409	1.37112
H	-0.144278	0.849959	2.29376
H	0.18084	2.36004	1.35463
H	-1.47977	1.66962	1.40991
N	2.23266	1.16978	-0.188129
C	3.64996	0.90759	-0.281348
H	1.92184	2.10774	-0.300768
H	4.21198	1.84786	-0.47438
H	3.86386	0.194915	-1.11057
H	4.02995	0.459804	0.665353
C	456.629	2.73539	1.9409
C	456.665	1.28995	1.62382
O	457.465	0.542092	2.16934
H	457.418	2.96715	2.68917
H	455.64	3.00956	2.36462
H	456.817	3.33311	1.02406
N	455.786	0.859111	0.716835
C	455.729	-0.511626	0.27366
C	455.199	-0.527536	-1.1479
O	454.749	0.49382	-1.66385
H	455.168	1.48717	0.251451
H	456.731	-0.920953	0.249091
C	454.822	-1.35335	1.19858
H	453.791	-0.940029	1.21589
H	454.782	-2.41387	0.875865
H	455.224	-1.32091	2.23477
N	455.249	-1.69419	-1.82056
C	454.773	-1.80378	-3.17981
H	455.62	-2.50892	-1.3876
H	454.899	-2.84214	-3.55816
H	455.337	-1.11556	-3.85023
H	453.693	-1.53694	-3.24079
