44
  This energy is 0 and Call times are: 209613
C	0.0451507	3.21686	-1.32758
C	0.356033	2.24519	-0.255037
O	1.09506	2.54219	0.673424
H	0.589569	4.16623	-1.1322
H	-1.04504	3.4259	-1.35038
H	0.364991	2.81529	-2.31223
N	-0.209923	1.04086	-0.363021
C	0.0318126	-0.0229018	0.579601
C	-0.130376	-1.34471	-0.147078
O	-0.578244	-1.38345	-1.29147
H	-0.776474	0.800675	-1.14609
H	1.05673	0.0317689	0.924825
C	-0.946466	0.0633105	1.77157
H	-1.99778	-0.00332979	1.41895
H	-0.761395	-0.742309	2.51133
H	-0.815815	1.04165	2.28355
N	0.240889	-2.46528	0.502947
C	0.127993	-3.76782	-0.110913
H	0.604936	-2.41335	1.42698
H	0.483915	-4.56147	0.582375
H	0.737187	-3.81716	-1.04243
H	-0.931169	-3.98545	-0.379155
C	583.037	1.07477	3.24312
C	583.421	1.33395	1.83719
O	583.473	2.47336	1.39518
H	582.813	2.04025	3.74662
H	583.869	0.573624	3.78085
H	582.132	0.43162	3.28051
N	583.7	0.26258	1.091
C	584.046	0.352403	-0.305498
C	583.611	-0.932704	-0.984443
O	583.216	-1.89123	-0.323902
H	583.612	-0.660869	1.45364
H	583.489	1.16202	-0.760502
C	585.565	0.572105	-0.48388
H	586.136	-0.26353	-0.0264836
H	585.842	0.656776	-1.55449
H	585.862	1.51366	0.0275039
N	583.668	-0.978893	-2.33008
C	583.269	-2.15776	-3.06321
H	583.987	-0.191733	-2.84738
H	583.387	-1.99892	-4.15775
H	582.202	-2.40566	-2.85833
H	583.89	-3.0338	-2.76669
