44
  This energy is 0 and Call times are: 206337
C	3.18784	1.3821	0.200469
C	1.90057	1.17103	-0.499198
O	1.59985	1.83111	-1.48422
H	3.7498	2.19871	-0.302743
H	3.79702	0.454376	0.169203
H	3.00619	1.66933	1.25763
N	1.09816	0.230777	0.00522203
C	-0.204377	-0.0591976	-0.540555
C	-1.08118	-0.583351	0.581068
O	-0.602751	-0.851977	1.68137
H	1.33895	-0.269863	0.831809
H	-0.653733	0.858411	-0.899311
C	-0.106352	-1.09614	-1.6809
H	0.3449	-2.04138	-1.31086
H	-1.10126	-1.31749	-2.11872
H	0.54621	-0.694816	-2.48678
N	-2.39633	-0.733668	0.328471
C	-3.30877	-1.22104	1.33649
H	-2.76552	-0.507113	-0.566761
H	-4.34521	-1.27399	0.936212
H	-3.30982	-0.547526	2.22399
H	-3.01149	-2.2395	1.67636
C	352.869	-0.720194	-1.24525
C	351.585	-1.13033	-0.633369
O	351.276	-2.31037	-0.541159
H	353.421	-1.62452	-1.58293
H	353.491	-0.176754	-0.502787
H	352.683	-0.0645229	-2.12192
N	350.795	-0.146853	-0.196583
C	349.497	-0.387096	0.38251
C	348.626	0.825591	0.111741
O	349.108	1.85327	-0.361461
H	351.042	0.810585	-0.315732
H	349.035	-1.23233	-0.112907
C	349.609	-0.644726	1.90114
H	350.073	0.226431	2.41131
H	348.618	-0.844787	2.35628
H	350.257	-1.53147	2.076
N	347.313	0.729846	0.400103
C	346.407	1.83073	0.170932
H	346.942	-0.11139	0.778616
H	345.372	1.55656	0.470883
H	346.396	2.11308	-0.906773
H	346.717	2.72455	0.758974
