44
  This energy is -3.9365 and Call times are: 225526
C	-1.07656	-2.72854	-1.87317
C	-1.10958	-1.89069	-0.653314
O	-1.98081	-2.03831	0.192605
H	-1.93768	-3.43151	-1.85934
H	-0.134467	-3.31496	-1.90929
H	-1.14888	-2.08949	-2.77842
N	-0.144932	-0.975241	-0.535854
C	-0.0699291	-0.0578432	0.573793
C	0.612517	1.20946	0.0944487
O	1.13885	1.26009	-1.01556
H	0.533381	-0.839472	-1.25232
H	-1.07216	0.212387	0.882252
C	0.710149	-0.680299	1.75246
H	1.74182	-0.948029	1.4394
H	0.762928	0.0111634	2.61827
H	0.197328	-1.61038	2.08157
N	0.611668	2.27196	0.923368
C	1.23194	3.52197	0.550628
H	0.177077	2.21301	1.81596
H	1.12534	4.2721	1.36497
H	0.760451	3.93514	-0.370383
H	2.31763	3.37677	0.347312
C	995.507	3.10625	-1.42568
C	995.221	2.24238	-0.258062
O	995.337	2.66385	0.884495
H	995.833	4.10791	-1.07046
H	994.594	3.22474	-2.04645
H	996.317	2.66193	-2.04135
N	994.838	0.991791	-0.524814
C	994.566	0.021473	0.506397
C	994.859	-1.35793	-0.0533394
O	995.097	-1.51476	-1.24929
H	994.788	0.651128	-1.45933
H	995.243	0.183086	1.33602
C	993.099	0.114219	0.978804
H	992.404	-0.061944	0.13016
H	992.881	-0.618613	1.78259
H	992.905	1.13417	1.377
N	994.855	-2.39534	0.806772
C	995.128	-3.7435	0.36607
H	994.664	-2.24799	1.77159
H	995.079	-4.45405	1.22044
H	996.143	-3.81055	-0.0876096
H	994.386	-4.06434	-0.400163
