44
  This energy is 0 and Call times are: 211685
C	3.02149	1.30143	-1.13558
C	1.90947	0.327756	-1.21621
O	1.78246	-0.40933	-2.18419
H	3.6365	1.23391	-2.0592
H	3.66423	1.07656	-0.258613
H	2.62096	2.33317	-1.04518
N	1.06416	0.305427	-0.183099
C	-0.0900159	-0.557314	-0.137011
C	-1.14892	0.1145	0.716774
O	-0.887765	1.12771	1.36247
H	1.15712	0.93994	0.578884
H	-0.498254	-0.661422	-1.13457
C	0.277598	-1.93995	0.444725
H	0.686644	-1.83462	1.47216
H	-0.599825	-2.61809	0.472568
H	1.05946	-2.4096	-0.191259
N	-2.37979	-0.433874	0.732734
C	-3.45258	0.13921	1.51176
H	-2.57297	-1.25145	0.200459
H	-4.38541	-0.454969	1.39341
H	-3.65925	1.18454	1.18641
H	-3.18512	0.160674	2.59303
C	730.574	2.70876	1.87269
C	731.229	1.38664	1.75741
O	731.831	0.894019	2.70164
H	730.748	3.11768	2.8916
H	729.48	2.60937	1.70781
H	730.998	3.41251	1.12557
N	731.127	0.774498	0.575379
C	731.748	-0.49646	0.297755
C	732.054	-0.559344	-1.18694
O	731.628	0.301782	-1.95447
H	730.669	1.20651	-0.196168
H	732.693	-0.554849	0.824136
C	730.825	-1.66379	0.710585
H	729.86	-1.61033	0.16303
H	731.298	-2.64788	0.514612
H	730.609	-1.59315	1.7989
N	732.811	-1.5836	-1.62668
C	733.158	-1.72278	-3.02189
H	733.15	-2.26833	-0.989786
H	733.785	-2.62696	-3.18289
H	733.728	-0.833177	-3.37565
H	732.241	-1.81634	-3.64736
