44
  This energy is 0 and Call times are: 209753
C	-1.91286	-2.56069	-1.37715
C	-0.638367	-2.02722	-0.845892
O	0.306688	-2.76634	-0.607186
H	-1.83414	-3.66475	-1.4807
H	-2.12608	-2.12055	-2.37392
H	-2.74616	-2.3234	-0.6826
N	-0.585254	-0.708604	-0.643892
C	0.571607	-0.0492593	-0.0911744
C	0.102645	1.1938	0.641241
O	-1.06255	1.57583	0.551293
H	-1.37652	-0.125494	-0.804334
H	1.03723	-0.698144	0.640106
C	1.57728	0.323973	-1.20228
H	1.10319	0.998139	-1.94712
H	2.47881	0.81995	-0.787839
H	1.90073	-0.599772	-1.72994
N	1.00439	1.85282	1.39528
C	0.647974	3.04261	2.13255
H	1.94151	1.52599	1.45891
H	1.52557	3.43711	2.6906
H	-0.162878	2.82304	2.86438
H	0.284294	3.83826	1.44275
C	594.194	-1.53905	-3.0822
C	593.36	-1.22855	-1.8994
O	592.165	-1.49052	-1.88099
H	593.557	-1.99557	-3.87096
H	594.996	-2.25645	-2.80749
H	594.651	-0.609709	-3.48264
N	593.983	-0.650958	-0.869281
C	593.296	-0.250663	0.333441
C	594.04	0.926909	0.933753
O	595.134	1.27303	0.490236
H	594.947	-0.406656	-0.914983
H	592.301	0.092641	0.0791331
C	593.225	-1.41768	1.34253
H	594.245	-1.76329	1.61181
H	592.686	-1.12611	2.26731
H	592.683	-2.27091	0.879236
N	593.457	1.57886	1.95875
C	594.088	2.71443	2.58963
H	592.57	1.28647	2.30109
H	593.452	3.11215	3.4108
H	594.257	3.53073	1.85045
H	595.076	2.42719	3.01844
