44
  This energy is 0 and Call times are: 208829
C	2.96152	-0.18144	-1.81912
C	1.64523	0.430794	-1.52981
O	1.31695	1.49478	-2.03633
H	3.53038	0.479438	-2.50869
H	2.82508	-1.17203	-2.30167
H	3.54097	-0.304696	-0.879895
N	0.850439	-0.239078	-0.691979
C	-0.441747	0.251162	-0.281516
C	-0.738507	-0.297849	1.10126
O	-0.016249	-1.15475	1.607
H	1.14816	-1.08344	-0.255759
H	-0.404711	1.33026	-0.199025
C	-1.53777	-0.178257	-1.2813
H	-1.5833	-1.28552	-1.35837
H	-2.53535	0.204854	-0.983648
H	-1.29594	0.227831	-2.28776
N	-1.81171	0.193059	1.75186
C	-2.16898	-0.265362	3.07413
H	-2.38175	0.889048	1.32792
H	-3.08039	0.257682	3.43877
H	-1.34144	-0.0707142	3.79425
H	-2.37157	-1.36084	3.06894
C	526.208	-3.14429	0.00967906
C	527.387	-2.26069	0.154444
O	528.443	-2.68284	0.605033
H	526.463	-4.16095	0.379847
H	525.911	-3.21458	-1.0579
H	525.358	-2.74848	0.604211
N	527.228	-0.991887	-0.229409
C	528.271	-0.00339516	-0.10905
C	527.617	1.3551	0.060873
O	526.404	1.4931	-0.0852188
H	526.35	-0.65314	-0.555942
H	528.846	-0.198718	0.787061
C	529.186	-0.0122636	-1.35325
H	528.597	0.198499	-2.27163
H	530.001	0.735117	-1.26652
H	529.647	-1.01809	-1.46245
N	528.411	2.39491	0.384125
C	527.877	3.72383	0.571668
H	529.39	2.26271	0.5021
H	528.687	4.43981	0.832987
H	527.124	3.73228	1.39242
H	527.379	4.08206	-0.358092
