44
  This energy is 0 and Call times are: 203593
C	2.99818	-1.76244	-0.131998
C	1.52476	-1.68649	-0.252051
O	0.880689	-2.60765	-0.734814
H	3.35143	-2.72973	-0.550856
H	3.29884	-1.70168	0.935078
H	3.47148	-0.931906	-0.697052
N	0.950275	-0.565592	0.190586
C	-0.468875	-0.327642	0.101398
C	-0.69204	1.1696	0.00130329
O	0.236884	1.95741	0.169139
H	1.49176	0.192174	0.54337
H	-0.849023	-0.772073	-0.809974
C	-1.20323	-0.903482	1.332
H	-0.820933	-0.440174	2.26647
H	-2.29839	-0.738825	1.26849
H	-1.01946	-1.99858	1.38982
N	-1.93708	1.59845	-0.285024
C	-2.24308	3.00486	-0.405604
H	-2.67482	0.945612	-0.421486
H	-3.31904	3.15412	-0.644859
H	-1.63608	3.47088	-1.21533
H	-2.01783	3.53909	0.545716
C	155.341	-0.640106	-3.00189
C	154.127	-0.638235	-2.15483
O	153.021	-0.848286	-2.63329
H	155.052	-0.834356	-4.0576
H	156.039	-1.43622	-2.66818
H	155.849	0.345373	-2.94406
N	154.31	-0.39429	-0.855149
C	153.221	-0.317501	0.0864443
C	153.632	0.616995	1.20894
O	154.786	1.02988	1.29426
H	155.212	-0.184647	-0.487536
H	152.359	0.121411	-0.39976
C	152.875	-1.71524	0.644778
H	153.756	-2.16154	1.15288
H	152.029	-1.67135	1.36058
H	152.586	-2.38438	-0.194718
N	152.685	0.980681	2.09701
C	152.982	1.87078	3.19522
H	151.755	0.639447	2.00904
H	152.074	2.04914	3.81284
H	153.347	2.85309	2.8171
H	153.772	1.4375	3.85007
