44
  This energy is 0 and Call times are: 206673
C	-1.19932	3.16843	0.797096
C	-1.30498	1.87699	0.0814509
O	-2.33449	1.55556	-0.49578
H	-2.1656	3.7124	0.717825
H	-0.398257	3.79128	0.346426
H	-0.972122	2.99395	1.86996
N	-0.223545	1.09451	0.106345
C	-0.188783	-0.209323	-0.507955
C	0.803401	-1.06579	0.255974
O	1.53319	-0.571387	1.11311
H	0.593133	1.35187	0.614941
H	-1.16078	-0.676465	-0.409845
C	0.215741	-0.107945	-1.99501
H	1.21744	0.361636	-2.09562
H	0.232667	-1.10407	-2.48282
H	-0.519585	0.529627	-2.53273
N	0.847018	-2.38117	-0.0336634
C	1.75554	-3.27507	0.645834
H	0.24575	-2.76349	-0.727481
H	1.64024	-4.31488	0.268029
H	1.55826	-3.27671	1.74235
H	2.81163	-2.95865	0.485539
C	374.121	3.44722	0.228342
C	374.538	2.0603	0.534788
O	375.628	1.82317	1.03683
H	374.939	4.14666	0.507814
H	373.21	3.70973	0.806507
H	373.913	3.55321	-0.857241
N	373.664	1.0974	0.231642
C	373.944	-0.302607	0.431427
C	373.156	-1.09407	-0.594892
O	372.311	-0.545461	-1.2996
H	372.798	1.30279	-0.214298
H	374.995	-0.486944	0.243355
C	373.565	-0.742483	1.86247
H	372.485	-0.563336	2.05232
H	373.789	-1.81541	2.03318
H	374.148	-0.144838	2.59678
N	373.422	-2.41019	-0.708763
C	372.726	-3.24257	-1.6618
H	374.112	-2.8353	-0.132572
H	373.086	-4.29339	-1.60307
H	372.89	-2.87324	-2.69996
H	371.63	-3.23555	-1.46265
