44
  This energy is 0 and Call times are: 210705
C	2.12504	1.6975	-2.17149
C	0.934928	1.63895	-1.29323
O	0.327351	2.65403	-0.982004
H	2.33197	2.75638	-2.43952
H	1.9426	1.12027	-3.10222
H	3.00967	1.28048	-1.64554
N	0.571891	0.427404	-0.86574
C	-0.538785	0.215319	0.0286754
C	-0.260726	-1.03636	0.839566
O	0.688116	-1.76786	0.56332
H	1.10071	-0.384952	-1.09443
H	-0.600532	1.04309	0.724097
C	-1.86003	0.068775	-0.757507
H	-1.80097	-0.786825	-1.46355
H	-2.72482	-0.0811699	-0.0791504
H	-2.03919	0.99273	-1.34959
N	-1.08323	-1.30818	1.87186
C	-0.893273	-2.47407	2.70299
H	-1.84317	-0.702157	2.08236
H	-1.67064	-2.52181	3.49712
H	0.107049	-2.44847	3.19286
H	-0.955884	-3.40508	2.09435
C	664.069	-2.52662	-0.343993
C	663.246	-1.42763	-0.897333
O	663.454	-0.983479	-2.01798
H	664.845	-2.81317	-1.08584
H	663.432	-3.41096	-0.130209
H	664.569	-2.19675	0.590901
N	662.278	-0.955987	-0.108299
C	661.423	0.140249	-0.490966
C	660.98	0.857507	0.770442
O	661.216	0.383566	1.88015
H	662.147	-1.30005	0.817114
H	661.992	0.847531	-1.08141
C	660.198	-0.365862	-1.2842
H	659.608	-1.08348	-0.675031
H	659.54	0.470264	-1.59655
H	660.546	-0.894208	-2.19865
N	660.331	2.0297	0.628034
C	659.877	2.78596	1.77165
H	660.153	2.39909	-0.27802
H	659.366	3.71956	1.44805
H	660.735	3.06455	2.4246
H	659.161	2.18701	2.37973
