44
  This energy is 0 and Call times are: 209193
C	-1.12881	1.1074	-3.10034
C	-1.34072	0.814271	-1.66497
O	-2.35108	1.18758	-1.08512
H	-1.98988	1.69525	-3.48618
H	-1.0522	0.161612	-3.67685
H	-0.199412	1.69958	-3.23684
N	-0.37383	0.129057	-1.05016
C	-0.417563	-0.194031	0.354213
C	1.00886	-0.299108	0.860014
O	1.95736	-0.280805	0.0778867
H	0.461377	-0.132392	-1.52549
H	-0.891852	0.616938	0.89274
C	-1.17543	-1.51849	0.592266
H	-0.683148	-2.35277	0.0485028
H	-1.22797	-1.77114	1.67112
H	-2.21406	-1.42131	0.207361
N	1.19431	-0.403891	2.19067
C	2.51622	-0.503386	2.76412
H	0.414544	-0.412848	2.80789
H	2.45936	-0.581055	3.87225
H	3.12469	0.393634	2.50643
H	3.04628	-1.40318	2.3761
C	555.571	-1.28292	2.63916
C	555.374	-0.330826	1.52295
O	556.113	0.633386	1.37579
H	556.434	-0.950981	3.25733
H	555.783	-2.29842	2.24319
H	554.663	-1.317	3.27763
N	554.355	-0.584261	0.699599
C	554.011	0.275038	-0.406026
C	552.521	0.14579	-0.660807
O	551.857	-0.714856	-0.0870769
H	553.738	-1.35017	0.856225
H	554.204	1.30469	-0.131213
C	554.812	-0.106456	-1.67041
H	554.607	-1.15948	-1.95888
H	554.567	0.556863	-2.52506
H	555.899	-0.0122734	-1.4585
N	551.958	1.01026	-1.52755
C	550.546	0.966669	-1.82836
H	552.512	1.70237	-1.97888
H	550.276	1.75758	-2.56226
H	549.943	1.12429	-0.905095
H	550.266	-0.0219632	-2.25902
