44
  This energy is 0 and Call times are: 212133
C	3.1513	-1.46387	-0.197637
C	1.71579	-1.40762	-0.554399
O	1.25769	-2.10662	-1.44768
H	3.66705	-2.18958	-0.863393
H	3.27124	-1.79429	0.85554
H	3.61711	-0.464118	-0.326501
N	0.96279	-0.557303	0.147268
C	-0.441532	-0.360285	-0.112774
C	-0.803774	1.05566	0.293965
O	-0.00206299	1.76018	0.904391
H	1.35809	0.0347531	0.84374
H	-0.623383	-0.446778	-1.17677
C	-1.29592	-1.38318	0.667583
H	-1.11762	-1.28774	1.75989
H	-2.37846	-1.25071	0.464933
H	-1.00837	-2.41224	0.359848
N	-2.02627	1.51022	-0.0450068
C	-2.45694	2.84634	0.294838
H	-2.65959	0.926707	-0.54249
H	-3.49121	3.03099	-0.0704178
H	-1.78248	3.60508	-0.164163
H	-2.44301	2.99491	1.39886
C	765.41	-3.0266	0.171372
C	764.816	-1.90685	-0.593144
O	765.035	-1.77018	-1.78885
H	766.046	-3.63722	-0.505885
H	764.609	-3.67124	0.590484
H	766.039	-2.63432	0.998129
N	764.039	-1.06568	0.0934015
C	763.426	0.0948355	-0.503409
C	763.25	1.14502	0.577148
O	763.455	0.873462	1.75869
H	763.903	-1.16665	1.07482
H	764.094	0.507997	-1.24887
C	762.064	-0.264628	-1.13648
H	761.375	-0.678738	-0.369993
H	761.588	0.617823	-1.61149
H	762.216	-1.04022	-1.91857
N	762.871	2.37997	0.193016
C	762.684	3.4451	1.15036
H	762.714	2.5816	-0.768123
H	762.373	4.38293	0.63939
H	763.629	3.64514	1.70549
H	761.898	3.17299	1.89232
