44
  This energy is -3.9787 and Call times are: 224317
C	-2.7071	-1.78826	-1.25953
C	-2.02024	-1.05953	-0.169437
O	-2.6113	-0.750747	0.856097
H	-3.76903	-1.95634	-0.976804
H	-2.22023	-2.77169	-1.42855
H	-2.67456	-1.19394	-2.19699
N	-0.734671	-0.762084	-0.372459
C	0.0544137	-0.0188404	0.578064
C	1.13157	0.729753	-0.1841
O	1.3221	0.514756	-1.37959
H	-0.278447	-0.984087	-1.22945
H	-0.57176	0.720645	1.06149
C	0.687542	-0.960619	1.62565
H	1.33837	-1.71287	1.13111
H	1.28641	-0.398747	2.37143
H	-0.118559	-1.50376	2.16561
N	1.85998	1.63874	0.493539
C	2.903	2.40318	-0.149828
H	1.6883	1.80169	1.45948
H	3.3853	3.09697	0.573548
H	2.48722	3.00588	-0.989559
H	3.68643	1.72815	-0.564196
C	995.737	2.46963	1.28758
C	994.477	2.03288	0.644916
O	993.53	2.79753	0.524208
H	995.634	3.52625	1.61741
H	996.579	2.39847	0.567115
H	995.954	1.83622	2.17339
N	994.438	0.770135	0.213281
C	993.267	0.188455	-0.393563
C	993.28	-1.30275	-0.114862
O	994.266	-1.84047	0.386826
H	995.202	0.147759	0.355471
H	992.381	0.59625	0.0769439
C	993.243	0.454823	-1.91466
H	994.147	0.0274578	-2.39937
H	992.339	0.0237767	-2.39132
H	993.241	1.55199	-2.09513
N	992.176	-2.00785	-0.428523
C	992.095	-3.43082	-0.194231
H	991.387	-1.55437	-0.829957
H	991.108	-3.82753	-0.51798
H	992.227	-3.65867	0.88841
H	992.891	-3.96775	-0.759085
