44
  This energy is 0.116 and Call times are: 216035
C	2.64459	-0.0079922	2.26247
C	2.05526	0.331945	0.947832
O	2.62775	1.08637	0.173548
H	3.60874	0.532056	2.38346
H	2.83399	-1.10016	2.32607
H	1.95737	0.296009	3.08003
N	0.875934	-0.225772	0.664083
C	0.158542	0.0432853	-0.557194
C	-1.32404	-0.121806	-0.281033
O	-1.71763	-0.591527	0.784876
H	0.403004	-0.805406	1.32152
H	0.319915	1.07423	-0.846565
C	0.609194	-0.912294	-1.6837
H	0.434094	-1.96967	-1.39159
H	0.073945	-0.706029	-2.63317
H	1.6985	-0.780001	-1.8633
N	-2.18614	0.271536	-1.2392
C	-3.61522	0.15776	-1.06321
H	-1.84871	0.653053	-2.0934
H	-4.15321	0.533833	-1.96118
H	-3.95058	0.749097	-0.180522
H	-3.9076	-0.90454	-0.898368
C	997.213	2.91655	1.26873
C	996.412	1.6815	1.42494
O	996.084	1.27586	2.53123
H	997.441	3.33613	2.27272
H	996.644	3.67027	0.684785
H	998.168	2.6903	0.748914
N	996.077	1.04511	0.300109
C	995.337	-0.191955	0.293593
C	995.727	-0.970131	-0.948908
O	996.419	-0.453718	-1.82389
H	996.387	1.36531	-0.590634
H	995.627	-0.786462	1.1509
C	993.816	0.0753395	0.309739
H	993.516	0.676283	-0.575134
H	993.235	-0.869592	0.318887
H	993.554	0.65265	1.22334
N	995.295	-2.24259	-1.051
C	995.621	-3.062	-2.19485
H	994.739	-2.64428	-0.330785
H	995.175	-4.07564	-2.09258
H	996.725	-3.17382	-2.29599
H	995.234	-2.60087	-3.13201
