44
  This energy is 0 and Call times are: 209781
C	-3.13015	-1.01813	1.1306
C	-2.12963	-0.83322	0.0554605
O	-2.2883	-1.33313	-1.04967
H	-3.95766	-1.65905	0.755974
H	-3.54717	-0.0362182	1.43831
H	-2.66208	-1.51207	2.00811
N	-1.05733	-0.0995434	0.362472
C	0.0216231	0.13264	-0.565166
C	1.29528	0.339033	0.232807
O	1.25995	0.456221	1.45622
H	-0.922569	0.266612	1.27879
H	0.163372	-0.749935	-1.17639
C	-0.267872	1.36415	-1.45107
H	-0.402931	2.27187	-0.825101
H	0.549327	1.54518	-2.17903
H	-1.20819	1.19432	-2.01967
N	2.45871	0.380003	-0.445997
C	3.72169	0.567052	0.229335
H	2.46746	0.279167	-1.43535
H	4.56099	0.572007	-0.500582
H	3.9	-0.252342	0.962869
H	3.73217	1.53399	0.782562
C	592.288	0.484171	0.485884
C	593.65	0.993157	0.207986
O	593.832	2.14444	-0.163276
H	591.547	1.28835	0.284797
H	592.204	0.176059	1.54927
H	592.063	-0.383797	-0.169096
N	594.653	0.129874	0.382725
C	596.029	0.465899	0.111356
C	596.758	-0.806011	-0.277642
O	596.216	-1.90351	-0.16229
H	594.486	-0.815935	0.645886
H	596.072	1.13538	-0.738675
C	596.692	1.11472	1.34597
H	596.657	0.424164	2.21544
H	597.747	1.39071	1.14517
H	596.137	2.03914	1.61746
N	598.011	-0.685768	-0.758882
C	598.781	-1.84027	-1.15987
H	598.432	0.211117	-0.848713
H	599.785	-1.53486	-1.52801
H	598.262	-2.39422	-1.97555
H	598.919	-2.53789	-0.302292
