44
  This energy is 0 and Call times are: 210621
C	-0.544199	1.30066	3.18195
C	-0.795043	0.295762	2.12441
O	-1.41459	-0.731939	2.3619
H	-0.980068	0.942413	4.13984
H	-1.01774	2.26768	2.91106
H	0.547899	1.44921	3.31739
N	-0.308341	0.57499	0.91299
C	-0.435053	-0.325224	-0.205991
C	0.74241	-0.0944599	-1.13437
O	1.5067	0.85251	-0.958785
H	0.229176	1.39641	0.745013
H	-0.371246	-1.34656	0.148182
C	-1.76691	-0.0931611	-0.952671
H	-1.82827	0.951527	-1.32536
H	-1.88261	-0.789716	-1.80821
H	-2.61422	-0.259722	-0.252185
N	0.921195	-0.966454	-2.14614
C	2.01741	-0.830151	-3.07669
H	0.294604	-1.72884	-2.26955
H	1.99308	-1.64363	-3.8349
H	2.9941	-0.877806	-2.54276
H	1.96214	0.147098	-3.60874
C	658.412	1.00445	-1.93617
C	656.964	0.989305	-1.6299
O	656.19	1.75061	-2.19338
H	658.619	1.78987	-2.69528
H	658.728	0.0203968	-2.34209
H	658.995	1.22961	-1.01825
N	656.561	0.107668	-0.712036
C	655.19	0.00442546	-0.277683
C	655.184	-0.503049	1.152
O	656.218	-0.904572	1.68226
H	657.209	-0.477116	-0.232441
H	654.742	0.990208	-0.272008
C	654.391	-0.948323	-1.19392
H	654.844	-1.96255	-1.19185
H	653.33	-1.02547	-0.878078
H	654.416	-0.561683	-2.23614
N	654.011	-0.488525	1.81556
C	653.909	-0.947089	3.18143
H	653.186	-0.156124	1.37099
H	652.864	-0.855591	3.55038
H	654.57	-0.346181	3.84758
H	654.217	-2.0147	3.26153
