44
  This energy is 0 and Call times are: 213533
C	3.46026	-0.370055	-0.0480543
C	2.20802	0.241838	-0.546662
O	2.23049	1.20819	-1.29637
H	4.32992	0.195377	-0.44789
H	3.53158	-1.42526	-0.385973
H	3.48808	-0.334768	1.06148
N	1.0685	-0.316508	-0.131781
C	-0.229442	0.193678	-0.497312
C	-1.20286	-0.149575	0.614532
O	-0.873223	-0.900438	1.53064
H	1.06583	-1.07721	0.51102
H	-0.183128	1.27354	-0.563521
C	-0.702676	-0.411258	-1.83722
H	-0.76048	-1.51837	-1.76657
H	-1.69488	-0.015689	-2.1365
H	0.0285269	-0.154289	-2.6345
N	-2.43071	0.403406	0.563443
C	-3.42175	0.138916	1.58034
H	-2.67753	1.01175	-0.183598
H	-4.36554	0.68523	1.36121
H	-3.05379	0.462388	2.58096
H	-3.65072	-0.95013	1.63221
C	864.689	-2.90794	1.63684
C	864.68	-2.01628	0.45531
O	865.442	-2.2014	-0.483131
H	865.471	-3.68636	1.50368
H	863.702	-3.40524	1.74837
H	864.914	-2.3249	2.55457
N	863.802	-1.0103	0.477554
C	863.706	-0.0350564	-0.57984
C	863.202	1.26442	0.0198741
O	862.798	1.30769	1.18037
H	863.217	-0.848358	1.26652
H	864.693	0.15599	-0.981133
C	862.753	-0.521939	-1.69387
H	861.737	-0.707997	-1.28478
H	862.681	0.21426	-2.5205
H	863.137	-1.47788	-2.11273
N	863.223	2.36272	-0.760711
C	862.769	3.64458	-0.274185
H	863.557	2.30873	-1.69585
H	862.865	4.42171	-1.06413
H	863.369	3.96508	0.60792
H	861.7	3.59094	0.036527
