44
  This energy is 0 and Call times are: 212357
C	2.23105	-2.51233	-0.907373
C	1.01977	-1.69601	-1.14731
O	0.440197	-1.7247	-2.22419
H	2.48009	-3.08002	-1.83018
H	2.05044	-3.23134	-0.0808518
H	3.08861	-1.857	-0.646175
N	0.605878	-0.935385	-0.131172
C	-0.53164	-0.0548709	-0.227644
C	-0.315155	1.10387	0.727348
O	0.614268	1.09147	1.53217
H	1.11178	-0.891632	0.725577
H	-0.581063	0.356575	-1.22809
C	-1.83871	-0.80252	0.115633
H	-1.79267	-1.21579	1.14574
H	-2.72347	-0.138714	0.0314965
H	-1.97259	-1.65084	-0.590612
N	-1.16995	2.14305	0.653534
C	-1.03903	3.29241	1.51841
H	-1.9134	2.13667	-0.00700849
H	-1.83561	4.03858	1.30414
H	-0.0499344	3.78376	1.37166
H	-1.11938	2.99076	2.58785
C	777.545	1.87373	1.98944
C	778.012	0.586001	1.42856
O	777.597	-0.48046	1.86038
H	776.826	1.67593	2.81372
H	777.036	2.47108	1.20401
H	778.404	2.44971	2.39287
N	778.904	0.658966	0.437886
C	779.483	-0.508349	-0.179092
C	780.864	-0.138933	-0.687342
O	781.243	1.03077	-0.687776
H	779.264	1.53345	0.124889
H	779.611	-1.28137	0.568429
C	778.598	-1.01645	-1.33795
H	778.475	-0.227332	-2.11018
H	779.026	-1.92323	-1.81226
H	777.59	-1.27326	-0.944432
N	781.656	-1.13663	-1.12695
C	782.988	-0.881274	-1.62371
H	781.334	-2.07728	-1.11495
H	783.479	-1.82875	-1.93719
H	783.616	-0.404665	-0.836564
H	782.956	-0.195885	-2.50139
