44
  This energy is 0 and Call times are: 213337
C	-3.40304	-0.207631	-0.699192
C	-1.98304	-0.415477	-1.06188
O	-1.6702	-1.08431	-2.03718
H	-4.04996	-0.752012	-1.42102
H	-3.65333	0.873429	-0.736706
H	-3.59798	-0.59674	0.322418
N	-1.07738	0.161857	-0.268895
C	0.342781	0.0143603	-0.468795
C	1.02606	0.142632	0.87962
O	0.396214	0.49959	1.87339
H	-1.34644	0.669207	0.544781
H	0.549549	-0.981002	-0.8418
C	0.875653	1.08177	-1.44957
H	0.673156	2.10308	-1.0623
H	1.96568	0.97012	-1.6225
H	0.356179	0.974225	-2.42677
N	2.33846	-0.155994	0.946488
C	3.07132	-0.0683147	2.18802
H	2.83005	-0.447	0.132407
H	4.13568	-0.354139	2.03744
H	2.63077	-0.748002	2.95302
H	3.04046	0.970182	2.59016
C	846.771	-0.340924	1.84905
C	848.031	0.3636	1.52183
O	848.273	1.47305	1.97702
H	846.153	0.301801	2.51251
H	846.991	-1.29381	2.37485
H	846.2	-0.554269	0.921029
N	848.875	-0.276281	0.708858
C	850.121	0.299261	0.266323
C	850.456	-0.286203	-1.09251
O	849.805	-1.22185	-1.55316
H	848.646	-1.16134	0.313701
H	849.994	1.36674	0.135364
C	851.253	0.00765146	1.27574
H	851.39	-1.08743	1.40249
H	852.214	0.457477	0.953096
H	850.982	0.438119	2.26467
N	851.482	0.261009	-1.77321
C	851.87	-0.226522	-3.07617
H	851.995	1.02019	-1.38577
H	852.734	0.352467	-3.4714
H	851.027	-0.133758	-3.79775
H	852.163	-1.30024	-3.02302
