44
  This energy is 0 and Call times are: 213673
C	0.376082	-0.629948	-3.40212
C	0.345426	0.289726	-2.24264
O	0.723902	1.44858	-2.34371
H	0.792756	-0.0958747	-4.28361
H	-0.651021	-0.975507	-3.64376
H	1.01792	-1.50781	-3.1774
N	-0.112067	-0.216885	-1.09528
C	-0.161696	0.542847	0.129016
C	-0.0292196	-0.423476	1.29101
O	-0.0701432	-1.63853	1.10747
H	-0.378124	-1.17354	-1.0185
H	0.688023	1.21297	0.168282
C	-1.48255	1.33648	0.232649
H	-2.35429	0.648571	0.203025
H	-1.52685	1.93647	1.16462
H	-1.56201	2.03129	-0.6318
N	0.142304	0.0982038	2.52164
C	0.283145	-0.743821	3.68669
H	0.176937	1.08385	2.64962
H	0.414937	-0.12788	4.60346
H	1.16836	-1.4124	3.58341
H	-0.618979	-1.38365	3.8206
C	875.356	-2.99939	0.612356
C	874.268	-2.03264	0.882433
O	873.316	-2.33203	1.59051
H	875.129	-3.95959	1.12486
H	876.321	-2.60628	0.99545
H	875.44	-3.18573	-0.479099
N	874.386	-0.831476	0.31181
C	873.387	0.199051	0.447014
C	873.437	1.07228	-0.792543
O	874.341	0.944622	-1.6165
H	875.146	-0.616445	-0.295117
H	872.405	-0.257194	0.480462
C	873.635	1.04459	1.71546
H	874.637	1.52138	1.67679
H	872.864	1.83283	1.8382
H	873.601	0.383966	2.60921
N	872.456	1.98051	-0.957934
C	872.418	2.85153	-2.10948
H	871.731	2.06614	-0.282388
H	871.535	3.52602	-2.06359
H	872.356	2.25708	-3.04976
H	873.337	3.47959	-2.15757
