44
  This energy is 0.1104 and Call times are: 218191
C	-2.42455	-1.60006	1.91678
C	-1.19795	-0.782001	1.78495
O	-0.713656	-0.207256	2.75011
H	-2.77921	-1.56319	2.96974
H	-2.21154	-2.65556	1.64607
H	-3.22255	-1.20268	1.25468
N	-0.661556	-0.709117	0.564567
C	0.507025	0.0826721	0.271228
C	0.431188	0.518157	-1.18003
O	-0.426331	0.0582219	-1.93159
H	-1.09037	-1.14915	-0.219243
H	0.492588	0.979311	0.878238
C	1.79872	-0.724178	0.527651
H	1.81895	-1.63874	-0.10259
H	2.70581	-0.120825	0.31864
H	1.82916	-1.03918	1.59358
N	1.32841	1.42829	-1.60745
C	1.32963	1.90622	-2.97045
H	2.0121	1.7919	-0.983403
H	2.14215	2.6498	-3.12572
H	0.357927	2.39225	-3.21711
H	1.48461	1.06342	-3.68235
C	990.908	0.536488	-2.42156
C	991.53	0.829442	-1.11057
O	991.194	1.80533	-0.45426
H	990.163	1.32613	-2.65908
H	990.393	-0.44644	-2.3896
H	991.683	0.522059	-3.21756
N	992.47	-0.023623	-0.695375
C	993.194	0.152743	0.538421
C	994.562	-0.484946	0.379134
O	994.826	-1.17055	-0.606698
H	992.762	-0.790597	-1.25952
H	993.35	1.21002	0.713331
C	992.434	-0.485672	1.72119
H	992.283	-1.57243	1.54707
H	992.975	-0.344488	2.67918
H	991.433	-0.00940075	1.814
N	995.471	-0.264998	1.34905
C	996.8	-0.82646	1.28061
H	995.24	0.295928	2.13712
H	997.398	-0.531361	2.17091
H	997.331	-0.469744	0.368185
H	996.755	-1.93892	1.24115
