44
  This energy is 0 and Call times are: 214345
C	0.82329	-3.07062	-1.41638
C	-0.161807	-2.1069	-0.876046
O	-1.364	-2.28633	-1.0137
H	0.285432	-3.89354	-1.93542
H	1.4293	-3.50134	-0.591772
H	1.49411	-2.56538	-2.1429
N	0.335519	-1.04354	-0.240201
C	-0.496356	0.0018081	0.301829
C	0.299624	1.29326	0.290841
O	1.4994	1.29132	0.0220417
H	1.31723	-0.890429	-0.17191
H	-1.35424	0.146153	-0.343016
C	-0.949814	-0.34257	1.73745
H	-0.070251	-0.480384	2.40184
H	-1.60239	0.448305	2.16076
H	-1.52339	-1.29501	1.72263
N	-0.356908	2.43486	0.576732
C	0.316736	3.71249	0.585023
H	-1.32862	2.41677	0.787716
H	-0.392823	4.52952	0.842316
H	0.755683	3.93158	-0.415277
H	1.14254	3.71656	1.3328
C	924.874	0.323804	-1.39103
C	923.458	0.736258	-1.26531
O	923.054	1.77462	-1.77023
H	925.431	1.09423	-1.96708
H	924.944	-0.646072	-1.92693
H	925.334	0.224289	-0.385401
N	922.66	-0.0820198	-0.57466
C	921.269	0.20586	-0.330549
C	920.87	-0.458194	0.97395
O	921.632	-1.2389	1.54164
H	923.013	-0.903067	-0.134856
H	921.142	1.27348	-0.200866
C	920.388	-0.30695	-1.49059
H	920.509	-1.40389	-1.61722
H	919.315	-0.0789813	-1.32097
H	920.702	0.186261	-2.43617
N	919.662	-0.154434	1.48639
C	919.199	-0.733417	2.72612
H	919.061	0.482659	1.0146
H	918.183	-0.359417	2.97969
H	919.887	-0.472374	3.56247
H	919.155	-1.84394	2.64902
