44
  This energy is 0 and Call times are: 208773
C	3.22322	1.30732	-0.120081
C	2.14392	0.562031	0.566053
O	2.36437	-0.0741953	1.58734
H	4.17829	1.15952	0.429352
H	2.98537	2.39161	-0.142089
H	3.34494	0.934638	-1.15901
N	0.932558	0.624105	0.00826032
C	-0.207414	-0.083203	0.536219
C	-1.14823	-0.389411	-0.613848
O	-0.960234	0.0961228	-1.72768
H	0.777515	1.11256	-0.845697
H	0.118846	-1.03052	0.947053
C	-0.926273	0.756168	1.61508
H	-1.27047	1.72367	1.1914
H	-1.79778	0.216653	2.03926
H	-0.216863	0.975077	2.44283
N	-2.18522	-1.21494	-0.370557
C	-3.12937	-1.56775	-1.4051
H	-2.31844	-1.60121	0.536151
H	-3.90812	-2.25598	-1.00872
H	-2.61263	-2.07403	-2.25241
H	-3.63471	-0.658066	-1.8029
C	523.891	0.959678	-3.33994
C	523.215	0.268165	-2.21937
O	522.072	-0.153258	-2.33289
H	523.197	1.02094	-4.20616
H	524.798	0.396939	-3.64534
H	524.179	1.98837	-3.03679
N	523.918	0.136616	-1.09221
C	523.38	-0.474986	0.0972043
C	524.073	0.137699	1.29942
O	525.044	0.879395	1.15657
H	524.833	0.521074	-1.00164
H	522.327	-0.236422	0.176134
C	523.588	-2.0051	0.0734723
H	524.67	-2.25044	0.00312886
H	523.166	-2.48925	0.977632
H	523.079	-2.43103	-0.81861
N	523.583	-0.153948	2.52014
C	524.174	0.387369	3.72161
H	522.794	-0.752816	2.61529
H	523.629	0.0312878	4.62324
H	524.14	1.50091	3.70867
H	525.24	0.0752244	3.81027
