44
  This energy is -4.1911 and Call times are: 224003
C	-2.00232	2.75569	-0.713853
C	-1.30942	1.50993	-1.11275
O	-1.53004	0.981164	-2.19356
H	-2.70543	3.05908	-1.51974
H	-1.26446	3.57005	-0.555284
H	-2.57746	2.59096	0.221647
N	-0.4428	1.00471	-0.231782
C	0.275216	-0.224546	-0.459684
C	0.57071	-0.85644	0.887517
O	0.355857	-0.243369	1.9314
H	-0.304318	1.42415	0.660831
H	-0.358037	-0.912025	-1.00649
C	1.58558	0.0373656	-1.23401
H	2.24017	0.734342	-0.668523
H	2.1408	-0.903216	-1.42783
H	1.34581	0.50712	-2.21288
N	1.06611	-2.10965	0.89517
C	1.37259	-2.79378	2.12976
H	1.22938	-2.59104	0.0403716
H	1.769	-3.81301	1.92665
H	0.460059	-2.89208	2.76134
H	2.1366	-2.22989	2.71241
C	993.725	2.1112	2.37151
C	994.802	1.20491	1.91296
O	995.859	1.11984	2.52157
H	994.063	2.6524	3.28176
H	992.813	1.52789	2.61826
H	993.486	2.85291	1.58034
N	994.552	0.497726	0.80847
C	995.518	-0.393606	0.216764
C	995.249	-0.460873	-1.27467
O	994.238	0.0479563	-1.75553
H	993.702	0.608271	0.301082
H	996.511	0.0187189	0.346817
C	995.429	-1.80075	0.847084
H	994.414	-2.22853	0.704706
H	996.178	-2.49263	0.409539
H	995.622	-1.72632	1.93962
N	996.158	-1.088	-2.04676
C	995.989	-1.1967	-3.47704
H	996.971	-1.48995	-1.63987
H	996.841	-1.74614	-3.93331
H	995.932	-0.186624	-3.94382
H	995.049	-1.74254	-3.72128
