44
  This energy is -0.9073 and Call times are: 223605
C	-0.727357	-0.758711	3.31783
C	-1.0658	-0.133135	2.01966
O	-2.18891	0.29835	1.79862
H	-1.62883	-0.765573	3.96835
H	0.0758041	-0.181904	3.82277
H	-0.388795	-1.80472	3.16186
N	-0.0843531	-0.0717649	1.11668
C	-0.273089	0.46944	-0.206209
C	0.704499	-0.216542	-1.14179
O	1.58654	-0.951772	-0.702286
H	0.813178	-0.464175	1.29646
H	-1.27139	0.230293	-0.550933
C	-0.0488948	1.99748	-0.214304
H	0.978648	2.24279	0.129231
H	-0.204896	2.42814	-1.22461
H	-0.76953	2.47784	0.48304
N	0.563795	0.00324386	-2.46388
C	1.44415	-0.611101	-3.43017
H	-0.158557	0.598108	-2.80065
H	1.16666	-0.307701	-4.4637
H	1.38661	-1.72174	-3.36358
H	2.50068	-0.308575	-3.24746
C	994.953	-3.31306	1.03561
C	995.535	-2.07951	0.460229
O	996.742	-1.96341	0.301381
H	995.771	-4.02449	1.28219
H	994.269	-3.79141	0.303237
H	994.392	-3.07473	1.96381
N	994.673	-1.11403	0.132089
C	995.092	0.159518	-0.398107
C	994.061	1.19931	-0.00138452
O	992.998	0.865663	0.518041
H	993.697	-1.20723	0.305325
H	996.031	0.445429	0.0592881
C	995.235	0.0973804	-1.93465
H	994.269	-0.185626	-2.40505
H	995.57	1.06818	-2.35355
H	995.988	-0.675317	-2.20224
N	994.358	2.49357	-0.231135
C	993.44	3.55301	0.118126
H	995.225	2.74416	-0.648611
H	993.865	4.54549	-0.149157
H	993.229	3.54521	1.21208
H	992.473	3.42901	-0.420806
