44
  This energy is 0 and Call times are: 205861
C	-3.24304	-0.975346	-0.802557
C	-2.18221	0.0502127	-0.684204
O	-2.32225	1.16463	-1.16884
H	-4.094	-0.55818	-1.38369
H	-3.60556	-1.269	0.204958
H	-2.85233	-1.87095	-1.33014
N	-1.0777	-0.311541	-0.0272552
C	0.0575399	0.562697	0.13242
C	1.30303	-0.295756	0.24805
O	1.21777	-1.51683	0.363951
H	-0.961726	-1.23541	0.326128
H	0.167027	1.17192	-0.756115
C	-0.103998	1.45376	1.38348
H	-0.205785	0.829348	2.29661
H	0.757396	2.14122	1.50965
H	-1.0257	2.06714	1.28065
N	2.49746	0.327107	0.210431
C	3.7368	-0.408221	0.307845
H	2.54623	1.31554	0.112019
H	4.60818	0.281217	0.256841
H	3.82318	-1.14435	-0.523977
H	3.78758	-0.967205	1.27019
C	315.427	-2.88091	-1.93354
C	315.447	-1.40829	-1.78476
O	315.51	-0.674194	-2.76127
H	315.494	-3.14203	-3.01203
H	314.482	-3.29444	-1.52201
H	316.291	-3.33109	-1.40015
N	315.395	-0.937165	-0.536657
C	315.449	0.470633	-0.230519
C	316.066	0.631903	1.14608
O	316.271	-0.345771	1.86306
H	315.386	-1.54796	0.249917
H	316.104	0.964948	-0.937326
C	314.039	1.09823	-0.268637
H	313.369	0.598452	0.463786
H	314.069	2.18497	-0.0481567
H	313.603	0.961485	-1.28264
N	316.387	1.8784	1.54552
C	316.983	2.1284	2.83706
H	316.217	2.65648	0.949684
H	317.172	3.21525	2.97911
H	317.953	1.58834	2.9331
H	316.311	1.77951	3.65438
