44
  This energy is 0 and Call times are: 212973
C	0.851947	2.41506	2.35676
C	0.682762	1.00541	1.93795
O	1.11251	0.0861722	2.62112
H	1.41273	2.44842	3.31608
H	-0.13972	2.89238	2.5034
H	1.42231	2.97704	1.58738
N	0.0433397	0.801898	0.783786
C	-0.159791	-0.511356	0.224624
C	-0.234401	-0.376454	-1.28461
O	-0.290461	0.730923	-1.81592
H	-0.2646	1.56195	0.218666
H	0.697841	-1.13255	0.450947
C	-1.45274	-1.15162	0.775606
H	-2.33419	-0.519991	0.534517
H	-1.61305	-2.16881	0.363112
H	-1.37921	-1.23318	1.88208
N	-0.228246	-1.50914	-2.01469
C	-0.290671	-1.4789	-3.45738
H	-0.178264	-2.39574	-1.5669
H	-0.274127	-2.51033	-3.87343
H	0.576036	-0.918045	-3.87636
H	-1.22461	-0.977354	-3.79996
C	823.842	2.51463	-2.40194
C	823.678	2.05508	-1.00441
O	823.682	2.84776	-0.0727216
H	823.975	3.61823	-2.41241
H	822.941	2.25586	-2.99797
H	824.736	2.04015	-2.85841
N	823.529	0.740463	-0.825591
C	823.402	0.139234	0.47861
C	823.949	-1.2735	0.403568
O	824.248	-1.77669	-0.677883
H	823.568	0.103731	-1.59037
H	824.014	0.685602	1.18503
C	821.927	0.124535	0.938073
H	821.3	-0.444823	0.219167
H	821.818	-0.323445	1.94698
H	821.545	1.16787	0.978086
N	824.103	-1.94683	1.56073
C	824.623	-3.29428	1.58797
H	823.86	-1.52138	2.42617
H	824.674	-3.675	2.63184
H	825.647	-3.32919	1.15157
H	823.972	-3.97839	0.996537
