44
  This energy is 0 and Call times are: 212049
C	0.993679	-2.30062	2.41504
C	1.03994	-1.75126	1.04129
O	1.88845	-2.11925	0.240649
H	1.82372	-3.02814	2.54782
H	0.0283128	-2.82157	2.58658
H	1.10968	-1.48355	3.15804
N	0.113115	-0.840518	0.73483
C	0.0568794	-0.184668	-0.547847
C	-0.562149	1.18636	-0.351304
O	-1.06542	1.50168	0.725267
H	-0.545566	-0.521089	1.41009
H	1.06387	-0.0340844	-0.91652
C	-0.770435	-1.01296	-1.55518
H	-1.80665	-1.15876	-1.18231
H	-0.809613	-0.525219	-2.55072
H	-0.303754	-2.01477	-1.67739
N	-0.531298	2.04143	-1.39243
C	-1.09091	3.36953	-1.29666
H	-0.116037	1.76958	-2.25425
H	-0.967434	3.91843	-2.25618
H	-0.585473	3.95166	-0.492338
H	-2.17788	3.32171	-1.0572
C	758.65	2.29141	-2.44106
C	758.795	0.992604	-1.74585
O	759.506	0.106763	-2.20087
H	759.251	2.27601	-3.37674
H	759.016	3.11527	-1.79292
H	757.586	2.47026	-2.70004
N	758.11	0.848568	-0.608831
C	758.117	-0.372784	0.157205
C	756.798	-0.472049	0.900143
O	756.014	0.47473	0.920486
H	757.504	1.56363	-0.272502
H	758.171	-1.21765	-0.51798
C	759.3	-0.395517	1.14937
H	759.239	0.465178	1.84904
H	759.324	-1.33702	1.73548
H	760.254	-0.31374	0.584443
N	756.518	-1.6328	1.5249
C	755.285	-1.82135	2.25237
H	757.163	-2.38897	1.49371
H	755.241	-2.84112	2.69439
H	754.407	-1.69374	1.57768
H	755.197	-1.07746	3.07705
