44
  This energy is 0 and Call times are: 209921
C	1.73995	2.10821	2.15423
C	1.24814	0.770217	1.75545
O	1.65487	-0.243647	2.30596
H	2.49359	1.99625	2.96377
H	0.899192	2.72887	2.52926
H	2.21553	2.61491	1.2881
N	0.347738	0.738277	0.770237
C	-0.191003	-0.491236	0.244293
C	-0.568662	-0.25969	-1.20668
O	-0.551334	0.871044	-1.68923
H	0.0569424	1.569	0.30418
H	0.577854	-1.25363	0.259777
C	-1.42198	-0.946891	1.05813
H	-2.21519	-0.169546	1.03381
H	-1.83763	-1.89992	0.6715
H	-1.12407	-1.10257	2.11802
N	-0.912964	-1.33494	-1.94242
C	-1.28208	-1.2123	-3.33342
H	-0.917056	-2.24235	-1.53539
H	-1.53091	-2.20747	-3.76348
H	-0.445509	-0.774268	-3.92464
H	-2.16981	-0.548924	-3.44749
C	602.356	0.916053	0.297211
C	603.785	1.24667	0.0975079
O	604.132	2.36424	-0.258537
H	601.736	1.80732	0.0583827
H	602.174	0.624512	1.35307
H	602.059	0.0817152	-0.372682
N	604.659	0.263277	0.324401
C	606.079	0.420634	0.131293
C	606.661	-0.935043	-0.221493
O	605.978	-1.95424	-0.140786
H	604.358	-0.65268	0.574126
H	606.254	1.07646	-0.712386
C	606.749	0.983699	1.40343
H	606.579	0.305944	2.26691
H	607.841	1.12246	1.26274
H	606.302	1.9721	1.64725
N	607.944	-0.976788	-0.631809
C	608.582	-2.22114	-0.993878
H	608.479	-0.140975	-0.694603
H	609.635	-2.04721	-1.30438
H	608.043	-2.70717	-1.83932
H	608.582	-2.92791	-0.132699
