44
  This energy is 0 and Call times are: 209165
C	2.54743	-2.01498	-1.25026
C	1.97261	-1.14019	-0.203615
O	2.48843	-1.05318	0.902174
H	3.44327	-2.53333	-0.844471
H	2.85026	-1.41014	-2.13072
H	1.80275	-2.77671	-1.5638
N	0.870698	-0.463291	-0.535244
C	0.172869	0.394217	0.390107
C	-1.29246	0.420047	-0.00195472
O	-1.67146	-0.0873047	-1.05584
H	0.439277	-0.575939	-1.42578
H	0.233215	-0.0294897	1.38482
C	0.763322	1.82121	0.372557
H	0.692068	2.26034	-0.645344
H	0.243449	2.48753	1.09107
H	1.83794	1.77723	0.654706
N	-2.15681	1.00889	0.847853
C	-3.57088	1.07642	0.561448
H	-1.83176	1.41026	1.69775
H	-4.11351	1.59817	1.38033
H	-3.99904	0.0535451	0.453411
H	-3.75358	1.62924	-0.388372
C	553.077	2.9365	1.2619
C	552.782	1.48925	1.35811
O	553.305	0.791979	2.21625
H	553.816	3.21349	2.04571
H	552.15	3.52756	1.41632
H	553.505	3.17421	0.265207
N	551.923	0.998145	0.461838
C	551.57	-0.398417	0.402229
C	551.207	-0.733668	-1.03209
O	551.086	0.153313	-1.87491
H	551.537	1.57008	-0.256175
H	552.433	-0.996687	0.664561
C	550.388	-0.709606	1.34687
H	549.499	-0.103794	1.07157
H	550.116	-1.78462	1.32038
H	550.674	-0.449214	2.38953
N	551.032	-2.03256	-1.34551
C	550.69	-2.44721	-2.68618
H	551.138	-2.73622	-0.650772
H	550.59	-3.55359	-2.74215
H	551.477	-2.12958	-3.4082
H	549.725	-1.99103	-3.00464
