44
  This energy is 0 and Call times are: 208269
C	-0.934182	0.306189	3.3386
C	0.0500315	-0.0343605	2.2867
O	1.22445	-0.239004	2.56105
H	-0.419581	0.348937	4.3231
H	-1.73026	-0.466522	3.38246
H	-1.3914	1.29616	3.12882
N	-0.41583	-0.10119	1.03735
C	0.429058	-0.379372	-0.0972642
C	-0.180928	0.287215	-1.31592
O	-1.30183	0.789794	-1.26397
H	-1.36597	0.108152	0.824581
H	1.40151	0.0692895	0.0629538
C	0.565344	-1.90101	-0.323719
H	-0.430979	-2.36013	-0.49861
H	1.22477	-2.12844	-1.18625
H	1.00627	-2.36902	0.583422
N	0.551994	0.314098	-2.44647
C	0.0560046	0.931514	-3.65435
H	1.45856	-0.094254	-2.46784
H	0.804615	0.851123	-4.47309
H	-0.161518	2.01069	-3.48308
H	-0.885104	0.43866	-3.98983
C	486.057	-0.528745	3.02194
C	486.112	-0.573234	1.54339
O	485.259	-1.16453	0.895509
H	485.174	-1.10624	3.37396
H	485.961	0.521269	3.3699
H	486.976	-0.97854	3.45302
N	487.137	0.0607715	0.968569
C	487.349	0.0694236	-0.457436
C	488.837	0.210827	-0.713348
O	489.614	0.458645	0.207152
H	487.845	0.502916	1.51113
H	487.039	-0.882654	-0.870371
C	486.572	1.2265	-1.12365
H	486.897	2.20421	-0.707861
H	486.717	1.23551	-2.22349
H	485.487	1.10701	-0.916662
N	489.273	0.0469295	-1.9781
C	490.673	0.157617	-2.31595
H	488.63	-0.157194	-2.70879
H	490.829	-0.0100574	-3.40438
H	491.273	-0.59554	-1.7556
H	491.061	1.16952	-2.05761
