44
  This energy is 0 and Call times are: 203117
C	-3.23611	-0.431495	-1.20585
C	-2.13772	0.420501	-0.697158
O	-2.20075	1.64042	-0.762316
H	-4.03477	0.21415	-1.6315
H	-3.66526	-1.03644	-0.379643
H	-2.85866	-1.1079	-2.00153
N	-1.08771	-0.215464	-0.172364
C	0.0758225	0.476056	0.324184
C	1.27303	-0.443314	0.172496
O	1.12631	-1.61998	-0.152519
H	-1.03297	-1.20985	-0.163603
H	0.260485	1.34984	-0.288209
C	-0.112145	0.880849	1.80271
H	-0.29114	-0.0162165	2.43301
H	0.771538	1.42634	2.19267
H	-0.998181	1.54679	1.8911
N	2.4948	0.0786842	0.397957
C	3.69245	-0.718847	0.272429
H	2.59362	1.03403	0.656062
H	4.59571	-0.110094	0.497738
H	3.78992	-1.12099	-0.762006
H	3.66596	-1.58136	0.977061
C	118.348	2.4756	-2.03846
C	119.479	1.63784	-1.5816
O	120.532	1.60238	-2.20349
H	118.631	2.99329	-2.98061
H	118.101	3.23781	-1.26973
H	117.456	1.84243	-2.2304
N	119.282	0.93139	-0.466042
C	120.274	0.0380459	0.0780523
C	119.555	-1.06437	0.832528
O	118.345	-1.00021	1.03912
H	118.406	0.939049	0.00644983
H	120.819	-0.428491	-0.733666
C	121.242	0.793327	1.01518
H	120.686	1.26331	1.85392
H	122.019	0.119003	1.42968
H	121.751	1.6002	0.444035
N	120.288	-2.11267	1.25661
C	119.689	-3.21136	1.97792
H	121.266	-2.14864	1.07633
H	120.455	-3.97443	2.23915
H	118.901	-3.70235	1.36215
H	119.217	-2.85164	2.92049
