44
  This energy is 0 and Call times are: 202249
C	-3.03284	1.68053	-0.300672
C	-2.01637	0.958844	0.497523
O	-2.06749	0.940154	1.71959
H	-3.76189	2.16499	0.384641
H	-3.57595	0.971288	-0.960031
H	-2.54737	2.4635	-0.920653
N	-1.05257	0.340229	-0.188612
C	0.0298193	-0.36659	0.449663
C	1.2349	-0.316934	-0.470589
O	1.13385	0.113296	-1.61794
H	-1.00129	0.398767	-1.18149
H	0.301013	0.145926	1.36422
C	-0.36549	-1.82992	0.745692
H	-0.633653	-2.35915	-0.193476
H	0.454782	-2.38094	1.24973
H	-1.25399	-1.84202	1.4141
N	2.41315	-0.751634	0.0180826
C	3.61516	-0.737044	-0.782628
H	2.47592	-1.09237	0.950302
H	4.47829	-1.13308	-0.203506
H	3.85785	0.300532	-1.10792
H	3.48746	-1.36383	-1.69475
C	58.7992	0.244286	3.29314
C	59.0409	0.273292	1.83303
O	60.1027	0.67232	1.37496
H	59.6933	0.641212	3.82134
H	58.6159	-0.79764	3.63007
H	57.9216	0.874941	3.54836
N	58.0419	-0.1546	1.05755
C	58.1123	-0.145662	-0.38242
C	56.7034	0.00676471	-0.923903
O	55.73	-0.0660584	-0.176233
H	57.1686	-0.437889	1.44338
H	58.6779	0.718813	-0.707058
C	58.758	-1.44513	-0.911281
H	58.1722	-2.33165	-0.587334
H	58.8306	-1.44438	-2.0182
H	59.7851	-1.53995	-0.496014
N	56.5622	0.231891	-2.24504
C	55.2605	0.395391	-2.8491
H	57.3619	0.291666	-2.83322
H	55.354	0.571895	-3.94332
H	54.7246	1.26223	-2.39886
H	54.6374	-0.51479	-2.69258
