44
  This energy is 0 and Call times are: 210649
C	2.21309	-0.398133	-2.65639
C	0.974482	0.154838	-2.06376
O	0.327755	1.01847	-2.64021
H	2.41268	0.105919	-3.62694
H	2.09871	-1.48808	-2.83434
H	3.07372	-0.223057	-1.97687
N	0.612922	-0.338335	-0.876981
C	-0.544055	0.130902	-0.156022
C	-0.287692	-0.0619937	1.32675
O	0.691428	-0.693372	1.71969
H	1.17177	-1.01163	-0.401345
H	-0.66481	1.19337	-0.326958
C	-1.81283	-0.635146	-0.590319
H	-1.69353	-1.724	-0.405387
H	-2.71294	-0.273435	-0.0522634
H	-1.97642	-0.486321	-1.68002
N	-1.16397	0.488942	2.18967
C	-0.998584	0.362298	3.61894
H	-1.94795	0.999725	1.85271
H	-1.82051	0.883324	4.15763
H	-0.0298884	0.807014	3.94318
H	-1.00486	-0.709771	3.92187
C	656.354	2.98329	1.18352
C	656.405	1.87429	0.204385
O	655.522	1.72479	-0.629016
H	655.426	3.57344	1.02224
H	657.231	3.65057	1.05178
H	656.348	2.58026	2.21822
N	657.457	1.05731	0.287115
C	657.624	-0.0909415	-0.568674
C	658.432	-1.12969	0.185515
O	658.963	-0.856177	1.26055
H	658.147	1.16769	0.997133
H	656.654	-0.525456	-0.776124
C	658.335	0.299045	-1.88305
H	659.334	0.735175	-1.67129
H	658.456	-0.573961	-2.55653
H	657.73	1.06574	-2.41423
N	658.538	-2.35697	-0.360862
C	659.283	-3.41113	0.287368
H	658.099	-2.56043	-1.22946
H	659.252	-4.34388	-0.317816
H	658.858	-3.63165	1.29306
H	660.349	-3.11467	0.420974
