44
  This energy is 0 and Call times are: 206953
C	2.2225	1.71015	-2.0612
C	0.88173	1.15701	-1.76538
O	-0.0878161	1.44525	-2.45335
H	2.15467	2.38732	-2.94025
H	2.93243	0.888887	-2.29416
H	2.59871	2.28789	-1.1907
N	0.79641	0.337541	-0.714868
C	-0.448019	-0.244418	-0.277512
C	-0.356633	-0.488375	1.21704
O	0.709909	-0.352003	1.81337
H	1.58649	0.144777	-0.139995
H	-1.25047	0.464267	-0.440196
C	-0.732237	-1.56545	-1.02541
H	0.0855762	-2.29658	-0.850282
H	-1.6946	-2.01628	-0.707416
H	-0.787019	-1.36437	-2.11761
N	-1.48362	-0.849344	1.86173
C	-1.49409	-1.09736	3.2846
H	-2.33791	-0.950592	1.36273
H	-2.51352	-1.38189	3.62671
H	-1.17787	-0.187372	3.84426
H	-0.793414	-1.9235	3.54475
C	391.616	-2.70706	-0.663739
C	391.837	-1.27032	-0.384374
O	390.935	-0.454011	-0.514904
H	390.567	-2.85859	-1.00066
H	391.788	-3.30649	0.254775
H	392.304	-3.05153	-1.46436
N	393.064	-0.924668	0.0109966
C	393.443	0.440463	0.278347
C	394.928	0.582132	0.00161996
O	395.624	-0.406306	-0.222985
H	393.799	-1.59449	0.0731432
H	392.923	1.09655	-0.408404
C	393.126	0.824938	1.74007
H	393.667	0.158854	2.44505
H	393.4	1.87815	1.9545
H	392.035	0.706153	1.92222
N	395.449	1.82513	0.00323474
C	396.85	2.05791	-0.255348
H	394.869	2.61288	0.183031
H	397.083	3.14459	-0.210227
H	397.131	1.68085	-1.26537
H	397.481	1.5322	0.497292
