44
  This energy is 0 and Call times are: 209837
C	3.21044	1.25658	0.476179
C	1.9836	1.08896	-0.334931
O	1.79943	1.74936	-1.34803
H	3.84792	2.04453	0.0194132
H	3.78185	0.305105	0.506954
H	2.94654	1.56265	1.51047
N	1.10172	0.187031	0.102328
C	-0.157317	-0.0570988	-0.556296
C	-1.15169	-0.533397	0.485776
O	-0.785142	-0.808443	1.6267
H	1.24692	-0.313467	0.951024
H	-0.535106	0.873545	-0.961029
C	0.000424327	-1.10985	-1.67526
H	0.377968	-2.06805	-1.25891
H	-0.959374	-1.29642	-2.19918
H	0.738356	-0.743828	-2.42214
N	-2.44391	-0.634195	0.116934
C	-3.46207	-1.0736	1.04238
H	-2.72185	-0.403222	-0.809604
H	-4.45973	-1.08984	0.550815
H	-3.51537	-0.39066	1.92102
H	-3.23802	-2.09918	1.41537
C	601.537	0.375846	2.93219
C	601.326	-0.2207	1.594
O	602.209	-0.859392	1.03921
H	602.571	0.154423	3.27407
H	600.818	-0.0542955	3.66064
H	601.402	1.47705	2.88589
N	600.129	-0.0196455	1.03654
C	599.79	-0.501326	-0.279302
C	598.749	0.430713	-0.870341
O	598.221	1.30207	-0.182347
H	599.435	0.537021	1.48279
H	600.666	-0.451492	-0.914649
C	599.249	-1.94643	-0.215259
H	598.345	-1.99617	0.427967
H	598.997	-2.33366	-1.2238
H	600.024	-2.60926	0.227682
N	598.435	0.272705	-2.17126
C	597.46	1.11672	-2.82128
H	598.876	-0.435325	-2.71267
H	597.341	0.830175	-3.8895
H	597.773	2.1849	-2.77766
H	596.468	1.02752	-2.32208
