44
  This energy is 0 and Call times are: 202613
C	-1.59424	-2.99645	0.76964
C	-1.12962	-1.63772	1.12895
O	-1.49894	-1.09475	2.16103
H	-2.29277	-3.36466	1.55218
H	-0.730657	-3.6911	0.703121
H	-2.12606	-2.97379	-0.204913
N	-0.296238	-1.04858	0.268268
C	0.206798	0.288923	0.4596
C	0.487782	0.888346	-0.905425
O	0.438442	0.195349	-1.91984
H	-0.0369875	-1.4869	-0.587613
H	-0.559234	0.895273	0.926682
C	1.4889	0.278229	1.32061
H	2.27864	-0.335089	0.836693
H	1.87827	1.30357	1.48671
H	1.26166	-0.171747	2.31169
N	0.782923	2.20198	-0.962747
C	1.05936	2.86052	-2.21817
H	0.814032	2.7471	-0.131515
H	1.27941	3.9388	-2.05654
H	0.185504	2.78023	-2.9046
H	1.93751	2.39484	-2.72129
C	86.3865	-0.599637	2.12981
C	85.037	-0.91957	1.61227
O	84.475	-1.9637	1.91276
H	86.7437	-1.43765	2.767
H	86.3523	0.326954	2.74056
H	87.0964	-0.460881	1.28735
N	84.4799	-0.0123089	0.806762
C	83.19	-0.201764	0.19135
C	83.1714	0.569193	-1.11512
O	84.0845	1.33997	-1.40457
H	84.9668	0.814049	0.538588
H	83.0599	-1.24927	-0.050375
C	82.0577	0.283769	1.12273
H	82.1848	1.36098	1.36253
H	81.0586	0.13045	0.665812
H	82.0954	-0.28838	2.07539
N	82.1269	0.371004	-1.9433
C	82.0264	1.05667	-3.21055
H	81.3998	-0.259768	-1.6935
H	81.0973	0.760181	-3.7455
H	82.898	0.811789	-3.85988
H	82.0075	2.16034	-3.05988
