44
  This energy is -0.6375 and Call times are: 225610
C	-0.436488	-2.87268	-1.9157
C	-0.0129323	-1.46307	-1.75839
O	0.626902	-0.893184	-2.63146
H	-0.06658	-3.26084	-2.88954
H	-1.54437	-2.94364	-1.89798
H	-0.0134326	-3.49295	-1.09754
N	-0.365197	-0.861072	-0.62002
C	0.0110069	0.494502	-0.304665
C	0.101869	0.621261	1.20438
O	-0.285196	-0.287027	1.93713
H	-0.850651	-1.35062	0.0986904
H	0.997184	0.693892	-0.705078
C	-1.01676	1.49833	-0.871462
H	-2.02663	1.30085	-0.452903
H	-0.730959	2.54645	-0.647172
H	-1.07248	1.38232	-1.9759
N	0.627337	1.75629	1.70601
C	0.758845	1.96383	3.12932
H	0.938811	2.47824	1.09704
H	1.2129	2.95679	3.34165
H	1.40602	1.17837	3.58265
H	-0.237104	1.91992	3.62661
C	989.224	-2.13674	1.46133
C	989.642	-1.19772	0.396156
O	988.986	-1.06963	-0.628194
H	988.293	-2.65684	1.14774
H	989.026	-1.58344	2.4035
H	990.017	-2.89405	1.63673
N	990.765	-0.510527	0.618002
C	991.321	0.408385	-0.343738
C	992.824	0.451611	-0.142417
O	993.346	-0.0970568	0.826353
H	991.31	-0.655784	1.43868
H	991.14	0.0324651	-1.34302
C	990.711	1.81761	-0.176664
H	990.906	2.20807	0.844989
H	991.121	2.53106	-0.920587
H	989.61	1.76065	-0.32028
N	993.56	1.10273	-1.06464
C	994.998	1.19148	-0.959215
H	993.12	1.53694	-1.84381
H	995.42	1.76605	-1.81294
H	995.455	0.175558	-0.960155
H	995.292	1.70157	-0.0134314
