44
  This energy is 0 and Call times are: 206813
C	2.50098	-0.869923	2.25855
C	1.17498	-0.293938	1.94054
O	0.372102	-0.0276447	2.82421
H	2.58674	-1.0093	3.35814
H	3.30682	-0.18572	1.91909
H	2.61932	-1.85562	1.76107
N	0.911951	-0.0880139	0.647949
C	-0.351211	0.426136	0.180369
C	-0.590301	-0.107917	-1.21934
O	0.295096	-0.710437	-1.82329
H	1.55966	-0.347928	-0.0625292
H	-1.14634	0.0472881	0.810354
C	-0.35138	1.97056	0.178014
H	0.457489	2.35972	-0.476451
H	-1.32348	2.37866	-0.166931
H	-0.166776	2.33915	1.21068
N	-1.80472	0.0950742	-1.76706
C	-2.12565	-0.38195	-3.09206
H	-2.50959	0.58123	-1.2612
H	-3.17151	-0.117159	-3.36276
H	-2.01906	-1.48959	-3.14727
H	-1.44274	0.0687005	-3.84817
C	381.731	-2.54744	1.32189
C	382.115	-1.63476	0.221592
O	381.68	-1.79041	-0.911009
H	381.049	-3.33161	0.927433
H	381.206	-1.98344	2.12133
H	382.634	-3.0363	1.74615
N	382.956	-0.646529	0.536369
C	383.454	0.294789	-0.435699
C	384.82	0.770067	0.0222355
O	385.245	0.481022	1.13892
H	383.334	-0.557256	1.45355
H	383.589	-0.209345	-1.38448
C	382.488	1.49029	-0.590421
H	382.357	2.01418	0.380383
H	382.853	2.21539	-1.34633
H	381.493	1.11827	-0.918395
N	385.546	1.50863	-0.839672
C	386.859	2.00035	-0.49341
H	385.186	1.72876	-1.74037
H	387.294	2.58559	-1.33341
H	387.547	1.15479	-0.262404
H	386.808	2.65896	0.40369
