44
  This energy is 0 and Call times are: 205245
C	-2.01786	2.53832	1.26407
C	-0.834317	2.06807	0.509587
O	-0.167773	2.83889	-0.167143
H	-2.16112	3.62565	1.08221
H	-1.86904	2.37242	2.35176
H	-2.92631	1.99507	0.928384
N	-0.544481	0.768712	0.609804
C	0.550609	0.155905	-0.0999886
C	0.197668	-1.29826	-0.34975
O	-0.792704	-1.80487	0.17392
H	-1.12043	0.146029	1.13173
H	0.660717	0.631706	-1.06649
C	1.86167	0.263623	0.70918
H	1.7526	-0.233537	1.69659
H	2.71525	-0.192404	0.167003
H	2.09615	1.33589	0.886996
N	1.00139	-2.00502	-1.16862
C	0.741475	-3.39365	-1.46918
H	1.7958	-1.57654	-1.58623
H	1.51374	-3.79766	-2.16027
H	-0.256099	-3.51115	-1.95117
H	0.749265	-4.00544	-0.538165
C	271.379	-1.40278	-3.16895
C	270.976	-0.432719	-2.12626
O	270.216	0.491328	-2.38149
H	270.905	-1.12275	-4.13454
H	271.049	-2.42508	-2.88917
H	272.483	-1.39276	-3.29439
N	271.487	-0.62423	-0.907793
C	271.22	0.260989	0.19858
C	272.41	0.214415	1.13852
O	273.306	-0.613538	0.980757
H	272.136	-1.3569	-0.725322
H	271.139	1.27657	-0.168185
C	269.93	-0.153278	0.938311
H	270.017	-1.19141	1.32391
H	269.706	0.528993	1.78397
H	269.074	-0.119639	0.229503
N	272.452	1.11482	2.14032
C	273.547	1.14993	3.08062
H	271.72	1.77954	2.2493
H	273.398	1.96002	3.82813
H	274.512	1.33267	2.55336
H	273.63	0.181259	3.62473
