44
  This energy is 0 and Call times are: 202445
C	-1.6261	-2.75207	-1.37644
C	-1.60187	-1.33983	-0.93357
O	-2.51289	-0.572949	-1.21348
H	-2.54707	-2.93455	-1.97175
H	-1.62695	-3.42914	-0.496483
H	-0.74006	-2.96991	-2.00934
N	-0.538389	-0.95925	-0.221846
C	-0.352599	0.393042	0.24221
C	1.1377	0.655182	0.351097
O	1.94907	-0.259715	0.223247
H	0.21457	-1.58433	-0.0369398
H	-0.748156	1.08106	-0.494538
C	-1.04126	0.607169	1.60791
H	-0.628392	-0.0912496	2.36672
H	-0.917159	1.64852	1.96944
H	-2.12938	0.402142	1.50639
N	1.53443	1.92198	0.583181
C	2.93225	2.26751	0.696733
H	0.863184	2.64944	0.679636
H	3.0539	3.35659	0.887358
H	3.47724	2.01284	-0.241028
H	3.40827	1.70929	1.53514
C	74.2624	1.8079	-1.50936
C	73.7139	0.562018	-0.927955
O	74.2994	-0.505031	-1.05048
H	75.2115	1.57839	-2.04079
H	74.4697	2.5461	-0.706318
H	73.5412	2.24227	-2.23334
N	72.5559	0.672516	-0.272826
C	71.8774	-0.458247	0.309881
C	70.3892	-0.16337	0.319534
O	69.9669	0.954726	0.0311169
H	72.0708	1.54048	-0.216686
H	72.0298	-1.3281	-0.316809
C	72.3853	-0.727758	1.74328
H	72.2195	0.160617	2.38932
H	71.8803	-1.60467	2.19774
H	73.4776	-0.933181	1.71302
N	69.5545	-1.16972	0.645852
C	68.1224	-0.984158	0.676426
H	69.9149	-2.06859	0.872223
H	67.6097	-1.92766	0.966562
H	67.7451	-0.67387	-0.324887
H	67.8441	-0.193614	1.4104
