44
  This energy is 0 and Call times are: 205413
C	-0.410927	-3.07105	1.58507
C	0.0359091	-2.24421	0.441476
O	0.72774	-2.71729	-0.449578
H	-0.00515253	-4.10018	1.47495
H	-1.51974	-3.12269	1.60986
H	-0.0398359	-2.63853	2.53812
N	-0.355116	-0.967703	0.443489
C	0.0359491	-0.0296034	-0.579055
C	0.059895	1.35722	0.0355278
O	-0.380489	1.55245	1.16675
H	-0.883878	-0.586829	1.19662
H	1.0437	-0.255587	-0.904634
C	-0.942194	-0.0757872	-1.77335
H	-1.9744	0.166313	-1.44174
H	-0.643996	0.632253	-2.57353
H	-0.949471	-1.1016	-2.20231
N	0.586575	2.35731	-0.698256
C	0.656849	3.70892	-0.193867
H	0.941648	2.17896	-1.60995
H	1.12241	4.38505	-0.944415
H	1.26495	3.74898	0.738812
H	-0.3617	4.09415	0.0412813
C	280.85	0.359676	1.96494
C	282.311	0.472094	1.75515
O	283.02	1.07557	2.54871
H	280.569	0.903547	2.89299
H	280.56	-0.706657	2.07152
H	280.305	0.807126	1.10732
N	282.8	-0.115387	0.660697
C	284.195	-0.0554051	0.299375
C	284.297	-0.156375	-1.21091
O	283.31	-0.430593	-1.89183
H	282.205	-0.567901	0.00290869
H	284.597	0.908251	0.586136
C	284.989	-1.19589	0.973176
H	284.583	-2.18497	0.671023
H	286.066	-1.15233	0.713788
H	284.894	-1.10683	2.07741
N	285.5	0.0729513	-1.77306
C	285.691	0.00465851	-3.20304
H	286.285	0.297508	-1.20588
H	286.749	0.224402	-3.46912
H	285.039	0.743104	-3.72248
H	285.437	-1.01024	-3.58565
