44
  This energy is 0 and Call times are: 214681
C	-2.21525	-2.63287	0.52282
C	-1.27375	-1.60389	1.01872
O	-1.18838	-1.34625	2.2115
H	-2.77951	-3.05849	1.38092
H	-1.6581	-3.45005	0.0182929
H	-2.93498	-2.18052	-0.191643
N	-0.53553	-0.981362	0.0968322
C	0.393286	0.0724595	0.421367
C	0.504412	0.991685	-0.780395
O	-0.00771485	0.686984	-1.85585
H	-0.645688	-1.17318	-0.874218
H	-0.00386172	0.658964	1.24046
C	1.77693	-0.505955	0.790435
H	2.1895	-1.099	-0.0534355
H	2.49717	0.294895	1.0558
H	1.6703	-1.18158	1.66708
N	1.17406	2.1503	-0.621591
C	1.32651	3.09023	-1.70763
H	1.57801	2.38121	0.257371
H	1.90702	3.98025	-1.37886
H	0.331456	3.43545	-2.0709
H	1.86185	2.61869	-2.56331
C	946.224	3.43877	0.114406
C	945.518	2.24454	-0.402025
O	944.498	2.35121	-1.06905
H	945.67	4.35316	-0.189707
H	947.252	3.48608	-0.302927
H	946.277	3.40253	1.223
N	946.054	1.06037	-0.0973432
C	945.458	-0.191488	-0.492062
C	945.842	-1.24217	0.532785
O	946.676	-0.998546	1.40232
H	946.862	0.988269	0.480954
H	944.379	-0.0966281	-0.468404
C	945.934	-0.609548	-1.90053
H	947.039	-0.717254	-1.9226
H	945.471	-1.56513	-2.22158
H	945.649	0.17742	-2.63271
N	945.23	-2.44089	0.458338
C	945.528	-3.50028	1.39405
H	944.555	-2.6178	-0.249825
H	944.923	-4.40606	1.1676
H	945.3	-3.17889	2.43635
H	946.606	-3.77686	1.34525
