44
  This energy is 0 and Call times are: 207849
C	1.15654	1.57221	-2.88154
C	0.539849	0.422418	-2.18238
O	0.0196148	-0.492538	-2.80578
H	1.03678	1.44192	-3.97906
H	2.23927	1.62955	-2.64248
H	0.660091	2.5172	-2.57556
N	0.583635	0.446172	-0.848257
C	-0.0115286	-0.580085	-0.0290279
C	-0.413287	0.0444832	1.29387
O	-0.0694931	1.18981	1.57978
H	0.974282	1.21769	-0.354278
H	-0.916209	-0.93727	-0.505057
C	0.976169	-1.74509	0.199997
H	1.90008	-1.38102	0.697871
H	0.52479	-2.54815	0.817964
H	1.26259	-2.18176	-0.78165
N	-1.16319	-0.696692	2.13311
C	-1.59752	-0.183923	3.41163
H	-1.43493	-1.61993	1.88237
H	-2.20338	-0.942604	3.95436
H	-2.21959	0.730546	3.27727
H	-0.721612	0.0844575	4.04558
C	457.487	-2.75891	2.11086
C	457.771	-2.14387	0.794693
O	458.317	-2.77951	-0.096488
H	457.858	-3.80679	2.11431
H	456.393	-2.76437	2.30287
H	458.001	-2.19305	2.91645
N	457.401	-0.869895	0.64294
C	457.65	-0.123588	-0.565377
C	457.783	1.34209	-0.197112
O	457.517	1.73289	0.937984
H	456.995	-0.353443	1.39125
H	458.595	-0.43649	-0.990749
C	456.505	-0.324453	-1.58269
H	455.537	0.00622728	-1.15056
H	456.691	0.234154	-2.52283
H	456.421	-1.40486	-1.83158
N	458.208	2.19087	-1.15332
C	458.371	3.60237	-0.893459
H	458.422	1.85518	-2.06471
H	458.729	4.13122	-1.80398
H	459.11	3.76901	-0.0772639
H	457.403	4.05821	-0.580964
