44
  This energy is 0 and Call times are: 205273
C	-0.904913	2.61641	-2.10908
C	-0.28805	2.09679	-0.867864
O	0.383984	2.81905	-0.144594
H	-0.634101	3.68744	-2.23331
H	-2.01035	2.52947	-2.0525
H	-0.534098	2.04773	-2.98782
N	-0.505235	0.808857	-0.591377
C	0.0643966	0.149987	0.557522
C	0.237839	-1.31942	0.22238
O	-0.235947	-1.79011	-0.809942
H	-1.02038	0.223511	-1.21095
H	1.04991	0.555509	0.749727
C	-0.842037	0.319472	1.79643
H	-1.84995	-0.105851	1.60344
H	-0.40749	-0.171721	2.69109
H	-0.961455	1.40244	2.01841
N	0.933571	-2.08071	1.08981
C	1.1544	-3.48811	0.851816
H	1.31277	-1.68092	1.91772
H	1.74751	-3.93835	1.67809
H	1.70867	-3.64291	-0.102176
H	0.18451	-4.03146	0.779659
C	272.855	2.8025	1.88269
C	272.606	1.85439	0.773382
O	271.545	1.85637	0.164605
H	271.953	3.43421	2.03484
H	273.717	3.45904	1.63928
H	273.067	2.24706	2.82054
N	273.597	1.00727	0.483735
C	273.487	-0.00137579	-0.540549
C	274.384	-1.16339	-0.158058
O	275.168	-1.07044	0.785193
H	274.439	0.990439	1.01505
H	272.471	-0.37395	-0.567654
C	273.893	0.565399	-1.91866
H	274.939	0.938146	-1.8943
H	273.8	-0.197873	-2.71816
H	273.229	1.41942	-2.17447
N	274.284	-2.29562	-0.881904
C	275.093	-3.45509	-0.587981
H	273.641	-2.35312	-1.63887
H	274.864	-4.28383	-1.29364
H	274.902	-3.81489	0.449005
H	276.177	-3.21017	-0.67434
