44
  This energy is 0 and Call times are: 212917
C	-0.572636	3.31616	-0.887596
C	-0.296825	2.26512	0.117574
O	0.0172043	2.55275	1.26433
H	-0.427274	4.31571	-0.423197
H	-1.61988	3.23603	-1.24761
H	0.122455	3.215	-1.74766
N	-0.408014	1.00164	-0.299134
C	-0.129461	-0.128552	0.551533
C	0.338526	-1.27563	-0.324109
O	0.270636	-1.20086	-1.54947
H	-0.624553	0.783482	-1.24644
H	0.685183	0.119905	1.2203
C	-1.38389	-0.537132	1.35447
H	-2.21668	-0.802269	0.668758
H	-1.17851	-1.39769	2.02364
H	-1.71327	0.319765	1.98183
N	0.835634	-2.36785	0.28905
C	1.31021	-3.50637	-0.462445
H	0.886275	-2.40808	1.28147
H	1.6802	-4.30215	0.220976
H	2.14404	-3.21023	-1.13943
H	0.492803	-3.93302	-1.08771
C	817.314	-2.26484	-1.13647
C	818.194	-1.09047	-1.33232
O	818.364	-0.605406	-2.44231
H	816.904	-2.58428	-2.11902
H	816.471	-2.00351	-0.462746
H	817.891	-3.10598	-0.697344
N	818.783	-0.601522	-0.238747
C	819.7	0.510796	-0.276696
C	820.674	0.360833	0.87685
O	820.499	-0.495579	1.74151
H	818.667	-1.03235	0.651599
H	820.276	0.468032	-1.19271
C	818.943	1.85309	-0.17516
H	818.36	1.90181	0.769387
H	819.636	2.71777	-0.217211
H	818.23	1.93776	-1.02461
N	821.734	1.1912	0.91156
C	822.717	1.11885	1.96797
H	821.861	1.87504	0.200669
H	823.511	1.8833	1.8195
H	823.197	0.113882	1.98938
H	822.241	1.29526	2.9598
