44
  This energy is 0 and Call times are: 203985
C	0.989267	1.97601	2.68876
C	0.447641	1.81322	1.32081
O	-0.0521196	2.75535	0.72161
H	0.838883	3.02627	3.02075
H	2.07577	1.74768	2.69986
H	0.462004	1.29774	3.39234
N	0.534757	0.59152	0.789543
C	0.0131637	0.268317	-0.51508
C	-0.371513	-1.19918	-0.520411
O	-0.0693493	-1.93287	0.4188
H	0.907159	-0.17469	1.3054
H	-0.8902	0.839219	-0.69011
C	1.05847	0.558075	-1.61445
H	1.98146	-0.035323	-1.44122
H	0.663873	0.326313	-2.62494
H	1.33106	1.6357	-1.58681
N	-1.05955	-1.66137	-1.58296
C	-1.47328	-3.04227	-1.67307
H	-1.29841	-1.05147	-2.33132
H	-2.02659	-3.22602	-2.62033
H	-2.13929	-3.30917	-0.820736
H	-0.589458	-3.71996	-1.64592
C	181.414	-2.64313	2.24603
C	182.095	-1.94931	1.12999
O	183.2	-2.30442	0.74441
H	182.068	-3.45733	2.62648
H	180.457	-3.08492	1.89517
H	181.21	-1.93003	3.07251
N	181.439	-0.924998	0.579345
C	181.992	-0.126295	-0.486174
C	181.399	1.26691	-0.389096
O	180.475	1.50565	0.385999
H	180.558	-0.621988	0.931066
H	183.061	-0.0325294	-0.344637
C	181.681	-0.752327	-1.8633
H	180.583	-0.839034	-2.01337
H	182.113	-0.153906	-2.69138
H	182.117	-1.77412	-1.90893
N	181.927	2.22701	-1.1736
C	181.432	3.5834	-1.14556
H	182.677	2.01549	-1.79141
H	181.995	4.22263	-1.86091
H	181.539	4.01983	-0.126112
H	180.353	3.61354	-1.42207
