44
  This energy is 0 and Call times are: 206701
C	-0.786021	-2.03853	2.7091
C	0.141715	-1.57495	1.65291
O	1.3182	-1.91006	1.6521
H	-0.230606	-2.67374	3.43291
H	-1.60693	-2.63733	2.26157
H	-1.21549	-1.16893	3.24988
N	-0.376671	-0.777901	0.715701
C	0.410825	-0.212563	-0.351446
C	-0.223846	1.10282	-0.761946
O	-1.32291	1.43592	-0.322835
H	-1.32654	-0.480834	0.752739
H	1.4045	0.00984827	0.0170414
C	0.482973	-1.17783	-1.5549
H	-0.535506	-1.39801	-1.93994
H	1.09817	-0.759771	-2.37788
H	0.943307	-2.13626	-1.22955
N	0.462986	1.8896	-1.61357
C	-0.0591856	3.16165	-2.05562
H	1.35266	1.60483	-1.95483
H	0.652133	3.65825	-2.75178
H	-0.230608	3.83887	-1.18772
H	-1.03028	3.02556	-2.5844
C	377.549	2.7715	1.00566
C	377.448	1.41092	0.431459
O	378.407	0.880027	-0.111554
H	378.574	3.16713	0.834288
H	377.354	2.74134	2.09818
H	376.817	3.44828	0.517726
N	376.262	0.80817	0.539049
C	375.997	-0.498958	-0.00876509
C	374.522	-0.578756	-0.351021
O	373.745	0.308562	-0.0020902
H	375.479	1.26928	0.947433
H	376.55	-0.617431	-0.932672
C	376.381	-1.6065	0.997079
H	375.807	-1.49162	1.9412
H	376.195	-2.61811	0.581624
H	377.463	-1.52397	1.23917
N	374.1	-1.64798	-1.05447
C	372.714	-1.80665	-1.43059
H	374.744	-2.35359	-1.33133
H	372.568	-2.74829	-2.00427
H	372.379	-0.954149	-2.0649
H	372.063	-1.8414	-0.527202
