44
  This energy is 0.1196 and Call times are: 216162
C	-3.22153	-0.899524	0.961931
C	-1.83161	-0.498965	1.27629
O	-1.50652	-0.178493	2.41121
H	-3.84037	-0.832344	1.88302
H	-3.24352	-1.94532	0.589687
H	-3.64948	-0.224046	0.191425
N	-0.967276	-0.506586	0.25882
C	0.40888	-0.10067	0.400195
C	0.880915	0.443883	-0.934796
O	0.184504	0.332943	-1.94198
H	-1.25632	-0.730425	-0.66758
H	0.470988	0.70743	1.11835
C	1.29155	-1.28801	0.843304
H	1.23645	-2.11316	0.101592
H	2.35121	-0.984984	0.969087
H	0.923079	-1.67548	1.81821
N	2.08052	1.05679	-0.971188
C	2.60945	1.61082	-2.19571
H	2.62771	1.14046	-0.144959
H	3.60623	2.0722	-2.02027
H	1.92716	2.39354	-2.59958
H	2.7214	0.817553	-2.96988
C	992.52	2.29085	-0.681231
C	993.647	1.42961	-1.10477
O	993.878	1.22652	-2.28869
H	991.978	2.65582	-1.58085
H	992.899	3.16472	-0.111041
H	991.815	1.71369	-0.0467399
N	994.384	0.893712	-0.128841
C	995.486	0.000455359	-0.383482
C	995.625	-0.930833	0.806071
O	994.977	-0.740701	1.83364
H	994.158	1.03529	0.830802
H	995.258	-0.611427	-1.2473
C	996.795	0.78941	-0.608946
H	997.035	1.40925	0.281124
H	997.649	0.113323	-0.819746
H	996.668	1.46998	-1.47901
N	996.473	-1.97151	0.689871
C	996.666	-2.91335	1.76776
H	996.986	-2.11116	-0.151006
H	997.402	-3.69624	1.47896
H	995.706	-3.414	2.02863
H	997.044	-2.3958	2.67897
