44
  This energy is 0 and Call times are: 207541
C	-0.709466	2.53227	2.27968
C	-0.755922	1.95422	0.917754
O	-1.45227	2.4504	0.0429306
H	-1.3896	3.41024	2.32944
H	0.322752	2.86324	2.51995
H	-1.03928	1.77944	3.02638
N	-0.00346585	0.871839	0.706487
C	0.0225445	0.172815	-0.554167
C	0.345633	-1.28401	-0.280612
O	0.693417	-1.65235	0.839694
H	0.526379	0.455441	1.4398
H	-0.963052	0.206142	-1.00152
C	1.07043	0.790373	-1.5059
H	2.08334	0.746875	-1.05187
H	1.09039	0.269573	-2.48513
H	0.818659	1.85839	-1.68564
N	0.229081	-2.15314	-1.30387
C	0.510192	-3.55996	-1.13646
H	-0.0576447	-1.83683	-2.2021
H	0.356428	-4.10815	-2.092
H	-0.159366	-4.00524	-0.365297
H	1.56393	-3.714	-0.809267
C	438.736	-1.3901	-0.981287
C	437.818	-0.861766	0.0530342
O	438.058	-1.00434	1.24416
H	439.588	-1.906	-0.487469
H	439.131	-0.559295	-1.60321
H	438.203	-2.11672	-1.63039
N	436.727	-0.230988	-0.387812
C	435.721	0.29924	0.4975
C	434.392	0.283121	-0.233976
O	434.336	0.0205449	-1.43385
H	436.526	-0.158722	-1.3604
H	435.623	-0.351046	1.35788
C	436.077	1.73493	0.941361
H	436.167	2.40483	0.0597513
H	435.316	2.14919	1.63441
H	437.057	1.72396	1.46725
N	433.282	0.557432	0.47954
C	431.972	0.560061	-0.130321
H	433.346	0.763525	1.45033
H	431.19	0.807826	0.620016
H	431.739	-0.4395	-0.563458
H	431.923	1.31205	-0.950788
