44
  This energy is -2.8098 and Call times are: 219472
C	0.194084	2.78584	2.07704
C	0.16725	2.15934	0.736178
O	0.0420785	2.83505	-0.275825
H	0.0689923	3.88541	1.97125
H	1.16461	2.58091	2.57586
H	-0.633533	2.38847	2.70173
N	0.284058	0.829897	0.699872
C	0.232419	0.0746917	-0.52714
C	-0.30789	-1.30694	-0.209772
O	-0.461534	-1.67094	0.954536
H	0.344101	0.290005	1.5346
H	-0.46609	0.545782	-1.20743
C	1.63207	-0.0262622	-1.17213
H	2.3465	-0.518993	-0.478698
H	1.60312	-0.593717	-2.12485
H	2.01113	0.996425	-1.38842
N	-0.61843	-2.11017	-1.24631
C	-1.14392	-3.43983	-1.04123
H	-0.49103	-1.79637	-2.18139
H	-1.33621	-3.94126	-2.0153
H	-2.10105	-3.40048	-0.472344
H	-0.423638	-4.06218	-0.462429
C	996.833	-0.311433	2.25444
C	995.805	-0.893946	1.36278
O	995.811	-2.08493	1.08362
H	997.545	-1.10753	2.56385
H	996.356	0.11597	3.16109
H	997.394	0.485209	1.72212
N	994.886	-0.0509539	0.88675
C	993.848	-0.461414	-0.0259844
C	993.47	0.733814	-0.880235
O	993.903	1.85501	-0.622049
H	994.919	0.923413	1.09021
H	994.237	-1.22257	-0.690593
C	992.616	-0.990583	0.740968
H	992.21	-0.206618	1.41513
H	991.816	-1.32273	0.048899
H	992.918	-1.85969	1.36531
N	992.653	0.518406	-1.9301
C	992.243	1.59434	-2.80224
H	992.315	-0.396584	-2.12539
H	991.573	1.21604	-3.60532
H	993.129	2.0711	-3.28083
H	991.696	2.37816	-2.22945
