44
  This energy is 0 and Call times are: 209081
C	2.66192	-2.20206	-0.421666
C	1.81022	-1.33341	0.42166
O	1.88311	-1.3683	1.64227
H	3.29873	-2.83757	0.231385
H	3.31713	-1.58271	-1.06963
H	2.02952	-2.85867	-1.05571
N	0.967754	-0.522588	-0.222697
C	0.0460043	0.349417	0.461807
C	-1.16156	0.557139	-0.432723
O	-1.1604	0.157001	-1.59531
H	0.890883	-0.535001	-1.21557
H	-0.301449	-0.13632	1.36512
C	0.711385	1.70247	0.796096
H	1.05859	2.20607	-0.1312
H	0.0160317	2.37767	1.33565
H	1.597	1.52561	1.44476
N	-2.23048	1.18506	0.0956295
C	-3.42663	1.42237	-0.678387
H	-2.21408	1.49792	1.03952
H	-4.19176	1.95063	-0.0678614
H	-3.86329	0.460139	-1.03155
H	-3.19884	2.04685	-1.57241
C	544.771	1.48071	-3.00946
C	544.566	0.49548	-1.92386
O	543.525	-0.140092	-1.83401
H	543.859	1.52327	-3.6437
H	545.634	1.18094	-3.64053
H	544.958	2.48811	-2.58161
N	545.573	0.346967	-1.05954
C	545.504	-0.542035	0.0734071
C	546.4	0.01338	1.16507
O	547.152	0.959956	0.941825
H	546.398	0.901096	-1.12188
H	544.493	-0.55155	0.459551
C	545.948	-1.96873	-0.317293
H	546.99	-1.96107	-0.703643
H	545.887	-2.66597	0.543301
H	545.285	-2.352	-1.12278
N	546.332	-0.561658	2.38194
C	547.142	-0.0969957	3.48356
H	545.714	-1.32391	2.54432
H	546.943	-0.696862	4.39881
H	546.922	0.971419	3.70994
H	548.226	-0.181537	3.23768
