44
  This energy is 0 and Call times are: 214653
C	-0.103161	-0.930919	3.35193
C	-0.560062	-0.0995039	2.21565
O	-1.55036	0.612391	2.31014
H	-0.796749	-0.793555	4.2098
H	0.918065	-0.625881	3.66304
H	-0.0965971	-2.00317	3.06325
N	0.163588	-0.175083	1.09628
C	-0.181021	0.541681	-0.106242
C	0.335673	-0.249607	-1.29302
O	1.07185	-1.22079	-1.13004
H	0.943254	-0.790216	1.02144
H	-1.25903	0.591063	-0.196163
C	0.42715	1.96128	-0.0957995
H	1.53387	1.91091	-0.0141848
H	0.157401	2.52825	-1.0103
H	0.0414333	2.51931	0.785206
N	-0.0479482	0.14568	-2.5229
C	0.38928	-0.549624	-3.711
H	-0.647323	0.931426	-2.63437
H	-0.0329768	-0.0733686	-4.62319
H	0.060142	-1.61375	-3.68687
H	1.50048	-0.53365	-3.78925
C	947.053	-0.775277	0.517147
C	945.649	-1.16842	0.26385
O	945.359	-2.31554	-0.0466429
H	947.715	-1.65473	0.360068
H	947.169	-0.420879	1.563
H	947.357	0.0321519	-0.182183
N	944.731	-0.207009	0.391009
C	943.33	-0.42658	0.135102
C	942.721	0.885842	-0.321683
O	943.364	1.9323	-0.263232
H	944.987	0.731489	0.604339
H	943.221	-1.13284	-0.678592
C	942.612	-0.944633	1.4009
H	942.714	-0.215592	2.23288
H	941.535	-1.13076	1.2129
H	943.079	-1.9014	1.72172
N	941.461	0.858299	-0.798296
C	940.801	2.05711	-1.26095
H	940.958	0.00122185	-0.841589
H	939.772	1.82813	-1.6144
H	941.367	2.5164	-2.10367
H	940.732	2.8087	-0.441542
