44
  This energy is 0 and Call times are: 214317
C	2.23862	-2.5337	-0.825624
C	1.56338	-1.66202	0.16198
O	1.65163	-1.87904	1.36261
H	2.76943	-3.35146	-0.291417
H	2.97795	-1.94764	-1.411
H	1.49185	-2.98051	-1.5154
N	0.860052	-0.640104	-0.331387
C	0.113462	0.268752	0.502367
C	-1.05711	0.797841	-0.30471
O	-1.14563	0.569802	-1.50965
H	0.76398	-0.500458	-1.31278
H	-0.295192	-0.273896	1.34567
C	1.00614	1.43178	0.987905
H	1.41715	1.99526	0.123269
H	0.446313	2.13111	1.64216
H	1.86029	1.02084	1.5692
N	-1.99323	1.51483	0.347703
C	-3.14529	2.05402	-0.336556
H	-1.90632	1.68536	1.32363
H	-3.79764	2.61164	0.371068
H	-3.74625	1.23701	-0.797647
H	-2.83066	2.75072	-1.14696
C	919.24	2.3345	2.53992
C	918.881	1.746	1.23003
O	917.85	2.06477	0.654248
H	918.441	3.03899	2.85759
H	920.198	2.89006	2.4601
H	919.339	1.53515	3.30431
N	919.738	0.856641	0.723841
C	919.504	0.1675	-0.520759
C	920.203	-1.17743	-0.455175
O	920.965	-1.44675	0.471511
H	920.553	0.576937	1.22355
H	918.444	-0.0248133	-0.629016
C	920.03	0.993053	-1.71559
H	921.12	1.18163	-1.61031
H	919.843	0.479314	-2.6809
H	919.511	1.97593	-1.73925
N	919.952	-2.06163	-1.44046
C	920.567	-3.36833	-1.45887
H	919.329	-1.82701	-2.17965
H	920.234	-3.94729	-2.34831
H	920.295	-3.94348	-0.54431
H	921.677	-3.27978	-1.49346
