44
  This energy is 0.1163 and Call times are: 218668
C	2.71838	1.2167	1.80076
C	1.26213	1.07015	1.57939
O	0.454715	1.41005	2.43319
H	2.89518	1.64008	2.81337
H	3.1535	1.90233	1.04358
H	3.21727	0.226951	1.73297
N	0.889387	0.549346	0.407981
C	-0.489624	0.305785	0.0651005
C	-0.536899	-0.8583	-0.906612
O	0.495714	-1.31387	-1.39434
H	1.55959	0.239551	-0.260388
H	-1.03117	0.00636229	0.953756
C	-1.13206	1.56193	-0.563087
H	-0.583231	1.86333	-1.48068
H	-2.19794	1.39147	-0.818792
H	-1.07916	2.40297	0.162304
N	-1.74522	-1.37485	-1.20522
C	-1.88779	-2.48704	-2.11566
H	-2.56905	-0.995346	-0.797362
H	-2.95833	-2.76606	-2.23105
H	-1.33241	-3.37648	-1.73921
H	-1.48276	-2.22695	-3.12037
C	997.425	-2.10263	-1.14781
C	996.257	-1.22223	-1.37737
O	995.948	-0.862499	-2.50483
H	997.915	-2.32347	-2.12075
H	997.099	-3.05763	-0.684697
H	998.158	-1.60031	-0.481809
N	995.574	-0.848245	-0.29323
C	994.44	0.0409608	-0.352833
C	994.36	0.793069	0.962228
O	995.075	0.479484	1.91201
H	995.862	-1.11597	0.621604
H	994.602	0.773397	-1.13394
C	993.135	-0.744717	-0.608271
H	992.964	-1.48902	0.198373
H	992.257	-0.0697088	-0.670083
H	993.22	-1.29353	-1.57159
N	993.486	1.81593	1.04494
C	993.344	2.59255	2.2544
H	992.919	2.05725	0.264403
H	992.577	3.38742	2.12345
H	994.309	3.07829	2.52508
H	993.034	1.94273	3.10463
