44
  This energy is 0 and Call times are: 209025
C	2.24542	-1.68363	-2.05819
C	1.6568	-0.438812	-1.51497
O	2.17965	0.648726	-1.71571
H	3.17749	-1.43795	-2.61205
H	1.53186	-2.17229	-2.75445
H	2.49234	-2.38269	-1.23148
N	0.53717	-0.574333	-0.800518
C	-0.127877	0.539882	-0.172189
C	-0.856419	0.025056	1.0549
O	-0.950705	-1.18159	1.27129
H	0.146085	-1.47051	-0.611364
H	0.613086	1.25256	0.167941
C	-1.11853	1.21249	-1.14761
H	-1.88515	0.484461	-1.48865
H	-1.62686	2.0805	-0.679973
H	-0.564906	1.57441	-2.0414
N	-1.38468	0.935548	1.89631
C	-2.09087	0.539319	3.09234
H	-1.29454	1.9076	1.70639
H	-2.44906	1.43172	3.65139
H	-1.42603	-0.0511771	3.76359
H	-2.97259	-0.0920483	2.83723
C	541.646	2.20624	-2.69116
C	542.368	1.37391	-1.70263
O	543.568	1.16366	-1.80847
H	542.357	2.54416	-3.47597
H	541.209	3.09777	-2.19432
H	540.836	1.61598	-3.1699
N	541.638	0.871886	-0.703724
C	542.191	0.00885496	0.31017
C	541.086	-0.903604	0.808567
O	539.918	-0.720561	0.471337
H	540.654	1.01815	-0.653758
H	542.953	-0.619829	-0.132776
C	542.779	0.833642	1.47591
H	541.995	1.47095	1.93746
H	543.221	0.180789	2.25666
H	543.58	1.49968	1.08679
N	541.434	-1.91989	1.62231
C	540.452	-2.84262	2.14162
H	542.385	-2.05428	1.88073
H	540.934	-3.60667	2.7903
H	539.929	-3.36847	1.31025
H	539.686	-2.30319	2.7448
