44
  This energy is -2.1649 and Call times are: 221642
C	-0.462514	-2.32816	2.54527
C	0.281445	-1.80426	1.37771
O	1.38397	-2.2432	1.08077
H	0.146767	-3.11029	3.0482
H	-1.42338	-2.77712	2.21676
H	-0.665064	-1.51017	3.26842
N	-0.315433	-0.835195	0.679846
C	0.302353	-0.196479	-0.45547
C	-0.238135	1.21759	-0.554666
O	-1.17696	1.58383	0.149739
H	-1.19501	-0.459964	0.958069
H	1.36951	-0.122836	-0.286978
C	0.0119626	-0.979529	-1.7546
H	-1.08238	-1.04628	-1.93347
H	0.493882	-0.505348	-2.63405
H	0.409044	-2.01347	-1.65644
N	0.352274	2.05252	-1.43236
C	-0.0905255	3.41805	-1.59181
H	1.11328	1.73908	-1.99066
H	0.51999	3.94232	-2.35969
H	0.000586265	3.9752	-0.631312
H	-1.15772	3.45059	-1.9099
C	994.43	2.60675	2.27608
C	994.46	1.1658	1.9386
O	994.479	0.311028	2.81348
H	994.446	2.72553	3.38129
H	993.504	3.07354	1.87805
H	995.316	3.1192	1.84649
N	994.468	0.860729	0.638883
C	994.54	-0.495655	0.155565
C	995.221	-0.479223	-1.20002
O	995.456	0.58245	-1.77379
H	994.494	1.56841	-0.0613869
H	995.162	-1.07981	0.822048
C	993.131	-1.11783	0.0460759
H	992.495	-0.524881	-0.645745
H	993.174	-2.16689	-0.311881
H	992.648	-1.1122	1.04783
N	995.563	-1.66452	-1.74241
C	996.22	-1.74703	-3.02621
H	995.368	-2.5127	-1.2611
H	996.418	-2.80695	-3.29908
H	997.191	-1.20256	-3.00603
H	995.586	-1.29267	-3.82182
