44
  This energy is 0 and Call times are: 215073
C	-3.30477	0.882854	-0.641694
C	-1.96837	1.1633	-0.0702631
O	-1.67585	2.27876	0.337899
H	-3.9099	1.81541	-0.635588
H	-3.82604	0.112228	-0.0357628
H	-3.20607	0.525371	-1.68838
N	-1.11311	0.138935	-0.0304437
C	0.237337	0.267699	0.457692
C	1.09653	-0.762724	-0.250527
O	0.586138	-1.62994	-0.957034
H	-1.35184	-0.752854	-0.404058
H	0.621318	1.24492	0.19269
C	0.293254	0.0603538	1.98711
H	-0.0907417	-0.946063	2.2586
H	1.32586	0.170731	2.37707
H	-0.348742	0.820037	2.48417
N	2.43143	-0.685457	-0.0828967
C	3.32883	-1.61951	-0.721964
H	2.82602	0.0258263	0.48933
H	4.38568	-1.39037	-0.461619
H	3.22241	-1.57106	-1.82994
H	3.10612	-2.66222	-0.399025
C	970.434	1.12781	-0.416457
C	971.462	0.0638628	-0.467948
O	971.152	-1.10891	-0.625324
H	969.426	0.670335	-0.521599
H	970.589	1.85013	-1.24529
H	970.486	1.66338	0.554901
N	972.73	0.457112	-0.331618
C	973.837	-0.466741	-0.317567
C	974.948	0.139295	0.518515
O	974.88	1.30309	0.909089
H	972.964	1.41044	-0.163238
H	973.53	-1.38402	0.169519
C	974.334	-0.7547	-1.75137
H	974.658	0.184607	-2.24781
H	975.177	-1.47553	-1.75491
H	973.502	-1.19015	-2.34723
N	976.002	-0.644773	0.821076
C	977.104	-0.156099	1.61625
H	976.038	-1.58515	0.499387
H	977.871	-0.949774	1.75539
H	976.75	0.16886	2.62128
H	977.589	0.716974	1.12209
