44
  This energy is 0.0069 and Call times are: 223486
C	-0.700749	-2.99831	-1.62227
C	-1.04904	-1.61165	-1.23886
O	-1.99256	-1.02986	-1.75627
H	-1.39982	-3.34732	-2.41307
H	-0.787155	-3.6715	-0.743583
H	0.336493	-3.03719	-2.01687
N	-0.279463	-1.04213	-0.308391
C	-0.46781	0.316283	0.136355
C	0.875865	0.856666	0.588107
O	1.85064	0.114489	0.691509
H	0.509928	-1.51395	0.0738618
H	-0.795473	0.923285	-0.698401
C	-1.49328	0.382141	1.28931
H	-1.15252	-0.231981	2.14999
H	-1.6574	1.42455	1.63132
H	-2.46649	-0.0255807	0.93861
N	0.960378	2.17358	0.861263
C	2.19925	2.77816	1.29239
H	0.161711	2.75878	0.767768
H	2.06512	3.86858	1.4662
H	2.99223	2.64102	0.521899
H	2.55469	2.31293	2.24021
C	994.963	0.899403	2.69264
C	993.756	1.07139	1.85333
O	992.838	1.79817	2.20667
H	994.852	1.4976	3.62303
H	995.863	1.2504	2.14519
H	995.09	-0.169413	2.96566
N	993.731	0.392213	0.70422
C	992.606	0.424542	-0.197148
C	992.567	-0.89056	-0.952516
O	993.495	-1.69328	-0.867386
H	994.468	-0.227233	0.449621
H	991.69	0.494045	0.376639
C	992.721	1.61034	-1.18
H	993.655	1.53386	-1.77631
H	991.853	1.65427	-1.87037
H	992.755	2.56146	-0.605115
N	991.481	-1.14602	-1.70786
C	991.353	-2.37385	-2.45775
H	990.739	-0.486016	-1.76093
H	990.391	-2.39657	-3.0143
H	991.385	-3.2551	-1.77683
H	992.185	-2.47432	-3.1918
