44
  This energy is 0 and Call times are: 203677
C	-1.57655	-3.09365	0.23777
C	-0.980069	-1.88456	0.848878
O	-1.11668	-1.64453	2.04057
H	-2.13207	-3.6621	1.01503
H	-0.779794	-3.74317	-0.181813
H	-2.2821	-2.80583	-0.56997
N	-0.295408	-1.08215	0.030489
C	0.305622	0.152445	0.469925
C	0.353363	1.10225	-0.712082
O	0.0749132	0.712828	-1.84457
H	-0.227572	-1.26973	-0.945255
H	-0.323998	0.60762	1.22426
C	1.7257	-0.0923943	1.02551
H	2.37499	-0.549657	0.248745
H	2.19382	0.848749	1.37996
H	1.66748	-0.796218	1.88435
N	0.702008	2.38172	-0.472412
C	0.769313	3.35844	-1.53433
H	0.919823	2.67894	0.451322
H	1.07343	4.35163	-1.13644
H	-0.222221	3.46828	-2.03038
H	1.5095	3.04848	-2.30711
C	161.886	0.796147	-2.58837
C	161.506	0.793962	-1.15774
O	162.308	1.10968	-0.289344
H	162.952	1.09698	-2.68478
H	161.257	1.51778	-3.15043
H	161.759	-0.21917	-3.01966
N	160.253	0.429078	-0.877184
C	159.75	0.336853	0.470685
C	158.655	-0.713121	0.495982
O	158.225	-1.1998	-0.547987
H	159.624	0.135435	-1.59167
H	160.541	-0.00669423	1.12486
C	159.204	1.69974	0.950284
H	158.385	2.04762	0.285614
H	158.826	1.64513	1.99182
H	160.02	2.45438	0.915933
N	158.182	-1.0946	1.69886
C	157.144	-2.09156	1.82155
H	158.545	-0.692349	2.53263
H	156.893	-2.26784	2.8906
H	157.473	-3.05786	1.37496
H	156.22	-1.76378	1.29305
