44
  This energy is 0 and Call times are: 203257
C	3.16395	1.1124	0.929857
C	1.96522	0.269602	1.13926
O	1.961	-0.630254	1.96791
H	3.97681	0.769386	1.60623
H	2.93033	2.17356	1.15811
H	3.51182	1.02856	-0.12136
N	0.904584	0.546528	0.377193
C	-0.31903	-0.213654	0.435942
C	-0.984153	-0.145318	-0.925857
O	-0.560262	0.612351	-1.79647
H	0.936947	1.2555	-0.321502
H	-0.0848558	-1.25318	0.628753
C	-1.26105	0.340671	1.52707
H	-1.51004	1.40406	1.32399
H	-2.20099	-0.244876	1.5916
H	-0.750835	0.288295	2.51363
N	-2.04441	-0.947769	-1.14486
C	-2.73775	-0.955295	-2.4119
H	-2.37019	-1.557	-0.429476
H	-3.58023	-1.68134	-2.39487
H	-2.04548	-1.24103	-3.23677
H	-3.1493	0.0543554	-2.64075
C	131.329	-0.98346	-2.91394
C	130.442	-1.25703	-1.76145
O	129.774	-2.28039	-1.7058
H	131.247	-1.81566	-3.64644
H	132.384	-0.90583	-2.57485
H	131.03	-0.0365031	-3.41091
N	130.413	-0.330102	-0.801042
C	129.566	-0.435135	0.360813
C	129.233	0.968033	0.831533
O	129.797	1.94614	0.345348
H	130.931	0.516751	-0.879981
H	128.634	-0.911588	0.0818081
C	130.266	-1.23102	1.48398
H	131.217	-0.736902	1.77789
H	129.619	-1.33073	2.37909
H	130.508	-2.25161	1.11476
N	128.295	1.09967	1.79007
C	127.908	2.39594	2.29648
H	127.846	0.296691	2.16829
H	127.124	2.2947	3.07858
H	127.505	3.03378	1.47662
H	128.784	2.92033	2.74344
