44
  This energy is -6.5167 and Call times are: 223872
C	2.72541	0.00735173	-2.16443
C	1.28435	0.194934	-1.88285
O	0.541335	0.714564	-2.70402
H	2.95938	0.417305	-3.17095
H	2.98109	-1.07297	-2.14808
H	3.33615	0.543034	-1.40737
N	0.851914	-0.229778	-0.693313
C	-0.514294	-0.0768688	-0.258972
C	-0.521145	0.0211811	1.25493
O	0.499797	-0.195979	1.90472
H	1.47675	-0.613479	-0.0193532
H	-0.909511	0.854755	-0.644344
C	-1.37895	-1.26735	-0.728397
H	-0.980064	-2.2223	-0.324672
H	-2.43616	-1.15451	-0.412006
H	-1.3529	-1.32464	-1.83853
N	-1.67921	0.361376	1.85425
C	-1.77971	0.484473	3.28984
H	-2.49367	0.537231	1.31129
H	-2.81181	0.772104	3.58859
H	-1.07615	1.26135	3.66766
H	-1.52704	-0.480612	3.78573
C	992.126	-1.95181	2.4457
C	992.164	-1.35402	1.09206
O	991.379	-1.70479	0.22275
H	991.324	-2.72058	2.48518
H	991.912	-1.16937	3.20367
H	993.099	-2.43479	2.67832
N	993.098	-0.423212	0.880512
C	993.286	0.217645	-0.397146
C	994.743	0.623171	-0.51271
O	995.499	0.540746	0.454021
H	993.757	-0.177661	1.58572
H	993.086	-0.495265	-1.1873
C	992.368	1.45176	-0.535948
H	992.58	2.18817	0.268261
H	992.494	1.94592	-1.52111
H	991.307	1.13262	-0.440245
N	995.176	1.06579	-1.70969
C	996.548	1.46865	-1.91572
H	994.551	1.12154	-2.48122
H	996.707	1.80084	-2.96532
H	997.242	0.622025	-1.70728
H	996.817	2.31019	-1.23693
