44
  This energy is 0 and Call times are: 208213
C	-1.33543	2.82537	1.53187
C	-1.33333	1.79977	0.464495
O	-2.2796	1.68161	-0.301671
H	-2.29288	3.38928	1.4975
H	-0.494786	3.53508	1.38232
H	-1.23846	2.34223	2.52699
N	-0.25136	1.02101	0.391906
C	-0.122105	-0.0488317	-0.565844
C	0.782086	-1.11098	0.0306667
O	1.3941	-0.902226	1.07641
H	0.493056	1.10231	1.04849
H	-1.09165	-0.503629	-0.726403
C	0.459559	0.471189	-1.89869
H	1.45885	0.928416	-1.7362
H	0.551011	-0.340601	-2.64913
H	-0.214072	1.25282	-2.31297
N	0.880623	-2.2863	-0.621223
C	1.71267	-3.35798	-0.125874
H	0.374501	-2.43795	-1.46379
H	1.66012	-4.24068	-0.800634
H	1.3829	-3.67362	0.890443
H	2.77554	-3.03111	-0.0579377
C	481.247	-2.4645	0.144588
C	481.717	-1.11494	-0.240913
O	481.059	-0.405125	-0.989173
H	480.278	-2.67333	-0.358594
H	481.1	-2.51914	1.24379
H	481.987	-3.23135	-0.167966
N	482.888	-0.726428	0.269212
C	483.496	0.541781	-0.0482238
C	485.001	0.387802	0.0694998
O	485.494	-0.633034	0.545158
H	483.432	-1.33149	0.844126
H	483.277	0.794926	-1.07812
C	482.989	1.6495	0.901133
H	483.223	1.39528	1.95701
H	483.439	2.63373	0.658047
H	481.885	1.73917	0.804091
N	485.769	1.40257	-0.37225
C	487.211	1.34306	-0.305806
H	485.352	2.2188	-0.757737
H	487.662	2.2725	-0.717685
H	487.596	0.477111	-0.891767
H	487.551	1.2251	0.748418
