44
  This energy is 0 and Call times are: 202137
C	1.93571	-2.75953	-0.866447
C	1.65021	-1.58408	-0.0132402
O	2.25541	-1.39994	1.03377
H	2.72306	-3.37982	-0.385629
H	2.29663	-2.43013	-1.86343
H	1.01932	-3.3744	-0.989918
N	0.703216	-0.750192	-0.449375
C	0.285035	0.413113	0.292517
C	-1.16386	0.699551	-0.0541849
O	-1.72502	0.0938919	-0.965224
H	0.190841	-0.935302	-1.28309
H	0.325993	0.194659	1.35234
C	1.17329	1.63085	-0.0441518
H	1.12337	1.86189	-1.12959
H	0.870059	2.5295	0.531184
H	2.22992	1.39588	0.210168
N	-1.80913	1.63068	0.67565
C	-3.1909	1.96604	0.42185
H	-1.33943	2.10719	1.41145
H	-3.54056	2.75241	1.12654
H	-3.84161	1.07017	0.545495
H	-3.31884	2.34478	-0.618021
C	50.7194	1.50154	-2.96966
C	50.4345	0.305985	-2.14465
O	50.3903	-0.81062	-2.64229
H	50.8504	1.19352	-4.02977
H	51.6514	1.99404	-2.62078
H	49.8755	2.22041	-2.90594
N	50.2294	0.518548	-0.842687
C	49.8993	-0.539939	0.0788463
C	49.0748	0.0537728	1.20545
O	48.9356	1.27088	1.31022
H	50.2282	1.43783	-0.459567
H	49.2789	-1.27107	-0.424289
C	51.1771	-1.20521	0.635479
H	51.8089	-0.457644	1.16088
H	50.9361	-2.03108	1.33574
H	51.7687	-1.62563	-0.20688
N	48.4984	-0.799165	2.0751
C	47.6913	-0.326039	3.17552
H	48.6192	-1.78088	1.9715
H	47.3061	-1.17938	3.77607
H	46.821	0.259933	2.80079
H	48.2886	0.333453	3.84595
