44
  This energy is 0 and Call times are: 213393
C	-1.9703	-1.28886	-2.5631
C	-1.68827	-1.0521	-1.12938
O	-2.53264	-1.27541	-0.272875
H	-3.01345	-1.6561	-2.67646
H	-1.27427	-2.05275	-2.96899
H	-1.85749	-0.34452	-3.13633
N	-0.473557	-0.584198	-0.832884
C	-0.0669281	-0.264522	0.512857
C	0.977951	0.833165	0.443096
O	1.45655	1.17947	-0.635203
H	0.18885	-0.368639	-1.54466
H	-0.914858	0.131431	1.05771
C	0.502564	-1.50956	1.22757
H	1.37897	-1.90992	0.6747
H	0.806433	-1.27956	2.26934
H	-0.276296	-2.30245	1.26
N	1.35171	1.41507	1.59969
C	2.33557	2.47206	1.63068
H	0.95016	1.12406	2.46175
H	2.50658	2.8197	2.67333
H	1.99692	3.34184	1.02235
H	3.30662	2.11748	1.21538
C	851.646	2.78647	0.357706
C	851.889	1.39473	-0.0839575
O	850.967	0.673446	-0.44004
H	850.555	2.99967	0.316547
H	852.176	3.49791	-0.309314
H	852	2.92418	1.40118
N	853.158	0.980112	-0.0677727
C	853.546	-0.360734	-0.428456
C	854.811	-0.707772	0.332736
O	855.418	0.150392	0.971373
H	853.892	1.56561	0.263556
H	852.777	-1.05326	-0.108948
C	853.78	-0.476587	-1.95055
H	854.576	0.22618	-2.27714
H	854.066	-1.50781	-2.24273
H	852.844	-0.210519	-2.48755
N	855.237	-1.98562	0.288658
C	856.428	-2.41005	0.986513
H	854.731	-2.66661	-0.230121
H	856.611	-3.49574	0.82812
H	856.328	-2.2275	2.08103
H	857.318	-1.84765	0.622568
