44
  This energy is 0 and Call times are: 203901
C	0.627486	-0.11216	3.42146
C	0.0517544	-0.682435	2.18272
O	-0.37399	-1.82882	2.15196
H	0.606597	-0.881103	4.22406
H	0.0337972	0.76661	3.75015
H	1.6797	0.197059	3.24735
N	0.0281879	0.119276	1.11545
C	-0.461859	-0.30787	-0.171396
C	0.262615	0.487327	-1.24114
O	0.98273	1.43742	-0.940346
H	0.415853	1.03618	1.14495
H	-0.212332	-1.35102	-0.320381
C	-1.9878	-0.0953345	-0.278929
H	-2.24336	0.976338	-0.13664
H	-2.37941	-0.433291	-1.26023
H	-2.49685	-0.680022	0.518164
N	0.0938488	0.108932	-2.52347
C	0.747657	0.802643	-3.60859
H	-0.48954	-0.664934	-2.74677
H	0.483771	0.341545	-4.58581
H	1.85472	0.762814	-3.48983
H	0.441244	1.87349	-3.6318
C	175.742	1.34018	-3.21169
C	175.173	1.23993	-1.84866
O	174.347	2.04741	-1.44647
H	175.311	2.22768	-3.7247
H	175.493	0.43064	-3.79791
H	176.845	1.45539	-3.15863
N	175.613	0.229598	-1.09496
C	175.185	0.0269558	0.266654
C	176.304	-0.670803	1.01583
O	177.284	-1.1097	0.417412
H	176.316	-0.395441	-1.42183
H	175.031	0.988846	0.739572
C	173.891	-0.815407	0.318527
H	174.052	-1.80637	-0.157142
H	173.543	-0.966726	1.36099
H	173.088	-0.289609	-0.242576
N	176.187	-0.782163	2.35368
C	177.205	-1.42564	3.15082
H	175.388	-0.417129	2.82051
H	176.926	-1.41676	4.22743
H	178.182	-0.901692	3.03791
H	177.342	-2.48446	2.83277
