44
  This energy is 0 and Call times are: 213785
C	1.15838	2.46217	-2.16992
C	1.31752	1.58965	-0.984793
O	2.39581	1.48381	-0.416896
H	2.13567	2.9328	-2.41341
H	0.416981	3.26151	-1.95988
H	0.820035	1.86448	-3.04249
N	0.227721	0.932718	-0.580878
C	0.236639	0.0142159	0.530353
C	-0.841116	-1.02662	0.292329
O	-1.64736	-0.899456	-0.627192
H	-0.632799	0.997438	-1.07805
H	1.18645	-0.50519	0.556876
C	-0.0120506	0.75651	1.86166
H	-0.991115	1.28087	1.83892
H	0.00623515	0.0620291	2.72647
H	0.783825	1.51845	2.01125
N	-0.874397	-2.09208	1.11678
C	-1.86085	-3.13592	0.963521
H	-0.211037	-2.17944	1.85258
H	-1.72296	-3.92386	1.7364
H	-1.77686	-3.61136	-0.0405565
H	-2.89018	-2.72185	1.06441
C	879.122	1.62448	-1.68139
C	880.547	1.25505	-1.52568
O	881.357	1.46841	-2.41693
H	878.966	2.07218	-2.68699
H	878.832	2.3673	-0.908602
H	878.48	0.723181	-1.58613
N	880.888	0.68057	-0.36986
C	882.227	0.226911	-0.0887786
C	882.139	-0.932649	0.885506
O	881.072	-1.22488	1.42187
H	880.209	0.476211	0.329778
H	882.675	-0.150409	-0.999629
C	883.083	1.36785	0.503386
H	882.63	1.74819	1.44347
H	884.121	1.0348	0.711245
H	883.128	2.20855	-0.222984
N	883.266	-1.62967	1.13146
C	883.277	-2.75248	2.03994
H	884.119	-1.38063	0.684735
H	884.296	-3.19322	2.10796
H	882.575	-3.54504	1.69349
H	882.963	-2.43529	3.06072
