44
  This energy is 0 and Call times are: 206477
C	-3.05313	-1.18958	1.17303
C	-2.068	-0.103127	0.972323
O	-2.36294	1.06543	1.18185
H	-4.02071	-0.751916	1.50184
H	-2.69338	-1.8931	1.95303
H	-3.21286	-1.74166	0.222879
N	-0.855521	-0.471591	0.552201
C	0.194743	0.475312	0.271344
C	1.09859	-0.122045	-0.790625
O	0.970912	-1.29402	-1.13974
H	-0.642958	-1.42263	0.346761
H	-0.238595	1.37674	-0.143719
C	1.00069	0.800074	1.54814
H	1.45419	-0.122809	1.96845
H	1.80368	1.53872	1.34781
H	0.317931	1.22849	2.31407
N	2.03407	0.678694	-1.33809
C	2.93554	0.199205	-2.35968
H	2.11935	1.62537	-1.04549
H	3.62955	1.00641	-2.68214
H	2.36749	-0.151638	-3.25159
H	3.54246	-0.654093	-1.97933
C	357.341	-0.150369	2.55436
C	358.511	0.473324	1.89587
O	358.927	1.56787	2.24941
H	356.956	0.532521	3.3425
H	357.634	-1.11251	3.02446
H	356.536	-0.33239	1.81167
N	359.074	-0.22137	0.904719
C	360.192	0.273936	0.141362
C	360.126	-0.33759	-1.24545
O	359.324	-1.23335	-1.50119
H	358.699	-1.09245	0.601196
H	360.099	1.34655	0.0257024
C	361.53	-0.0823101	0.827131
H	361.631	-1.18315	0.936505
H	362.398	0.305671	0.256118
H	361.553	0.368743	1.84318
N	360.969	0.14187	-2.18102
C	360.975	-0.374928	-3.52975
H	361.609	0.869741	-1.95617
H	361.738	0.147664	-4.14807
H	359.979	-0.233594	-4.00855
H	361.208	-1.4644	-3.53228
