44
  This energy is -2.5389 and Call times are: 223306
C	1.95648	2.5536	-1.32816
C	1.10386	1.35286	-1.47782
O	0.696133	0.998852	-2.57548
H	2.11019	3.02146	-2.32483
H	2.94444	2.27141	-0.907404
H	1.46593	3.29007	-0.657278
N	0.809389	0.690621	-0.356611
C	-0.044288	-0.471023	-0.33712
C	-0.723781	-0.535953	1.01773
O	-0.384592	0.216428	1.9291
H	1.11489	1.01444	0.534274
H	-0.821323	-0.35585	-1.0825
C	0.769139	-1.75786	-0.59715
H	1.55967	-1.882	0.173362
H	0.120821	-2.65798	-0.598391
H	1.26394	-1.68489	-1.59023
N	-1.71191	-1.43795	1.17908
C	-2.41938	-1.56819	2.43156
H	-1.97498	-2.03524	0.428676
H	-3.19455	-2.36307	2.36455
H	-2.92157	-0.610701	2.70042
H	-1.71636	-1.83224	3.25447
C	996.604	1.94447	-1.73886
C	996.084	1.34595	-0.488888
O	996.74	1.36691	0.543598
H	997.621	2.35482	-1.55432
H	995.939	2.7682	-2.07419
H	996.667	1.17311	-2.53518
N	994.873	0.787575	-0.557252
C	994.253	0.127927	0.564704
C	993.322	-0.942685	0.0281727
O	993.074	-1.01726	-1.17383
H	994.369	0.742144	-1.41491
H	995.014	-0.371193	1.15112
C	993.473	1.13701	1.43587
H	992.685	1.6417	0.837368
H	993.002	0.64354	2.31078
H	994.173	1.91549	1.81105
N	992.787	-1.80732	0.913011
C	991.894	-2.86248	0.493988
H	993.003	-1.73352	1.88109
H	991.562	-3.46659	1.36697
H	992.401	-3.54138	-0.22974
H	990.992	-2.43924	-0.00333457
