44
  This energy is 0 and Call times are: 206449
C	-0.02911	-2.2251	-2.67596
C	-0.371212	-1.85658	-1.28373
O	-1.14984	-2.53068	-0.623626
H	-0.591644	-3.14016	-2.96249
H	1.05868	-2.43053	-2.76119
H	-0.30502	-1.40207	-3.36848
N	0.212281	-0.757382	-0.800343
C	-0.0545267	-0.248873	0.522076
C	0.151437	1.25403	0.501368
O	0.644782	1.80864	-0.478799
H	0.812166	-0.19634	-1.36358
H	-1.0929	-0.428749	0.771197
C	0.874629	-0.908431	1.56462
H	1.9398	-0.715281	1.31534
H	0.669545	-0.535324	2.58895
H	0.712614	-2.00845	1.55676
N	-0.23253	1.95279	1.58779
C	-0.0805143	3.3875	1.65635
H	-0.633531	1.48678	2.36952
H	-0.454596	3.77657	2.62893
H	-0.651657	3.88255	0.83782
H	0.990872	3.67465	1.55234
C	355.014	1.60439	-1.52443
C	356.251	1.62061	-0.711032
O	356.81	2.67169	-0.430606
H	354.748	2.6456	-1.80872
H	354.177	1.1662	-0.940422
H	355.171	1.00873	-2.44827
N	356.713	0.434033	-0.309882
C	357.928	0.286062	0.451209
C	358.52	-1.07472	0.136612
O	357.889	-1.89991	-0.520448
H	356.269	-0.415518	-0.580576
H	358.644	1.03183	0.12925
C	357.651	0.419196	1.96472
H	356.924	-0.352375	2.29759
H	358.581	0.32092	2.5608
H	357.211	1.41921	2.17062
N	359.76	-1.33817	0.594879
C	360.407	-2.60416	0.340026
H	360.257	-0.656258	1.12128
H	361.42	-2.62734	0.798322
H	360.514	-2.7772	-0.755389
H	359.81	-3.44319	0.765512
