44
  This energy is 0 and Call times are: 207989
C	0.278196	-2.64835	-2.24087
C	0.560437	-2.01107	-0.934985
O	1.05118	-2.64769	-0.0128683
H	0.562644	-3.72206	-2.1947
H	0.866655	-2.15485	-3.04269
H	-0.804162	-2.5732	-2.4774
N	0.248677	-0.717487	-0.826204
C	0.425023	0.0282353	0.395009
C	-0.607774	1.13911	0.424185
O	-1.29809	1.38333	-0.563507
H	-0.188011	-0.223129	-1.57238
H	0.226825	-0.618758	1.24044
C	1.85177	0.612911	0.483259
H	2.05187	1.28503	-0.378285
H	2.00445	1.17777	1.42567
H	2.59107	-0.217037	0.452151
N	-0.743656	1.83662	1.56919
C	-1.70446	2.90804	1.69212
H	-0.178881	1.62157	2.35903
H	-1.66434	3.35752	2.70877
H	-2.73796	2.53092	1.51619
H	-1.49758	3.70904	0.945977
C	469.012	2.06094	-2.47867
C	467.874	1.51621	-1.70393
O	466.759	2.01235	-1.7834
H	468.668	2.93785	-3.06903
H	469.405	1.29049	-3.17511
H	469.822	2.38548	-1.79204
N	468.137	0.466308	-0.922269
C	467.143	-0.146089	-0.0767271
C	467.85	-0.758064	1.11791
O	469.077	-0.825267	1.15704
H	469.059	0.0992079	-0.836911
H	466.475	0.618227	0.300491
C	466.351	-1.22457	-0.848218
H	467.035	-2.01442	-1.2264
H	465.573	-1.69389	-0.211888
H	465.849	-0.755867	-1.72237
N	467.086	-1.21382	2.13043
C	467.671	-1.80703	3.31042
H	466.095	-1.14696	2.0823
H	466.88	-2.11874	4.02722
H	468.342	-1.08093	3.82356
H	468.274	-2.70436	3.0416
