44
  This energy is 0 and Call times are: 210509
C	-0.0658672	-3.47969	-0.0097167
C	-0.14348	-2.17673	0.68843
O	-0.516159	-2.10285	1.85121
H	-0.403775	-4.2854	0.677689
H	0.980242	-3.68644	-0.318999
H	-0.721653	-3.47336	-0.905818
N	0.211049	-1.10196	-0.0197697
C	0.147168	0.237682	0.509237
C	-0.0852737	1.19214	-0.646848
O	-0.0229371	0.799216	-1.81022
H	0.473108	-1.17361	-0.977923
H	-0.705425	0.319842	1.17178
C	1.45002	0.598691	1.25589
H	2.32376	0.524775	0.573868
H	1.40779	1.62291	1.67982
H	1.60403	-0.117364	2.09249
N	-0.368986	2.47579	-0.350558
C	-0.610552	3.45467	-1.38478
H	-0.419102	2.77391	0.596903
H	-0.826851	4.45112	-0.940349
H	-1.48009	3.1552	-2.01367
H	0.278528	3.55229	-2.04898
C	648.369	1.12565	-3.22461
C	648.646	1.09585	-1.77089
O	649.665	1.59199	-1.31064
H	649.211	1.62743	-3.749
H	647.434	1.69001	-3.42426
H	648.267	0.0914873	-3.61601
N	647.73	0.500452	-1.00393
C	647.881	0.355389	0.422556
C	647.127	-0.888445	0.853648
O	646.393	-1.48462	0.0671529
H	646.926	0.0651514	-1.39767
H	648.926	0.196525	0.657179
C	647.342	1.59898	1.1634
H	646.267	1.75629	0.93132
H	647.465	1.5054	2.26188
H	647.903	2.49815	0.826583
N	647.297	-1.31571	2.12024
C	646.625	-2.49316	2.61799
H	647.898	-0.822338	2.74063
H	646.895	-2.68016	3.68083
H	646.91	-3.38986	2.02124
H	645.52	-2.37176	2.55251
