44
  This energy is -3.0357 and Call times are: 221778
C	1.33988	-0.455971	3.17955
C	0.990934	0.399108	2.02273
O	1.04615	1.61884	2.09769
H	1.6143	0.188295	4.04296
H	2.20362	-1.10659	2.92779
H	0.472066	-1.08768	3.46405
N	0.615256	-0.233787	0.908869
C	0.204882	0.463111	-0.284649
C	-0.774739	-0.419724	-1.03465
O	-0.965102	-1.58424	-0.689148
H	0.535891	-1.226	0.875938
H	-0.322802	1.36702	-0.00693068
C	1.42228	0.798242	-1.17396
H	1.95786	-0.129563	-1.46784
H	1.12085	1.34723	-2.08954
H	2.12933	1.43821	-0.602243
N	-1.42931	0.121115	-2.0811
C	-2.38446	-0.641167	-2.85103
H	-1.26493	1.06636	-2.34293
H	-2.81529	-0.0213253	-3.66797
H	-3.21846	-0.995239	-2.20268
H	-1.89869	-1.53405	-3.30701
C	996.967	2.47283	0.396776
C	995.57	2.04086	0.16462
O	994.644	2.83934	0.211128
H	996.982	3.56218	0.617994
H	997.582	2.28088	-0.507311
H	997.398	1.92452	1.26059
N	995.385	0.743979	-0.092709
C	994.08	0.166984	-0.297263
C	994.131	-1.28546	0.137844
O	995.201	-1.82087	0.4199
H	996.144	0.0990149	-0.0867534
H	993.363	0.669527	0.340333
C	993.655	0.273836	-1.77836
H	994.384	-0.250588	-2.43195
H	992.646	-0.154578	-1.9462
H	993.632	1.34459	-2.07717
N	992.966	-1.95803	0.210673
C	992.916	-3.34219	0.620313
H	992.109	-1.50652	-0.0175885
H	991.868	-3.71598	0.616934
H	993.328	-3.46251	1.64856
H	993.518	-3.97791	-0.0689922
