44
  This energy is -4.2748 and Call times are: 219102
C	0.999727	-2.39612	-2.31772
C	0.515616	-1.04104	-1.97055
O	0.496763	-0.143444	-2.80143
H	1.32505	-2.40878	-3.38068
H	0.186323	-3.13955	-2.18196
H	1.86234	-2.67074	-1.67462
N	0.108734	-0.860617	-0.711867
C	-0.348261	0.41285	-0.213875
C	-0.0529736	0.472844	1.27299
O	0.336625	-0.523841	1.87842
H	0.168486	-1.58991	-0.0362731
H	0.217579	1.20549	-0.687356
C	-1.85954	0.59667	-0.473637
H	-2.44129	-0.210315	0.0207125
H	-2.22072	1.57939	-0.107104
H	-2.05338	0.54126	-1.56712
N	-0.225005	1.65457	1.89746
C	0.0363581	1.80837	3.30962
H	-0.537007	2.45083	1.38982
H	-0.163658	2.85301	3.6351
H	1.09903	1.56658	3.54101
H	-0.610854	1.12514	3.90583
C	995.36	1.94848	-2.8072
C	995.013	1.80048	-1.37585
O	995.023	2.76175	-0.619355
H	995.622	3.00884	-3.01378
H	994.496	1.66184	-3.44224
H	996.231	1.30733	-3.05795
N	994.695	0.570205	-0.966477
C	994.376	0.261646	0.40535
C	994.759	-1.18288	0.666458
O	995.097	-1.92166	-0.256605
H	994.731	-0.20942	-1.58515
H	994.98	0.878651	1.0596
C	992.874	0.482583	0.685996
H	992.255	-0.157965	0.022312
H	992.619	0.261628	1.74266
H	992.614	1.54412	0.480709
N	994.724	-1.61859	1.94117
C	995.077	-2.97598	2.28616
H	994.452	-1.00477	2.67499
H	994.985	-3.13973	3.3825
H	996.127	-3.19728	1.98565
H	994.409	-3.70015	1.76601
