44
  This energy is 0 and Call times are: 207457
C	2.94809	1.00592	1.55228
C	2.13744	0.739267	0.342782
O	2.51542	1.09732	-0.764171
H	3.86706	1.56088	1.26351
H	3.24213	0.0499376	2.03434
H	2.36886	1.62044	2.27336
N	0.983486	0.0950762	0.531936
C	0.0673533	-0.197548	-0.542137
C	-1.33506	-0.251672	0.0339288
O	-1.5181	-0.224607	1.24945
H	0.670046	-0.153701	1.44393
H	0.0896923	0.611822	-1.2612
C	0.425136	-1.53685	-1.22295
H	0.392073	-2.36913	-0.487928
H	-0.264714	-1.76662	-2.06071
H	1.45811	-1.47715	-1.63007
N	-2.36473	-0.321427	-0.832642
C	-3.73434	-0.371354	-0.376724
H	-2.19684	-0.338167	-1.81275
H	-4.43428	-0.425718	-1.23948
H	-3.98309	0.536193	0.21973
H	-3.90177	-1.26457	0.267691
C	429.868	-0.601469	3.42383
C	429.683	-1.05801	2.02806
O	429.666	-2.24879	1.74847
H	429.995	-1.48565	4.08567
H	428.981	-0.0255486	3.75954
H	430.774	0.0372347	3.50022
N	429.539	-0.103598	1.10567
C	429.392	-0.391312	-0.299442
C	429.95	0.78176	-1.0831
O	430.271	1.82363	-0.514409
H	429.596	0.861961	1.34299
H	429.989	-1.2597	-0.550304
C	427.91	-0.628977	-0.66236
H	427.3	0.265555	-0.414933
H	427.786	-0.865154	-1.73905
H	427.52	-1.48653	-0.0714436
N	430.088	0.634922	-2.41562
C	430.615	1.69522	-3.24257
H	429.826	-0.217095	-2.85717
H	430.65	1.38165	-4.30919
H	431.647	1.96617	-2.92289
H	429.979	2.60687	-3.16558
