44
  This energy is 0 and Call times are: 214401
C	-1.35447	-2.71629	-1.7029
C	-0.236238	-2.03993	-1.00774
O	0.779137	-2.64907	-0.700535
H	-1.10082	-3.78868	-1.84961
H	-1.52702	-2.24882	-2.69509
H	-2.28125	-2.64611	-1.09524
N	-0.402615	-0.742969	-0.738335
C	0.578861	0.0394085	-0.0290028
C	-0.144393	1.15285	0.704966
O	-1.33807	1.3682	0.503775
H	-1.25148	-0.270755	-0.958127
H	1.05835	-0.580979	0.717886
C	1.62668	0.623472	-1.00173
H	1.13648	1.26847	-1.7618
H	2.39589	1.21659	-0.465965
H	2.1378	-0.208611	-1.53346
N	0.565453	1.88538	1.58562
C	-0.0396477	2.96209	2.33443
H	1.52932	1.6934	1.73784
H	0.706397	3.4424	3.00521
H	-0.879713	2.58197	2.95979
H	-0.445189	3.73944	1.64711
C	925.394	1.47942	-3.13534
C	924.821	1.01447	-1.85216
O	923.683	1.3173	-1.52039
H	924.648	2.11223	-3.66303
H	925.647	0.610551	-3.77848
H	926.309	2.08121	-2.95021
N	925.612	0.256872	-1.08879
C	925.21	-0.234506	0.205658
C	926.456	-0.404307	1.05473
O	927.575	-0.29366	0.559222
H	926.55	0.0528437	-1.35365
H	924.587	0.506263	0.691336
C	924.456	-1.57597	0.0766902
H	925.098	-2.33928	-0.411998
H	924.129	-1.95781	1.06557
H	923.552	-1.42979	-0.555003
N	926.288	-0.67067	2.36502
C	927.415	-0.842868	3.25184
H	925.374	-0.75246	2.74843
H	927.071	-1.05458	4.28826
H	928.043	0.0771314	3.27205
H	928.054	-1.69026	2.91449
