44
  This energy is 0 and Call times are: 211013
C	0.798617	-1.69147	-2.93493
C	-0.175061	-1.23389	-1.91821
O	-1.3798	-1.33348	-2.10556
H	0.249889	-2.08467	-3.81821
H	1.43547	-2.49995	-2.51836
H	1.44057	-0.845034	-3.25825
N	0.335253	-0.710989	-0.800837
C	-0.485867	-0.18344	0.260301
C	0.299292	0.903379	0.970163
O	1.48927	1.0859	0.720465
H	1.3175	-0.599091	-0.68029
H	-1.36615	0.280944	-0.166399
C	-0.887856	-1.2968	1.2523
H	0.0147033	-1.76642	1.69826
H	-1.53183	-0.905818	2.06652
H	-1.45423	-2.0849	0.709648
N	-0.355995	1.66057	1.87199
C	0.30766	2.7219	2.59263
H	-1.31985	1.50043	2.05748
H	-0.399081	3.22761	3.28689
H	0.710833	3.48369	1.88665
H	1.15822	2.31981	3.1893
C	680.407	1.00299	-0.51591
C	681.457	-0.0383564	-0.449503
O	681.171	-1.2276	-0.461546
H	679.409	0.515842	-0.555046
H	680.541	1.62321	-1.42713
H	680.455	1.6526	0.383415
N	682.718	0.394088	-0.374329
C	683.845	-0.498717	-0.260507
C	684.949	0.226016	0.48531
O	684.859	1.42675	0.73377
H	682.933	1.3653	-0.324196
H	683.561	-1.35668	0.336438
C	684.336	-0.947146	-1.65424
H	684.637	-0.0680851	-2.2633
H	685.194	-1.64591	-1.57962
H	683.509	-1.46796	-2.18493
N	686.021	-0.494382	0.869263
C	687.119	0.108756	1.58867
H	686.075	-1.46574	0.662651
H	687.904	-0.646672	1.81447
H	686.765	0.545146	2.55088
H	687.581	0.925596	0.988218
