44
  This energy is -4.2698 and Call times are: 218970
C	3.105	-0.298252	1.5436
C	1.92149	-0.882144	0.873148
O	1.91365	-2.04885	0.505517
H	3.9046	-1.06748	1.61294
H	2.83825	0.0361878	2.56817
H	3.48743	0.56607	0.96069
N	0.878616	-0.0679152	0.694739
C	-0.327094	-0.47967	0.0199928
C	-0.950922	0.744642	-0.62301
O	-0.51893	1.87068	-0.383982
H	0.915232	0.890598	0.962655
H	-0.0734516	-1.16833	-0.776276
C	-1.31607	-1.13536	1.00855
H	-1.58479	-0.42569	1.81984
H	-2.24282	-1.46927	0.498495
H	-0.835725	-2.02416	1.47293
N	-1.9837	0.550178	-1.46656
C	-2.6368	1.65496	-2.1292
H	-2.31649	-0.368768	-1.65058
H	-3.46123	1.29076	-2.78104
H	-1.91231	2.21738	-2.76172
H	-3.06582	2.36259	-1.38331
C	993.07	3.44142	0.198042
C	992.573	2.04947	0.28007
O	991.468	1.79804	0.739418
H	992.306	4.12977	0.619247
H	993.259	3.71855	-0.860367
H	994.009	3.54746	0.781038
N	993.395	1.09842	-0.169615
C	993.069	-0.304927	-0.115895
C	994.365	-1.08773	-0.0112514
O	995.451	-0.52893	-0.149265
H	994.308	1.31505	-0.502846
H	992.498	-0.504857	0.782115
C	992.276	-0.735443	-1.36924
H	992.866	-0.540274	-2.29016
H	992.007	-1.81102	-1.33323
H	991.336	-0.144266	-1.42985
N	994.278	-2.40785	0.245419
C	995.458	-3.23269	0.36774
H	993.39	-2.84128	0.358002
H	995.179	-4.28842	0.579831
H	996.108	-2.86857	1.19628
H	996.053	-3.20937	-0.573627
