44
  This energy is 0 and Call times are: 210845
C	-0.608523	2.88124	-1.85494
C	0.279561	2.01341	-1.04915
O	1.48327	2.22254	-0.987742
H	-0.000525327	3.66753	-2.35291
H	-1.36201	3.36945	-1.20175
H	-1.12686	2.28149	-2.63258
N	-0.305391	1.0012	-0.404441
C	0.433234	0.0467078	0.384188
C	-0.3237	-1.26794	0.366651
O	-1.45454	-1.33723	-0.110973
H	-1.28021	0.819471	-0.49705
H	1.39647	-0.129487	-0.0781651
C	0.612032	0.549284	1.83356
H	-0.375941	0.720136	2.31185
H	1.19126	-0.170675	2.4473
H	1.1612	1.51604	1.82166
N	0.290812	-2.35021	0.88346
C	-0.349596	-3.64466	0.9052
H	1.20755	-2.2752	1.26166
H	0.316294	-4.4051	1.36946
H	-0.595485	-3.97864	-0.128853
H	-1.29726	-3.60457	1.48956
C	673.892	-1.20096	2.42206
C	673.237	-1.29092	1.09777
O	673.625	-2.08476	0.25197
H	674.736	-1.92336	2.4641
H	673.167	-1.44844	3.22548
H	674.288	-0.176204	2.58439
N	672.212	-0.462369	0.885316
C	671.502	-0.40324	-0.368402
C	670.953	1.00097	-0.535142
O	671.002	1.81046	0.388971
H	671.933	0.206592	1.56858
H	672.197	-0.576197	-1.18061
C	670.358	-1.4402	-0.40443
H	669.639	-1.25675	0.422315
H	669.813	-1.41405	-1.37019
H	670.782	-2.45948	-0.272628
N	670.42	1.32625	-1.72952
C	669.878	2.64078	-1.9825
H	670.393	0.658946	-2.46643
H	669.488	2.71197	-3.02177
H	670.661	3.42148	-1.8479
H	669.043	2.86389	-1.27868
