44
  This energy is -6.5638 and Call times are: 224485
C	-1.12451	-2.76296	-1.79283
C	-0.0542058	-1.99536	-1.11726
O	1.04227	-2.49312	-0.901895
H	-0.755645	-3.78717	-2.01825
H	-1.40967	-2.26624	-2.74398
H	-2.01524	-2.83869	-1.13408
N	-0.355674	-0.744718	-0.760349
C	0.56744	0.110647	-0.0569491
C	-0.236769	1.08665	0.781041
O	-1.45734	1.16674	0.656545
H	-1.26578	-0.367317	-0.905758
H	1.16023	-0.487104	0.62417
C	1.47943	0.869438	-1.04576
H	0.872335	1.49101	-1.73795
H	2.20406	1.52104	-0.515818
H	2.0523	0.135596	-1.65374
N	0.433161	1.85039	1.66643
C	-0.248721	2.80347	2.51075
H	1.42027	1.76834	1.75565
H	0.474263	3.33307	3.16956
H	-0.999464	2.29093	3.15492
H	-0.783132	3.56248	1.89475
C	991.352	-1.29251	-1.92127
C	992.634	-0.566598	-1.78351
O	993.318	-0.298416	-2.76173
H	991.178	-1.53054	-2.99314
H	990.515	-0.663528	-1.55228
H	991.384	-2.24019	-1.34341
N	992.995	-0.229363	-0.54315
C	994.236	0.441592	-0.246059
C	994.661	0.0514941	1.15724
O	993.904	-0.581422	1.89103
H	992.448	-0.490629	0.246929
H	995.004	0.0902615	-0.924542
C	994.075	1.97361	-0.356916
H	993.296	2.33588	0.346504
H	995.028	2.50105	-0.143967
H	993.757	2.23541	-1.38953
N	995.893	0.415786	1.56161
C	996.386	0.0839498	2.87825
H	996.493	0.924011	0.952113
H	997.419	0.470189	3.02051
H	996.401	-1.02035	3.02509
H	995.734	0.527835	3.66513
