44
  This energy is 0 and Call times are: 210145
C	2.91934	-1.53929	1.10485
C	2.05563	-0.348352	0.941114
O	2.30322	0.698127	1.5242
H	3.74195	-1.30173	1.8139
H	3.35968	-1.82993	0.127927
H	2.3287	-2.38747	1.51084
N	1.00324	-0.485339	0.131126
C	0.048486	0.571191	-0.0941502
C	-1.28971	-0.0629605	-0.423765
O	-1.38124	-1.27272	-0.623329
H	0.791816	-1.3557	-0.304355
H	-0.0794654	1.13788	0.8197
C	0.508136	1.49423	-1.24392
H	0.629381	0.915262	-2.1842
H	-0.211904	2.31993	-1.41793
H	1.49279	1.94096	-0.984607
N	-2.36722	0.744378	-0.480361
C	-3.6826	0.229415	-0.781635
H	-2.2739	1.72007	-0.311861
H	-4.43515	1.04849	-0.781318
H	-3.98999	-0.529238	-0.0258366
H	-3.69415	-0.257236	-1.78372
C	625.155	-0.20276	0.365817
C	623.8	0.0547078	0.904219
O	623.61	0.176834	2.10636
H	625.878	-0.272218	1.20765
H	625.464	0.625872	-0.30555
H	625.167	-1.15925	-0.198134
N	622.813	0.141874	0.0098753
C	621.436	0.346337	0.384488
C	620.558	-0.287218	-0.677979
O	621.042	-0.706921	-1.72728
H	622.978	-0.000495621	-0.962009
H	621.239	-0.169703	1.31584
C	621.119	1.85169	0.521815
H	621.311	2.37973	-0.436462
H	620.065	2.02179	0.823457
H	621.779	2.29612	1.29876
N	619.237	-0.378877	-0.424671
C	618.325	-0.971509	-1.37453
H	618.865	-0.0373337	0.431829
H	617.284	-0.954038	-0.983259
H	618.604	-2.03029	-1.57976
H	618.346	-0.415504	-2.33969
