44
  This energy is 0 and Call times are: 207289
C	-2.79662	0.404157	-2.03181
C	-1.60887	-0.358547	-1.58608
O	-1.42385	-1.51165	-1.95011
H	-3.42409	-0.241364	-2.68408
H	-2.4823	1.2997	-2.60796
H	-3.39875	0.72186	-1.15454
N	-0.765001	0.279678	-0.771876
C	0.41155	-0.345399	-0.220907
C	0.716492	0.312326	1.11174
O	0.110663	1.32057	1.4697
H	-0.950343	1.20432	-0.45164
H	0.202678	-1.38971	-0.0249059
C	1.61245	-0.204356	-1.18173
H	1.83379	0.866982	-1.37481
H	2.52105	-0.693742	-0.774944
H	1.36401	-0.685615	-2.15282
N	1.66422	-0.252595	1.88551
C	2.01795	0.300068	3.17222
H	2.14062	-1.07059	1.58054
H	2.81623	-0.306022	3.65453
H	1.13324	0.316712	3.84919
H	2.38858	1.34495	3.06274
C	415.646	-0.688585	2.72413
C	416.155	0.220381	1.67233
O	415.605	1.28798	1.43842
H	414.741	-0.241742	3.18942
H	416.418	-0.835832	3.50863
H	415.376	-1.67105	2.28288
N	417.234	-0.191893	1.00244
C	417.818	0.563491	-0.0775368
C	418.49	-0.410763	-1.02688
O	418.615	-1.59667	-0.727539
H	417.645	-1.08188	1.17645
H	417.032	1.06279	-0.630474
C	418.84	1.59022	0.457346
H	419.652	1.07756	1.0157
H	419.287	2.18773	-0.363495
H	418.329	2.28778	1.15588
N	418.932	0.0693956	-2.20566
C	419.579	-0.784315	-3.17462
H	418.818	1.03114	-2.43166
H	419.87	-0.204073	-4.07797
H	418.897	-1.6067	-3.4908
H	420.497	-1.24409	-2.74248
