44
  This energy is -2.7362 and Call times are: 220986
C	0.3792	-0.879247	3.34601
C	0.432382	0.107275	2.24371
O	0.568164	1.30187	2.46935
H	0.461505	-0.347689	4.31892
H	1.22054	-1.59826	3.25704
H	-0.583548	-1.43194	3.31881
N	0.322233	-0.379804	1.00556
C	0.313143	0.460246	-0.166101
C	-0.496153	-0.238185	-1.24257
O	-0.871357	-1.39965	-1.09448
H	0.171119	-1.35015	0.839843
H	-0.191733	1.38997	0.0648426
C	1.75063	0.73291	-0.660606
H	2.26545	-0.219949	-0.907688
H	1.7577	1.39007	-1.55426
H	2.3267	1.2371	0.145795
N	-0.79258	0.461971	-2.3552
C	-1.56278	-0.118139	-3.43058
H	-0.483641	1.40201	-2.45499
H	-1.70061	0.615069	-4.25558
H	-2.56876	-0.431565	-3.06856
H	-1.04857	-1.01669	-3.84206
C	993.185	2.87669	1.67542
C	993.971	1.62491	1.59368
O	994.84	1.36867	2.41496
H	993.537	3.47524	2.54359
H	992.108	2.64419	1.81213
H	993.319	3.47401	0.749006
N	993.678	0.80532	0.581343
C	994.385	-0.428538	0.345679
C	994.337	-0.7246	-1.14148
O	993.628	-0.0589977	-1.89362
H	992.995	1.04682	-0.102678
H	995.426	-0.300679	0.615788
C	993.756	-1.58762	1.14906
H	992.691	-1.72606	0.864709
H	994.3	-2.5404	0.986829
H	993.794	-1.34587	2.23368
N	995.103	-1.73254	-1.60333
C	995.127	-2.08341	-3.00422
H	995.674	-2.25706	-0.979889
H	995.817	-2.93676	-3.1844
H	995.469	-1.21999	-3.61972
H	994.11	-2.37504	-3.35346
