44
  This energy is 0 and Call times are: 206729
C	1.75805	-0.181669	2.99816
C	1.57843	-0.526229	1.56982
O	2.47064	-1.06858	0.932456
H	2.78023	-0.476018	3.32125
H	1.01465	-0.724313	3.61916
H	1.63531	0.911978	3.14636
N	0.400179	-0.210982	1.02693
C	0.0928954	-0.444623	-0.362153
C	-0.92172	0.593443	-0.803207
O	-1.46018	1.33559	0.0159359
H	-0.301215	0.26726	1.5477
H	0.986203	-0.29509	-0.955679
C	-0.464337	-1.86968	-0.571787
H	-1.3867	-2.0201	0.0287561
H	-0.691841	-2.06663	-1.63948
H	0.291413	-2.61248	-0.234984
N	-1.20104	0.675184	-2.11901
C	-2.14933	1.63623	-2.63215
H	-0.752101	0.0688303	-2.76697
H	-2.24082	1.547	-3.73709
H	-1.82629	2.67462	-2.38995
H	-3.15567	1.47403	-2.18257
C	378.282	2.82724	1.94429
C	378.406	1.37481	1.6866
O	379.152	0.674148	2.35651
H	378.96	3.11105	2.77854
H	377.239	3.0784	2.22781
H	378.568	3.4022	1.03812
N	377.665	0.883818	0.690542
C	377.709	-0.501364	0.293289
C	377.369	-0.581352	-1.18286
O	376.957	0.406167	-1.78851
H	377.093	1.47399	0.127737
H	378.719	-0.874464	0.41192
C	376.719	-1.34599	1.12426
H	375.682	-0.970177	0.994615
H	376.754	-2.41694	0.837288
H	376.982	-1.26629	2.20154
N	377.542	-1.76604	-1.8013
C	377.249	-1.93569	-3.20547
H	377.88	-2.55265	-1.29538
H	377.456	-2.98017	-3.527
H	377.873	-1.24884	-3.82248
H	376.178	-1.71043	-3.41372
