44
  This energy is 0 and Call times are: 204853
C	-2.4273	-2.34485	-0.850044
C	-1.82422	-0.997054	-0.954348
O	-2.18597	-0.206596	-1.815
H	-3.18552	-2.47112	-1.65319
H	-2.92399	-2.46665	0.135452
H	-1.64523	-3.12424	-0.968426
N	-0.872889	-0.702168	-0.0653101
C	-0.163923	0.55319	-0.067707
C	1.21687	0.317689	0.514959
O	1.50387	-0.756112	1.0406
H	-0.56053	-1.37086	0.603384
H	-0.0303937	0.886085	-1.08946
C	-0.923935	1.61756	0.753714
H	-1.05194	1.28111	1.80464
H	-0.395084	2.59266	0.748036
H	-1.9342	1.76785	0.31426
N	2.1122	1.321	0.426769
C	3.45234	1.18622	0.948342
H	1.86265	2.18105	-0.00579359
H	4.03566	2.11811	0.779387
H	3.98497	0.344127	0.449882
H	3.42923	0.980401	2.04299
C	241.939	2.16747	2.07687
C	243.19	1.71019	1.43098
O	244.203	2.39455	1.45878
H	242.103	3.17079	2.52655
H	241.641	1.45901	2.87807
H	241.124	2.23947	1.32549
N	243.144	0.522623	0.822734
C	244.268	-0.0358067	0.114134
C	243.736	-0.936522	-0.984157
O	242.54	-1.21613	-1.04452
H	242.3	-0.00425167	0.773395
H	244.822	0.762881	-0.36385
C	245.183	-0.831531	1.0707
H	244.619	-1.65756	1.55335
H	246.06	-1.25496	0.539585
H	245.555	-0.154627	1.87057
N	244.616	-1.40751	-1.88894
C	244.2	-2.26694	-2.97257
H	245.579	-1.16687	-1.82592
H	245.069	-2.54719	-3.60821
H	243.447	-1.75369	-3.61407
H	243.738	-3.20089	-2.57828
