44
  This energy is -1.4838 and Call times are: 216987
C	1.13036	-2.89621	-1.56427
C	0.587304	-2.17606	-0.390557
O	0.172299	-2.78216	0.587614
H	1.06555	-3.99151	-1.38543
H	2.19394	-2.62047	-1.72401
H	0.543154	-2.64506	-2.47268
N	0.576272	-0.843125	-0.465071
C	0.0393339	-0.00704657	0.579549
C	-0.466258	1.27537	-0.0539573
O	-0.233328	1.52919	-1.23423
H	0.87965	-0.365423	-1.2846
H	-0.811972	-0.501414	1.03067
C	1.11335	0.302339	1.64538
H	1.98236	0.818953	1.18496
H	0.708383	0.934042	2.46237
H	1.47459	-0.650727	2.08982
N	-1.18245	2.11484	0.7196
C	-1.70914	3.35607	0.201798
H	-1.36404	1.89019	1.67125
H	-2.26874	3.90534	0.990707
H	-2.40144	3.16412	-0.64976
H	-0.885102	4.01053	-0.163977
C	994.508	-0.30392	-3.35039
C	994.996	0.487051	-2.19829
O	995.468	1.60531	-2.35239
H	994.667	0.274455	-4.28647
H	993.424	-0.515337	-3.2377
H	995.066	-1.26152	-3.42089
N	994.894	-0.0879355	-0.997739
C	995.365	0.539946	0.211488
C	995.756	-0.551638	1.1898
O	995.495	-1.73007	0.956047
H	994.546	-1.01511	-0.893001
H	996.258	1.11183	-0.00760748
C	994.276	1.44914	0.821642
H	993.363	0.860896	1.05635
H	994.632	1.94919	1.74579
H	994	2.23544	0.0856333
N	996.404	-0.182509	2.31236
C	996.82	-1.15231	3.29843
H	996.61	0.775487	2.48194
H	997.337	-0.652883	4.14762
H	997.521	-1.89331	2.84929
H	995.942	-1.70708	3.69962
