44
  This energy is 0 and Call times are: 208241
C	-0.655562	3.27206	0.988196
C	-0.218874	2.27695	-0.0168858
O	-0.0668889	2.58727	-1.19035
H	-0.815846	4.25233	0.488934
H	0.121799	3.39081	1.772
H	-1.60798	2.94833	1.45851
N	-0.00633498	1.03675	0.42935
C	0.380002	-0.049238	-0.436633
C	-0.137075	-1.34181	0.16622
O	-0.62207	-1.3601	1.29589
H	-0.173814	0.789989	1.37957
H	-0.101011	0.0728878	-1.3991
C	1.91463	-0.104409	-0.601276
H	2.40808	-0.240267	0.384668
H	2.22388	-0.927998	-1.27699
H	2.27176	0.85447	-1.03643
N	-0.0523282	-2.45891	-0.582741
C	-0.523782	-3.73388	-0.0945084
H	0.339514	-2.4234	-1.49613
H	-0.367091	-4.52905	-0.856325
H	-1.61118	-3.6857	0.143253
H	0.0199076	-4.0249	0.833312
C	484.513	1.60965	2.84843
C	485.443	1.50724	1.70151
O	486.173	2.43924	1.39332
H	484.603	2.61941	3.30478
H	484.764	0.845738	3.61407
H	483.467	1.46089	2.50712
N	485.435	0.352191	1.03204
C	486.253	0.11843	-0.131951
C	485.543	-0.890722	-1.0143
O	484.542	-1.48194	-0.614816
H	484.806	-0.38236	1.26978
H	486.34	1.03744	-0.698122
C	487.65	-0.403069	0.270966
H	487.562	-1.35143	0.842766
H	488.294	-0.573773	-0.615925
H	488.148	0.347673	0.922575
N	486.044	-1.10563	-2.24679
C	485.431	-2.04363	-3.15855
H	486.852	-0.614652	-2.55363
H	485.989	-2.07851	-4.12028
H	484.378	-1.75096	-3.37458
H	485.422	-3.06814	-2.721
