44
  This energy is 0.1121 and Call times are: 220702
C	0.340703	3.07519	-1.59368
C	-0.334284	2.17219	-0.634452
O	-1.15645	2.59823	0.164884
H	-0.0134748	4.11613	-1.42977
H	0.102112	2.77425	-2.63544
H	1.44024	3.04165	-1.44208
N	0.00635536	0.882644	-0.69292
C	-0.532884	-0.108908	0.204077
C	0.497513	-1.21056	0.365935
O	1.50277	-1.24151	-0.341321
H	0.707274	0.557758	-1.32143
H	-0.684754	0.33654	1.17934
C	-1.85868	-0.683416	-0.341298
H	-1.70131	-1.14986	-1.33714
H	-2.29105	-1.43806	0.347247
H	-2.59505	0.141323	-0.459283
N	0.273538	-2.14184	1.31387
C	1.20137	-3.2246	1.54394
H	-0.543597	-2.09768	1.87903
H	0.840738	-3.884	2.36392
H	2.20378	-2.82938	1.82723
H	1.32096	-3.84187	0.624256
C	999.778	-0.244268	0.548004
C	998.55	0.546066	0.306755
O	998.546	1.76293	0.431763
H	1000.6	0.438719	0.853774
H	1000.08	-0.776438	-0.378834
H	999.605	-0.983195	1.35853
N	997.462	-0.141435	-0.0483831
C	996.183	0.483616	-0.275082
C	995.099	-0.528622	0.0436829
O	995.381	-1.70488	0.264338
H	997.471	-1.13564	-0.10617
H	996.063	1.31177	0.412262
C	996.057	0.969582	-1.73568
H	996.17	0.118642	-2.4409
H	995.082	1.46511	-1.91921
H	996.865	1.7032	-1.94905
N	993.825	-0.0893776	0.0835553
C	992.728	-0.979062	0.38404
H	993.618	0.866884	-0.0937561
H	991.761	-0.429631	0.36938
H	992.857	-1.435	1.39242
H	992.674	-1.80352	-0.36332
