44
  This energy is 0.4918 and Call times are: 222581
C	-0.653282	-3.34041	0.72635
C	-1.0651	-1.92137	0.637634
O	-2.23876	-1.59476	0.748375
H	-1.55304	-3.97507	0.879681
H	0.038789	-3.48525	1.58239
H	-0.149479	-3.6521	-0.212862
N	-0.0908107	-1.03256	0.429892
C	-0.340975	0.379171	0.278279
C	0.749364	0.960906	-0.601663
O	1.72985	0.289207	-0.916604
H	0.85466	-1.31776	0.300987
H	-1.28228	0.521767	-0.2377
C	-0.363477	1.08604	1.65126
H	0.605731	0.948949	2.1765
H	-0.569005	2.17131	1.54892
H	-1.16332	0.638986	2.28114
N	0.597904	2.23021	-1.02821
C	1.58136	2.86596	-1.87368
H	-0.204306	2.7564	-0.766183
H	1.27663	3.90776	-2.1166
H	1.70073	2.3041	-2.82833
H	2.57278	2.89961	-1.36663
C	994.381	-2.84416	1.84761
C	994.3	-2.10208	0.569367
O	994.833	-2.52927	-0.445483
H	994.985	-3.76565	1.69964
H	993.364	-3.13179	2.1883
H	994.867	-2.2167	2.62418
N	993.621	-0.952816	0.592405
C	993.491	-0.0989716	-0.562052
C	993.331	1.32984	-0.0779865
O	993.163	1.57554	1.11501
H	993.227	-0.597916	1.43567
H	994.405	-0.142283	-1.14251
C	992.281	-0.517502	-1.42492
H	991.342	-0.463117	-0.832904
H	992.179	0.123774	-2.32429
H	992.416	-1.56864	-1.7614
N	993.388	2.31208	-0.998865
C	993.251	3.70204	-0.630849
H	993.528	2.09379	-1.95892
H	993.326	4.35556	-1.52781
H	994.05	3.99889	0.0867498
H	992.265	3.88475	-0.145
