44
  This energy is 0.1245 and Call times are: 221235
C	-3.42851	-0.580867	-0.143445
C	-2.08081	-0.576074	-0.75567
O	-1.87287	-1.11768	-1.83262
H	-4.12821	-1.14224	-0.800071
H	-3.80013	0.459001	-0.0280386
H	-3.39531	-1.07383	0.851029
N	-1.11915	0.0449641	-0.0687242
C	0.250768	0.0961219	-0.515121
C	1.14306	0.199561	0.707448
O	0.663046	0.391054	1.82308
H	-1.29488	0.44573	0.825911
H	0.497734	-0.831001	-1.0172
C	0.479843	1.29923	-1.45602
H	0.236689	2.25137	-0.938008
H	1.52769	1.34163	-1.81762
H	-0.188939	1.20675	-2.3395
N	2.47154	0.0658095	0.525077
C	3.39794	0.144168	1.63044
H	2.84077	-0.0927666	-0.384648
H	4.444	0.00930552	1.27718
H	3.1779	-0.646285	2.38413
H	3.32336	1.13392	2.13638
C	992.581	1.88721	0.939215
C	993.98	1.77036	0.471217
O	994.594	2.74601	0.0623636
H	992.244	2.94084	0.829535
H	992.509	1.59642	2.00836
H	991.919	1.23314	0.333368
N	994.522	0.551322	0.519873
C	995.86	0.272514	0.0589431
C	995.908	-1.1702	-0.407776
O	994.963	-1.92994	-0.204126
H	993.996	-0.240491	0.816759
H	996.079	0.896423	-0.798439
C	996.892	0.512997	1.18239
H	996.673	-0.134484	2.05816
H	997.927	0.315047	0.835797
H	996.833	1.57274	1.51384
N	997.015	-1.58068	-1.05686
C	997.149	-2.93437	-1.54257
H	997.768	-0.950173	-1.21578
H	998.129	-3.07589	-2.04835
H	996.341	-3.17134	-2.27206
H	997.079	-3.6622	-0.701981
