44
  This energy is 0.1 and Call times are: 225695
C	2.81504	-2.04645	0.017682
C	1.43496	-1.73227	-0.415708
O	0.891266	-2.36872	-1.30775
H	3.21045	-2.88543	-0.59521
H	2.82133	-2.3479	1.08625
H	3.47043	-1.1607	-0.120162
N	0.829444	-0.72419	0.216358
C	-0.497243	-0.273761	-0.123606
C	-0.597259	1.20154	0.215568
O	0.297039	1.7655	0.843175
H	1.29981	-0.189105	0.912281
H	-0.644219	-0.369766	-1.19216
C	-1.56733	-1.07978	0.644822
H	-1.42339	-0.973102	1.74115
H	-2.59368	-0.751682	0.381221
H	-1.4703	-2.15715	0.387491
N	-1.69245	1.86635	-0.202302
C	-1.87193	3.27356	0.0692043
H	-2.40343	1.39374	-0.712418
H	-2.83356	3.63657	-0.355908
H	-1.04368	3.86883	-0.379044
H	-1.87936	3.46427	1.1668
C	991.155	2.05242	0.29843
C	991.804	0.722325	0.326089
O	991.216	-0.260423	0.755235
H	990.132	1.97095	0.726236
H	991.079	2.41962	-0.74664
H	991.741	2.77667	0.902957
N	993.055	0.662465	-0.13744
C	993.831	-0.552358	-0.135056
C	995.297	-0.17655	-0.0299196
O	995.656	0.995445	-0.12851
H	993.535	1.47878	-0.445471
H	993.583	-1.13308	0.744644
C	993.573	-1.3743	-1.41695
H	993.838	-0.782741	-2.31932
H	994.155	-2.31888	-1.42066
H	992.493	-1.63129	-1.47718
N	996.183	-1.16921	0.182669
C	997.599	-0.906319	0.301836
H	995.874	-2.11084	0.263774
H	998.161	-1.85043	0.474523
H	997.8	-0.217714	1.15426
H	997.989	-0.430038	-0.62636
