44
  This energy is -1.7553 and Call times are: 222525
C	-1.93298	2.78591	-0.784191
C	-1.18922	1.56547	-1.16951
O	-1.28282	1.09611	-2.29528
H	-2.5439	3.13129	-1.64638
H	-1.22448	3.5921	-0.499891
H	-2.60794	2.56889	0.0704637
N	-0.422535	1.01485	-0.225374
C	0.326894	-0.198413	-0.437317
C	0.474887	-0.902372	0.898383
O	0.139208	-0.347837	1.94314
H	-0.388523	1.38515	0.698524
H	-0.235237	-0.856431	-1.0882
C	1.71352	0.108545	-1.04418
H	2.29468	0.775074	-0.37185
H	2.29491	-0.818718	-1.22499
H	1.58098	0.630586	-2.01694
N	0.976914	-2.15296	0.893844
C	1.14889	-2.90289	2.11623
H	1.23903	-2.58648	0.0380222
H	1.57418	-3.90855	1.9041
H	0.172188	-3.03774	2.63501
H	1.83797	-2.36993	2.81068
C	992.626	-2.72794	1.90329
C	993.566	-1.623	1.60984
O	994.436	-1.30252	2.40869
H	992.85	-3.14283	2.91013
H	992.737	-3.53526	1.14918
H	991.581	-2.35371	1.89288
N	993.408	-1.0048	0.437151
C	994.219	0.115749	0.0295318
C	993.395	0.979695	-0.906557
O	992.305	0.593342	-1.32451
H	992.67	-1.25017	-0.184827
H	994.458	0.717798	0.897183
C	995.509	-0.362676	-0.670633
H	995.264	-0.971583	-1.56685
H	996.148	0.490637	-0.976947
H	996.092	-0.999439	0.0299649
N	993.896	2.18156	-1.25244
C	993.181	3.07423	-2.13402
H	994.778	2.47842	-0.900785
H	993.757	4.01148	-2.29716
H	992.19	3.34294	-1.70116
H	993.006	2.59302	-3.12352
