44
  This energy is 0 and Call times are: 208297
C	-3.42671	-0.55834	0.24205
C	-2.26631	0.290319	-0.11063
O	-2.40863	1.32294	-0.750826
H	-4.35253	-0.106861	-0.176167
H	-3.528	-0.62882	1.34546
H	-3.29959	-1.57629	-0.183044
N	-1.07132	-0.135775	0.305091
C	0.154543	0.559987	0.00220902
C	1.2792	-0.457532	-0.0347095
O	1.09281	-1.61588	0.333003
H	-0.966792	-0.999395	0.789963
H	0.0824463	0.997087	-0.985909
C	0.445142	1.65024	1.05679
H	0.529663	1.20096	2.06923
H	1.37938	2.20245	0.827053
H	-0.394352	2.37919	1.07198
N	2.47898	-0.0471343	-0.490906
C	3.60656	-0.946522	-0.567393
H	2.60927	0.893041	-0.787835
H	4.50171	-0.421733	-0.968047
H	3.37716	-1.80809	-1.23548
H	3.85764	-1.3487	0.440753
C	492.47	0.712565	1.98337
C	491.015	0.75515	1.71264
O	490.22	1.09637	2.5774
H	492.656	1.00871	3.03862
H	493.005	1.41741	1.31267
H	492.859	-0.315407	1.82475
N	490.629	0.400953	0.484561
C	489.245	0.351164	0.0847648
C	489.105	-0.695916	-1.00402
O	490.097	-1.21399	-1.51144
H	491.285	0.0862945	-0.196033
H	488.642	0.0268333	0.923901
C	488.768	1.72902	-0.424265
H	489.379	2.0574	-1.29179
H	487.7	1.70718	-0.722156
H	488.887	2.48104	0.386028
N	487.858	-1.03935	-1.38415
C	487.627	-2.03051	-2.4089
H	487.067	-0.612055	-0.95902
H	486.537	-2.1733	-2.57874
H	488.067	-3.01063	-2.114
H	488.093	-1.71786	-3.37085
