44
  This energy is 0 and Call times are: 210957
C	0.353575	0.875023	3.34993
C	-0.354864	0.946239	2.05216
O	-1.46337	1.45587	1.96326
H	-0.285584	1.32171	4.14228
H	1.30767	1.44036	3.29663
H	0.565198	-0.182891	3.61284
N	0.280457	0.425266	0.999866
C	-0.299345	0.381889	-0.319417
C	0.280928	-0.813157	-1.05202
O	1.21654	-1.45157	-0.573717
H	1.16474	-0.0227709	1.09562
H	-1.36696	0.221428	-0.23532
C	-0.00701028	1.68586	-1.09365
H	1.08816	1.8455	-1.18937
H	-0.460061	1.6704	-2.10609
H	-0.43364	2.54765	-0.535392
N	-0.270818	-1.14997	-2.23446
C	0.211584	-2.27547	-3.00043
H	-1.02989	-0.623768	-2.60322
H	-0.37064	-2.38936	-3.94132
H	0.11838	-3.21837	-2.41431
H	1.2848	-2.13892	-3.26633
C	678.471	-2.81863	-1.63008
C	678.63	-1.97731	-0.422637
O	677.972	-2.18745	0.586754
H	677.69	-3.58751	-1.44152
H	679.427	-3.32877	-1.87012
H	678.159	-2.19381	-2.49332
N	679.523	-0.987469	-0.502654
C	679.758	-0.0590951	0.575022
C	680.221	1.25485	-0.0252533
O	680.495	1.33909	-1.22085
H	680.021	-0.803498	-1.34487
H	678.825	0.13305	1.09086
C	680.816	-0.609311	1.55617
H	681.776	-0.796668	1.02963
H	680.996	0.0903405	2.398
H	680.459	-1.57473	1.97707
N	680.312	2.31985	0.795486
C	680.738	3.61238	0.312372
H	680.082	2.23303	1.75913
H	680.747	4.35752	1.13815
H	680.052	3.98028	-0.484174
H	681.765	3.55224	-0.117111
