44
  This energy is 0 and Call times are: 212693
C	-2.78461	0.0976537	-2.08545
C	-1.38349	0.451524	-1.76487
O	-0.649159	0.952898	-2.60499
H	-2.99149	0.344361	-3.14951
H	-3.48177	0.673297	-1.44097
H	-2.94996	-0.989338	-1.92988
N	-0.975508	0.191337	-0.52059
C	0.372026	0.440239	-0.0725283
C	0.693922	-0.549629	1.03115
O	-0.182777	-1.26704	1.5091
H	-1.57259	-0.254657	0.140049
H	1.06007	0.250368	-0.886886
C	0.524609	1.88962	0.438596
H	-0.173617	2.0817	1.28099
H	1.5614	2.09789	0.773573
H	0.276489	2.59655	-0.383014
N	1.97042	-0.617134	1.45779
C	2.37162	-1.53304	2.50007
H	2.66653	-0.0314276	1.05599
H	3.46002	-1.43861	2.70906
H	2.16236	-2.58543	2.20013
H	1.81419	-1.32517	3.44198
C	805.563	2.90223	0.466465
C	805.429	1.42815	0.449664
O	806.412	0.702443	0.517501
H	806.64	3.1725	0.527968
H	805.036	3.32442	1.34756
H	805.137	3.33588	-0.462404
N	804.188	0.946111	0.354871
C	803.902	-0.465083	0.283757
C	802.612	-0.647401	-0.494768
O	801.918	0.320725	-0.799494
H	803.402	1.5496	0.259207
H	804.687	-0.961433	-0.272305
C	803.771	-1.07348	1.6973
H	802.958	-0.571719	2.26448
H	803.564	-2.16254	1.65607
H	804.723	-0.921493	2.25149
N	802.265	-1.90173	-0.843853
C	801.058	-2.17169	-1.59028
H	802.841	-2.67188	-0.59174
H	800.949	-3.26225	-1.77988
H	801.078	-1.6455	-2.57213
H	800.162	-1.82155	-1.02869
