44
  This energy is 0 and Call times are: 203145
C	-0.194708	-2.54619	-2.36468
C	-0.790946	-1.70746	-1.30064
O	-1.99494	-1.72019	-1.08468
H	-1.00018	-3.11321	-2.88003
H	0.526961	-3.26635	-1.92502
H	0.32724	-1.90743	-3.10808
N	0.0539642	-0.945157	-0.6025
C	-0.382316	-0.0443087	0.435138
C	0.604818	1.10531	0.509284
O	1.65868	1.07228	-0.123174
H	1.026	-0.91489	-0.817202
H	-1.34409	0.373307	0.164533
C	-0.470646	-0.770735	1.79519
H	0.518233	-1.19028	2.07828
H	-0.818856	-0.0910609	2.59975
H	-1.19242	-1.61277	1.71532
N	0.279706	2.15971	1.28295
C	1.15449	3.30194	1.41049
H	-0.579384	2.16993	1.78388
H	0.710915	4.06311	2.08952
H	1.32795	3.77664	0.417592
H	2.1426	2.99601	1.82423
C	124.635	-1.83976	0.337606
C	123.224	-1.70358	-0.0887946
O	122.69	-2.55136	-0.790766
H	125.06	-2.77278	-0.0920523
H	124.697	-1.89335	1.44489
H	125.229	-0.974263	-0.024063
N	122.58	-0.612722	0.331995
C	121.217	-0.320217	-0.0361461
C	121.037	1.18624	-0.0281406
O	121.916	1.92264	0.415742
H	123.04	0.0886282	0.868894
H	121.039	-0.66079	-1.04863
C	120.225	-0.988606	0.941647
H	120.4	-0.631579	1.97897
H	119.172	-0.782263	0.660774
H	120.38	-2.08961	0.925268
N	119.89	1.68206	-0.530654
C	119.633	3.10291	-0.569693
H	119.192	1.0705	-0.889035
H	118.637	3.31044	-1.01868
H	120.407	3.62526	-1.17747
H	119.652	3.53405	0.457395
