44
  This energy is -2.8071 and Call times are: 225291
C	2.64679	0.544782	-2.19326
C	1.27771	0.828283	-1.70707
O	0.648595	1.79482	-2.11503
H	2.9495	1.33163	-2.91791
H	2.67581	-0.44202	-2.70132
H	3.36206	0.544163	-1.34386
N	0.779609	-0.0224878	-0.806811
C	-0.521753	0.145971	-0.209619
C	-0.49288	-0.480384	1.17183
O	0.468483	-1.15371	1.53807
H	1.31941	-0.781414	-0.453947
H	-0.721585	1.20241	-0.0806837
C	-1.61678	-0.510186	-1.07888
H	-1.41795	-1.59608	-1.20271
H	-2.62513	-0.375295	-0.636664
H	-1.61438	-0.0419589	-2.08739
N	-1.55046	-0.264279	1.97859
C	-1.60891	-0.815639	3.31229
H	-2.31711	0.286691	1.66593
H	-2.55705	-0.525736	3.81647
H	-0.75725	-0.44562	3.92795
H	-1.55432	-1.92791	3.28053
C	992.518	-2.94657	0.962721
C	993.513	-2.2054	0.155582
O	994.372	-2.79377	-0.485755
H	992.717	-4.03718	0.880268
H	991.492	-2.73928	0.590691
H	992.591	-2.64753	2.02961
N	993.417	-0.873857	0.172226
C	994.34	-0.0159925	-0.528788
C	994.418	1.30368	0.215537
O	993.641	1.55469	1.13508
H	992.738	-0.408033	0.731668
H	995.328	-0.458523	-0.504649
C	993.884	0.21067	-1.98672
H	992.874	0.674341	-2.01191
H	994.593	0.858483	-2.54113
H	993.826	-0.768832	-2.5098
N	995.369	2.17964	-0.162308
C	995.522	3.45831	0.491712
H	995.991	1.95689	-0.905857
H	996.359	4.0343	0.0383058
H	995.738	3.32149	1.57611
H	994.59	4.06142	0.398744
