44
  This energy is 0 and Call times are: 209109
C	2.05324	-1.94345	2.02976
C	1.84378	-0.851174	1.05292
O	2.73621	-0.0566418	0.79079
H	3.08374	-1.87557	2.44126
H	1.92834	-2.92916	1.53427
H	1.32638	-1.85485	2.86457
N	0.637178	-0.785976	0.485268
C	0.269748	0.246324	-0.451702
C	-1.22746	0.468067	-0.348044
O	-1.93192	-0.29	0.315881
H	-0.0918915	-1.41508	0.739333
H	0.753401	1.17327	-0.169774
C	0.659734	-0.151741	-1.89208
H	0.155542	-1.09709	-2.18558
H	0.394521	0.641041	-2.62125
H	1.75819	-0.316672	-1.9426
N	-1.7496	1.5254	-1.00031
C	-3.16311	1.81882	-0.954837
H	-1.16293	2.12983	-1.52903
H	-3.39566	2.72711	-1.5533
H	-3.49392	1.99612	0.0941679
H	-3.75452	0.968057	-1.3642
C	544.503	-1.21699	-0.64309
C	545.441	-0.346902	0.101632
O	545.032	0.534706	0.844628
H	543.459	-0.910623	-0.416047
H	544.641	-2.27614	-0.339835
H	544.677	-1.11993	-1.73559
N	546.742	-0.578686	-0.0866129
C	547.775	0.212738	0.535397
C	548.995	0.191668	-0.366027
O	549.046	-0.55823	-1.33903
H	547.06	-1.27307	-0.726053
H	547.443	1.24119	0.605254
C	548.125	-0.339362	1.93445
H	548.476	-1.39105	1.86216
H	548.909	0.269767	2.42947
H	547.216	-0.32199	2.57441
N	550.009	1.02692	-0.0655251
C	551.207	1.08038	-0.869361
H	549.947	1.62916	0.723508
H	551.922	1.82833	-0.460515
H	550.964	1.36505	-1.91872
H	551.712	0.0873432	-0.889114
