44
  This energy is 0 and Call times are: 208325
C	-0.927127	0.119279	-3.35245
C	-0.00935126	0.457252	-2.24132
O	1.09247	0.94338	-2.456
H	-0.436819	0.361363	-4.32037
H	-1.86446	0.70824	-3.2672
H	-1.16868	-0.964405	-3.33311
N	-0.450901	0.200329	-1.00787
C	0.345033	0.434905	0.171126
C	-0.0891608	-0.551472	1.23888
O	-1.08534	-1.25425	1.07938
H	-1.33361	-0.233418	-0.851183
H	1.38455	0.230634	-0.0531761
C	0.174136	1.88566	0.672478
H	-0.890542	2.09246	0.912743
H	0.792736	2.08283	1.57191
H	0.490215	2.5901	-0.127654
N	0.659111	-0.6325	2.35671
C	0.326263	-1.54636	3.42453
H	1.46396	-0.0585651	2.46575
H	1.06108	-1.46454	4.25554
H	0.328918	-2.59799	3.05664
H	-0.687622	-1.32491	3.82967
C	490.285	2.38009	-2.1086
C	490.558	0.976771	-1.72467
O	489.978	0.047422	-2.26856
H	489.506	2.39915	-2.90117
H	491.208	2.85595	-2.50088
H	489.919	2.95273	-1.23056
N	491.462	0.790436	-0.760171
C	491.802	-0.514439	-0.24988
C	492.244	-0.357652	1.1928
O	492.424	0.757337	1.67867
H	491.896	1.5588	-0.298573
H	490.918	-1.13945	-0.25002
C	492.923	-1.16169	-1.09259
H	493.834	-0.525999	-1.08414
H	493.184	-2.17268	-0.718046
H	492.58	-1.25931	-2.14588
N	492.422	-1.47965	1.91764
C	492.837	-1.42849	3.30026
H	492.268	-2.37268	1.50817
H	492.928	-2.4538	3.72189
H	492.097	-0.862251	3.91145
H	493.824	-0.92137	3.39601
