44
  This energy is 0 and Call times are: 204069
C	1.31161	-1.24166	2.975
C	1.37617	-0.353223	1.79278
O	2.20685	0.541654	1.71808
H	2.089	-0.934686	3.70802
H	1.49747	-2.29395	2.67354
H	0.313848	-1.16603	3.4565
N	0.483077	-0.583895	0.827612
C	0.394201	0.223776	-0.363323
C	-1.04151	0.189085	-0.852283
O	-1.85919	-0.580097	-0.350813
H	-0.21317	-1.28985	0.921066
H	0.625839	1.25218	-0.115614
C	1.35144	-0.29867	-1.45693
H	1.10749	-1.35028	-1.71895
H	1.30243	0.323251	-2.37418
H	2.39516	-0.271793	-1.07448
N	-1.38476	1.03401	-1.84441
C	-2.72928	1.07573	-2.37044
H	-0.710155	1.65183	-2.23465
H	-2.8116	1.83444	-3.17964
H	-3.45681	1.33826	-1.56854
H	-3.01882	0.0843923	-2.78823
C	191.144	-0.190207	0.465321
C	189.758	-0.564256	0.8251
O	189.531	-1.47929	1.60467
H	191.854	-0.865718	0.9895
H	191.35	0.85656	0.772869
H	191.295	-0.28994	-0.630247
N	188.783	0.146929	0.252672
C	187.385	-0.126784	0.471293
C	186.619	0.307698	-0.764183
O	187.174	0.944579	-1.65753
H	188.983	0.86194	-0.41133
H	187.243	-1.19476	0.579972
C	186.866	0.618609	1.72024
H	187.002	1.71506	1.60479
H	185.793	0.404972	1.90725
H	187.445	0.291031	2.61067
N	185.319	-0.0366234	-0.847176
C	184.512	0.328259	-1.98796
H	184.889	-0.555617	-0.116092
H	183.471	-0.0460993	-1.86922
H	184.935	-0.104319	-2.92329
H	184.475	1.4355	-2.10547
