44
  This energy is 0 and Call times are: 207205
C	1.04807	1.31465	3.04728
C	-0.0137522	0.912732	2.09748
O	-1.1855	0.857313	2.44438
H	0.594458	1.51397	4.04246
H	1.55143	2.2377	2.6904
H	1.79727	0.501512	3.15021
N	0.380783	0.616318	0.856969
C	-0.53067	0.168052	-0.166198
C	0.238488	-0.714356	-1.13124
O	1.46257	-0.806435	-1.06148
H	1.34314	0.626562	0.600769
H	-1.30188	-0.443462	0.285368
C	-1.15718	1.3673	-0.910872
H	-0.367064	1.98912	-1.38319
H	-1.87145	1.03546	-1.69204
H	-1.70817	2.00337	-0.184112
N	-0.468111	-1.39465	-2.05533
C	0.177501	-2.26308	-3.01199
H	-1.45833	-1.31044	-2.09345
H	-0.572609	-2.73199	-3.68629
H	0.736359	-3.07427	-2.49147
H	0.901319	-1.6909	-3.63636
C	411.88	-3.41499	0.646684
C	412.028	-2.00101	1.05868
O	412.205	-1.69836	2.23077
H	411.938	-4.06734	1.54495
H	412.693	-3.69645	-0.0552911
H	410.897	-3.56881	0.154113
N	411.957	-1.08893	0.0863726
C	412.04	0.328309	0.337468
C	411.254	1.0471	-0.742828
O	410.823	0.436993	-1.71916
H	411.772	-1.34804	-0.857351
H	411.565	0.551812	1.28467
C	413.51	0.802	0.343465
H	413.995	0.582447	-0.631754
H	413.589	1.88916	0.549541
H	414.068	0.257231	1.13613
N	411.042	2.36873	-0.587119
C	410.3	3.13505	-1.56097
H	411.396	2.84413	0.211653
H	410.234	4.20211	-1.25403
H	409.265	2.7364	-1.66882
H	410.794	3.08696	-2.55828
