44
  This energy is -0.3902 and Call times are: 222553
C	0.381889	-3.4299	0.45018
C	-0.410768	-2.25002	0.0369914
O	-1.46053	-2.37655	-0.578144
H	-0.124845	-4.35452	0.0977966
H	0.466351	-3.4658	1.55667
H	1.39748	-3.38416	0.00343253
N	0.0847039	-1.05593	0.37023
C	-0.550978	0.18411	0.000418631
C	0.52336	1.24824	-0.122015
O	1.67661	1.02345	0.240194
H	0.961014	-0.967713	0.835166
H	-1.00857	0.0740139	-0.974835
C	-1.60576	0.597808	1.04996
H	-1.13492	0.721152	2.04852
H	-2.11213	1.5441	0.769522
H	-2.37739	-0.198912	1.12856
N	0.168538	2.43747	-0.647239
C	1.12438	3.50836	-0.807658
H	-0.768579	2.59909	-0.938377
H	0.640334	4.40356	-1.25657
H	1.96084	3.19198	-1.47212
H	1.55685	3.79994	0.176765
C	992.491	-1.44231	2.98524
C	992.224	-0.730422	1.71515
O	991.083	-0.582446	1.30022
H	991.529	-1.7912	3.41991
H	992.987	-0.7613	3.70884
H	993.143	-2.32257	2.80093
N	993.291	-0.268319	1.05833
C	993.194	0.40692	-0.211764
C	994.48	0.162428	-0.97718
O	995.444	-0.373058	-0.433566
H	994.216	-0.432328	1.38811
H	992.388	-0.0301524	-0.787898
C	992.96	1.92084	-0.0152322
H	993.792	2.3717	0.566745
H	992.869	2.44986	-0.986038
H	992.017	2.07576	0.553867
N	994.522	0.54458	-2.26879
C	995.702	0.347351	-3.07787
H	993.73	0.972541	-2.69224
H	995.539	0.726856	-4.11061
H	995.96	-0.73476	-3.13887
H	996.573	0.885905	-2.63989
