44
  This energy is 0 and Call times are: 205777
C	-3.44039	-0.522737	-0.0561464
C	-2.10167	-0.589476	-0.684245
O	-1.91913	-1.21304	-1.72071
H	-4.15964	-1.11725	-0.660393
H	-3.79098	0.529878	-0.0133074
H	-3.40221	-0.941529	0.971593
N	-1.11899	0.0616389	-0.057535
C	0.245163	0.0529298	-0.523992
C	1.1565	0.228836	0.676041
O	0.696023	0.511472	1.78048
H	-1.27452	0.530684	0.807145
H	0.46773	-0.913363	-0.959162
C	0.483122	1.17862	-1.55425
H	0.265055	2.17096	-1.10509
H	1.52633	1.17373	-1.93137
H	-0.199747	1.0343	-2.41982
N	2.47955	0.0560482	0.487086
C	3.42285	0.197631	1.57167
H	2.8328	-0.176409	-0.413051
H	4.4611	0.0166473	1.216
H	3.19892	-0.530602	2.38457
H	3.37384	1.22328	2.00384
C	309.856	-1.83121	-2.95554
C	310.473	-1.29014	-1.72367
O	311.575	-1.66702	-1.34961
H	310.535	-2.5881	-3.40468
H	309.69	-1.01574	-3.69061
H	308.885	-2.31574	-2.71651
N	309.762	-0.380007	-1.05405
C	310.211	0.205428	0.184425
C	308.989	0.588479	0.997489
O	307.863	0.536934	0.505113
H	308.849	-0.113496	-1.34893
H	310.757	-0.536972	0.753061
C	311.096	1.44363	-0.0796429
H	310.533	2.20994	-0.653888
H	311.459	1.89528	0.865989
H	311.98	1.14134	-0.682663
N	309.183	0.976266	2.27339
C	308.079	1.35395	3.12495
H	310.101	1.00764	2.65527
H	308.443	1.64073	4.13624
H	307.363	0.508428	3.23706
H	307.527	2.21946	2.69219
