44
  This energy is 0.0002 and Call times are: 201633
C	1.03348	1.97953	-2.66947
C	0.666986	0.670885	-2.08272
O	0.489824	-0.312127	-2.78891
H	1.08657	1.88407	-3.77579
H	2.02425	2.30557	-2.28893
H	0.269109	2.7424	-2.41088
N	0.541147	0.630518	-0.754219
C	0.147667	-0.560201	-0.0429374
C	-0.563449	-0.138117	1.22896
O	-0.575764	1.03941	1.5825
H	0.648454	1.4486	-0.196455
H	-0.564032	-1.11507	-0.641461
C	1.37579	-1.43604	0.288499
H	2.10139	-0.870711	0.911353
H	1.08439	-2.36273	0.824088
H	1.88512	-1.72651	-0.656254
N	-1.18354	-1.09595	1.94594
C	-1.89051	-0.787629	3.16713
H	-1.166	-2.04259	1.64157
H	-2.33236	-1.70791	3.60882
H	-2.71355	-0.0624681	2.97213
H	-1.20166	-0.3347	3.91645
C	11.2944	1.34093	-1.94518
C	12.4979	1.48479	-1.09539
O	13.089	2.55242	-1.01061
H	11.0828	2.30897	-2.44912
H	10.4183	1.06029	-1.32355
H	11.4631	0.562384	-2.7188
N	12.8944	0.392409	-0.438212
C	14.072	0.365593	0.393128
C	14.6193	-1.04932	0.392407
O	13.9802	-1.97156	-0.110293
H	12.4268	-0.479895	-0.549389
H	14.8304	1.00507	-0.0410395
C	13.7415	0.81762	1.83248
H	12.9712	0.155506	2.28211
H	14.643	0.814542	2.47895
H	13.3352	1.85235	1.80804
N	15.8281	-1.25243	0.952512
C	16.4315	-2.56407	0.993313
H	16.3318	-0.492932	1.35055
H	17.4242	-2.52488	1.49357
H	16.5738	-2.96317	-0.037095
H	15.7843	-3.27721	1.55341
