44
  This energy is 0 and Call times are: 206981
C	0.773327	-1.40793	-3.08746
C	-0.125376	-0.647046	-2.1905
O	-1.09702	-0.0467574	-2.62864
H	0.417732	-1.30657	-4.13586
H	0.770978	-2.48287	-2.80952
H	1.80811	-1.0109	-3.019
N	0.186665	-0.654175	-0.89244
C	-0.567976	0.0751017	0.0961097
C	0.369969	0.443431	1.23019
O	1.50889	-0.0170698	1.28029
H	1.00393	-1.11357	-0.556424
H	-0.926829	0.999579	-0.338857
C	-1.74868	-0.769816	0.622686
H	-1.38031	-1.71352	1.07849
H	-2.34574	-0.214072	1.37448
H	-2.4175	-1.03449	-0.225244
N	-0.0878967	1.29531	2.16864
C	0.735151	1.70713	3.28183
H	-1.01098	1.66057	2.10878
H	0.180369	2.4092	3.94254
H	1.65629	2.21947	2.92087
H	1.04553	0.825723	3.8884
C	397.235	-3.06817	-0.586451
C	396.899	-1.92576	0.293075
O	397.112	-1.96978	1.49685
H	397.659	-3.8922	0.0274823
H	397.986	-2.76051	-1.34356
H	396.322	-3.43626	-1.10047
N	396.355	-0.860225	-0.299549
C	395.936	0.310334	0.430415
C	394.795	0.958488	-0.329965
O	394.49	0.573675	-1.4573
H	396.15	-0.855177	-1.27412
H	395.551	0.00976681	1.39666
C	397.107	1.30335	0.599522
H	397.496	1.62014	-0.391606
H	396.801	2.20271	1.17207
H	397.934	0.805308	1.15141
N	394.127	1.95915	0.277619
C	393.023	2.63175	-0.36648
H	394.386	2.25378	1.19165
H	392.606	3.42377	0.293761
H	392.209	1.90984	-0.605385
H	393.354	3.10674	-1.31846
