44
  This energy is -2.9398 and Call times are: 219334
C	-0.524486	-1.67045	-3.00785
C	-0.0830781	-1.63728	-1.59534
O	0.162338	-2.6683	-0.98447
H	-0.594289	-2.72714	-3.34612
H	0.20628	-1.13513	-3.64985
H	-1.52267	-1.19435	-3.10814
N	0.026922	-0.42996	-1.03617
C	0.403847	-0.239228	0.342274
C	-0.226174	1.05156	0.830634
O	-0.783329	1.81672	0.0458884
H	-0.215778	0.397861	-1.53384
H	-0.00600496	-1.0443	0.939364
C	1.94	-0.182255	0.491352
H	2.35992	0.650099	-0.11271
H	2.24327	-0.0495368	1.5501
H	2.38024	-1.13363	0.120641
N	-0.159071	1.32024	2.14947
C	-0.735207	2.52196	2.70634
H	0.292337	0.686927	2.76933
H	-0.576678	2.56077	3.80661
H	-1.83096	2.56036	2.50857
H	-0.27061	3.42728	2.25281
C	992.735	-1.75315	2.50312
C	993.081	-0.496522	1.80145
O	992.48	0.543842	2.03332
H	991.887	-1.56476	3.19745
H	993.605	-2.11657	3.08878
H	992.432	-2.53023	1.7697
N	994.072	-0.5679	0.91075
C	994.494	0.560865	0.118878
C	995.059	0.0372482	-1.18793
O	995.25	-1.16587	-1.35426
H	994.524	-1.43091	0.703267
H	993.631	1.16895	-0.123508
C	995.552	1.39762	0.870204
H	996.442	0.776961	1.10982
H	995.874	2.27751	0.276498
H	995.119	1.76371	1.82674
N	995.333	0.934942	-2.15485
C	995.869	0.528941	-3.43339
H	995.168	1.90381	-2.00305
H	996.026	1.41136	-4.09209
H	995.171	-0.171821	-3.94674
H	996.846	0.00981922	-3.30339
