44
  This energy is 0 and Call times are: 215045
C	1.85635	-2.90845	0.455576
C	0.600686	-2.20444	0.110873
O	-0.342627	-2.80109	-0.389703
H	1.76708	-3.97935	0.170806
H	2.04523	-2.84153	1.54763
H	2.71003	-2.46012	-0.0951615
N	0.562385	-0.896137	0.374033
C	-0.574225	-0.0684476	0.0552718
C	-0.0766395	1.34301	-0.19323
O	1.0883	1.65206	0.0499208
H	1.35303	-0.416566	0.743849
H	-1.02416	-0.418626	-0.865363
C	-1.60735	-0.0841367	1.20316
H	-1.14916	0.284981	2.14541
H	-2.49368	0.538521	0.963887
H	-1.95163	-1.12771	1.37281
N	-0.95271	2.23556	-0.695103
C	-0.567871	3.60048	-0.969127
H	-1.89001	1.96562	-0.889222
H	-1.42704	4.17687	-1.37756
H	0.261192	3.63309	-1.71268
H	-0.217678	4.10435	-0.0392783
C	970.678	0.397638	3.30293
C	971.573	-0.182865	2.27662
O	972.596	-0.774938	2.59082
H	971.107	0.212449	4.31159
H	969.674	-0.0744786	3.24703
H	970.58	1.49307	3.14972
N	971.201	-0.0207519	1.0047
C	971.99	-0.492132	-0.105832
C	971.716	0.407177	-1.29648
O	970.816	1.24378	-1.25973
H	970.386	0.49902	0.76309
H	973.041	-0.395245	0.136332
C	971.645	-1.95901	-0.444458
H	970.569	-2.05711	-0.703212
H	972.256	-2.33799	-1.28911
H	971.846	-2.59755	0.443402
N	972.497	0.259904	-2.38439
C	972.314	1.07501	-3.56262
H	973.223	-0.41971	-2.3937
H	973.054	0.803123	-4.34776
H	972.444	2.15413	-3.31772
H	971.291	0.936494	-3.98125
