44
  This energy is 0 and Call times are: 206365
C	1.58668	-3.04748	-0.554939
C	0.771634	-1.90005	-1.01345
O	0.527651	-1.73097	-2.20016
H	1.90854	-3.64462	-1.43569
H	0.989283	-3.69586	0.119943
H	2.48834	-2.68578	-0.0170909
N	0.327371	-1.07133	-0.0656919
C	-0.441221	0.112183	-0.360851
C	-0.176702	1.1323	0.730459
O	0.4519	0.82449	1.74132
H	0.568567	-1.19936	0.892066
H	-0.0944513	0.540012	-1.29324
C	-1.9484	-0.214916	-0.442506
H	-2.30697	-0.644079	0.517329
H	-2.54967	0.685731	-0.68297
H	-2.1175	-0.968993	-1.24196
N	-0.646841	2.38165	0.545794
C	-0.438763	3.4204	1.52757
H	-1.14967	2.61267	-0.280565
H	-0.899853	4.37576	1.19305
H	0.649538	3.59463	1.69042
H	-0.892589	3.13485	2.50412
C	349.655	2.48499	-1.32543
C	350.471	1.2575	-1.46323
O	350.436	0.585873	-2.48506
H	349.055	2.63281	-2.24948
H	350.313	3.36731	-1.17921
H	348.966	2.39098	-0.460229
N	351.234	0.93174	-0.417493
C	352.05	-0.256692	-0.386127
C	352.191	-0.695463	1.05925
O	351.795	0.0213323	1.97651
H	351.221	1.46595	0.42292
H	351.542	-1.0525	-0.916694
C	353.438	0.0100438	-1.00902
H	353.963	0.819186	-0.458535
H	354.07	-0.901212	-1.00336
H	353.31	0.337414	-2.06391
N	352.755	-1.89625	1.29595
C	352.926	-2.39953	2.63895
H	353.065	-2.46378	0.540472
H	353.408	-3.40207	2.6249
H	351.942	-2.49086	3.15247
H	353.565	-1.71153	3.23811
