44
  This energy is 0 and Call times are: 213421
C	-2.83458	-0.21549	2.00783
C	-1.71157	0.545932	1.41604
O	-1.66388	1.76586	1.49285
H	-3.55576	0.493244	2.46988
H	-2.45783	-0.906425	2.79104
H	-3.35797	-0.7989	1.2212
N	-0.768367	-0.170382	0.799888
C	0.362735	0.431869	0.139236
C	0.797415	-0.487343	-0.986667
O	0.316443	-1.61299	-1.10195
H	-0.841986	-1.15951	0.710013
H	0.0571844	1.36899	-0.309177
C	1.52421	0.65952	1.1314
H	1.84507	-0.302978	1.58382
H	2.39613	1.13552	0.637723
H	1.18119	1.32833	1.95078
N	1.71807	-0.0219168	-1.85373
C	2.1882	-0.823363	-2.95956
H	2.09257	0.893127	-1.74642
H	2.94214	-0.265163	-3.55723
H	1.34346	-1.09997	-3.63125
H	2.65869	-1.76371	-2.5914
C	858.989	0.251979	-1.11051
C	857.91	0.570339	-0.147827
O	858.156	1.11183	0.921286
H	859.967	0.563192	-0.682805
H	858.824	0.796654	-2.06386
H	859.015	-0.840312	-1.30877
N	856.671	0.232766	-0.511981
C	855.524	0.43946	0.336767
C	854.489	-0.617228	-0.000917764
O	854.634	-1.35143	-0.976465
H	856.492	-0.244454	-1.3676
H	855.813	0.289962	1.36976
C	854.938	1.85443	0.137456
H	854.632	2.0046	-0.919887
H	854.063	2.03076	0.795621
H	855.715	2.61124	0.382572
N	853.418	-0.7243	0.809123
C	852.384	-1.70445	0.569775
H	853.32	-0.123967	1.59599
H	851.589	-1.63493	1.34465
H	852.807	-2.73492	0.593054
H	851.916	-1.54599	-0.428551
