44
  This energy is -3.3595 and Call times are: 221848
C	-1.34154	0.620136	-3.15094
C	-1.28049	-0.15189	-1.88943
O	-2.14631	-0.967529	-1.60395
H	-2.25995	0.337925	-3.71017
H	-0.454575	0.396027	-3.78008
H	-1.37402	1.70838	-2.93241
N	-0.238241	0.0949508	-1.09246
C	-0.0646339	-0.546138	0.187161
C	0.716573	0.394416	1.08529
O	1.22582	1.41839	0.633791
H	0.436652	0.791302	-1.31935
H	-1.03413	-0.698309	0.644934
C	0.679064	-1.89102	0.0340503
H	1.67802	-1.7342	-0.425867
H	0.806693	-2.40103	1.01084
H	0.0934121	-2.56035	-0.6333
N	0.82229	0.0702284	2.38903
C	1.54193	0.907604	3.32021
H	0.399901	-0.760392	2.73649
H	1.51498	0.471565	4.34314
H	1.09198	1.926	3.36138
H	2.60723	1.01307	3.01175
C	995.232	-1.11495	3.2255
C	995.555	-1.0195	1.78403
O	996.641	-1.38336	1.35298
H	996.108	-1.52776	3.77149
H	994.363	-1.78838	3.37924
H	994.997	-0.108931	3.63234
N	994.603	-0.516724	0.99469
C	994.786	-0.322165	-0.422149
C	993.907	0.835528	-0.857552
O	993.082	1.32429	-0.0879362
H	993.74	-0.186871	1.36617
H	995.813	-0.0378202	-0.614383
C	994.422	-1.60228	-1.20608
H	993.366	-1.88847	-1.01748
H	994.572	-1.46964	-2.29722
H	995.072	-2.43795	-0.865588
N	994.071	1.30896	-2.10852
C	993.284	2.41176	-2.60872
H	994.747	0.903067	-2.7152
H	993.567	2.65333	-3.65698
H	993.441	3.32136	-1.98484
H	992.198	2.16155	-2.58703
