44
  This energy is 0 and Call times are: 206533
C	1.85301	-0.645699	2.87439
C	1.19831	-1.08196	1.62052
O	1.3977	-2.19626	1.15684
H	2.5097	-1.46088	3.24873
H	1.08813	-0.417376	3.64612
H	2.4717	0.257564	2.68884
N	0.389999	-0.19611	1.03377
C	-0.283627	-0.459926	-0.213302
C	-0.4977	0.863011	-0.924334
O	-0.267434	1.92832	-0.355294
H	0.269706	0.72161	1.40145
H	0.355864	-1.06516	-0.84368
C	-1.63395	-1.16946	0.0284024
H	-2.2944	-0.544289	0.666372
H	-2.15597	-1.39051	-0.925097
H	-1.45383	-2.1311	0.556751
N	-0.938624	0.824591	-2.19718
C	-1.16596	2.03287	-2.95518
H	-1.11542	-0.0471636	-2.64199
H	-1.52647	1.79246	-3.97962
H	-0.225476	2.62349	-3.04422
H	-1.92928	2.67242	-2.45573
C	361.854	0.793584	-2.84161
C	363.034	0.963871	-1.9648
O	364.008	1.6075	-2.33166
H	362.038	1.30856	-3.80948
H	360.955	1.23703	-2.36381
H	361.674	-0.284761	-3.03672
N	362.973	0.378053	-0.766699
C	364.06	0.418919	0.179012
C	363.99	-0.831912	1.03463
O	363.021	-1.58554	0.970231
H	362.191	-0.176789	-0.498345
H	365.001	0.39098	-0.356785
C	363.977	1.68381	1.06125
H	363.017	1.70764	1.61919
H	364.817	1.73386	1.78436
H	364.022	2.58655	0.413667
N	365.028	-1.08695	1.8554
C	365.052	-2.25635	2.70282
H	365.806	-0.467504	1.89058
H	365.989	-2.28865	3.30207
H	364.995	-3.18585	2.09121
H	364.187	-2.25116	3.40438
