44
  This energy is 0 and Call times are: 203285
C	-0.983099	2.71392	1.94443
C	0.0533086	1.908	1.2607
O	1.19622	2.32457	1.13174
H	-0.543458	3.68428	2.26223
H	-1.35517	2.1768	2.8421
H	-1.83057	2.91206	1.25477
N	-0.331187	0.716232	0.797851
C	0.552927	-0.162386	0.0733277
C	-0.285455	-1.00407	-0.870194
O	-1.51319	-0.988506	-0.805791
H	-1.27524	0.408377	0.874361
H	1.22596	0.429681	-0.534218
C	1.34917	-1.06468	1.04137
H	0.659398	-1.67999	1.65752
H	2.0437	-1.73624	0.496245
H	1.94899	-0.427545	1.72738
N	0.363242	-1.75709	-1.78024
C	-0.351185	-2.58597	-2.72297
H	1.35698	-1.75333	-1.81961
H	0.35813	-3.12696	-3.38737
H	-1.02431	-1.9667	-3.35912
H	-0.976037	-3.33863	-2.18986
C	130.927	-1.60262	-2.99105
C	131.86	-0.862748	-2.11249
O	133.048	-0.764224	-2.39067
H	131.488	-2.01959	-3.85529
H	130.137	-0.920767	-3.37068
H	130.456	-2.4382	-2.43154
N	131.335	-0.319201	-1.01204
C	132.125	0.393566	-0.0394666
C	131.455	0.248134	1.31343
O	130.335	-0.251437	1.41094
H	130.375	-0.442785	-0.778273
H	133.103	-0.0673604	0.0338259
C	132.257	1.88429	-0.42113
H	131.255	2.36022	-0.486139
H	132.875	2.44107	0.31276
H	132.743	1.96641	-1.41775
N	132.132	0.67694	2.3966
C	131.576	0.574244	3.72557
H	133.038	1.07464	2.29803
H	132.284	0.979936	4.48094
H	131.362	-0.488994	3.9809
H	130.622	1.14491	3.79747
