44
  This energy is -2.7712 and Call times are: 221157
C	-0.278724	-3.13358	-1.48852
C	0.312007	-1.77895	-1.4038
O	1.29605	-1.4751	-2.0639
H	0.318412	-3.7512	-2.19411
H	-1.32345	-3.07298	-1.8595
H	-0.268936	-3.61849	-0.489597
N	-0.28542	-0.921935	-0.572547
C	0.199336	0.417671	-0.351127
C	-0.195268	0.837529	1.05228
O	-0.95873	0.147301	1.72491
H	-1.0609	-1.19661	-0.0112547
H	1.2813	0.417969	-0.395689
C	-0.385891	1.39548	-1.39354
H	-1.49549	1.40342	-1.34107
H	-0.00929657	2.42785	-1.24216
H	-0.0912422	1.06437	-2.4133
N	0.326654	1.98357	1.5321
C	0.0125469	2.45992	2.85898
H	0.945845	2.52636	0.974378
H	0.539159	3.41709	3.06809
H	0.321758	1.71468	3.62728
H	-1.08301	2.63164	2.96584
C	993.619	3.21879	0.763999
C	994.69	2.23522	0.486194
O	995.843	2.5934	0.289244
H	994.047	4.24461	0.737063
H	993.184	3.03709	1.76917
H	992.82	3.14207	-0.00369711
N	994.325	0.951328	0.461805
C	995.245	-0.11694	0.162534
C	994.462	-1.2547	-0.464747
O	993.233	-1.23456	-0.489558
H	993.375	0.678391	0.583463
H	995.962	0.225149	-0.573268
C	995.968	-0.596848	1.44045
H	995.233	-0.957733	2.19159
H	996.69	-1.40996	1.22097
H	996.528	0.253708	1.8868
N	995.161	-2.27629	-0.997161
C	994.502	-3.40004	-1.62034
H	996.155	-2.27273	-0.971114
H	995.247	-4.13432	-1.99703
H	993.878	-3.06229	-2.4793
H	993.836	-3.91806	-0.89261
