44
  This energy is 0 and Call times are: 211041
C	2.8278	0.430118	-1.98273
C	1.5585	-0.257149	-1.65457
O	1.04014	-1.03832	-2.44037
H	3.15801	0.125759	-2.99969
H	3.61458	0.150785	-1.25081
H	2.68225	1.53087	-1.96659
N	1.02054	0.025795	-0.465914
C	-0.233501	-0.5314	-0.0237838
C	-0.878245	0.454455	0.932224
O	-0.259772	1.43803	1.33446
H	1.43299	0.69485	0.145736
H	-0.896537	-0.637572	-0.873338
C	-0.0177877	-1.89498	0.668578
H	0.65393	-1.78476	1.54646
H	-0.977506	-2.34082	1.00127
H	0.462205	-2.59796	-0.0468071
N	-2.1486	0.21609	1.31353
C	-2.84573	1.10217	2.21634
H	-2.63397	-0.582857	0.974158
H	-3.87827	0.735616	2.40795
H	-2.91209	2.12797	1.78669
H	-2.31101	1.17017	3.19132
C	684.794	2.59486	2.13524
C	684.837	1.16045	1.77215
O	684.519	0.294457	2.57584
H	684.465	2.69666	3.1921
H	684.077	3.13412	1.48163
H	685.803	3.04654	2.02816
N	685.239	0.873839	0.531747
C	685.372	-0.47727	0.0467396
C	686.449	-0.492119	-1.02127
O	686.924	0.557245	-1.45137
H	685.533	1.58743	-0.0977105
H	685.71	-1.11497	0.854247
C	684.034	-0.992283	-0.526915
H	683.693	-0.344494	-1.36231
H	684.12	-2.03656	-0.891023
H	683.258	-0.96512	0.26955
N	686.868	-1.69169	-1.47035
C	687.893	-1.80441	-2.48167
H	686.475	-2.52984	-1.10723
H	688.099	-2.87215	-2.71626
H	688.841	-1.33339	-2.13428
H	687.578	-1.29349	-3.41998
