44
  This energy is 0 and Call times are: 213813
C	-2.91247	-0.672475	1.78269
C	-1.52362	-0.167439	1.69801
O	-1.02239	0.463753	2.61821
H	-3.35595	-0.366367	2.75506
H	-2.92137	-1.78076	1.71666
H	-3.52477	-0.248383	0.959079
N	-0.861721	-0.437354	0.570436
C	0.48163	0.0243703	0.323903
C	0.658431	0.187025	-1.17404
O	-0.199578	-0.216233	-1.95693
H	-1.29699	-0.916888	-0.186174
H	0.611365	1.00161	0.772018
C	1.51929	-0.971538	0.886632
H	1.39343	-1.97153	0.419499
H	2.55752	-0.620448	0.715314
H	1.3661	-1.08108	1.98248
N	1.7803	0.793864	-1.609
C	2.03231	0.997701	-3.01652
H	2.4611	1.11705	-0.960054
H	3.00577	1.51317	-3.17113
H	1.22943	1.62074	-3.47311
H	2.06181	0.0232485	-3.5557
C	885.057	-1.72768	-2.69927
C	885.029	-0.575323	-1.77059
O	885.95	0.229485	-1.73257
H	886.007	-1.71076	-3.27709
H	884.204	-1.66902	-3.40772
H	885	-2.67938	-2.13002
N	883.954	-0.471114	-0.986351
C	883.803	0.571715	-0.00231176
C	882.931	0.0405122	1.12005
O	882.354	-1.03938	1.01157
H	883.232	-1.15683	-0.999942
H	884.771	0.803807	0.423439
C	883.17	1.83373	-0.62841
H	882.172	1.59849	-1.05601
H	883.062	2.64884	0.116119
H	883.821	2.20033	-1.45231
N	882.823	0.789081	2.23536
C	882.02	0.361848	3.35742
H	883.301	1.65815	2.30611
H	882.059	1.11264	4.1772
H	882.388	-0.611344	3.75582
H	880.957	0.230037	3.05231
