44
  This energy is -4.6526 and Call times are: 225215
C	-0.921448	1.80599	-2.82878
C	-0.895878	0.560882	-2.02867
O	-1.59615	-0.397058	-2.32595
H	-1.65374	1.69487	-3.65781
H	0.0822327	2.00446	-3.26004
H	-1.22632	2.66353	-2.19255
N	-0.0748078	0.548666	-0.976017
C	0.0274804	-0.574945	-0.078467
C	0.429033	-0.0534117	1.2884
O	0.767121	1.11885	1.44079
H	0.458472	1.35081	-0.722939
H	-0.945652	-1.03829	0.0261914
C	1.06258	-1.59935	-0.592676
H	2.06339	-1.12722	-0.690181
H	1.14048	-2.47588	0.0827056
H	0.752747	-1.96144	-1.59729
N	0.392648	-0.916748	2.32249
C	0.752262	-0.50899	3.66062
H	0.112464	-1.86031	2.18016
H	0.657779	-1.36053	4.36997
H	0.089397	0.314801	4.0117
H	1.80388	-0.142464	3.69057
C	996.654	-2.51047	0.170431
C	996.186	-1.13362	0.446291
O	996.803	-0.394518	1.20111
H	997.58	-2.70748	0.754078
H	996.879	-2.6289	-0.910409
H	995.878	-3.24586	0.469058
N	995.064	-0.754152	-0.168889
C	994.461	0.540047	0.0335209
C	992.966	0.405581	-0.185889
O	992.487	-0.631606	-0.640234
H	994.551	-1.38096	-0.748382
H	994.61	0.846512	1.0614
C	995.059	1.58417	-0.934912
H	994.897	1.27543	-1.98969
H	994.613	2.58802	-0.779505
H	996.155	1.66015	-0.762035
N	992.189	1.45647	0.142276
C	990.755	1.4181	-0.0265776
H	992.595	2.28567	0.51239
H	990.295	2.37669	0.299815
H	990.311	0.592951	0.575791
H	990.49	1.24731	-1.09497
