44
  This energy is -0.0802 and Call times are: 220902
C	-1.9795	2.26277	-1.75332
C	-1.63535	0.886273	-1.33148
O	-2.39672	-0.0484061	-1.53909
H	-2.98333	2.26037	-2.23102
H	-1.23367	2.63622	-2.48613
H	-2.00234	2.93853	-0.872454
N	-0.460424	0.730161	-0.717018
C	-0.00677379	-0.541272	-0.210837
C	0.910676	-0.28056	0.968938
O	1.28232	0.860217	1.23769
H	0.130159	1.50717	-0.518674
H	-0.856089	-1.10222	0.1588
C	0.733638	-1.33893	-1.30664
H	1.61118	-0.76841	-1.67875
H	1.07582	-2.3258	-0.933139
H	0.0458886	-1.5112	-2.16318
N	1.29241	-1.33932	1.7101
C	2.15983	-1.18726	2.85494
H	0.977996	-2.2542	1.4794
H	2.35785	-2.17241	3.3319
H	1.69455	-0.517549	3.61406
H	3.13505	-0.741462	2.5527
C	990.131	2.57911	-1.25812
C	990.431	1.54522	-0.242148
O	989.828	1.50968	0.821882
H	989.336	3.25389	-0.871894
H	989.773	2.10256	-2.19512
H	991.04	3.18002	-1.47255
N	991.388	0.667629	-0.553143
C	991.82	-0.369025	0.350644
C	993.272	-0.686034	0.0465998
O	993.826	-0.214136	-0.944738
H	991.897	0.734345	-1.40611
H	991.777	0.00223704	1.36697
C	990.946	-1.63349	0.198428
H	990.999	-2.02084	-0.841412
H	991.261	-2.4342	0.898846
H	989.887	-1.37629	0.417794
N	993.929	-1.49211	0.903865
C	995.315	-1.84466	0.699047
H	993.465	-1.86093	1.70269
H	995.674	-2.51477	1.51083
H	995.954	-0.932678	0.688347
H	995.447	-2.37049	-0.274197
