44
  This energy is 0 and Call times are: 208073
C	2.90205	1.39282	1.3232
C	1.51476	0.895414	1.46165
O	1.01036	0.725022	2.56299
H	3.34136	1.54179	2.3335
H	2.90881	2.36218	0.781879
H	3.51938	0.655368	0.768082
N	0.857893	0.64546	0.326557
C	-0.483183	0.116877	0.30058
C	-0.652154	-0.681629	-0.978244
O	0.208848	-0.655306	-1.85557
H	1.29586	0.750137	-0.561754
H	-0.612977	-0.56885	1.12857
C	-1.52585	1.25406	0.370645
H	-1.39988	1.95199	-0.484375
H	-2.56242	0.859077	0.36537
H	-1.37837	1.82981	1.31038
N	-1.77049	-1.42189	-1.11003
C	-2.01503	-2.21848	-2.28978
H	-2.45379	-1.43361	-0.387511
H	-2.98656	-2.75395	-2.20831
H	-1.2085	-2.97472	-2.42721
H	-2.044	-1.57552	-3.19912
C	476.232	-2.3457	0.448201
C	475.393	-1.22558	0.930357
O	475.394	-0.894608	2.10801
H	476.788	-2.7834	1.30545
H	476.961	-1.98072	-0.304922
H	475.594	-3.13322	-0.00631614
N	474.642	-0.608907	0.0142049
C	473.743	0.469775	0.339051
C	472.603	0.453302	-0.662578
O	472.644	-0.277938	-1.65019
H	474.621	-0.916181	-0.932879
H	473.314	0.294922	1.31801
C	474.475	1.82891	0.303502
H	474.906	2.01356	-0.703625
H	473.796	2.66617	0.565458
H	475.31	1.81541	1.03835
N	471.55	1.25918	-0.424539
C	470.417	1.30665	-1.31941
H	471.534	1.84064	0.382131
H	469.655	2.02851	-0.951291
H	469.939	0.303681	-1.40134
H	470.735	1.6219	-2.33954
