44
  This energy is 0 and Call times are: 209417
C	-1.4222	1.38172	-2.86022
C	-1.44046	0.434153	-1.72316
O	-2.4506	-0.194773	-1.43945
H	-2.42741	1.40583	-3.33441
H	-0.675972	1.05823	-3.61603
H	-1.16844	2.40234	-2.5038
N	-0.303322	0.311592	-1.03448
C	-0.1793	-0.538648	0.123222
C	0.884144	0.0502991	1.03085
O	1.58619	0.986484	0.653478
H	0.498477	0.86073	-1.25227
H	-1.11227	-0.532022	0.6729
C	0.196833	-1.97905	-0.287899
H	1.15921	-1.98763	-0.842693
H	0.281738	-2.64679	0.593818
H	-0.59114	-2.38707	-0.957949
N	1.02215	-0.483342	2.26057
C	2.00385	0.0155101	3.19522
H	0.442033	-1.23777	2.54932
H	1.96163	-0.552661	4.15054
H	1.82175	1.09161	3.41912
H	3.03112	-0.0806383	2.77496
C	571.591	-0.0665917	2.92104
C	571.471	-0.0739081	1.44565
O	572.453	0.0725146	0.73019
H	572.653	0.10283	3.20249
H	571.26	-1.04156	3.33668
H	570.971	0.747938	3.35125
N	570.243	-0.245372	0.950761
C	569.962	-0.23247	-0.463271
C	568.538	0.252699	-0.658182
O	567.785	0.398598	0.302977
H	569.449	-0.322262	1.54609
H	570.616	0.480484	-0.95074
C	570.144	-1.63911	-1.07461
H	569.466	-2.36878	-0.582028
H	569.944	-1.63945	-2.16572
H	571.19	-1.97725	-0.913302
N	568.136	0.52351	-1.91568
C	566.801	0.995295	-2.1974
H	568.761	0.403206	-2.68005
H	566.664	1.16073	-3.28883
H	566.604	1.95679	-1.66992
H	566.042	0.253743	-1.8573
