44
  This energy is 0 and Call times are: 212525
C	3.29724	-1.04472	0.386552
C	2.10739	-0.29047	0.840964
O	2.05494	0.192747	1.96353
H	4.04261	-1.08598	1.21033
H	3.75755	-0.541721	-0.489723
H	3.01048	-2.08102	0.109162
N	1.10804	-0.173643	-0.0365512
C	-0.13085	0.49455	0.275268
C	-1.22918	-0.129187	-0.565072
O	-0.960507	-0.928059	-1.46024
H	1.14878	-0.607458	-0.932102
H	-0.380121	0.318302	1.31423
C	-0.0269763	2.00935	-0.00730174
H	0.218354	2.19097	-1.07541
H	-0.970227	2.53725	0.241928
H	0.787989	2.44322	0.612321
N	-2.50162	0.217654	-0.288249
C	-3.61288	-0.329046	-1.03149
H	-2.69939	0.862503	0.442592
H	-4.57675	0.0779748	-0.653987
H	-3.64027	-1.43886	-0.937492
H	-3.52482	-0.0762506	-2.11292
C	791.089	3.32162	-0.840457
C	792.006	2.21323	-0.490758
O	793.217	2.33294	-0.608272
H	791.682	4.18551	-1.21166
H	790.513	3.63887	0.0543374
H	790.386	2.99965	-1.63721
N	791.437	1.08977	-0.0476636
C	792.195	-0.0887462	0.291003
C	791.313	-1.30122	0.0605712
O	790.116	-1.17088	-0.189807
H	790.447	0.993364	0.00371828
H	793.041	-0.173701	-0.379043
C	792.67	-0.0359902	1.75961
H	791.801	0.0405482	2.44799
H	793.267	-0.931529	2.02859
H	793.307	0.863174	1.90714
N	791.89	-2.51698	0.132129
C	791.13	-3.72752	-0.0782836
H	792.86	-2.60204	0.331792
H	791.782	-4.62311	0.0220151
H	790.678	-3.73553	-1.09646
H	790.306	-3.80872	0.666398
