44
  This energy is 0 and Call times are: 201829
C	0.319114	3.4173	0.57697
C	-0.00274803	2.04421	1.02659
O	-0.165184	1.78794	2.21164
H	0.391594	4.08608	1.46205
H	-0.47863	3.7966	-0.0956953
H	1.29074	3.42607	0.0394148
N	-0.101166	1.11521	0.0728267
C	-0.366349	-0.272711	0.359014
C	0.263871	-1.11054	-0.737536
O	0.730084	-0.581789	-1.7449
H	0.0741216	1.33095	-0.883521
H	0.115999	-0.544016	1.2898
C	-1.88554	-0.539113	0.438573
H	-2.37931	-0.270849	-0.519686
H	-2.10252	-1.6016	0.672165
H	-2.32692	0.0902406	1.24197
N	0.299947	-2.4461	-0.561431
C	0.884904	-3.32318	-1.54871
H	-0.0787214	-2.85509	0.262222
H	0.818371	-4.38404	-1.22101
H	1.95852	-3.07278	-1.70968
H	0.357122	-3.22375	-2.52478
C	30.6488	-1.10106	-1.48496
C	29.6873	-0.0322272	-1.13238
O	29.9713	1.14848	-1.2797
H	31.5907	-0.640509	-1.85459
H	30.2271	-1.747	-2.2835
H	30.8777	-1.71975	-0.591718
N	28.5085	-0.430403	-0.648266
C	27.4875	0.493456	-0.220979
C	26.6643	-0.178908	0.8615
O	26.8123	-1.37284	1.11512
H	28.3075	-1.39381	-0.495733
H	27.9558	1.36299	0.223164
C	26.5882	0.908568	-1.40596
H	26.0994	0.0179875	-1.85531
H	25.8066	1.63059	-1.09254
H	27.2127	1.3911	-2.1892
N	25.7773	0.580101	1.5347
C	24.954	0.0282001	2.58526
H	25.6747	1.54528	1.31794
H	24.2906	0.809901	3.01673
H	25.5866	-0.385436	3.40378
H	24.3155	-0.795905	2.19235
