44
  This energy is 0 and Call times are: 212105
C	0.895879	3.15149	1.17396
C	0.803433	2.13954	0.0976013
O	1.02139	2.4349	-1.0693
H	1.15956	4.13626	0.730588
H	1.68198	2.86369	1.90333
H	-0.0788122	3.24279	1.69811
N	0.469934	0.902545	0.47309
C	0.298876	-0.178852	-0.464929
C	-0.704847	-1.15596	0.117612
O	-1.09524	-1.04105	1.27783
H	0.255594	0.686793	1.42144
H	-0.123864	0.208571	-1.38353
C	1.64361	-0.885524	-0.7434
H	2.07257	-1.29235	0.197089
H	1.52758	-1.71137	-1.47487
H	2.36503	-0.149994	-1.1616
N	-1.15466	-2.14212	-0.683134
C	-2.11506	-3.11519	-0.217369
H	-0.830162	-2.2163	-1.6203
H	-2.35947	-3.84295	-1.02226
H	-3.05826	-2.61489	0.101004
H	-1.71193	-3.67901	0.654831
C	759.582	-1.30392	2.43451
C	760.897	-1.22103	1.75982
O	761.891	-1.74482	2.24377
H	759.692	-1.86988	3.38501
H	758.851	-1.83037	1.78522
H	759.205	-0.285064	2.66447
N	760.932	-0.546889	0.607983
C	762.146	-0.344033	-0.141945
C	762.013	0.953716	-0.916294
O	760.938	1.54835	-0.968362
H	760.123	-0.0912442	0.247472
H	762.975	-0.225939	0.545154
C	762.404	-1.52444	-1.10385
H	761.559	-1.63941	-1.81578
H	763.344	-1.38665	-1.67706
H	762.49	-2.46451	-0.516332
N	763.112	1.42979	-1.53293
C	763.082	2.66037	-2.28854
H	763.974	0.936604	-1.47594
H	764.084	2.88254	-2.71842
H	762.783	3.5137	-1.63768
H	762.349	2.59038	-3.12461
