44
  This energy is -0.8572 and Call times are: 225582
C	2.16479	-0.709722	-2.6311
C	1.87203	-0.10953	-1.31004
O	2.76979	0.30705	-0.59108
H	3.26405	-0.7145	-2.79686
H	1.68251	-0.116568	-3.43628
H	1.79129	-1.75482	-2.66784
N	0.586144	-0.0537274	-0.9554
C	0.148878	0.463171	0.317461
C	-1.14928	-0.228824	0.688242
O	-1.73302	-0.947782	-0.120498
H	-0.129914	-0.434164	-1.53367
H	0.878351	0.208391	1.07614
C	-0.0525454	1.993	0.25189
H	-0.808552	2.25421	-0.518992
H	-0.375927	2.40497	1.22976
H	0.907889	2.47792	-0.0287532
N	-1.62922	-0.0327954	1.93213
C	-2.85493	-0.654646	2.37612
H	-1.14057	0.549135	2.57373
H	-3.08106	-0.371498	3.42774
H	-2.77445	-1.76452	2.32157
H	-3.71026	-0.33866	1.73605
C	993.464	-1.04174	3.19238
C	993.323	-1.27183	1.73693
O	993.835	-2.24277	1.19703
H	994.088	-1.84965	3.63322
H	992.467	-1.05117	3.67975
H	993.958	-0.064586	3.37928
N	992.615	-0.365974	1.05881
C	992.427	-0.431323	-0.369055
C	992.243	0.982723	-0.88715
O	992.107	1.92549	-0.109823
H	992.239	0.440806	1.50544
H	993.322	-0.830033	-0.829601
C	991.201	-1.30145	-0.724614
H	990.281	-0.886875	-0.261034
H	991.054	-1.37091	-1.82186
H	991.354	-2.32932	-0.328944
N	992.245	1.16449	-2.22243
C	992.082	2.47523	-2.80701
H	992.361	0.389853	-2.83525
H	992.111	2.41697	-3.91742
H	992.895	3.1589	-2.47047
H	991.107	2.92241	-2.50466
