44
  This energy is 0 and Call times are: 206757
C	2.99204	-0.188567	1.76772
C	2.20654	0.191465	0.572018
O	2.6843	0.906046	-0.298343
H	3.99637	0.284951	1.71313
H	3.11633	-1.29109	1.80943
H	2.47973	0.160575	2.68899
N	0.961257	-0.285005	0.50398
C	0.0614926	0.032898	-0.576724
C	-1.35788	-0.0317731	-0.044991
O	-1.59005	-0.474631	1.07826
H	0.572597	-0.831841	1.24004
H	0.238363	1.0508	-0.901112
C	0.244049	-0.950093	-1.75386
H	0.0524084	-1.99344	-1.42409
H	-0.433573	-0.707367	-2.59792
H	1.29172	-0.891626	-2.12171
N	-2.34565	0.419712	-0.842801
C	-3.72651	0.402698	-0.419578
H	-2.13763	0.778201	-1.74684
H	-4.38652	0.814988	-1.21433
H	-3.86262	1.01467	0.50142
H	-4.05589	-0.637527	-0.194673
C	379.827	2.49324	-2.42495
C	380.317	1.86012	-1.17983
O	381.366	2.21499	-0.65947
H	380.555	3.26518	-2.75567
H	378.845	2.97905	-2.2464
H	379.722	1.73141	-3.22602
N	379.556	0.889973	-0.668125
C	379.922	0.151787	0.514808
C	379.305	-1.23098	0.419457
O	378.496	-1.49985	-0.466188
H	378.726	0.584255	-1.12548
H	380.997	0.024537	0.53769
C	379.435	0.875186	1.78948
H	378.331	0.996594	1.77139
H	379.723	0.323679	2.7078
H	379.893	1.88759	1.83439
N	379.683	-2.14835	1.33149
C	379.153	-3.492	1.3162
H	380.342	-1.91317	2.03806
H	379.586	-4.0947	2.14497
H	379.393	-3.99777	0.352882
H	378.046	-3.47912	1.43297
