44
  This energy is 0 and Call times are: 208801
C	0.369701	-0.88195	3.34637
C	0.902658	-0.347693	2.07292
O	1.99277	0.205309	2.02537
H	1.09376	-0.67349	4.16378
H	0.22158	-1.97957	3.26874
H	-0.59792	-0.39494	3.59055
N	0.130255	-0.502226	0.995008
C	0.494188	0.00290519	-0.305359
C	-0.781204	0.304616	-1.06949
O	-1.876	-0.0400534	-0.628649
H	-0.772568	-0.918036	1.05729
H	1.02906	0.937223	-0.188782
C	1.35627	-1.02238	-1.07402
H	0.803976	-1.97756	-1.2031
H	1.65455	-0.639476	-2.07149
H	2.28021	-1.2341	-0.492776
N	-0.668468	0.967661	-2.23726
C	-1.82765	1.3034	-3.03083
H	0.225663	1.24181	-2.57556
H	-1.5283	1.84735	-3.95373
H	-2.52516	1.95175	-2.45256
H	-2.37952	0.382886	-3.32955
C	527.174	3.01547	-0.920288
C	526.893	1.9503	0.0685739
O	527.494	1.90085	1.13323
H	527.978	3.67639	-0.529966
H	526.262	3.62418	-1.09617
H	527.51	2.56823	-1.87942
N	525.96	1.05801	-0.269198
C	525.608	-0.0599392	0.570409
C	525.119	-1.1858	-0.321322
O	524.92	-0.998573	-1.52009
H	525.509	1.08765	-1.15667
H	526.494	-0.415082	1.08214
C	524.516	0.336826	1.58872
H	523.604	0.691296	1.06405
H	524.247	-0.511786	2.25026
H	524.893	1.16728	2.22512
N	524.921	-2.392	0.246144
C	524.463	-3.524	-0.524771
H	525.092	-2.52503	1.21689
H	524.362	-4.4244	0.120492
H	525.181	-3.75835	-1.34382
H	523.471	-3.30991	-0.985564
