44
  This energy is 0 and Call times are: 201997
C	3.08861	-0.68451	-1.45074
C	1.60864	-0.677217	-1.47863
O	0.993849	-0.90735	-2.51085
H	3.4741	-0.902638	-2.47039
H	3.45438	-1.46709	-0.753224
H	3.47014	0.30673	-1.12675
N	0.994673	-0.405527	-0.324673
C	-0.439487	-0.320248	-0.204369
C	-0.763155	0.640428	0.924301
O	0.123023	1.06592	1.66278
H	1.5091	-0.179977	0.497737
H	-0.849861	0.100594	-1.11383
C	-1.05332	-1.70975	0.074468
H	-0.640481	-2.13735	1.01296
H	-2.15851	-1.65958	0.155431
H	-0.797139	-2.39832	-0.760151
N	-2.049	1.01282	1.07905
C	-2.45075	1.92755	2.12215
H	-2.75128	0.661056	0.469017
H	-3.54741	2.10959	2.08467
H	-1.92909	2.90551	2.00933
H	-2.19769	1.51503	3.12561
C	37.149	-1.9723	-1.30957
C	38.0733	-0.818504	-1.38436
O	38.2077	-0.181263	-2.41985
H	36.6715	-2.12534	-2.30179
H	36.357	-1.77998	-0.555519
H	37.7065	-2.89202	-1.03338
N	38.7435	-0.521717	-0.26851
C	39.7099	0.545817	-0.198644
C	40.7355	0.186813	0.860064
O	40.5652	-0.780724	1.59938
H	38.6539	-1.07494	0.554766
H	40.2333	0.616271	-1.144
C	39.026	1.88772	0.143033
H	38.4977	1.81918	1.11784
H	39.7578	2.72021	0.18608
H	38.2741	2.12644	-0.640618
N	41.836	0.959108	0.951849
C	42.8687	0.690878	1.92546
H	41.958	1.73525	0.342085
H	43.6903	1.43607	1.84275
H	43.2998	-0.324764	1.77105
H	42.4558	0.73715	2.95918
