44
  This energy is -4.8677 and Call times are: 218640
C	-0.355423	-2.3191	-2.57063
C	-0.202501	-1.97311	-1.13953
O	-0.36085	-2.81338	-0.264726
H	-0.635006	-3.39123	-2.66144
H	0.600517	-2.15011	-3.10948
H	-1.15358	-1.69935	-3.031
N	0.112149	-0.704826	-0.865957
C	0.252319	-0.207969	0.480165
C	-0.0966013	1.26845	0.478115
O	-0.269431	1.87327	-0.57831
H	0.197538	-0.0229573	-1.58681
H	-0.462912	-0.70756	1.12164
C	1.69016	-0.423834	1.00099
H	2.42345	0.0972645	0.349242
H	1.80719	-0.0579087	2.04162
H	1.92662	-1.51021	0.986208
N	-0.217104	1.88413	1.67078
C	-0.551858	3.28583	1.76745
H	-0.0775291	1.377	2.51483
H	-0.604421	3.60511	2.83166
H	-1.53895	3.48763	1.29185
H	0.213831	3.90929	1.25154
C	993.514	1.24332	2.89103
C	994.679	1.07438	1.99382
O	995.702	1.72553	2.15529
H	993.744	2.02302	3.64924
H	993.291	0.289016	3.41305
H	992.624	1.56131	2.30731
N	994.546	0.181881	1.0099
C	995.577	-0.0618385	0.0319422
C	994.912	-0.522	-1.25165
O	993.712	-0.787543	-1.27902
H	993.692	-0.310815	0.866483
H	996.09	0.866766	-0.185432
C	996.575	-1.12672	0.536441
H	996.051	-2.08276	0.74957
H	997.382	-1.31319	-0.201973
H	997.044	-0.772403	1.48049
N	995.681	-0.619275	-2.35411
C	995.134	-1.0436	-3.62189
H	996.649	-0.396135	-2.31316
H	995.923	-1.05921	-4.40518
H	994.326	-0.351516	-3.95257
H	994.7	-2.06659	-3.54034
