44
  This energy is 0 and Call times are: 209865
C	-0.604114	-0.462874	-3.3961
C	0.217545	-0.657148	-2.18025
O	1.15112	-1.44751	-2.1668
H	-0.235543	-1.13653	-4.19997
H	-0.528303	0.588345	-3.74529
H	-1.66651	-0.70561	-3.18282
N	-0.119656	0.0713195	-1.11348
C	0.558814	-0.0393278	0.1538
C	-0.42675	0.317209	1.25066
O	-1.52945	0.787741	0.977965
H	-0.907577	0.680297	-1.12739
H	0.857446	-1.06836	0.310472
C	1.7875	0.894977	0.205193
H	1.48037	1.95193	0.0550276
H	2.32648	0.808713	1.1709
H	2.49122	0.621072	-0.610956
N	-0.0521901	0.0916626	2.52536
C	-0.925967	0.394593	3.63483
H	0.842517	-0.293506	2.7259
H	-0.438051	0.138371	4.60102
H	-1.87474	-0.184231	3.55699
H	-1.18295	1.47853	3.64817
C	604.508	-0.974338	-1.81076
C	603.313	-1.28234	-0.992841
O	602.9	-2.4283	-0.882988
H	604.891	-1.91205	-2.26849
H	605.304	-0.533316	-1.17462
H	604.244	-0.261146	-2.61999
N	602.722	-0.246739	-0.392723
C	601.526	-0.382872	0.400652
C	600.758	0.923202	0.326089
O	601.257	1.91902	-0.19381
H	603.046	0.685593	-0.524801
H	600.897	-1.15202	-0.030175
C	601.872	-0.72451	1.86649
H	602.508	0.0694516	2.31221
H	600.959	-0.845572	2.48459
H	602.441	-1.67954	1.89626
N	599.512	0.946357	0.840503
C	598.704	2.14293	0.809878
H	599.123	0.129384	1.25341
H	597.713	1.96023	1.28088
H	598.537	2.47729	-0.239673
H	599.206	2.97103	1.36011
