44
  This energy is 0.1185 and Call times are: 223395
C	-1.44082	-1.99761	2.45892
C	-1.50703	-1.24949	1.18335
O	-2.45928	-1.3734	0.425541
H	-2.34203	-2.64151	2.55427
H	-1.4112	-1.29177	3.31546
H	-0.535862	-2.64083	2.47878
N	-0.476901	-0.444269	0.913471
C	-0.378492	0.315117	-0.308088
C	1.09189	0.517157	-0.622257
O	1.95842	0.208168	0.193442
H	0.310158	-0.385144	1.52085
H	-0.806119	-0.258653	-1.12083
C	-1.09485	1.67643	-0.170649
H	-0.649582	2.2698	0.656201
H	-1.03806	2.26481	-1.10932
H	-2.16736	1.50442	0.0670448
N	1.40874	1.03668	-1.82465
C	2.78173	1.25961	-2.2137
H	0.693748	1.27664	-2.47294
H	2.83522	1.69208	-3.23709
H	3.3521	0.302575	-2.20741
H	3.28065	1.96348	-1.50887
C	993.022	-0.0449943	-0.121915
C	994.304	-0.266895	0.583585
O	994.335	-0.486998	1.78651
H	992.187	-0.0978596	0.609469
H	992.871	-0.825869	-0.896701
H	993.017	0.956703	-0.601136
N	995.41	-0.210496	-0.162787
C	996.733	-0.363279	0.388811
C	997.701	0.418143	-0.479854
O	997.337	0.901861	-1.55003
H	995.372	0.010187	-1.1332
H	996.761	0.0761539	1.37813
C	997.138	-1.85249	0.446223
H	997.12	-2.30106	-0.569901
H	998.15	-1.98434	0.881975
H	996.412	-2.40625	1.08048
N	998.963	0.567317	-0.0317211
C	999.952	1.29983	-0.787756
H	999.237	0.172116	0.838621
H	1000.93	1.31066	-0.252919
H	999.626	2.35375	-0.94347
H	1000.11	0.834619	-1.7883
