44
  This energy is 0 and Call times are: 214009
C	-1.3013	-0.676338	3.15624
C	-1.23667	0.134756	1.91968
O	-2.07732	0.990246	1.67915
H	-2.19754	-0.379994	3.74345
H	-0.3945	-0.505604	3.77375
H	-1.3781	-1.75478	2.90295
N	-0.220068	-0.122781	1.0935
C	-0.0481527	0.554074	-0.167802
C	0.680112	-0.383517	-1.11232
O	1.1601	-1.43976	-0.705286
H	0.433064	-0.850267	1.28336
H	-1.02019	0.756411	-0.600036
C	0.747407	1.86533	0.0136931
H	1.74876	1.6572	0.447302
H	0.874508	2.40279	-0.948336
H	0.20001	2.53268	0.714655
N	0.772059	-0.019919	-2.40668
C	1.44196	-0.851125	-3.37956
H	0.373785	0.836583	-2.71789
H	1.41099	-0.380415	-4.38689
H	0.954113	-1.85065	-3.44464
H	2.50851	-1.00528	-3.097
C	901.05	-0.496622	0.803657
C	899.702	-1.00527	0.462574
O	899.522	-2.18237	0.18257
H	901.784	-1.3285	0.736568
H	901.056	-0.0940448	1.83837
H	901.348	0.303784	0.0939344
N	898.71	-0.112406	0.476821
C	897.352	-0.44801	0.125588
C	896.687	0.795418	-0.434143
O	897.245	1.88932	-0.374002
H	898.879	0.850469	0.666783
H	897.36	-1.19158	-0.661597
C	896.577	-0.969639	1.35532
H	896.559	-0.203159	2.15921
H	895.534	-1.24454	1.0948
H	897.086	-1.87481	1.75299
N	895.474	0.653347	-1.00309
C	894.767	1.77947	-1.56744
H	895.04	-0.240595	-1.04598
H	893.788	1.45909	-1.98724
H	895.363	2.24745	-2.38458
H	894.579	2.55488	-0.790045
