44
  This energy is -1.4059 and Call times are: 218998
C	-2.81583	-0.198318	-2.0358
C	-1.59733	-0.786996	-1.43592
O	-1.36721	-1.98565	-1.51767
H	-3.41863	-1.00405	-2.50835
H	-2.53912	0.545762	-2.81202
H	-3.42792	0.295717	-1.25198
N	-0.777589	0.0584699	-0.806954
C	0.42448	-0.372026	-0.137431
C	0.706288	0.595099	0.996945
O	0.0614899	1.6356	1.1123
H	-0.998989	1.02496	-0.713439
H	0.258117	-1.34691	0.303653
C	1.61627	-0.417792	-1.11864
H	1.79402	0.584494	-1.56346
H	2.5448	-0.761166	-0.61818
H	1.38478	-1.12545	-1.94446
N	1.67788	0.267241	1.87132
C	2.01253	1.12334	2.98546
H	2.18588	-0.580965	1.76379
H	2.8357	0.680447	3.58834
H	1.12963	1.2667	3.64969
H	2.34073	2.12556	2.62633
C	997.139	2.96738	-0.884291
C	996.651	2.00139	0.125348
O	996.977	2.09442	1.3005
H	997.811	3.70385	-0.392848
H	996.284	3.50955	-1.34029
H	997.706	2.43715	-1.67826
N	995.845	1.03453	-0.319611
C	995.324	-0.00319301	0.535204
C	995.089	-1.23972	-0.311609
O	995.181	-1.19098	-1.53669
H	995.621	0.947848	-1.28612
H	996.068	-0.259	1.27986
C	994.011	0.447078	1.21288
H	993.245	0.699548	0.449415
H	993.608	-0.338178	1.88449
H	994.206	1.35765	1.82068
N	994.785	-2.3867	0.327429
C	994.55	-3.61501	-0.395034
H	994.719	-2.40726	1.31954
H	994.315	-4.44535	0.306926
H	995.449	-3.90063	-0.987753
H	993.694	-3.49893	-1.09943
