44
  This energy is 0 and Call times are: 205945
C	2.96263	1.32193	-1.26017
C	2.14319	0.785364	-0.150319
O	2.64604	0.502171	0.928272
H	4.02417	1.38452	-0.936004
H	2.61146	2.3377	-1.5388
H	2.89557	0.652583	-2.14367
N	0.840262	0.62948	-0.396174
C	-0.076334	0.078245	0.570548
C	-1.20568	-0.600173	-0.181705
O	-1.31612	-0.474062	-1.39974
H	0.452869	0.825929	-1.29239
H	0.430201	-0.684594	1.14859
C	-0.629871	1.18221	1.49796
H	-1.15875	1.95965	0.906433
H	-1.32628	0.768271	2.25571
H	0.214433	1.67024	2.03212
N	-2.07136	-1.34762	0.531
C	-3.17396	-2.03497	-0.099867
H	-1.96319	-1.44104	1.5152
H	-3.77053	-2.59555	0.653188
H	-2.80195	-2.75828	-0.86125
H	-3.84745	-1.31033	-0.61217
C	322.134	-3.15685	-1.39951
C	322.649	-1.96322	-0.691437
O	323.756	-1.96426	-0.171407
H	322.888	-3.97159	-1.3422
H	321.945	-2.91667	-2.46688
H	321.192	-3.5055	-0.926658
N	321.841	-0.901122	-0.65374
C	322.185	0.317839	0.0349157
C	320.9	0.982994	0.490073
O	319.806	0.563501	0.115135
H	320.926	-0.929341	-1.0463
H	322.756	0.0773664	0.923139
C	322.988	1.26353	-0.885181
H	322.398	1.51896	-1.79154
H	323.271	2.19989	-0.362025
H	323.92	0.75328	-1.21242
N	321.002	2.03826	1.32188
C	319.834	2.73119	1.81162
H	321.896	2.36052	1.61748
H	320.125	3.56923	2.48225
H	319.176	2.03696	2.38387
H	319.241	3.14884	0.9657
