44
  This energy is 0 and Call times are: 208157
C	-2.1259	-2.68194	-0.632789
C	-1.71902	-1.50058	0.160923
O	-2.45749	-1.02522	1.01245
H	-3.14862	-2.99417	-0.328775
H	-1.42476	-3.52383	-0.452871
H	-2.13319	-2.43202	-1.71472
N	-0.514394	-0.991498	-0.107566
C	0.00198001	0.182116	0.551638
C	0.960014	0.875397	-0.398671
O	1.30517	0.337091	-1.44882
H	0.0583135	-1.36456	-0.831928
H	-0.811875	0.869125	0.747313
C	0.720611	-0.194494	1.86578
H	1.56223	-0.891012	1.66436
H	1.11067	0.702058	2.38978
H	0.00286952	-0.707478	2.54257
N	1.40765	2.09863	-0.0532042
C	2.3178	2.83677	-0.897571
H	1.11385	2.51954	0.798612
H	2.56827	3.81967	-0.441051
H	1.8637	3.02064	-1.8982
H	3.26404	2.26808	-1.04711
C	480.475	-3.28798	-0.837763
C	480.665	-2.07385	-0.0126946
O	481.335	-2.10253	1.01043
H	481.003	-4.14245	-0.361211
H	480.892	-3.12935	-1.85423
H	479.394	-3.53166	-0.916145
N	480.067	-0.961711	-0.446476
C	480.126	0.287121	0.271554
C	478.866	1.07222	-0.0418666
O	478.09	0.694519	-0.917629
H	479.492	-0.963708	-1.25912
H	480.125	0.0875961	1.33589
C	481.38	1.09469	-0.127241
H	481.376	1.30873	-1.21729
H	481.444	2.05228	0.429091
H	482.29	0.497867	0.103599
N	478.629	2.1866	0.677681
C	477.453	2.99467	0.453669
H	479.266	2.47391	1.3849
H	477.437	3.86671	1.14398
H	476.527	2.39735	0.623049
H	477.431	3.37542	-0.593087
