44
  This energy is 0 and Call times are: 207429
C	-0.0519077	2.04565	-2.81519
C	-0.362871	0.775709	-2.12115
O	-1.10584	-0.055417	-2.62477
H	-0.600173	2.0798	-3.78169
H	1.03763	2.11439	-3.01746
H	-0.36726	2.90926	-2.19245
N	0.207524	0.59671	-0.927422
C	-0.0335685	-0.568711	-0.113646
C	0.135421	-0.172957	1.34113
O	0.587038	0.929349	1.64556
H	0.777365	1.30024	-0.512454
H	-1.05976	-0.889123	-0.243661
C	0.940633	-1.70936	-0.481179
H	1.99328	-1.38464	-0.337903
H	0.755968	-2.61713	0.129051
H	0.805031	-1.97711	-1.55182
N	-0.23408	-1.06699	2.27932
C	-0.114805	-0.77627	3.68908
H	-0.601224	-1.9522	2.01345
H	-0.470213	-1.63566	4.29929
H	-0.720876	0.119026	3.95815
H	0.945936	-0.569015	3.9593
C	429.342	0.667965	2.99529
C	428.117	0.370499	2.21842
O	427.068	0.0793207	2.77672
H	429.124	0.560117	4.08004
H	429.677	1.70781	2.79777
H	430.151	-0.0400642	2.71938
N	428.227	0.436304	0.889503
C	427.134	0.131753	-0.000308883
C	427.715	-0.382947	-1.30385
O	428.924	-0.327099	-1.52006
H	429.098	0.63461	0.448651
H	426.539	-0.666611	0.425092
C	426.263	1.38182	-0.252004
H	426.871	2.19759	-0.698186
H	425.41	1.15689	-0.92474
H	425.855	1.74578	0.716191
N	426.861	-0.907504	-2.2049
C	427.323	-1.42705	-3.47086
H	425.887	-0.947738	-2.0102
H	426.471	-1.81426	-4.07175
H	428.048	-2.25888	-3.31322
H	427.835	-0.631115	-4.05933
