44
  This energy is 0 and Call times are: 205525
C	-1.57948	-0.413985	3.07352
C	-1.09392	0.433908	1.96157
O	-1.42005	1.60958	1.87299
H	-2.24916	0.185864	3.72743
H	-0.722894	-0.78141	3.67686
H	-2.1485	-1.27991	2.67419
N	-0.291311	-0.155715	1.07244
C	0.226006	0.528109	-0.086579
C	0.457164	-0.499757	-1.17819
O	0.364817	-1.70253	-0.94046
H	-0.0677827	-1.12419	1.1354
H	-0.518062	1.22489	-0.451941
C	1.54041	1.26619	0.249308
H	2.30749	0.5503	0.614196
H	1.94149	1.8081	-0.631593
H	1.34929	2.00753	1.05568
N	0.756987	-0.0458315	-2.41111
C	0.988171	-0.949577	-3.51382
H	0.823221	0.931141	-2.58492
H	1.22016	-0.38451	-4.44339
H	0.0879597	-1.5786	-3.7015
H	1.84364	-1.62825	-3.29309
C	294.486	-2.05464	-0.360604
C	293.636	-0.92294	-0.794832
O	294.019	-0.13525	-1.64887
H	295.452	-2.0207	-0.909975
H	293.981	-3.01869	-0.580627
H	294.689	-1.98437	0.728757
N	292.444	-0.814899	-0.20367
C	291.525	0.258206	-0.490034
C	290.683	0.5027	0.747993
O	290.732	-0.266971	1.70551
H	292.163	-1.43992	0.519086
H	292.084	1.16512	-0.684228
C	290.626	-0.0925161	-1.69582
H	290.044	-1.01702	-1.49293
H	289.923	0.731661	-1.93498
H	291.263	-0.275089	-2.58823
N	289.891	1.59292	0.760195
C	289.058	1.90971	1.89716
H	289.867	2.20613	-0.022424
H	288.483	2.84382	1.71491
H	289.679	2.05347	2.81087
H	288.336	1.08562	2.09702
