44
  This energy is 0 and Call times are: 201941
C	-2.604	-2.29263	0.275199
C	-1.54164	-1.61408	-0.500762
O	-1.20865	-2.01863	-1.60614
H	-2.97686	-3.16785	-0.299986
H	-3.44907	-1.59595	0.457509
H	-2.20088	-2.64683	1.24738
N	-0.975558	-0.549737	0.0729124
C	0.100679	0.187915	-0.540394
C	0.942454	0.801297	0.562661
O	0.568086	0.767519	1.73331
H	-1.22893	-0.257085	0.990531
H	0.736144	-0.496614	-1.08833
C	-0.447257	1.28628	-1.47774
H	-1.09075	1.99487	-0.913959
H	0.371876	1.85231	-1.96677
H	-1.06649	0.815403	-2.27221
N	2.11167	1.37267	0.212648
C	2.98161	1.97684	1.19466
H	2.39949	1.38655	-0.739211
H	3.89315	2.39145	0.710483
H	3.29886	1.22544	1.95362
H	2.45916	2.80494	1.72612
C	35.6276	0.299053	-3.46671
C	36.2142	-0.234169	-2.21663
O	37.0547	-1.12267	-2.24048
H	36.06	-0.242906	-4.3357
H	35.8581	1.38054	-3.56673
H	34.5266	0.154618	-3.46478
N	35.7741	0.305021	-1.07736
C	36.2194	-0.139071	0.219952
C	35.103	0.114273	1.21551
O	34.1097	0.764541	0.895872
H	35.0597	0.998951	-1.07221
H	36.3905	-1.20799	0.192291
C	37.5042	0.604213	0.646444
H	37.3263	1.70006	0.685185
H	37.865	0.261141	1.63776
H	38.305	0.41106	-0.100406
N	35.238	-0.404713	2.45181
C	34.2243	-0.220052	3.46397
H	36.0471	-0.931513	2.69041
H	34.519	-0.722001	4.41184
H	33.2518	-0.647799	3.12851
H	34.071	0.863307	3.67364
