44
  This energy is 0 and Call times are: 208969
C	3.3473	0.794414	0.526465
C	2.13979	-0.0139769	0.808554
O	2.20452	-1.03651	1.47687
H	4.2322	0.30709	0.990514
H	3.2337	1.81347	0.952327
H	3.51109	0.868103	-0.569361
N	0.992213	0.433965	0.293983
C	-0.258299	-0.267105	0.446554
C	-1.13054	0.0552107	-0.752137
O	-0.799872	0.924794	-1.556
H	0.962281	1.24576	-0.282183
H	-0.0735878	-1.33404	0.433505
C	-0.965065	0.144174	1.75673
H	-1.16426	1.237	1.76604
H	-1.92261	-0.399127	1.89256
H	-0.305481	-0.0934903	2.61976
N	-2.26899	-0.649572	-0.9046
C	-3.15911	-0.416239	-2.0179
H	-2.51755	-1.35202	-0.245924
H	-4.03901	-1.09476	-1.9668
H	-2.63445	-0.594859	-2.98439
H	-3.52643	0.635522	-2.01371
C	535.837	2.84835	0.727729
C	536.729	1.7372	1.12821
O	537.261	1.71794	2.22969
H	535.78	3.58986	1.55404
H	534.817	2.46365	0.519344
H	536.235	3.35069	-0.179185
N	536.917	0.772042	0.225136
C	537.792	-0.351474	0.453387
C	538.323	-0.817821	-0.888971
O	537.87	-0.363651	-1.93783
H	536.51	0.822323	-0.68234
H	538.641	-0.0291137	1.0422
C	537.042	-1.49779	1.16691
H	536.176	-1.83599	0.558332
H	537.708	-2.36344	1.36074
H	536.655	-1.13174	2.14302
N	539.309	-1.73605	-0.886322
C	539.881	-2.23498	-2.11537
H	539.666	-2.08865	-0.0274359
H	540.677	-2.98183	-1.90385
H	540.328	-1.4033	-2.70655
H	539.1	-2.72307	-2.74232
