44
  This energy is 0 and Call times are: 205749
C	0.142773	2.84659	-1.9973
C	-0.357003	2.10674	-0.816632
O	-0.971107	2.67709	0.0744263
H	-0.119106	3.92212	-1.89466
H	-0.323984	2.44985	-2.9233
H	1.24671	2.75087	-2.06977
N	-0.0979205	0.797481	-0.783374
C	-0.48247	-0.0468514	0.320159
C	0.505431	-1.19516	0.403746
O	1.33646	-1.37688	-0.483995
H	0.438595	0.355112	-1.49634
H	-0.404109	0.513912	1.24322
C	-1.91916	-0.581216	0.131418
H	-1.99747	-1.16547	-0.81015
H	-2.23204	-1.22158	0.981455
H	-2.62387	0.27628	0.0648051
N	0.442296	-1.99684	1.48511
C	1.34533	-3.11146	1.6535
H	-0.234362	-1.83137	2.19492
H	1.1347	-3.64799	2.60481
H	2.40252	-2.76057	1.67569
H	1.239	-3.83403	0.812233
C	311.112	-0.682996	-0.079253
C	309.856	-0.240674	-0.725982
O	309.863	0.28266	-1.83164
H	311.971	-0.441709	-0.742111
H	311.088	-1.77954	0.0932507
H	311.248	-0.159344	0.890457
N	308.73	-0.443023	-0.0370373
C	307.436	-0.0274575	-0.516638
C	306.555	0.256524	0.685403
O	306.926	-0.0346347	1.82089
H	308.744	-0.832939	0.879274
H	307.539	0.899461	-1.06684
C	306.801	-1.11798	-1.40738
H	306.685	-2.06608	-0.840222
H	305.81	-0.804215	-1.79419
H	307.467	-1.31517	-2.27619
N	305.363	0.843704	0.462114
C	304.46	1.1571	1.54506
H	305.082	1.0755	-0.46333
H	303.533	1.63612	1.15852
H	304.94	1.85595	2.26744
H	304.173	0.233156	2.09743
