44
  This energy is 0 and Call times are: 204125
C	1.15146	-2.25708	2.38588
C	1.36615	-1.14282	1.43537
O	2.40915	-0.503628	1.43448
H	2.04451	-2.35902	3.04006
H	1.00054	-3.20803	1.83301
H	0.262903	-2.05335	3.01996
N	0.364596	-0.880497	0.592481
C	0.408962	0.200224	-0.360742
C	-1.01284	0.662653	-0.617999
O	-1.97051	0.0278077	-0.18031
H	-0.494283	-1.38306	0.632721
H	0.946668	1.03528	0.070744
C	1.0777	-0.25243	-1.67723
H	0.520355	-1.10227	-2.12574
H	1.13038	0.574799	-2.41441
H	2.11412	-0.593979	-1.46385
N	-1.18328	1.79256	-1.33235
C	-2.49934	2.31222	-1.62235
H	-0.395982	2.29467	-1.67458
H	-2.42984	3.24776	-2.21997
H	-3.04878	2.5384	-0.67989
H	-3.09633	1.5702	-2.20041
C	193.213	-2.20424	2.2285
C	192.089	-1.33262	1.81817
O	191.016	-1.36361	2.40594
H	192.893	-2.83784	3.08406
H	194.08	-1.58717	2.5431
H	193.513	-2.86268	1.38645
N	192.313	-0.523603	0.780205
C	191.303	0.350884	0.238646
C	191.596	0.556112	-1.23567
O	192.647	0.152242	-1.73122
H	193.178	-0.539178	0.28624
H	190.337	-0.131842	0.311274
C	191.29	1.7048	0.981595
H	192.278	2.20531	0.898465
H	190.507	2.38194	0.582938
H	191.081	1.52974	2.0597
N	190.664	1.18606	-1.97676
C	190.853	1.42125	-3.38925
H	189.818	1.50195	-1.55873
H	189.975	1.95171	-3.82048
H	190.982	0.458034	-3.93393
H	191.76	2.04279	-3.56623
