44
  This energy is 0 and Call times are: 215101
C	-0.195843	-1.48996	-3.13916
C	0.428208	-1.33764	-1.80556
O	1.25329	-2.1431	-1.39706
H	0.195655	-2.41009	-3.62494
H	0.0476378	-0.614992	-3.77782
H	-1.29815	-1.5782	-3.03803
N	0.0389266	-0.283203	-1.08514
C	0.524924	-0.0256032	0.247534
C	-0.549783	0.731428	1.00481
O	-1.54399	1.16289	0.424202
H	-0.663844	0.340937	-1.41442
H	0.67822	-0.967109	0.760076
C	1.8361	0.789589	0.208631
H	1.67682	1.76014	-0.307802
H	2.22784	0.982556	1.22835
H	2.60562	0.22018	-0.357024
N	-0.377259	0.903597	2.33018
C	-1.34986	1.60647	3.13405
H	0.431785	0.543643	2.7829
H	-1.02822	1.64258	4.19822
H	-2.34065	1.09938	3.0844
H	-1.47844	2.65176	2.77075
C	973.31	0.0736149	2.52885
C	974.691	-0.155211	2.04696
O	975.617	-0.309863	2.83063
H	973.307	0.0911248	3.6404
H	972.643	-0.742715	2.18054
H	972.93	1.04699	2.15312
N	974.861	-0.179737	0.723001
C	976.152	-0.349525	0.104588
C	976.127	0.34765	-1.24258
O	975.075	0.784633	-1.7058
H	974.104	-0.0114662	0.0981047
H	976.905	0.142318	0.708167
C	976.489	-1.84696	-0.0669348
H	975.723	-2.34974	-0.694827
H	977.487	-1.991	-0.529456
H	976.494	-2.33853	0.930396
N	977.295	0.475683	-1.90251
C	977.369	1.12948	-3.1883
H	978.136	0.119264	-1.50963
H	978.414	1.13455	-3.56732
H	977.018	2.1843	-3.11334
H	976.728	0.604767	-3.93349
