44
  This energy is 0 and Call times are: 214485
C	0.666473	2.10054	2.69374
C	-0.249716	1.25403	1.89676
O	-1.35732	0.949775	2.31754
H	0.183295	2.35377	3.66239
H	0.891188	3.04074	2.14759
H	1.61262	1.55548	2.89577
N	0.201685	0.846799	0.708162
C	-0.557765	-0.0165655	-0.161549
C	0.41828	-0.823358	-0.997
O	1.62038	-0.565422	-0.985312
H	1.12137	1.06882	0.397097
H	-1.12548	-0.717407	0.437744
C	-1.49824	0.804928	-1.07034
H	-0.915387	1.5167	-1.693
H	-2.09862	0.150608	-1.73512
H	-2.19824	1.39331	-0.437763
N	-0.079213	-1.8315	-1.74008
C	0.774328	-2.657	-2.5624
H	-1.0542	-2.02752	-1.7333
H	0.178382	-3.43021	-3.09551
H	1.54038	-3.17289	-1.93927
H	1.30604	-2.03877	-3.32149
C	933.678	2.5819	-1.23826
C	932.425	1.79478	-1.21912
O	931.429	2.1755	-1.81909
H	933.523	3.50502	-1.83795
H	934.496	1.98799	-1.69777
H	933.966	2.86883	-0.20477
N	932.447	0.660873	-0.514732
C	931.292	-0.18934	-0.367318
C	931.407	-0.917495	0.958642
O	932.44	-0.859264	1.62164
H	933.252	0.384931	0.00184719
H	930.4	0.423733	-0.322493
C	931.197	-1.19834	-1.53274
H	932.107	-1.83461	-1.57267
H	930.304	-1.84963	-1.43801
H	931.122	-0.643472	-2.49337
N	930.336	-1.61821	1.38196
C	930.351	-2.33852	2.6338
H	929.507	-1.65011	0.833555
H	929.379	-2.8506	2.80453
H	930.535	-1.64339	3.48476
H	931.157	-3.10732	2.63529
