44
  This energy is 0 and Call times are: 214037
C	1.12106	3.14128	-0.994124
C	0.452192	1.84947	-1.26794
O	-0.173955	1.66774	-2.30299
H	0.931263	3.83934	-1.83826
H	2.21632	2.99094	-0.891432
H	0.720496	3.58926	-0.0603401
N	0.570671	0.908862	-0.327939
C	-0.0601772	-0.383302	-0.432357
C	-0.336916	-0.889305	0.970829
O	0.113891	-0.301992	1.95244
H	1.04913	1.08566	0.527451
H	-1.01556	-0.275187	-0.930542
C	0.840676	-1.37675	-1.19837
H	1.81695	-1.49606	-0.681946
H	0.360041	-2.37158	-1.2975
H	1.03656	-0.982397	-2.21938
N	-1.09751	-1.99441	1.09834
C	-1.41817	-2.54595	2.39417
H	-1.45665	-2.4534	0.292471
H	-2.05306	-3.45322	2.28924
H	-1.97032	-1.80139	3.01225
H	-0.489999	-2.82867	2.94162
C	897.828	-1.43272	2.56019
C	898.32	-1.40434	1.16446
O	898.158	-2.35856	0.416458
H	897.347	-2.41515	2.76036
H	897.079	-0.627975	2.71847
H	898.673	-1.29529	3.26697
N	898.945	-0.289838	0.778304
C	899.517	-0.130401	-0.535663
C	900.685	0.831952	-0.429831
O	900.897	1.45347	0.609683
H	899.106	0.462366	1.41096
H	899.912	-1.08124	-0.871247
C	898.465	0.401969	-1.53375
H	898.068	1.38245	-1.19534
H	898.89	0.515884	-2.55237
H	897.616	-0.313984	-1.58915
N	901.48	0.971224	-1.50887
C	902.619	1.86004	-1.49922
H	901.295	0.456713	-2.33961
H	903.145	1.83476	-2.47844
H	903.341	1.56407	-0.704578
H	902.297	2.90814	-1.30068
