44
  This energy is 0 and Call times are: 211853
C	3.16638	0.355872	1.40003
C	2.09168	0.791824	0.480194
O	2.1413	1.87709	-0.0820676
H	3.93467	1.15608	1.4727
H	3.64613	-0.569226	1.01692
H	2.75008	0.16448	2.41154
N	1.07794	-0.0593228	0.306205
C	-0.0612043	0.242372	-0.524389
C	-1.25775	-0.514303	0.0208339
O	-1.12028	-1.35673	0.905778
H	1.03164	-0.921543	0.80249
H	-0.286957	1.29892	-0.451068
C	0.206523	-0.153569	-1.99299
H	0.427807	-1.23944	-2.0701
H	-0.65808	0.0865108	-2.64518
H	1.09084	0.406105	-2.36862
N	-2.46897	-0.222879	-0.493029
C	-3.66545	-0.887995	-0.0323417
H	-2.56065	0.464749	-1.20565
H	-4.55937	-0.510534	-0.576083
H	-3.81785	-0.712135	1.05721
H	-3.59251	-1.9873	-0.197717
C	741.754	-1.59883	-2.40204
C	742.009	-0.483895	-1.46225
O	741.331	0.534184	-1.4894
H	740.914	-1.32568	-3.07694
H	741.48	-2.51717	-1.84119
H	742.658	-1.79627	-3.01559
N	743.011	-0.654371	-0.596855
C	743.406	0.358635	0.349879
C	744.885	0.184808	0.638942
O	745.496	-0.799762	0.227357
H	743.58	-1.4717	-0.614104
H	743.278	1.336	-0.0983385
C	742.583	0.247697	1.65209
H	742.723	-0.751095	2.11788
H	742.868	1.03106	2.38386
H	741.504	0.369989	1.41557
N	745.5	1.1488	1.35179
C	746.907	1.07178	1.67078
H	744.99	1.94	1.67266
H	747.225	1.9585	2.26211
H	747.519	1.03271	0.740692
H	747.125	0.156052	2.26651
