44
  This energy is 0 and Call times are: 211153
C	2.93775	-1.74002	0.674263
C	1.83249	-0.842518	1.07927
O	1.65681	-0.544347	2.25257
H	3.49883	-2.0627	1.57812
H	3.63239	-1.20752	-0.00885498
H	2.53306	-2.63869	0.162675
N	1.04872	-0.386732	0.0992957
C	-0.0923537	0.46036	0.342072
C	-1.10651	0.214845	-0.75918
O	-0.818297	-0.468469	-1.73986
H	1.17948	-0.671062	-0.846181
H	-0.556677	0.174721	1.27772
C	0.321848	1.94784	0.374943
H	0.788696	2.24413	-0.58854
H	-0.545819	2.60942	0.574929
H	1.07009	2.10268	1.18272
N	-2.32898	0.763879	-0.617176
C	-3.36037	0.579901	-1.61144
H	-2.54468	1.31025	0.185333
H	-4.29264	1.10839	-1.31344
H	-3.59575	-0.501731	-1.73772
H	-3.03092	0.978985	-2.59802
C	692.511	-3.19431	0.703835
C	692.431	-1.72032	0.813761
O	691.439	-1.17305	1.27549
H	691.564	-3.64242	1.07583
H	693.355	-3.57828	1.31495
H	692.657	-3.4916	-0.35603
N	693.492	-1.0344	0.381864
C	693.544	0.40637	0.384662
C	694.461	0.848544	-0.739791
O	695.138	0.029931	-1.35954
H	694.275	-1.49207	-0.0292318
H	692.558	0.800025	0.170387
C	694.056	0.937207	1.74163
H	695.071	0.542032	1.95702
H	694.087	2.04587	1.76119
H	693.374	0.594944	2.55047
N	694.499	2.16266	-1.03593
C	695.338	2.67539	-2.09371
H	693.941	2.80921	-0.525947
H	695.229	3.7788	-2.18229
H	695.063	2.21648	-3.0709
H	696.409	2.4436	-1.89297
