44
  This energy is 0 and Call times are: 202025
C	2.88877	-1.58843	-1.1156
C	1.75228	-0.660893	-1.31356
O	1.7109	0.0932103	-2.27586
H	3.62497	-1.44776	-1.93664
H	2.53168	-2.63964	-1.1293
H	3.38801	-1.38045	-0.145754
N	0.789811	-0.695791	-0.38899
C	-0.357236	0.176973	-0.422536
C	-0.826297	0.396622	1.0034
O	-0.35256	-0.257972	1.93011
H	0.857529	-1.28599	0.410351
H	-0.0611369	1.14107	-0.81683
C	-1.48979	-0.433023	-1.27721
H	-1.80117	-1.41729	-0.866977
H	-2.37352	0.235944	-1.32222
H	-1.12176	-0.59248	-2.31427
N	-1.7692	1.33615	1.21375
C	-2.27274	1.61857	2.53771
H	-2.13745	1.85843	0.451726
H	-3.04117	2.42203	2.50309
H	-1.44803	1.95107	3.20895
H	-2.73596	0.709124	2.98433
C	41.2561	3.21809	-1.24885
C	40.7574	1.85804	-0.944379
O	39.5662	1.58946	-1.01781
H	40.3977	3.87386	-1.51132
H	41.9586	3.18465	-2.10797
H	41.775	3.64248	-0.363583
N	41.6744	0.955787	-0.587411
C	41.3373	-0.396917	-0.219872
C	42.3868	-0.897885	0.754369
O	43.4057	-0.245414	0.97293
H	42.6352	1.20015	-0.492508
H	40.3872	-0.399663	0.299824
C	41.2758	-1.30803	-1.4654
H	42.2534	-1.31384	-1.99303
H	41.0035	-2.34935	-1.19707
H	40.5072	-0.91806	-2.16782
N	42.156	-2.07295	1.37241
C	43.0956	-2.62613	2.31967
H	41.3238	-2.58443	1.18562
H	42.7265	-3.59655	2.71875
H	43.2462	-1.92952	3.17603
H	44.0847	-2.79874	1.83703
