44
  This energy is -1.0761 and Call times are: 225379
C	0.713048	2.46997	2.34595
C	0.275799	2.0393	0.998927
O	-0.220999	2.83231	0.21106
H	0.494756	3.55244	2.47434
H	1.80494	2.30707	2.46416
H	0.167634	1.89838	3.12627
N	0.452338	0.749764	0.701772
C	0.0375386	0.173696	-0.553077
C	-0.282273	-1.29064	-0.318539
O	-0.0151277	-1.82971	0.753722
H	0.820452	0.107992	1.36847
H	-0.87514	0.654449	-0.882509
C	1.14363	0.322113	-1.62068
H	2.07696	-0.179991	-1.28779
H	0.830913	-0.105308	-2.59538
H	1.36695	1.40105	-1.77022
N	-0.873874	-1.96978	-1.32093
C	-1.22045	-3.36553	-1.18694
H	-1.08593	-1.51528	-2.17973
H	-1.69783	-3.74332	-2.11786
H	-1.93225	-3.51421	-0.342838
H	-0.31232	-3.97836	-0.984747
C	993.31	-1.11148	3.11265
C	994.384	-0.787182	2.14774
O	995.555	-0.734153	2.49842
H	993.754	-1.26038	4.12079
H	992.79	-2.04405	2.80757
H	992.576	-0.27925	3.16248
N	994.002	-0.557026	0.889341
C	994.928	-0.187884	-0.152511
C	994.182	0.65071	-1.17297
O	992.959	0.77056	-1.11678
H	993.042	-0.563673	0.627897
H	995.709	0.434138	0.267213
C	995.535	-1.44104	-0.820983
H	994.735	-2.07421	-1.26094
H	996.26	-1.16995	-1.61569
H	996.069	-2.04361	-0.0543573
N	994.907	1.26128	-2.13096
C	994.284	2.08401	-3.14141
H	995.895	1.1557	-2.15756
H	995.046	2.49753	-3.83729
H	993.738	2.93528	-2.67336
H	993.552	1.4901	-3.73564
