44
  This energy is 0 and Call times are: 205357
C	3.42378	-0.619419	-0.0819828
C	2.05902	-0.906389	0.414215
O	1.82095	-1.91475	1.06456
H	4.10509	-1.44474	0.218924
H	3.7971	0.331439	0.353044
H	3.4199	-0.542464	-1.18975
N	1.11664	-0.0107799	0.110586
C	-0.26562	-0.173727	0.486559
C	-1.12251	0.544582	-0.538784
O	-0.610871	1.26664	-1.39235
H	1.31748	0.784405	-0.454405
H	-0.525621	-1.22412	0.445254
C	-0.523366	0.392807	1.90001
H	-0.266751	1.47289	1.9401
H	-1.58124	0.260819	2.20662
H	0.119852	-0.141889	2.63262
N	-2.4555	0.354761	-0.482917
C	-3.34982	0.992711	-1.42068
H	-2.85052	-0.236422	0.212449
H	-4.40542	0.711904	-1.21071
H	-3.10708	0.68797	-2.46446
H	-3.26211	2.1014	-1.35548
C	280.738	-1.57254	2.92621
C	280.961	-0.64183	1.79708
O	281.913	0.126505	1.78904
H	281.531	-1.41991	3.69049
H	280.78	-2.62333	2.57003
H	279.748	-1.37914	3.39133
N	280.072	-0.690168	0.803023
C	280.132	0.183335	-0.342354
C	278.72	0.381918	-0.860808
O	277.787	-0.286509	-0.419464
H	279.279	-1.29219	0.84301
H	280.501	1.15309	-0.0329228
C	281.035	-0.413559	-1.44434
H	280.65	-1.40373	-1.76959
H	281.1	0.256264	-2.32612
H	282.06	-0.557698	-1.04041
N	278.529	1.31849	-1.81066
C	277.219	1.58137	-2.36004
H	279.295	1.85214	-2.15229
H	277.269	2.38549	-3.12697
H	276.515	1.90361	-1.55926
H	276.802	0.665523	-2.83832
