44
  This energy is 0 and Call times are: 214989
C	-2.78168	0.721937	-1.9631
C	-1.60668	-0.112215	-1.62439
O	-1.43618	-1.20637	-2.14417
H	-3.41521	0.182076	-2.70003
H	-2.45232	1.68399	-2.40889
H	-3.38318	0.923789	-1.05176
N	-0.757593	0.394876	-0.727575
C	0.407658	-0.317399	-0.265607
C	0.715855	0.14501	1.14604
O	0.122592	1.10263	1.63871
H	-0.931415	1.26886	-0.282818
H	0.183351	-1.37566	-0.216643
C	1.61466	-0.0620549	-1.19469
H	1.8518	1.02239	-1.23698
H	2.51452	-0.616125	-0.857375
H	1.36381	-0.400591	-2.22368
N	1.65216	-0.535232	1.83643
C	2.00787	-0.171207	3.18814
H	2.11843	-1.30992	1.42228
H	2.79547	-0.849707	3.58382
H	1.1205	-0.235668	3.85872
H	2.39355	0.873307	3.22535
C	969.461	-2.57162	-1.549
C	968.236	-2.02194	-0.92607
O	967.167	-2.61356	-1.00054
H	969.215	-3.52778	-2.06033
H	970.23	-2.76625	-0.772834
H	969.863	-1.85682	-2.29741
N	968.366	-0.855964	-0.288912
C	967.255	-0.175813	0.329385
C	967.543	1.31363	0.310702
O	968.647	1.7376	-0.0255648
H	969.233	-0.366365	-0.271933
H	966.362	-0.339326	-0.261388
C	967.044	-0.668333	1.77782
H	967.955	-0.491193	2.38706
H	966.182	-0.162042	2.26012
H	966.842	-1.76186	1.76795
N	966.546	2.14758	0.666227
C	966.725	3.58071	0.673317
H	965.658	1.78584	0.931307
H	965.791	4.09253	0.993916
H	966.995	3.94783	-0.343481
H	967.542	3.87102	1.37293
