44
  This energy is 0 and Call times are: 213281
C	-3.15529	-1.34337	0.593461
C	-1.93279	-0.639986	1.04279
O	-1.88277	-0.0930784	2.13586
H	-3.93847	-1.25603	1.3776
H	-2.93703	-2.41836	0.421686
H	-3.53496	-0.888789	-0.345846
N	-0.903375	-0.6372	0.192689
C	0.337371	0.0422373	0.471032
C	0.956692	0.456302	-0.850538
O	0.488983	0.0607512	-1.91661
H	-0.973277	-1.05158	-0.710235
H	0.131666	0.947494	1.02855
C	1.30205	-0.871331	1.25845
H	1.52172	-1.79537	0.682323
H	2.25581	-0.354802	1.49096
H	0.825099	-1.16838	2.21795
N	2.02615	1.27525	-0.810555
C	2.67833	1.72635	-2.01776
H	2.38768	1.58799	0.0615497
H	3.53617	2.3919	-1.77615
H	1.96609	2.29219	-2.66105
H	3.06076	0.860324	-2.60504
C	846.966	3.03097	1.15065
C	847.005	1.86348	0.241469
O	847.743	1.84479	-0.733573
H	847.667	3.8096	0.778721
H	847.274	2.72954	2.17394
H	845.941	3.45642	1.18354
N	846.194	0.847349	0.545434
C	846.089	-0.338281	-0.268096
C	844.693	-0.907424	-0.0968565
O	843.931	-0.46064	0.758642
H	845.569	0.89425	1.31929
H	846.201	-0.0673311	-1.3105
C	847.153	-1.38176	0.137796
H	847.031	-1.66792	1.20431
H	847.091	-2.29383	-0.490596
H	848.166	-0.941051	0.0120887
N	844.321	-1.90846	-0.91867
C	843.01	-2.5087	-0.833214
H	844.95	-2.2538	-1.60741
H	842.895	-3.31336	-1.59261
H	842.217	-1.74625	-1.00833
H	842.846	-2.95232	0.175441
