44
  This energy is 0 and Call times are: 205609
C	-2.7545	-1.79242	1.14571
C	-2.08882	-0.524514	0.770972
O	-2.72514	0.513462	0.652189
H	-3.84547	-1.61378	1.26294
H	-2.34667	-2.16915	2.10722
H	-2.5983	-2.55521	0.353976
N	-0.770109	-0.58311	0.571099
C	0.00889072	0.558328	0.160201
C	1.20321	0.0564469	-0.629279
O	1.46296	-1.1441	-0.683331
H	-0.272559	-1.44372	0.631583
H	-0.582844	1.17349	-0.506178
C	0.474259	1.37797	1.38366
H	1.09016	0.750215	2.06235
H	1.06344	2.26735	1.07969
H	-0.415697	1.72822	1.95081
N	1.95736	0.97048	-1.27102
C	3.11027	0.585781	-2.0514
H	1.72889	1.93699	-1.21881
H	3.59722	1.47939	-2.50036
H	2.81464	-0.103356	-2.87539
H	3.85878	0.0612191	-1.41445
C	298.77	2.17236	-2.49955
C	298.781	1.68938	-1.10034
O	299.615	2.0876	-0.299344
H	299.611	2.88491	-2.64831
H	297.815	2.69336	-2.71756
H	298.894	1.31942	-3.19971
N	297.838	0.803074	-0.771537
C	297.747	0.210299	0.539508
C	297.118	-1.16281	0.395013
O	296.635	-1.52492	-0.67627
H	297.191	0.457622	-1.44537
H	298.744	0.0683137	0.937563
C	296.906	1.09377	1.48709
H	295.88	1.23105	1.0844
H	296.84	0.654914	2.50373
H	297.38	2.09592	1.57162
N	297.117	-1.967	1.47635
C	296.546	-3.29292	1.43177
H	297.516	-1.65783	2.33329
H	296.643	-3.79611	2.41904
H	297.063	-3.91777	0.667871
H	295.465	-3.24662	1.16587
