44
  This energy is 0 and Call times are: 202081
C	-3.13854	0.255368	1.48225
C	-1.95967	-0.530721	1.0539
O	-1.80352	-1.68765	1.41934
H	-3.77073	-0.366451	2.15273
H	-3.73964	0.55612	0.598531
H	-2.81361	1.16253	2.03412
N	-1.08834	0.0925942	0.257254
C	0.127601	-0.527676	-0.206761
C	1.15555	0.563227	-0.440867
O	0.83673	1.74973	-0.393079
H	-1.2083	1.04763	0.0015635
H	0.516255	-1.1761	0.56856
C	-0.120856	-1.32532	-1.50571
H	-0.509625	-0.658499	-2.30461
H	0.804994	-1.81912	-1.86556
H	-0.881971	-2.11267	-1.31299
N	2.42379	0.183645	-0.692864
C	3.47098	1.1515	-0.922768
H	2.66327	-0.781129	-0.723431
H	4.44199	0.642898	-1.11164
H	3.59077	1.81817	-0.0381947
H	3.23099	1.78817	-1.80492
C	45.6495	3.46919	-0.273752
C	45.7419	2.1163	-0.867311
O	45.6694	1.94949	-2.07699
H	45.4966	4.21572	-1.08317
H	46.5869	3.71399	0.268526
H	44.7917	3.52079	0.429461
N	45.9045	1.10329	-0.0130567
C	45.968	-0.27321	-0.437056
C	45.4513	-1.14111	0.694933
O	45.2245	-0.660723	1.80375
H	45.9207	1.25081	0.971745
H	45.3063	-0.417592	-1.28204
C	47.4138	-0.670313	-0.807311
H	48.0911	-0.532363	0.062364
H	47.4736	-1.72409	-1.14865
H	47.7741	-0.017186	-1.63193
N	45.2443	-2.44746	0.436854
C	44.749	-3.34903	1.45077
H	45.4298	-2.81687	-0.467696
H	44.6454	-4.37922	1.04432
H	43.7519	-3.0158	1.81948
H	45.4448	-3.38323	2.32018
