44
  This energy is 0 and Call times are: 203229
C	-1.47176	0.0169451	-3.15378
C	-0.974773	0.709909	-1.94384
O	-0.856815	1.92715	-1.91504
H	-1.67307	0.766497	-3.94972
H	-2.41302	-0.525543	-2.92465
H	-0.710775	-0.702928	-3.52224
N	-0.665291	-0.0645823	-0.901364
C	-0.129214	0.460544	0.329662
C	0.732789	-0.613326	0.9663
O	0.745747	-1.75824	0.518289
H	-0.727876	-1.05714	-0.954025
H	0.515119	1.30227	0.10838
C	-1.26312	0.883997	1.28892
H	-1.91828	0.0184008	1.5246
H	-0.863071	1.3029	2.23497
H	-1.88567	1.66447	0.799378
N	1.48441	-0.263496	2.02871
C	2.33995	-1.21679	2.69614
H	1.46366	0.668852	2.37421
H	2.87567	-0.737532	3.54499
H	3.09796	-1.62622	1.98969
H	1.74319	-2.06914	3.09428
C	126.894	3.3704	-0.322964
C	127.879	2.27125	-0.205199
O	129.07	2.4646	-0.403942
H	127.42	4.3041	-0.619174
H	126.388	3.53659	0.651049
H	126.136	3.124	-1.09614
N	127.393	1.07219	0.124331
C	128.221	-0.102629	0.234537
C	127.368	-1.31496	-0.0873847
O	126.15	-1.21085	-0.218648
H	126.416	0.921581	0.24284
H	129.008	-0.0557581	-0.507851
C	128.821	-0.223738	1.65259
H	128.014	-0.28247	2.41372
H	129.472	-1.11701	1.74612
H	129.435	0.677616	1.86966
N	127.994	-2.49975	-0.231119
C	127.265	-3.70684	-0.543083
H	128.981	-2.56329	-0.125181
H	127.956	-4.57491	-0.620577
H	126.725	-3.6006	-1.51221
H	126.512	-3.9271	0.248351
