44
  This energy is -2.4642 and Call times are: 222165
C	2.68394	-2.04433	-0.854344
C	1.52749	-1.70277	0.0042077
O	1.09336	-2.49725	0.826864
H	3.02028	-3.0784	-0.62316
H	3.52279	-1.34245	-0.663472
H	2.39443	-1.99155	-1.92509
N	0.993397	-0.492196	-0.173624
C	-0.161675	-0.0332995	0.556979
C	-0.901772	0.968595	-0.309057
O	-0.407013	1.38315	-1.35552
H	1.33211	0.127784	-0.875597
H	-0.83048	-0.867512	0.728507
C	0.253824	0.612142	1.89713
H	0.931561	1.47455	1.72118
H	-0.627755	0.957094	2.47536
H	0.800591	-0.136481	2.5111
N	-2.1171	1.37664	0.106267
C	-2.89751	2.32382	-0.655317
H	-2.50252	1.02682	0.953702
H	-3.86605	2.53212	-0.149596
H	-3.11226	1.92681	-1.67392
H	-2.34694	3.28567	-0.76868
C	993.934	0.259083	-3.28026
C	993.651	0.841841	-1.94921
O	994.057	1.95533	-1.64654
H	994.547	0.97348	-3.87127
H	992.985	0.0659662	-3.82283
H	994.496	-0.691926	-3.17002
N	992.938	0.0870983	-1.11025
C	992.62	0.500365	0.233904
C	992.472	-0.744124	1.08882
O	992.459	-1.86193	0.576918
H	992.649	-0.833782	-1.35631
H	993.447	1.07197	0.636813
C	991.32	1.33436	0.261915
H	990.47	0.744735	-0.141564
H	991.072	1.67027	1.28962
H	991.449	2.23561	-0.376514
N	992.365	-0.577896	2.42184
C	992.226	-1.70421	3.31528
H	992.382	0.334246	2.8178
H	992.153	-1.36198	4.37112
H	993.103	-2.38579	3.22756
H	991.309	-2.28826	3.07167
