44
  This energy is -1.5651 and Call times are: 221022
C	-0.259802	-2.75175	2.11497
C	0.51546	-1.65505	1.49258
O	1.6343	-1.36448	1.89279
H	0.329764	-3.19103	2.94883
H	-0.46973	-3.5446	1.3666
H	-1.21794	-2.36181	2.51873
N	-0.0741609	-1.01004	0.483276
C	0.53736	0.106597	-0.193274
C	-0.567353	1.00224	-0.721459
O	-1.74209	0.641089	-0.685784
H	-1.00165	-1.23123	0.195689
H	1.10956	0.686628	0.520017
C	1.44177	-0.37623	-1.34834
H	0.853073	-0.962422	-2.0858
H	1.92933	0.473692	-1.86838
H	2.23791	-1.03623	-0.939789
N	-0.213955	2.20349	-1.21959
C	-1.19706	3.12509	-1.73953
H	0.741302	2.47968	-1.23619
H	-0.709622	4.05685	-2.1021
H	-1.93426	3.39941	-0.950498
H	-1.75445	2.66746	-2.58866
C	997.157	3.10625	-1.42568
C	996.871	2.24238	-0.258062
O	996.987	2.66385	0.884495
H	997.483	4.10791	-1.07046
H	996.244	3.22474	-2.04645
H	997.967	2.66193	-2.04135
N	996.488	0.991791	-0.524814
C	996.216	0.021473	0.506397
C	996.509	-1.35793	-0.0533394
O	996.747	-1.51476	-1.24929
H	996.438	0.651128	-1.45933
H	996.893	0.183086	1.33602
C	994.749	0.114219	0.978804
H	994.054	-0.061944	0.13016
H	994.531	-0.618613	1.78259
H	994.555	1.13417	1.377
N	996.505	-2.39534	0.806772
C	996.778	-3.7435	0.36607
H	996.314	-2.24799	1.77159
H	996.729	-4.45405	1.22044
H	997.793	-3.81055	-0.0876096
H	996.036	-4.06434	-0.400163
