44
  This energy is -2.3721 and Call times are: 225319
C	-2.47062	2.37661	0.600368
C	-1.59971	1.26283	1.0387
O	-1.50251	0.962703	2.2206
H	-2.94886	2.84093	1.49007
H	-3.26415	1.99793	-0.0775986
H	-1.87004	3.14694	0.0721639
N	-0.934323	0.616535	0.078512
C	-0.0162244	-0.46042	0.35387
C	1.03313	-0.479116	-0.741599
O	0.912572	0.22642	-1.7413
H	-0.992129	0.89883	-0.874817
H	0.495679	-0.26351	1.28758
C	-0.756903	-1.81416	0.417348
H	-1.27353	-2.02158	-0.543957
H	-0.0628247	-2.64967	0.642517
H	-1.52513	-1.77488	1.22024
N	2.09859	-1.28685	-0.573132
C	3.15021	-1.36664	-1.56001
H	2.18052	-1.84719	0.244418
H	3.93683	-2.08468	-1.23929
H	3.62525	-0.369972	-1.70923
H	2.74423	-1.70585	-2.54045
C	992.563	0.372672	-3.39146
C	992.961	-0.446814	-2.22477
O	993.024	-1.66618	-2.29959
H	992.34	-0.296071	-4.25094
H	993.388	1.05983	-3.67563
H	991.655	0.964775	-3.15125
N	993.241	0.217222	-1.1009
C	993.601	-0.44479	0.128217
C	993.165	0.435342	1.28461
O	992.759	1.5787	1.08739
H	993.146	1.20693	-1.044
H	993.053	-1.37525	0.206677
C	995.122	-0.705768	0.189321
H	995.685	0.249449	0.11947
H	995.41	-1.22755	1.12493
H	995.419	-1.34497	-0.67047
N	993.234	-0.0843692	2.5261
C	992.835	0.676924	3.68712
H	993.562	-1.01286	2.66525
H	992.964	0.0763786	4.61443
H	991.765	0.978497	3.61099
H	993.449	1.60207	3.78
