44
  This energy is 0 and Call times are: 203397
C	3.02178	1.42205	0.979423
C	1.66733	0.904996	1.27815
O	1.30038	0.719747	2.4303
H	3.57683	1.56951	1.9313
H	2.95167	2.39537	0.449813
H	3.5775	0.697081	0.348002
N	0.882644	0.654549	0.227475
C	-0.445205	0.108146	0.35717
C	-0.755855	-0.68316	-0.899367
O	-0.00631213	-0.6388	-1.87298
H	1.20992	0.771632	-0.705824
H	-0.466497	-0.585324	1.1886
C	-1.48615	1.23063	0.561389
H	-1.47205	1.93645	-0.296314
H	-2.5109	0.821765	0.676455
H	-1.23459	1.8014	1.48187
N	-1.87258	-1.43744	-0.903202
C	-2.24643	-2.22858	-2.05234
H	-2.46441	-1.46367	-0.104375
H	-3.19448	-2.77767	-1.86017
H	-1.45273	-2.97285	-2.29185
H	-2.39195	-1.57941	-2.94596
C	138.575	-3.15046	-0.960289
C	139.27	-1.87357	-1.23991
O	139.935	-1.72396	-2.2557
H	138.786	-3.87059	-1.78052
H	137.479	-2.98468	-0.900623
H	138.936	-3.58084	-0.00250244
N	139.13	-0.909542	-0.326978
C	139.78	0.372173	-0.438734
C	140.013	0.90806	0.961323
O	139.52	0.349653	1.93949
H	138.619	-1.06024	0.514521
H	140.752	0.24088	-0.899544
C	138.92	1.35779	-1.25964
H	137.928	1.50095	-0.781624
H	139.417	2.34418	-1.36459
H	138.756	0.941638	-2.27756
N	140.783	2.00674	1.09031
C	141.064	2.58508	2.38362
H	141.176	2.44215	0.287406
H	141.714	3.48198	2.28048
H	141.584	1.8489	3.03838
H	140.121	2.89176	2.89057
