44
  This energy is 0 and Call times are: 214905
C	1.7868	1.95184	-2.2606
C	0.912773	1.80076	-1.07553
O	0.687002	2.74478	-0.331044
H	2.16622	2.99579	-2.30645
H	1.21521	1.73617	-3.1877
H	2.65104	1.25819	-2.18963
N	0.39516	0.587292	-0.870733
C	-0.43866	0.275228	0.263251
C	-0.264454	-1.19649	0.587671
O	0.357929	-1.93891	-0.169411
H	0.621033	-0.18123	-1.46253
H	-0.0972235	0.837733	1.12327
C	-1.92007	0.591739	-0.037532
H	-2.27385	0.0069964	-0.913291
H	-2.57058	0.368713	0.832887
H	-2.02265	1.67204	-0.279979
N	-0.807234	-1.65267	1.73367
C	-0.687902	-3.03703	2.12799
H	-1.30371	-1.0358	2.33537
H	-1.19971	-3.21475	3.09943
H	0.383199	-3.32297	2.23872
H	-1.1461	-3.70458	1.36277
C	959.04	-2.07444	0.85724
C	959.706	-0.752782	0.831373
O	959.105	0.265291	1.14532
H	957.982	-1.94622	1.17238
H	959.551	-2.74641	1.57851
H	959.061	-2.53331	-0.153738
N	960.985	-0.740043	0.44745
C	961.753	0.47432	0.331148
C	962.814	0.262714	-0.732416
O	963.013	-0.852476	-1.21041
H	961.449	-1.57166	0.155646
H	961.108	1.27379	-0.0113327
C	962.406	0.845588	1.68074
H	963.076	0.0301922	2.02736
H	962.989	1.78642	1.60766
H	961.612	0.987835	2.44572
N	963.519	1.33844	-1.13563
C	964.545	1.2344	-2.14678
H	963.34	2.23334	-0.740066
H	965.008	2.22686	-2.34033
H	964.117	0.854939	-3.10295
H	965.345	0.530414	-1.82336
