44
  This energy is -3.9182 and Call times are: 221297
C	-2.18627	-1.41875	-2.30653
C	-0.995997	-0.606493	-1.96795
O	-0.199829	-0.260399	-2.82978
H	-2.18433	-1.63651	-3.39669
H	-3.11349	-0.863271	-2.05266
H	-2.16602	-2.37849	-1.74833
N	-0.845669	-0.281387	-0.681839
C	0.284564	0.468298	-0.192857
C	0.529219	0.0680173	1.24987
O	-0.275783	-0.639643	1.85229
H	-1.48027	-0.605078	0.0141307
H	1.1667	0.19384	-0.757786
C	0.0257379	1.98732	-0.296901
H	-0.873051	2.27104	0.291077
H	0.894312	2.57559	0.06371
H	-0.15858	2.25624	-1.35994
N	1.65905	0.508175	1.8379
C	1.97896	0.173485	3.20605
H	2.30026	1.07642	1.33291
H	2.9484	0.628964	3.50595
H	2.05655	-0.930725	3.33244
H	1.18801	0.545316	3.8969
C	992.36	-1.79751	-2.58101
C	992.33	-0.748843	-1.53672
O	991.419	0.0660543	-1.48395
H	991.477	-1.67945	-3.24555
H	992.326	-2.80408	-2.11365
H	993.283	-1.70411	-3.19068
N	993.345	-0.745646	-0.669553
C	993.476	0.239108	0.375218
C	994.953	0.412721	0.67858
O	995.789	-0.344858	0.190733
H	994.1	-1.38997	-0.750254
H	993.107	1.19168	0.0168316
C	992.711	-0.196693	1.64361
H	993.097	-1.16877	2.01774
H	992.793	0.559817	2.45075
H	991.634	-0.325389	1.39634
N	995.309	1.42736	1.4907
C	996.691	1.67336	1.83127
H	994.618	2.03228	1.87249
H	996.779	2.55105	2.5089
H	997.291	1.87667	0.914905
H	997.133	0.78859	2.34414
