44
  This energy is 0 and Call times are: 206561
C	2.96688	1.64866	-0.769557
C	1.58712	1.22641	-1.09985
O	0.994663	1.6957	-2.0617
H	3.30031	2.41782	-1.49969
H	3.65611	0.779828	-0.822897
H	2.99976	2.08417	0.251394
N	1.03589	0.316396	-0.293369
C	-0.314296	-0.160356	-0.461496
C	-0.844528	-0.569106	0.899876
O	-0.0993335	-0.620601	1.87648
H	1.5157	-0.0259255	0.509418
H	-0.937057	0.649609	-0.820322
C	-0.360096	-1.35355	-1.441
H	0.270281	-2.18877	-1.06808
H	-1.3962	-1.72089	-1.58955
H	0.0398352	-1.03372	-2.42797
N	-2.15606	-0.862993	0.997613
C	-2.75098	-1.25642	2.25358
H	-2.7439	-0.811613	0.197066
H	-3.83817	-1.45543	2.12852
H	-2.62713	-0.453109	3.01558
H	-2.26784	-2.18087	2.64487
C	362.327	-0.737255	0.436043
C	363.601	-0.141932	0.897871
O	363.638	0.594371	1.87402
H	361.499	-0.387988	1.09127
H	362.382	-1.84506	0.486085
H	362.115	-0.424655	-0.608156
N	364.691	-0.451759	0.192039
C	365.995	0.0844423	0.493369
C	366.793	0.140574	-0.795796
O	366.367	-0.3839	-1.82316
H	364.638	-1.0196	-0.62442
H	365.889	1.10081	0.851745
C	366.721	-0.786712	1.54188
H	366.839	-1.82693	1.17036
H	367.72	-0.376509	1.79264
H	366.115	-0.820091	2.47389
N	367.973	0.790257	-0.772829
C	368.799	0.899882	-1.95292
H	368.299	1.2118	0.0669886
H	369.728	1.47019	-1.73141
H	368.251	1.42557	-2.76818
H	369.087	-0.109458	-2.32591
