44
  This energy is 0 and Call times are: 202277
C	3.37272	0.550653	0.658944
C	1.94214	0.631562	1.03048
O	1.59894	0.932811	2.16532
H	3.99707	0.780537	1.54958
H	3.60265	1.28592	-0.140594
H	3.61822	-0.471884	0.302232
N	1.06183	0.357097	0.0650229
C	-0.362902	0.352418	0.285618
C	-0.989406	-0.625671	-0.690287
O	-0.323416	-1.12775	-1.59366
H	1.35708	0.0735346	-0.842881
H	-0.56855	-0.0120524	1.28437
C	-0.955793	1.76529	0.0919491
H	-0.754238	2.13537	-0.935892
H	-2.0502	1.7776	0.272622
H	-0.477244	2.4658	0.810718
N	-2.29239	-0.92672	-0.5241
C	-2.97235	-1.85143	-1.40089
H	-2.81364	-0.51345	0.215214
H	-4.03717	-1.96713	-1.10092
H	-2.48762	-2.85399	-1.36648
H	-2.9419	-1.48922	-2.45399
C	61.3154	-3.0661	-0.319623
C	61.1734	-1.62816	-0.641039
O	62.0538	-1.02267	-1.23653
H	62.3016	-3.42806	-0.683326
H	60.5126	-3.65041	-0.81644
H	61.2588	-3.22013	0.778622
N	60.0422	-1.04037	-0.244539
C	59.7785	0.362484	-0.447122
C	58.8537	0.834491	0.659019
O	58.3315	0.0307924	1.42912
H	59.3526	-1.53658	0.275221
H	60.7037	0.917139	-0.352665
C	59.1379	0.609282	-1.83061
H	58.1834	0.0488132	-1.92407
H	58.9428	1.68738	-2.00422
H	59.8284	0.249131	-2.62424
N	58.6356	2.15979	0.768728
C	57.7749	2.70186	1.79415
H	59.0704	2.79478	0.138773
H	57.724	3.81049	1.7193
H	58.1552	2.43609	2.80709
H	56.7422	2.29581	1.6956
