44
  This energy is -4.6024 and Call times are: 219785
C	0.382141	2.39893	-2.49235
C	0.647512	1.87942	-1.1319
O	1.50247	2.38409	-0.417222
H	1.07167	3.24503	-2.70338
H	-0.664697	2.76146	-2.56612
H	0.550852	1.60126	-3.24624
N	-0.0916231	0.839299	-0.739204
C	0.0806891	0.19761	0.54029
C	-0.333349	-1.25517	0.400403
O	-0.884146	-1.65735	-0.622625
H	-0.755301	0.413554	-1.3476
H	1.13	0.20967	0.807543
C	-0.763101	0.898871	1.62725
H	-1.8408	0.877496	1.35868
H	-0.628287	0.422558	2.61997
H	-0.448543	1.96239	1.70676
N	-0.0680072	-2.0829	1.4302
C	-0.420478	-3.48286	1.38491
H	0.382056	-1.73983	2.24801
H	-0.11978	-3.99473	2.32555
H	0.0884121	-3.98865	0.532572
H	-1.51976	-3.60737	1.25372
C	995.36	-0.365462	3.45473
C	995.774	-0.721822	2.07901
O	996.758	-1.4196	1.87486
H	996.076	-0.808988	4.18036
H	994.344	-0.762485	3.66356
H	995.358	0.737866	3.58018
N	995.02	-0.239677	1.0885
C	995.321	-0.464963	-0.303226
C	994.781	0.707424	-1.10006
O	994.061	1.55155	-0.56923
H	994.246	0.360679	1.26887
H	996.396	-0.478885	-0.438301
C	994.696	-1.78859	-0.795853
H	993.593	-1.77067	-0.667242
H	994.933	-1.98027	-1.86251
H	995.1	-2.63158	-0.193611
N	995.124	0.791155	-2.40041
C	994.662	1.87467	-3.23616
H	995.711	0.100708	-2.81105
H	995.052	1.76637	-4.2721
H	995.005	2.85524	-2.83326
H	993.549	1.88961	-3.28039
