44
  This energy is -4.2522 and Call times are: 219273
C	-1.93298	2.00526	-2.08691
C	-1.18922	0.757733	-1.80119
O	-1.28282	-0.217051	-2.53429
H	-2.5439	1.8665	-3.00529
H	-1.22448	2.84441	-2.24998
H	-2.60794	2.25089	-1.24004
N	-0.422535	0.760999	-0.708227
C	0.326894	-0.392538	-0.276637
C	0.474887	-0.323222	1.23162
O	0.139208	0.683995	1.85174
H	-0.388523	1.54815	-0.0990405
H	-0.235237	-1.28955	-0.50471
C	1.71352	-0.435138	-0.955382
H	2.29468	0.480069	-0.713124
H	2.29491	-1.32629	-0.641762
H	1.58098	-0.477543	-2.05855
N	0.976914	-1.40393	1.86096
C	1.14889	-1.43163	3.29478
H	1.23903	-2.21112	1.34249
H	1.57418	-2.40624	3.62109
H	0.172188	-1.28522	3.81043
H	1.83797	-0.620405	3.62375
C	993.118	0.992119	-2.9368
C	994.113	1.1952	-1.85997
O	994.972	2.06112	-1.94753
H	993.317	1.71086	-3.7612
H	992.092	1.16612	-2.54809
H	993.191	-0.0415883	-3.33572
N	994.017	0.384989	-0.803163
C	994.94	0.433211	0.303646
C	995.018	-0.952877	0.915455
O	994.241	-1.83979	0.566245
H	993.338	-0.341986	-0.764771
H	995.928	0.678709	-0.0653349
C	994.484	1.46558	1.35775
H	993.474	1.20828	1.7443
H	995.193	1.52206	2.20854
H	994.426	2.47085	0.886066
N	995.969	-1.17439	1.84336
C	996.122	-2.4636	2.47636
H	996.591	-0.44539	2.10989
H	996.959	-2.44506	3.20917
H	996.338	-3.25048	1.71778
H	995.19	-2.75005	3.01518
