44
  This energy is 0 and Call times are: 209277
C	-2.7777	-1.04361	1.81877
C	-2.12629	-0.636637	0.553391
O	-2.68974	-0.779212	-0.522999
H	-3.77608	-1.47826	1.59467
H	-2.9098	-0.162839	2.48174
H	-2.16145	-1.80768	2.33793
N	-0.902245	-0.1139	0.657435
C	-0.125183	0.28889	-0.488207
C	1.34386	0.149851	-0.135886
O	1.69481	-0.0909823	1.01761
H	-0.440334	-0.0420374	1.53683
H	-0.32496	-0.386526	-1.31072
C	-0.449998	1.744	-0.891192
H	-0.235248	2.43856	-0.0512531
H	0.131883	2.06137	-1.78069
H	-1.53145	1.82405	-1.13698
N	2.2416	0.291151	-1.13094
C	3.66082	0.170172	-0.891397
H	1.93814	0.481743	-2.05865
H	4.23274	0.318446	-1.83381
H	3.90638	-0.838692	-0.487455
H	4.00074	0.930443	-0.151412
C	558.001	2.19407	-2.10067
C	558.065	0.967459	-1.27456
O	557.055	0.332415	-1.00484
H	556.943	2.39749	-2.3746
H	558.594	2.06092	-3.03008
H	558.398	3.06055	-1.53058
N	559.276	0.603247	-0.845957
C	559.492	-0.542532	0.0019787
C	560.728	-0.282607	0.84219
O	561.45	0.687762	0.618267
H	560.084	1.15309	-1.03958
H	558.656	-0.64654	0.682045
C	559.669	-1.82573	-0.839051
H	560.534	-1.72354	-1.52945
H	559.823	-2.71728	-0.197081
H	558.756	-1.99183	-1.45163
N	560.998	-1.14573	1.84132
C	562.15	-0.975924	2.69665
H	560.401	-1.92273	2.00963
H	562.198	-1.78668	3.45663
H	562.102	0.00144075	3.2294
H	563.09	-0.998482	2.09932
