44
  This energy is 0 and Call times are: 210425
C	1.37629	1.76291	2.66658
C	0.478311	0.722306	2.11711
O	-0.0576606	-0.100678	2.84639
H	1.46078	1.63129	3.76722
H	0.965806	2.77279	2.45588
H	2.38696	1.67339	2.21533
N	0.293761	0.735537	0.794939
C	-0.517648	-0.239637	0.10995
C	0.0209223	-0.396935	-1.29957
O	0.883524	0.364603	-1.73281
H	0.769211	1.38629	0.209845
H	-0.416183	-1.19846	0.602902
C	-1.99814	0.198964	0.0781135
H	-2.10407	1.17756	-0.436822
H	-2.63548	-0.550327	-0.434602
H	-2.36885	0.315563	1.11991
N	-0.473391	-1.40171	-2.04931
C	-0.0170835	-1.63199	-3.40021
H	-1.16799	-2.01008	-1.67985
H	-0.54236	-2.50342	-3.84956
H	1.07793	-1.83688	-3.41536
H	-0.210075	-0.739065	-4.03785
C	643.943	2.65134	-0.228521
C	643.507	1.28	-0.57508
O	644.053	0.649047	-1.46964
H	644.774	2.95366	-0.902396
H	644.302	2.68486	0.821689
H	643.101	3.36417	-0.354211
N	642.493	0.781972	0.137121
C	641.93	-0.521604	-0.112038
C	640.472	-0.494729	0.306177
O	640.009	0.46767	0.915569
H	642.032	1.32311	0.834622
H	641.957	-0.725078	-1.17529
C	642.697	-1.61211	0.667621
H	642.661	-1.40955	1.75927
H	642.281	-2.62213	0.473235
H	643.763	-1.60828	0.351379
N	639.708	-1.55527	-0.0215204
C	638.308	-1.61581	0.329765
H	640.099	-2.32273	-0.518354
H	637.854	-2.56629	-0.0272216
H	637.751	-0.767066	-0.129004
H	638.177	-1.55768	1.43459
