44
  This energy is 0 and Call times are: 202669
C	-1.80093	-1.4341	2.61011
C	-0.811067	-1.51253	1.51231
O	-0.0872624	-2.48995	1.38128
H	-1.73306	-2.35295	3.23219
H	-2.82767	-1.35632	2.19479
H	-1.59339	-0.550699	3.25013
N	-0.75595	-0.464616	0.686958
C	0.185233	-0.376651	-0.401618
C	0.479604	1.08987	-0.655014
O	-0.173095	1.96902	-0.0957344
H	-1.32316	0.341262	0.830855
H	1.11574	-0.846415	-0.108175
C	-0.38005	-1.04333	-1.67489
H	-1.32921	-0.554886	-1.98239
H	0.34102	-0.994384	-2.51643
H	-0.595532	-2.11359	-1.464
N	1.48249	1.38869	-1.50411
C	1.83835	2.75643	-1.80213
H	2.00192	0.66351	-1.94385
H	2.68671	2.79447	-2.5205
H	2.14014	3.2948	-0.874573
H	0.974486	3.29859	-2.2504
C	90.7302	0.118479	-1.70782
C	89.5506	0.773983	-1.09948
O	89.5104	1.98666	-0.943913
H	91.4954	0.888459	-1.94735
H	90.4384	-0.401712	-2.6443
H	91.1683	-0.615239	-0.998773
N	88.5484	-0.0286687	-0.733971
C	87.3536	0.457593	-0.0899949
C	86.8036	-0.651985	0.786288
O	87.2706	-1.78803	0.731233
H	88.6128	-1.01789	-0.829558
H	87.6096	1.28501	0.559966
C	86.3028	0.894224	-1.13417
H	86.032	0.0429682	-1.79453
H	85.3834	1.28358	-0.650707
H	86.7296	1.70105	-1.76916
N	85.7965	-0.343727	1.62701
C	85.2133	-1.3332	2.50276
H	85.4347	0.582058	1.6602
H	84.4002	-0.885461	3.11577
H	85.9829	-1.75013	3.19207
H	84.7848	-2.17596	1.91344
