44
  This energy is 0 and Call times are: 211489
C	-3.0535	-0.197855	1.65822
C	-2.20766	-0.386061	0.458099
O	-2.61166	-1.01797	-0.508278
H	-4.02412	-0.718876	1.50885
H	-3.24745	0.882704	1.8241
H	-2.55048	-0.62432	2.55163
N	-0.992907	0.166511	0.49563
C	-0.0406676	0.0327636	-0.578573
C	1.35402	0.11559	0.0126521
O	1.52177	0.433722	1.18839
H	-0.663011	0.643054	1.30553
H	-0.143269	-0.947595	-1.02691
C	-0.245942	1.13716	-1.63848
H	-0.130363	2.14295	-1.18124
H	0.47238	1.03676	-2.4778
H	-1.27551	1.06244	-2.0517
N	2.39322	-0.179268	-0.793039
C	3.75596	-0.13294	-0.316602
H	2.23722	-0.438581	-1.7404
H	4.46567	-0.408317	-1.12759
H	3.90007	-0.841686	0.530856
H	4.01252	0.890278	0.0416495
C	720.685	-1.51698	0.950277
C	719.88	-0.320833	0.614536
O	720.305	0.807083	0.822845
H	721.648	-1.19626	1.40261
H	720.897	-2.10549	0.0329395
H	720.139	-2.15275	1.67936
N	718.677	-0.545558	0.0800705
C	717.763	0.516103	-0.259164
C	716.349	-0.023888	-0.148831
O	716.145	-1.22423	0.0222335
H	718.328	-1.46986	-0.0455814
H	717.86	1.316	0.464269
C	718.032	1.04111	-1.68645
H	717.922	0.223209	-2.4301
H	717.343	1.86835	-1.95435
H	719.074	1.42387	-1.7462
N	715.334	0.858242	-0.236477
C	713.956	0.437226	-0.137313
H	715.52	1.82609	-0.370856
H	713.271	1.30818	-0.233257
H	713.765	-0.0526683	0.844867
H	713.71	-0.293397	-0.941375
