44
  This energy is 0 and Call times are: 208605
C	2.68128	2.19325	0.336272
C	1.84608	1.07184	0.822089
O	2.20026	0.38255	1.76858
H	3.60984	2.25015	0.944889
H	2.129	3.15158	0.432849
H	2.95786	2.03177	-0.726989
N	0.699661	0.860429	0.171391
C	-0.197404	-0.219173	0.500469
C	-0.947622	-0.611181	-0.758522
O	-0.863092	0.0686902	-1.77947
H	0.444521	1.4042	-0.623021
H	0.379704	-1.08036	0.813416
C	-1.18518	0.203086	1.61008
H	-1.78486	1.08003	1.28544
H	-1.87231	-0.624184	1.88212
H	-0.614046	0.493242	2.5189
N	-1.69773	-1.72993	-0.716655
C	-2.44246	-2.1842	-1.86783
H	-1.75038	-2.26912	0.117358
H	-2.99513	-3.12076	-1.63413
H	-1.75833	-2.38528	-2.72387
H	-3.17938	-1.41274	-2.18868
C	511.369	1.81239	2.9527
C	510.923	0.758621	2.01345
O	510.068	-0.0552059	2.33453
H	510.826	1.69889	3.9163
H	511.15	2.81668	2.533
H	512.459	1.72066	3.14136
N	511.505	0.749673	0.812027
C	511.208	-0.240416	-0.192711
C	512.438	-0.417663	-1.06174
O	513.4	0.341102	-0.954186
H	512.229	1.39329	0.579849
H	511.013	-1.19067	0.288773
C	509.997	0.190228	-1.04973
H	510.2	1.15989	-1.55228
H	509.749	-0.570375	-1.81815
H	509.11	0.321704	-0.392212
N	512.44	-1.43681	-1.94342
C	513.569	-1.68649	-2.80832
H	511.654	-2.04261	-2.013
H	513.379	-2.56765	-3.45979
H	514.487	-1.88615	-2.20853
H	513.768	-0.804908	-3.45987
