44
  This energy is 0 and Call times are: 214541
C	2.80658	1.67343	1.19811
C	1.94992	0.470265	1.0997
O	2.33165	-0.614429	1.51699
H	3.77591	1.39679	1.66687
H	2.31185	2.44529	1.82437
H	3.0019	2.0879	0.186595
N	0.752759	0.638858	0.533343
C	-0.174015	-0.446367	0.328556
C	-1.02683	-0.117909	-0.882383
O	-0.97696	0.993921	-1.40494
H	0.472563	1.51925	0.1615
H	0.378147	-1.34915	0.0989343
C	-1.06149	-0.656578	1.57492
H	-1.63613	0.265938	1.80469
H	-1.77004	-1.49853	1.43489
H	-0.416033	-0.887804	2.45029
N	-1.82863	-1.08797	-1.36418
C	-2.67186	-0.868898	-2.51621
H	-1.8522	-1.98253	-0.930287
H	-3.25463	-1.78522	-2.75695
H	-2.05845	-0.599703	-3.40645
H	-3.38838	-0.0372121	-2.32639
C	936.358	1.13125	-3.22501
C	936.683	0.301402	-2.0433
O	937.541	-0.568622	-2.09788
H	936.985	0.808907	-4.08433
H	936.564	2.20077	-3.01031
H	935.287	1.00888	-3.49535
N	935.991	0.555699	-0.930502
C	936.165	-0.19679	0.286829
C	934.854	-0.173778	1.04911
O	933.928	0.550897	0.68843
H	935.267	1.23942	-0.913117
H	936.377	-1.22983	0.0409366
C	937.302	0.399655	1.1461
H	937.079	1.45625	1.40748
H	937.455	-0.179298	2.07981
H	938.25	0.379993	0.565588
N	934.741	-0.979002	2.12378
C	933.529	-1.02834	2.90744
H	935.499	-1.56123	2.39767
H	933.633	-1.74979	3.74763
H	932.666	-1.34592	2.27746
H	933.295	-0.025678	3.33291
