44
  This energy is 0.1908 and Call times are: 219242
C	3.06087	-1.38228	0.912705
C	2.15655	-0.224879	0.728978
O	2.44399	0.879293	1.1701
H	3.95268	-1.06285	1.49453
H	3.39446	-1.76767	-0.0736714
H	2.54001	-2.19051	1.46818
N	1.02272	-0.457431	0.0636006
C	0.0241349	0.558849	-0.156776
C	-1.32756	-0.121577	-0.263981
O	-1.41276	-1.3465	-0.327453
H	0.783779	-1.3707	-0.25376
H	-0.0127644	1.21585	0.703234
C	0.328937	1.36277	-1.43976
H	0.35647	0.690735	-2.32387
H	-0.4253	2.15753	-1.61298
H	1.32589	1.8454	-1.34228
N	-2.42315	0.66297	-0.278185
C	-3.75177	0.104287	-0.372146
H	-2.33421	1.6519	-0.221777
H	-4.51841	0.910184	-0.368685
H	-3.95378	-0.575293	0.487293
H	-3.8653	-0.483894	-1.31145
C	993.198	2.46419	2.05237
C	993.079	1.22404	1.25299
O	992.08	0.520841	1.32052
H	992.285	2.58931	2.67434
H	993.299	3.34339	1.38194
H	994.083	2.40522	2.72067
N	994.115	0.923139	0.466574
C	994.164	-0.272623	-0.337375
C	995.618	-0.66697	-0.510876
O	996.522	0.0828066	-0.1461
H	994.938	1.48379	0.453247
H	993.672	-1.07918	0.191849
C	993.498	-0.0410429	-1.71152
H	994.009	0.77927	-2.25927
H	993.517	-0.95858	-2.33465
H	992.436	0.254177	-1.56001
N	995.879	-1.86581	-1.06843
C	997.232	-2.3282	-1.26845
H	995.134	-2.46034	-1.35347
H	997.238	-3.33592	-1.73929
H	997.773	-2.39238	-0.296493
H	997.793	-1.62867	-1.9299
