44
  This energy is 0 and Call times are: 204041
C	-2.18045	2.4917	-1.07228
C	-1.10356	1.99501	-0.18641
O	-0.475217	2.75743	0.534921
H	-2.26748	3.59448	-0.9619
H	-3.14926	2.02526	-0.795564
H	-1.94505	2.254	-2.13114
N	-0.862023	0.682534	-0.224282
C	0.182943	0.0582365	0.548283
C	0.649849	-1.1769	-0.198702
O	0.040833	-1.5833	-1.18645
H	-1.35424	0.0807899	-0.84677
H	1.02771	0.732245	0.616951
C	-0.323753	-0.320335	1.95725
H	-1.18371	-1.02008	1.88754
H	0.475648	-0.789375	2.56674
H	-0.667625	0.597412	2.48245
N	1.75476	-1.80129	0.25445
C	2.27662	-2.9809	-0.395452
H	2.23628	-1.45506	1.05278
H	3.18915	-3.34574	0.125511
H	2.54226	-2.76067	-1.4548
H	1.5201	-3.79871	-0.392092
C	183.397	2.1236	-1.51573
C	184.456	1.09121	-1.579
O	184.699	0.49757	-2.62041
H	182.912	2.2147	-2.5123
H	183.835	3.10512	-1.23816
H	182.628	1.83766	-0.767417
N	185.117	0.849489	-0.44492
C	186.145	-0.156351	-0.339524
C	186.171	-0.657446	1.09218
O	185.515	-0.0963457	1.96794
H	184.88	1.31174	0.404611
H	185.887	-0.997523	-0.971012
C	187.522	0.418093	-0.737505
H	187.791	1.27443	-0.083137
H	188.319	-0.350497	-0.673792
H	187.477	0.785927	-1.78585
N	186.929	-1.73856	1.36246
C	187.011	-2.28992	2.69489
H	187.449	-2.18139	0.639741
H	187.683	-3.17589	2.71301
H	186.004	-2.60657	3.05189
H	187.409	-1.53327	3.40949
