44
  This energy is 0 and Call times are: 204797
C	2.72647	2.06935	0.62994
C	1.28206	1.75594	0.711105
O	0.530454	2.41326	1.41781
H	2.9538	2.92914	1.297
H	3.0015	2.33973	-0.411211
H	3.32692	1.19367	0.955112
N	0.856426	0.72476	-0.0222977
C	-0.512635	0.272919	-0.013938
C	-0.522387	-1.21241	-0.322595
O	0.5018	-1.78657	-0.687408
H	1.48754	0.17381	-0.560827
H	-0.924228	0.398591	0.979757
C	-1.35542	1.04703	-1.0511
H	-0.939752	0.909859	-2.0721
H	-2.41472	0.717848	-1.04467
H	-1.32751	2.1322	-0.810323
N	-1.68683	-1.87427	-0.174096
C	-1.7906	-3.29026	-0.43937
H	-2.50391	-1.39323	0.125996
H	-2.82793	-3.6491	-0.259355
H	-1.10139	-3.8651	0.220804
H	-1.52101	-3.51277	-1.49718
C	238.605	-3.3036	0.000212485
C	239.681	-2.28738	-0.0154346
O	240.851	-2.60118	0.158473
H	239.047	-4.3034	0.202732
H	238.09	-3.33077	-0.983032
H	237.868	-3.06833	0.796882
N	239.302	-1.02467	-0.225721
C	240.229	0.0793296	-0.225861
C	239.483	1.32415	0.215172
O	238.26	1.31347	0.341181
H	238.342	-0.779492	-0.324836
H	241.006	-0.106684	0.505063
C	240.843	0.284304	-1.62828
H	240.047	0.485619	-2.37663
H	241.569	1.12285	-1.63817
H	241.377	-0.641565	-1.93392
N	240.208	2.43105	0.469645
C	239.585	3.66091	0.899711
H	241.197	2.41903	0.365956
H	240.348	4.45451	1.05744
H	239.034	3.50873	1.85647
H	238.857	4.0206	0.136527
