44
  This energy is 0 and Call times are: 212245
C	-3.02445	1.70943	0.207893
C	-1.56064	1.62152	0.409566
O	-0.9014	2.60978	0.701367
H	-3.3517	2.76279	0.346485
H	-3.55161	1.06925	0.946148
H	-3.28943	1.38309	-0.819913
N	-1.01148	0.414714	0.253298
C	0.405842	0.1801	0.374607
C	0.766586	-1.002	-0.505194
O	-0.109186	-1.68297	-1.0353
H	-1.55512	-0.372168	-0.0244317
H	0.943989	1.04013	-0.00405201
C	0.795165	-0.0989518	1.84287
H	0.251269	-0.987483	2.22852
H	1.88618	-0.267524	1.95148
H	0.514832	0.77576	2.46948
N	2.07472	-1.26901	-0.688266
C	2.51313	-2.3704	-1.51344
H	2.76876	-0.704153	-0.254299
H	3.62381	-2.42472	-1.53919
H	2.14382	-2.25014	-2.55768
H	2.12368	-3.33664	-1.11866
C	771.043	-2.83594	-1.90765
C	771.06	-2.107	-0.619425
O	770.494	-2.55443	0.368395
H	770.45	-3.76904	-1.79404
H	772.078	-3.10263	-2.2098
H	770.578	-2.20805	-2.69666
N	771.72	-0.946322	-0.602769
C	771.787	-0.10344	0.56492
C	771.943	1.33321	0.102848
O	772.154	1.59506	-1.0797
H	772.141	-0.575428	-1.42558
H	770.852	-0.168577	1.10734
C	772.969	-0.511261	1.47177
H	773.93	-0.434498	0.918942
H	773.024	0.121503	2.38124
H	772.839	-1.56822	1.79139
N	771.832	2.30396	1.03097
C	771.96	3.70007	0.683478
H	771.657	2.07259	1.98218
H	771.837	4.34213	1.58349
H	771.185	3.99151	-0.0627947
H	772.961	3.90473	0.240002
