44
  This energy is 0 and Call times are: 204097
C	0.154033	-3.41759	-0.639537
C	-0.60207	-2.18	-0.343229
O	-1.82188	-2.1475	-0.429404
H	-0.555507	-4.21759	-0.943584
H	0.708355	-3.75258	0.262267
H	0.870833	-3.23888	-1.4686
N	0.119179	-1.11569	0.0165329
C	-0.471128	0.169976	0.294314
C	0.553503	1.24082	-0.0296863
O	1.71604	0.940587	-0.294421
H	1.11429	-1.14632	0.0425005
H	-1.31761	0.323979	-0.36325
C	-0.908477	0.2685	1.77224
H	-0.0385203	0.121058	2.44713
H	-1.37717	1.24885	1.99532
H	-1.6521	-0.529274	1.98888
N	0.140427	2.52354	-0.024299
C	1.04345	3.60973	-0.325823
H	-0.805194	2.7464	0.188319
H	0.515445	4.58714	-0.269973
H	1.46483	3.49711	-1.35102
H	1.89178	3.62752	0.396085
C	188.025	2.84354	-1.10575
C	189.236	1.9962	-1.01608
O	190.215	2.21445	-1.71661
H	188.181	3.62486	-1.88117
H	187.831	3.33824	-0.130863
H	187.146	2.22653	-1.38824
N	189.193	0.991749	-0.137631
C	190.277	0.0564647	0.0321369
C	189.694	-1.26334	0.500832
O	188.512	-1.34873	0.828343
H	188.374	0.801856	0.396184
H	190.749	-0.121484	-0.926236
C	191.308	0.586018	1.05305
H	190.827	0.758748	2.03932
H	192.155	-0.11897	1.18221
H	191.716	1.55607	0.693563
N	190.514	-2.33206	0.535643
C	190.047	-3.63018	0.962666
H	191.467	-2.24417	0.262899
H	190.869	-4.37774	0.921229
H	189.218	-3.98422	0.30745
H	189.665	-3.58604	2.00841
