44
  This energy is -1.8238 and Call times are: 223424
C	1.40988	2.19039	2.30806
C	1.25882	1.66742	0.931528
O	1.72866	2.26415	-0.0274199
H	1.9677	3.15149	2.27666
H	1.97523	1.46697	2.93239
H	0.411965	2.36872	2.76133
N	0.585684	0.521729	0.802504
C	0.320246	-0.0882146	-0.476586
C	-0.967382	-0.882466	-0.363747
O	-1.50438	-1.05972	0.728005
H	0.173944	0.069004	1.58824
H	0.157472	0.686888	-1.21507
C	1.48696	-1.00597	-0.902894
H	1.64752	-1.80762	-0.150818
H	1.30072	-1.47078	-1.89274
H	2.42021	-0.405379	-0.971318
N	-1.49982	-1.37498	-1.49952
C	-2.72586	-2.13848	-1.49055
H	-1.05288	-1.21759	-2.3739
H	-2.99986	-2.45454	-2.52121
H	-3.56327	-1.53192	-1.0757
H	-2.61592	-3.0512	-0.861271
C	994.499	-2.74756	1.96053
C	994.485	-1.29168	1.69334
O	994.815	-0.487104	2.5535
H	994.822	-2.92549	3.00912
H	995.208	-3.2559	1.27434
H	993.482	-3.17179	1.82124
N	994.093	-0.915829	0.473711
C	993.987	0.466769	0.0791146
C	992.914	0.572982	-0.988192
O	992.421	-0.43629	-1.48815
H	993.788	-1.58036	-0.202436
H	993.658	1.05585	0.926333
C	995.337	0.993027	-0.455814
H	995.669	0.395654	-1.33152
H	995.271	2.0606	-0.750025
H	996.108	0.898305	0.338991
N	992.519	1.80747	-1.35769
C	991.5	2.00657	-2.36182
H	992.927	2.61203	-0.938794
H	991.316	3.09123	-2.52553
H	990.542	1.53174	-2.04878
H	991.81	1.55305	-3.33119
