44
  This energy is 0 and Call times are: 206085
C	1.75574	2.63239	1.44933
C	0.509563	2.02853	0.926337
O	-0.577294	2.55785	1.11333
H	1.50785	3.56228	2.00587
H	2.43888	2.8862	0.611691
H	2.26348	1.92543	2.1389
N	0.642598	0.885467	0.249511
C	-0.48237	0.157649	-0.282736
C	-0.114622	-1.31345	-0.32955
O	1.03691	-1.68216	-0.106516
H	1.52945	0.445538	0.140745
H	-1.32414	0.258434	0.390987
C	-0.852814	0.668307	-1.69243
H	0.00704376	0.555382	-2.38664
H	-1.72642	0.125085	-2.10745
H	-1.11052	1.74844	-1.63551
N	-1.09407	-2.19404	-0.614614
C	-0.83925	-3.61444	-0.675748
H	-2.02056	-1.87689	-0.788118
H	-1.77013	-4.17068	-0.923299
H	-0.457655	-3.98748	0.30226
H	-0.0760287	-3.84369	-1.45426
C	331.327	-3.45928	-0.0841148
C	332.13	-2.23019	-0.271495
O	333.339	-2.28549	-0.454796
H	331.997	-4.34551	-0.123354
H	330.568	-3.54674	-0.889557
H	330.818	-3.43701	0.902532
N	331.465	-1.07365	-0.226425
C	332.116	0.206978	-0.34896
C	331.296	1.22919	0.415661
O	330.188	0.940469	0.86306
H	330.488	-1.04274	-0.03559
H	333.09	0.158752	0.120447
C	332.248	0.618767	-1.83155
H	331.248	0.678639	-2.3108
H	332.76	1.59685	-1.93984
H	332.845	-0.147379	-2.37324
N	331.83	2.45402	0.591177
C	331.125	3.48962	1.31054
H	332.73	2.6675	0.225296
H	331.729	4.42311	1.34747
H	330.914	3.16745	2.35589
H	330.154	3.71967	0.816873
