44
  This energy is -0.0445 and Call times are: 215325
C	-2.77246	-1.28327	-1.66714
C	-1.76227	-1.33536	-0.58643
O	-1.87547	-2.11574	0.34877
H	-3.5787	-2.01783	-1.45199
H	-2.30443	-1.53837	-2.64111
H	-3.21787	-0.267776	-1.72601
N	-0.735627	-0.488512	-0.692422
C	0.303257	-0.392368	0.302584
C	0.85029	1.02248	0.280038
O	0.521391	1.81085	-0.604281
H	-0.678616	0.169087	-1.4382
H	-0.125156	-0.556973	1.2834
C	1.429	-1.41265	0.0251521
H	1.87596	-1.23754	-0.97665
H	2.22835	-1.358	0.79234
H	1.00447	-2.44024	0.0385296
N	1.69768	1.381	1.26463
C	2.26442	2.708	1.32825
H	1.94876	0.730386	1.97367
H	2.93552	2.80716	2.20973
H	1.46053	3.47485	1.41177
H	2.8564	2.927	0.410232
C	987.645	-3.06278	-0.684078
C	988.79	-2.24851	-0.217464
O	989.746	-2.76424	0.344813
H	987.821	-4.12839	-0.420484
H	987.539	-2.97791	-1.78603
H	986.708	-2.7214	-0.195383
N	988.715	-0.93475	-0.442735
C	989.731	-0.00856895	-0.008749
C	989.072	1.33655	0.233463
O	987.905	1.53528	-0.0983255
H	987.911	-0.524581	-0.864978
H	990.139	-0.343048	0.937001
C	990.849	0.11864	-1.06613
H	990.433	0.471856	-2.03363
H	991.645	0.818547	-0.737561
H	991.312	-0.878725	-1.23317
N	989.809	2.29484	0.829718
C	989.265	3.60411	1.10559
H	990.75	2.11383	1.09461
H	990.024	4.24952	1.59922
H	988.379	3.528	1.77772
H	988.941	4.10174	0.162965
