44
  This energy is 0 and Call times are: 211909
C	3.44918	-0.399156	0.237722
C	2.09039	-0.428472	0.824221
O	1.88691	-0.919916	1.9258
H	4.16178	-0.887785	0.937241
H	3.77156	0.650163	0.0711584
H	3.46101	-0.947004	-0.728102
N	1.11391	0.104831	0.0863579
C	-0.265881	0.111532	0.504323
C	-1.13648	0.102758	-0.738071
O	-0.643288	0.256597	-1.85378
H	1.28835	0.464209	-0.825938
H	-0.477398	-0.797869	1.05285
C	-0.573396	1.35144	1.37225
H	-0.366583	2.28473	0.806347
H	-1.62937	1.36093	1.71188
H	0.0805464	1.34131	2.27147
N	-2.4603	-0.0873487	-0.572598
C	-3.36616	-0.116416	-1.69721
H	-2.84018	-0.2141	0.33773
H	-4.41147	-0.284061	-1.35596
H	-3.09186	-0.934992	-2.40145
H	-3.32979	0.846569	-2.2562
C	750.648	1.34363	-1.27052
C	749.18	1.15792	-1.30414
O	748.473	1.83692	-2.03561
H	750.931	2.16195	-1.96783
H	751.16	0.409888	-1.58607
H	750.976	1.61591	-0.245129
N	748.682	0.218593	-0.496653
C	747.27	-0.0483036	-0.387241
C	746.995	-0.580659	1.00667
O	747.92	-0.87207	1.76272
H	749.266	-0.297807	0.122953
H	746.722	0.879798	-0.491658
C	746.817	-1.0679	-1.4551
H	747.371	-2.02384	-1.34178
H	745.728	-1.27129	-1.39014
H	747.034	-0.660938	-2.46674
N	745.708	-0.712463	1.38369
C	745.351	-1.20584	2.69331
H	744.974	-0.467598	0.759424
H	744.246	-1.241	2.81222
H	745.768	-0.546624	3.48868
H	745.754	-2.2328	2.84973
