44
  This energy is -0.9746 and Call times are: 220958
C	-2.62504	1.48363	1.73801
C	-1.21091	1.43834	1.3029
O	-0.464671	2.39215	1.47549
H	-2.83879	2.47681	2.18945
H	-2.8177	0.695431	2.49588
H	-3.29817	1.332	0.867955
N	-0.80627	0.309214	0.716627
C	0.528621	0.131626	0.201762
C	0.464261	-0.854332	-0.949454
O	-0.56941	-1.47516	-1.1899
H	-1.43621	-0.443143	0.54631
H	0.885087	1.07242	-0.198826
C	1.48078	-0.383485	1.30326
H	1.12122	-1.35383	1.70721
H	2.51492	-0.511081	0.922755
H	1.50615	0.349728	2.13879
N	1.57349	-1.0153	-1.6976
C	1.60446	-1.92759	-2.81695
H	2.39902	-0.501019	-1.49003
H	2.60413	-1.91797	-3.30458
H	0.841078	-1.64295	-3.57689
H	1.38734	-2.9678	-2.48235
C	993.841	2.94036	1.63494
C	993.01	1.72276	1.50375
O	992.269	1.36143	2.40797
H	993.675	3.39236	2.63691
H	993.561	3.68047	0.855963
H	994.916	2.68263	1.53077
N	993.118	1.05127	0.354919
C	992.405	-0.174987	0.0971172
C	993.223	-1.0023	-0.876213
O	994.213	-0.526996	-1.42973
H	993.755	1.33518	-0.355541
H	992.326	-0.742425	1.01606
C	991.003	0.113527	-0.48293
H	991.083	0.686544	-1.4312
H	990.438	-0.822426	-0.672794
H	990.424	0.726619	0.242415
N	992.831	-2.27156	-1.10195
C	993.551	-3.13568	-2.00791
H	992.03	-2.63963	-0.641556
H	993.073	-4.13881	-2.05805
H	994.605	-3.26615	-1.67166
H	993.567	-2.70304	-3.03441
