44
  This energy is 0 and Call times are: 211769
C	-2.30205	-2.53179	0.635046
C	-1.0616	-2.02624	0.00509005
O	-0.261183	-2.789	-0.51831
H	-2.33064	-3.64005	0.552378
H	-3.19146	-2.11004	0.121422
H	-2.32782	-2.25077	1.70904
N	-0.871599	-0.705371	0.0447843
C	0.307805	-0.0697526	-0.487714
C	0.552824	1.20552	0.296633
O	-0.28149	1.62222	1.09788
H	-1.51219	-0.101458	0.510407
H	1.16324	-0.714756	-0.330136
C	0.135096	0.243355	-1.99017
H	-0.736052	0.913552	-2.15133
H	1.04191	0.720451	-2.41514
H	-0.0509797	-0.703115	-2.54327
N	1.71566	1.85399	0.0884464
C	2.03834	3.07255	0.793534
H	2.38006	1.49906	-0.560913
H	3.0372	3.45259	0.485186
H	2.05436	2.89731	1.89367
H	1.28161	3.86198	0.580689
C	736.302	-3.15669	0.440242
C	736.193	-1.68253	0.361904
O	735.103	-1.13059	0.303975
H	735.284	-3.60199	0.417321
H	736.803	-3.4537	1.38555
H	736.883	-3.54387	-0.423221
N	737.342	-1.00203	0.35606
C	737.398	0.433963	0.240672
C	738.71	0.803856	-0.425885
O	739.58	-0.0435587	-0.617594
H	738.222	-1.4675	0.362426
H	736.6	0.771735	-0.408469
C	737.288	1.10365	1.62798
H	738.113	0.76551	2.29092
H	737.316	2.20992	1.55123
H	736.324	0.812724	2.10048
N	738.879	2.08609	-0.804351
C	740.092	2.52953	-1.45086
H	738.162	2.75643	-0.644414
H	740.039	3.61582	-1.68409
H	740.255	1.97427	-2.40286
H	740.974	2.35461	-0.7935
