44
  This energy is 0 and Call times are: 201913
C	0.893493	2.72989	-1.96521
C	0.0280731	2.07754	-0.956929
O	-0.780111	2.72297	-0.303729
H	0.681577	3.8211	-1.9803
H	0.69028	2.31037	-2.9729
H	1.9629	2.57501	-1.70934
N	0.183276	0.760299	-0.804733
C	-0.556375	-0.00601653	0.166985
C	0.290622	-1.19693	0.574276
O	1.32959	-1.4655	-0.0258233
H	0.873944	0.255543	-1.3147
H	-0.712958	0.596551	1.053
C	-1.9079	-0.476172	-0.414015
H	-1.74741	-1.10312	-1.31691
H	-2.49294	-1.05562	0.329283
H	-2.50766	0.411255	-0.712545
N	-0.132907	-1.93805	1.61705
C	0.610637	-3.08673	2.07951
H	-0.97401	-1.70257	2.09262
H	0.100557	-3.5626	2.94588
H	1.63623	-2.78895	2.39694
H	0.706643	-3.84509	1.26907
C	32.1342	-2.43889	-1.92685
C	33.1572	-1.38602	-1.73695
O	34.0667	-1.23478	-2.54091
H	32.3635	-3.01129	-2.85183
H	31.1278	-1.98088	-2.0279
H	32.1376	-3.13614	-1.06261
N	33.0294	-0.62382	-0.648325
C	33.971	0.412857	-0.30594
C	33.9734	0.570076	1.20298
O	33.1384	-0.0061149	1.89755
H	32.3072	-0.785651	0.0181114
H	34.9661	0.102757	-0.599542
C	33.5958	1.74639	-0.988687
H	32.5791	2.07034	-0.679612
H	34.3211	2.54917	-0.743928
H	33.5924	1.60579	-2.09166
N	34.9247	1.35326	1.74851
C	35.0087	1.55761	3.17587
H	35.5942	1.80791	1.17044
H	35.8566	2.23219	3.42733
H	35.1638	0.588377	3.70296
H	34.0697	2.01497	3.5634
