44
  This energy is 0 and Call times are: 211209
C	-1.22657	0.924024	3.1232
C	-1.40085	0.688337	1.67227
O	-2.51307	0.668158	1.16337
H	-2.22439	1.04566	3.59801
H	-0.633137	1.84703	3.29242
H	-0.708552	0.0606989	3.59163
N	-0.285338	0.499453	0.963518
C	-0.296855	0.216294	-0.450075
C	0.93539	-0.605712	-0.777846
O	1.81836	-0.778545	0.0601336
H	0.610157	0.47802	1.39883
H	-1.16184	-0.391096	-0.685694
C	-0.311477	1.52235	-1.27424
H	0.581138	2.14099	-1.04067
H	-0.334419	1.31761	-2.36423
H	-1.21744	2.11143	-1.01238
N	1.0194	-1.14194	-2.01131
C	2.15235	-1.94346	-2.41153
H	0.292946	-0.994384	-2.6743
H	2.03554	-2.29324	-3.46093
H	2.2535	-2.83683	-1.75355
H	3.0952	-1.35424	-2.34101
C	699.736	-2.63019	-1.02539
C	699.235	-1.24328	-1.15423
O	699.786	-0.436663	-1.88992
H	700.638	-2.75521	-1.66203
H	698.959	-3.35022	-1.35808
H	700.008	-2.84214	0.0300375
N	698.16	-0.930543	-0.426532
C	697.583	0.390667	-0.41369
C	696.917	0.602759	0.932631
O	696.788	-0.328202	1.72544
H	697.746	-1.58614	0.1988
H	698.373	1.12619	-0.502134
C	696.558	0.556321	-1.55716
H	695.742	-0.191212	-1.4609
H	696.117	1.57409	-1.56644
H	697.066	0.388968	-2.53213
N	696.482	1.844	1.22654
C	695.841	2.14185	2.48597
H	696.598	2.58528	0.573837
H	695.556	3.21592	2.53814
H	696.524	1.91851	3.33718
H	694.919	1.52842	2.61269
