44
  This energy is 0 and Call times are: 205805
C	1.07778	2.62234	2.01852
C	0.0632194	1.62568	1.60805
O	-0.930144	1.41576	2.29038
H	0.777608	3.07367	2.98912
H	1.15447	3.42641	1.25673
H	2.06726	2.13327	2.14036
N	0.296858	0.977376	0.464598
C	-0.577112	-0.0509223	-0.0426875
C	0.255218	-1.01468	-0.86728
O	1.42556	-0.758688	-1.14383
H	1.13027	1.12984	-0.0588923
H	-0.990208	-0.610213	0.787479
C	-1.70727	0.559259	-0.900399
H	-1.28424	1.12432	-1.75818
H	-2.39504	-0.22128	-1.28543
H	-2.29825	1.26704	-0.279003
N	-0.331598	-2.15748	-1.27432
C	0.383871	-3.13689	-2.05857
H	-1.27829	-2.34879	-1.03715
H	-0.269458	-4.00587	-2.29365
H	1.27566	-3.50882	-1.50389
H	0.734727	-2.6921	-3.01784
C	313.214	1.11902	2.92729
C	313.013	0.102508	1.87008
O	313.759	-0.862093	1.76994
H	314.107	0.849479	3.53136
H	312.327	1.15723	3.59445
H	313.376	2.1184	2.47136
N	311.985	0.301613	1.04269
C	311.689	-0.577614	-0.0608923
C	311.003	0.235541	-1.14278
O	310.643	1.39148	-0.928863
H	311.411	1.11301	1.11148
H	312.615	-0.952502	-0.477423
C	310.786	-1.74645	0.391631
H	309.831	-1.36273	0.809348
H	310.563	-2.43819	-0.446204
H	311.305	-2.32278	1.1889
N	310.814	-0.351588	-2.34087
C	310.175	0.346487	-3.43222
H	311.116	-1.28634	-2.49613
H	310.113	-0.304152	-4.33221
H	310.749	1.26288	-3.70152
H	309.143	0.65583	-3.1504
