44
  This energy is 0 and Call times are: 207877
C	-2.44835	0.546487	-2.41239
C	-2.02932	0.279904	-1.01794
O	-2.82443	0.359976	-0.091763
H	-3.52466	0.824438	-2.4257
H	-2.3038	-0.360983	-3.03556
H	-1.8556	1.38422	-2.83658
N	-0.747677	-0.0464281	-0.835501
C	-0.182357	-0.292228	0.467785
C	1.29084	0.0668446	0.419701
O	1.84042	0.329879	-0.648236
H	-0.103164	-0.067547	-1.59446
H	-0.651019	0.36447	1.1901
C	-0.366498	-1.76937	0.879357
H	0.123181	-2.44307	0.144252
H	0.0524072	-1.96816	1.88709
H	-1.45141	-2.01203	0.900187
N	1.96612	0.0942623	1.58558
C	3.36978	0.430594	1.63838
H	1.50317	-0.117559	2.43991
H	3.74272	0.398545	2.68581
H	3.54371	1.45471	1.23562
H	3.96872	-0.285703	1.03065
C	458.851	3.36489	-0.26287
C	459.694	2.20204	-0.619407
O	460.49	2.2579	-1.54694
H	459.065	4.202	-0.962444
H	459.074	3.69634	0.77303
H	457.776	3.0964	-0.341443
N	459.534	1.10317	0.121671
C	460.253	-0.120873	-0.131273
C	459.396	-1.27915	0.343871
O	458.369	-1.07938	0.98987
H	458.853	1.05975	0.847237
H	460.392	-0.239278	-1.1986
C	461.615	-0.121186	0.59605
H	461.472	-0.010322	1.6921
H	462.184	-1.05265	0.397918
H	462.222	0.739143	0.238665
N	459.797	-2.52557	0.0251316
C	459.043	-3.68897	0.429395
H	460.629	-2.66692	-0.501757
H	459.534	-4.62037	0.0715181
H	458.011	-3.65355	0.00967132
H	458.962	-3.73901	1.53942
