44
  This energy is 0 and Call times are: 210033
C	3.30738	0.636308	0.876932
C	2.06693	0.969798	0.141264
O	1.93444	2.04865	-0.419922
H	4.00701	1.49883	0.827274
H	3.79646	-0.249868	0.420599
H	3.0752	0.422773	1.94163
N	1.11406	0.0347679	0.130015
C	-0.164214	0.230148	-0.507484
C	-1.19034	-0.617505	0.2206
O	-0.842947	-1.43489	1.07084
H	1.22046	-0.822342	0.625907
H	-0.463905	1.26488	-0.397312
C	-0.10132	-0.159418	-2.00064
H	0.195852	-1.2238	-2.11389
H	-1.07593	-0.000328489	-2.50597
H	0.661361	0.467817	-2.51176
N	-2.48818	-0.434629	-0.0927405
C	-3.53545	-1.19205	0.552033
H	-2.75	0.234393	-0.780444
H	-4.53323	-0.897236	0.158662
H	-3.52667	-1.01663	1.65223
H	-3.39711	-2.28328	0.375325
C	616.334	1.13521	-1.97106
C	614.914	0.763839	-1.78212
O	614.073	1.02222	-2.63267
H	616.45	1.66128	-2.94353
H	616.97	0.225151	-1.97676
H	616.665	1.81178	-1.15489
N	614.61	0.140393	-0.641304
C	613.264	-0.244749	-0.296209
C	613.146	-0.245935	1.21625
O	614.141	-0.111375	1.92603
H	615.298	-0.0264484	0.059364
H	612.572	0.497917	-0.673406
C	612.926	-1.63942	-0.866944
H	613.629	-2.40348	-0.472051
H	611.888	-1.94137	-0.619753
H	613.027	-1.61727	-1.97403
N	611.916	-0.390597	1.74691
C	611.705	-0.398261	3.17579
H	611.122	-0.494068	1.15628
H	610.626	-0.52769	3.41351
H	612.051	0.558747	3.62905
H	612.271	-1.23085	3.6522
