44
  This energy is -4.5577 and Call times are: 225182
C	-2.47891	1.54539	1.89195
C	-1.93145	1.06738	0.6024
O	-2.62436	1.03152	-0.40507
H	-3.54888	1.81622	1.75892
H	-1.92133	2.44189	2.23564
H	-2.40319	0.746498	2.6595
N	-0.653535	0.680993	0.606942
C	0.00650277	0.152115	-0.560618
C	1.09718	-0.795828	-0.0986857
O	1.40042	-0.875503	1.09019
H	-0.114155	0.677427	1.44415
H	-0.701494	-0.428153	-1.13912
C	0.604452	1.28858	-1.41861
H	1.33867	1.87768	-0.828764
H	1.10346	0.895065	-2.32782
H	-0.210228	1.97424	-1.73879
N	1.70992	-1.54749	-1.03441
C	2.75568	-2.48157	-0.687884
H	1.44792	-1.47197	-1.99082
H	3.1327	-3.00395	-1.59463
H	2.37675	-3.24826	0.0261641
H	3.6104	-1.95375	-0.206216
C	994.903	-3.39939	0.361444
C	994.915	-2.14656	-0.426849
O	995.526	-2.0699	-1.48394
H	995.521	-4.16495	-0.155746
H	993.865	-3.78084	0.457298
H	995.325	-3.21954	1.37256
N	994.231	-1.11907	0.0808529
C	994.185	0.176702	-0.549578
C	993.981	1.22159	0.53119
O	993.722	0.890323	1.68651
H	993.772	-1.18434	0.962633
H	995.14	0.379737	-1.01822
C	993.046	0.244178	-1.59018
H	992.065	0.0463549	-1.10795
H	993.009	1.23252	-2.09252
H	993.212	-0.534157	-2.36675
N	994.102	2.51684	0.179584
C	993.93	3.58049	1.14151
H	994.316	2.76505	-0.759342
H	994.07	4.5731	0.65934
H	994.671	3.48545	1.96858
H	992.91	3.54701	1.58646
