44
  This energy is 0 and Call times are: 214513
C	3.47661	0.125065	-0.100993
C	2.16806	-0.23971	-0.689011
O	2.07744	-0.609076	-1.85167
H	4.2689	0.0186823	-0.873547
H	3.71348	-0.545758	0.751434
H	3.45758	1.17787	0.251613
N	1.10738	-0.139951	0.115593
C	-0.236498	-0.418868	-0.325718
C	-1.19031	0.420901	0.502891
O	-0.789194	1.04983	1.48027
H	1.1916	0.20136	1.04741
H	-0.345585	-0.107739	-1.35719
C	-0.566216	-1.92015	-0.175131
H	-0.464683	-2.23743	0.884616
H	-1.59361	-2.15005	-0.524609
H	0.148972	-2.51579	-0.783467
N	-2.48286	0.45689	0.123373
C	-3.46202	1.23321	0.847765
H	-2.78764	-0.055433	-0.672684
H	-4.46651	1.13401	0.38044
H	-3.18271	2.31175	0.852611
H	-3.53164	0.889874	1.90532
C	935.864	-2.33931	-1.39913
C	934.507	-1.87155	-1.03898
O	933.509	-2.43295	-1.46951
H	935.782	-3.2076	-2.08853
H	936.414	-2.65444	-0.487872
H	936.426	-1.52792	-1.90809
N	934.439	-0.812679	-0.228644
C	933.19	-0.216566	0.17525
C	933.435	1.25605	0.445871
O	934.577	1.7111	0.468913
H	935.26	-0.34137	0.0806539
H	932.483	-0.281278	-0.642
C	932.628	-0.912532	1.43431
H	933.349	-0.837267	2.2761
H	931.66	-0.471596	1.74721
H	932.465	-1.99039	1.21569
N	932.359	2.04127	0.649959
C	932.493	3.45574	0.909344
H	931.442	1.65554	0.623374
H	931.495	3.92662	1.04979
H	933.004	3.96398	0.059643
H	933.097	3.63092	1.82945
