44
  This energy is 0 and Call times are: 215213
C	-2.68187	-2.00613	0.946402
C	-2.12195	-0.804353	0.288104
O	-2.81537	-0.0922169	-0.424953
H	-3.75126	-2.11554	0.66298
H	-2.61098	-1.90608	2.0499
H	-2.12939	-2.91291	0.62141
N	-0.831142	-0.550313	0.515362
C	-0.135074	0.557847	-0.0896429
C	1.32811	0.18045	-0.224581
O	1.76552	-0.842496	0.29884
H	-0.26954	-1.16204	1.06515
H	-0.520123	0.718937	-1.08885
C	-0.288027	1.83685	0.76241
H	0.116442	1.67543	1.78436
H	0.232	2.70069	0.299942
H	-1.3669	2.08965	0.854482
N	2.12156	0.999779	-0.942338
C	3.52592	0.718964	-1.12963
H	1.74846	1.82075	-1.36172
H	4.00582	1.50894	-1.74839
H	3.66573	-0.260556	-1.64176
H	4.05197	0.673812	-0.148627
C	984.533	-2.09168	-2.65404
C	983.697	-1.74071	-1.48412
O	982.656	-2.33813	-1.2481
H	984.046	-2.91614	-3.21918
H	985.537	-2.42859	-2.31974
H	984.642	-1.21267	-3.3237
N	984.141	-0.74446	-0.714464
C	983.415	-0.261325	0.433761
C	983.759	1.20331	0.628822
O	984.658	1.73136	-0.0231696
H	984.969	-0.240604	-0.94259
H	982.352	-0.31929	0.234873
C	983.775	-1.07487	1.69625
H	984.864	-1.00711	1.90676
H	983.212	-0.721429	2.58444
H	983.522	-2.14451	1.52799
N	983.041	1.89948	1.53173
C	983.293	3.29962	1.78104
H	982.315	1.4558	2.04666
H	982.599	3.69227	2.55648
H	983.152	3.89586	0.850463
H	984.338	3.45379	2.1351
