44
  This energy is 0 and Call times are: 208465
C	2.25195	-1.35179	-2.28344
C	1.55377	-1.36437	-0.978245
O	1.61009	-2.33786	-0.239621
H	2.76628	-2.32574	-2.43425
H	3.00799	-0.538966	-2.3052
H	1.5221	-1.1996	-3.10639
N	0.866517	-0.264286	-0.662224
C	0.101126	-0.144051	0.553622
C	-1.04649	0.814495	0.297239
O	-1.10426	1.46314	-0.745658
H	0.796442	0.50411	-1.29193
H	-0.330933	-1.10587	0.800338
C	0.984246	0.366432	1.71325
H	1.41928	1.35796	1.46497
H	0.409618	0.450064	2.65842
H	1.82177	-0.346161	1.8779
N	-1.99718	0.919813	1.24651
C	-3.12945	1.80238	1.08771
H	-1.93522	0.383712	2.08188
H	-3.79837	1.74739	1.97469
H	-3.72058	1.5244	0.185175
H	-2.79178	2.85725	0.967816
C	503.739	-2.13933	-1.83861
C	502.447	-1.45852	-1.59622
O	501.559	-1.4673	-2.43771
H	503.73	-2.5938	-2.85312
H	503.895	-2.94129	-1.08694
H	504.573	-1.40907	-1.77937
N	502.313	-0.840945	-0.420184
C	501.131	-0.0996639	-0.0575608
C	501.537	0.993113	0.913227
O	502.672	1.02629	1.38526
H	503.06	-0.807826	0.237942
H	500.728	0.38471	-0.938616
C	500.073	-1.02604	0.581554
H	500.482	-1.51511	1.49144
H	499.152	-0.469538	0.852541
H	499.797	-1.82248	-0.143436
N	500.615	1.92367	1.22874
C	500.912	3.00431	2.13971
H	499.703	1.88241	0.833423
H	500.026	3.66381	2.27033
H	501.755	3.62231	1.75405
H	501.204	2.60709	3.13875
