44
  This energy is 0 and Call times are: 202473
C	-2.88002	1.89059	-0.49379
C	-1.48227	1.53407	-0.825948
O	-0.942345	1.96377	-1.83602
H	-3.29056	2.54829	-1.29052
H	-2.91692	2.43291	0.47434
H	-3.5034	0.974006	-0.427795
N	-0.856649	0.72416	0.0313885
C	0.490371	0.255137	-0.178647
C	0.631777	-1.09548	0.497651
O	-0.255716	-1.52924	1.22972
H	-1.32278	0.349782	0.827898
H	0.654906	0.104112	-1.23825
C	1.51848	1.25659	0.391723
H	1.35678	1.40384	1.48085
H	2.5599	0.913391	0.223886
H	1.39142	2.23979	-0.111802
N	1.75597	-1.79939	0.259464
C	1.97588	-3.09679	0.854935
H	2.46096	-1.4336	-0.339071
H	2.95691	-3.51399	0.537532
H	1.17634	-3.80991	0.549207
H	1.96816	-3.02541	1.96668
C	71.7285	1.74373	2.27713
C	72.2103	0.484015	1.66706
O	71.9581	-0.601034	2.17253
H	71.1647	1.50973	3.20626
H	71.0556	2.277	1.57315
H	72.5883	2.398	2.5336
N	72.9288	0.603324	0.548229
C	73.5018	-0.528791	-0.136297
C	74.7513	-0.0617709	-0.859029
O	75.0254	1.13444	-0.934075
H	73.1604	1.49565	0.171413
H	73.8082	-1.26909	0.592184
C	72.4937	-1.1373	-1.13566
H	72.1871	-0.381198	-1.88954
H	72.9183	-2.01836	-1.65911
H	71.5843	-1.46479	-0.586057
N	75.5471	-1.00294	-1.40392
C	76.7598	-0.653231	-2.10617
H	75.3107	-1.96606	-1.32925
H	77.2747	-1.56552	-2.48011
H	77.4597	-0.106738	-1.43326
H	76.5342	0.00407573	-2.97691
