44
  This energy is 0.1292 and Call times are: 225350
C	-2.76266	-2.07027	0.440877
C	-2.14701	-0.788796	0.0286425
O	-2.78643	0.050415	-0.590448
H	-3.81496	-2.10381	0.0839176
H	-2.75555	-2.15976	1.54753
H	-2.20553	-2.92252	-0.00227034
N	-0.868223	-0.608731	0.367252
C	-0.121218	0.568137	-0.00088637
C	1.3416	0.182923	-0.116377
O	1.73205	-0.924198	0.249055
H	-0.349233	-1.31818	0.835436
H	-0.444169	0.905083	-0.978026
C	-0.305125	1.6883	1.04633
H	0.0358606	1.3467	2.04687
H	0.254109	2.60471	0.767102
H	-1.38366	1.94849	1.11985
N	2.18815	1.09183	-0.639128
C	3.59678	0.812074	-0.792987
H	1.85273	1.98078	-0.932951
H	4.12409	1.68308	-1.24078
H	3.75196	-0.0700637	-1.45558
H	4.06327	0.588956	0.193798
C	995.05	-2.90392	-1.74338
C	995.324	-1.89685	-0.693573
O	996.186	-2.08439	0.154279
H	995.717	-3.78113	-1.59341
H	995.245	-2.47237	-2.74769
H	993.994	-3.24079	-1.6844
N	994.581	-0.787863	-0.727063
C	994.702	0.262649	0.252937
C	993.358	0.954867	0.372401
O	992.448	0.703976	-0.41575
H	993.856	-0.667675	-1.39876
H	994.927	-0.173456	1.2182
C	995.797	1.27312	-0.153529
H	995.561	1.72861	-1.13888
H	995.909	2.0794	0.600028
H	996.771	0.743277	-0.242761
N	993.198	1.84238	1.37383
C	991.952	2.54561	1.56913
H	993.944	2.02905	2.00401
H	992.019	3.22986	2.44349
H	991.119	1.82721	1.7496
H	991.696	3.15054	0.669085
