44
  This energy is -3.0897 and Call times are: 224857
C	2.64679	-1.89613	-1.22958
C	1.27771	-1.3441	-1.33923
O	0.648595	-1.41492	-2.38594
H	2.9495	-2.3249	-2.20958
H	2.67581	-2.69795	-0.462133
H	3.36206	-1.09326	-0.952279
N	0.779609	-0.770122	-0.241583
C	-0.521753	-0.150629	-0.206297
C	-0.49288	0.951401	0.835937
O	0.468483	1.0783	1.59184
H	1.31941	-0.683752	0.590896
H	-0.721585	0.315442	-1.1631
C	-1.61678	-1.18623	0.130875
H	-1.41795	-1.65707	1.11719
H	-2.62513	-0.724195	0.147408
H	-1.61438	-1.98719	-0.640364
N	-1.55046	1.78455	0.894448
C	-1.60891	2.86587	1.85022
H	-2.31711	1.66845	0.271679
H	-2.55705	3.43699	1.74039
H	-0.75725	3.56849	1.70096
H	-1.55432	2.47348	2.89147
C	994.32	2.738	-2.13717
C	993.929	2.11597	-0.852177
O	993.575	2.79819	0.0993949
H	994.247	3.84363	-2.0474
H	993.644	2.39762	-2.94883
H	995.367	2.46673	-2.39072
N	993.988	0.783418	-0.795624
C	993.68	0.0381104	0.399322
C	994.481	-1.24989	0.37349
O	995.106	-1.58281	-0.6317
H	994.318	0.2442	-1.56538
H	994.003	0.601879	1.26545
C	992.168	-0.266219	0.484842
H	991.838	-0.853636	-0.398305
H	991.916	-0.827792	1.4076
H	991.601	0.690246	0.494411
N	994.488	-2.00459	1.48991
C	995.226	-3.24378	1.56018
H	993.979	-1.71655	2.29465
H	995.107	-3.71659	2.5599
H	996.312	-3.06449	1.3846
H	994.866	-3.96082	0.787663
