44
  This energy is 0 and Call times are: 214933
C	-1.24848	-2.97023	1.31595
C	-1.36161	-1.78584	0.435297
O	-2.24603	-1.70469	-0.405905
H	-2.04764	-3.69828	1.05681
H	-1.36665	-2.6699	2.3783
H	-0.260115	-3.4571	1.17742
N	-0.450412	-0.826119	0.611471
C	-0.405322	0.365965	-0.198135
C	1.03251	0.846877	-0.252214
O	1.8937	0.339294	0.463619
H	0.287959	-0.924887	1.27247
H	-0.702034	0.121663	-1.21051
C	-1.32191	1.46379	0.384859
H	-1.01138	1.72228	1.41965
H	-1.30657	2.38203	-0.23734
H	-2.36743	1.0872	0.422473
N	1.32802	1.83882	-1.11521
C	2.67028	2.35746	-1.2398
H	0.618428	2.23407	-1.68908
H	2.70972	3.16775	-2.00078
H	3.37547	1.55208	-1.54856
H	3.02344	2.7716	-0.267733
C	963.415	3.46733	0.0962059
C	963.217	2.16149	-0.57211
O	962.519	2.06161	-1.57209
H	962.836	4.24779	-0.44347
H	964.49	3.74446	0.0834593
H	963.059	3.41752	1.14677
N	963.836	1.1137	-0.0227477
C	963.703	-0.227649	-0.534452
C	963.889	-1.19462	0.619675
O	964.271	-0.797379	1.71892
H	964.367	1.2037	0.814888
H	962.699	-0.367728	-0.914116
C	964.744	-0.500561	-1.64243
H	965.775	-0.367255	-1.25063
H	964.643	-1.52566	-2.05421
H	964.594	0.223527	-2.47288
N	963.613	-2.49474	0.396681
C	963.756	-3.48679	1.43676
H	963.302	-2.79639	-0.498329
H	963.481	-4.49596	1.05784
H	963.096	-3.24615	2.30196
H	964.807	-3.52362	1.80364
