44
  This energy is 0 and Call times are: 209249
C	1.62602	-0.770261	-2.97917
C	0.432195	-0.332015	-2.22163
O	-0.545063	0.131545	-2.79302
H	1.46139	-0.585784	-4.06302
H	1.80204	-1.85518	-2.82195
H	2.51949	-0.199404	-2.64913
N	0.487739	-0.469669	-0.894853
C	-0.578541	-0.0483071	-0.0207469
C	0.0271567	0.320733	1.32033
O	1.20795	0.0811795	1.56539
H	1.30609	-0.81063	-0.441066
H	-1.03875	0.845267	-0.423689
C	-1.62803	-1.16858	0.14899
H	-1.1585	-2.08207	0.5722
H	-2.46136	-0.851404	0.808899
H	-2.05208	-1.42796	-0.845618
N	-0.771588	0.924489	2.22228
C	-0.281384	1.31712	3.52294
H	-1.72326	1.11371	2.00413
H	-1.08842	1.79768	4.11875
H	0.559487	2.04124	3.42361
H	0.0907373	0.43116	4.08662
C	557.051	-3.25515	1.04641
C	556.962	-2.16452	0.0495147
O	556.578	-2.37991	-1.09182
H	556.743	-4.21229	0.572068
H	556.377	-3.04587	1.90365
H	558.094	-3.35481	1.41259
N	557.323	-0.94881	0.46609
C	557.332	0.203281	-0.400613
C	558.392	1.16524	0.101328
O	558.953	0.977428	1.17899
H	557.673	-0.796827	1.3863
H	557.62	-0.102514	-1.3986
C	555.947	0.887006	-0.422536
H	555.655	1.21034	0.599457
H	555.937	1.7675	-1.09718
H	555.186	0.162441	-0.785375
N	558.698	2.22083	-0.67844
C	559.698	3.18601	-0.285579
H	558.236	2.35368	-1.54901
H	559.806	3.97806	-1.05911
H	560.688	2.69279	-0.149222
H	559.419	3.67165	0.67738
