44
  This energy is 0.1217 and Call times are: 217756
C	-2.89598	1.61658	-1.05482
C	-1.50854	1.63287	-0.539177
O	-0.860329	2.6695	-0.498967
H	-3.17903	2.6413	-1.37996
H	-3.59612	1.28578	-0.259127
H	-2.97321	0.929644	-1.92387
N	-1.01424	0.462615	-0.128634
C	0.334532	0.312169	0.357929
C	0.788182	-1.10527	0.0635866
O	-0.00628504	-1.94781	-0.349508
H	-1.53978	-0.379842	-0.205725
H	0.988186	0.980188	-0.188988
C	0.409844	0.601157	1.8732
H	-0.252553	-0.0908611	2.43568
H	1.44583	0.502146	2.2572
H	0.0658497	1.64078	2.06608
N	2.08795	-1.39993	0.263065
C	2.6118	-2.72095	0.004866
H	2.71637	-0.703694	0.593847
H	3.70043	-2.76309	0.229215
H	2.46302	-3.00063	-1.06327
H	2.094	-3.47933	0.635654
C	996.361	-3.11451	0.360429
C	996.09	-1.73587	0.826228
O	996.405	-1.37448	1.95163
H	996.844	-3.69046	1.17929
H	997.042	-3.09527	-0.516057
H	995.411	-3.61718	0.0794036
N	995.486	-0.923186	-0.044391
C	995.119	0.432978	0.278675
C	993.91	0.807636	-0.558048
O	993.515	0.0703132	-1.45906
H	995.199	-1.24393	-0.942442
H	994.82	0.484111	1.31823
C	996.289	1.40217	0.00342669
H	996.59	1.35783	-1.06523
H	996.024	2.4478	0.261321
H	997.165	1.1043	0.620211
N	993.287	1.96732	-0.27145
C	992.125	2.40356	-1.01059
H	993.619	2.54856	0.463988
H	991.757	3.37994	-0.62493
H	991.301	1.65907	-0.922256
H	992.368	2.52243	-2.09121
