44
  This energy is 0 and Call times are: 204909
C	-1.30153	-2.61632	1.8904
C	-0.384899	-1.46784	1.71172
O	0.238038	-1.00227	2.65597
H	-1.31098	-2.9156	2.96101
H	-0.959191	-3.47786	1.27942
H	-2.33185	-2.33443	1.58696
N	-0.28305	-0.976737	0.474454
C	0.535467	0.16565	0.152674
C	-0.0796935	0.866211	-1.04413
O	-1.00668	0.351968	-1.667
H	-0.827614	-1.3403	-0.27597
H	0.515776	0.863705	0.980298
C	1.98571	-0.264811	-0.158346
H	2.00744	-0.972789	-1.01411
H	2.62931	0.607376	-0.394129
H	2.4131	-0.782214	0.72821
N	0.420373	2.06892	-1.38976
C	-0.1053	2.8122	-2.51109
H	1.16783	2.47061	-0.87108
H	0.437011	3.77563	-2.63326
H	-1.1867	3.03516	-2.36228
H	0.000219286	2.22821	-3.45394
C	249.001	-1.29284	-2.95768
C	249.075	-1.04464	-1.50024
O	249.917	-1.59712	-0.80582
H	249.784	-2.0281	-3.24507
H	249.173	-0.348528	-3.51585
H	248.006	-1.70471	-3.22585
N	248.177	-0.194467	-0.996877
C	248.096	0.113998	0.409137
C	246.659	0.478083	0.731679
O	245.833	0.634414	-0.165034
H	247.472	0.215889	-1.56809
H	248.342	-0.770547	0.983589
C	249.045	1.27709	0.774156
H	248.787	2.18785	0.192782
H	249.002	1.51496	1.85679
H	250.089	0.991678	0.522326
N	246.325	0.613957	2.03007
C	244.98	0.953362	2.43285
H	247.007	0.479476	2.74155
H	244.906	1.01839	3.54078
H	244.258	0.18314	2.07787
H	244.677	1.93532	2.00272
