44
  This energy is 0 and Call times are: 210565
C	3.23292	0.306753	-1.25172
C	1.89313	-0.322557	-1.24285
O	1.54182	-1.07617	-2.14011
H	3.78086	-0.00875965	-2.16611
H	3.81099	-0.011173	-0.358696
H	3.1361	1.41297	-1.25455
N	1.10196	-0.0195017	-0.21107
C	-0.244303	-0.519998	-0.0859769
C	-1.0532	0.490984	0.704688
O	-0.505033	1.44357	1.25588
H	1.38679	0.627618	0.490339
H	-0.691329	-0.592431	-1.06962
C	-0.258672	-1.89458	0.617977
H	0.190249	-1.81862	1.63126
H	-1.28848	-2.297	0.707923
H	0.345755	-2.61629	0.0262354
N	-2.38692	0.309951	0.771439
C	-3.23844	1.22387	1.49659
H	-2.81268	-0.464562	0.315451
H	-4.30204	0.904532	1.43341
H	-3.15612	2.25321	1.0783
H	-2.94732	1.26362	2.57122
C	652.748	-3.117	1.13976
C	652.978	-1.67654	0.888147
O	653.955	-1.10158	1.34868
H	653.562	-3.51145	1.78631
H	652.747	-3.67749	0.181323
H	651.776	-3.26488	1.65539
N	652.066	-1.05164	0.140135
C	652.13	0.358072	-0.154952
C	650.715	0.863461	-0.36229
O	649.77	0.0797241	-0.431035
H	651.255	-1.52371	-0.193503
H	652.539	0.883476	0.699411
C	652.988	0.619673	-1.41219
H	652.564	0.089391	-2.29128
H	653.057	1.70273	-1.64184
H	654.017	0.234726	-1.24089
N	650.535	2.19542	-0.458845
C	649.223	2.7685	-0.651346
H	651.311	2.81386	-0.396698
H	649.282	3.87788	-0.705739
H	648.547	2.49474	0.191114
H	648.766	2.39501	-1.59607
