44
  This energy is 0 and Call times are: 206001
C	-1.61089	-2.26426	2.09544
C	-0.602779	-1.93364	1.06319
O	0.259581	-2.73874	0.739816
H	-1.41795	-3.28836	2.48255
H	-2.63104	-2.23153	1.65843
H	-1.54656	-1.54362	2.93784
N	-0.689912	-0.718927	0.516145
C	0.245317	-0.237663	-0.469904
C	0.323692	1.27264	-0.349978
O	-0.460716	1.88889	0.368816
H	-1.37226	-0.0597505	0.819052
H	1.2302	-0.630272	-0.249706
C	-0.194636	-0.645739	-1.89298
H	-1.2005	-0.234372	-2.1233
H	0.52472	-0.292887	-2.66015
H	-0.252897	-1.75437	-1.95536
N	1.28491	1.90645	-1.05024
C	1.43941	3.34142	-0.994026
H	1.91285	1.39023	-1.6232
H	2.28428	3.67151	-1.63782
H	1.64334	3.67393	0.0495869
H	0.512219	3.85057	-1.34363
C	328.424	1.44492	1.61375
C	327.496	0.315673	1.38155
O	327.72	-0.793915	1.84508
H	329.286	1.09264	2.22061
H	327.907	2.25907	2.16335
H	328.802	1.83508	0.645181
N	326.415	0.578348	0.64351
C	325.443	-0.428314	0.296313
C	324.81	-0.038985	-1.02666
O	325.029	1.06142	-1.52958
H	326.267	1.47627	0.238936
H	325.947	-1.37498	0.146736
C	324.365	-0.556403	1.39475
H	323.84	0.41179	1.54123
H	323.618	-1.33813	1.14558
H	324.851	-0.834037	2.35547
N	324.013	-0.943022	-1.62841
C	323.372	-0.663102	-2.89231
H	323.851	-1.82967	-1.20798
H	322.758	-1.52999	-3.22267
H	324.132	-0.451287	-3.67929
H	322.706	0.225968	-2.80707
