44
  This energy is 0 and Call times are: 212721
C	1.77518	-2.98045	0.279959
C	1.61602	-1.60184	-0.235067
O	2.54224	-1.0198	-0.782579
H	2.81642	-3.32349	0.0955686
H	1.0735	-3.66643	-0.239488
H	1.57642	-3.00625	1.37217
N	0.416983	-1.03974	-0.065574
C	0.122815	0.310931	-0.475092
C	-0.963425	0.854755	0.433695
O	-1.55025	0.118339	1.22429
H	-0.314725	-1.51107	0.418493
H	1.0017	0.9271	-0.331793
C	-0.333647	0.353234	-1.94991
H	-1.24143	-0.27032	-2.09531
H	-0.549873	1.38955	-2.28129
H	0.473343	-0.0566503	-2.59575
N	-1.25162	2.16832	0.346986
C	-2.2665	2.77585	1.1759
H	-0.763121	2.74892	-0.295926
H	-2.35472	3.86273	0.956543
H	-2.01643	2.65525	2.25488
H	-3.25766	2.30006	0.995976
C	805.174	1.27147	3.19686
C	805.223	0.14971	2.23227
O	805.174	-1.01269	2.61016
H	805.11	0.865222	4.22964
H	804.283	1.90433	3.00302
H	806.093	1.89021	3.11103
N	805.326	0.479911	0.942744
C	805.427	-0.501101	-0.108868
C	806.206	0.114058	-1.25604
O	806.488	1.31087	-1.25579
H	805.406	1.42958	0.653768
H	805.996	-1.35045	0.248563
C	804.027	-0.947901	-0.583404
H	803.447	-0.0785475	-0.95999
H	804.091	-1.71349	-1.38354
H	803.472	-1.38754	0.273889
N	806.582	-0.698383	-2.26341
C	807.331	-0.203127	-3.39458
H	806.348	-1.66485	-2.2438
H	807.544	-1.02359	-4.11472
H	808.301	0.232811	-3.0627
H	806.76	0.591355	-3.92705
