44
  This energy is 0 and Call times are: 211293
C	2.32869	-2.36591	-1.04516
C	1.07922	-1.59508	-1.23437
O	0.487485	-1.6015	-2.30498
H	2.5907	-2.8798	-1.9955
H	2.19111	-3.12872	-0.250216
H	3.15955	-1.68497	-0.763936
N	0.645175	-0.900284	-0.180216
C	-0.531597	-0.0685094	-0.22402
C	-0.354481	1.05477	0.780186
O	0.585007	1.04817	1.5733
H	1.15977	-0.872274	0.671999
H	-0.612364	0.38479	-1.20414
C	-1.79947	-0.888987	0.09934
H	-1.72162	-1.34559	1.10904
H	-2.71394	-0.262639	0.0552223
H	-1.90465	-1.70991	-0.643199
N	-1.25561	2.05662	0.763105
C	-1.16472	3.17072	1.67781
H	-2.0066	2.04638	0.111201
H	-1.99648	3.88908	1.50648
H	-0.200496	3.71226	1.54263
H	-1.21758	2.81805	2.73326
C	704.945	-3.04558	-1.13423
C	704.232	-1.76716	-1.35179
O	703.955	-1.38026	-2.47892
H	705.167	-3.51432	-2.11755
H	704.315	-3.73945	-0.539396
H	705.901	-2.86393	-0.598917
N	703.914	-1.07094	-0.257704
C	703.257	0.211291	-0.311258
C	703.67	1.00573	0.913517
O	704.307	0.476435	1.82227
H	704.182	-1.37901	0.650721
H	703.605	0.754933	-1.18072
C	701.723	0.0434754	-0.355941
H	701.364	-0.50498	0.541042
H	701.206	1.02341	-0.411341
H	701.444	-0.547435	-1.25571
N	703.321	2.30647	0.961888
C	703.675	3.14273	2.08512
H	702.809	2.71792	0.215004
H	703.299	4.17911	1.93768
H	704.781	3.18573	2.20967
H	703.237	2.74128	3.02746
