44
  This energy is 0 and Call times are: 204657
C	-0.0104088	1.61201	-3.08448
C	0.192582	1.60528	-1.61823
O	0.726876	2.54695	-1.04885
H	0.403721	2.55262	-3.50829
H	-1.09383	1.55766	-3.32109
H	0.512552	0.748572	-3.54717
N	-0.23519	0.522458	-0.964864
C	-0.068841	0.351925	0.457038
C	0.0186912	-1.1344	0.748108
O	-0.215318	-1.9629	-0.129696
H	-0.631111	-0.25362	-1.44737
H	0.870159	0.796322	0.762686
C	-1.24548	0.986722	1.2302
H	-2.20798	0.523823	0.924654
H	-1.12211	0.874168	2.32685
H	-1.29532	2.07254	0.99596
N	0.368641	-1.50788	1.99473
C	0.482896	-2.89989	2.36274
H	0.558109	-0.82283	2.69035
H	0.780869	-3.00144	3.42957
H	1.24856	-3.41059	1.73487
H	-0.488615	-3.42566	2.21826
C	226.831	0.711175	1.83709
C	227.513	0.339513	0.576849
O	226.879	-0.0497356	-0.394555
H	225.736	0.555683	1.72211
H	227.019	1.77954	2.07343
H	227.198	0.0777916	2.672
N	228.843	0.451421	0.566471
C	229.648	0.0863539	-0.572151
C	231.013	-0.343471	-0.0677898
O	231.328	-0.185669	1.11033
H	229.348	0.730661	1.37825
H	229.203	-0.768485	-1.06553
C	229.783	1.26988	-1.55526
H	230.249	2.14366	-1.05245
H	230.389	0.997059	-2.44304
H	228.772	1.57273	-1.90517
N	231.857	-0.908465	-0.953156
C	233.175	-1.35361	-0.563116
H	231.584	-1.03146	-1.90127
H	233.716	-1.79012	-1.43161
H	233.108	-2.12941	0.233671
H	233.776	-0.503249	-0.167027
