44
  This energy is 0 and Call times are: 205441
C	1.21069	-0.168777	3.25859
C	0.494638	0.532167	2.16906
O	-0.153059	1.54667	2.38742
H	1.03155	0.363707	4.21789
H	2.30172	-0.181825	3.05311
H	0.839774	-1.21131	3.35157
N	0.595817	-0.00471882	0.950905
C	-0.0796531	0.539275	-0.200777
C	-0.351708	-0.596052	-1.16958
O	0.133588	-1.7107	-0.98582
H	1.093	-0.853698	0.796282
H	-1.03838	0.940212	0.103718
C	0.775435	1.63397	-0.87584
H	1.75495	1.22058	-1.19787
H	0.260156	2.07041	-1.75591
H	0.968796	2.45055	-0.146354
N	-1.14699	-0.338965	-2.22667
C	-1.46611	-1.35894	-3.19827
H	-1.53367	0.568107	-2.35619
H	-2.13268	-0.952547	-3.99058
H	-1.98338	-2.21718	-2.7113
H	-0.53969	-1.74398	-3.68264
C	282.388	-0.0605183	1.06775
C	283.67	0.642008	0.837634
O	283.749	1.85979	0.922615
H	281.595	0.686056	1.29124
H	282.481	-0.754669	1.92928
H	282.097	-0.633036	0.161759
N	284.721	-0.124208	0.533576
C	286.024	0.417875	0.240515
C	286.733	-0.537033	-0.701708
O	286.257	-1.64244	-0.953291
H	284.632	-1.1105	0.427879
H	285.91	1.36015	-0.280777
C	286.845	0.610598	1.53437
H	286.971	-0.357638	2.06412
H	287.846	1.04045	1.32331
H	286.304	1.30654	2.21208
N	287.891	-0.125761	-1.25442
C	288.632	-0.964245	-2.16712
H	288.258	0.773756	-1.04187
H	289.555	-0.448806	-2.5129
H	288.015	-1.21454	-3.06029
H	288.927	-1.91817	-1.67302
