44
  This energy is 0 and Call times are: 205105
C	-2.33571	-1.40576	-2.16355
C	-1.5986	-0.243824	-1.61793
O	-1.64405	0.84881	-2.16611
H	-2.86582	-1.10135	-3.0921
H	-3.08243	-1.76632	-1.4252
H	-1.62933	-2.22755	-2.406
N	-0.889191	-0.459206	-0.507649
C	-0.0860392	0.56261	0.116369
C	1.06452	-0.114481	0.837004
O	1.09839	-1.33739	0.959742
H	-0.829125	-1.36412	-0.0960892
H	0.341909	1.19778	-0.649173
C	-0.927629	1.39846	1.10547
H	-1.35825	0.748876	1.89708
H	-0.323752	2.19756	1.58222
H	-1.76814	1.87818	0.557966
N	2.04464	0.670517	1.32605
C	3.18192	0.114789	2.02171
H	2.00164	1.65769	1.21327
H	3.87665	0.920584	2.34616
H	3.74219	-0.586136	1.36135
H	2.85325	-0.449536	2.92429
C	264.071	2.43336	-0.756034
C	263.021	1.46838	-1.15388
O	262.556	1.46968	-2.28532
H	264.302	3.09926	-1.61558
H	264.995	1.89345	-0.460543
H	263.717	3.05396	0.0943571
N	262.617	0.610089	-0.214438
C	261.574	-0.359043	-0.438828
C	260.895	-0.639721	0.888853
O	261.362	-0.203386	1.93925
H	262.976	0.648151	0.71383
H	260.827	0.0657298	-1.09877
C	262.149	-1.66064	-1.03867
H	262.907	-2.10244	-0.35713
H	261.353	-2.40978	-1.22897
H	262.647	-1.43013	-2.00553
N	259.765	-1.37325	0.870808
C	259.048	-1.68633	2.08469
H	259.4	-1.71407	0.0105822
H	258.145	-2.29741	1.86177
H	258.721	-0.753837	2.59949
H	259.695	-2.25976	2.78704
