44
  This energy is -1.8571 and Call times are: 224401
C	3.02729	0.993738	-1.40025
C	1.77874	0.19895	-1.42449
O	1.4271	-0.396787	-2.43338
H	3.51065	0.948963	-2.40037
H	3.72812	0.582479	-0.643656
H	2.80163	2.05353	-1.15732
N	1.06877	0.174524	-0.294128
C	-0.189222	-0.519949	-0.176981
C	-1.02472	0.188641	0.872491
O	-0.537875	1.07466	1.57225
H	1.34693	0.69785	0.506261
H	-0.724242	-0.450776	-1.11592
C	0.0307918	-1.99794	0.213356
H	0.570342	-2.06947	1.18176
H	-0.929794	-2.54697	0.293162
H	0.651045	-2.49453	-0.564483
N	-2.31384	-0.182526	1.00069
C	-3.18685	0.439496	1.96874
H	-2.69081	-0.898598	0.422582
H	-4.20644	-0.0024057	1.91996
H	-3.26965	1.53386	1.77693
H	-2.79255	0.298821	3.00116
C	992.645	2.7781	-2.0809
C	992.551	1.32165	-1.83408
O	992.037	0.572875	-2.65368
H	992.179	3.01559	-3.06152
H	993.71	3.09392	-2.10347
H	992.111	3.33688	-1.28386
N	993.051	0.881955	-0.677154
C	992.994	-0.501943	-0.277074
C	992.964	-0.555208	1.23879
O	993.153	0.458459	1.90844
H	993.429	1.50906	-0.00220001
H	992.069	-0.938657	-0.633516
C	994.208	-1.2849	-0.822504
H	995.156	-0.84369	-0.448628
H	994.168	-2.35496	-0.532832
H	994.214	-1.22569	-1.93282
N	992.715	-1.74641	1.8178
C	992.662	-1.89245	3.25377
H	992.561	-2.55456	1.25915
H	992.445	-2.94686	3.53407
H	991.865	-1.24441	3.6852
H	993.633	-1.59909	3.71495
