44
  This energy is 0 and Call times are: 209221
C	-2.47099	1.85142	-1.60597
C	-1.07728	1.66188	-1.14469
O	-0.178501	2.3988	-1.5262
H	-2.51024	2.70732	-2.31433
H	-3.13374	2.06913	-0.742187
H	-2.82961	0.938024	-2.12577
N	-0.864061	0.649946	-0.300346
C	0.445182	0.314218	0.20138
C	0.470368	-1.17306	0.499559
O	-0.561573	-1.84045	0.462103
H	-1.59857	0.0336651	-0.0309749
H	1.18202	0.501109	-0.569834
C	0.773878	1.12702	1.47282
H	0.0241893	0.927576	2.26795
H	1.78509	0.887593	1.86095
H	0.741887	2.21231	1.23309
N	1.66049	-1.7312	0.796436
C	1.7826	-3.14038	1.08878
H	2.48508	-1.17563	0.817789
H	2.84021	-3.40639	1.30769
H	1.43926	-3.75226	0.223333
H	1.16194	-3.41367	1.97265
C	558.384	1.71015	1.40882
C	557.39	0.613205	1.41441
O	557.483	-0.320984	2.1987
H	559.159	1.50715	2.17918
H	557.889	2.67613	1.6428
H	558.874	1.77739	0.414668
N	556.401	0.703619	0.521784
C	555.384	-0.307906	0.378029
C	554.902	-0.292504	-1.06023
O	555.252	0.597944	-1.83241
H	556.362	1.44916	-0.137383
H	555.82	-1.28187	0.5615
C	554.209	-0.0498981	1.34617
H	553.754	0.944774	1.15138
H	553.425	-0.82982	1.25487
H	554.586	-0.0576511	2.392
N	554.088	-1.29022	-1.45737
C	553.583	-1.36139	-2.8088
H	553.819	-2.00399	-0.819175
H	552.931	-2.25347	-2.9388
H	554.422	-1.43101	-3.53833
H	552.987	-0.452785	-3.05408
