44
  This energy is 0 and Call times are: 214233
C	-0.433306	0.60141	-3.40048
C	0.0498842	0.996745	-2.05832
O	0.78607	1.96232	-1.90965
H	-0.00814692	1.29104	-4.16175
H	-1.54129	0.660386	-3.44104
H	-0.109717	-0.434907	-3.63378
N	-0.359542	0.24385	-1.03465
C	0.0611238	0.478092	0.324292
C	0.0384153	-0.847575	1.06161
O	-0.452784	-1.84832	0.543018
H	-0.925573	-0.563259	-1.17625
H	1.08509	0.83041	0.325576
C	-0.864237	1.50044	1.01981
H	-1.91313	1.13467	1.02811
H	-0.542487	1.69976	2.06253
H	-0.838113	2.46013	0.458847
N	0.581292	-0.88677	2.29441
C	0.610096	-2.10535	3.06926
H	0.977628	-0.0675967	2.69559
H	1.09739	-1.93361	4.05429
H	1.17707	-2.89946	2.53149
H	-0.423121	-2.48091	3.24972
C	912.065	-2.18077	-2.16398
C	913.154	-1.22845	-1.85075
O	914.118	-1.10313	-2.59301
H	912.303	-2.71243	-3.11083
H	911.105	-1.63685	-2.28873
H	911.963	-2.92744	-1.34839
N	913.022	-0.526261	-0.722939
C	914.02	0.407276	-0.263205
C	913.946	0.471347	1.25072
O	913.029	-0.0761134	1.86013
H	912.251	-0.669011	-0.108328
H	915.003	0.0355149	-0.522595
C	913.791	1.80617	-0.876227
H	912.786	2.19252	-0.601669
H	914.561	2.53064	-0.540726
H	913.841	1.73392	-1.98463
N	914.922	1.13951	1.89677
C	914.937	1.24879	3.3369
H	915.657	1.57246	1.38658
H	915.819	1.83532	3.67726
H	914.985	0.23977	3.80688
H	914.016	1.75674	3.70255
