44
  This energy is 0 and Call times are: 210061
C	-0.700645	1.75088	-2.9251
C	0.0269825	0.700866	-2.17732
O	0.694789	-0.142976	-2.75902
H	-0.538081	1.60504	-4.01513
H	-0.325588	2.75543	-2.63706
H	-1.78871	1.68782	-2.71244
N	-0.0906528	0.729596	-0.847769
C	0.523601	-0.251345	0.0118866
C	-0.321893	-0.377597	1.26518
O	-1.24258	0.406961	1.48545
H	-0.670909	1.39798	-0.391223
H	0.514247	-1.21501	-0.48196
C	1.96837	0.158446	0.372386
H	1.97756	1.14212	0.888463
H	2.45693	-0.595746	1.02279
H	2.56664	0.252637	-0.560108
N	-0.0317523	-1.38095	2.11672
C	-0.785556	-1.58263	3.33216
H	0.714367	-2.00815	1.91925
H	-0.394629	-2.45764	3.89675
H	-1.86018	-1.76569	3.10207
H	-0.721104	-0.684544	3.98823
C	614.77	3.30625	0.563206
C	614.479	1.85503	0.54838
O	613.463	1.40798	1.06344
H	613.958	3.83834	1.10497
H	614.825	3.69618	-0.474911
H	615.734	3.49788	1.08128
N	615.381	1.0747	-0.0512051
C	615.258	-0.360577	-0.108098
C	616.652	-0.953134	-0.177
O	617.635	-0.232955	-0.342169
H	616.223	1.44888	-0.429937
H	614.801	-0.716321	0.807027
C	614.424	-0.794329	-1.33367
H	614.898	-0.438642	-2.27339
H	614.31	-1.89672	-1.38096
H	613.41	-0.342803	-1.26625
N	616.772	-2.28868	-0.0425327
C	618.06	-2.941	-0.0891897
H	615.965	-2.85433	0.0944818
H	617.949	-4.04009	0.0409286
H	618.724	-2.55766	0.719166
H	618.561	-2.7522	-1.06613
