44
  This energy is 0 and Call times are: 208941
C	-3.4031	0.722111	-0.100895
C	-2.26758	-0.221894	-0.203809
O	-2.45112	-1.43056	-0.246705
H	-4.3545	0.148762	-0.0563807
H	-3.42713	1.38996	-0.987541
H	-3.30922	1.33464	0.820563
N	-1.04776	0.319224	-0.244002
C	0.156067	-0.472094	-0.300408
C	1.2722	0.317247	0.35743
O	1.10838	1.49324	0.676685
H	-0.912251	1.30287	-0.166885
H	0.0163573	-1.37671	0.278191
C	0.52316	-0.814662	-1.76093
H	0.676928	0.113032	-2.35235
H	1.44075	-1.43548	-1.81691
H	-0.310932	-1.38511	-2.22486
N	2.43839	-0.318879	0.584074
C	3.55504	0.349973	1.21011
H	2.55051	-1.27179	0.322414
H	4.42159	-0.340305	1.30926
H	3.27675	0.71136	2.22659
H	3.87479	1.22999	0.606393
C	537.158	-3.04852	-0.832016
C	536.543	-2.1216	0.144322
O	536.214	-2.50339	1.25883
H	537.228	-4.06261	-0.381945
H	538.179	-2.70199	-1.09777
H	536.537	-3.10509	-1.75036
N	536.37	-0.861518	-0.261376
C	535.745	0.144704	0.56079
C	535.082	1.15772	-0.353357
O	535.272	1.12898	-1.56784
H	536.606	-0.57565	-1.18582
H	534.964	-0.313535	1.15477
C	536.784	0.835508	1.47165
H	537.579	1.31479	0.862395
H	536.313	1.60288	2.11963
H	537.262	0.0743104	2.12609
N	534.277	2.07786	0.212872
C	533.599	3.07823	-0.578194
H	534.133	2.08255	1.19687
H	532.984	3.74154	0.0694084
H	532.927	2.59841	-1.32635
H	534.334	3.70873	-1.12867
