44
  This energy is 0 and Call times are: 212189
C	-3.15482	1.27732	0.726806
C	-1.88499	1.29551	-0.0336806
O	-1.75046	2.00054	-1.02426
H	-3.88528	1.95826	0.238313
H	-2.98238	1.62245	1.76791
H	-3.5764	0.250137	0.743159
N	-0.910017	0.504473	0.420258
C	0.366773	0.382422	-0.238128
C	0.917067	-1.00169	0.0499102
O	0.3724	-1.73778	0.870413
H	-1.04845	-0.0943719	1.2039
H	0.224987	0.456732	-1.30911
C	1.3478	1.46856	0.254937
H	1.50178	1.38612	1.35199
H	2.33022	1.3938	-0.254755
H	0.921153	2.47285	0.0410956
N	2.0129	-1.39283	-0.629932
C	2.60417	-2.69477	-0.426141
H	2.43708	-0.784758	-1.29279
H	3.49627	-2.82779	-1.07705
H	1.87255	-3.50023	-0.665374
H	2.9217	-2.82063	0.634273
C	771.067	0.867007	-0.149727
C	769.736	0.697326	-0.774735
O	769.501	1.13504	-1.89262
H	771.727	1.43602	-0.839981
H	771.526	-0.124416	0.0499436
H	770.974	1.42941	0.803173
N	768.82	0.0483609	-0.0525553
C	767.468	-0.156696	-0.508902
C	766.566	-0.244711	0.707984
O	767.041	-0.307845	1.84037
H	769.014	-0.266165	0.87231
H	767.15	0.704247	-1.08394
C	767.361	-1.44338	-1.35637
H	767.676	-2.3283	-0.763547
H	766.327	-1.60501	-1.72526
H	768.035	-1.36007	-2.23684
N	765.234	-0.242372	0.501004
C	764.299	-0.317394	1.59872
H	764.869	-0.186538	-0.422327
H	763.251	-0.302165	1.22443
H	764.436	0.544392	2.29138
H	764.45	-1.25538	2.18053
