44
  This energy is 0 and Call times are: 204377
C	-1.80725	-0.10765	2.97237
C	-1.72778	0.0120044	1.4991
O	-2.73251	-0.0489539	0.803969
H	-2.86601	-0.267463	3.27131
H	-1.43461	0.821545	3.45245
H	-1.20159	-0.971274	3.31939
N	-0.508965	0.185755	0.982695
C	-0.267447	0.275721	-0.435802
C	1.13481	-0.234158	-0.710109
O	1.90861	-0.477087	0.213983
H	0.303758	0.192332	1.55829
H	-0.955931	-0.377299	-0.957517
C	-0.420946	1.73074	-0.930373
H	0.292458	2.3993	-0.402999
H	-0.251019	1.81091	-2.02363
H	-1.45185	2.08569	-0.712199
N	1.49321	-0.417023	-1.99624
C	2.8052	-0.904163	-2.3534
H	0.851838	-0.218811	-2.73002
H	2.90659	-0.987293	-3.45795
H	2.98552	-1.90946	-1.90826
H	3.5959	-0.214159	-1.97946
C	209.035	3.23578	1.09526
C	208.678	1.80501	0.964658
O	207.746	1.3246	1.59518
H	208.353	3.71851	1.829
H	208.929	3.74753	0.115653
H	210.08	3.33846	1.45451
N	209.427	1.0807	0.129897
C	209.229	-0.333397	-0.0694752
C	210.563	-0.948431	-0.450373
O	211.535	-0.238718	-0.701571
H	210.208	1.47665	-0.345188
H	208.92	-0.786053	0.864472
C	208.179	-0.593584	-1.17111
H	208.5	-0.138425	-2.1321
H	208.007	-1.67878	-1.32438
H	207.213	-0.127989	-0.874901
N	210.642	-2.29302	-0.493882
C	211.871	-2.96734	-0.841101
H	209.845	-2.85045	-0.283383
H	211.733	-4.07092	-0.821115
H	212.681	-2.70212	-0.123336
H	212.205	-2.67394	-1.86252
