44
  This energy is 0 and Call times are: 205889
C	-2.4597	-0.127867	2.45891
C	-1.90615	0.410654	1.19608
O	-2.58277	1.11187	0.456554
H	-3.51804	0.195894	2.56358
H	-1.87956	0.254582	3.32489
H	-2.42256	-1.23766	2.45049
N	-0.641531	0.0866169	0.916611
C	0.0208271	0.499727	-0.295487
C	1.07263	-0.538763	-0.637241
O	1.35307	-1.43568	0.15561
H	-0.11674	-0.518708	1.50825
H	-0.695535	0.512612	-1.10745
C	0.669259	1.89081	-0.123236
H	1.41192	1.87542	0.702753
H	1.17067	2.22615	-1.05418
H	-0.117523	2.63313	0.134216
N	1.67668	-0.445175	-1.83824
C	2.68599	-1.39167	-2.25252
H	1.4334	0.285171	-2.46791
H	3.06133	-1.14603	-3.27036
H	2.2707	-2.42532	-2.27212
H	3.54893	-1.37963	-1.54801
C	316.365	0.307697	3.1994
C	316.222	0.255367	1.72702
O	315.122	0.158008	1.20113
H	315.361	0.227686	3.66919
H	316.829	1.269	3.50482
H	316.995	-0.535526	3.55276
N	317.352	0.317706	1.01827
C	317.376	0.235321	-0.420884
C	318.707	-0.361068	-0.837913
O	319.607	-0.529559	-0.0168049
H	318.242	0.355555	1.46179
H	316.6	-0.443284	-0.753095
C	317.184	1.62972	-1.05664
H	317.986	2.32335	-0.724415
H	317.188	1.57766	-2.1647
H	316.208	2.0503	-0.731481
N	318.861	-0.704119	-2.13204
C	320.091	-1.28356	-2.61969
H	318.12	-0.563913	-2.78068
H	320.02	-1.49612	-3.70924
H	320.312	-2.23833	-2.08994
H	320.946	-0.58938	-2.45214
