44
  This energy is 0 and Call times are: 206589
C	1.44312	1.25203	-2.90904
C	1.54075	0.700562	-1.53882
O	2.6157	0.347795	-1.07357
H	2.45179	1.25515	-3.37643
H	1.0591	2.29327	-2.87605
H	0.763299	0.626905	-3.5256
N	0.399153	0.610928	-0.852457
C	0.328302	0.0553996	0.476049
C	-1.05396	-0.540074	0.666612
O	-1.93993	-0.354257	-0.165404
H	-0.473818	0.863983	-1.25958
H	1.04288	-0.753522	0.563567
C	0.603026	1.13842	1.54228
H	-0.13624	1.96347	1.45973
H	0.564992	0.72015	2.56898
H	1.61642	1.56576	1.37869
N	-1.26834	-1.28205	1.77094
C	-2.5504	-1.89307	2.03393
H	-0.53787	-1.42452	2.43063
H	-2.5264	-2.46168	2.98962
H	-2.82591	-2.59607	1.21469
H	-3.34758	-1.11824	2.10663
C	364.427	1.14038	0.315584
C	365.869	1.36885	0.0690374
O	366.276	2.44184	-0.35407
H	363.858	2.05527	0.0415718
H	364.253	0.917052	1.38918
H	364.063	0.292329	-0.3019
N	366.685	0.345447	0.330925
C	368.107	0.402164	0.100531
C	368.596	-1.0044	-0.190148
O	367.853	-1.97262	-0.0403727
H	366.334	-0.535162	0.636015
H	368.302	1.00013	-0.780851
C	368.842	0.987992	1.32629
H	368.65	0.368922	2.22853
H	369.936	1.04974	1.15596
H	368.463	2.01422	1.52531
N	369.863	-1.14889	-0.62379
C	370.414	-2.4485	-0.930899
H	370.448	-0.353131	-0.742723
H	371.468	-2.35827	-1.27189
H	369.826	-2.94339	-1.73755
H	370.39	-3.10741	-0.0328781
