44
  This energy is 0.1267 and Call times are: 215849
C	1.43089	2.89444	1.29902
C	1.40039	1.77907	0.326315
O	2.12647	1.77773	-0.658175
H	2.16655	3.65638	0.961203
H	1.73392	2.52125	2.29984
H	0.429154	3.36846	1.36925
N	0.54209	0.789652	0.584661
C	0.368143	-0.34192	-0.291608
C	-1.05297	-0.848767	-0.133174
O	-1.7817	-0.412685	0.75593
H	-0.0715114	0.824672	1.36833
H	0.482859	-0.0191809	-1.31889
C	1.38162	-1.45864	0.041603
H	1.25731	-1.79744	1.09222
H	1.26698	-2.32995	-0.635307
H	2.41445	-1.06314	-0.0732796
N	-1.48458	-1.78235	-1.0039
C	-2.82344	-2.3197	-0.933975
H	-0.881582	-2.1199	-1.71911
H	-2.98682	-3.07392	-1.73502
H	-3.57863	-1.5097	-1.05596
H	-2.99921	-2.81012	0.0507746
C	996.967	-3.07406	-1.53014
C	997.363	-1.98291	-0.611446
O	998.3	-2.11638	0.163394
H	997.627	-3.95261	-1.36283
H	997.07	-2.74265	-2.58479
H	995.915	-3.3734	-1.33813
N	996.643	-0.860728	-0.677899
C	996.88	0.271651	0.182255
C	995.568	1.0105	0.364723
O	994.58	0.714471	-0.304905
H	995.857	-0.782005	-1.28495
H	997.191	-0.0800198	1.15821
C	997.949	1.20833	-0.421424
H	997.627	1.57775	-1.41808
H	998.151	2.07701	0.238257
H	998.899	0.644609	-0.553529
N	995.525	1.99071	1.28851
C	994.318	2.74466	1.53561
H	996.334	2.21298	1.82341
H	994.485	3.50431	2.33084
H	993.494	2.07028	1.86246
H	993.988	3.27124	0.61122
