44
  This energy is 0 and Call times are: 207653
C	-2.06055	2.627	0.98268
C	-1.18141	1.47588	1.28791
O	-0.796574	1.25826	2.42851
H	-2.25536	3.1981	1.91637
H	-3.02814	2.27092	0.570712
H	-1.57024	3.29835	0.246484
N	-0.837247	0.701966	0.255931
C	0.0468312	-0.429103	0.388782
C	0.766835	-0.624367	-0.93221
O	0.434613	0.0117106	-1.93058
H	-1.12516	0.91559	-0.67323
H	0.798612	-0.209007	1.13646
C	-0.739746	-1.70233	0.770119
H	-1.50405	-1.93453	-0.00187039
H	-0.0683353	-2.57733	0.888956
H	-1.26491	-1.5339	1.73562
N	1.78256	-1.50935	-0.965869
C	2.52927	-1.75729	-2.17713
H	2.03933	-2.0115	-0.14673
H	3.32277	-2.51671	-2.00145
H	3.01375	-0.821325	-2.53842
H	1.8576	-2.13172	-2.98323
C	445.219	3.07329	0.600089
C	444.325	1.96189	0.99637
O	443.892	1.87411	2.13689
H	445.404	3.72761	1.47966
H	444.747	3.67634	-0.203601
H	446.19	2.67337	0.239559
N	444.027	1.07234	0.0464468
C	443.205	-0.0862255	0.291742
C	443.627	-1.17854	-0.672776
O	444.414	-0.941627	-1.58739
H	444.421	1.13463	-0.866336
H	443.392	-0.451094	1.29404
C	441.709	0.250129	0.107867
H	441.515	0.614517	-0.923459
H	441.065	-0.630414	0.307506
H	441.424	1.057	0.817956
N	443.116	-2.41115	-0.483876
C	443.465	-3.51449	-1.34839
H	442.484	-2.58431	0.264215
H	442.943	-4.44369	-1.02993
H	444.563	-3.70257	-1.32202
H	443.177	-3.29424	-2.40199
