44
  This energy is 0 and Call times are: 202389
C	-1.4129	-2.12612	-2.36559
C	-0.25926	-1.39619	-1.79336
O	0.882898	-1.62471	-2.16707
H	-1.04721	-2.86164	-3.11469
H	-2.10443	-1.41652	-2.86659
H	-1.95744	-2.66939	-1.5647
N	-0.537817	-0.4875	-0.855766
C	0.482417	0.27143	-0.176276
C	-0.0337864	0.626919	1.20529
O	-1.20528	0.416203	1.51335
H	-1.4686	-0.341767	-0.532852
H	1.35992	-0.34893	-0.0429908
C	0.83782	1.54961	-0.966964
H	-0.0598293	2.19141	-1.09485
H	1.63224	2.13561	-0.460972
H	1.20563	1.26585	-1.97718
N	0.837673	1.17067	2.0776
C	0.438171	1.53617	3.41662
H	1.78257	1.32976	1.81127
H	1.29584	1.96634	3.97928
H	0.0658847	0.645237	3.97242
H	-0.379033	2.29289	3.39022
C	70.6918	1.62051	-0.731808
C	69.8236	0.421693	-0.738516
O	70.1228	-0.573036	-1.38456
H	71.5705	1.44131	-1.38889
H	71.0499	1.82792	0.298485
H	70.132	2.50066	-1.11253
N	68.7082	0.492692	-0.00824807
C	67.7435	-0.577139	0.0499387
C	66.3798	0.0298569	0.321209
O	66.2665	1.21895	0.612608
H	68.4578	1.32413	0.479479
H	67.693	-1.06548	-0.915253
C	68.1128	-1.59362	1.1525
H	68.1544	-1.09523	2.14443
H	67.385	-2.4296	1.19807
H	69.1174	-2.01904	0.937887
N	65.3053	-0.777366	0.2226
C	63.9673	-0.286829	0.457665
H	65.4168	-1.7358	-0.0183239
H	63.2212	-1.10162	0.327988
H	63.7185	0.532731	-0.254894
H	63.872	0.114665	1.49249
