44
  This energy is 0 and Call times are: 215241
C	0.119998	-1.67786	-3.04681
C	0.613548	-0.646449	-2.10674
O	1.66376	-0.0536429	-2.3118
H	0.84746	-1.79426	-3.87936
H	-0.861721	-1.37415	-3.46721
H	0.0128044	-2.65189	-2.52445
N	-0.146133	-0.40797	-1.03511
C	0.2238	0.53599	-0.0100946
C	-0.393327	0.0793592	1.29841
O	-1.2053	-0.843564	1.32357
H	-0.977684	-0.927627	-0.860907
H	1.29899	0.521269	0.117872
C	-0.259393	1.95818	-0.369467
H	-1.36351	1.97606	-0.490504
H	0.031465	2.69669	0.405471
H	0.198342	2.26848	-1.33411
N	-0.0130024	0.714592	2.42441
C	-0.54277	0.345273	3.71636
H	0.648273	1.45634	2.38439
H	-0.107774	0.983452	4.51681
H	-0.305863	-0.718317	3.94858
H	-1.65028	0.464437	3.73571
C	982.923	-1.36386	-1.59399
C	983.825	-0.230337	-1.29029
O	983.759	0.817078	-1.91878
H	982.258	-1.08748	-2.44118
H	982.297	-1.60223	-0.708771
H	983.515	-2.25873	-1.87914
N	984.705	-0.419581	-0.303685
C	985.676	0.575127	0.0781979
C	986.886	-0.140038	0.648378
O	986.856	-1.34842	0.873267
H	984.774	-1.29219	0.171343
H	986.004	1.11127	-0.803648
C	985.085	1.55256	1.11778
H	984.758	1.00431	2.02695
H	985.819	2.33166	1.40954
H	984.196	2.05858	0.68193
N	987.99	0.594065	0.888786
C	989.192	-0.0013097	1.4258
H	987.997	1.5698	0.696501
H	989.988	0.76508	1.55194
H	989.575	-0.795692	0.744905
H	988.991	-0.465025	2.41862
