44
  This energy is 0 and Call times are: 202053
C	0.30392	1.44217	3.15285
C	0.872096	0.736013	1.98253
O	2.08053	0.598223	1.85173
H	1.13138	1.79742	3.80477
H	-0.344056	0.755241	3.7368
H	-0.291966	2.31779	2.81924
N	-0.00303441	0.267363	1.08984
C	0.400043	-0.403494	-0.120963
C	-0.669024	-0.167004	-1.17107
O	-1.73939	0.359318	-0.872699
H	-0.981643	0.423134	1.18948
H	1.31656	0.0415527	-0.48779
C	0.592851	-1.91607	0.124377
H	-0.350079	-2.37513	0.490682
H	0.916725	-2.44162	-0.797264
H	1.37371	-2.06516	0.901793
N	-0.398017	-0.545823	-2.43562
C	-1.35264	-0.355624	-3.50272
H	0.475278	-0.966315	-2.65836
H	-0.944529	-0.730912	-4.46699
H	-1.59771	0.724582	-3.62258
H	-2.2988	-0.902276	-3.28573
C	41.6367	-1.55366	2.33273
C	41.8942	-1.00243	0.983292
O	41.1184	-1.2029	0.0590024
H	40.6939	-2.14245	2.3152
H	41.532	-0.729431	3.06924
H	42.4706	-2.21961	2.63958
N	43.0108	-0.285038	0.838417
C	43.418	0.279324	-0.424195
C	44.9319	0.377872	-0.431917
O	45.5822	0.162398	0.589022
H	43.6531	-0.164945	1.59
H	43.1345	-0.393198	-1.22415
C	42.7837	1.67137	-0.636536
H	43.0828	2.36471	0.178239
H	43.0786	2.11051	-1.61157
H	41.676	1.57641	-0.619267
N	45.5316	0.700024	-1.59493
C	46.9678	0.811628	-1.69927
H	44.9887	0.866709	-2.41135
H	47.2669	1.0842	-2.73538
H	47.457	-0.154102	-1.43592
H	47.3527	1.59397	-1.00575
