44
  This energy is 0 and Call times are: 209389
C	3.13169	1.41122	0.560053
C	2.08629	0.874353	-0.339975
O	2.162	1.01488	-1.55279
H	3.90601	1.9308	-0.045205
H	3.61185	0.584636	1.12482
H	2.68679	2.13652	1.27356
N	1.06878	0.238304	0.245262
C	-0.0447869	-0.300562	-0.495106
C	-1.26311	-0.290313	0.408852
O	-1.15783	-0.0245716	1.60468
H	1.00045	0.167667	1.23633
H	-0.261478	0.346609	-1.33585
C	0.257642	-1.73537	-0.979978
H	0.469665	-2.40214	-0.117129
H	-0.586858	-2.15623	-1.56327
H	1.15733	-1.72003	-1.63318
N	-2.45721	-0.573391	-0.147928
C	-3.67228	-0.582123	0.632911
H	-2.52288	-0.781918	-1.11812
H	-4.54754	-0.836792	-0.00449831
H	-3.85166	0.417274	1.0915
H	-3.60635	-1.332	1.45418
C	570.378	-1.08057	-1.94308
C	569.818	-0.322276	-0.801546
O	570.544	0.144646	0.0650532
H	571.483	-1.14092	-1.83764
H	570.135	-0.568828	-2.89811
H	569.961	-2.10994	-1.95949
N	568.491	-0.18324	-0.775025
C	567.797	0.49158	0.293869
C	566.409	-0.109481	0.411029
O	565.991	-0.897375	-0.434976
H	567.91	-0.604034	-1.46585
H	568.311	0.302185	1.22828
C	567.709	2.0094	0.0224461
H	567.173	2.20464	-0.930816
H	567.189	2.54217	0.84509
H	568.736	2.42651	-0.0675104
N	565.662	0.244862	1.47516
C	564.331	-0.280494	1.6731
H	566.02	0.880559	2.15128
H	563.881	0.129688	2.60379
H	564.356	-1.39129	1.75566
H	563.672	-0.012456	0.816415
