44
  This energy is 0 and Call times are: 209697
C	-3.34728	0.911942	0.277079
C	-2.10594	0.326325	0.831395
O	-2.00437	0.0696527	2.02312
H	-4.07909	1.06743	1.09937
H	-3.79159	0.226053	-0.474508
H	-3.12896	1.89084	-0.199558
N	-1.11702	0.100838	-0.0366886
C	0.165508	-0.424856	0.359971
C	1.20887	0.088106	-0.614614
O	0.876357	0.685306	-1.63662
H	-1.19988	0.353021	-0.996587
H	0.421949	-0.0400731	1.33916
C	0.148889	-1.96914	0.372251
H	-0.103808	-2.36453	-0.634649
H	1.12674	-2.38592	0.689483
H	-0.627117	-2.32214	1.08608
N	2.50473	-0.127426	-0.314079
C	3.56739	0.329269	-1.17916
H	2.75422	-0.608986	0.519544
H	4.56074	0.056576	-0.759493
H	3.52896	1.43641	-1.29768
H	3.47574	-0.129553	-2.19021
C	589.384	-3.21987	1.28261
C	588.938	-1.81269	1.16916
O	587.859	-1.45192	1.61854
H	588.596	-3.81425	1.79408
H	590.32	-3.27836	1.87626
H	589.559	-3.6484	0.273265
N	589.774	-0.973722	0.552793
C	589.462	0.415652	0.328386
C	590.193	0.869418	-0.920744
O	591.03	0.146168	-1.45847
H	590.631	-1.29088	0.156114
H	588.401	0.516348	0.135385
C	589.875	1.27725	1.54146
H	590.966	1.18252	1.7334
H	589.627	2.34724	1.3866
H	589.334	0.922403	2.44549
N	589.887	2.08349	-1.41874
C	590.527	2.59704	-2.60688
H	589.204	2.65253	-0.971976
H	590.14	3.60957	-2.85615
H	590.339	1.92601	-3.47606
H	591.629	2.66932	-2.45909
