44
  This energy is 0.156 and Call times are: 215754
C	0.956805	-1.15775	-3.13956
C	1.26137	-0.782877	-1.74032
O	2.34319	-1.0487	-1.23494
H	1.82846	-1.69357	-3.57429
H	0.755788	-0.248534	-3.74426
H	0.0709802	-1.82658	-3.1724
N	0.295468	-0.147799	-1.07242
C	0.427987	0.242305	0.309176
C	-0.955778	0.258621	0.930854
O	-1.96072	0.129952	0.234252
H	-0.59462	0.0251823	-1.48436
H	1.00982	-0.503261	0.836654
C	1.09181	1.63164	0.428911
H	0.48976	2.39876	-0.103158
H	1.21206	1.93723	1.48847
H	2.0997	1.5984	-0.0394782
N	-1.03908	0.409968	2.26734
C	-2.31301	0.432038	2.94761
H	-0.214531	0.508491	2.81459
H	-2.17172	0.565071	4.04286
H	-2.86507	-0.52083	2.77865
H	-2.94513	1.26865	2.57125
C	994.972	-0.90882	2.0924
C	996.193	-0.12566	1.79923
O	996.54	0.799222	2.52062
H	994.483	-0.500473	3.00389
H	995.233	-1.97304	2.27084
H	994.26	-0.84064	1.24254
N	996.881	-0.484231	0.712983
C	998.067	0.210211	0.275055
C	998.172	0.0616147	-1.23102
O	997.426	-0.700042	-1.84277
H	996.564	-1.21284	0.112892
H	997.961	1.26661	0.48832
C	999.326	-0.358313	0.965158
H	999.44	-1.43967	0.738075
H	1000.24	0.177364	0.646659
H	999.223	-0.246263	2.06661
N	999.104	0.798009	-1.86799
C	999.274	0.726689	-3.3005
H	999.696	1.41176	-1.35628
H	1000.09	1.40631	-3.63396
H	998.336	1.02235	-3.82285
H	999.532	-0.310661	-3.61451
