44
  This energy is 0 and Call times are: 207681
C	-0.972571	2.78962	-1.83979
C	-1.2816	1.56238	-1.07198
O	-2.42681	1.30078	-0.730711
H	-1.90871	3.36686	-2.00202
H	-0.538283	2.52447	-2.82662
H	-0.253409	3.42188	-1.27752
N	-0.24777	0.770847	-0.776946
C	-0.384779	-0.435222	0.000991224
C	0.924357	-0.680926	0.727179
O	1.9217	-0.00852947	0.472414
H	0.68426	1.01789	-1.02626
H	-1.14906	-0.289598	0.754187
C	-0.736789	-1.63741	-0.902381
H	0.0521739	-1.79374	-1.66863
H	-0.858599	-2.56946	-0.31335
H	-1.69393	-1.4323	-1.42979
N	0.948556	-1.65196	1.66128
C	2.14806	-1.95353	2.40721
H	0.130343	-2.18258	1.8563
H	1.96581	-2.78181	3.1269
H	2.48956	-1.06073	2.97955
H	2.97096	-2.25942	1.72135
C	445.036	2.81844	-1.93096
C	444.662	1.49311	-1.38799
O	443.523	1.062	-1.49931
H	444.143	3.29084	-2.39437
H	445.825	2.70652	-2.70397
H	445.408	3.47486	-1.11603
N	445.631	0.807817	-0.77581
C	445.409	-0.476699	-0.159873
C	446.398	-0.631924	0.979759
O	447.309	0.178437	1.13759
H	446.543	1.18959	-0.657111
H	444.415	-0.499905	0.270086
C	445.582	-1.61784	-1.18612
H	446.604	-1.60092	-1.61977
H	445.4	-2.61125	-0.727226
H	444.853	-1.47955	-2.01483
N	446.235	-1.6801	1.81088
C	447.125	-1.90576	2.92634
H	445.49	-2.3228	1.6694
H	446.825	-2.8169	3.48983
H	447.105	-1.03887	3.62591
H	448.172	-2.04036	2.57262
