44
  This energy is -1.1896 and Call times are: 219987
C	-3.2625	0.966584	0.7311
C	-2.27326	0.237055	-0.0937223
O	-2.62806	-0.574832	-0.937145
H	-4.2869	0.633525	0.456221
H	-3.17944	2.05906	0.551269
H	-3.09286	0.755494	1.80802
N	-0.987936	0.514028	0.137827
C	0.0902694	-0.146424	-0.554874
C	1.30011	-0.163674	0.360304
O	1.3031	0.472674	1.41233
H	-0.713427	1.14712	0.855956
H	-0.185075	-1.17631	-0.745008
C	0.422189	0.578465	-1.8776
H	0.714918	1.6321	-1.68217
H	1.24165	0.0714363	-2.42708
H	-0.479478	0.586065	-2.52821
N	2.35991	-0.905025	-0.0181772
C	3.55333	-0.986277	0.791343
H	2.33712	-1.4163	-0.870911
H	4.3104	-1.64444	0.310841
H	3.31743	-1.4005	1.79834
H	4.00361	0.0232397	0.930137
C	991.284	2.15209	-2.47409
C	992.022	1.88798	-1.21873
O	992.732	2.74447	-0.709711
H	991.509	3.18327	-2.82289
H	990.191	2.06219	-2.30116
H	991.594	1.43112	-3.25956
N	991.87	0.673768	-0.684936
C	992.558	0.254689	0.510814
C	992.747	-1.24913	0.445217
O	992.2	-1.91505	-0.431676
H	991.321	-0.0263383	-1.13282
H	993.543	0.703148	0.531844
C	991.758	0.645273	1.77295
H	990.751	0.176918	1.75694
H	992.284	0.340276	2.70078
H	991.625	1.74893	1.79606
N	993.539	-1.82078	1.37361
C	993.782	-3.24451	1.38693
H	993.977	-1.26485	2.07274
H	994.459	-3.52019	2.22565
H	994.256	-3.57112	0.432801
H	992.827	-3.80508	1.50791
