44
  This energy is 0 and Call times are: 214849
C	0.122915	-2.73836	2.14451
C	0.355486	-2.10247	0.828194
O	1.01515	-2.66148	-0.0371173
H	0.641544	-3.72122	2.17437
H	-0.963756	-2.90043	2.30459
H	0.524097	-2.09555	2.95626
N	-0.189359	-0.897227	0.646813
C	-0.0144956	-0.135522	-0.56471
C	-0.106311	1.33774	-0.214542
O	-0.460754	1.69775	0.906386
H	-0.689252	-0.437394	1.37519
H	0.978971	-0.312383	-0.957616
C	-1.08579	-0.510971	-1.6119
H	-2.10487	-0.319797	-1.21318
H	-0.953446	0.0588381	-2.55441
H	-1.00519	-1.59474	-1.84705
N	0.22159	2.22925	-1.17043
C	0.169704	3.652	-0.926954
H	0.510011	1.91862	-2.07009
H	0.475962	4.21769	-1.83438
H	0.851937	3.93275	-0.0920823
H	-0.862619	3.96591	-0.649634
C	956.057	-3.06379	-0.161446
C	956.149	-1.65623	0.287451
O	955.189	-1.08843	0.790399
H	955.028	-3.44171	0.0226481
H	956.777	-3.69304	0.402593
H	956.277	-3.13412	-1.24766
N	957.326	-1.05222	0.109995
C	957.556	0.328116	0.457105
C	958.635	0.873119	-0.459584
O	959.266	0.124939	-1.2032
H	958.085	-1.51476	-0.338227
H	956.654	0.898399	0.269264
C	957.983	0.461562	1.93529
H	958.913	-0.114762	2.12606
H	958.149	1.52107	2.2186
H	957.182	0.0493949	2.58732
N	958.866	2.20047	-0.433113
C	959.869	2.80987	-1.27434
H	958.342	2.7902	0.17232
H	959.908	3.90892	-1.10748
H	959.644	2.62637	-2.34999
H	960.876	2.38626	-1.05502
