44
  This energy is 0 and Call times are: 205133
C	-1.68515	-2.96909	-0.67636
C	-1.27524	-1.8835	0.242663
O	-1.78452	-1.76423	1.34847
H	-2.48558	-3.57352	-0.196932
H	-0.820567	-3.62929	-0.898552
H	-2.07637	-2.54135	-1.6235
N	-0.330442	-1.05279	-0.204172
C	0.140861	0.0763385	0.558395
C	0.60871	1.14212	-0.414633
O	0.700965	0.900662	-1.61667
H	0.045326	-1.13815	-1.12253
H	-0.68277	0.494623	1.12346
C	1.29086	-0.337053	1.50277
H	2.14031	-0.756504	0.922668
H	1.65317	0.520807	2.10554
H	0.928176	-1.12319	2.20049
N	0.908698	2.35702	0.0854233
C	1.35681	3.43493	-0.765161
H	0.823876	2.53446	1.0603
H	1.55205	4.35241	-0.167396
H	0.58684	3.67473	-1.53388
H	2.29644	3.15396	-1.29363
C	265.125	-1.61888	-2.73161
C	264.815	-0.395638	-1.95777
O	265.342	0.674809	-2.22812
H	265.876	-1.37755	-3.51495
H	264.206	-2.00492	-3.22126
H	265.543	-2.39988	-2.0618
N	263.939	-0.531057	-0.959115
C	263.571	0.55906	-0.090625
C	263.186	-0.0198856	1.25774
O	263.063	-1.23377	1.4102
H	263.55	-1.4174	-0.725252
H	264.431	1.19747	0.0663289
C	262.398	1.3677	-0.687574
H	261.512	0.715513	-0.838969
H	262.114	2.21831	-0.0346868
H	262.7	1.77513	-1.67726
N	262.993	0.841482	2.27598
C	262.629	0.38198	3.59619
H	263.1	1.81994	2.13414
H	262.517	1.2406	4.29426
H	263.41	-0.300518	4.0033
H	261.665	-0.17521	3.56685
