44
  This energy is -1.799 and Call times are: 225153
C	-0.129606	3.16168	-1.44903
C	0.426591	2.19684	-0.473897
O	1.43878	2.45329	0.163382
H	0.518468	4.06429	-1.48313
H	-1.15339	3.4656	-1.14531
H	-0.16448	2.70589	-2.46102
N	-0.233785	1.04473	-0.336326
C	0.209418	-0.00933049	0.541785
C	-0.270667	-1.33151	-0.0264658
O	-1.05512	-1.36262	-0.972714
H	-1.03295	0.833693	-0.891897
H	1.29194	-0.0358473	0.550087
C	-0.338245	0.196529	1.9711
H	-1.44897	0.213255	1.96458
H	0.00738173	-0.601196	2.66008
H	0.019057	1.17348	2.36385
N	0.19954	-2.46181	0.53688
C	-0.19718	-3.76599	0.0594891
H	0.836787	-2.41635	1.29906
H	0.296628	-4.56823	0.650927
H	0.085081	-3.89518	-1.01052
H	-1.30036	-3.89654	0.143699
C	990.923	0.248191	-2.08346
C	992.26	0.69903	-1.63374
O	992.911	1.50107	-2.28889
H	990.679	0.733449	-3.05339
H	990.152	0.530937	-1.33607
H	990.918	-0.853633	-2.22138
N	992.705	0.181948	-0.486415
C	994.004	0.491629	0.057213
C	994.47	-0.697394	0.876341
O	993.708	-1.63082	1.12095
H	992.181	-0.500901	0.0146593
H	994.71	0.620437	-0.754227
C	993.947	1.76299	0.93222
H	993.231	1.62751	1.77094
H	994.944	2.01982	1.34542
H	993.596	2.61833	0.314363
N	995.744	-0.694182	1.31465
C	996.277	-1.78534	2.09648
H	996.347	0.0681711	1.10309
H	997.341	-1.59694	2.36031
H	996.221	-2.74097	1.52644
H	995.699	-1.91204	3.04021
