44
  This energy is 0 and Call times are: 206029
C	1.56388	-2.64841	-1.62876
C	1.13647	-1.9448	-0.398558
O	1.20298	-2.48669	0.69613
H	1.90316	-3.67401	-1.36623
H	2.40396	-2.10386	-2.10884
H	0.715798	-2.72197	-2.3418
N	0.678168	-0.700707	-0.555281
C	0.186057	0.0942328	0.542196
C	-0.849544	1.06074	-0.000904335
O	-1.02018	1.18587	-1.21208
H	0.591739	-0.287999	-1.45754
H	-0.315715	-0.550179	1.25325
C	1.33764	0.862793	1.22661
H	1.846	1.53192	0.500058
H	0.973548	1.4679	2.08206
H	2.08731	0.136224	1.60928
N	-1.57535	1.76499	0.889746
C	-2.5874	2.70433	0.465961
H	-1.42566	1.64701	1.86583
H	-3.07308	3.18235	1.34507
H	-3.3741	2.19058	-0.132744
H	-2.14025	3.50518	-0.166365
C	326.69	-3.3084	0.383635
C	327.085	-2.15545	-0.456542
O	327.326	-2.29346	-1.64787
H	326.682	-4.23002	-0.237975
H	325.674	-3.14731	0.80136
H	327.414	-3.44213	1.21472
N	327.163	-0.972672	0.15772
C	327.576	0.23229	-0.517774
C	328.223	1.1491	0.503343
O	328.176	0.886985	1.7037
H	327.004	-0.883439	1.13674
H	328.33	-0.0121115	-1.25534
C	326.371	0.93042	-1.18597
H	325.602	1.19083	-0.428216
H	326.678	1.85228	-1.72115
H	325.909	0.238495	-1.92334
N	328.852	2.24911	0.0457621
C	329.501	3.17673	0.942746
H	328.883	2.44212	-0.92938
H	329.962	4.01542	0.375502
H	330.302	2.66552	1.5244
H	328.768	3.60275	1.66543
