44
  This energy is 0 and Call times are: 203453
C	-0.263417	2.29851	-2.60003
C	-0.700916	1.74903	-1.29703
O	-1.48701	2.35841	-0.584897
H	-0.741514	3.28933	-2.75997
H	-0.564566	1.61709	-3.42326
H	0.839652	2.42586	-2.61069
N	-0.190175	0.565176	-0.950604
C	-0.488051	-0.0763212	0.305704
C	0.698316	-0.941054	0.688228
O	1.61867	-1.1337	-0.103951
H	0.480113	0.100497	-1.52214
H	-0.598595	0.678083	1.07465
C	-1.76937	-0.93183	0.198164
H	-1.6526	-1.71267	-0.583297
H	-2.01709	-1.41997	1.16298
H	-2.62271	-0.280012	-0.0904404
N	0.707661	-1.47858	1.92395
C	1.79751	-2.31052	2.37814
H	-0.0441492	-1.30794	2.55223
H	1.6207	-2.65574	3.42064
H	2.75834	-1.74707	2.35375
H	1.90623	-3.20681	1.72547
C	146.04	-2.5394	-0.432531
C	145.513	-1.18849	-0.729748
O	146.175	-0.375034	-1.35928
H	147.068	-2.63217	-0.847061
H	145.394	-3.31324	-0.897434
H	146.08	-2.70179	0.665261
N	144.289	-0.91547	-0.272874
C	143.659	0.369978	-0.446025
C	142.699	0.585715	0.708428
O	142.443	-0.325564	1.49295
H	143.779	-1.57374	0.273224
H	144.412	1.1467	-0.38918
C	142.91	0.439952	-1.79441
H	142.13	-0.350028	-1.84893
H	142.432	1.42976	-1.94574
H	143.63	0.271443	-2.62424
N	142.149	1.80847	0.844103
C	141.228	2.10848	1.91571
H	142.372	2.53422	0.201725
H	140.887	3.16544	1.85652
H	141.714	1.95198	2.90617
H	140.333	1.44719	1.86166
