44
  This energy is 0 and Call times are: 211601
C	1.86582	-2.39582	-1.70042
C	0.636183	-1.59332	-1.51304
O	-0.23737	-1.56442	-2.36889
H	1.83041	-2.89586	-2.69268
H	1.9408	-3.1715	-0.909568
H	2.7608	-1.7397	-1.6604
N	0.541531	-0.910703	-0.369599
C	-0.575163	-0.0518987	-0.0629897
C	-0.0870326	1.04625	0.862947
O	1.03972	1.0022	1.35306
H	1.27924	-0.911801	0.299468
H	-0.920802	0.423135	-0.972665
C	-1.71933	-0.850064	0.599625
H	-1.3681	-1.32895	1.53843
H	-2.59055	-0.202495	0.827974
H	-2.05531	-1.65299	-0.0923084
N	-0.927416	2.06829	1.11833
C	-0.547754	3.16104	1.98315
H	-1.83366	2.08837	0.709183
H	-1.37367	3.90133	2.06713
H	0.351849	3.68338	1.58421
H	-0.305739	2.78805	3.00464
C	727.351	2.58902	-1.63815
C	726.201	2.05294	-0.87584
O	725.345	2.79586	-0.415466
H	727.281	3.6978	-1.67742
H	727.342	2.19139	-2.67475
H	728.304	2.30655	-1.14253
N	726.157	0.727522	-0.721768
C	725.123	0.0627915	0.0318443
C	725.702	-1.21999	0.59877
O	726.813	-1.61667	0.252711
H	726.883	0.139378	-1.06722
H	724.836	0.685193	0.870116
C	723.9	-0.242673	-0.860169
H	724.192	-0.889848	-1.7145
H	723.092	-0.742126	-0.288059
H	723.498	0.70941	-1.27043
N	724.959	-1.89779	1.49607
C	725.43	-3.12572	2.09334
H	724.064	-1.5588	1.76668
H	724.677	-3.53077	2.805
H	726.38	-2.95321	2.6489
H	725.622	-3.89493	1.31076
