44
  This energy is 0 and Call times are: 208437
C	2.61435	1.76017	1.47636
C	2.09874	0.689945	0.59324
O	2.84332	0.0760883	-0.158556
H	3.70648	1.88125	1.30762
H	2.44245	1.4942	2.54052
H	2.1069	2.72141	1.24918
N	0.789079	0.440919	0.66497
C	0.13444	-0.541128	-0.163036
C	-1.30485	-0.106008	-0.36472
O	-1.77278	0.83664	0.271021
H	0.189061	0.976869	1.252
H	0.605916	-0.558033	-1.13774
C	0.19091	-1.93946	0.490199
H	-0.301956	-1.92516	1.48565
H	-0.297744	-2.70704	-0.144283
H	1.2532	-2.234	0.635557
N	-2.04202	-0.7827	-1.26733
C	-3.41941	-0.436629	-1.5304
H	-1.64458	-1.53996	-1.77494
H	-3.85288	-1.10843	-2.30371
H	-3.49793	0.613398	-1.89447
H	-4.03134	-0.52744	-0.603884
C	501.535	-2.95629	-0.0845276
C	501.161	-1.67183	0.549508
O	501.518	-1.40069	1.68787
H	502.13	-3.56126	0.633785
H	502.147	-2.77141	-0.992093
H	500.622	-3.52453	-0.363759
N	500.42	-0.840101	-0.186235
C	499.944	0.427066	0.309407
C	498.647	0.757614	-0.406331
O	498.265	0.082416	-1.35991
H	500.104	-1.09227	-1.09617
H	499.715	0.335169	1.36397
C	500.99	1.53926	0.0765745
H	501.216	1.64109	-1.00615
H	500.64	2.51719	0.46642
H	501.932	1.27253	0.60262
N	497.933	1.8071	0.0461277
C	496.685	2.19317	-0.568655
H	498.257	2.33889	0.821573
H	496.25	3.07819	-0.0538782
H	495.947	1.35992	-0.516345
H	496.838	2.45159	-1.64142
