44
  This energy is -0.4462 and Call times are: 224069
C	1.56057	-1.11371	2.90464
C	0.364367	-0.661221	2.15933
O	-0.756791	-0.767794	2.63688
H	1.24479	-1.54298	3.88029
H	2.24124	-0.25688	3.09246
H	2.09937	-1.89371	2.32638
N	0.581084	-0.139123	0.949855
C	-0.486205	0.305355	0.088524
C	-0.0258939	0.158104	-1.34953
O	1.14238	-0.121751	-1.61131
H	1.49564	-0.0966422	0.55788
H	-1.34454	-0.341584	0.220317
C	-0.862807	1.77272	0.388959
H	0.0147053	2.43823	0.243692
H	-1.69298	2.1224	-0.25839
H	-1.18891	1.85835	1.44852
N	-0.942778	0.33634	-2.32091
C	-0.598088	0.210926	-3.71792
H	-1.88413	0.55826	-2.08923
H	-1.48758	0.393423	-4.36036
H	-0.211308	-0.81071	-3.93686
H	0.191815	0.945916	-3.99538
C	992.648	-3.16288	0.0439466
C	993.484	-2.12104	-0.594961
O	994.176	-2.37504	-1.57126
H	992.79	-4.12679	-0.491405
H	991.576	-2.87822	-0.00650939
H	992.946	-3.29423	1.10561
N	993.438	-0.904727	-0.0464385
C	994.227	0.200332	-0.530223
C	994.498	1.13406	0.634493
O	993.932	0.974061	1.71442
H	992.901	-0.723475	0.772866
H	995.184	-0.169103	-0.876501
C	993.493	0.948198	-1.66452
H	992.516	1.3365	-1.30681
H	994.097	1.79294	-2.05497
H	993.298	0.243863	-2.5026
N	995.382	2.13286	0.442897
C	995.707	3.06719	1.4954
H	995.833	2.2437	-0.43674
H	996.453	3.813	1.14283
H	996.133	2.53424	2.37599
H	994.796	3.61383	1.83059
