44
  This energy is 0 and Call times are: 205077
C	0.973432	1.03869	-3.17588
C	-0.0335982	0.909383	-2.09871
O	-1.09765	1.51057	-2.15145
H	0.595865	1.74259	-3.94909
H	1.15748	0.0509172	-3.6483
H	1.92572	1.4344	-2.76399
N	0.287307	0.109342	-1.07923
C	-0.571521	-0.0831278	0.0626667
C	0.300321	-0.409606	1.26052
O	1.50162	-0.632538	1.12304
H	1.1742	-0.341141	-1.03073
H	-1.08721	0.843471	0.282017
C	-1.5854	-1.21934	-0.19485
H	-1.05686	-2.17253	-0.409546
H	-2.26154	-1.36802	0.671896
H	-2.20711	-0.962741	-1.08028
N	-0.287543	-0.437034	2.47283
C	0.463467	-0.733036	3.67056
H	-1.26	-0.249921	2.56446
H	-0.196895	-0.707188	4.56525
H	1.28002	0.0108344	3.81605
H	0.925649	-1.74457	3.60476
C	256.541	1.42884	0.306009
C	257.66	0.614023	0.832019
O	257.695	0.269706	2.00532
H	255.829	1.65008	1.1301
H	256.006	0.873684	-0.492695
H	256.925	2.38675	-0.103739
N	258.615	0.284614	-0.0400335
C	259.787	-0.46803	0.332942
C	260.919	-0.0726741	-0.596702
O	260.708	0.634046	-1.58049
H	258.593	0.606855	-0.982125
H	260.084	-0.192852	1.33741
C	259.519	-1.98639	0.24426
H	259.225	-2.27088	-0.788525
H	260.409	-2.57688	0.54236
H	258.682	-2.25167	0.926546
N	262.156	-0.516106	-0.299273
C	263.296	-0.186199	-1.12315
H	262.308	-1.08353	0.503341
H	264.223	-0.643831	-0.71329
H	263.44	0.917506	-1.1695
H	263.15	-0.559263	-2.16277
