44
  This energy is 0 and Call times are: 208101
C	0.967804	0.252113	3.33354
C	1.14419	0.566868	1.89793
O	1.93339	1.42634	1.53067
H	1.62648	0.912867	3.93805
H	1.24214	-0.805673	3.52993
H	-0.0870325	0.422448	3.63586
N	0.397764	-0.133483	1.04077
C	0.42726	0.0894491	-0.383304
C	-0.92844	-0.288862	-0.949444
O	-1.76687	-0.855212	-0.250882
H	-0.26989	-0.801152	1.35751
H	0.574526	1.14469	-0.576712
C	1.5439	-0.744182	-1.0492
H	1.38744	-1.82758	-0.859958
H	1.58587	-0.570675	-2.14403
H	2.52583	-0.456385	-0.614075
N	-1.17872	0.0255079	-2.23574
C	-2.44293	-0.290226	-2.85884
H	-0.489269	0.487417	-2.7838
H	-2.45473	0.0486428	-3.9182
H	-3.28129	0.209618	-2.32163
H	-2.62698	-1.38882	-2.83985
C	474.953	2.87994	1.80585
C	474.577	1.78867	0.879082
O	473.41	1.59597	0.568615
H	474.036	3.41412	2.13571
H	475.625	3.60135	1.29504
H	475.467	2.46421	2.69798
N	475.576	1.03672	0.411283
C	475.363	-0.0882065	-0.464821
C	476.484	-1.08497	-0.236271
O	477.454	-0.793175	0.460599
H	476.517	1.18011	0.705239
H	474.435	-0.578651	-0.196989
C	475.331	0.361279	-1.94204
H	476.286	0.855091	-2.22027
H	475.153	-0.494003	-2.62578
H	474.509	1.09614	-2.08434
N	476.371	-2.2964	-0.815676
C	477.385	-3.31111	-0.649806
H	475.576	-2.51536	-1.37267
H	477.11	-4.23623	-1.20273
H	477.509	-3.57006	0.426669
H	478.367	-2.95165	-1.03395
