44
  This energy is 0 and Call times are: 214793
C	-0.980402	-1.7691	2.83227
C	0.00969893	-1.42992	1.78547
O	1.17173	-1.80301	1.86858
H	-0.481586	-2.35754	3.63277
H	-1.80258	-2.37657	2.39897
H	-1.4005	-0.842097	3.27643
N	-0.436687	-0.700035	0.760589
C	0.417695	-0.255793	-0.31237
C	-0.14864	1.03965	-0.862511
O	-1.25279	1.44606	-0.505574
H	-1.37549	-0.369264	0.727446
H	1.40176	-0.0357105	0.0823516
C	0.506728	-1.32341	-1.4248
H	-0.501294	-1.54188	-1.83736
H	1.17282	-0.998932	-2.25037
H	0.916115	-2.26497	-0.997923
N	0.604016	1.72639	-1.74451
C	0.149763	2.97218	-2.31707
H	1.49661	1.38355	-2.01803
H	0.909162	3.38263	-3.01855
H	-0.0343422	3.7273	-1.51883
H	-0.801464	2.82343	-2.87759
C	957.033	-0.786428	0.619787
C	955.655	-0.500859	1.07744
O	955.32	-0.695782	2.23772
H	957.625	-1.19174	1.46876
H	957.516	0.144844	0.256613
H	957.017	-1.53743	-0.198022
N	954.811	-0.0263568	0.158361
C	953.426	0.258146	0.442509
C	952.634	0.08037	-0.839117
O	953.206	-0.0918304	-1.91398
H	955.087	0.0883631	-0.791614
H	953.052	-0.4654	1.15599
C	953.258	1.69327	0.988
H	953.633	2.4365	0.251994
H	952.198	1.91973	1.22371
H	953.853	1.80289	1.9213
N	951.29	0.109868	-0.752424
C	950.453	-0.0558517	-1.91822
H	950.845	0.246213	0.126815
H	949.377	-0.0012704	-1.64127
H	950.641	-1.04277	-2.39968
H	950.663	0.740123	-2.6689
