44
  This energy is 0 and Call times are: 204685
C	3.09132	-1.49757	0.560115
C	1.62977	-1.56942	0.336837
O	1.07661	-2.63542	0.104303
H	3.52851	-2.51484	0.460606
H	3.30426	-1.11306	1.5797
H	3.56099	-0.829409	-0.19226
N	0.962092	-0.415125	0.401609
C	-0.456704	-0.319307	0.164129
C	-0.753022	1.06632	-0.377883
O	0.115506	1.9365	-0.390906
H	1.43219	0.450032	0.55121
H	-0.73988	-1.03207	-0.600341
C	-1.25197	-0.574018	1.46333
H	-0.969488	0.163522	2.24453
H	-2.34623	-0.516686	1.29064
H	-1.01359	-1.59033	1.84626
N	-1.99361	1.30144	-0.848719
C	-2.36582	2.58825	-1.38889
H	-2.68165	0.5835	-0.833544
H	-3.42645	2.58224	-1.72391
H	-1.72407	2.84836	-2.26168
H	-2.24487	3.38661	-0.621342
C	231.544	0.438519	-3.44906
C	231.075	0.730944	-2.07563
O	230.307	1.65602	-1.85246
H	231.104	1.17878	-4.15239
H	231.224	-0.580257	-3.75357
H	232.651	0.508805	-3.49895
N	231.539	-0.06439	-1.10865
C	231.207	0.122099	0.281911
C	232.357	-0.407107	1.11774
O	233.276	-1.0368	0.597518
H	232.196	-0.787724	-1.30038
H	231.118	1.18127	0.489067
C	229.896	-0.611272	0.639312
H	229.99	-1.69949	0.436879
H	229.622	-0.463832	1.70417
H	229.07	-0.213587	0.0102046
N	232.336	-0.154422	2.44127
C	233.391	-0.613627	3.31514
H	231.586	0.360298	2.8432
H	233.193	-0.306251	4.36563
H	234.372	-0.187357	3.00435
H	233.471	-1.72433	3.28387
