44
  This energy is -2.8613 and Call times are: 221981
C	0.375418	1.35309	3.18448
C	0.452383	0.223291	2.23118
O	1.0077	-0.82376	2.53404
H	0.895385	1.07462	4.1268
H	-0.685023	1.58775	3.415
H	0.867401	2.2509	2.75438
N	-0.111563	0.415448	1.03643
C	-0.0798994	-0.575309	-0.0104454
C	-0.132435	0.144663	-1.34477
O	-0.35458	1.35267	-1.40026
H	-0.523978	1.28787	0.790156
H	0.861364	-1.10909	0.031229
C	-1.26521	-1.55643	0.122471
H	-2.23126	-1.01058	0.0692
H	-1.24421	-2.33255	-0.66982
H	-1.21099	-2.06597	1.10928
N	0.0807821	-0.584753	-2.45766
C	0.0555651	0.0154284	-3.77118
H	0.263024	-1.56024	-2.39227
H	0.253384	-0.74753	-4.55603
H	0.829891	0.812206	-3.85388
H	-0.93793	0.477223	-3.97331
C	995.714	3.31434	0.618098
C	994.954	2.28185	-0.12242
O	994.039	2.587	-0.874958
H	995.299	4.31764	0.378576
H	996.784	3.28777	0.322803
H	995.628	3.14177	1.71168
N	995.322	1.01471	0.0804561
C	994.65	-0.101986	-0.535915
C	994.795	-1.30424	0.377965
O	995.539	-1.26581	1.35605
H	996.042	0.779352	0.727362
H	993.593	0.11715	-0.615485
C	995.247	-0.404936	-1.9279
H	996.329	-0.640134	-1.84556
H	994.729	-1.25409	-2.41869
H	995.137	0.491026	-2.57715
N	994.075	-2.40449	0.0826236
C	994.144	-3.59451	0.898246
H	993.476	-2.41507	-0.710698
H	993.48	-4.38884	0.492068
H	993.828	-3.37338	1.94331
H	995.186	-3.9898	0.929252
