44
  This energy is 0 and Call times are: 206897
C	-2.36275	1.44012	2.11097
C	-0.97741	1.02361	1.7971
O	-0.035685	1.38455	2.48941
H	-2.35435	2.09821	3.00692
H	-2.99086	0.549902	2.32483
H	-2.79637	2.00162	1.2567
N	-0.820848	0.242695	0.725635
C	0.470536	-0.207998	0.269827
C	0.394569	-0.421597	-1.23023
O	-0.683249	-0.371421	-1.81972
H	-1.59231	-0.00914968	0.148318
H	1.20348	0.568896	0.448312
C	0.881985	-1.51481	0.982697
H	0.135796	-2.31518	0.791243
H	1.88085	-1.86464	0.650409
H	0.923405	-1.33717	2.07954
N	1.5471	-0.658191	-1.88728
C	1.5733	-0.868028	-3.31608
H	2.40979	-0.690974	-1.39355
H	2.61316	-1.04636	-3.66836
H	1.16974	0.0219275	-3.85124
H	0.952225	-1.74975	-3.59531
C	387.252	-1.83026	1.66409
C	387.671	-0.750505	0.742178
O	386.856	-0.164968	0.0417495
H	386.155	-1.98614	1.57297
H	387.489	-1.55201	2.71236
H	387.772	-2.77683	1.40615
N	388.974	-0.460653	0.720682
C	389.538	0.535617	-0.155617
C	390.972	0.143849	-0.455882
O	391.513	-0.779632	0.149658
H	389.63	-0.97388	1.26654
H	388.999	0.531449	-1.09489
C	389.483	1.93586	0.493701
H	390.045	1.94342	1.45216
H	389.902	2.71392	-0.176945
H	388.425	2.19839	0.711941
N	391.623	0.836967	-1.41102
C	392.989	0.531886	-1.76857
H	391.167	1.57819	-1.89287
H	393.346	1.21159	-2.57341
H	393.074	-0.517617	-2.13256
H	393.661	0.647731	-0.887715
