44
  This energy is 0 and Call times are: 213477
C	1.87451	2.17829	1.96315
C	1.62283	1.45363	0.697189
O	2.24806	1.72026	-0.319865
H	2.65904	2.94801	1.79604
H	2.22461	1.4722	2.74521
H	0.945982	2.68048	2.30774
N	0.683039	0.506039	0.732545
C	0.296697	-0.254349	-0.429827
C	-1.15263	-0.670335	-0.262629
O	-1.73872	-0.496398	0.804123
H	0.154074	0.328557	1.55751
H	0.351261	0.379817	-1.30589
C	1.19975	-1.49529	-0.602462
H	1.13601	-2.15151	0.291602
H	0.921139	-2.0816	-1.50199
H	2.25627	-1.16753	-0.715057
N	-1.77011	-1.22589	-1.32381
C	-3.14999	-1.64781	-1.25992
H	-1.28049	-1.35469	-2.17983
H	-3.47479	-2.07908	-2.23241
H	-3.8136	-0.785717	-1.01975
H	-3.28848	-2.42074	-0.469632
C	858.289	-2.86625	1.38024
C	858.396	-1.85463	0.304974
O	857.841	-2.01516	-0.773066
H	857.674	-3.71995	1.02113
H	857.802	-2.42378	2.27461
H	859.297	-3.24058	1.65581
N	859.128	-0.772504	0.579371
C	859.36	0.277416	-0.38103
C	860.697	0.921053	-0.0644055
O	861.302	0.641477	0.96907
H	859.608	-0.675209	1.44676
H	859.437	-0.154572	-1.37106
C	858.229	1.32777	-0.334302
H	858.157	1.77883	0.678327
H	858.389	2.13428	-1.07891
H	857.259	0.833126	-0.56112
N	861.196	1.79805	-0.957693
C	862.464	2.45586	-0.743995
H	860.694	2.00835	-1.79013
H	862.701	3.13831	-1.58991
H	863.285	1.70766	-0.657283
H	862.443	3.05521	0.194863
