44
  This energy is 0 and Call times are: 202725
C	2.99538	0.686957	1.63355
C	1.56287	0.314127	1.64056
O	1.01947	-0.0920045	2.6585
H	3.42451	0.515402	2.64463
H	3.11034	1.75978	1.37165
H	3.54888	0.0657715	0.898118
N	0.910099	0.444307	0.48327
C	-0.475842	0.0808039	0.323294
C	-0.694385	-0.325865	-1.12184
O	0.184456	-0.153805	-1.96431
H	1.37611	0.737329	-0.346695
H	-0.691512	-0.784238	0.937964
C	-1.40197	1.25774	0.700588
H	-1.18829	2.14209	0.0631617
H	-2.47221	0.98584	0.594837
H	-1.21927	1.54364	1.75947
N	-1.87734	-0.886593	-1.44156
C	-2.1731	-1.31021	-2.79036
H	-2.57449	-1.02136	-0.745214
H	-3.1945	-1.7465	-2.85049
H	-1.44262	-2.08011	-3.12934
H	-2.11779	-0.448311	-3.49408
C	89.3733	2.2441	1.28963
C	90.4363	1.87858	0.32651
O	90.6734	2.5767	-0.649617
H	88.8797	3.18177	0.95348
H	89.8099	2.40899	2.29708
H	88.6124	1.43713	1.34426
N	91.1093	0.754664	0.583795
C	92.1423	0.246933	-0.284376
C	92.1838	-1.26248	-0.137643
O	91.5336	-1.82812	0.739235
H	90.8773	0.175539	1.36009
H	91.883	0.463997	-1.31309
C	93.5133	0.86337	0.0701713
H	93.7846	0.632034	1.12226
H	94.3146	0.490789	-0.600285
H	93.4573	1.96874	-0.0364496
N	92.9489	-1.95418	-1.00495
C	93.0459	-3.39405	-0.945511
H	93.4646	-1.4791	-1.71025
H	93.7224	-3.77584	-1.74168
H	92.0439	-3.86124	-1.08321
H	93.4464	-3.72062	0.0414637
