44
  This energy is -5.7269 and Call times are: 219895
C	0.713048	2.46997	2.34595
C	0.275799	2.0393	0.998927
O	-0.220999	2.83231	0.21106
H	0.494756	3.55244	2.47434
H	1.80494	2.30707	2.46416
H	0.167634	1.89838	3.12627
N	0.452338	0.749764	0.701772
C	0.0375386	0.173696	-0.553077
C	-0.282273	-1.29064	-0.318539
O	-0.0151277	-1.82971	0.753722
H	0.820452	0.107992	1.36847
H	-0.87514	0.654449	-0.882509
C	1.14363	0.322113	-1.62068
H	2.07696	-0.179991	-1.28779
H	0.830913	-0.105308	-2.59538
H	1.36695	1.40105	-1.77022
N	-0.873874	-1.96978	-1.32093
C	-1.22045	-3.36553	-1.18694
H	-1.08593	-1.51528	-2.17973
H	-1.69783	-3.74332	-2.11786
H	-1.93225	-3.51421	-0.342838
H	-0.31232	-3.97836	-0.984747
C	997.374	0.669274	2.45528
C	995.995	0.33681	2.03195
O	995.15	-0.0126677	2.84474
H	997.465	0.52691	3.55403
H	997.605	1.72704	2.2095
H	998.102	0.00379649	1.94499
N	995.734	0.438122	0.726524
C	994.451	0.106938	0.15847
C	994.671	-0.351599	-1.27088
O	995.772	-0.238108	-1.8065
H	996.444	0.684357	0.072025
H	994.024	-0.726256	0.702461
C	993.501	1.32333	0.196798
H	993.934	2.17495	-0.370026
H	992.505	1.0771	-0.225212
H	993.361	1.64663	1.25142
N	993.623	-0.891845	-1.92242
C	993.739	-1.36127	-3.28342
H	992.741	-0.979017	-1.4709
H	992.769	-1.77122	-3.64209
H	994.507	-2.16417	-3.35776
H	994.04	-0.530382	-3.96139
