44
  This energy is 0 and Call times are: 215017
C	2.69817	-0.143696	-2.1936
C	1.92376	0.522156	-1.12212
O	2.38162	1.47743	-0.510374
H	3.68822	0.351987	-2.29349
H	2.15827	-0.0661885	-3.16068
H	2.85579	-1.21401	-1.94323
N	0.71281	0.0215755	-0.866415
C	-0.140483	0.535558	0.175828
C	-1.02459	-0.596321	0.664449
O	-1.05464	-1.67296	0.0714441
H	0.370459	-0.781983	-1.34491
H	0.469193	0.852916	1.01261
C	-1.00028	1.70871	-0.343495
H	-1.63371	1.38097	-1.19519
H	-1.65167	2.12222	0.453515
H	-0.332683	2.52192	-0.70315
N	-1.76352	-0.379792	1.7704
C	-2.63014	-1.40036	2.31224
H	-1.7227	0.496568	2.2388
H	-3.15195	-1.03064	3.22232
H	-2.04449	-2.30711	2.58807
H	-3.39937	-1.7005	1.56435
C	967.055	-2.19675	-0.540988
C	967.697	-1.08743	0.19947
O	967.069	-0.418796	1.00828
H	965.986	-2.26593	-0.244449
H	967.557	-3.15768	-0.301857
H	967.114	-2.01142	-1.63429
N	968.986	-0.863121	-0.0676787
C	969.735	0.207793	0.541365
C	970.83	0.626616	-0.421642
O	971.063	-0.0303874	-1.4344
H	969.473	-1.38949	-0.758578
H	969.085	1.06257	0.682698
C	970.341	-0.240168	1.8892
H	971.016	-1.11048	1.74324
H	970.909	0.580006	2.37474
H	969.523	-0.549636	2.57522
N	971.526	1.74321	-0.129961
C	972.582	2.22189	-0.990598
H	971.32	2.26374	0.692036
H	973.033	3.15236	-0.58006
H	972.189	2.44275	-2.00944
H	973.386	1.45679	-1.089
