44
  This energy is 0 and Call times are: 202305
C	0.939645	-2.14389	2.57555
C	1.2389	-1.36919	1.35023
O	2.38921	-1.21633	0.963131
H	1.89132	-2.49999	3.02654
H	0.308279	-3.02297	2.32788
H	0.409796	-1.50444	3.31274
N	0.191063	-0.852802	0.703891
C	0.326458	-0.0396165	-0.478884
C	-0.850851	0.915645	-0.533415
O	-1.79424	0.797657	0.246206
H	-0.736121	-0.951299	1.05389
H	1.2248	0.559797	-0.399371
C	0.371347	-0.916749	-1.74926
H	-0.554674	-1.52408	-1.83687
H	0.489369	-0.30303	-2.66575
H	1.23564	-1.61323	-1.68401
N	-0.818174	1.89621	-1.45724
C	-1.8912	2.85524	-1.5799
H	-0.044329	1.97799	-2.07656
H	-1.67887	3.58073	-2.39586
H	-2.02044	3.42362	-0.630419
H	-2.85308	2.34175	-1.80852
C	64.8696	0.102633	-1.43381
C	63.5915	-0.586059	-1.14518
O	63.2924	-1.62863	-1.71088
H	65.4268	-0.466884	-2.20909
H	65.4897	0.159526	-0.514602
H	64.6747	1.12831	-1.81205
N	62.7953	-0.00628581	-0.243889
C	61.5014	-0.53478	0.109765
C	60.6202	0.621878	0.542454
O	61.0914	1.74574	0.705792
H	63.0341	0.86373	0.177907
H	61.0449	-0.97788	-0.766503
C	61.6222	-1.57697	1.24312
H	62.0808	-1.12015	2.14588
H	60.634	-2.00152	1.51498
H	62.2776	-2.41005	0.907334
N	59.3093	0.372783	0.730982
C	58.3932	1.4127	1.13763
H	58.946	-0.542169	0.589883
H	57.3612	1.01015	1.23893
H	58.376	2.23638	0.387604
H	58.699	1.84475	2.1179
