44
  This energy is 0 and Call times are: 213057
C	-3.4465	0.216437	-0.432995
C	-2.12162	-0.343107	-0.783367
O	-2.01945	-1.31489	-1.5193
H	-4.24147	-0.389741	-0.919262
H	-3.52549	1.265	-0.789395
H	-3.59516	0.187962	0.667087
N	-1.06005	0.268025	-0.252365
C	0.29111	-0.186933	-0.466674
C	1.12003	0.20701	0.741319
O	0.65915	0.949164	1.60648
H	-1.16121	1.03272	0.377616
H	0.299003	-1.26824	-0.524566
C	0.882932	0.428639	-1.75355
H	0.884783	1.53771	-1.69032
H	1.91826	0.0751511	-1.93705
H	0.256041	0.133866	-2.6233
N	2.36872	-0.29153	0.832323
C	3.22902	0.0238235	1.94884
H	2.72255	-0.893748	0.124361
H	4.21392	-0.48182	1.8415
H	2.76708	-0.308364	2.90672
H	3.40369	1.12227	2.01247
C	832.598	-1.87444	0.450267
C	831.415	-1.47444	-0.344488
O	831.296	-1.80935	-1.515
H	833.288	-2.46587	-0.190186
H	832.285	-2.49842	1.31389
H	833.133	-0.974231	0.819288
N	830.499	-0.734077	0.285217
C	829.316	-0.233109	-0.368305
C	828.906	1.05588	0.318729
O	829.45	1.4147	1.36108
H	830.63	-0.435053	1.22618
H	829.552	0.0104147	-1.39675
C	828.171	-1.26791	-0.305617
H	827.922	-1.51018	0.749425
H	827.259	-0.899463	-0.817555
H	828.496	-2.20554	-0.807188
N	827.935	1.79068	-0.258563
C	827.483	3.0345	0.320148
H	827.509	1.48594	-1.10409
H	826.68	3.48883	-0.301568
H	828.324	3.76194	0.393382
H	827.081	2.86766	1.34549
