44
  This energy is 0 and Call times are: 212441
C	0.0843338	0.234106	3.47142
C	0.753724	0.179228	2.15231
O	1.94521	0.430767	2.03616
H	0.821608	0.540613	4.24496
H	-0.320721	-0.764993	3.73689
H	-0.74303	0.974451	3.4502
N	-0.0126365	-0.154702	1.11137
C	0.486214	-0.208223	-0.240236
C	-0.665158	0.0914527	-1.18156
O	-1.81878	0.163797	-0.762479
H	-0.989759	-0.316694	1.21557
H	1.22688	0.569512	-0.378711
C	1.09222	-1.59457	-0.550144
H	0.329894	-2.39179	-0.418439
H	1.49234	-1.644	-1.58358
H	1.92743	-1.7961	0.155652
N	-0.374869	0.282198	-2.48363
C	-1.40473	0.577681	-3.45227
H	0.56514	0.223687	-2.80305
H	-0.966436	0.700573	-4.46717
H	-1.9376	1.51871	-3.18434
H	-2.15513	-0.244818	-3.49143
C	788.169	-0.662645	-2.36124
C	787.043	-1.08651	-1.49955
O	786.518	-2.18264	-1.63786
H	788.394	-1.46738	-3.09466
H	789.074	-0.475971	-1.74465
H	787.902	0.262596	-2.91371
N	786.639	-0.210291	-0.576626
C	785.528	-0.462556	0.306586
C	784.908	0.870846	0.678632
O	785.457	1.92794	0.374228
H	787.05	0.694104	-0.503289
H	784.774	-1.03303	-0.221626
C	785.99	-1.21695	1.57265
H	786.756	-0.627349	2.12055
H	785.141	-1.42935	2.25432
H	786.448	-2.18576	1.27602
N	783.735	0.851233	1.34325
C	783.068	2.07083	1.73414
H	783.304	-0.0139801	1.57712
H	782.119	1.84556	2.26953
H	782.827	2.69066	0.840204
H	783.716	2.67525	2.40877
