44
  This energy is 0 and Call times are: 214289
C	2.16815	1.67953	2.14266
C	1.47767	0.452169	1.68663
O	1.79541	-0.648943	2.11442
H	2.96572	1.40477	2.86672
H	1.44781	2.36051	2.64278
H	2.63127	2.20148	1.27884
N	0.502064	0.618249	0.790531
C	-0.231438	-0.484704	0.221296
C	-0.695277	-0.0790167	-1.165
O	-0.57332	1.08037	-1.55573
H	0.282444	1.51669	0.421166
H	0.432054	-1.33247	0.104209
C	-1.43891	-0.860411	1.10792
H	-2.12529	0.00586009	1.2197
H	-2.00381	-1.71748	0.687392
H	-1.07659	-1.1461	2.11957
N	-1.23425	-1.03393	-1.94838
C	-1.69862	-0.742357	-3.28462
H	-1.32078	-1.9673	-1.61611
H	-2.10765	-1.65726	-3.76719
H	-0.864739	-0.356671	-3.91482
H	-2.50045	0.0307637	-3.26212
C	915.789	1.13956	-2.6764
C	916.964	0.429045	-2.12294
O	917.686	-0.252309	-2.83752
H	915.708	0.923167	-3.76379
H	915.903	2.23496	-2.5355
H	914.862	0.796597	-2.17136
N	917.182	0.573617	-0.813834
C	918.26	-0.0904112	-0.12401
C	917.837	-0.307429	1.31665
O	916.809	0.205219	1.75521
H	916.562	1.09834	-0.237793
H	918.418	-1.06699	-0.564395
C	919.556	0.748317	-0.187497
H	919.397	1.74644	0.27364
H	920.397	0.241184	0.328273
H	919.842	0.901335	-1.25094
N	918.622	-1.08516	2.08835
C	918.296	-1.35245	3.46993
H	919.447	-1.49456	1.71442
H	919.062	-2.01194	3.93399
H	917.306	-1.85602	3.54972
H	918.25	-0.404454	4.05326
