44
  This energy is 0.1038 and Call times are: 221485
C	2.96855	1.8167	-0.00444922
C	2.21261	0.555739	0.167839
O	2.78839	-0.51908	0.266075
H	4.05645	1.59077	-0.0403629
H	2.77147	2.50054	0.84776
H	2.67319	2.31343	-0.952666
N	0.882343	0.661859	0.206525
C	0.0110079	-0.480502	0.326298
C	-1.30631	-0.143169	-0.346343
O	-1.54452	1.00172	-0.726078
H	0.426706	1.53895	0.0841453
H	0.442282	-1.31653	-0.210069
C	-0.216561	-0.847718	1.80907
H	-0.668738	0.00604309	2.3574
H	-0.874799	-1.7344	1.91419
H	0.761321	-1.08298	2.28314
N	-2.19471	-1.14189	-0.51759
C	-3.47228	-0.916494	-1.15256
H	-1.98224	-2.06258	-0.20735
H	-4.05973	-1.85983	-1.2
H	-3.33336	-0.53755	-2.19101
H	-4.06505	-0.162164	-0.586214
C	997.232	-2.91624	-1.75265
C	997.644	-1.6817	-1.04703
O	998.814	-1.48002	-0.754289
H	998.125	-3.55767	-1.92099
H	996.781	-2.66325	-2.73504
H	996.496	-3.47886	-1.14149
N	996.672	-0.815113	-0.751808
C	996.911	0.409624	-0.029619
C	995.646	0.76642	0.727816
O	994.6	0.149132	0.533769
H	995.718	-1.01216	-0.960238
H	997.691	0.245663	0.703783
C	997.305	1.55041	-0.993208
H	996.501	1.7261	-1.73929
H	997.505	2.4954	-0.447757
H	998.229	1.2643	-1.5424
N	995.715	1.77317	1.62097
C	994.563	2.1795	2.39223
H	996.57	2.2581	1.76707
H	994.821	3.02234	3.07052
H	994.187	1.3335	3.01203
H	993.737	2.50966	1.72129
