44
  This energy is 0 and Call times are: 203313
C	1.95682	-1.43299	-2.49601
C	1.03859	-1.53609	-1.33957
O	0.523615	-2.60259	-1.03332
H	2.04818	-2.42848	-2.98235
H	2.96217	-1.10438	-2.15832
H	1.55998	-0.706506	-3.23617
N	0.80839	-0.408868	-0.662248
C	-0.0948077	-0.342513	0.459532
C	-0.660215	1.06356	0.528999
O	-0.210214	1.9592	-0.183068
H	1.20279	0.459709	-0.948407
H	-0.925452	-1.01617	0.2897
C	0.63184	-0.699519	1.77474
H	1.4776	-0.00216821	1.9548
H	-0.0562862	-0.665506	2.64414
H	1.04424	-1.7293	1.69832
N	-1.67297	1.28846	1.3891
C	-2.27794	2.59349	1.51984
H	-2.02631	0.550115	1.95396
H	-3.09287	2.57514	2.27666
H	-2.7097	2.92543	0.547894
H	-1.52151	3.34739	1.83701
C	136.826	1.52477	-0.134571
C	135.824	0.558232	-0.638907
O	135.978	-0.010772	-1.71088
H	137.648	1.62184	-0.875952
H	137.25	1.16941	0.828136
H	136.356	2.52006	0.0134962
N	134.757	0.350353	0.136112
C	133.678	-0.528493	-0.240193
C	132.407	-0.0260334	0.41867
O	132.446	0.870921	1.25873
H	134.627	0.851665	0.986674
H	133.53	-0.473431	-1.31142
C	133.974	-1.98155	0.191568
H	134.116	-2.04032	1.29176
H	133.157	-2.67043	-0.104858
H	134.912	-2.32559	-0.296131
N	131.243	-0.591269	0.043563
C	129.982	-0.174053	0.61211
H	131.232	-1.31288	-0.640711
H	129.142	-0.75695	0.175251
H	129.8	0.906851	0.41279
H	129.979	-0.326945	1.71563
