44
  This energy is 0 and Call times are: 209641
C	2.79385	2.0423	0.36889
C	2.15994	0.753126	0.012069
O	2.79033	-0.12528	-0.560136
H	3.84973	2.04111	0.0210351
H	2.77837	2.1846	1.46991
H	2.25548	2.88166	-0.119706
N	0.875256	0.610906	0.346351
C	0.111417	-0.569486	0.0273167
C	-1.34345	-0.16573	-0.120646
O	-1.71804	0.963963	0.187893
H	0.364391	1.3505	0.775175
H	0.437254	-0.958044	-0.929492
C	0.266612	-1.64133	1.12836
H	-0.0773872	-1.24671	2.10815
H	-0.305802	-2.56051	0.887583
H	1.33981	-1.91578	1.22471
N	-2.20082	-1.08421	-0.607826
C	-3.60299	-0.788518	-0.788566
H	-1.87815	-1.99167	-0.855751
H	-4.14119	-1.67093	-1.19956
H	-3.737	0.0634798	-1.49384
H	-4.07439	-0.510773	0.181888
C	588.538	1.34446	-1.50078
C	587.271	0.580954	-1.55804
O	586.763	0.277093	-2.62851
H	588.877	1.57192	-2.53487
H	589.322	0.747467	-0.988942
H	588.385	2.2991	-0.954573
N	586.723	0.25101	-0.385981
C	585.47	-0.453911	-0.280379
C	584.813	-0.0565325	1.02785
O	585.422	0.610505	1.86178
H	587.127	0.540906	0.476897
H	584.813	-0.136803	-1.08082
C	585.69	-1.98163	-0.33361
H	586.356	-2.30891	0.49365
H	584.731	-2.53535	-0.267163
H	586.18	-2.24861	-1.29574
N	583.542	-0.453129	1.2346
C	582.833	-0.117385	2.44747
H	583.064	-0.988795	0.54629
H	581.801	-0.533566	2.42829
H	582.762	0.987954	2.56815
H	583.361	-0.528995	3.33799
