44
  This energy is 0 and Call times are: 210369
C	-3.29793	-0.507626	0.989261
C	-1.91377	-0.985832	0.773494
O	-1.5434	-2.06841	1.20623
H	-3.85831	-1.26118	1.58425
H	-3.81027	-0.366132	0.0144632
H	-3.28841	0.453926	1.54462
N	-1.1051	-0.173335	0.0891888
C	0.280412	-0.481854	-0.163278
C	1.04081	0.824953	-0.288172
O	0.443861	1.89868	-0.337912
H	-1.40934	0.722724	-0.221269
H	0.688953	-1.01273	0.687542
C	0.432884	-1.32216	-1.45009
H	0.0234554	-0.773578	-2.32499
H	1.494	-1.57797	-1.64788
H	-0.137991	-2.26989	-1.33932
N	2.38626	0.763628	-0.333497
C	3.1939	1.95576	-0.446231
H	2.85143	-0.114209	-0.287786
H	4.27556	1.69739	-0.467774
H	3.01315	2.63579	0.417582
H	2.94713	2.51084	-1.38011
C	635.544	-0.148098	2.7282
C	636.663	-0.684438	1.92044
O	637.37	-1.58941	2.34101
H	635.507	-0.680113	3.70363
H	634.581	-0.302468	2.19813
H	635.693	0.936225	2.91566
N	636.851	-0.126008	0.722445
C	637.924	-0.511739	-0.159101
C	638.288	0.687573	-1.01383
O	637.594	1.70247	-1.00332
H	636.292	0.63745	0.410984
H	638.797	-0.764838	0.430117
C	637.507	-1.70358	-1.04821
H	636.618	-1.44088	-1.66066
H	638.33	-2.01894	-1.72184
H	637.237	-2.56702	-0.401639
N	639.399	0.600542	-1.77267
C	639.827	1.69371	-2.61402
H	639.95	-0.227424	-1.76471
H	640.76	1.42899	-3.15818
H	640.023	2.60514	-2.00412
H	639.042	1.94297	-3.36433
