44
  This energy is 0 and Call times are: 202333
C	-1.27007	0.204322	3.23386
C	-0.300433	0.598682	2.18723
O	0.450659	1.55097	2.34665
H	-1.18569	0.902755	4.09465
H	-1.05555	-0.826789	3.58534
H	-2.3049	0.250457	2.83376
N	-0.29769	-0.137094	1.07323
C	0.558907	0.150236	-0.0502649
C	-0.130674	-0.341801	-1.30881
O	-1.15234	-1.02257	-1.24203
H	-0.943254	-0.883931	0.941518
H	0.676249	1.22257	-0.144962
C	1.93424	-0.532492	0.11579
H	1.81523	-1.63357	0.202404
H	2.60782	-0.307481	-0.736376
H	2.4171	-0.163518	1.04695
N	0.411698	0.00119143	-2.49381
C	-0.178093	-0.416637	-3.7443
H	1.23636	0.556049	-2.5276
H	0.413493	-0.0344829	-4.60524
H	-1.21931	-0.0309232	-3.83577
H	-0.214724	-1.52818	-3.80961
C	60.5212	0.534927	1.31231
C	61.4305	0.216074	0.18862
O	60.9974	-0.19351	-0.879557
H	59.4732	0.323347	1.00804
H	60.6075	1.60861	1.58158
H	60.7718	-0.088907	2.19613
N	62.7344	0.398191	0.410281
C	63.7439	0.0908864	-0.572089
C	65.0216	-0.272755	0.16053
O	65.1178	-0.113789	1.37593
H	63.0748	0.693199	1.29851
H	63.4379	-0.779843	-1.13846
C	63.9823	1.29244	-1.51268
H	64.3064	2.18307	-0.933265
H	64.7476	1.0635	-2.28233
H	63.0324	1.54597	-2.03211
N	66.0362	-0.780908	-0.566394
C	67.2882	-1.16087	0.0453838
H	65.9381	-0.905954	-1.54813
H	67.9944	-1.55696	-0.717302
H	67.1257	-1.94936	0.815547
H	67.7643	-0.28514	0.542994
