44
  This energy is 0 and Call times are: 202193
C	-3.30938	0.16512	1.06461
C	-2.24313	-0.39817	0.206153
O	-2.43568	-1.40214	-0.4657
H	-4.21831	-0.470108	0.9858
H	-3.56125	1.19524	0.735747
H	-2.97661	0.186442	2.12381
N	-1.07404	0.24648	0.211949
C	0.0707989	-0.205786	-0.538622
C	1.32247	0.251275	0.186621
O	1.25152	1.02865	1.13656
H	-0.919738	1.03867	0.795462
H	0.0835195	-1.2885	-0.552988
C	0.0435849	0.354636	-1.97752
H	0.0411774	1.46542	-1.96352
H	0.912774	0.00232101	-2.56989
H	-0.884518	0.0141603	-2.48649
N	2.50524	-0.231262	-0.242605
C	3.74871	0.14333	0.389574
H	2.54205	-0.862513	-1.01022
H	4.60879	-0.357886	-0.106681
H	3.74606	-0.14814	1.46489
H	3.90319	1.24507	0.330903
C	51.125	-2.0741	-1.08627
C	51.9518	-0.85202	-1.20442
O	51.8971	-0.144633	-2.20093
H	50.5237	-2.20171	-2.01259
H	50.4361	-1.98781	-0.219759
H	51.775	-2.96466	-0.954247
N	52.7515	-0.574456	-0.172019
C	53.646	0.556112	-0.159065
C	54.8318	0.210993	0.722153
O	54.8311	-0.809789	1.40751
H	52.8152	-1.18193	0.614597
H	54.0254	0.722944	-1.1595
C	52.9305	1.81981	0.366512
H	52.5503	1.65273	1.39685
H	53.6049	2.70053	0.368281
H	52.0618	2.04892	-0.288665
N	55.8812	1.05639	0.717651
C	57.0559	0.807329	1.52024
H	55.8649	1.87516	0.153367
H	57.8071	1.61552	1.37935
H	57.5267	-0.161938	1.23718
H	56.7906	0.759565	2.60119
