44
  This energy is 0 and Call times are: 212665
C	-0.775137	-0.735429	-3.31225
C	-0.614185	-1.12661	-1.89372
O	-1.01257	-2.20915	-1.48652
H	-1.29924	-1.54839	-3.86024
H	0.218727	-0.570226	-3.77882
H	-1.37743	0.194508	-3.38679
N	-0.0179652	-0.236836	-1.09673
C	0.171041	-0.456802	0.315516
C	0.187498	0.893685	1.00651
O	0.217193	1.93497	0.353396
H	0.264063	0.656788	-1.43402
H	-0.673917	-1.00929	0.707227
C	1.48752	-1.21844	0.583897
H	2.35566	-0.64707	0.191592
H	1.63767	-1.40613	1.66683
H	1.45655	-2.19995	0.0623377
N	0.159878	0.907097	2.35376
C	0.167266	2.14513	3.09767
H	0.131859	0.0542876	2.86464
H	0.140638	1.94664	4.1918
H	-0.717829	2.76781	2.8328
H	1.08472	2.73482	2.87032
C	798.497	1.0275	0.892063
C	799.428	0.263036	0.032058
O	799.015	-0.567314	-0.765953
H	797.454	0.699919	0.686808
H	798.581	2.11345	0.676828
H	798.727	0.844118	1.96282
N	800.728	0.53006	0.180474
C	801.756	-0.162828	-0.554817
C	803.017	-0.170043	0.288523
O	803.089	0.495044	1.32015
H	801.051	1.17924	0.863186
H	801.459	-1.19402	-0.699356
C	802.018	0.520986	-1.91462
H	802.333	1.57585	-1.76647
H	802.798	-0.0113296	-2.49627
H	801.08	0.521975	-2.5116
N	804.045	-0.93488	-0.129844
C	805.283	-1.00878	0.610821
H	803.966	-1.46919	-0.964989
H	806.003	-1.68947	0.105912
H	805.101	-1.39201	1.64117
H	805.751	-0.00157189	0.694528
