44
  This energy is 0 and Call times are: 205721
C	2.94165	-1.32063	1.30971
C	2.20314	-0.293611	0.540951
O	2.73975	0.753087	0.204966
H	3.9739	-0.95893	1.5085
H	2.99748	-2.26595	0.730078
H	2.43468	-1.51108	2.27915
N	0.932527	-0.574953	0.243026
C	0.0740612	0.343672	-0.46247
C	-1.35622	0.0816394	-0.0298148
O	-1.6358	-0.895051	0.662736
H	0.497583	-1.4134	0.558786
H	0.318832	1.35731	-0.170473
C	0.217929	0.170518	-1.9904
H	-0.0432381	-0.866305	-2.29177
H	-0.427829	0.881837	-2.54496
H	1.27385	0.359162	-2.28331
N	-2.29958	0.95942	-0.424277
C	-3.6865	0.7948	-0.0561163
H	-2.05331	1.74591	-0.98092
H	-4.30522	1.61833	-0.475883
H	-3.80195	0.799525	1.052
H	-4.08299	-0.172806	-0.4404
C	305.437	-0.313833	-3.45615
C	304.878	0.0489986	-2.13423
O	303.825	0.663448	-2.03924
H	304.768	0.0719407	-4.25594
H	305.51	-1.41765	-3.5506
H	306.444	0.135775	-3.58233
N	305.586	-0.328234	-1.06702
C	305.193	-0.0103271	0.283097
C	306.446	0.0756823	1.13311
O	307.537	-0.271784	0.683928
H	306.462	-0.791948	-1.16148
H	304.725	0.966221	0.298369
C	304.231	-1.08041	0.843929
H	304.714	-2.08071	0.83828
H	303.91	-0.839687	1.8781
H	303.324	-1.13159	0.201958
N	306.32	0.552253	2.38727
C	307.459	0.675367	3.26742
H	305.43	0.832232	2.73149
H	307.15	1.08655	4.25392
H	308.223	1.3558	2.82756
H	307.935	-0.317566	3.43464
