44
  This energy is 0 and Call times are: 203705
C	2.01077	-2.47775	-1.38933
C	1.76135	-1.07522	-0.98702
O	2.6631	-0.24865	-0.980543
H	3.08707	-2.60263	-1.63808
H	1.4034	-2.73335	-2.28292
H	1.75198	-3.16628	-0.557441
N	0.509775	-0.772628	-0.634362
C	0.122413	0.539112	-0.178457
C	-1.05831	0.383641	0.76137
O	-1.62312	-0.700991	0.88898
H	-0.204585	-1.46597	-0.605474
H	0.933985	0.97305	0.392227
C	-0.249596	1.44949	-1.36928
H	-1.08914	1.00994	-1.94894
H	-0.536381	2.46666	-1.03218
H	0.626401	1.54258	-2.04774
N	-1.45522	1.47069	1.45188
C	-2.56594	1.41671	2.37361
H	-0.983086	2.3386	1.33829
H	-2.73637	2.41076	2.84269
H	-2.36931	0.676461	3.1827
H	-3.49936	1.11267	1.8469
C	162.528	2.10032	2.64889
C	162.207	1.86542	1.22288
O	161.978	2.79693	0.463798
H	162.497	3.1919	2.85716
H	163.544	1.71839	2.88089
H	161.784	1.58995	3.29704
N	162.182	0.592135	0.822254
C	161.844	0.203789	-0.524475
C	161.231	-1.18292	-0.477094
O	161.244	-1.8424	0.560503
H	162.331	-0.157251	1.4612
H	161.09	0.877181	-0.911893
C	163.095	0.212044	-1.43102
H	163.865	-0.486531	-1.03981
H	162.845	-0.0718667	-2.47395
H	163.532	1.23446	-1.44443
N	160.668	-1.65628	-1.60601
C	160.054	-2.96317	-1.65434
H	160.663	-1.10622	-2.43456
H	159.648	-3.16958	-2.66892
H	159.218	-3.03221	-0.921109
H	160.797	-3.75532	-1.40629
