44
  This energy is 0 and Call times are: 203509
C	-1.41146	-1.69322	2.69323
C	-0.612222	-1.66195	1.44768
O	0.047061	-2.62982	1.09416
H	-1.27748	-2.6782	3.19097
H	-2.48787	-1.55143	2.4609
H	-1.07412	-0.892392	3.38459
N	-0.652712	-0.527555	0.744911
C	0.10575	-0.331254	-0.465362
C	0.406893	1.14955	-0.599888
O	-0.117511	1.96965	0.151213
H	-1.16141	0.265863	1.06675
H	1.05418	-0.846862	-0.380163
C	-0.67778	-0.838441	-1.69584
H	-1.6462	-0.302357	-1.78974
H	-0.0985406	-0.705505	-2.6325
H	-0.894063	-1.92207	-1.5721
N	1.27168	1.52687	-1.56208
C	1.62295	2.91364	-1.76121
H	1.68897	0.848244	-2.1574
H	2.347	3.01953	-2.59892
H	2.08703	3.33729	-0.841201
H	0.718154	3.51776	-2.00106
C	150.984	-0.074841	1.14956
C	149.984	0.0940353	0.0710119
O	150.304	0.533801	-1.0249
H	151.977	0.268269	0.786759
H	151.057	-1.14408	1.43964
H	150.697	0.529555	2.03569
N	148.73	-0.25599	0.364478
C	147.64	-0.108792	-0.567469
C	146.363	0.0968814	0.22633
O	146.351	-0.0461436	1.44744
H	148.478	-0.573865	1.27401
H	147.797	0.782114	-1.16273
C	147.518	-1.35229	-1.47534
H	147.347	-2.26505	-0.865787
H	146.691	-1.24526	-2.20666
H	148.466	-1.48798	-2.04055
N	145.254	0.448132	-0.453402
C	143.995	0.670697	0.218122
H	145.285	0.563077	-1.44079
H	143.204	0.951423	-0.511981
H	144.088	1.49097	0.966255
H	143.667	-0.249468	0.753839
