44
  This energy is 0 and Call times are: 211657
C	-2.82732	-2.0204	-0.192169
C	-1.39334	-1.81089	0.109401
O	-0.739135	-2.66154	0.696605
H	-3.14642	-3.00729	0.207962
H	-2.9935	-2.0069	-1.28987
H	-3.43868	-1.22493	0.283834
N	-0.865866	-0.651712	-0.29118
C	0.504465	-0.286307	-0.0318929
C	0.583123	1.22651	0.0503469
O	-0.381226	1.92488	-0.256279
H	-1.42121	0.0478565	-0.731712
H	0.802116	-0.67771	0.932907
C	1.43671	-0.817392	-1.1428
H	1.13826	-0.40782	-2.13134
H	2.49651	-0.554398	-0.947412
H	1.35692	-1.92542	-1.19026
N	1.73982	1.77018	0.47755
C	1.90553	3.20034	0.593224
H	2.50763	1.18855	0.725028
H	2.92527	3.4496	0.960946
H	1.16229	3.62549	1.30604
H	1.75829	3.69424	-0.394461
C	728.012	2.80019	1.19281
C	729.16	2.164	0.508199
O	729.984	2.83277	-0.0999934
H	728.052	3.89942	1.0316
H	728.055	2.59508	2.28314
H	727.057	2.41065	0.78107
N	729.238	0.833873	0.59215
C	730.274	0.0699194	-0.0578469
C	729.72	-1.30722	-0.371051
O	728.628	-1.66208	0.0696606
H	728.537	0.299871	1.05621
H	730.525	0.53876	-1.00111
C	731.524	-0.0412484	0.841569
H	731.269	-0.531694	1.80517
H	732.334	-0.615541	0.346564
H	731.908	0.978328	1.06442
N	730.462	-2.11679	-1.1523
C	730.013	-3.44283	-1.50801
H	731.34	-1.81034	-1.50276
H	730.761	-3.95062	-2.15565
H	729.046	-3.39557	-2.06001
H	729.86	-4.06376	-0.595833
