44
  This energy is 0 and Call times are: 211265
C	2.61865	1.40599	-1.81068
C	1.23307	0.895772	-1.70582
O	0.421533	1.07887	-2.60264
H	2.73785	1.95011	-2.77277
H	3.34017	0.562558	-1.78304
H	2.83382	2.10381	-0.974124
N	0.927157	0.234784	-0.586937
C	-0.391885	-0.283332	-0.321905
C	-0.596179	-0.310506	1.18112
O	0.338398	-0.0861106	1.94788
H	1.58675	0.129307	0.151767
H	-1.13063	0.3917	-0.735697
C	-0.558363	-1.69888	-0.916667
H	0.192508	-2.39429	-0.484649
H	-1.57455	-2.10323	-0.73124
H	-0.396744	-1.65642	-2.01595
N	-1.83466	-0.579783	1.63904
C	-2.12515	-0.621619	3.05327
H	-2.57894	-0.754675	1.00302
H	-3.19795	-0.858149	3.22755
H	-1.9009	0.360301	3.52953
H	-1.50786	-1.39934	3.55849
C	699.811	-1.43679	2.54548
C	701.04	-0.779949	2.04666
O	701.895	-0.367495	2.8182
H	699.828	-1.45202	3.65693
H	699.757	-2.48118	2.17253
H	698.914	-0.876794	2.20735
N	701.155	-0.664842	0.721586
C	702.274	-0.0110941	0.0890386
C	701.8	0.564641	-1.23211
O	700.684	0.294975	-1.67248
H	700.432	-0.968709	0.108091
H	702.598	0.818683	0.704898
C	703.436	-1.0026	-0.138202
H	703.107	-1.84866	-0.77866
H	704.309	-0.507996	-0.612115
H	703.761	-1.41732	0.840831
N	702.64	1.38372	-1.89466
C	702.273	1.98284	-3.15667
H	703.538	1.59334	-1.52032
H	703.097	2.62332	-3.54212
H	701.363	2.61443	-3.0417
H	702.055	1.19737	-3.91596
