44
  This energy is 0 and Call times are: 211797
C	-1.47123	-1.21307	2.91146
C	-1.51777	-0.87438	1.47123
O	-2.45088	-1.2334	0.766373
H	-2.36621	-1.81725	3.17579
H	-1.47001	-0.286202	3.52273
H	-0.558943	-1.80498	3.1361
N	-0.491963	-0.164944	0.99499
C	-0.375308	0.20348	-0.393972
C	1.0992	0.33172	-0.72706
O	1.95074	0.292457	0.158971
H	0.280251	0.0848449	1.57219
H	-0.777062	-0.591765	-1.00945
C	-1.11167	1.53139	-0.67623
H	-0.692849	2.34984	-0.0527235
H	-1.04091	1.81877	-1.74531
H	-2.18706	1.41681	-0.417862
N	1.43679	0.480643	-2.02316
C	2.81538	0.60501	-2.43572
H	0.733794	0.505994	-2.72617
H	2.88673	0.718442	-3.53992
H	3.39745	-0.297032	-2.13774
H	3.28922	1.49419	-1.96036
C	742.041	-2.22389	-1.29826
C	740.65	-1.84115	-0.970214
O	739.699	-2.48326	-1.39598
H	742.03	-3.11599	-1.9615
H	742.599	-2.47253	-0.370701
H	742.553	-1.39096	-1.82478
N	740.497	-0.765747	-0.193907
C	739.204	-0.24617	0.175291
C	739.342	1.24732	0.403406
O	740.449	1.78122	0.427054
H	741.279	-0.229407	0.11121
H	738.515	-0.384384	-0.648597
C	738.673	-0.941549	1.44793
H	739.374	-0.791141	2.29618
H	737.671	-0.559914	1.73458
H	738.587	-2.03424	1.26062
N	738.211	1.96152	0.56929
C	738.244	3.38907	0.786562
H	737.324	1.51235	0.542859
H	737.214	3.79336	0.899559
H	738.731	3.90596	-0.0717976
H	738.82	3.63325	1.70849
