44
  This energy is 0 and Call times are: 207093
C	3.11401	1.3607	-0.751059
C	1.92158	1.23552	0.117026
O	1.90289	1.71919	1.24047
H	3.90869	1.91488	-0.205842
H	2.85709	1.91833	-1.67614
H	3.49822	0.354404	-1.02095
N	0.883164	0.569594	-0.393476
C	-0.330291	0.328751	0.346849
C	-0.950203	-0.957222	-0.166509
O	-0.508603	-1.51212	-1.1709
H	0.928447	0.146369	-1.29386
H	-0.0872951	0.175365	1.39091
C	-1.31659	1.50652	0.18773
H	-1.57441	1.65757	-0.882202
H	-2.24936	1.33927	0.764354
H	-0.839112	2.43823	0.562258
N	-1.99044	-1.46798	0.521279
C	-2.64061	-2.69072	0.110954
H	-2.33099	-1.00678	1.33393
H	-3.4723	-2.94565	0.804151
H	-1.91683	-3.53771	0.105499
H	-3.05921	-2.5877	-0.916326
C	404.304	-1.35771	-3.14717
C	403.652	-0.370942	-2.25673
O	403.066	0.601574	-2.71133
H	404.172	-1.0413	-4.20472
H	403.843	-2.35863	-3.01146
H	405.39	-1.41748	-2.92251
N	403.745	-0.603083	-0.945262
C	403.199	0.289786	0.0462296
C	404.03	0.160718	1.30839
O	404.88	-0.721743	1.41535
H	404.261	-1.37705	-0.589101
H	403.295	1.31101	-0.300746
C	401.719	-0.0460369	0.335964
H	401.621	-1.09024	0.70199
H	401.283	0.643343	1.08777
H	401.131	0.0471714	-0.603014
N	403.809	1.04979	2.29664
C	404.556	1.00825	3.532
H	403.12	1.75922	2.18993
H	404.229	1.82109	4.21711
H	405.646	1.13248	3.33627
H	404.408	0.0326126	4.04882
