44
  This energy is -1.2221 and Call times are: 221343
C	1.11332	-3.0623	-1.22292
C	0.0993107	-2.21752	-0.552635
O	-1.03154	-2.63339	-0.341379
H	0.660827	-4.04448	-1.4807
H	1.97795	-3.23122	-0.547179
H	1.46369	-2.57216	-2.15572
N	0.488675	-0.990194	-0.19988
C	-0.397862	-0.0381402	0.421575
C	0.0695585	1.35632	0.0493565
O	1.14078	1.52799	-0.529199
H	1.40015	-0.651595	-0.415344
H	-1.39509	-0.162478	0.0181958
C	-0.408475	-0.214122	1.9559
H	0.612493	-0.0762388	2.37141
H	-1.09799	0.504158	2.44495
H	-0.74594	-1.24392	2.20487
N	-0.733374	2.39071	0.367744
C	-0.37405	3.75271	0.0483544
H	-1.59827	2.23149	0.832155
H	-1.16286	4.45818	0.390875
H	-0.245733	3.87752	-1.0513
H	0.584889	4.03225	0.541749
C	994.721	-3.20843	1.30987
C	995.255	-1.85796	1.02411
O	996.303	-1.4725	1.52553
H	995.4	-3.72941	2.01974
H	994.657	-3.80093	0.373047
H	993.712	-3.1317	1.76773
N	994.533	-1.09629	0.198924
C	994.903	0.255631	-0.139595
C	993.635	1.02766	-0.45323
O	992.554	0.449755	-0.55471
H	993.662	-1.40885	-0.168973
H	995.363	0.726334	0.720376
C	995.864	0.278868	-1.34827
H	995.388	-0.194482	-2.23375
H	996.166	1.31349	-1.61006
H	996.781	-0.298594	-1.09914
N	993.738	2.36256	-0.606582
C	992.584	3.18046	-0.901187
H	994.62	2.8127	-0.516676
H	992.873	4.25087	-0.989674
H	991.821	3.08905	-0.094271
H	992.112	2.86411	-1.85959
