44
  This energy is 0 and Call times are: 207317
C	-1.06259	-2.41589	2.26872
C	-0.868746	-1.00595	1.86173
O	-1.37947	-0.0895702	2.49087
H	-1.7202	-2.45256	3.16431
H	-0.0856231	-2.87916	2.52102
H	-1.542	-2.98889	1.44718
N	-0.114747	-0.798941	0.779593
C	0.128785	0.514447	0.237133
C	0.362649	0.373901	-1.25522
O	0.488307	-0.734956	-1.77132
H	0.260436	-1.55727	0.254191
H	-0.755778	1.12503	0.368925
C	1.3486	1.17449	0.916578
H	2.25853	0.553722	0.772653
H	1.53803	2.19191	0.517218
H	1.15865	1.25993	2.00881
N	0.41828	1.50317	-1.98849
C	0.631711	1.4674	-3.41655
H	0.31026	2.39098	-1.55353
H	0.645462	2.49667	-3.83802
H	-0.179073	0.893086	-3.9206
H	1.60277	0.976967	-3.65667
C	420.918	-1.15926	-3.04716
C	420.43	-0.074026	-2.16654
O	420.539	1.10071	-2.4899
H	421.373	-0.715564	-3.95917
H	420.075	-1.81524	-3.34917
H	421.686	-1.76385	-2.51999
N	419.874	-0.450756	-1.01279
C	419.392	0.49154	-0.0338017
C	419.501	-0.152102	1.33569
O	419.785	-1.34268	1.45125
H	419.83	-1.40903	-0.745205
H	420.034	1.36408	-0.0318833
C	417.931	0.894334	-0.328486
H	417.271	0.000882907	-0.320148
H	417.553	1.63022	0.410459
H	417.874	1.35578	-1.33852
N	419.283	0.628475	2.41245
C	419.37	0.104685	3.75569
H	419.058	1.59054	2.2989
H	419.158	0.901146	4.50279
H	420.389	-0.300536	3.95427
H	418.635	-0.719687	3.90429
