44
  This energy is 0 and Call times are: 210985
C	1.47377	1.06095	-2.96902
C	0.683247	1.31396	-1.74338
O	0.412509	2.45294	-1.38864
H	1.75247	2.03186	-3.43327
H	0.874753	0.473638	-3.69634
H	2.40073	0.503331	-2.71821
N	0.291401	0.23783	-1.05724
C	-0.447114	0.325468	0.177859
C	-0.120831	-0.89903	1.01194
O	0.525012	-1.83102	0.536558
H	0.554418	-0.681274	-1.33641
H	-0.112501	1.19268	0.733387
C	-1.96555	0.40794	-0.0919452
H	-2.31125	-0.486558	-0.652661
H	-2.54436	0.489771	0.850822
H	-2.18013	1.30677	-0.710333
N	-0.556061	-0.921069	2.28714
C	-0.288563	-2.04198	3.15787
H	-1.07364	-0.155704	2.6551
H	-0.728134	-1.87108	4.16524
H	0.808736	-2.19476	3.27563
H	-0.724435	-2.9778	2.73907
C	681.057	1.10315	3.23769
C	681.873	1.09247	2.00234
O	682.763	1.91243	1.82437
H	681.386	1.9432	3.88744
H	681.187	0.14908	3.79045
H	679.984	1.24134	2.98683
N	681.579	0.147643	1.10585
C	682.257	0.0372256	-0.162155
C	681.296	-0.584261	-1.15867
O	680.219	-1.04825	-0.789919
H	680.825	-0.487062	1.24689
H	682.501	1.02815	-0.524276
C	683.534	-0.821779	-0.032703
H	683.283	-1.84178	0.328717
H	684.071	-0.902849	-0.999496
H	684.218	-0.352492	0.707233
N	681.664	-0.599906	-2.45507
C	680.812	-1.16556	-3.47542
H	682.538	-0.215961	-2.73465
H	681.29	-1.08318	-4.4765
H	679.834	-0.634098	-3.50936
H	680.613	-2.24215	-3.26908
