44
  This energy is -4.037 and Call times are: 222254
C	2.36018	1.16488	-2.27713
C	1.76331	1.12755	-0.923058
O	2.33071	1.6377	0.0330856
H	3.34115	1.68596	-2.23187
H	1.69324	1.71428	-2.97433
H	2.51874	0.132458	-2.65404
N	0.585294	0.509483	-0.810615
C	-0.0983188	0.3549	0.449281
C	-0.939443	-0.90573	0.379454
O	-1.08447	-1.50805	-0.682572
H	0.155395	0.06339	-1.59039
H	0.631447	0.212563	1.23656
C	-0.98628	1.58238	0.749388
H	-1.74195	1.72261	-0.0526935
H	-1.5073	1.48158	1.7235
H	-0.351099	2.49419	0.787995
N	-1.50997	-1.34073	1.5202
C	-2.32299	-2.53412	1.55147
H	-1.37772	-0.842134	2.37049
H	-2.70131	-2.7254	2.57982
H	-1.73228	-3.42049	1.22484
H	-3.19775	-2.43176	0.869223
C	994.52	-3.42099	-0.580454
C	993.835	-2.1199	-0.752644
O	992.938	-1.98007	-1.57299
H	994.096	-4.15659	-1.29849
H	994.368	-3.79917	0.452456
H	995.607	-3.31051	-0.77813
N	994.252	-1.12176	0.0297949
C	993.712	0.212446	-0.0519319
C	994.79	1.18685	0.382311
O	995.841	0.783652	0.878417
H	995.011	-1.24015	0.664052
H	993.47	0.437418	-1.08323
C	992.46	0.356651	0.841505
H	992.71	0.136217	1.90125
H	992.027	1.37571	0.776536
H	991.687	-0.371133	0.510796
N	994.558	2.50108	0.196446
C	995.528	3.50163	0.573885
H	993.703	2.80776	-0.21031
H	995.152	4.52217	0.340944
H	996.485	3.34706	0.024859
H	995.744	3.44792	1.66555
