44
  This energy is 0 and Call times are: 203733
C	1.13556	-1.862	-2.71222
C	0.776826	-1.72762	-1.2824
O	0.679303	-2.70945	-0.55928
H	1.26323	-2.93836	-2.95927
H	2.08798	-1.3303	-2.91943
H	0.330498	-1.43994	-3.35005
N	0.566893	-0.486562	-0.837334
C	0.169167	-0.200041	0.518498
C	-0.636606	1.08536	0.51343
O	-0.711917	1.77746	-0.500003
H	0.609964	0.299198	-1.44774
H	-0.483031	-0.98819	0.873589
C	1.4025	-0.0623554	1.43783
H	2.06664	0.75308	1.08002
H	1.10892	0.144621	2.48735
H	1.98141	-1.01151	1.41988
N	-1.26865	1.43162	1.65214
C	-2.06314	2.63465	1.73989
H	-1.19919	0.856633	2.46061
H	-2.50092	2.74352	2.75661
H	-2.89613	2.61004	1.00044
H	-1.43998	3.53353	1.52815
C	166.773	-1.54613	-0.530248
C	165.545	-1.32532	0.267164
O	165.26	-2.05656	1.20538
H	167.308	-2.43911	-0.140645
H	167.442	-0.663893	-0.454019
H	166.511	-1.72035	-1.59524
N	164.778	-0.294893	-0.096906
C	163.532	0.0198462	0.555734
C	162.627	0.699828	-0.454756
O	163.057	1.04233	-1.55457
H	165.003	0.266495	-0.888306
H	163.045	-0.898947	0.857723
C	163.765	0.936163	1.77698
H	164.255	1.88337	1.46617
H	162.814	1.17444	2.29628
H	164.435	0.421675	2.49931
N	161.342	0.904354	-0.105358
C	160.406	1.53915	-1.00399
H	161.012	0.616537	0.787469
H	159.401	1.61616	-0.53465
H	160.309	0.95415	-1.94716
H	160.75	2.56552	-1.26825
