44
  This energy is 0 and Call times are: 211461
C	3.30365	-0.293912	1.05459
C	2.26225	-0.338976	0.00360367
O	2.56075	-0.404278	-1.1809
H	4.30773	-0.310983	0.577704
H	3.20919	-1.17394	1.72495
H	3.20505	0.637352	1.65135
N	0.994958	-0.302114	0.421932
C	-0.126535	-0.295258	-0.484031
C	-1.27368	0.434695	0.188863
O	-1.20747	0.755117	1.37405
H	0.768318	-0.207652	1.38711
H	0.135524	0.265348	-1.37267
C	-0.544437	-1.7349	-0.855541
H	-0.82349	-2.30726	0.0547216
H	-1.39831	-1.74281	-1.56361
H	0.31257	-2.25258	-1.33917
N	-2.35619	0.723384	-0.560037
C	-3.49391	1.42046	-0.00697378
H	-2.38954	0.459572	-1.51835
H	-4.28102	1.56373	-0.779722
H	-3.19249	2.42225	0.376204
H	-3.9339	0.84513	0.839517
C	718.715	0.983758	1.43358
C	717.299	0.564462	1.53538
O	716.803	0.265317	2.61299
H	719.181	0.950633	2.44221
H	718.78	2.0205	1.04153
H	719.269	0.298167	0.758643
N	716.606	0.531039	0.394473
C	715.231	0.102481	0.327838
C	714.985	-0.483031	-1.0498
O	715.83	-0.383163	-1.93713
H	717.035	0.737932	-0.480399
H	715.069	-0.689092	1.04863
C	714.272	1.28312	0.594134
H	714.431	2.09103	-0.151476
H	713.211	0.963053	0.559272
H	714.476	1.70094	1.6042
N	713.815	-1.11941	-1.2585
C	713.495	-1.7128	-2.53582
H	713.146	-1.19353	-0.526995
H	712.49	-2.18875	-2.50749
H	714.244	-2.49189	-2.80585
H	713.495	-0.94073	-3.33896
