44
  This energy is -0.0014 and Call times are: 215297
C	1.65878	-0.889739	2.92737
C	1.64598	-0.347611	1.55003
O	2.62683	0.213474	1.08148
H	2.64449	-0.678573	3.39606
H	1.49808	-1.98816	2.90782
H	0.862094	-0.41057	3.53465
N	0.51323	-0.504386	0.861063
C	0.334576	0.00746908	-0.474844
C	-1.14005	0.302269	-0.675126
O	-1.97192	-0.0517604	0.158163
H	-0.29034	-0.926964	1.27042
H	0.867145	0.945292	-0.572257
C	0.831204	-1.00908	-1.52614
H	0.277825	-1.96785	-1.43351
H	0.711781	-0.620879	-2.5584
H	1.91032	-1.21588	-1.35555
N	-1.49853	0.969784	-1.78955
C	-2.87803	1.29955	-2.06234
H	-0.810549	1.25151	-2.45015
H	-2.96808	1.84856	-3.02551
H	-3.296	1.94098	-1.25292
H	-3.49781	0.375979	-2.12569
C	989.58	3.26233	-0.551872
C	989.363	2.0926	0.329127
O	989.847	2.04757	1.45167
H	990.226	4.00103	-0.029643
H	988.609	3.74276	-0.795229
H	990.081	2.94663	-1.4909
N	988.62	1.1026	-0.170606
C	988.358	-0.117807	0.550821
C	988.147	-1.22896	-0.460311
O	988.05	-0.978596	-1.66017
H	988.267	1.13598	-1.10125
H	989.228	-0.378616	1.13977
C	987.116	0.0327385	1.45688
H	986.221	0.289955	0.851897
H	986.912	-0.895946	2.0282
H	987.29	0.856376	2.18341
N	988.079	-2.49222	0.00396721
C	987.885	-3.6146	-0.884289
H	988.163	-2.67528	0.97783
H	987.857	-4.56829	-0.312524
H	988.714	-3.67553	-1.6265
H	986.928	-3.5124	-1.44391
