44
  This energy is 0 and Call times are: 207793
C	-3.30818	0.327734	-1.03017
C	-2.07311	-0.467259	-0.846505
O	-2.07514	-1.68212	-0.989789
H	-4.14988	-0.353913	-1.28069
H	-3.17566	1.05475	-1.85879
H	-3.55423	0.874005	-0.095212
N	-0.972762	0.213302	-0.51718
C	0.294196	-0.426157	-0.263274
C	1.07046	0.434246	0.71585
O	0.669989	1.55507	1.02423
H	-0.995944	1.19711	-0.364055
H	0.122188	-1.38285	0.213993
C	1.0917	-0.609944	-1.57302
H	1.27756	0.372221	-2.05764
H	2.06334	-1.11384	-1.39266
H	0.501385	-1.23583	-2.2774
N	2.20294	-0.0777701	1.23676
C	3.00449	0.665838	2.18055
H	2.50863	-0.988138	0.9782
H	3.89404	0.0752569	2.49222
H	2.41137	0.912869	3.09075
H	3.35811	1.62101	1.72917
C	456.783	1.17362	-1.11016
C	455.683	0.18272	-1.12542
O	455.623	-0.683078	-1.98752
H	457.457	0.987361	-1.97418
H	457.368	1.08141	-0.171158
H	456.372	2.20222	-1.19003
N	454.772	0.291944	-0.155424
C	453.622	-0.572125	-0.0635868
C	452.506	0.196653	0.618946
O	452.72	1.2931	1.13271
H	454.812	1.02714	0.515206
H	453.28	-0.819133	-1.06099
C	453.958	-1.85555	0.727204
H	454.298	-1.60318	1.75401
H	453.084	-2.53548	0.793009
H	454.782	-2.39782	0.214061
N	451.28	-0.361357	0.63235
C	450.156	0.299093	1.25386
H	451.126	-1.24742	0.207795
H	449.235	-0.318721	1.15996
H	449.965	1.28628	0.773665
H	450.352	0.473902	2.33648
