44
  This energy is 0 and Call times are: 205329
C	-3.21785	-0.437432	-1.25172
C	-2.20114	-0.593789	-0.187296
O	-2.51366	-0.95759	0.938045
H	-4.22152	-0.679173	-0.839317
H	-2.99959	-1.12742	-2.09375
H	-3.22466	0.608837	-1.6237
N	-0.940099	-0.314999	-0.525575
C	0.152535	-0.379189	0.412823
C	1.2126	0.61299	-0.0269431
O	1.13133	1.18076	-1.11449
H	-0.707084	0.0193915	-1.43429
H	-0.196344	-0.0668808	1.38923
C	0.740229	-1.80591	0.478534
H	1.10789	-2.12273	-0.520709
H	1.5734	-1.87158	1.20795
H	-0.054803	-2.51612	0.794566
N	2.23442	0.852051	0.81849
C	3.28678	1.78446	0.487796
H	2.28071	0.386016	1.69584
H	4.03339	1.84267	1.31023
H	2.86988	2.80394	0.320098
H	3.81311	1.46944	-0.44219
C	279.562	-2.63884	1.29658
C	278.644	-1.48906	1.45749
O	278.07	-1.28091	2.51749
H	279.595	-3.21846	2.24466
H	280.586	-2.28065	1.05915
H	279.205	-3.30287	0.481474
N	278.481	-0.705521	0.388867
C	277.587	0.425726	0.378904
C	277.104	0.633788	-1.04385
O	277.602	0.00602872	-1.97647
H	278.924	-0.911381	-0.479339
H	276.719	0.200222	0.985175
C	278.297	1.6943	0.900397
H	279.182	1.93209	0.27241
H	277.616	2.56926	0.91065
H	278.65	1.51651	1.93985
N	276.109	1.52063	-1.24256
C	275.58	1.78044	-2.56128
H	275.716	2.01594	-0.474849
H	274.768	2.53953	-2.51692
H	275.164	0.848473	-3.00841
H	276.379	2.16092	-3.23743
