44
  This energy is 0 and Call times are: 214205
C	-2.07888	2.78265	-0.218629
C	-1.81153	1.33815	-0.400483
O	-2.71424	0.555485	-0.663098
H	-3.16727	2.97303	-0.341282
H	-1.52306	3.37317	-0.976981
H	-1.77028	3.10386	0.798564
N	-0.542782	0.947137	-0.259919
C	-0.13433	-0.431516	-0.364998
C	1.09905	-0.626388	0.496603
O	1.67398	0.33665	1.00031
H	0.174433	1.58967	-0.00571639
H	-0.913199	-1.06658	0.0383482
C	0.165406	-0.80778	-1.83259
H	0.971705	-0.163564	-2.24357
H	0.467622	-1.87079	-1.92847
H	-0.748498	-0.649879	-2.44594
N	1.5313	-1.88749	0.693573
C	2.6934	-2.17044	1.50329
H	1.05044	-2.65407	0.281025
H	2.88713	-3.26498	1.54427
H	2.5462	-1.80137	2.54415
H	3.59601	-1.66986	1.08392
C	913.729	-2.78748	0.474507
C	912.955	-1.8719	-0.39321
O	913.051	-1.92131	-1.61165
H	914.364	-3.44471	-0.158891
H	913.041	-3.42079	1.07318
H	914.384	-2.2055	1.15712
N	912.157	-0.999501	0.227096
C	911.374	-0.0170992	-0.480588
C	911.184	1.18132	0.429977
O	911.52	1.13403	1.61173
H	912.12	-0.943991	1.22077
H	911.926	0.321651	-1.3485
C	910.007	-0.599785	-0.901554
H	909.436	-0.937801	-0.0106285
H	909.401	0.142763	-1.45948
H	910.171	-1.48019	-1.56069
N	910.644	2.29394	-0.105444
C	910.43	3.48508	0.682972
H	910.382	2.31436	-1.06467
H	909.978	4.29065	0.0636137
H	911.394	3.86061	1.09672
H	909.747	3.27363	1.53711
