44
  This energy is -0.8143 and Call times are: 216710
C	-1.67704	1.3531	2.73301
C	-1.44731	1.22874	1.27599
O	-2.23096	1.70844	0.468408
H	-2.62715	1.90269	2.90944
H	-0.84389	1.91489	3.20523
H	-1.75291	0.346515	3.19574
N	-0.348891	0.568083	0.90266
C	-0.0133833	0.328594	-0.478875
C	0.7942	-0.953477	-0.554087
O	1.19501	-1.50622	0.46843
H	0.257916	0.147942	1.57134
H	-0.922798	0.170664	-1.04514
C	0.790718	1.51017	-1.06414
H	1.72892	1.6659	-0.490068
H	1.0432	1.34394	-2.13145
H	0.183738	2.43895	-0.991438
N	1.04572	-1.46326	-1.77592
C	1.80151	-2.68237	-1.94539
H	0.709524	-1.00386	-2.5914
H	1.90052	-2.93703	-3.02361
H	1.29779	-3.53172	-1.4295
H	2.82346	-2.57429	-1.51517
C	996.27	1.25692	-2.81222
C	995.356	1.40929	-1.65765
O	994.951	2.51057	-1.31218
H	996.496	2.25931	-3.23636
H	995.793	0.633518	-3.59773
H	997.22	0.781048	-2.48848
N	995.008	0.286876	-1.02396
C	994.161	0.279165	0.142283
C	994.526	-0.928531	0.984593
O	995.295	-1.78674	0.55497
H	995.379	-0.597884	-1.29174
H	994.364	1.16082	0.737306
C	992.67	0.228304	-0.259233
H	992.459	-0.681427	-0.860793
H	992.007	0.235905	0.629855
H	992.427	1.11721	-0.881427
N	993.986	-1.01856	2.21598
C	994.281	-2.12932	3.09106
H	993.37	-0.312122	2.54758
H	993.742	-2.02174	4.05804
H	995.373	-2.18362	3.303
H	993.972	-3.09159	2.62231
