44
  This energy is 0 and Call times are: 208493
C	-0.63958	-2.00529	-2.77172
C	0.289879	-1.32169	-1.84439
O	1.48967	-1.55967	-1.8611
H	-0.068485	-2.71942	-3.40397
H	-1.13893	-1.263	-3.4293
H	-1.40738	-2.56698	-2.19895
N	-0.254452	-0.443494	-0.998902
C	0.515442	0.267792	-0.00900627
C	-0.395465	0.581477	1.16292
O	-1.60676	0.383713	1.08962
H	-1.23815	-0.290716	-0.969528
H	1.30502	-0.375306	0.359274
C	1.10613	1.56727	-0.598656
H	0.295914	2.232	-0.967041
H	1.71265	2.11704	0.149951
H	1.76283	1.3143	-1.45954
N	0.17205	1.07359	2.28175
C	-0.614659	1.39646	3.44923
H	1.15441	1.22293	2.32342
H	0.0334511	1.7871	4.26445
H	-1.14641	0.4931	3.82667
H	-1.37837	2.17049	3.20682
C	501.674	2.29949	-1.64957
C	502.155	0.91943	-1.41443
O	501.577	-0.0435697	-1.89887
H	500.759	2.26711	-2.27964
H	502.452	2.89137	-2.17606
H	501.428	2.78886	-0.683568
N	503.242	0.79197	-0.6499
C	503.803	-0.488502	-0.297073
C	504.497	-0.34742	1.04456
O	504.655	0.758167	1.55888
H	503.678	1.58256	-0.229122
H	503.002	-1.20689	-0.172132
C	504.799	-0.970055	-1.37424
H	505.627	-0.238484	-1.49532
H	505.228	-1.96147	-1.12086
H	504.272	-1.05851	-2.34899
N	504.923	-1.47365	1.64968
C	505.589	-1.43786	2.93083
H	504.783	-2.3594	1.21977
H	505.861	-2.46443	3.26131
H	504.928	-0.984388	3.7046
H	506.52	-0.829343	2.87278
