44
  This energy is 0 and Call times are: 211125
C	2.29355	-2.53564	0.650273
C	1.07453	-2.01938	-0.0120079
O	0.520586	-2.65211	-0.900386
H	2.57342	-3.51086	0.19585
H	2.10605	-2.68494	1.73438
H	3.13365	-1.82209	0.515483
N	0.624462	-0.836253	0.412272
C	-0.525231	-0.185444	-0.164977
C	-0.350491	1.31302	-0.00488152
O	0.560145	1.77098	0.682668
H	1.1096	-0.314213	1.10796
H	-0.558444	-0.394689	-1.22693
C	-1.82707	-0.655077	0.520512
H	-1.7979	-0.43111	1.60818
H	-2.72074	-0.171457	0.0755444
H	-1.93024	-1.75535	0.397635
N	-1.22079	2.11625	-0.647872
C	-1.12933	3.55495	-0.558638
H	-1.94854	1.72709	-1.20285
H	-1.93323	4.03795	-1.15669
H	-0.145544	3.91052	-0.942056
H	-1.22928	3.8903	0.499044
C	688.45	-0.0755239	1.2428
C	689.874	-0.475792	1.29338
O	690.336	-1.0508	2.26942
H	687.953	-0.365166	2.19413
H	687.939	-0.586494	0.400128
H	688.366	1.02418	1.11377
N	690.614	-0.17281	0.224216
C	692.025	-0.459603	0.144096
C	692.665	0.568319	-0.769528
O	691.974	1.34731	-1.42327
H	690.234	0.331856	-0.545529
H	692.47	-0.34156	1.12434
C	692.268	-1.88723	-0.392567
H	691.821	-2.00563	-1.40264
H	693.35	-2.1251	-0.445838
H	691.784	-2.62217	0.287058
N	694.011	0.599356	-0.82933
C	694.709	1.54686	-1.66691
H	694.553	-0.0363295	-0.289794
H	695.81	1.414	-1.57833
H	694.457	2.59142	-1.37232
H	694.424	1.41131	-2.73537
