44
  This energy is -1.5905 and Call times are: 215409
C	2.75485	0.410453	2.08687
C	2.02604	0.669107	0.824696
O	2.40323	1.52913	0.0407889
H	3.61586	1.10947	2.16369
H	3.13602	-0.632246	2.10192
H	2.08309	0.570818	2.95642
N	0.945549	-0.0817951	0.598737
C	0.109767	0.0825062	-0.564462
C	-1.29858	-0.347533	-0.199511
O	-1.52968	-0.902058	0.873247
H	0.627574	-0.749739	1.26553
H	0.0682623	1.13171	-0.829202
C	0.641682	-0.754196	-1.74862
H	0.67451	-1.83189	-1.48115
H	0.0145005	-0.625358	-2.65447
H	1.67613	-0.427909	-1.99316
N	-2.28008	-0.0921015	-1.08689
C	-3.65174	-0.460057	-0.823569
H	-2.07414	0.36118	-1.94782
H	-4.30773	-0.165704	-1.67225
H	-4.02359	0.0437741	0.0979275
H	-3.74202	-1.56057	-0.675684
C	992.838	0.452468	3.44256
C	992.683	-0.409267	2.24907
O	992.764	-1.627	2.33267
H	993.042	-0.183884	4.33099
H	991.908	1.03083	3.62081
H	993.687	1.15374	3.30026
N	992.455	0.215601	1.0916
C	992.324	-0.485078	-0.161652
C	992.778	0.443707	-1.27218
O	993.014	1.62879	-1.04502
H	992.432	1.20952	1.03263
H	992.989	-1.33956	-0.164
C	990.865	-0.93419	-0.39352
H	990.183	-0.0569326	-0.401713
H	990.754	-1.48701	-1.34886
H	990.552	-1.6064	0.43498
N	992.919	-0.079265	-2.50611
C	993.351	0.726961	-3.62389
H	992.727	-1.04137	-2.66944
H	993.406	0.115858	-4.55168
H	994.359	1.15991	-3.42948
H	992.642	1.56817	-3.79917
