44
  This energy is -4.479 and Call times are: 223094
C	-1.76856	2.45564	-1.71894
C	-0.783302	2.03256	-0.698436
O	-0.0472824	2.84417	-0.154403
H	-1.68538	3.55288	-1.8771
H	-2.79833	2.21873	-1.37807
H	-1.56951	1.9378	-2.68087
N	-0.746246	0.728688	-0.413969
C	0.188175	0.160674	0.525593
C	0.461806	-1.27318	0.112385
O	-0.19965	-1.81031	-0.774
H	-1.32335	0.074765	-0.894811
H	1.1263	0.69824	0.465739
C	-0.374651	0.211972	1.96289
H	-1.33174	-0.348275	2.02725
H	0.341445	-0.20991	2.69757
H	-0.574865	1.26974	2.24109
N	1.45634	-1.92707	0.744328
C	1.79254	-3.29245	0.414343
H	1.98311	-1.47432	1.45609
H	2.63668	-3.6525	1.04284
H	2.09185	-3.37567	-0.655592
H	0.919311	-3.96372	0.581753
C	992.367	2.87692	1.38696
C	992.42	1.4073	1.21784
O	991.777	0.66289	1.94538
H	991.701	3.12451	2.24192
H	991.965	3.35362	0.468364
H	993.383	3.27488	1.5955
N	993.203	0.950502	0.237729
C	993.39	-0.45537	-0.0213439
C	994.766	-0.644942	-0.631736
O	995.441	0.323276	-0.975926
H	993.752	1.56693	-0.319743
H	993.376	-0.996415	0.916575
C	992.297	-0.991232	-0.97218
H	992.318	-0.443605	-1.93847
H	992.422	-2.07585	-1.16841
H	991.299	-0.834915	-0.508796
N	995.219	-1.90623	-0.772853
C	996.519	-2.1837	-1.33859
H	994.66	-2.67656	-0.484699
H	996.708	-3.2793	-1.36988
H	997.321	-1.70638	-0.731188
H	996.588	-1.78579	-2.37682
