44
  This energy is 0 and Call times are: 213113
C	0.848203	3.3713	0.166
C	0.562175	2.13548	-0.596944
O	0.404886	2.16245	-1.80977
H	0.866557	4.23724	-0.530922
H	1.83601	3.29197	0.666694
H	0.0596999	3.54096	0.929262
N	0.485169	1.00582	0.110375
C	0.171248	-0.268839	-0.485668
C	-0.512981	-1.12559	0.562837
O	-0.566079	-0.762315	1.73626
H	0.574949	1.00599	1.10224
H	-0.535269	-0.121385	-1.29296
C	1.44865	-0.96491	-1.0043
H	2.16942	-1.12593	-0.174492
H	1.2185	-1.94123	-1.47797
H	1.93699	-0.316695	-1.76436
N	-1.06347	-2.28743	0.158958
C	-1.74021	-3.16541	1.0849
H	-1.01387	-2.56237	-0.795516
H	-2.12414	-4.06857	0.561346
H	-2.60156	-2.6443	1.56217
H	-1.04657	-3.49586	1.89163
C	831.243	-2.23652	-1.03689
C	832.495	-1.91901	-0.313545
O	833.008	-2.7269	0.448248
H	830.901	-3.25435	-0.749311
H	831.418	-2.21249	-2.13307
H	830.452	-1.50336	-0.772755
N	833.021	-0.712718	-0.538701
C	834.212	-0.244055	0.124393
C	834.136	1.26804	0.221026
O	833.256	1.89313	-0.367445
H	832.57	-0.0506294	-1.1301
H	834.234	-0.6312	1.13546
C	835.479	-0.674114	-0.647666
H	835.462	-0.268408	-1.68167
H	836.403	-0.331079	-0.139659
H	835.51	-1.78367	-0.713033
N	835.059	1.89351	0.978298
C	835.062	3.32949	1.13361
H	835.761	1.37024	1.45011
H	835.897	3.65187	1.79361
H	834.104	3.67786	1.58449
H	835.181	3.83138	0.146179
