44
  This energy is -0.1823 and Call times are: 222282
C	2.54561	-2.20897	0.867751
C	1.13463	-1.76378	0.913434
O	0.257795	-2.48489	1.36904
H	2.6189	-3.23993	1.2772
H	3.18003	-1.53349	1.47928
H	2.91229	-2.21169	-0.180406
N	0.881036	-0.544875	0.431422
C	-0.448527	0.00914009	0.369071
C	-0.500249	0.985277	-0.791116
O	0.525079	1.31076	-1.3865
H	1.59895	0.0140486	0.0263578
H	-1.15585	-0.782694	0.156181
C	-0.812699	0.719625	1.69113
H	-0.0935066	1.5389	1.90462
H	-1.83941	1.1385	1.66069
H	-0.760578	-0.0115829	2.52717
N	-1.70601	1.47122	-1.14614
C	-1.85355	2.40117	-2.2414
H	-2.52478	1.1929	-0.654989
H	-2.92099	2.68298	-2.37694
H	-1.48677	1.95007	-3.1918
H	-1.2672	3.32909	-2.05085
C	993.699	-2.53485	2.36571
C	994.5	-1.5456	1.61046
O	995.653	-1.28877	1.92931
H	994.306	-2.93386	3.20715
H	993.406	-3.37629	1.70309
H	992.786	-2.0541	2.7773
N	993.895	-0.957425	0.575845
C	994.532	0.0567331	-0.22734
C	993.452	0.967316	-0.781738
O	992.263	0.681934	-0.657942
H	992.943	-1.14687	0.353685
H	995.172	0.661705	0.402551
C	995.346	-0.579101	-1.37533
H	994.688	-1.19134	-2.02793
H	995.852	0.191045	-1.99277
H	996.124	-1.24732	-0.946722
N	993.845	2.09678	-1.4029
C	992.889	3.02658	-1.95719
H	994.812	2.31254	-1.48964
H	993.408	3.89193	-2.42541
H	992.211	3.41291	-1.16232
H	992.263	2.53049	-2.73402
