44
  This energy is 0 and Call times are: 210817
C	0.517084	3.44168	0.0129045
C	-0.0256506	2.20312	0.615036
O	-0.463636	2.1938	1.75718
H	0.461672	4.26635	0.756356
H	-0.0763891	3.72408	-0.88196
H	1.57786	3.29208	-0.279437
N	-0.00587345	1.1116	-0.153449
C	-0.459762	-0.176641	0.308043
C	0.307628	-1.2464	-0.445807
O	1.02893	-0.951844	-1.39695
H	0.391399	1.12547	-1.0666
H	-0.217895	-0.285537	1.35793
C	-1.97892	-0.339593	0.0825329
H	-2.22626	-0.238452	-0.995719
H	-2.34309	-1.32216	0.44648
H	-2.51987	0.458257	0.636747
N	0.175263	-2.5213	-0.0297229
C	0.871325	-3.60558	-0.682425
H	-0.409783	-2.73944	0.744364
H	0.633229	-4.57621	-0.194154
H	1.97351	-3.45016	-0.634384
H	0.578401	-3.67139	-1.75527
C	666.277	0.48245	-0.406694
C	667.465	-0.39315	-0.285477
O	667.347	-1.60102	-0.131502
H	665.356	-0.133327	-0.316644
H	666.275	0.98992	-1.39422
H	666.28	1.24499	0.400524
N	668.655	0.208293	-0.351239
C	669.899	-0.505051	-0.206604
C	670.929	0.450871	0.366455
O	670.684	1.65121	0.471147
H	668.734	1.19747	-0.435768
H	669.77	-1.30714	0.509355
C	670.376	-1.06345	-1.56526
H	670.519	-0.239915	-2.29701
H	671.327	-1.62672	-1.46478
H	669.604	-1.75407	-1.96959
N	672.109	-0.0647999	0.761073
C	673.147	0.767275	1.32341
H	672.287	-1.03921	0.672199
H	674.041	0.158415	1.5856
H	672.786	1.27549	2.24679
H	673.459	1.55214	0.596686
