44
  This energy is 0 and Call times are: 207737
C	-1.31542	-2.33924	2.21592
C	-1.17337	-0.952889	1.71694
O	-1.90484	-0.0579313	2.11745
H	-2.15623	-2.38399	2.94181
H	-0.38281	-2.65982	2.72604
H	-1.5313	-3.02912	1.37297
N	-0.212864	-0.742719	0.813816
C	0.0183435	0.543372	0.204658
C	0.605529	0.314395	-1.17532
O	0.957292	-0.808543	-1.53167
H	0.347642	-1.48942	0.467211
H	-0.9288	1.05126	0.0719877
C	0.974965	1.39747	1.06526
H	1.95048	0.881605	1.19287
H	1.14997	2.39549	0.613767
H	0.528763	1.54555	2.07289
N	0.717602	1.38051	-1.99193
C	1.25966	1.25784	-3.32509
H	0.423735	2.28043	-1.68719
H	1.26866	2.24464	-3.83829
H	0.64948	0.551813	-3.93376
H	2.30373	0.87071	-3.29079
C	449.569	-0.140255	-3.47504
C	449.801	0.589203	-2.20803
O	450.31	1.70117	-2.20198
H	449.939	0.473133	-4.32503
H	448.484	-0.329787	-3.61448
H	450.115	-1.10731	-3.46519
N	449.427	-0.0333459	-1.08782
C	449.627	0.531211	0.223529
C	449.776	-0.609939	1.21208
O	449.556	-1.77073	0.87171
H	449.051	-0.955371	-1.10587
H	450.555	1.08993	0.233927
C	448.443	1.44005	0.619821
H	447.493	0.864815	0.619544
H	448.592	1.8918	1.62194
H	448.348	2.26325	-0.121573
N	450.164	-0.304462	2.46592
C	450.337	-1.32492	3.47328
H	450.341	0.640204	2.72132
H	450.66	-0.874546	4.43787
H	451.109	-2.0631	3.15584
H	449.383	-1.87458	3.64421
