44
  This energy is 0 and Call times are: 203369
C	-2.03613	-1.62378	2.30872
C	-1.21672	-0.468091	1.87967
O	-1.23987	0.588058	2.49645
H	-2.62731	-1.3416	3.20692
H	-1.38137	-2.48311	2.56484
H	-2.73422	-1.92011	1.49758
N	-0.463206	-0.646025	0.792042
C	0.354298	0.399469	0.228848
C	0.481884	0.148861	-1.26195
O	0.075751	-0.898614	-1.76151
H	-0.486175	-1.49814	0.277021
H	-0.146623	1.3513	0.354226
C	1.74776	0.429041	0.894157
H	2.26635	-0.543693	0.756718
H	2.38194	1.23883	0.47873
H	1.62967	0.605698	1.98558
N	1.04578	1.11566	-2.01251
C	1.20431	0.968172	-3.44055
H	1.3646	1.95802	-1.59077
H	1.68796	1.8694	-3.8777
H	0.214919	0.827655	-3.93314
H	1.83638	0.081594	-3.67637
C	137.534	2.13781	-2.74136
C	136.91	1.20302	-1.7781
O	135.695	1.08318	-1.70913
H	136.738	2.66329	-3.31181
H	138.178	1.5801	-3.45358
H	138.146	2.891	-2.20188
N	137.744	0.510203	-0.998511
C	137.284	-0.405578	0.0158805
C	138.328	-0.455835	1.11542
O	139.423	0.0854232	0.969975
H	138.729	0.648784	-1.03806
H	136.371	-0.0234442	0.455222
C	137.053	-1.81329	-0.575711
H	137.992	-2.21014	-1.0172
H	136.686	-2.52424	0.192619
H	136.291	-1.7512	-1.38349
N	138.008	-1.10475	2.25232
C	138.936	-1.19975	3.3552
H	137.116	-1.53293	2.35291
H	138.488	-1.77126	4.1978
H	139.211	-0.185649	3.7262
H	139.871	-1.7162	3.03885
