44
  This energy is -6.5713 and Call times are: 223202
C	-0.836959	-2.59565	-2.16212
C	-1.18764	-1.39665	-1.36805
O	-2.26676	-0.837877	-1.50836
H	-1.67412	-2.83653	-2.85279
H	-0.664547	-3.46264	-1.49029
H	0.0787046	-2.40405	-2.76041
N	-0.265772	-0.967202	-0.503115
C	-0.44494	0.211066	0.308145
C	0.923235	0.800692	0.594487
O	1.94745	0.189339	0.296251
H	0.624081	-1.40836	-0.429595
H	-1.00346	0.949715	-0.253176
C	-1.1733	-0.132081	1.62609
H	-0.595463	-0.88199	2.20728
H	-1.3296	0.769355	2.25339
H	-2.16855	-0.569312	1.3923
N	0.971366	2.01526	1.17632
C	2.22835	2.65784	1.48171
H	0.131837	2.4962	1.40646
H	2.05809	3.64914	1.95663
H	2.82639	2.81159	0.554355
H	2.82979	2.03263	2.18067
C	992.958	-1.78935	2.52502
C	993.654	-1.7144	1.22069
O	994.033	-2.72579	0.646541
H	992.883	-2.85263	2.84069
H	991.935	-1.3673	2.43767
H	993.526	-1.22523	3.29468
N	993.841	-0.492086	0.717602
C	994.54	-0.256386	-0.521195
C	995.181	1.11664	-0.448705
O	994.924	1.88381	0.476999
H	993.563	0.323987	1.21621
H	995.339	-0.980341	-0.624103
C	993.575	-0.340383	-1.72382
H	992.761	0.409282	-1.62397
H	994.104	-0.174377	-2.68475
H	993.111	-1.35067	-1.75249
N	996.044	1.45635	-1.42675
C	996.706	2.73977	-1.43821
H	996.243	0.820538	-2.16524
H	997.376	2.82907	-2.32226
H	997.321	2.87271	-0.518572
H	995.961	3.56662	-1.47758
