44
  This energy is 0 and Call times are: 201773
C	-2.65891	1.25156	-1.86454
C	-2.10807	0.599627	-0.655116
O	-2.79333	0.439666	0.345501
H	-3.71316	1.54835	-1.67392
H	-2.63317	0.548617	-2.72358
H	-2.0692	2.15931	-2.11218
N	-0.834532	0.2046	-0.721757
C	-0.147115	-0.405697	0.388897
C	1.33017	-0.083152	0.265764
O	1.77569	0.451586	-0.747785
H	-0.277487	0.3786	-1.52878
H	-0.497964	0.0367687	1.31289
C	-0.368366	-1.93413	0.402105
H	0.00101913	-2.3899	-0.54122
H	0.144592	-2.41398	1.26067
H	-1.45663	-2.14672	0.484779
N	2.12726	-0.395636	1.30645
C	3.54508	-0.121153	1.28172
H	1.74765	-0.824196	2.11965
H	4.02602	-0.450677	2.229
H	3.73179	0.969875	1.15494
H	4.03423	-0.655726	0.435488
C	21.2346	-2.19794	-1.09701
C	22.6532	-1.81488	-0.918171
O	23.5552	-2.61723	-1.11557
H	21.1779	-3.2664	-1.39872
H	20.767	-1.57562	-1.88876
H	20.6789	-2.06337	-0.145048
N	22.8843	-0.558171	-0.53133
C	24.2093	-0.0513355	-0.274595
C	24.1013	1.05194	0.761109
O	23.004	1.48378	1.10911
H	22.1379	0.0712901	-0.335052
H	24.816	-0.838773	0.155013
C	24.8559	0.484295	-1.57087
H	24.2394	1.29935	-2.00633
H	25.8819	0.864718	-1.38891
H	24.9175	-0.33775	-2.31704
N	25.2462	1.53035	1.28682
C	25.2415	2.57652	2.28265
H	26.1243	1.1654	0.995594
H	26.2796	2.83176	2.58981
H	24.6773	2.25463	3.18784
H	24.7574	3.49706	1.88338
