44
  This energy is 0 and Call times are: 206785
C	1.40257	-2.15736	2.34334
C	0.500479	-1.8802	1.20293
O	-0.0258093	-2.78967	0.576588
H	1.49955	-3.25683	2.47616
H	0.987882	-1.71804	3.27489
H	2.40832	-1.72883	2.14864
N	0.30121	-0.594697	0.902689
C	-0.515944	-0.169407	-0.206341
C	0.00720757	1.16869	-0.69354
O	0.863514	1.77968	-0.0570312
H	0.768907	0.13322	1.39591
H	-0.407212	-0.874306	-1.02116
C	-1.99752	-0.0512245	0.213445
H	-2.11099	0.679666	1.04228
H	-2.63912	0.262178	-0.635461
H	-2.35683	-1.03984	0.573845
N	-0.493536	1.65343	-1.84693
C	-0.0518539	2.91637	-2.39107
H	-1.18285	1.14258	-2.34987
H	-0.580467	3.14054	-3.34372
H	1.04331	2.89486	-2.59462
H	-0.253593	3.74519	-1.67448
C	382.727	0.268571	-3.31452
C	381.743	-0.130391	-2.28339
O	380.607	-0.466881	-2.58895
H	382.249	0.218313	-4.31712
H	383.599	-0.418246	-3.2971
H	383.072	1.3083	-3.13244
N	382.164	-0.0985897	-1.01696
C	381.309	-0.417783	0.0988387
C	381.799	0.356644	1.30761
O	382.864	0.970656	1.27254
H	383.079	0.216781	-0.780834
H	380.302	-0.0794773	-0.114293
C	381.32	-1.93511	0.386604
H	382.351	-2.28074	0.615662
H	380.655	-2.19541	1.23494
H	380.965	-2.4822	-0.513947
N	381.024	0.352107	2.40991
C	381.407	1.06537	3.60612
H	380.164	-0.147188	2.41775
H	380.639	0.940187	4.40125
H	381.519	2.15365	3.39557
H	382.38	0.686867	3.9951
