44
  This energy is -2.3399 and Call times are: 222310
C	0.601378	-2.44009	-2.40769
C	-0.314009	-1.64208	-1.56129
O	-1.52236	-1.65226	-1.75152
H	0.0114143	-2.97648	-3.18236
H	1.14305	-3.18556	-1.78832
H	1.33465	-1.77511	-2.91088
N	0.252522	-0.918854	-0.592604
C	-0.503367	-0.0592229	0.283881
C	0.399754	1.07639	0.726964
O	1.60263	1.06023	0.472919
H	1.24117	-0.888936	-0.476236
H	-1.32577	0.379077	-0.267642
C	-1.02808	-0.842569	1.50711
H	-0.184133	-1.2836	2.07919
H	-1.62347	-0.194737	2.18264
H	-1.68003	-1.67325	1.15885
N	-0.165499	2.09968	1.39732
C	0.614021	3.22671	1.85376
H	-1.1412	2.09679	1.58986
H	-0.0308317	3.9623	2.38319
H	1.10034	3.74195	0.993932
H	1.41398	2.89357	2.55392
C	994.684	3.45883	0.194595
C	993.919	2.24106	-0.156065
O	992.734	2.30162	-0.452741
H	994.009	4.3414	0.151759
H	995.517	3.60784	-0.524375
H	995.094	3.36999	1.22246
N	994.592	1.08844	-0.12676
C	993.973	-0.184371	-0.401671
C	994.728	-1.25297	0.36647
O	995.783	-0.989676	0.939528
H	995.546	1.05023	0.156405
H	992.957	-0.175603	-0.0279639
C	993.991	-0.491035	-1.91524
H	995.034	-0.510562	-2.29701
H	993.505	-1.4622	-2.14127
H	993.44	0.307764	-2.45805
N	994.195	-2.49047	0.402811
C	994.84	-3.56994	1.11377
H	993.339	-2.68316	-0.0636141
H	994.248	-4.50747	1.02602
H	994.944	-3.32123	2.19475
H	995.858	-3.75837	0.703013
