44
  This energy is 0 and Call times are: 210257
C	-2.06613	-2.73188	-0.616931
C	-1.77736	-1.43934	0.0441975
O	-2.65072	-0.824151	0.640177
H	-3.14106	-2.98132	-0.482104
H	-1.45073	-3.53841	-0.165785
H	-1.84662	-2.6635	-1.70332
N	-0.523278	-0.991391	-0.0506227
C	-0.100756	0.270453	0.50416
C	1.05588	0.789829	-0.328911
O	1.58129	0.0830974	-1.18692
H	0.166647	-1.48337	-0.573911
H	-0.90802	0.987006	0.417512
C	0.324401	0.109483	1.98016
H	1.1596	-0.617625	2.06844
H	0.638775	1.07683	2.42279
H	-0.53483	-0.279094	2.56929
N	1.47588	2.04951	-0.0991
C	2.56633	2.63098	-0.846771
H	1.0355	2.60737	0.596555
H	2.76113	3.67353	-0.511568
H	2.32944	2.65129	-1.93523
H	3.49889	2.03763	-0.707432
C	626.781	-1.41713	-1.25897
C	628.253	-1.38226	-1.10876
O	628.949	-2.32073	-1.47163
H	626.481	-2.38868	-1.70805
H	626.445	-0.594351	-1.92427
H	626.293	-1.31336	-0.267124
N	628.768	-0.280038	-0.558456
C	630.178	-0.117545	-0.30803
C	630.344	0.810491	0.880638
O	629.379	1.41086	1.35003
H	628.185	0.458232	-0.230633
H	630.605	-1.07401	-0.0323382
C	630.896	0.458057	-1.54845
H	630.466	1.44418	-1.82537
H	631.985	0.574867	-1.37291
H	630.755	-0.233257	-2.40782
N	631.579	0.943252	1.40305
C	631.831	1.8	2.53812
H	632.346	0.446091	1.01204
H	632.908	1.77426	2.81857
H	631.232	1.47271	3.41834
H	631.555	2.85361	2.30456
