44
  This energy is -6.4689 and Call times are: 224210
C	0.282529	2.90126	-1.90146
C	0.781354	1.96736	-0.866981
O	1.91388	2.0687	-0.415849
H	1.08612	3.62386	-2.16216
H	-0.595457	3.46286	-1.51871
H	-0.00713146	2.34084	-2.8153
N	-0.0680493	1.01949	-0.463942
C	0.287868	0.01245	0.504431
C	-0.535946	-1.22932	0.220028
O	-1.4527	-1.203	-0.598863
H	-0.972437	0.924585	-0.870073
H	1.32929	-0.254846	0.375534
C	0.0316089	0.514678	1.94226
H	-1.03875	0.779061	2.07813
H	0.314772	-0.246666	2.6977
H	0.63842	1.42821	2.12552
N	-0.220266	-2.35584	0.88886
C	-0.945238	-3.58744	0.679663
H	0.527508	-2.35853	1.54453
H	-0.535638	-4.39868	1.32102
H	-0.871696	-3.91069	-0.383998
H	-2.02355	-3.4556	0.926647
C	993.306	-0.814331	2.89979
C	994.446	-0.989946	1.97176
O	995.42	-1.65964	2.28556
H	993.519	-1.3521	3.84913
H	992.38	-1.23052	2.45116
H	993.157	0.263171	3.12287
N	994.348	-0.379131	0.788715
C	995.394	-0.422183	-0.201805
C	995.315	0.846687	-1.02957
O	994.364	1.6176	-0.910613
H	993.566	0.19611	0.563695
H	996.356	-0.423317	0.295039
C	995.249	-1.66726	-1.10401
H	994.267	-1.66119	-1.62208
H	996.057	-1.71914	-1.86208
H	995.302	-2.58352	-0.476338
N	996.323	1.09788	-1.88754
C	996.336	2.28335	-2.71256
H	997.085	0.464249	-1.96677
H	997.247	2.30943	-3.34933
H	996.323	3.20133	-2.08135
H	995.442	2.30909	-3.37767
