44
  This energy is 0 and Call times are: 210789
C	3.14321	0.980053	1.128
C	1.96367	1.14652	0.249304
O	1.80984	2.15979	-0.418552
H	3.77823	1.89049	1.06679
H	3.74109	0.102431	0.803867
H	2.81927	0.837983	2.18061
N	1.0891	0.137946	0.232514
C	-0.12779	0.172359	-0.539848
C	-1.15754	-0.693554	0.161121
O	-0.839688	-1.4051	1.11211
H	1.2073	-0.662768	0.812818
H	-0.513247	1.18421	-0.554271
C	0.117093	-0.334436	-1.97805
H	0.502568	-1.37619	-1.9642
H	-0.809484	-0.299761	-2.58697
H	0.879588	0.308909	-2.46903
N	-2.42626	-0.646009	-0.29068
C	-3.47512	-1.43106	0.317414
H	-2.66492	-0.0610561	-1.05876
H	-4.44628	-1.25415	-0.195198
H	-3.59259	-1.1639	1.39264
H	-3.23867	-2.51799	0.255595
C	666.103	-0.318487	-3.07587
C	667.246	0.110536	-2.23936
O	668.301	0.46938	-2.74478
H	666.392	-0.26603	-4.148
H	665.232	0.349106	-2.90542
H	665.82	-1.364	-2.83063
N	667.059	0.0799497	-0.917827
C	668.093	0.427091	0.0253998
C	667.845	-0.347915	1.30573
O	666.805	-0.985459	1.46447
H	666.209	-0.253495	-0.520392
H	669.052	0.109246	-0.363086
C	668.098	1.94613	0.304239
H	667.117	2.27089	0.712703
H	668.898	2.228	1.01855
H	668.273	2.49342	-0.647623
N	668.804	-0.317218	2.25135
C	668.658	-1.02881	3.49976
H	669.64	0.200917	2.10294
H	669.553	-0.880205	4.14402
H	668.535	-2.121	3.31728
H	667.762	-0.668589	4.05509
