44
  This energy is -1.4916 and Call times are: 225666
C	2.4054	0.969378	2.321
C	1.60811	1.20246	1.09579
O	1.59516	2.29589	0.547477
H	2.91795	1.91241	2.6106
H	3.17072	0.186463	2.1364
H	1.74341	0.649932	3.15335
N	0.911923	0.161195	0.63376
C	0.0561691	0.245616	-0.523442
C	-1.05635	-0.773478	-0.364347
O	-1.02523	-1.60345	0.542236
H	0.900224	-0.711105	1.1142
H	-0.405411	1.22466	-0.555734
C	0.852967	-0.0204725	-1.81942
H	1.318	-1.02893	-1.79129
H	0.207911	0.0553551	-2.71868
H	1.66646	0.731969	-1.91111
N	-2.07636	-0.728086	-1.24386
C	-3.18207	-1.65424	-1.1675
H	-2.08585	-0.046617	-1.96814
H	-3.91832	-1.45531	-1.97718
H	-3.70486	-1.56189	-0.187987
H	-2.82328	-2.70399	-1.2697
C	991.877	2.27237	-2.44994
C	991.667	1.03815	-1.66009
O	990.601	0.439901	-1.69181
H	990.944	2.51779	-3.00247
H	992.699	2.1237	-3.18113
H	992.129	3.11895	-1.77717
N	992.698	0.625117	-0.919493
C	992.631	-0.534264	-0.065148
C	993.594	-0.32762	1.08891
O	994.382	0.616325	1.0905
H	993.546	1.14535	-0.872272
H	991.636	-0.611493	0.354863
C	992.99	-1.81701	-0.846767
H	994.015	-1.74259	-1.26898
H	992.929	-2.71845	-0.203216
H	992.278	-1.94383	-1.69099
N	993.546	-1.20771	2.10831
C	994.421	-1.08801	3.25185
H	992.899	-1.9627	2.09091
H	994.228	-1.9056	3.9811
H	994.261	-0.113515	3.76782
H	995.488	-1.1418	2.93786
