44
  This energy is 0 and Call times are: 205049
C	-3.46648	0.258697	-0.171166
C	-2.19177	-0.414892	-0.50664
O	-2.17859	-1.52322	-1.02418
H	-4.3156	-0.403871	-0.446622
H	-3.55609	1.21094	-0.735026
H	-3.51322	0.468629	0.918254
N	-1.073	0.251224	-0.211636
C	0.242667	-0.292604	-0.439283
C	1.18795	0.31336	0.58091
O	0.824828	1.23904	1.30407
H	-1.09933	1.13492	0.24691
H	0.222463	-1.36126	-0.265492
C	0.7256	0.013731	-1.87392
H	0.756581	1.11024	-2.04927
H	1.73184	-0.411802	-2.06607
H	0.0148299	-0.432229	-2.60349
N	2.42895	-0.204592	0.668497
C	3.39536	0.304077	1.61374
H	2.703	-0.956172	0.077652
H	4.35526	-0.251999	1.53251
H	3.01721	0.199997	2.65655
H	3.59819	1.38335	1.42618
C	255.575	-1.59891	2.24474
C	256.922	-1.1731	1.80299
O	257.89	-1.26637	2.54472
H	255.63	-1.96404	3.29327
H	255.201	-2.42025	1.5975
H	254.869	-0.742955	2.19929
N	257.013	-0.685643	0.563474
C	258.248	-0.191353	0.00802782
C	257.912	0.872431	-1.02011
O	256.75	1.0623	-1.37312
H	256.209	-0.577898	-0.0138384
H	258.826	0.286462	0.789745
C	259.058	-1.33513	-0.641035
H	258.47	-1.8188	-1.45015
H	260.018	-0.969653	-1.06021
H	259.286	-2.10564	0.1276
N	258.929	1.60119	-1.521
C	258.705	2.63919	-2.49997
H	259.863	1.43563	-1.22001
H	259.664	3.12313	-2.787
H	258.025	3.42261	-2.09303
H	258.236	2.21832	-3.41858
