44
  This energy is 0 and Call times are: 202109
C	2.80535	-0.528321	-1.99088
C	1.54796	0.18559	-1.67393
O	1.23937	1.21443	-2.25932
H	3.35554	0.0293573	-2.77965
H	2.58187	-1.55031	-2.36283
H	3.44538	-0.596249	-1.08598
N	0.783253	-0.353578	-0.721621
C	-0.447572	0.249144	-0.274009
C	-0.669676	-0.147869	1.17327
O	0.0420679	-0.994375	1.71045
H	1.06773	-1.16901	-0.225617
H	-0.348015	1.3271	-0.301155
C	-1.63551	-0.207219	-1.1491
H	-1.74459	-1.31214	-1.11321
H	-2.58689	0.26088	-0.823088
H	-1.44778	0.0866639	-2.20491
N	-1.66463	0.465263	1.84421
C	-1.94672	0.156132	3.22661
H	-2.22718	1.15057	1.39369
H	-2.80001	0.764519	3.59942
H	-1.05916	0.368646	3.86563
H	-2.2063	-0.92095	3.34346
C	45.5116	1.77838	-2.03988
C	46.6211	1.71486	-1.06201
O	47.295	2.70268	-0.804274
H	45.4477	2.80709	-2.45645
H	44.5496	1.53108	-1.54378
H	45.6928	1.06471	-2.87109
N	46.8394	0.529243	-0.488411
C	47.9096	0.301193	0.450368
C	48.3207	-1.15595	0.354099
O	47.6592	-1.95465	-0.306349
H	46.3087	-0.275406	-0.73888
H	48.7674	0.897839	0.166064
C	47.4641	0.644211	1.88881
H	46.5906	0.0248989	2.18478
H	48.2838	0.485945	2.61927
H	47.1602	1.71285	1.9339
N	49.4356	-1.53563	1.00894
C	49.9071	-2.90032	0.970443
H	49.9599	-0.874021	1.53478
H	50.8373	-3.01209	1.57005
H	50.1259	-3.21092	-0.0769165
H	49.1386	-3.5935	1.38271
