44
  This energy is 0 and Call times are: 209669
C	0.498121	0.716974	3.36905
C	0.986478	0.265056	2.04677
O	2.18177	0.12505	1.82747
H	1.36661	0.899497	4.0386
H	-0.149338	-0.0615897	3.82444
H	-0.0778357	1.66036	3.26231
N	0.0553981	0.0252768	1.12051
C	0.378508	-0.378813	-0.225181
C	-0.726036	0.109049	-1.14362
O	-1.76115	0.588123	-0.684562
H	-0.911143	0.183139	1.30146
H	1.29435	0.10921	-0.534546
C	0.523703	-1.91343	-0.320552
H	-0.419065	-2.41428	-0.0133468
H	0.786104	-2.23605	-1.34894
H	1.33185	-2.24895	0.365511
N	-0.525924	0.00528918	-2.47223
C	-1.51875	0.448447	-3.42307
H	0.319874	-0.381346	-2.82467
H	-1.16836	0.279346	-4.46512
H	-1.72719	1.53543	-3.29546
H	-2.47471	-0.105495	-3.28014
C	590.95	-1.08031	-0.619641
C	589.669	-0.483043	-1.05959
O	589.563	0.0521045	-2.15449
H	591.715	-0.932468	-1.41209
H	590.823	-2.16877	-0.440905
H	591.3	-0.590899	0.313724
N	588.651	-0.561129	-0.199068
C	587.356	0.0116568	-0.467752
C	586.717	0.379889	0.858222
O	587.226	0.0300632	1.9212
H	588.764	-0.963545	0.704913
H	587.48	0.92791	-1.03132
C	586.462	-0.982842	-1.24127
H	586.326	-1.91888	-0.658853
H	585.467	-0.548372	-1.46632
H	586.953	-1.24436	-2.20425
N	585.583	1.10716	0.825517
C	584.908	1.50896	2.0373
H	585.188	1.38427	-0.0442306
H	583.995	2.09985	1.8015
H	585.577	2.13526	2.6708
H	584.604	0.617313	2.63226
