44
  This energy is -2.6928 and Call times are: 224791
C	-0.552238	-1.77149	-2.94441
C	0.321072	-1.32836	-1.8344
O	1.42164	-1.83144	-1.65534
H	-0.0475418	-2.58787	-3.50537
H	-0.748177	-0.926781	-3.63782
H	-1.51567	-2.15242	-2.54467
N	-0.160494	-0.361084	-1.05029
C	0.554638	0.144292	0.0950271
C	-0.461767	0.640374	1.10615
O	-1.65301	0.722857	0.813151
H	-1.07501	0.00994414	-1.18397
H	1.10303	-0.665645	0.559677
C	1.51386	1.2841	-0.312389
H	0.950458	2.11978	-0.779564
H	2.08056	1.67235	0.558605
H	2.2436	0.900551	-1.05852
N	-0.0122449	0.976368	2.33133
C	-0.906784	1.45335	3.36016
H	0.954642	0.898946	2.55089
H	-0.347332	1.6763	4.29532
H	-1.6838	0.688827	3.59042
H	-1.42436	2.38328	3.0308
C	996.356	-2.54728	1.091
C	995.655	-1.2593	1.2936
O	995.605	-0.732441	2.39648
H	996.765	-2.89963	2.06277
H	997.193	-2.4184	0.373893
H	995.649	-3.31005	0.700698
N	995.086	-0.716778	0.214259
C	994.333	0.511541	0.262477
C	993.294	0.472983	-0.842479
O	993.31	-0.417139	-1.69051
H	995.1	-1.17792	-0.668356
H	993.801	0.567427	1.20384
C	995.261	1.73457	0.0913078
H	995.799	1.68306	-0.879007
H	994.694	2.6871	0.140495
H	996.017	1.73809	0.905877
N	992.356	1.44043	-0.852814
C	991.324	1.48191	-1.86249
H	992.358	2.14983	-0.155804
H	990.65	2.35124	-1.69987
H	990.711	0.552341	-1.83545
H	991.772	1.57058	-2.87876
