44
  This energy is 0 and Call times are: 208549
C	1.68296	-2.5332	1.69211
C	1.65944	-1.24402	0.96506
O	2.63874	-0.511253	0.943958
H	2.67452	-2.66295	2.17774
H	1.51577	-3.37376	0.986235
H	0.895184	-2.54565	2.47463
N	0.518947	-0.933436	0.344429
C	0.329827	0.305813	-0.36765
C	-1.14502	0.658147	-0.320391
O	-1.9705	-0.143593	0.112639
H	-0.282884	-1.52104	0.40489
H	0.866769	1.09616	0.141938
C	0.81002	0.180546	-1.83017
H	0.2521	-0.623076	-2.35643
H	0.682465	1.13248	-2.38521
H	1.88959	-0.0855012	-1.84048
N	-1.51083	1.87824	-0.760381
C	-2.89108	2.30361	-0.74843
H	-0.827917	2.51471	-1.10332
H	-2.98765	3.33685	-1.14881
H	-3.29721	2.29035	0.288952
H	-3.51677	1.62552	-1.37281
C	507.561	-2.35994	-2.55425
C	508.288	-1.6348	-1.48803
O	509.395	-1.9997	-1.11555
H	508.171	-3.22686	-2.89012
H	507.383	-1.68872	-3.42055
H	506.588	-2.7322	-2.16911
N	507.67	-0.574298	-0.963581
C	508.232	0.205576	0.110681
C	507.089	0.806767	0.907225
O	505.931	0.730814	0.502256
H	506.751	-0.313983	-1.24869
H	508.781	-0.447953	0.777111
C	509.153	1.31711	-0.438119
H	508.588	1.99405	-1.1136
H	509.603	1.91591	0.380003
H	509.977	0.854741	-1.02405
N	507.391	1.41513	2.0713
C	506.368	2.01123	2.89949
H	508.333	1.46293	2.38435
H	506.815	2.46073	3.81349
H	505.622	1.24611	3.21418
H	505.829	2.81135	2.34296
