44
  This energy is 0 and Call times are: 207401
C	1.15345	2.92846	-1.48538
C	0.114878	1.89453	-1.2768
O	-1.02538	2.05001	-1.69158
H	0.708857	3.79168	-2.02675
H	1.98801	2.51599	-2.09047
H	1.54483	3.28045	-0.507618
N	0.493233	0.798292	-0.615379
C	-0.415534	-0.275153	-0.298489
C	0.0721744	-0.948708	0.970376
O	1.16759	-0.666458	1.45215
H	1.41422	0.704174	-0.24825
H	-1.39516	0.13617	-0.0892779
C	-0.491902	-1.29349	-1.45711
H	0.510981	-1.72359	-1.66515
H	-1.19903	-2.11771	-1.23092
H	-0.843257	-0.777104	-2.37702
N	-0.739906	-1.8553	1.54886
C	-0.362553	-2.54307	2.76161
H	-1.62429	-2.06735	1.14641
H	-1.16271	-3.24724	3.0796
H	-0.187223	-1.81586	3.58726
H	0.575551	-3.12411	2.60832
C	424.405	2.90974	1.40347
C	424.491	1.91689	0.308877
O	423.684	1.91767	-0.610725
H	423.528	3.57127	1.23177
H	425.325	3.53129	1.42889
H	424.281	2.39407	2.379
N	425.487	1.03143	0.387115
C	425.673	-0.0214616	-0.579912
C	426.352	-1.18704	0.114924
O	426.791	-1.06991	1.25712
H	426.111	1.01785	1.16307
H	424.706	-0.368257	-0.921565
C	426.525	0.468523	-1.77158
H	427.521	0.814583	-1.42287
H	426.664	-0.329115	-2.52981
H	426.013	1.32649	-2.25998
N	426.445	-2.34932	-0.560657
C	427.069	-3.51427	0.0219486
H	426.079	-2.42588	-1.48244
H	427.047	-4.36928	-0.689177
H	426.539	-3.81937	0.953329
H	428.131	-3.30207	0.282717
