44
  This energy is 0 and Call times are: 211629
C	-2.31554	1.91078	1.76065
C	-0.985942	1.27479	1.62343
O	-0.0751386	1.53892	2.39614
H	-2.29718	2.6192	2.61721
H	-3.09127	1.13911	1.94908
H	-2.56889	2.47127	0.836128
N	-0.843207	0.409082	0.617166
C	0.403197	-0.256365	0.330429
C	0.447943	-0.556815	-1.15594
O	-0.543956	-0.388311	-1.86266
H	-1.58157	0.235278	-0.0281841
H	1.22477	0.414426	0.548804
C	0.534694	-1.55859	1.15028
H	-0.302183	-2.25147	0.918775
H	1.49652	-2.07315	0.948681
H	0.491383	-1.31564	2.23446
N	1.61115	-1.00408	-1.66871
C	1.74966	-1.31106	-3.07326
H	2.40398	-1.1302	-1.08169
H	2.78014	-1.66376	-3.29895
H	1.5439	-0.40942	-3.69453
H	1.03218	-2.10854	-3.37391
C	725.19	2.38403	0.358025
C	726.184	1.4439	0.922231
O	726.467	1.46008	2.11239
H	724.813	3.04826	1.1658
H	724.335	1.8228	-0.074146
H	725.659	3.00866	-0.431379
N	726.748	0.590762	0.0639206
C	727.764	-0.354363	0.455886
C	728.647	-0.625647	-0.747365
O	728.341	-0.204001	-1.86106
H	726.538	0.617106	-0.909264
H	728.388	0.0893721	1.22108
C	727.129	-1.66574	0.968213
H	726.496	-2.12684	0.179975
H	727.901	-2.39649	1.28612
H	726.481	-1.44218	1.84357
N	729.776	-1.33418	-0.547419
C	730.681	-1.63653	-1.63192
H	730.008	-1.66337	0.361746
H	731.549	-2.22679	-1.26617
H	731.064	-0.699263	-2.09635
H	730.163	-2.2269	-2.42244
