44
  This energy is 0 and Call times are: 204321
C	2.33501	0.0297211	-2.58061
C	1.45722	0.720565	-1.60933
O	1.55311	1.92437	-1.41423
H	3.03707	0.765675	-3.02935
H	1.72642	-0.425948	-3.38976
H	2.92253	-0.762037	-2.06969
N	0.568494	-0.0406733	-0.966643
C	-0.324202	0.480516	0.0383512
C	-0.644981	-0.637878	1.01193
O	-0.299965	-1.79461	0.778176
H	0.530129	-1.02602	-1.10624
H	0.181398	1.25877	0.596313
C	-1.61813	1.0276	-0.603283
H	-2.14267	0.226939	-1.16706
H	-2.30781	1.44439	0.159053
H	-1.35876	1.83919	-1.3177
N	-1.31034	-0.314645	2.13836
C	-1.65433	-1.31136	3.12548
H	-1.57744	0.627504	2.3118
H	-2.19836	-0.848842	3.97832
H	-0.737338	-1.80516	3.52115
H	-2.30499	-2.09806	2.67951
C	203.677	-1.71556	-2.25345
C	204.856	-1.63285	-1.36146
O	205.508	-2.62868	-1.08107
H	203.524	-2.77249	-2.56187
H	203.84	-1.09646	-3.16067
H	202.769	-1.36067	-1.72182
N	205.157	-0.42197	-0.886526
C	206.248	-0.190383	0.0263715
C	205.904	1.016	0.879296
O	204.923	1.71126	0.620064
H	204.592	0.372198	-1.09098
H	206.344	-1.0393	0.691861
C	207.568	0.0475864	-0.740344
H	207.474	0.924799	-1.41542
H	208.418	0.213407	-0.0481331
H	207.796	-0.844411	-1.36371
N	206.703	1.28845	1.92918
C	206.451	2.41265	2.80011
H	207.49	0.711897	2.12532
H	207.218	2.46803	3.6034
H	205.449	2.32155	3.27842
H	206.474	3.36734	2.22637
