44
  This energy is 0 and Call times are: 211965
C	0.775758	-3.37915	-0.303742
C	-0.103901	-2.27998	0.153605
O	-1.23009	-2.50426	0.57527
H	0.235767	-4.34608	-0.207208
H	1.69509	-3.41734	0.317636
H	1.05507	-3.22821	-1.36784
N	0.399468	-1.04586	0.0764872
C	-0.352025	0.128369	0.44393
C	0.161896	1.29525	-0.378159
O	1.17379	1.18276	-1.06745
H	1.30256	-0.875467	-0.307246
H	-1.39267	-0.0171128	0.18215
C	-0.20951	0.424739	1.95293
H	0.856864	0.58449	2.22007
H	-0.794816	1.31867	2.25098
H	-0.584153	-0.445529	2.53485
N	-0.533807	2.44839	-0.330185
C	-0.123569	3.61058	-1.0833
H	-1.35243	2.51883	0.230148
H	-0.82392	4.45756	-0.911962
H	-0.106032	3.38554	-2.17432
H	0.898758	3.93406	-0.781053
C	753.553	-2.54698	-1.48018
C	752.418	-1.59707	-1.47189
O	751.737	-1.41555	-2.47188
H	753.65	-2.99468	-2.49312
H	753.378	-3.35907	-0.743576
H	754.497	-2.01788	-1.22941
N	752.188	-0.957797	-0.322721
C	751.146	0.02772	-0.172668
C	751.576	1.01041	0.900299
O	752.572	0.796016	1.5881
H	752.776	-1.08568	0.470715
H	751.044	0.583176	-1.09662
C	749.806	-0.639176	0.209032
H	749.908	-1.20045	1.16232
H	748.993	0.107942	0.313936
H	749.515	-1.35981	-0.586195
N	750.833	2.12306	1.06279
C	751.168	3.11744	2.05523
H	750.033	2.28094	0.493907
H	750.439	3.95657	2.03338
H	752.185	3.53235	1.86761
H	751.16	2.67198	3.07633
