44
  This energy is 0 and Call times are: 210453
C	0.135203	-1.5213	3.12731
C	0.0812009	-1.58297	1.64933
O	0.273202	-2.63319	1.05217
H	0.381692	-2.52849	3.52818
H	-0.848197	-1.20372	3.53328
H	0.918066	-0.803826	3.45203
N	-0.183897	-0.437508	1.01686
C	-0.226753	-0.330807	-0.420266
C	0.158071	1.08641	-0.801008
O	0.279203	1.9583	0.057393
H	-0.297382	0.417469	1.51486
H	0.51469	-0.992856	-0.849898
C	-1.63396	-0.672564	-0.957126
H	-2.39353	0.0131129	-0.524773
H	-1.67619	-0.607489	-2.0637
H	-1.8979	-1.71102	-0.659982
N	0.368611	1.34796	-2.10611
C	0.743643	2.6662	-2.56193
H	0.269748	0.628398	-2.78547
H	0.870931	2.6788	-3.66686
H	1.70362	2.98494	-2.0949
H	-0.0371632	3.41295	-2.29019
C	642.121	0.446336	3.06943
C	642.86	0.965117	1.89621
O	642.971	2.16729	1.69909
H	641.718	1.29996	3.65619
H	642.8	-0.146282	3.71778
H	641.276	-0.193027	2.7375
N	643.388	0.053084	1.07661
C	644.097	0.403731	-0.128521
C	643.933	-0.73136	-1.12152
O	643.423	-1.79713	-0.780917
H	643.254	-0.922087	1.22821
H	643.644	1.28399	-0.566741
C	645.593	0.654067	0.164666
H	646.061	-0.252185	0.604506
H	646.147	0.938423	-0.753091
H	645.689	1.48308	0.899396
N	644.356	-0.524057	-2.38396
C	644.236	-1.5446	-3.39889
H	644.762	0.346446	-2.64156
H	644.639	-1.18301	-4.37017
H	643.168	-1.82729	-3.54667
H	644.798	-2.4603	-3.10433
