44
  This energy is 0 and Call times are: 202585
C	0.537868	-1.25985	3.1994
C	0.73257	-1.30158	1.7326
O	1.56423	-2.04141	1.22525
H	1.25193	-1.96015	3.68476
H	-0.497629	-1.56675	3.45689
H	0.72491	-0.234031	3.58124
N	-0.0427876	-0.491763	1.00776
C	0.0602658	-0.389637	-0.426644
C	-0.374442	1.00561	-0.833927
O	-0.886631	1.76911	-0.0175708
H	-0.686628	0.134487	1.43804
H	1.09668	-0.502889	-0.719294
C	-0.817712	-1.45435	-1.12003
H	-1.8826	-1.332	-0.828348
H	-0.736228	-1.39502	-2.22473
H	-0.487016	-2.46697	-0.801295
N	-0.170858	1.37533	-2.11373
C	-0.547288	2.68555	-2.59103
H	0.248736	0.745067	-2.75854
H	-0.298466	2.79774	-3.66933
H	-0.01058	3.47965	-2.02304
H	-1.64179	2.85046	-2.46454
C	80.5879	2.69143	1.90583
C	80.4111	1.70391	0.817385
O	79.3295	1.55743	0.265113
H	79.619	3.20041	2.10091
H	81.3413	3.45273	1.6132
H	80.9195	2.18162	2.83492
N	81.489	0.991259	0.481795
C	81.4619	-0.0367892	-0.52862
C	82.5237	-1.06478	-0.186037
O	83.3348	-0.856408	0.71419
H	82.352	1.09304	0.968298
H	80.5039	-0.540737	-0.499893
C	81.7181	0.55998	-1.92986
H	82.7055	1.068	-1.96289
H	81.686	-0.219684	-2.71828
H	80.934	1.31517	-2.1561
N	82.5374	-2.21005	-0.896093
C	83.5076	-3.24829	-0.637373
H	81.8704	-2.36217	-1.61792
H	83.3547	-4.10949	-1.32453
H	83.4193	-3.61612	0.410567
H	84.5431	-2.86355	-0.782073
