44
  This energy is -0.2112 and Call times are: 223514
C	0.856355	1.68622	2.92165
C	0.012319	0.732711	2.16695
O	-0.778775	-0.00344321	2.74023
H	0.647389	1.58116	4.00846
H	0.628874	2.7276	2.61097
H	1.93088	1.47288	2.74005
N	0.167055	0.724011	0.840916
C	-0.552421	-0.178217	-0.0233162
C	0.300142	-0.437881	-1.25102
O	1.3243	0.211037	-1.45529
H	0.844362	1.30021	0.392456
H	-0.686883	-1.12626	0.48242
C	-1.91829	0.417802	-0.428779
H	-1.78038	1.38529	-0.956977
H	-2.48787	-0.273496	-1.08316
H	-2.52209	0.607079	0.485527
N	-0.101593	-1.40611	-2.09788
C	0.648932	-1.72747	-3.28936
H	-0.930882	-1.92317	-1.91347
H	0.157415	-2.55031	-3.85377
H	1.6824	-2.05079	-3.0273
H	0.724102	-0.839516	-3.95797
C	994.732	1.59943	-2.02838
C	993.407	1.52793	-1.37229
O	992.66	2.49584	-1.34857
H	994.887	2.6232	-2.43316
H	994.785	0.870661	-2.86435
H	995.535	1.37825	-1.29405
N	993.084	0.359219	-0.81378
C	991.848	0.149314	-0.102096
C	992.082	-0.922264	0.946063
O	993.13	-1.56479	0.966955
H	993.72	-0.407083	-0.805618
H	991.578	1.0584	0.420653
C	990.72	-0.275162	-1.06827
H	990.992	-1.21348	-1.59705
H	989.76	-0.426416	-0.534243
H	990.572	0.52003	-1.83117
N	991.107	-1.13459	1.85152
C	991.242	-2.1298	2.88944
H	990.267	-0.601834	1.82093
H	990.336	-2.15262	3.53347
H	992.124	-1.908	3.5333
H	991.384	-3.14238	2.44697
