44
  This energy is -3.272 and Call times are: 218139
C	-0.113743	1.40018	-3.18422
C	0.503193	1.25255	-1.84678
O	1.60629	1.72188	-1.60323
H	0.582015	1.95516	-3.8504
H	-1.06534	1.96686	-3.10627
H	-0.313798	0.401129	-3.62576
N	-0.207324	0.583033	-0.936124
C	0.279009	0.321151	0.395588
C	-0.358969	-0.964235	0.88785
O	-1.2634	-1.50217	0.251966
H	-1.08585	0.1716	-1.16146
H	1.34877	0.15704	0.35938
C	-0.0575409	1.49119	1.34584
H	-1.15559	1.65315	1.3915
H	0.323883	1.30768	2.3712
H	0.412766	2.42272	0.9619
N	0.106888	-1.49366	2.0362
C	-0.435304	-2.71741	2.57902
H	0.842061	-1.04603	2.53442
H	0.079281	-2.98907	3.52697
H	-0.308011	-3.5572	1.85803
H	-1.52346	-2.60557	2.7901
C	995.53	-2.73042	2.10419
C	994.907	-2.08697	0.925587
O	994.289	-2.74353	0.0984166
H	995.347	-3.82633	2.06342
H	995.087	-2.32706	3.03906
H	996.625	-2.54797	2.1055
N	995.06	-0.764855	0.821058
C	994.548	-0.00498127	-0.29204
C	995.436	1.20972	-0.484071
O	996.3	1.49549	0.343159
H	995.6	-0.250021	1.48076
H	994.617	-0.601009	-1.19347
C	993.087	0.427214	-0.0394911
H	993.017	1.04751	0.879408
H	992.677	1.0013	-0.895462
H	992.456	-0.47715	0.106086
N	995.249	1.95251	-1.59272
C	996.05	3.12321	-1.86274
H	994.548	1.703	-2.25255
H	995.744	3.59687	-2.8215
H	997.129	2.85284	-1.93402
H	995.936	3.87444	-1.04806
