44
  This energy is 0 and Call times are: 212021
C	2.77757	0.983945	-1.85193
C	1.70921	1.25164	-0.862953
O	1.72536	2.26036	-0.171121
H	3.52611	1.80505	-1.81529
H	2.34851	0.934171	-2.87476
H	3.28484	0.0244806	-1.61701
N	0.741718	0.336171	-0.772064
C	-0.341843	0.436414	0.173667
C	-0.802142	-0.967996	0.516176
O	-0.379896	-1.93909	-0.10865
H	0.764075	-0.499748	-1.313
H	0.0225062	0.88838	1.08778
C	-1.50939	1.26154	-0.410484
H	-1.89047	0.792527	-1.3426
H	-2.34435	1.35767	0.313484
H	-1.14778	2.28269	-0.661149
N	-1.67873	-1.10889	1.52997
C	-2.16853	-2.4072	1.9308
H	-2.0058	-0.311596	2.02638
H	-2.87918	-2.31399	2.78139
H	-1.32633	-3.06392	2.24811
H	-2.69608	-2.90628	1.08596
C	758.779	0.510348	1.54066
C	757.935	0.355636	0.334428
O	758.372	0.606037	-0.78031
H	759.782	0.882966	1.24134
H	758.897	-0.467453	2.05327
H	758.318	1.24044	2.23901
N	756.684	-0.0658242	0.535307
C	755.732	-0.223045	-0.535472
C	754.341	-0.00787981	0.0326917
O	754.165	0.0889669	1.2456
H	756.33	-0.226312	1.4523
H	755.899	0.546715	-1.27846
C	755.845	-1.62509	-1.17318
H	755.663	-2.41497	-0.413614
H	755.126	-1.75364	-2.00816
H	756.872	-1.76354	-1.5751
N	753.317	0.0807715	-0.83816
C	751.96	0.290487	-0.389999
H	753.48	0.00404291	-1.81618
H	751.262	0.335473	-1.25533
H	751.877	1.24585	0.177143
H	751.635	-0.538107	0.279957
