44
  This energy is 0 and Call times are: 203425
C	1.66725	3.05497	0.0119104
C	0.740208	2.07864	-0.603337
O	0.033705	2.3881	-1.55281
H	1.57357	4.03096	-0.512064
H	2.71458	2.69766	-0.078409
H	1.41665	3.19733	1.0843
N	0.721121	0.857369	-0.0643501
C	-0.159343	-0.186505	-0.526592
C	-0.45269	-1.10943	0.641189
O	0.160094	-0.99808	1.70129
H	1.27213	0.632553	0.73422
H	-1.10029	0.250914	-0.836308
C	0.481392	-0.973309	-1.69091
H	1.44156	-1.43105	-1.37061
H	-0.192575	-1.77109	-2.06487
H	0.694693	-0.276819	-2.531
N	-1.4099	-2.04332	0.474971
C	-1.76127	-2.96215	1.53255
H	-1.89763	-2.11527	-0.38875
H	-2.56903	-3.65176	1.20211
H	-2.11868	-2.40875	2.43103
H	-0.878993	-3.57307	1.83171
C	143.591	2.43593	-1.61394
C	142.353	1.97996	-0.940958
O	141.482	2.77321	-0.613957
H	143.562	3.54161	-1.72568
H	143.671	1.97492	-2.62082
H	144.48	2.15896	-1.00902
N	142.25	0.668409	-0.713861
C	141.125	0.0803777	-0.0301809
C	141.602	-1.17993	0.667111
O	142.728	-1.62759	0.458847
H	142.987	0.0402965	-0.94901
H	140.778	0.761383	0.736544
C	139.987	-0.246518	-1.02121
H	140.34	-0.953371	-1.80193
H	139.11	-0.687108	-0.504888
H	139.66	0.688793	-1.52554
N	140.752	-1.78001	1.5236
C	141.12	-2.98076	2.23693
H	139.846	-1.40051	1.68212
H	140.288	-3.32	2.89187
H	142.016	-2.80001	2.87419
H	141.363	-3.80218	1.52466
