44
  This energy is 0 and Call times are: 204965
C	-3.36782	0.00538846	-0.877732
C	-2.16971	0.657978	-0.303449
O	-2.16267	1.85369	-0.0453311
H	-4.16555	0.765704	-1.02416
H	-3.74263	-0.780671	-0.188984
H	-3.12148	-0.450707	-1.85976
N	-1.11131	-0.127183	-0.0897015
C	0.140036	0.371692	0.423921
C	1.25384	-0.514267	-0.101509
O	0.999373	-1.55916	-0.697467
H	-1.1185	-1.09032	-0.343036
H	0.312175	1.36896	0.0386219
C	0.13818	0.38064	1.96832
H	-0.0278675	-0.643957	2.36413
H	1.09122	0.775736	2.37592
H	-0.689609	1.02862	2.33057
N	2.52313	-0.109725	0.101635
C	3.64784	-0.885045	-0.367498
H	2.70897	0.740805	0.5824
H	4.60655	-0.386412	-0.103913
H	3.60791	-1.0049	-1.47444
H	3.64329	-1.90078	0.0901178
C	252.289	0.644976	3.36902
C	251.86	1.06768	2.01673
O	251.302	2.14127	1.83628
H	252.004	1.42711	4.10586
H	253.39	0.509727	3.3964
H	251.792	-0.308641	3.64715
N	252.114	0.216078	1.02041
C	251.718	0.468683	-0.34275
C	251.496	-0.867445	-1.02606
O	251.813	-1.91846	-0.472211
H	252.532	-0.671983	1.18902
H	250.772	0.995235	-0.348336
C	252.797	1.28516	-1.08799
H	253.765	0.740618	-1.09167
H	252.498	1.49806	-2.13474
H	252.949	2.25515	-0.566064
N	250.934	-0.857518	-2.25092
C	250.679	-2.08068	-2.97556
H	250.681	0.00268914	-2.68104
H	250.213	-1.86359	-3.96195
H	249.991	-2.74165	-2.40063
H	251.627	-2.63864	-3.1507
