44
  This energy is 0.1338 and Call times are: 222665
C	0.60652	-2.54871	-2.29105
C	0.270904	-2.07211	-0.930403
O	-0.122655	-2.8453	-0.0680208
H	0.422281	-3.6433	-2.35266
H	1.67642	-2.35133	-2.51263
H	-0.0276088	-2.03464	-3.04385
N	0.419809	-0.764482	-0.706093
C	0.0925804	-0.14621	0.55455
C	-0.305966	1.2928	0.286265
O	-0.15537	1.79077	-0.827765
H	0.701999	-0.141361	-1.42994
H	-0.767574	-0.644413	0.984154
C	1.2925	-0.203774	1.52518
H	2.17204	0.316342	1.08937
H	1.04858	0.256814	2.50441
H	1.57187	-1.26559	1.70079
N	-0.835354	1.99567	1.30692
C	-1.24899	3.36992	1.14403
H	-0.953142	1.5742	2.19998
H	-1.65859	3.77284	2.09645
H	-2.03701	3.45271	0.360805
H	-0.387689	4.00573	0.835741
C	995.345	1.11791	1.55601
C	996.109	0.100626	0.800183
O	995.674	-1.03188	0.644202
H	994.399	0.666082	1.92628
H	995.099	1.97826	0.898694
H	995.937	1.47437	2.42504
N	997.288	0.488967	0.308089
C	998.165	-0.400447	-0.412156
C	999.592	0.0705067	-0.20341
O	999.826	1.14538	0.345562
H	997.648	1.40204	0.478317
H	998.089	-1.39531	0.00863315
C	997.816	-0.420537	-1.9165
H	997.904	0.598021	-2.35102
H	998.475	-1.11235	-2.47982
H	996.765	-0.760455	-2.04495
N	1000.58	-0.733392	-0.632389
C	1001.97	-0.370884	-0.471808
H	1000.38	-1.60124	-1.0706
H	1002.64	-1.16111	-0.887511
H	1002.22	-0.235779	0.605789
H	1002.19	0.5853	-0.999417
