44
  This energy is 0 and Call times are: 208633
C	-0.555266	-0.997483	-3.28776
C	0.315987	-0.849567	-2.10025
O	1.40814	-1.39773	-2.04424
H	-0.0578642	-1.66139	-4.02783
H	-0.734403	-0.00716945	-3.75673
H	-1.52678	-1.44913	-2.99575
N	-0.157821	-0.0936335	-1.10705
C	0.555879	0.108537	0.1292
C	-0.460896	0.360537	1.22657
O	-1.64871	0.529618	0.957828
H	-1.0661	0.3126	-1.15032
H	1.08958	-0.798038	0.385946
C	1.53376	1.29832	0.0134655
H	0.985436	2.23072	-0.239552
H	2.09943	1.45553	0.954652
H	2.26354	1.09572	-0.800615
N	-0.0157064	0.383095	2.49831
C	-0.911024	0.610425	3.60868
H	0.948386	0.240117	2.69619
H	-0.35537	0.591845	4.57207
H	-1.70023	-0.175176	3.64408
H	-1.41324	1.6002	3.51237
C	511.429	0.253132	2.6255
C	511.803	0.428074	1.20376
O	510.962	0.70115	0.357797
H	510.332	0.390983	2.73687
H	511.952	1.0052	3.25352
H	511.7	-0.767425	2.96938
N	513.094	0.269406	0.905272
C	513.602	0.365813	-0.440532
C	514.834	-0.512899	-0.545011
O	515.332	-1.02219	0.457557
H	513.76	0.00694152	1.59809
H	512.865	-0.0283533	-1.1295
C	513.948	1.82834	-0.796118
H	514.712	2.22979	-0.0960492
H	514.327	1.9177	-1.83474
H	513.034	2.4544	-0.705203
N	515.354	-0.718572	-1.77147
C	516.522	-1.54463	-1.96899
H	514.935	-0.301259	-2.57121
H	516.793	-1.59072	-3.04669
H	516.334	-2.58257	-1.61015
H	517.392	-1.13643	-1.40527
