44
  This energy is 0 and Call times are: 207597
C	-0.449813	0.357121	-3.43261
C	0.25893	-0.209553	-2.26312
O	1.06973	-1.11632	-2.39267
H	-0.12991	-0.180232	-4.35174
H	-0.205642	1.4346	-3.54289
H	-1.54698	0.237617	-3.30997
N	-0.0387034	0.320803	-1.07463
C	0.537067	-0.154351	0.158772
C	-0.455291	0.107901	1.27591
O	-1.46189	0.785597	1.07791
H	-0.730991	1.03054	-0.980389
H	0.678033	-1.22627	0.0975806
C	1.87903	0.552631	0.449545
H	1.73318	1.65144	0.522881
H	2.33921	0.185364	1.38969
H	2.58695	0.353628	-0.384478
N	-0.196406	-0.4341	2.48225
C	-1.08661	-0.243098	3.60351
H	0.621142	-0.98289	2.62195
H	-0.700751	-0.766973	4.50567
H	-2.10047	-0.643213	3.3727
H	-1.18934	0.839888	3.84378
C	438.69	-0.922784	3.20004
C	439.183	0.077697	2.22689
O	439.211	1.26905	2.50311
H	438.367	-0.403897	4.12893
H	439.497	-1.64213	3.45176
H	437.823	-1.47331	2.77697
N	439.587	-0.393256	1.0449
C	440.052	0.461764	-0.0187283
C	439.753	-0.221324	-1.33983
O	439.354	-1.3839	-1.37152
H	439.52	-1.36111	0.819992
H	439.494	1.38937	-0.00137292
C	441.565	0.738123	0.117192
H	442.14	-0.212432	0.0888552
H	441.933	1.40667	-0.688169
H	441.762	1.23087	1.09434
N	439.931	0.493586	-2.46806
C	439.667	-0.0712739	-3.7708
H	440.251	1.43426	-2.42195
H	439.874	0.672707	-4.5714
H	438.602	-0.38748	-3.85287
H	440.307	-0.965417	-3.94891
