44
  This energy is 0 and Call times are: 204349
C	2.89603	-1.9295	0.0518689
C	1.60319	-1.53554	-0.551869
O	1.28123	-1.92239	-1.66681
H	3.45599	-2.56941	-0.664268
H	2.72291	-2.50291	0.986738
H	3.50309	-1.02775	0.278616
N	0.822127	-0.741283	0.183975
C	-0.445267	-0.239768	-0.285871
C	-0.708323	1.09118	0.393045
O	0.0116951	1.48416	1.30894
H	1.11593	-0.401511	1.07285
H	-0.382647	-0.0519998	-1.35051
C	-1.58222	-1.23869	0.0219218
H	-1.65374	-1.42357	1.11496
H	-2.56118	-0.870179	-0.347342
H	-1.3648	-2.20767	-0.478223
N	-1.74905	1.82399	-0.0495777
C	-2.07262	3.10584	0.532093
H	-2.31771	1.49114	-0.794495
H	-2.96033	3.55188	0.0318475
H	-1.21807	3.81266	0.425139
H	-2.2985	2.99905	1.61778
C	207.242	-3.44753	-0.133561
C	207.887	-2.19938	-0.600468
O	208.854	-2.22798	-1.34928
H	207.786	-4.32119	-0.553938
H	206.186	-3.48368	-0.474461
H	207.275	-3.50344	0.974992
N	207.357	-1.05656	-0.158404
C	207.9	0.236581	-0.491278
C	207.58	1.19083	0.643727
O	206.819	0.858002	1.55051
H	206.595	-1.05033	0.483306
H	208.979	0.164474	-0.557243
C	207.31	0.757777	-1.81991
H	206.205	0.841944	-1.74926
H	207.731	1.74666	-2.09421
H	207.55	0.0400687	-2.63459
N	208.164	2.40511	0.623531
C	207.923	3.3773	1.66414
H	208.78	2.65465	-0.116455
H	208.493	4.312	1.46897
H	208.235	2.9768	2.65583
H	206.84	3.63253	1.72025
