44
  This energy is 0 and Call times are: 212749
C	1.2993	0.442102	3.19829
C	0.50939	-0.322043	2.20669
O	0.127327	-1.45986	2.44295
H	1.46604	-0.187699	4.09908
H	0.75183	1.36032	3.4981
H	2.28409	0.722794	2.76876
N	0.245276	0.297349	1.05388
C	-0.475411	-0.33299	-0.0240086
C	-0.00718739	0.282085	-1.32938
O	0.723918	1.27061	-1.33329
H	0.598005	1.20834	0.860126
H	-0.22336	-1.38568	-0.0547318
C	-1.99885	-0.145651	0.147118
H	-2.25915	0.934088	0.168112
H	-2.56553	-0.638456	-0.669302
H	-2.31788	-0.596124	1.11234
N	-0.414073	-0.298336	-2.4755
C	-0.0144842	0.213865	-3.76552
H	-1.00216	-1.1	-2.45197
H	-0.450863	-0.399391	-4.58449
H	1.09477	0.197382	-3.86824
H	-0.357499	1.26598	-3.89411
C	805.496	0.215166	2.68496
C	805.788	-0.0345333	1.25544
O	804.947	-0.523472	0.513591
H	804.462	-0.122289	2.91287
H	805.578	1.29965	2.90849
H	806.207	-0.348562	3.32496
N	807.009	0.299815	0.83203
C	807.455	0.077274	-0.520947
C	808.959	-0.117337	-0.497569
O	809.605	0.0894293	0.527979
H	807.696	0.658896	1.45717
H	807.017	-0.839651	-0.895037
C	807.077	1.26793	-1.42911
H	807.535	2.20707	-1.0517
H	807.402	1.10245	-2.47659
H	805.972	1.39671	-1.4248
N	809.554	-0.530778	-1.63396
C	810.98	-0.748271	-1.70483
H	809.014	-0.69676	-2.45246
H	811.276	-1.08621	-2.72233
H	811.296	-1.52551	-0.971684
H	811.533	0.190566	-1.47221
