44
  This energy is 0 and Call times are: 207345
C	-1.84698	1.11866	2.72946
C	-1.37212	0.0433872	1.82977
O	-1.54849	-1.13557	2.10429
H	-2.32941	0.664378	3.62208
H	-2.58943	1.75632	2.20514
H	-0.992172	1.74442	3.06237
N	-0.746216	0.433862	0.717053
C	-0.190449	-0.496558	-0.233738
C	0.983431	0.174613	-0.921552
O	1.21117	1.37122	-0.75431
H	-0.574081	1.39631	0.527508
H	0.195569	-1.3594	0.294583
C	-1.25179	-0.926298	-1.27014
H	-1.64049	-0.0426346	-1.81976
H	-0.839839	-1.65342	-1.9996
H	-2.1048	-1.40771	-0.743871
N	1.76568	-0.588387	-1.71019
C	2.90846	-0.0378519	-2.40095
H	1.56779	-1.55564	-1.82989
H	3.42299	-0.822933	-2.99771
H	3.63957	0.385982	-1.67493
H	2.59475	0.77834	-3.09129
C	418.536	0.723632	1.2561
C	419.59	-0.233839	0.85323
O	419.506	-1.42239	1.12989
H	417.746	0.183313	1.82142
H	418.08	1.19064	0.358047
H	418.966	1.51487	1.90609
N	420.627	0.27281	0.180845
C	421.75	-0.526399	-0.24055
C	422.972	0.370685	-0.302461
O	422.866	1.58928	-0.178402
H	420.701	1.2491	-0.00116773
H	421.946	-1.28769	0.504146
C	421.482	-1.17219	-1.61765
H	421.291	-0.391177	-2.38422
H	422.334	-1.80135	-1.94683
H	420.579	-1.81777	-1.55082
N	424.17	-0.21694	-0.488801
C	425.389	0.555662	-0.555532
H	424.237	-1.20476	-0.582947
H	426.267	-0.108253	-0.712675
H	425.545	1.12559	0.389001
H	425.346	1.28558	-1.39608
