44
  This energy is 0 and Call times are: 211937
C	3.37585	0.0634659	-0.843976
C	2.25067	0.405099	0.0551383
O	2.44945	0.859563	1.17333
H	4.3368	0.271157	-0.325013
H	3.32681	0.67654	-1.76836
H	3.33783	-1.01338	-1.11241
N	1.02282	0.187584	-0.42177
C	-0.169564	0.430374	0.351425
C	-1.24853	-0.520217	-0.132075
O	-1.08082	-1.20244	-1.14111
H	0.877862	-0.221128	-1.31832
H	0.0246945	0.196094	1.39066
C	-0.63359	1.89607	0.204274
H	-0.843134	2.13386	-0.860425
H	-1.5431	2.09923	0.805967
H	0.174381	2.57394	0.556455
N	-2.38578	-0.593135	0.587203
C	-3.46564	-1.47368	0.206766
H	-2.50132	-0.0362688	1.40306
H	-4.3122	-1.39018	0.923407
H	-3.12185	-2.53334	0.192386
H	-3.84087	-1.21864	-0.810729
C	748.094	2.03292	2.32428
C	748.088	1.17936	1.11492
O	747.038	0.819261	0.599963
H	747.047	2.23498	2.63688
H	748.598	2.99875	2.1083
H	748.624	1.51777	3.15339
N	749.281	0.829647	0.628911
C	749.436	-0.0323421	-0.516354
C	750.752	-0.772982	-0.3766
O	751.555	-0.470052	0.504193
H	750.126	1.09678	1.08294
H	748.647	-0.773954	-0.514374
C	749.41	0.782782	-1.82789
H	750.225	1.53668	-1.83495
H	749.514	0.128748	-2.71777
H	748.441	1.32258	-1.90523
N	751.002	-1.77385	-1.24379
C	752.226	-2.53825	-1.184
H	750.338	-2.00692	-1.94708
H	752.244	-3.31529	-1.97971
H	752.325	-3.04524	-0.196829
H	753.111	-1.87516	-1.32148
