44
  This energy is 0 and Call times are: 210481
C	-2.21936	0.0305487	2.6807
C	-1.64534	0.634281	1.45712
O	-2.17772	1.59268	0.914487
H	-3.15115	0.571422	2.95478
H	-1.49785	0.10911	3.52093
H	-2.4634	-1.03791	2.50198
N	-0.527831	0.074874	0.987435
C	0.123468	0.524232	-0.21774
C	0.851167	-0.65734	-0.830846
O	0.956077	-1.71874	-0.219173
H	-0.129007	-0.73037	1.41684
H	-0.625931	0.846413	-0.929942
C	1.11216	1.67159	0.0844003
H	1.88736	1.33838	0.806942
H	1.60988	2.03571	-0.837673
H	0.559277	2.52214	0.539633
N	1.36665	-0.501686	-2.06619
C	2.071	-1.57268	-2.73181
H	1.26802	0.363346	-2.54688
H	2.41792	-1.24953	-3.73801
H	1.40874	-2.45974	-2.85761
H	2.95996	-1.88692	-2.1384
C	642.47	-1.02079	-0.797027
C	643.689	-0.225237	-1.06593
O	643.844	0.353437	-2.13237
H	641.809	-0.993699	-1.6906
H	641.92	-0.597304	0.0695759
H	642.741	-2.076	-0.582558
N	644.596	-0.180657	-0.0876148
C	645.851	0.517026	-0.217692
C	646.87	-0.172562	0.670082
O	646.525	-1.04692	1.46276
H	644.473	-0.690435	0.759124
H	646.203	0.432279	-1.23835
C	645.701	2.00128	0.181979
H	645.35	2.08888	1.2324
H	646.657	2.55259	0.0728635
H	644.945	2.48379	-0.475349
N	648.159	0.202083	0.550474
C	649.199	-0.402304	1.34985
H	648.419	0.908511	-0.0994409
H	650.19	0.0397442	1.10522
H	649.249	-1.49972	1.1643
H	649.002	-0.244317	2.43503
