44
  This energy is 0 and Call times are: 206169
C	-1.5409	-2.85917	-1.25038
C	-1.14893	-1.436	-1.36034
O	-1.26343	-0.827614	-2.41541
H	-1.90433	-3.21741	-2.23803
H	-2.35483	-2.9754	-0.504214
H	-0.668322	-3.47386	-0.944019
N	-0.66731	-0.865874	-0.253376
C	-0.20449	0.499028	-0.215937
C	0.864184	0.606864	0.855445
O	1.08102	-0.327238	1.62496
H	-0.541834	-1.38542	0.586977
H	0.26147	0.744312	-1.16217
C	-1.36927	1.46857	0.0815816
H	-1.8409	1.22395	1.05717
H	-1.02821	2.52397	0.0993095
H	-2.14289	1.36686	-0.71058
N	1.56682	1.75472	0.924447
C	2.60718	1.94619	1.9079
H	1.37966	2.49774	0.290439
H	3.06704	2.95353	1.80287
H	3.40788	1.18104	1.7867
H	2.19515	1.8544	2.9389
C	337.123	2.29333	-2.55354
C	337.264	0.906969	-2.05433
O	336.951	-0.0506051	-2.748
H	336.697	2.27245	-3.57999
H	338.115	2.7911	-2.58649
H	336.442	2.87035	-1.89313
N	337.746	0.767941	-0.816943
C	337.9	-0.515517	-0.178469
C	337.766	-0.317478	1.31973
O	337.726	0.811668	1.80463
H	337.958	1.5584	-0.249505
H	337.094	-1.16848	-0.490417
C	339.269	-1.14222	-0.522202
H	340.096	-0.477574	-0.192896
H	339.394	-2.13708	-0.0476679
H	339.347	-1.2706	-1.62387
N	337.686	-1.41934	2.09137
C	337.552	-1.32886	3.52665
H	337.716	-2.32442	1.68028
H	337.501	-2.34262	3.98159
H	336.625	-0.775249	3.80043
H	338.42	-0.788609	3.9692
