44
  This energy is 0 and Call times are: 204489
C	1.92257	0.487569	-2.85984
C	0.737548	-0.0631126	-2.16442
O	-0.20083	-0.536091	-2.79064
H	1.77622	0.402297	-3.95856
H	2.83262	-0.0803132	-2.57337
H	2.05721	1.55809	-2.59726
N	0.754574	-0.0104468	-0.830511
C	-0.344342	-0.467565	-0.0168855
C	-0.342624	0.331695	1.27258
O	0.593413	1.07955	1.54874
H	1.50746	0.414725	-0.336285
H	-1.27698	-0.257354	-0.525445
C	-0.218797	-1.97761	0.281869
H	0.732968	-2.19235	0.812967
H	-1.06645	-2.3446	0.896129
H	-0.21411	-2.5421	-0.676085
N	-1.40322	0.197228	2.09299
C	-1.49167	0.922193	3.3391
H	-2.15286	-0.409611	1.85038
H	-2.43776	0.677266	3.87027
H	-1.46641	2.02103	3.15688
H	-0.637709	0.663125	4.00602
C	220.718	0.479228	1.66561
C	219.582	0.977238	0.858026
O	219.411	2.1749	0.677092
H	221.305	1.34335	2.0455
H	221.38	-0.158893	1.0428
H	220.344	-0.10912	2.53003
N	218.765	0.0520057	0.348359
C	217.593	0.384201	-0.422454
C	216.575	-0.724334	-0.235636
O	216.877	-1.76707	0.341294
H	218.894	-0.917064	0.538451
H	217.155	1.2942	-0.0319706
C	217.945	0.550377	-1.91715
H	218.385	-0.386373	-2.3209
H	217.053	0.819906	-2.51922
H	218.697	1.36111	-2.02926
N	215.332	-0.519223	-0.715686
C	214.295	-1.51535	-0.579488
H	215.105	0.332673	-1.17595
H	213.346	-1.15989	-1.03732
H	214.104	-1.73881	0.495107
H	214.593	-2.46413	-1.08166
