44
  This energy is 0.1013 and Call times are: 223738
C	2.92465	1.55056	-1.07466
C	2.19707	0.605166	-0.198298
O	2.79711	-0.198338	0.502238
H	4.0179	1.37303	-0.978906
H	2.70298	2.59682	-0.776434
H	2.62708	1.39726	-2.13346
N	0.864345	0.680699	-0.220897
C	0.0191224	-0.201512	0.544519
C	-1.29904	-0.350224	-0.191602
O	-1.56048	0.355413	-1.16394
H	0.389332	1.31224	-0.827016
H	0.475363	-1.18251	0.5905
C	-0.214436	0.354319	1.9664
H	-0.69211	1.35617	1.91998
H	-0.852533	-0.322928	2.5703
H	0.763972	0.462395	2.48349
N	-2.16184	-1.28481	0.253555
C	-3.438	-1.50179	-0.38715
H	-1.93075	-1.84892	1.03933
H	-4.00248	-2.31191	0.124999
H	-3.29776	-1.79246	-1.45351
H	-4.05405	-0.573941	-0.360393
C	991.225	0.0879586	0.164416
C	992.511	0.48383	-0.452747
O	992.544	1.05911	-1.53179
H	990.389	0.380849	-0.5078
H	991.096	0.599042	1.14162
H	991.195	-1.01171	0.315927
N	993.616	0.176625	0.229982
C	994.941	0.458833	-0.262045
C	995.891	-0.572718	0.317794
O	995.517	-1.35069	1.19345
H	993.574	-0.328205	1.08746
H	994.955	0.341128	-1.33841
C	995.384	1.88474	0.132652
H	995.38	2.00275	1.23723
H	996.398	2.1191	-0.252309
H	994.671	2.62239	-0.295634
N	997.148	-0.608099	-0.167013
C	998.119	-1.55927	0.320228
H	997.43	0.0268323	-0.878396
H	999.093	-1.42972	-0.202186
H	997.767	-2.60252	0.150904
H	998.287	-1.42473	1.41333
