44
  This energy is 0 and Call times are: 208353
C	-3.12113	-0.435272	1.47708
C	-2.26102	-0.171882	0.301503
O	-2.71769	-0.187837	-0.833226
H	-4.15719	-0.646985	1.13409
H	-3.1379	0.451244	2.14533
H	-2.74199	-1.31461	2.03932
N	-0.973793	0.0783321	0.552116
C	-0.00596146	0.31052	-0.490934
C	1.35181	-0.138821	0.0151392
O	1.51263	-0.452588	1.19302
H	-0.608573	0.0474304	1.47814
H	-0.250286	-0.304249	-1.34825
C	0.0306237	1.80275	-0.887361
H	0.291575	2.43299	-0.0105831
H	0.76222	1.99212	-1.69941
H	-0.975133	2.11169	-1.24702
N	2.36482	-0.188299	-0.872214
C	3.69063	-0.609024	-0.483144
H	2.21422	0.0655308	-1.82193
H	4.38283	-0.582598	-1.35342
H	3.67109	-1.64837	-0.0823193
H	4.09819	0.0591384	0.309696
C	494.268	-3.18743	-1.2771
C	493.513	-1.91448	-1.23795
O	492.695	-1.6367	-2.10388
H	493.971	-3.76251	-2.18106
H	494.042	-3.79408	-0.375058
H	495.358	-2.9845	-1.32216
N	493.778	-1.09855	-0.215094
C	493.156	0.193147	-0.0647578
C	494.114	1.09507	0.689937
O	495.136	0.640791	1.2015
H	494.477	-1.32025	0.459545
H	493.003	0.631846	-1.04286
C	491.815	0.0745369	0.691755
H	491.973	-0.365738	1.69933
H	491.319	1.06073	0.801769
H	491.132	-0.596146	0.125593
N	493.809	2.4051	0.769588
C	494.664	3.34014	1.46275
H	492.98	2.75463	0.345735
H	494.241	4.3681	1.4167
H	495.679	3.35767	1.0047
H	494.773	3.05341	2.53373
