44
  This energy is 0 and Call times are: 208017
C	-1.00886	1.62811	2.90588
C	-0.0943673	0.72955	2.16599
O	0.96252	0.357938	2.65722
H	-0.56017	1.87795	3.89185
H	-1.98579	1.1274	3.07214
H	-1.16749	2.56722	2.33492
N	-0.487345	0.356743	0.945763
C	0.315018	-0.479981	0.0886362
C	-0.019343	-0.140209	-1.35161
O	-0.963022	0.600404	-1.6212
H	-1.33107	0.700377	0.543373
H	1.36166	-0.247242	0.240336
C	0.0465308	-1.97488	0.368665
H	-1.02502	-2.21646	0.202979
H	0.668625	-2.62956	-0.275484
H	0.290445	-2.19902	1.43009
N	0.757931	-0.671166	-2.31595
C	0.519135	-0.399517	-3.7143
H	1.51945	-1.26489	-2.07794
H	1.26424	-0.926549	-4.35012
H	0.592807	0.692903	-3.92037
H	-0.499169	-0.739155	-4.01237
C	470.78	-3.30848	0.0350329
C	471.041	-1.8528	-0.0251267
O	472.175	-1.40802	0.0936569
H	471.736	-3.84662	0.21251
H	470.343	-3.6587	-0.923741
H	470.079	-3.5373	0.865652
N	469.979	-1.06603	-0.212016
C	470.07	0.372361	-0.249466
C	468.748	0.942105	0.231003
O	467.776	0.211427	0.412768
H	469.058	-1.4402	-0.265978
H	470.834	0.70039	0.444287
C	470.386	0.868248	-1.67752
H	469.597	0.540927	-2.38774
H	470.472	1.97351	-1.71674
H	471.353	0.432648	-2.01156
N	468.685	2.26907	0.457148
C	467.471	2.89958	0.920955
H	469.483	2.8433	0.308276
H	467.62	3.99459	1.04728
H	467.157	2.4733	1.90117
H	466.642	2.73994	0.193516
