44
  This energy is 0 and Call times are: 210397
C	-0.17096	-0.796968	-3.38353
C	0.0495668	-1.16637	-1.96718
O	0.126221	-2.33775	-1.62308
H	-0.261072	-1.72138	-3.99446
H	0.685037	-0.198901	-3.7608
H	-1.10648	-0.207216	-3.484
N	0.155825	-0.156717	-1.10018
C	0.328943	-0.359102	0.316728
C	-0.277587	0.827593	1.0416
O	-0.653258	1.82004	0.420595
H	0.0503828	0.79047	-1.38929
H	-0.222529	-1.23969	0.621808
C	1.8242	-0.505604	0.674459
H	2.38856	0.401911	0.371219
H	1.96978	-0.675776	1.76091
H	2.24912	-1.37498	0.126762
N	-0.39531	0.748212	2.3817
C	-0.965417	1.82629	3.15559
H	-0.0894207	-0.0647393	2.86606
H	-0.975394	1.57079	4.23811
H	-2.01249	2.02976	2.83386
H	-0.375074	2.76148	3.02128
C	638.339	2.88315	1.3961
C	639.361	1.81276	1.3534
O	640.38	1.88286	2.02682
H	638.678	3.6862	2.08649
H	637.374	2.47627	1.76352
H	638.196	3.31628	0.383657
N	639.107	0.781693	0.544294
C	640.026	-0.314535	0.36401
C	639.82	-0.88003	-1.02863
O	638.876	-0.511913	-1.72464
H	638.292	0.758459	-0.0284954
H	641.041	0.058549	0.413882
C	639.797	-1.40718	1.43132
H	638.759	-1.7977	1.37364
H	640.508	-2.25046	1.31164
H	639.945	-0.969115	2.44252
N	640.711	-1.78834	-1.4726
C	640.599	-2.37723	-2.7867
H	641.471	-2.07063	-0.896407
H	641.426	-3.09978	-2.96552
H	640.644	-1.59088	-3.57466
H	639.631	-2.91802	-2.89395
