44
  This energy is 0 and Call times are: 205385
C	0.00539504	-3.23452	-1.28472
C	-0.461204	-1.82976	-1.29304
O	-1.10812	-1.38318	-2.23031
H	-0.312046	-3.73256	-2.22657
H	-0.435885	-3.77927	-0.423755
H	1.11313	-3.26942	-1.21547
N	-0.135157	-1.08984	-0.230684
C	-0.480933	0.304988	-0.114718
C	0.564422	0.980913	0.75241
O	1.40793	0.318571	1.35367
H	0.426829	-1.45595	0.505527
H	-0.435967	0.766719	-1.09319
C	-1.88726	0.47545	0.500446
H	-1.93088	0.0111383	1.50869
H	-2.17077	1.54478	0.582178
H	-2.63489	-0.0336027	-0.146282
N	0.537538	2.32599	0.830284
C	1.496	3.05635	1.62659
H	-0.150119	2.8448	0.333258
H	1.30877	4.15085	1.56139
H	2.53359	2.85663	1.27333
H	1.43105	2.75244	2.69643
C	281.78	-1.97115	-2.86722
C	281.976	-1.7777	-1.41284
O	282.173	-2.72845	-0.668679
H	281.827	-3.05655	-3.10297
H	282.577	-1.44562	-3.43418
H	280.788	-1.57895	-3.17493
N	281.924	-0.519648	-0.969078
C	282.054	-0.177447	0.425417
C	281.28	1.10403	0.671941
O	280.82	1.7525	-0.266068
H	281.722	0.23979	-1.58098
H	281.595	-0.951984	1.02747
C	283.538	0.00283347	0.813468
H	284.006	0.80456	0.203408
H	283.652	0.25297	1.88816
H	284.086	-0.944382	0.617318
N	281.11	1.496	1.95007
C	280.383	2.69912	2.28159
H	281.486	0.955864	2.69576
H	280.353	2.84939	3.38329
H	279.335	2.64069	1.90699
H	280.866	3.59025	1.81908
