%nprocshared=8
%mem=8GB
%chk=C:\Users\Tao\Documents\GitHub\result\0515-AT-g09\A-opt.chk
# opt b3lyp/6-31g geom=connectivity

Title Card Required

0 1
 C                  1.36522300    0.19208600    0.00000000
 N                  1.69051200   -1.12786000    0.00000000
 C                  0.69611100   -2.04873500    0.00000000
 C                  0.00000000    0.54779500    0.00000000
 C                 -0.92846800   -0.50623000    0.00000000
 N                 -0.63568600   -1.82397700    0.00000000
 H                  1.01035400   -3.08473400    0.00000000
 N                  2.36287900    1.10862400    0.00000000
 H                  3.31688600    0.78696600    0.00000000
 H                  2.15434500    2.09321400    0.00000000
 N                 -0.65172400    1.78639000    0.00000000
 C                 -1.94279500    1.48304200    0.00000000
 N                 -2.16847400    0.10909200    0.00000000
 H                 -2.74858700    2.19820500    0.00000000
 H                 -3.05597500   -0.36729000    0.00000000

 1 2 1.5 4 1.5 8 1.5
 2 3 1.5
 3 6 1.5 7 1.0
 4 5 1.5 11 1.0
 5 6 1.5 13 1.0
 6
 7
 8 9 1.0 10 1.0
 9
 10
 11 12 1.5
 12 13 1.0 14 1.0
 13 15 1.0
 14
 15

