15
	Energy:      -4.3752491
C         -6.03760        3.32386        0.00000
N         -5.30514        2.18517        0.00000
C         -5.95791        1.00099       -0.00000
C         -7.43856        3.21741        0.00000
C         -7.95972        1.93536       -0.00000
N         -7.28849        0.77524       -0.00000
H         -5.32686        0.11661       -0.00000
N         -5.37408        4.52915        0.00000
H         -4.36727        4.51985       -0.00000
H         -5.90960        5.38504       -0.00000
N         -8.45451        4.15510        0.00000
C         -9.56479        3.44712       -0.00000
N         -9.31378        2.10148       -0.00000
H        -10.57045        3.84715        0.00000
H         -9.99240        1.35535       -0.00000
