19
	Energy:     -95.7257490
C         -1.02540        3.02302       -0.05018
C         -2.07096        1.95785       -0.02211
H         -0.72244        3.28290        0.96895
H         -1.38115        3.93229       -0.54454
H         -0.13914        2.68787       -0.60008
C         -3.50215        2.36057       -0.08102
C         -1.79360        0.64849        0.02756
N         -2.78500       -0.29090        0.03229
H         -0.77601        0.27182        0.07121
N         -4.41450        1.34248       -0.10365
N        -14.02601       -9.15782       -0.08899
H        -13.02547       -9.11682        0.08588
H        -14.27255       -8.20425       -0.39016
H        -14.46072       -9.23437        0.83039
C         -4.11693        0.01275       -0.03665
H         -5.38854        1.59622       -0.14873
H         -2.55509       -1.27676        0.07649
O         -4.98072       -0.85660       -0.03619
O         -3.84667        3.53777       -0.10728
