44
  This energy is 1.12825e-319 and Call times are: 122499
C	-3.17895	0.736509	1.21571
C	-2.12691	0.83458	0.178987
O	-2.35309	1.35573	-0.904406
H	-4.11899	1.18646	0.828761
H	-2.86773	1.28486	2.12964
H	-3.36796	-0.327731	1.46991
N	-0.935234	0.321088	0.492993
C	0.187212	0.341204	-0.410632
C	1.15774	-0.738161	0.0278589
O	1.04932	-1.27064	1.13083
H	-0.771816	-0.126873	1.36796
H	-0.157447	0.0892282	-1.40551
C	0.887388	1.71847	-0.407322
H	1.2391	1.9741	0.614963
H	1.75204	1.7375	-1.10215
H	0.165637	2.50055	-0.729156
N	2.12155	-1.10252	-0.840658
C	3.08323	-2.12979	-0.514949
H	2.18833	-0.664745	-1.73124
H	3.7941	-2.28402	-1.35645
H	2.57017	-3.09681	-0.307856
H	3.66768	-1.84815	0.390737
C	5799.08	-1.80972	-2.09068
C	5799.65	-0.532594	-1.60296
O	5799.4	0.525838	-2.16265
H	5798.45	-1.61368	-2.98537
H	5798.45	-2.27426	-1.30274
H	5799.9	-2.50875	-2.37168
N	5800.45	-0.607402	-0.533724
C	5801.07	0.548386	0.0570383
C	5802.26	0.0709294	0.866752
O	5802.4	-1.11999	1.14012
H	5800.67	-1.47925	-0.104302
H	5801.45	1.18769	-0.732319
C	5800.09	1.31963	0.963964
H	5799.71	0.660616	1.77223
H	5800.57	2.21028	1.42035
H	5799.22	1.66295	0.359274
N	5803.17	0.99277	1.25225
C	5804.34	0.629533	2.01608
H	5803.04	1.95053	1.01504
H	5804.96	1.5267	2.23709
H	5804.96	-0.0986485	1.45201
H	5804.05	0.158082	2.9824
