44
  This energy is 1.49208e-321 and Call times are: 111999
C	-1.35217	-0.63584	3.14539
C	-1.45027	-0.0919319	1.77217
O	-2.51136	0.329793	1.33316
H	-2.35058	-0.587214	3.63189
H	-0.631803	-0.0384711	3.74292
H	-1.01836	-1.69442	3.11497
N	-0.326665	-0.0957741	1.05115
C	-0.26347	0.400609	-0.300306
C	0.952392	-0.214007	-0.966014
O	1.81552	-0.780564	-0.298291
H	0.524826	-0.468865	1.4099
H	-1.13944	0.063942	-0.840126
C	-0.162657	1.94207	-0.329235
H	0.736711	2.28403	0.226029
H	-0.113966	2.32765	-1.36834
H	-1.05852	2.38013	0.162387
N	1.03714	-0.134367	-2.30858
C	2.15252	-0.701181	-3.03025
H	0.324871	0.321957	-2.83172
H	2.04065	-0.5311	-4.12378
H	2.21927	-1.7988	-2.85131
H	3.11056	-0.238571	-2.69958
C	5302.53	0.389683	3.34831
C	5302.17	0.252992	1.91784
O	5301.01	0.129655	1.56437
H	5301.6	0.351875	3.96206
H	5303.04	1.36062	3.52502
H	5303.2	-0.440049	3.65734
N	5303.19	0.266426	1.05076
C	5303	0.143862	-0.372975
C	5304.31	-0.319371	-0.976522
O	5305.35	-0.281009	-0.323142
H	5304.13	0.338246	1.35338
H	5302.26	-0.622514	-0.566232
C	5302.57	1.48838	-1.00192
H	5303.33	2.27247	-0.80117
H	5302.43	1.39755	-2.0981
H	5301.61	1.81741	-0.550601
N	5304.29	-0.791087	-2.23861
C	5305.48	-1.26527	-2.89165
H	5303.43	-0.820682	-2.74832
H	5305.26	-1.61035	-3.92473
H	5305.93	-2.11664	-2.32701
H	5306.25	-0.454966	-2.95119
