44
  This energy is 8.17777e-320 and Call times are: 33753
C	0.834257	-0.355636	3.36209
C	0.47944	-0.923536	2.04194
O	0.519266	-2.12954	1.84077
H	1.12053	-1.17952	4.05139
H	-0.0344556	0.186505	3.79133
H	1.69181	0.342402	3.26063
N	0.124341	-0.0501199	1.09674
C	-0.248204	-0.449921	-0.236754
C	-0.0771807	0.750058	-1.14782
O	0.0718573	1.87768	-0.680823
H	0.123923	0.932122	1.26447
H	0.432489	-1.22031	-0.576207
C	-1.70897	-0.950744	-0.286394
H	-2.4045	-0.158164	0.0631269
H	-1.99907	-1.25954	-1.31171
H	-1.82138	-1.82905	0.38598
N	-0.0730167	0.529956	-2.47731
C	0.0956723	1.60989	-3.42148
H	-0.18791	-0.390782	-2.83546
H	0.0689473	1.22719	-4.46555
H	1.07148	2.12307	-3.26118
H	-0.714959	2.36503	-3.30389
C	1607.1	-0.605208	-0.463106
C	1605.77	-0.192574	-0.967348
O	1605.63	0.265184	-2.09372
H	1607.86	-0.419391	-1.24839
H	1607.09	-1.68734	-0.21454
H	1607.36	-0.0193309	0.442188
N	1604.74	-0.34322	-0.126654
C	1603.39	0.0126397	-0.472898
C	1602.62	0.209149	0.815852
O	1603.07	-0.176492	1.88966
H	1604.87	-0.690114	0.798748
H	1603.4	0.958819	-0.998962
C	1602.72	-1.08419	-1.33203
H	1602.72	-2.05364	-0.789598
H	1601.68	-0.813328	-1.60055
H	1603.3	-1.21937	-2.27252
N	1601.43	0.837414	0.740559
C	1600.62	1.0796	1.91686
H	1601.08	1.14835	-0.136799
H	1599.68	1.60601	1.6485
H	1601.18	1.70836	2.64928
H	1600.36	0.119716	2.41667
