44
  This energy is 8.37342e-320 and Call times are: 121239
C	0.598753	2.02773	2.76694
C	-0.107303	0.910351	2.10049
O	-0.854571	0.171237	2.72642
H	0.332613	2.03872	3.84625
H	0.298147	2.99533	2.31284
H	1.69731	1.89922	2.66894
N	0.123448	0.757964	0.794389
C	-0.490073	-0.282567	0.00844074
C	0.355225	-0.488162	-1.23351
O	1.21248	0.33316	-1.55347
H	0.756929	1.34873	0.30181
H	-0.474485	-1.20589	0.573507
C	-1.93576	0.0907672	-0.388693
H	-1.94812	1.0388	-0.967658
H	-2.4112	-0.708326	-0.993832
H	-2.54434	0.239818	0.529765
N	0.146193	-1.60788	-1.95361
C	0.911549	-1.89424	-3.14458
H	-0.547287	-2.26385	-1.6743
H	0.590843	-2.85911	-3.59559
H	1.9978	-1.96251	-2.90657
H	0.774176	-1.08979	-3.90298
C	5739.13	2.71717	-0.675854
C	5739.82	1.47414	-1.08547
O	5739.61	0.963252	-2.17683
H	5738.45	3.04227	-1.48978
H	5739.87	3.52223	-0.485838
H	5738.53	2.5386	0.244119
N	5740.67	0.949753	-0.200428
C	5741.42	-0.256058	-0.454277
C	5741.85	-0.828505	0.882707
O	5741.77	-0.154317	1.90824
H	5740.81	1.3594	0.696896
H	5740.77	-0.979899	-0.92853
C	5742.66	0.0245278	-1.3341
H	5743.32	0.767994	-0.84488
H	5743.24	-0.901833	-1.53164
H	5742.33	0.444587	-2.31
N	5742.29	-2.10152	0.904931
C	5742.71	-2.73481	2.13374
H	5742.34	-2.63299	0.0655042
H	5743.04	-3.77991	1.94475
H	5741.87	-2.75951	2.86806
H	5743.56	-2.17697	2.59474
