44
  This energy is 1.10404e-319 and Call times are: 77769
C	-2.78696	1.85038	-0.966993
C	-1.54152	1.11366	-1.27898
O	-1.21106	0.891168	-2.4356
H	-3.3015	2.1199	-1.91487
H	-2.55143	2.78086	-0.408834
H	-3.46477	1.21589	-0.357943
N	-0.815199	0.707877	-0.234869
C	0.420662	-0.0194731	-0.377825
C	0.68543	-0.748769	0.924966
O	0.0556662	-0.466502	1.94259
H	-1.10996	0.869901	0.703108
H	0.302449	-0.764936	-1.15396
C	1.59643	0.928068	-0.704696
H	1.71443	1.69194	0.0932347
H	2.54956	0.371269	-0.815587
H	1.38976	1.45711	-1.66049
N	1.61458	-1.72479	0.917309
C	1.92554	-2.4814	2.1077
H	2.10839	-1.94315	0.0820196
H	2.71578	-3.23583	1.8989
H	1.02167	-3.01487	2.48144
H	2.28866	-1.80815	2.91768
C	3685.75	-3.26838	0.344334
C	3685.98	-1.90789	0.878488
O	3685.55	-1.57335	1.97106
H	3685.15	-3.85116	1.075
H	3686.72	-3.78731	0.181141
H	3685.19	-3.21241	-0.615484
N	3686.69	-1.07902	0.102522
C	3687	0.275488	0.484899
C	3687.31	1.0542	-0.776372
O	3687.53	0.471438	-1.8378
H	3687.01	-1.35414	-0.798176
H	3686.12	0.723382	0.934777
C	3688.19	0.325068	1.45791
H	3689.09	-0.135836	0.993438
H	3688.44	1.36655	1.75449
H	3687.95	-0.249914	2.37712
N	3687.33	2.39907	-0.692854
C	3687.62	3.22384	-1.84435
H	3687.15	2.85217	0.173552
H	3687.59	4.30204	-1.57258
H	3686.87	3.04472	-2.64941
H	3688.63	2.99308	-2.25467
