44
  This energy is 1.60566e-319 and Call times are: 24975
C	-1.19513	2.73686	-1.79092
C	-1.4093	1.53601	-0.952292
O	-2.51888	1.25618	-0.51985
H	-2.16093	3.27223	-1.91925
H	-0.812103	2.44205	-2.79052
H	-0.467762	3.41961	-1.30332
N	-0.331022	0.791687	-0.696031
C	-0.380106	-0.405931	0.10405
C	1.02112	-0.684546	0.612164
O	1.99166	-0.10358	0.130127
H	0.572703	1.04614	-1.02991
H	-1.01281	-0.22859	0.964465
C	-0.897024	-1.60924	-0.715682
H	-0.246025	-1.78792	-1.59794
H	-0.936225	-2.53303	-0.102615
H	-1.92367	-1.39217	-1.08315
N	1.1564	-1.56996	1.61902
C	2.4504	-1.88957	2.17543
H	0.358088	-2.02432	2.00044
H	2.35323	-2.63878	2.99182
H	2.93479	-0.977229	2.59284
H	3.12221	-2.30952	1.39217
C	1186.88	-1.72277	0.236809
C	1188.08	-1.09556	0.850134
O	1188.17	-0.978628	2.06377
H	1186.17	-2.02379	1.03782
H	1187.18	-2.62493	-0.338903
H	1186.38	-1.00241	-0.439778
N	1189.02	-0.666337	0.00854604
C	1190.24	-0.0357911	0.45413
C	1190.8	0.764841	-0.704825
O	1190.37	0.59867	-1.84714
H	1188.91	-0.741045	-0.97945
H	1190	0.658847	1.25061
C	1191.27	-1.08113	0.928009
H	1191.51	-1.79252	0.108672
H	1192.21	-0.599013	1.27193
H	1190.85	-1.6617	1.77631
N	1191.75	1.67312	-0.43159
C	1192.34	2.48983	-1.46934
H	1192.08	1.7978	0.500349
H	1193.11	3.17263	-1.0457
H	1191.56	3.10813	-1.96944
H	1192.82	1.853	-2.24421
