44
  This energy is 1.3324e-319 and Call times are: 35643
C	-2.5715	-0.353831	2.32127
C	-2.08535	-0.170479	0.935183
O	-2.85474	-0.207905	-0.0151472
H	-3.6703	-0.521949	2.30587
H	-2.35503	0.552121	2.9256
H	-2.07971	-1.23413	2.7862
N	-0.77351	0.0292962	0.788433
C	-0.151509	0.224218	-0.496848
C	1.32287	-0.100292	-0.354947
O	1.83799	-0.211295	0.755979
H	-0.152961	0.0286115	1.56808
H	-0.576268	-0.477563	-1.20336
C	-0.330489	1.6761	-0.993975
H	0.105786	2.39341	-0.266489
H	0.147129	1.82962	-1.98346
H	-1.41469	1.90174	-1.09264
N	2.03444	-0.282247	-1.4848
C	3.44155	-0.60605	-1.44771
H	1.59782	-0.195151	-2.37418
H	3.84749	-0.714068	-2.47766
H	3.61029	-1.5628	-0.902366
H	4.01544	0.194183	-0.926696
C	1694.28	-3.20805	1.22162
C	1693.48	-1.97122	1.14717
O	1692.38	-1.90071	1.68259
H	1693.73	-3.9761	1.80287
H	1695.25	-3.00267	1.7285
H	1694.48	-3.60048	0.201223
N	1694.01	-0.954568	0.464329
C	1693.34	0.312811	0.303921
C	1693.94	1.00596	-0.903469
O	1694.99	0.605617	-1.39952
H	1694.89	-1.03424	0.00804092
H	1692.29	0.135274	0.0940233
C	1693.5	1.19732	1.56015
H	1694.58	1.37689	1.77295
H	1692.99	2.17391	1.44009
H	1693.06	0.677929	2.43772
N	1693.27	2.05507	-1.41964
C	1693.76	2.76947	-2.57563
H	1692.42	2.35937	-1.00824
H	1693.07	3.59967	-2.8457
H	1693.85	2.08676	-3.45178
H	1694.77	3.2013	-2.37361
