44
  This energy is 7.14913e-321 and Call times are: 73737
C	2.42195	2.20015	-1.19148
C	1.11804	1.50993	-1.3124
O	0.329673	1.79856	-2.20215
H	2.511	2.96078	-1.99731
H	3.25221	1.46998	-1.29323
H	2.49604	2.70887	-0.207278
N	0.857271	0.570929	-0.399911
C	-0.368348	-0.187033	-0.386556
C	-0.555207	-0.746102	1.0105
O	0.371063	-0.739997	1.81909
H	1.49528	0.365254	0.337363
H	-1.19691	0.480218	-0.587379
C	-0.330041	-1.33663	-1.4181
H	0.521542	-2.01884	-1.20951
H	-1.27228	-1.92221	-1.41057
H	-0.19159	-0.914072	-2.43713
N	-1.77236	-1.2253	1.3344
C	-2.04712	-1.76647	2.64506
H	-2.511	-1.2149	0.66841
H	-3.10263	-2.11031	2.71516
H	-1.87642	-0.996307	3.43179
H	-1.38093	-2.63316	2.86002
C	3493.89	1.38851	-3.02962
C	3493.64	1.02324	-1.61727
O	3492.62	1.38178	-1.0427
H	3493.04	2.00043	-3.40705
H	3493.98	0.473054	-3.6518
H	3494.83	1.98129	-3.11129
N	3494.58	0.294065	-1.01662
C	3494.48	-0.138803	0.354219
C	3495.88	-0.460504	0.845673
O	3496.81	-0.578464	0.053698
H	3495.42	0.0328911	-1.48665
H	3494.1	0.678524	0.954166
C	3493.57	-1.38147	0.486054
H	3493.96	-2.21779	-0.131208
H	3493.49	-1.71735	1.54034
H	3492.55	-1.13312	0.121743
N	3496.06	-0.588901	2.17484
C	3497.36	-0.8828	2.73556
H	3495.29	-0.482733	2.79991
H	3497.3	-0.950982	3.84433
H	3498.09	-0.0858411	2.47049
H	3497.75	-1.85129	2.34402
