44
  This energy is 1.41822e-319 and Call times are: 91671
C	1.91247	-2.03806	2.07723
C	0.640314	-1.69602	1.40208
O	-0.317583	-2.45618	1.43504
H	1.81514	-3.0341	2.56127
H	2.14797	-1.28186	2.85538
H	2.7399	-2.07712	1.33779
N	0.605884	-0.526352	0.759382
C	-0.560288	-0.0549938	0.0560386
C	-0.108671	0.986017	-0.949733
O	1.01865	1.47293	-0.887246
H	1.4023	0.0708982	0.715276
H	-0.995174	-0.878639	-0.495827
C	-1.59355	0.557996	1.0275
H	-1.14387	1.40222	1.59247
H	-2.49283	0.921813	0.489253
H	-1.91549	-0.214177	1.75979
N	-0.976717	1.33658	-1.91906
C	-0.630238	2.31088	-2.92747
H	-1.8818	0.925938	-1.95686
H	-1.47621	2.46425	-3.6332
H	0.256571	1.97353	-3.51143
H	-0.382553	3.29071	-2.45868
C	4341.6	0.651087	3.32707
C	4341.32	0.74938	1.87762
O	4340.26	1.21303	1.46999
H	4340.74	1.04309	3.899
H	4342.5	1.25128	3.58243
H	4341.77	-0.408312	3.61292
N	4342.27	0.301611	1.05521
C	4342.14	0.330871	-0.379751
C	4343.11	-0.685843	-0.955788
O	4344	-1.17433	-0.259203
H	4343.12	-0.10069	1.40012
H	4341.14	0.0215664	-0.648794
C	4342.45	1.7358	-0.943895
H	4343.48	2.05024	-0.665453
H	4342.35	1.76192	-2.04855
H	4341.74	2.47151	-0.513394
N	4342.94	-1.04564	-2.24387
C	4343.81	-2.01561	-2.87458
H	4342.21	-0.644294	-2.78895
H	4343.51	-2.17537	-3.93488
H	4343.75	-2.99393	-2.34432
H	4344.87	-1.67025	-2.85411
