44
  This energy is 2.08792e-320 and Call times are: 61557
C	-0.679529	-1.11847	3.22698
C	-0.791721	-0.111496	2.1478
O	-1.52098	0.863565	2.2658
H	-1.33949	-0.825882	4.07238
H	0.367882	-1.17376	3.59125
H	-0.99402	-2.11596	2.85408
N	-0.0629142	-0.333509	1.05148
C	-0.066009	0.555808	-0.0825074
C	0.418105	-0.225397	-1.28857
O	0.964202	-1.31849	-1.15164
H	0.50499	-1.14667	0.955631
H	-1.08297	0.869873	-0.280587
C	0.846404	1.77896	0.1594
H	1.88876	1.4531	0.362948
H	0.846236	2.46588	-0.711756
H	0.481923	2.34207	1.04608
N	0.207843	0.311446	-2.5066
C	0.623733	-0.365558	-3.71278
H	-0.242218	1.19378	-2.59693
H	0.364197	0.236713	-4.6112
H	0.123404	-1.35725	-3.79914
H	1.72506	-0.533625	-3.7094
C	2915.52	0.329991	-1.13192
C	2916.74	-0.47589	-0.885244
O	2916.74	-1.68831	-1.04809
H	2914.7	-0.340768	-1.45556
H	2915.71	1.07634	-1.93149
H	2915.22	0.854618	-0.202591
N	2917.82	0.192113	-0.474258
C	2919.08	-0.452771	-0.193601
C	2919.88	0.462016	0.712773
O	2919.55	1.63465	0.87458
H	2917.8	1.17593	-0.317333
H	2918.89	-1.37055	0.348842
C	2919.87	-0.737146	-1.49162
H	2920.06	0.206456	-2.04593
H	2920.84	-1.23381	-1.27917
H	2919.27	-1.40723	-2.14739
N	2920.95	-0.0630102	1.34523
C	2921.76	0.728914	2.23695
H	2921.2	-1.01602	1.20678
H	2922.59	0.119149	2.65697
H	2921.15	1.12052	3.08295
H	2922.2	1.59839	1.69812
