44
  This energy is 4.57851e-320 and Call times are: 50301
C	-2.07726	-0.968085	-2.62182
C	-1.80324	-0.781105	-1.1792
O	-2.68107	-0.942072	-0.342544
H	-3.14391	-1.24937	-2.75962
H	-1.43649	-1.77718	-3.03121
H	-1.8799	-0.0253729	-3.17435
N	-0.558444	-0.425251	-0.85329
C	-0.139057	-0.206591	0.508007
C	1.10655	0.657612	0.478674
O	1.7246	0.834146	-0.569507
H	0.140241	-0.268846	-1.54634
H	-0.910458	0.345804	1.02942
C	0.157505	-1.54181	1.22659
H	0.948823	-2.10621	0.688653
H	0.480549	-1.37711	2.27507
H	-0.762366	-2.16614	1.24035
N	1.49275	1.23691	1.63248
C	2.65937	2.08594	1.69824
H	0.975219	1.08758	2.4686
H	2.81204	2.46501	2.73277
H	2.54755	2.96069	1.0174
H	3.57176	1.52464	1.39219
C	2388.42	-0.69918	-1.59086
C	2387.08	-0.0619635	-1.55536
O	2386.72	0.70701	-2.437
H	2388.97	-0.354426	-2.49488
H	2388.31	-1.8038	-1.63329
H	2389	-0.417528	-0.688586
N	2386.31	-0.369451	-0.513585
C	2384.98	0.170184	-0.339834
C	2384.62	0.047753	1.12698
O	2385.28	-0.661389	1.8821
H	2386.62	-0.974557	0.2132
H	2384.99	1.22377	-0.588508
C	2383.95	-0.582837	-1.20828
H	2383.94	-1.66349	-0.95101
H	2382.93	-0.169778	-1.07703
H	2384.23	-0.486539	-2.28028
N	2383.56	0.758175	1.57026
C	2383.15	0.713572	2.95337
H	2383.04	1.33182	0.945081
H	2382.26	1.36336	3.11953
H	2383.97	1.06383	3.62046
H	2382.88	-0.326557	3.25061
