44
  This energy is 3.05827e-321 and Call times are: 7041
C	-1.13137	-3.28627	0.215731
C	-0.580078	-2.05663	0.82831
O	-0.462062	-1.95243	2.04145
H	-1.39214	-4.0109	1.01746
H	-0.378665	-3.74947	-0.456357
H	-2.04737	-3.04737	-0.364632
N	-0.230472	-1.08052	-0.0127329
C	0.320683	0.174506	0.432201
C	0.10987	1.19319	-0.671012
O	-0.213356	0.836617	-1.80248
H	-0.358633	-1.16623	-0.997195
H	-0.229651	0.512132	1.30123
C	1.82603	0.0448661	0.755045
H	2.38748	-0.302324	-0.138461
H	2.25358	1.00939	1.09809
H	1.96715	-0.705032	1.56368
N	0.268001	2.49453	-0.358762
C	0.0765112	3.53598	-1.34106
H	0.522812	2.76335	0.5643
H	0.254102	4.53786	-0.891684
H	-0.96244	3.51112	-1.74256
H	0.77989	3.40497	-2.19503
C	340.061	1.01746	3.32004
C	339.644	0.0439413	2.28603
O	339.206	-1.05631	2.59313
H	339.911	0.570824	4.32694
H	339.452	1.94248	3.2428
H	341.135	1.27105	3.19581
N	339.778	0.433337	1.01615
C	339.415	-0.402339	-0.100346
C	340.157	0.104092	-1.32207
O	340.706	1.20417	-1.31283
H	340.163	1.32106	0.778335
H	339.751	-1.41323	0.092835
C	337.891	-0.371854	-0.353484
H	337.55	0.666766	-0.550649
H	337.608	-1.01438	-1.21242
H	337.359	-0.744006	0.549138
N	340.208	-0.701946	-2.4008
C	340.902	-0.30916	-3.60518
H	339.764	-1.5915	-2.38614
H	340.829	-1.1054	-4.37844
H	341.98	-0.122797	-3.39455
H	340.465	0.626596	-4.02308
