44
  This energy is 2.22132e-320 and Call times are: 31569
C	-3.08274	-1.34579	0.900936
C	-1.97636	-0.381844	1.09568
O	-2.06207	0.522315	1.91522
H	-3.91955	-1.0877	1.58578
H	-2.73697	-2.37609	1.12841
H	-3.44889	-1.30189	-0.14642
N	-0.897549	-0.554417	0.328376
C	0.259219	0.301895	0.402185
C	1.02489	0.163839	-0.899321
O	0.777791	-0.753632	-1.67972
H	-0.851555	-1.27718	-0.356049
H	-0.0689584	1.33039	0.483252
C	1.1653	-0.0782296	1.59451
H	1.4996	-1.13415	1.50849
H	2.05688	0.579246	1.65439
H	0.592446	0.0259025	2.54169
N	1.96318	1.0913	-1.17397
C	2.73409	1.04784	-2.39463
H	2.14345	1.83014	-0.532992
H	3.45441	1.89444	-2.43516
H	2.06597	1.11326	-3.28378
H	3.30802	0.0954444	-2.46336
C	1499.73	-3.38635	-0.810905
C	1500.27	-2.01319	-0.932835
O	1501.31	-1.79175	-1.54942
H	1500.41	-4.09403	-1.34068
H	1498.72	-3.44249	-1.2676
H	1499.67	-3.68019	0.258151
N	1499.58	-1.04658	-0.331814
C	1499.97	0.338376	-0.3618
C	1499.3	1.04168	0.80022
O	1498.38	0.504002	1.41135
H	1498.75	-1.2437	0.19205
H	1501.04	0.400944	-0.208325
C	1499.57	1.0099	-1.69418
H	1498.47	0.943301	-1.84875
H	1499.88	2.07636	-1.7207
H	1500.07	0.484826	-2.53748
N	1499.76	2.25916	1.14703
C	1499.19	2.999	2.24781
H	1500.51	2.67431	0.644658
H	1499.7	3.97706	2.37378
H	1499.29	2.42665	3.19867
H	1498.11	3.19261	2.07088
