44
  This energy is 1.00122e-319 and Call times are: 77349
C	3.19503	-0.338826	-1.34279
C	1.8454	-0.868887	-1.04491
O	1.47732	-1.9477	-1.48896
H	3.73656	-1.05831	-1.99468
H	3.76921	-0.203761	-0.402104
H	3.11604	0.63503	-1.87034
N	1.06425	-0.104869	-0.277811
C	-0.273836	-0.485142	0.0986831
C	-1.02236	0.773279	0.4928
O	-0.419341	1.82478	0.699085
H	1.36507	0.785355	0.0537652
H	-0.774422	-0.909594	-0.762321
C	-0.263972	-1.48761	1.2743
H	0.250903	-1.04918	2.15567
H	-1.29269	-1.78265	1.56666
H	0.288243	-2.40446	0.973313
N	-2.36471	0.699014	0.585465
C	-3.16223	1.84895	0.942929
H	-2.83483	-0.159245	0.407685
H	-4.24268	1.58578	0.967913
H	-3.01878	2.67128	0.205062
H	-2.87126	2.23209	1.94778
C	3663.69	1.33849	-0.150262
C	3665.09	1.2644	-0.618035
O	3665.46	1.88238	-1.60661
H	3663.11	2.0026	-0.828388
H	3663.65	1.75394	0.878682
H	3663.23	0.327942	-0.158069
N	3665.91	0.487909	0.0920478
C	3667.31	0.315083	-0.238276
C	3667.78	-0.97197	0.407069
O	3667.11	-1.52956	1.26994
H	3665.59	-0.0333966	0.878342
H	3667.4	0.200286	-1.31055
C	3668.15	1.50537	0.261712
H	3668.05	1.62066	1.362
H	3669.23	1.37561	0.00889569
H	3667.79	2.44218	-0.217407
N	3668.95	-1.48708	-0.0150304
C	3669.48	-2.71509	0.533302
H	3669.48	-1.02473	-0.71939
H	3670.45	-2.97211	0.0589984
H	3668.77	-3.55798	0.360457
H	3669.64	-2.61834	1.63158
