44
  This energy is 4.51181e-320 and Call times are: 69117
C	-1.23317	3.1343	0.884087
C	-0.921822	1.72184	1.19909
O	-1.03684	1.28731	2.33683
H	-1.55262	3.65583	1.81242
H	-2.05594	3.18803	0.140462
H	-0.333907	3.64305	0.477335
N	-0.508036	0.964422	0.180532
C	-0.167964	-0.428039	0.329634
C	0.723292	-0.817136	-0.833769
O	0.829724	-0.0854863	-1.81621
H	-0.390528	1.33753	-0.73594
H	0.404785	-0.554882	1.23955
C	-1.43177	-1.31655	0.351052
H	-2.01731	-1.18343	-0.583579
H	-1.17355	-2.38935	0.465892
H	-2.07678	-1.02078	1.20699
N	1.40485	-1.97578	-0.738851
C	2.28669	-2.42218	-1.79207
H	1.31083	-2.5505	0.0674354
H	2.75289	-3.39692	-1.52788
H	3.09965	-1.68019	-1.96466
H	1.72636	-2.5487	-2.74664
C	3276.68	-0.340014	3.00691
C	3277.91	-0.0764861	2.23843
O	3278.94	0.294148	2.79585
H	3276.86	-0.140454	4.08439
H	3276.37	-1.40016	2.88588
H	3275.86	0.323776	2.65529
N	3277.84	-0.259938	0.917986
C	3278.96	-0.0446677	0.0370726
C	3278.42	0.167618	-1.36291
O	3277.25	-0.106969	-1.63295
H	3276.99	-0.534009	0.472293
H	3279.47	0.862738	0.332942
C	3279.93	-1.24805	0.0546341
H	3279.4	-2.17736	-0.24875
H	3280.8	-1.08556	-0.62247
H	3280.32	-1.39374	1.08579
N	3279.26	0.685246	-2.28508
C	3278.82	0.933272	-3.64096
H	3280.19	0.907536	-2.04514
H	3279.65	1.35837	-4.24647
H	3277.97	1.65352	-3.65723
H	3278.49	-0.0114235	-4.12466
