44
  This energy is 1.27528e-319 and Call times are: 91083
C	0.343638	1.90973	-2.89154
C	0.890418	1.3187	-1.64939
O	2.08343	1.38793	-1.3878
H	1.17036	2.37303	-3.47269
H	-0.405083	2.69191	-2.64569
H	-0.134583	1.12263	-3.5118
N	0.0144872	0.709156	-0.847166
C	0.394572	0.0871249	0.395991
C	-0.681374	-0.916324	0.762962
O	-1.77045	-0.907134	0.192299
H	-0.950127	0.63404	-1.08552
H	1.31741	-0.459341	0.248298
C	0.552738	1.13239	1.52272
H	-0.395617	1.69161	1.6711
H	0.845507	0.65685	2.48132
H	1.34284	1.86223	1.24125
N	-0.390718	-1.82423	1.71544
C	-1.3486	-2.8259	2.12203
H	0.498771	-1.81978	2.16044
H	-0.923127	-3.47706	2.91715
H	-1.63516	-3.46889	1.2585
H	-2.27347	-2.34746	2.51813
C	4313.08	1.09264	3.03262
C	4312.99	0.306062	1.78194
O	4312.07	-0.468725	1.58794
H	4312.22	0.843297	3.68693
H	4313.06	2.17891	2.80401
H	4314.02	0.849335	3.5704
N	4313.97	0.487633	0.894571
C	4314.02	-0.205482	-0.367933
C	4315.46	-0.174815	-0.859769
O	4316.28	0.579661	-0.34699
H	4314.74	1.09993	1.07682
H	4313.75	-1.24164	-0.211502
C	4313.09	0.45328	-1.40863
H	4313.37	1.51633	-1.56618
H	4313.13	-0.0780095	-2.38188
H	4312.04	0.425525	-1.03602
N	4315.79	-1.01578	-1.85745
C	4317.14	-1.06524	-2.38251
H	4315.11	-1.62369	-2.25441
H	4317.21	-1.81743	-3.19839
H	4317.86	-1.34155	-1.58235
H	4317.44	-0.0729541	-2.7913
