44
  This energy is 1.16792e-319 and Call times are: 122667
C	0.338092	-1.79335	2.96576
C	-0.442442	-0.937818	2.04378
O	-1.62314	-0.695376	2.25275
H	-0.318902	-2.13443	3.79515
H	1.18761	-1.21998	3.39284
H	0.726792	-2.6826	2.42623
N	0.211055	-0.459282	0.982506
C	-0.412607	0.387082	-0.00316132
C	0.410774	0.307173	-1.27395
O	1.53861	-0.182409	-1.26245
H	1.16511	-0.68777	0.807833
H	-1.39906	0.000370541	-0.225504
C	-0.496515	1.85078	0.484352
H	0.517147	2.2441	0.712172
H	-0.97635	2.50519	-0.272141
H	-1.10114	1.89562	1.41632
N	-0.146784	0.769898	-2.41018
C	0.557294	0.724186	-3.67048
H	-1.06338	1.15589	-2.40021
H	-0.0667935	1.15284	-4.48535
H	0.812457	-0.326265	-3.94008
H	1.50573	1.30578	-3.61219
C	5807.03	-2.49882	1.07532
C	5808.29	-2.05583	0.449516
O	5809.17	-2.8575	0.163857
H	5807.05	-3.60094	1.21839
H	5806.17	-2.24222	0.421667
H	5806.9	-2.01105	2.06441
N	5808.42	-0.745619	0.225102
C	5809.59	-0.163238	-0.377058
C	5809.62	1.30761	-0.00976766
O	5808.63	1.85739	0.466554
H	5807.71	-0.0992655	0.488983
H	5810.47	-0.626917	0.0481571
C	5809.57	-0.326972	-1.9133
H	5808.67	0.149264	-2.34615
H	5810.47	0.120222	-2.38016
H	5809.55	-1.40867	-2.16926
N	5810.77	1.97646	-0.20403
C	5810.9	3.37657	0.127358
H	5811.57	1.51208	-0.583925
H	5811.92	3.74503	-0.106662
H	5810.71	3.54257	1.21204
H	5810.17	3.98516	-0.45057
