44
  This energy is 1.38783e-319 and Call times are: 24177
C	1.62774	-3.03669	0.505069
C	0.421676	-2.18056	0.565396
O	-0.669946	-2.64566	0.862947
H	1.34832	-4.08303	0.755966
H	2.38545	-2.68219	1.23516
H	2.06143	-3.0157	-0.5169
N	0.595696	-0.889522	0.27331
C	-0.481619	0.0675417	0.289083
C	-0.0665533	1.25037	-0.564076
O	1.1036	1.39357	-0.913465
H	1.48453	-0.528435	0.00401595
H	-1.35513	-0.378344	-0.169439
C	-0.797837	0.534878	1.72739
H	0.100625	0.991181	2.19501
H	-1.62701	1.27177	1.7432
H	-1.09939	-0.34087	2.34243
N	-1.02685	2.11831	-0.93892
C	-0.727649	3.2674	-1.76128
H	-1.96921	1.98118	-0.651896
H	-1.64819	3.85945	-1.9596
H	-0.29787	2.94972	-2.73883
H	0.0132377	3.92932	-1.25717
C	1153.78	-1.72253	2.36998
C	1153.65	-1.02468	1.07146
O	1154.63	-0.786293	0.377191
H	1154.85	-1.94972	2.55556
H	1153.21	-2.6744	2.35368
H	1153.4	-1.07863	3.19165
N	1152.41	-0.671491	0.713294
C	1152.12	0.0132247	-0.520981
C	1150.78	0.700253	-0.367434
O	1150.03	0.416546	0.566203
H	1151.63	-0.845439	1.30113
H	1152.87	0.781267	-0.681474
C	1152.08	-0.968618	-1.71329
H	1151.32	-1.75557	-1.54502
H	1151.86	-0.44468	-2.66529
H	1153.07	-1.4662	-1.81436
N	1150.45	1.64137	-1.27446
C	1149.2	2.35673	-1.20184
H	1151.07	1.86177	-2.0186
H	1149.11	3.08649	-2.03698
H	1149.12	2.91376	-0.240236
H	1148.34	1.651	-1.26381
