44
  This energy is 2.46588e-320 and Call times are: 106329
C	1.07696	2.45498	2.22247
C	0.0428671	1.84844	1.35415
O	-1.10651	2.26729	1.35205
H	0.622998	3.28059	2.81251
H	1.90222	2.86673	1.60423
H	1.48354	1.6946	2.92209
N	0.435381	0.827076	0.58923
C	-0.455224	0.134847	-0.307693
C	0.142255	-1.22834	-0.597468
O	1.31081	-1.47713	-0.306943
H	1.3675	0.476282	0.621455
H	-1.40424	-0.0208989	0.189492
C	-0.650221	0.920121	-1.62391
H	0.325398	1.07869	-2.131
H	-1.33555	0.39	-2.31678
H	-1.08731	1.91713	-1.39793
N	-0.658072	-2.15468	-1.16083
C	-0.179846	-3.48385	-1.46216
H	-1.60287	-1.93624	-1.38189
H	-0.985676	-4.09662	-1.92302
H	0.164097	-3.99719	-0.535107
H	0.677902	-3.44148	-2.17184
C	5035.68	3.46479	0.273486
C	5035.11	2.1084	0.434612
O	5034.05	1.93498	1.00615
H	5035	4.20771	0.743067
H	5035.79	3.70836	-0.80428
H	5036.68	3.52394	0.767876
N	5035.83	1.10042	-0.0698371
C	5035.41	-0.274766	0.00836857
C	5036.63	-1.15059	-0.168384
O	5037.69	-0.678493	-0.587913
H	5036.71	1.25174	-0.507497
H	5035.01	-0.464074	0.996455
C	5034.36	-0.602821	-1.07773
H	5034.77	-0.406842	-2.09008
H	5034.03	-1.66089	-1.02028
H	5033.46	0.0461493	-0.937989
N	5036.52	-2.45047	0.170609
C	5037.64	-3.35762	0.0475341
H	5035.66	-2.81191	0.514977
H	5037.35	-4.38152	0.373847
H	5038.5	-3.01618	0.675783
H	5037.99	-3.4111	-1.00935
