44
  This energy is 1.5899e-320 and Call times are: 67857
C	-3.10077	-0.327195	1.55057
C	-1.68236	0.0962557	1.55328
O	-1.21626	0.740206	2.4831
H	-3.59469	0.0374005	2.47738
H	-3.16926	-1.43495	1.51884
H	-3.62639	0.100688	0.671036
N	-0.955743	-0.257901	0.49076
C	0.437967	0.0802119	0.349054
C	0.789289	0.000553131	-1.12386
O	0.0304609	-0.545596	-1.92244
H	-1.35445	-0.757387	-0.273757
H	0.585729	1.10432	0.667544
C	1.33513	-0.879743	1.16189
H	1.18051	-1.92953	0.833028
H	2.40892	-0.622153	1.05514
H	1.06708	-0.812866	2.23884
N	1.94553	0.566621	-1.5222
C	2.35719	0.550444	-2.90656
H	2.5426	1.01008	-0.861836
H	3.33564	1.06444	-3.03189
H	1.60538	1.06721	-3.54607
H	2.46139	-0.496321	-3.27344
C	3216.27	-0.505874	2.70907
C	3216.58	0.0864383	1.3876
O	3215.72	0.682856	0.747856
H	3215.21	-0.31455	2.95875
H	3216.91	-0.047262	3.49177
H	3216.44	-1.60252	2.68648
N	3217.83	-0.0736031	0.941288
C	3218.28	0.445722	-0.325562
C	3219.51	-0.333347	-0.736843
O	3220.1	-1.04815	0.0709115
H	3218.51	-0.586619	1.45869
H	3217.51	0.267302	-1.07052
C	3218.61	1.95217	-0.230827
H	3219.39	2.13167	0.53479
H	3218.95	2.35532	-1.2046
H	3217.69	2.51155	0.0723384
N	3219.92	-0.229026	-2.0172
C	3221.07	-0.943434	-2.50254
H	3219.42	0.348969	-2.65741
H	3221.25	-0.726078	-3.57957
H	3220.94	-2.04258	-2.38472
H	3221.99	-0.647559	-1.93407
