44
  This energy is 8.15208e-321 and Call times are: 105699
C	0.545927	-2.55067	2.30699
C	0.465379	-2.04815	0.916952
O	0.797524	-2.74884	-0.0292063
H	0.939505	-3.59033	2.29945
H	-0.462085	-2.55141	2.77253
H	1.22891	-1.91215	2.90596
N	0.0199959	-0.799054	0.762834
C	-0.114426	-0.170724	-0.527112
C	-0.127584	1.33063	-0.314945
O	-0.286133	1.80539	0.808128
H	-0.219905	-0.228251	1.54358
H	0.753982	-0.410488	-1.12749
C	-1.41098	-0.618144	-1.23836
H	-2.29982	-0.371254	-0.619378
H	-1.51757	-0.13633	-2.23197
H	-1.38955	-1.7198	-1.38682
N	0.0618099	2.11603	-1.39349
C	0.0769461	3.55632	-1.28613
H	0.195496	1.71261	-2.29272
H	0.244138	4.02314	-2.28181
H	0.889655	3.89072	-0.601349
H	-0.89126	3.93051	-0.88148
C	5003.82	2.42554	-1.37913
C	5004.14	1.43395	-0.329635
O	5003.46	1.3386	0.683564
H	5002.92	3.00513	-1.07057
H	5003.6	1.91001	-2.33813
H	5004.67	3.12644	-1.52106
N	5005.21	0.665648	-0.551591
C	5005.65	-0.344246	0.376161
C	5007.11	-0.635585	0.0858952
O	5007.64	-0.243936	-0.955083
H	5005.77	0.772814	-1.36746
H	5005.59	0.0504069	1.38233
C	5004.82	-1.63641	0.242709
H	5004.88	-2.03818	-0.790881
H	5005.16	-2.41608	0.955747
H	5003.75	-1.40937	0.456588
N	5007.81	-1.31561	1.01615
C	5009.21	-1.62854	0.832015
H	5007.37	-1.61774	1.85523
H	5009.61	-2.19304	1.70528
H	5009.81	-0.696476	0.71702
H	5009.36	-2.24849	-0.0819043
