44
  This energy is 9.45444e-320 and Call times are: 34215
C	-2.22687	-1.69922	2.06877
C	-1.11796	-0.741548	1.85811
O	-0.689954	-0.0572184	2.77735
H	-2.5524	-1.65636	3.13088
H	-1.88989	-2.7316	1.8376
H	-3.08773	-1.43731	1.41818
N	-0.625317	-0.667862	0.619469
C	0.454226	0.216129	0.258949
C	0.401878	0.427609	-1.24164
O	-0.287626	-0.298594	-1.95512
H	-1.002	-1.2095	-0.127308
H	0.295378	1.17676	0.732259
C	1.82344	-0.373394	0.66494
H	1.98282	-1.35916	0.17813
H	2.6569	0.304799	0.388938
H	1.8486	-0.524679	1.76613
N	1.11748	1.44787	-1.75447
C	1.11931	1.73292	-3.17042
H	1.66354	2.02867	-1.15973
H	1.76877	2.60768	-3.39461
H	0.0886368	1.96121	-3.52656
H	1.49797	0.858075	-3.747
C	1622.74	-1.56961	-0.95867
C	1624.14	-1.15594	-1.21819
O	1624.74	-1.5402	-2.21319
H	1622.4	-2.23977	-1.77681
H	1622.08	-0.679079	-0.922564
H	1622.68	-2.11713	0.00518205
N	1624.7	-0.354139	-0.309184
C	1626.05	0.132767	-0.4228
C	1626.52	0.546306	0.96027
O	1625.71	0.676637	1.88054
H	1624.21	-0.0715725	0.511961
H	1626.69	-0.675671	-0.7559
C	1626.14	1.33227	-1.3928
H	1625.48	2.15953	-1.04842
H	1627.18	1.70958	-1.48274
H	1625.79	1.01666	-2.40195
N	1627.84	0.741942	1.14401
C	1628.37	1.12572	2.42941
H	1628.47	0.624525	0.388533
H	1629.48	1.23952	2.37697
H	1628.13	0.356102	3.19934
H	1627.93	2.09451	2.76378
