44
  This energy is 8.4001e-320 and Call times are: 27999
C	-0.427971	3.43369	0.390822
C	0.00566357	2.11054	0.893253
O	0.605914	2.00227	1.95366
H	-0.113918	4.22074	1.11039
H	-1.53325	3.46064	0.288591
H	0.0392757	3.64083	-0.594935
N	-0.289403	1.05891	0.125546
C	0.0660269	-0.291938	0.480104
C	0.0627335	-1.12278	-0.788335
O	-0.448637	-0.692369	-1.82036
H	-0.753115	1.1632	-0.750257
H	1.07405	-0.298443	0.874967
C	-0.926435	-0.884	1.50558
H	-1.95964	-0.875175	1.0975
H	-0.65562	-1.92402	1.7809
H	-0.915491	-0.2658	2.42962
N	0.656829	-2.33158	-0.745355
C	0.712975	-3.18768	-1.9073
H	1.07131	-2.65907	0.0973712
H	1.24007	-4.1381	-1.6704
H	1.25527	-2.68439	-2.74028
H	-0.313329	-3.43512	-2.26319
C	1334.3	1.85049	-2.64726
C	1333.16	1.32796	-1.86085
O	1332.02	1.69451	-2.08664
H	1333.93	2.5762	-3.40098
H	1334.82	1.01932	-3.17391
H	1335.02	2.36695	-1.97931
N	1333.46	0.44935	-0.900073
C	1332.46	-0.147348	-0.0518727
C	1333.15	-0.648012	1.20193
O	1334.37	-0.741413	1.25034
H	1334.4	0.180763	-0.706683
H	1331.75	0.61467	0.245163
C	1331.74	-1.31462	-0.764921
H	1332.47	-2.09421	-1.06886
H	1330.97	-1.77625	-0.114683
H	1331.24	-0.935053	-1.68223
N	1332.37	-0.962597	2.2588
C	1332.94	-1.43628	3.49873
H	1331.38	-0.873426	2.20229
H	1332.14	-1.64252	4.24489
H	1333.63	-0.676998	3.92808
H	1333.52	-2.37529	3.3332
