44
  This energy is 2.49009e-321 and Call times are: 25059
C	-0.238285	-2.00878	2.83446
C	-0.785388	-0.987366	1.91326
O	-1.9336	-0.581477	2.02881
H	-1.02099	-2.29769	3.56915
H	0.636187	-1.59999	3.38311
H	0.0712702	-2.91079	2.2657
N	0.0381117	-0.547609	0.958892
C	-0.349327	0.444888	-0.0115037
C	0.58203	0.321284	-1.20169
O	1.61925	-0.3343	-1.12279
H	0.961788	-0.907351	0.857192
H	-1.3528	0.228063	-0.355162
C	-0.270061	1.87028	0.579346
H	0.76057	2.08913	0.931513
H	-0.567875	2.63695	-0.165159
H	-0.955863	1.94746	1.45105
N	0.219595	0.934903	-2.34541
C	1.03745	0.862555	-3.53371
H	-0.627104	1.45474	-2.3913
H	0.571003	1.43229	-4.36742
H	1.16396	-0.195236	-3.85977
H	2.04902	1.28781	-3.34115
C	1190.16	0.0367018	2.00811
C	1191.63	0.0432977	1.83312
O	1192.37	0.210322	2.7853
H	1189.91	0.206233	3.07958
H	1189.74	-0.943238	1.69549
H	1189.69	0.845145	1.40265
N	1192.08	-0.1357	0.588955
C	1193.48	-0.154395	0.260215
C	1193.61	0.146602	-1.21972
O	1192.63	0.104973	-1.9621
H	1191.45	-0.241622	-0.182745
H	1193.98	0.637347	0.8041
C	1194.11	-1.52497	0.584104
H	1193.6	-2.33496	0.0249815
H	1195.19	-1.54279	0.33233
H	1194.01	-1.73421	1.67079
N	1194.84	0.480054	-1.68024
C	1195.06	0.794668	-3.07219
H	1195.61	0.515154	-1.06229
H	1196.13	1.04152	-3.25319
H	1194.44	1.66816	-3.38148
H	1194.78	-0.069485	-3.71939
