44
  This energy is 2.82359e-320 and Call times are: 49629
C	2.9263	1.31683	-1.35234
C	2.03571	1.03264	-0.204618
O	2.395	1.25124	0.944127
H	3.89116	1.72188	-0.977047
H	2.45808	2.06752	-2.0232
H	3.12517	0.385024	-1.92255
N	0.836015	0.524776	-0.496479
C	-0.140174	0.1967	0.511613
C	-1.11336	-0.799109	-0.0888146
O	-1.14445	-0.994137	-1.30242
H	0.56613	0.323982	-1.43445
H	0.359204	-0.289844	1.33985
C	-0.896738	1.45502	0.992619
H	-1.40731	1.95203	0.140321
H	-1.64908	1.20602	1.769
H	-0.17268	2.17702	1.4292
N	-1.92005	-1.47167	0.755523
C	-2.87024	-2.44806	0.275953
H	-1.87479	-1.30491	1.735
H	-3.44087	-2.89013	1.12224
H	-2.34882	-3.27177	-0.263378
H	-3.59471	-1.9786	-0.428263
C	2350.04	0.207679	0.882279
C	2351.13	0.299563	-0.111916
O	2350.89	0.45931	-1.30108
H	2349.06	0.298966	0.362194
H	2350.13	1.02728	1.62597
H	2350.08	-0.771207	1.40495
N	2352.37	0.19278	0.362162
C	2353.54	0.26255	-0.480984
C	2354.69	-0.397261	0.257195
O	2354.6	-0.645508	1.45845
H	2352.55	0.0336633	1.32919
H	2353.36	-0.308297	-1.38254
C	2353.9	1.72552	-0.823933
H	2354.09	2.30841	0.103254
H	2354.8	1.78288	-1.47316
H	2353.05	2.19798	-1.3633
N	2355.79	-0.717729	-0.454422
C	2356.93	-1.35929	0.160967
H	2355.83	-0.515098	-1.42705
H	2357.73	-1.53894	-0.58795
H	2356.63	-2.33922	0.602904
H	2357.34	-0.723731	0.975698
