44
  This energy is 1.60245e-319 and Call times are: 111957
C	1.70926	-1.08487	2.8333
C	1.39957	-1.1689	1.38823
O	2.03411	-1.90696	0.647211
H	2.55892	-1.76266	3.06685
H	0.82721	-1.39482	3.43225
H	1.99315	-0.0461491	3.10425
N	0.403365	-0.396034	0.949346
C	-0.0149743	-0.368033	-0.429435
C	-0.757609	0.932889	-0.664663
O	-1.13124	1.62338	0.281622
H	-0.0867959	0.222635	1.55756
H	0.862602	-0.365101	-1.06341
C	-0.927485	-1.56883	-0.764883
H	-1.82644	-1.56912	-0.112204
H	-1.25132	-1.55045	-1.82581
H	-0.372293	-2.51561	-0.587327
N	-0.970226	1.30932	-1.94102
C	-1.65805	2.53822	-2.26181
H	-0.653854	0.74038	-2.69298
H	-1.73539	2.6695	-3.36364
H	-1.1132	3.41457	-1.84182
H	-2.68749	2.5352	-1.83586
C	5302.08	2.38257	1.77482
C	5303.1	1.31124	1.70202
O	5303.81	1.04833	2.66205
H	5302.11	2.84815	2.78394
H	5301.07	1.96026	1.60194
H	5302.29	3.16279	1.01309
N	5303.2	0.663413	0.538734
C	5304.14	-0.402911	0.314342
C	5304.35	-0.538468	-1.18226
O	5303.58	0.00816335	-1.9725
H	5302.63	0.906476	-0.24518
H	5305.09	-0.12875	0.751604
C	5303.63	-1.7371	0.904621
H	5302.66	-2.015	0.454334
H	5304.36	-2.56029	0.733744
H	5303.49	-1.62429	2.00109
N	5305.4	-1.25721	-1.60732
C	5305.68	-1.43099	-3.01369
H	5306.02	-1.68586	-0.952115
H	5306.59	-2.05414	-3.15978
H	5305.85	-0.445529	-3.50567
H	5304.83	-1.93154	-3.52518
