44
  This energy is 1.3278e-319 and Call times are: 53619
C	2.05518	1.82797	-2.13563
C	0.718214	1.39621	-1.66945
O	-0.301718	1.89976	-2.11964
H	1.93752	2.62922	-2.89721
H	2.59502	0.972881	-2.59413
H	2.64754	2.22519	-1.2846
N	0.695264	0.441453	-0.736566
C	-0.528393	-0.0827031	-0.184522
C	-0.200857	-0.721753	1.15098
O	0.96427	-0.953999	1.4678
H	1.53371	0.059746	-0.356762
H	-1.21011	0.737463	0.00165343
C	-1.17072	-1.12374	-1.12833
H	-0.468398	-1.96338	-1.31771
H	-2.11321	-1.52927	-0.70639
H	-1.40478	-0.643528	-2.1034
N	-1.22704	-1.00205	1.97826
C	-1.01055	-1.60009	3.27505
H	-2.16225	-0.79999	1.70662
H	-1.97718	-1.75407	3.8034
H	-0.366228	-0.94639	3.90653
H	-0.50542	-2.58782	3.17301
C	2542.14	-3.03957	-1.13736
C	2542.1	-1.8765	-0.222319
O	2541.17	-1.71184	0.55673
H	2541.23	-3.65759	-0.980208
H	2543.03	-3.66169	-0.931794
H	2542.16	-2.69571	-2.1929
N	2543.13	-1.02776	-0.303185
C	2543.24	0.149116	0.521458
C	2544.19	1.11243	-0.163909
O	2544.9	0.737727	-1.09216
H	2543.87	-1.15731	-0.962289
H	2542.27	0.628186	0.580015
C	2543.76	-0.199179	1.93271
H	2544.76	-0.691091	1.86887
H	2543.85	0.70472	2.57036
H	2543.06	-0.906289	2.42366
N	2544.2	2.3893	0.266718
C	2545.06	3.38	-0.333537
H	2543.61	2.67467	1.01449
H	2544.93	4.36801	0.159826
H	2544.84	3.49586	-1.41757
H	2546.13	3.08076	-0.236989
