44
  This energy is 4.26181e-320 and Call times are: 26487
C	-0.796995	-1.067	-3.21752
C	-0.838074	-0.0612377	-2.13218
O	-1.29561	1.05711	-2.32313
H	-1.22161	-0.624363	-4.14469
H	-1.39769	-1.95759	-2.93674
H	0.251377	-1.3756	-3.41404
N	-0.346478	-0.442947	-0.95108
C	-0.317548	0.423226	0.200326
C	0.732404	-0.107987	1.1567
O	1.20097	-1.2356	1.01259
H	0.0501112	-1.34707	-0.81609
H	-0.00801308	1.41271	-0.111421
C	-1.69451	0.47619	0.899109
H	-2.00928	-0.540654	1.21701
H	-1.67582	1.14238	1.78603
H	-2.45499	0.865804	0.187761
N	1.14356	0.706246	2.14866
C	2.14799	0.29085	3.09983
H	0.757454	1.61785	2.24426
H	2.34847	1.09845	3.83797
H	3.10284	0.0454019	2.58092
H	1.81336	-0.615752	3.65415
C	1262.19	-3.25016	-0.387222
C	1262.36	-1.78243	-0.472962
O	1263.45	-1.28746	-0.738591
H	1263.16	-3.7466	-0.588882
H	1261.45	-3.59308	-1.13991
H	1261.84	-3.5364	0.62836
N	1261.27	-1.04324	-0.239871
C	1261.28	0.397078	-0.286863
C	1260.09	0.896958	0.509044
O	1259.19	0.129715	0.839852
H	1260.4	-1.45744	0.00417973
H	1262.18	0.759169	0.199739
C	1261.2	0.912954	-1.74108
H	1260.28	0.539058	-2.23749
H	1261.21	2.02162	-1.78093
H	1262.08	0.538933	-2.31381
N	1260.08	2.19926	0.855007
C	1258.99	2.76212	1.62281
H	1260.82	2.80246	0.583914
H	1259.16	3.84672	1.80419
H	1258.9	2.25163	2.609
H	1258.02	2.64199	1.0825
