44
  This energy is 4.01181e-321 and Call times are: 73611
C	1.2904	2.88411	1.46386
C	1.0092	2.0382	0.2821
O	1.21555	2.4473	-0.852162
H	1.68112	3.8686	1.12623
H	2.0513	2.39796	2.11
H	0.360176	3.04768	2.0477
N	0.517966	0.821261	0.527299
C	0.19488	-0.116477	-0.51821
C	-0.784892	-1.12592	0.047749
O	-0.971209	-1.20951	1.26024
H	0.326897	0.510408	1.45455
H	-0.303359	0.410584	-1.32197
C	1.45897	-0.836843	-1.03807
H	1.96798	-1.37595	-0.210794
H	1.21383	-1.55952	-1.84331
H	2.16911	-0.0864633	-1.44889
N	-1.45337	-1.90536	-0.824953
C	-2.41483	-2.8866	-0.378917
H	-1.29388	-1.81763	-1.80276
H	-2.85572	-3.42725	-1.24527
H	-3.2411	-2.39817	0.186735
H	-1.93178	-3.63364	0.291736
C	3489.16	-2.60288	2.29881
C	3488.37	-1.60042	1.55112
O	3487.14	-1.59153	1.60523
H	3488.47	-3.27608	2.85343
H	3489.83	-2.09668	3.02539
H	3489.77	-3.21089	1.59685
N	3489.06	-0.723371	0.820092
C	3488.43	0.311196	0.0385066
C	3489.41	0.754867	-1.02576
O	3490.6	0.435917	-0.957385
H	3490.05	-0.75919	0.761121
H	3487.57	-0.104216	-0.465122
C	3488.02	1.51312	0.919877
H	3488.91	1.93641	1.43556
H	3487.54	2.31152	0.321254
H	3487.3	1.17475	1.69611
N	3488.94	1.48744	-2.05167
C	3489.8	1.94455	-3.11751
H	3487.97	1.72921	-2.09274
H	3489.22	2.5321	-3.86488
H	3490.27	1.08063	-3.63948
H	3490.61	2.59114	-2.71578
