44
  This energy is 6.5691e-320 and Call times are: 120525
C	-1.03979	3.1862	0.945037
C	0.0129437	2.1622	0.759613
O	1.19572	2.43688	0.908221
H	-0.566116	4.15561	1.21287
H	-1.72745	2.88419	1.76281
H	-1.61749	3.31585	0.0056737
N	-0.402179	0.939835	0.419243
C	0.502448	-0.161162	0.204108
C	-0.213975	-1.19391	-0.644076
O	-1.43072	-1.13545	-0.81128
H	-1.36647	0.735857	0.272714
H	1.35759	0.190894	-0.3588
C	0.950467	-0.790743	1.54203
H	0.070672	-1.15023	2.11722
H	1.64722	-1.63872	1.38005
H	1.47282	-0.0238569	2.15454
N	0.532651	-2.15666	-1.21997
C	-0.0607905	-3.17559	-2.05411
H	1.51678	-2.18273	-1.07839
H	0.71625	-3.87573	-2.43261
H	-0.575111	-2.71648	-2.92929
H	-0.813497	-3.76373	-1.48079
C	5704.46	-0.506899	-2.08216
C	5705.73	-0.952222	-1.4802
O	5706.15	-2.09125	-1.64607
H	5704	-1.3491	-2.64999
H	5704.63	0.33988	-2.77752
H	5703.75	-0.188682	-1.28765
N	5706.39	-0.0486355	-0.750825
C	5707.65	-0.332285	-0.102514
C	5707.83	0.676366	1.0143
O	5707.13	1.68246	1.07636
H	5706.03	0.867144	-0.599089
H	5707.6	-1.31566	0.347455
C	5708.83	-0.246633	-1.09751
H	5708.87	0.763285	-1.55775
H	5709.79	-0.464638	-0.601649
H	5708.68	-0.989489	-1.91126
N	5708.78	0.417035	1.93994
C	5709.02	1.31415	3.0461
H	5709.33	-0.406091	1.87625
H	5709.83	0.927652	3.6957
H	5708.1	1.42738	3.66681
H	5709.31	2.3234	2.67697
