44
  This energy is 7.37442e-320 and Call times are: 15735
C	0.121813	-0.7786	3.39191
C	0.484517	-1.04442	1.9816
O	1.29376	-1.91415	1.68973
H	0.692399	-1.46587	4.05369
H	-0.964231	-0.950172	3.54649
H	0.372104	0.269299	3.66062
N	-0.113101	-0.283137	1.062
C	0.13652	-0.42264	-0.350465
C	-0.266506	0.874141	-1.02513
O	-0.941791	1.71012	-0.427663
H	-0.748639	0.441664	1.31437
H	1.19885	-0.559186	-0.508234
C	-0.660986	-1.60297	-0.948738
H	-1.75034	-1.45996	-0.784512
H	-0.470991	-1.71333	-2.03617
H	-0.35747	-2.5467	-0.445365
N	0.159882	1.08129	-2.28659
C	-0.164549	2.29177	-3.00469
H	0.711421	0.395832	-2.75046
H	0.275353	2.27293	-4.02615
H	0.231666	3.18461	-2.46888
H	-1.2684	2.4082	-3.10032
C	747.619	-1.01015	-0.993127
C	748.92	-0.35699	-1.26109
O	749.219	0.0196574	-2.38593
H	747.041	-1.08045	-1.94035
H	747.036	-0.414405	-0.259878
H	747.779	-2.03352	-0.593251
N	749.737	-0.212128	-0.215432
C	751.036	0.404187	-0.317904
C	751.864	-0.0554269	0.865938
O	751.335	-0.611037	1.82628
H	749.494	-0.549378	0.69019
H	751.523	0.0504884	-1.21762
C	750.928	1.94544	-0.324579
H	750.427	2.30482	0.599516
H	751.926	2.42321	-0.403531
H	750.318	2.26929	-1.19574
N	753.196	0.147821	0.813835
C	754.066	-0.26705	1.88923
H	753.606	0.592744	0.0248194
H	755.124	-0.0107613	1.66007
H	753.998	-1.36786	2.04698
H	753.782	0.236319	2.84155
