44
  This energy is 8.86107e-320 and Call times are: 28167
C	0.843051	0.759524	3.29219
C	0.0245977	0.969049	2.07669
O	-0.944617	1.71537	2.08763
H	0.421429	1.36055	4.12698
H	1.88938	1.0829	3.1093
H	0.832907	-0.31274	3.58045
N	0.400844	0.298112	0.985523
C	-0.294975	0.398535	-0.272483
C	0.0470985	-0.82957	-1.09345
O	0.981546	-1.56085	-0.77116
H	1.17488	-0.329313	0.997147
H	-1.36146	0.383533	-0.0868685
C	0.108574	1.67854	-1.03788
H	1.20336	1.69098	-1.22603
H	-0.425468	1.7591	-2.00695
H	-0.146093	2.57088	-0.425493
N	-0.720963	-1.09701	-2.16795
C	-0.477995	-2.25084	-3.00211
H	-1.47698	-0.497049	-2.40818
H	-1.214	-2.29604	-3.83487
H	-0.562533	-3.18973	-2.40831
H	0.545456	-2.21051	-3.4404
C	1340.18	-1.95874	-2.75886
C	1340.48	-0.651785	-2.13585
O	1340.63	0.354848	-2.81588
H	1340.12	-1.83523	-3.86218
H	1339.2	-2.33866	-2.38851
H	1340.97	-2.69392	-2.52057
N	1340.6	-0.641314	-0.805815
C	1340.9	0.553319	-0.0563147
C	1341.46	0.132615	1.28826
O	1341.36	-1.03031	1.67488
H	1340.51	-1.47361	-0.265468
H	1341.67	1.1113	-0.573789
C	1339.63	1.42058	0.142626
H	1338.85	0.844843	0.673186
H	1339.86	2.34132	0.719234
H	1339.23	1.72123	-0.849551
N	1342.08	1.07092	2.02585
C	1342.66	0.760043	3.3136
H	1342.16	2.00482	1.69243
H	1343.13	1.66338	3.76381
H	1343.44	-0.0270085	3.21461
H	1341.88	0.384053	4.01297
