44
  This energy is 1.10878e-319 and Call times are: 97047
C	2.11602	2.35612	-1.4482
C	1.88471	1.12275	-0.663029
O	2.81484	0.401806	-0.328978
H	3.20384	2.46434	-1.65017
H	1.7662	3.24309	-0.879228
H	1.57452	2.30106	-2.41603
N	0.616029	0.847037	-0.35191
C	0.232527	-0.316174	0.407495
C	-1.23267	-0.591233	0.130399
O	-1.93763	0.252792	-0.419582
H	-0.13563	1.42685	-0.654824
H	0.799522	-1.16871	0.0556844
C	0.455281	-0.0985275	1.92081
H	-0.127313	0.77723	2.27823
H	0.161148	-0.992327	2.50851
H	1.53209	0.103169	2.11043
N	-1.72116	-1.79522	0.487893
C	-3.1012	-2.15082	0.252915
H	-1.13292	-2.4674	0.925345
H	-3.30968	-3.18049	0.618386
H	-3.33751	-2.11055	-0.835101
H	-3.784	-1.44634	0.780816
C	4593.91	-1.24499	1.27241
C	4595.15	-1.39912	0.484239
O	4595.48	-2.48632	0.0319374
H	4593.4	-2.2315	1.35785
H	4593.22	-0.532123	0.768773
H	4594.14	-0.872767	2.2915
N	4595.88	-0.29534	0.305487
C	4597.11	-0.285997	-0.438666
C	4597.91	0.934214	-0.011534
O	4597.37	1.83503	0.634184
H	4595.61	0.578563	0.70368
H	4597.69	-1.16255	-0.173495
C	4596.85	-0.243652	-1.96084
H	4596.26	0.656479	-2.22927
H	4597.8	-0.236514	-2.53685
H	4596.27	-1.14213	-2.26082
N	4599.21	0.98089	-0.345988
C	4600.05	2.09749	0.0278841
H	4599.63	0.238672	-0.8626
H	4601.09	1.95086	-0.34024
H	4600.08	2.20985	1.13582
H	4599.65	3.04586	-0.403661
