44
  This energy is 1.81371e-320 and Call times are: 86673
C	-2.22303	2.42473	-1.14234
C	-1.15569	1.96625	-0.224861
O	-0.617167	2.73926	0.555487
H	-2.40064	3.51088	-0.985527
H	-3.16518	1.87352	-0.93899
H	-1.91847	2.25897	-2.1972
N	-0.818134	0.677064	-0.305032
C	0.201846	0.083262	0.521932
C	0.677511	-1.18348	-0.162422
O	0.0391986	-1.67331	-1.09218
H	-1.24397	0.0640179	-0.965163
H	1.04423	0.760612	0.582482
C	-0.337776	-0.245165	1.93192
H	-1.20228	-0.939715	1.86603
H	0.445068	-0.702391	2.57135
H	-0.684092	0.69073	2.42214
N	1.82897	-1.73342	0.270832
C	2.36578	-2.93305	-0.328263
H	2.33466	-1.31803	1.01981
H	3.3168	-3.22843	0.16728
H	2.57001	-2.77356	-1.41182
H	1.64419	-3.77655	-0.23344
C	4104.04	3.15384	1.43127
C	4103.5	1.99649	0.679471
O	4102.32	1.92166	0.394584
H	4103.21	3.85839	1.66002
H	4104.8	3.68339	0.824886
H	4104.49	2.81333	2.38485
N	4104.38	1.05051	0.34193
C	4104.01	-0.13439	-0.390601
C	4105.08	-1.18441	-0.145965
O	4106.16	-0.878755	0.357045
H	4105.34	1.10902	0.605173
H	4103.08	-0.515381	0.00378943
C	4103.89	0.155073	-1.90325
H	4104.85	0.546395	-2.30441
H	4103.61	-0.755131	-2.47027
H	4103.11	0.926529	-2.069
N	4104.79	-2.45795	-0.478585
C	4105.74	-3.52695	-0.271093
H	4103.91	-2.68626	-0.87788
H	4105.32	-4.49878	-0.60939
H	4106	-3.61546	0.80807
H	4106.68	-3.33536	-0.839954
