44
  This energy is 4.56813e-320 and Call times are: 14685
C	0.70018	-0.361546	-3.39193
C	0.134149	-0.862335	-2.11912
O	-0.519198	-1.89585	-2.08067
H	0.422689	-1.055	-4.21532
H	1.80718	-0.309175	-3.32395
H	0.296023	0.6472	-3.62004
N	0.372407	-0.123651	-1.03287
C	-0.111621	-0.48067	0.276739
C	-0.123033	0.774516	1.1274
O	0.467927	1.78824	0.760016
H	0.88138	0.7316	-1.08214
H	-1.13296	-0.829466	0.191361
C	0.780937	-1.55831	0.931825
H	1.82812	-1.19743	1.01725
H	0.410998	-1.83566	1.94029
H	0.781843	-2.47213	0.298515
N	-0.818872	0.741542	2.28096
C	-0.89628	1.89269	3.14989
H	-1.29632	-0.0860388	2.55734
H	-1.51203	1.66661	4.04822
H	-1.35674	2.7564	2.61769
H	0.119987	2.19816	3.48911
C	704.173	0.810562	-0.30748
C	702.897	0.810691	0.443805
O	702.845	1.20273	1.60142
H	704.984	1.19711	0.346586
H	704.09	1.4636	-1.20165
H	704.429	-0.221665	-0.62642
N	701.824	0.35739	-0.208937
C	700.514	0.296288	0.388101
C	699.692	-0.709252	-0.394361
O	700.074	-1.11642	-1.49005
H	701.886	0.0135213	-1.14219
H	700.606	-0.0719895	1.40198
C	699.822	1.67769	0.369203
H	699.73	2.0528	-0.672375
H	698.813	1.63427	0.828307
H	700.435	2.40547	0.944661
N	698.548	-1.15127	0.164231
C	697.706	-2.11787	-0.501567
H	698.26	-0.815101	1.05491
H	696.812	-2.35268	0.116841
H	698.264	-3.06467	-0.684674
H	697.36	-1.72579	-1.48501
