44
  This energy is 1.05789e-319 and Call times are: 34635
C	3.39098	0.194585	-0.767781
C	2.27876	-0.21236	0.120228
O	2.47877	-0.908193	1.10628
H	4.34269	-0.232977	-0.383961
H	3.47743	1.30132	-0.790052
H	3.21672	-0.183055	-1.79733
N	1.06097	0.215902	-0.220283
C	-0.119794	-0.0970852	0.544345
C	-1.32228	0.0788236	-0.362469
O	-1.21805	0.665549	-1.43798
H	0.90698	0.757935	-1.04212
H	-0.0811524	-1.13746	0.841316
C	-0.248442	0.819874	1.78118
H	-0.287139	1.88645	1.47291
H	-1.15649	0.581484	2.37228
H	0.638976	0.682515	2.43674
N	-2.49408	-0.448186	0.0439246
C	-3.68992	-0.340518	-0.758911
H	-2.55643	-0.925556	0.914248
H	-4.54873	-0.834687	-0.253443
H	-3.54169	-0.824456	-1.75142
H	-3.95243	0.728318	-0.93172
C	1646.92	2.08732	2.50582
C	1645.91	1.13982	1.9767
O	1645.01	0.713258	2.68552
H	1646.7	2.29554	3.5758
H	1646.88	3.04141	1.93914
H	1647.94	1.64967	2.42511
N	1646.05	0.780402	0.698384
C	1645.15	-0.133111	0.0415488
C	1645.87	-0.705853	-1.16602
O	1646.91	-0.196078	-1.58075
H	1646.81	1.11223	0.139536
H	1644.93	-0.953377	0.712797
C	1643.85	0.577177	-0.398949
H	1644.08	1.41852	-1.08694
H	1643.16	-0.12337	-0.904927
H	1643.34	0.993305	0.494461
N	1645.34	-1.79919	-1.74757
C	1645.96	-2.42102	-2.89498
H	1644.5	-2.20117	-1.39275
H	1645.37	-3.3048	-3.22796
H	1646.99	-2.75916	-2.64929
H	1646.02	-1.70273	-3.74413
