44
  This energy is 2.52566e-320 and Call times are: 25857
C	-3.283	-1.16032	0.04129
C	-1.93685	-1.08458	-0.569737
O	-1.63563	-1.78621	-1.5255
H	-3.88941	-1.9194	-0.499016
H	-3.79185	-0.176116	-0.0309613
H	-3.20301	-1.4573	1.10822
N	-1.08263	-0.220054	-0.0172344
C	0.26222	-0.0331591	-0.500228
C	1.07791	0.583472	0.61944
O	0.526473	1.06418	1.60771
H	-1.33047	0.324866	0.779366
H	0.69248	-1.00053	-0.726387
C	0.290863	0.882119	-1.74464
H	-0.151878	1.87343	-1.50925
H	1.32487	1.02802	-2.11924
H	-0.311137	0.419882	-2.55709
N	2.41997	0.563781	0.49912
C	3.2784	1.1168	1.52061
H	2.84746	0.163808	-0.304937
H	4.34834	1.00661	1.23716
H	3.11798	0.596509	2.49262
H	3.0648	2.20003	1.66946
C	1233.93	1.18458	1.45399
C	1233.09	0.083202	0.944001
O	1233.52	-1.05803	0.855542
H	1234.94	0.787145	1.70403
H	1233.48	1.62192	2.36945
H	1234.04	1.97474	0.68123
N	1231.84	0.409174	0.586208
C	1230.9	-0.552073	0.0723877
C	1229.83	0.20541	-0.693993
O	1229.73	1.42541	-0.583884
H	1231.51	1.34794	0.635626
H	1231.41	-1.2035	-0.627517
C	1230.25	-1.37153	1.21211
H	1229.73	-0.700074	1.92863
H	1229.53	-2.11275	0.819974
H	1231.05	-1.92072	1.7665
N	1229.03	-0.502932	-1.51002
C	1227.99	0.13437	-2.2884
H	1229.13	-1.4885	-1.59087
H	1227.44	-0.615924	-2.89403
H	1228.43	0.889836	-2.98085
H	1227.26	0.654986	-1.62371
