44
  This energy is 2.8725e-320 and Call times are: 43581
C	-0.827251	-2.52216	2.25399
C	-0.176488	-1.23452	1.92279
O	0.314767	-0.531295	2.79493
H	-0.780966	-2.68517	3.3527
H	-0.303213	-3.3579	1.74434
H	-1.89147	-2.50584	1.93759
N	-0.164566	-0.890637	0.63284
C	0.431492	0.331399	0.155167
C	-0.172671	0.645981	-1.19955
O	-0.818816	-0.202156	-1.81192
H	-0.593825	-1.45818	-0.0647044
H	0.168277	1.13771	0.827964
C	1.96613	0.199117	0.0346943
H	2.2326	-0.629394	-0.655723
H	2.42832	1.13835	-0.332714
H	2.39644	-0.0324951	1.03336
N	0.00669044	1.88796	-1.6908
C	-0.54201	2.28214	-2.96741
H	0.526594	2.56234	-1.17685
H	-0.284712	3.33979	-3.19634
H	-1.65179	2.184	-2.96522
H	-0.140147	1.6389	-3.78346
C	2070.92	1.73784	-1.49103
C	2070.27	0.478294	-1.07287
O	2070.72	-0.609684	-1.40332
H	2071.82	1.49959	-2.11051
H	2071.25	2.31409	-0.599452
H	2070.22	2.35324	-2.09273
N	2069.17	0.601827	-0.328729
C	2068.42	-0.53125	0.154453
C	2067.02	-0.057529	0.484332
O	2066.76	1.14248	0.56703
H	2068.79	1.49418	-0.0905511
H	2068.34	-1.26481	-0.637886
C	2069.08	-1.1486	1.40724
H	2069.16	-0.393148	2.21784
H	2068.51	-2.0214	1.78183
H	2070.11	-1.49057	1.15273
N	2066.06	-0.995444	0.659814
C	2064.7	-0.638287	0.965111
H	2066.29	-1.96119	0.58169
H	2064.07	-1.54877	1.07401
H	2064.27	-0.0083681	0.154073
H	2064.65	-0.0601841	1.91605
