44
  This energy is 8.15455e-320 and Call times are: 39591
C	-2.84836	-1.88409	-0.680595
C	-2.18781	-0.659703	-0.174859
O	-2.84013	0.323233	0.148885
H	-3.94832	-1.72484	-0.704483
H	-2.62403	-2.74306	-0.0137675
H	-2.49588	-2.11256	-1.70846
N	-0.855212	-0.692277	-0.100831
C	-0.071158	0.42091	0.371293
C	1.34107	0.252395	-0.154508
O	1.70966	-0.818056	-0.634195
H	-0.333413	-1.48858	-0.395038
H	-0.471082	1.33569	-0.0474189
C	-0.0591082	0.485948	1.91491
H	0.35113	-0.454344	2.34113
H	0.543594	1.34204	2.28182
H	-1.09944	0.608249	2.2876
N	2.16152	1.31982	-0.0956623
C	3.51962	1.25678	-0.583263
H	1.84231	2.17943	0.289587
H	4.0327	2.23402	-0.445411
H	3.53627	1.0021	-1.66775
H	4.09773	0.476963	-0.0365806
C	1877.85	0.152212	3.31814
C	1878.8	-0.302119	2.26938
O	1879.83	-0.879998	2.55857
H	1878.26	-0.113701	4.31755
H	1876.87	-0.34293	3.18881
H	1877.72	1.25362	3.26457
N	1878.45	-0.040493	1.00722
C	1879.26	-0.420061	-0.121724
C	1878.86	0.453426	-1.29574
O	1877.83	1.12068	-1.26176
H	1877.61	0.45677	0.786004
H	1880.3	-0.213234	0.105609
C	1879.06	-1.91063	-0.478613
H	1878	-2.11942	-0.710609
H	1879.69	-2.20629	-1.34738
H	1879.36	-2.53979	0.389842
N	1879.69	0.485754	-2.35906
C	1879.4	1.29782	-3.51774
H	1880.52	-0.0558554	-2.3645
H	1880.2	1.18769	-4.28492
H	1879.33	2.37353	-3.23619
H	1878.43	0.997411	-3.97528
