44
  This energy is 4.37742e-320 and Call times are: 26529
C	3.20018	0.303239	-1.33903
C	2.13641	0.726322	-0.400629
O	2.35397	1.55972	0.468049
H	4.13943	0.847347	-1.09898
H	2.90519	0.538944	-2.38318
H	3.38266	-0.787928	-1.24416
N	0.944088	0.145937	-0.55516
C	-0.189149	0.453607	0.280268
C	-1.16395	-0.704196	0.188068
O	-1.0468	-1.55608	-0.690794
H	0.787388	-0.552933	-1.24795
H	0.140965	0.524555	1.30889
C	-0.876743	1.76373	-0.164616
H	-1.21354	1.6877	-1.22051
H	-1.74966	2.00369	0.476636
H	-0.151955	2.60384	-0.0936325
N	-2.14161	-0.773373	1.11294
C	-3.10846	-1.84639	1.11163
H	-2.21536	-0.0781928	1.82041
H	-3.83099	-1.72571	1.94868
H	-2.60167	-2.83202	1.22546
H	-3.67918	-1.86008	0.154931
C	1263.5	0.173943	3.44176
C	1262.63	-0.0113878	2.26115
O	1261.46	-0.352352	2.38589
H	1262.92	-0.0488231	4.36488
H	1263.86	1.22247	3.48885
H	1264.37	-0.514934	3.3869
N	1263.19	0.207624	1.06908
C	1262.46	0.0685759	-0.170663
C	1263.48	-0.126207	-1.28074
O	1264.67	0.103955	-1.0899
H	1264.15	0.456697	0.979153
H	1261.85	-0.823512	-0.123698
C	1261.6	1.31288	-0.457993
H	1262.23	2.22631	-0.504842
H	1261.04	1.20909	-1.41179
H	1260.86	1.44524	0.362893
N	1263.03	-0.578645	-2.46731
C	1263.92	-0.805481	-3.57878
H	1262.06	-0.765869	-2.59978
H	1263.36	-1.17509	-4.46545
H	1264.7	-1.56208	-3.31284
H	1264.44	0.137064	-3.86194
