44
  This energy is 9.1501e-321 and Call times are: 86337
C	-2.78824	-0.292345	2.06552
C	-2.09847	-0.501776	0.772635
O	-2.6125	-1.16352	-0.118633
H	-3.76694	-0.819355	2.04925
H	-2.96608	0.79074	2.23321
H	-2.17486	-0.698984	2.897
N	-0.895659	0.0630675	0.64391
C	-0.102703	-0.0510476	-0.554016
C	1.34087	0.231403	-0.185851
O	1.62547	0.740518	0.896571
H	-0.475071	0.575412	1.38792
H	-0.156561	-1.06998	-0.915894
C	-0.577834	0.940296	-1.63965
H	-0.521906	1.98456	-1.26482
H	0.0304963	0.854988	-2.56347
H	-1.63689	0.72365	-1.89967
N	2.2921	-0.115098	-1.07529
C	3.6941	0.104544	-0.806314
H	2.04206	-0.532515	-1.94274
H	4.3175	-0.245035	-1.65861
H	4.00983	-0.447505	0.108452
H	3.89815	1.18763	-0.643603
C	4090.52	2.75453	0.159913
C	4090.17	1.41572	-0.359965
O	4090.81	0.890972	-1.25581
H	4091.41	3.137	-0.390747
H	4090.77	2.69163	1.24044
H	4089.68	3.46031	0.0151072
N	4089.1	0.82786	0.197263
C	4088.63	-0.474399	-0.201355
C	4087.18	-0.596381	0.226417
O	4086.69	0.206472	1.0173
H	4088.57	1.27812	0.90618
H	4088.66	-0.544553	-1.28125
C	4089.47	-1.59862	0.443933
H	4089.44	-1.52324	1.55177
H	4089.11	-2.60269	0.138995
H	4090.53	-1.49743	0.12372
N	4086.46	-1.59772	-0.307165
C	4085.07	-1.78505	0.0319639
H	4086.87	-2.2328	-0.950911
H	4084.64	-2.6615	-0.507685
H	4084.47	-0.884581	-0.242405
H	4084.95	-1.95695	1.12635
