44
  This energy is 1.99059e-320 and Call times are: 31485
C	-0.709984	1.80599	2.89144
C	0.124959	0.85605	2.12223
O	1.1921	0.451577	2.56281
H	-0.202164	2.04828	3.85023
H	-1.6992	1.35312	3.11318
H	-0.854038	2.74348	2.31411
N	-0.349194	0.478456	0.932709
C	0.348422	-0.440367	0.0690399
C	-0.171469	-0.240216	-1.34124
O	-1.2006	0.400464	-1.54679
H	-1.2059	0.837591	0.572139
H	1.40227	-0.192439	0.0694012
C	0.131267	-1.90436	0.512536
H	-0.950972	-2.15511	0.511663
H	0.667177	-2.6145	-0.150247
H	0.51514	-2.03762	1.54744
N	0.545126	-0.769096	-2.35257
C	0.133997	-0.619361	-3.72906
H	1.37904	-1.2781	-2.16623
H	0.852109	-1.12552	-4.41123
H	0.0841858	0.457788	-4.00926
H	-0.87469	-1.06462	-3.88867
C	1494.75	-2.45451	-2.28117
C	1495.31	-1.1232	-1.96011
O	1495.81	-0.419715	-2.82924
H	1494.88	-2.65276	-3.36808
H	1493.67	-2.48385	-2.03085
H	1495.29	-3.24308	-1.70932
N	1495.25	-0.74613	-0.680921
C	1495.76	0.520639	-0.214087
C	1496	0.403105	1.27754
O	1495.55	-0.542051	1.91744
H	1494.87	-1.34047	0.0226458
H	1496.71	0.717271	-0.689971
C	1494.76	1.66356	-0.499283
H	1493.78	1.45826	-0.0101684
H	1495.14	2.64042	-0.141237
H	1494.58	1.73853	-1.59507
N	1496.75	1.35562	1.86417
C	1497.05	1.32015	3.27724
H	1497.12	2.10862	1.32789
H	1497.68	2.19013	3.5689
H	1497.6	0.387078	3.54
H	1496.11	1.34895	3.87694
