44
  This energy is 1.19159e-319 and Call times are: 65421
C	0.671732	3.06161	-1.51705
C	0.305689	2.24616	-0.337114
O	0.224207	2.74586	0.776505
H	0.844122	4.11251	-1.19806
H	-0.149125	3.04302	-2.26449
H	1.60169	2.66937	-1.97995
N	0.0792604	0.949395	-0.559615
C	-0.286057	0.0288443	0.487265
C	0.0438248	-1.37258	0.0114268
O	0.295203	-1.5917	-1.17205
H	0.177302	0.548467	-1.46658
H	0.320512	0.23088	1.36095
C	-1.78909	0.13373	0.829321
H	-2.40841	-0.0734611	-0.0693644
H	-2.07376	-0.573633	1.63516
H	-2.01805	1.16521	1.1754
N	0.0718039	-2.35529	0.933115
C	0.387781	-3.7184	0.574968
H	-0.127518	-2.15653	1.88705
H	0.357639	-4.37738	1.47056
H	1.40629	-3.78111	0.12782
H	-0.341645	-4.1078	-0.171679
C	3105.4	-2.06198	1.06613
C	3104.14	-1.83407	0.323638
O	3103.66	-2.7012	-0.396307
H	3105.77	-3.08264	0.84166
H	3105.22	-1.97737	2.15866
H	3106.16	-1.31861	0.758628
N	3103.56	-0.638827	0.481515
C	3102.33	-0.268512	-0.174554
C	3102.26	1.24569	-0.202602
O	3103.01	1.92539	0.492624
H	3103.97	0.0695778	1.04792
H	3102.36	-0.615403	-1.19966
C	3101.11	-0.847804	0.562554
H	3101.08	-0.490439	1.61406
H	3100.16	-0.564703	0.0599508
H	3101.17	-1.95747	0.577273
N	3101.36	1.81162	-1.02903
C	3101.22	3.24599	-1.13146
H	3100.76	1.24457	-1.58889
H	3100.43	3.51492	-1.86142
H	3102.18	3.70764	-1.46879
H	3100.95	3.68717	-0.143867
