44
  This energy is 1.65413e-320 and Call times are: 13593
C	-0.436754	2.84992	1.95278
C	0.412526	1.77855	1.38524
O	1.62774	1.79393	1.52488
H	0.207206	3.5934	2.47087
H	-1.15311	2.42246	2.68555
H	-0.998084	3.36265	1.14349
N	-0.22032	0.811968	0.71622
C	0.468975	-0.297632	0.107541
C	-0.435126	-0.877136	-0.96298
O	-1.6245	-0.56975	-1.01526
H	-1.20793	0.826096	0.584442
H	1.36344	0.068587	-0.380199
C	0.820216	-1.38209	1.15046
H	-0.0996188	-1.75508	1.64936
H	1.35119	-2.23788	0.685187
H	1.48179	-0.944719	1.92967
N	0.117232	-1.71766	-1.85987
C	-0.663175	-2.3089	-2.92175
H	1.08313	-1.94846	-1.80504
H	-0.0305239	-2.97134	-3.55275
H	-1.10213	-1.51897	-3.57335
H	-1.49891	-2.91586	-2.50424
C	649.964	-1.7609	2.76949
C	648.988	-1.55074	1.67698
O	648.107	-2.36891	1.44956
H	649.746	-2.7261	3.27622
H	649.889	-0.939708	3.51301
H	650.996	-1.7949	2.3598
N	649.129	-0.432217	0.962013
C	648.257	-0.0881941	-0.132242
C	648.984	0.909957	-1.01193
O	650.002	1.47385	-0.614154
H	649.869	0.21229	1.13845
H	648.07	-0.97444	-0.725317
C	646.93	0.519191	0.375663
H	647.126	1.42779	0.984248
H	646.256	0.785093	-0.46432
H	646.408	-0.221255	1.01971
N	648.488	1.13552	-2.24417
C	649.12	2.06009	-3.15613
H	647.667	0.664	-2.55024
H	648.561	2.10869	-4.11684
H	650.166	1.74363	-3.37426
H	649.153	3.08374	-2.71771
