44
  This energy is 1.32108e-319 and Call times are: 59709
C	-2.42667	-0.830518	2.35534
C	-1.61517	-1.14213	1.15719
O	-1.6434	-2.25291	0.645472
H	-2.99873	-1.7348	2.65683
H	-3.14171	-0.0113386	2.13065
H	-1.76768	-0.525494	3.19536
N	-0.857169	-0.151923	0.680429
C	-0.0136494	-0.301736	-0.478389
C	1.05012	0.77741	-0.422976
O	0.941827	1.72773	0.349676
H	-0.820648	0.739873	1.12349
H	0.487156	-1.26021	-0.427509
C	-0.827314	-0.17901	-1.78606
H	-1.34029	0.805169	-1.83465
H	-0.180901	-0.294028	-2.68032
H	-1.60385	-0.974222	-1.81394
N	2.11988	0.642731	-1.23136
C	3.18844	1.61448	-1.23884
H	2.19258	-0.13713	-1.84435
H	3.97514	1.32827	-1.97126
H	3.65818	1.68965	-0.231405
H	2.80159	2.62197	-1.51545
C	2834.45	-0.272649	-1.83299
C	2833.48	0.513881	-1.04078
O	2833.71	1.66816	-0.712887
H	2835.35	0.349883	-2.03454
H	2834	-0.575804	-2.80097
H	2834.76	-1.17837	-1.26989
N	2832.34	-0.107638	-0.706195
C	2831.3	0.526078	0.0621459
C	2830.45	-0.565014	0.685252
O	2830.55	-1.72961	0.301879
H	2832.17	-1.05767	-0.954456
H	2831.75	1.09189	0.867272
C	2830.43	1.43983	-0.823848
H	2829.96	0.856277	-1.64916
H	2829.62	1.92949	-0.235365
H	2831.06	2.23405	-1.27532
N	2829.62	-0.213954	1.68198
C	2828.78	-1.18687	2.34297
H	2829.56	0.732454	1.98278
H	2828.16	-0.703155	3.13241
H	2829.4	-1.98048	2.81954
H	2828.09	-1.67574	1.61321
