44
  This energy is 1.36866e-319 and Call times are: 29931
C	-2.31789	0.364146	-2.57311
C	-0.929277	0.208401	-2.08454
O	-0.000718296	0.0361834	-2.86211
H	-2.32744	0.290271	-3.68231
H	-2.71919	1.35573	-2.27555
H	-2.96326	-0.436359	-2.15403
N	-0.756683	0.260768	-0.76173
C	0.5345	0.126097	-0.136001
C	0.312538	-0.284771	1.30662
O	-0.801823	-0.201581	1.81957
H	-1.525	0.372394	-0.137099
H	1.0809	-0.670648	-0.624593
C	1.32905	1.44985	-0.195151
H	0.765318	2.26518	0.306406
H	2.32382	1.34965	0.285637
H	1.48397	1.74054	-1.25706
N	1.37125	-0.761131	1.99087
C	1.25255	-1.18778	3.36567
H	2.26326	-0.827403	1.55593
H	2.2323	-1.54513	3.7525
H	0.515641	-2.01835	3.45705
H	0.906775	-0.347024	4.00968
C	1426.16	-1.44756	2.94837
C	1425.11	-1.23657	1.92662
O	1424.07	-1.88313	1.94386
H	1425.83	-2.24282	3.65278
H	1426.33	-0.510784	3.51896
H	1427.1	-1.76447	2.46383
N	1425.36	-0.314655	0.99538
C	1424.44	0.00350256	-0.0636838
C	1425.22	0.660123	-1.18381
O	1426.37	1.06365	-0.996698
H	1426.22	0.184821	0.97512
H	1424.02	-0.915562	-0.451388
C	1423.32	0.950396	0.429766
H	1423.76	1.89194	0.827444
H	1422.61	1.1973	-0.383164
H	1422.76	0.458308	1.25087
N	1424.62	0.762715	-2.38746
C	1425.3	1.36239	-3.51616
H	1423.7	0.423692	-2.5207
H	1424.64	1.35507	-4.41434
H	1426.23	0.804329	-3.75922
H	1425.57	2.41809	-3.29299
