44
  This energy is 2.09385e-320 and Call times are: 43287
C	1.36752	-2.56711	-1.91467
C	0.58114	-1.32014	-1.78096
O	0.193367	-0.708099	-2.76662
H	1.51646	-2.79356	-2.99282
H	0.826494	-3.41322	-1.44117
H	2.36035	-2.44723	-1.43211
N	0.330302	-0.907862	-0.536181
C	-0.422016	0.286311	-0.244981
C	-0.0756439	0.722898	1.16522
O	0.517977	-0.0351096	1.92998
H	0.676557	-1.3995	0.258383
H	-0.108261	1.07303	-0.9193
C	-1.94201	0.0369827	-0.365701
H	-2.26033	-0.771124	0.326938
H	-2.52428	0.954489	-0.142277
H	-2.18256	-0.28335	-1.40285
N	-0.421815	1.97142	1.53585
C	-0.122625	2.47842	2.85479
H	-0.895352	2.57215	0.900141
H	-0.488719	3.52276	2.96702
H	0.976155	2.47054	3.0388
H	-0.608143	1.85066	3.63668
C	2051.05	1.20999	0.311074
C	2052.33	0.762271	0.896426
O	2052.56	0.873205	2.09433
H	2050.41	1.63004	1.11453
H	2050.52	0.35244	-0.158887
H	2051.23	1.99578	-0.452363
N	2053.22	0.243109	0.0473139
C	2054.52	-0.236518	0.46638
C	2055.42	-0.255571	-0.749112
O	2054.96	-0.145126	-1.8819
H	2053.04	0.184912	-0.930805
H	2054.94	0.461667	1.17913
C	2054.42	-1.65148	1.07929
H	2053.99	-2.36502	0.345634
H	2055.41	-2.02378	1.40318
H	2053.75	-1.6243	1.96799
N	2056.75	-0.375116	-0.538552
C	2057.69	-0.390755	-1.6344
H	2057.11	-0.456105	0.386023
H	2058.73	-0.498238	-1.2575
H	2057.62	0.554168	-2.22109
H	2057.48	-1.24005	-2.32323
