44
  This energy is 1.13976e-319 and Call times are: 122541
C	1.95173	-1.21074	-2.61744
C	1.79617	-0.477745	-1.34083
O	2.77063	-0.0859357	-0.713602
H	3.03358	-1.31965	-2.84895
H	1.46237	-0.650973	-3.44207
H	1.498	-2.22096	-2.53663
N	0.544934	-0.279089	-0.91976
C	0.232905	0.417405	0.302681
C	-1.16649	0.0138453	0.724666
O	-1.9143	-0.571524	-0.0563255
H	-0.239625	-0.628626	-1.42496
H	0.916428	0.092742	1.07693
C	0.309702	1.94881	0.112877
H	-0.392278	2.27834	-0.682578
H	0.0701523	2.48819	1.05227
H	1.33931	2.2314	-0.197271
N	-1.5462	0.300265	1.98553
C	-2.85569	-0.0562885	2.47977
H	-0.924032	0.768111	2.60461
H	-2.97781	0.265426	3.53753
H	-3.00803	-1.15876	2.42895
H	-3.6516	0.430643	1.87099
C	5802.09	-2.99327	-1.38682
C	5801.92	-1.55067	-1.09917
O	5801	-0.910281	-1.58586
H	5801.28	-3.3257	-2.07436
H	5802.02	-3.58061	-0.446734
H	5803.07	-3.17692	-1.87101
N	5802.83	-0.998791	-0.292297
C	5802.8	0.393066	0.080254
C	5804.19	0.781363	0.535556
O	5805.04	-0.0788034	0.781281
H	5803.59	-1.52451	0.0745314
H	5802.56	0.986494	-0.793437
C	5801.78	0.652397	1.21131
H	5802.03	0.0415271	2.10581
H	5801.76	1.72317	1.50052
H	5800.76	0.362849	0.865688
N	5804.47	2.09543	0.637821
C	5805.78	2.55969	1.05229
H	5803.78	2.77622	0.427645
H	5805.81	3.67129	1.07626
H	5806.56	2.20137	0.3493
H	5806.03	2.17965	2.06992
