44
  This energy is 2.45155e-320 and Call times are: 31653
C	0.685912	1.2594	-3.17326
C	-0.010692	0.316093	-2.26986
O	-0.881522	-0.434239	-2.68837
H	0.279766	1.15015	-4.20232
H	1.77401	1.03909	-3.19113
H	0.52616	2.30417	-2.83286
N	0.360825	0.339054	-0.98775
C	-0.224358	-0.519257	0.0110952
C	0.0267562	0.107354	1.36886
O	0.840682	1.01968	1.49929
H	1.05104	0.975334	-0.653557
H	-1.29561	-0.55657	-0.140911
C	0.384614	-1.93829	-0.0399542
H	1.48376	-1.89623	0.115687
H	-0.0638392	-2.60184	0.727748
H	0.194941	-2.3859	-1.03986
N	-0.687482	-0.356627	2.41318
C	-0.524615	0.187252	3.74128
H	-1.34649	-1.09062	2.28591
H	-1.19806	-0.326782	4.46203
H	-0.764284	1.27522	3.7524
H	0.525482	0.0614527	4.09149
C	1500.59	1.0812	-1.13982
C	1502.05	1.27274	-0.950065
O	1502.63	2.222	-1.45425
H	1500.19	1.89923	-1.77888
H	1500.07	1.10595	-0.159199
H	1500.4	0.108308	-1.63766
N	1502.68	0.35533	-0.210397
C	1504.09	0.40576	0.0636625
C	1504.54	-0.989727	0.450525
O	1503.72	-1.85957	0.732176
H	1502.19	-0.429304	0.170709
H	1504.61	0.680943	-0.842583
C	1504.41	1.40086	1.20222
H	1503.87	1.11594	2.1302
H	1505.49	1.44228	1.41573
H	1504.07	2.41899	0.90701
N	1505.86	-1.24206	0.451778
C	1506.38	-2.54486	0.795127
H	1506.51	-0.526869	0.213965
H	1507.49	-2.55155	0.739681
H	1505.99	-3.32041	0.0970335
H	1506.08	-2.82838	1.82956
