44
  This energy is 3.50391e-320 and Call times are: 37869
C	-0.73256	1.49702	3.05752
C	-0.357796	1.57337	1.62751
O	-0.29932	2.64773	1.04543
H	-0.933876	2.52138	3.43964
H	0.095612	1.05002	3.64671
H	-1.64809	0.880977	3.18101
N	-0.0973157	0.413438	1.02
C	0.280588	0.325576	-0.36791
C	-0.0100424	-1.08527	-0.841498
O	-0.244613	-1.98326	-0.0350081
H	-0.17676	-0.457549	1.4975
H	-0.339106	1.00038	-0.944709
C	1.77724	0.654512	-0.565283
H	2.41004	-0.0392176	0.0283641
H	2.07156	0.58795	-1.63286
H	1.97736	1.69006	-0.213519
N	-0.022567	-1.30843	-2.17042
C	-0.301368	-2.61712	-2.71428
H	0.162663	-0.567096	-2.8071
H	-0.263532	-2.59728	-3.82577
H	-1.3137	-2.96392	-2.4042
H	0.44455	-3.36073	-2.35119
C	1794.85	-2.80168	0.233296
C	1795.82	-1.95964	-0.495896
O	1796.31	-2.33231	-1.55186
H	1794.68	-3.74751	-0.328318
H	1793.87	-2.26992	0.326831
H	1795.23	-3.04582	1.24523
N	1796.13	-0.788175	0.0653156
C	1797.06	0.139876	-0.52432
C	1797.56	1.06166	0.572451
O	1796.98	1.11002	1.65983
H	1795.74	-0.508739	0.940482
H	1797.91	-0.409894	-0.902967
C	1796.4	0.963524	-1.65071
H	1795.52	1.52572	-1.25892
H	1797.11	1.67903	-2.10701
H	1796.04	0.276744	-2.44726
N	1798.65	1.80255	0.317521
C	1799.21	2.69967	1.30563
H	1799.11	1.74401	-0.566094
H	1800.1	3.2198	0.906098
H	1799.5	2.13992	2.2218
H	1798.46	3.46986	1.59973
