44
  This energy is 5.06961e-320 and Call times are: 107379
C	1.55723	-2.45119	-1.92168
C	0.778378	-2.02566	-0.736973
O	0.299056	-2.84648	0.0330896
H	1.59804	-3.56164	-1.9549
H	2.59277	-2.0552	-1.86113
H	1.0741	-2.08135	-2.85052
N	0.628687	-0.709959	-0.567021
C	-0.102337	-0.142716	0.537817
C	-0.511174	1.26556	0.151991
O	-0.00791299	1.82152	-0.822411
H	0.999273	-0.0521362	-1.21731
H	-1.00689	-0.716953	0.693091
C	0.754131	-0.11389	1.82341
H	1.6816	0.47546	1.66036
H	0.19424	0.322152	2.67615
H	1.04813	-1.15124	2.09473
N	-1.4556	1.86936	0.899979
C	-1.91644	3.20521	0.601118
H	-1.85589	1.40011	1.68024
H	-2.69243	3.52591	1.33066
H	-2.35701	3.24929	-0.421231
H	-1.07249	3.93116	0.644967
C	5083.19	0.471837	-2.13217
C	5083.83	-0.183246	-0.972036
O	5083.2	-0.92051	-0.229117
H	5082.12	0.181344	-2.16847
H	5083.68	0.150907	-3.07473
H	5083.26	1.57584	-2.03637
N	5085.13	0.0814632	-0.786194
C	5085.89	-0.480917	0.297921
C	5087.11	0.398127	0.514949
O	5087.44	1.23582	-0.323294
H	5085.63	0.706747	-1.38142
H	5085.3	-0.448684	1.20201
C	5086.33	-1.92847	-0.0156039
H	5086.94	-1.95794	-0.944046
H	5086.92	-2.36458	0.817149
H	5085.43	-2.56191	-0.173649
N	5087.8	0.240969	1.66296
C	5088.96	1.04155	1.96166
H	5087.51	-0.437414	2.33199
H	5089.39	0.761852	2.95016
H	5088.7	2.12381	1.98711
H	5089.75	0.895739	1.18636
