44
  This energy is 1.41604e-319 and Call times are: 85245
C	-2.90705	1.91617	-0.0590852
C	-1.8431	1.18731	0.667532
O	-1.75781	1.24249	1.88662
H	-3.53712	2.46976	0.670578
H	-3.54758	1.2015	-0.617453
H	-2.45759	2.64193	-0.76917
N	-0.991363	0.48129	-0.0797644
C	0.0954126	-0.280348	0.482067
C	1.1227	-0.502332	-0.610926
O	0.843817	-0.286769	-1.78889
H	-1.05377	0.467779	-1.07418
H	0.566818	0.302649	1.26307
C	-0.395094	-1.63762	1.03374
H	-0.878757	-2.23282	0.230051
H	0.439163	-2.22658	1.46723
H	-1.14792	-1.4613	1.83268
N	2.34911	-0.920358	-0.240543
C	3.39505	-1.14709	-1.21048
H	2.55739	-1.08235	0.718421
H	4.32784	-1.48903	-0.710258
H	3.6208	-0.21102	-1.77089
H	3.08669	-1.92437	-1.94664
C	4039.19	-3.3092	0.715365
C	4039.63	-2.25023	-0.220561
O	4040	-2.5225	-1.35277
H	4039.27	-4.29887	0.216032
H	4038.13	-3.144	1.0098
H	4039.83	-3.30879	1.62255
N	4039.59	-0.99863	0.243007
C	4039.99	0.138212	-0.548558
C	4040.33	1.27203	0.400419
O	4040	1.21704	1.5853
H	4039.31	-0.792632	1.17696
H	4040.89	-0.111181	-1.09536
C	4038.87	0.570821	-1.51573
H	4037.94	0.825296	-0.951488
H	4039.17	1.44586	-2.12688
H	4038.63	-0.268728	-2.20472
N	4041.01	2.32272	-0.0975724
C	4041.38	3.44301	0.733616
H	4041.27	2.34528	-1.05754
H	4041.94	4.20535	0.140774
H	4042.04	3.10929	1.57127
H	4040.48	3.92616	1.17229
