44
  This energy is 2.4644e-320 and Call times are: 119013
C	-1.61664	-2.88095	-1.10124
C	-1.59329	-1.42737	-0.8224
O	-2.52239	-0.704469	-1.15511
H	-2.56047	-3.13855	-1.62914
H	-1.56849	-3.45357	-0.151181
H	-0.756617	-3.1611	-1.74531
N	-0.508563	-0.960331	-0.199825
C	-0.340047	0.430053	0.139676
C	1.14173	0.685588	0.335356
O	1.93125	-0.250061	0.449592
H	0.25451	-1.55458	0.0400121
H	-0.671632	1.03812	-0.692418
C	-1.11611	0.793201	1.42535
H	-0.773901	0.167062	2.2768
H	-0.988659	1.86312	1.68956
H	-2.19994	0.60044	1.26947
N	1.55755	1.96724	0.356687
C	2.95118	2.30677	0.526129
H	0.904109	2.7102	0.25543
H	3.09083	3.41025	0.518488
H	3.56457	1.87018	-0.295082
H	3.33736	1.91108	1.49333
C	5633.1	-0.0214982	-2.77558
C	5633.8	0.684693	-1.6824
O	5633.81	1.90624	-1.61683
H	5632.63	0.725158	-3.45294
H	5632.3	-0.676288	-2.35849
H	5633.81	-0.636314	-3.35943
N	5634.43	-0.0829346	-0.78908
C	5635.16	0.457445	0.330501
C	5636.14	-0.599251	0.802299
O	5636.04	-1.76385	0.420655
H	5634.45	-1.07601	-0.869778
H	5635.73	1.31269	-0.00304685
C	5634.21	0.852816	1.48259
H	5633.62	-0.0267533	1.82186
H	5634.77	1.26942	2.34622
H	5633.5	1.62646	1.12387
N	5637.13	-0.209683	1.63159
C	5638.11	-1.14356	2.12305
H	5637.2	0.738753	1.92334
H	5638.84	-0.632273	2.7923
H	5638.68	-1.60073	1.2778
H	5637.63	-1.96454	2.69689
