44
  This energy is 1.47721e-319 and Call times are: 12501
C	-1.17026	-1.40205	2.96494
C	-1.10672	-1.34767	1.48703
O	-1.62681	-2.21535	0.79919
H	-1.72869	-2.31182	3.27532
H	-1.69534	-0.506386	3.3585
H	-0.145763	-1.44644	3.39083
N	-0.45101	-0.311317	0.959414
C	-0.30425	-0.12065	-0.461479
C	0.880847	0.797662	-0.688387
O	1.36842	1.43634	0.242306
H	-0.00662385	0.373431	1.53088
H	-0.0753697	-1.07309	-0.922512
C	-1.57906	0.494157	-1.08115
H	-1.8113	1.47081	-0.605416
H	-1.46954	0.642175	-2.17517
H	-2.44004	-0.187434	-0.907133
N	1.38738	0.868057	-1.93517
C	2.52237	1.70648	-2.24344
H	0.983245	0.337979	-2.67336
H	2.78725	1.62916	-3.32099
H	3.4097	1.40331	-1.64179
H	2.29723	2.77302	-2.01328
C	600.96	2.7784	-1.74959
C	601.077	1.78593	-0.657558
O	602.075	1.73661	0.0482221
H	601.884	3.39584	-1.78517
H	600.09	3.44399	-1.5701
H	600.835	2.26193	-2.72459
N	600.043	0.956318	-0.497078
C	600.009	-0.0621797	0.521912
C	598.995	-1.10823	0.101544
O	598.198	-0.881368	-0.806277
H	599.248	0.987431	-1.09716
H	600.978	-0.543687	0.570477
C	599.624	0.529556	1.89605
H	598.63	1.02332	1.84244
H	599.597	-0.251949	2.68301
H	600.374	1.29522	2.19209
N	599.018	-2.29362	0.742139
C	598.098	-3.35402	0.401847
H	599.676	-2.46043	1.46924
H	598.274	-4.24708	1.04128
H	598.223	-3.65565	-0.663358
H	597.044	-3.02159	0.545277
