44
  This energy is 7.97817e-320 and Call times are: 121071
C	-1.38587	-3.11616	0.703606
C	-0.480562	-1.99093	1.02839
O	0.113592	-1.94519	2.09674
H	-1.40789	-3.82799	1.55723
H	-1.02373	-3.64994	-0.20014
H	-2.41477	-2.73984	0.52281
N	-0.359312	-1.04014	0.0990514
C	0.483931	0.116084	0.269115
C	-0.00195244	1.19124	-0.683347
O	-0.784988	0.91937	-1.59152
H	-0.871137	-1.07417	-0.75524
H	0.366169	0.492216	1.27745
C	1.96412	-0.219891	-0.0194532
H	2.0812	-0.6061	-1.05447
H	2.61622	0.668141	0.110706
H	2.30762	-1.00941	0.683981
N	0.437645	2.44922	-0.48272
C	0.0195246	3.54022	-1.33189
H	1.06541	2.6503	0.262069
H	0.490281	4.49417	-1.00692
H	-1.08696	3.66502	-1.29498
H	0.310211	3.34833	-2.39012
C	5734.95	1.98028	-2.26984
C	5734.85	0.809476	-1.36931
O	5735.73	-0.0404714	-1.33963
H	5735.89	1.91697	-2.85395
H	5734.95	2.91923	-1.67725
H	5734.09	1.99394	-2.97413
N	5733.76	0.736776	-0.607201
C	5733.52	-0.341739	0.31874
C	5732.03	-0.392786	0.603076
O	5731.3	0.540813	0.283231
H	5733.03	1.42036	-0.661693
H	5733.8	-1.27663	-0.151531
C	5734.3	-0.1373	1.63351
H	5734.02	0.823016	2.11294
H	5734.12	-0.966038	2.34868
H	5735.39	-0.100447	1.4115
N	5731.54	-1.50173	1.19501
C	5730.14	-1.64478	1.49382
H	5732.15	-2.24938	1.43964
H	5729.94	-2.62438	1.98097
H	5729.53	-1.58567	0.561935
H	5729.8	-0.835637	2.17986
