44
  This energy is 3.25985e-320 and Call times are: 74703
C	-3.1093	1.5674	0.0399528
C	-2.11293	0.637481	0.61761
O	-2.29271	0.116339	1.70967
H	-3.96022	1.67926	0.746558
H	-3.4919	1.16831	-0.922942
H	-2.64971	2.56385	-0.129779
N	-1.01929	0.410963	-0.113829
C	0.0387179	-0.469059	0.313961
C	1.29263	-0.0975525	-0.453449
O	1.23215	0.632814	-1.44074
H	-0.870986	0.86417	-0.988784
H	0.234053	-0.299392	1.36521
C	-0.322384	-1.94918	0.0571354
H	-0.522797	-2.11954	-1.02218
H	0.490049	-2.62955	0.385513
H	-1.24314	-2.20846	0.623819
N	2.46769	-0.577689	-0.00100811
C	3.71486	-0.267357	-0.660139
H	2.4966	-1.16134	0.80382
H	4.56728	-0.75658	-0.139289
H	3.89273	0.832443	-0.666688
H	3.69976	-0.620948	-1.71651
C	3539.54	2.36597	-2.16141
C	3539.41	1.37315	-1.07086
O	3538.36	1.23972	-0.456312
H	3538.57	2.90834	-2.2787
H	3539.78	1.85558	-3.11689
H	3540.34	3.0992	-1.92032
N	3540.5	0.647349	-0.799709
C	3540.53	-0.3579	0.232436
C	3541.98	-0.591958	0.611024
O	3542.89	-0.167722	-0.0973504
H	3541.35	0.785716	-1.28799
H	3540.02	0.0208589	1.10812
C	3539.89	-1.67783	-0.248202
H	3540.41	-2.06322	-1.14706
H	3539.91	-2.454	0.544155
H	3538.82	-1.4927	-0.523608
N	3542.23	-1.2583	1.75595
C	3543.57	-1.51757	2.20315
H	3541.47	-1.58735	2.31909
H	3543.57	-2.07879	3.1635
H	3544.13	-0.562833	2.35815
H	3544.13	-2.11961	1.44812
