44
  This energy is 5.09233e-320 and Call times are: 44421
C	0.960875	2.39779	-2.33527
C	0.997804	1.81919	-0.973256
O	1.76669	2.24864	-0.124208
H	1.71103	3.21503	-2.4076
H	-0.0462531	2.81473	-2.54662
H	1.20384	1.61918	-3.08872
N	0.156475	0.810477	-0.734469
C	0.0755971	0.145479	0.541487
C	-0.551617	-1.21682	0.317946
O	-1.1168	-1.48247	-0.74122
H	-0.444444	0.450455	-1.44314
H	1.07747	-0.0118394	0.920405
C	-0.767666	0.959929	1.54781
H	-1.79463	1.12003	1.15562
H	-0.831872	0.450818	2.53141
H	-0.298393	1.956	1.70202
N	-0.446375	-2.12369	1.30916
C	-1.00235	-3.45063	1.18147
H	0.0210531	-1.89192	2.15594
H	-0.814103	-4.04612	2.10191
H	-0.545818	-3.98645	0.317916
H	-2.10275	-3.40136	1.01458
C	2107.12	2.94966	1.4245
C	2106.9	1.60552	0.844359
O	2105.79	1.08325	0.857825
H	2106.16	3.33258	1.83629
H	2107.48	3.6501	0.641889
H	2107.87	2.89585	2.24418
N	2107.97	1.00504	0.318707
C	2107.92	-0.30346	-0.282686
C	2109.32	-0.872965	-0.287368
O	2110.29	-0.151882	-0.0668595
H	2108.87	1.42867	0.339936
H	2107.3	-0.948329	0.332914
C	2107.36	-0.237335	-1.72452
H	2108	0.425576	-2.35311
H	2107.32	-1.24319	-2.19051
H	2106.33	0.182585	-1.70754
N	2109.46	-2.19325	-0.518936
C	2110.76	-2.82608	-0.530812
H	2108.66	-2.76123	-0.688158
H	2110.66	-3.91434	-0.740398
H	2111.26	-2.70162	0.453544
H	2111.41	-2.37357	-1.31376
