44
  This energy is 6.4026e-320 and Call times are: 69873
C	3.06267	0.477244	1.58695
C	1.58993	0.331163	1.61702
O	0.984129	0.247034	2.67646
H	3.45231	0.485068	2.6281
H	3.34251	1.43061	1.09138
H	3.52058	-0.372548	1.03821
N	0.973673	0.291457	0.433377
C	-0.454577	0.153101	0.300012
C	-0.743887	-0.37	-1.09351
O	0.12685	-0.361146	-1.9616
H	1.48121	0.33168	-0.423199
H	-0.804034	-0.58726	1.0084
C	-1.17349	1.50275	0.520719
H	-0.812116	2.26012	-0.207235
H	-2.27341	1.3998	0.418899
H	-0.952648	1.87582	1.54453
N	-1.97572	-0.860812	-1.33371
C	-2.33879	-1.39128	-2.62714
H	-2.66434	-0.865787	-0.616068
H	-3.39366	-1.74411	-2.62546
H	-1.68248	-2.24986	-2.89796
H	-2.2309	-0.611985	-3.41596
C	3317.85	0.1592	-0.430908
C	3316.6	0.588598	0.236476
O	3316.63	1.33258	1.20723
H	3318.72	0.608998	0.0945597
H	3317.86	0.497517	-1.48842
H	3317.94	-0.946845	-0.396569
N	3315.46	0.115574	-0.27567
C	3314.17	0.443622	0.263763
C	3313.19	-0.624954	-0.187278
O	3313.49	-1.4123	-1.08305
H	3315.46	-0.513074	-1.04879
H	3314.22	0.408616	1.34467
C	3313.69	1.83346	-0.216755
H	3313.65	1.86605	-1.32609
H	3312.7	2.08929	0.196867
H	3314.42	2.60717	0.118965
N	3312	-0.690434	0.442428
C	3311.01	-1.68243	0.0888977
H	3311.78	-0.0488474	1.16972
H	3310.1	-1.572	0.718239
H	3311.42	-2.71002	0.235374
H	3310.72	-1.57757	-0.979621
