44
  This energy is 3.8799e-320 and Call times are: 14433
C	1.52208	3.013	-0.855131
C	1.27947	1.5692	-1.07373
O	1.71236	0.998035	-2.06513
H	2.1143	3.41857	-1.70405
H	2.09088	3.16717	0.0858916
H	0.556921	3.55891	-0.79697
N	0.564287	0.939794	-0.138456
C	0.245966	-0.463871	-0.210741
C	-0.958129	-0.714815	0.676062
O	-1.32919	0.13197	1.48668
H	0.192455	1.42252	0.649991
H	-0.0370048	-0.70863	-1.22666
C	1.43592	-1.33496	0.250062
H	1.72401	-1.08078	1.29242
H	1.19427	-2.41635	0.19552
H	2.31182	-1.14102	-0.406689
N	-1.61238	-1.88332	0.525892
C	-2.77661	-2.2047	1.31803
H	-1.30079	-2.55265	-0.140542
H	-3.1704	-3.20949	1.04863
H	-3.58421	-1.45553	1.15138
H	-2.52542	-2.20591	2.40342
C	687.016	2.36766	-1.82729
C	688.183	1.96199	-1.01074
O	689.139	2.70943	-0.858574
H	687.189	3.38839	-2.2325
H	686.098	2.37926	-1.20344
H	686.879	1.66323	-2.67447
N	688.129	0.745311	-0.463768
C	689.186	0.209815	0.356309
C	689.051	-1.30045	0.363148
O	688.025	-1.84154	-0.043988
H	687.357	0.134498	-0.619096
H	690.139	0.452684	-0.0956698
C	689.11	0.756527	1.79939
H	688.131	0.506166	2.25981
H	689.923	0.34634	2.43353
H	689.21	1.86376	1.78059
N	690.1	-2.01992	0.808654
C	690.067	-3.46355	0.840769
H	690.924	-1.56375	1.12726
H	691.022	-3.86997	1.24064
H	689.911	-3.87583	-0.182551
H	689.234	-3.82335	1.48785
