44
  This energy is 1.53496e-319 and Call times are: 12711
C	0.0516122	2.66094	-2.24563
C	-0.0646019	2.11781	-0.873514
O	-0.101019	2.85884	0.0991311
H	0.100401	3.77056	-2.1985
H	-0.831612	2.36545	-2.85013
H	0.975197	2.28087	-2.73089
N	-0.120293	0.78836	-0.764736
C	-0.234351	0.111909	0.502636
C	0.245849	-1.31402	0.314553
O	0.400823	-1.78168	-0.811995
H	-0.0603613	0.194403	-1.56258
H	0.424447	0.589351	1.21685
C	-1.6921	0.11842	1.01453
H	-2.36531	-0.371538	0.279104
H	-1.78349	-0.401501	1.99029
H	-2.03237	1.16856	1.14707
N	0.514582	-2.03423	1.42138
C	0.987856	-3.39643	1.34009
H	0.389661	-1.63557	2.32399
H	1.14914	-3.81803	2.35669
H	1.95181	-3.44488	0.78359
H	0.249092	-4.03809	0.807468
C	610.57	2.73287	-2.0162
C	610.473	1.27447	-1.78198
O	610.663	0.474343	-2.6875
H	610.82	2.91762	-3.08354
H	611.367	3.17042	-1.37939
H	609.601	3.2232	-1.78395
N	610.163	0.892512	-0.540802
C	610.033	-0.490788	-0.158249
C	609.195	-0.548126	1.10434
O	608.971	0.469646	1.75689
H	609.981	1.55477	0.181287
H	609.495	-1.02129	-0.933996
C	611.413	-1.13801	0.0904492
H	611.962	-0.590892	0.886361
H	611.317	-2.20321	0.385051
H	612.018	-1.08859	-0.841454
N	608.692	-1.74459	1.467
C	607.873	-1.89365	2.64751
H	608.879	-2.55524	0.921801
H	607.558	-2.95262	2.77645
H	606.958	-1.26238	2.5733
H	608.435	-1.5816	3.55752
