44
  This energy is 1.00152e-319 and Call times are: 22749
C	-1.0354	-3.00086	1.43141
C	-1.09599	-1.52669	1.31162
O	-1.94344	-0.877789	1.90932
H	-1.84778	-3.34822	2.10612
H	-0.0577462	-3.31023	1.8572
H	-1.16987	-3.47181	0.434876
N	-0.185485	-0.958326	0.517696
C	-0.116836	0.464721	0.300783
C	0.635828	0.702901	-0.993823
O	1.27792	-0.202205	-1.52329
H	0.481352	-1.50041	0.0133041
H	-1.12052	0.850054	0.173424
C	0.598162	1.17809	1.46997
H	1.62729	0.779881	1.59824
H	0.652632	2.27399	1.30626
H	0.0377179	0.994929	2.41258
N	0.555358	1.929	-1.54718
C	1.22895	2.24499	-2.78516
H	0.0248652	2.64604	-1.10711
H	1.04307	3.30263	-3.07514
H	0.867161	1.58713	-3.6083
H	2.32849	2.09737	-2.68317
C	1085.96	-0.361979	2.78222
C	1085.71	0.0994532	1.39798
O	1086.53	0.784553	0.802265
H	1086.95	0.0180155	3.12384
H	1085.97	-1.47163	2.81972
H	1085.17	0.0238084	3.46225
N	1084.55	-0.268086	0.850381
C	1084.17	0.102891	-0.487856
C	1082.66	-0.0133637	-0.587658
O	1082.02	-0.60453	0.277365
H	1083.88	-0.801849	1.35637
H	1084.43	1.14009	-0.654563
C	1084.84	-0.806582	-1.53959
H	1084.57	-1.86995	-1.36519
H	1084.55	-0.523592	-2.57115
H	1085.95	-0.713256	-1.45534
N	1082.06	0.570929	-1.64134
C	1080.62	0.522504	-1.81352
H	1082.59	1.0508	-2.32694
H	1080.32	1.05853	-2.73983
H	1080.11	0.998518	-0.948382
H	1080.27	-0.532049	-1.88757
