44
  This energy is 4.82505e-320 and Call times are: 69243
C	-0.823253	0.854134	-3.27396
C	-1.1488	0.756113	-1.83326
O	-2.17601	1.24391	-1.38227
H	-1.62918	1.415	-3.79528
H	-0.745967	-0.160336	-3.7186
H	0.137653	1.39276	-3.41357
N	-0.261822	0.116946	-1.06704
C	-0.438695	-0.0597279	0.35223
C	0.923026	-0.332192	0.961094
O	1.88364	-0.619695	0.249483
H	0.58531	-0.250681	-1.44141
H	-0.810657	0.863512	0.778078
C	-1.40095	-1.22924	0.657884
H	-1.01665	-2.17465	0.219
H	-1.53951	-1.36796	1.74983
H	-2.3944	-1.01805	0.205552
N	1.04205	-0.225892	2.2992
C	2.30239	-0.455445	2.96631
H	0.254598	0.0148153	2.85706
H	2.19561	-0.321915	4.06541
H	3.07628	0.257508	2.60019
H	2.66696	-1.4902	2.77252
C	3283	-1.25419	-2.9319
C	3282.93	-0.427101	-1.70626
O	3281.98	0.31614	-1.49825
H	3282.1	-1.06381	-3.55555
H	3283.03	-2.33154	-2.66514
H	3283.91	-0.99273	-3.51884
N	3283.96	-0.536613	-0.857441
C	3284.03	0.203265	0.376981
C	3285.48	0.248409	0.805631
O	3286.32	-0.490235	0.283166
H	3284.74	-1.12371	-1.05215
H	3283.71	1.22123	0.197135
C	3283.17	-0.454488	1.48002
H	3283.5	-1.49889	1.66149
H	3283.23	0.11275	2.43184
H	3282.11	-0.482587	1.15338
N	3285.83	1.13791	1.75786
C	3287.19	1.26065	2.22088
H	3285.14	1.73185	2.16333
H	3287.27	2.04438	3.00619
H	3287.87	1.53681	1.3804
H	3287.55	0.296728	2.64997
