44
  This energy is 1.54568e-319 and Call times are: 73233
C	2.75169	1.71512	1.26991
C	2.12648	0.505637	0.688997
O	2.80185	-0.460365	0.361557
H	3.85201	1.5677	1.32853
H	2.35834	1.89556	2.29243
H	2.541	2.59909	0.631825
N	0.799989	0.536535	0.541249
C	0.0489524	-0.563572	-0.00878402
C	-1.27653	-0.0203778	-0.506053
O	-1.65613	1.10366	-0.183146
H	0.264252	1.34065	0.784817
H	0.582371	-0.961781	-0.86258
C	-0.191049	-1.66491	1.0479
H	-0.737889	-1.25278	1.92268
H	-0.768943	-2.51357	0.627679
H	0.787447	-2.05371	1.405
N	-2.0047	-0.803236	-1.32636
C	-3.27388	-0.365374	-1.85895
H	-1.67701	-1.70691	-1.58175
H	-3.71874	-1.14977	-2.51015
H	-3.14739	0.561824	-2.46355
H	-3.99093	-0.145256	-1.03519
C	3477.06	2.19521	0.50133
C	3475.61	1.91214	0.363664
O	3474.77	2.77981	0.571486
H	3477.2	3.25432	0.809141
H	3477.57	2.032	-0.468302
H	3477.5	1.53466	1.27352
N	3475.28	0.667793	0.00970132
C	3473.91	0.24041	-0.164454
C	3473.88	-1.27063	-0.042761
O	3474.92	-1.92828	-0.0835738
H	3475.97	-0.0378446	-0.128395
H	3473.31	0.648754	0.63769
C	3473.36	0.675394	-1.53937
H	3473.98	0.25528	-2.35994
H	3472.31	0.348056	-1.67671
H	3473.39	1.78409	-1.61644
N	3472.68	-1.85654	0.132461
C	3472.55	-3.28852	0.270046
H	3471.85	-1.30647	0.169981
H	3471.48	-3.57613	0.403581
H	3473.12	-3.65177	1.15297
H	3472.94	-3.8073	-0.634353
