44
  This energy is 4.23661e-320 and Call times are: 75081
C	0.211999	1.25121	3.24279
C	0.233494	0.130347	2.27614
O	0.534419	-1.00216	2.62737
H	0.505446	0.875705	4.24715
H	-0.808907	1.68332	3.30488
H	0.928508	2.0399	2.9305
N	-0.0853832	0.429052	1.01461
C	-0.10947	-0.553686	-0.0391835
C	0.0112244	0.178234	-1.36167
O	-0.14527	1.39628	-1.42256
H	-0.300399	1.36104	0.73514
H	0.755057	-1.19769	0.0604479
C	-1.41388	-1.38108	-0.00700675
H	-2.29878	-0.717217	-0.108783
H	-1.43567	-2.13884	-0.817006
H	-1.49101	-1.91136	0.967158
N	0.315891	-0.55019	-2.45372
C	0.463031	0.0621467	-3.75356
H	0.445695	-1.53372	-2.38263
H	0.712248	-0.702119	-4.52235
H	1.27647	0.823302	-3.73946
H	-0.480438	0.570707	-4.05755
C	3556.52	-1.87025	1.71907
C	3557.21	-0.594484	1.43097
O	3556.82	0.459392	1.91702
H	3555.66	-1.67604	2.39568
H	3557.21	-2.57955	2.21592
H	3556.14	-2.32175	0.777632
N	3558.27	-0.663662	0.614936
C	3559.04	0.491543	0.241363
C	3559.78	0.161326	-1.0407
O	3559.86	-0.999344	-1.43825
H	3558.55	-1.52383	0.202205
H	3558.37	1.31404	0.0311539
C	3560.05	0.876406	1.35003
H	3560.73	0.0301299	1.56361
H	3560.65	1.76562	1.06572
H	3559.49	1.11481	2.28411
N	3560.32	1.18422	-1.73198
C	3561.03	0.967179	-2.96979
H	3560.24	2.1172	-1.39743
H	3561.4	1.93058	-3.38476
H	3560.37	0.491573	-3.72705
H	3561.91	0.296187	-2.80782
