44
  This energy is 8.74595e-320 and Call times are: 28125
C	0.826535	-3.36408	-0.35483
C	1.20219	-1.94236	-0.185149
O	2.36337	-1.61469	0.0168146
H	1.73505	-3.99779	-0.260597
H	0.379082	-3.52442	-1.35827
H	0.0969884	-3.66326	0.426964
N	0.208703	-1.05361	-0.259132
C	0.416716	0.365082	-0.114675
C	-0.909532	0.994083	0.265671
O	-1.95918	0.363442	0.154527
H	-0.737369	-1.33542	-0.395034
H	1.10848	0.538128	0.699934
C	0.946104	0.992144	-1.42374
H	0.23432	0.81216	-2.25746
H	1.10752	2.08444	-1.31598
H	1.91729	0.522115	-1.69211
N	-0.889312	2.25271	0.746773
C	-2.10174	2.92868	1.14586
H	-0.0289967	2.74378	0.835873
H	-1.87756	3.95473	1.51219
H	-2.61309	2.36899	1.96226
H	-2.80763	3.00909	0.287707
C	1336.81	-1.26179	-2.39679
C	1337.16	-0.286313	-1.34041
O	1336.45	0.683381	-1.113
H	1335.87	-0.946232	-2.88782
H	1336.67	-2.26987	-1.95413
H	1337.62	-1.30526	-3.16098
N	1338.29	-0.523859	-0.665369
C	1338.76	0.334176	0.390994
C	1340.25	0.0867009	0.560638
O	1340.79	-0.892565	0.0462709
H	1338.88	-1.30143	-0.879694
H	1338.63	1.36626	0.0907945
C	1338.02	0.0540578	1.71799
H	1338.16	-1.00577	2.02266
H	1338.39	0.713122	2.5335
H	1336.94	0.237827	1.58016
N	1340.96	0.986739	1.27275
C	1342.38	0.84029	1.47712
H	1340.51	1.77641	1.67502
H	1342.78	1.67963	2.08908
H	1342.92	0.831886	0.501698
H	1342.6	-0.115233	2.0039
