44
  This energy is 1.3942e-319 and Call times are: 53871
C	-0.473109	3.11161	1.49002
C	-0.97011	1.78506	1.06055
O	-2.08797	1.3974	1.37136
H	-1.25465	3.61758	2.09752
H	-0.244358	3.73981	0.603532
H	0.442813	2.99594	2.10699
N	-0.132604	1.04647	0.328811
C	-0.472678	-0.264744	-0.163015
C	0.819225	-0.995692	-0.472756
O	1.88594	-0.38747	-0.536169
H	0.786343	1.36138	0.106769
H	-0.981364	-0.813112	0.619676
C	-1.3519	-0.179467	-1.43062
H	-0.827269	0.384293	-2.23127
H	-1.61573	-1.18734	-1.81189
H	-2.29454	0.359109	-1.19079
N	0.755082	-2.32974	-0.652238
C	1.93538	-3.11115	-0.939382
H	-0.116549	-2.80471	-0.589822
H	1.67641	-4.18671	-1.055
H	2.67933	-3.0164	-0.115484
H	2.41749	-2.76327	-1.88158
C	2556.48	-2.69919	1.91455
C	2556.11	-1.27338	1.76632
O	2556.03	-0.537022	2.73964
H	2556.64	-2.92721	2.9908
H	2557.42	-2.9113	1.35912
H	2555.67	-3.34768	1.5268
N	2555.88	-0.848827	0.523334
C	2555.51	0.510588	0.21909
C	2554.82	0.516142	-1.13496
O	2554.89	-0.46223	-1.87666
H	2555.92	-1.46547	-0.258245
H	2554.79	0.852043	0.951815
C	2556.74	1.43711	0.194776
H	2557.48	1.08352	-0.55751
H	2556.46	2.48465	-0.0390459
H	2557.23	1.42332	1.1919
N	2554.13	1.61791	-1.48018
C	2553.44	1.70929	-2.74451
H	2554.08	2.39649	-0.863165
H	2552.93	2.69264	-2.84318
H	2552.67	0.90598	-2.83136
H	2554.15	1.59808	-3.59252
