44
  This energy is 1.48151e-319 and Call times are: 405
C	-1.37255	-0.569887	3.1492
C	-0.256933	-0.657865	2.18025
O	0.850239	-1.04827	2.52413
H	-1.01583	-0.895295	4.15056
H	-2.20702	-1.23051	2.83286
H	-1.73655	0.476747	3.21998
N	-0.528612	-0.284439	0.927613
C	0.452831	-0.314394	-0.127233
C	-0.0106263	0.6272	-1.22169
O	-1.16279	1.05633	-1.23549
H	-1.42668	0.0593872	0.666461
H	1.39244	0.0633184	0.255564
C	0.627285	-1.74154	-0.692868
H	-0.338688	-2.12618	-1.0841
H	1.38239	-1.76824	-1.5052
H	0.965823	-2.42175	0.118822
N	0.889031	0.988869	-2.15754
C	0.54171	1.89067	-3.231
H	1.81853	0.636436	-2.12503
H	1.4153	2.06363	-3.89746
H	0.209681	2.87405	-2.82607
H	-0.289034	1.47122	-3.84346
C	25.6346	-0.528337	0.72208
C	26.7648	-0.450534	-0.230752
O	26.6284	-0.776627	-1.40188
H	24.7353	-0.914012	0.194491
H	25.4077	0.479292	1.12951
H	25.8844	-1.21661	1.55687
N	27.9266	-0.0145208	0.261635
C	29.1161	0.116123	-0.541406
C	30.3108	0.117729	0.392369
O	30.1621	0.271808	1.60314
H	28.0326	0.220443	1.22418
H	29.2029	-0.749979	-1.18515
C	29.0918	1.41659	-1.37527
H	29.002	2.30305	-0.711763
H	30.0062	1.52027	-1.99491
H	28.2115	1.40362	-2.05425
N	31.5288	-0.0767875	-0.150523
C	32.7227	-0.102931	0.661836
H	31.6276	-0.206718	-1.13163
H	33.6235	-0.272893	0.0317035
H	32.6653	-0.91868	1.41847
H	32.8508	0.862097	1.2036
