44
  This energy is 5.18472e-320 and Call times are: 88059
C	3.30073	-0.72766	-0.837753
C	2.00814	-0.0567732	-1.10294
O	1.88927	0.749153	-2.01554
H	4.05754	-0.368831	-1.56874
H	3.19024	-1.82721	-0.945419
H	3.65171	-0.490481	0.18865
N	0.996694	-0.376712	-0.292389
C	-0.320856	0.19198	-0.424597
C	-1.0327	0.0324646	0.904716
O	-0.586434	-0.717709	1.7707
H	1.11377	-1.01281	0.465638
H	-0.228175	1.25224	-0.62295
C	-1.12469	-0.505339	-1.54473
H	-1.21727	-1.59298	-1.33839
H	-2.13965	-0.0697957	-1.64934
H	-0.592211	-0.382275	-2.51296
N	-2.15169	0.75607	1.10537
C	-2.88979	0.678297	2.34445
H	-2.49284	1.36292	0.395029
H	-3.77914	1.34571	2.31496
H	-2.24959	0.985232	3.20304
H	-3.23901	-0.363377	2.52923
C	4169.06	2.5467	-1.96372
C	4169.58	1.17015	-1.79223
O	4169.51	0.351154	-2.6983
H	4168.64	2.65501	-2.9854
H	4169.89	3.2824	-1.83625
H	4168.27	2.75166	-1.21929
N	4170.11	0.880562	-0.602778
C	4170.66	-0.415333	-0.284745
C	4170.68	-0.552858	1.22514
O	4170.52	0.428503	1.94834
H	4170.14	1.54773	0.136986
H	4170	-1.17965	-0.674242
C	4172.08	-0.582132	-0.856053
H	4172.76	0.203974	-0.45492
H	4172.51	-1.57892	-0.613131
H	4172.05	-0.478083	-1.96256
N	4170.86	-1.78602	1.73772
C	4170.89	-2.01543	3.16353
H	4170.98	-2.56858	1.13587
H	4171.05	-3.09339	3.3856
H	4169.93	-1.70165	3.629
H	4171.71	-1.43258	3.64099
