44
  This energy is 6.46633e-320 and Call times are: 63237
C	-0.801017	-2.81013	1.89411
C	0.174877	-1.82662	1.37303
O	1.33288	-1.81477	1.76721
H	-0.302335	-3.45915	2.64641
H	-1.18215	-3.44578	1.06737
H	-1.65128	-2.28581	2.37897
N	-0.282158	-0.962233	0.464001
C	0.54675	0.0528182	-0.135507
C	-0.363848	1.13512	-0.682026
O	-1.57203	0.939668	-0.800081
H	-1.23503	-0.963352	0.172501
H	1.16566	0.500192	0.63188
C	1.41876	-0.530552	-1.2697
H	0.780658	-0.989281	-2.05488
H	2.05838	0.248319	-1.73341
H	2.08031	-1.32296	-0.85668
N	0.195827	2.31648	-1.00937
C	-0.594279	3.40952	-1.52624
H	1.17427	2.45748	-0.899847
H	0.0473344	4.29343	-1.73669
H	-1.37607	3.71081	-0.791895
H	-1.10425	3.11334	-2.47143
C	3000.28	2.15153	-2.30211
C	3000.2	0.846504	-1.60889
O	3000.89	-0.0990313	-1.95084
H	3001.03	2.08468	-3.1179
H	3000.59	2.94335	-1.58921
H	2999.3	2.41782	-2.74175
N	2999.32	0.765036	-0.606016
C	2999.12	-0.437288	0.163353
C	2997.76	-0.350452	0.820246
O	2997.14	0.715616	0.861149
H	2998.74	1.5337	-0.355921
H	2999.11	-1.28663	-0.50788
C	3000.22	-0.604926	1.23785
H	3000.23	0.268452	1.92431
H	3000.07	-1.5298	1.832
H	3001.21	-0.666098	0.743952
N	2997.24	-1.48294	1.33309
C	2995.94	-1.49909	1.96699
H	2997.74	-2.33713	1.28376
H	2995.69	-2.52198	2.32551
H	2995.15	-1.17555	1.25183
H	2995.92	-0.806988	2.83979
