44
  This energy is 1.17034e-319 and Call times are: 78021
C	0.09614	3.35209	-0.938302
C	-0.638319	2.14291	-0.502806
O	-1.82579	2.19407	-0.213353
H	-0.595452	4.22246	-0.936408
H	0.491988	3.20989	-1.96588
H	0.937332	3.55992	-0.243936
N	0.0668684	1.011	-0.440702
C	-0.507909	-0.246751	-0.0350755
C	0.622038	-1.15104	0.41739
O	1.79202	-0.869361	0.165117
H	1.0406	0.988106	-0.651072
H	-1.15604	-0.079315	0.815787
C	-1.28687	-0.908874	-1.19349
H	-0.619114	-1.07858	-2.06494
H	-1.73088	-1.87747	-0.884553
H	-2.11096	-0.236082	-1.51656
N	0.296799	-2.25418	1.11974
C	1.30622	-3.16766	1.60224
H	-0.655261	-2.46099	1.31985
H	0.839889	-4.01279	2.15499
H	2.01173	-2.64643	2.28913
H	1.89554	-3.58583	0.754295
C	3701.87	1.8101	0.23955
C	3701.06	0.704843	-0.322596
O	3701.48	0.0140316	-1.23907
H	3702.83	1.86959	-0.303073
H	3702.07	1.62734	1.31597
H	3701.33	2.77494	0.123117
N	3699.85	0.515496	0.220738
C	3698.95	-0.519481	-0.218362
C	3697.55	-0.131152	0.213305
O	3697.37	0.767512	1.03326
H	3699.51	1.10352	0.947282
H	3698.96	-0.560359	-1.30015
C	3699.33	-1.89018	0.384354
H	3699.32	-1.84446	1.49426
H	3698.64	-2.68941	0.0481832
H	3700.36	-2.16265	0.0616966
N	3696.52	-0.789518	-0.349211
C	3695.15	-0.479997	-0.00864282
H	3696.68	-1.50875	-1.01609
H	3694.45	-1.13031	-0.574791
H	3694.91	0.582249	-0.249489
H	3694.97	-0.634694	1.08006
