44
  This energy is 3.1472e-320 and Call times are: 31905
C	2.08331	2.48959	-1.26012
C	1.61925	1.61386	-0.160594
O	2.21282	1.5721	0.908247
H	2.9958	3.03505	-0.935022
H	1.29602	3.22853	-1.5189
H	2.32818	1.88164	-2.15643
N	0.532223	0.87882	-0.406468
C	-0.0393453	-0.0202182	0.564031
C	-0.886151	-1.03337	-0.181406
O	-1.19487	-0.850802	-1.3575
H	0.074603	0.899925	-1.29138
H	0.759392	-0.558892	1.05792
C	-0.904322	0.739978	1.59409
H	-1.72233	1.292	1.08395
H	-1.34584	0.0507384	2.34295
H	-0.272728	1.47979	2.13252
N	-1.26472	-2.14225	0.484237
C	-2.06214	-3.16753	-0.147505
H	-0.998787	-2.27501	1.43339
H	-2.27113	-3.99704	0.563469
H	-1.53127	-3.58911	-1.03164
H	-3.03483	-2.75038	-0.495405
C	1516.72	-0.563333	3.28281
C	1516.86	-0.762916	1.82319
O	1517.83	-1.35372	1.35797
H	1517.59	-1.01458	3.80333
H	1515.79	-1.05326	3.64596
H	1516.68	0.520955	3.51906
N	1515.89	-0.260198	1.05699
C	1515.89	-0.374441	-0.379599
C	1514.98	0.707256	-0.932842
O	1514.21	1.31964	-0.19546
H	1515.12	0.244454	1.44593
H	1516.89	-0.184909	-0.747812
C	1515.39	-1.76608	-0.833117
H	1514.37	-1.9575	-0.453077
H	1515.39	-1.85752	-1.93875
H	1516.07	-2.54965	-0.420381
N	1515.07	0.983087	-2.24905
C	1514.25	2.00504	-2.8623
H	1515.7	0.481368	-2.82774
H	1514.47	2.08	-3.95088
H	1514.45	2.99764	-2.3966
H	1513.17	1.77321	-2.73459
