44
  This energy is 3.02319e-320 and Call times are: 93645
C	-1.94053	0.692307	-2.80734
C	-1.46511	1.01237	-1.44252
O	-1.76169	2.06834	-0.900795
H	-2.55377	1.53686	-3.19013
H	-2.56467	-0.225818	-2.78955
H	-1.07644	0.538373	-3.48749
N	-0.698887	0.0931237	-0.850699
C	-0.161089	0.26024	0.475828
C	1.03002	-0.667579	0.615972
O	1.22968	-1.56234	-0.203406
H	-0.440306	-0.750448	-1.3138
H	0.198349	1.27566	0.584437
C	-1.21716	-0.0641257	1.55593
H	-1.58422	-1.10634	1.44114
H	-0.806431	0.0636752	2.57855
H	-2.08493	0.621495	1.44174
N	1.86551	-0.459989	1.65273
C	3.03224	-1.28578	1.86003
H	1.6907	0.273822	2.30096
H	3.58988	-0.958518	2.76512
H	3.71814	-1.2237	0.984276
H	2.73999	-2.35237	1.99474
C	4434.7	2.92074	1.88506
C	4434.21	2.0295	0.808554
O	4433.16	2.2616	0.221464
H	4433.97	3.75246	2.02935
H	4435.68	3.34716	1.61046
H	4434.79	2.35624	2.8367
N	4434.97	0.969005	0.526533
C	4434.63	0.0115011	-0.494813
C	4435.38	-1.2731	-0.198678
O	4436.3	-1.28938	0.612968
H	4435.8	0.774925	1.03179
H	4433.57	-0.204123	-0.434604
C	4435	0.531813	-1.90104
H	4436.09	0.752641	-1.95907
H	4434.74	-0.202943	-2.68987
H	4434.44	1.47363	-2.10535
N	4434.98	-2.39043	-0.838511
C	4435.62	-3.662	-0.611197
H	4434.22	-2.35816	-1.48633
H	4435.15	-4.4578	-1.23087
H	4435.54	-3.95813	0.459752
H	4436.71	-3.60557	-0.872649
