44
  This energy is 4.86457e-320 and Call times are: 119895
C	-1.21641	3.0688	1.10858
C	-1.38058	1.78857	0.383832
O	-2.4687	1.44743	-0.0590193
H	-2.19713	3.58969	1.16076
H	-0.491669	3.71978	0.575868
H	-0.854099	2.88047	2.14116
N	-0.28474	1.0377	0.250787
C	-0.285636	-0.232866	-0.42927
C	0.921713	-1.017	0.0468431
O	1.82464	-0.463175	0.671209
H	0.58966	1.31303	0.641372
H	-1.17107	-0.785366	-0.14148
C	-0.229682	-0.0502885	-1.96245
H	0.679546	0.51747	-2.25412
H	-0.230381	-1.02666	-2.48921
H	-1.11881	0.526517	-2.29845
N	0.95448	-2.33746	-0.220182
C	2.05804	-3.16705	0.204221
H	0.21072	-2.76846	-0.720477
H	1.90104	-4.22202	-0.111417
H	2.16244	-3.14486	1.31321
H	3.01415	-2.80671	-0.239839
C	5676.93	-0.0193976	-3.47144
C	5676.79	0.651286	-2.15883
O	5676.51	1.83944	-2.08162
H	5676.74	0.71917	-4.28193
H	5676.18	-0.840976	-3.5598
H	5677.95	-0.432517	-3.58617
N	5677	-0.108528	-1.08056
C	5676.9	0.400417	0.26425
C	5677.68	-0.533149	1.17247
O	5678.03	-1.64215	0.778066
H	5677.25	-1.06829	-1.15716
H	5677.38	1.37216	0.307611
C	5675.43	0.490473	0.72752
H	5674.94	-0.508028	0.68114
H	5675.35	0.882132	1.76257
H	5674.87	1.17626	0.0535222
N	5677.98	-0.093799	2.41035
C	5678.72	-0.908531	3.34061
H	5677.69	0.80956	2.70835
H	5678.87	-0.372742	4.30464
H	5679.73	-1.1599	2.92578
H	5678.19	-1.86245	3.54658
