44
  This energy is 1.15241e-319 and Call times are: 116451
C	0.656202	3.31972	0.821594
C	-0.232823	2.26113	0.292222
O	-1.40141	2.49575	0.0168022
H	0.0846631	4.26914	0.90988
H	1.51324	3.47884	0.133853
H	1.03605	3.03423	1.82517
N	0.310365	1.05087	0.141977
C	-0.427325	-0.0798727	-0.362079
C	0.291161	-1.33969	0.0804909
O	1.43563	-1.28677	0.526828
H	1.25552	0.865381	0.397362
H	-1.41167	-0.0870266	0.0885789
C	-0.53205	-0.0415077	-1.90308
H	0.479558	-0.0335821	-2.3621
H	-1.0996	-0.910664	-2.29453
H	-1.05917	0.88656	-2.2145
N	-0.377034	-2.50617	-0.013552
C	0.22209	-3.75526	0.395103
H	-1.30506	-2.5273	-0.370697
H	-0.484441	-4.60002	0.238745
H	0.497972	-3.72424	1.47407
H	1.14689	-3.95828	-0.192018
C	5518.13	1.59523	-1.45342
C	5517.52	0.796522	-0.370067
O	5518.2	0.307917	0.521163
H	5519.23	1.64023	-1.2967
H	5517.73	2.62839	-1.44572
H	5517.93	1.12549	-2.43872
N	5516.19	0.639836	-0.428602
C	5515.45	-0.110275	0.552671
C	5514.13	-0.517676	-0.0730799
O	5513.74	-0.00105801	-1.12025
H	5515.65	1.01838	-1.17571
H	5515.99	-1.01524	0.789878
C	5515.2	0.725853	1.82722
H	5514.64	1.65381	1.58013
H	5514.63	0.151236	2.58496
H	5516.17	1.01899	2.27536
N	5513.41	-1.47569	0.547191
C	5512.15	-1.93621	0.0186723
H	5513.75	-1.8866	1.38985
H	5511.72	-2.72459	0.671425
H	5512.28	-2.36086	-1.00272
H	5511.42	-1.09546	-0.0490378
