44
  This energy is 1.21708e-319 and Call times are: 110361
C	-2.22744	-1.83055	1.95287
C	-1.81333	-1.235	0.662511
O	-2.43003	-1.4671	-0.368166
H	-3.12154	-2.4712	1.79158
H	-2.48483	-1.03046	2.67842
H	-1.40789	-2.45492	2.36693
N	-0.737268	-0.445326	0.692043
C	-0.213249	0.205969	-0.48186
C	1.23494	0.563207	-0.209164
O	1.68729	0.525286	0.933541
H	-0.226238	-0.287309	1.53277
H	-0.229624	-0.492664	-1.30873
C	-1.01873	1.47878	-0.825786
H	-1.00038	2.193	0.0248996
H	-0.618001	1.98267	-1.72927
H	-2.07794	1.20378	-1.0222
N	2.0049	0.899441	-1.26278
C	3.3984	1.24326	-1.10118
H	1.62213	0.917325	-2.18061
H	3.85867	1.49122	-2.08297
H	3.96338	0.393593	-0.653841
H	3.51042	2.12446	-0.428782
C	5230.7	-1.87772	-0.8633
C	5229.25	-1.75373	-0.586445
O	5228.49	-2.69037	-0.778451
H	5230.92	-2.89804	-1.24922
H	5231.29	-1.71614	0.0679579
H	5231.01	-1.13263	-1.62634
N	5228.84	-0.571678	-0.126691
C	5227.46	-0.298001	0.188895
C	5227.26	1.20582	0.167959
O	5228.23	1.96394	0.163453
H	5229.46	0.192723	-0.00206203
H	5226.83	-0.721189	-0.584359
C	5227.07	-0.86358	1.57477
H	5227.72	-0.427831	2.36557
H	5226.01	-0.654747	1.82088
H	5227.22	-1.96563	1.57745
N	5226	1.6733	0.132492
C	5225.72	3.08967	0.098657
H	5225.23	1.04356	0.129487
H	5224.62	3.27252	0.0741196
H	5226.17	3.55875	-0.804273
H	5226.14	3.59526	0.998288
