44
  This energy is 1.60502e-319 and Call times are: 105363
C	-2.15551	-0.600972	2.6681
C	-1.88883	-0.440446	1.22092
O	-2.75543	-0.670452	0.388704
H	-3.20225	-0.946407	2.81257
H	-2.0217	0.368975	3.19166
H	-1.46523	-1.35395	3.1034
N	-0.660061	-0.0407614	0.885133
C	-0.24977	0.160472	-0.481613
C	1.26425	0.0913158	-0.528553
O	1.92831	0.145339	0.504859
H	0.0458507	0.115312	1.57089
H	-0.635005	-0.649771	-1.08756
C	-0.73623	1.52455	-1.01991
H	-0.339721	2.35346	-0.395561
H	-0.422162	1.68268	-2.07211
H	-1.84664	1.56303	-0.979134
N	1.8463	-0.0526322	-1.73541
C	3.2811	-0.139535	-1.8768
H	1.2913	-0.101568	-2.55931
H	3.56467	-0.253344	-2.94632
H	3.67909	-1.01459	-1.31367
H	3.77152	0.778615	-1.47973
C	4992.21	1.35796	-2.96898
C	4992.03	0.224733	-2.03349
O	4992.37	-0.909693	-2.34233
H	4992.66	0.986474	-3.91369
H	4992.88	2.11997	-2.52285
H	4991.23	1.82226	-3.19968
N	4991.48	0.51247	-0.851545
C	4991.25	-0.4829	0.163226
C	4990.18	0.0528804	1.10169
O	4989.86	1.24074	1.08012
H	4991.18	1.43553	-0.623022
H	4990.85	-1.37587	-0.305137
C	4992.54	-0.802661	0.950182
H	4992.94	0.115749	1.42881
H	4992.36	-1.56885	1.73227
H	4993.31	-1.19311	0.251369
N	4989.59	-0.821533	1.93726
C	4988.56	-0.40486	2.85799
H	4989.85	-1.78011	1.9346
H	4988.19	-1.26752	3.4598
H	4987.69	0.0265057	2.30728
H	4988.94	0.37231	3.5563
