44
  This energy is 7.55822e-320 and Call times are: 108387
C	-2.96058	-0.364514	-1.79673
C	-1.84104	0.458096	-1.2857
O	-1.69662	1.61999	-1.64016
H	-3.56919	0.2414	-2.50265
H	-3.60725	-0.694684	-0.95671
H	-2.56833	-1.25436	-2.33269
N	-1.00762	-0.139908	-0.431206
C	0.127433	0.529932	0.151722
C	1.10486	-0.530851	0.619286
O	0.761384	-1.7084	0.704289
H	-1.11918	-1.09577	-0.172716
H	0.620186	1.11722	-0.612717
C	-0.295448	1.42317	1.33933
H	-0.801217	0.817587	2.12138
H	0.576101	1.94055	1.79044
H	-1.01223	2.19523	0.983966
N	2.35981	-0.138132	0.914037
C	3.36213	-1.07967	1.35566
H	2.62031	0.818242	0.832052
H	4.32824	-0.563571	1.54939
H	3.53245	-1.86365	0.582604
H	3.04001	-1.58507	2.2948
C	5136.37	-0.437702	2.41137
C	5135.75	0.328288	1.30678
O	5136.16	1.44068	1.00179
H	5137.2	0.161704	2.85713
H	5136.79	-1.39233	2.02772
H	5135.62	-0.653754	3.19764
N	5134.73	-0.259185	0.677376
C	5134.03	0.36011	-0.416793
C	5132.67	-0.303919	-0.531884
O	5132.43	-1.358	0.0554555
H	5134.39	-1.15343	0.954243
H	5133.87	1.40472	-0.183923
C	5134.81	0.210987	-1.74309
H	5134.97	-0.861869	-1.97858
H	5134.27	0.686865	-2.58767
H	5135.8	0.700419	-1.64538
N	5131.73	0.313429	-1.27904
C	5130.41	-0.238225	-1.43666
H	5131.94	1.16943	-1.74068
H	5129.79	0.413894	-2.08827
H	5129.9	-0.332267	-0.44877
H	5130.46	-1.25125	-1.89779
