44
  This energy is 5.82108e-320 and Call times are: 101205
C	-0.857521	1.80971	-2.84881
C	-0.298423	0.608142	-2.18939
O	0.00716633	-0.384035	-2.83645
H	-0.93562	1.62569	-3.94238
H	-0.194091	2.68349	-2.67794
H	-1.86938	2.03035	-2.44832
N	-0.156169	0.671472	-0.863446
C	0.373935	-0.416705	-0.0813414
C	-0.0808611	-0.224817	1.35239
O	-0.558254	0.846166	1.72242
H	-0.435966	1.47463	-0.344232
H	-0.0499081	-1.3464	-0.439248
C	1.91696	-0.458024	-0.148218
H	2.34843	0.497522	0.219049
H	2.32845	-1.29483	0.452786
H	2.23734	-0.597766	-1.20367
N	0.0377072	-1.27271	2.19135
C	-0.380021	-1.18688	3.57132
H	0.419915	-2.13326	1.87102
H	-0.199918	-2.15026	4.09735
H	-1.46621	-0.948388	3.6389
H	0.183014	-0.386191	4.10336
C	4792.66	-3.32584	-0.974608
C	4793.1	-1.93498	-1.22383
O	4793.77	-1.64955	-2.20971
H	4793.04	-3.98164	-1.79051
H	4791.55	-3.3773	-0.952336
H	4793.07	-3.68872	-0.00694967
N	4792.74	-1.02597	-0.316032
C	4793.09	0.367333	-0.420416
C	4792.99	0.978408	0.963675
O	4792.42	0.380548	1.87491
H	4792.22	-1.27614	0.497929
H	4794.12	0.446001	-0.740566
C	4792.16	1.11257	-1.39938
H	4791.1	1.02926	-1.06829
H	4792.43	2.18565	-1.48225
H	4792.24	0.654707	-2.40922
N	4793.56	2.18215	1.15872
C	4793.53	2.83609	2.4461
H	4794.03	2.64669	0.410507
H	4794.05	3.81634	2.40354
H	4794.03	2.20674	3.21999
H	4792.48	3.01417	2.76817
