44
  This energy is 3.90213e-320 and Call times are: 81213
C	1.31415	-0.143109	3.22159
C	0.229696	-0.394404	2.24588
O	-0.764207	-1.03651	2.55629
H	1.05468	-0.622237	4.1906
H	1.43873	0.948422	3.38241
H	2.26882	-0.57333	2.85218
N	0.403996	0.110686	1.02242
C	-0.562517	-0.049759	-0.0344346
C	0.151122	0.164981	-1.35498
O	1.27301	0.667027	-1.38885
H	1.23137	0.607091	0.773478
H	-0.931985	-1.06731	-0.021864
C	-1.72636	0.95606	0.110206
H	-1.34369	1.9989	0.0975884
H	-2.47248	0.835173	-0.701868
H	-2.24019	0.789168	1.08194
N	-0.478692	-0.233148	-2.47785
C	0.128239	-0.079799	-3.7795
H	-1.38323	-0.643826	-2.42899
H	-0.546275	-0.464886	-4.57573
H	1.0896	-0.640288	-3.83322
H	0.341978	0.993215	-3.98959
C	3850.69	-2.03915	-0.851356
C	3849.29	-1.60454	-1.01255
O	3848.59	-2.04469	-1.91515
H	3850.94	-2.76913	-1.6508
H	3850.83	-2.52599	0.136815
H	3851.37	-1.16677	-0.93252
N	3848.84	-0.711016	-0.12831
C	3847.49	-0.193154	-0.155083
C	3847.48	1.11894	0.604885
O	3848.43	1.43823	1.31923
H	3849.42	-0.338178	0.584812
H	3847.22	0.0187222	-1.18051
C	3846.49	-1.18459	0.48464
H	3846.78	-1.40024	1.53633
H	3845.46	-0.789043	0.465554
H	3846.51	-2.14197	-0.0804069
N	3846.41	1.92364	0.449921
C	3846.32	3.19755	1.12445
H	3845.66	1.65066	-0.138173
H	3845.37	3.70926	0.870853
H	3847.16	3.8614	0.826168
H	3846.36	3.06118	2.22935
