44
  This energy is 1.54124e-319 and Call times are: 36399
C	0.219611	-2.53931	-2.37272
C	-0.312422	-1.98099	-1.10922
O	-1.19328	-2.55616	-0.484911
H	-0.3079	-3.48989	-2.60509
H	1.30579	-2.74644	-2.27203
H	0.0556936	-1.82427	-3.20626
N	0.216801	-0.824736	-0.702574
C	-0.196714	-0.158138	0.506343
C	0.194649	1.30221	0.390368
O	0.975138	1.67638	-0.482941
H	0.913342	-0.351276	-1.23512
H	-1.27568	-0.204498	0.582286
C	0.466357	-0.788598	1.75132
H	1.5732	-0.739941	1.66978
H	0.150014	-0.277811	2.68395
H	0.172797	-1.85848	1.82429
N	-0.359364	2.16888	1.26098
C	-0.0553407	3.58026	1.21907
H	-0.994261	1.84762	1.95591
H	-0.607526	4.1253	2.01611
H	-0.342106	4.01484	0.234114
H	1.03533	3.75198	1.36782
C	1730.67	1.34331	-3.06278
C	1730.82	0.363882	-1.96363
O	1731.62	-0.565343	-2.05075
H	1731.35	1.07075	-3.89618
H	1730.93	2.36268	-2.70577
H	1729.63	1.33631	-3.438
N	1730.05	0.551483	-0.889709
C	1730.09	-0.316933	0.259794
C	1728.79	-0.143908	1.01585
O	1728.04	0.800301	0.770631
H	1729.39	1.29542	-0.842831
H	1730.14	-1.34456	-0.0770398
C	1731.29	0.0166874	1.17917
H	1731.23	1.07183	1.52233
H	1731.32	-0.650215	2.0652
H	1732.23	-0.112754	0.613284
N	1728.47	-1.07031	1.94335
C	1727.25	-0.994473	2.70445
H	1729.09	-1.83092	2.12221
H	1727.18	-1.84566	3.41668
H	1726.36	-1.0254	2.02841
H	1727.21	-0.0454644	3.28643
