44
  This energy is 1.25913e-319 and Call times are: 65715
C	-2.50463	-0.99921	2.2033
C	-1.85683	-1.0214	0.872485
O	-2.23483	-1.78844	-0.00230732
H	-3.31721	-1.75745	2.22893
H	-2.94157	0.00250688	2.39943
H	-1.76326	-1.24004	2.99406
N	-0.845417	-0.169068	0.691006
C	-0.116864	-0.0732437	-0.548694
C	1.22609	0.565129	-0.251722
O	1.43175	1.1255	0.823227
H	-0.527936	0.430322	1.42099
H	0.0693168	-1.07098	-0.925427
C	-0.886923	0.769242	-1.59001
H	-1.07681	1.79196	-1.2
H	-0.328833	0.844938	-2.54583
H	-1.86921	0.291748	-1.79799
N	2.18343	0.475157	-1.19587
C	3.49666	1.04262	-0.996875
H	1.99979	0.0113921	-2.05635
H	4.14023	0.866254	-1.8868
H	3.99202	0.585213	-0.109946
H	3.42827	2.14135	-0.825729
C	3119.12	1.39158	-2.19467
C	3118.67	0.313177	-1.28374
O	3119.3	-0.734434	-1.19053
H	3120.04	1.0685	-2.72227
H	3119.34	2.31383	-1.61688
H	3118.33	1.60651	-2.94748
N	3117.56	0.549108	-0.585079
C	3117	-0.403166	0.341736
C	3115.54	-0.0580854	0.540345
O	3115.09	1.02388	0.164657
H	3117.04	1.39485	-0.691521
H	3117.05	-1.39146	-0.0976124
C	3117.74	-0.370572	1.69644
H	3117.69	0.644908	2.14403
H	3117.32	-1.10272	2.41241
H	3118.81	-0.623867	1.53718
N	3114.75	-0.985186	1.11985
C	3113.34	-0.749931	1.33908
H	3115.13	-1.8575	1.41046
H	3112.87	-1.62913	1.82849
H	3112.82	-0.562845	0.372854
H	3113.19	0.139692	1.99205
