44
  This energy is 1.54692e-319 and Call times are: 79491
C	0.0396529	0.540687	-3.4398
C	-0.680118	0.344309	-2.1613
O	-1.89439	0.475736	-2.09235
H	-0.689557	0.811701	-4.23394
H	0.559715	-0.395245	-3.73372
H	0.782385	1.35993	-3.33911
N	0.0680031	0.0254767	-1.10251
C	-0.487482	-0.197507	0.208422
C	0.624962	-0.0164308	1.22278
O	1.80108	0.020097	0.866068
H	1.05961	-0.0501023	-1.16525
H	-1.23832	0.557147	0.405432
C	-1.09166	-1.61432	0.329773
H	-0.318838	-2.386	0.126392
H	-1.52041	-1.78932	1.33791
H	-1.90446	-1.73468	-0.419244
N	0.274582	0.1237	2.51645
C	1.26442	0.312805	3.55117
H	-0.682975	0.0984968	2.78419
H	0.778867	0.405793	4.54759
H	1.85796	1.23667	3.36295
H	1.96897	-0.549602	3.58348
C	3771.82	-1.65546	0.915837
C	3771.05	-0.790052	-0.00394467
O	3771.59	-0.228785	-0.947249
H	3772.89	-1.67301	0.596541
H	3771.42	-2.69121	0.892271
H	3771.77	-1.26075	1.95207
N	3769.75	-0.657338	0.25967
C	3768.87	0.150414	-0.544424
C	3767.65	0.492486	0.296377
O	3767.43	-0.103606	1.34807
H	3769.33	-1.09643	1.04818
H	3769.37	1.07795	-0.792122
C	3768.43	-0.595569	-1.82594
H	3767.92	-1.54694	-1.56816
H	3767.75	0.0236004	-2.44749
H	3769.33	-0.841491	-2.43248
N	3766.85	1.48202	-0.140182
C	3765.68	1.88489	0.600242
H	3767.05	1.95722	-0.990092
H	3765.15	2.71168	0.0779629
H	3765.96	2.23695	1.61937
H	3764.97	1.0309	0.712299
