44
  This energy is 5.00637e-320 and Call times are: 14853
C	1.86801	2.28572	1.8472
C	1.08408	1.03522	1.73361
O	1.01429	0.245571	2.66532
H	2.33368	2.33698	2.85536
H	1.20528	3.1663	1.71231
H	2.66993	2.30596	1.07944
N	0.471964	0.82303	0.566281
C	-0.327186	-0.347207	0.304112
C	-0.41955	-0.521058	-1.19938
O	-0.0876581	0.387251	-1.95876
H	0.560331	1.45982	-0.195048
H	0.179033	-1.21607	0.705227
C	-1.74142	-0.210078	0.91094
H	-2.25763	0.682635	0.497761
H	-2.35939	-1.10949	0.711059
H	-1.65996	-0.0821428	2.01237
N	-0.855082	-1.70797	-1.66581
C	-0.964596	-1.96912	-3.08214
H	-1.11213	-2.43294	-1.03528
H	-1.3423	-2.99942	-3.26398
H	0.0276565	-1.86692	-3.57836
H	-1.66621	-1.24867	-3.56157
C	709.547	2.95877	1.67763
C	709.946	1.66279	1.08399
O	711.123	1.34326	0.995798
H	710.457	3.51795	1.98468
H	708.91	2.79025	2.57149
H	708.987	3.56423	0.934123
N	708.955	0.878577	0.651737
C	709.185	-0.411265	0.0514316
C	707.959	-0.769982	-0.765466
O	706.909	-0.143772	-0.631801
H	708.002	1.16278	0.70265
H	710.024	-0.338284	-0.629062
C	709.444	-1.49281	1.12399
H	708.582	-1.56454	1.82077
H	709.621	-2.4872	0.665191
H	710.344	-1.21777	1.71625
N	708.072	-1.77906	-1.65152
C	706.961	-2.18334	-2.4814
H	708.932	-2.2689	-1.75004
H	707.251	-3.03003	-3.14181
H	706.622	-1.33821	-3.12347
H	706.099	-2.50729	-1.85408
