44
  This energy is 1.42251e-319 and Call times are: 104607
C	-2.72552	-2.00236	0.829575
C	-1.29529	-1.82569	0.491298
O	-0.509574	-2.76102	0.556873
H	-2.90415	-3.05755	1.13046
H	-3.35889	-1.76786	-0.0517209
H	-3.00466	-1.33602	1.6728
N	-0.920567	-0.598834	0.121478
C	0.435942	-0.270948	-0.237968
C	0.608114	1.22815	-0.0886847
O	-0.369224	1.96387	0.0352504
H	-1.56429	0.161492	0.100067
H	1.11058	-0.750628	0.459774
C	0.753138	-0.70037	-1.68783
H	0.0587527	-0.206946	-2.40091
H	1.7969	-0.449518	-1.96783
H	0.622179	-1.80022	-1.78435
N	1.86471	1.71477	-0.0752516
C	2.12644	3.12733	0.0743079
H	2.64269	1.10237	-0.169731
H	3.22034	3.32833	0.059227
H	1.71428	3.50331	1.03867
H	1.65236	3.7046	-0.752242
C	4955.96	-2.82769	-1.79309
C	4955.24	-2.17803	-0.670051
O	4954.51	-2.8187	0.0663453
H	4955.69	-3.90773	-1.81875
H	4957.05	-2.72737	-1.65883
H	4955.66	-2.36248	-2.75617
N	4955.45	-0.867639	-0.516801
C	4954.83	-0.0965984	0.5295
C	4954.85	1.36018	0.10919
O	4955.55	1.7347	-0.82818
H	4956.03	-0.351292	-1.141
H	4953.79	-0.398909	0.620752
C	4955.57	-0.271508	1.87398
H	4956.63	0.0389148	1.77658
H	4955.09	0.320718	2.68186
H	4955.55	-1.34295	2.17022
N	4954.05	2.21601	0.783889
C	4954	3.61936	0.446816
H	4953.49	1.89224	1.53479
H	4953.29	4.15655	1.11655
H	4953.66	3.75739	-0.6051
H	4955	4.08885	0.549123
