44
  This energy is 6.25932e-320 and Call times are: 57063
C	-1.27472	-1.62063	-2.8062
C	-0.14656	-1.21353	-1.9386
O	0.984387	-1.63851	-2.13056
H	-0.905676	-2.327	-3.58126
H	-1.71106	-0.731801	-3.30861
H	-2.05838	-2.12594	-2.20332
N	-0.436968	-0.370908	-0.944611
C	0.553555	0.115537	-0.0177536
C	-0.167967	0.590538	1.22845
O	-1.38609	0.757828	1.22426
H	-1.36762	-0.0546825	-0.780845
H	1.19999	-0.704283	0.268763
C	1.37585	1.27202	-0.628896
H	0.709493	2.11107	-0.922306
H	2.13958	1.64886	0.0820752
H	1.89852	0.911557	-1.5416
N	0.569756	0.798812	2.33677
C	-0.032259	1.24009	3.57331
H	1.5532	0.650973	2.32199
H	0.738672	1.35554	4.36678
H	-0.79048	0.50383	3.92582
H	-0.542015	2.2209	3.43425
C	2707.5	0.801405	-2.73909
C	2706.79	1.16917	-1.49128
O	2706.93	2.2746	-0.986725
H	2708.12	1.65809	-3.0738
H	2706.76	0.558183	-3.53641
H	2708.15	-0.0754875	-2.56243
N	2706	0.231191	-0.955438
C	2705.25	0.43962	0.256291
C	2704.92	-0.920598	0.838037
O	2705.06	-1.94185	0.167263
H	2705.92	-0.675485	-1.36017
H	2705.88	0.95998	0.972124
C	2703.96	1.23263	-0.0161923
H	2703.32	0.696279	-0.751456
H	2703.37	1.39503	0.914738
H	2704.21	2.22645	-0.443174
N	2704.49	-0.966686	2.11521
C	2704.16	-2.21799	2.75726
H	2704.39	-0.129854	2.64374
H	2703.83	-2.04692	3.80465
H	2705.05	-2.89405	2.77704
H	2703.34	-2.73762	2.2092
