44
  This energy is 3.45154e-320 and Call times are: 26193
C	0.860843	0.403988	3.34991
C	-0.111346	0.486831	2.23672
O	-1.28637	0.75827	2.44198
H	0.339515	0.613438	4.30918
H	1.66854	1.1527	3.20895
H	1.30401	-0.613066	3.3963
N	0.365661	0.244538	1.01356
C	-0.456967	0.287635	-0.168922
C	0.238095	-0.517483	-1.24962
O	1.41472	-0.852132	-1.12553
H	1.31871	-0.00413305	0.862599
H	-1.40312	-0.194028	0.0429209
C	-0.678133	1.73988	-0.647662
H	0.294564	2.23122	-0.86344
H	-1.31128	1.77673	-1.55791
H	-1.18688	2.31941	0.153254
N	-0.485328	-0.867134	-2.33147
C	0.0886969	-1.64363	-3.40559
H	-1.43811	-0.592798	-2.41003
H	-0.663747	-1.82689	-4.20402
H	0.447828	-2.62899	-3.02963
H	0.955922	-1.10939	-3.8569
C	1249.98	-0.208053	-1.78556
C	1249.2	-0.371346	-0.54245
O	1249.68	-0.907434	0.44569
H	1251	-0.64077	-1.63828
H	1250.08	0.869057	-2.03507
H	1249.48	-0.736305	-2.62591
N	1247.94	0.0905767	-0.568373
C	1247.05	0.0046224	0.563086
C	1245.63	0.123207	0.0492539
O	1245.41	0.512817	-1.09518
H	1247.55	0.499101	-1.38889
H	1247.16	-0.971658	1.01918
C	1247.34	1.12165	1.5908
H	1247.24	2.12181	1.11939
H	1246.66	1.05833	2.46339
H	1248.39	1.02446	1.95862
N	1244.64	-0.233336	0.88223
C	1243.25	-0.165077	0.476054
H	1244.84	-0.552914	1.8021
H	1242.58	-0.497964	1.30037
H	1243.07	-0.817493	-0.408404
H	1242.97	0.87774	0.198977
