44
  This energy is 4.5039e-320 and Call times are: 94275
C	-3.3464	0.951852	0.147404
C	-1.90085	1.2704	0.158571
O	-1.50823	2.42882	0.138088
H	-3.93053	1.89707	0.112623
H	-3.62203	0.3927	1.06621
H	-3.59704	0.341399	-0.745609
N	-1.06457	0.230091	0.185885
C	0.368707	0.37956	0.20019
C	0.977622	-0.92062	-0.287654
O	0.297134	-1.94137	-0.37038
H	-1.3964	-0.709406	0.172921
H	0.648425	1.15677	-0.49965
C	0.885751	0.709192	1.61833
H	0.596455	-0.0898535	2.33384
H	1.98899	0.825098	1.63292
H	0.431475	1.66304	1.96468
N	2.27702	-0.907165	-0.644556
C	2.93908	-2.09471	-1.132
H	2.8089	-0.0694332	-0.577152
H	4.00427	-1.88113	-1.37078
H	2.44161	-2.47097	-2.05514
H	2.90658	-2.90462	-0.367695
C	4461.59	-0.898695	-0.601463
C	4462.67	-0.43236	0.297941
O	4462.43	-0.0659339	1.43967
H	4460.62	-0.840628	-0.0678481
H	4461.77	-1.95153	-0.903558
H	4461.54	-0.257634	-1.50685
N	4463.9	-0.430866	-0.208934
C	4465.06	-0.00531429	0.543402
C	4466.15	0.361141	-0.443763
O	4466.06	0.0372951	-1.62665
H	4464.08	-0.704163	-1.15004
H	4464.8	0.887867	1.10033
C	4465.55	-1.11938	1.49272
H	4465.81	-2.0344	0.918137
H	4466.44	-0.794998	2.07366
H	4464.74	-1.37956	2.21001
N	4467.2	1.06862	0.0187368
C	4468.28	1.47273	-0.850165
H	4467.25	1.32728	0.97785
H	4469.05	2.04344	-0.283101
H	4467.9	2.11922	-1.67441
H	4468.77	0.582996	-1.30717
