44
  This energy is 6.41594e-320 and Call times are: 101457
C	3.14695	0.290071	1.46244
C	2.05456	-0.517099	0.873907
O	2.19805	-1.71221	0.655683
H	4.03182	-0.36021	1.63564
H	2.82327	0.722344	2.43259
H	3.43321	1.10961	0.770081
N	0.921841	0.131998	0.594634
C	-0.229453	-0.516766	0.0197805
C	-1.09019	0.550106	-0.628416
O	-0.898818	1.74148	-0.39211
H	0.827391	1.11172	0.75007
H	0.0998623	-1.19214	-0.759638
C	-1.04192	-1.27533	1.09291
H	-1.3776	-0.579602	1.89127
H	-1.92904	-1.77618	0.653661
H	-0.399942	-2.05311	1.56097
N	-2.05008	0.144869	-1.48305
C	-2.91032	1.08975	-2.15637
H	-2.18457	-0.82335	-1.66662
H	-3.63496	0.561935	-2.81482
H	-2.31115	1.78861	-2.78393
H	-3.48406	1.69477	-1.41749
C	4806.92	1.91467	-2.18871
C	4806.77	1.07474	-0.978297
O	4807.75	0.718454	-0.335915
H	4807.99	2.12019	-2.36739
H	4806.38	2.87954	-2.05009
H	4806.5	1.38708	-3.07246
N	4805.53	0.730301	-0.63976
C	4805.23	-0.082957	0.511458
C	4803.86	-0.694354	0.304936
O	4803.11	-0.273922	-0.574329
H	4804.74	1.00261	-1.18776
H	4805.94	-0.892997	0.566453
C	4805.25	0.752633	1.8109
H	4804.51	1.58313	1.75078
H	4805.02	0.129487	2.69931
H	4806.26	1.19599	1.95008
N	4803.5	-1.72211	1.10197
C	4802.22	-2.37465	0.970728
H	4804.13	-2.05253	1.80294
H	4802.12	-3.19368	1.71634
H	4802.1	-2.81124	-0.0476698
H	4801.39	-1.64817	1.13156
