44
  This energy is 5.62691e-320 and Call times are: 81885
C	0.74555	0.311075	-3.38726
C	-0.218501	0.277	-2.26447
O	-1.39974	0.54441	-2.43666
H	0.21514	0.608539	-4.31787
H	1.19576	-0.692989	-3.53554
H	1.54886	1.04906	-3.17988
N	0.275222	-0.0529652	-1.06876
C	-0.537865	-0.129291	0.118628
C	0.379129	-0.0060178	1.31995
O	1.59696	-0.121141	1.19558
H	1.24485	-0.24026	-0.935802
H	-1.21667	0.713936	0.135056
C	-1.31891	-1.46091	0.180888
H	-0.619516	-2.32383	0.163175
H	-1.94614	-1.52292	1.09386
H	-1.986	-1.53964	-0.70508
N	-0.187359	0.254337	2.51465
C	0.607231	0.400272	3.71194
H	-1.1741	0.351109	2.59347
H	-0.0411881	0.609535	4.59115
H	1.33151	1.23978	3.60289
H	1.18521	-0.530056	3.91594
C	3878.04	-2.86529	-0.299583
C	3879.05	-1.91221	-0.827785
O	3879.64	-2.1368	-1.87093
H	3877.97	-3.73809	-0.984211
H	3877.05	-2.37662	-0.23257
H	3878.35	-3.22244	0.706707
N	3879.26	-0.811441	-0.102523
C	3880.2	0.208392	-0.486387
C	3880.56	1.0002	0.755333
O	3879.89	0.896999	1.78284
H	3878.78	-0.65387	0.760513
H	3881.1	-0.265996	-0.848279
C	3879.61	1.14681	-1.56118
H	3878.68	1.63128	-1.18683
H	3880.33	1.93319	-1.85915
H	3879.35	0.554577	-2.46508
N	3881.65	1.7974	0.694831
C	3882.07	2.5798	1.83133
H	3882.18	1.86184	-0.143572
H	3882.98	3.17047	1.5828
H	3882.31	1.91904	2.69647
H	3881.27	3.2862	2.14594
