44
  This energy is 1.0278e-319 and Call times are: 46395
C	3.08102	1.09661	1.1962
C	1.69813	0.614307	1.41113
O	1.28922	0.34494	2.53218
H	3.60863	1.14655	2.17344
H	3.06661	2.11031	0.743404
H	3.62946	0.400865	0.526802
N	0.938077	0.4877	0.320877
C	-0.427773	0.0305733	0.369002
C	-0.796672	-0.481155	-1.00987
O	-0.0874673	-0.232692	-1.98307
H	1.29193	0.682548	-0.590032
H	-0.496181	-0.801758	1.05793
C	-1.38687	1.16708	0.788044
H	-1.31363	2.01958	0.079524
H	-2.4394	0.818495	0.82626
H	-1.10536	1.53402	1.79911
N	-1.91096	-1.23084	-1.12094
C	-2.33455	-1.77126	-2.39165
H	-2.46769	-1.42678	-0.32038
H	-3.27307	-2.35709	-2.27663
H	-1.55188	-2.44252	-2.81363
H	-2.51949	-0.953015	-3.12476
C	2202.36	-0.523282	-3.44218
C	2202.87	-0.778922	-2.07751
O	2203.71	-1.64704	-1.86855
H	2202.85	-1.22478	-4.15474
H	2202.59	0.518341	-3.74914
H	2201.26	-0.682153	-3.47402
N	2202.37	-0.0184484	-1.10248
C	2202.77	-0.148232	0.275763
C	2201.68	0.454968	1.13719
O	2200.8	1.15819	0.639069
H	2201.67	0.665701	-1.28112
H	2202.84	-1.19961	0.523843
C	2204.11	0.56867	0.541237
H	2204.04	1.64689	0.285039
H	2204.43	0.470592	1.6015
H	2204.91	0.118422	-0.0965838
N	2201.7	0.173811	2.45503
C	2200.69	0.693912	3.35111
H	2202.41	-0.403101	2.83786
H	2200.88	0.35229	4.39305
H	2199.67	0.348717	3.04565
H	2200.69	1.80795	3.34144
