44
  This energy is 1.37074e-319 and Call times are: 53787
C	-3.34827	-0.09574	-0.951881
C	-2.15645	-0.706364	-0.32108
O	-2.23483	-1.7654	0.28621
H	-4.23414	-0.740643	-0.764288
H	-3.19627	-0.00391435	-2.04791
H	-3.5375	0.909449	-0.519758
N	-1.00885	-0.0362867	-0.449109
C	0.235172	-0.502887	0.109023
C	1.16454	0.688444	0.236503
O	0.909729	1.74819	-0.332574
H	-0.963668	0.840028	-0.921303
H	0.0523533	-0.885531	1.10513
C	0.880367	-1.58696	-0.782959
H	1.06592	-1.19123	-1.80428
H	1.83837	-1.94857	-0.356056
H	0.189283	-2.45361	-0.869375
N	2.25943	0.547233	1.00934
C	3.19521	1.63095	1.19919
H	2.44438	-0.316077	1.46729
H	4.02908	1.31826	1.86563
H	2.6896	2.51052	1.65957
H	3.62737	1.95249	0.223983
C	2549.1	2.46944	-0.849748
C	2549.47	1.05092	-0.651806
O	2548.63	0.16118	-0.716225
H	2548	2.53783	-1.04159
H	2549.64	2.89074	-1.72069
H	2549.34	3.05981	0.0587227
N	2550.76	0.807165	-0.396406
C	2551.27	-0.520969	-0.181394
C	2552.58	-0.395219	0.571568
O	2553.15	0.691251	0.66865
H	2551.43	1.54324	-0.317623
H	2550.58	-1.06907	0.447841
C	2551.5	-1.26043	-1.51919
H	2552.21	-0.695058	-2.16251
H	2551.9	-2.28347	-1.3573
H	2550.53	-1.34499	-2.06163
N	2553.09	-1.50757	1.14356
C	2554.32	-1.48168	1.89052
H	2552.61	-2.37588	1.05975
H	2554.57	-2.49421	2.28024
H	2554.24	-0.782881	2.75474
H	2555.16	-1.14072	1.24556
