44
  This energy is 1.18897e-319 and Call times are: 90747
C	1.61409	-3.08294	0.127856
C	0.411148	-2.25219	-0.1045
O	-0.617368	-2.73977	-0.552731
H	1.39912	-4.13208	-0.17039
H	1.88995	-3.0644	1.20321
H	2.46394	-2.704	-0.478034
N	0.518838	-0.955727	0.195436
C	-0.564835	-0.0212529	0.0244403
C	0.0286937	1.37217	-0.0486847
O	1.1948	1.57691	0.283148
H	1.37125	-0.564964	0.532522
H	-1.05506	-0.219965	-0.92016
C	-1.57265	-0.108818	1.19224
H	-1.06625	0.0949117	2.1598
H	-2.40845	0.609295	1.06368
H	-1.99935	-1.13457	1.23578
N	-0.759282	2.3639	-0.508649
C	-0.276738	3.72033	-0.624517
H	-1.69796	2.17669	-0.778961
H	-1.0732	4.38863	-1.01982
H	0.596315	3.76911	-1.31491
H	0.0461911	4.10881	0.368446
C	4301.1	1.94694	-1.02987
C	4299.65	1.75309	-0.784675
O	4298.86	2.68322	-0.883185
H	4301.29	3.01155	-1.28793
H	4301.43	1.30767	-1.87404
H	4301.68	1.68912	-0.119154
N	4299.27	0.519593	-0.448416
C	4297.89	0.17494	-0.179271
C	4297.88	-1.09558	0.648349
O	4298.9	-1.77945	0.759826
H	4299.92	-0.223166	-0.343003
H	4297.44	0.958866	0.417248
C	4297.1	-0.0385022	-1.48783
H	4297.56	-0.842917	-2.09764
H	4296.04	-0.303875	-1.28425
H	4297.11	0.898885	-2.08553
N	4296.74	-1.43019	1.26904
C	4296.64	-2.61583	2.08802
H	4295.93	-0.859949	1.17229
H	4295.61	-2.71845	2.50968
H	4297.36	-2.57068	2.93344
H	4296.86	-3.52745	1.4886
