44
  This energy is 6.87591e-320 and Call times are: 51183
C	3.06677	1.64226	0.154979
C	2.22255	0.497543	-0.255041
O	2.66194	-0.385095	-0.979182
H	4.07602	1.5354	-0.298757
H	3.17025	1.66477	1.26024
H	2.61524	2.59507	-0.19318
N	0.968515	0.49153	0.202927
C	0.0275434	-0.554512	-0.108837
C	-1.36882	-0.00582798	0.111078
O	-1.54152	1.04649	0.723143
H	0.61365	1.23133	0.768351
H	0.119452	-0.809554	-1.15697
C	0.255278	-1.79874	0.778374
H	0.160921	-1.53336	1.85298
H	-0.467481	-2.60619	0.540845
H	1.28195	-2.19036	0.608891
N	-2.40179	-0.700082	-0.405624
C	-3.76561	-0.248436	-0.256685
H	-2.2409	-1.54571	-0.903881
H	-4.46982	-0.955127	-0.748545
H	-3.89906	0.757019	-0.717657
H	-4.0394	-0.17342	0.820624
C	2424.36	-1.05379	1.32998
C	2425.7	-1.33123	0.775302
O	2426.17	-2.46367	0.774851
H	2423.92	-1.99982	1.71069
H	2423.7	-0.63967	0.540371
H	2424.43	-0.328794	2.16777
N	2426.37	-0.283199	0.288265
C	2427.69	-0.394148	-0.284638
C	2428.33	0.978562	-0.243903
O	2427.66	1.98175	-0.017202
H	2426	0.639098	0.320869
H	2428.29	-1.05524	0.330901
C	2427.63	-0.909271	-1.73999
H	2427.01	-0.229082	-2.36851
H	2428.64	-0.99603	-2.18411
H	2427.15	-1.91488	-1.75635
N	2429.66	1.05169	-0.442427
C	2430.36	2.31435	-0.40994
H	2430.19	0.227715	-0.617312
H	2431.45	2.16622	-0.597133
H	2430.24	2.80526	0.582858
H	2429.96	3.00529	-1.18757
