44
  This energy is 9.61452e-320 and Call times are: 46143
C	2.82048	-1.93575	-0.651068
C	1.62076	-1.61301	0.153737
O	1.24744	-2.34979	1.05611
H	3.25395	-2.89571	-0.295479
H	3.58178	-1.13505	-0.540935
H	2.5464	-2.04	-1.72203
N	0.977557	-0.487574	-0.165703
C	-0.204848	-0.0398288	0.525869
C	-0.940635	0.923586	-0.385003
O	-0.391473	1.3906	-1.38107
H	1.27484	0.0892274	-0.921919
H	-0.853674	-0.888919	0.699491
C	0.152407	0.656394	1.85807
H	0.818643	1.52657	1.67631
H	-0.755746	1.00227	2.39324
H	0.691976	-0.0593879	2.51584
N	-2.21617	1.22733	-0.0739676
C	-2.9993	2.12614	-0.889459
H	-2.64514	0.833523	0.732342
H	-4.02123	2.25	-0.468063
H	-3.09358	1.7333	-1.92774
H	-2.51777	3.1294	-0.942306
C	2190.83	2.91209	-1.83344
C	2190.81	2.16389	-0.556385
O	2191.23	2.66411	0.477477
H	2191.28	3.91694	-1.66244
H	2189.8	3.03668	-2.2225
H	2191.45	2.37073	-2.58332
N	2190.31	0.925342	-0.603611
C	2190.23	0.0741604	0.555886
C	2190.13	-1.36026	0.0743663
O	2189.88	-1.61229	-1.10337
H	2190	0.518551	-1.45767
H	2191.14	0.165927	1.13048
C	2189	0.429902	1.42204
H	2188.06	0.335347	0.829263
H	2188.93	-0.223495	2.31578
H	2189.08	1.48335	1.7675
N	2190.34	-2.33854	0.976142
C	2190.28	-3.73348	0.606682
H	2190.55	-2.11413	1.92294
H	2190.48	-4.38274	1.48686
H	2191.03	-3.96514	-0.180487
H	2189.27	-3.98983	0.206194
