44
  This energy is 1.58738e-319 and Call times are: 36567
C	1.62571	-0.964836	-2.92443
C	1.23605	-1.19539	-1.5151
O	1.47289	-2.25908	-0.959244
H	2.12065	-1.87717	-3.3226
H	2.33503	-0.113202	-2.99081
H	0.727294	-0.745995	-3.53917
N	0.613867	-0.18736	-0.89937
C	0.173957	-0.260733	0.471004
C	-0.906173	0.784675	0.6702
O	-1.08543	1.67014	-0.163858
H	0.40067	0.663628	-1.37192
H	-0.271769	-1.23171	0.645954
C	1.34211	-0.0110783	1.4509
H	1.79748	0.985603	1.26818
H	1.00691	-0.067002	2.50698
H	2.1271	-0.782674	1.2941
N	-1.66922	0.692049	1.77708
C	-2.72949	1.63555	2.04507
H	-1.51319	-0.035947	2.43656
H	-3.23941	1.39236	3.00324
H	-3.48822	1.61602	1.22948
H	-2.32534	2.67132	2.11591
C	1736.18	2.66007	-1.65624
C	1736.36	1.802	-0.46369
O	1735.82	2.07139	0.59796
H	1735.52	3.51398	-1.39713
H	1735.71	2.07866	-2.47848
H	1737.16	3.05619	-1.99521
N	1737.15	0.734933	-0.614957
C	1737.42	-0.193609	0.453075
C	1738.7	-0.932933	0.113199
O	1739.17	-0.882908	-1.0208
H	1737.61	0.542324	-1.47687
H	1737.6	0.361454	1.36625
C	1736.26	-1.19679	0.635457
H	1736.09	-1.76401	-0.30343
H	1736.47	-1.91313	1.45715
H	1735.33	-0.642694	0.882877
N	1739.31	-1.6226	1.10056
C	1740.53	-2.3474	0.873381
H	1738.91	-1.64502	2.01337
H	1740.87	-2.85053	1.80606
H	1741.34	-1.65718	0.535457
H	1740.39	-3.12415	0.0873703
