44
  This energy is 9.43912e-320 and Call times are: 28377
C	1.19667	-3.06482	-1.14062
C	0.764159	-1.66833	-1.37296
O	0.893111	-1.14023	-2.46885
H	1.62448	-3.4779	-2.07988
H	0.329773	-3.68815	-0.836034
H	1.97261	-3.0983	-0.347072
N	0.237931	-1.02855	-0.326005
C	-0.228772	0.333113	-0.395963
C	-0.260007	0.887985	1.01485
O	-0.168004	0.140249	1.98657
H	0.165018	-1.4601	0.569197
H	0.481619	0.919777	-0.964509
C	-1.63549	0.413722	-1.02981
H	-2.36159	-0.189776	-0.444424
H	-1.99783	1.46082	-1.08536
H	-1.59942	0.00320414	-2.06244
N	-0.36942	2.22336	1.15906
C	-0.395375	2.84289	2.46355
H	-0.435478	2.8122	0.360224
H	-0.491928	3.94727	2.37255
H	0.540849	2.61794	3.02402
H	-1.2554	2.46376	3.06171
C	1351.95	1.65706	-2.91286
C	1351.49	1.65774	-1.50619
O	1351.41	2.69729	-0.865754
H	1352.19	2.69747	-3.22037
H	1351.15	1.26293	-3.57675
H	1352.86	1.02995	-3.0171
N	1351.17	0.470121	-0.985778
C	1350.7	0.309433	0.368965
C	1350.94	-1.13252	0.774406
O	1351.21	-1.98667	-0.0684437
H	1351.26	-0.372995	-1.50862
H	1351.3	0.93608	1.02145
C	1349.2	0.658032	0.494485
H	1348.6	0.0137566	-0.176708
H	1348.84	0.535528	1.53639
H	1349.04	1.71637	0.193555
N	1350.87	-1.4331	2.08599
C	1351.09	-2.77694	2.56681
H	1350.65	-0.726429	2.75329
H	1350.98	-2.82123	3.67317
H	1352.11	-3.12649	2.29856
H	1350.35	-3.48205	2.11551
