44
  This energy is 1.23146e-319 and Call times are: 35265
C	0.923031	3.05795	1.38676
C	-0.0970884	2.11808	0.86983
O	-1.29141	2.36332	0.969528
H	0.416014	3.93622	1.84221
H	1.57463	3.40856	0.558921
H	1.54468	2.56052	2.16075
N	0.36048	0.99987	0.301855
C	-0.508619	-0.00988997	-0.24758
C	0.2715	-1.30826	-0.31744
O	1.49364	-1.31531	-0.182682
H	1.33505	0.798024	0.252787
H	-1.34141	-0.162418	0.427156
C	-1.0104	0.384772	-1.65455
H	-0.153457	0.541116	-2.34399
H	-1.67998	-0.390474	-2.0805
H	-1.57919	1.3379	-1.58997
N	-0.424492	-2.44614	-0.509333
C	0.231828	-3.73097	-0.577564
H	-1.41376	-2.42039	-0.608965
H	-0.510078	-4.54331	-0.741644
H	0.779984	-3.94288	0.368936
H	0.966803	-3.75295	-1.41453
C	1675.33	-1.47054	3.13478
C	1676.13	-0.749101	2.1221
O	1677.24	-0.311295	2.39013
H	1675.9	-1.51396	4.09021
H	1675.12	-2.50628	2.7922
H	1674.37	-0.941019	3.31013
N	1675.58	-0.602853	0.917655
C	1676.23	0.0752843	-0.170603
C	1675.17	0.507982	-1.16085
O	1674.03	0.0552652	-1.09527
H	1674.66	-0.938559	0.720322
H	1676.71	0.968911	0.20954
C	1677.26	-0.843089	-0.865048
H	1676.77	-1.75916	-1.25324
H	1677.77	-0.324019	-1.7034
H	1678.04	-1.15404	-0.12887
N	1675.52	1.4169	-2.09338
C	1674.57	1.897	-3.07041
H	1676.44	1.77663	-2.12554
H	1675.04	2.6375	-3.75035
H	1673.7	2.38734	-2.56912
H	1674.18	1.05472	-3.68678
