44
  This energy is 1.42899e-319 and Call times are: 79029
C	2.05981	2.60184	-1.05534
C	1.60174	1.63887	-0.0286592
O	2.19207	1.52115	1.03631
H	2.96506	3.13041	-0.685223
H	1.26525	3.34999	-1.25971
H	2.31451	2.06757	-1.99483
N	0.523811	0.913284	-0.335168
C	-0.0410566	-0.0641234	0.560616
C	-0.873975	-1.02582	-0.264389
O	-1.18066	-0.756351	-1.4242
H	0.0690292	0.997684	-1.21777
H	0.761919	-0.63064	1.01489
C	-0.91797	0.604881	1.64254
H	-1.74031	1.18575	1.17301
H	-1.35437	-0.144848	2.33409
H	-0.296497	1.30772	2.23915
N	-1.24247	-2.1868	0.312087
C	-2.02627	-3.16882	-0.400288
H	-0.978347	-2.38955	1.2493
H	-2.22846	-4.05296	0.243665
H	-1.4877	-3.51513	-1.31203
H	-3.00234	-2.73661	-0.719132
C	3749.01	-0.612535	-2.70301
C	3747.67	-0.349622	-2.13053
O	3746.7	-0.149785	-2.85147
H	3748.95	-0.583521	-3.81256
H	3749.37	-1.61501	-2.38951
H	3749.73	0.16137	-2.36332
N	3747.59	-0.338348	-0.798151
C	3746.35	-0.0971923	-0.0945008
C	3746.7	0.35571	1.31073
O	3747.84	0.22234	1.75163
H	3748.39	-0.47366	-0.221672
H	3745.82	0.712618	-0.580221
C	3745.48	-1.3691	-0.0424953
H	3746.02	-2.19803	0.455814
H	3744.52	-1.1869	0.498486
H	3745.23	-1.69131	-1.07796
N	3745.72	0.925153	2.04226
C	3745.96	1.39765	3.38605
H	3744.8	1.03063	1.66508
H	3745.03	1.8316	3.82108
H	3746.75	2.18271	3.39167
H	3746.3	0.562875	4.04196
