44
  This energy is 3.82753e-320 and Call times are: 113427
C	-0.961168	0.816499	-3.24586
C	0.0750708	0.588646	-2.21363
O	1.26387	0.579238	-2.50202
H	-0.471063	0.95457	-4.23409
H	-1.54722	1.72825	-3.00489
H	-1.64401	-0.057277	-3.30229
N	-0.362275	0.390974	-0.967832
C	0.524314	0.156501	0.143837
C	-0.272615	-0.523765	1.23991
O	-1.50108	-0.553875	1.19764
H	-1.33461	0.372014	-0.750689
H	1.30534	-0.525821	-0.166832
C	1.12967	1.47749	0.668866
H	0.325647	2.17537	0.986077
H	1.81296	1.30058	1.52478
H	1.70989	1.96659	-0.143707
N	0.414157	-1.10778	2.24154
C	-0.259158	-1.78933	3.32244
H	1.40826	-1.07874	2.2541
H	0.477415	-2.20103	4.04715
H	-0.87547	-2.63154	2.93246
H	-0.934536	-1.09075	3.86745
C	5373.78	0.250717	-2.52891
C	5373.39	-0.059221	-1.13518
O	5374.18	-0.562126	-0.352509
H	5374.84	-0.0497242	-2.68914
H	5373.68	1.34011	-2.72021
H	5373.14	-0.308066	-3.24032
N	5372.13	0.234328	-0.792309
C	5371.61	-0.00836768	0.526744
C	5370.09	-0.059781	0.421963
O	5369.52	0.337608	-0.590282
H	5371.49	0.616912	-1.44737
H	5371.95	-0.978064	0.868347
C	5372.03	1.09939	1.51566
H	5371.68	2.09291	1.1618
H	5371.63	0.915553	2.53233
H	5373.14	1.12757	1.58257
N	5369.41	-0.57422	1.46438
C	5367.97	-0.674432	1.44953
H	5369.9	-0.897088	2.27165
H	5367.6	-1.12179	2.39721
H	5367.63	-1.31312	0.602625
H	5367.51	0.332001	1.33089
