44
  This energy is 9.06413e-320 and Call times are: 10317
C	-0.354722	3.3476	-0.891001
C	0.458303	2.20761	-0.410783
O	1.66877	2.3102	-0.266785
H	0.309311	4.21939	-1.07782
H	-1.1095	3.62811	-0.126508
H	-0.869757	3.07881	-1.83728
N	-0.201057	1.07546	-0.154163
C	0.451519	-0.11896	0.319478
C	-0.449932	-1.29751	0.00701655
O	-1.62182	-1.12279	-0.321587
H	-1.18307	0.995734	-0.303235
H	1.37478	-0.256535	-0.228924
C	0.723824	-0.0464626	1.83859
H	-0.225378	0.0953673	2.39807
H	1.22637	-0.964507	2.20659
H	1.38419	0.821552	2.05448
N	0.0861463	-2.53162	0.0818214
C	-0.692568	-3.71266	-0.20962
H	1.0384	-2.65183	0.342597
H	-0.0750482	-4.63012	-0.0905436
H	-1.07664	-3.68194	-1.25499
H	-1.56658	-3.78659	0.477274
C	495.493	-3.46845	-0.0416463
C	496.305	-2.23474	0.0609647
O	497.494	-2.28165	0.343368
H	496.134	-4.34937	0.178456
H	495.081	-3.5712	-1.06762
H	494.658	-3.43969	0.690202
N	495.666	-1.0843	-0.1646
C	496.32	0.198255	-0.101962
C	495.254	1.25509	0.112039
O	494.064	0.989438	-0.0487986
H	494.69	-1.05729	-0.365186
H	496.978	0.216011	0.757571
C	497.107	0.492292	-1.39871
H	496.429	0.47263	-2.27855
H	497.612	1.47903	-1.35381
H	497.884	-0.28951	-1.54468
N	495.657	2.47982	0.503411
C	494.713	3.54594	0.743001
H	496.624	2.67306	0.635066
H	495.239	4.47484	1.05509
H	493.996	3.26227	1.54722
H	494.128	3.76723	-0.178867
