44
  This energy is 1.56431e-319 and Call times are: 36483
C	2.23887	0.674557	2.58042
C	1.90502	0.0675316	1.27227
O	2.76896	-0.443984	0.573371
H	3.33145	0.578423	2.7618
H	1.69227	0.153696	3.39452
H	1.96743	1.75125	2.58331
N	0.622357	0.117653	0.905335
C	0.143238	-0.430048	-0.338568
C	-1.17901	0.23752	-0.662983
O	-1.77971	0.889549	0.188988
H	-0.0672079	0.56296	1.47026
H	0.841395	-0.177241	-1.12644
C	-0.043506	-1.96085	-0.244291
H	-0.759816	-2.21668	0.565381
H	-0.412194	-2.38586	-1.20043
H	0.931855	-2.43792	-0.00507974
N	-1.65396	0.10706	-1.91734
C	-2.899	0.71774	-2.32122
H	-1.14957	-0.418653	-2.59443
H	-3.11861	0.494236	-3.38849
H	-2.85243	1.82395	-2.1972
H	-3.74299	0.336149	-1.70214
C	1731.71	2.82365	0.432238
C	1732.27	1.74297	-0.409579
O	1731.89	1.57203	-1.55837
H	1730.94	3.37906	-0.147389
H	1732.51	3.52962	0.733333
H	1731.23	2.39476	1.33997
N	1733.2	0.97404	0.156553
C	1733.84	-0.116756	-0.535161
C	1734.42	-1.0567	0.506974
O	1734.52	-0.706654	1.68126
H	1733.49	1.10504	1.1028
H	1733.09	-0.664039	-1.09567
C	1734.96	0.389689	-1.46935
H	1735.73	0.951246	-0.89116
H	1735.46	-0.44763	-2.00365
H	1734.53	1.07809	-2.22729
N	1734.79	-2.28756	0.102255
C	1735.33	-3.25434	1.0261
H	1734.69	-2.55438	-0.850981
H	1735.58	-4.20454	0.502079
H	1734.6	-3.4791	1.83676
H	1736.26	-2.86474	1.49834
