44
  This energy is 1.04683e-319 and Call times are: 103053
C	3.26055	-0.992318	0.714296
C	1.83482	-1.29529	0.456038
O	1.44617	-2.44819	0.328555
H	3.83646	-1.94235	0.754611
H	3.36975	-0.46445	1.68499
H	3.6706	-0.357717	-0.0993915
N	1.0127	-0.247236	0.366225
C	-0.40064	-0.381441	0.11865
C	-0.905267	0.939556	-0.428669
O	-0.215622	1.95487	-0.355473
H	1.34641	0.688547	0.442939
H	-0.554297	-1.13388	-0.644437
C	-1.16553	-0.74846	1.40991
H	-1.00515	0.0252201	2.19081
H	-2.25407	-0.852725	1.22283
H	-0.785816	-1.71731	1.80144
N	-2.11957	0.951143	-1.01291
C	-2.67714	2.16013	-1.57296
H	-2.6593	0.117593	-1.0687
H	-3.68329	1.96555	-2.00547
H	-2.0201	2.55889	-2.37951
H	-2.77808	2.94598	-0.789748
C	4882.06	-2.4988	-2.18117
C	4881.44	-1.18354	-1.91342
O	4881.14	-0.424351	-2.82704
H	4882.2	-2.62475	-3.27737
H	4881.41	-3.31516	-1.80333
H	4883.05	-2.55918	-1.68716
N	4881.22	-0.879369	-0.63146
C	4880.62	0.362499	-0.212872
C	4881	0.596692	1.23693
O	4881.48	-0.308823	1.91533
H	4881.49	-1.49395	0.105263
H	4881.04	1.17093	-0.797088
C	4879.08	0.323393	-0.361957
H	4878.66	-0.507523	0.238136
H	4878.62	1.27812	-0.0406609
H	4878.82	0.150094	-1.42813
N	4880.81	1.83182	1.74091
C	4881.15	2.1513	3.1076
H	4880.42	2.55304	1.17382
H	4880.92	3.21552	3.33246
H	4882.23	1.98365	3.29106
H	4880.58	1.50987	3.81585
