44
  This energy is 1.59415e-319 and Call times are: 111915
C	-2.10272	2.71038	-0.598767
C	-0.773919	2.0595	-0.641722
O	0.171033	2.5877	-1.21143
H	-2.0562	3.67677	-1.1463
H	-2.39845	2.90726	0.453183
H	-2.86315	2.06047	-1.08074
N	-0.673939	0.874894	-0.03421
C	0.552825	0.119928	0.00945973
C	0.199031	-1.32828	0.286492
O	-0.925291	-1.63711	0.676825
H	-1.45844	0.441556	0.40135
H	1.02698	0.162501	-0.962878
C	1.50302	0.653558	1.10467
H	1.01317	0.609064	2.10075
H	2.44867	0.0745845	1.14094
H	1.75365	1.71546	0.890916
N	1.15087	-2.257	0.0685434
C	0.901475	-3.66179	0.29335
H	2.05231	-1.98778	-0.2542
H	1.80677	-4.26426	0.0594332
H	0.0658703	-4.02041	-0.35039
H	0.622342	-3.84632	1.35599
C	5304.01	-0.411339	2.74292
C	5303.49	-0.833711	1.41942
O	5304.02	-1.74406	0.797706
H	5304.89	-1.0335	3.01204
H	5303.22	-0.545924	3.51677
H	5304.31	0.654758	2.71164
N	5302.44	-0.16522	0.950704
C	5301.83	-0.460243	-0.321041
C	5301.05	0.763428	-0.757701
O	5300.8	1.6707	0.0359739
H	5302.03	0.59372	1.45357
H	5302.61	-0.631861	-1.05354
C	5300.89	-1.68368	-0.224221
H	5300.09	-1.50446	0.528594
H	5300.42	-1.91371	-1.20175
H	5301.47	-2.57306	0.0976102
N	5300.65	0.826085	-2.04437
C	5299.91	1.9579	-2.55342
H	5300.86	0.0849994	-2.67289
H	5299.68	1.82148	-3.63215
H	5300.5	2.89599	-2.43891
H	5298.95	2.083	-1.9993
