44
  This energy is 6.41445e-320 and Call times are: 44925
C	0.78413	-2.28043	-2.51215
C	0.947209	-1.74747	-1.14081
O	1.62252	-2.33773	-0.308925
H	1.34512	-3.23579	-2.60402
H	1.18299	-1.55676	-3.25379
H	-0.289008	-2.47206	-2.72333
N	0.315861	-0.602593	-0.870584
C	0.379279	0.0397181	0.41792
C	-0.812971	0.969364	0.534269
O	-1.47913	1.26428	-0.456229
H	-0.254976	-0.146474	-1.54811
H	0.286536	-0.712498	1.19099
C	1.69247	0.836364	0.585285
H	1.78468	1.60671	-0.209814
H	1.74464	1.33209	1.5764
H	2.55816	0.144337	0.496825
N	-1.12347	1.43742	1.75922
C	-2.24856	2.31862	1.9686
H	-0.576422	1.18147	2.54945
H	-2.33756	2.59437	3.04252
H	-3.19706	1.82647	1.65336
H	-2.13105	3.25399	1.37492
C	2134.04	2.494	-1.69264
C	2133.7	1.75432	-0.456802
O	2134.3	1.95667	0.588519
H	2134.88	3.19227	-1.48261
H	2133.17	3.07981	-2.04245
H	2134.36	1.78579	-2.48873
N	2132.71	0.86151	-0.554027
C	2132.27	0.0652207	0.561072
C	2131.55	-1.15007	0.00773661
O	2131.21	-1.19656	-1.17345
H	2132.25	0.684942	-1.41829
H	2133.13	-0.285557	1.1112
C	2131.32	0.867644	1.48241
H	2130.44	1.22654	0.914671
H	2130.98	0.257537	2.34216
H	2131.86	1.75575	1.88028
N	2131.32	-2.17675	0.849517
C	2130.65	-3.37974	0.408962
H	2131.61	-2.12288	1.80003
H	2130.55	-4.1047	1.24692
H	2131.22	-3.86829	-0.412283
H	2129.63	-3.14612	0.0268492
