44
  This energy is 2.12448e-321 and Call times are: 48663
C	-0.68454	-2.61024	-2.20095
C	-1.03239	-1.7634	-1.03773
O	-2.12372	-1.85476	-0.492622
H	-1.54533	-3.26985	-2.44554
H	0.196756	-3.24264	-1.96385
H	-0.456726	-1.97486	-3.08261
N	-0.0970793	-0.902244	-0.630344
C	-0.287406	-0.012427	0.487166
C	0.697636	1.13155	0.344865
O	1.63391	1.0598	-0.448903
H	0.777132	-0.81685	-1.10087
H	-1.28525	0.404762	0.438785
C	-0.0644294	-0.741452	1.83101
H	0.959972	-1.16877	1.87698
H	-0.210335	-0.0592412	2.69361
H	-0.791234	-1.57782	1.92256
N	0.494713	2.22881	1.1004
C	1.37395	3.37216	1.02382
H	-0.272806	2.27046	1.7316
H	1.04174	4.17122	1.72266
H	1.38433	3.79135	-0.00837504
H	2.41681	3.0846	1.29017
C	2307.64	2.40902	2.50272
C	2307.02	1.19886	1.91669
O	2306.2	0.546681	2.53919
H	2307.24	2.57018	3.52543
H	2307.41	3.298	1.8797
H	2308.74	2.28237	2.568
N	2307.42	0.864984	0.687086
C	2306.91	-0.284924	-0.015129
C	2307.91	-0.654212	-1.09416
O	2308.81	0.124382	-1.4139
H	2308.12	1.38784	0.201821
H	2306.85	-1.11803	0.673325
C	2305.53	0.0089	-0.646397
H	2305.6	0.864516	-1.3516
H	2305.14	-0.87447	-1.18776
H	2304.81	0.279255	0.154164
N	2307.79	-1.86777	-1.66778
C	2308.7	-2.31078	-2.69566
H	2307.06	-2.48635	-1.39025
H	2308.44	-3.33422	-3.04195
H	2309.75	-2.3301	-2.31094
H	2308.67	-1.62448	-3.57266
