44
  This energy is 1.42755e-319 and Call times are: 85287
C	-0.799945	0.612098	3.3334
C	-0.879635	-0.211079	2.10571
O	-1.41015	-1.31332	2.11652
H	-1.27177	0.0614868	4.17606
H	-1.33755	1.57231	3.18574
H	0.261027	0.818187	3.58798
N	-0.339151	0.313922	1.00361
C	-0.338816	-0.366064	-0.266999
C	0.76315	0.23569	-1.11718
O	1.29784	1.29512	-0.79539
H	0.115957	1.20032	1.01434
H	-0.0985864	-1.40959	-0.107555
C	-1.70058	-0.221902	-0.982489
H	-1.9442	0.849884	-1.14386
H	-1.70385	-0.744448	-1.96112
H	-2.49945	-0.665392	-0.349031
N	1.14458	-0.442314	-2.21755
C	2.19379	0.0473972	-3.08099
H	0.704574	-1.30152	-2.45713
H	2.35979	-0.649169	-3.93216
H	3.15036	0.147998	-2.51876
H	1.92871	1.04791	-3.49316
C	4043.65	-2.44299	1.85422
C	4042.44	-1.90248	1.2013
O	4041.41	-2.56471	1.12559
H	4043.44	-3.47464	2.21407
H	4043.93	-1.80947	2.72127
H	4044.49	-2.47538	1.13083
N	4042.53	-0.667875	0.702227
C	4041.44	-0.00654124	0.038704
C	4042.01	1.09622	-0.827142
O	4043.18	1.46077	-0.686163
H	4043.38	-0.149688	0.744438
H	4040.94	-0.713849	-0.615445
C	4040.44	0.585935	1.05709
H	4040.95	1.31061	1.72698
H	4039.59	1.09576	0.54956
H	4040.02	-0.231699	1.68593
N	4041.21	1.64036	-1.7636
C	4041.68	2.68768	-2.64197
H	4040.27	1.32673	-1.86687
H	4040.87	3.00393	-3.33989
H	4042.55	2.33652	-3.24551
H	4042	3.57725	-2.05512
