44
  This energy is 1.17785e-320 and Call times are: 55131
C	-2.33872	-2.57998	0.0160527
C	-1.96959	-1.15672	0.187187
O	-2.82341	-0.298603	0.363576
H	-3.44441	-2.68174	0.0704383
H	-1.8814	-3.19324	0.820786
H	-1.99197	-2.9493	-0.972032
N	-0.666585	-0.871255	0.131845
C	-0.152534	0.466784	0.280951
C	1.23126	0.505903	-0.337775
O	1.82365	-0.534162	-0.619147
H	0.0171103	-1.57515	-0.0414521
H	-0.78143	1.14946	-0.276293
C	-0.0814067	0.879563	1.76812
H	0.564014	0.176719	2.33694
H	0.313845	1.90938	1.88654
H	-1.10107	0.845697	2.21004
N	1.77152	1.71546	-0.584932
C	3.07925	1.85101	-1.18296
H	1.27331	2.54546	-0.3566
H	3.34723	2.92381	-1.30356
H	3.10408	1.36857	-2.18689
H	3.85448	1.36522	-0.547188
C	2611.57	0.998913	-2.72257
C	2612.73	1.16895	-1.81404
O	2613.59	2.01192	-2.03409
H	2611.65	1.72416	-3.56111
H	2610.62	1.18788	-2.17543
H	2611.56	-0.0307951	-3.13789
N	2612.78	0.353091	-0.758452
C	2613.84	0.397731	0.214589
C	2613.87	-0.937719	0.932123
O	2612.93	-1.72788	0.830249
H	2612.09	-0.349089	-0.605971
H	2614.79	0.516166	-0.300833
C	2613.62	1.54176	1.2304
H	2612.65	1.41749	1.75686
H	2614.44	1.5791	1.981
H	2613.6	2.51438	0.692191
N	2614.97	-1.23029	1.66137
C	2615.09	-2.48303	2.36957
H	2615.72	-0.580675	1.72562
H	2616.06	-2.53443	2.91138
H	2615.04	-3.34149	1.66133
H	2614.27	-2.59775	3.11188
