44
  This energy is 1.27958e-319 and Call times are: 104019
C	1.74166	-2.60894	-1.51202
C	0.568654	-1.71132	-1.41433
O	-0.301784	-1.71213	-2.27388
H	1.66608	-3.21209	-2.4428
H	1.77143	-3.29581	-0.640158
H	2.67804	-2.01308	-1.54491
N	0.523482	-0.90841	-0.348656
C	-0.553704	0.0198461	-0.114478
C	-0.0499473	1.08775	0.836867
O	0.99836	0.930708	1.45994
H	1.25334	-0.896416	0.329646
H	-0.809328	0.504967	-1.04796
C	-1.78672	-0.689767	0.488206
H	-1.52075	-1.18692	1.44539
H	-2.61809	0.0220568	0.669644
H	-2.14535	-1.47036	-0.217636
N	-0.779251	2.21485	0.954181
C	-0.371672	3.29119	1.82684
H	-1.62096	2.32598	0.436094
H	-1.10263	4.12863	1.7862
H	0.627273	3.68306	1.5272
H	-0.30179	2.93753	2.88099
C	4928.58	3.10166	-0.0675413
C	4927.6	2.12833	-0.600324
O	4926.81	2.44313	-1.47937
H	4928.45	4.07728	-0.583418
H	4929.62	2.73977	-0.245838
H	4928.42	3.24656	1.02195
N	4927.63	0.90542	-0.0654837
C	4926.74	-0.14941	-0.479475
C	4926.68	-1.17421	0.636563
O	4927.5	-1.15699	1.54988
H	4928.26	0.669734	0.670441
H	4925.74	0.258682	-0.604194
C	4927.23	-0.814765	-1.78662
H	4928.25	-1.23174	-1.65531
H	4926.54	-1.62734	-2.10832
H	4927.27	-0.0534508	-2.59591
N	4925.69	-2.08257	0.599234
C	4925.54	-3.0893	1.62504
H	4925.03	-2.07558	-0.144434
H	4924.67	-3.7423	1.41591
H	4925.4	-2.61559	2.62275
H	4926.45	-3.72949	1.67696
