44
  This energy is 7.39962e-320 and Call times are: 33459
C	1.26506	3.153	0.764439
C	0.997135	2.05463	-0.191081
O	1.21033	2.19131	-1.38789
H	1.65364	4.03507	0.210529
H	2.02324	2.83461	1.5105
H	0.329542	3.44126	1.28852
N	0.509884	0.92438	0.326103
C	0.199465	-0.232033	-0.47588
C	-0.779804	-1.08934	0.302133
O	-0.975142	-0.891121	1.49979
H	0.313108	0.835441	1.29888
H	-0.295042	0.0913529	-1.38305
C	1.47102	-1.04497	-0.806616
H	1.97617	-1.37456	0.126288
H	1.23563	-1.93604	-1.42417
H	2.18071	-0.405517	-1.37546
N	-1.43771	-2.05399	-0.370632
C	-2.39787	-2.9115	0.284306
H	-1.27104	-2.19401	-1.34112
H	-2.82939	-3.64091	-0.436108
H	-3.23086	-2.31074	0.716124
H	-1.91646	-3.4798	1.11283
C	1590.99	-1.80938	2.68157
C	1590.95	-1.46164	1.24316
O	1591.79	-1.90067	0.465266
H	1591.85	-2.47916	2.87606
H	1590.06	-2.33569	2.97128
H	1591.1	-0.890529	3.29493
N	1589.97	-0.646323	0.854485
C	1589.8	-0.218412	-0.51153
C	1588.97	1.04966	-0.504486
O	1588.36	1.39449	0.504679
H	1589.31	-0.272084	1.50297
H	1590.77	0.0267492	-0.924217
C	1589.11	-1.3054	-1.3606
H	1588.11	-1.55495	-0.934023
H	1588.98	-0.979243	-2.41302
H	1589.73	-2.22943	-1.35677
N	1588.95	1.78823	-1.63142
C	1588.19	3.01714	-1.71412
H	1589.46	1.49603	-2.43527
H	1588.3	3.47646	-2.72164
H	1588.55	3.75002	-0.955438
H	1587.11	2.82765	-1.5269
