44
  This energy is 9.22272e-320 and Call times are: 70965
C	-1.43284	2.12136	2.36071
C	-1.33521	0.812554	1.67609
O	-1.9758	-0.154223	2.06529
H	-2.13572	2.03602	3.21776
H	-1.81393	2.89274	1.65887
H	-0.436519	2.42912	2.74226
N	-0.512128	0.752195	0.626682
C	-0.311469	-0.450727	-0.141134
C	1.00971	-0.320832	-0.87383
O	1.57709	0.766684	-0.958831
H	0.026398	1.53905	0.33723
H	-0.230604	-1.29124	0.536411
C	-1.45963	-0.67145	-1.15114
H	-1.54019	0.192983	-1.84424
H	-1.30837	-1.59692	-1.74393
H	-2.42197	-0.76384	-0.602033
N	1.54298	-1.43905	-1.40413
C	2.80331	-1.41426	-2.10921
H	1.072	-2.31087	-1.31853
H	3.07135	-2.43122	-2.47141
H	3.61953	-1.0533	-1.44233
H	2.74857	-0.732017	-2.98826
C	3368.53	-0.122944	2.75238
C	3367.35	-0.606775	1.99321
O	3366.74	-1.60473	2.34554
H	3368.71	-0.799544	3.61508
H	3368.34	0.902948	3.13375
H	3369.43	-0.116985	2.10206
N	3367.01	0.0998032	0.912645
C	3365.9	-0.24566	0.0730009
C	3366.11	0.404496	-1.27998
O	3366.96	1.2799	-1.429
H	3367.54	0.894111	0.619447
H	3365.88	-1.31802	-0.0753607
C	3364.56	0.234405	0.687715
H	3364.58	1.33484	0.839179
H	3363.7	-0.0301016	0.0438232
H	3364.42	-0.248061	1.67889
N	3365.35	-0.0272999	-2.30798
C	3365.5	0.52476	-3.63508
H	3364.68	-0.741674	-2.16873
H	3364.78	0.04102	-4.34049
H	3366.53	0.367277	-4.01734
H	3365.29	1.62022	-3.6289
