44
  This energy is 1.92587e-320 and Call times are: 80415
C	1.0746	3.27735	-0.47993
C	1.33595	1.82419	-0.374016
O	2.44021	1.36031	-0.622857
H	2.00261	3.79452	-0.807333
H	0.765791	3.68339	0.506267
H	0.274237	3.46909	-1.22531
N	0.3052	1.06191	-0.00138316
C	0.403844	-0.368223	0.14632
C	-0.99629	-0.943485	0.0572222
O	-1.98224	-0.213469	0.139782
H	-0.597107	1.44829	0.170332
H	0.97717	-0.768598	-0.680161
C	1.05057	-0.751012	1.49626
H	0.460224	-0.338106	2.3419
H	1.1282	-1.8515	1.6132
H	2.0752	-0.32271	1.5496
N	-1.11519	-2.27178	-0.136429
C	-2.40788	-2.90675	-0.245648
H	-0.305211	-2.84456	-0.207803
H	-2.29593	-4.0025	-0.400703
H	-2.98002	-2.48784	-1.10496
H	-3.0058	-2.74281	0.67999
C	3809.93	1.78312	2.99024
C	3809.27	1.25603	1.77318
O	3808.06	1.35374	1.61455
H	3809.16	2.23159	3.65745
H	3810.67	2.56486	2.71742
H	3810.44	0.96239	3.534
N	3810.07	0.670681	0.875444
C	3809.58	0.110316	-0.35779
C	3810.6	-0.890804	-0.855844
O	3811.73	-0.922532	-0.377494
H	3811.05	0.571363	1.02959
H	3808.66	-0.429125	-0.158029
C	3809.34	1.20707	-1.42109
H	3810.29	1.75892	-1.6231
H	3808.97	0.779072	-2.37189
H	3808.59	1.93467	-1.04373
N	3810.22	-1.751	-1.81949
C	3811.12	-2.7469	-2.34713
H	3809.29	-1.71408	-2.18867
H	3810.62	-3.35577	-3.13179
H	3811.46	-3.43186	-1.53904
H	3812.02	-2.26433	-2.79734
