44
  This energy is 1.44737e-319 and Call times are: 85371
C	0.237776	3.20736	1.33508
C	0.627425	2.17684	0.346445
O	1.35053	2.45099	-0.601423
H	0.693453	4.18053	1.0502
H	0.598975	2.92367	2.34596
H	-0.866687	3.31997	1.35566
N	0.142857	0.949147	0.547279
C	0.433055	-0.158524	-0.327751
C	-0.644881	-1.20586	-0.126779
O	-1.40645	-1.14722	0.836761
H	-0.468857	0.745086	1.30695
H	0.37562	0.179792	-1.35455
C	1.8232	-0.762665	-0.0283552
H	1.87884	-1.10809	1.02602
H	2.04992	-1.61571	-0.700432
H	2.60383	0.0147366	-0.178053
N	-0.747872	-2.18203	-1.05007
C	-1.75161	-3.21562	-0.94819
H	-0.126768	-2.20812	-1.82646
H	-1.67316	-3.9254	-1.80102
H	-2.7738	-2.77253	-0.953882
H	-1.6296	-3.79007	-0.001458
C	4047.89	0.423191	2.89499
C	4047.69	-0.135603	1.53817
O	4048.6	-0.725195	0.961146
H	4048.93	0.216089	3.23173
H	4047.18	-0.0472465	3.608
H	4047.73	1.52165	2.88356
N	4046.49	0.0464739	0.989064
C	4046.15	-0.439262	-0.324042
C	4044.96	0.360713	-0.822343
O	4044.31	1.06228	-0.052158
H	4045.77	0.553846	1.45751
H	4046.98	-0.250979	-0.995282
C	4045.8	-1.9443	-0.29414
H	4044.95	-2.13396	0.395939
H	4045.54	-2.32162	-1.30363
H	4046.68	-2.51912	0.0737021
N	4044.67	0.289762	-2.13535
C	4043.56	1.02608	-2.7023
H	4045.21	-0.277995	-2.74368
H	4043.48	0.835231	-3.79517
H	4043.7	2.12086	-2.54679
H	4042.6	0.725824	-2.22233
