44
  This energy is 1.15305e-319 and Call times are: 17289
C	0.693564	-2.25735	-2.55919
C	0.864166	-0.941876	-1.90221
O	1.69425	-0.137599	-2.30295
H	1.41455	-2.34374	-3.40097
H	-0.338005	-2.35479	-2.95818
H	0.887932	-3.07552	-1.8341
N	0.0716535	-0.693899	-0.856839
C	0.119446	0.540861	-0.115279
C	-0.49203	0.288832	1.24921
O	-1.14169	-0.731885	1.46808
H	-0.580473	-1.36883	-0.521973
H	1.15428	0.821374	0.0347394
C	-0.651321	1.66456	-0.843522
H	-1.71238	1.37318	-0.996371
H	-0.616417	2.61678	-0.27533
H	-0.194414	1.83872	-1.84205
N	-0.278137	1.20948	2.20976
C	-0.81108	1.04877	3.54255
H	0.256301	2.02536	2.01497
H	-0.528261	1.91105	4.18577
H	-0.419575	0.117632	4.01259
H	-1.92277	0.980946	3.51581
C	823.061	0.773405	-2.91631
C	823.693	1.16283	-1.6356
O	823.808	2.33879	-1.31868
H	822.755	1.68866	-3.46791
H	822.162	0.150872	-2.72543
H	823.781	0.201829	-3.53993
N	824.129	0.165789	-0.862129
C	824.765	0.385813	0.412316
C	825.571	-0.853068	0.750918
O	825.405	-1.90042	0.128502
H	824.056	-0.786965	-1.14472
H	825.457	1.21381	0.322206
C	823.724	0.661463	1.52014
H	823.015	-0.189657	1.60941
H	824.21	0.831476	2.50276
H	823.139	1.5706	1.2597
N	826.484	-0.754716	1.73761
C	827.306	-1.87864	2.1214
H	826.608	0.103545	2.22462
H	827.991	-1.59903	2.95133
H	827.921	-2.22737	1.26065
H	826.673	-2.73045	2.46109
