44
  This energy is 7.84329e-320 and Call times are: 108513
C	1.80522	-1.90608	-2.28783
C	1.39441	-0.604215	-1.71547
O	1.91928	0.439795	-2.07749
H	2.61364	-1.74103	-3.03288
H	0.943713	-2.3905	-2.79375
H	2.18593	-2.57364	-1.48635
N	0.433888	-0.640395	-0.788948
C	-0.0719289	0.543212	-0.140834
C	-0.72585	0.118856	1.15976
O	-0.981163	-1.06388	1.37835
H	0.0345867	-1.50002	-0.481488
H	0.759076	1.19204	0.105185
C	-1.09479	1.28009	-1.03408
H	-1.94562	0.611351	-1.28509
H	-1.48617	2.19203	-0.538138
H	-0.603816	1.5846	-1.98401
N	-0.993277	1.07856	2.06721
C	-1.60393	0.767278	3.33858
H	-0.772589	2.02904	1.87456
H	-1.74411	1.68988	3.94389
H	-0.966248	0.0612507	3.91834
H	-2.59987	0.290589	3.19006
C	5141.02	0.883495	3.17841
C	5141.22	0.7511	1.71807
O	5142.22	1.19918	1.17514
H	5141.88	1.42789	3.62104
H	5140.94	-0.120433	3.64747
H	5140.09	1.45388	3.38572
N	5140.25	0.126816	1.03956
C	5140.31	-0.0792205	-0.38573
C	5138.89	-0.319679	-0.875697
O	5137.98	-0.565248	-0.0824064
H	5139.43	-0.208041	1.48907
H	5140.67	0.824735	-0.858419
C	5141.21	-1.28294	-0.746377
H	5140.83	-2.20846	-0.259258
H	5141.25	-1.44433	-1.8431
H	5142.24	-1.09497	-0.381057
N	5138.67	-0.232391	-2.20138
C	5137.35	-0.434087	-2.75852
H	5139.41	-0.0256306	-2.82639
H	5137.37	-0.32253	-3.86505
H	5136.63	0.308558	-2.34418
H	5136.97	-1.45364	-2.51551
