44
  This energy is 3.12793e-320 and Call times are: 87219
C	-1.7495	3.00271	0.221613
C	-1.16325	1.78956	0.834633
O	-1.13489	1.64511	2.04906
H	-2.11156	3.68144	1.02417
H	-2.60578	2.72688	-0.429167
H	-0.983977	3.5352	-0.381199
N	-0.669275	0.879099	-0.00762899
C	-0.0673279	-0.352283	0.437551
C	0.818483	-0.868433	-0.679663
O	0.734285	-0.402984	-1.81461
H	-0.672057	1.02163	-0.993841
H	0.566131	-0.145903	1.2909
C	-1.13968	-1.40557	0.794985
H	-1.78816	-1.6144	-0.0824976
H	-0.679631	-2.35492	1.1383
H	-1.78267	-1.01498	1.61361
N	1.70881	-1.83347	-0.376301
C	2.6019	-2.37781	-1.37242
H	1.76655	-2.19205	0.549612
H	3.25548	-3.16089	-0.928708
H	3.25146	-1.57823	-1.79666
H	2.02568	-2.83478	-2.20927
C	4127.69	1.41546	-1.67246
C	4129.14	1.31997	-1.38946
O	4129.96	1.95222	-2.04629
H	4127.53	2.10847	-2.52636
H	4127.16	1.80747	-0.783945
H	4127.29	0.416271	-1.93836
N	4129.5	0.508289	-0.391486
C	4130.87	0.311139	0.00272292
C	4130.96	-1.00132	0.757469
O	4129.94	-1.56321	1.15647
H	4128.83	-0.0237432	0.117137
H	4131.48	0.219314	-0.885821
C	4131.37	1.46946	0.893904
H	4130.74	1.56124	1.80419
H	4132.43	1.32092	1.19913
H	4131.31	2.42528	0.330015
N	4132.18	-1.53333	0.95222
C	4132.36	-2.78568	1.64974
H	4132.99	-1.06694	0.615431
H	4133.43	-3.05392	1.70924
H	4131.82	-3.60772	1.12353
H	4131.95	-2.71842	2.68643
