44
  This energy is 2.31025e-320 and Call times are: 19851
C	-1.17163	-2.7293	-1.81779
C	-0.567299	-1.38029	-1.73934
O	-0.138934	-0.81997	-2.73886
H	-1.14507	-3.08294	-2.8714
H	-2.22766	-2.69586	-1.47648
H	-0.601383	-3.44166	-1.18509
N	-0.514145	-0.823909	-0.526907
C	0.0444145	0.48338	-0.290617
C	0.416412	0.572837	1.17664
O	0.00407739	-0.260161	1.98158
H	-0.840003	-1.30263	0.284007
H	0.954623	0.586651	-0.867616
C	-0.961613	1.59873	-0.652592
H	-1.89445	1.48936	-0.0593186
H	-0.534695	2.60665	-0.471994
H	-1.22698	1.52155	-1.72952
N	1.22758	1.58002	1.55558
C	1.64469	1.73826	2.92932
H	1.55644	2.23984	0.887952
H	2.30722	2.62492	3.03948
H	2.20255	0.838589	3.27663
H	0.761833	1.8753	3.59487
C	946.097	-1.70458	-3.03013
C	946.256	-1.64099	-1.55978
O	946.528	-2.6406	-0.909078
H	946.255	-2.75055	-3.37175
H	946.844	-1.04815	-3.52431
H	945.074	-1.38317	-3.31904
N	946.081	-0.443732	-0.995645
C	946.202	-0.222925	0.423265
C	945.454	1.05191	0.76212
O	945.1	1.8273	-0.123946
H	945.831	0.357251	-1.53319
H	945.719	-1.03708	0.948682
C	947.682	-0.0996153	0.848613
H	948.175	0.736123	0.307198
H	947.779	0.0703097	1.94061
H	948.219	-1.03924	0.593941
N	945.177	1.28775	2.05956
C	944.458	2.46965	2.47591
H	945.466	0.644619	2.76109
H	944.331	2.48336	3.58078
H	943.449	2.50173	2.00593
H	945.009	3.39043	2.17505
