44
  This energy is 8.04932e-320 and Call times are: 27873
C	-2.07892	2.5363	1.17107
C	-1.0562	2.02046	0.233436
O	-0.69219	2.67953	-0.730728
H	-2.41066	3.54282	0.835323
H	-1.65314	2.62065	2.19304
H	-2.9569	1.85684	1.19167
N	-0.567419	0.806635	0.498175
C	0.432929	0.170959	-0.32161
C	0.367774	-1.32168	-0.062725
O	-0.253859	-1.76604	0.900577
H	-0.893246	0.267547	1.27029
H	0.189972	0.334964	-1.36379
C	1.84654	0.704831	0.000562389
H	2.09225	0.535553	1.07065
H	2.61922	0.217583	-0.628988
H	1.88081	1.79931	-0.19202
N	0.994303	-2.13538	-0.935284
C	0.976469	-3.57087	-0.776435
H	1.48602	-1.75689	-1.71258
H	1.54866	-4.064	-1.59293
H	-0.0688245	-3.95569	-0.799091
H	1.43136	-3.86426	0.197309
C	1327.53	-2.30653	-2.55358
C	1326.7	-1.29455	-1.86718
O	1325.65	-0.9003	-2.35871
H	1327.05	-2.59099	-3.51352
H	1327.64	-3.2126	-1.91984
H	1328.54	-1.89111	-2.76749
N	1327.16	-0.841148	-0.698514
C	1326.46	0.14401	0.0870868
C	1327.46	0.789202	1.02466
O	1328.57	0.285612	1.2046
H	1328.03	-1.1487	-0.322639
H	1326.08	0.915478	-0.571596
C	1325.31	-0.495332	0.896867
H	1325.7	-1.28676	1.57104
H	1324.77	0.26047	1.5028
H	1324.58	-0.965492	0.198741
N	1327.1	1.93796	1.6301
C	1327.99	2.63001	2.53016
H	1326.2	2.3334	1.466
H	1327.52	3.55218	2.92713
H	1328.93	2.92059	2.00572
H	1328.27	1.97807	3.39132
