44
  This energy is 8.87292e-320 and Call times are: 34005
C	1.53206	-2.01289	2.39316
C	1.01872	-0.704646	1.92821
O	0.975148	0.26061	2.67846
H	1.82939	-1.93218	3.4613
H	2.41877	-2.31047	1.79482
H	0.744174	-2.7894	2.29709
N	0.606714	-0.646172	0.659669
C	0.0824688	0.556192	0.0627456
C	-0.741955	0.155488	-1.14515
O	-0.66662	-0.980853	-1.6087
H	0.620143	-1.44708	0.0669618
H	-0.581412	1.03892	0.768658
C	1.21761	1.51403	-0.362845
H	1.89714	1.01537	-1.08651
H	0.817449	2.44094	-0.82272
H	1.81477	1.79914	0.530606
N	-1.56934	1.07969	-1.67173
C	-2.4016	0.785082	-2.81486
H	-1.62134	1.99151	-1.27789
H	-3.0084	1.67302	-3.09878
H	-3.09606	-0.0562667	-2.58883
H	-1.77776	0.492175	-3.6902
C	1616.1	-3.45637	-0.153141
C	1616.65	-2.08543	-0.0726757
O	1617.84	-1.89452	0.102577
H	1616.92	-4.19227	-0.0253106
H	1615.62	-3.61914	-1.14247
H	1615.34	-3.61425	0.649424
N	1615.77	-1.08509	-0.195413
C	1616.16	0.302378	-0.139027
C	1614.93	1.11447	0.209386
O	1613.8	0.61499	0.142684
H	1614.8	-1.2536	-0.3087
H	1616.88	0.435765	0.659715
C	1616.74	0.778477	-1.48682
H	1616	0.639585	-2.3041
H	1617.04	1.84637	-1.44686
H	1617.65	0.175076	-1.73124
N	1615.11	2.38716	0.612582
C	1614	3.2326	0.976213
H	1616.02	2.77086	0.666837
H	1614.35	4.24252	1.27795
H	1613.43	2.79143	1.82805
H	1613.29	3.34938	0.118601
