44
  This energy is 7.33687e-321 and Call times are: 19305
C	1.66984	1.38828	-2.72222
C	0.893236	1.5159	-1.4685
O	0.714001	2.60628	-0.943674
H	2.02108	2.39381	-3.04065
H	1.03336	0.959261	-3.5245
H	2.5522	0.733738	-2.56107
N	0.412833	0.383042	-0.950606
C	-0.361743	0.345674	0.264081
C	-0.287987	-1.06293	0.820538
O	0.133547	-1.9898	0.131301
H	0.590367	-0.502336	-1.37194
H	0.0897255	1.01012	0.989863
C	-1.83346	0.738175	0.00502984
H	-2.29332	0.0549046	-0.740484
H	-2.43269	0.710594	0.93827
H	-1.87377	1.77145	-0.403463
N	-0.67866	-1.25231	2.09628
C	-0.632335	-2.5566	2.71503
H	-1.01002	-0.488209	2.63996
H	-0.995869	-2.50685	3.76508
H	0.409681	-2.95078	2.7232
H	-1.2705	-3.27935	2.15684
C	920.852	-1.55036	-2.96927
C	921.119	-0.642851	-1.83084
O	922.227	-0.151937	-1.66003
H	921.782	-1.67745	-3.56425
H	920.063	-1.12192	-3.62282
H	920.524	-2.54416	-2.59785
N	920.094	-0.401813	-1.01082
C	920.199	0.459726	0.139646
C	919.075	0.103108	1.09278
O	918.135	-0.598565	0.722441
H	919.204	-0.830811	-1.14412
H	921.135	0.259165	0.645265
C	920.103	1.94856	-0.26191
H	919.141	2.15064	-0.780951
H	920.183	2.61473	0.621552
H	920.931	2.19682	-0.961018
N	919.157	0.563568	2.35658
C	918.139	0.265062	3.33732
H	919.929	1.12395	2.6389
H	918.386	0.73448	4.31513
H	918.051	-0.835093	3.48914
H	917.148	0.648599	3.00428
