44
  This energy is 1.665e-320 and Call times are: 112587
C	-1.47689	0.739057	-3.06573
C	-1.52799	0.621453	-1.59102
O	-2.50148	1.00792	-0.959004
H	-2.41506	1.21193	-3.42919
H	-1.37936	-0.266407	-3.52655
H	-0.615214	1.36989	-3.36988
N	-0.458852	0.0809054	-1.00185
C	-0.360397	-0.100264	0.424439
C	1.10859	-0.229828	0.77733
O	1.95025	-0.425936	-0.0972989
H	0.340079	-0.203352	-1.52515
H	-0.740589	0.784786	0.91862
C	-1.13061	-1.35749	0.886255
H	-0.738454	-2.26347	0.376832
H	-1.05701	-1.4999	1.98402
H	-2.20501	-1.25068	0.620918
N	1.45385	-0.100553	2.07351
C	2.82973	-0.197061	2.50224
H	0.758844	0.0649892	2.76546
H	2.9085	-0.0653587	3.60392
H	3.45041	0.586541	2.01034
H	3.25535	-1.19179	2.23664
C	5329.36	2.4379	-1.42692
C	5330.16	1.90221	-0.297773
O	5330.36	2.56923	0.708233
H	5329.03	3.47107	-1.18524
H	5328.47	1.80436	-1.60007
H	5329.98	2.46514	-2.34954
N	5330.64	0.666399	-0.445917
C	5331.43	0.00930479	0.564928
C	5332.22	-1.09754	-0.106767
O	5331.94	-1.46745	-1.24541
H	5330.5	0.144211	-1.28223
H	5332.14	0.717968	0.97324
C	5330.54	-0.576815	1.68226
H	5329.81	-1.3029	1.25978
H	5331.14	-1.08337	2.46235
H	5329.96	0.24376	2.1656
N	5333.24	-1.63926	0.579646
C	5334.06	-2.69015	0.0162012
H	5333.46	-1.3213	1.49712
H	5334.85	-3.0036	0.734541
H	5334.55	-2.34408	-0.919788
H	5333.44	-3.58036	-0.231408
