44
  This energy is 4.2292e-321 and Call times are: 118299
C	-0.479833	2.45383	-2.42376
C	0.348789	1.41855	-1.76589
O	1.42739	1.08026	-2.23352
H	0.0375288	2.81026	-3.34091
H	-0.631294	3.31469	-1.73908
H	-1.46605	2.03072	-2.70888
N	-0.149639	0.880659	-0.650269
C	0.53928	-0.137254	0.102108
C	-0.486154	-0.863688	0.950646
O	-1.61244	-0.397533	1.11192
H	-1.04277	1.14389	-0.295367
H	0.96517	-0.856051	-0.586384
C	1.63643	0.474034	1.00194
H	1.19613	1.21146	1.70654
H	2.16899	-0.307012	1.58257
H	2.38063	1.00428	0.368573
N	-0.123934	-2.04077	1.49771
C	-1.03756	-2.8091	2.31082
H	0.789766	-2.40471	1.34962
H	-0.553525	-3.74404	2.66976
H	-1.94518	-3.08613	1.7271
H	-1.36428	-2.22026	3.19834
C	5600.85	2.71098	2.15814
C	5601.48	1.42817	1.76987
O	5602.44	0.982091	2.38436
H	5601.4	3.13484	3.03238
H	5599.79	2.54772	2.43686
H	5600.91	3.43392	1.31709
N	5600.95	0.800614	0.719164
C	5601.45	-0.455938	0.222191
C	5600.99	-0.604589	-1.2154
O	5600.12	0.126737	-1.67474
H	5600.19	1.18868	0.208958
H	5602.53	-0.427507	0.220835
C	5600.94	-1.64119	1.0693
H	5599.83	-1.66695	1.06905
H	5601.32	-2.61027	0.689469
H	5601.28	-1.51988	2.12031
N	5601.59	-1.54708	-1.96878
C	5601.23	-1.75319	-3.35156
H	5602.3	-2.12413	-1.58081
H	5601.83	-2.57326	-3.79858
H	5601.4	-0.826595	-3.94545
H	5600.15	-2.02326	-3.43921
