44
  This energy is 9.12737e-320 and Call times are: 109059
C	0.810745	-1.91573	-2.79263
C	1.16169	-0.936496	-1.73947
O	2.31276	-0.548431	-1.5948
H	1.72801	-2.19417	-3.35563
H	0.0768472	-1.47235	-3.49806
H	0.377808	-2.83056	-2.33589
N	0.159712	-0.514015	-0.964926
C	0.34388	0.437645	0.101494
C	-0.819669	0.291214	1.06272
O	-1.82386	-0.341847	0.742316
H	-0.768485	-0.85969	-1.07399
H	1.24938	0.190612	0.641055
C	0.407309	1.88345	-0.439547
H	-0.522901	2.13331	-0.99308
H	0.549215	2.61879	0.378942
H	1.26294	1.9773	-1.14328
N	-0.700834	0.858876	2.27912
C	-1.7525	0.761607	3.26437
H	0.12266	1.36096	2.52202
H	-1.46686	1.29398	4.19831
H	-1.95689	-0.304073	3.51695
H	-2.69558	1.21195	2.87841
C	5162.92	1.63279	-0.764746
C	5164.25	1.58758	-0.117452
O	5164.73	2.58149	0.408552
H	5162.51	2.66101	-0.681242
H	5162.23	0.924334	-0.264328
H	5163.01	1.36683	-1.83923
N	5164.89	0.413543	-0.148264
C	5166.19	0.212652	0.438818
C	5166.81	-1.00932	-0.210142
O	5166.12	-1.77899	-0.882834
H	5164.5	-0.381287	-0.605326
H	5166.81	1.06357	0.204556
C	5166.09	0.0103579	1.96741
H	5165.44	-0.862966	2.20417
H	5167.09	-0.144457	2.42269
H	5165.63	0.911762	2.43076
N	5168.13	-1.20398	-0.0398362
C	5168.81	-2.33347	-0.63012
H	5168.67	-0.565927	0.502115
H	5169.89	-2.31888	-0.373992
H	5168.71	-2.31484	-1.73977
H	5168.37	-3.29057	-0.261217
