44
  This energy is 8.38331e-320 and Call times are: 16113
C	-0.869186	3.09207	-1.34526
C	-0.710263	2.16991	-0.198282
O	-0.85613	2.56005	0.95194
H	-1.11631	4.1082	-0.968072
H	-1.69155	2.74385	-2.00502
H	0.0746126	3.14467	-1.92787
N	-0.396546	0.906052	-0.492568
C	-0.209227	-0.107611	0.51452
C	0.617388	-1.22303	-0.0952262
O	0.789526	-1.28533	-1.31109
H	-0.251804	0.607277	-1.4321
H	0.358977	0.31219	1.33488
C	-1.56246	-0.661234	1.0139
H	-2.14304	-1.09052	0.169652
H	-1.4219	-1.44186	1.78956
H	-2.15894	0.16573	1.45717
N	1.16898	-2.12235	0.743205
C	1.98151	-3.2119	0.254475
H	1.0239	-2.0507	1.72456
H	2.34165	-3.84255	1.09699
H	2.86845	-2.82394	-0.296952
H	1.39722	-3.85658	-0.441346
C	770.572	-2.99733	-0.0447999
C	770.464	-1.54482	-0.309077
O	771.435	-0.89406	-0.670682
H	771.619	-3.3263	-0.222015
H	769.898	-3.56074	-0.724282
H	770.3	-3.21585	1.00938
N	769.261	-0.996166	-0.125139
C	768.999	0.404315	-0.34179
C	767.748	0.769593	0.432617
O	767.011	-0.104593	0.884234
H	768.485	-1.53131	0.197724
H	769.819	0.982621	0.0656851
C	768.805	0.714559	-1.84279
H	767.964	0.119098	-2.25773
H	768.603	1.79209	-2.01321
H	769.728	0.441488	-2.3991
N	767.491	2.07857	0.623183
C	766.329	2.52098	1.35849
H	768.103	2.77072	0.255964
H	766.292	3.63173	1.40461
H	766.35	2.12745	2.40057
H	765.394	2.15909	0.871772
