44
  This energy is 1.58363e-319 and Call times are: 42447
C	-0.970893	-1.00989	3.18804
C	-1.27295	-0.700586	1.77231
O	-2.37734	-0.926574	1.29719
H	-1.87126	-1.45167	3.66765
H	-0.692909	-0.0823494	3.73138
H	-0.135864	-1.73908	3.25089
N	-0.278009	-0.173053	1.05526
C	-0.418695	0.181355	-0.334502
C	0.968971	0.241392	-0.942792
O	1.96877	0.258228	-0.227279
H	0.625899	-0.0207188	1.446
H	-0.967335	-0.601042	-0.843348
C	-1.13004	1.54305	-0.498526
H	-0.564871	2.34327	0.0252582
H	-1.24015	1.81893	-1.56742
H	-2.14486	1.4863	-0.0479153
N	1.06223	0.253131	-2.2871
C	2.34191	0.29739	-2.95541
H	0.241702	0.231782	-2.84881
H	2.20885	0.302348	-4.05973
H	2.95941	-0.588338	-2.68078
H	2.90505	1.21403	-2.6659
C	2014.28	-0.375666	-3.40659
C	2014.78	-0.886802	-2.10998
O	2015.13	-2.05124	-1.98249
H	2014.29	-1.19853	-4.15403
H	2014.93	0.44715	-3.76948
H	2013.24	-0.00241674	-3.29653
N	2014.82	-0.0124179	-1.10171
C	2015.28	-0.360134	0.218872
C	2014.71	0.653919	1.19247
O	2014.21	1.70136	0.787977
H	2014.5	0.925852	-1.21064
H	2014.88	-1.3311	0.485793
C	2016.82	-0.36193	0.294213
H	2017.23	0.635475	0.0191317
H	2017.18	-0.629414	1.30966
H	2017.22	-1.10791	-0.424403
N	2014.75	0.353746	2.5054
C	2014.23	1.25304	3.50498
H	2015.16	-0.502138	2.81232
H	2014.36	0.829074	4.52472
H	2013.14	1.43147	3.33845
H	2014.75	2.23657	3.46341
