44
  This energy is 1.11466e-319 and Call times are: 29007
C	-2.21673	0.0559165	-2.68498
C	-1.21534	0.706289	-1.81009
O	-0.781391	1.8212	-2.06535
H	-2.4542	0.730529	-3.53608
H	-3.1484	-0.146049	-2.11575
H	-1.81376	-0.898523	-3.08449
N	-0.81665	0.00823937	-0.744189
C	0.151406	0.50729	0.19955
C	0.73967	-0.680639	0.935762
O	0.207308	-1.78706	0.870526
H	-1.15593	-0.911002	-0.563027
H	0.955145	0.989261	-0.342466
C	-0.495349	1.48742	1.20362
H	-1.3199	0.989902	1.75744
H	0.247291	1.87372	1.93166
H	-0.923527	2.35246	0.6518
N	1.87128	-0.481736	1.63996
C	2.51	-1.55654	2.36316
H	2.29076	0.419411	1.67462
H	3.42566	-1.19326	2.87973
H	2.80159	-2.37805	1.66937
H	1.82	-1.97972	3.12866
C	1379.76	0.572021	-3.20411
C	1380.81	0.0810082	-2.28257
O	1381.79	-0.526724	-2.70117
H	1380.03	0.289321	-4.24615
H	1379.68	1.67777	-3.14057
H	1378.78	0.117177	-2.94617
N	1380.63	0.333668	-0.984763
C	1381.56	-0.0799086	0.032816
C	1380.82	-0.107769	1.35743
O	1379.72	0.424742	1.47463
H	1379.81	0.804219	-0.653342
H	1381.89	-1.08857	-0.181274
C	1382.76	0.883213	0.115925
H	1382.42	1.91718	0.33501
H	1383.48	0.567621	0.898369
H	1383.3	0.895521	-0.860801
N	1381.41	-0.752758	2.38551
C	1380.77	-0.841421	3.68085
H	1382.3	-1.18349	2.26871
H	1381.41	-1.40913	4.39263
H	1379.79	-1.35917	3.60307
H	1380.6	0.174605	4.10216
