44
  This energy is 7.27413e-320 and Call times are: 114771
C	2.1121	-2.40845	1.36548
C	1.78369	-1.0045	1.0304
O	2.48063	-0.0801692	1.42584
H	3.02884	-2.43127	1.99391
H	2.29774	-2.98978	0.437895
H	1.27689	-2.87247	1.93123
N	0.692343	-0.812254	0.285844
C	0.244481	0.495521	-0.121551
C	-1.22716	0.395481	-0.472966
O	-1.76306	-0.700073	-0.629197
H	0.116538	-1.57146	-0.00568647
H	0.337276	1.1758	0.715518
C	1.04698	1.01163	-1.33677
H	0.95011	0.311033	-2.19344
H	0.704802	2.01846	-1.65299
H	2.1234	1.0793	-1.06682
N	-1.92272	1.5443	-0.584394
C	-3.33124	1.54686	-0.904177
H	-1.47265	2.42057	-0.447217
H	-3.72161	2.5873	-0.952579
H	-3.91047	0.990775	-0.131841
H	-3.51158	1.05844	-1.88912
C	5435.31	-1.86664	2.93834
C	5435.13	-0.5991	2.19554
O	5434.64	0.383176	2.73165
H	5434.93	-1.74159	3.976
H	5436.39	-2.13592	2.97879
H	5434.74	-2.68396	2.44483
N	5435.53	-0.596478	0.921225
C	5435.42	0.561146	0.0700828
C	5435.46	0.0863827	-1.36949
O	5435.81	-1.05717	-1.64491
H	5435.9	-1.41182	0.487536
H	5434.46	1.02941	0.236491
C	5436.56	1.56244	0.330043
H	5437.55	1.07856	0.159048
H	5436.48	2.45507	-0.323562
H	5436.53	1.90171	1.38814
N	5435.06	0.953075	-2.32418
C	5435.06	0.585639	-3.721
H	5434.77	1.87171	-2.08047
H	5434.7	1.43389	-4.3487
H	5434.38	-0.282827	-3.89484
H	5436.08	0.300185	-4.05833
