44
  This energy is 4.93522e-320 and Call times are: 26739
C	0.334731	-2.52929	-2.36998
C	0.910705	-1.51367	-1.46005
O	2.11828	-1.43828	-1.27955
H	1.15476	-3.14493	-2.79939
H	-0.214	-2.03361	-3.19824
H	-0.359085	-3.19325	-1.81256
N	0.0427055	-0.701022	-0.852964
C	0.450612	0.336821	0.0599016
C	-0.742061	0.689617	0.927257
O	-1.87241	0.311106	0.625822
H	-0.940716	-0.7914	-0.98582
H	1.22618	-0.0500601	0.708666
C	0.945871	1.58923	-0.697271
H	0.147985	1.9831	-1.36237
H	1.26088	2.39028	0.00262554
H	1.81884	1.31728	-1.32982
N	-0.512354	1.4093	2.04319
C	-1.58476	1.782	2.93606
H	0.410473	1.70005	2.27358
H	-1.19464	2.37223	3.79437
H	-2.09513	0.876307	3.33666
H	-2.34399	2.3986	2.40263
C	1269.82	-1.24352	-0.689601
C	1270.84	-0.71085	0.247972
O	1270.55	-0.448641	1.40792
H	1268.85	-1.33476	-0.163163
H	1270.13	-2.24622	-1.05515
H	1269.7	-0.556532	-1.55352
N	1272.06	-0.531374	-0.245437
C	1273.16	-0.0210834	0.543552
C	1274.2	0.533463	-0.407784
O	1274.15	0.277062	-1.60944
H	1272.28	-0.721293	-1.19995
H	1272.8	0.798858	1.15272
C	1273.78	-1.12677	1.42619
H	1274.14	-1.96664	0.798088
H	1274.62	-0.737233	2.03515
H	1273	-1.52555	2.11767
N	1275.16	1.32925	0.108557
C	1276.18	1.9124	-0.7225
H	1275.17	1.53067	1.08242
H	1276.88	2.53279	-0.113178
H	1275.73	2.56044	-1.50842
H	1276.78	1.11759	-1.22935
