44
  This energy is 5.11753e-320 and Call times are: 32619
C	-1.45857	0.756117	-3.07034
C	-0.369014	0.173299	-2.25524
O	0.531127	-0.473808	-2.77244
H	-1.29704	0.496228	-4.13909
H	-1.46484	1.86154	-2.96632
H	-2.43932	0.349038	-2.74573
N	-0.432155	0.389506	-0.939324
C	0.55415	-0.112844	-0.0164619
C	-0.0732257	-0.145916	1.36359
O	-1.12818	0.444148	1.58881
H	-1.18622	0.893596	-0.526753
H	0.804496	-1.1304	-0.288458
C	1.81767	0.776258	-0.00448572
H	1.5571	1.81957	0.274287
H	2.57924	0.392226	0.704948
H	2.26709	0.793157	-1.02128
N	0.554646	-0.859693	2.31873
C	0.0253882	-0.958362	3.65901
H	1.40363	-1.33604	2.11487
H	0.685133	-1.58676	4.29705
H	-0.990341	-1.41597	3.64761
H	-0.0556166	0.0503922	4.12487
C	1549.66	-2.5218	2.40105
C	1549.22	-1.20516	1.88883
O	1548.33	-0.574725	2.44697
H	1549.07	-2.78355	3.30293
H	1550.73	-2.48347	2.67809
H	1549.51	-3.30457	1.62884
N	1549.83	-0.757907	0.792565
C	1549.52	0.505016	0.176228
C	1549.99	0.454848	-1.26258
O	1550.76	-0.430773	-1.64134
H	1550.54	-1.29412	0.330302
H	1548.44	0.628003	0.162795
C	1550.19	1.67986	0.918516
H	1551.29	1.55013	0.930984
H	1549.95	2.65383	0.44665
H	1549.83	1.70497	1.97149
N	1549.53	1.39833	-2.10691
C	1549.92	1.42327	-3.49767
H	1548.91	2.10236	-1.7829
H	1549.44	2.27488	-4.02583
H	1549.62	0.479121	-4.00681
H	1551.02	1.531	-3.59499
