44
  This energy is 1.30764e-319 and Call times are: 23883
C	0.819315	-1.56623	3.0003
C	-0.167661	-1.12845	1.98766
O	-1.34011	-1.47039	2.05793
H	0.313314	-2.21038	3.75189
H	1.25402	-0.684774	3.51691
H	1.63162	-2.14852	2.51651
N	0.295722	-0.353655	1.00413
C	-0.54242	0.151594	-0.0537294
C	0.352239	0.52042	-1.22111
O	1.57003	0.609053	-1.07631
H	1.25889	-0.105928	0.94185
H	-1.20591	-0.637466	-0.384251
C	-1.34875	1.38587	0.408345
H	-0.665008	2.19313	0.747366
H	-1.9953	1.77737	-0.403733
H	-1.99915	1.10284	1.26451
N	-0.233396	0.723637	-2.41767
C	0.5394	1.06698	-3.5886
H	-1.21959	0.640191	-2.51607
H	-0.122702	1.19453	-4.47324
H	1.28094	0.267817	-3.81815
H	1.09606	2.01842	-3.42708
C	1134.98	-1.58478	1.03292
C	1136.41	-1.25943	1.20299
O	1137.02	-1.58443	2.21429
H	1134.61	-2.12467	1.93416
H	1134.83	-2.23397	0.143445
H	1134.38	-0.653474	0.908794
N	1136.99	-0.593787	0.201479
C	1138.38	-0.206675	0.220492
C	1138.56	0.932329	-0.764225
O	1137.68	1.1977	-1.58499
H	1136.48	-0.309173	-0.604428
H	1138.63	0.168108	1.20561
C	1139.3	-1.38868	-0.161086
H	1139.04	-1.77113	-1.17196
H	1140.37	-1.09412	-0.147295
H	1139.16	-2.21682	0.567077
N	1139.7	1.64942	-0.68973
C	1139.95	2.75958	-1.57831
H	1140.39	1.42352	-0.0139028
H	1140.94	3.21943	-1.36101
H	1139.17	3.54278	-1.46183
H	1139.95	2.42212	-2.64005
