44
  This energy is 1.07884e-319 and Call times are: 10989
C	0.252436	-0.0927676	-3.47186
C	-0.540751	-0.137483	-2.22283
O	-1.76376	-0.140763	-2.24996
H	-0.43668	-0.0591111	-4.34355
H	0.890152	-0.998088	-3.55269
H	0.89403	0.813383	-3.48572
N	0.151371	-0.167469	-1.08159
C	-0.478696	-0.212764	0.213703
C	0.525132	0.280398	1.2376
O	1.71515	0.390791	0.948636
H	1.14725	-0.134971	-1.07177
H	-1.31836	0.4706	0.220634
C	-0.937134	-1.64543	0.566428
H	-0.0733683	-2.34396	0.557744
H	-1.42285	-1.68388	1.56311
H	-1.67121	-1.99553	-0.191665
N	0.0612895	0.610762	2.45895
C	0.941128	1.10091	3.49424
H	-0.906283	0.521189	2.67112
H	0.371653	1.31518	4.42539
H	1.44647	2.03897	3.16877
H	1.72829	0.348556	3.72984
C	530.969	-1.2574	-0.710246
C	529.554	-1.01381	-1.07146
O	529.135	-1.2654	-2.19297
H	531.507	-1.66805	-1.59176
H	531.03	-1.98992	0.121871
H	531.454	-0.307385	-0.402769
N	528.777	-0.504348	-0.11313
C	527.379	-0.213121	-0.312557
C	526.959	0.794851	0.739272
O	527.677	1.02681	1.71021
H	529.136	-0.27649	0.787676
H	527.252	0.250747	-1.28239
C	526.517	-1.49005	-0.199602
H	526.651	-1.96371	0.796286
H	525.44	-1.26944	-0.352788
H	526.836	-2.2208	-0.974569
N	525.788	1.43642	0.557351
C	525.311	2.42141	1.50023
H	525.224	1.23997	-0.238499
H	524.331	2.83394	1.17612
H	526.035	3.26434	1.58695
H	525.185	1.96948	2.51068
