44
  This energy is 1.19183e-319 and Call times are: 23463
C	0.339864	-2.82952	2.00111
C	0.341408	-1.36142	1.81171
O	0.427038	-0.600631	2.76584
H	0.417945	-3.05999	3.08584
H	1.20488	-3.28417	1.47398
H	-0.602771	-3.26528	1.60804
N	0.23897	-0.925661	0.553939
C	0.226859	0.47379	0.210108
C	-0.407616	0.611408	-1.1602
O	-0.573602	-0.373139	-1.8778
H	0.1405	-1.55509	-0.212258
H	-0.398439	1.00437	0.916906
C	1.65554	1.06182	0.19554
H	2.29448	0.514744	-0.530116
H	1.64986	2.13928	-0.0686925
H	2.10974	0.953823	1.20459
N	-0.798773	1.84153	-1.54725
C	-1.42298	2.06719	-2.83007
H	-0.662264	2.62451	-0.94931
H	-1.66961	3.14359	-2.96346
H	-2.3647	1.47838	-2.91777
H	-0.744041	1.75782	-3.65742
C	1117.73	-1.05873	3.31318
C	1117.27	-1.10087	1.90822
O	1116.45	-1.9324	1.53655
H	1117.23	-1.86768	3.88942
H	1117.48	-0.0803616	3.77151
H	1118.83	-1.21128	3.35804
N	1117.79	-0.192241	1.08278
C	1117.44	-0.10701	-0.311893
C	1118.55	0.633451	-1.02932
O	1119.4	1.257	-0.396698
H	1118.48	0.461236	1.39097
H	1117.39	-1.10685	-0.724229
C	1116.1	0.631284	-0.508305
H	1116.15	1.6564	-0.0835608
H	1115.82	0.698563	-1.58105
H	1115.29	0.0795957	0.0229252
N	1118.58	0.562963	-2.3747
C	1119.61	1.22608	-3.14237
H	1117.89	0.0474039	-2.86802
H	1119.46	1.05104	-4.23089
H	1120.62	0.845773	-2.85963
H	1119.59	2.32466	-2.95812
