44
  This energy is 9.81708e-321 and Call times are: 7293
C	-0.502706	-0.151942	-3.44243
C	-0.546483	0.570692	-2.15127
O	-0.812823	1.76367	-2.1028
H	-0.733479	0.556258	-4.26769
H	-1.25455	-0.968956	-3.44926
H	0.508681	-0.57934	-3.60788
N	-0.275303	-0.14853	-1.05969
C	-0.278809	0.41336	0.267369
C	0.549126	-0.491749	1.15874
O	0.869675	-1.61874	0.78595
H	-0.0312017	-1.11305	-1.11501
H	0.205405	1.3813	0.240914
C	-1.71544	0.535961	0.822503
H	-2.20946	-0.45874	0.847627
H	-1.72182	0.968407	1.84413
H	-2.31195	1.20046	0.160105
N	0.934575	-0.00749988	2.35579
C	1.73482	-0.792714	3.26641
H	0.671062	0.909617	2.63631
H	1.94649	-0.221222	4.19692
H	2.70631	-1.06998	2.79676
H	1.20527	-1.73252	3.54485
C	351.81	2.32246	2.59465
C	352.164	1.90654	1.21871
O	352.664	2.69482	0.428624
H	352.067	3.39543	2.7314
H	352.378	1.71997	3.33431
H	350.721	2.18853	2.7673
N	351.9	0.638021	0.8965
C	352.187	0.0858656	-0.403269
C	351.32	-1.14405	-0.589062
O	350.737	-1.65253	0.366807
H	351.465	0.0135472	1.53972
H	351.905	0.805179	-1.16143
C	353.68	-0.291204	-0.536867
H	353.966	-1.02877	0.242846
H	353.904	-0.716534	-1.53655
H	354.304	0.617974	-0.397586
N	351.197	-1.63969	-1.83616
C	350.383	-2.80067	-2.11105
H	351.671	-1.20975	-2.59765
H	350.412	-3.05349	-3.19388
H	349.323	-2.61462	-1.82238
H	350.748	-3.68192	-1.53543
