44
  This energy is 1.53595e-319 and Call times are: 615
C	-2.44517	-1.93504	-1.55013
C	-1.30093	-0.997347	-1.60162
O	-0.777043	-0.696496	-2.66535
H	-2.68981	-2.27289	-2.5806
H	-3.3342	-1.43033	-1.11688
H	-2.18642	-2.8213	-0.93325
N	-0.878651	-0.512273	-0.431685
C	0.223059	0.409974	-0.319771
C	0.749125	0.337223	1.10051
O	0.0980304	-0.216518	1.98441
H	-1.29509	-0.787624	0.430695
H	1.01795	0.0905566	-0.981737
C	-0.216281	1.85388	-0.650275
H	-1.03229	2.17809	0.0302616
H	0.629648	2.56658	-0.565224
H	-0.600675	1.89355	-1.69278
N	1.95774	0.879452	1.34798
C	2.54456	0.84723	2.66737
H	2.4723	1.31679	0.617779
H	3.539	1.34557	2.66774
H	2.67904	-0.203675	3.01198
H	1.88992	1.37023	3.4016
C	39.2664	-2.75767	-2.10959
C	39.7693	-1.46951	-1.58145
O	40.8707	-1.04232	-1.8992
H	40.0327	-3.20402	-2.77998
H	38.333	-2.5955	-2.68862
H	39.0655	-3.46153	-1.27462
N	38.9606	-0.815528	-0.744422
C	39.3096	0.449503	-0.14886
C	38.4544	0.633143	1.0897
O	37.4751	-0.0831575	1.28927
H	38.0779	-1.18806	-0.470501
H	40.3443	0.415713	0.167927
C	39.0773	1.61771	-1.13294
H	38.0149	1.649	-1.4564
H	39.3452	2.59326	-0.677626
H	39.7085	1.47078	-2.03634
N	38.8202	1.58954	1.96577
C	38.0733	1.8289	3.17865
H	39.6199	2.15405	1.78986
H	38.5306	2.65591	3.76532
H	38.0556	0.915221	3.81593
H	37.0202	2.10627	2.94353
