44
  This energy is 4.12495e-320 and Call times are: 100533
C	-2.41776	-0.941522	-2.32253
C	-1.93964	-0.791061	-0.929698
O	-2.68211	-0.999452	0.0199368
H	-3.48699	-1.24567	-2.31297
H	-1.82703	-1.72133	-2.84765
H	-2.32304	0.0221016	-2.86604
N	-0.668254	-0.413519	-0.776686
C	-0.058918	-0.225249	0.515634
C	1.1507	0.670946	0.334282
O	1.60497	0.894621	-0.786182
H	-0.0818675	-0.218575	-1.5584
H	-0.757109	0.291359	1.16195
C	0.36734	-1.57346	1.13833
H	1.08306	-2.10106	0.472375
H	0.83676	-1.43217	2.13354
H	-0.527404	-2.2212	1.2649
N	1.68935	1.22497	1.43833
C	2.83508	2.10113	1.362
H	1.30291	1.03741	2.33539
H	3.12948	2.4527	2.37539
H	2.60666	2.99281	0.734327
H	3.7044	1.57274	0.907822
C	4759.15	2.02555	2.14348
C	4760.19	1.83469	1.10873
O	4760.73	2.79148	0.573589
H	4758.98	3.11341	2.30229
H	4759.47	1.56765	3.10158
H	4758.19	1.56131	1.81663
N	4760.49	0.572131	0.796161
C	4761.48	0.226351	-0.190659
C	4761.2	-1.18917	-0.656567
O	4760.43	-1.91603	-0.0312333
H	4760.02	-0.19847	1.21831
H	4761.37	0.881833	-1.04519
C	4762.91	0.321593	0.390115
H	4763.02	-0.35161	1.26698
H	4763.68	0.0561406	-0.367133
H	4763.1	1.36294	0.728846
N	4761.81	-1.60714	-1.78537
C	4761.59	-2.93477	-2.31169
H	4762.42	-1.00157	-2.28104
H	4762.18	-3.08844	-3.24392
H	4760.51	-3.09427	-2.54573
H	4761.9	-3.70661	-1.57063
