44
  This energy is 1.14519e-319 and Call times are: 11241
C	-2.71873	-1.6844	1.37749
C	-1.89521	-1.26978	0.219419
O	-2.10454	-1.71927	-0.898898
H	-3.48119	-2.42026	1.0413
H	-3.23648	-0.804226	1.81343
H	-2.07932	-2.15782	2.15206
N	-0.920382	-0.392347	0.468789
C	-0.0363871	0.105678	-0.554613
C	1.2136	0.630649	0.124494
O	1.23734	0.81805	1.33946
H	-0.741283	-0.0557515	1.38942
H	0.257807	-0.715653	-1.19566
C	-0.705346	1.22899	-1.37789
H	-1.00648	2.06965	-0.717048
H	-0.0274756	1.61464	-2.1669
H	-1.62027	0.83203	-1.8693
N	2.29443	0.860458	-0.646855
C	3.53256	1.34943	-0.0863922
H	2.25752	0.695833	-1.62704
H	4.30079	1.47627	-0.880739
H	3.9283	0.637093	0.67335
H	3.37697	2.3339	0.411409
C	540.469	3.36542	0.593387
C	540.715	2.09726	-0.129573
O	541.466	2.05422	-1.094
H	541.051	4.18129	0.111839
H	540.791	3.27094	1.65179
H	539.39	3.62387	0.557336
N	540.07	1.02056	0.325943
C	540.207	-0.283529	-0.27192
C	538.999	-1.10809	0.126898
O	538.254	-0.735147	1.0314
H	539.438	1.0744	1.09449
H	540.193	-0.179787	-1.34948
C	541.504	-0.982305	0.193425
H	541.515	-1.08649	1.29938
H	541.613	-1.98664	-0.265154
H	542.382	-0.367813	-0.103662
N	538.764	-2.24439	-0.558325
C	537.63	-3.08768	-0.257043
H	539.374	-2.52545	-1.29165
H	537.611	-3.97476	-0.92783
H	536.677	-2.52682	-0.38998
H	537.676	-3.44588	0.79689
