44
  This energy is 6.05527e-320 and Call times are: 9183
C	-2.99244	-0.120837	1.77674
C	-1.81491	0.611499	1.25876
O	-1.72734	1.82675	1.36831
H	-3.70415	0.602387	2.23093
H	-2.67826	-0.850909	2.55206
H	-3.50383	-0.657279	0.949908
N	-0.87118	-0.125182	0.667966
C	0.332211	0.443236	0.115173
C	0.891003	-0.540439	-0.894467
O	0.479655	-1.69834	-0.938063
H	-0.967683	-1.11095	0.55899
H	0.0801821	1.35231	-0.415995
C	1.37823	0.725935	1.21656
H	1.63397	-0.208677	1.75989
H	2.30603	1.16381	0.794388
H	0.956345	1.44682	1.95037
N	1.8321	-0.0925935	-1.74873
C	2.41336	-0.953932	-2.75193
H	2.14669	0.849799	-1.70218
H	3.16851	-0.402307	-3.35419
H	1.62802	-1.33897	-3.44202
H	2.91436	-1.82828	-2.27686
C	442.694	0.601138	-3.31149
C	441.736	0.126785	-2.28738
O	440.594	-0.191922	-2.58875
H	442.195	0.608891	-4.30508
H	443.573	-0.075712	-3.35584
H	443.032	1.63099	-3.07123
N	442.187	0.0749357	-1.03205
C	441.374	-0.365527	0.0733765
C	441.986	0.181421	1.34851
O	443.123	0.649769	1.34978
H	443.111	0.364941	-0.794905
H	440.384	0.0611979	-0.0259342
C	441.301	-1.90744	0.138254
H	442.318	-2.34192	0.239449
H	440.676	-2.25001	0.988202
H	440.852	-2.29575	-0.801984
N	441.232	0.153993	2.4652
C	441.726	0.663552	3.72313
H	440.312	-0.222546	2.44216
H	440.96	0.550434	4.52145
H	441.984	1.74386	3.63536
H	442.643	0.11413	4.03682
