44
  This energy is 4.90805e-320 and Call times are: 69285
C	3.30844	0.24564	1.05832
C	1.91443	-0.217612	1.24093
O	1.6138	-0.974264	2.15394
H	3.9512	-0.204542	1.84575
H	3.35819	1.35163	1.1427
H	3.6882	-0.0662559	0.0626053
N	1.02006	0.230303	0.356718
C	-0.374141	-0.13143	0.403525
C	-0.962171	0.100478	-0.974763
O	-0.350218	0.754159	-1.81741
H	1.28284	0.823115	-0.399891
H	-0.456229	-1.18848	0.62257
C	-1.13739	0.705333	1.45442
H	-1.05052	1.78925	1.22704
H	-2.21119	0.429256	1.4932
H	-0.696321	0.527526	2.45941
N	-2.16142	-0.452178	-1.2438
C	-2.79379	-0.294946	-2.53282
H	-2.63754	-0.983706	-0.55097
H	-3.77364	-0.82083	-2.5569
H	-2.15067	-0.714997	-3.33979
H	-2.96843	0.782459	-2.75616
C	3285.76	-2.84119	-1.90833
C	3285.38	-1.86087	-0.865593
O	3284.27	-1.87616	-0.356437
H	3284.9	-3.51533	-2.10808
H	3286.62	-3.45127	-1.56539
H	3286.03	-2.31535	-2.8482
N	3286.31	-0.968407	-0.524751
C	3286.09	0.0475469	0.473768
C	3287.1	1.15631	0.238186
O	3288.07	0.982361	-0.504878
H	3287.21	-0.947971	-0.967641
H	3285.11	0.467154	0.338549
C	3286.26	-0.522384	1.90074
H	3287.27	-0.952627	2.03578
H	3286.09	0.257211	2.67207
H	3285.51	-1.3344	2.06033
N	3286.89	2.33627	0.852901
C	3287.79	3.45322	0.678496
H	3286.1	2.45954	1.44467
H	3287.44	4.33183	1.2665
H	3287.84	3.74919	-0.394153
H	3288.81	3.18724	1.01677
