44
  This energy is 1.72478e-320 and Call times are: 86631
C	1.60186	0.948819	-2.94278
C	0.523425	1.10154	-1.94035
O	-0.255516	2.04361	-1.98781
H	1.55478	1.79315	-3.66441
H	1.47664	-0.00505515	-3.49709
H	2.59332	0.958104	-2.44292
N	0.458485	0.164349	-0.991758
C	-0.535096	0.176218	0.0520259
C	-0.0183199	-0.673202	1.19687
O	0.943291	-1.42302	1.03903
H	1.11688	-0.582268	-0.94691
H	-0.648275	1.18859	0.418579
C	-1.88688	-0.376894	-0.451828
H	-1.76698	-1.41537	-0.82775
H	-2.65426	-0.36904	0.349326
H	-2.25411	0.253232	-1.29101
N	-0.635779	-0.557835	2.38911
C	-0.205765	-1.31807	3.53946
H	-1.4077	0.0597439	2.49853
H	-0.839407	-1.08571	4.42363
H	0.85239	-1.08023	3.79438
H	-0.274594	-2.41129	3.33624
C	4105.66	1.17549	0.346104
C	4104.31	0.893487	0.891849
O	4104.07	1.02244	2.08466
H	4106.33	1.48905	1.17333
H	4105.61	1.9935	-0.402726
H	4106.08	0.264474	-0.131716
N	4103.39	0.489827	0.0152256
C	4102.04	0.177917	0.394272
C	4101.44	-0.711047	-0.682069
O	4102	-0.836525	-1.7707
H	4103.61	0.36064	-0.94921
H	4102.05	-0.387885	1.31717
C	4101.19	1.45904	0.551668
H	4101.17	2.03739	-0.396744
H	4100.14	1.22252	0.843636
H	4101.63	2.10218	1.34207
N	4100.3	-1.36923	-0.392255
C	4099.67	-2.24713	-1.35056
H	4099.87	-1.26008	0.496887
H	4098.75	-2.69281	-0.92578
H	4100.36	-3.07534	-1.63651
H	4099.4	-1.68897	-2.27568
