44
  This energy is 3.16004e-320 and Call times are: 119265
C	-0.483311	1.05062	-3.28462
C	0.332565	0.963711	-2.05255
O	1.48997	1.35925	-2.03112
H	0.126814	1.49965	-4.09824
H	-1.3743	1.68951	-3.10918
H	-0.811442	0.0374189	-3.59879
N	-0.262575	0.42918	-0.983698
C	0.401258	0.277578	0.286408
C	-0.33441	-0.790493	1.07206
O	-1.44685	-1.17681	0.718413
H	-1.19654	0.0839463	-1.02193
H	1.41032	-0.0757575	0.116071
C	0.413181	1.60504	1.07686
H	-0.623563	1.96499	1.24925
H	0.923713	1.49191	2.05529
H	0.953852	2.37943	0.490219
N	0.283795	-1.31022	2.15082
C	-0.334488	-2.34005	2.95292
H	1.18693	-0.989419	2.41663
H	0.329897	-2.6346	3.79499
H	-0.542768	-3.24522	2.33768
H	-1.30015	-1.9812	3.37708
C	5646.55	0.325931	-3.40628
C	5646.22	-0.190502	-2.0609
O	5645.16	-0.76676	-1.85239
H	5645.72	0.103609	-4.10571
H	5647.48	-0.162417	-3.78242
H	5646.71	1.42501	-3.36714
N	5647.12	0.0140528	-1.10205
C	5646.94	-0.429961	0.256349
C	5647.85	0.390584	1.14391
O	5648.75	1.07168	0.65847
H	5647.97	0.510514	-1.27785
H	5645.92	-0.225486	0.557169
C	5647.26	-1.93349	0.405747
H	5648.31	-2.1398	0.0956595
H	5647.12	-2.27873	1.45046
H	5646.58	-2.5235	-0.250246
N	5647.63	0.360928	2.47212
C	5648.44	1.11952	3.3939
H	5646.89	-0.190795	2.84494
H	5648.1	0.962297	4.44074
H	5648.38	2.2084	3.1657
H	5649.51	0.809574	3.3231
