44
  This energy is 6.53402e-320 and Call times are: 44967
C	2.95633	-1.44373	-1.141
C	1.47901	-1.3574	-1.10559
O	0.787957	-2.02733	-1.86066
H	3.26317	-2.1685	-1.92612
H	3.34284	-1.79163	-0.159981
H	3.39231	-0.450532	-1.37856
N	0.95562	-0.510968	-0.215649
C	-0.464172	-0.317444	-0.0621367
C	-0.681439	1.02329	0.612007
O	0.252616	1.61533	1.14947
H	1.52995	0.0507755	0.373863
H	-0.920926	-0.2705	-1.04257
C	-1.09757	-1.44558	0.782392
H	-0.626202	-1.49133	1.7873
H	-2.19078	-1.29975	0.902445
H	-0.930529	-2.42248	0.278493
N	-1.92336	1.54537	0.579432
C	-2.2223	2.82241	1.18441
H	-2.66434	1.05421	0.133394
H	-3.29705	3.07752	1.05367
H	-1.61137	3.62992	0.719714
H	-1.99662	2.80305	2.27522
C	2135.42	-1.79819	-2.76238
C	2134.34	-1.23546	-1.92993
O	2133.17	-1.28037	-2.29729
H	2134.99	-2.21785	-3.69656
H	2135.95	-2.609	-2.2124
H	2136.15	-1.00376	-3.02888
N	2134.7	-0.678736	-0.773179
C	2133.76	-0.0897267	0.14413
C	2134.52	0.869995	1.03973
O	2135.75	0.850159	1.08405
H	2135.66	-0.622374	-0.498585
H	2133.04	0.487072	-0.417351
C	2133.06	-1.16854	0.997236
H	2133.8	-1.75881	1.5714
H	2132.33	-0.71846	1.70455
H	2132.51	-1.86585	0.329475
N	2133.8	1.75216	1.76176
C	2134.44	2.71203	2.63314
H	2132.81	1.75714	1.70675
H	2133.68	3.34691	3.14058
H	2135.12	3.37627	2.05432
H	2135.04	2.19454	3.4141
