44
  This energy is 1.27316e-319 and Call times are: 116913
C	-1.37816	-1.32297	2.91145
C	-0.344734	-0.536211	2.20135
O	0.499434	0.100412	2.81664
H	-1.23521	-1.21179	4.0083
H	-1.29142	-2.39732	2.64485
H	-2.39097	-0.956176	2.64199
N	-0.394242	-0.559429	0.867418
C	0.542696	0.155342	0.0379143
C	-0.0903193	0.339827	-1.32755
O	-1.09249	-0.296901	-1.64702
H	-1.10455	-1.05836	0.378069
H	0.707201	1.13872	0.459792
C	1.87674	-0.612739	-0.0943437
H	1.7042	-1.62135	-0.526829
H	2.60054	-0.0650969	-0.732297
H	2.32974	-0.742382	0.912697
N	0.471492	1.23758	-2.16086
C	-0.0691505	1.48905	-3.4764
H	1.27795	1.74811	-1.88118
H	0.532801	2.25834	-4.00848
H	-1.11985	1.85288	-3.4064
H	-0.0663802	0.557336	-4.0872
C	5536.05	-0.17633	-3.20563
C	5536.8	-0.768231	-2.07419
O	5537.13	-1.94561	-2.08226
H	5535.87	-0.957486	-3.97596
H	5536.64	0.649867	-3.66129
H	5535.07	0.214042	-2.85474
N	5537.08	0.0492024	-1.05676
C	5537.8	-0.379986	0.114211
C	5537.49	0.592519	1.23544
O	5536.95	1.6715	1.00005
H	5536.78	0.998995	-1.04909
H	5537.44	-1.35466	0.41415
C	5539.33	-0.421079	-0.147292
H	5539.69	0.580277	-0.455429
H	5539.88	-0.751298	0.752258
H	5539.54	-1.13605	-0.971399
N	5537.81	0.220668	2.4912
C	5537.54	1.07627	3.6234
H	5538.24	-0.659568	2.66191
H	5537.88	0.594746	4.56848
H	5536.45	1.28823	3.70548
H	5538.08	2.04844	3.51685
