44
  This energy is 3.52071e-320 and Call times are: 62103
C	1.26855	2.25886	2.3269
C	0.901546	0.886267	1.91156
O	1.18569	-0.08139	2.60394
H	1.80735	2.21691	3.2984
H	0.355442	2.87867	2.44889
H	1.93203	2.72407	1.56775
N	0.256032	0.771255	0.748609
C	-0.167067	-0.497388	0.211617
C	-0.371949	-0.326489	-1.28105
O	-0.425606	0.794256	-1.78393
H	0.05605	1.56451	0.179666
H	0.624977	-1.22156	0.35414
C	-1.47567	-0.980964	0.875559
H	-2.28588	-0.235378	0.727988
H	-1.80422	-1.95763	0.464511
H	-1.31272	-1.10111	1.96879
N	-0.469826	-1.44226	-2.03036
C	-0.654009	-1.37764	-3.46148
H	-0.416799	-2.34007	-1.60567
H	-0.713212	-2.39949	-3.89688
H	0.194827	-0.84016	-3.94296
H	-1.59366	-0.834392	-3.71272
C	2944.07	3.08164	-1.4468
C	2945.02	2.0112	-1.07644
O	2946.18	2.03712	-1.46088
H	2944.58	3.82813	-2.088
H	2943.69	3.59082	-0.534859
H	2943.21	2.65426	-2.01122
N	2944.54	1.02715	-0.313057
C	2945.34	-0.0835641	0.129099
C	2944.41	-1.21868	0.498213
O	2943.2	-1.02002	0.637552
H	2943.58	1.00232	-0.0305129
H	2945.96	-0.420424	-0.69397
C	2946.22	0.302523	1.34436
H	2945.58	0.648258	2.18663
H	2946.84	-0.550389	1.6873
H	2946.9	1.13567	1.06135
N	2944.94	-2.44688	0.644369
C	2944.13	-3.59044	0.983263
H	2945.92	-2.58856	0.520416
H	2944.75	-4.50847	1.05988
H	2943.35	-3.76066	0.206818
H	2943.62	-3.43225	1.95957
