44
  This energy is 1.25596e-319 and Call times are: 123045
C	1.24074	-0.353796	-3.23443
C	1.05137	-0.84731	-1.85175
O	1.3894	-1.9787	-1.53209
H	1.70146	-1.15604	-3.85087
H	1.91165	0.530908	-3.23634
H	0.261993	-0.0760534	-3.67923
N	0.491478	0.00445794	-0.989562
C	0.242889	-0.330209	0.389942
C	-0.827873	0.608301	0.911388
O	-1.14171	1.61616	0.280871
H	0.193794	0.913304	-1.26942
H	-0.149089	-1.33802	0.442388
C	1.52567	-0.197787	1.24085
H	1.92546	0.837142	1.18423
H	1.33786	-0.454894	2.30358
H	2.30254	-0.889385	0.848016
N	-1.43161	0.284647	2.07188
C	-2.47069	1.1119	2.63947
H	-1.16857	-0.538939	2.56356
H	-2.8398	0.679041	3.59532
H	-3.33188	1.19754	1.93786
H	-2.0884	2.1382	2.84374
C	5824.65	0.188143	2.36685
C	5825.47	0.779992	1.28245
O	5825.19	1.87241	0.806758
H	5823.82	0.879564	2.61901
H	5825.28	0.0313266	3.27222
H	5824.23	-0.783423	2.03889
N	5826.51	0.0554202	0.858001
C	5827.39	0.497454	-0.189359
C	5828.09	-0.724102	-0.757508
O	5828.05	-1.80089	-0.165057
H	5826.7	-0.846052	1.2335
H	5826.8	0.940375	-0.983475
C	5828.44	1.50354	0.344245
H	5829.04	1.0461	1.15921
H	5829.12	1.84607	-0.459656
H	5827.91	2.39316	0.758712
N	5828.72	-0.588798	-1.93793
C	5829.4	-1.69993	-2.56152
H	5828.74	0.289067	-2.4053
H	5829.87	-1.38805	-3.52408
H	5828.69	-2.53109	-2.76786
H	5830.21	-2.09147	-1.89718
