44
  This energy is 1.07973e-319 and Call times are: 28881
C	-0.162916	-0.862598	3.36979
C	-0.115344	-1.22289	1.93483
O	-0.00284712	-2.38774	1.57851
H	-0.0756843	-1.78556	3.9833
H	-1.1257	-0.363045	3.60709
H	0.677952	-0.182652	3.6219
N	-0.195589	-0.211886	1.06661
C	-0.163462	-0.403468	-0.36136
C	0.245858	0.910165	-0.998592
O	0.238868	1.95351	-0.348036
H	-0.25767	0.735341	1.36966
H	0.596573	-1.13625	-0.601047
C	-1.54126	-0.848825	-0.900285
H	-2.31871	-0.0951177	-0.652054
H	-1.52004	-0.997401	-1.99949
H	-1.83022	-1.81149	-0.424977
N	0.635138	0.884698	-2.28848
C	1.05339	2.08446	-2.97537
H	0.640697	0.0292286	-2.7958
H	1.33324	1.85779	-4.02777
H	1.93477	2.54024	-2.46874
H	0.232917	2.83806	-2.98519
C	1372.03	1.68428	-0.697062
C	1373.46	1.66915	-0.295475
O	1374.09	2.7086	-0.167503
H	1371.7	2.7358	-0.846873
H	1371.41	1.22193	0.0951196
H	1371.9	1.1265	-1.64753
N	1374	0.468036	-0.0905376
C	1375.38	0.291046	0.304306
C	1375.79	-1.12329	-0.0571507
O	1374.94	-1.96606	-0.35468
H	1373.49	-0.372604	-0.226358
H	1376	0.969681	-0.267197
C	1375.56	0.526818	1.82003
H	1374.92	-0.170584	2.40328
H	1376.62	0.391495	2.12744
H	1375.26	1.56586	2.07209
N	1377.1	-1.41077	-0.0606034
C	1377.59	-2.72735	-0.403391
H	1377.77	-0.713121	0.176144
H	1378.7	-2.76454	-0.346489
H	1377.28	-3.00208	-1.43845
H	1377.18	-3.49212	0.293733
