44
  This energy is 5.78501e-320 and Call times are: 38709
C	1.87505	-1.6019	2.4585
C	0.619196	-1.40745	1.69941
O	-0.330134	-2.16564	1.84228
H	1.77548	-2.49706	3.11014
H	2.07867	-0.715076	3.09482
H	2.72415	-1.75828	1.76028
N	0.589646	-0.372026	0.857156
C	-0.560992	-0.0535945	0.0500252
C	-0.0925888	0.798695	-1.11335
O	1.02654	1.30798	-1.10896
H	1.37984	0.22117	0.728157
H	-0.969716	-0.969759	-0.356989
C	-1.62944	0.70534	0.868286
H	-1.20656	1.64434	1.28491
H	-2.51687	0.951961	0.249876
H	-1.96344	0.0709194	1.71805
N	-0.936034	0.955872	-2.15253
C	-0.571845	1.74027	-3.30936
H	-1.83467	0.529796	-2.14036
H	-1.39859	1.75087	-4.05343
H	0.335615	1.31919	-3.79972
H	-0.349659	2.79209	-3.01698
C	1836.76	-3.1322	-1.51537
C	1836.43	-2.2061	-0.408523
O	1835.67	-2.53698	0.48658
H	1836.21	-4.08771	-1.37054
H	1837.85	-3.34267	-1.5266
H	1836.46	-2.68865	-2.48794
N	1837.01	-1.00292	-0.450499
C	1836.79	0.00585904	0.554466
C	1837.14	1.35079	-0.0490374
O	1837.77	1.42031	-1.10357
H	1837.61	-0.734922	-1.20047
H	1835.73	0.0260555	0.806326
C	1837.65	-0.255184	1.81256
H	1838.73	-0.275925	1.55044
H	1837.48	0.519636	2.58847
H	1837.38	-1.24378	2.24445
N	1836.73	2.45641	0.599393
C	1837.01	3.77982	0.0937118
H	1836.21	2.37918	1.44765
H	1836.58	4.55659	0.768074
H	1836.56	3.91576	-0.919256
H	1838.11	3.94506	0.0145287
