44
  This energy is 1.32088e-319 and Call times are: 35601
C	-0.610016	-0.390108	-3.40615
C	0.0217735	0.317253	-2.26962
O	0.834445	1.21266	-2.45482
H	-0.217984	0.0242528	-4.36033
H	-1.71119	-0.250393	-3.37924
H	-0.374063	-1.4742	-3.36125
N	-0.340615	-0.0809782	-1.04796
C	0.186617	0.51094	0.155568
C	-0.0120295	-0.478639	1.28716
O	-0.757798	-1.44681	1.15189
H	-0.981743	-0.831239	-0.910122
H	1.25165	0.66359	0.0352503
C	-0.522746	1.84351	0.484477
H	-1.61525	1.68335	0.606587
H	-0.119106	2.30206	1.41053
H	-0.370731	2.55931	-0.352579
N	0.672419	-0.268387	2.4288
C	0.555711	-1.16428	3.55571
H	1.27647	0.516925	2.5162
H	1.19424	-0.820535	4.39914
H	0.872795	-2.19429	3.27324
H	-0.498907	-1.21307	3.91149
C	1694.03	-1.93548	-1.72436
C	1692.64	-1.65098	-1.28025
O	1691.7	-2.29984	-1.70403
H	1694.01	-2.77374	-2.45442
H	1694.65	-2.22536	-0.856203
H	1694.46	-1.03967	-2.21389
N	1692.49	-0.653018	-0.405983
C	1691.21	-0.257957	0.118537
C	1691.33	1.16368	0.631193
O	1692.44	1.68048	0.79014
H	1693.27	-0.112898	-0.0905202
H	1690.49	-0.255306	-0.686659
C	1690.76	-1.19615	1.25882
H	1691.5	-1.19697	2.08286
H	1689.77	-0.894906	1.66489
H	1690.67	-2.2345	0.870749
N	1690.2	1.83921	0.882255
C	1690.22	3.20154	1.36167
H	1689.31	1.40596	0.740537
H	1689.18	3.58142	1.50939
H	1690.73	3.86707	0.632911
H	1690.76	3.2684	2.33373
