44
  This energy is 9.86699e-320 and Call times are: 102801
C	-1.20789	-2.48756	-2.11641
C	-0.118324	-1.85734	-1.33738
O	0.969586	-2.40329	-1.21537
H	-0.856789	-3.46396	-2.51546
H	-1.49714	-1.83489	-2.9668
H	-2.09167	-2.66153	-1.46709
N	-0.394688	-0.676362	-0.779461
C	0.562566	0.0596207	0.00719174
C	-0.203393	1.03169	0.883339
O	-1.39013	1.27095	0.668282
H	-1.2942	-0.255613	-0.861869
H	1.08584	-0.628546	0.658874
C	1.55877	0.825854	-0.891464
H	1.01853	1.53043	-1.55917
H	2.29736	1.39353	-0.288964
H	2.11262	0.102782	-1.52908
N	0.456869	1.60069	1.9111
C	-0.193766	2.52947	2.80565
H	1.41506	1.38873	2.0729
H	0.515488	2.88853	3.58365
H	-1.05727	2.04426	3.31572
H	-0.576006	3.41302	2.24493
C	4865.9	-0.65963	-1.45321
C	4867.37	-0.445066	-1.54489
O	4867.97	-0.618724	-2.59667
H	4865.52	-0.985173	-2.44351
H	4865.4	0.283935	-1.162
H	4865.68	-1.44684	-0.70316
N	4867.98	-0.0617508	-0.423402
C	4869.4	0.186591	-0.354818
C	4869.82	0.0825343	1.09803
O	4868.98	0.0769154	1.99703
H	4867.49	0.0481293	0.434218
H	4869.92	-0.587863	-0.90441
C	4869.75	1.58352	-0.911943
H	4869.22	2.37557	-0.346274
H	4870.84	1.77796	-0.860776
H	4869.44	1.64735	-1.97634
N	4871.14	-0.0248005	1.36055
C	4871.63	-0.140686	2.71284
H	4871.8	-0.0255556	0.618838
H	4872.74	-0.216396	2.72097
H	4871.22	-1.04806	3.20698
H	4871.34	0.747747	3.3167
