44
  This energy is 1.59e-319 and Call times are: 12921
C	-1.64997	-3.02213	0.52006
C	-1.35253	-1.62067	0.892412
O	-1.97367	-1.05738	1.78313
H	-2.47805	-3.40336	1.15631
H	-0.753688	-3.65828	0.677557
H	-1.95994	-3.07783	-0.544722
N	-0.382668	-1.01668	0.201812
C	0.0209152	0.344663	0.448171
C	0.724663	0.854136	-0.794573
O	1.08838	0.0761633	-1.67452
H	0.0961436	-1.47684	-0.541106
H	-0.862701	0.951963	0.598111
C	0.963093	0.439879	1.66897
H	1.8682	-0.184846	1.51205
H	1.27566	1.48677	1.86159
H	0.436273	0.0626442	2.57246
N	0.91394	2.18379	-0.904987
C	1.56405	2.7613	-2.05825
H	0.606019	2.79753	-0.185447
H	1.62668	3.86763	-1.96145
H	0.999243	2.52229	-2.98837
H	2.59738	2.35989	-2.16904
C	620.523	-2.17752	2.61953
C	620.163	-1.91332	1.20815
O	620.125	-2.81763	0.385197
H	620.734	-3.26134	2.74797
H	619.683	-1.89358	3.28798
H	621.429	-1.5991	2.89849
N	619.893	-0.644553	0.892589
C	619.527	-0.231034	-0.438668
C	619.804	1.25523	-0.557158
O	620.018	1.93648	0.443699
H	619.956	0.0875801	1.56561
H	620.162	-0.74136	-1.15225
C	618.037	-0.51932	-0.728043
H	617.389	0.00520581	0.00626026
H	617.753	-0.202273	-1.75233
H	617.848	-1.61107	-0.636871
N	619.826	1.7902	-1.79381
C	620.092	3.19398	-2.00511
H	619.657	1.22091	-2.59168
H	620.066	3.44044	-3.08945
H	621.097	3.46738	-1.6082
H	619.333	3.82091	-1.48415
