44
  This energy is 8.30574e-320 and Call times are: 22119
C	-0.326752	-2.99009	1.75464
C	-0.552309	-2.15415	0.553998
O	-1.03071	-2.62922	-0.466755
H	-0.647434	-4.03298	1.54159
H	-0.918401	-2.5997	2.60926
H	0.750909	-2.993	2.02219
N	-0.200759	-0.869871	0.651017
C	-0.359275	0.067852	-0.431746
C	0.581064	1.23093	-0.182239
O	1.11406	1.3841	0.915162
H	0.214952	-0.50149	1.47831
H	-0.0564617	-0.40752	-1.35608
C	-1.81589	0.573755	-0.529027
H	-2.12347	1.06026	0.42114
H	-1.94151	1.29587	-1.36182
H	-2.49478	-0.287782	-0.710681
N	0.824087	2.06959	-1.20869
C	1.71485	3.19783	-1.068
H	0.388667	1.92462	-2.09108
H	1.78222	3.76694	-2.02132
H	2.73865	2.85778	-0.789729
H	1.35217	3.88815	-0.272318
C	1055.21	-2.07068	-2.47304
C	1054.66	-1.85171	-1.11895
O	1054.4	-2.79292	-0.38174
H	1055.32	-3.16219	-2.65262
H	1056.21	-1.58955	-2.55935
H	1054.53	-1.64746	-3.24031
N	1054.45	-0.582154	-0.759907
C	1053.92	-0.20974	0.525194
C	1053.34	1.18842	0.403329
O	1053.6	1.89218	-0.5707
H	1054.64	0.174538	-1.38045
H	1053.1	-0.878827	0.77465
C	1055.01	-0.243003	1.61972
H	1055.84	0.444017	1.36027
H	1054.6	0.0430849	2.61055
H	1055.42	-1.27216	1.69829
N	1052.53	1.61643	1.38563
C	1051.92	2.92856	1.34917
H	1052.32	1.02934	2.16206
H	1051.29	3.09401	2.24621
H	1051.29	3.04359	0.44188
H	1052.71	3.72032	1.32414
