44
  This energy is 3.07309e-321 and Call times are: 118257
C	3.17294	-1.42734	-0.145878
C	1.83357	-1.29216	0.469761
O	1.46682	-2.04819	1.35881
H	3.70873	-2.28055	0.324043
H	3.76291	-0.50046	0.0142483
H	3.07597	-1.61988	-1.23513
N	1.0599	-0.31211	-0.00279775
C	-0.267798	-0.0552849	0.495293
C	-1.01989	0.726172	-0.564388
O	-0.422331	1.24457	-1.50568
H	1.35899	0.278735	-0.747366
H	-0.780245	-0.998825	0.633868
C	-0.227933	0.744204	1.81679
H	0.299049	1.71126	1.67116
H	-1.24859	0.943567	2.20318
H	0.326627	0.161618	2.58438
N	-2.35964	0.81017	-0.446038
C	-3.16045	1.52337	-1.41363
H	-2.82548	0.377795	0.318995
H	-4.23795	1.47981	-1.14098
H	-3.03753	1.08027	-2.42842
H	-2.85461	2.59343	-1.46477
C	5602.21	-1.74607	0.0664389
C	5600.88	-1.46599	-0.521245
O	5600.53	-1.98602	-1.57194
H	5602.76	-2.45145	-0.592388
H	5602.1	-2.20689	1.07008
H	5602.8	-0.806323	0.156189
N	5600.1	-0.618391	0.153642
C	5598.78	-0.247846	-0.290959
C	5598.42	1.06205	0.37908
O	5599.07	1.48713	1.32898
H	5600.41	-0.178749	0.993353
H	5598.81	-0.0752837	-1.35947
C	5597.74	-1.33506	0.0636527
H	5597.72	-1.51002	1.16048
H	5596.73	-1.05302	-0.277395
H	5598.02	-2.28981	-0.432222
N	5597.37	1.74614	-0.117909
C	5596.95	3.00854	0.447775
H	5596.85	1.38898	-0.89164
H	5596.07	3.41287	-0.0974668
H	5597.78	3.75644	0.386495
H	5596.67	2.88674	1.52006
