44
  This energy is 1.56243e-319 and Call times are: 18843
C	1.06297	2.01316	-2.63503
C	0.0797367	1.64821	-1.5904
O	-0.886698	2.36028	-1.35493
H	0.7631	2.9769	-3.10102
H	1.09552	1.22902	-3.42045
H	2.07229	2.12927	-2.187
N	0.313108	0.513454	-0.926893
C	-0.553001	0.0259006	0.116647
C	0.245195	-0.938933	0.971759
O	1.32717	-1.37556	0.583797
H	1.11962	-0.0430301	-1.10802
H	-0.848043	0.856214	0.745616
C	-1.79405	-0.684432	-0.468459
H	-1.4877	-1.53527	-1.1137
H	-2.46317	-1.06095	0.33234
H	-2.36953	0.0325611	-1.09367
N	-0.263813	-1.27822	2.17251
C	0.431219	-2.18124	3.06001
H	-1.13744	-0.908643	2.47153
H	-0.148924	-2.33659	3.99625
H	1.43169	-1.77296	3.33131
H	0.582998	-3.17171	2.57305
C	899.966	-1.62985	-2.84801
C	899.258	-0.51028	-2.1868
O	898.883	0.465001	-2.82309
H	900.074	-1.40671	-3.93163
H	899.387	-2.57031	-2.73112
H	900.975	-1.75982	-2.40466
N	899.063	-0.626668	-0.871267
C	898.39	0.379401	-0.0889687
C	898.796	0.191737	1.35987
O	899.362	-0.836539	1.72589
H	899.398	-1.41277	-0.359203
H	898.733	1.35702	-0.402809
C	896.855	0.268013	-0.229319
H	896.507	-0.736352	0.0928591
H	896.334	1.04131	0.37165
H	896.571	0.406097	-1.29524
N	898.534	1.19726	2.21784
C	898.894	1.11295	3.61384
H	898.081	2.02431	1.90084
H	898.594	2.03751	4.15427
H	899.995	0.982493	3.72792
H	898.392	0.24456	4.09803
