44
  This energy is 2.98564e-320 and Call times are: 80835
C	-0.886037	-0.883635	-3.24965
C	-0.193031	-0.0017195	-2.28365
O	0.554744	0.888709	-2.66373
H	-0.600235	-0.592082	-4.28366
H	-1.98619	-0.782569	-3.13891
H	-0.593439	-1.94135	-3.08061
N	-0.426702	-0.238915	-0.990781
C	0.173893	0.534222	0.0667501
C	0.124645	-0.294602	1.33555
O	-0.581037	-1.29923	1.40313
H	-1.01518	-0.985939	-0.693141
H	1.21537	0.708093	-0.172354
C	-0.5693	1.87233	0.27709
H	-1.63757	1.69026	0.521552
H	-0.109356	2.47022	1.09058
H	-0.527017	2.46958	-0.659741
N	0.895211	0.0980765	2.36901
C	0.922415	-0.635651	3.61283
H	1.4648	0.909813	2.29226
H	1.61452	-0.15416	4.33837
H	1.26435	-1.68247	3.44405
H	-0.0932263	-0.673529	4.06914
C	3831.27	0.83631	3.13215
C	3831.45	0.497872	1.70237
O	3832.55	0.56734	1.16938
H	3832.25	1.1412	3.56337
H	3830.89	-0.0461139	3.6894
H	3830.55	1.67685	3.23924
N	3830.35	0.123455	1.03904
C	3830.37	-0.236763	-0.356246
C	3828.96	-0.093204	-0.890104
O	3828.01	0.0275366	-0.122585
H	3829.46	0.0988766	1.47716
H	3831	0.46307	-0.89341
C	3830.87	-1.68484	-0.557858
H	3830.22	-2.40007	-0.00490226
H	3830.88	-1.96543	-1.63111
H	3831.9	-1.77717	-0.161689
N	3828.79	-0.081194	-2.22758
C	3827.49	0.0630073	-2.8271
H	3829.58	-0.173027	-2.832
H	3827.56	0.0475469	-3.93692
H	3827.02	1.02576	-2.52004
H	3826.82	-0.765936	-2.5082
