44
  This energy is 7.3102e-320 and Call times are: 76299
C	-1.23414	2.64197	1.90342
C	-0.141101	1.96652	1.16842
O	0.933542	2.52088	0.983181
H	-0.898824	3.65684	2.20912
H	-1.4993	2.06214	2.81244
H	-2.12919	2.73975	1.25359
N	-0.399336	0.735229	0.721646
C	0.563566	-0.0488498	-0.00970156
C	-0.192364	-1.1102	-0.785164
O	-1.37112	-1.35283	-0.533161
H	-1.28874	0.305743	0.853676
H	1.06433	0.588689	-0.727234
C	1.58646	-0.711949	0.939564
H	1.06927	-1.36474	1.67475
H	2.32946	-1.31633	0.379702
H	2.13268	0.0759654	1.50257
N	0.467204	-1.7554	-1.76735
C	-0.174568	-2.773	-2.5666
H	1.4187	-1.53974	-1.9607
H	0.532594	-3.18588	-3.3194
H	-1.05419	-2.35245	-3.10571
H	-0.531342	-3.61042	-1.92425
C	3618.09	3.18143	-0.767135
C	3617.25	2.26452	0.0365223
O	3616.65	2.66043	1.02597
H	3618.06	4.19677	-0.315343
H	3617.71	3.23979	-1.80704
H	3619.14	2.8243	-0.781754
N	3617.2	0.99603	-0.376093
C	3616.42	-0.0132908	0.301284
C	3616.98	-1.36818	-0.0880449
O	3617.75	-1.47995	-1.03681
H	3617.71	0.679303	-1.16682
H	3616.55	0.101509	1.36988
C	3614.93	0.0744963	-0.0794847
H	3614.8	-0.0430105	-1.17648
H	3614.33	-0.701169	0.44044
H	3614.53	1.07197	0.209778
N	3616.61	-2.43174	0.654446
C	3617.11	-3.75917	0.365999
H	3615.99	-2.31964	1.42262
H	3616.69	-4.49743	1.08658
H	3618.22	-3.79052	0.434473
H	3616.81	-4.07101	-0.663076
