44
  This energy is 1.9402e-320 and Call times are: 7629
C	1.81576	-2.92444	-0.526113
C	0.690284	-2.01646	-0.842449
O	-0.035628	-2.22062	-1.80571
H	1.85359	-3.73941	-1.28126
H	1.67445	-3.37286	0.479752
H	2.77581	-2.36707	-0.550443
N	0.522904	-0.972966	-0.0266815
C	-0.527543	-0.00249936	-0.204399
C	-0.121831	1.26241	0.526791
O	0.80788	1.25264	1.33139
H	1.13873	-0.801383	0.737681
H	-0.610064	0.237969	-1.25675
C	-1.87429	-0.524494	0.344148
H	-1.78586	-0.770841	1.42378
H	-2.68537	0.220227	0.208779
H	-2.15976	-1.45181	-0.198747
N	-0.800602	2.39207	0.245481
C	-0.477172	3.64675	0.883734
H	-1.54511	2.381	-0.413923
H	-1.14828	4.45658	0.521756
H	0.575185	3.93937	0.664288
H	-0.58969	3.56591	1.98917
C	368.004	3.05243	1.66354
C	367.625	2.23159	0.491458
O	366.98	2.70792	-0.432391
H	367.608	4.08313	1.53354
H	369.109	3.10088	1.75527
H	367.575	2.61706	2.59064
N	368.019	0.95639	0.507885
C	367.727	0.0338802	-0.560069
C	367.843	-1.37263	-0.00552815
O	368.379	-1.57734	1.08199
H	368.519	0.572608	1.27971
H	366.703	0.17814	-0.879387
C	368.701	0.219476	-1.74557
H	369.751	0.0714394	-1.41429
H	368.479	-0.489191	-2.56972
H	368.607	1.25398	-2.142
N	367.321	-2.37747	-0.735578
C	367.374	-3.74779	-0.282143
H	366.885	-2.19057	-1.60978
H	366.892	-4.42549	-1.02147
H	366.845	-3.85996	0.692023
H	368.429	-4.07484	-0.141566
