44
  This energy is 8.23113e-321 and Call times are: 112293
C	-1.20577	0.520101	-3.22517
C	-0.972269	0.970355	-1.83451
O	-1.2075	2.12167	-1.49447
H	-1.59315	1.37105	-3.82658
H	-1.95318	-0.300842	-3.2411
H	-0.256047	0.163729	-3.67679
N	-0.490418	0.0569041	-0.988461
C	-0.212152	0.343729	0.396143
C	0.770571	-0.695843	0.898918
O	0.992599	-1.71653	0.25028
H	-0.27543	-0.869885	-1.28473
H	0.268493	1.31134	0.465325
C	-1.5012	0.31173	1.24729
H	-1.99206	-0.682116	1.17348
H	-1.29057	0.532314	2.31395
H	-2.21324	1.07686	0.868192
N	1.40146	-0.447927	2.06361
C	2.36261	-1.37467	2.61453
H	1.21346	0.387143	2.57012
H	2.76948	-0.993424	3.577
H	3.21231	-1.52472	1.90973
H	1.8901	-2.36608	2.80168
C	5314.69	-0.353692	2.1594
C	5316.09	0.0374529	1.88108
O	5316.77	0.612509	2.72341
H	5314.42	-0.036068	3.18938
H	5314.58	-1.45562	2.08175
H	5314.01	0.139006	1.43829
N	5316.56	-0.266522	0.669393
C	5317.9	0.0489038	0.25081
C	5317.93	0.0523723	-1.26528
O	5317	-0.426727	-1.91139
H	5315.99	-0.709085	-0.018213
H	5318.15	1.04796	0.586431
C	5318.92	-0.978801	0.797643
H	5318.66	-2.00269	0.451955
H	5319.96	-0.738833	0.47735
H	5318.89	-0.972477	1.90904
N	5319	0.616297	-1.8705
C	5319.1	0.67633	-3.30967
H	5319.73	1.005	-1.33014
H	5320.05	1.1754	-3.61341
H	5318.25	1.24792	-3.74326
H	5319.09	-0.347899	-3.74782
