44
  This energy is 1.424e-319 and Call times are: 30141
C	-1.01504	0.774899	-3.23965
C	-0.0560666	0.876935	-2.11664
O	1.02522	1.43165	-2.25661
H	-0.577317	1.25592	-4.14125
H	-1.9632	1.29164	-2.98122
H	-1.22568	-0.291228	-3.46757
N	-0.436515	0.328719	-0.960313
C	0.387082	0.34773	0.222123
C	-0.0864521	-0.764378	1.13767
O	-1.164	-1.32345	0.942316
H	-1.3077	-0.145907	-0.867025
H	1.40994	0.13009	-0.0579901
C	0.297086	1.7084	0.948485
H	-0.753687	1.9288	1.23381
H	0.930171	1.72654	1.85934
H	0.645571	2.51472	0.266911
N	0.72381	-1.12699	2.15156
C	0.361893	-2.18383	3.06714
H	1.59507	-0.667284	2.28874
H	1.15666	-2.3315	3.8312
H	0.21771	-3.14429	2.52127
H	-0.589295	-1.93954	3.59321
C	1433.92	-2.35644	-2.32675
C	1434.79	-1.22281	-1.92655
O	1435.69	-0.830969	-2.65022
H	1434.25	-2.73475	-3.31959
H	1432.87	-2.02501	-2.39901
H	1434	-3.17877	-1.58484
N	1434.52	-0.666764	-0.741554
C	1435.28	0.443946	-0.21538
C	1435.08	0.471332	1.28757
O	1434.19	-0.192774	1.81602
H	1433.8	-1.0138	-0.148279
H	1436.33	0.276923	-0.404761
C	1434.82	1.78099	-0.83689
H	1433.73	1.94883	-0.641287
H	1435.39	2.63832	-0.434056
H	1434.96	1.74772	-1.93806
N	1435.92	1.22857	2.01617
C	1435.82	1.30696	3.45453
H	1436.64	1.75311	1.57062
H	1436.6	1.98112	3.87001
H	1435.94	0.299559	3.91323
H	1434.82	1.70012	3.75453
