44
  This energy is 7.6931e-320 and Call times are: 39423
C	0.665658	-3.39179	0.42285
C	1.1072	-1.98457	0.296487
O	2.27573	-1.66979	0.475231
H	1.53672	-4.0271	0.693938
H	0.246368	-3.74922	-0.541132
H	-0.105409	-3.48129	1.21682
N	0.163649	-1.09262	-0.0141627
C	0.438614	0.313178	-0.172118
C	-0.866396	1.06555	0.00146763
O	-1.9423	0.470661	-0.0177916
H	-0.790183	-1.35726	-0.128639
H	1.10907	0.631309	0.616139
C	1.0453	0.615133	-1.56059
H	0.355187	0.286893	-2.36689
H	1.25839	1.69669	-1.68552
H	2.00009	0.0572279	-1.67576
N	-0.798942	2.39703	0.197961
C	-1.98861	3.19449	0.384811
H	0.0816432	2.85901	0.217409
H	-1.72542	4.26553	0.529251
H	-2.55644	2.84944	1.2791
H	-2.65869	3.11448	-0.501631
C	1870.28	2.86353	1.88341
C	1871.21	1.8731	1.28434
O	1872.42	2.03419	1.32192
H	1870.87	3.69808	2.32039
H	1869.68	2.38904	2.68739
H	1869.6	3.27241	1.10645
N	1870.64	0.81182	0.703775
C	1871.41	-0.236746	0.0783462
C	1870.5	-0.962651	-0.892837
O	1869.28	-0.79663	-0.856621
H	1869.65	0.70653	0.65411
H	1872.21	0.208177	-0.494305
C	1871.97	-1.22694	1.12506
H	1871.14	-1.68101	1.71116
H	1872.56	-2.03554	0.646902
H	1872.63	-0.682717	1.83114
N	1871.07	-1.77255	-1.80316
C	1870.29	-2.49549	-2.77562
H	1872.06	-1.88814	-1.8209
H	1870.94	-3.1078	-3.43391
H	1869.71	-1.79056	-3.4152
H	1869.56	-3.17566	-2.26954
