44
  This energy is 3.05382e-320 and Call times are: 49713
C	0.993692	3.31454	-0.39059
C	-0.0533594	2.27424	-0.278011
O	-1.23663	2.5739	-0.196924
H	0.516625	4.31859	-0.378792
H	1.55257	3.1934	-1.34233
H	1.69914	3.24175	0.463801
N	0.368227	1.00757	-0.264594
C	-0.530386	-0.114241	-0.160396
C	0.265232	-1.30345	0.341606
O	1.4946	-1.28154	0.343809
H	1.33701	0.777376	-0.301959
H	-1.28876	0.109914	0.57899
C	-1.17736	-0.445234	-1.52384
H	-0.396493	-0.674031	-2.28016
H	-1.87	-1.30846	-1.44718
H	-1.75623	0.434162	-1.88122
N	-0.423044	-2.36681	0.801555
C	0.249299	-3.53956	1.31026
H	-1.41763	-2.36246	0.798106
H	-0.488527	-4.30436	1.63881
H	0.892952	-3.2768	2.18083
H	0.897809	-3.99223	0.525587
C	2357.44	-2.57929	-2.33911
C	2357.8	-1.20981	-1.90478
O	2358.56	-0.511969	-2.56843
H	2357.96	-2.80866	-3.29449
H	2356.35	-2.65681	-2.49902
H	2357.76	-3.3182	-1.57227
N	2357.26	-0.792041	-0.757617
C	2357.51	0.515087	-0.205447
C	2357.2	0.462903	1.27713
O	2356.57	-0.482084	1.75439
H	2356.67	-1.38064	-0.211329
H	2358.56	0.744879	-0.310947
C	2356.65	1.59305	-0.894269
H	2355.57	1.35383	-0.784674
H	2356.84	2.60077	-0.471612
H	2356.88	1.62046	-1.97986
N	2357.65	1.47363	2.04708
C	2357.41	1.50329	3.47095
H	2358.16	2.2257	1.64319
H	2357.85	2.41486	3.92623
H	2357.85	0.61021	3.96379
H	2356.31	1.50353	3.68495
