44
  This energy is 2.13782e-320 and Call times are: 93267
C	2.73332	-1.14365	1.82953
C	2.14457	-0.345708	0.730499
O	2.83109	0.416891	0.0644442
H	3.81811	-0.914172	1.9097
H	2.60959	-2.22775	1.62399
H	2.24055	-0.891648	2.79214
N	0.835906	-0.503241	0.518472
C	0.120699	0.203508	-0.51391
C	-1.3507	0.199658	-0.147566
O	-1.77789	-0.547463	0.730584
H	0.28183	-1.10571	1.08678
H	0.452981	1.23375	-0.529987
C	0.32614	-0.458583	-1.89469
H	-0.0151658	-1.51557	-1.87442
H	-0.223079	0.0831779	-2.69195
H	1.40801	-0.450549	-2.15089
N	-2.16	1.05586	-0.801756
C	-3.57296	1.1311	-0.511846
H	-1.79396	1.65744	-1.50414
H	-4.06636	1.89272	-1.15507
H	-3.74111	1.41012	0.553572
H	-4.06427	0.14773	-0.69288
C	4419.43	-1.24257	-2.04468
C	4418.2	-1.42075	-1.24615
O	4417.58	-2.47873	-1.25823
H	4419.65	-2.18004	-2.60203
H	4420.29	-1.01593	-1.37758
H	4419.3	-0.414003	-2.77216
N	4417.8	-0.368591	-0.527291
C	4416.62	-0.388428	0.299682
C	4416.19	1.04688	0.531935
O	4416.94	1.9803	0.266383
H	4418.29	0.497262	-0.548567
H	4415.82	-0.888137	-0.236313
C	4416.89	-1.08687	1.65079
H	4417.71	-0.572055	2.1977
H	4415.98	-1.10404	2.28997
H	4417.21	-2.137	1.4669
N	4414.95	1.25716	1.01588
C	4414.45	2.59019	1.25766
H	4414.35	0.488906	1.21775
H	4413.41	2.55409	1.65673
H	4414.44	3.18403	0.315034
H	4415.09	3.12309	1.99634
