44
  This energy is 8.20495e-320 and Call times are: 76635
C	1.32801	1.96394	2.55058
C	1.48218	1.03257	1.41041
O	2.5868	0.761127	0.960285
H	2.33018	2.32699	2.86636
H	0.847804	1.44469	3.4065
H	0.707759	2.83522	2.25206
N	0.356921	0.519519	0.907474
C	0.344801	-0.400758	-0.201476
C	-1.03735	-0.362135	-0.823884
O	-1.97789	0.166183	-0.233883
H	-0.538852	0.771053	1.26421
H	1.0514	-0.0612863	-0.948167
C	0.681394	-1.83754	0.256199
H	-0.0450565	-2.18237	1.02267
H	0.673084	-2.54871	-0.59524
H	1.69568	-1.85216	0.711345
N	-1.1871	-0.905545	-2.04793
C	-2.46342	-0.904612	-2.72409
H	-0.412232	-1.32198	-2.51203
H	-2.38259	-1.39871	-3.71736
H	-2.82492	0.137694	-2.87953
H	-3.2272	-1.44887	-2.12277
C	3632.39	-1.44451	3.12799
C	3632.13	-0.392271	2.12173
O	3631.25	0.443122	2.29752
H	3631.69	-1.32305	3.98167
H	3633.44	-1.35886	3.50374
H	3632.25	-2.44946	2.68005
N	3632.89	-0.415006	1.02391
C	3632.75	0.542743	-0.0436934
C	3633.35	-0.061487	-1.29466
O	3634.07	-1.06081	-1.22747
H	3633.58	-1.11828	0.879234
H	3631.69	0.704604	-0.234773
C	3633.45	1.87455	0.299059
H	3634.53	1.70472	0.495149
H	3633.34	2.61434	-0.5208
H	3633	2.30636	1.21782
N	3633.07	0.522392	-2.47445
C	3633.59	0.0099096	-3.71918
H	3632.48	1.32609	-2.50868
H	3633.24	0.627074	-4.57632
H	3633.25	-1.03979	-3.88384
H	3634.7	0.0194069	-3.71054
