44
  This energy is 3.09236e-320 and Call times are: 2001
C	-3.34366	-0.802084	-0.550201
C	-1.93188	-0.734724	-0.990122
O	-1.57266	-1.24252	-2.0435
H	-3.93724	-1.36223	-1.30502
H	-3.76269	0.221335	-0.450938
H	-3.41599	-1.32704	0.425573
N	-1.08638	-0.0999462	-0.174921
C	0.317259	0.0481383	-0.465958
C	1.03714	0.324643	0.839627
O	0.409328	0.636307	1.84985
H	-1.38567	0.284227	0.69443
H	0.695762	-0.887073	-0.858627
C	0.566173	1.20071	-1.46433
H	0.176051	2.15847	-1.0586
H	1.64594	1.3174	-1.69075
H	0.0326531	0.986724	-2.41602
N	2.37838	0.194705	0.853594
C	3.1475	0.426067	2.05406
H	2.86755	-0.0653316	0.0275605
H	4.23209	0.270805	1.86223
H	2.83145	-0.271068	2.8636
H	3.00167	1.46834	2.41954
C	102.466	-3.08724	-1.43391
C	102.706	-2.2231	-0.256189
O	102.529	-2.63965	0.880403
H	102.121	-4.08701	-1.0917
H	103.404	-3.21058	-2.01514
H	101.685	-2.6403	-2.08407
N	103.114	-0.977411	-0.508078
C	103.389	-0.0193937	0.532861
C	103.312	1.36661	-0.0772408
O	103.303	1.51662	-1.29759
H	103.226	-0.640952	-1.4393
H	102.617	-0.0898107	1.28856
C	104.785	-0.248899	1.15446
H	105.574	-0.176621	0.376317
H	105	0.486963	1.95644
H	104.829	-1.26795	1.59686
N	103.231	2.4163	0.764017
C	103.142	3.77212	0.274172
H	103.233	2.27377	1.74835
H	103.086	4.49283	1.1196
H	102.234	3.90247	-0.357769
H	104.033	4.02587	-0.345003
