44
  This energy is 8.97767e-320 and Call times are: 83229
C	-1.73713	2.31754	1.93328
C	-0.808046	1.97643	0.83252
O	-0.397656	2.83389	0.0625632
H	-1.95946	3.40632	1.90213
H	-1.27563	2.0729	2.91307
H	-2.68695	1.75341	1.82127
N	-0.45582	0.692756	0.730151
C	0.440516	0.207011	-0.288408
C	0.210303	-1.28414	-0.439067
O	-0.43103	-1.90944	0.403268
H	-0.819852	-0.00114622	1.34571
H	0.188721	0.67564	-1.23131
C	1.91501	0.482175	0.0820773
H	2.16972	0.000544521	1.0502
H	2.60789	0.109562	-0.700136
H	2.07033	1.57772	0.190697
N	0.713372	-1.88679	-1.53439
C	0.533923	-3.3007	-1.76854
H	1.22336	-1.36215	-2.20812
H	1.02176	-3.60674	-2.72017
H	-0.549123	-3.55397	-1.83264
H	0.979211	-3.89614	-0.938867
C	3946.18	1.79427	-2.03665
C	3945.39	1.63658	-0.792621
O	3945.51	2.42848	0.132747
H	3946.83	2.69069	-1.94811
H	3945.5	1.92819	-2.90452
H	3946.82	0.900891	-2.20181
N	3944.57	0.588456	-0.741737
C	3943.74	0.302316	0.400708
C	3943.36	-1.16442	0.344451
O	3943.53	-1.82051	-0.680496
H	3944.51	-0.0659226	-1.4906
H	3944.32	0.457996	1.30323
C	3942.47	1.181	0.406483
H	3941.88	1.01928	-0.52111
H	3941.83	0.963357	1.28491
H	3942.76	2.25296	0.446661
N	3942.85	-1.72029	1.45965
C	3942.47	-3.11304	1.50358
H	3942.72	-1.17445	2.2812
H	3942.06	-3.3795	2.50589
H	3943.34	-3.76659	1.29276
H	3941.68	-3.33079	0.742196
