44
  This energy is 1.18437e-319 and Call times are: 17415
C	-2.93802	0.964929	1.60096
C	-1.50351	1.15395	1.28847
O	-0.904851	2.15841	1.64788
H	-3.30996	1.84666	2.16671
H	-3.0777	0.0548251	2.22147
H	-3.52436	0.86615	0.663205
N	-0.913949	0.177252	0.595047
C	0.475835	0.216927	0.215897
C	0.667331	-0.730751	-0.952209
O	-0.202299	-1.5483	-1.24748
H	-1.41967	-0.622583	0.282885
H	0.71871	1.21474	-0.126813
C	1.39125	-0.195508	1.39022
H	1.13891	-1.21936	1.73973
H	2.46209	-0.165912	1.10176
H	1.24068	0.505649	2.23984
N	1.80891	-0.626911	-1.66074
C	2.07339	-1.47894	-2.79665
H	2.49732	0.0458656	-1.41036
H	3.06348	-1.24129	-3.2444
H	1.29282	-1.34303	-3.5799
H	2.07423	-2.55066	-2.49237
C	829.302	3.14007	0.150703
C	829.684	1.84909	0.766316
O	829.518	1.64455	1.96098
H	828.884	3.81062	0.932755
H	828.532	2.97765	-0.632386
H	830.192	3.62637	-0.301682
N	830.218	0.937587	-0.0501378
C	830.638	-0.364949	0.400854
C	831.633	-0.908078	-0.606507
O	831.759	-0.38288	-1.71105
H	830.374	1.12687	-1.01584
H	831.153	-0.260321	1.34764
C	829.438	-1.32846	0.53474
H	828.912	-1.43295	-0.43819
H	829.758	-2.33229	0.881959
H	828.716	-0.91874	1.27451
N	832.381	-1.96612	-0.237688
C	833.363	-2.54378	-1.12613
H	832.269	-2.37254	0.663142
H	833.873	-3.40532	-0.641668
H	834.135	-1.78952	-1.40249
H	832.881	-2.90378	-2.06372
