44
  This energy is 1.33457e-319 and Call times are: 97971
C	-1.80058	0.925657	2.83323
C	-0.616772	1.03233	1.95095
O	0.234483	1.89124	2.13571
H	-1.75156	1.71839	3.61107
H	-1.81804	-0.0663141	3.33174
H	-2.73144	1.05866	2.24268
N	-0.540108	0.149735	0.95219
C	0.551221	0.126947	0.0112805
C	0.0792555	-0.60142	-1.23209
O	-0.956603	-1.2637	-1.21752
H	-1.25471	-0.526629	0.794655
H	0.791084	1.14338	-0.274044
C	1.79003	-0.581169	0.603756
H	1.54023	-1.62343	0.895993
H	2.63228	-0.600364	-0.118066
H	2.12519	-0.0387176	1.51456
N	0.822224	-0.476788	-2.34944
C	0.444761	-1.1245	-3.58401
H	1.65339	0.0694253	-2.34293
H	1.183	-0.903001	-4.386
H	-0.556561	-0.772187	-3.92234
H	0.394559	-2.22923	-3.44893
C	4639.13	2.9835	0.311162
C	4639.5	1.63253	0.791253
O	4639.13	1.22572	1.88297
H	4638.51	3.49204	1.08327
H	4638.54	2.90874	-0.627448
H	4640.05	3.5867	0.127088
N	4640.26	0.898846	-0.0266316
C	4640.7	-0.434303	0.300353
C	4641.91	-0.747945	-0.553433
O	4642.2	-0.0423417	-1.51793
H	4640.58	1.25254	-0.900907
H	4641.01	-0.457695	1.33673
C	4639.58	-1.47268	0.0417138
H	4639.26	-1.44551	-1.02226
H	4639.92	-2.50027	0.292589
H	4638.7	-1.23117	0.672091
N	4642.66	-1.80837	-0.202665
C	4643.84	-2.17628	-0.949252
H	4642.42	-2.36276	0.585397
H	4644.33	-3.07556	-0.505665
H	4644.59	-1.34469	-0.946871
H	4643.58	-2.40407	-2.00837
