44
  This energy is 6.77809e-320 and Call times are: 27411
C	2.60342	1.82165	1.42475
C	1.94661	0.540036	1.08231
O	2.5105	-0.529403	1.26891
H	3.61531	1.61708	1.83718
H	2.00746	2.36503	2.18789
H	2.70609	2.45364	0.517568
N	0.721076	0.622948	0.559274
C	-0.0452074	-0.535802	0.175953
C	-1.09863	-0.08942	-0.81918
O	-1.35254	1.10377	-0.972981
H	0.284044	1.50136	0.385134
H	0.606842	-1.23789	-0.328006
C	-0.717123	-1.19613	1.40054
H	-1.38481	-0.472887	1.91555
H	-1.30785	-2.08878	1.10898
H	0.0650136	-1.51757	2.1224
N	-1.7239	-1.04289	-1.53746
C	-2.73249	-0.711639	-2.51685
H	-1.4993	-2.0025	-1.40354
H	-3.12886	-1.63189	-2.99984
H	-2.30878	-0.054131	-3.3102
H	-3.5823	-0.172483	-2.03903
C	1303.67	-2.83008	1.53151
C	1304.11	-1.41595	1.56433
O	1303.9	-0.713664	2.54499
H	1303.16	-3.08085	2.48943
H	1304.55	-3.49824	1.4024
H	1302.96	-2.99139	0.695915
N	1304.72	-0.959733	0.470962
C	1305.2	0.393112	0.352521
C	1305.35	0.707263	-1.12345
O	1305.32	-0.190349	-1.96325
H	1304.86	-1.53345	-0.332629
H	1304.46	1.06814	0.759463
C	1306.56	0.572275	1.07277
H	1307.32	-0.122197	0.653268
H	1306.93	1.61286	0.983683
H	1306.44	0.338057	2.15279
N	1305.49	2.00009	-1.47617
C	1305.63	2.39559	-2.85864
H	1305.51	2.71252	-0.78229
H	1305.74	3.49948	-2.94311
H	1304.74	2.0845	-3.44614
H	1306.53	1.91982	-3.31708
