44
  This energy is 9.32252e-320 and Call times are: 22497
C	-3.1479	0.0902863	1.48618
C	-1.96502	-0.64622	0.986611
O	-1.84189	-1.84845	1.1763
H	-3.8213	-0.61508	2.01988
H	-3.70231	0.544115	0.637952
H	-2.83248	0.888576	2.19058
N	-1.05154	0.0736679	0.331106
C	0.152241	-0.500958	-0.214362
C	1.15809	0.617765	-0.40402
O	0.806897	1.79483	-0.349106
H	-1.14932	1.0577	0.208398
H	0.566363	-1.19742	0.503637
C	-0.120962	-1.204	-1.56277
H	-0.546358	-0.48679	-2.29677
H	0.803805	-1.64771	-1.9855
H	-0.860073	-2.02051	-1.41054
N	2.44435	0.273405	-0.611268
C	3.47401	1.27032	-0.790574
H	2.70979	-0.68452	-0.645227
H	4.46404	0.788888	-0.949683
H	3.54423	1.92823	0.105789
H	3.25024	1.91216	-1.67326
C	1071.57	-0.217871	-3.4596
C	1071.1	0.24245	-2.13346
O	1070.15	1.01065	-2.02926
H	1070.94	0.245807	-4.25239
H	1071.48	-1.32237	-3.53372
H	1072.63	0.081519	-3.61621
N	1071.77	-0.221299	-1.0742
C	1071.43	0.135612	0.280389
C	1072.65	-0.117883	1.14717
O	1073.59	-0.780916	0.724511
H	1072.55	-0.823626	-1.17365
H	1071.21	1.1953	0.321076
C	1070.23	-0.689314	0.796322
H	1070.45	-1.77596	0.752563
H	1069.96	-0.416913	1.83902
H	1069.34	-0.49572	0.152345
N	1072.66	0.426264	2.37993
C	1073.78	0.248516	3.27151
H	1071.89	0.965587	2.70099
H	1073.6	0.770184	4.23752
H	1074.71	0.659723	2.8181
H	1073.95	-0.832587	3.48241
