44
  This energy is 1.04762e-319 and Call times are: 22917
C	-1.41704	1.65799	2.71462
C	-0.87251	1.64322	1.33823
O	-0.943079	2.63057	0.619437
H	-1.86196	2.65525	2.9229
H	-0.606567	1.46568	3.44877
H	-2.205	0.883183	2.82296
N	-0.313265	0.500331	0.93399
C	0.260184	0.331689	-0.377325
C	0.313901	-1.1542	-0.674767
O	0.148791	-1.98083	0.220369
H	-0.287951	-0.306146	1.5187
H	-0.393231	0.79015	-1.10872
C	1.6782	0.940385	-0.453671
H	2.3457	0.468251	0.298427
H	2.12264	0.812417	-1.46207
H	1.62538	2.02875	-0.232715
N	0.525936	-1.52881	-1.95176
C	0.58107	-2.92126	-2.33153
H	0.650088	-0.844747	-2.66301
H	0.765619	-3.024	-3.42361
H	-0.378236	-3.43304	-2.08853
H	1.39954	-3.44516	-1.78673
C	1088.88	1.2527	1.19578
C	1090.35	1.10363	1.27673
O	1091.01	1.73964	2.08979
H	1088.54	1.99578	1.9513
H	1088.38	0.280668	1.40292
H	1088.59	1.60896	0.185944
N	1090.91	0.249061	0.415884
C	1092.33	-0.00343174	0.373086
C	1092.66	-0.576502	-0.991381
O	1091.76	-0.983107	-1.7348
H	1090.36	-0.241336	-0.261173
H	1092.85	0.936625	0.471575
C	1092.75	-0.990092	1.4818
H	1092.21	-1.95315	1.37815
H	1093.85	-1.18662	1.45182
H	1092.51	-0.55921	2.47618
N	1093.95	-0.601635	-1.36197
C	1094.36	-1.11815	-2.64755
H	1094.66	-0.261373	-0.749106
H	1095.46	-1.05482	-2.76407
H	1093.89	-0.537808	-3.47243
H	1094.06	-2.18443	-2.75719
