44
  This energy is 1.63289e-320 and Call times are: 1455
C	2.24084	-0.958868	-2.48703
C	1.14228	-0.103617	-1.98413
O	0.742029	0.856039	-2.62861
H	2.58721	-0.571713	-3.46989
H	1.88438	-2.00232	-2.61724
H	3.09285	-0.945766	-1.7751
N	0.627175	-0.436242	-0.798215
C	-0.445968	0.299097	-0.17816
C	-0.419228	-0.00176815	1.30778
O	0.245766	-0.937738	1.74775
H	0.981517	-1.20295	-0.269504
H	-0.264008	1.35905	-0.302484
C	-1.81568	-0.0939868	-0.775235
H	-1.9988	-1.18212	-0.646557
H	-2.64421	0.470463	-0.300154
H	-1.82199	0.130216	-1.8642
N	-1.12945	0.804024	2.12159
C	-1.15417	0.601778	3.5515
H	-1.65545	1.56051	1.74704
H	-1.79488	1.36507	4.0456
H	-0.127256	0.677708	3.97685
H	-1.55659	-0.407206	3.79887
C	79.1247	2.84411	-0.576801
C	78.0173	1.92796	-0.931249
O	77.2319	2.20225	-1.82814
H	79.0826	3.74166	-1.2314
H	80.1019	2.33783	-0.723539
H	79.031	3.16649	0.481613
N	77.9268	0.803201	-0.217749
C	76.9038	-0.186168	-0.444648
C	76.7745	-1.02003	0.815191
O	77.6321	-0.967268	1.69471
H	78.5553	0.604841	0.529682
H	75.9582	0.315901	-0.605307
C	77.2533	-1.09111	-1.64716
H	78.2243	-1.6041	-1.47929
H	76.4677	-1.85397	-1.82477
H	77.3464	-0.468254	-2.56342
N	75.6809	-1.79734	0.9408
C	75.4665	-2.61669	2.1108
H	74.9947	-1.82085	0.22122
H	74.5131	-3.18307	2.02495
H	75.4185	-1.98652	3.0283
H	76.2982	-3.34716	2.23687
