44
  This energy is 7.37986e-320 and Call times are: 95493
C	2.55127	1.66678	1.68493
C	2.07741	0.689642	0.679022
O	2.85719	0.145719	-0.090776
H	3.65225	1.78756	1.58945
H	2.31676	1.30626	2.70858
H	2.06601	2.65182	1.52008
N	0.76472	0.447019	0.660439
C	0.153827	-0.478285	-0.260132
C	-1.31765	-0.127707	-0.365393
O	-1.84297	0.630328	0.447782
H	0.136055	0.918306	1.2733
H	0.595028	-0.343213	-1.2395
C	0.319273	-1.93841	0.21714
H	-0.133865	-2.07326	1.22242
H	-0.14984	-2.65354	-0.489472
H	1.40145	-2.18241	0.291289
N	-2.01488	-0.657972	-1.38945
C	-3.418	-0.371183	-1.577
H	-1.57007	-1.26352	-2.04114
H	-3.81164	-0.901785	-2.47185
H	-3.58011	0.721984	-1.71824
H	-4.00763	-0.695782	-0.689222
C	4521.55	-3.17555	0.465873
C	4521.65	-1.73905	0.809761
O	4520.87	-1.22549	1.60567
H	4520.7	-3.63097	1.02582
H	4522.49	-3.69963	0.743561
H	4521.37	-3.29717	-0.622587
N	4522.61	-1.0477	0.201696
C	4522.83	0.357545	0.433316
C	4523.61	0.908548	-0.747653
O	4524.15	0.152534	-1.55133
H	4523.22	-1.47096	-0.466701
H	4521.88	0.863291	0.463598
C	4523.62	0.595573	1.74222
H	4524.6	0.0747941	1.708
H	4523.79	1.67657	1.92371
H	4523.04	0.186448	2.59947
N	4523.66	2.24741	-0.891919
C	4524.36	2.86238	-1.99248
H	4523.21	2.84215	-0.234934
H	4524.29	3.9709	-1.93512
H	4523.94	2.53334	-2.96664
H	4525.44	2.57942	-1.97644
