44
  This energy is 3.63978e-320 and Call times are: 87429
C	1.88852	1.83276	-2.28049
C	0.732381	0.972702	-1.94159
O	-0.149095	0.746784	-2.75918
H	1.78376	2.19343	-3.32682
H	2.83323	1.25612	-2.19205
H	1.92592	2.70952	-1.60016
N	0.708793	0.471237	-0.704522
C	-0.349661	-0.382375	-0.227186
C	-0.342431	-0.330499	1.28823
O	0.613956	0.146356	1.89631
H	1.41797	0.686282	-0.0383709
H	-1.29943	0.01221	-0.565296
C	-0.159511	-1.8377	-0.709861
H	0.816104	-2.23913	-0.361798
H	-0.972868	-2.49766	-0.344234
H	-0.165445	-1.86198	-1.8214
N	-1.42589	-0.8035	1.93506
C	-1.51348	-0.784305	3.37664
H	-2.19271	-1.17886	1.42484
H	-2.47941	-1.21777	3.71772
H	-1.44252	0.259106	3.76069
H	-0.684601	-1.37572	3.8287
C	4140.14	3.46357	0.250655
C	4140.56	2.1479	0.782634
O	4141.24	2.0636	1.79563
H	4140.54	4.26917	0.90224
H	4139.03	3.53358	0.236101
H	4140.53	3.60377	-0.778544
N	4140.16	1.07518	0.0949132
C	4140.49	-0.271672	0.487343
C	4140.35	-1.1602	-0.733351
O	4139.78	-0.756939	-1.74142
H	4139.63	1.15826	-0.745046
H	4141.53	-0.303331	0.799982
C	4139.57	-0.771371	1.61753
H	4138.5	-0.736924	1.29364
H	4139.82	-1.80808	1.92223
H	4139.68	-0.11154	2.50546
N	4140.9	-2.39027	-0.677372
C	4140.83	-3.30159	-1.79554
H	4141.37	-2.69551	0.144831
H	4141.33	-4.2618	-1.55414
H	4141.32	-2.86193	-2.69356
H	4139.77	-3.52073	-2.05514
