44
  This energy is 4.42238e-320 and Call times are: 32367
C	2.16667	2.70194	-0.362248
C	0.93595	2.08414	0.180766
O	0.239879	2.67243	0.996788
H	2.30507	3.70656	0.0932057
H	2.08405	2.81504	-1.4637
H	3.04939	2.07312	-0.120718
N	0.640507	0.86063	-0.264328
C	-0.523384	0.130557	0.170621
C	-0.278072	-1.34119	-0.0996125
O	0.646734	-1.7014	-0.825429
H	1.23115	0.380124	-0.90713
H	-0.636892	0.254156	1.24016
C	-1.79342	0.602565	-0.571897
H	-1.67327	0.474982	-1.66889
H	-2.69151	0.0425803	-0.239286
H	-1.9614	1.68232	-0.366801
N	-1.09328	-2.23117	0.499864
C	-0.92846	-3.65359	0.31088
H	-1.83152	-1.92009	1.08933
H	-1.69617	-4.21809	0.884657
H	0.078683	-3.98171	0.656201
H	-1.02835	-3.92123	-0.765955
C	1540.62	0.738848	1.75161
C	1539.23	1.05818	1.33432
O	1538.63	2.00576	1.81804
H	1540.95	1.46844	2.5234
H	1541.3	0.802934	0.881269
H	1540.66	-0.283789	2.18201
N	1538.69	0.255952	0.41522
C	1537.35	0.438709	-0.0909015
C	1536.89	-0.881199	-0.678514
O	1537.7	-1.78661	-0.895771
H	1539.18	-0.530118	0.0501535
H	1536.7	0.679045	0.733965
C	1537.31	1.54514	-1.16826
H	1537.98	1.29568	-2.01266
H	1536.28	1.68857	-1.56002
H	1537.65	2.50651	-0.725603
N	1535.58	-1.02857	-0.930114
C	1535.05	-2.25441	-1.47848
H	1534.94	-0.286759	-0.74075
H	1533.95	-2.17894	-1.61493
H	1535.26	-3.11245	-0.799908
H	1535.51	-2.47515	-2.46807
