44
  This energy is 1.51184e-321 and Call times are: 36651
C	-0.835051	-2.17641	-2.5869
C	-0.558384	-0.818514	-2.06653
O	-0.476024	0.142571	-2.81888
H	-0.933051	-2.13278	-3.69341
H	-1.78226	-2.56509	-2.15732
H	-0.00226033	-2.86319	-2.32665
N	-0.400682	-0.710557	-0.745228
C	-0.127076	0.54381	-0.0906061
C	0.492943	0.239381	1.25926
O	0.451408	-0.896453	1.72829
H	-0.441229	-1.50569	-0.146014
H	0.603326	1.09212	-0.671936
C	-1.41608	1.37576	0.0922989
H	-2.16343	0.810004	0.688532
H	-1.20899	2.34233	0.595916
H	-1.86116	1.59108	-0.903534
N	1.10498	1.24952	1.90813
C	1.7337	1.05114	3.19325
H	1.13417	2.15993	1.50871
H	2.17975	2.00043	3.56354
H	2.54262	0.288438	3.12132
H	0.990638	0.696584	3.94381
C	1738.89	-3.26002	-1.22407
C	1738.94	-1.7942	-1.42538
O	1739.14	-1.31365	-2.53137
H	1739.08	-3.76988	-2.19498
H	1737.9	-3.563	-0.840766
H	1739.68	-3.5716	-0.501762
N	1738.75	-1.04044	-0.339817
C	1738.76	0.400143	-0.376171
C	1739.04	0.898762	1.02872
O	1738.96	0.140198	1.99282
H	1738.61	-1.44402	0.560776
H	1739.58	0.727607	-1.00841
C	1737.42	0.964174	-0.884121
H	1736.58	0.62573	-0.233622
H	1737.43	2.07316	-0.913511
H	1737.23	0.590648	-1.91355
N	1739.4	2.18932	1.17439
C	1739.7	2.74963	2.47253
H	1739.47	2.78535	0.381121
H	1739.97	3.82409	2.38408
H	1740.55	2.20959	2.94964
H	1738.81	2.66713	3.14626
