44
  This energy is 2.10423e-320 and Call times are: 112755
C	0.690847	-3.23445	1.08959
C	-0.251828	-2.18767	0.634806
O	-1.42528	-2.4485	0.407946
H	0.154051	-4.20515	1.16345
H	1.09996	-2.97317	2.08817
H	1.52525	-3.33944	0.364544
N	0.252235	-0.96066	0.484059
C	-0.539948	0.161752	0.0487824
C	0.404182	1.21274	-0.501928
O	1.61417	1.14082	-0.295562
H	1.21652	-0.767044	0.644067
H	-1.18607	-0.156029	-0.759683
C	-1.36923	0.74985	1.2122
H	-0.703299	1.07422	2.04011
H	-1.98051	1.61419	0.880489
H	-2.05588	-0.0301131	1.60756
N	-0.128803	2.20748	-1.23842
C	0.693809	3.24612	-1.8135
H	-1.10948	2.24422	-1.40013
H	0.0709173	3.97182	-2.38148
H	1.44693	2.81064	-2.50948
H	1.24019	3.80108	-1.01683
C	5342.74	-0.0471164	0.98125
C	5341.3	0.152439	1.26869
O	5340.91	0.338481	2.41076
H	5343.32	-0.00226572	1.93209
H	5343.11	0.749481	0.301112
H	5342.9	-1.03933	0.509909
N	5340.48	0.111343	0.220262
C	5339.05	0.288331	0.340167
C	5338.4	-0.319963	-0.88735
O	5339.07	-0.616092	-1.87318
H	5340.81	-0.0699811	-0.701489
H	5338.7	-0.260752	1.20457
C	5338.68	1.78322	0.45346
H	5339.04	2.34363	-0.434628
H	5337.58	1.9231	0.546087
H	5339.16	2.21737	1.35579
N	5337.07	-0.541319	-0.846335
C	5336.37	-1.12769	-1.96342
H	5336.55	-0.301388	-0.036712
H	5335.29	-1.2269	-1.7371
H	5336.77	-2.14003	-2.19425
H	5336.48	-0.495499	-2.87391
