44
  This energy is 1.34761e-319 and Call times are: 53703
C	1.23089	-2.3467	2.25922
C	0.323007	-1.23248	1.90498
O	-0.56133	-0.869952	2.66854
H	0.954502	-2.74133	3.26108
H	2.28144	-1.98874	2.29131
H	1.14205	-3.16475	1.51367
N	0.522547	-0.660274	0.715393
C	-0.278905	0.434911	0.230547
C	-0.142429	0.479587	-1.27896
O	0.741406	-0.157084	-1.84933
H	1.22765	-0.983799	0.0900207
H	-1.31843	0.239302	0.461196
C	0.173772	1.77833	0.844902
H	1.24082	1.97552	0.606908
H	-0.441342	2.62374	0.473828
H	0.0700961	1.73229	1.95092
N	-1.03422	1.22072	-1.96557
C	-0.989764	1.31345	-3.40627
H	-1.74646	1.72296	-1.48631
H	-1.80414	1.97061	-3.78334
H	-1.10925	0.306877	-3.86862
H	-0.0149205	1.73461	-3.74314
C	2544.87	2.04314	1.24166
C	2545.97	1.76753	0.293462
O	2546.2	2.51648	-0.646518
H	2544.35	2.97649	0.937166
H	2545.27	2.17469	2.26825
H	2544.14	1.20557	1.235
N	2546.69	0.663849	0.521087
C	2547.79	0.262495	-0.313372
C	2548.02	-1.22207	-0.103878
O	2547.5	-1.81061	0.840806
H	2546.47	0.0463286	1.27327
H	2547.52	0.410643	-1.35099
C	2549.07	1.05014	0.0341414
H	2549.35	0.896427	1.09949
H	2549.93	0.743685	-0.606623
H	2548.89	2.13616	-0.122301
N	2548.79	-1.8689	-0.999037
C	2549.05	-3.28491	-0.887383
H	2549.2	-1.37638	-1.76072
H	2549.71	-3.62992	-1.71632
H	2548.1	-3.86475	-0.928572
H	2549.56	-3.51641	0.0788021
