44
  This energy is 9.17974e-321 and Call times are: 73821
C	0.691655	2.99335	1.63938
C	1.09912	1.84634	0.797039
O	2.19955	1.81257	0.263744
H	1.51627	3.73833	1.66927
H	0.478533	2.65152	2.67406
H	-0.214059	3.47655	1.21612
N	0.201927	0.868281	0.652776
C	0.452151	-0.311913	-0.135487
C	-0.887702	-0.918357	-0.504615
O	-1.91805	-0.558274	0.0615628
H	-0.702091	0.921017	1.06859
H	0.946783	-0.023089	-1.05418
C	1.30348	-1.33891	0.644019
H	0.793398	-1.6325	1.58622
H	1.49816	-2.24883	0.0399217
H	2.28175	-0.882148	0.909535
N	-0.906521	-1.84333	-1.48444
C	-2.13741	-2.46684	-1.91144
H	-0.0630505	-2.11615	-1.9354
H	-1.94503	-3.20021	-2.72532
H	-2.85405	-1.70263	-2.29047
H	-2.62122	-3.00316	-1.06323
C	3495.44	-0.387945	-0.00578725
C	3496.75	-0.342187	-0.701504
O	3496.84	-0.636893	-1.88482
H	3494.65	-0.7206	-0.719347
H	3495.17	0.620252	0.376113
H	3495.48	-1.10443	0.841439
N	3497.8	0.0293994	0.0334372
C	3499.13	0.122042	-0.501933
C	3500.1	0.0489589	0.658341
O	3499.71	0.184164	1.81627
H	3497.71	0.238893	1.00373
H	3499.31	-0.733377	-1.13964
C	3499.33	1.43953	-1.28316
H	3499.14	2.315	-0.626137
H	3500.36	1.51405	-1.69689
H	3498.61	1.48143	-2.1296
N	3501.4	-0.189937	0.373452
C	3502.4	-0.288141	1.414
H	3501.69	-0.303571	-0.569463
H	3503.4	-0.48607	0.978934
H	3502.15	-1.11615	2.11745
H	3502.45	0.658335	1.9994
