44
  This energy is 1.5316e-321 and Call times are: 54711
C	0.64092	2.62444	2.19719
C	-0.286892	1.68958	1.52162
O	-1.46868	1.63582	1.83305
H	0.0856021	3.19813	2.97073
H	1.07013	3.33622	1.46101
H	1.4621	2.0609	2.68814
N	0.239785	0.915926	0.569549
C	-0.535749	-0.042357	-0.176822
C	0.421297	-1.06482	-0.758094
O	1.63251	-0.853832	-0.774758
H	1.2101	0.948502	0.345121
H	-1.20021	-0.562202	0.501656
C	-1.33542	0.640531	-1.30877
H	-0.650734	1.17343	-2.00256
H	-1.93382	-0.0944519	-1.88539
H	-2.03186	1.38795	-0.870042
N	-0.102219	-2.21291	-1.23119
C	0.732732	-3.24937	-1.79224
H	-1.08425	-2.36787	-1.20227
H	0.116366	-4.1126	-2.12717
H	1.46635	-3.61447	-1.03742
H	1.30214	-2.86393	-2.66881
C	2593.06	-3.42952	0.415203
C	2593.52	-2.1078	0.899506
O	2593.91	-1.95683	2.04744
H	2593.14	-4.17069	1.23992
H	2593.69	-3.7663	-0.433001
H	2592	-3.3708	0.0859195
N	2593.47	-1.1043	0.020368
C	2593.88	0.238571	0.342927
C	2593.23	1.17819	-0.650049
O	2592.7	0.744243	-1.67367
H	2593.12	-1.23371	-0.903163
H	2593.51	0.492329	1.32878
C	2595.42	0.3865	0.27902
H	2595.79	0.124758	-0.733513
H	2595.74	1.41926	0.526995
H	2595.89	-0.307782	1.0101
N	2593.22	2.49361	-0.357389
C	2592.61	3.4618	-1.23754
H	2593.65	2.82433	0.479398
H	2592.71	4.4892	-0.823707
H	2591.53	3.24319	-1.36907
H	2593.09	3.4389	-2.24212
