44
  This energy is 2.90017e-320 and Call times are: 14055
C	0.193508	-0.476809	-3.44403
C	0.432011	-0.922791	-2.05284
O	0.845155	-2.04866	-1.81155
H	0.439893	-1.30562	-4.14276
H	0.836764	0.396515	-3.6814
H	-0.87271	-0.19777	-3.57917
N	0.166373	-0.0350427	-1.09174
C	0.348389	-0.321431	0.308861
C	-0.507195	0.650304	1.09813
O	-0.992759	1.64241	0.55795
H	-0.197439	0.869051	-1.29956
H	-0.0144952	-1.32064	0.513745
C	1.83025	-0.182463	0.72347
H	2.19945	0.843588	0.511281
H	1.97399	-0.402437	1.8013
H	2.44651	-0.898623	0.137401
N	-0.730129	0.373616	2.39803
C	-1.54208	1.23513	3.2255
H	-0.334253	-0.437949	2.81502
H	-1.60456	0.839007	4.26302
H	-2.5757	1.31209	2.81691
H	-1.11005	2.26118	3.26727
C	668.429	0.136211	2.54721
C	669.735	0.517473	1.96202
O	670.442	1.36433	2.49062
H	668.252	0.731739	3.46906
H	668.429	-0.942432	2.81055
H	667.612	0.340524	1.82458
N	670.084	-0.106792	0.834868
C	671.323	0.156161	0.147713
C	671.164	-0.297651	-1.29031
O	670.22	-1.0109	-1.62342
H	669.486	-0.773757	0.398252
H	671.5	1.22415	0.137903
C	672.504	-0.587484	0.811849
H	672.318	-1.68278	0.820816
H	673.459	-0.387098	0.285337
H	672.609	-0.247083	1.86502
N	672.079	0.126437	-2.18458
C	672.001	-0.244969	-3.57824
H	672.832	0.708965	-1.89675
H	672.844	0.200872	-4.15123
H	671.046	0.11024	-4.02719
H	672.046	-1.35222	-3.69301
