44
  This energy is 1.56594e-319 and Call times are: 73317
C	-0.940381	-0.173857	-3.34837
C	-1.20111	0.204142	-1.94113
O	-2.18399	0.865203	-1.63543
H	-1.74543	0.238564	-3.99465
H	-0.927693	-1.27931	-3.45151
H	0.0349583	0.23937	-3.68139
N	-0.306907	-0.210011	-1.04044
C	-0.423644	0.0784595	0.366684
C	0.952539	-0.0639857	0.987221
O	1.86515	-0.613446	0.37317
H	0.505028	-0.723109	-1.30582
H	-0.735196	1.10791	0.490153
C	-1.41941	-0.88039	1.05673
H	-1.09711	-1.93563	0.927528
H	-1.51182	-0.660958	2.14029
H	-2.42327	-0.76726	0.59238
N	1.13934	0.450721	2.21856
C	2.41894	0.372877	2.88394
H	0.39024	0.897895	2.69617
H	2.37022	0.850804	3.88717
H	3.20435	0.890503	2.28691
H	2.72936	-0.688906	3.016
C	3478.08	-0.567216	-3.42092
C	3478.72	0.0994994	-2.26652
O	3479.72	0.793731	-2.41193
H	3478.65	-0.32784	-4.34642
H	3477.04	-0.208224	-3.53672
H	3478.08	-1.66797	-3.27507
N	3478.16	-0.105833	-1.07361
C	3478.67	0.475241	0.14228
C	3478.15	-0.347918	1.30552
O	3477.24	-1.15556	1.14651
H	3477.37	-0.697059	-0.964133
H	3479.75	0.400243	0.141546
C	3478.23	1.94697	0.292749
H	3477.12	2.0203	0.292444
H	3478.62	2.39752	1.22786
H	3478.61	2.53905	-0.566012
N	3478.74	-0.17625	2.50476
C	3478.33	-0.924825	3.66696
H	3479.49	0.476997	2.61152
H	3478.93	-0.640755	4.55633
H	3478.45	-2.01871	3.49475
H	3477.25	-0.729248	3.89518
