44
  This energy is 9.75681e-320 and Call times are: 83523
C	0.683509	-0.163684	3.41059
C	-0.0964498	0.351219	2.26266
O	-1.09684	1.03434	2.43312
H	0.204773	0.167069	4.35784
H	1.72102	0.230241	3.37568
H	0.708937	-1.27357	3.38919
N	0.349768	0.0235152	1.04781
C	-0.301411	0.449381	-0.165213
C	0.124587	-0.489546	-1.27705
O	1.07695	-1.25231	-1.12529
H	1.1493	-0.557854	0.922507
H	-1.37253	0.350038	-0.0431112
C	0.0750431	1.90404	-0.524869
H	1.17462	2.00251	-0.648735
H	-0.424754	2.23522	-1.4583
H	-0.241197	2.58165	0.297929
N	-0.589735	-0.470203	-2.41958
C	-0.265397	-1.33724	-3.52828
H	-1.36139	0.149171	-2.52036
H	-0.966552	-1.17107	-4.37564
H	-0.331644	-2.4067	-3.22313
H	0.771266	-1.1444	-3.88789
C	3955.52	-2.10906	-1.23966
C	3956.09	-1.26237	-0.169072
O	3955.46	-1.01952	0.850786
H	3954.5	-2.43289	-0.944655
H	3956.15	-3.00909	-1.39471
H	3955.46	-1.53538	-2.18816
N	3957.32	-0.782428	-0.385227
C	3958.01	0.0554084	0.562927
C	3959.09	0.816676	-0.185216
O	3959.42	0.485375	-1.32267
H	3957.81	-0.963533	-1.23282
H	3957.31	0.780355	0.964108
C	3958.64	-0.78142	1.69769
H	3959.36	-1.52454	1.28253
H	3959.18	-0.139397	2.42963
H	3957.84	-1.33509	2.2372
N	3959.65	1.87471	0.43247
C	3960.67	2.66654	-0.206723
H	3959.36	2.13122	1.35021
H	3961.01	3.48941	0.46223
H	3960.29	3.11674	-1.15108
H	3961.56	2.03653	-0.458252
