44
  This energy is 6.65902e-320 and Call times are: 27369
C	2.04706	-1.74866	2.20858
C	0.890202	-0.869992	1.92431
O	0.101184	-0.558073	2.80559
H	2.03508	-2.03574	3.2825
H	2.99577	-1.21485	1.98989
H	1.99001	-2.66894	1.58989
N	0.760031	-0.450224	0.663667
C	-0.313544	0.409282	0.232951
C	-0.457633	0.257877	-1.2689
O	0.418843	-0.293325	-1.93207
H	1.39297	-0.734913	-0.0513685
H	-1.23699	0.0735756	0.687499
C	-0.0318252	1.88499	0.593542
H	0.916563	2.2259	0.126147
H	-0.856561	2.54955	0.263455
H	0.07281	1.98233	1.69614
N	-1.58457	0.727677	-1.83926
C	-1.81467	0.617256	-3.26089
H	-2.28529	1.16416	-1.28454
H	-2.79572	1.06329	-3.53627
H	-1.81422	-0.451025	-3.57715
H	-1.01663	1.14628	-3.8305
C	1301.37	0.987785	2.91403
C	1301.55	1.03486	1.4461
O	1300.77	1.63427	0.728166
H	1300.45	1.55101	3.18675
H	1302.24	1.45136	3.42429
H	1301.26	-0.0640436	3.2526
N	1302.62	0.386975	0.961047
C	1302.93	0.342257	-0.444908
C	1303.83	-0.8521	-0.683229
O	1304.37	-1.42992	0.258447
H	1303.23	-0.122064	1.5534
H	1302.02	0.180873	-1.00385
C	1303.63	1.63926	-0.906474
H	1304.57	1.80208	-0.330551
H	1303.87	1.60825	-1.98861
H	1302.96	2.50676	-0.725484
N	1304	-1.26457	-1.95504
C	1304.83	-2.40016	-2.2772
H	1303.55	-0.788133	-2.70263
H	1304.85	-2.57973	-3.37485
H	1304.45	-3.32002	-1.77589
H	1305.88	-2.22877	-1.93787
