44
  This energy is 4.70894e-320 and Call times are: 56475
C	1.35519	1.31307	2.92668
C	0.31456	1.28059	1.87442
O	-0.699026	1.95937	1.96602
H	1.04022	2.0102	3.73332
H	2.31805	1.66679	2.50171
H	1.49282	0.300226	3.36044
N	0.544807	0.471819	0.837481
C	-0.373726	0.332575	-0.264216
C	-0.0784355	-0.985469	-0.953273
O	0.960189	-1.59959	-0.716743
H	1.36076	-0.0980533	0.788546
H	-1.38325	0.282089	0.123585
C	-0.231039	1.49971	-1.26649
H	0.805972	1.54898	-1.66183
H	-0.936966	1.39572	-2.11598
H	-0.448708	2.4595	-0.749225
N	-1.00176	-1.46317	-1.81076
C	-0.812522	-2.71605	-2.50406
H	-1.83908	-0.954917	-1.98337
H	-1.68036	-2.93502	-3.16448
H	-0.704204	-3.55428	-1.77819
H	0.10678	-2.68258	-3.1325
C	2676.93	2.33099	2.52234
C	2676.62	1.74904	1.19479
O	2675.66	2.12408	0.543323
H	2676.16	3.09569	2.7703
H	2677.92	2.81549	2.51063
H	2676.91	1.53893	3.30035
N	2677.46	0.799204	0.76174
C	2677.3	0.139159	-0.509214
C	2678.05	-1.1772	-0.448766
O	2678.85	-1.40228	0.454957
H	2678.22	0.481823	1.31453
H	2676.25	-0.0862261	-0.658533
C	2677.84	1.00721	-1.66646
H	2678.91	1.23709	-1.50972
H	2677.72	0.502032	-2.64656
H	2677.28	1.96897	-1.69928
N	2677.78	-2.0907	-1.40408
C	2678.44	-3.37676	-1.4208
H	2677.13	-1.89246	-2.12286
H	2678.09	-3.9851	-2.28449
H	2678.22	-3.94087	-0.484791
H	2679.55	-3.25285	-1.50152
