44
  This energy is 9.66442e-320 and Call times are: 58365
C	-0.744627	-2.76109	1.98697
C	-1.14528	-1.53947	1.25326
O	-2.32353	-1.23669	1.12463
H	-1.65462	-3.28739	2.34859
H	-0.113556	-2.49313	2.86034
H	-0.1782	-3.44166	1.31695
N	-0.155667	-0.802809	0.743013
C	-0.386953	0.412719	0.00421163
C	0.842283	0.685467	-0.84067
O	1.89358	0.0822406	-0.633995
H	0.798829	-1.07554	0.829575
H	-1.2217	0.262146	-0.668541
C	-0.655942	1.60379	0.950841
H	0.202107	1.755	1.64005
H	-0.834596	2.54132	0.385248
H	-1.55803	1.39113	1.56497
N	0.730869	1.59122	-1.83223
C	1.84482	1.90733	-2.69558
H	-0.130425	2.06357	-1.98809
H	1.55508	2.67554	-3.44603
H	2.19036	0.998626	-3.23973
H	2.70185	2.30166	-2.10299
C	2768.39	-0.514068	-3.32761
C	2767.5	0.0593465	-2.29102
O	2766.6	0.835164	-2.58633
H	2768.09	-0.119292	-4.32384
H	2768.3	-1.62071	-3.33853
H	2769.44	-0.230942	-3.12766
N	2767.74	-0.312649	-1.03176
C	2766.96	0.159976	0.0856008
C	2767.8	-0.0199761	1.34109
O	2768.81	-0.718408	1.33039
H	2768.5	-0.922551	-0.800838
H	2766.78	1.21958	-0.0374502
C	2765.63	-0.615609	0.213234
H	2765.83	-1.70235	0.338661
H	2765.03	-0.254123	1.07252
H	2765.04	-0.476704	-0.713118
N	2767.4	0.628152	2.45313
C	2768.13	0.525951	3.69222
H	2766.58	1.19432	2.43969
H	2767.64	1.12905	4.4896
H	2769.17	0.895157	3.56183
H	2768.18	-0.533272	4.03403
