44
  This energy is 2.74355e-320 and Call times are: 20019
C	0.408639	1.87247	2.90741
C	-0.273963	0.819042	2.12283
O	-1.10782	0.0869535	2.63784
H	0.0395461	1.84696	3.95573
H	0.19299	2.87203	2.47474
H	1.50541	1.69918	2.90821
N	0.076251	0.715212	0.838725
C	-0.499608	-0.260318	-0.0520915
C	0.453352	-0.447786	-1.21655
O	1.37018	0.347658	-1.41284
H	0.777987	1.29839	0.438212
H	-0.576385	-1.20785	0.465954
C	-1.88357	0.195153	-0.56621
H	-1.80122	1.16781	-1.09655
H	-2.3299	-0.553761	-1.25228
H	-2.57198	0.330059	0.296368
N	0.270133	-1.5235	-2.00729
C	1.13537	-1.79026	-3.13262
H	-0.473185	-2.15948	-1.82773
H	0.821218	-2.71851	-3.65885
H	2.18969	-1.91797	-2.79597
H	1.10502	-0.947207	-3.86031
C	950.459	-0.532899	0.0527862
C	951.645	0.335995	0.228983
O	951.524	1.53529	0.438084
H	949.537	0.0823932	0.136552
H	950.44	-1.31774	0.837951
H	950.481	-1.01255	-0.948406
N	952.836	-0.260732	0.140796
C	954.08	0.451343	0.29006
C	955.17	-0.373084	-0.366145
O	954.971	-1.54651	-0.674929
H	952.921	-1.23325	-0.0588609
H	954.013	1.3917	-0.242243
C	954.417	0.688965	1.77906
H	954.484	-0.277755	2.32226
H	955.374	1.23716	1.89761
H	953.61	1.29289	2.24855
N	956.348	0.232897	-0.615076
C	957.44	-0.469297	-1.24746
H	956.487	1.18524	-0.364168
H	958.322	0.198521	-1.36385
H	957.141	-0.833851	-2.25682
H	957.745	-1.35082	-0.638576
