44
  This energy is 1.67884e-320 and Call times are: 118719
C	0.249843	0.62618	-3.41637
C	0.0278006	-0.287958	-2.27346
O	-0.328414	-1.44504	-2.44888
H	0.0366473	0.0868824	-4.36483
H	1.3045	0.973078	-3.42951
H	-0.42664	1.50355	-3.34193
N	0.231627	0.22311	-1.05706
C	0.0569994	-0.542091	0.151577
C	-0.144272	0.432905	1.2953
O	0.107812	1.62805	1.15421
H	0.4935	1.17558	-0.926052
H	-0.843213	-1.13714	0.064321
C	1.28193	-1.44171	0.429694
H	2.20377	-0.828087	0.517961
H	1.15074	-2.03242	1.35955
H	1.41928	-2.15048	-0.415841
N	-0.627007	-0.0549993	2.45501
C	-0.862187	0.800212	3.59496
H	-0.831575	-1.02397	2.54712
H	-1.25784	0.212529	4.45248
H	-1.60146	1.59502	3.34396
H	0.0824127	1.29618	3.91578
C	5617.84	-0.89585	-0.240423
C	5618.91	0.0780303	0.0810771
O	5618.64	1.23919	0.359331
H	5616.86	-0.38928	-0.185512
H	5617.86	-1.7341	0.487547
H	5617.99	-1.29528	-1.26662
N	5620.16	-0.381394	0.0431367
C	5621.31	0.44515	0.331869
C	5622.53	-0.2088	-0.293824
O	5622.48	-1.37067	-0.693463
H	5620.37	-1.32207	-0.213364
H	5621.17	1.40988	-0.140669
C	5621.52	0.606533	1.85436
H	5621.65	-0.385116	2.33602
H	5622.4	1.24253	2.08023
H	5620.62	1.08555	2.30095
N	5623.64	0.534903	-0.413273
C	5624.85	0.000616026	-1.00704
H	5623.66	1.47548	-0.0903087
H	5625.65	0.764619	-1.01269
H	5624.66	-0.31804	-2.05785
H	5625.21	-0.886196	-0.436537
