44
  This energy is 2.94463e-321 and Call times are: 30897
C	-3.2556	-0.180241	-1.2226
C	-1.88033	0.366191	-1.25801
O	-1.51348	1.09752	-2.16745
H	-3.81607	0.177685	-2.11345
H	-3.78018	0.163069	-0.306209
H	-3.22709	-1.29015	-1.23797
N	-1.07531	0.0116074	-0.253725
C	0.289444	0.462592	-0.14939
C	1.03057	-0.501034	0.756921
O	0.416764	-1.30807	1.45246
H	-1.37703	-0.608196	0.46582
H	0.751306	0.415552	-1.12742
C	0.366096	1.89571	0.422822
H	-0.109222	1.94049	1.42591
H	1.41553	2.24615	0.504355
H	-0.181473	2.59165	-0.249468
N	2.37728	-0.452719	0.75286
C	3.1677	-1.33963	1.57433
H	2.85573	0.20263	0.177677
H	4.25342	-1.14389	1.43241
H	2.96596	-2.40319	1.31094
H	2.92388	-1.19867	2.65223
C	1465.06	-2.24245	0.350738
C	1465.59	-0.87046	0.178672
O	1464.84	0.0742096	-0.0299367
H	1463.95	-2.22476	0.251464
H	1465.32	-2.63089	1.35673
H	1465.48	-2.91477	-0.42685
N	1466.91	-0.731172	0.258132
C	1467.58	0.540322	0.112242
C	1469.02	0.272653	-0.260684
O	1469.5	-0.852685	-0.143471
H	1467.51	-1.51297	0.399452
H	1467.12	1.08273	-0.70631
C	1467.51	1.36314	1.41817
H	1467.98	0.803463	2.25595
H	1468.02	2.34286	1.3093
H	1466.44	1.55147	1.68111
N	1469.74	1.30328	-0.742119
C	1471.12	1.14025	-1.13444
H	1469.33	2.2047	-0.836187
H	1471.54	2.1021	-1.50222
H	1471.21	0.384316	-1.94783
H	1471.74	0.795225	-0.272309
