44
  This energy is 2.45057e-320 and Call times are: 112881
C	1.39309	2.81074	-1.51168
C	0.280818	1.85324	-1.31869
O	-0.811824	2.04034	-1.83601
H	1.04845	3.6492	-2.15516
H	2.25008	2.30698	-2.00627
H	1.72017	3.22	-0.532664
N	0.538675	0.791595	-0.55137
C	-0.441578	-0.226967	-0.27126
C	-0.0119243	-0.953186	0.988598
O	1.12447	-0.814941	1.43729
H	1.42401	0.66543	-0.11182
H	-1.3937	0.247078	-0.0692008
C	-0.566107	-1.22541	-1.44374
H	0.412593	-1.70939	-1.64875
H	-1.32017	-2.01096	-1.23144
H	-0.880213	-0.680916	-2.36081
N	-0.92413	-1.73167	1.60329
C	-0.609135	-2.45214	2.81485
H	-1.84068	-1.82498	1.2285
H	-1.48855	-3.03642	3.16484
H	-0.311632	-1.74748	3.62491
H	0.235543	-3.15819	2.64397
C	5346.92	0.980371	-2.97693
C	5346.03	0.0867681	-2.20267
O	5345.34	-0.758874	-2.75926
H	5346.83	0.741781	-4.05892
H	5347.97	0.833687	-2.66392
H	5346.63	2.04062	-2.81724
N	5346.02	0.262578	-0.879297
C	5345.2	-0.529579	0.00737669
C	5345.03	0.244854	1.29981
O	5345.74	1.21873	1.54729
H	5346.56	0.974346	-0.440554
H	5344.22	-0.654428	-0.433233
C	5345.85	-1.90205	0.29225
H	5346.86	-1.77023	0.743592
H	5345.23	-2.51464	0.97455
H	5345.97	-2.45894	-0.662463
N	5344.07	-0.160071	2.14838
C	5343.82	0.52329	3.39733
H	5343.5	-0.946089	1.92682
H	5342.99	0.0391878	3.9547
H	5343.55	1.58818	3.21585
H	5344.73	0.504544	4.03966
