44
  This energy is 4.13533e-321 and Call times are: 112125
C	-3.3701	0.550463	-0.682325
C	-2.05686	-0.0491311	-1.00957
O	-1.9369	-0.845413	-1.93046
H	-4.13932	0.152987	-1.37959
H	-3.32396	1.65462	-0.789735
H	-3.66027	0.292384	0.357935
N	-1.02789	0.323065	-0.244672
C	0.310859	-0.173437	-0.439743
C	1.07344	0.0212408	0.85633
O	0.627761	0.744297	1.74537
H	-1.14404	0.950213	0.52092
H	0.266308	-1.2367	-0.638657
C	1.02369	0.568747	-1.59219
H	1.06704	1.65933	-1.38516
H	2.05472	0.188817	-1.74521
H	0.454661	0.419327	-2.5356
N	2.23776	-0.641409	1.00212
C	3.02679	-0.526735	2.20647
H	2.57804	-1.22737	0.274049
H	3.94845	-1.14514	2.13314
H	2.44416	-0.869689	3.09201
H	3.32761	0.531839	2.38
C	5307.03	1.08053	-2.3147
C	5307.88	1.29931	-1.12094
O	5307.96	2.39957	-0.591515
H	5306.54	2.03666	-2.59551
H	5306.25	0.324007	-2.09496
H	5307.65	0.732601	-3.16673
N	5308.55	0.238281	-0.66833
C	5309.42	0.293748	0.483203
C	5310.38	-0.873975	0.398921
O	5310.18	-1.79802	-0.387338
H	5308.51	-0.64575	-1.12575
H	5310	1.20501	0.441825
C	5308.61	0.22151	1.79779
H	5308.01	-0.714242	1.83661
H	5309.27	0.264123	2.68647
H	5307.91	1.08156	1.84687
N	5311.47	-0.847701	1.19732
C	5312.45	-1.90993	1.17756
H	5311.61	-0.0876228	1.82166
H	5313.26	-1.7065	1.90555
H	5312.9	-2.00945	0.163875
H	5311.97	-2.88383	1.44257
