44
  This energy is 9.85908e-320 and Call times are: 40221
C	-1.38087	3.04703	0.966918
C	-1.51124	1.63206	0.552119
O	-2.59498	1.06488	0.570193
H	-2.37754	3.4337	1.27188
H	-1.0007	3.65974	0.122593
H	-0.684083	3.13112	1.82736
N	-0.388122	1.02067	0.168486
C	-0.354611	-0.354022	-0.262691
C	1.06939	-0.853856	-0.115624
O	1.99643	-0.0665727	0.064982
H	0.493396	1.48496	0.185914
H	-0.98001	-0.944383	0.3949
C	-0.818238	-0.494845	-1.72977
H	-0.174907	0.112594	-2.40153
H	-0.793802	-1.55212	-2.06497
H	-1.86221	-0.124283	-1.82444
N	1.27324	-2.1849	-0.168255
C	2.59342	-2.75335	-0.0262165
H	0.509104	-2.80603	-0.307983
H	2.55398	-3.86252	-0.099865
H	3.03341	-2.48308	0.961004
H	3.27298	-2.37292	-0.822865
C	1911.88	1.47157	-1.0301
C	1910.95	1.01667	0.0283813
O	1911.28	1.03562	1.20732
H	1912.84	1.79198	-0.565152
H	1911.45	2.33108	-1.58008
H	1912.09	0.64382	-1.74125
N	1909.76	0.585158	-0.378155
C	1908.75	0.111615	0.532942
C	1907.78	-0.753843	-0.252309
O	1907.78	-0.744505	-1.48183
H	1909.51	0.547293	-1.34381
H	1909.21	-0.514062	1.28282
C	1907.99	1.28581	1.1944
H	1907.51	1.92599	0.422212
H	1907.21	0.924736	1.89667
H	1908.71	1.91277	1.76549
N	1906.94	-1.54288	0.44501
C	1905.99	-2.40961	-0.217226
H	1906.96	-1.54153	1.43947
H	1905.39	-2.9758	0.527097
H	1906.52	-3.14151	-0.870714
H	1905.3	-1.81741	-0.854172
