44
  This energy is 9.17381e-320 and Call times are: 96249
C	-2.81472	-0.399128	2.01101
C	-1.80675	-0.925757	1.06346
O	-1.75531	-2.11755	0.792392
H	-3.44062	-1.23819	2.3853
H	-3.46994	0.338517	1.50169
H	-2.31214	0.0869494	2.87361
N	-0.965866	-0.0332421	0.535538
C	0.0683242	-0.392682	-0.401522
C	1.11658	0.702757	-0.381325
O	0.882803	1.78679	0.149769
H	-0.99925	0.930486	0.786636
H	0.542111	-1.30752	-0.0688416
C	-0.499003	-0.558862	-1.82898
H	-0.984905	0.381278	-2.16685
H	0.294628	-0.835779	-2.55303
H	-1.26652	-1.36326	-1.8301
N	2.31137	0.435074	-0.944209
C	3.37438	1.41276	-0.961825
H	2.48356	-0.450663	-1.3626
H	4.27555	1.00473	-1.47041
H	3.65862	1.70282	0.0756324
H	3.05331	2.3328	-1.50185
C	4559.95	0.345578	-3.30216
C	4558.95	-0.0627585	-2.2904
O	4557.83	-0.428613	-2.61988
H	4559.5	0.261459	-4.31621
H	4560.84	-0.314353	-3.24702
H	4560.26	1.39844	-3.13192
N	4559.34	-0.00206304	-1.01447
C	4558.48	-0.366969	0.0825195
C	4559.01	0.295305	1.33629
O	4560.14	0.785523	1.35441
H	4560.24	0.325411	-0.757249
H	4557.49	0.0296551	-0.100281
C	4558.43	-1.89954	0.271494
H	4559.44	-2.30317	0.458156
H	4557.76	-2.18401	1.11527
H	4558.03	-2.37289	-0.654123
N	4558.21	0.344096	2.4131
C	4558.63	0.965278	3.6471
H	4557.29	-0.0519631	2.37632
H	4557.82	0.902295	4.41352
H	4558.87	2.03982	3.48269
H	4559.54	0.46249	4.04988
