44
  This energy is 5.25192e-321 and Call times are: 30981
C	-1.70695	2.37958	-1.88416
C	-1.01524	1.07784	-1.74925
O	-1.00786	0.267497	-2.66565
H	-2.17299	2.44521	-2.89131
H	-0.981358	3.2121	-1.76903
H	-2.50122	2.47274	-1.11383
N	-0.41398	0.844143	-0.580384
C	0.299517	-0.375824	-0.298551
C	0.386961	-0.527085	1.20767
O	0.125873	0.417321	1.95048
H	-0.451882	1.50015	0.168722
H	-0.270529	-1.21314	-0.680686
C	1.71675	-0.353462	-0.913415
H	2.29855	0.507139	-0.519721
H	2.26887	-1.2914	-0.698434
H	1.63897	-0.241076	-2.0168
N	0.737673	-1.73335	1.69546
C	0.835426	-1.97458	3.11618
H	0.938101	-2.48703	1.07819
H	1.13832	-3.02592	3.31661
H	-0.14416	-1.79107	3.61415
H	1.59	-1.29795	3.57875
C	1469.13	2.31227	-0.442423
C	1470.25	1.48973	-0.963331
O	1470.48	1.42184	-2.16306
H	1468.61	2.79527	-1.29283
H	1469.52	3.10211	0.233253
H	1468.41	1.67424	0.112391
N	1470.97	0.83153	-0.0562295
C	1472.09	-0.00849202	-0.408494
C	1472.33	-0.969239	0.739657
O	1471.81	-0.783224	1.83564
H	1470.76	0.871854	0.915969
H	1471.83	-0.595769	-1.27932
C	1473.36	0.828333	-0.676345
H	1473.63	1.43006	0.218821
H	1474.22	0.184654	-0.948005
H	1473.17	1.52883	-1.51864
N	1473.12	-2.03726	0.506292
C	1473.4	-3.0119	1.53585
H	1473.53	-2.17406	-0.389399
H	1474.06	-3.81288	1.14998
H	1472.45	-3.48457	1.89268
H	1473.89	-2.53094	2.40928
