44
  This energy is 1.47805e-319 and Call times are: 24513
C	-2.48163	2.32905	-0.737001
C	-1.80584	1.39769	0.194173
O	-2.11562	1.34981	1.37664
H	-3.24453	2.91566	-0.180465
H	-2.98562	1.76132	-1.54724
H	-1.74322	3.02946	-1.18097
N	-0.847273	0.628878	-0.327784
C	-0.10037	-0.326109	0.451294
C	1.19256	-0.618578	-0.284928
O	1.33937	-0.277767	-1.45716
H	-0.584129	0.697924	-1.28639
H	0.156985	0.120769	1.40321
C	-0.900509	-1.63141	0.658852
H	-1.16343	-2.08683	-0.319711
H	-0.328378	-2.3689	1.25848
H	-1.84573	-1.40348	1.19806
N	2.17337	-1.24162	0.397599
C	3.44323	-1.5506	-0.217346
H	2.03785	-1.50295	1.34764
H	4.11534	-2.06418	0.504975
H	3.94798	-0.620303	-0.56524
H	3.30129	-2.21675	-1.09898
C	1170.73	-1.66629	1.16927
C	1169.33	-1.65809	0.681907
O	1168.73	-2.7014	0.449896
H	1171.08	-2.71715	1.26007
H	1170.79	-1.17981	2.16551
H	1171.38	-1.12801	0.454759
N	1168.77	-0.458874	0.508125
C	1167.41	-0.288461	0.0399671
C	1167.29	1.113	-0.525481
O	1168.16	1.95832	-0.306055
H	1169.27	0.38425	0.672844
H	1167.23	-0.986268	-0.767171
C	1166.39	-0.49298	1.1818
H	1166.59	0.224044	2.00842
H	1165.35	-0.362634	0.824756
H	1166.5	-1.52282	1.58824
N	1166.21	1.38578	-1.28941
C	1166.02	2.6891	-1.88008
H	1165.53	0.686152	-1.46121
H	1165.08	2.71527	-2.47029
H	1166.86	2.94445	-2.55882
H	1165.96	3.47347	-1.09108
