44
  This energy is 1.2533e-319 and Call times are: 29511
C	0.249107	-1.16575	3.27186
C	0.84885	-0.59982	2.04254
O	2.01541	-0.232276	2.0192
H	1.01057	-1.17405	4.08179
H	-0.090802	-2.20657	3.08754
H	-0.614108	-0.547329	3.59645
N	0.0475676	-0.511204	0.978371
C	0.486321	0.0171163	-0.288594
C	-0.742968	0.44932	-1.06402
O	-1.86625	0.0976467	-0.708491
H	-0.909124	-0.787016	1.01843
H	1.09054	0.897972	-0.112264
C	1.27878	-1.03701	-1.09355
H	0.656178	-1.93957	-1.27206
H	1.61826	-0.633468	-2.0696
H	2.17601	-1.34622	-0.514307
N	-0.558201	1.24517	-2.1357
C	-1.67035	1.71629	-2.92775
H	0.358091	1.52468	-2.40311
H	-1.31381	2.35576	-3.76513
H	-2.37157	2.3157	-2.30304
H	-2.23756	0.859288	-3.35785
C	1406.95	2.78142	0.777789
C	1406.14	1.978	-0.173079
O	1405.87	2.40214	-1.28812
H	1407.21	3.75255	0.305941
H	1407.88	2.24302	1.04088
H	1406.36	2.97801	1.70071
N	1405.74	0.781935	0.257754
C	1404.95	-0.114192	-0.55191
C	1404.25	-1.08593	0.37637
O	1404.59	-1.18785	1.55362
H	1405.94	0.459875	1.17876
H	1404.19	0.455494	-1.06909
C	1405.83	-0.884951	-1.55807
H	1406.61	-1.46774	-1.02414
H	1405.23	-1.57577	-2.18323
H	1406.34	-0.161915	-2.23145
N	1403.23	-1.81063	-0.130492
C	1402.5	-2.75238	0.681389
H	1402.97	-1.70862	-1.0838
H	1401.7	-3.25023	0.0837311
H	1402.02	-2.23621	1.54362
H	1403.18	-3.53789	1.08455
