44
  This energy is 1.95057e-320 and Call times are: 106119
C	-2.17529	1.25738	-2.41107
C	-1.65437	1.20914	-1.02632
O	-2.0314	2.00844	-0.180471
H	-2.90044	2.09511	-2.50172
H	-2.69209	0.306381	-2.65874
H	-1.34333	1.42307	-3.12754
N	-0.756271	0.256949	-0.763435
C	-0.158992	0.0832901	0.536537
C	1.13353	-0.688748	0.35604
O	1.37944	-1.26421	-0.70236
H	-0.435472	-0.369786	-1.46858
H	0.0923457	1.05556	0.941004
C	-1.10387	-0.678644	1.49245
H	-1.3602	-1.67534	1.07412
H	-0.647143	-0.813968	2.49438
H	-2.04734	-0.103412	1.6154
N	2.00368	-0.700241	1.38497
C	3.26494	-1.39897	1.30019
H	1.78956	-0.222528	2.23065
H	3.83812	-1.29216	2.24745
H	3.8842	-0.992316	0.468084
H	3.10097	-2.48438	1.10998
C	5025.55	1.83352	-2.93941
C	5025.28	0.634739	-2.11315
O	5024.49	-0.22396	-2.4812
H	5024.93	1.78705	-3.86393
H	5026.62	1.87099	-3.22347
H	5025.28	2.75326	-2.37675
N	5025.94	0.553169	-0.955599
C	5025.79	-0.552489	-0.044206
C	5026.24	-0.0912838	1.32816
O	5026.87	0.952715	1.46318
H	5026.56	1.27343	-0.653408
H	5024.74	-0.809257	0.023342
C	5026.62	-1.77304	-0.494699
H	5027.7	-1.50591	-0.563582
H	5026.5	-2.62626	0.204766
H	5026.28	-2.10043	-1.50168
N	5025.9	-0.853239	2.38646
C	5026.27	-0.487366	3.73245
H	5025.38	-1.69083	2.25728
H	5025.9	-1.24081	4.46232
H	5025.84	0.504107	4.00418
H	5027.38	-0.421507	3.8276
