44
  This energy is 1.31664e-319 and Call times are: 110781
C	0.877137	-3.3523	-0.344728
C	0.759412	-2.11348	0.45694
O	0.983697	-2.11456	1.65952
H	1.17506	-4.1926	0.319355
H	1.64901	-3.22608	-1.13283
H	-0.0973368	-3.59622	-0.817856
N	0.392797	-1.01252	-0.203248
C	0.235897	0.26808	0.438832
C	-0.656777	1.12327	-0.439245
O	-0.901717	0.792507	-1.59788
H	0.184628	-1.03072	-1.17755
H	-0.270877	0.127487	1.38513
C	1.59966	0.963655	0.647283
H	2.11711	1.10571	-0.325437
H	1.48252	1.94992	1.1416
H	2.24463	0.326674	1.29103
N	-1.18379	2.23857	0.10331
C	-2.05456	3.10802	-0.652991
H	-0.97935	2.48535	1.04487
H	-2.38258	3.97166	-0.0334848
H	-2.96084	2.55675	-0.9936
H	-1.53088	3.50162	-1.55411
C	5248.81	3.11758	-1.25541
C	5249.11	1.88761	-0.486019
O	5250.23	1.66323	-0.0569408
H	5249.74	3.72139	-1.35149
H	5248.04	3.72236	-0.73073
H	5248.45	2.85589	-2.27083
N	5248.08	1.04794	-0.297485
C	5248.21	-0.188813	0.430857
C	5247.07	-1.09628	0.0148629
O	5246.11	-0.651086	-0.608251
H	5247.18	1.22802	-0.677012
H	5249.14	-0.671292	0.143139
C	5248.17	0.050144	1.95676
H	5247.22	0.545841	2.24835
H	5248.27	-0.900068	2.52062
H	5249.01	0.717186	2.24853
N	5247.16	-2.40246	0.333347
C	5246.13	-3.3438	-0.0317622
H	5247.95	-2.74467	0.831653
H	5246.39	-4.36686	0.320425
H	5246	-3.37607	-1.13791
H	5245.16	-3.05251	0.421196
