44
  This energy is 1.12568e-319 and Call times are: 71763
C	1.02213	-1.26507	3.07912
C	0.910872	-0.16345	2.09664
O	1.24312	0.977848	2.38568
H	1.42408	-0.865173	4.03536
H	1.71132	-2.04834	2.69923
H	0.0233438	-1.71194	3.26801
N	0.426876	-0.487002	0.895214
C	0.25992	0.474637	-0.165071
C	-0.753685	-0.0835713	-1.14499
O	-1.08455	-1.26698	-1.10131
H	0.132416	-1.41465	0.681426
H	-0.150521	1.38697	0.248769
C	1.59737	0.754866	-0.886047
H	2.01595	-0.183317	-1.3088
H	1.47246	1.49502	-1.70296
H	2.3316	1.16222	-0.157263
N	-1.28879	0.766729	-2.04313
C	-2.27033	0.327873	-3.00758
H	-1.01336	1.72232	-2.05781
H	-2.58695	1.1724	-3.65856
H	-3.17265	-0.0760282	-2.49385
H	-1.85265	-0.476659	-3.65523
C	3407.29	0.764251	-1.78408
C	3406	1.15114	-1.16348
O	3405.66	2.32339	-1.098
H	3407.82	1.67782	-2.13222
H	3407.11	0.0992849	-2.65489
H	3407.93	0.238675	-1.04382
N	3405.26	0.156391	-0.681416
C	3403.98	0.374396	-0.0497245
C	3403.67	-0.835981	0.810521
O	3404.32	-1.87498	0.687051
H	3405.56	-0.791906	-0.714705
H	3404.05	1.23331	0.605207
C	3402.86	0.579425	-1.09649
H	3402.79	-0.303287	-1.7671
H	3401.88	0.747706	-0.613506
H	3403.1	1.46822	-1.72092
N	3402.69	-0.72097	1.72263
C	3402.33	-1.81687	2.59405
H	3402.18	0.130475	1.81211
H	3401.5	-1.52702	3.27105
H	3403.2	-2.11892	3.21985
H	3402.01	-2.70274	2.00029
