44
  This energy is 1.05093e-319 and Call times are: 46479
C	-1.7491	2.75793	1.20855
C	-1.16868	1.40713	1.38075
O	-1.15022	0.861449	2.47546
H	-2.11715	3.12743	2.19032
H	-2.6003	2.72066	0.496586
H	-0.978361	3.45994	0.82632
N	-0.668568	0.832424	0.28441
C	-0.071107	-0.478988	0.292578
C	0.823326	-0.591079	-0.92671
O	0.748621	0.230173	-1.83874
H	-0.663289	1.29924	-0.595927
H	0.55559	-0.574668	1.17017
C	-1.14706	-1.58747	0.265893
H	-1.78858	-1.48591	-0.635352
H	-0.690466	-2.59854	0.272258
H	-1.79635	-1.4937	1.16354
N	1.71049	-1.6049	-0.960085
C	2.61121	-1.7844	-2.07483
H	1.7605	-2.25496	-0.208983
H	3.26063	-2.67345	-1.91646
H	3.26474	-0.890785	-2.19972
H	2.04143	-1.93038	-3.021
C	2205.01	-2.092	2.46637
C	2205.32	-1.78451	1.05213
O	2205.17	-2.62219	0.174045
H	2204.65	-3.14149	2.54386
H	2204.21	-1.41244	2.83993
H	2205.92	-1.97572	3.0923
N	2205.78	-0.556239	0.799127
C	2206.12	-0.108515	-0.526377
C	2207.06	1.07528	-0.388662
O	2207.2	1.64601	0.691729
H	2205.93	0.107726	1.52709
H	2206.66	-0.897667	-1.03493
C	2204.87	0.299236	-1.32776
H	2204.32	1.10851	-0.802863
H	2205.13	0.644352	-2.34893
H	2204.19	-0.576168	-1.42058
N	2207.75	1.45923	-1.48261
C	2208.67	2.56834	-1.44371
H	2207.63	0.980077	-2.34595
H	2209.14	2.72884	-2.44186
H	2209.48	2.37666	-0.706247
H	2208.15	3.50565	-1.14522
