44
  This energy is 5.78057e-321 and Call times are: 42741
C	-2.61466	2.29882	0.0714485
C	-1.5996	1.50429	-0.656274
O	-1.57576	1.47622	-1.87903
H	-3.28139	2.80275	-0.661627
H	-2.1196	3.0711	0.696999
H	-3.22749	1.63651	0.718549
N	-0.728412	0.825482	0.0938014
C	0.316864	0.00823393	-0.468633
C	0.752358	-0.9854	0.590742
O	0.418467	-0.839029	1.76502
H	-0.776333	0.833254	1.08908
H	-0.0858708	-0.554201	-1.30143
C	1.52036	0.865857	-0.919399
H	1.93062	1.44201	-0.0627485
H	2.327	0.239745	-1.3531
H	1.18798	1.59035	-1.6945
N	1.4947	-2.03757	0.193419
C	1.94519	-3.04102	1.12954
H	1.74857	-2.14217	-0.762531
H	2.54271	-3.82275	0.610782
H	1.07748	-3.53415	1.62468
H	2.58008	-2.58255	1.92193
C	2025.13	0.516067	-1.34472
C	2026.24	0.904481	-0.44971
O	2026.23	1.96928	0.152362
H	2024.37	1.32333	-1.35186
H	2024.66	-0.422074	-0.983736
H	2025.5	0.366749	-2.37924
N	2027.25	0.0359804	-0.346667
C	2028.4	0.272387	0.484704
C	2029.53	-0.606984	-0.0209256
O	2029.31	-1.52479	-0.808016
H	2027.27	-0.815041	-0.864848
H	2028.72	1.30322	0.370696
C	2028.11	-0.047435	1.96628
H	2027.79	-1.10552	2.0795
H	2028.99	0.133647	2.60926
H	2027.28	0.602414	2.32431
N	2030.78	-0.330756	0.405925
C	2031.92	-1.10653	-0.0313065
H	2030.94	0.42066	1.03727
H	2032.85	-0.725578	0.431145
H	2032.03	-1.05385	-1.13881
H	2031.8	-2.17682	0.25312
