44
  This energy is 9.16195e-320 and Call times are: 16407
C	0.791676	0.999174	-3.24053
C	1.16355	0.736183	-1.83207
O	2.32999	0.783413	-1.46643
H	1.70972	1.21785	-3.8281
H	0.110486	1.87401	-3.2994
H	0.28935	0.109962	-3.67632
N	0.162229	0.442658	-0.999269
C	0.365625	0.163078	0.399764
C	-0.837296	-0.613152	0.899451
O	-1.8657	-0.679122	0.228735
H	-0.780572	0.378688	-1.31545
H	1.23548	-0.472173	0.508799
C	0.533913	1.46478	1.21485
H	-0.35994	2.1144	1.10018
H	0.690868	1.25316	2.29251
H	1.41756	2.02473	0.83833
N	-0.727187	-1.24034	2.0871
C	-1.81639	-2.01294	2.63747
H	0.115835	-1.18086	2.61151
H	-1.53216	-2.44835	3.62077
H	-2.09262	-2.84646	1.95177
H	-2.71696	-1.37368	2.78413
C	783.244	2.2495	-2.62088
C	783.607	1.01464	-1.88988
O	784.425	0.227061	-2.34569
H	783.812	2.29214	-3.57516
H	783.496	3.1429	-2.01187
H	782.157	2.25346	-2.84953
N	782.991	0.813888	-0.722316
C	783.24	-0.340507	0.103853
C	782.053	-0.513376	1.03167
O	781.228	0.387767	1.17201
H	782.306	1.44837	-0.375578
H	783.295	-1.21896	-0.526488
C	784.537	-0.175151	0.926144
H	784.477	0.727332	1.57115
H	784.732	-1.06231	1.5633
H	785.399	-0.0482079	0.235043
N	781.928	-1.69173	1.67336
C	780.823	-1.9515	2.56751
H	782.602	-2.41113	1.54107
H	780.898	-2.97425	2.99831
H	779.853	-1.86918	2.02719
H	780.815	-1.21762	3.40569
