44
  This energy is 7.10911e-320 and Call times are: 76215
C	2.18599	1.5836	-2.19995
C	1.02495	1.59959	-1.28183
O	0.474307	2.64845	-0.976592
H	2.42358	2.62448	-2.50979
H	1.95022	0.984384	-3.10448
H	3.07155	1.14946	-1.68981
N	0.625835	0.416241	-0.809862
C	-0.488565	0.270013	0.0921126
C	-0.336507	-1.05736	0.809185
O	0.461332	-1.90171	0.406249
H	1.10085	-0.428104	-1.04305
H	-0.443016	1.05373	0.837623
C	-1.8346	0.313637	-0.665129
H	-1.87765	-0.491266	-1.42959
H	-2.69481	0.201477	0.0264122
H	-1.93331	1.29036	-1.18705
N	-1.08807	-1.26363	1.90855
C	-1.00223	-2.49234	2.66294
H	-1.72269	-0.565234	2.22277
H	-1.69905	-2.47113	3.52968
H	0.0318663	-2.64534	3.04827
H	-1.26495	-3.36564	2.02301
C	3611.96	2.08447	2.62645
C	3612.16	0.740703	2.03725
O	3612.03	-0.270962	2.71323
H	3611.71	1.97978	3.70392
H	3611.13	2.6105	2.11168
H	3612.89	2.6831	2.5322
N	3612.48	0.702326	0.742829
C	3612.7	-0.529645	0.028967
C	3613.53	-0.212521	-1.20068
O	3613.68	0.948695	-1.57718
H	3612.61	1.53449	0.210066
H	3613.28	-1.19808	0.652849
C	3611.37	-1.18859	-0.385258
H	3610.78	-0.499869	-1.02463
H	3611.54	-2.13751	-0.935014
H	3610.77	-1.41483	0.524222
N	3614.11	-1.24313	-1.84546
C	3614.93	-1.03638	-3.01862
H	3613.99	-2.17495	-1.52101
H	3615.32	-2.0054	-3.40447
H	3615.8	-0.381656	-2.78146
H	3614.34	-0.547214	-3.82715
