44
  This energy is 1.55646e-319 and Call times are: 117963
C	-1.18909	-3.26765	0.186199
C	-0.567214	-2.07197	0.798437
O	-0.360771	-2.01291	2.00276
H	-1.40888	-4.01442	0.979853
H	-0.497075	-3.72247	-0.553445
H	-2.13828	-2.98957	-0.318435
N	-0.255801	-1.07439	-0.0323582
C	0.354592	0.152532	0.413625
C	0.0894881	1.21348	-0.636777
O	-0.321632	0.903643	-1.75338
H	-0.455657	-1.1228	-1.00737
H	-0.124514	0.470774	1.33082
C	1.87569	-0.0195594	0.622827
H	2.36391	-0.346729	-0.319889
H	2.34883	0.923246	0.966388
H	2.05656	-0.800157	1.39361
N	0.299592	2.4995	-0.293236
C	0.0628907	3.57854	-1.22373
H	0.62562	2.73039	0.617604
H	0.295211	4.56013	-0.75494
H	-1.0023	3.58936	-1.55007
H	0.700477	3.46304	-2.13
C	5583.95	0.197304	0.409408
C	5585.31	0.725449	0.615321
O	5585.5	1.82756	1.11327
H	5583.21	0.947286	0.763022
H	5583.81	-0.742475	0.984438
H	5583.77	-0.000441265	-0.669005
N	5586.32	-0.061652	0.224038
C	5587.7	0.313387	0.359218
C	5588.51	-0.520503	-0.617626
O	5588.02	-1.50619	-1.16065
H	5586.16	-0.945035	-0.20699
H	5587.82	1.35219	0.0758469
C	5588.21	0.081946	1.8001
H	5588.09	-0.984619	2.08776
H	5589.28	0.369835	1.90774
H	5587.61	0.697387	2.50603
N	5589.77	-0.128636	-0.881037
C	5590.61	-0.853794	-1.80671
H	5590.15	0.675914	-0.436885
H	5591.61	-0.376584	-1.88665
H	5590.15	-0.874166	-2.821
H	5590.75	-1.90646	-1.46944
