44
  This energy is 8.43765e-320 and Call times are: 45681
C	0.184599	1.24203	-3.24799
C	-0.581292	0.884454	-2.03277
O	-1.76629	1.16865	-1.92548
H	-0.483204	1.77452	-3.95957
H	0.574128	0.325134	-3.73829
H	1.03267	1.9083	-2.98381
N	0.0931764	0.247289	-1.07283
C	-0.514472	-0.166067	0.166816
C	0.591638	-0.361797	1.18537
O	1.76823	-0.417518	0.832719
H	1.06546	0.0472741	-1.16003
H	-1.15591	0.628503	0.526389
C	-1.31367	-1.47672	-0.00805104
H	-0.652726	-2.28953	-0.377669
H	-1.78301	-1.79778	0.944535
H	-2.12	-1.3205	-0.757432
N	0.238288	-0.449264	2.48286
C	1.22374	-0.624192	3.52424
H	-0.718559	-0.394729	2.74877
H	0.735981	-0.675537	4.52259
H	1.94464	0.22523	3.52965
H	1.79961	-1.56476	3.36648
C	2166.47	2.62506	-1.37109
C	2166.67	1.18561	-1.09111
O	2165.8	0.36255	-1.35354
H	2165.46	2.77464	-1.81731
H	2167.24	2.98692	-2.08711
H	2166.54	3.21116	-0.430373
N	2167.84	0.847266	-0.537026
C	2168.18	-0.512844	-0.20651
C	2169.28	-0.475594	0.836559
O	2169.89	0.565104	1.06675
H	2168.52	1.53062	-0.301223
H	2167.32	-0.994216	0.24015
C	2168.66	-1.29168	-1.45305
H	2169.54	-0.794727	-1.90914
H	2168.92	-2.33939	-1.20216
H	2167.84	-1.31072	-2.20995
N	2169.54	-1.61298	1.51045
C	2170.56	-1.66961	2.52996
H	2169.03	-2.44294	1.31467
H	2170.63	-2.6909	2.96595
H	2170.34	-0.95133	3.35147
H	2171.56	-1.40683	2.10407
