44
  This energy is 7.03006e-320 and Call times are: 39171
C	-2.21822	0.0827873	2.68305
C	-1.60644	0.692173	1.48073
O	-2.03545	1.73837	1.01392
H	-3.0661	0.715543	3.02451
H	-1.46952	0.0138001	3.50006
H	-2.60026	-0.932378	2.4455
N	-0.576423	0.0355492	0.941953
C	0.122287	0.502855	-0.228627
C	0.837486	-0.68194	-0.848296
O	0.970532	-1.73273	-0.223816
H	-0.254826	-0.830921	1.31443
H	-0.600573	0.864251	-0.949002
C	1.13912	1.61015	0.127852
H	1.87878	1.23619	0.867566
H	1.67879	1.97235	-0.771225
H	0.602895	2.47178	0.581952
N	1.29773	-0.54554	-2.10749
C	1.98081	-1.6239	-2.78331
H	1.17392	0.310371	-2.59873
H	2.2833	-1.31645	-3.8086
H	1.31991	-2.51701	-2.86589
H	2.89592	-1.92228	-2.22232
C	1857.54	-2.82883	1.50777
C	1858.11	-1.46581	1.57618
O	1858.13	-0.837512	2.62572
H	1857.16	-3.11845	2.51174
H	1858.32	-3.55598	1.19434
H	1856.7	-2.85418	0.784238
N	1858.6	-0.969856	0.436744
C	1859.19	0.341686	0.344466
C	1859.15	0.770413	-1.10937
O	1858.91	-0.0440497	-1.9981
H	1858.56	-1.48014	-0.418026
H	1858.59	1.03962	0.910958
C	1860.65	0.339721	0.855463
H	1861.27	-0.377835	0.272558
H	1861.11	1.34809	0.785964
H	1860.67	0.022838	1.92103
N	1859.36	2.07222	-1.38369
C	1859.33	2.57452	-2.73751
H	1859.55	2.71704	-0.649959
H	1859.53	3.66823	-2.75612
H	1858.33	2.39427	-3.19947
H	1860.1	2.06555	-3.36422
