44
  This energy is 1.34667e-319 and Call times are: 41565
C	-1.4413	3.13426	0.474539
C	-0.67212	1.96783	0.963426
O	-0.136874	1.97908	2.06337
H	-1.41959	3.93693	1.24338
H	-2.49672	2.84506	0.286701
H	-0.992298	3.523	-0.463663
N	-0.594949	0.920613	0.138965
C	0.1174	-0.286669	0.473419
C	0.440644	-1.01022	-0.819338
O	-0.106216	-0.689527	-1.87287
H	-1.01082	0.934824	-0.766456
H	1.05501	-0.0225649	0.945866
C	-0.722151	-1.19775	1.39657
H	-1.6836	-1.4662	0.909058
H	-0.176567	-2.12818	1.65618
H	-0.95328	-0.655799	2.33945
N	1.35921	-1.99509	-0.771627
C	1.73963	-2.7315	-1.95448
H	1.79578	-2.23496	0.0892447
H	2.50585	-3.49984	-1.70989
H	2.16336	-2.04664	-2.72432
H	0.856574	-3.2457	-2.39832
C	1971.46	-2.6068	-1.80719
C	1972.32	-2.09985	-0.714646
O	1972.8	-2.85823	0.117651
H	1971.35	-3.70877	-1.70821
H	1971.92	-2.37778	-2.79244
H	1970.46	-2.14024	-1.75004
N	1972.54	-0.782232	-0.690948
C	1973.35	-0.140458	0.309438
C	1972.96	1.32457	0.356987
O	1972.28	1.82353	-0.53638
H	1972.12	-0.171402	-1.35756
H	1973.13	-0.571945	1.27651
C	1974.86	-0.281298	-0.0151246
H	1975.08	0.161789	-1.00817
H	1975.49	0.211621	0.753243
H	1975.13	-1.35898	-0.0482462
N	1973.37	2.04567	1.41907
C	1973.04	3.44474	1.55594
H	1973.92	1.62196	2.13517
H	1973.47	3.86073	2.49399
H	1971.94	3.58568	1.58342
H	1973.44	4.02975	0.696974
