44
  This energy is 6.99399e-320 and Call times are: 76173
C	-1.93233	-0.718934	2.80631
C	-1.24521	-1.12612	1.56001
O	-1.16139	-2.30377	1.23968
H	-2.30726	-1.62413	3.33157
H	-2.79283	-0.0581098	2.57038
H	-1.22668	-0.181996	3.47467
N	-0.725105	-0.143183	0.821294
C	-0.0275058	-0.381324	-0.417041
C	0.847105	0.824937	-0.698515
O	0.689655	1.87424	-0.0772257
H	-0.774622	0.809937	1.10773
H	0.623039	-1.23808	-0.295282
C	-1.01439	-0.605999	-1.58439
H	-1.68067	0.274559	-1.70605
H	-0.480579	-0.789811	-2.5394
H	-1.65	-1.49157	-1.36549
N	1.80947	0.694917	-1.63283
C	2.69778	1.78595	-1.95954
H	1.92562	-0.164611	-2.11961
H	3.41751	1.4833	-2.75178
H	3.27712	2.10304	-1.06229
H	2.12131	2.66566	-2.32692
C	3608.68	2.51472	-0.928909
C	3609.19	1.12957	-1.02647
O	3608.6	0.280717	-1.67957
H	3607.73	2.5992	-1.51194
H	3609.42	3.22801	-1.34266
H	3608.47	2.77199	0.130927
N	3610.32	0.866692	-0.362271
C	3610.94	-0.433438	-0.361417
C	3611.84	-0.516545	0.852717
O	3612.14	0.49513	1.48449
H	3610.77	1.55927	0.189967
H	3610.17	-1.19001	-0.252785
C	3611.76	-0.666287	-1.65082
H	3612.54	0.112018	-1.75945
H	3612.24	-1.66651	-1.65353
H	3611.08	-0.601695	-2.5329
N	3612.29	-1.73534	1.22113
C	3613.14	-1.91332	2.37092
H	3612.03	-2.54276	0.701121
H	3613.4	-2.98705	2.50821
H	3612.64	-1.55229	3.29613
H	3614.09	-1.3399	2.24834
