44
  This energy is 1.6319e-320 and Call times are: 37197
C	0.0776632	2.10964	2.76939
C	0.371191	1.81539	1.34867
O	0.807498	2.67955	0.600775
H	0.310092	3.17633	2.97916
H	0.700483	1.46968	3.42921
H	-0.996275	1.92682	2.98429
N	0.128038	0.568264	0.938874
C	0.363339	0.130087	-0.413702
C	-0.476538	-1.10916	-0.654754
O	-0.994031	-1.71032	0.284735
H	-0.25485	-0.118952	1.55048
H	0.0212061	0.897287	-1.09665
C	1.85699	-0.186038	-0.650767
H	2.20482	-0.972986	0.0519708
H	2.04173	-0.523579	-1.6913
H	2.46153	0.729349	-0.469833
N	-0.649592	-1.50866	-1.93008
C	-1.44306	-2.67046	-2.25692
H	-0.228479	-1.00466	-2.67699
H	-1.46349	-2.83601	-3.35666
H	-2.49143	-2.54268	-1.9022
H	-1.02344	-3.5819	-1.77279
C	1765.46	3.42119	-0.321014
C	1764.57	2.24426	-0.32315
O	1763.35	2.37492	-0.397706
H	1764.85	4.34837	-0.387591
H	1766.15	3.37972	-1.19213
H	1766.06	3.44809	0.616884
N	1765.16	1.04928	-0.233885
C	1764.42	-0.187529	-0.224105
C	1765.3	-1.25335	0.395655
O	1766.5	-1.05915	0.552897
H	1766.14	0.957307	-0.144327
H	1763.55	-0.0720356	0.409324
C	1764	-0.605979	-1.65227
H	1764.9	-0.722911	-2.29957
H	1763.43	-1.55786	-1.64839
H	1763.36	0.183502	-2.09565
N	1764.71	-2.40278	0.783824
C	1765.47	-3.46961	1.39435
H	1763.73	-2.53804	0.654563
H	1764.81	-4.33039	1.64059
H	1765.95	-3.11916	2.33448
H	1766.27	-3.82677	0.706198
