44
  This energy is 7.47472e-320 and Call times are: 88983
C	3.10987	-0.746163	-1.3777
C	1.87395	-1.1398	-0.664439
O	1.63426	-2.31308	-0.414531
H	3.70237	-1.65624	-1.61553
H	3.72255	-0.0750802	-0.73966
H	2.85591	-0.224997	-2.32471
N	1.04648	-0.149905	-0.321276
C	-0.194053	-0.374728	0.376842
C	-1.08593	0.828737	0.141338
O	-0.626856	1.86971	-0.324988
H	1.23897	0.799123	-0.556278
H	-0.687125	-1.23833	-0.0511044
C	0.04064	-0.573896	1.8909
H	0.547228	0.313627	2.32654
H	-0.91249	-0.747403	2.43147
H	0.696253	-1.45765	2.04996
N	-2.39414	0.705323	0.440265
C	-3.3214	1.79415	0.238212
H	-2.74771	-0.147612	0.810026
H	-4.34869	1.49789	0.545085
H	-3.34862	2.09303	-0.834715
H	-3.0194	2.68385	0.836892
C	4217.66	-0.191685	-1.19942
C	4216.62	-0.522356	-0.200441
O	4216.84	-1.32081	0.700242
H	4218.58	-0.773154	-0.97641
H	4217.9	0.891568	-1.15755
H	4217.31	-0.45287	-2.21973
N	4215.45	0.0913791	-0.344993
C	4214.34	-0.126807	0.54758
C	4213.07	0.284447	-0.176106
O	4213.12	0.9425	-1.21337
H	4215.27	0.717736	-1.09996
H	4214.26	-1.18477	0.765087
C	4214.49	0.689265	1.85012
H	4214.57	1.77408	1.62324
H	4213.64	0.523485	2.53973
H	4215.42	0.379494	2.37018
N	4211.89	-0.115436	0.346502
C	4210.63	0.218608	-0.279926
H	4211.87	-0.653411	1.18276
H	4209.78	-0.198897	0.301004
H	4210.59	-0.193511	-1.31401
H	4210.51	1.32369	-0.342791
