44
  This energy is 1.26772e-319 and Call times are: 78399
C	0.843152	-0.0757362	3.37779
C	-0.139846	0.101267	2.28528
O	-1.3331	0.229041	2.52257
H	0.31146	-0.0740561	4.35409
H	1.57952	0.755224	3.36822
H	1.37602	-1.0428	3.26041
N	0.348915	0.106654	1.04292
C	-0.482019	0.269371	-0.123226
C	0.275319	-0.281999	-1.31556
O	1.478	-0.52577	-1.23833
H	1.31941	-0.0275372	0.861097
H	-1.37975	-0.323271	-0.0010684
C	-0.835657	1.75477	-0.359109
H	0.0876246	2.35994	-0.483343
H	-1.47552	1.88365	-1.25618
H	-1.38905	2.14712	0.521782
N	-0.420933	-0.512738	-2.44605
C	0.213334	-1.04791	-3.6282
H	-1.39498	-0.315649	-2.48641
H	-0.524879	-1.16429	-4.45206
H	0.661838	-2.04544	-3.41598
H	1.02617	-0.371388	-3.9786
C	3714.24	-1.97112	1.07153
C	3714.97	-0.685888	1.02796
O	3714.5	0.329989	1.51701
H	3713.26	-1.8209	1.5852
H	3714.83	-2.72836	1.63126
H	3714.05	-2.33873	0.0411038
N	3716.16	-0.702812	0.425322
C	3716.99	0.468103	0.304017
C	3717.96	0.233591	-0.83626
O	3718.12	-0.891678	-1.3059
H	3716.52	-1.53026	0.00512785
H	3716.37	1.31437	0.0384361
C	3717.77	0.746835	1.61217
H	3718.4	-0.123623	1.88202
H	3718.41	1.64786	1.5223
H	3717.04	0.915737	2.43984
N	3718.62	1.30196	-1.32437
C	3719.56	1.17699	-2.41719
H	3718.48	2.2055	-0.935528
H	3720	2.16585	-2.67248
H	3719.05	0.774307	-3.32419
H	3720.39	0.482816	-2.14753
