44
  This energy is 1.27592e-319 and Call times are: 123129
C	-1.66192	3.05453	0.184421
C	-0.602651	2.12024	0.627441
O	0.263875	2.47401	1.41514
H	-1.50614	4.04284	0.669008
H	-2.66073	2.66566	0.474237
H	-1.62163	3.18425	-0.917619
N	-0.647636	0.887546	0.116761
C	0.31304	-0.132976	0.452118
C	0.288549	-1.17565	-0.64855
O	-0.624325	-1.19918	-1.47192
H	-1.34159	0.620173	-0.546475
H	1.30239	0.306387	0.467048
C	-0.0143782	-0.788537	1.81232
H	-1.03027	-1.23768	1.79369
H	0.723459	-1.5747	2.07369
H	0.00558935	-0.0141931	2.6099
N	1.30962	-2.05354	-0.700786
C	1.37729	-3.07405	-1.72067
H	2.04258	-2.01366	-0.0296614
H	2.28992	-3.69712	-1.59357
H	1.40524	-2.61439	-2.73515
H	0.486855	-3.74157	-1.66849
C	5828.44	0.571234	-2.04287
C	5829.04	0.154633	-0.757286
O	5828.35	-0.0800822	0.22161
H	5827.33	0.624211	-1.92954
H	5828.68	-0.165091	-2.83703
H	5828.82	1.57226	-2.33763
N	5830.37	0.0582669	-0.731291
C	5831.11	-0.335529	0.445753
C	5832.53	0.153959	0.292157
O	5832.95	0.541401	-0.797416
H	5830.93	0.280345	-1.52711
H	5830.68	0.160567	1.30814
C	5831.09	-1.86909	0.632796
H	5831.53	-2.37486	-0.254011
H	5831.65	-2.17575	1.53829
H	5830.04	-2.21522	0.742957
N	5833.31	0.167899	1.39245
C	5834.68	0.628512	1.34479
H	5832.95	-0.142927	2.2665
H	5835.15	0.561144	2.34935
H	5834.73	1.68893	1.00621
H	5835.28	0.0129272	0.633967
