44
  This energy is 6.21831e-320 and Call times are: 38877
C	2.53456	-2.03506	1.24927
C	1.90446	-0.7091	1.05949
O	2.33757	0.28414	1.62728
H	3.39063	-1.93772	1.95178
H	2.90861	-2.42333	0.278626
H	1.79992	-2.75066	1.67491
N	0.846069	-0.666351	0.246872
C	0.127283	0.550009	-0.0371057
C	-1.25471	0.16983	-0.531874
O	-1.50573	-0.985552	-0.869384
H	0.48504	-1.48758	-0.186919
H	0.0053518	1.10936	0.881772
C	0.857462	1.3995	-1.10121
H	0.981447	0.822387	-2.04232
H	0.306787	2.3369	-1.32214
H	1.86883	1.67046	-0.727234
N	-2.19413	1.13541	-0.565552
C	-3.5411	0.863983	-1.01072
H	-1.97331	2.06268	-0.281553
H	-4.16279	1.78532	-0.967307
H	-4.01834	0.0885905	-0.36865
H	-3.54043	0.490495	-2.06033
C	1843.05	1.03739	2.76401
C	1843.27	0.955229	1.30262
O	1842.43	1.35046	0.511848
H	1842.05	1.4829	2.95987
H	1843.83	1.67729	3.23298
H	1843.09	0.0230327	3.21427
N	1844.43	0.425258	0.9071
C	1844.79	0.278607	-0.480747
C	1845.87	-0.786006	-0.573428
O	1846.46	-1.17339	0.433716
H	1845.1	0.0801871	1.56068
H	1843.93	-0.0757607	-1.03188
C	1845.31	1.60928	-1.07151
H	1846.19	1.97027	-0.503324
H	1845.59	1.49996	-2.14006
H	1844.51	2.38108	-0.996573
N	1846.14	-1.30155	-1.78974
C	1847.13	-2.32789	-1.97321
H	1845.64	-0.979967	-2.59157
H	1847.21	-2.61923	-3.04425
H	1846.88	-3.23549	-1.37962
H	1848.13	-1.96699	-1.63949
