44
  This energy is 2.4812e-320 and Call times are: 125313
C	1.47314	0.998421	2.99318
C	0.698968	1.28476	1.76441
O	0.175175	2.37588	1.58667
H	1.46626	1.89596	3.64912
H	2.52402	0.750648	2.73422
H	1.01789	0.147925	3.54305
N	0.604279	0.290853	0.878097
C	-0.115	0.417339	-0.364266
C	-0.457757	-0.978162	-0.848345
O	0.0809957	-1.96569	-0.351983
H	1.01093	-0.602912	1.04768
H	-1.04539	0.939559	-0.180591
C	0.726092	1.15715	-1.42839
H	1.68012	0.619061	-1.61387
H	0.175185	1.25642	-2.38621
H	0.971576	2.1775	-1.06129
N	-1.38426	-1.0927	-1.82018
C	-1.78317	-2.38158	-2.33577
H	-1.81402	-0.282004	-2.20401
H	-2.55344	-2.2662	-3.12988
H	-2.20886	-3.01484	-1.52397
H	-0.909198	-2.91873	-2.77031
C	5930.73	0.717578	3.1616
C	5931.72	0.0705391	2.27365
O	5932.71	-0.486186	2.7299
H	5931.05	0.603061	4.21895
H	5929.73	0.239846	3.03649
H	5930.65	1.79961	2.92468
N	5931.48	0.136618	0.962978
C	5932.35	-0.445436	-0.0257041
C	5932.07	0.239986	-1.35019
O	5931.07	0.936677	-1.50192
H	5930.68	0.618236	0.602153
H	5933.38	-0.238027	0.245534
C	5932.11	-1.96701	-0.156417
H	5931.06	-2.17621	-0.434102
H	5932.78	-2.41841	-0.916761
H	5932.32	-2.45726	0.820611
N	5932.98	0.0742973	-2.33816
C	5932.8	0.698173	-3.62955
H	5933.78	-0.487525	-2.19348
H	5933.65	0.440551	-4.30575
H	5932.76	1.80684	-3.52781
H	5931.86	0.359233	-4.10738
