44
  This energy is 1.4904e-319 and Call times are: 6495
C	-0.160916	-3.42982	0.580135
C	-0.738266	-2.06878	0.653787
O	-1.89	-1.88948	1.02507
H	-0.926691	-4.17121	0.89604
H	0.716926	-3.51006	1.25525
H	0.151667	-3.6573	-0.460774
N	0.0623738	-1.06449	0.289439
C	-0.355784	0.314512	0.30755
C	0.556674	1.09031	-0.622397
O	1.60434	0.594615	-1.03291
H	0.989206	-1.22599	-0.0389422
H	-1.36181	0.382337	-0.0866292
C	-0.286728	0.904555	1.7338
H	0.746569	0.832741	2.13537
H	-0.608184	1.96622	1.75139
H	-0.958497	0.326855	2.40547
N	0.165943	2.32502	-0.994985
C	0.964233	3.13315	-1.88708
H	-0.688748	2.70573	-0.657652
H	0.47546	4.11514	-2.07158
H	1.1002	2.61983	-2.8665
H	1.97278	3.31962	-1.45207
C	316.332	3.18782	-1.09986
C	316.421	2.15504	-0.0432151
O	316.153	2.41649	1.1213
H	316.008	4.14998	-0.646454
H	315.589	2.88537	-1.86831
H	317.322	3.33171	-1.57984
N	316.814	0.940006	-0.433419
C	316.948	-0.168022	0.478117
C	317.874	-1.18585	-0.159535
O	318.161	-1.1137	-1.35297
H	317.057	0.747031	-1.38011
H	317.42	0.1805	1.38827
C	315.579	-0.814083	0.784808
H	315.098	-1.1699	-0.151167
H	315.679	-1.66751	1.48652
H	314.91	-0.0580186	1.25044
N	318.382	-2.15082	0.632008
C	319.281	-3.15619	0.115447
H	318.144	-2.18802	1.59685
H	319.588	-3.86065	0.919959
H	320.199	-2.68409	-0.304886
H	318.792	-3.7419	-0.695966
