44
  This energy is 1.68872e-320 and Call times are: 80331
C	1.72112	-2.89122	-0.897068
C	0.935249	-1.68475	-1.24065
O	0.771498	-1.34689	-2.40493
H	2.0941	-3.36489	-1.83108
H	1.08433	-3.62067	-0.353731
H	2.58952	-2.61467	-0.262762
N	0.428875	-0.995145	-0.215769
C	-0.357689	0.199728	-0.390198
C	-0.315547	0.979166	0.909778
O	0.0950591	0.455451	1.94368
H	0.593784	-1.26434	0.729364
H	0.0992625	0.813049	-1.15643
C	-1.8193	-0.137992	-0.760012
H	-2.2848	-0.767816	0.0278609
H	-2.42772	0.77979	-0.89521
H	-1.83642	-0.709876	-1.71332
N	-0.721711	2.26379	0.881837
C	-0.705632	3.08734	2.06829
H	-1.04383	2.67154	0.033776
H	-1.07806	4.11068	1.84173
H	0.328705	3.17252	2.47343
H	-1.35191	2.64655	2.86152
C	3805.8	2.64044	-2.26173
C	3806.49	1.90765	-1.17281
O	3807.61	2.22673	-0.803231
H	3806.47	3.45159	-2.63234
H	3804.86	3.091	-1.88604
H	3805.57	1.95148	-3.10184
N	3805.82	0.888146	-0.631262
C	3806.35	0.0808975	0.436674
C	3805.6	-1.23881	0.440913
O	3804.56	-1.3733	-0.197212
H	3804.92	0.619768	-0.960856
H	3807.39	-0.131137	0.230847
C	3806.2	0.783325	1.80406
H	3805.13	0.999963	2.0117
H	3806.61	0.164556	2.62858
H	3806.75	1.74919	1.78759
N	3806.14	-2.25553	1.14783
C	3805.5	-3.55205	1.20055
H	3806.98	-2.12892	1.6518
H	3806.09	-4.2523	1.83352
H	3805.42	-3.98968	0.179515
H	3804.48	-3.47071	1.62776
