44
  This energy is 1.31718e-319 and Call times are: 17919
C	-2.08495	2.75878	-0.410168
C	-1.42208	1.54005	-0.926411
O	-1.68987	1.09533	-2.03411
H	-2.80645	3.1336	-1.16833
H	-1.33091	3.54889	-0.21024
H	-2.63514	2.52789	0.526272
N	-0.531399	0.961573	-0.11745
C	0.195053	-0.229389	-0.47898
C	0.686462	-0.881303	0.798816
O	0.666887	-0.268785	1.86478
H	-0.343323	1.31694	0.794295
H	-0.482604	-0.921877	-0.962008
C	1.39015	0.0989769	-1.4015
H	2.08296	0.810125	-0.903107
H	1.95162	-0.815838	-1.68193
H	1.01701	0.577082	-2.33334
N	1.12085	-2.15476	0.723842
C	1.59609	-2.86096	1.89072
H	1.12215	-2.63573	-0.146729
H	1.91059	-3.89406	1.62415
H	0.795975	-2.92651	2.66322
H	2.46833	-2.33401	2.34093
C	855.49	1.9813	-2.77923
C	855.079	1.81848	-1.36663
O	854.929	2.78788	-0.635616
H	855.625	3.06244	-3.00024
H	854.71	1.57098	-3.45458
H	856.451	1.45477	-2.9614
N	854.89	0.566059	-0.944617
C	854.488	0.247273	0.402194
C	854.87	-1.19495	0.673216
O	855.187	-1.94493	-0.247995
H	855.043	-0.216805	-1.54173
H	855.044	0.869846	1.0918
C	852.968	0.439701	0.596148
H	852.4	-0.199943	-0.113322
H	852.655	0.195248	1.63214
H	852.701	1.4998	0.393547
N	854.869	-1.61164	1.95477
C	855.23	-2.96433	2.30984
H	854.616	-0.98759	2.68675
H	855.166	-3.11247	3.41038
H	856.272	-3.19089	1.98585
H	854.548	-3.6952	1.81727
