44
  This energy is 4.85815e-320 and Call times are: 44337
C	-3.39833	0.506891	-0.566154
C	-2.06838	0.0115191	-0.986907
O	-1.93215	-0.642448	-2.01173
H	-4.16229	0.180951	-1.30506
H	-3.39562	1.61615	-0.517639
H	-3.66295	0.0942735	0.430173
N	-1.04292	0.313246	-0.187051
C	0.310594	-0.0976514	-0.462691
C	1.08454	-0.0565425	0.840593
O	0.625153	0.516557	1.82667
H	-1.17127	0.8218	0.660201
H	0.303345	-1.12346	-0.808735
C	0.977535	0.826358	-1.50601
H	0.982664	1.87801	-1.14808
H	2.0198	0.51272	-1.7207
H	0.400531	0.788251	-2.45562
N	2.27516	-0.686494	0.880697
C	3.07718	-0.710633	2.08167
H	2.62645	-1.1507	0.0742593
H	4.02038	-1.2757	1.91337
H	2.52125	-1.1971	2.91565
H	3.34029	0.324233	2.39949
C	2102.93	2.54985	1.93741
C	2103.05	1.79879	0.666933
O	2102.29	2.01977	-0.268614
H	2102.09	3.27462	1.86152
H	2103.87	3.1074	2.13785
H	2102.73	1.85254	2.77758
N	2104.01	0.874733	0.608625
C	2104.24	0.0638069	-0.559269
C	2105	-1.17362	-0.122099
O	2105.53	-1.23024	0.989246
H	2104.6	0.683882	1.38776
H	2103.29	-0.25934	-0.960692
C	2105.05	0.834826	-1.62581
H	2106.03	1.16542	-1.21043
H	2105.24	0.21339	-2.5265
H	2104.49	1.73952	-1.93682
N	2105.06	-2.20772	-0.984145
C	2105.75	-3.43126	-0.650049
H	2104.63	-2.14521	-1.87603
H	2105.69	-4.1595	-1.48854
H	2105.31	-3.90064	0.255703
H	2106.83	-3.23035	-0.438957
