44
  This energy is 5.01131e-320 and Call times are: 50469
C	1.78521	1.89469	-2.31286
C	1.31705	1.62618	-0.934479
O	1.73615	2.27565	0.0136909
H	2.52678	2.72269	-2.29412
H	0.930478	2.19231	-2.95604
H	2.26832	0.989044	-2.73636
N	0.42668	0.641661	-0.791845
C	-0.121983	0.263028	0.485823
C	-0.652839	-1.1521	0.364001
O	-0.802997	-1.67437	-0.73896
H	0.114927	0.100589	-1.56837
H	0.67248	0.254154	1.22123
C	-1.25538	1.22032	0.91726
H	-2.0684	1.22747	0.160252
H	-1.67999	0.931748	1.90073
H	-0.853946	2.25369	1.00174
N	-0.929971	-1.81603	1.50348
C	-1.42827	-3.1716	1.48608
H	-0.795014	-1.37861	2.38647
H	-1.59639	-3.54208	2.52133
H	-0.701556	-3.85091	0.98443
H	-2.39321	-3.22859	0.932168
C	2395.02	-0.660325	-3.01123
C	2393.79	-0.483489	-2.206
O	2392.69	-0.462718	-2.73302
H	2394.75	-0.752458	-4.08466
H	2395.55	-1.58134	-2.69646
H	2395.69	0.216437	-2.88524
N	2393.96	-0.344098	-0.889
C	2392.86	-0.164121	0.025085
C	2393.4	0.465085	1.29217
O	2394.62	0.499492	1.50602
H	2394.86	-0.333577	-0.475033
H	2392.15	0.530639	-0.408608
C	2392.17	-1.5096	0.352584
H	2392.9	-2.22017	0.796709
H	2391.33	-1.37464	1.05607
H	2391.78	-1.96084	-0.583883
N	2392.52	0.999798	2.15602
C	2392.95	1.63076	3.38279
H	2391.54	0.968309	1.96159
H	2392.07	2.00634	3.9578
H	2393.62	2.49164	3.16759
H	2393.5	0.908484	4.02294
