44
  This energy is 1.28506e-319 and Call times are: 116955
C	-0.259137	2.30323	2.59887
C	0.168899	1.92414	1.23348
O	0.627233	2.75448	0.460862
H	-0.0955138	3.39295	2.74579
H	0.333718	1.74578	3.35425
H	-1.3379	2.07982	2.73779
N	0.0202078	0.639841	0.900554
C	0.391132	0.119189	-0.39102
C	-0.366304	-1.17669	-0.606012
O	-0.934158	-1.73567	0.330429
H	-0.381475	-0.0211705	1.52877
H	0.0736854	0.816523	-1.15589
C	1.91272	-0.133823	-0.47967
H	2.23506	-0.849112	0.306826
H	2.2018	-0.534613	-1.47294
H	2.4562	0.822766	-0.319309
N	-0.410223	-1.67484	-1.85738
C	-1.1177	-2.89726	-2.15965
H	0.0496693	-1.20397	-2.60304
H	-1.03571	-3.14179	-3.24166
H	-2.19751	-2.79995	-1.90317
H	-0.699322	-3.74838	-1.57507
C	5538.13	0.133347	3.23874
C	5538.79	-0.589731	2.12811
O	5539.24	-1.71281	2.28806
H	5538.15	-0.50037	4.15193
H	5537.07	0.355486	2.97704
H	5538.66	1.08279	3.44912
N	5538.86	0.05295	0.959924
C	5539.47	-0.519992	-0.212809
C	5539.83	0.615081	-1.1493
O	5539.38	1.74508	-0.974004
H	5538.5	0.979144	0.850142
H	5540.38	-1.01712	0.0756449
C	5538.51	-1.50556	-0.920749
H	5537.57	-0.992422	-1.21469
H	5538.98	-1.94868	-1.82409
H	5538.25	-2.33158	-0.223933
N	5540.68	0.343083	-2.15909
C	5541.1	1.36348	-3.09357
H	5541.04	-0.576015	-2.27994
H	5541.79	0.943218	-3.85069
H	5541.61	2.19524	-2.56305
H	5540.22	1.78922	-3.62676
