44
  This energy is 1.0487e-319 and Call times are: 96795
C	-0.702246	3.21553	-1.13727
C	-0.975757	1.76137	-1.09443
O	-1.96869	1.28845	-1.63008
H	-1.51571	3.72591	-1.69731
H	0.263206	3.40825	-1.65067
H	-0.66153	3.62796	-0.107126
N	-0.0876805	1.00998	-0.43937
C	-0.216501	-0.419668	-0.311598
C	0.617637	-0.858309	0.876277
O	1.44109	-0.0976086	1.38134
H	0.701902	1.41072	0.017696
H	-1.24933	-0.66199	-0.0957019
C	0.258822	-1.14385	-1.59095
H	1.31855	-0.892486	-1.80984
H	0.160854	-2.24483	-1.49604
H	-0.359239	-0.813042	-2.45392
N	0.406426	-2.09609	1.36545
C	1.14519	-2.59583	2.50153
H	-0.269461	-2.69404	0.947295
H	0.829574	-3.63296	2.7505
H	0.973592	-1.95318	3.39529
H	2.23836	-2.6039	2.28685
C	4583.93	-1.89504	2.75711
C	4584.4	-0.629852	2.14603
O	4584.47	0.40048	2.8016
H	4583.68	-1.71674	3.82563
H	4584.73	-2.66495	2.69813
H	4583.03	-2.2623	2.23254
N	4584.73	-0.681054	0.852548
C	4585.2	0.466908	0.119041
C	4584.97	0.201496	-1.35664
O	4584.7	-0.929736	-1.75831
H	4584.64	-1.51975	0.322126
H	4584.6	1.32804	0.393496
C	4586.69	0.731192	0.387771
H	4587.3	-0.154484	0.10572
H	4587.06	1.61453	-0.17536
H	4586.85	0.92299	1.47225
N	4585.05	1.24975	-2.19973
C	4584.84	1.09501	-3.62002
H	4585.26	2.15866	-1.85438
H	4584.95	2.07067	-4.14269
H	4583.82	0.701623	-3.82403
H	4585.58	0.380437	-4.05204
