44
  This energy is 2.83396e-320 and Call times are: 7965
C	0.307761	3.27355	-1.14686
C	-0.509355	2.10362	-0.753414
O	-1.72719	2.18236	-0.668677
H	-0.359398	4.14546	-1.32161
H	0.864695	3.05412	-2.08201
H	1.02678	3.52725	-0.339655
N	0.156113	0.97552	-0.494764
C	-0.499456	-0.245899	-0.10082
C	0.524689	-1.12063	0.595746
O	1.72497	-0.864603	0.520877
H	1.15064	0.931955	-0.539071
H	-1.27569	-0.0129078	0.616992
C	-1.08871	-0.987074	-1.3217
H	-0.289781	-1.22395	-2.05636
H	-1.59436	-1.92794	-1.02193
H	-1.83655	-0.335362	-1.82386
N	0.0691146	-2.16743	1.31176
C	0.969295	-3.04847	2.0186
H	-0.906361	-2.35381	1.36599
H	0.40369	-3.84818	2.54566
H	1.56121	-2.48204	2.7736
H	1.68266	-3.53099	1.31187
C	381.708	-2.24594	-1.64486
C	381.981	-1.27682	-0.559736
O	381.096	-0.915368	0.203065
H	380.635	-2.53411	-1.61851
H	382.328	-3.15694	-1.50912
H	381.933	-1.78938	-2.63161
N	383.234	-0.823902	-0.470426
C	383.653	0.122056	0.532578
C	384.922	0.7907	0.0406686
O	385.549	0.326901	-0.90987
H	383.939	-1.10378	-1.11596
H	382.895	0.888402	0.632462
C	383.91	-0.572619	1.88852
H	384.688	-1.35864	1.78226
H	384.233	0.152902	2.66315
H	382.973	-1.0595	2.2374
N	385.319	1.91572	0.667304
C	386.508	2.62759	0.26072
H	384.794	2.27918	1.42991
H	386.667	3.52484	0.898711
H	386.423	2.96149	-0.798778
H	387.406	1.97364	0.34568
