44
  This energy is 6.51771e-320 and Call times are: 3303
C	-2.43772	2.43222	-0.517656
C	-1.42526	1.76398	0.330628
O	-1.11484	2.21945	1.42273
H	-2.80658	3.34421	0.000104485
H	-3.29508	1.75042	-0.699044
H	-1.98858	2.7274	-1.4893
N	-0.875713	0.653074	-0.165604
C	0.122954	-0.108125	0.541552
C	0.875086	-0.946533	-0.473636
O	0.438445	-1.09497	-1.61344
H	-1.11583	0.308217	-1.06913
H	0.831098	0.574721	0.993577
C	-0.517888	-1.01892	1.61248
H	-1.24429	-1.71769	1.14539
H	0.248283	-1.60636	2.159
H	-1.06676	-0.392899	2.34936
N	2.04166	-1.49912	-0.0866472
C	2.83278	-2.30336	-0.988588
H	2.38168	-1.36143	0.837829
H	3.75431	-2.66882	-0.484142
H	3.13416	-1.71026	-1.88225
H	2.25173	-3.18649	-1.34024
C	163.977	2.543	2.0404
C	164.049	1.12144	1.634
O	163.508	0.246129	2.29578
H	163.392	2.62656	2.982
H	163.475	3.1415	1.25123
H	164.998	2.94365	2.21475
N	164.736	0.857269	0.520073
C	164.895	-0.476338	-0.00249784
C	166.106	-0.478081	-0.914652
O	166.607	0.577929	-1.29676
H	165.196	1.57577	0.00566202
H	165.099	-1.15339	0.817171
C	163.641	-0.927375	-0.783965
H	163.433	-0.230223	-1.62369
H	163.759	-1.95389	-1.18759
H	162.76	-0.92068	-0.105071
N	166.62	-1.67234	-1.26852
C	167.78	-1.77217	-2.12414
H	166.205	-2.51555	-0.943133
H	168.048	-2.83721	-2.3008
H	168.655	-1.26289	-1.66029
H	167.583	-1.29178	-3.10994
