44
  This energy is 8.17728e-320 and Call times are: 95829
C	0.228169	-3.24117	1.25255
C	0.261008	-2.27297	0.133298
O	0.591046	-2.6188	-0.992745
H	0.54307	-4.24108	0.882573
H	-0.800932	-3.3174	1.66238
H	0.923199	-2.9203	2.05686
N	-0.0810882	-1.01617	0.426175
C	-0.0979713	0.0383853	-0.555892
C	-0.0108309	1.36148	0.179678
O	-0.194458	1.41882	1.3941
H	-0.319946	-0.740716	1.35354
H	0.78155	-0.0489323	-1.1811
C	-1.38362	-0.0101926	-1.41138
H	-2.28396	0.0789737	-0.766748
H	-1.39981	0.800354	-2.1687
H	-1.43623	-0.984661	-1.9441
N	0.294916	2.45837	-0.540979
C	0.411385	3.75932	0.0755881
H	0.44692	2.3902	-1.52153
H	0.666795	4.53228	-0.682397
H	1.20827	3.75516	0.854173
H	-0.54685	4.05009	0.563868
C	4540.61	-0.370244	-3.00884
C	4540.14	0.452841	-1.87298
O	4540.51	1.61061	-1.73371
H	4541.31	0.231149	-3.6338
H	4539.75	-0.689549	-3.63409
H	4541.15	-1.26688	-2.63437
N	4539.3	-0.140086	-1.01929
C	4538.76	0.530881	0.133427
C	4538.31	-0.529178	1.119
O	4538.2	-1.70445	0.773497
H	4539.03	-1.09291	-1.12749
H	4539.54	1.10864	0.607797
C	4537.57	1.43742	-0.254243
H	4536.77	0.841591	-0.741223
H	4537.14	1.95571	0.630974
H	4537.91	2.20883	-0.977353
N	4538.05	-0.138628	2.38283
C	4537.62	-1.0798	3.39305
H	4538.15	0.81584	2.64464
H	4537.46	-0.565712	4.36591
H	4538.39	-1.87201	3.53972
H	4536.67	-1.57466	3.09422
