44
  This energy is 1.12845e-319 and Call times are: 103389
C	1.36286	3.19767	0.208877
C	1.1778	1.82499	0.731089
O	1.81829	1.42223	1.69237
H	2.13462	3.72022	0.814838
H	0.410015	3.76383	0.274978
H	1.69917	3.16284	-0.848775
N	0.286	1.06315	0.093403
C	-0.00439841	-0.293368	0.483739
C	-0.622617	-0.998807	-0.707647
O	-1.02587	-0.359126	-1.6772
H	-0.208269	1.39307	-0.706465
H	0.923918	-0.798058	0.719515
C	-0.971515	-0.337431	1.68784
H	-1.92254	0.181793	1.44272
H	-1.19713	-1.38046	1.99111
H	-0.507539	0.183574	2.55353
N	-0.691496	-2.34413	-0.670896
C	-1.25309	-3.10216	-1.7646
H	-0.353247	-2.84407	0.119597
H	-1.22172	-4.19206	-1.54465
H	-0.68318	-2.91764	-2.70396
H	-2.31369	-2.81042	-1.94129
C	4896.95	-2.13347	2.75177
C	4897.58	-1.61875	1.51437
O	4898.7	-1.9777	1.17719
H	4897.65	-2.83621	3.25423
H	4896.01	-2.67405	2.50775
H	4896.73	-1.29502	3.44381
N	4896.86	-0.74669	0.802934
C	4897.34	-0.158605	-0.423574
C	4896.55	1.11396	-0.666663
O	4895.53	1.3484	-0.032277
H	4895.96	-0.439927	1.1034
H	4898.38	0.116614	-0.301381
C	4897.17	-1.12631	-1.61555
H	4896.1	-1.4071	-1.73761
H	4897.53	-0.676703	-2.56153
H	4897.75	-2.05487	-1.4247
N	4897.03	1.97998	-1.58178
C	4896.35	3.22287	-1.87163
H	4897.87	1.77548	-2.07957
H	4896.9	3.79539	-2.65275
H	4896.29	3.85537	-0.957039
H	4895.32	3.0313	-2.23737
