44
  This energy is 1.4822e-321 and Call times are: 25017
C	-0.200215	2.50339	2.41228
C	-0.127262	1.0784	2.01821
O	0.00554985	0.196545	2.85558
H	-0.109802	2.58394	3.51736
H	-1.17276	2.93772	2.0987
H	0.627987	3.07373	1.94139
N	-0.208166	0.819769	0.710949
C	-0.152956	-0.516287	0.173608
C	0.248333	-0.415548	-1.28518
O	0.218352	0.664404	-1.87223
H	-0.286963	1.54901	0.036457
H	0.619952	-1.07148	0.689795
C	-1.51691	-1.23073	0.301292
H	-2.30763	-0.658125	-0.228815
H	-1.47791	-2.25979	-0.111363
H	-1.80011	-1.2971	1.37439
N	0.656469	-1.54285	-1.9005
C	1.06889	-1.54125	-3.28473
H	0.680504	-2.40564	-1.40629
H	1.36682	-2.56318	-3.60746
H	1.93685	-0.859187	-3.43529
H	0.238882	-1.19401	-3.94176
C	1190.52	1.89294	2.88359
C	1190.54	1.74574	1.41073
O	1190.13	2.64179	0.681606
H	1190.1	2.88779	3.14929
H	1191.56	1.8189	3.28535
H	1189.89	1.10295	3.34129
N	1191	0.588987	0.934818
C	1191.08	0.297593	-0.474453
C	1191.14	-1.20881	-0.636024
O	1191.38	-1.93529	0.328075
H	1191.3	-0.144551	1.53995
H	1190.17	0.642743	-0.954934
C	1192.32	0.952717	-1.11755
H	1193.25	0.596922	-0.621789
H	1192.38	0.730486	-2.20269
H	1192.27	2.05589	-0.991417
N	1190.91	-1.71595	-1.86305
C	1190.94	-3.13883	-2.10983
H	1190.72	-1.11196	-2.62898
H	1190.73	-3.35637	-3.17992
H	1190.17	-3.65969	-1.48846
H	1191.94	-3.56308	-1.85661
