44
  This energy is 6.76672e-320 and Call times are: 51141
C	-3.40742	0.437559	0.569331
C	-2.11843	0.87431	-0.0128504
O	-2.05897	1.83315	-0.770201
H	-4.22059	1.09893	0.198919
H	-3.3683	0.50208	1.67709
H	-3.62903	-0.607882	0.267859
N	-1.04165	0.163503	0.330194
C	0.281449	0.465882	-0.154363
C	1.1271	-0.784573	-0.0112628
O	0.74052	-1.7299	0.67339
H	-1.10748	-0.633274	0.924963
H	0.223897	0.705187	-1.20864
C	0.917538	1.63079	0.636524
H	0.974416	1.38218	1.71776
H	1.93633	1.86634	0.265906
H	0.28807	2.5404	0.524618
N	2.29839	-0.826565	-0.676323
C	3.16443	-1.98055	-0.609311
H	2.59032	-0.0542654	-1.23091
H	4.07927	-1.82174	-1.22176
H	2.64087	-2.88731	-0.989972
H	3.47604	-2.17761	0.441994
C	2425.82	-3.34325	0.879526
C	2425.06	-2.074	0.913022
O	2423.94	-2.01811	1.4127
H	2425.21	-4.14713	1.35164
H	2426.77	-3.23363	1.44081
H	2426.04	-3.62943	-0.170287
N	2425.65	-1.01116	0.36667
C	2425.04	0.292048	0.32337
C	2425.71	1.08807	-0.777244
O	2426.77	0.702156	-1.276
H	2426.55	-1.07609	-0.0632526
H	2424	0.18092	0.0571829
C	2425.18	1.02678	1.67487
H	2426.25	1.13847	1.94519
H	2424.71	2.03053	1.64508
H	2424.69	0.432979	2.47288
N	2425.1	2.21346	-1.19815
C	2425.66	3.02947	-2.24942
H	2424.25	2.5052	-0.786887
H	2425.02	3.91135	-2.45083
H	2425.76	2.44357	-3.19202
H	2426.68	3.39564	-1.96437
