44
  This energy is 1.28462e-319 and Call times are: 23799
C	-0.16956	1.72496	3.02025
C	-0.590163	1.51318	1.61688
O	-1.51723	2.14706	1.13187
H	-0.81838	2.49863	3.48536
H	0.884693	2.07155	3.05551
H	-0.267289	0.780493	3.59591
N	0.0912033	0.596621	0.925488
C	-0.199935	0.279037	-0.449723
C	0.36733	-1.09683	-0.740318
O	1.1624	-1.62543	0.0344585
H	0.825474	0.0661208	1.34064
H	-1.27352	0.226217	-0.578965
C	0.415511	1.32114	-1.41013
H	1.51687	1.3732	-1.27439
H	0.19312	1.07972	-2.46986
H	-0.00721565	2.32479	-1.18623
N	-0.0481008	-1.72045	-1.86037
C	0.428609	-3.03748	-2.21302
H	-0.697425	-1.27905	-2.47092
H	-0.027383	-3.37788	-3.16876
H	0.169527	-3.77474	-1.41893
H	1.5361	-3.03528	-2.33403
C	1135.68	2.71723	-1.25829
C	1134.88	1.4869	-1.44533
O	1134.5	1.14158	-2.55604
H	1135.83	3.20682	-2.24398
H	1136.67	2.46659	-0.820192
H	1135.14	3.42314	-0.587113
N	1134.59	0.791126	-0.342039
C	1133.82	-0.426802	-0.362937
C	1133.26	-0.647708	1.02866
O	1133.69	-0.00741584	1.98735
H	1134.88	1.09843	0.560502
H	1132.98	-0.302455	-1.03852
C	1134.69	-1.6338	-0.784079
H	1135.55	-1.75804	-0.0892766
H	1134.1	-2.57322	-0.801367
H	1135.09	-1.45915	-1.80452
N	1132.27	-1.54982	1.16741
C	1131.67	-1.8182	2.45211
H	1131.93	-2.05265	0.378265
H	1130.87	-2.59121	2.35979
H	1131.21	-0.893423	2.87205
H	1132.43	-2.18473	3.17588
