44
  This energy is 1.76974e-320 and Call times are: 61431
C	-2.85987	-1.32809	1.47766
C	-2.05012	-0.181306	1.0082
O	-2.50405	0.954665	1.00565
H	-3.86468	-0.966288	1.78638
H	-2.36912	-1.81207	2.34815
H	-2.98057	-2.07119	0.66146
N	-0.813979	-0.460604	0.58829
C	0.0933437	0.548415	0.103032
C	1.14511	-0.139815	-0.745123
O	1.27615	-1.362	-0.714692
H	-0.465923	-1.39408	0.567938
H	-0.45007	1.23169	-0.537205
C	0.764743	1.30859	1.26857
H	1.32077	0.604526	1.92373
H	1.46391	2.08639	0.898466
H	-0.0163176	1.80729	1.88289
N	1.90857	0.632738	-1.5428
C	2.92746	0.0645907	-2.39442
H	1.78238	1.61918	-1.5586
H	3.44721	0.861244	-2.971
H	2.47908	-0.655192	-3.11699
H	3.68628	-0.481761	-1.78871
C	2914.29	-2.92849	1.14773
C	2914.16	-1.8407	0.153242
O	2914.95	-1.72891	-0.775107
H	2915.18	-3.54821	0.893824
H	2913.39	-3.57341	1.13675
H	2914.43	-2.50294	2.16404
N	2913.14	-0.998113	0.333274
C	2912.87	0.109187	-0.550368
C	2912.02	1.11427	0.203315
O	2911.47	0.806891	1.25998
H	2912.52	-1.08248	1.10997
H	2913.81	0.591433	-0.800106
C	2912.14	-0.354	-1.82854
H	2911.18	-0.84887	-1.56862
H	2911.93	0.496109	-2.51124
H	2912.77	-1.09075	-2.37091
N	2911.91	2.35313	-0.315407
C	2911.14	3.37965	0.338507
H	2912.37	2.58446	-1.16783
H	2911.17	4.32704	-0.243523
H	2911.53	3.58259	1.3596
H	2910.07	3.06353	0.437943
