44
  This energy is 1.23689e-319 and Call times are: 110445
C	3.45573	-0.400962	0.152607
C	2.18264	0.133849	0.685917
O	2.13764	0.693924	1.77256
H	4.27043	-0.207311	0.883789
H	3.70804	0.0975625	-0.80689
H	3.37236	-1.49607	-0.0109063
N	1.10151	-0.0359065	-0.0787394
C	-0.207536	0.429615	0.304051
C	-1.23234	-0.357062	-0.489772
O	-0.89324	-1.03001	-1.46136
H	1.14581	-0.519595	-0.948807
H	-0.365775	0.211668	1.35264
C	-0.369404	1.94143	0.0296155
H	-0.205751	2.16155	-1.0469
H	-1.37618	2.30323	0.323353
H	0.387664	2.50642	0.615944
N	-2.51453	-0.307066	-0.0780731
C	-3.55745	-1.0331	-0.764628
H	-2.76778	0.237519	0.714722
H	-4.54213	-0.862957	-0.276051
H	-3.34606	-2.12693	-0.755554
H	-3.63144	-0.704558	-1.82659
C	5231.1	-1.65319	-2.95784
C	5231.29	-1.63068	-1.49033
O	5230.99	-2.59435	-0.798338
H	5230.66	-2.6316	-3.25613
H	5232.07	-1.52124	-3.47368
H	5230.4	-0.842411	-3.26541
N	5231.8	-0.507645	-0.975901
C	5232.04	-0.334655	0.433651
C	5232.1	1.15375	0.716535
O	5232.21	1.96439	-0.202084
H	5232.01	0.281191	-1.54671
H	5231.21	-0.740366	0.988604
C	5233.36	-1.01241	0.862302
H	5234.22	-0.594302	0.29055
H	5233.55	-0.881277	1.94712
H	5233.3	-2.10202	0.648805
N	5232.02	1.54984	2.00179
C	5232.06	2.94701	2.36601
H	5231.93	0.87889	2.73032
H	5231.98	3.06832	3.46867
H	5231.22	3.50043	1.88925
H	5233.01	3.41447	2.03153
