44
  This energy is 3.8384e-320 and Call times are: 87513
C	-1.70862	-1.88375	-2.3787
C	-1.1892	-1.68014	-1.00759
O	-1.47788	-2.44921	-0.101121
H	-2.35455	-2.78837	-2.39619
H	-0.8675	-2.02902	-3.0888
H	-2.31093	-1.00591	-2.69424
N	-0.402619	-0.617289	-0.823198
C	0.178757	-0.287222	0.453472
C	0.546318	1.18372	0.431719
O	0.57236	1.80955	-0.626339
H	-0.198424	0.018108	-1.56314
H	-0.565975	-0.428784	1.22639
C	1.43241	-1.14392	0.739019
H	2.19406	-0.996781	-0.0561859
H	1.88249	-0.892455	1.72134
H	1.15005	-2.21923	0.751157
N	0.819235	1.77733	1.61034
C	1.16722	3.17695	1.6888
H	0.785826	1.25553	2.45641
H	1.35712	3.47645	2.74307
H	0.342708	3.80986	1.28774
H	2.08507	3.38774	1.09357
C	4147.65	1.18991	-0.374675
C	4146.65	0.309596	0.275026
O	4147	-0.555764	1.06904
H	4148.67	0.913744	-0.023458
H	4147.46	2.25033	-0.110242
H	4147.61	1.07002	-1.47767
N	4145.38	0.511821	-0.0591009
C	4144.29	-0.264089	0.48892
C	4143.11	-0.143163	-0.452749
O	4143.09	0.716187	-1.33197
H	4145.11	1.20065	-0.729215
H	4144.59	-1.30605	0.517476
C	4143.9	0.232674	1.89877
H	4143.6	1.3021	1.86591
H	4143.07	-0.36269	2.32376
H	4144.78	0.140022	2.57866
N	4142.1	-1.02148	-0.302768
C	4140.94	-0.990436	-1.16077
H	4142.14	-1.71409	0.410116
H	4140.22	-1.79029	-0.8779
H	4141.23	-1.14307	-2.22469
H	4140.42	-0.0080166	-1.08343
