44
  This energy is 4.78848e-320 and Call times are: 87891
C	-0.473456	2.70975	-2.13523
C	0.365297	1.62869	-1.57042
O	1.47167	1.38094	-2.02982
H	0.0651937	3.18826	-2.98184
H	-0.680082	3.47797	-1.36065
H	-1.43311	2.29434	-2.50866
N	-0.155588	0.947011	-0.547508
C	0.539509	-0.132259	0.107354
C	-0.491195	-0.984978	0.821327
O	-1.63817	-0.575252	0.989881
H	-1.06993	1.13924	-0.201162
H	1.01544	-0.750821	-0.642944
C	1.58046	0.399959	1.11744
H	1.0889	1.03465	1.88532
H	2.11763	-0.428445	1.62338
H	2.32904	1.02392	0.582226
N	-0.109193	-2.20751	1.24025
C	-1.02546	-3.09424	1.91874
H	0.821441	-2.52372	1.08807
H	-0.523144	-4.05041	2.18459
H	-1.90051	-3.32674	1.26952
H	-1.40529	-2.62541	2.85527
C	4162.6	3.3856	0.790477
C	4161.9	2.07793	0.830283
O	4160.9	1.91538	1.50671
H	4162.06	4.10527	1.44659
H	4162.61	3.78244	-0.246471
H	4163.64	3.27725	1.15333
N	4162.44	1.09977	0.0976266
C	4161.88	-0.226819	0.0341079
C	4162.98	-1.17194	-0.425295
O	4164.02	-0.737996	-0.908372
H	4163.28	1.2366	-0.426239
H	4161.58	-0.530053	1.02906
C	4160.69	-0.28616	-0.940134
H	4161	0.026182	-1.95971
H	4160.25	-1.30618	-0.99134
H	4159.89	0.411358	-0.593218
N	4162.77	-2.4936	-0.263964
C	4163.76	-3.46808	-0.660972
H	4161.92	-2.82466	0.13553
H	4163.4	-4.49995	-0.449018
H	4164.71	-3.30698	-0.108401
H	4163.97	-3.38835	-1.75123
