44
  This energy is 7.3596e-320 and Call times are: 88941
C	-0.34902	-1.77365	-2.97632
C	-0.383783	-1.69076	-1.49878
O	-0.7906	-2.62524	-0.822221
H	-0.739383	-2.76362	-3.29793
H	0.693728	-1.66274	-3.34128
H	-0.982204	-0.976398	-3.41951
N	0.0444673	-0.547372	-0.958754
C	0.0712892	-0.316501	0.4635
C	0.0981531	1.1823	0.691783
O	0.34699	1.9545	-0.232128
H	0.346119	0.217388	-1.52186
H	-0.842786	-0.699293	0.899403
C	1.30633	-0.975678	1.11717
H	2.24227	-0.581179	0.667164
H	1.33002	-0.799991	2.21232
H	1.27547	-2.07315	0.941832
N	-0.180821	1.63088	1.93152
C	-0.19059	3.04184	2.24015
H	-0.386721	0.990419	2.66409
H	-0.439882	3.20837	3.31131
H	-0.945299	3.57495	1.61769
H	0.806594	3.49544	2.03753
C	4210.59	0.538484	2.92839
C	4211.66	0.904228	1.97318
O	4212.29	1.94769	2.09467
H	4210.49	1.3399	3.69232
H	4210.85	-0.414875	3.43865
H	4209.63	0.427357	2.3952
N	4211.9	0.0401253	0.982034
C	4212.9	0.256422	-0.0244277
C	4212.55	-0.596875	-1.22748
O	4211.71	-1.48886	-1.14089
H	4211.36	-0.792567	0.877093
H	4212.87	1.29279	-0.33601
C	4214.31	-0.116033	0.498343
H	4214.34	-1.17968	0.817744
H	4215.09	0.0494525	-0.274061
H	4214.55	0.515117	1.38016
N	4213.18	-0.326261	-2.39015
C	4212.9	-1.07829	-3.59123
H	4213.85	0.404301	-2.44164
H	4213.51	-0.706509	-4.44002
H	4211.82	-0.986993	-3.87091
H	4213.12	-2.15853	-3.44032
