44
  This energy is 1.09969e-319 and Call times are: 122373
C	2.85123	1.99894	0.0297919
C	1.6817	1.40994	-0.660496
O	1.37886	1.75164	-1.79541
H	3.33482	2.74452	-0.638115
H	3.58856	1.20648	0.277121
H	2.52898	2.50773	0.962651
N	0.984734	0.50049	0.024705
C	-0.177403	-0.161067	-0.512516
C	-0.990009	-0.693809	0.651569
O	-0.506804	-0.752826	1.78067
H	1.22439	0.251916	0.95943
H	-0.786912	0.566296	-1.03359
C	0.219947	-1.3178	-1.45654
H	0.845702	-2.06179	-0.91893
H	-0.672513	-1.82928	-1.8721
H	0.815677	-0.91466	-2.30432
N	-2.25867	-1.07579	0.405393
C	-3.11161	-1.58457	1.4541
H	-2.63372	-1.01365	-0.513687
H	-4.11544	-1.84588	1.05249
H	-3.24271	-0.823988	2.25758
H	-2.66859	-2.49822	1.91254
C	5798	2.07073	-0.115729
C	5796.54	1.838	-0.265018
O	5795.77	2.76555	-0.467061
H	5798.21	3.15837	-0.21061
H	5798.55	1.52698	-0.907027
H	5798.34	1.7244	0.882038
N	5796.13	0.572296	-0.160971
C	5794.75	0.187813	-0.283517
C	5794.58	-1.16263	0.385001
O	5795.56	-1.84442	0.68144
H	5796.77	-0.170952	0.0327468
H	5794.14	0.900299	0.25467
C	5794.32	0.105219	-1.76468
H	5794.95	-0.626101	-2.31396
H	5793.25	-0.190443	-1.86268
H	5794.45	1.1003	-2.24333
N	5793.32	-1.57183	0.658641
C	5793.07	-2.83785	1.3043
H	5792.55	-1.00256	0.417368
H	5791.97	-2.99424	1.44083
H	5793.55	-2.87465	2.3056
H	5793.47	-3.67921	0.694081
