44
  This energy is 1.2655e-319 and Call times are: 110571
C	-2.36728	2.53309	0.324961
C	-1.16566	1.80661	0.793531
O	-0.501188	2.22254	1.73267
H	-2.51031	3.44473	0.944885
H	-3.26602	1.88828	0.421448
H	-2.24214	2.83589	-0.735979
N	-0.853391	0.689015	0.133358
C	0.28578	-0.12625	0.471676
C	0.634566	-0.966006	-0.741748
O	-0.151388	-1.06934	-1.68166
H	-1.38595	0.376222	-0.648611
H	1.13046	0.518277	0.679469
C	-0.0153407	-1.03947	1.681
H	-0.882822	-1.69885	1.46464
H	0.859758	-1.66848	1.94429
H	-0.27053	-0.412379	2.56293
N	1.83861	-1.571	-0.758104
C	2.26217	-2.38092	-1.87649
H	2.46347	-1.46938	0.00900624
H	3.28028	-2.79287	-1.70044
H	2.28548	-1.77699	-2.81242
H	1.56134	-3.23277	-2.03264
C	5234.87	1.49253	0.861687
C	5235.95	0.501695	1.09319
O	5235.97	-0.182577	2.10699
H	5234.17	1.48166	1.7241
H	5234.31	1.23866	-0.0617094
H	5235.31	2.51051	0.762848
N	5236.88	0.406971	0.143619
C	5237.99	-0.510728	0.225758
C	5239.08	-0.00641504	-0.697506
O	5238.85	0.864764	-1.53261
H	5236.87	0.990525	-0.66399
H	5238.38	-0.500063	1.23501
C	5237.57	-1.94009	-0.181612
H	5237.17	-1.94724	-1.21725
H	5238.42	-2.64931	-0.119357
H	5236.77	-2.29753	0.501486
N	5240.32	-0.530811	-0.552373
C	5241.42	-0.103557	-1.37865
H	5240.49	-1.22972	0.134016
H	5242.35	-0.652571	-1.10796
H	5241.61	0.987134	-1.25049
H	5241.2	-0.292279	-2.45478
