44
  This energy is 4.27762e-320 and Call times are: 8511
C	-2.00877	-0.991808	-2.66595
C	-1.83281	-0.44047	-1.3035
O	-2.78126	0.0108227	-0.676382
H	-3.07703	-0.906393	-2.96158
H	-1.71477	-2.0623	-2.68637
H	-1.38858	-0.424552	-3.39157
N	-0.59194	-0.460561	-0.811353
C	-0.26277	0.0396699	0.499465
C	1.22261	0.343557	0.522711
O	1.9635	-0.0733857	-0.365585
H	0.177274	-0.804187	-1.34349
H	-0.791463	0.969977	0.664044
C	-0.61184	-0.989042	1.59811
H	-0.0682627	-1.94243	1.42581
H	-0.359799	-0.60702	2.60871
H	-1.70231	-1.20401	1.56981
N	1.69002	1.10054	1.53489
C	3.08773	1.4511	1.6333
H	1.0733	1.43437	2.24019
H	3.27396	2.07581	2.53458
H	3.41293	2.02524	0.73561
H	3.71851	0.535563	1.70473
C	406.799	1.58863	0.773414
C	407.781	1.06582	-0.203069
O	407.532	1.04269	-1.40045
H	405.883	1.91289	0.234629
H	407.225	2.45953	1.31499
H	406.526	0.797346	1.50304
N	408.937	0.622104	0.297493
C	409.99	0.084906	-0.525977
C	410.88	-0.770307	0.355026
O	410.798	-0.708472	1.58026
H	409.116	0.619333	1.27761
H	409.555	-0.560222	-1.27835
C	410.819	1.21049	-1.18452
H	411.264	1.87079	-0.40984
H	411.631	0.800351	-1.81943
H	410.155	1.83041	-1.82621
N	411.741	-1.60922	-0.253429
C	412.62	-2.47046	0.503712
H	411.788	-1.64984	-1.2461
H	413.252	-3.08281	-0.176205
H	412.031	-3.16035	1.151
H	413.29	-1.86933	1.15971
