44
  This energy is 1.96292e-320 and Call times are: 99693
C	3.44009	0.470419	0.265709
C	2.24991	-0.0676382	-0.430835
O	2.34395	-0.5875	-1.53419
H	4.33825	0.319343	-0.371741
H	3.59076	-0.0588072	1.2301
H	3.31342	1.55692	0.456515
N	1.08385	0.0533707	0.20792
C	-0.161055	-0.421742	-0.341002
C	-1.28862	0.315608	0.354816
O	-1.07984	0.957997	1.38223
H	1.01597	0.504984	1.09357
H	-0.201595	-0.167779	-1.39264
C	-0.319181	-1.94549	-0.14028
H	-0.276453	-2.20257	0.93963
H	-1.27662	-2.31469	-0.561924
H	0.513418	-2.47406	-0.653643
N	-2.51296	0.257236	-0.205157
C	-3.6447	0.937664	0.379959
H	-2.66014	-0.261981	-1.04061
H	-4.56198	0.767639	-0.225805
H	-3.45864	2.03481	0.433808
H	-3.8338	0.568395	1.41391
C	4721.8	2.99961	1.57753
C	4721.82	2.10252	0.400233
O	4722.24	2.48817	-0.681967
H	4722.2	3.99483	1.28766
H	4722.43	2.57983	2.38892
H	4720.76	3.1252	1.94593
N	4721.35	0.86653	0.58866
C	4721.31	-0.120497	-0.460409
C	4720.28	-1.16877	-0.0698817
O	4719.85	-1.22606	1.07906
H	4720.98	0.573453	1.46766
H	4720.96	0.350939	-1.37246
C	4722.69	-0.779734	-0.672596
H	4723.04	-1.26182	0.265198
H	4722.66	-1.54016	-1.47979
H	4723.43	-0.00126794	-0.95705
N	4719.86	-2.01317	-1.02928
C	4718.87	-3.0359	-0.753266
H	4720.21	-1.94616	-1.95477
H	4718.65	-3.62827	-1.66893
H	4717.92	-2.58053	-0.394698
H	4719.24	-3.73181	0.0349474
