44
  This energy is 1.28304e-319 and Call times are: 97761
C	3.00484	-1.27133	-1.21688
C	2.23653	-0.402465	-0.297106
O	2.78867	0.199285	0.613679
H	4.07672	-1.26118	-0.922191
H	2.91517	-0.899103	-2.2591
H	2.62724	-2.31416	-1.16336
N	0.922054	-0.322359	-0.516435
C	0.0421144	0.482029	0.293192
C	-1.36734	-0.0491053	0.118337
O	-1.63621	-0.830393	-0.792229
H	0.479683	-0.840321	-1.24373
H	0.312661	0.360393	1.33438
C	0.103752	1.97028	-0.117206
H	-0.173725	2.09134	-1.18607
H	-0.572492	2.59253	0.504304
H	1.14148	2.34705	0.0143304
N	-2.29986	0.34866	1.00614
C	-3.66564	-0.114377	0.925978
H	-2.06091	0.975756	1.74022
H	-4.27879	0.326115	1.74284
H	-3.71004	-1.22413	1.01385
H	-4.12163	0.17328	-0.0489638
C	4628.17	1.72949	-1.30241
C	4629	1.27569	-0.164251
O	4628.8	1.68638	0.970094
H	4627.41	2.453	-0.936556
H	4627.65	0.86458	-1.76524
H	4628.81	2.22956	-2.06409
N	4629.98	0.407801	-0.449488
C	4630.87	-0.124697	0.550861
C	4632.11	-0.625431	-0.153387
O	4632.13	-0.770946	-1.3742
H	4630.15	0.103135	-1.38221
H	4631.16	0.674249	1.21798
C	4630.2	-1.27595	1.33904
H	4629.9	-2.09355	0.651507
H	4630.89	-1.68819	2.11024
H	4629.29	-0.89655	1.84929
N	4633.2	-0.881116	0.603101
C	4634.43	-1.34996	0.0187337
H	4633.17	-0.7503	1.58857
H	4635.21	-1.50367	0.803623
H	4634.82	-0.611741	-0.718434
H	4634.28	-2.3168	-0.511673
