44
  This energy is 1.07153e-319 and Call times are: 122247
C	-3.43486	0.559496	0.121791
C	-2.06138	0.970675	-0.246577
O	-1.8602	1.97004	-0.922812
H	-4.16256	1.27914	-0.31229
H	-3.54951	0.554609	1.22617
H	-3.6508	-0.454273	-0.276438
N	-1.07089	0.19119	0.193521
C	0.317579	0.460871	-0.0826362
C	1.08735	-0.833807	0.0919948
O	0.573266	-1.80011	0.65217
H	-1.24944	-0.636395	0.719029
H	0.417843	0.766293	-1.11643
C	0.879235	1.54477	0.86437
H	0.774164	1.22847	1.9241
H	1.94811	1.75498	0.654373
H	0.306211	2.48769	0.727645
N	2.33813	-0.889472	-0.406448
C	3.14238	-2.08427	-0.297758
H	2.73382	-0.0992131	-0.86269
H	4.13955	-1.93105	-0.766195
H	2.64402	-2.94096	-0.80664
H	3.29547	-2.35917	0.770968
C	5787.54	-2.74249	-1.36553
C	5788.25	-1.44555	-1.50043
O	5788.53	-0.992575	-2.60017
H	5787.36	-3.16889	-2.37608
H	5786.57	-2.59889	-0.855809
H	5788.17	-3.45403	-0.781231
N	5788.55	-0.813194	-0.363847
C	5789.23	0.456909	-0.332582
C	5789.85	0.616386	1.03913
O	5789.53	-0.122424	1.96738
H	5788.33	-1.20647	0.526716
H	5790.03	0.444978	-1.0606
C	5788.25	1.62359	-0.610847
H	5787.43	1.63244	0.137452
H	5788.77	2.60304	-0.58767
H	5787.8	1.49446	-1.61799
N	5790.79	1.57718	1.19276
C	5791.44	1.79488	2.45939
H	5791.04	2.16013	0.427614
H	5792.18	2.62954	2.38378
H	5791.99	0.878476	2.78076
H	5790.7	2.04959	3.25011
