44
  This energy is 1.10295e-319 and Call times are: 71679
C	-3.16878	-1.44394	-0.00114
C	-1.75245	-1.41348	0.428147
O	-1.33048	-2.1918	1.27233
H	-3.70538	-2.24009	0.559279
H	-3.23457	-1.66269	-1.08771
H	-3.65363	-0.467371	0.209022
N	-0.977134	-0.493366	-0.150338
C	0.421284	-0.340799	0.162675
C	0.840383	1.05787	-0.246375
O	0.119837	1.74396	-0.968817
H	-1.33956	0.15412	-0.815428
H	0.553109	-0.423576	1.23405
C	1.28092	-1.3905	-0.576435
H	1.14275	-1.30318	-1.67525
H	2.35823	-1.27598	-0.337554
H	0.963316	-2.4107	-0.269074
N	2.01321	1.52267	0.227375
C	2.48843	2.84699	-0.0989962
H	2.57867	0.954825	0.81648
H	3.47108	3.04234	0.384196
H	1.76644	3.62051	0.249776
H	2.61056	2.96039	-1.20054
C	3398.49	1.9288	-2.18555
C	3399.4	0.791725	-1.90404
O	3399.66	-0.0371679	-2.76503
H	3398.14	1.86353	-3.23675
H	3399.03	2.8898	-2.04755
H	3397.62	1.89669	-1.50637
N	3399.9	0.724727	-0.668553
C	3400.8	-0.322204	-0.243808
C	3400.74	-0.394545	1.26987
O	3400.23	0.509903	1.92484
H	3399.66	1.38986	0.0324248
H	3400.44	-1.26828	-0.630971
C	3402.24	-0.0502693	-0.712541
H	3402.61	0.921364	-0.314101
H	3402.93	-0.854553	-0.387316
H	3402.27	0.00161846	-1.82287
N	3401.26	-1.49014	1.86167
C	3401.24	-1.65203	3.29683
H	3401.66	-2.21443	1.31386
H	3401.71	-2.61626	3.58919
H	3400.2	-1.64208	3.68143
H	3401.8	-0.824639	3.79211
