44
  This energy is 9.62341e-320 and Call times are: 16575
C	2.26967	1.94254	1.78921
C	1.041	1.79259	0.977373
O	0.274964	2.73155	0.809946
H	2.32961	2.98305	2.17599
H	3.16646	1.73814	1.16728
H	2.24857	1.24018	2.64898
N	0.821043	0.585107	0.452041
C	-0.330308	0.284264	-0.360802
C	-0.535102	-1.21803	-0.340727
O	0.345528	-1.96695	0.0781425
H	1.43761	-0.179509	0.619811
H	-1.20471	0.741426	0.0847236
C	-0.137212	0.774764	-1.81312
H	0.761054	0.304312	-2.2669
H	-1.02196	0.544857	-2.44172
H	0.0129766	1.87639	-1.81406
N	-1.71861	-1.69344	-0.775798
C	-2.00817	-3.10846	-0.782395
H	-2.42118	-1.07072	-1.10421
H	-3.03051	-3.29882	-1.17715
H	-1.94697	-3.52681	0.248371
H	-1.27797	-3.65612	-1.42119
C	787.604	-0.030169	-1.38285
C	788.727	-0.696891	-0.686335
O	788.61	-1.82799	-0.23541
H	786.725	-0.710144	-1.39622
H	787.89	0.20809	-2.42894
H	787.327	0.905678	-0.853493
N	789.858	0.00493275	-0.57719
C	791.037	-0.508519	0.0731493
C	791.901	0.672278	0.472106
O	791.683	1.79299	0.0155881
H	789.932	0.936523	-0.92306
H	790.743	-1.0224	0.979647
C	791.827	-1.45365	-0.859271
H	792.126	-0.923432	-1.78852
H	792.736	-1.85093	-0.361605
H	791.183	-2.31374	-1.14523
N	792.893	0.45031	1.35596
C	793.759	1.51634	1.80325
H	793.049	-0.462337	1.71937
H	794.513	1.13371	2.52659
H	793.169	2.31822	2.30319
H	794.3	1.97143	0.941833
