44
  This energy is 1.33645e-319 and Call times are: 110865
C	0.210741	-2.33427	-2.57545
C	-0.215305	-1.02156	-2.04019
O	-0.702046	-0.168759	-2.76977
H	0.017253	-2.36503	-3.66974
H	-0.361113	-3.15071	-2.08633
H	1.29629	-2.48603	-2.398
N	-0.0324441	-0.82689	-0.732123
C	-0.396906	0.397793	-0.0656787
C	0.395543	0.479789	1.22449
O	0.985136	-0.505732	1.66377
H	0.391923	-1.51851	-0.153749
H	-0.104372	1.23604	-0.685229
C	-1.91126	0.444255	0.237121
H	-2.20803	-0.417462	0.872326
H	-2.19536	1.386	0.750133
H	-2.48058	0.382228	-0.715861
N	0.445375	1.67087	1.85285
C	1.18523	1.84705	3.08076
H	-0.0325552	2.45831	1.47767
H	1.10313	2.89575	3.44233
H	2.2635	1.61281	2.92681
H	0.794988	1.17058	3.8753
C	5253.62	-0.573695	-2.97309
C	5252.57	-0.92486	-1.98539
O	5251.76	-1.81293	-2.21084
H	5253.51	-1.22162	-3.86979
H	5254.63	-0.732479	-2.53601
H	5253.51	0.48772	-3.28153
N	5252.57	-0.218466	-0.852551
C	5251.61	-0.443337	0.203218
C	5251.55	0.81173	1.05199
O	5252.41	1.68408	0.946104
H	5253.22	0.522054	-0.693027
H	5250.63	-0.592237	-0.233792
C	5252.01	-1.65514	1.07437
H	5253.02	-1.49932	1.52058
H	5251.28	-1.83121	1.8882
H	5252.05	-2.56781	0.440775
N	5250.52	0.941441	1.9033
C	5250.37	2.10752	2.74285
H	5249.83	0.227725	1.96926
H	5249.46	2.02603	3.37276
H	5250.29	3.02978	2.12332
H	5251.25	2.22123	3.41531
