44
  This energy is 4.67337e-320 and Call times are: 100743
C	-1.06297	1.30486	-3.04853
C	-1.0701	1.28344	-1.56844
O	-1.64717	2.14994	-0.926057
H	-1.6308	2.19132	-3.40576
H	-1.54299	0.386265	-3.44676
H	-0.0205568	1.36997	-3.42548
N	-0.412198	0.277861	-0.986757
C	-0.329651	0.121453	0.443471
C	0.868168	-0.757127	0.747713
O	1.41822	-1.40083	-0.143871
H	0.0784978	-0.405577	-1.52067
H	-0.15024	1.08961	0.893531
C	-1.61549	-0.516899	1.01465
H	-1.79686	-1.50967	0.550292
H	-1.55537	-0.638638	2.11572
H	-2.48567	0.135626	0.78414
N	1.31505	-0.786568	2.01871
C	2.45664	-1.58505	2.39999
H	0.860733	-0.253026	2.72451
H	2.66638	-1.47745	3.48704
H	3.36344	-1.269	1.83513
H	2.27289	-2.66228	2.18322
C	4771.13	1.19618	-3.26759
C	4771.78	0.810175	-1.995
O	4773	0.770177	-1.89389
H	4771.92	1.41074	-4.02886
H	4770.52	2.10672	-3.12058
H	4770.49	0.368854	-3.63551
N	4770.97	0.507053	-0.981244
C	4771.45	0.113862	0.318372
C	4770.34	-0.634814	1.02273
O	4769.19	-0.597799	0.593021
H	4769.98	0.515233	-1.08465
H	4772.28	-0.571486	0.193255
C	4771.88	1.34082	1.15464
H	4771.03	2.04212	1.28046
H	4772.25	1.04165	2.15589
H	4772.7	1.88127	0.627394
N	4770.66	-1.35364	2.11582
C	4769.67	-2.10831	2.84461
H	4771.6	-1.37671	2.44368
H	4770.13	-2.62982	3.71213
H	4769.2	-2.87312	2.18692
H	4768.87	-1.43646	3.22564
