44
  This energy is 1.13808e-319 and Call times are: 77895
C	3.31075	0.343749	-1.02318
C	2.10045	0.851809	-0.338897
O	2.12962	1.88679	0.312607
H	4.16016	1.03376	-0.827642
H	3.13665	0.289515	-2.11843
H	3.57191	-0.665285	-0.640314
N	0.992945	0.117916	-0.470063
C	-0.262529	0.482223	0.13648
C	-1.11396	-0.768809	0.232491
O	-0.80966	-1.78546	-0.388512
H	0.989205	-0.73857	-0.979331
H	-0.0779564	0.832625	1.14406
C	-0.995227	1.56125	-0.691749
H	-1.18238	1.19871	-1.72502
H	-1.96226	1.8442	-0.227461
H	-0.360706	2.47199	-0.755624
N	-2.19529	-0.728878	1.03569
C	-3.0581	-1.87566	1.19889
H	-2.42077	0.100974	1.53543
H	-3.89216	-1.64401	1.89742
H	-2.48819	-2.74101	1.60828
H	-3.49466	-2.18149	0.220596
C	3694.4	-1.39173	2.81554
C	3693.57	-1.49991	1.59907
O	3693.18	-2.58627	1.19493
H	3694.58	-2.40777	3.22953
H	3693.89	-0.777475	3.58222
H	3695.38	-0.926884	2.56792
N	3693.28	-0.355615	0.976253
C	3692.47	-0.298861	-0.218676
C	3692.77	1.01114	-0.920595
O	3693.38	1.90989	-0.341147
H	3693.62	0.520228	1.29893
H	3692.77	-1.10245	-0.880718
C	3690.97	-0.39096	0.111674
H	3690.66	0.434512	0.791552
H	3690.34	-0.347713	-0.806179
H	3690.76	-1.35437	0.62657
N	3692.37	1.14113	-2.20039
C	3692.62	2.34788	-2.95277
H	3691.89	0.39971	-2.65405
H	3692.22	2.26125	-3.98379
H	3693.72	2.54418	-3.02456
H	3692.15	3.22574	-2.45942
