44
  This energy is 8.86354e-321 and Call times are: 36945
C	-2.61083	1.97231	-1.19152
C	-1.41986	1.12019	-1.40765
O	-1.08114	0.780168	-2.53288
H	-3.0807	2.20239	-2.17241
H	-2.3163	2.92439	-0.702024
H	-3.35002	1.44266	-0.554332
N	-0.751773	0.7464	-0.313891
C	0.426475	-0.0819636	-0.362613
C	0.603293	-0.721211	1.00096
O	-0.0258491	-0.310305	1.97419
H	-1.05458	1.00589	0.599297
H	0.268366	-0.876766	-1.0805
C	1.6799	0.743839	-0.728792
H	1.83873	1.55872	0.00935374
H	2.58894	0.109058	-0.767334
H	1.53733	1.20779	-1.72907
N	1.4533	-1.76243	1.09773
C	1.67662	-2.44144	2.35282
H	1.94771	-2.0847	0.297153
H	2.41013	-3.26819	2.22757
H	0.725451	-2.8726	2.74093
H	2.0724	-1.73427	3.11732
C	1751.22	-0.328436	3.03109
C	1752.24	0.309904	2.17299
O	1752.86	1.29357	2.55307
H	1751.14	0.229525	3.98965
H	1751.5	-1.37943	3.24853
H	1750.23	-0.310408	2.52586
N	1752.44	-0.242873	0.973839
C	1753.4	0.26453	0.0277041
C	1753	-0.232709	-1.3494
O	1752.18	-1.13283	-1.47952
H	1751.91	-1.02648	0.664291
H	1753.34	1.34567	0.0153659
C	1754.83	-0.205581	0.372613
H	1754.88	-1.31515	0.385056
H	1755.57	0.183445	-0.353827
H	1755.11	0.164081	1.38407
N	1753.58	0.36123	-2.41573
C	1753.25	-0.0375821	-3.76583
H	1754.24	1.09274	-2.28985
H	1753.83	0.567051	-4.5024
H	1752.17	0.102885	-3.96761
H	1753.5	-1.11228	-3.92752
