44
  This energy is 1.57681e-319 and Call times are: 85875
C	2.11109	2.28657	-1.56239
C	1.39369	0.992295	-1.52489
O	1.37518	0.250921	-2.49778
H	2.57216	2.42201	-2.56485
H	2.91187	2.30252	-0.793424
H	1.40367	3.12196	-1.37632
N	0.772258	0.691636	-0.382178
C	0.0332332	-0.530948	-0.192553
C	-0.93451	-0.31716	0.955056
O	-0.819221	0.652552	1.70218
H	0.770303	1.31716	0.393487
H	-0.550475	-0.730843	-1.08216
C	0.975274	-1.71489	0.120437
H	1.57304	-1.50618	1.03325
H	0.409514	-2.65789	0.266874
H	1.67987	-1.86038	-0.727217
N	-1.92999	-1.21244	1.10831
C	-2.9057	-1.08395	2.1655
H	-2.01057	-1.98654	0.489018
H	-3.64068	-1.91789	2.12579
H	-3.46109	-0.122594	2.07283
H	-2.40931	-1.10115	3.16274
C	4069.09	-0.170136	3.35708
C	4068.89	-0.523898	1.93408
O	4068.05	-1.34666	1.60056
H	4068.39	-0.760236	3.98584
H	4068.89	0.910858	3.51462
H	4070.13	-0.403038	3.66489
N	4069.67	0.0971856	1.05091
C	4069.59	-0.141088	-0.368193
C	4070.91	0.293242	-0.987151
O	4071.71	0.978414	-0.350847
H	4070.37	0.743907	1.33763
H	4069.48	-1.20421	-0.540933
C	4068.42	0.639632	-1.00555
H	4068.54	1.72984	-0.825856
H	4068.36	0.458317	-2.09819
H	4067.47	0.313214	-0.542821
N	4071.17	-0.116638	-2.24323
C	4072.41	0.237898	-2.90973
H	4070.52	-0.676541	-2.73895
H	4072.44	-0.192173	-3.9351
H	4073.28	-0.146489	-2.34254
H	4072.5	1.34466	-2.9906
