44
  This energy is 2.55679e-320 and Call times are: 80667
C	-1.82591	-2.94772	-0.321109
C	-0.641958	-2.19487	0.150777
O	0.192042	-2.71791	0.876981
H	-1.79434	-3.97899	0.0928488
H	-1.82558	-3.00544	-1.42993
H	-2.75754	-2.45084	0.0225859
N	-0.545517	-0.926503	-0.254568
C	0.548634	-0.067003	0.120825
C	0.0942447	1.36902	-0.0541015
O	-0.92867	1.63243	-0.683462
H	-1.24649	-0.503146	-0.822324
H	0.769612	-0.216603	1.17004
C	1.79925	-0.337733	-0.745069
H	1.56881	-0.183981	-1.82088
H	2.6437	0.322272	-0.458569
H	2.12137	-1.39313	-0.608955
N	0.837742	2.33443	0.521399
C	0.476256	3.72902	0.418339
H	1.65819	2.10046	1.03263
H	1.21229	4.36679	0.955702
H	-0.530747	3.90756	0.860281
H	0.447021	4.04972	-0.648187
C	3824.38	-2.24114	-1.19072
C	3823.27	-1.88529	-0.280736
O	3822.76	-2.7215	0.452356
H	3824.62	-3.32127	-1.07636
H	3825.29	-1.64665	-0.94098
H	3824.09	-2.04652	-2.24461
N	3822.86	-0.615163	-0.313741
C	3821.79	-0.117639	0.512798
C	3821.26	1.14895	-0.127986
O	3821.89	1.71503	-1.02002
H	3823.27	0.0497629	-0.936377
H	3820.99	-0.843928	0.52366
C	3822.28	0.178328	1.94832
H	3823.1	0.92327	1.93341
H	3821.46	0.561446	2.58749
H	3822.67	-0.757066	2.40625
N	3820.07	1.61265	0.300234
C	3819.48	2.80504	-0.259768
H	3819.57	1.13638	1.01813
H	3818.5	3.02352	0.224637
H	3819.3	2.68225	-1.35383
H	3820.14	3.6833	-0.111264
