44
  This energy is 1.12212e-319 and Call times are: 58953
C	-2.47198	2.35873	-0.672217
C	-1.05211	1.94771	-0.593123
O	-0.159017	2.67577	-1.00399
H	-2.53779	3.36343	-1.14348
H	-2.91277	2.40966	0.345587
H	-3.04642	1.63473	-1.28768
N	-0.81087	0.748212	-0.0589204
C	0.518146	0.210182	0.0862301
C	0.399243	-1.29562	0.219078
O	-0.688395	-1.82281	0.444794
H	-1.54909	0.152143	0.24549
H	1.08196	0.417435	-0.814456
C	1.23087	0.798134	1.32456
H	0.649416	0.584259	2.24667
H	2.25451	0.386101	1.43923
H	1.31063	1.90172	1.21554
N	1.51936	-2.02762	0.0593427
C	1.5006	-3.4686	0.156403
H	2.38862	-1.58286	-0.129866
H	2.51892	-3.88676	-0.00299779
H	0.818741	-3.90507	-0.608971
H	1.14273	-3.79025	1.16122
C	2797.98	2.38802	-0.508011
C	2796.58	2.00853	-0.215633
O	2795.75	2.84949	0.0998035
H	2798.1	3.48651	-0.383203
H	2798.24	2.11542	-1.55244
H	2798.67	1.87153	0.191459
N	2796.29	0.709836	-0.310328
C	2794.97	0.18699	-0.0566643
C	2795.11	-1.29026	0.256783
O	2796.15	-1.88851	0.0206799
H	2796.98	0.0308867	-0.539812
H	2794.56	0.672881	0.820348
C	2794.04	0.387775	-1.27503
H	2794.46	-0.111391	-2.17311
H	2793.02	-0.0135502	-1.08306
H	2793.95	1.47379	-1.49508
N	2794.05	-1.91024	0.819707
C	2794.09	-3.31233	1.164
H	2793.21	-1.40713	1.00954
H	2793.13	-3.63616	1.61381
H	2794.91	-3.51212	1.89823
H	2794.28	-3.93364	0.259221
