44
  This energy is 5.55527e-320 and Call times are: 50679
C	-1.74914	1.84749	2.37769
C	-0.718229	0.853949	2.00181
O	0.0525232	0.396329	2.83428
H	-1.6697	2.06584	3.46483
H	-2.76245	1.4466	2.1648
H	-1.59791	2.78966	1.80988
N	-0.678597	0.498154	0.715647
C	0.267662	-0.457503	0.197825
C	0.384125	-0.234535	-1.29749
O	-0.437395	0.45763	-1.89569
H	-1.29289	0.899893	0.0417094
H	1.23863	-0.264034	0.635857
C	-0.182509	-1.90726	0.485322
H	-1.17924	-2.10209	0.0351062
H	0.543921	-2.64569	0.0880774
H	-0.265172	-2.05741	1.58385
N	1.42706	-0.80212	-1.93477
C	1.62621	-0.635	-3.35554
H	2.0851	-1.35281	-1.43182
H	2.53623	-1.17913	-3.69176
H	1.7477	0.442563	-3.61116
H	0.752418	-1.02827	-3.92387
C	2406.17	1.10903	-1.79722
C	2405.54	0.588906	-0.560841
O	2406.22	0.263162	0.403258
H	2407.27	1.12814	-1.66971
H	2405.81	2.14068	-2.00156
H	2405.92	0.454338	-2.65819
N	2404.21	0.493163	-0.565508
C	2403.46	0.0056994	0.562703
C	2402.11	-0.454105	0.0564359
O	2401.72	-0.149248	-1.07034
H	2403.67	0.734303	-1.36761
H	2403.96	-0.856661	0.977359
C	2403.28	1.10272	1.63585
H	2402.76	1.98617	1.20688
H	2402.7	0.730708	2.50605
H	2404.28	1.43183	1.9977
N	2401.36	-1.22167	0.875262
C	2400.06	-1.71591	0.474393
H	2401.69	-1.46344	1.78064
H	2399.61	-2.32579	1.28506
H	2400.15	-2.35182	-0.436326
H	2399.37	-0.871074	0.241639
