44
  This energy is 1.44588e-319 and Call times are: 12375
C	-1.41685	-1.28718	2.90892
C	-0.893224	-1.44966	1.53393
O	-0.757217	-2.55866	1.0358
H	-1.62845	-2.28889	3.34212
H	-2.35701	-0.696687	2.89297
H	-0.667467	-0.771313	3.54552
N	-0.577624	-0.327524	0.883109
C	-0.0570906	-0.323376	-0.460713
C	0.657345	0.996069	-0.679541
O	0.50538	1.9308	0.104683
H	-0.665555	0.568383	1.31037
H	0.67601	-1.11423	-0.55652
C	-1.18578	-0.495413	-1.50167
H	-1.93642	0.317201	-1.40011
H	-0.788445	-0.492814	-2.53747
H	-1.70204	-1.46501	-1.3299
N	1.47517	1.09473	-1.74605
C	2.20623	2.30809	-2.02798
H	1.59036	0.324745	-2.36498
H	2.8215	2.19188	-2.94732
H	2.88481	2.56347	-1.18208
H	1.50699	3.16206	-2.17958
C	594.294	-3.37927	-0.680434
C	594.481	-1.9462	-1.00036
O	595.224	-1.59205	-1.90511
H	594.917	-3.99331	-1.36637
H	593.228	-3.66416	-0.810741
H	594.605	-3.58184	0.36604
N	593.803	-1.07687	-0.247283
C	593.882	0.349501	-0.43728
C	593.442	1.0162	0.851538
O	592.866	0.373051	1.72722
H	593.223	-1.37658	0.505674
H	594.914	0.624462	-0.614079
C	592.985	0.811449	-1.60753
H	591.927	0.527168	-1.42318
H	593.044	1.90923	-1.75669
H	593.317	0.315142	-2.54545
N	593.724	2.32477	1.00643
C	593.354	3.04079	2.20509
H	594.197	2.82605	0.289263
H	593.671	4.10508	2.14094
H	593.837	2.58475	3.09975
H	592.251	3.0119	2.35561
