44
  This energy is 7.92333e-320 and Call times are: 39507
C	-3.02946	-1.71524	-0.0801153
C	-1.58853	-1.6028	-0.399893
O	-0.973259	-2.5419	-0.885735
H	-3.38592	-2.7345	-0.344539
H	-3.60995	-0.9692	-0.662588
H	-3.19515	-1.54676	1.00483
N	-1.00938	-0.432076	-0.123583
C	0.38467	-0.170231	-0.378335
C	0.808132	0.99233	0.498232
O	-0.0306843	1.69351	1.06087
H	-1.51461	0.315598	0.299101
H	0.965027	-1.03456	-0.0813737
C	0.630749	0.168553	-1.86554
H	0.0333324	1.05531	-2.16699
H	1.70317	0.370581	-2.06523
H	0.315436	-0.690411	-2.49713
N	2.12901	1.2105	0.652084
C	2.62605	2.28666	1.47732
H	2.79218	0.627613	0.194166
H	3.73825	2.30256	1.475
H	2.27944	2.16728	2.52939
H	2.26047	3.27019	1.10288
C	1873.44	2.95855	-1.10991
C	1873.76	1.98537	-0.0411579
O	1873.5	2.22705	1.13085
H	1872.97	3.8617	-0.657552
H	1872.72	2.51169	-1.83348
H	1874.36	3.2594	-1.64295
N	1874.34	0.846896	-0.429482
C	1874.7	-0.196386	0.493386
C	1875.76	-1.05474	-0.173088
O	1875.97	-0.965531	-1.38085
H	1874.56	0.674151	-1.38394
H	1875.15	0.252614	1.37162
C	1873.49	-1.0619	0.881882
H	1873.03	-1.52044	-0.0215089
H	1873.77	-1.86611	1.59251
H	1872.72	-0.421313	1.36799
N	1876.47	-1.8956	0.60813
C	1877.5	-2.74305	0.0637072
H	1876.29	-1.94806	1.58452
H	1877.97	-3.36215	0.863695
H	1878.3	-2.13024	-0.411801
H	1877.09	-3.4261	-0.710787
