44
  This energy is 5.39618e-320 and Call times are: 81801
C	1.67121	0.578409	2.99977
C	1.08547	1.04907	1.72439
O	1.00677	2.24234	1.46673
H	1.98243	1.45606	3.607
H	2.56124	-0.0550339	2.80127
H	0.92143	-0.00714549	3.5724
N	0.649361	0.104437	0.887821
C	0.0557388	0.405743	-0.390324
C	-0.768313	-0.793929	-0.815723
O	-0.644458	-1.87591	-0.244934
H	0.69248	-0.863203	1.12181
H	-0.619144	1.2445	-0.27588
C	1.13431	0.713191	-1.453
H	1.82532	-0.1491	-1.56736
H	0.68067	0.945775	-2.43834
H	1.73178	1.5931	-1.12907
N	-1.6496	-0.622317	-1.82065
C	-2.48564	-1.70448	-2.28556
H	-1.74017	0.262848	-2.26508
H	-3.14068	-1.36557	-3.11821
H	-3.13338	-2.0824	-1.46163
H	-1.86311	-2.55262	-2.65201
C	3878.67	-1.78386	-1.35265
C	3877.34	-1.138	-1.46982
O	3876.78	-1.02857	-2.55358
H	3879.01	-2.10508	-2.36035
H	3878.6	-2.6755	-0.694218
H	3879.41	-1.06841	-0.933322
N	3876.8	-0.683676	-0.33676
C	3875.52	-0.0326843	-0.289715
C	3875.45	0.787883	0.983975
O	3876.28	0.622267	1.87812
H	3877.28	-0.752772	0.535633
H	3875.44	0.650955	-1.12547
C	3874.36	-1.06103	-0.314159
H	3874.45	-1.76117	0.544204
H	3873.37	-0.56315	-0.278205
H	3874.42	-1.65644	-1.25144
N	3874.48	1.71276	1.08624
C	3874.35	2.54892	2.25693
H	3873.82	1.83657	0.348795
H	3873.49	3.24348	2.1514
H	3875.27	3.15555	2.40952
H	3874.19	1.92785	3.168
