44
  This energy is 1.41599e-320 and Call times are: 124935
C	0.266765	-3.47191	-0.028308
C	0.17392	-2.1679	-0.722675
O	0.31338	-2.08559	-1.93522
H	0.475899	-4.27045	-0.772932
H	-0.690764	-3.70105	0.484969
H	1.08957	-3.45107	0.717011
N	-0.0619921	-1.1022	0.0460777
C	-0.179198	0.232992	-0.483415
C	0.0788172	1.20765	0.649151
O	0.0841136	0.825998	1.81797
H	-0.14474	-1.17834	1.03617
H	0.590524	0.384458	-1.22951
C	-1.58048	0.478013	-1.08633
H	-2.36773	0.321111	-0.318388
H	-1.67411	1.50511	-1.49509
H	-1.75771	-0.24292	-1.91397
N	0.321716	2.49285	0.324703
C	0.589648	3.48959	1.3351
H	0.320132	2.78061	-0.627361
H	0.762369	4.48493	0.869549
H	1.49426	3.21715	1.9256
H	-0.269233	3.57613	2.03938
C	5916.93	1.79435	-0.549321
C	5915.74	1.46722	0.26406
O	5915.59	1.9338	1.38511
H	5917.59	2.47788	0.0265584
H	5916.63	2.29811	-1.49053
H	5917.5	0.868905	-0.791743
N	5914.85	0.638783	-0.291314
C	5913.64	0.227894	0.375615
C	5913.17	-1.05605	-0.274607
O	5913.63	-1.42752	-1.34974
H	5915	0.242336	-1.19369
H	5913.87	0.00772282	1.41113
C	5912.55	1.31355	0.274543
H	5912.32	1.53744	-0.789106
H	5911.62	1.00048	0.787163
H	5912.91	2.24925	0.753333
N	5912.23	-1.77824	0.378016
C	5911.73	-3.02021	-0.158436
H	5911.87	-1.46442	1.2504
H	5910.97	-3.4625	0.523115
H	5912.55	-3.75709	-0.288569
H	5911.25	-2.85454	-1.15255
