44
  This energy is 2.16006e-320 and Call times are: 49377
C	1.30006	2.01844	2.52227
C	0.173785	1.53705	1.69103
O	-0.977376	1.87663	1.92769
H	0.907513	2.679	3.32566
H	2.01547	2.59593	1.89977
H	1.82634	1.1591	2.98866
N	0.487172	0.716561	0.68557
C	-0.498396	0.165928	-0.210135
C	0.0962897	-1.07185	-0.853171
O	1.30173	-1.30208	-0.77747
H	1.42543	0.424156	0.520912
H	-1.36177	-0.144486	0.364577
C	-0.903521	1.18669	-1.29689
H	-0.0153146	1.50349	-1.88412
H	-1.66239	0.766011	-1.98821
H	-1.33658	2.08914	-0.812952
N	-0.745034	-1.91298	-1.48616
C	-0.271085	-3.12247	-2.11758
H	-1.71826	-1.71272	-1.53036
H	-1.11359	-3.67803	-2.58532
H	0.21736	-3.78992	-1.37114
H	0.475601	-2.88569	-2.90978
C	2341.12	-2.09028	-2.7715
C	2341.52	-1.83433	-1.36849
O	2341.91	-2.741	-0.646144
H	2341.24	-3.17306	-2.99455
H	2341.77	-1.50908	-3.4635
H	2340.06	-1.8038	-2.92773
N	2341.42	-0.572157	-0.944963
C	2341.77	-0.166937	0.393289
C	2341.07	1.14577	0.680646
O	2340.56	1.79964	-0.228867
H	2341.07	0.152416	-1.53429
H	2341.39	-0.901896	1.09305
C	2343.3	0.00274315	0.549387
H	2343.68	0.756931	-0.170427
H	2343.57	0.31457	1.5787
H	2343.8	-0.965368	0.335112
N	2341	1.55221	1.96385
C	2340.34	2.78284	2.33428
H	2341.41	1.0055	2.68638
H	2340.4	2.94282	3.43366
H	2339.27	2.75857	2.03675
H	2340.82	3.6527	1.82898
