44
  This energy is 5.18868e-320 and Call times are: 100953
C	1.05329	3.18973	0.917804
C	0.0140132	2.14023	0.819467
O	-1.08162	2.28384	1.34431
H	0.660588	4.0406	1.51585
H	1.3235	3.55662	-0.0947177
H	1.95868	2.78627	1.41824
N	0.344028	1.04092	0.137573
C	-0.560036	-0.0663685	-0.0451847
C	0.26689	-1.29288	-0.378493
O	1.44938	-1.18592	-0.698041
H	1.2499	0.923541	-0.260608
H	-1.07322	-0.259387	0.888335
C	-1.5728	0.215322	-1.17747
H	-1.04291	0.413565	-2.13353
H	-2.27054	-0.635205	-1.32077
H	-2.17143	1.11667	-0.921828
N	-0.334775	-2.49543	-0.289778
C	0.376616	-3.71928	-0.576644
H	-1.29052	-2.56162	-0.0225644
H	-0.289884	-4.60065	-0.449288
H	1.24786	-3.83693	0.107711
H	0.757818	-3.71622	-1.62348
C	4779.28	3.00391	-0.364818
C	4780.19	2.10728	0.384686
O	4780.78	2.49576	1.38337
H	4779.26	4.0016	0.12522
H	4778.25	2.58768	-0.370504
H	4779.63	3.12315	-1.40982
N	4780.32	0.868453	-0.0934558
C	4781.17	-0.118527	0.526036
C	4781.5	-1.17304	-0.514165
O	4780.86	-1.23326	-1.56673
H	4779.86	0.572928	-0.924556
H	4782.1	0.351102	0.819541
C	4780.48	-0.769404	1.74455
H	4779.53	-1.24966	1.43998
H	4781.13	-1.52977	2.22403
H	4780.25	0.0135766	2.49861
N	4782.51	-2.01971	-0.250616
C	4782.9	-3.04839	-1.18717
H	4783.01	-1.95028	0.603702
H	4783.75	-3.6418	-0.788434
H	4783.21	-2.59884	-2.15828
H	4782.05	-3.74231	-1.38338
