44
  This energy is 8.68666e-320 and Call times are: 57987
C	-0.132059	1.37593	3.19617
C	-0.626029	1.26569	1.80511
O	-1.64414	1.84216	1.44785
H	-0.821833	2.02279	3.78068
H	0.881539	1.82905	3.20743
H	-0.0931736	0.372165	3.66933
N	0.0947142	0.504393	0.978478
C	-0.25809	0.300632	-0.403853
C	0.423935	-0.968467	-0.876574
O	1.32062	-1.48499	-0.212496
H	0.906137	0.0164875	1.28909
H	-1.32719	0.145589	-0.474961
C	0.180046	1.4966	-1.27838
H	1.27724	1.65323	-1.20255
H	-0.0902135	1.34307	-2.34336
H	-0.325494	2.42018	-0.921201
N	-0.00339625	-1.51458	-2.03206
C	0.578468	-2.72891	-2.55458
H	-0.735139	-1.08545	-2.55132
H	0.0936704	-3.0163	-3.51355
H	0.451494	-3.56777	-1.83248
H	1.66887	-2.59445	-2.73933
C	2749.24	-2.55241	2.35431
C	2749.5	-1.14365	1.98604
O	2749.67	-0.286513	2.84282
H	2749.22	-2.64501	3.46196
H	2750.04	-3.21045	1.95303
H	2748.26	-2.87493	1.94897
N	2749.55	-0.869657	0.680036
C	2749.79	0.453566	0.166385
C	2749.27	0.509199	-1.25378
O	2748.97	-0.521548	-1.85489
H	2749.38	-1.57112	-0.00791579
H	2749.23	1.17023	0.753931
C	2751.3	0.789771	0.185706
H	2751.87	0.0522007	-0.417455
H	2751.5	1.80801	-0.209009
H	2751.68	0.744451	1.23133
N	2749.12	1.72389	-1.81751
C	2748.61	1.87559	-3.1612
H	2749.35	2.54653	-1.31217
H	2748.56	2.9502	-3.44422
H	2747.58	1.44433	-3.24542
H	2749.26	1.35	-3.89132
