44
  This energy is 1.57063e-319 and Call times are: 24849
C	-0.411924	3.36422	-0.799043
C	-0.951473	2.04858	-0.387737
O	-2.12096	1.92141	-0.0521285
H	-1.21724	4.12788	-0.734554
H	-0.0446678	3.3168	-1.8458
H	0.421196	3.66295	-0.12851
N	-0.0935471	1.02575	-0.399869
C	-0.46964	-0.314369	-0.0264102
C	0.793597	-1.06643	0.344895
O	1.90103	-0.613787	0.0611002
H	0.863939	1.1479	-0.647325
H	-1.09759	-0.271049	0.854425
C	-1.19788	-1.03685	-1.18175
H	-0.551085	-1.0789	-2.08396
H	-1.48903	-2.06895	-0.897521
H	-2.12074	-0.475468	-1.44507
N	0.655606	-2.22928	1.01178
C	1.80218	-3.00851	1.4172
H	-0.248898	-2.57527	1.2385
H	1.48224	-3.93051	1.95088
H	2.45711	-2.41856	2.09857
H	2.40698	-3.30829	0.530905
C	1184.58	-3.0419	-1.55312
C	1184.73	-2.09258	-0.427589
O	1185.31	-2.41624	0.598616
H	1185.05	-4.01044	-1.2834
H	1185.07	-2.64009	-2.46211
H	1183.5	-3.21541	-1.76478
N	1184.2	-0.88108	-0.597221
C	1184.26	0.150306	0.407085
C	1183.16	1.14843	0.123982
O	1182.56	1.14079	-0.953048
H	1183.7	-0.639089	-1.42634
H	1184.07	-0.289827	1.37689
C	1185.64	0.859996	0.394331
H	1185.83	1.30979	-0.602237
H	1185.69	1.65466	1.16653
H	1186.44	0.117943	0.601778
N	1182.84	2.02179	1.09956
C	1181.79	3.00082	0.924809
H	1183.33	2.00736	1.96677
H	1181.68	3.62687	1.83769
H	1180.82	2.50114	0.72358
H	1182.02	3.67142	0.0649378
