44
  This energy is 4.67287e-320 and Call times are: 87849
C	-3.31709	1.02358	0.274474
C	-2.24458	0.0207614	0.462312
O	-2.44901	-1.01619	1.07829
H	-4.24546	0.665732	0.77039
H	-3.52046	1.16814	-0.807453
H	-3.0186	1.9927	0.726877
N	-1.05625	0.316771	-0.069294
C	0.0842081	-0.558676	0.0296158
C	1.33142	0.273624	-0.196148
O	1.2536	1.40951	-0.6604
H	-0.89436	1.17795	-0.543736
H	0.133793	-0.959824	1.03395
C	0.0104407	-1.6983	-1.01102
H	-0.0409868	-1.28321	-2.04018
H	0.886981	-2.37436	-0.937534
H	-0.908042	-2.29978	-0.835641
N	2.5157	-0.26834	0.149919
C	3.75512	0.454125	-0.0176394
H	2.55716	-1.18623	0.530699
H	4.61758	-0.160363	0.322666
H	3.74252	1.39831	0.573636
H	3.91398	0.719158	-1.08801
C	4161.28	-3.35837	-0.265744
C	4160.65	-2.23279	0.454874
O	4159.99	-2.42213	1.46796
H	4161.05	-4.31007	0.258339
H	4162.38	-3.22386	-0.288565
H	4160.89	-3.41516	-1.30504
N	4160.83	-1.01684	-0.065304
C	4160.27	0.175971	0.522101
C	4160.22	1.24406	-0.552943
O	4160.83	1.10374	-1.60867
H	4161.34	-0.878935	-0.907351
H	4159.25	-0.0264087	0.834141
C	4161.12	0.664403	1.71558
H	4162.16	0.870435	1.39204
H	4160.7	1.58262	2.17033
H	4161.15	-0.127329	2.49554
N	4159.46	2.33313	-0.315979
C	4159.34	3.39628	-1.28637
H	4158.97	2.42485	0.54159
H	4158.68	4.20311	-0.906016
H	4158.92	3.01115	-2.24057
H	4160.34	3.83934	-1.50869
