44
  This energy is 1.5107e-319 and Call times are: 6579
C	-3.39714	0.0083963	0.765185
C	-2.06654	0.656601	0.742026
O	-1.92858	1.82933	1.06166
H	-4.15981	0.747013	1.09478
H	-3.39422	-0.845904	1.4744
H	-3.66372	-0.354962	-0.249631
N	-1.04249	-0.105295	0.350609
C	0.311427	0.382827	0.276665
C	1.08297	-0.523929	-0.662356
O	0.621896	-1.61039	-1.00711
H	-1.17228	-1.05103	0.0648176
H	0.304546	1.37518	-0.156077
C	0.980552	0.398505	1.6692
H	0.985298	-0.620977	2.1105
H	2.02313	0.773967	1.61592
H	0.405303	1.06525	2.34794
N	2.27333	-0.0854698	-1.11709
C	3.07312	-0.875196	-2.0242
H	2.626	0.799759	-0.832085
H	4.01648	-0.344544	-2.28058
H	2.51551	-1.07448	-2.96791
H	3.33591	-1.85557	-1.56486
C	322.118	-0.788944	-3.26507
C	321.565	0.14412	-2.25801
O	321.308	1.30518	-2.54517
H	322.241	-0.254723	-4.23217
H	321.428	-1.64566	-3.41323
H	323.109	-1.16599	-2.93401
N	321.372	-0.351323	-1.0334
C	320.84	0.433057	0.0522402
C	321.236	-0.240602	1.35161
O	321.673	-1.38994	1.35604
H	321.612	-1.29082	-0.804388
H	321.299	1.41317	0.0363522
C	319.302	0.549077	-0.0384906
H	318.834	-0.45824	-0.0226059
H	318.889	1.15255	0.795855
H	319.024	1.04305	-0.995151
N	321.112	0.472282	2.48846
C	321.476	-0.0822324	3.77154
H	320.763	1.40338	2.46326
H	321.3	0.657228	4.58366
H	322.553	-0.368073	3.7849
H	320.874	-0.993708	3.9908
