44
  This energy is 1.55285e-319 and Call times are: 92217
C	-1.21287	1.70644	-2.78265
C	-1.17555	1.45477	-1.32441
O	-1.77414	2.17987	-0.541845
H	-1.83251	2.60716	-2.98416
H	-1.66007	0.837411	-3.30954
H	-0.186246	1.8831	-3.16708
N	-0.45373	0.406281	-0.921882
C	-0.32191	0.0338303	0.464022
C	0.924797	-0.818359	0.600892
O	1.47849	-1.28631	-0.392222
H	0.0530805	-0.15956	-1.56679
H	-0.17568	0.928175	1.05634
C	-1.55858	-0.751093	0.955612
H	-1.70602	-1.66759	0.345358
H	-1.46046	-1.03931	2.02242
H	-2.46524	-0.116458	0.849045
N	1.40967	-1.02199	1.84163
C	2.59868	-1.81005	2.06834
H	0.951356	-0.628872	2.63197
H	2.83485	-1.86212	3.15405
H	3.47244	-1.36361	1.54062
H	2.46015	-2.84849	1.68937
C	4366.96	2.00245	2.45747
C	4367.54	0.719479	1.99703
O	4367.75	-0.195869	2.7803
H	4366.79	1.95529	3.55487
H	4365.99	2.18967	1.9501
H	4367.66	2.83718	2.23836
N	4367.81	0.627016	0.694069
C	4368.38	-0.556929	0.0966248
C	4369.02	-0.153926	-1.2133
O	4368.8	0.944627	-1.71611
H	4367.66	1.3901	0.0711863
H	4369.15	-0.941524	0.74424
C	4367.29	-1.63043	-0.154752
H	4366.5	-1.2323	-0.818937
H	4367.72	-2.54347	-0.614581
H	4366.83	-1.91621	0.812235
N	4369.87	-1.03131	-1.78761
C	4370.54	-0.729633	-3.02935
H	4370.05	-1.91234	-1.36148
H	4371.2	-1.57653	-3.33958
H	4371.18	0.179265	-2.92115
H	4369.81	-0.539735	-3.84111
