44
  This energy is 7.17532e-320 and Call times are: 3555
C	-1.15504	1.29517	3.01903
C	-0.928101	0.166248	2.08885
O	-1.14136	-0.988514	2.4317
H	-1.51589	0.901008	3.99386
H	-1.92053	1.98442	2.60457
H	-0.208249	1.8512	3.18447
N	-0.47714	0.481583	0.872478
C	-0.209073	-0.506147	-0.142094
C	0.743862	0.107408	-1.14942
O	0.950561	1.31941	-1.16188
H	-0.279579	1.42368	0.614876
H	0.292413	-1.35084	0.312965
C	-1.50861	-0.956465	-0.846032
H	-2.02084	-0.0873436	-1.31118
H	-1.30585	-1.71711	-1.62775
H	-2.19863	-1.403	-0.097279
N	1.36619	-0.724083	-2.0081
C	2.29953	-0.2317	-2.99431
H	1.19102	-1.70266	-1.97744
H	2.70335	-1.06848	-3.60585
H	3.15401	0.286843	-2.50215
H	1.80257	0.494217	-3.67787
C	177.476	3.40492	-0.675636
C	178.058	2.10973	-0.256712
O	179.262	1.98332	-0.0845346
H	178.29	4.15245	-0.792859
H	176.761	3.76952	0.0919114
H	176.949	3.29196	-1.64663
N	177.199	1.10148	-0.0868482
C	177.613	-0.217797	0.319056
C	176.525	-1.19305	-0.0862437
O	175.414	-0.79004	-0.423706
H	176.224	1.20945	-0.258476
H	178.513	-0.485722	-0.220491
C	177.849	-0.288885	1.84431
H	176.925	-0.0127835	2.39471
H	178.169	-1.30331	2.16025
H	178.648	0.430911	2.12854
N	176.83	-2.50583	-0.082953
C	175.861	-3.50694	-0.465235
H	177.737	-2.81155	0.186465
H	176.301	-4.52627	-0.395531
H	175.52	-3.34342	-1.51307
H	174.968	-3.46402	0.199488
