44
  This energy is 7.87442e-320 and Call times are: 21951
C	0.649964	-3.10613	-1.43374
C	0.881132	-2.07873	-0.393451
O	1.59135	-2.3085	0.575723
H	1.19996	-4.03345	-1.16274
H	1.0178	-2.74453	-2.41698
H	-0.433152	-3.33926	-1.50761
N	0.270495	-0.905163	-0.572987
C	0.398882	0.192353	0.352109
C	-0.780655	1.12121	0.13962
O	-1.4911	1.01686	-0.858485
H	-0.3289	-0.740123	-1.35172
H	0.338118	-0.190547	1.36293
C	1.7235	0.957833	0.136383
H	1.78281	1.34869	-0.901804
H	1.82566	1.80349	0.847165
H	2.57967	0.266196	0.293757
N	-1.02986	2.04277	1.09074
C	-2.13822	2.96227	0.980024
H	-0.447634	2.10666	1.89458
H	-2.17454	3.64211	1.85965
H	-3.10365	2.409	0.924576
H	-2.04306	3.58364	0.0602306
C	1044.66	2.94541	1.38376
C	1045.69	2.19423	0.626295
O	1046.61	2.77076	0.074883
H	1044.89	4.03175	1.33791
H	1044.66	2.62325	2.44631
H	1043.66	2.77304	0.942367
N	1045.54	0.868584	0.578011
C	1046.45	0.00267554	-0.119711
C	1045.73	-1.29925	-0.41234
O	1044.67	-1.56887	0.144682
H	1044.76	0.413441	1.00682
H	1046.71	0.455667	-1.06826
C	1047.72	-0.268687	0.720728
H	1047.45	-0.732788	1.6934
H	1048.43	-0.934985	0.186388
H	1048.24	0.692872	0.929301
N	1046.29	-2.13121	-1.3156
C	1045.67	-3.38751	-1.66679
H	1047.14	-1.89183	-1.76083
H	1046.28	-3.92858	-2.42409
H	1044.65	-3.21901	-2.09013
H	1045.56	-4.03928	-0.769197
