44
  This energy is 3.7465e-320 and Call times are: 68781
C	1.38248	2.69181	-1.72309
C	1.26625	1.83828	-0.519274
O	2.0275	1.97448	0.428594
H	2.22811	3.40111	-1.59017
H	0.447393	3.27149	-1.87279
H	1.57622	2.06547	-2.61926
N	0.297145	0.92015	-0.534632
C	0.0591163	0.0164703	0.562424
C	-0.711802	-1.17417	0.0264185
O	-1.23869	-1.13375	-1.0838
H	-0.297951	0.79962	-1.32474
H	1.0098	-0.346505	0.931912
C	-0.740686	0.702133	1.6926
H	-1.71509	1.07388	1.30991
H	-0.925598	0.00916192	2.53899
H	-0.165872	1.57325	2.07586
N	-0.7769	-2.27609	0.799419
C	-1.47887	-3.46203	0.367028
H	-0.337906	-2.29164	1.69176
H	-1.42009	-4.25816	1.14161
H	-1.03768	-3.85769	-0.576397
H	-2.55314	-3.23577	0.177475
C	3260.94	-3.15731	-0.157591
C	3261	-1.77759	0.374922
O	3260.12	-1.33647	1.09546
H	3260.01	-3.64617	0.198885
H	3261.81	-3.74501	0.198039
H	3260.93	-3.13933	-1.26781
N	3262.07	-1.05327	0.0202557
C	3262.27	0.304572	0.458526
C	3263.24	0.966102	-0.505269
O	3263.89	0.293856	-1.30074
H	3262.77	-1.41415	-0.590893
H	3261.33	0.837408	0.39928
C	3262.84	0.353395	1.89524
H	3263.8	-0.194747	1.95255
H	3262.99	1.39746	2.23591
H	3262.12	-0.135337	2.59129
N	3263.33	2.30982	-0.470305
C	3264.22	3.02762	-1.35854
H	3262.79	2.83656	0.175767
H	3264.15	4.12287	-1.17466
H	3263.95	2.83494	-2.42208
H	3265.27	2.70576	-1.20675
