44
  This energy is 1.17884e-320 and Call times are: 80163
C	1.83083	-2.80108	0.963402
C	1.40924	-1.80665	-0.0488084
O	1.93101	-1.76947	-1.15464
H	2.64341	-3.43206	0.542168
H	0.975368	-3.45326	1.23846
H	2.20961	-2.28622	1.87136
N	0.442637	-0.961482	0.316902
C	-0.0738502	0.0609208	-0.557604
C	-0.734344	1.12021	0.303146
O	-0.984859	0.901881	1.48696
H	0.0458197	-0.983059	1.23069
H	0.752007	0.528399	-1.07866
C	-1.09451	-0.520362	-1.56134
H	-1.94005	-0.999747	-1.02341
H	-1.49408	0.26417	-2.23634
H	-0.598703	-1.29586	-2.18498
N	-1.01303	2.30735	-0.270479
C	-1.63066	3.37989	0.474082
H	-0.796079	2.46706	-1.2279
H	-1.77984	4.2725	-0.172631
H	-0.993194	3.67597	1.3385
H	-2.62302	3.06337	0.869333
C	3798.23	2.91573	-1.88971
C	3798.6	1.51002	-1.61436
O	3799.29	0.872758	-2.39991
H	3798.66	3.22576	-2.86626
H	3798.63	3.5801	-1.09399
H	3797.13	3.01629	-1.93669
N	3798.15	0.986798	-0.475129
C	3798.42	-0.367456	-0.068783
C	3797.37	-0.77757	0.940381
O	3796.64	0.0622415	1.46212
H	3797.56	1.507	0.142555
H	3798.33	-1.01933	-0.927854
C	3799.83	-0.488898	0.555404
H	3799.93	0.181656	1.43602
H	3800.05	-1.53041	0.869266
H	3800.6	-0.184565	-0.193363
N	3797.25	-2.08987	1.22325
C	3796.27	-2.57505	2.16261
H	3797.85	-2.75468	0.785208
H	3796.33	-3.68131	2.26061
H	3795.24	-2.30991	1.82622
H	3796.43	-2.1243	3.16862
