44
  This energy is 1.12943e-320 and Call times are: 67689
C	-1.20017	-2.10307	2.50256
C	-0.787327	-1.84748	1.10419
O	-0.703292	-2.7591	0.292783
H	-1.38877	-3.19038	2.63693
H	-2.13189	-1.54542	2.73438
H	-0.397553	-1.78834	3.20233
N	-0.510661	-0.579804	0.789845
C	-0.0965595	-0.174174	-0.529553
C	0.613663	1.15977	-0.405432
O	0.534052	1.82049	0.628465
H	-0.554736	0.149607	1.46731
H	0.617739	-0.892931	-0.910657
C	-1.30492	-0.0459319	-1.48377
H	-2.03601	0.691711	-1.08942
H	-0.989622	0.266105	-2.50063
H	-1.81726	-1.0293	-1.56522
N	1.34685	1.57772	-1.45603
C	2.06751	2.82906	-1.42453
H	1.40458	1.02537	-2.28114
H	2.6078	2.99591	-2.38239
H	2.8129	2.83241	-0.596511
H	1.36838	3.68133	-1.26316
C	3211.92	-3.13025	-0.142846
C	3211.93	-1.69155	0.20522
O	3212.86	-1.20209	0.835849
H	3212.84	-3.61415	0.259425
H	3211.9	-3.25687	-1.24577
H	3211.03	-3.62301	0.300574
N	3210.88	-0.973272	-0.200679
C	3210.75	0.437811	0.0615817
C	3209.29	0.800271	-0.0558235
O	3208.49	0.0222702	-0.571636
H	3210.12	-1.38957	-0.688441
H	3211.06	0.636077	1.08057
C	3211.59	1.27415	-0.933591
H	3211.27	1.0678	-1.97799
H	3211.49	2.36115	-0.734406
H	3212.66	0.998437	-0.838539
N	3208.89	1.98905	0.443208
C	3207.51	2.41416	0.387172
H	3209.55	2.60158	0.863199
H	3207.39	3.41971	0.847168
H	3206.86	1.69766	0.934424
H	3207.16	2.46681	-0.668359
