44
  This energy is 1.39756e-319 and Call times are: 117375
C	-1.23435	-2.36549	-2.23763
C	-0.292854	-1.28154	-1.87729
O	0.641118	-0.985443	-2.60976
H	-0.931294	-2.80631	-3.21215
H	-2.26464	-1.96215	-2.33056
H	-1.21748	-3.16059	-1.46273
N	-0.519524	-0.660408	-0.717466
C	0.308945	0.413799	-0.231107
C	0.106223	0.516409	1.2681
O	-0.831168	-0.0600508	1.81657
H	-1.26656	-0.930338	-0.115788
H	1.3477	0.164012	-0.406245
C	-0.0526128	1.75423	-0.909076
H	-1.11909	2.00708	-0.727948
H	0.583509	2.58349	-0.536995
H	0.0989767	1.6656	-2.00694
N	0.999266	1.24002	1.97156
C	0.893727	1.38412	3.40483
H	1.75506	1.69309	1.51032
H	1.7197	2.01672	3.79834
H	0.945308	0.389695	3.90453
H	-0.0748588	1.85985	3.68179
C	5561	0.38457	-3.06767
C	5560.72	0.825551	-1.68359
O	5561.33	1.75338	-1.17621
H	5561.82	1.01177	-3.49301
H	5560.1	0.49565	-3.69873
H	5561.33	-0.677116	-3.072
N	5559.77	0.153721	-1.03102
C	5559.38	0.465271	0.321051
C	5558.7	-0.759026	0.904389
O	5558.34	-1.68365	0.178517
H	5559.29	-0.619078	-1.44511
H	5560.27	0.65948	0.907424
C	5558.42	1.67575	0.365418
H	5557.51	1.47336	-0.237693
H	5558.12	1.91846	1.40504
H	5558.93	2.56569	-0.0657173
N	5558.53	-0.80231	2.24048
C	5557.9	-1.93293	2.88635
H	5558.83	-0.0472565	2.81151
H	5557.85	-1.77918	3.98687
H	5558.48	-2.8661	2.68844
H	5556.87	-2.0794	2.50559
