44
  This energy is 1.55853e-319 and Call times are: 79533
C	0.637332	3.26455	1.03085
C	1.08896	1.90132	0.671912
O	2.27874	1.63483	0.572437
H	1.52396	3.92113	1.16743
H	0.0596756	3.23901	1.97874
H	0.001666	3.68264	0.222105
N	0.131061	0.995673	0.460718
C	0.413215	-0.371985	0.104728
C	-0.827193	-0.948476	-0.549705
O	-1.9072	-0.365861	-0.472354
H	-0.835273	1.23241	0.516329
H	1.20948	-0.387587	-0.628615
C	0.796732	-1.2086	1.34574
H	-0.022084	-1.18986	2.09628
H	1.01478	-2.26218	1.07519
H	1.70597	-0.775392	1.81667
N	-0.694807	-2.10308	-1.23188
C	-1.81812	-2.7205	-1.89757
H	0.189082	-2.55554	-1.28892
H	-1.50766	-3.66256	-2.40093
H	-2.24372	-2.03599	-2.66669
H	-2.62363	-2.96228	-1.1669
C	3769.91	-3.33626	0.128541
C	3770.86	-2.24513	0.457899
O	3771.8	-2.43059	1.2178
H	3770.21	-4.25827	0.672462
H	3769.93	-3.54101	-0.962601
H	3768.88	-3.05678	0.435448
N	3770.62	-1.06199	-0.112786
C	3771.45	0.0947634	0.110039
C	3770.63	1.32623	-0.23574
O	3769.58	1.22742	-0.859395
H	3769.83	-0.915899	-0.707131
H	3771.7	0.15073	1.16179
C	3772.73	0.0439141	-0.754573
H	3772.47	-0.0141301	-1.83289
H	3773.37	0.933042	-0.585356
H	3773.31	-0.863197	-0.492563
N	3771.1	2.52016	0.183301
C	3770.38	3.74584	-0.0889755
H	3771.95	2.57857	0.692865
H	3770.92	4.6194	0.335359
H	3769.36	3.7146	0.359428
H	3770.27	3.90095	-1.18668
