44
  This energy is 1.2116e-319 and Call times are: 97467
C	1.6901	-0.920648	2.90209
C	0.749377	-1.20987	1.79637
O	0.287627	-2.33124	1.63572
H	1.86878	-1.85029	3.48493
H	1.26181	-0.150078	3.57707
H	2.6584	-0.559169	2.49628
N	0.445423	-0.18733	0.993634
C	-0.454978	-0.312335	-0.124614
C	-0.17011	0.828539	-1.08195
O	0.514949	1.78739	-0.731051
H	0.850808	0.714481	1.11747
H	-0.244077	-1.23832	-0.644368
C	-1.92997	-0.266174	0.332969
H	-2.14268	0.684796	0.86638
H	-2.62598	-0.362315	-0.525577
H	-2.1255	-1.10616	1.03464
N	-0.674887	0.739574	-2.32826
C	-0.445727	1.77218	-3.31182
H	-1.22081	-0.0477808	-2.59522
H	-0.943518	1.51696	-4.27323
H	0.644599	1.89675	-3.50394
H	-0.84762	2.74889	-2.95726
C	4619.76	-1.86315	0.695265
C	4618.3	-1.64916	0.764943
O	4617.55	-2.51309	1.20608
H	4620	-2.87615	1.08403
H	4620.29	-1.10587	1.31283
H	4620.11	-1.78925	-0.356554
N	4617.85	-0.474396	0.317429
C	4616.45	-0.119277	0.320602
C	4616.25	0.992031	-0.69135
O	4617.21	1.60116	-1.15493
H	4618.46	0.209806	-0.0665522
H	4615.87	-0.971957	-0.00789294
C	4615.99	0.347602	1.72021
H	4616.59	1.22205	2.05439
H	4614.92	0.621672	1.72626
H	4616.14	-0.474882	2.45249
N	4614.99	1.26776	-1.07519
C	4614.7	2.30101	-2.04282
H	4614.22	0.758805	-0.69384
H	4613.61	2.37646	-2.22475
H	4615.2	2.08125	-3.01277
H	4615.06	3.2899	-1.68163
