44
  This energy is 5.27909e-320 and Call times are: 20985
C	-2.84359	0.0411332	-2.00958
C	-2.00128	-0.572968	-0.958583
O	-2.39541	-1.53506	-0.313968
H	-3.81087	-0.503485	-2.06989
H	-2.33372	-0.0219463	-2.99389
H	-3.04501	1.10547	-1.76551
N	-0.804856	-0.016001	-0.756805
C	0.126817	-0.501192	0.229807
C	1.09587	0.621069	0.547157
O	1.16497	1.61461	-0.173903
H	-0.507051	0.785555	-1.26843
H	-0.413254	-0.736164	1.1382
C	0.89657	-1.73841	-0.283893
H	1.44893	-1.49399	-1.21624
H	1.61472	-2.11469	0.47338
H	0.175484	-2.55283	-0.513884
N	1.85553	0.496915	1.65328
C	2.79782	1.52038	2.04159
H	1.77984	-0.311446	2.22778
H	3.32722	1.23313	2.97672
H	2.27571	2.48869	2.21774
H	3.55798	1.67837	1.24261
C	1000.65	-1.95786	-2.78029
C	1000.91	-1.50976	-1.39438
O	1001.76	-2.05982	-0.701898
H	1001.31	-2.81639	-3.02142
H	1000.86	-1.13309	-3.4947
H	999.593	-2.28102	-2.88337
N	1000.18	-0.487002	-0.951695
C	1000.32	0.0612907	0.37353
C	999.042	0.804707	0.70896
O	998.224	1.07605	-0.168047
H	999.473	-0.0662207	-1.51551
H	1000.42	-0.751347	1.08136
C	1001.53	1.01857	0.460125
H	1001.42	1.85066	-0.267802
H	1001.64	1.44244	1.47924
H	1002.46	0.462274	0.211103
N	998.83	1.13352	1.99853
C	997.636	1.8316	2.41394
H	999.501	0.898803	2.69457
H	997.648	2.01247	3.51139
H	996.727	1.23669	2.1666
H	997.556	2.81535	1.89722
