44
  This energy is 9.28893e-320 and Call times are: 96291
C	0.893369	0.516857	3.32579
C	-0.103589	0.189983	2.28155
O	-1.232	-0.17828	2.57748
H	0.438968	0.362528	4.32857
H	1.20987	1.57715	3.23403
H	1.78082	-0.143287	3.22789
N	0.301258	0.314442	1.01547
C	-0.553993	0.0333258	-0.109854
C	0.330542	-0.230214	-1.31293
O	1.52549	0.0585906	-1.2899
H	1.23211	0.587322	0.787444
H	-1.11402	-0.87114	0.0911114
C	-1.50785	1.21359	-0.400105
H	-0.930022	2.13997	-0.605176
H	-2.16793	1.00041	-1.26592
H	-2.14946	1.39728	0.489131
N	-0.235659	-0.808609	-2.39037
C	0.53081	-1.10838	-3.57731
H	-1.20265	-1.04129	-2.38688
H	-0.112821	-1.57978	-4.35241
H	1.36415	-1.80883	-3.34036
H	0.971942	-0.17924	-4.00542
C	4559.13	2.07596	2.16246
C	4559.76	0.779114	1.8282
O	4559.85	-0.113202	2.66009
H	4558.8	2.06127	3.22405
H	4558.24	2.24975	1.51397
H	4559.86	2.90278	2.02359
N	4560.22	0.648037	0.582577
C	4560.86	-0.553817	0.108072
C	4561.69	-0.190438	-1.10433
O	4561.55	0.893256	-1.66649
H	4560.17	1.39276	-0.077302
H	4561.53	-0.920485	0.872931
C	4559.82	-1.63251	-0.267394
H	4559.13	-1.25277	-1.05178
H	4560.31	-2.55932	-0.633019
H	4559.21	-1.88906	0.628802
N	4562.61	-1.08563	-1.52363
C	4563.46	-0.821575	-2.66213
H	4562.72	-1.95406	-1.05102
H	4564.14	-1.67824	-2.84964
H	4564.08	0.089097	-2.48871
H	4562.85	-0.654395	-3.57808
