44
  This energy is 2.9387e-320 and Call times are: 49671
C	-2.74581	-2.00498	0.752822
C	-2.04988	-0.698501	0.749933
O	-2.62342	0.324467	1.09789
H	-3.79318	-1.86244	1.09713
H	-2.2339	-2.70959	1.44151
H	-2.75936	-2.43382	-0.271316
N	-0.777985	-0.705024	0.344215
C	0.030267	0.486724	0.286829
C	1.17683	0.226406	-0.670701
O	1.43794	-0.916017	-1.04289
H	-0.330763	-1.54027	0.035523
H	-0.562872	1.29478	-0.122192
C	0.577963	0.86264	1.68176
H	1.1854	0.0311916	2.09869
H	1.20064	1.77993	1.64123
H	-0.271662	1.04964	2.37408
N	1.87768	1.29006	-1.11054
C	2.97873	1.14033	-2.03328
H	1.64636	2.20728	-0.803268
H	3.42772	2.12924	-2.27353
H	2.63407	0.671765	-2.98349
H	3.77224	0.491706	-1.59646
C	2356.07	3.41529	-0.125603
C	2355.22	2.26889	0.266798
O	2354.24	2.42441	0.979749
H	2355.66	4.34549	0.328877
H	2356.07	3.52762	-1.23022
H	2357.11	3.2622	0.234577
N	2355.59	1.07155	-0.194006
C	2354.86	-0.137636	0.101286
C	2355.8	-1.30913	-0.114203
O	2356.86	-1.16052	-0.712167
H	2356.41	0.953759	-0.750025
H	2354.58	-0.131374	1.14602
C	2353.62	-0.280916	-0.80239
H	2353.91	-0.286309	-1.87347
H	2353.05	-1.21085	-0.577567
H	2352.94	0.583847	-0.636001
N	2355.43	-2.5039	0.390626
C	2356.27	-3.67331	0.244849
H	2354.57	-2.60224	0.8776
H	2355.79	-4.55742	0.725401
H	2357.26	-3.50761	0.719263
H	2356.43	-3.90622	-0.831938
