44
  This energy is 1.85275e-321 and Call times are: 112041
C	2.58948	2.29794	0.374401
C	1.22111	1.93843	-0.0609171
O	0.438639	2.79142	-0.456698
H	2.72863	3.39672	0.27848
H	3.34067	1.78376	-0.261326
H	2.7425	2.00754	1.43515
N	0.896827	0.645295	0.00993033
C	-0.396305	0.141337	-0.378224
C	-0.595305	-1.20118	0.298
O	0.350832	-1.78929	0.81837
H	1.53332	-0.0359933	0.361587
H	-1.16102	0.812513	-0.0083565
C	-0.50182	-0.015363	-1.91166
H	0.284559	-0.704018	-2.2878
H	-1.49633	-0.403073	-2.21401
H	-0.353076	0.974673	-2.39524
N	-1.84338	-1.70871	0.324786
C	-2.13065	-2.97528	0.956819
H	-2.597	-1.21421	-0.0956472
H	-3.21224	-3.2207	0.872075
H	-1.86178	-2.94497	2.03757
H	-1.54659	-3.79463	0.478582
C	5307.26	-0.260089	-2.93332
C	5306.45	-0.858214	-1.8486
O	5306.11	-2.03196	-1.88842
H	5307.46	-1.03	-3.71007
H	5308.23	0.103744	-2.53095
H	5306.71	0.586263	-3.3985
N	5306.11	-0.0474205	-0.84197
C	5305.33	-0.483396	0.285251
C	5304.72	0.744867	0.928451
O	5305.12	1.87138	0.641364
H	5306.37	0.914395	-0.835322
H	5304.52	-1.10799	-0.0702847
C	5306.2	-1.24456	1.31335
H	5307.03	-0.601099	1.67549
H	5305.59	-1.58182	2.18253
H	5306.64	-2.14131	0.82958
N	5303.71	0.555018	1.80272
C	5303.05	1.66554	2.45541
H	5303.39	-0.364007	2.01647
H	5302.25	1.30471	3.13794
H	5302.59	2.34706	1.70406
H	5303.79	2.2554	3.05389
