44
  This energy is 1.56658e-319 and Call times are: 12837
C	2.97499	0.716673	1.66191
C	1.57978	1.0439	1.29107
O	0.995551	1.99072	1.7997
H	3.33091	1.44013	2.42727
H	3.63352	0.783612	0.770459
H	3.0284	-0.30881	2.08437
N	1.00519	0.249549	0.384862
C	-0.346447	0.440588	-0.0770966
C	-0.830501	-0.873832	-0.657812
O	-0.0384613	-1.78091	-0.906225
H	1.4818	-0.536081	-0.000585539
H	-0.97749	0.678243	0.769886
C	-0.423648	1.55394	-1.14555
H	0.225414	1.30722	-2.01271
H	-1.46303	1.70376	-1.50333
H	-0.0652936	2.51121	-0.708095
N	-2.15412	-1.0146	-0.868099
C	-2.70808	-2.23492	-1.40672
H	-2.77965	-0.27157	-0.653952
H	-3.8129	-2.15439	-1.5074
H	-2.47885	-3.09801	-0.74055
H	-2.27915	-2.45119	-2.41192
C	618.394	1.81277	1.45278
C	616.964	1.44877	1.3414
O	616.142	1.86022	2.14847
H	618.539	2.46585	2.3407
H	618.721	2.36267	0.545179
H	619.013	0.899089	1.57388
N	616.632	0.650441	0.323905
C	615.281	0.209996	0.0837423
C	615.344	-1.03953	-0.772987
O	616.385	-1.35892	-1.34353
H	617.316	0.29834	-0.309872
H	614.827	-0.0611036	1.02805
C	614.452	1.30166	-0.628807
H	614.922	1.57785	-1.59686
H	613.411	0.965878	-0.815132
H	614.415	2.21201	0.00838566
N	614.229	-1.7908	-0.865191
C	614.198	-3.00393	-1.64848
H	613.398	-1.51931	-0.390223
H	613.193	-3.47741	-1.60037
H	614.948	-3.73533	-1.26995
H	614.434	-2.78875	-2.71589
