44
  This energy is 2.68574e-320 and Call times are: 31737
C	-1.31698	-0.117244	-3.22148
C	-0.396783	-0.611729	-2.17271
O	0.270915	-1.62261	-2.34238
H	-1.27519	-0.799494	-4.09821
H	-1.01669	0.901738	-3.54448
H	-2.35796	-0.0907292	-2.83601
N	-0.346142	0.100243	-1.04448
C	0.501089	-0.254221	0.0660971
C	-0.0561499	0.412716	1.30864
O	-0.899822	1.30273	1.21966
H	-0.916696	0.905549	-0.907055
H	0.452739	-1.32507	0.217781
C	1.95897	0.198794	-0.171579
H	2.0048	1.29775	-0.327472
H	2.61409	-0.0727026	0.681582
H	2.35518	-0.295772	-1.08513
N	0.390079	-0.020524	2.50413
C	-0.09237	0.546947	3.74162
H	1.06772	-0.746749	2.55542
H	0.395247	0.0592552	4.61434
H	-1.19412	0.409463	3.83369
H	0.12402	1.63899	3.78399
C	1507.67	-0.0735835	3.48132
C	1508.19	-0.535208	2.17467
O	1509.15	-1.28098	2.10679
H	1508.29	-0.503383	4.29674
H	1506.62	-0.408828	3.61499
H	1507.71	1.03428	3.54137
N	1507.55	-0.0887845	1.09073
C	1507.94	-0.449868	-0.249379
C	1507.38	0.595721	-1.19419
O	1506.52	1.39256	-0.814155
H	1506.78	0.541628	1.15813
H	1509.02	-0.416573	-0.324174
C	1507.4	-1.84958	-0.630969
H	1506.3	-1.88037	-0.552494
H	1507.7	-2.13082	-1.66219
H	1507.82	-2.60624	0.069224
N	1507.87	0.630391	-2.44917
C	1507.4	1.59887	-3.41495
H	1508.56	-0.0183577	-2.73545
H	1507.92	1.46451	-4.38834
H	1507.59	2.63565	-3.05495
H	1506.31	1.48966	-3.58576
