44
  This energy is 3.83642e-320 and Call times are: 20439
C	2.1795	-1.88918	1.95113
C	1.83756	-0.660459	1.19978
O	2.56054	0.325646	1.23717
H	3.13183	-1.72974	2.50205
H	2.30737	-2.74209	1.25184
H	1.37745	-2.1272	2.6812
N	0.704745	-0.692852	0.494057
C	0.23887	0.424321	-0.288063
C	-1.25144	0.250467	-0.507154
O	-1.80016	-0.824473	-0.272121
H	0.109538	-1.49202	0.494964
H	0.383977	1.33537	0.278511
C	0.969938	0.503497	-1.64688
H	0.819519	-0.433003	-2.2252
H	0.613738	1.36269	-2.2516
H	2.06076	0.629597	-1.47265
N	-1.94766	1.31808	-0.94474
C	-3.37265	1.25006	-1.17049
H	-1.48664	2.1813	-1.12236
H	-3.76092	2.22834	-1.53031
H	-3.9073	0.985457	-0.229545
H	-3.61313	0.475075	-1.93386
C	973.168	-2.62941	-2.16255
C	972.91	-1.84378	-0.934696
O	971.926	-2.05831	-0.24146
H	972.352	-3.37127	-2.30189
H	974.134	-3.16997	-2.07525
H	973.199	-1.95861	-3.04687
N	973.803	-0.89649	-0.638577
C	973.69	-0.0508345	0.522795
C	974.523	1.19232	0.277199
O	975.335	1.23271	-0.644927
H	974.586	-0.711908	-1.227
H	972.659	0.260286	0.631973
C	974.18	-0.775459	1.79636
H	975.238	-1.09383	1.68064
H	974.094	-0.127205	2.69252
H	973.563	-1.68482	1.96452
N	974.323	2.24915	1.08905
C	975.061	3.47947	0.923658
H	973.655	2.19931	1.82514
H	974.755	4.2272	1.68843
H	974.878	3.9151	-0.0852261
H	976.155	3.29821	1.02777
