44
  This energy is 5.95102e-320 and Call times are: 21237
C	1.529	-2.77287	1.44896
C	0.515561	-2.16175	0.559754
O	-0.187327	-2.85137	-0.166104
H	1.51463	-3.87674	1.31811
H	1.30178	-2.53371	2.50915
H	2.54093	-2.39381	1.19352
N	0.421915	-0.830437	0.594276
C	-0.516257	-0.091683	-0.21251
C	-0.0142893	1.33494	-0.322125
O	0.875909	1.7468	0.419323
H	1.02021	-0.277813	1.16837
H	-0.530775	-0.512819	-1.20976
C	-1.93041	-0.110983	0.409512
H	-1.91173	0.321139	1.43276
H	-2.65534	0.45681	-0.209251
H	-2.28624	-1.16159	0.485452
N	-0.562599	2.11937	-1.27082
C	-0.139656	3.4878	-1.45713
H	-1.27677	1.76543	-1.86573
H	-0.709573	3.96646	-2.28376
H	0.945093	3.53317	-1.70713
H	-0.304942	4.08022	-0.528207
C	1015.17	1.1416	-0.392884
C	1013.7	1.29369	-0.568378
O	1013.22	2.33269	-0.999652
H	1015.67	2.08224	-0.700104
H	1015.54	0.30843	-1.02299
H	1015.4	0.936182	0.671956
N	1012.95	0.244113	-0.226084
C	1011.52	0.240216	-0.34016
C	1010.98	-0.834841	0.584073
O	1011.73	-1.68083	1.06767
H	1013.35	-0.586198	0.151466
H	1011.13	1.19229	0.00477249
C	1011.07	-0.0351582	-1.79289
H	1011.46	-1.01233	-2.14377
H	1009.96	-0.0387069	-1.88434
H	1011.47	0.758569	-2.46002
N	1009.66	-0.812678	0.869021
C	1009.06	-1.78903	1.74864
H	1009.07	-0.115651	0.473401
H	1007.97	-1.60411	1.85586
H	1009.53	-1.74363	2.76043
H	1009.21	-2.81891	1.34879
