44
  This energy is 1.18912e-319 and Call times are: 72015
C	-2.77716	-1.38113	1.58302
C	-1.54515	-0.560675	1.59702
O	-1.23321	0.0953551	2.5813
H	-3.30126	-1.2734	2.55749
H	-2.52275	-2.45076	1.42817
H	-3.45428	-1.04128	0.771261
N	-0.809653	-0.576224	0.48294
C	0.415206	0.170354	0.344486
C	0.688813	0.346146	-1.13655
O	0.0764559	-0.316462	-1.9719
H	-1.08961	-1.09169	-0.322572
H	0.277367	1.1551	0.772681
C	1.59785	-0.558807	1.02035
H	1.736	-1.56893	0.579126
H	2.54254	0.0133888	0.915757
H	1.38462	-0.682433	2.1045
N	1.60583	1.26506	-1.49806
C	1.92376	1.51008	-2.88553
H	2.08551	1.79625	-0.807433
H	2.70184	2.29966	-2.97717
H	1.01865	1.84358	-3.44302
H	2.30604	0.58298	-3.37084
C	3413.46	1.23491	-1.40245
C	3414.29	0.121773	-0.888088
O	3413.83	-1.00364	-0.758793
H	3412.44	0.861488	-1.61449
H	3413.9	1.636	-2.34079
H	3413.4	2.04668	-0.647389
N	3415.55	0.419418	-0.573045
C	3416.48	-0.55642	-0.0610496
C	3417.59	0.187736	0.656194
O	3417.73	1.40097	0.512202
H	3415.91	1.34647	-0.655397
H	3415.98	-1.17507	0.668897
C	3417.07	-1.42247	-1.19687
H	3417.59	-0.784564	-1.94425
H	3417.79	-2.17503	-0.806121
H	3416.25	-1.96142	-1.71513
N	3418.4	-0.523863	1.46753
C	3419.47	0.101399	2.20066
H	3418.27	-1.50355	1.57633
H	3420.02	-0.64987	2.80971
H	3419.08	0.886315	2.88542
H	3420.2	0.583706	1.50321
