44
  This energy is 1.17919e-319 and Call times are: 5319
C	-2.54098	0.898419	2.20508
C	-1.56264	1.22586	1.14356
O	-1.55913	2.3234	0.60328
H	-3.20341	1.7745	2.37697
H	-2.01242	0.656493	3.15108
H	-3.16359	0.031865	1.89785
N	-0.700996	0.261096	0.813164
C	0.309472	0.429074	-0.200525
C	0.730881	-0.949362	-0.671235
O	0.420391	-1.9536	-0.0333147
H	-0.732815	-0.638638	1.24025
H	-0.123632	0.947422	-1.04658
C	1.53155	1.20053	0.34583
H	1.97297	0.666318	1.21409
H	2.31147	1.33177	-0.432161
H	1.2094	2.20799	0.688432
N	1.43397	-1.03044	-1.81801
C	1.8681	-2.30116	-2.34995
H	1.66926	-0.206815	-2.3235
H	2.43288	-2.15851	-3.29754
H	0.993575	-2.95905	-2.55883
H	2.52937	-2.82625	-1.6232
C	264.603	-0.144074	-0.723064
C	263.183	-0.316485	-1.10392
O	262.865	-0.578129	-2.25564
H	265.244	-0.283105	-1.62095
H	264.888	-0.896805	0.0417603
H	264.77	0.876026	-0.317301
N	262.285	-0.164957	-0.127992
C	260.867	-0.302156	-0.342999
C	260.153	0.422583	0.781411
O	260.762	0.772231	1.79057
H	262.555	0.0768639	0.800099
H	260.602	0.188898	-1.27093
C	260.443	-1.78772	-0.370876
H	260.716	-2.28858	0.582319
H	259.351	-1.897	-0.536399
H	260.974	-2.3077	-1.19799
N	258.841	0.685178	0.622017
C	258.081	1.38121	1.63422
H	258.367	0.400368	-0.204963
H	257.021	1.49921	1.31858
H	258.507	2.39421	1.81787
H	258.1	0.81913	2.59593
