44
  This energy is 1.20048e-319 and Call times are: 90789
C	-1.44105	2.60171	1.81125
C	-1.04889	1.96678	0.532862
O	-1.39341	2.44109	-0.540835
H	-2.05708	3.50269	1.60006
H	-0.537553	2.9091	2.37872
H	-2.03828	1.89334	2.42319
N	-0.311794	0.857329	0.623358
C	0.146699	0.127172	-0.531408
C	0.472884	-1.28623	-0.0896491
O	0.573124	-1.56444	1.10383
H	-0.0620992	0.464588	1.50446
H	-0.658143	0.0687446	-1.25313
C	1.39455	0.789637	-1.15681
H	2.21802	0.848563	-0.413486
H	1.75014	0.230054	-2.04631
H	1.14282	1.82474	-1.47517
N	0.625267	-2.22122	-1.04806
C	0.925262	-3.59589	-0.721743
H	0.533185	-1.97775	-2.008
H	1.01414	-4.20897	-1.64558
H	0.121153	-4.03343	-0.086759
H	1.88507	-3.66619	-0.160494
C	4297.24	1.4601	0.0978337
C	4298.27	0.555153	0.649644
O	4298.12	0.0103184	1.73456
H	4296.39	1.53137	0.814818
H	4296.86	1.06414	-0.867698
H	4297.66	2.47423	-0.0597876
N	4299.37	0.377947	-0.0965586
C	4300.46	-0.472575	0.305627
C	4301.69	-0.0461511	-0.468119
O	4301.59	0.697881	-1.44233
H	4299.49	0.850257	-0.965235
H	4300.66	-0.31369	1.35754
C	4300.14	-1.95968	0.0276477
H	4299.94	-2.11897	-1.05229
H	4300.98	-2.61738	0.336286
H	4299.24	-2.25934	0.59921
N	4302.89	-0.493504	-0.0357569
C	4304.11	-0.130222	-0.702203
H	4302.94	-1.089	0.758817
H	4304.99	-0.598731	-0.198324
H	4304.26	0.974941	-0.692078
H	4304.1	-0.466699	-1.76416
