44
  This energy is 2.12942e-321 and Call times are: 105447
C	0.950797	1.27077	3.09956
C	0.925273	0.190299	2.08805
O	1.58831	-0.827498	2.23282
H	1.6376	0.984484	3.92552
H	-0.0661502	1.42878	3.5163
H	1.31322	2.21526	2.64182
N	0.149778	0.395297	1.02084
C	0.0208022	-0.56339	-0.0473905
C	-0.477465	0.172351	-1.27607
O	-0.934345	1.31026	-1.18516
H	-0.362924	1.24121	0.90043
H	0.998807	-0.965793	-0.279018
C	-0.961006	-1.69561	0.328423
H	-1.96312	-1.2792	0.566081
H	-1.06256	-2.43564	-0.491834
H	-0.585351	-2.22601	1.23048
N	-0.379891	-0.45677	-2.46379
C	-0.817733	0.170113	-3.68915
H	-0.000672573	-1.37467	-2.51757
H	-0.656608	-0.507107	-4.55671
H	-0.253493	1.11335	-3.8713
H	-1.90193	0.421006	-3.63671
C	4991.33	1.21946	2.00426
C	4991.82	0.416553	0.861662
O	4991.06	-0.308711	0.227802
H	4990.24	1.03063	2.146
H	4991.48	2.30104	1.80596
H	4991.87	0.933859	2.93235
N	4993.12	0.526927	0.574002
C	4993.74	-0.190754	-0.508421
C	4995.23	-0.249123	-0.230522
O	4995.74	0.467369	0.630309
H	4993.73	1.0988	1.11609
H	4993.37	-1.20709	-0.518175
C	4993.48	0.500001	-1.86566
H	4993.86	1.54265	-1.85191
H	4993.96	-0.0500861	-2.70133
H	4992.39	0.537516	-2.05693
N	4995.97	-1.12559	-0.943038
C	4997.39	-1.25955	-0.738982
H	4995.54	-1.70173	-1.63017
H	4997.81	-2.02954	-1.42046
H	4997.61	-1.56126	0.310743
H	4997.91	-0.293113	-0.936077
