44
  This energy is 7.46978e-320 and Call times are: 27663
C	-1.07576	-3.3106	-0.0939282
C	-0.0525595	-2.28235	0.201009
O	0.988855	-2.57229	0.773624
H	-0.727109	-4.29534	0.286316
H	-1.23804	-3.38554	-1.18977
H	-2.03362	-3.05156	0.40442
N	-0.335461	-1.03624	-0.185681
C	0.560362	0.0716949	0.0306777
C	-0.253662	1.34918	-0.0373612
O	-1.39675	1.34279	-0.490283
H	-1.19999	-0.807569	-0.625266
H	0.975551	-0.00106777	1.02787
C	1.6847	0.101121	-1.02862
H	1.25521	0.17513	-2.05047
H	2.37639	0.952909	-0.864893
H	2.27285	-0.840533	-0.96928
N	0.312767	2.47721	0.434563
C	-0.39081	3.73856	0.421779
H	1.23619	2.46044	0.803682
H	0.242615	4.54652	0.849826
H	-1.32716	3.67223	1.02186
H	-0.667268	4.0239	-0.619053
C	1314.04	0.992543	-1.53931
C	1314.95	-0.0535734	-1.02928
O	1314.61	-1.22861	-0.996195
H	1313.08	0.523457	-1.84492
H	1314.49	1.49755	-2.42005
H	1313.84	1.74332	-0.746766
N	1316.15	0.359774	-0.608237
C	1317.15	-0.539128	-0.0857825
C	1318.12	0.274997	0.749571
O	1318.13	1.50275	0.683488
H	1316.4	1.32352	-0.613185
H	1316.67	-1.2543	0.570389
C	1317.9	-1.2621	-1.22265
H	1318.4	-0.525426	-1.89427
H	1318.67	-1.95515	-0.823877
H	1317.18	-1.85391	-1.82784
N	1318.95	-0.393986	1.57606
C	1319.89	0.297528	2.41822
H	1318.92	-1.38721	1.62048
H	1320.48	-0.426174	3.02254
H	1319.37	0.989692	3.11531
H	1320.6	0.899016	1.80237
