44
  This energy is 3.71834e-320 and Call times are: 93939
C	2.28568	-2.00669	-1.69557
C	0.968741	-1.78861	-1.0558
O	0.0820126	-2.62795	-1.13144
H	2.28554	-2.99237	-2.20967
H	3.08896	-2.00133	-0.929059
H	2.48415	-1.21094	-2.44413
N	0.809247	-0.633416	-0.405841
C	-0.41454	-0.277541	0.266861
C	-0.437647	1.23031	0.425242
O	0.579592	1.89699	0.244697
H	1.52927	0.0547848	-0.376084
H	-1.25345	-0.5555	-0.358469
C	-0.514658	-0.958616	1.65006
H	0.347867	-0.671806	2.28873
H	-1.45586	-0.686872	2.17071
H	-0.495493	-2.06269	1.52041
N	-1.61223	1.80709	0.747236
C	-1.73283	3.23746	0.907524
H	-2.42579	1.25108	0.88214
H	-2.77606	3.51675	1.17379
H	-1.45928	3.76298	-0.0360033
H	-1.0557	3.60108	1.71403
C	4446.7	-2.57902	0.804814
C	4447.03	-1.32496	0.090588
O	4446.27	-0.850205	-0.738861
H	4445.72	-2.95496	0.451873
H	4446.65	-2.39301	1.89796
H	4447.48	-3.34983	0.601229
N	4448.2	-0.755941	0.399013
C	4448.66	0.466425	-0.210818
C	4450.16	0.534439	-0.0422344
O	4450.74	-0.216621	0.740025
H	4448.83	-1.168	1.05521
H	4448.45	0.430975	-1.27211
C	4448	1.70209	0.43723
H	4448.21	1.73496	1.52608
H	4448.35	2.64502	-0.0300678
H	4446.89	1.63971	0.307976
N	4450.84	1.42777	-0.793551
C	4452.27	1.5557	-0.70946
H	4450.35	2.02174	-1.426
H	4452.64	2.34456	-1.4031
H	4452.77	0.595141	-0.97808
H	4452.58	1.82719	0.325457
