44
  This energy is 1.12617e-319 and Call times are: 29049
C	-2.44736	2.4718	0.163583
C	-1.94664	1.16599	-0.321529
O	-2.66998	0.404645	-0.948924
H	-3.51279	2.58915	-0.131285
H	-1.85722	3.29843	-0.285019
H	-2.37298	2.5232	1.27028
N	-0.677079	0.872591	-0.0308324
C	-0.0473519	-0.359192	-0.434541
C	1.14879	-0.588786	0.468654
O	1.58084	0.315067	1.18155
H	-0.106693	1.48849	0.506065
H	-0.73986	-1.17639	-0.277386
C	0.404821	-0.302274	-1.91083
H	1.11464	0.537593	-2.06863
H	0.889986	-1.2492	-2.22502
H	-0.480256	-0.13253	-2.56196
N	1.70045	-1.81827	0.474966
C	2.83478	-2.13323	1.31179
H	1.3319	-2.53833	-0.103762
H	3.14293	-3.19308	1.17393
H	2.58543	-1.97769	2.38644
H	3.70188	-1.48038	1.06057
C	1386.37	-0.0164287	0.859306
C	1385.29	-0.0457295	-0.14427
O	1385.53	0.0260753	-1.34132
H	1387.35	0.0820234	0.338823
H	1386.38	-0.956405	1.45029
H	1386.24	0.849085	1.54218
N	1384.04	-0.147804	0.331516
C	1382.88	-0.188821	-0.520032
C	1381.68	0.215241	0.311729
O	1381.75	0.260648	1.53839
H	1383.86	-0.176189	1.31009
H	1383	0.543912	-1.30858
C	1382.67	-1.59976	-1.11216
H	1382.55	-2.34905	-0.300465
H	1381.77	-1.63486	-1.76848
H	1383.56	-1.88448	-1.71817
N	1380.55	0.5409	-0.342634
C	1379.36	0.949196	0.36511
H	1380.51	0.504764	-1.33595
H	1378.53	1.17309	-0.347927
H	1379.55	1.86304	0.971189
H	1379.01	0.144423	1.0552
