44
  This energy is 1.55937e-319 and Call times are: 699
C	-0.839166	1.90966	-2.78839
C	-0.593408	1.76514	-1.33583
O	-0.567374	2.74096	-0.598537
H	-0.972694	2.98586	-3.03301
H	-1.75875	1.35866	-3.07749
H	0.0243677	1.51472	-3.36395
N	-0.398824	0.522558	-0.888074
C	-0.148424	0.221754	0.498881
C	0.523036	-1.13608	0.567271
O	0.535049	-1.88135	-0.410608
H	-0.393517	-0.261261	-1.50333
H	0.544421	0.951795	0.897728
C	-1.459	0.208149	1.317
H	-2.16772	-0.541406	0.904702
H	-1.26982	-0.0230008	2.38544
H	-1.94173	1.20796	1.25791
N	1.11972	-1.48074	1.72536
C	1.79423	-2.74856	1.87979
H	1.10527	-0.860853	2.50303
H	2.21861	-2.84611	2.90333
H	2.62628	-2.84298	1.14493
H	1.0873	-3.59298	1.71129
C	44.7517	-2.98049	0.41754
C	44.1794	-1.91582	-0.436955
O	44.4042	-1.88022	-1.63891
H	45.3694	-3.66106	-0.207872
H	43.9383	-3.56832	0.892615
H	45.3942	-2.53474	1.20588
N	43.4189	-1.00687	0.177663
C	42.7928	0.0883534	-0.518974
C	42.4723	1.16564	0.498873
O	42.512	0.923796	1.70377
H	43.267	-1.03007	1.16221
H	43.4982	0.50424	-1.22708
C	41.5018	-0.365718	-1.23624
H	40.7806	-0.792451	-0.506963
H	41.0173	0.475117	-1.77379
H	41.7499	-1.15568	-1.97825
N	42.1667	2.39325	0.0345812
C	41.8592	3.48458	0.929354
H	42.1469	2.57084	-0.943837
H	41.6328	4.41083	0.356599
H	42.7197	3.69236	1.60583
H	40.9752	3.2379	1.56096
