44
  This energy is 7.06464e-320 and Call times are: 95367
C	-1.23473	-2.5875	1.97647
C	-0.695861	-2.06865	0.699116
O	-0.417535	-2.82294	-0.222881
H	-1.31404	-3.69486	1.91883
H	-2.24361	-2.16437	2.16607
H	-0.558009	-2.31878	2.81479
N	-0.529297	-0.746441	0.619252
C	-0.0150986	-0.0930917	-0.557847
C	0.521754	1.26247	-0.141335
O	0.250526	1.73425	0.96125
H	-0.732362	-0.145402	1.38766
H	0.814378	-0.670108	-0.946555
C	-1.11297	0.0773265	-1.63151
H	-1.96266	0.669158	-1.22916
H	-0.720411	0.579933	-2.53929
H	-1.4988	-0.922585	-1.92724
N	1.31874	1.91341	-1.01144
C	1.88579	3.20401	-0.696821
H	1.53229	1.51176	-1.89592
H	2.50999	3.57524	-1.53932
H	2.52634	3.14058	0.212523
H	1.08144	3.94962	-0.501204
C	4515.37	-2.4827	1.90451
C	4516.56	-1.88007	1.2668
O	4517.68	-2.32664	1.47116
H	4515.69	-3.3336	2.54581
H	4514.67	-2.85865	1.12884
H	4514.85	-1.73033	2.53587
N	4516.34	-0.830663	0.47129
C	4517.4	-0.138185	-0.21928
C	4516.9	1.24598	-0.577555
O	4515.7	1.51586	-0.50749
H	4515.43	-0.458159	0.335832
H	4518.24	-0.0180845	0.453671
C	4517.83	-0.894882	-1.4967
H	4516.97	-1.01691	-2.18451
H	4518.65	-0.364501	-2.0308
H	4518.2	-1.90758	-1.22085
N	4517.81	2.1663	-0.951149
C	4517.42	3.51384	-1.29907
H	4518.77	1.93047	-0.994728
H	4518.31	4.11809	-1.58017
H	4516.92	4.01211	-0.439802
H	4516.72	3.51012	-2.15988
