44
  This energy is 1.21634e-319 and Call times are: 122877
C	1.74051	-0.141324	-3.01277
C	1.06034	-0.792707	-1.87072
O	0.863756	-2.00004	-1.85655
H	1.99761	-0.909682	-3.77394
H	2.67443	0.352347	-2.67085
H	1.07178	0.614194	-3.47638
N	0.675097	0.0083866	-0.87463
C	0.00216894	-0.477478	0.303476
C	-0.72843	0.690137	0.937621
O	-0.48338	1.8455	0.595689
H	0.814997	0.994301	-0.911178
H	-0.739729	-1.2087	0.00855585
C	1.00187	-1.08879	1.31046
H	1.76193	-0.336134	1.61036
H	0.487042	-1.46403	2.21872
H	1.53134	-1.94219	0.833491
N	-1.66414	0.411878	1.86661
C	-2.41893	1.45826	2.51589
H	-1.85294	-0.529965	2.12452
H	-3.13711	1.02843	3.2485
H	-2.99392	2.05023	1.76743
H	-1.73916	2.15458	3.05832
C	5818.48	-1.5359	-3.04031
C	5819.18	-0.516143	-2.23285
O	5820.05	0.194187	-2.72703
H	5818.87	-1.51831	-4.07998
H	5817.39	-1.31813	-3.06413
H	5818.64	-2.54636	-2.61062
N	5818.83	-0.425342	-0.949234
C	5819.42	0.518213	-0.037782
C	5819.19	0.0144606	1.37322
O	5818.38	-0.882773	1.59413
H	5818.14	-1.02953	-0.551385
H	5820.49	0.541983	-0.205798
C	5818.81	1.92708	-0.206892
H	5817.72	1.8989	-0.0344884
H	5819.27	2.65614	0.493314
H	5818.99	2.28426	-1.24483
N	5819.92	0.569283	2.36332
C	5819.77	0.145313	3.73633
H	5820.57	1.28915	2.16328
H	5820.45	0.721293	4.40025
H	5820.01	-0.937365	3.84091
H	5818.73	0.30159	4.08704
