44
  This energy is 1.37933e-319 and Call times are: 47739
C	-0.788655	-3.31096	-0.735985
C	0.0823266	-2.12096	-0.864338
O	1.15922	-2.18453	-1.44119
H	-0.295589	-4.18107	-1.22144
H	-1.76389	-3.12675	-1.23379
H	-0.959628	-3.5465	0.335573
N	-0.371072	-0.992139	-0.314275
C	0.362274	0.2477	-0.357057
C	-0.154389	1.13339	0.760017
O	-1.20267	0.862874	1.34291
H	-1.2367	-0.960157	0.178279
H	1.40735	0.0453408	-0.159749
C	0.190503	0.956107	-1.71932
H	-0.882851	1.16159	-1.91883
H	0.753998	1.91105	-1.75575
H	0.571557	0.296608	-2.52926
N	0.586069	2.20678	1.09994
C	0.17954	3.10036	2.15939
H	1.43503	2.40474	0.621084
H	0.918541	3.92199	2.28607
H	0.0961442	2.55193	3.12557
H	-0.812819	3.55311	1.93261
C	2269.09	1.22061	-1.69347
C	2267.65	0.859354	-1.63827
O	2266.9	1.12445	-2.56349
H	2269.3	1.73649	-2.65511
H	2269.71	0.306727	-1.62996
H	2269.34	1.90296	-0.855581
N	2267.24	0.240781	-0.529782
C	2265.87	-0.173412	-0.328944
C	2265.65	-0.342953	1.16157
O	2266.61	-0.381587	1.93793
H	2267.86	0.0564395	0.229216
H	2265.21	0.612967	-0.672044
C	2265.57	-1.49855	-1.06461
H	2266.25	-2.30291	-0.710683
H	2264.52	-1.82029	-0.912206
H	2265.74	-1.36147	-2.15527
N	2264.38	-0.426617	1.59938
C	2264.07	-0.57721	3.00252
H	2263.62	-0.386136	0.956119
H	2262.97	-0.629249	3.16051
H	2264.47	0.284189	3.58659
H	2264.53	-1.50915	3.40733
