44
  This energy is 1.30834e-319 and Call times are: 110739
C	2.59507	1.87337	1.37194
C	1.82741	0.61471	1.23895
O	2.21001	-0.418686	1.77018
H	3.50113	1.68754	1.9887
H	1.97505	2.64895	1.86879
H	2.90991	2.23735	0.371274
N	0.711238	0.675192	0.508979
C	-0.141432	-0.465539	0.288717
C	-0.972728	-0.193592	-0.949923
O	-1.03939	0.937997	-1.42626
H	0.425581	1.51615	0.0571783
H	0.475345	-1.33217	0.0871856
C	-1.0635	-0.721164	1.5018
H	-1.69434	0.170131	1.70614
H	-1.7213	-1.59892	1.33561
H	-0.44252	-0.917857	2.40282
N	-1.61182	-1.23665	-1.51524
C	-2.41687	-1.07558	-2.70357
H	-1.53967	-2.14601	-1.11889
H	-2.86054	-2.0476	-3.01273
H	-1.8	-0.687998	-3.54647
H	-3.24577	-0.353692	-2.52193
C	5242.74	-1.09906	-0.97577
C	5244.11	-0.637613	-1.28766
O	5244.54	-0.656547	-2.43329
H	5242.25	-1.43634	-1.91187
H	5242.15	-0.269568	-0.534527
H	5242.78	-1.94845	-0.261448
N	5244.85	-0.211453	-0.255285
C	5246.2	0.268085	-0.399796
C	5246.88	0.165815	0.952737
O	5246.22	-0.0244622	1.97327
H	5244.5	-0.228258	0.677418
H	5246.73	-0.38029	-1.08427
C	5246.22	1.73007	-0.898742
H	5245.68	2.39235	-0.194551
H	5247.26	2.10243	-1.01126
H	5245.72	1.79176	-1.88961
N	5248.22	0.268836	0.98819
C	5248.95	0.172006	2.22909
H	5248.73	0.415571	0.150591
H	5250.04	0.283622	2.05055
H	5248.77	-0.815474	2.71373
H	5248.63	0.967703	2.93909
