44
  This energy is 1.33635e-319 and Call times are: 66051
C	-1.28926	-2.36548	2.20646
C	-0.183979	-1.51558	1.70924
O	0.874902	-1.43561	2.31658
H	-0.978105	-2.85498	3.15484
H	-1.53366	-3.15051	1.46025
H	-2.19064	-1.7467	2.40027
N	-0.413428	-0.846933	0.576702
C	0.564559	0.0194965	-0.0313026
C	-0.168864	0.978535	-0.948676
O	-1.33938	0.77457	-1.2651
H	-1.29068	-0.897687	0.106816
H	1.04423	0.605975	0.742022
C	1.61015	-0.787594	-0.832844
H	1.11456	-1.38859	-1.62488
H	2.3648	-0.123538	-1.30221
H	2.13959	-1.48713	-0.149841
N	0.500736	2.06498	-1.38144
C	-0.119842	3.03938	-2.24839
H	1.44514	2.21602	-1.10845
H	0.592847	3.85712	-2.4946
H	-1.01338	3.48908	-1.75788
H	-0.450934	2.56433	-3.20017
C	3130.44	0.549938	2.50486
C	3131.24	1.00885	1.34709
O	3131.05	2.10471	0.839017
H	3129.7	1.33498	2.77457
H	3131.11	0.364162	3.37729
H	3129.9	-0.383417	2.24841
N	3132.17	0.16241	0.894791
C	3133.03	0.466507	-0.223353
C	3133.56	-0.843299	-0.775369
O	3133.45	-1.88583	-0.132662
H	3132.3	-0.739356	1.29891
H	3132.44	0.937198	-1.00022
C	3134.2	1.377	0.199295
H	3134.81	0.891338	0.996845
H	3134.87	1.61324	-0.659308
H	3133.8	2.33257	0.602955
N	3134.13	-0.822848	-1.99696
C	3134.65	-2.02348	-2.60841
H	3134.2	0.0295701	-2.50428
H	3135.07	-1.80058	-3.61045
H	3133.84	-2.78222	-2.73281
H	3135.45	-2.47114	-1.97637
