44
  This energy is 9.91639e-320 and Call times are: 4605
C	0.55602	-2.3454	-2.51317
C	-0.0451498	-1.93736	-1.22349
O	-0.840689	-2.6603	-0.639566
H	0.160351	-3.34289	-2.80357
H	1.66021	-2.41097	-2.41683
H	0.297328	-1.61161	-3.30537
N	0.324796	-0.746254	-0.747271
C	-0.17345	-0.21208	0.494999
C	0.0188358	1.29172	0.465973
O	0.741654	1.81682	-0.378799
H	0.951351	-0.153886	-1.24674
H	-1.23645	-0.406571	0.560467
C	0.568845	-0.819306	1.70636
H	1.65916	-0.618492	1.63563
H	0.187575	-0.410285	2.66454
H	0.421187	-1.92124	1.7156
N	-0.645644	2.02465	1.38101
C	-0.533308	3.46404	1.42249
H	-1.23138	1.58169	2.05178
H	-1.15297	3.88328	2.24559
H	-0.876298	3.91271	0.462129
H	0.524655	3.7711	1.58863
C	228.111	-0.0199163	-3.36101
C	227.774	0.69252	-2.10787
O	227.893	1.90684	-2.01919
H	228.463	0.714308	-4.11752
H	227.214	-0.541448	-3.75723
H	228.917	-0.760521	-3.17565
N	227.345	-0.0621526	-1.09356
C	226.979	0.485746	0.18813
C	227.053	-0.6314	1.21073
O	227.133	-1.80551	0.854392
H	227.281	-1.05366	-1.16894
H	227.705	1.23797	0.469476
C	225.555	1.08471	0.158012
H	224.813	0.31048	-0.131621
H	225.27	1.50761	1.14328
H	225.514	1.90102	-0.595691
N	227.051	-0.287341	2.51366
C	227.131	-1.28196	3.55798
H	226.993	0.668717	2.78172
H	227.113	-0.801332	4.56094
H	228.072	-1.87153	3.4682
H	226.272	-1.98944	3.49313
