44
  This energy is 1.6023e-319 and Call times are: 867
C	0.727591	2.94903	-1.70292
C	0.892271	2.03879	-0.547265
O	1.73208	2.2569	0.315079
H	1.46225	3.77963	-1.62384
H	-0.297514	3.37555	-1.71093
H	0.906588	2.39997	-2.6513
N	0.0833108	0.977452	-0.50838
C	0.123466	0.00248787	0.552121
C	-0.511781	-1.2739	0.0358569
O	-1.16899	-1.27325	-1.00333
H	-0.576961	0.795119	-1.23207
H	1.15672	-0.216955	0.789397
C	-0.630601	0.502332	1.80458
H	-1.69008	0.727138	1.55742
H	-0.601524	-0.245901	2.62316
H	-0.156339	1.4383	2.17225
N	-0.310445	-2.40293	0.743506
C	-0.866284	-3.66783	0.322505
H	0.230356	-2.38425	1.57802
H	-0.590937	-4.47538	1.03615
H	-0.486343	-3.94748	-0.686794
H	-1.97763	-3.61063	0.269403
C	53.7736	2.06061	-0.432793
C	52.4454	1.77192	0.153468
O	51.9527	2.50821	0.997082
H	54.1811	2.99007	0.0209147
H	53.6841	2.20561	-1.52997
H	54.4732	1.22335	-0.226715
N	51.8303	0.671039	-0.284842
C	50.534	0.258129	0.190519
C	50.3836	-1.22362	-0.0941573
O	51.1589	-1.79932	-0.855317
H	52.2548	0.0636671	-0.951022
H	50.4936	0.392597	1.264
C	49.4024	1.04974	-0.502324
H	49.4472	0.910076	-1.60351
H	48.4029	0.734411	-0.138515
H	49.5246	2.13366	-0.287084
N	49.3888	-1.88265	0.532008
C	49.1762	-3.29717	0.331711
H	48.7764	-1.40048	1.14976
H	48.31	-3.65346	0.931633
H	50.0769	-3.87706	0.637982
H	48.9732	-3.51603	-0.741635
