44
  This energy is 4.13533e-321 and Call times are: 105531
C	-2.673	-1.12888	1.92531
C	-1.22241	-1.00538	1.65748
O	-0.393927	-1.3873	2.47249
H	-2.82386	-1.58904	2.92599
H	-3.15024	-1.77369	1.15766
H	-3.15096	-0.12669	1.91483
N	-0.87961	-0.45391	0.490973
C	0.491227	-0.266598	0.0878008
C	0.520043	0.810362	-0.979235
O	-0.515945	1.17617	-1.53128
H	-1.56383	-0.120143	-0.151971
H	1.06093	0.0941867	0.934767
C	1.09968	-1.57591	-0.462291
H	0.512398	-1.94357	-1.33065
H	2.15521	-1.43528	-0.773521
H	1.07161	-2.35704	0.328403
N	1.71279	1.36091	-1.27965
C	1.83585	2.40132	-2.27392
H	2.53871	1.05629	-0.816732
H	2.8958	2.72201	-2.37842
H	1.22714	3.29017	-1.9899
H	1.47898	2.04118	-3.26595
C	4998.8	2.6401	-2.08413
C	4997.79	1.82883	-1.37643
O	4996.61	2.1646	-1.35696
H	4998.31	3.52875	-2.53765
H	4999.28	2.04122	-2.88979
H	4999.58	2.98404	-1.37189
N	4998.23	0.727416	-0.76469
C	4997.36	-0.163064	-0.0358356
C	4998.22	-0.963931	0.925913
O	4999.44	-0.981272	0.812799
H	4999.19	0.480158	-0.763256
H	4996.67	0.424515	0.552208
C	4996.6	-1.11314	-0.988492
H	4997.31	-1.7139	-1.59068
H	4995.93	-1.80008	-0.430577
H	4995.98	-0.514267	-1.68857
N	4997.59	-1.63191	1.91383
C	4998.32	-2.41144	2.88351
H	4996.6	-1.59962	1.99282
H	4997.63	-2.88561	3.61265
H	4999.04	-1.76735	3.44648
H	4998.91	-3.21598	2.3805
