44
  This energy is 1.01728e-320 and Call times are: 61179
C	-2.65527	1.74394	1.4263
C	-1.90471	1.24974	0.250021
O	-2.34739	1.37953	-0.882978
H	-3.60955	2.2023	1.08702
H	-2.06004	2.51069	1.9654
H	-2.88499	0.903483	2.11464
N	-0.734756	0.656955	0.499346
C	0.109582	0.125607	-0.540649
C	1.03884	-0.893818	0.0890186
O	1.1643	-0.960057	1.31037
H	-0.398631	0.531307	1.42895
H	-0.506908	-0.393556	-1.26348
C	0.930439	1.24198	-1.22404
H	1.56122	1.77294	-0.479513
H	1.58157	0.836339	-2.02546
H	0.238269	1.98284	-1.6803
N	1.69873	-1.73118	-0.73522
C	2.59577	-2.74199	-0.225552
H	1.57835	-1.66642	-1.72038
H	3.04257	-3.32764	-1.059
H	2.0533	-3.44611	0.446145
H	3.42238	-2.27582	0.358051
C	2898.68	-0.214127	-2.75445
C	2900.03	-0.142562	-2.15442
O	2901.04	-0.285851	-2.83826
H	2898.77	-0.412718	-3.84437
H	2898.15	0.747865	-2.60844
H	2898.1	-1.03556	-2.28751
N	2900.09	0.0788035	-0.83894
C	2901.33	0.174607	-0.112495
C	2901.03	-0.0957371	1.35021
O	2899.88	-0.0927395	1.76984
H	2899.26	0.164818	-0.287923
H	2902	-0.59892	-0.461145
C	2901.97	1.57071	-0.276165
H	2901.27	2.3619	0.0818488
H	2902.92	1.64788	0.281799
H	2902.18	1.75709	-1.35202
N	2902.08	-0.358798	2.15981
C	2901.89	-0.639655	3.56453
H	2903	-0.363619	1.79977
H	2902.87	-0.828451	4.05965
H	2901.25	-1.53876	3.70423
H	2901.4	0.219322	4.07578
