44
  This energy is 8.19507e-320 and Call times are: 63909
C	-3.01732	0.649863	-1.61233
C	-1.98458	0.974842	-0.602851
O	-2.03127	2.01633	0.0371693
H	-3.7589	1.47677	-1.65843
H	-3.54207	-0.288342	-1.33444
H	-2.55049	0.529572	-2.61261
N	-1.01015	0.0766935	-0.441034
C	0.0648214	0.251155	0.502799
C	1.21405	-0.638162	0.0696532
O	1.04463	-1.51957	-0.770732
H	-0.967265	-0.754364	-0.989159
H	0.408223	1.27695	0.459317
C	-0.379999	-0.115951	1.93615
H	-0.732297	-1.16873	1.97698
H	0.445283	0.0173864	2.66547
H	-1.22298	0.541707	2.24114
N	2.42237	-0.411264	0.621456
C	3.57761	-1.19993	0.261422
H	2.54071	0.311419	1.29448
H	4.47559	-0.861522	0.823882
H	3.79155	-1.10867	-0.828139
H	3.40545	-2.27653	0.49047
C	3028.19	-0.560918	-2.23045
C	3029.1	-1.01074	-1.15587
O	3028.95	-2.09517	-0.610212
H	3027.41	-1.3405	-2.40583
H	3028.75	-0.398771	-3.17133
H	3027.68	0.383808	-1.93484
N	3030.08	-0.169187	-0.820081
C	3031.05	-0.465664	0.206262
C	3031.65	0.846166	0.675139
O	3031.48	1.87901	0.0286824
H	3030.17	0.723813	-1.25192
H	3030.54	-0.915238	1.04969
C	3032.16	-1.39874	-0.321856
H	3032.68	-0.934718	-1.18747
H	3032.91	-1.62918	0.465911
H	3031.71	-2.3556	-0.663285
N	3032.34	0.838859	1.82971
C	3032.94	2.04265	2.36049
H	3032.46	-0.00572615	2.34198
H	3033.47	1.83109	3.31536
H	3032.16	2.81405	2.55581
H	3033.67	2.46883	1.63902
