44
  This energy is 1.01303e-319 and Call times are: 22791
C	3.02322	-1.51812	0.825599
C	1.68969	-0.989462	1.19089
O	1.23211	-1.1487	2.31417
H	3.46375	-2.04098	1.70219
H	3.69598	-0.686534	0.527801
H	2.93248	-2.23864	-0.014373
N	1.02472	-0.342889	0.23062
C	-0.282856	0.227921	0.433742
C	-0.932385	0.400006	-0.925573
O	-0.266845	0.313143	-1.95579
H	1.39584	-0.245066	-0.688963
H	-0.886737	-0.468935	1.00101
C	-0.195674	1.59032	1.15719
H	0.425092	2.30256	0.572832
H	-1.20075	2.03258	1.31534
H	0.282955	1.45088	2.15098
N	-2.26013	0.62791	-0.959573
C	-2.96676	0.792835	-2.20843
H	-2.78239	0.687679	-0.115233
H	-4.04926	0.973099	-2.02692
H	-2.86448	-0.118529	-2.84104
H	-2.55825	1.65748	-2.77999
C	1083.06	-1.33219	-1.50895
C	1084.38	-1.48425	-0.859092
O	1084.82	-2.58845	-0.566023
H	1082.6	-2.33538	-1.64875
H	1083.17	-0.848312	-2.50161
H	1082.39	-0.716206	-0.873477
N	1085.05	-0.357636	-0.610925
C	1086.35	-0.343406	0.0156924
C	1086.57	1.03752	0.602507
O	1085.84	1.97676	0.288339
H	1084.67	0.537641	-0.827995
H	1086.35	-1.05272	0.833578
C	1087.47	-0.673028	-0.998476
H	1087.46	0.0561892	-1.83652
H	1088.47	-0.663078	-0.519276
H	1087.29	-1.68648	-1.42195
N	1087.57	1.18756	1.4908
C	1087.85	2.46272	2.11051
H	1088.14	0.413716	1.73745
H	1088.71	2.38236	2.80858
H	1086.96	2.81946	2.68599
H	1088.09	3.22986	1.34
