44
  This energy is 1.04989e-320 and Call times are: 92847
C	-0.590725	-3.01482	1.63953
C	-0.52444	-1.53619	1.61784
O	-0.907733	-0.871778	2.5708
H	-1.0258	-3.34881	2.6065
H	0.427641	-3.44498	1.53603
H	-1.23251	-3.38149	0.810917
N	-0.0332063	-0.980842	0.507592
C	0.0944176	0.444455	0.337094
C	0.173087	0.730611	-1.1499
O	0.378277	-0.176189	-1.95454
H	0.248642	-1.53185	-0.273364
H	-0.797489	0.92564	0.717931
C	1.35399	0.985645	1.04962
H	2.26705	0.489389	0.656976
H	1.45525	2.08285	0.920489
H	1.28468	0.768716	2.13787
N	-0.0112134	2.0035	-1.55212
C	0.034152	2.36871	-2.94881
H	-0.183172	2.72195	-0.886164
H	-0.138716	3.46016	-3.0757
H	-0.747304	1.82093	-3.52371
H	1.02631	2.11728	-3.38881
C	4395.01	-1.29162	-2.62376
C	4395.63	-0.157923	-1.89833
O	4395.61	0.972977	-2.3646
H	4394.59	-0.926328	-3.58468
H	4394.19	-1.73533	-2.01691
H	4395.77	-2.06847	-2.83947
N	4396.19	-0.443303	-0.723739
C	4396.83	0.552962	0.0982873
C	4397.78	-0.160098	1.03997
O	4397.72	-1.37883	1.19098
H	4396.22	-1.37375	-0.368257
H	4397.42	1.20474	-0.533531
C	4395.79	1.36596	0.90527
H	4395.19	0.69414	1.55183
H	4396.28	2.13409	1.53921
H	4395.1	1.88248	0.204108
N	4398.7	0.585886	1.68194
C	4399.66	-0.00762635	2.58889
H	4398.74	1.56971	1.54095
H	4400.33	0.769333	3.01776
H	4400.29	-0.760221	2.06022
H	4399.14	-0.522116	3.42782
