44
  This energy is 6.44854e-320 and Call times are: 38961
C	-0.732027	-2.66112	2.12337
C	-0.542452	-1.21588	1.86539
O	-0.803104	-0.38112	2.7208
H	-1.12771	-2.80166	3.15272
H	0.236991	-3.19588	2.03477
H	-1.45687	-3.0876	1.39835
N	-0.0818483	-0.884652	0.656882
C	0.154175	0.4797	0.257303
C	0.156486	0.527558	-1.25826
O	0.229552	-0.506359	-1.91971
H	0.0991337	-1.57212	-0.0413804
H	-0.666136	1.09497	0.604583
C	1.50014	1.00211	0.807386
H	2.3394	0.368218	0.449707
H	1.68496	2.05243	0.501714
H	1.48614	0.9608	1.91835
N	0.0539146	1.73604	-1.84566
C	0.0358863	1.87855	-3.28287
H	-0.0113937	2.56042	-1.29305
H	-0.0521377	2.94934	-3.57079
H	-0.826053	1.32563	-3.72171
H	0.971319	1.4709	-3.73004
C	1846.95	-2.86263	0.337264
C	1847.09	-1.39737	0.186912
O	1846.12	-0.679077	0.0070737
H	1845.87	-3.13457	0.252109
H	1847.32	-3.18465	1.3317
H	1847.51	-3.38813	-0.459132
N	1848.34	-0.916349	0.25278
C	1848.64	0.486701	0.124868
C	1850.1	0.614054	-0.271374
O	1850.86	-0.347222	-0.183307
H	1849.12	-1.51505	0.370523
H	1848.04	0.903894	-0.676641
C	1848.38	1.24102	1.44819
H	1848.99	0.810008	2.26841
H	1848.61	2.32166	1.35318
H	1847.31	1.13908	1.72811
N	1850.52	1.80605	-0.740433
C	1851.88	2.01769	-1.15311
H	1849.88	2.56974	-0.810857
H	1852.03	3.06217	-1.50622
H	1852.16	1.32568	-1.98293
H	1852.58	1.83212	-0.305955
