44
  This energy is 3.06864e-320 and Call times are: 8049
C	-2.46064	-2.34745	0.748876
C	-1.86474	-1.32491	-0.140229
O	-2.3077	-1.12762	-1.26333
H	-3.30333	-2.84591	0.2223
H	-2.84673	-1.87131	1.67464
H	-1.7011	-3.11211	1.01596
N	-0.825359	-0.645642	0.350329
C	-0.14038	0.380415	-0.394544
C	1.23881	0.553856	0.21126
O	1.50838	0.0705849	1.30926
H	-0.455415	-0.835841	1.25581
H	-0.0112452	0.0466462	-1.41631
C	-0.912256	1.71808	-0.350007
H	-1.04352	2.05721	0.699695
H	-0.387677	2.51031	-0.922693
H	-1.92115	1.57739	-0.795518
N	2.15535	1.23379	-0.505425
C	3.49816	1.43879	-0.0144827
H	1.91993	1.61105	-1.39508
H	4.09978	2.02152	-0.746412
H	4.00644	0.462626	0.158736
H	3.48323	1.9962	0.95001
C	385.349	0.0774812	-2.47202
C	385.767	0.107694	-1.05242
O	384.963	0.340504	-0.160713
H	384.261	0.296893	-2.53909
H	385.54	-0.926409	-2.90601
H	385.906	0.842979	-3.05183
N	387.059	-0.125523	-0.809866
C	387.616	-0.13002	0.519087
C	389.111	0.0967799	0.398299
O	389.676	-0.00506395	-0.688795
H	387.71	-0.285117	-1.54716
H	387.202	0.699773	1.07734
C	387.339	-1.46748	1.24102
H	387.765	-2.31664	0.665263
H	387.766	-1.47429	2.26464
H	386.241	-1.62243	1.32209
N	389.784	0.433003	1.516
C	391.207	0.679898	1.49523
H	389.308	0.517411	2.38481
H	391.576	0.940763	2.51171
H	391.45	1.5222	0.807547
H	391.758	-0.222552	1.14339
