44
  This energy is 2.71143e-320 and Call times are: 49587
C	-2.57314	-1.32323	1.93756
C	-1.93052	-0.200026	1.21877
O	-2.50112	0.873582	1.08362
H	-3.58223	-1.00919	2.28249
H	-1.96468	-1.61029	2.82084
H	-2.68027	-2.19842	1.26264
N	-0.709972	-0.430137	0.729195
C	0.0426886	0.564108	0.00683304
C	1.08909	-0.154995	-0.822123
O	1.35111	-1.33828	-0.614716
H	-0.267641	-1.31835	0.820625
H	-0.620401	1.07997	-0.676006
C	0.722152	1.56404	0.968902
H	1.40116	1.03138	1.66842
H	1.30242	2.33108	0.415986
H	-0.0548752	2.08334	1.57116
N	1.69888	0.542413	-1.80079
C	2.69968	-0.0623413	-2.64864
H	1.46787	1.49702	-1.95758
H	3.08335	0.672787	-3.39001
H	2.27296	-0.929258	-3.20327
H	3.5589	-0.429671	-2.04202
C	2350.4	3.06657	1.31434
C	2351.17	2.25424	0.341252
O	2351.76	2.77713	-0.594945
H	2350.47	4.1393	1.03052
H	2350.82	2.93755	2.33401
H	2349.34	2.76093	1.31325
N	2351.17	0.934442	0.542474
C	2351.87	0.0135745	-0.318303
C	2351.25	-1.35914	-0.129511
O	2350.5	-1.58732	0.819045
H	2350.66	0.517963	1.29206
H	2351.71	0.306123	-1.3486
C	2353.38	-0.0309896	0.0118852
H	2353.53	-0.330798	1.06977
H	2353.92	-0.738971	-0.649154
H	2353.82	0.980697	-0.129138
N	2351.54	-2.30396	-1.04696
C	2350.99	-3.63639	-0.955947
H	2352.14	-2.09769	-1.8113
H	2351.34	-4.26645	-1.8016
H	2349.87	-3.60463	-0.984317
H	2351.29	-4.12421	-0.00264908
