44
  This energy is 1.5406e-319 and Call times are: 98811
C	1.65186	2.97548	-0.737546
C	1.29744	1.87938	0.19205
O	1.82719	1.78562	1.29072
H	2.42724	3.61902	-0.267963
H	0.756799	3.5943	-0.958348
H	2.05564	2.55899	-1.68435
N	0.381633	1.00893	-0.239203
C	-0.0666462	-0.109754	0.550999
C	-0.666932	-1.13497	-0.391245
O	-0.93738	-0.838218	-1.55341
H	-0.0212867	1.0794	-1.14784
H	0.789161	-0.566294	1.03187
C	-1.11456	0.326069	1.59936
H	-1.99083	0.794608	1.10264
H	-1.46177	-0.532859	2.20966
H	-0.662893	1.07789	2.28266
N	-0.869687	-2.37898	0.0855425
C	-1.42569	-3.42408	-0.742002
H	-0.637669	-2.60133	1.0268
H	-1.51658	-4.37302	-0.168867
H	-0.776695	-3.61063	-1.62814
H	-2.43778	-3.13795	-1.1094
C	4683.58	1.05746	-1.9583
C	4683.03	0.47184	-0.716366
O	4683.76	0.00393513	0.14357
H	4684.69	0.978648	-1.93951
H	4683.3	2.12838	-2.03527
H	4683.19	0.509359	-2.84422
N	4681.7	0.480506	-0.597612
C	4681.01	-0.0525743	0.55248
C	4679.58	-0.355658	0.144299
O	4679.12	0.0843629	-0.907662
H	4681.11	0.83821	-1.31814
H	4681.48	-0.987223	0.837861
C	4681.03	0.947592	1.73
H	4680.55	1.90552	1.43355
H	4680.5	0.540241	2.61727
H	4682.08	1.16226	2.0187
N	4678.85	-1.1377	0.962529
C	4677.48	-1.48942	0.650192
H	4679.24	-1.48988	1.80581
H	4677.05	-2.13666	1.44547
H	4677.43	-2.04029	-0.316776
H	4676.85	-0.57545	0.561545
