44
  This energy is 7.59725e-320 and Call times are: 39381
C	-1.37196	3.18045	0.358597
C	-0.572263	2.18469	-0.389829
O	-0.163192	2.42102	-1.51824
H	-1.50852	4.08814	-0.268552
H	-0.84808	3.46612	1.29495
H	-2.36992	2.7616	0.606778
N	-0.333878	1.02744	0.231718
C	0.428903	-0.0386834	-0.366924
C	0.0681575	-1.32715	0.346479
O	-0.545419	-1.30528	1.41179
H	-0.697274	0.835699	1.13952
H	0.134344	-0.143022	-1.40347
C	1.94726	0.223927	-0.254042
H	2.24587	0.331113	0.810599
H	2.53758	-0.594987	-0.714136
H	2.19839	1.17101	-0.779511
N	0.424415	-2.4871	-0.239709
C	0.112991	-3.76366	0.359948
H	0.914182	-2.48401	-1.10536
H	0.490285	-4.59755	-0.27213
H	-0.988279	-3.88401	0.478115
H	0.579726	-3.84874	1.36796
C	1871.11	-2.18915	-1.56077
C	1870.62	-1.46842	-0.364986
O	1871.08	-1.69936	0.745603
H	1871.9	-2.91273	-1.25567
H	1871.55	-1.47153	-2.28826
H	1870.28	-2.74487	-2.04203
N	1869.66	-0.56833	-0.570071
C	1869.08	0.212203	0.493648
C	1867.72	0.708654	0.0230336
O	1867.41	0.646325	-1.16402
H	1869.27	-0.410118	-1.47538
H	1868.91	-0.428408	1.35075
C	1869.98	1.40797	0.870398
H	1870.15	2.06271	-0.0113459
H	1869.54	2.01103	1.68927
H	1870.97	1.03107	1.21231
N	1866.88	1.19604	0.952815
C	1865.56	1.6804	0.599831
H	1867.15	1.23148	1.90935
H	1865.02	2.04134	1.50192
H	1864.96	0.870941	0.129166
H	1865.64	2.52273	-0.125624
