44
  This energy is 1.50883e-319 and Call times are: 98685
C	1.5632	-0.770216	3.01485
C	1.58757	-0.230454	1.63671
O	2.57792	0.337508	1.19725
H	2.53675	-0.56027	3.50879
H	1.40089	-1.86839	2.99279
H	0.751884	-0.288647	3.60035
N	0.475814	-0.394296	0.915934
C	0.34715	0.0758472	-0.440252
C	-1.13158	0.199658	-0.752126
O	-1.97403	-0.31191	-0.0170016
H	-0.334579	-0.832939	1.29513
H	0.78251	1.06442	-0.512745
C	1.0212	-0.89263	-1.43766
H	0.572616	-1.90598	-1.36014
H	0.924131	-0.53357	-2.48286
H	2.10366	-0.97557	-1.19779
N	-1.48296	0.905151	-1.8452
C	-2.86744	1.08655	-2.21464
H	-0.786675	1.3175	-2.42346
H	-2.95042	1.69334	-3.14317
H	-3.42528	1.60861	-1.40378
H	-3.35867	0.102741	-2.39354
C	4674.61	-3.01913	-1.71149
C	4674.59	-1.53958	-1.6699
O	4674.51	-0.878984	-2.69616
H	4674.55	-3.35771	-2.76849
H	4673.75	-3.42922	-1.15049
H	4675.56	-3.40208	-1.26711
N	4674.68	-0.979167	-0.461022
C	4674.67	0.447672	-0.258768
C	4675.29	0.729093	1.09738
O	4675.46	-0.176787	1.91152
H	4674.77	-1.52769	0.365258
H	4675.3	0.912476	-1.0086
C	4673.24	1.017	-0.317823
H	4672.59	0.537499	0.452278
H	4673.23	2.11546	-0.162627
H	4672.79	0.8033	-1.31565
N	4675.66	1.99633	1.36348
C	4676.27	2.35649	2.62367
H	4675.52	2.71398	0.688854
H	4676.5	3.44372	2.65128
H	4677.21	1.79075	2.77953
H	4675.58	2.12316	3.47076
