44
  This energy is 1.73466e-320 and Call times are: 7545
C	-2.21081	-1.18722	-2.41432
C	-1.87654	-0.293764	-1.28242
O	-2.64124	0.593582	-0.929791
H	-3.20018	-0.898048	-2.83072
H	-2.26077	-2.241	-2.06809
H	-1.44448	-1.09674	-3.21276
N	-0.703256	-0.509541	-0.683083
C	-0.23886	0.276536	0.431927
C	1.26785	0.126304	0.512474
O	1.84623	-0.756075	-0.118966
H	-0.0761219	-1.21685	-0.998294
H	-0.45567	1.31997	0.241379
C	-0.890189	-0.184204	1.75503
H	-0.666311	-1.25524	1.94706
H	-0.53493	0.41907	2.61563
H	-1.9938	-0.0703156	1.68275
N	1.94349	1.00449	1.27948
C	3.38101	0.946399	1.40731
H	1.45805	1.71585	1.77702
H	3.74864	1.75076	2.08192
H	3.86918	1.07193	0.41374
H	3.69898	-0.0355686	1.82661
C	364.202	-3.45367	0.191967
C	364.594	-2.12451	-0.327954
O	365.606	-1.98223	-1.00121
H	364.953	-4.2089	-0.125473
H	363.209	-3.74379	-0.210693
H	364.159	-3.43348	1.30134
N	363.791	-1.10475	-0.0159545
C	364.04	0.247146	-0.448537
C	363.282	1.17942	0.475822
O	362.415	0.746092	1.2323
H	362.986	-1.2286	0.557634
H	365.096	0.462687	-0.339296
C	363.587	0.462786	-1.90971
H	362.504	0.240134	-2.01831
H	363.778	1.50266	-2.24606
H	364.149	-0.226702	-2.57652
N	363.608	2.48659	0.450941
C	362.948	3.4468	1.30428
H	364.318	2.81659	-0.163119
H	363.355	4.46818	1.1354
H	363.094	3.18448	2.37721
H	361.853	3.46714	1.09947
