44
  This energy is 1.10903e-319 and Call times are: 52779
C	1.2135	-3.12755	-0.933795
C	0.962852	-2.07819	0.079722
O	1.17261	-2.28291	1.2674
H	1.58691	-4.0446	-0.428385
H	1.97756	-2.78188	-1.66149
H	0.273845	-3.37152	-1.47276
N	0.494846	-0.913706	-0.375596
C	0.202817	0.202622	0.487747
C	-0.761401	1.11684	-0.242813
O	-0.958843	0.986956	-1.44945
H	0.300498	-0.769039	-1.34215
H	-0.297835	-0.161122	1.37607
C	1.48732	0.975319	0.862051
H	1.99874	1.34647	-0.0516277
H	1.2661	1.83546	1.52688
H	2.1858	0.294369	1.39551
N	-1.40391	2.05446	0.481106
C	-2.34914	2.96192	-0.126547
H	-1.23588	2.13901	1.45776
H	-2.76924	3.65834	0.632241
H	-3.19153	2.39927	-0.590281
H	-1.85761	3.56615	-0.92309
C	2504.28	-0.872911	3.25549
C	2504.63	-0.439564	1.88465
O	2505.77	-0.112782	1.59899
H	2505.18	-0.832184	3.89799
H	2503.89	-1.91483	3.24064
H	2503.5	-0.200666	3.68247
N	2503.63	-0.422037	0.994145
C	2503.82	-0.024428	-0.378394
C	2502.47	0.374742	-0.935942
O	2501.43	0.0923753	-0.33599
H	2502.7	-0.662651	1.24641
H	2504.46	0.849158	-0.407859
C	2504.42	-1.1715	-1.21916
H	2503.77	-2.06631	-1.18617
H	2504.57	-0.868689	-2.2765
H	2505.41	-1.45543	-0.799851
N	2502.45	1.06433	-2.09355
C	2501.21	1.49703	-2.69391
H	2503.3	1.28939	-2.5602
H	2501.4	2.04666	-3.64159
H	2500.65	2.17231	-2.00384
H	2500.55	0.623102	-2.92166
