44
  This energy is 1.22805e-319 and Call times are: 103809
C	0.311856	-1.8221	-2.95107
C	-0.411155	-0.867302	-2.08112
O	-1.39476	-0.262856	-2.48567
H	-0.180853	-1.85717	-3.947
H	0.291222	-2.83821	-2.50397
H	1.36565	-1.49781	-3.08265
N	0.0734147	-0.704766	-0.847772
C	-0.521026	0.188663	0.114128
C	0.529911	0.516912	1.15673
O	1.56547	-0.141441	1.23438
H	0.892625	-1.18112	-0.539691
H	-0.790864	1.11182	-0.382913
C	-1.75592	-0.450641	0.78751
H	-1.47563	-1.3978	1.29588
H	-2.21618	0.234671	1.52865
H	-2.51776	-0.687433	0.0131184
N	0.29538	1.56335	1.97279
C	1.24434	1.95757	2.9878
H	-0.545416	2.0881	1.8895
H	0.86976	2.8375	3.55584
H	2.22226	2.22794	2.52757
H	1.4196	1.12475	3.70674
C	4919.37	0.308888	-2.53321
C	4918.95	0.449185	-1.12121
O	4919.75	0.761183	-0.250134
H	4920.46	0.520169	-2.61424
H	4918.82	1.02889	-3.17132
H	4919.18	-0.72494	-2.88947
N	4917.66	0.211662	-0.860415
C	4917.1	0.307854	0.46399
C	4915.82	-0.502908	0.4882
O	4915.3	-0.884222	-0.557501
H	4917.02	-0.0701682	-1.57404
H	4917.79	-0.141388	1.16992
C	4916.81	1.77607	0.845484
H	4916.1	2.23404	0.118834
H	4916.38	1.85378	1.86475
H	4917.75	2.35955	0.822885
N	4915.29	-0.804743	1.69158
C	4914.08	-1.58244	1.81327
H	4915.73	-0.493029	2.5265
H	4913.81	-1.72218	2.88278
H	4914.21	-2.58751	1.35059
H	4913.23	-1.07323	1.29969
