44
  This energy is 2.03555e-321 and Call times are: 92511
C	-2.45102	0.295196	2.45591
C	-1.56664	-0.517461	1.59065
O	-1.48396	-1.7298	1.73166
H	-2.96125	-0.369193	3.18674
H	-3.21905	0.81042	1.84149
H	-1.85512	1.04981	3.01124
N	-0.870601	0.145957	0.664494
C	0.0310322	-0.505837	-0.251503
C	1.00168	0.536845	-0.771014
O	0.784709	1.73568	-0.605007
H	-0.924564	1.13725	0.578736
H	0.604296	-1.24903	0.288034
C	-0.733118	-1.15324	-1.42796
H	-1.32066	-0.388108	-1.97885
H	-0.0418879	-1.65614	-2.13512
H	-1.44162	-1.9142	-1.03412
N	2.11241	0.10012	-1.39676
C	3.09911	1.01931	-1.91414
H	2.27346	-0.874218	-1.51492
H	3.93682	0.467477	-2.39474
H	3.51778	1.64815	-1.09529
H	2.64508	1.69746	-2.67253
C	4381.99	2.64643	1.98579
C	4380.91	1.80265	1.41514
O	4379.75	1.92457	1.77981
H	4381.55	3.33471	2.74197
H	4382.47	3.24889	1.1856
H	4382.75	2.01054	2.478
N	4381.28	0.909394	0.495711
C	4380.35	0.0180004	-0.150458
C	4381.14	-1.15553	-0.701927
O	4382.37	-1.10773	-0.784632
H	4382.24	0.799768	0.228251
H	4379.66	-0.36703	0.589354
C	4379.59	0.729876	-1.29058
H	4380.3	1.12421	-2.0474
H	4378.88	0.0464142	-1.79018
H	4379.02	1.58815	-0.873821
N	4380.45	-2.25125	-1.07369
C	4381.11	-3.42128	-1.59883
H	4379.46	-2.27313	-0.992357
H	4380.38	-4.21444	-1.8481
H	4381.83	-3.83311	-0.853222
H	4381.68	-3.1688	-2.52297
