44
  This energy is 3.39522e-320 and Call times are: 113259
C	1.92827	2.86596	-0.440646
C	1.42086	1.55469	-0.903565
O	1.65133	1.1509	-2.03508
H	2.49679	3.35111	-1.26362
H	2.60317	2.72918	0.430346
H	1.08165	3.52393	-0.152126
N	0.701593	0.853215	-0.0243805
C	0.140973	-0.439346	-0.327397
C	-0.997131	-0.692451	0.642085
O	-1.13699	0.00693374	1.64365
H	0.496183	1.20595	0.884642
H	-0.27653	-0.416456	-1.32602
C	1.20205	-1.55561	-0.204128
H	1.62874	-1.57581	0.821367
H	0.773778	-2.55219	-0.436926
H	2.03079	-1.35799	-0.918472
N	-1.85412	-1.69143	0.352917
C	-2.97439	-1.99822	1.21144
H	-1.72812	-2.24147	-0.466109
H	-3.55935	-2.85231	0.804505
H	-3.65325	-1.11933	1.30065
H	-2.62368	-2.26874	2.23369
C	5362.71	-2.94579	1.72426
C	5362.33	-1.59724	1.2472
O	5361.19	-1.17217	1.39426
H	5361.83	-3.43447	2.18832
H	5363.52	-2.86945	2.48243
H	5363.06	-3.56821	0.873753
N	5363.29	-0.886636	0.649922
C	5363.07	0.441172	0.133612
C	5364.15	0.72277	-0.895785
O	5365.14	0.00188599	-0.980394
H	5364.2	-1.25539	0.51013
H	5362.12	0.469247	-0.374233
C	5363.12	1.49795	1.25951
H	5364.11	1.46593	1.77881
H	5362.96	2.52148	0.865459
H	5362.33	1.27986	2.00761
N	5363.97	1.77214	-1.72118
C	5364.93	2.10973	-2.74014
H	5363.15	2.33921	-1.64158
H	5364.6	3.00415	-3.31355
H	5365.06	1.26418	-3.45386
H	5365.92	2.33154	-2.28334
