44
  This energy is 5.27217e-320 and Call times are: 26865
C	0.470949	-2.32649	-2.5479
C	-0.334946	-1.28976	-1.86457
O	-1.37148	-0.867115	-2.358
H	-0.019226	-2.59934	-3.50766
H	0.545838	-3.23362	-1.91204
H	1.48977	-1.94022	-2.76176
N	0.13599	-0.846894	-0.696476
C	-0.53594	0.159432	0.08624
C	0.483025	0.778136	1.02334
O	1.57535	0.24383	1.20549
H	0.996693	-1.17809	-0.31907
H	-0.891578	0.9398	-0.574533
C	-1.70435	-0.445281	0.89633
H	-1.33605	-1.24595	1.57265
H	-2.22402	0.326886	1.50005
H	-2.44317	-0.896279	0.198553
N	0.15486	1.938	1.62586
C	1.0661	2.60654	2.52524
H	-0.731179	2.35831	1.46001
H	0.613208	3.54279	2.91968
H	2.01344	2.86925	2.00106
H	1.31983	1.94909	3.38811
C	1281.92	-1.86912	0.339071
C	1280.44	-1.76028	0.260048
O	1279.74	-2.75787	0.204453
H	1282.21	-2.94228	0.330112
H	1282.29	-1.40525	1.27831
H	1282.39	-1.36293	-0.531124
N	1279.94	-0.523872	0.247323
C	1278.53	-0.25652	0.173852
C	1278.35	1.15977	-0.336803
O	1279.29	1.94223	-0.368268
H	1280.53	0.281122	0.263698
H	1278.08	-0.926458	-0.549249
C	1277.85	-0.413319	1.55495
H	1278.31	0.274917	2.29449
H	1276.76	-0.208322	1.50197
H	1277.99	-1.4546	1.91851
N	1277.12	1.51624	-0.77138
C	1276.86	2.83983	-1.28595
H	1276.37	0.866448	-0.744443
H	1275.79	2.93841	-1.59052
H	1277.5	3.05074	-2.17369
H	1277.07	3.6124	-0.513063
