44
  This energy is 5.85221e-320 and Call times are: 27075
C	2.16501	-2.53208	-1.01361
C	1.09571	-1.54616	-1.28885
O	0.701173	-1.34258	-2.42875
H	2.49745	-2.99008	-1.97047
H	1.78431	-3.33275	-0.345162
H	3.03265	-2.03201	-0.533964
N	0.60023	-0.898173	-0.231973
C	-0.443539	0.0896484	-0.339593
C	-0.390133	0.960868	0.900311
O	0.264994	0.617091	1.88238
H	0.950301	-1.05184	0.68823
H	-0.242559	0.722146	-1.19494
C	-1.83394	-0.572456	-0.464185
H	-2.03657	-1.22111	0.414621
H	-2.63994	0.185309	-0.547396
H	-1.85972	-1.20878	-1.37555
N	-1.06541	2.12678	0.874617
C	-1.06265	3.02665	2.0044
H	-1.58386	2.39053	0.0678477
H	-1.67639	3.92915	1.78979
H	-0.0252234	3.35654	2.24138
H	-1.48021	2.52516	2.90736
C	1287.72	-3.23657	-0.115799
C	1288.05	-1.94546	-0.757907
O	1287.95	-1.79465	-1.96738
H	1287.4	-3.9607	-0.894306
H	1286.89	-3.09855	0.61339
H	1288.61	-3.64602	0.407146
N	1288.48	-0.972093	0.0523227
C	1288.84	0.338954	-0.42373
C	1289.73	0.982548	0.618634
O	1289.83	0.506218	1.74846
H	1288.59	-1.11634	1.03228
H	1289.42	0.235683	-1.33359
C	1287.59	1.21471	-0.666056
H	1287	1.318	0.269215
H	1287.87	2.22485	-1.03282
H	1286.94	0.731821	-1.43059
N	1290.43	2.07465	0.253544
C	1291.32	2.74759	1.17514
H	1290.35	2.44067	-0.667579
H	1291.8	3.62372	0.688305
H	1292.12	2.05686	1.52605
H	1290.76	3.10734	2.06774
