44
  This energy is 1.30053e-319 and Call times are: 41397
C	-1.09683	-3.26574	0.507985
C	-0.350484	-2.0617	0.937477
O	0.139462	-1.98668	2.05588
H	-1.11632	-4.00218	1.34054
H	-0.601393	-3.72975	-0.37068
H	-2.14062	-2.99496	0.243157
N	-0.251957	-1.0749	0.0436723
C	0.443117	0.158195	0.31418
C	-0.0710149	1.20508	-0.654811
O	-0.737556	0.880319	-1.63567
H	-0.680371	-1.13624	-0.853899
H	0.197581	0.488123	1.31564
C	1.97051	-0.0100889	0.153314
H	2.21879	-0.349273	-0.874999
H	2.5088	0.937471	0.361022
H	2.33452	-0.780373	0.867667
N	0.210658	2.49564	-0.388137
C	-0.247122	3.56221	-1.24781
H	0.745396	2.73869	0.414492
H	0.0874177	4.55003	-0.861102
H	-1.35957	3.568	-1.30832
H	0.154092	3.43526	-2.27936
C	1965.77	2.9454	1.64002
C	1966.04	1.87787	0.650472
O	1966.99	1.9539	-0.120376
H	1966.54	3.74674	1.53237
H	1965.83	2.53447	2.67013
H	1964.77	3.38195	1.46821
N	1965.2	0.84509	0.647584
C	1965.33	-0.269985	-0.255915
C	1963.98	-0.953556	-0.350975
O	1963.09	-0.701182	0.458216
H	1964.41	0.808697	1.26091
H	1965.58	0.102856	-1.24108
C	1966.39	-1.27095	0.237048
H	1966.14	-1.65093	1.24824
H	1966.5	-2.13072	-0.4564
H	1967.38	-0.757723	0.303531
N	1963.79	-1.82425	-1.36181
C	1962.53	-2.51369	-1.53905
H	1964.52	-2.00965	-2.01055
H	1962.57	-3.18672	-2.42365
H	1961.7	-1.78564	-1.69169
H	1962.29	-3.12847	-0.641764
