44
  This energy is 8.49991e-320 and Call times are: 39717
C	1.2467	2.89225	-1.48552
C	0.239955	2.1793	-0.667373
O	-0.642961	2.78808	-0.0788665
H	1.04681	3.98502	-1.44375
H	1.1883	2.5564	-2.54222
H	2.26677	2.69817	-1.09214
N	0.357362	0.850758	-0.607706
C	-0.545995	0.0193568	0.146978
C	0.15287	-1.2979	0.422037
O	1.17857	-1.60368	-0.183165
H	1.09833	0.369043	-1.06797
H	-0.745122	0.491497	1.10066
C	-1.86098	-0.22805	-0.625495
H	-1.65295	-0.711892	-1.60362
H	-2.55892	-0.867754	-0.0471868
H	-2.36265	0.744543	-0.821803
N	-0.378187	-2.10261	1.36353
C	0.224984	-3.37077	1.70139
H	-1.2047	-1.83413	1.8473
H	-0.359677	-3.88513	2.49566
H	1.26571	-3.2247	2.07126
H	0.265941	-4.03668	0.809167
C	1885.5	3.33131	-0.814296
C	1885.12	2.27605	0.150678
O	1884.97	2.52968	1.33754
H	1885.62	4.29783	-0.276484
H	1884.72	3.44139	-1.59201
H	1886.47	3.07556	-1.29813
N	1884.96	1.04729	-0.3465
C	1884.59	-0.082945	0.466816
C	1885	-1.34257	-0.269924
O	1885.32	-1.30168	-1.45808
H	1885.12	0.847696	-1.31018
H	1885.15	-0.047206	1.39436
C	1883.07	-0.102102	0.742797
H	1882.5	-0.138098	-0.210916
H	1882.78	-0.971013	1.36892
H	1882.78	0.826333	1.28174
N	1885.03	-2.49428	0.429145
C	1885.42	-3.74144	-0.185438
H	1884.78	-2.50548	1.3916
H	1885.38	-4.57323	0.551891
H	1886.46	-3.6754	-0.581132
H	1884.75	-3.99092	-1.03408
