44
  This energy is 4.07604e-321 and Call times are: 13131
C	0.00775282	-3.0805	-1.62377
C	0.494402	-1.69154	-1.46512
O	1.43314	-1.27071	-2.12707
H	0.623566	-3.60021	-2.38962
H	-1.05194	-3.07907	-1.95522
H	0.0930816	-3.62831	-0.661704
N	-0.141613	-0.939673	-0.563705
C	0.215983	0.430602	-0.296683
C	-0.317501	0.792362	1.07582
O	-1.13901	0.072699	1.64065
H	-0.886109	-1.303	-0.00994095
H	1.29497	0.512363	-0.262246
C	-0.370505	1.38295	-1.3626
H	-1.47751	1.296	-1.3957
H	-0.0969487	2.43886	-1.16012
H	0.0270292	1.10675	-2.36352
N	0.157163	1.91238	1.6557
C	-0.283917	2.33	2.96613
H	0.826937	2.47764	1.18547
H	0.219716	3.27471	3.26801
H	-0.0503047	1.54986	3.72642
H	-1.38472	2.50133	2.97425
C	627.846	3.32084	0.0677421
C	626.91	2.25964	-0.366498
O	625.877	2.53231	-0.964049
H	627.442	4.31225	-0.231519
H	628.836	3.17692	-0.412434
H	627.964	3.29913	1.17163
N	627.253	1.00548	-0.0645863
C	626.446	-0.133724	-0.420336
C	626.833	-1.28209	0.491145
O	627.857	-1.22912	1.1686
H	628.082	0.798503	0.448145
H	625.406	0.0998206	-0.231762
C	626.657	-0.533679	-1.89768
H	627.725	-0.771951	-2.08778
H	626.036	-1.41045	-2.17501
H	626.371	0.316286	-2.55495
N	626.004	-2.34377	0.545015
C	626.285	-3.47854	1.39347
H	625.176	-2.36462	-0.00547484
H	625.488	-4.24834	1.2967
H	626.342	-3.16598	2.46129
H	627.258	-3.94488	1.11726
