44
  This energy is 7.31316e-320 and Call times are: 101793
C	2.51225	-2.40999	0.0817652
C	1.266	-1.81049	0.609654
O	0.620921	-2.3642	1.4893
H	2.70515	-3.37356	0.601555
H	3.37008	-1.72782	0.259475
H	2.41303	-2.60267	-1.00726
N	0.892121	-0.648115	0.0697836
C	-0.29618	0.0573051	0.478624
C	-0.68593	1.00188	-0.641697
O	0.0991165	1.25259	-1.55421
H	1.41057	-0.22156	-0.666555
H	-1.10223	-0.654449	0.604152
C	-0.0588829	0.849951	1.78343
H	0.769106	1.57871	1.6513
H	-0.971911	1.39419	2.10117
H	0.227078	0.146909	2.5959
N	-1.92387	1.53332	-0.609002
C	-2.38715	2.43358	-1.63909
H	-2.54699	1.31252	0.134106
H	-3.42932	2.76349	-1.43343
H	-2.3676	1.93449	-2.63496
H	-1.73746	3.33702	-1.69286
C	4819.27	-1.51198	2.61829
C	4820.53	-1.11055	1.94891
O	4821.61	-1.25035	2.50079
H	4819.51	-1.91742	3.62666
H	4818.76	-2.29722	2.0258
H	4818.6	-0.63439	2.73049
N	4820.41	-0.588589	0.725949
C	4821.54	-0.151569	-0.0514602
C	4821.04	0.825228	-1.09699
O	4819.84	0.925892	-1.33769
H	4819.52	-0.452977	0.298846
H	4822.23	0.381745	0.594617
C	4822.25	-1.34348	-0.734152
H	4821.54	-1.88874	-1.39567
H	4823.12	-1.01055	-1.33346
H	4822.61	-2.05219	0.0422827
N	4821.95	1.58727	-1.73017
C	4821.57	2.5534	-2.73214
H	4822.92	1.49604	-1.51623
H	4822.46	3.0783	-3.13682
H	4820.88	3.31528	-2.29901
H	4821.04	2.05403	-3.57762
