44
  This energy is 1.07148e-319 and Call times are: 90285
C	2.98507	1.12605	-1.39553
C	1.83869	0.190445	-1.35471
O	1.6651	-0.636236	-2.23956
H	3.5827	0.934842	-2.31321
H	3.63335	0.975781	-0.506725
H	2.62238	2.17535	-1.41497
N	1.01482	0.307244	-0.3107
C	-0.143433	-0.531274	-0.131385
C	-1.09501	0.183372	0.808308
O	-0.719674	1.15208	1.466
H	1.15067	1.00403	0.388568
H	-0.645666	-0.645883	-1.08359
C	0.244113	-1.90872	0.451346
H	0.759713	-1.78738	1.42785
H	-0.645371	-2.55696	0.590553
H	0.94221	-2.42151	-0.245684
N	-2.36291	-0.268076	0.876383
C	-3.34246	0.35682	1.73438
H	-2.64918	-1.04891	0.330882
H	-4.32419	-0.15952	1.65161
H	-3.48419	1.42604	1.45521
H	-3.01458	0.318348	2.79842
C	4275.82	3.33651	-0.80965
C	4275.39	1.9214	-0.735588
O	4274.24	1.59414	-0.993325
H	4274.95	3.96647	-1.11157
H	4276.63	3.45267	-1.56125
H	4276.18	3.67848	0.181692
N	4276.32	1.03836	-0.369576
C	4276.06	-0.373538	-0.252617
C	4277.12	-0.972814	0.649465
O	4278.13	-0.339539	0.932299
H	4277.25	1.32117	-0.133992
H	4275.1	-0.513384	0.229859
C	4276.08	-1.06642	-1.63337
H	4277.07	-0.920384	-2.12581
H	4275.88	-2.15365	-1.54699
H	4275.3	-0.617684	-2.28508
N	4276.9	-2.20729	1.14195
C	4277.85	-2.85352	2.0185
H	4276.07	-2.70064	0.907093
H	4277.48	-3.86283	2.31424
H	4278	-2.25149	2.94323
H	4278.83	-2.9688	1.51353
