44
  This energy is 3.52269e-320 and Call times are: 20313
C	-3.47599	-0.179456	-0.106906
C	-2.17289	-0.526638	0.503503
O	-2.11279	-1.12993	1.56601
H	-4.29707	-0.543361	0.54828
H	-3.57175	-0.659744	-1.10339
H	-3.5657	0.921753	-0.217519
N	-1.08343	-0.140806	-0.164768
C	0.254206	-0.405676	0.301485
C	1.18704	0.580175	-0.374646
O	0.810603	1.24022	-1.34132
H	-1.1456	0.375602	-1.01471
H	0.298077	-0.222004	1.36751
C	0.686258	-1.8534	-0.0218664
H	0.63943	-2.03858	-1.11623
H	1.71571	-2.06078	0.335907
H	-0.00556926	-2.56576	0.47819
N	2.42661	0.718626	0.135554
C	3.37973	1.64189	-0.434822
H	2.70996	0.18066	0.92266
H	4.34137	1.60909	0.123217
H	2.98802	2.68419	-0.397108
H	3.58368	1.38805	-1.50026
C	965.44	2.40934	-0.520687
C	966.859	1.99424	-0.437078
O	967.761	2.75919	-0.748695
H	965.385	3.45436	-0.89581
H	964.968	2.3624	0.483148
H	964.888	1.74675	-1.21993
N	967.088	0.749508	-0.0124624
C	968.414	0.201575	0.121936
C	968.298	-1.31017	0.106821
O	967.206	-1.85772	0.247337
H	966.343	0.126277	0.210636
H	969.005	0.49448	-0.736929
C	969.086	0.669452	1.43223
H	968.477	0.36789	2.31123
H	970.107	0.249506	1.53883
H	969.165	1.77849	1.43149
N	969.425	-2.02232	-0.0871158
C	969.409	-3.466	-0.128544
H	970.298	-1.56056	-0.205952
H	970.434	-3.86589	-0.295382
H	968.753	-3.8282	-0.952865
H	969.022	-3.88249	0.829412
