44
  This energy is 6.12147e-321 and Call times are: 79953
C	2.33131	2.25113	-1.27418
C	0.936655	1.83435	-1.00506
O	-0.00191814	2.5883	-1.22217
H	2.33452	3.2909	-1.66752
H	2.79227	1.57995	-2.02908
H	2.92787	2.21909	-0.338208
N	0.769767	0.604852	-0.512265
C	-0.526137	0.0571779	-0.199994
C	-0.326965	-1.07869	0.784577
O	0.791248	-1.55007	0.982638
H	1.54447	0.0108734	-0.31238
H	-1.12048	0.817448	0.290742
C	-1.23938	-0.459139	-1.46957
H	-0.626599	-1.23845	-1.97085
H	-2.23759	-0.881382	-1.23275
H	-1.37826	0.38206	-2.18318
N	-1.41136	-1.5317	1.44401
C	-1.31633	-2.60208	2.40912
H	-2.30647	-1.13236	1.27507
H	-2.31522	-2.83183	2.84119
H	-0.630774	-2.32113	3.24118
H	-0.919324	-3.52731	1.93214
C	3788.56	-0.638887	-3.37752
C	3787.78	-0.0235957	-2.28072
O	3786.85	0.745827	-2.51486
H	3788.17	-0.278839	-4.35378
H	3788.46	-1.74471	-3.33918
H	3789.63	-0.354362	-3.2922
N	3788.14	-0.351069	-1.03836
C	3787.48	0.165835	0.131711
C	3788.43	0.026984	1.30561
O	3789.43	-0.676784	1.2215
H	3788.91	-0.95624	-0.860122
H	3787.28	1.22127	-0.0112973
C	3786.16	-0.597491	0.417106
H	3786.37	-1.68	0.562638
H	3785.65	-0.201935	1.31732
H	3785.48	-0.488993	-0.450665
N	3788.14	0.717054	2.42694
C	3788.99	0.655822	3.59107
H	3787.32	1.28673	2.47288
H	3788.58	1.28998	4.40976
H	3790.02	1.01448	3.34587
H	3789.07	-0.390586	3.96493
