44
  This energy is 1.50191e-319 and Call times are: 111537
C	-1.34121	-3.00754	-1.13226
C	-0.964597	-1.59088	-1.33827
O	-1.03551	-1.07184	-2.44374
H	-1.66066	-3.4474	-2.10197
H	-2.18228	-3.07879	-0.410913
H	-0.473289	-3.58209	-0.745535
N	-0.543228	-0.926424	-0.259701
C	-0.14254	0.457252	-0.301148
C	0.737222	0.72386	0.904744
O	0.790823	-0.0798366	1.83374
H	-0.462228	-1.36859	0.629603
H	0.455611	0.62394	-1.188
C	-1.3677	1.39841	-0.283443
H	-1.97945	1.22426	0.627351
H	-1.06278	2.46461	-0.315416
H	-2.00466	1.19233	-1.17111
N	1.46811	1.85603	0.907227
C	2.34335	2.18799	2.00719
H	1.41638	2.49024	0.142814
H	2.85538	3.15818	1.82333
H	3.12077	1.40141	2.14187
H	1.76706	2.27007	2.95711
C	5283.3	-0.432208	-3.40331
C	5282.99	0.186529	-2.0953
O	5282.16	1.08146	-2.00058
H	5282.69	0.0506746	-4.19403
H	5283.07	-1.51729	-3.37886
H	5284.38	-0.291535	-3.64674
N	5283.66	-0.281795	-1.04194
C	5283.47	0.219153	0.295337
C	5284.7	-0.130618	1.10701
O	5285.52	-0.945627	0.686716
H	5284.36	-0.991008	-1.13656
H	5283.4	1.2986	0.259335
C	5282.21	-0.394205	0.948888
H	5282.29	-1.50171	0.983587
H	5282.06	-0.0105167	1.97863
H	5281.32	-0.131792	0.344254
N	5284.87	0.498331	2.28653
C	5286.02	0.238227	3.12213
H	5284.2	1.15991	2.60594
H	5285.98	0.850895	4.04958
H	5286.96	0.484074	2.58153
H	5286.06	-0.836449	3.41319
