44
  This energy is 9.35118e-320 and Call times are: 102591
C	-1.47735	-1.89403	-2.52115
C	-1.51301	-0.800829	-1.52373
O	-2.45277	-0.0191546	-1.47532
H	-2.39179	-1.84605	-3.15152
H	-1.4454	-2.87853	-2.00873
H	-0.585115	-1.78811	-3.17356
N	-0.468386	-0.718562	-0.696482
C	-0.359194	0.290373	0.326727
C	1.10491	0.419274	0.69958
O	1.92049	-0.430719	0.347208
H	0.3047	-1.34353	-0.764978
H	-0.679793	1.24081	-0.0806639
C	-1.19419	-0.079634	1.57292
H	-0.863094	-1.05549	1.98787
H	-1.1125	0.695183	2.3627
H	-2.26443	-0.172234	1.28628
N	1.47656	1.5042	1.40726
C	2.8508	1.71761	1.79728
H	0.802846	2.18442	1.67678
H	2.95364	2.66334	2.37371
H	3.50852	1.78062	0.900253
H	3.2138	0.878009	2.43327
C	4859.66	0.776666	3.33023
C	4860.06	0.689316	1.90941
O	4861.13	1.14885	1.52714
H	4860.45	1.30212	3.90689
H	4859.52	-0.241167	3.75238
H	4858.71	1.34528	3.42291
N	4859.2	0.0920267	1.08227
C	4859.46	-0.069222	-0.327127
C	4858.12	-0.286385	-1.01855
O	4857.11	-0.551918	-0.368883
H	4858.32	-0.252352	1.40055
H	4859.88	0.84721	-0.714963
C	4860.4	-1.26585	-0.596162
H	4859.96	-2.20422	-0.196406
H	4860.59	-1.39278	-1.68041
H	4861.37	-1.09513	-0.0834036
N	4858.09	-0.156077	-2.35932
C	4856.86	-0.332909	-3.10227
H	4858.91	0.0662356	-2.86636
H	4857.04	-0.186598	-4.19089
H	4856.09	0.400204	-2.76968
H	4856.45	-1.35755	-2.94752
