44
  This energy is 1.07519e-319 and Call times are: 16995
C	-1.53859	2.74163	1.49744
C	-0.98722	2.04431	0.313827
O	-1.11991	2.50616	-0.811156
H	-2.0502	3.67268	1.16993
H	-0.720853	3.00885	2.19939
H	-2.27356	2.09138	2.01699
N	-0.35079	0.893991	0.546378
C	0.239374	0.101305	-0.502518
C	0.393783	-1.31558	0.0150167
O	0.279679	-1.56275	1.21406
H	-0.274649	0.513569	1.46421
H	-0.439448	0.0714927	-1.34536
C	1.61393	0.664418	-0.927522
H	2.30761	0.69422	-0.0603229
H	2.0711	0.0565111	-1.73512
H	1.48736	1.70304	-1.30355
N	0.636931	-2.28731	-0.886434
C	0.786933	-3.66745	-0.487824
H	0.71875	-2.06813	-1.85313
H	0.983542	-4.313	-1.37205
H	-0.137269	-4.03382	0.0150337
H	1.63577	-3.78073	0.224793
C	812.65	2.93456	-0.30219
C	812.001	1.88335	0.51302
O	812.153	1.83924	1.72602
H	813.247	3.59737	0.361157
H	811.882	3.54451	-0.822275
H	813.326	2.4739	-1.05287
N	811.255	0.995956	-0.148843
C	810.56	-0.0840441	0.505493
C	810.273	-1.15034	-0.533528
O	810.39	-0.906966	-1.73306
H	811.162	1.02529	-1.14055
H	811.212	-0.519797	1.25247
C	809.241	0.402058	1.14696
H	808.576	0.849112	0.377952
H	808.704	-0.426995	1.65179
H	809.466	1.18363	1.90527
N	809.908	-2.37055	-0.0926957
C	809.626	-3.4515	-1.00815
H	809.826	-2.54971	0.882173
H	809.342	-4.37277	-0.453235
H	810.519	-3.68023	-1.63338
H	808.788	-3.18039	-1.68993
