44
  This energy is 2.60027e-320 and Call times are: 99945
C	3.21497	0.886568	-1.00204
C	2.22555	0.545197	0.0447233
O	2.56611	0.383973	1.20856
H	4.22639	0.949361	-0.54493
H	2.9656	1.86734	-1.45891
H	3.2245	0.103962	-1.78968
N	0.958065	0.42013	-0.355535
C	-0.117464	0.0918854	0.545753
C	-1.26049	-0.469185	-0.277617
O	-1.27328	-0.346629	-1.50099
H	0.69772	0.525303	-1.31162
H	0.214519	-0.686466	1.22105
C	-0.590002	1.33407	1.33367
H	-0.929244	2.13081	0.637797
H	-1.41799	1.08485	2.02872
H	0.256618	1.73624	1.9317
N	-2.24159	-1.1208	0.377233
C	-3.36399	-1.69874	-0.32447
H	-2.20952	-1.21563	1.36678
H	-4.06303	-2.18928	0.388248
H	-3.01776	-2.46275	-1.05771
H	-3.92505	-0.914294	-0.882181
C	4732.17	2.79908	1.89902
C	4731.81	1.678	1.00476
O	4730.63	1.42192	0.759175
H	4731.25	3.29654	2.263
H	4732.79	3.54204	1.34862
H	4732.74	2.42077	2.77231
N	4732.82	0.970469	0.49527
C	4732.62	-0.148867	-0.390651
C	4733.87	-1.00358	-0.347869
O	4734.91	-0.57371	0.151939
H	4733.76	1.17086	0.726075
H	4731.8	-0.749563	-0.0208459
C	4732.34	0.3201	-1.83708
H	4733.19	0.936615	-2.21306
H	4732.19	-0.539268	-2.52186
H	4731.43	0.946137	-1.85471
N	4733.79	-2.24974	-0.855077
C	4734.93	-3.13978	-0.847176
H	4732.94	-2.58174	-1.24871
H	4734.67	-4.11687	-1.30969
H	4735.28	-3.3269	0.195447
H	4735.78	-2.69798	-1.41782
