44
  This energy is 1.48516e-319 and Call times are: 60339
C	-2.57608	1.95947	-1.28468
C	-2.06267	0.690208	-0.722017
O	-2.82003	-0.226538	-0.43484
H	-3.6829	1.90172	-1.37126
H	-2.14531	2.13278	-2.29326
H	-2.31142	2.80804	-0.619232
N	-0.741815	0.611625	-0.544452
C	-0.0936096	-0.55792	-0.00703075
C	1.25843	-0.13441	0.533224
O	1.73344	0.963301	0.248222
H	-0.138425	1.37614	-0.755101
H	-0.677167	-0.932971	0.824156
C	0.0836836	-1.64886	-1.08663
H	0.68222	-1.2605	-1.93813
H	0.582353	-2.55087	-0.67617
H	-0.91369	-1.9496	-1.47515
N	1.90249	-0.992561	1.34856
C	3.18923	-0.670386	1.92012
H	1.49827	-1.87317	1.57298
H	3.55488	-1.50336	2.56019
H	3.1221	0.248966	2.54584
H	3.94097	-0.48818	1.11833
C	2862.33	2.86276	-1.8022
C	2861.33	1.90519	-1.26301
O	2860.13	2.12093	-1.35204
H	2861.79	3.72974	-2.25018
H	2862.94	2.37472	-2.58678
H	2862.99	3.22838	-0.988302
N	2861.83	0.810583	-0.676817
C	2860.99	-0.212505	-0.105291
C	2861.82	-0.993812	0.892591
O	2863.04	-0.881896	0.914041
H	2862.81	0.660334	-0.584692
H	2860.18	0.258763	0.438603
C	2860.43	-1.15995	-1.19357
H	2861.27	-1.64118	-1.75002
H	2859.79	-1.94884	-0.756969
H	2859.83	-0.575355	-1.91888
N	2861.17	-1.79154	1.76149
C	2861.88	-2.56434	2.75511
H	2860.18	-1.86309	1.73281
H	2861.16	-3.15713	3.37225
H	2862.46	-1.8963	3.43257
H	2862.59	-3.26802	2.26985
