44
  This energy is 1.0117e-319 and Call times are: 34467
C	-3.15356	-1.26309	-0.765387
C	-2.16458	-0.726801	0.196652
O	-2.47927	-0.470829	1.35075
H	-4.13937	-1.36304	-0.26137
H	-2.83214	-2.2623	-1.12744
H	-3.25989	-0.573818	-1.62941
N	-0.9276	-0.536986	-0.268343
C	0.143416	-0.0219829	0.546842
C	1.20307	0.543274	-0.378822
O	1.18604	0.290945	-1.5821
H	-0.690877	-0.721928	-1.21845
H	-0.234692	0.793214	1.15063
C	0.752074	-1.12653	1.43938
H	1.13838	-1.96153	0.816766
H	1.57695	-0.733371	2.0685
H	-0.0344003	-1.53321	2.11185
N	2.14271	1.34382	0.161729
C	3.18438	1.93713	-0.643928
H	2.13526	1.54179	1.1364
H	3.85972	2.56011	-0.0169709
H	2.74639	2.58487	-1.43755
H	3.79498	1.14832	-1.14005
C	1635.87	-2.85902	-0.775357
C	1636.87	-1.82195	-1.11501
O	1637.54	-1.90139	-2.13373
H	1635.87	-3.64342	-1.56312
H	1634.86	-2.40916	-0.719082
H	1636.12	-3.32793	0.19946
N	1636.99	-0.812598	-0.250134
C	1637.92	0.271498	-0.442894
C	1638.18	0.91534	0.906764
O	1637.45	0.669594	1.86593
H	1636.46	-0.774294	0.590865
H	1638.87	-0.130669	-0.79581
C	1637.37	1.31772	-1.43575
H	1636.4	1.72773	-1.07092
H	1638.08	2.15379	-1.58659
H	1637.19	0.833357	-2.42003
N	1639.23	1.74291	1.01735
C	1639.56	2.39204	2.26622
H	1639.82	1.92345	0.231414
H	1640.46	3.03291	2.15369
H	1639.76	1.63729	3.06017
H	1638.71	3.0329	2.60713
