44
  This energy is 1.18699e-319 and Call times are: 116577
C	0.616684	-2.90764	1.81423
C	0.0159373	-1.56171	1.67723
O	-0.74327	-1.11832	2.52783
H	0.256986	-3.37628	2.75597
H	1.72371	-2.83052	1.85126
H	0.319553	-3.54854	0.957547
N	0.344621	-0.874412	0.580898
C	-0.158838	0.447848	0.307066
C	-0.0262123	0.697623	-1.18265
O	0.664888	-0.0384592	-1.88436
H	0.941167	-1.25824	-0.118921
H	-1.21247	0.48123	0.553673
C	0.621696	1.52177	1.09737
H	1.70231	1.48426	0.842463
H	0.236521	2.54108	0.888978
H	0.517612	1.32695	2.18703
N	-0.707627	1.73606	-1.70546
C	-0.651479	2.04354	-3.1156
H	-1.26714	2.31576	-1.12226
H	-1.27692	2.93318	-3.3493
H	-1.02371	1.18487	-3.72007
H	0.395565	2.25866	-3.42961
C	5521.13	-2.82354	2.02057
C	5520.71	-1.46182	1.62432
O	5519.72	-0.936242	2.12271
H	5520.43	-3.22044	2.78314
H	5522.15	-2.79477	2.45558
H	5521.13	-3.49847	1.13889
N	5521.46	-0.85432	0.698499
C	5521.17	0.471511	0.211254
C	5521.85	0.628951	-1.13585
O	5522.7	-0.17688	-1.50968
H	5522.24	-1.30444	0.278924
H	5520.1	0.566833	0.0555266
C	5521.68	1.55253	1.19129
H	5522.77	1.45139	1.34928
H	5521.46	2.57461	0.819262
H	5521.17	1.4256	2.17451
N	5521.47	1.66549	-1.90911
C	5522.05	1.88853	-3.21217
H	5520.77	2.30257	-1.59181
H	5521.61	2.79075	-3.6905
H	5521.87	1.01432	-3.87846
H	5523.15	2.03747	-3.13076
