44
  This energy is 1.92982e-320 and Call times are: 49293
C	1.0407	-0.551106	3.2771
C	0.689379	0.350999	2.15728
O	0.609421	1.5607	2.32073
H	1.19168	0.0503559	4.19976
H	1.979	-1.09852	3.04745
H	0.221598	-1.27983	3.45313
N	0.462664	-0.229717	0.976716
C	0.111526	0.51496	-0.206071
C	-0.563036	-0.438076	-1.1735
O	-0.503446	-1.6542	-1.00227
H	0.502425	-1.21888	0.863128
H	-0.608689	1.27834	0.0596555
C	1.35876	1.14582	-0.864507
H	2.0958	0.359937	-1.13522
H	1.09196	1.72008	-1.77545
H	1.84444	1.84085	-0.145348
N	-1.24279	0.0972456	-2.20664
C	-1.92669	-0.731613	-3.17176
H	-1.2853	1.08399	-2.32397
H	-2.42478	-0.105815	-3.94476
H	-2.70277	-1.35642	-2.67319
H	-1.20927	-1.41431	-3.68207
C	2340.34	1.6195	0.914032
C	2339.56	0.390053	0.674959
O	2340.08	-0.714654	0.708897
H	2341.4	1.34442	1.10317
H	2339.95	2.16091	1.79962
H	2340.3	2.28295	0.0248498
N	2338.26	0.559726	0.417839
C	2337.36	-0.539617	0.165043
C	2336.15	0.00353927	-0.578156
O	2335.95	1.21393	-0.639959
H	2337.85	1.46661	0.364174
H	2337.85	-1.2533	-0.483405
C	2336.91	-1.21464	1.48086
H	2336.41	-0.479496	2.14398
H	2336.22	-2.06166	1.28986
H	2337.8	-1.60723	2.01634
N	2335.34	-0.884301	-1.18131
C	2334.17	-0.459046	-1.92185
H	2335.53	-1.85925	-1.1258
H	2333.63	-1.33579	-2.3409
H	2334.47	0.208067	-2.7649
H	2333.47	0.10364	-1.26329
