44
  This energy is 9.9821e-320 and Call times are: 102843
C	-2.86235	1.44839	1.35472
C	-1.86821	0.354217	1.2793
O	-1.87391	-0.562533	2.08926
H	-3.53627	1.27323	2.22133
H	-3.4708	1.47712	0.426397
H	-2.34886	2.42356	1.49009
N	-0.97448	0.432138	0.290599
C	0.0542605	-0.556366	0.0871769
C	1.15701	0.081301	-0.735359
O	0.971065	1.14937	-1.31543
H	-0.962163	1.19921	-0.345316
H	0.475178	-0.828745	1.04671
C	-0.498671	-1.80211	-0.640496
H	-0.930305	-1.51895	-1.62418
H	0.2908	-2.56533	-0.798614
H	-1.30642	-2.25927	-0.0283725
N	2.34503	-0.552727	-0.786486
C	3.45704	-0.0147582	-1.53495
H	2.47793	-1.41247	-0.304396
H	4.34382	-0.681527	-1.45556
H	3.73971	0.9917	-1.14974
H	3.19211	0.0897026	-2.61202
C	4873.69	0.385792	2.17999
C	4872.63	-0.436168	1.55162
O	4872.57	-1.64403	1.73697
H	4874.35	-0.269667	2.78536
H	4873.23	1.15055	2.84499
H	4874.3	0.889223	1.39906
N	4871.76	0.212203	0.776665
C	4870.67	-0.450017	0.0980463
C	4870.23	0.434818	-1.05232
O	4870.6	1.6057	-1.12116
H	4871.83	1.19186	0.610189
H	4871.03	-1.37965	-0.321899
C	4869.48	-0.70794	1.05311
H	4869.12	0.247789	1.48263
H	4868.65	-1.21786	0.533854
H	4869.82	-1.3562	1.89195
N	4869.45	-0.114926	-1.99906
C	4868.99	0.647343	-3.13729
H	4869.16	-1.06616	-1.92917
H	4868.35	0.0202515	-3.80062
H	4869.85	1.02243	-3.73217
H	4868.39	1.5265	-2.8064
