44
  This energy is 1.34435e-320 and Call times are: 19515
C	3.19354	0.114471	1.38358
C	1.76149	0.489196	1.38208
O	1.26638	1.09956	2.31954
H	3.66441	0.466853	2.32697
H	3.71359	0.587202	0.523991
H	3.30067	-0.988824	1.3187
N	1.05298	0.119784	0.312541
C	-0.350531	0.412028	0.165674
C	-0.925513	-0.560235	-0.845928
O	-0.18611	-1.23265	-1.56215
H	1.46113	-0.402534	-0.431456
H	-0.847549	0.235294	1.11109
C	-0.575972	1.86563	-0.306922
H	-0.0641868	2.04365	-1.27672
H	-1.6556	2.09407	-0.420897
H	-0.149312	2.56791	0.442014
N	-2.26675	-0.6728	-0.912371
C	-2.9039	-1.58151	-1.83675
H	-2.84784	-0.125193	-0.319335
H	-4.01079	-1.52772	-1.74112
H	-2.58558	-2.63064	-1.63868
H	-2.62998	-1.33003	-2.88694
C	932.275	2.49597	0.507499
C	931.866	1.17694	-0.0260546
O	932.614	0.525023	-0.741649
H	933.298	2.73777	0.145855
H	932.282	2.47406	1.61758
H	931.574	3.2837	0.158118
N	930.647	0.752049	0.312343
C	930.109	-0.510015	-0.128442
C	928.598	-0.436602	-0.0173833
O	928.058	0.466399	0.618546
H	930.036	1.30544	0.872071
H	930.355	-0.652105	-1.17301
C	930.648	-1.68012	0.724368
H	930.394	-1.53078	1.79547
H	930.235	-2.65342	0.387565
H	931.755	-1.72237	0.635446
N	927.878	-1.37951	-0.656194
C	926.434	-1.38323	-0.616687
H	928.333	-2.09787	-1.17153
H	926.027	-2.23791	-1.20064
H	926.027	-0.439465	-1.04647
H	926.07	-1.47016	0.432562
