44
  This energy is 1.39618e-319 and Call times are: 85161
C	-2.29694	-1.83741	-1.8639
C	-1.32238	-0.732202	-1.72264
O	-0.984602	-0.059592	-2.68701
H	-2.61255	-1.91515	-2.92701
H	-3.19189	-1.64079	-1.23683
H	-1.83362	-2.79818	-1.55536
N	-0.837606	-0.522137	-0.49658
C	0.117646	0.515616	-0.200964
C	0.819149	0.148502	1.09223
O	0.372656	-0.735938	1.82041
H	-1.09857	-1.09563	0.275394
H	0.864197	0.540275	-0.984627
C	-0.571765	1.89105	-0.0594639
H	-1.33748	1.86198	0.744873
H	0.160912	2.69243	0.168023
H	-1.08289	2.14786	-1.01285
N	1.95326	0.809247	1.39755
C	2.69584	0.51924	2.60198
H	2.30227	1.51671	0.791814
H	3.59612	1.16841	2.6748
H	3.02866	-0.54395	2.61192
H	2.06502	0.691987	3.50387
C	4036.68	3.38504	0.447094
C	4036.42	2.21404	-0.418632
O	4036.26	2.34221	-1.62476
H	4036.7	4.30624	-0.175068
H	4037.67	3.27519	0.947825
H	4035.89	3.48167	1.21513
N	4036.36	1.02762	0.190612
C	4036.11	-0.202652	-0.516997
C	4035.6	-1.22068	0.484371
O	4035.7	-1.0186	1.69302
H	4036.46	0.93983	1.1779
H	4035.32	-0.0365945	-1.24536
C	4037.39	-0.727628	-1.20265
H	4038.19	-0.896251	-0.45263
H	4037.2	-1.67475	-1.74855
H	4037.75	0.0276221	-1.93281
N	4035.02	-2.3354	0.00084456
C	4034.49	-3.35477	0.878676
H	4034.94	-2.47724	-0.980458
H	4034.05	-4.1923	0.291414
H	4033.69	-2.93504	1.53591
H	4035.29	-3.76576	1.53024
