44
  This energy is 1.39707e-319 and Call times are: 24219
C	1.95895	-2.85819	0.345535
C	1.11286	-1.78379	0.912106
O	0.774439	-1.79868	2.08758
H	2.18656	-3.6032	1.13864
H	2.91256	-2.43433	-0.0336665
H	1.42563	-3.36813	-0.484209
N	0.742555	-0.815056	0.0713984
C	-0.0798398	0.297601	0.474496
C	-0.718051	0.880654	-0.771287
O	-0.310238	0.572448	-1.88956
H	1.0006	-0.82951	-0.890964
H	-0.875503	-0.0658582	1.11238
C	0.752259	1.37813	1.20057
H	1.56801	1.74829	0.543563
H	0.122083	2.23625	1.51246
H	1.21539	0.938176	2.11057
N	-1.75494	1.72529	-0.605623
C	-2.43269	2.32015	-1.73389
H	-2.07479	1.95671	0.307273
H	-3.25574	2.9857	-1.392
H	-2.86862	1.53249	-2.39025
H	-1.72346	2.92468	-2.34438
C	1152.48	-2.25128	-2.24423
C	1153.28	-1.0408	-1.94403
O	1153.87	-0.439046	-2.8283
H	1152.54	-2.47076	-3.33233
H	1151.42	-2.08673	-1.96991
H	1152.88	-3.12098	-1.67935
N	1153.31	-0.655846	-0.666167
C	1154.04	0.501741	-0.218547
C	1154.3	0.345578	1.268
O	1153.69	-0.501448	1.92376
H	1152.85	-1.17124	0.0493477
H	1155	0.52431	-0.716575
C	1153.26	1.804	-0.488762
H	1152.27	1.77717	0.0230723
H	1153.82	2.69731	-0.145451
H	1153.08	1.90608	-1.58092
N	1155.22	1.15013	1.83189
C	1155.54	1.06544	3.23825
H	1155.7	1.82442	1.28292
H	1156.32	1.80998	3.51049
H	1155.92	0.0499761	3.49467
H	1154.63	1.26249	3.85834
