44
  This energy is 7.37591e-320 and Call times are: 39297
C	0.693725	-2.48001	-2.34402
C	-0.197177	-1.45009	-1.76371
O	-1.24479	-1.13779	-2.31278
H	0.249709	-2.85887	-3.29015
H	0.809785	-3.328	-1.63671
H	1.69075	-2.04372	-2.56432
N	0.210658	-0.887257	-0.62386
C	-0.547435	0.129162	0.0609874
C	0.402059	0.88592	0.969291
O	1.5214	0.442171	1.21828
H	1.08018	-1.12944	-0.201703
H	-0.934542	0.830199	-0.667552
C	-1.69621	-0.488269	0.889369
H	-1.29558	-1.20744	1.6353
H	-2.28207	0.291609	1.41789
H	-2.38398	-1.04077	0.212722
N	-0.0180939	2.06425	1.4703
C	0.821751	2.8604	2.33458
H	-0.924681	2.40977	1.25132
H	0.29768	3.79176	2.64306
H	1.76431	3.14491	1.81316
H	1.09347	2.29044	3.25245
C	1864.91	-2.70437	2.19372
C	1865.17	-1.28042	1.88182
O	1865.49	-0.490264	2.75674
H	1865.06	-2.8742	3.28253
H	1865.61	-3.35266	1.63086
H	1863.87	-2.97241	1.92555
N	1865.02	-0.916258	0.606184
C	1865.23	0.433074	0.148051
C	1864.5	0.602025	-1.16606
O	1864.07	-0.375936	-1.78013
H	1864.72	-1.56308	-0.0921617
H	1864.8	1.12061	0.861152
C	1866.74	0.728557	-0.0450214
H	1867.18	0.0209803	-0.776677
H	1866.91	1.76675	-0.397591
H	1867.27	0.600172	0.924386
N	1864.3	1.85685	-1.61857
C	1863.6	2.11568	-2.85422
H	1864.65	2.6355	-1.10358
H	1863.55	3.20844	-3.05511
H	1862.56	1.71764	-2.80654
H	1864.12	1.62624	-3.71045
