44
  This energy is 7.0434e-320 and Call times are: 114687
C	-2.10843	-0.778878	2.6597
C	-1.45615	0.197765	1.75864
O	-1.75537	1.38355	1.78814
H	-2.85416	-0.252239	3.29405
H	-1.35215	-1.25777	3.3166
H	-2.62905	-1.55939	2.06581
N	-0.538903	-0.289789	0.920005
C	0.181481	0.535619	-0.0162519
C	0.714145	-0.362745	-1.11555
O	0.724134	-1.58468	-0.979173
H	-0.324901	-1.26238	0.885397
H	-0.507439	1.23703	-0.469553
C	1.34669	1.28124	0.671825
H	2.05114	0.558695	1.13636
H	1.90342	1.91785	-0.0461992
H	0.943467	1.93492	1.47573
N	1.15163	0.225329	-2.24638
C	1.66502	-0.550126	-3.35149
H	1.12871	1.21522	-2.34032
H	1.97582	0.114553	-4.18747
H	0.888916	-1.25283	-3.73243
H	2.54816	-1.15037	-3.03377
C	5432.97	0.483904	-3.07017
C	5431.98	-0.196225	-2.20939
O	5431.16	-0.972963	-2.68096
H	5432.82	0.17062	-4.1258
H	5434	0.207063	-2.7586
H	5432.85	1.58523	-3.00068
N	5432.03	0.0911603	-0.90654
C	5431.12	-0.490993	0.0563476
C	5431.1	0.407329	1.27776
O	5431.96	1.28079	1.42989
H	5432.68	0.747821	-0.538796
H	5430.13	-0.503609	-0.359374
C	5431.57	-1.91647	0.452617
H	5432.6	-1.89992	0.878099
H	5430.88	-2.36773	1.1938
H	5431.58	-2.56428	-0.450898
N	5430.11	0.22609	2.17055
C	5430	1.04201	3.35755
H	5429.43	-0.481373	2.02597
H	5429.12	0.737942	3.96559
H	5429.89	2.11649	3.08661
H	5430.92	0.94103	3.98769
