44
  This energy is 7.41197e-320 and Call times are: 21783
C	-0.331903	1.95815	-2.86035
C	-0.494389	1.74178	-1.40502
O	-0.861543	2.64658	-0.668109
H	-0.583538	3.01295	-3.1052
H	-1.01166	1.28613	-3.42528
H	0.718149	1.75984	-3.16202
N	-0.213662	0.517521	-0.952535
C	-0.324236	0.153544	0.437473
C	0.535338	-1.07426	0.667385
O	0.965612	-1.72704	-0.281603
H	0.112545	-0.203049	-1.55859
H	0.0779838	0.954963	1.04412
C	-1.78974	-0.143519	0.826287
H	-2.19942	-0.965698	0.201547
H	-1.87851	-0.423963	1.89598
H	-2.40916	0.763199	0.652155
N	0.824338	-1.40537	1.9413
C	1.64544	-2.55105	2.25657
H	0.47258	-0.860339	2.69524
H	1.76621	-2.65738	3.35719
H	2.65698	-2.44663	1.80146
H	1.18433	-3.48552	1.86246
C	1034.52	-0.705302	-0.439776
C	1035.72	-0.591481	0.411065
O	1035.65	-0.710204	1.62659
H	1033.63	-0.894651	0.203413
H	1034.63	-1.54867	-1.15303
H	1034.36	0.237119	-1.00464
N	1036.88	-0.348788	-0.220768
C	1038.13	-0.212298	0.47009
C	1039.08	0.549105	-0.435125
O	1038.82	0.71167	-1.6255
H	1036.91	-0.225169	-1.20875
H	1037.98	0.381994	1.36226
C	1038.73	-1.59134	0.827084
H	1038.88	-2.19862	-0.0904036
H	1039.7	-1.48992	1.35928
H	1038.03	-2.13954	1.48943
N	1040.2	1.05476	0.117293
C	1041.16	1.8041	-0.664173
H	1040.39	0.918579	1.08398
H	1042.01	2.13329	-0.03128
H	1040.68	2.70824	-1.10704
H	1041.56	1.18205	-1.49711
