44
  This energy is 1.04653e-319 and Call times are: 4815
C	2.00734	-1.37629	-2.49049
C	1.34208	-0.222543	-1.84435
O	1.5604	0.922584	-2.21517
H	2.68109	-1.00863	-3.2947
H	1.24965	-2.05335	-2.93807
H	2.60983	-1.93737	-1.74543
N	0.505974	-0.504872	-0.842554
C	-0.215252	0.510006	-0.116824
C	-0.626904	-0.0765394	1.21949
O	-0.5637	-1.28791	1.42053
H	0.358774	-1.43973	-0.530616
H	0.44956	1.34155	0.0797123
C	-1.46281	0.980414	-0.89749
H	-2.14231	0.124733	-1.09798
H	-2.0204	1.76198	-0.341596
H	-1.14791	1.40686	-1.8748
N	-1.04003	0.777619	2.17644
C	-1.44026	0.311639	3.48367
H	-1.07736	1.75513	1.99667
H	-1.74826	1.16451	4.12788
H	-0.599934	-0.220832	3.98524
H	-2.29788	-0.394935	3.40353
C	237.775	-0.674903	-3.36751
C	238.255	-0.429417	-1.98884
O	239.436	-0.559389	-1.69756
H	238.633	-0.977608	-4.00651
H	237.324	0.24938	-3.78585
H	237.02	-1.48875	-3.37079
N	237.331	-0.0685471	-1.09495
C	237.644	0.204976	0.28501
C	236.366	0.0649842	1.08883
O	235.272	0.0158214	0.527988
H	236.368	0.00561576	-1.33794
H	238.341	-0.542217	0.64267
C	238.228	1.62478	0.458718
H	237.51	2.38877	0.0901865
H	238.47	1.83864	1.52008
H	239.163	1.71482	-0.135882
N	236.477	-0.024777	2.42884
C	235.315	-0.17213	3.27504
H	237.371	0.00982816	2.86333
H	235.613	-0.226573	4.34538
H	234.758	-1.102	3.01863
H	234.624	0.691661	3.14699
