44
  This energy is 6.45398e-320 and Call times are: 120483
C	1.39867	0.259376	-3.17845
C	1.51747	0.218032	-1.70354
O	2.61164	0.177286	-1.15798
H	2.41459	0.239806	-3.62945
H	0.882968	1.1904	-3.49477
H	0.827322	-0.620855	-3.54136
N	0.373021	0.221826	-1.0161
C	0.325989	0.184998	0.423785
C	-1.04536	-0.316605	0.832471
O	-1.96403	-0.369677	0.0169568
H	-0.512565	0.225785	-1.47289
H	1.05734	-0.528575	0.781584
C	0.583275	1.58225	1.03091
H	-0.168387	2.31194	0.66121
H	0.547923	1.55748	2.13947
H	1.59035	1.93897	0.723189
N	-1.20921	-0.718946	2.10812
C	-2.47621	-1.22265	2.58476
H	-0.451631	-0.674946	2.75106
H	-2.40982	-1.49984	3.65993
H	-2.78197	-2.12564	2.00826
H	-3.27356	-0.453139	2.46956
C	5708.29	-0.593636	-1.48502
C	5706.97	-1.05114	-1.01173
O	5706.57	-2.18374	-1.24546
H	5708.79	-1.41701	-2.04503
H	5708.93	-0.312683	-0.621209
H	5708.18	0.281102	-2.15922
N	5706.24	-0.161988	-0.329229
C	5704.93	-0.458963	0.195913
C	5704.21	0.856095	0.427675
O	5704.83	1.91983	0.415811
H	5706.57	0.766935	-0.170447
H	5704.37	-1.01313	-0.54684
C	5705.02	-1.25452	1.51723
H	5705.6	-0.683395	2.27672
H	5704.02	-1.485	1.92426
H	5705.55	-2.21499	1.33427
N	5702.88	0.81432	0.623393
C	5702.11	2.01695	0.840346
H	5702.4	-0.0557392	0.622304
H	5701.04	1.77456	0.982609
H	5702.2	2.70495	-0.0310972
H	5702.47	2.55655	1.74586
