44
  This energy is 1.34465e-319 and Call times are: 66093
C	-2.35336	2.55777	-0.213641
C	-1.85909	1.21024	-0.575676
O	-2.54703	0.438864	-1.23005
H	-3.37961	2.69368	-0.618853
H	-1.69053	3.33707	-0.645127
H	-2.38517	2.67001	0.890595
N	-0.636298	0.891597	-0.144852
C	-0.0187791	-0.381724	-0.417159
C	1.07384	-0.599133	0.611512
O	1.46932	0.329111	1.31421
H	-0.0973264	1.5178	0.41221
H	-0.754652	-1.16489	-0.285937
C	0.576908	-0.424728	-1.84209
H	1.33094	0.380441	-1.97345
H	1.05306	-1.40385	-2.05513
H	-0.233243	-0.263015	-2.58617
N	1.57387	-1.84404	0.738713
C	2.60815	-2.14835	1.69988
H	1.23563	-2.58333	0.165754
H	2.88667	-3.2241	1.65051
H	2.26157	-1.92319	2.73449
H	3.52039	-1.54042	1.50138
C	3137.99	-0.267066	1.36368
C	3136.98	0.450046	0.562464
O	3137.18	1.58149	0.14531
H	3138.88	0.384271	1.49316
H	3138.3	-1.19912	0.844928
H	3137.58	-0.519463	2.36461
N	3135.83	-0.202825	0.331956
C	3134.75	0.362977	-0.43114
C	3133.48	-0.381188	-0.0615019
O	3133.53	-1.44152	0.558885
H	3135.67	-1.11289	0.701859
H	3134.62	1.39838	-0.142955
C	3135.01	0.246978	-1.9496
H	3135.14	-0.816464	-2.24166
H	3134.18	0.681818	-2.54016
H	3135.94	0.79515	-2.20728
N	3132.31	0.172402	-0.417693
C	3131.05	-0.458073	-0.0981507
H	3132.29	1.03461	-0.913063
H	3130.2	0.149699	-0.476758
H	3130.93	-0.572091	1.00425
H	3130.99	-1.471	-0.558063
