44
  This energy is 9.80869e-320 and Call times are: 109353
C	0.892472	-1.82873	2.82584
C	0.420742	-0.585491	2.17543
O	0.0413551	0.370322	2.83798
H	0.825085	-1.71418	3.92956
H	1.94912	-2.02808	2.54911
H	0.26084	-2.6872	2.51437
N	0.42928	-0.574605	0.840447
C	0.000165676	0.561982	0.0652959
C	-0.351703	0.0712761	-1.32562
O	-0.0157076	-1.05065	-1.70008
H	0.71319	-1.37013	0.311791
H	-0.899805	0.97	0.507618
C	1.106	1.638	-0.0148972
H	2.02801	1.21584	-0.46853
H	0.778856	2.51465	-0.610926
H	1.35552	1.98836	1.01035
N	-1.06006	0.898205	-2.11961
C	-1.45087	0.512198	-3.45544
H	-1.32865	1.79942	-1.79573
H	-2.02463	1.32769	-3.94842
H	-2.09004	-0.399963	-3.42966
H	-0.554502	0.288186	-4.07795
C	5182.19	-2.59143	-0.415601
C	5181.52	-1.35753	-0.886206
O	5181.89	-0.781493	-1.89821
H	5183.02	-2.84501	-1.10775
H	5181.47	-3.43478	-0.397492
H	5182.6	-2.43777	0.603168
N	5180.5	-0.915635	-0.14512
C	5179.75	0.270625	-0.474267
C	5179.07	0.753671	0.788672
O	5178.99	0.0297539	1.77974
H	5180.22	-1.37757	0.693165
H	5180.44	1.04432	-0.791505
C	5178.7	-0.0130139	-1.57323
H	5178	-0.807667	-1.24473
H	5178.13	0.898317	-1.8292
H	5179.22	-0.367225	-2.49259
N	5178.57	2.00478	0.788587
C	5177.91	2.55467	1.9498
H	5178.64	2.5776	-0.0208792
H	5177.56	3.59405	1.75176
H	5178.6	2.57443	2.8225
H	5177.02	1.93934	2.2263
