44
  This energy is 1.25675e-319 and Call times are: 110529
C	-2.03056	-0.0922881	2.82744
C	-1.69684	-0.519822	1.45011
O	-2.32135	-1.41434	0.896642
H	-2.87775	-0.704026	3.20679
H	-2.32827	0.977358	2.83444
H	-1.15558	-0.236515	3.49569
N	-0.683005	0.117991	0.860456
C	-0.240855	-0.185379	-0.47719
C	1.18298	0.315561	-0.62211
O	1.66698	1.08272	0.207969
H	-0.163276	0.825046	1.33257
H	-0.226371	-1.26	-0.607761
C	-1.14885	0.481424	-1.53456
H	-1.16192	1.58374	-1.39726
H	-0.811329	0.249765	-2.56567
H	-2.18914	0.107068	-1.41705
N	1.89722	-0.127197	-1.67559
C	3.26462	0.286247	-1.88886
H	1.49004	-0.753307	-2.33241
H	3.67873	-0.183713	-2.80804
H	3.90371	-0.00960086	-1.02556
H	3.32761	1.39279	-2.00184
C	5235.99	-0.675718	-3.41489
C	5236.55	-0.0510619	-2.1964
O	5237.65	0.49211	-2.21228
H	5236.71	-0.559703	-4.25324
H	5235.03	-0.18235	-3.69158
H	5235.81	-1.75783	-3.2424
N	5235.8	-0.121603	-1.09388
C	5236.21	0.439415	0.168199
C	5235.42	-0.249978	1.26399
O	5234.44	-0.930899	0.99397
H	5234.92	-0.592297	-1.08661
H	5237.26	0.216733	0.327525
C	5235.97	1.96378	0.213623
H	5234.89	2.18868	0.0491457
H	5236.28	2.39902	1.18399
H	5236.55	2.45696	-0.594603
N	5235.86	-0.105741	2.53185
C	5235.18	-0.735096	3.63929
H	5236.66	0.443508	2.72918
H	5235.68	-0.495967	4.59993
H	5235.17	-1.84222	3.51529
H	5234.12	-0.383576	3.70285
