44
  This energy is 1.07118e-319 and Call times are: 46563
C	-1.34386	2.86927	1.44481
C	-0.763282	2.14081	0.294384
O	-0.726273	2.64451	-0.819798
H	-1.70544	3.86408	1.10499
H	-0.574856	3.01617	2.23213
H	-2.19951	2.30045	1.86582
N	-0.294976	0.915651	0.543485
C	0.299026	0.0843203	-0.472822
C	0.230812	-1.35379	0.00301689
O	-0.0318592	-1.61627	1.17517
H	-0.357325	0.505027	1.44926
H	-0.29033	0.159652	-1.37784
C	1.76656	0.486037	-0.741309
H	2.36814	0.408244	0.189369
H	2.22694	-0.151983	-1.52346
H	1.80301	1.54177	-1.08808
N	0.445897	-2.32418	-0.906976
C	0.389659	-3.7222	-0.54845
H	0.649988	-2.09157	-1.85221
H	0.595881	-4.36373	-1.43342
H	-0.617425	-3.9858	-0.151536
H	1.143	-3.95691	0.23804
C	2213.65	0.9377	0.00659496
C	2212.54	0.0882437	0.482536
O	2212.74	-0.874592	1.20908
H	2214.61	0.543449	0.40736
H	2213.52	1.98113	0.361086
H	2213.7	0.927182	-1.10291
N	2211.32	0.429659	0.0707371
C	2210.13	-0.299196	0.449599
C	2209.05	0.0111247	-0.565481
O	2209.17	0.948349	-1.35147
H	2211.17	1.19892	-0.544635
H	2210.34	-1.36035	0.395174
C	2209.66	0.0932317	1.86728
H	2209.45	1.18259	1.91972
H	2208.75	-0.466235	2.16223
H	2210.46	-0.137932	2.60131
N	2207.96	-0.787783	-0.585995
C	2206.89	-0.576318	-1.52559
H	2207.88	-1.54543	0.0534541
H	2206.09	-1.33494	-1.38328
H	2207.26	-0.651905	-2.57296
H	2206.44	0.435163	-1.39017
