44
  This energy is 1.27306e-319 and Call times are: 53409
C	0.341494	-2.65295	2.22966
C	0.0423597	-2.1141	0.88379
O	-0.13101	-2.85845	-0.0713982
H	0.376635	-3.76303	2.18136
H	-0.449122	-2.34936	2.9477
H	1.32498	-2.27724	2.58259
N	-0.0195645	-0.784723	0.777579
C	-0.301453	-0.112196	-0.465431
C	0.208601	1.31119	-0.351145
O	0.518761	1.78195	0.741567
H	0.15234	-0.188246	1.55707
H	0.250756	-0.596635	-1.2607
C	-1.81545	-0.110892	-0.773529
H	-2.37896	0.386236	0.0446615
H	-2.03602	0.406031	-1.73004
H	-2.17701	-1.15923	-0.853606
N	0.328097	2.02552	-1.48756
C	0.816323	3.38483	-1.47783
H	0.0786996	1.62438	-2.36285
H	0.839881	3.8016	-2.50884
H	1.8475	3.42891	-1.05834
H	0.161107	4.03335	-0.852286
C	2531.78	-0.834952	-2.96685
C	2532.15	0.138717	-1.91466
O	2531.88	1.32621	-2.02871
H	2531.26	-0.302456	-3.79577
H	2531.09	-1.60401	-2.55301
H	2532.69	-1.32883	-3.36756
N	2532.79	-0.351518	-0.851996
C	2533.21	0.470683	0.253122
C	2534.32	-0.265556	0.984587
O	2534.53	-1.45741	0.768603
H	2533.03	-1.31611	-0.784217
H	2533.63	1.39159	-0.133398
C	2532.04	0.764254	1.21722
H	2531.62	-0.182681	1.61134
H	2532.37	1.39725	2.06924
H	2531.24	1.30266	0.669083
N	2535.07	0.437872	1.85656
C	2536.15	-0.176031	2.5901
H	2534.89	1.40319	2.01219
H	2536.64	0.565153	3.25678
H	2536.92	-0.583956	1.89177
H	2535.77	-1.01577	3.21764
