44
  This energy is 8.39121e-320 and Call times are: 4017
C	-1.8812	-1.26336	-2.64408
C	-0.874877	-1.42185	-1.57011
O	-0.415392	-2.52068	-1.29097
H	-2.10626	-2.2582	-3.08623
H	-1.48893	-0.596579	-3.44054
H	-2.81786	-0.833557	-2.2307
N	-0.509814	-0.308292	-0.93051
C	0.458761	-0.301622	0.136564
C	0.247314	0.960571	0.949827
O	-0.448825	1.87743	0.517865
H	-0.912964	0.57674	-1.14759
H	0.271924	-1.14695	0.786636
C	1.90195	-0.343684	-0.413477
H	2.08998	0.524568	-1.08049
H	2.65029	-0.338817	0.405509
H	2.04366	-1.27231	-1.00823
N	0.829632	1.02721	2.16328
C	0.674337	2.18452	3.0134
H	1.38334	0.27186	2.49806
H	1.2298	2.04897	3.96752
H	-0.400171	2.35364	3.25439
H	1.06283	3.09832	2.5082
C	195.938	1.15706	-0.38003
C	196.974	0.405292	0.36327
O	196.747	-0.0553647	1.47356
H	195.012	1.2096	0.232652
H	195.706	0.644863	-1.33763
H	196.289	2.18932	-0.588872
N	198.156	0.268504	-0.241932
C	199.262	-0.436723	0.354238
C	200.535	0.0359706	-0.32166
O	200.489	0.680445	-1.36778
H	198.338	0.673413	-1.13407
H	199.327	-0.169065	1.40125
C	199.109	-1.96531	0.189369
H	199.043	-2.2363	-0.885907
H	199.96	-2.51141	0.647428
H	198.173	-2.29881	0.687702
N	201.706	-0.256979	0.276477
C	202.968	0.16205	-0.287511
H	201.722	-0.773338	1.12639
H	203.815	-0.176145	0.34928
H	203.013	1.27227	-0.369247
H	203.104	-0.264947	-1.30752
