44
  This energy is 4.26082e-320 and Call times are: 113595
C	-0.676066	-2.2121	2.60302
C	0.267595	-1.45081	1.75381
O	1.4643	-1.4229	2.00604
H	-0.116036	-2.69356	3.43393
H	-1.17891	-3.00049	2.00434
H	-1.4403	-1.53044	3.03224
N	-0.261602	-0.801262	0.714385
C	0.52803	-0.0183481	-0.202324
C	-0.398721	0.959952	-0.897522
O	-1.61905	0.823964	-0.833152
H	-1.24201	-0.807986	0.536354
H	1.25217	0.557396	0.360004
C	1.2331	-0.914642	-1.24475
H	0.487325	-1.50436	-1.81935
H	1.8421	-0.315023	-1.9521
H	1.90807	-1.62747	-0.722796
N	0.163256	1.98748	-1.56412
C	-0.639976	2.97518	-2.24637
H	1.15254	2.08423	-1.59859
H	0.00571989	3.73721	-2.73589
H	-1.31492	3.49616	-1.52925
H	-1.2716	2.49576	-3.02893
C	5378.24	-1.2031	3.05479
C	5379.15	-0.357554	2.24983
O	5379.9	0.445448	2.78232
H	5378.37	-0.965571	4.13238
H	5378.47	-2.2768	2.89179
H	5377.18	-1.00559	2.77278
N	5379.09	-0.519148	0.925794
C	5379.92	0.230522	0.0110603
C	5379.25	0.19139	-1.352
O	5378.35	-0.603884	-1.58674
H	5378.45	-1.15579	0.502419
H	5379.95	1.264	0.332015
C	5381.34	-0.358731	-0.0746298
H	5381.31	-1.41923	-0.403521
H	5381.98	0.216217	-0.778
H	5381.82	-0.325425	0.930314
N	5379.68	1.07017	-2.28024
C	5379.1	1.11455	-3.60209
H	5380.41	1.71054	-2.06867
H	5379.59	1.90193	-4.21899
H	5378.01	1.33757	-3.54523
H	5379.23	0.135999	-4.11962
