44
  This energy is 1.12336e-319 and Call times are: 65127
C	-2.24185	2.54425	-0.791848
C	-1.90126	1.27486	-0.110793
O	-2.67913	0.749359	0.673592
H	-3.24892	2.87963	-0.461403
H	-2.25549	2.39636	-1.89219
H	-1.49928	3.32843	-0.533765
N	-0.707499	0.750084	-0.397016
C	-0.234534	-0.480268	0.185536
C	1.27715	-0.500209	0.0686713
O	1.8614	0.294474	-0.665468
H	-0.0707693	1.20287	-1.01548
H	-0.483143	-0.489083	1.23919
C	-0.838882	-1.7097	-0.528868
H	-0.582459	-1.69712	-1.6097
H	-0.476918	-2.65876	-0.0827164
H	-1.94658	-1.68275	-0.437058
N	1.94972	-1.40102	0.811765
C	3.39112	-1.48579	0.774705
H	1.45926	-2.03076	1.40514
H	3.75538	-2.28871	1.45285
H	3.84971	-0.522119	1.09451
H	3.74522	-1.71095	-0.257331
C	3091.15	2.41205	0.876386
C	3090.24	1.29663	1.2199
O	3090.25	0.798758	2.33731
H	3091.78	2.66312	1.76181
H	3090.57	3.30842	0.58405
H	3091.82	2.11776	0.0388454
N	3089.43	0.870096	0.246975
C	3088.49	-0.205877	0.428498
C	3088.15	-0.756406	-0.940815
O	3088.44	-0.135913	-1.96096
H	3089.46	1.26453	-0.667689
H	3088.97	-0.999099	0.990579
C	3087.21	0.280619	1.14625
H	3086.73	1.09479	0.567237
H	3086.49	-0.545402	1.28777
H	3087.48	0.682568	2.14747
N	3087.53	-1.95247	-0.994945
C	3087.17	-2.56093	-2.2546
H	3087.3	-2.44235	-0.158472
H	3086.67	-3.54028	-2.0895
H	3088.07	-2.7315	-2.88108
H	3086.47	-1.90309	-2.82461
