44
  This energy is 8.30426e-320 and Call times are: 89319
C	0.467266	-3.00692	-1.693
C	0.734187	-2.09892	-0.554794
O	1.38471	-2.47098	0.412101
H	0.932981	-3.99592	-1.4909
H	0.901414	-2.58914	-2.62563
H	-0.626655	-3.14488	-1.82433
N	0.223251	-0.868818	-0.645071
C	0.397841	0.127361	0.381561
C	-0.697294	1.16311	0.216789
O	-1.37252	1.20609	-0.80988
H	-0.329578	-0.587003	-1.42475
H	0.266852	-0.338646	1.34994
C	1.78499	0.800453	0.282132
H	1.91625	1.27693	-0.712784
H	1.92282	1.56795	1.07127
H	2.57842	0.0310771	0.403239
N	-0.913439	2.01254	1.24038
C	-1.94251	3.02415	1.1784
H	-0.361154	1.95712	2.0657
H	-1.96223	3.62297	2.11556
H	-2.94452	2.55728	1.03966
H	-1.76265	3.71596	0.323872
C	4232.71	-2.58423	-0.33544
C	4231.99	-1.57885	0.478919
O	4232.1	-1.55389	1.69683
H	4233.3	-3.24336	0.334796
H	4233.4	-2.07979	-1.04529
H	4231.99	-3.20651	-0.902494
N	4231.22	-0.717585	-0.188084
C	4230.46	0.317513	0.464693
C	4229.34	0.738591	-0.473593
O	4229.36	0.405233	-1.65701
H	4231.11	-0.766607	-1.1777
H	4230	-0.0915866	1.35638
C	4231.35	1.53275	0.814487
H	4231.81	1.94953	-0.102467
H	4230.76	2.3316	1.31738
H	4232.16	1.21089	1.50127
N	4228.33	1.46749	0.042014
C	4227.22	1.90357	-0.772701
H	4228.34	1.72112	1.00373
H	4226.5	2.49138	-0.167521
H	4226.69	1.02885	-1.20828
H	4227.58	2.5435	-1.61225
