44
  This energy is 3.71537e-321 and Call times are: 124557
C	2.17286	-0.463983	-2.68133
C	1.87189	-0.479942	-1.23206
O	2.67549	-0.924635	-0.424002
H	3.17894	-0.904894	-2.85239
H	2.16833	0.579206	-3.06154
H	1.41929	-1.06232	-3.23547
N	0.683986	0.00840089	-0.867696
C	0.247989	0.0605478	0.504899
C	-1.26493	0.162042	0.50964
O	-1.8796	0.438638	-0.518707
H	0.0261807	0.340993	-1.53823
H	0.517009	-0.866547	0.994999
C	0.863829	1.26878	1.24519
H	0.586395	2.21813	0.739358
H	0.530318	1.31187	2.3024
H	1.97229	1.18321	1.23366
N	-1.9042	-0.0825444	1.67046
C	-3.34397	-0.0210783	1.76773
H	-1.38941	-0.311806	2.49001
H	-3.67834	-0.251324	2.80331
H	-3.8162	-0.755342	1.07556
H	-3.71316	0.994774	1.49769
C	5895.5	-2.80034	-2.00958
C	5895.03	-1.81592	-1.00964
O	5893.87	-1.79572	-0.643285
H	5894.65	-3.44159	-2.32368
H	5896.3	-3.44369	-1.56973
H	5895.91	-2.27665	-2.90164
N	5895.95	-0.960237	-0.543872
C	5895.64	0.0544649	0.432567
C	5896.71	1.12847	0.338508
O	5897.75	0.926405	-0.28079
H	5896.89	-0.967994	-0.871809
H	5894.69	0.510258	0.180558
C	5895.6	-0.532805	1.86113
H	5896.58	-1.00017	2.11612
H	5895.37	0.245789	2.61546
H	5894.82	-1.31907	1.91656
N	5896.46	2.31012	0.936776
C	5897.41	3.39567	0.890037
H	5895.6	2.45659	1.42704
H	5897.02	4.28111	1.44155
H	5897.61	3.69844	-0.16348
H	5898.38	3.09031	1.3503
