44
  This energy is 6.44706e-320 and Call times are: 88563
C	0.143078	-2.03325	-2.8234
C	0.399572	-0.752077	-2.12768
O	1.05014	0.137156	-2.65921
H	0.627141	-2.0112	-3.82392
H	-0.948864	-2.18478	-2.95576
H	0.564915	-2.87764	-2.23858
N	-0.110592	-0.631538	-0.899851
C	0.0539118	0.554586	-0.0980555
C	-0.170296	0.171624	1.35188
O	-0.680927	-0.907749	1.64521
H	-0.614014	-1.37425	-0.466398
H	1.07427	0.90406	-0.19197
C	-0.942613	1.6588	-0.516096
H	-1.98836	1.29667	-0.419164
H	-0.818581	2.57359	0.0991724
H	-0.76884	1.92956	-1.58035
N	0.22913	1.04431	2.29786
C	0.0671781	0.760254	3.70472
H	0.646796	1.90949	2.04043
H	0.454908	1.59996	4.32262
H	0.620201	-0.165464	3.98482
H	-1.00807	0.608813	3.95391
C	4196.87	-2.17	-1.1557
C	4195.92	-1.05124	-1.35752
O	4195.92	-0.396748	-2.39101
H	4197.52	-2.26655	-2.05214
H	4196.31	-3.12051	-1.01051
H	4197.5	-1.97571	-0.267996
N	4195.07	-0.800805	-0.353862
C	4194.09	0.254299	-0.401893
C	4193.7	0.586978	1.02333
O	4194	-0.163594	1.95036
H	4195.1	-1.32247	0.494752
H	4194.55	1.13787	-0.83156
C	4192.85	-0.170207	-1.21418
H	4192.39	-1.0773	-0.771027
H	4192.09	0.639948	-1.25331
H	4193.15	-0.41235	-2.25584
N	4193.03	1.73866	1.23384
C	4192.62	2.14409	2.55864
H	4192.8	2.33608	0.471435
H	4192.08	3.1177	2.52399
H	4193.51	2.25557	3.22571
H	4191.94	1.38507	3.01018
