44
  This energy is 8.90405e-320 and Call times are: 70839
C	-2.13013	2.56466	-1.00557
C	-1.6307	1.1745	-1.10166
O	-2.19323	0.347556	-1.80608
H	-3.03549	2.67443	-1.64129
H	-1.35404	3.27533	-1.35975
H	-2.39773	2.80357	0.0452695
N	-0.547741	0.882095	-0.377744
C	0.0555699	-0.426621	-0.367415
C	0.885412	-0.547141	0.895943
O	1.15948	0.447224	1.56524
H	-0.115744	1.55678	0.214807
H	-0.726176	-1.17408	-0.320029
C	0.94612	-0.6453	-1.61088
H	1.7466	0.123625	-1.65672
H	1.41211	-1.65208	-1.60619
H	0.326749	-0.553289	-2.52961
N	1.28806	-1.77933	1.26417
C	2.07185	-1.9927	2.45847
H	1.05003	-2.57232	0.713054
H	2.30498	-3.07255	2.58812
H	1.51786	-1.64309	3.35964
H	3.03222	-1.43066	2.40397
C	3363.13	0.994865	-1.91759
C	3362.1	1.25589	-0.890468
O	3362.11	2.28409	-0.227777
H	3363.85	1.84563	-1.94358
H	3362.66	0.891352	-2.91735
H	3363.69	0.0652587	-1.67359
N	3361.17	0.310642	-0.730503
C	3360.1	0.420686	0.228632
C	3359.58	-0.975751	0.507999
O	3359.88	-1.91786	-0.220866
H	3361.19	-0.535673	-1.25622
H	3360.5	0.815088	1.15527
C	3358.96	1.31694	-0.302034
H	3358.55	0.909772	-1.25306
H	3358.13	1.40395	0.434074
H	3359.35	2.3366	-0.503889
N	3358.79	-1.14522	1.58992
C	3358.26	-2.44098	1.94167
H	3358.56	-0.371664	2.17141
H	3357.64	-2.37396	2.86105
H	3359.08	-3.16684	2.12864
H	3357.63	-2.84252	1.11779
