44
  This energy is 6.84775e-320 and Call times are: 88731
C	0.990672	-0.692331	3.26579
C	-0.0342879	-0.645269	2.19881
O	-1.14796	-1.1216	2.37006
H	0.570052	-1.20737	4.15667
H	1.29035	0.337186	3.55407
H	1.8831	-1.2522	2.91498
N	0.328919	-0.0646073	1.05283
C	-0.557558	0.0576035	-0.0767992
C	0.292074	0.264892	-1.31551
O	1.4833	0.55401	-1.21953
H	1.24852	0.29371	0.915439
H	-1.09921	-0.871497	-0.201139
C	-1.5353	1.24064	0.100872
H	-0.976269	2.19207	0.228831
H	-2.21944	1.33752	-0.767083
H	-2.15098	1.07735	1.01215
N	-0.300158	0.0993357	-2.51461
C	0.432453	0.264264	-3.74841
H	-1.26346	-0.141624	-2.57127
H	-0.22905	0.0880341	-4.62511
H	1.28185	-0.454829	-3.8001
H	0.84782	1.29524	-3.8241
C	4199.9	2.31224	0.733012
C	4200.81	1.64019	-0.218947
O	4200.73	1.83806	-1.42319
H	4199.2	2.95993	0.169563
H	4200.48	2.94261	1.43927
H	4199.32	1.55765	1.30354
N	4201.72	0.812307	0.310178
C	4202.67	0.0866046	-0.486951
C	4203.16	-1.09658	0.328582
O	4202.94	-1.16132	1.53596
H	4201.76	0.637171	1.29032
H	4202.18	-0.301661	-1.36659
C	4203.87	0.981641	-0.885197
H	4204.38	1.37878	0.0195817
H	4204.61	0.426033	-1.49919
H	4203.5	1.84522	-1.48105
N	4203.82	-2.07584	-0.32121
C	4204.31	-3.24627	0.370485
H	4203.98	-2.00838	-1.29978
H	4204.82	-3.93368	-0.335438
H	4203.46	-3.80003	0.846914
H	4205.03	-2.95862	1.1699
