44
  This energy is 3.33494e-321 and Call times are: 19137
C	1.37013	0.970951	-3.0506
C	1.40837	0.891403	-1.57296
O	2.39675	1.24665	-0.945746
H	2.33717	1.37452	-3.42183
H	0.550514	1.64546	-3.37632
H	1.21184	-0.0388499	-3.48441
N	0.315536	0.409326	-0.976572
C	0.201817	0.271576	0.453436
C	-0.884878	-0.746806	0.738446
O	-1.65944	-1.10408	-0.147129
H	-0.472163	0.0960199	-1.50031
H	1.13177	-0.121656	0.844103
C	-0.145239	1.62023	1.12262
H	-1.09946	2.02109	0.719028
H	-0.233405	1.5178	2.22376
H	0.657809	2.35784	0.90538
N	-0.952949	-1.25627	1.98416
C	-1.94702	-2.24007	2.34492
H	-0.312556	-0.959672	2.68499
H	-1.8409	-2.53308	3.41269
H	-1.83993	-3.15491	1.71814
H	-2.97381	-1.83548	2.19265
C	913.059	-3.22277	-0.629569
C	912.422	-2.21739	0.250626
O	911.932	-2.53715	1.32471
H	912.992	-4.22424	-0.151568
H	914.129	-2.97033	-0.787254
H	912.539	-3.25726	-1.61017
N	912.411	-0.959584	-0.196772
C	911.829	0.129204	0.546159
C	911.524	1.24898	-0.429886
O	911.997	1.23942	-1.56487
H	912.788	-0.716661	-1.08661
H	910.89	-0.199082	0.973437
C	912.785	0.632233	1.65023
H	913.748	0.9676	1.20846
H	912.34	1.4705	2.22433
H	913.001	-0.197561	2.35797
N	910.704	2.23459	-0.0145406
C	910.349	3.33591	-0.878636
H	910.326	2.22066	0.90525
H	909.668	4.04263	-0.354874
H	909.833	2.96609	-1.79431
H	911.258	3.89558	-1.19675
