44
  This energy is 5.24154e-320 and Call times are: 50553
C	-3.09253	-1.50717	0.539282
C	-1.74326	-1.48612	-0.0691919
O	-1.30659	-2.45612	-0.673262
H	-3.56487	-2.49579	0.351184
H	-3.72714	-0.714454	0.0901816
H	-3.02071	-1.34592	1.63554
N	-1.04061	-0.361482	0.0851942
C	0.286461	-0.189316	-0.449652
C	0.959356	0.927684	0.324146
O	0.303735	1.67403	1.04869
H	-1.39595	0.411238	0.604399
H	0.854374	-1.09532	-0.280242
C	0.245756	0.156748	-1.95488
H	-0.338188	1.08634	-2.12512
H	1.26594	0.289847	-2.36995
H	-0.250507	-0.668655	-2.51037
N	2.29559	1.05443	0.204115
C	3.02387	2.08116	0.912362
H	2.80928	0.436121	-0.381593
H	4.11046	2.02265	0.681825
H	2.89249	1.96788	2.01288
H	2.65803	3.09299	0.623326
C	2397.85	2.22879	2.63684
C	2397.06	1.69669	1.50351
O	2395.93	2.091	1.28454
H	2397.25	2.97897	3.18787
H	2398.78	2.7191	2.26292
H	2398.13	1.40728	3.33197
N	2397.66	0.769019	0.749967
C	2397.02	0.157497	-0.387284
C	2397.72	-1.15589	-0.66761
O	2398.81	-1.41101	-0.148046
H	2398.57	0.43498	0.956046
H	2395.99	-0.0679746	-0.133446
C	2397.09	1.07256	-1.63033
H	2398.14	1.3024	-1.88752
H	2396.59	0.604811	-2.50781
H	2396.57	2.03167	-1.41171
N	2397.11	-2.03342	-1.48411
C	2397.7	-3.31409	-1.79907
H	2396.23	-1.81142	-1.88909
H	2397.04	-3.89071	-2.48673
H	2397.85	-3.91506	-0.873301
H	2398.69	-3.18084	-2.29052
