44
  This energy is 1.336e-319 and Call times are: 47571
C	1.9356	2.88245	-0.26655
C	1.68617	1.52758	0.275032
O	2.53352	0.945574	0.938176
H	2.95592	3.21286	0.0260921
H	1.19417	3.60052	0.142707
H	1.86564	2.87069	-1.37466
N	0.498801	0.985881	-0.00619037
C	0.109611	-0.324436	0.450349
C	-1.01069	-0.81619	-0.445383
O	-1.59811	-0.0427498	-1.19942
H	-0.171832	1.45824	-0.571933
H	0.946374	-1.00114	0.332142
C	-0.362219	-0.290476	1.92118
H	-1.22028	0.405204	2.03896
H	-0.662497	-1.29781	2.27598
H	0.466966	0.0725084	2.56681
N	-1.31892	-2.12721	-0.39831
C	-2.36311	-2.68806	-1.22372
H	-0.827169	-2.73828	0.213257
H	-2.46613	-3.78016	-1.03946
H	-2.13537	-2.53476	-2.30347
H	-3.34118	-2.20165	-1.00472
C	2256.38	2.64106	1.20313
C	2257.16	1.39964	1.40821
O	2257.4	0.987061	2.53279
H	2256.1	3.07079	2.1914
H	2255.45	2.41981	0.638242
H	2256.98	3.38474	0.642485
N	2257.57	0.770859	0.305889
C	2258.34	-0.448091	0.34333
C	2259.06	-0.586207	-0.98404
O	2258.74	0.11177	-1.94586
H	2257.39	1.13271	-0.604191
H	2259.09	-0.366816	1.11827
C	2257.43	-1.67603	0.586894
H	2256.66	-1.75599	-0.209562
H	2258.02	-2.6163	0.616452
H	2256.91	-1.56213	1.56164
N	2260.06	-1.48087	-1.06002
C	2260.81	-1.67292	-2.27928
H	2260.31	-2.03119	-0.268573
H	2261.59	-2.45213	-2.14144
H	2261.31	-0.725705	-2.58649
H	2260.14	-1.99322	-3.10801
