44
  This energy is 1.00903e-319 and Call times are: 96627
C	3.44566	-0.190242	-0.466203
C	2.22175	0.554405	-0.0937355
O	2.28607	1.67954	0.3821
H	4.33816	0.430983	-0.235123
H	3.43857	-0.418944	-1.5527
H	3.50794	-1.13727	0.110171
N	1.06078	-0.0714285	-0.300745
C	-0.214306	0.523492	0.0107896
C	-1.22854	-0.594984	0.150748
O	-0.968749	-1.7316	-0.239689
H	1.02287	-0.999367	-0.661894
H	-0.144054	1.02544	0.967444
C	-0.65954	1.50944	-1.09229
H	-0.729926	0.991337	-2.07246
H	-1.64092	1.96946	-0.85552
H	0.0922475	2.32321	-1.18575
N	-2.40678	-0.300902	0.734928
C	-3.42878	-1.30427	0.921823
H	-2.59528	0.623212	1.0507
H	-4.32326	-0.866898	1.41766
H	-3.04936	-2.13822	1.5557
H	-3.74435	-1.73112	-0.0576692
C	4579.05	-2.73638	0.0253322
C	4577.8	-2.05877	0.441397
O	4576.94	-2.65525	1.06819
H	4579.03	-3.7942	0.366279
H	4579.93	-2.23279	0.480641
H	4579.15	-2.71744	-1.08076
N	4577.68	-0.776812	0.0899986
C	4576.52	0.0160782	0.422427
C	4576.47	1.19058	-0.535292
O	4577.45	1.47704	-1.23064
H	4578.38	-0.310215	-0.445788
H	4575.63	-0.577387	0.262536
C	4576.59	0.522165	1.88076
H	4577.51	1.13004	2.04145
H	4575.7	1.13292	2.14011
H	4576.63	-0.347632	2.57226
N	4575.32	1.8878	-0.609105
C	4575.18	3.01438	-1.50128
H	4574.54	1.63592	-0.0434059
H	4574.16	3.45571	-1.41519
H	4575.34	2.70098	-2.5587
H	4575.92	3.80519	-1.26047
