44
  This energy is 1.99751e-320 and Call times are: 13719
C	0.235805	-3.36444	-0.86663
C	-0.361291	-2.01895	-1.02256
O	-1.15083	-1.77805	-1.92539
H	-0.146452	-4.03123	-1.66983
H	-0.0411049	-3.79398	0.119089
H	1.34172	-3.30404	-0.945656
N	0.0145304	-1.09672	-0.133392
C	-0.479805	0.256795	-0.154696
C	0.501196	1.12319	0.610962
O	1.36437	0.615487	1.32441
H	0.680729	-1.29746	0.579924
H	-0.499447	0.608139	-1.17853
C	-1.88375	0.352985	0.483125
H	-1.86008	-0.00886709	1.53318
H	-2.26745	1.39381	0.468237
H	-2.5927	-0.286952	-0.0860992
N	0.403874	2.45899	0.462051
C	1.3022	3.36257	1.1423
H	-0.296862	2.85026	-0.125407
H	1.0602	4.41928	0.893213
H	2.35759	3.16524	0.844871
H	1.22527	3.23607	2.2465
C	652.102	1.54192	-1.57099
C	653.389	0.812374	-1.61295
O	653.852	0.40573	-2.66997
H	651.691	1.62204	-2.60101
H	652.254	2.56383	-1.16444
H	651.373	0.996383	-0.935109
N	654.002	0.623319	-0.442069
C	655.261	-0.0680354	-0.321337
C	655.393	-0.548875	1.11066
O	654.647	-0.119461	1.98916
H	653.601	0.933914	0.415529
H	655.245	-0.941064	-0.961384
C	656.446	0.854372	-0.683408
H	656.458	1.74929	-0.0253159
H	657.417	0.325156	-0.591658
H	656.337	1.20073	-1.73426
N	656.337	-1.47364	1.37506
C	656.528	-1.99903	2.70685
H	656.925	-1.81391	0.649139
H	657.351	-2.7462	2.7204
H	655.599	-2.49503	3.0705
H	656.784	-1.18144	3.41892
