44
  This energy is 1.54761e-319 and Call times are: 24765
C	-2.90115	0.407901	-1.8823
C	-2.00828	-0.405844	-1.02685
O	-2.3509	-1.50893	-0.623994
H	-3.85102	-0.144297	-2.0517
H	-2.41857	0.602128	-2.86323
H	-3.13081	1.37422	-1.38589
N	-0.825742	0.133573	-0.72188
C	0.150205	-0.53618	0.100182
C	1.09007	0.51508	0.657628
O	1.1047	1.65411	0.194779
H	-0.570067	1.04531	-1.03221
H	-0.354801	-1.00263	0.936525
C	0.945501	-1.58333	-0.711045
H	1.46176	-1.10151	-1.56862
H	1.69776	-2.10103	-0.0810625
H	0.245622	-2.34701	-1.11492
N	1.88561	0.160244	1.68584
C	2.80412	1.09763	2.289
H	1.8539	-0.764349	2.05102
H	3.37007	0.616333	3.11683
H	2.25531	1.97436	2.70301
H	3.53479	1.47193	1.53587
C	1177.75	2.04959	1.8189
C	1178.14	0.729408	1.27356
O	1177.53	-0.286482	1.5835
H	1176.88	1.92354	2.50347
H	1177.46	2.73391	0.994051
H	1178.6	2.49296	2.38673
N	1179.18	0.715782	0.439479
C	1179.68	-0.491222	-0.172006
C	1181.11	-0.240827	-0.602461
O	1181.56	0.901171	-0.641891
H	1179.69	1.54602	0.217568
H	1179.69	-1.28123	0.568132
C	1178.82	-0.897759	-1.39105
H	1178.81	-0.0847686	-2.14804
H	1179.2	-1.82685	-1.86419
H	1177.77	-1.07717	-1.06268
N	1181.87	-1.31221	-0.915923
C	1183.24	-1.17194	-1.32503
H	1181.48	-2.22878	-0.8709
H	1183.69	-2.1663	-1.54125
H	1183.84	-0.683161	-0.523539
H	1183.32	-0.545782	-2.24339
