44
  This energy is 1.02054e-319 and Call times are: 96669
C	-0.362151	0.444338	3.43475
C	0.472291	0.341818	2.2164
O	1.67277	0.574583	2.25049
H	0.275254	0.753369	4.29154
H	-0.823506	-0.538697	3.6663
H	-1.16072	1.202	3.28924
N	-0.158538	-0.00940466	1.09343
C	0.517594	-0.151102	-0.171325
C	-0.520771	-0.0354707	-1.27026
O	-1.72069	-0.105385	-1.01118
H	-1.14207	-0.168028	1.07263
H	1.21561	0.667776	-0.290836
C	1.24679	-1.50963	-0.270229
H	0.527859	-2.34745	-0.14652
H	1.76861	-1.62198	-1.24279
H	2.00382	-1.58243	0.540795
N	-0.0803264	0.167237	-2.52761
C	-0.995952	0.301503	-3.63657
H	0.894402	0.228078	-2.71586
H	-0.441245	0.460508	-4.5875
H	-1.67845	1.16804	-3.47984
H	-1.62044	-0.614841	-3.74384
C	4580.64	-2.87252	0.929313
C	4580.41	-1.72378	0.0232754
O	4581.19	-1.47007	-0.882785
H	4581.57	-3.39123	0.638278
H	4579.79	-3.58964	0.85501
H	4580.73	-2.52021	1.9781
N	4579.32	-0.989157	0.256771
C	4578.97	0.159113	-0.538882
C	4578.03	1.02341	0.281601
O	4577.5	0.585733	1.30306
H	4578.71	-1.18878	1.01609
H	4579.86	0.738569	-0.737013
C	4578.28	-0.260601	-1.85947
H	4577.37	-0.85543	-1.65251
H	4578.01	0.621135	-2.47463
H	4578.98	-0.894164	-2.45072
N	4577.81	2.28607	-0.137802
C	4576.95	3.18585	0.585886
H	4578.26	2.62391	-0.962958
H	4576.9	4.17629	0.0819203
H	4577.32	3.33895	1.62503
H	4575.91	2.77259	0.645833
