44
  This energy is 2.46588e-320 and Call times are: 68235
C	-2.41001	2.15214	1.29857
C	-1.37252	1.10906	1.46235
O	-1.0022	0.754109	2.57292
H	-2.73583	2.50661	2.30059
H	-3.28843	1.73695	0.761149
H	-2.00107	3.0127	0.728367
N	-0.869233	0.591759	0.339202
C	0.146001	-0.43104	0.336118
C	0.832766	-0.401741	-1.01545
O	0.340306	0.216196	-1.9575
H	-1.15829	0.910037	-0.559732
H	0.888104	-0.192459	1.08741
C	-0.462098	-1.82797	0.592876
H	-1.22346	-2.06921	-0.179292
H	0.316901	-2.61786	0.591312
H	-0.963168	-1.83597	1.58535
N	2.00487	-1.05581	-1.13535
C	2.73657	-1.07317	-2.38053
H	2.39053	-1.54404	-0.359376
H	3.67321	-1.66431	-2.27805
H	3.00757	-0.0382127	-2.69144
H	2.12208	-1.52745	-3.19122
C	3233.29	0.449381	-1.49702
C	3234.17	-0.203639	-0.507298
O	3233.72	-0.952389	0.348539
H	3232.24	0.145942	-1.30463
H	3233.57	0.139307	-2.52545
H	3233.37	1.55366	-1.41013
N	3235.48	0.0759892	-0.601632
C	3236.46	-0.482478	0.288828
C	3237.69	0.410303	0.246565
O	3237.82	1.25621	-0.636085
H	3235.83	0.710353	-1.28498
H	3236.08	-0.462147	1.29966
C	3236.84	-1.92291	-0.122741
H	3237.24	-1.94018	-1.16047
H	3237.6	-2.356	0.560901
H	3235.93	-2.56654	-0.0888674
N	3238.61	0.255753	1.21904
C	3239.8	1.06903	1.26706
H	3238.48	-0.429478	1.92853
H	3240.43	0.789551	2.1389
H	3239.54	2.14783	1.35663
H	3240.4	0.936826	0.339974
