44
  This energy is 1.43971e-319 and Call times are: 111285
C	-0.297588	-2.61282	-2.28271
C	0.329573	-1.35475	-1.81889
O	1.31338	-0.893669	-2.38105
H	0.268079	-3.00514	-3.15561
H	-1.34813	-2.42604	-2.5898
H	-0.279077	-3.3714	-1.47205
N	-0.233305	-0.766496	-0.760825
C	0.262521	0.462146	-0.193884
C	-0.243573	0.55468	1.23249
O	-1.141	-0.185708	1.63034
H	-1.01691	-1.16737	-0.293698
H	1.34377	0.42163	-0.157298
C	-0.211251	1.68798	-1.00628
H	-1.32092	1.72608	-1.04234
H	0.168865	2.63571	-0.572565
H	0.164973	1.60763	-2.04942
N	0.339587	1.45756	2.04534
C	-0.068192	1.60876	3.42267
H	1.06911	2.04262	1.70662
H	0.528193	2.40232	3.92451
H	0.0755279	0.6559	3.98182
H	-1.14518	1.88685	3.48548
C	5271.38	0.168572	3.43902
C	5271.26	-0.523502	2.13632
O	5270.83	-1.66977	2.06642
H	5271.05	-0.514341	4.25067
H	5270.74	1.07798	3.4509
H	5272.44	0.455548	3.62156
N	5271.63	0.168741	1.059
C	5271.57	-0.368865	-0.276672
C	5272.52	0.430862	-1.14517
O	5272.99	1.49994	-0.75149
H	5272	1.09144	1.13193
H	5271.92	-1.39279	-0.260392
C	5270.14	-0.291807	-0.848438
H	5269.78	0.759923	-0.863068
H	5270.09	-0.705071	-1.87673
H	5269.45	-0.880554	-0.202714
N	5272.86	-0.0832695	-2.34562
C	5273.76	0.601585	-3.23554
H	5272.48	-0.953227	-2.64318
H	5273.91	0.0202853	-4.17265
H	5274.76	0.740758	-2.75161
H	5273.37	1.60721	-3.50466
