44
  This energy is 8.58735e-320 and Call times are: 70713
C	-0.470862	-0.183086	-3.44542
C	0.251675	-0.557049	-2.20877
O	1.11962	-1.41906	-2.2194
H	-0.0944157	-0.798636	-4.29114
H	-0.301344	0.889265	-3.67812
H	-1.5591	-0.367016	-3.3235
N	-0.101806	0.0910996	-1.09642
C	0.510054	-0.161951	0.183587
C	-0.44123	0.325275	1.25918
O	-1.39279	1.05037	0.975302
H	-0.830599	0.770654	-1.09512
H	0.630971	-1.23026	0.310735
C	1.86977	0.560792	0.309805
H	1.74213	1.65646	0.178181
H	2.34372	0.367964	1.29416
H	2.55712	0.195976	-0.484299
N	-0.216675	-0.0826167	2.52378
C	-1.07665	0.320826	3.61183
H	0.554551	-0.675095	2.73214
H	-0.725991	-0.115798	4.5729
H	-2.12232	-0.0195495	3.4331
H	-1.08734	1.43018	3.71383
C	3352.58	0.616264	-2.90505
C	3353.53	-0.193393	-2.11339
O	3353.94	-1.27418	-2.52105
H	3352.34	0.0777669	-3.8459
H	3353.03	1.59783	-3.16053
H	3351.65	0.778833	-2.32863
N	3353.92	0.318904	-0.941421
C	3354.84	-0.350452	-0.0596578
C	3354.65	0.21466	1.33396
O	3354.01	1.24986	1.50896
H	3353.56	1.18678	-0.607136
H	3354.59	-1.40378	-0.0249532
C	3356.3	-0.147663	-0.516225
H	3356.55	0.934049	-0.551346
H	3357.02	-0.661886	0.160441
H	3356.43	-0.56472	-1.53877
N	3355.18	-0.468916	2.3656
C	3355.04	-0.0135975	3.72874
H	3355.69	-1.30839	2.20407
H	3355.54	-0.709309	4.43154
H	3353.96	0.045187	4.01182
H	3355.48	0.999729	3.85381
