44
  This energy is 8.17036e-320 and Call times are: 9981
C	0.560724	1.20595	3.21829
C	0.560474	0.113609	2.2193
O	1.03613	-0.982715	2.48066
H	1.04351	0.848181	4.15359
H	-0.480783	1.51533	3.44714
H	1.12862	2.07826	2.83164
N	0.0222457	0.397012	1.03087
C	-0.0514688	-0.561814	-0.0424662
C	-0.215782	0.203993	-1.34084
O	-0.515078	1.39655	-1.33368
H	-0.3357	1.30283	0.820388
H	0.884759	-1.10283	-0.0958948
C	-1.23493	-1.53555	0.153425
H	-2.19371	-0.977137	0.208483
H	-1.29453	-2.27529	-0.671197
H	-1.10332	-2.08949	1.1084
N	-0.00093275	-0.463387	-2.49169
C	-0.122447	0.186311	-3.77594
H	0.247448	-1.42635	-2.47631
H	0.0910675	-0.529199	-4.60038
H	0.593307	1.03638	-3.85548
H	-1.15208	0.587512	-3.91762
C	480.106	-3.14647	-1.46022
C	480.67	-1.99274	-0.724061
O	481.799	-2.03239	-0.25528
H	480.854	-3.96893	-1.48261
H	479.863	-2.8531	-2.50319
H	479.186	-3.51029	-0.955272
N	479.879	-0.924292	-0.600175
C	480.287	0.274276	0.0883632
C	479.035	1.03155	0.486488
O	477.943	0.738148	0.00406666
H	478.951	-0.915102	-0.961326
H	480.807	-0.00150515	0.996731
C	481.182	1.16042	-0.806672
H	480.645	1.44092	-1.73795
H	481.498	2.08409	-0.279543
H	482.095	0.593883	-1.09239
N	479.163	2.01539	1.39845
C	478.024	2.78269	1.84707
H	480.054	2.23296	1.78243
H	478.334	3.54484	2.59568
H	477.264	2.11842	2.3174
H	477.542	3.30776	0.990911
