44
  This energy is 6.30131e-320 and Call times are: 50973
C	-0.0317604	-3.42076	-0.650767
C	0.424196	-2.0438	-0.946182
O	1.29288	-1.83048	-1.78067
H	0.535048	-4.1388	-1.28244
H	-1.11447	-3.52166	-0.875203
H	0.147995	-3.66259	0.417948
N	-0.158688	-1.0642	-0.251201
C	0.178082	0.325981	-0.426744
C	-0.252599	1.07095	0.821766
O	-1.00342	0.544043	1.64059
H	-0.844397	-1.25323	0.446656
H	1.25334	0.41959	-0.511179
C	-0.521558	0.921737	-1.6688
H	-1.62447	0.823423	-1.57915
H	-0.264309	1.99202	-1.80702
H	-0.198654	0.366666	-2.57642
N	0.233778	2.31397	1.00703
C	-0.111578	3.09465	2.17213
H	0.845771	2.72017	0.336434
H	0.386311	4.08882	2.14107
H	0.206472	2.57235	3.10342
H	-1.21272	3.25538	2.22531
C	2413.99	-0.696376	-0.108616
C	2415.33	-0.648628	-0.737103
O	2415.52	-1.12623	-1.8462
H	2413.28	-1.21315	-0.792147
H	2413.62	0.332975	0.0813391
H	2414.04	-1.2549	0.849939
N	2416.3	-0.0659029	-0.026188
C	2417.65	0.0572137	-0.503515
C	2418.55	0.267149	0.69836
O	2418.08	0.557202	1.79542
H	2416.13	0.293457	0.888392
H	2417.94	-0.872189	-0.975382
C	2417.8	1.23909	-1.48816
H	2417.49	2.19083	-1.00102
H	2418.84	1.33667	-1.85777
H	2417.13	1.07386	-2.36345
N	2419.88	0.102871	0.522401
C	2420.81	0.270332	1.61192
H	2420.24	-0.138877	-0.371469
H	2421.85	0.0948295	1.26693
H	2420.59	-0.447911	2.43397
H	2420.75	1.3018	2.02823
