44
  This energy is 2.22873e-320 and Call times are: 37407
C	2.22112	-2.54817	-0.836402
C	1.68522	-1.17936	-1.01067
O	2.23889	-0.37192	-1.74414
H	3.14212	-2.66269	-1.44837
H	1.47262	-3.2974	-1.16991
H	2.47352	-2.72763	0.229916
N	0.579806	-0.883318	-0.323075
C	-0.0598464	0.40638	-0.389051
C	-0.918634	0.564471	0.850597
O	-1.17862	-0.403506	1.56282
H	0.154649	-1.54044	0.293668
H	0.699608	1.17752	-0.363621
C	-0.930284	0.538254	-1.65872
H	-1.7079	-0.254777	-1.68191
H	-1.42416	1.53019	-1.71276
H	-0.289752	0.419387	-2.55969
N	-1.363	1.80104	1.14967
C	-2.17692	2.04979	2.31664
H	-1.13585	2.5727	0.564714
H	-2.4427	3.12751	2.38826
H	-1.63212	1.76075	3.24449
H	-3.11992	1.45827	2.27151
C	1773.12	2.67055	1.35483
C	1773.93	2.05803	0.275856
O	1774.1	2.63072	-0.79216
H	1772.74	3.65574	1.01188
H	1773.75	2.82376	2.26001
H	1772.26	2.0167	1.60673
N	1774.45	0.856814	0.534774
C	1775.26	0.134598	-0.414903
C	1775.24	-1.33124	-0.0276492
O	1774.82	-1.68363	1.07385
H	1774.28	0.387791	1.39787
H	1774.81	0.222816	-1.39678
C	1776.71	0.656811	-0.428041
H	1777.17	0.565445	0.580946
H	1777.34	0.102992	-1.15831
H	1776.72	1.73176	-0.71197
N	1775.67	-2.22575	-0.939205
C	1775.67	-3.6436	-0.663768
H	1775.99	-1.92129	-1.82765
H	1776.06	-4.2129	-1.53575
H	1774.64	-4.00303	-0.444421
H	1776.31	-3.87136	0.21921
