44
  This energy is 1.16812e-319 and Call times are: 103557
C	-1.82886	-2.5401	1.52621
C	-1.5713	-1.62094	0.394834
O	-2.19339	-1.71884	-0.653933
H	-2.62177	-3.26406	1.23807
H	-2.17043	-1.96759	2.41412
H	-0.905344	-3.10127	1.78146
N	-0.627598	-0.695986	0.585258
C	-0.264527	0.269054	-0.421572
C	1.12375	0.783776	-0.0944642
O	1.62989	0.57122	1.00575
H	-0.107518	-0.645015	1.4337
H	-0.213424	-0.22718	-1.38241
C	-1.26941	1.44185	-0.46495
H	-1.31982	1.94825	0.52254
H	-0.992922	2.18671	-1.23923
H	-2.28257	1.05151	-0.70428
N	1.78318	1.45828	-1.05686
C	3.11427	1.97548	-0.840371
H	1.35936	1.6138	-1.9431
H	3.48476	2.50025	-1.74845
H	3.82226	1.14969	-0.599429
H	3.12257	2.69624	0.00911124
C	4903.74	2.45836	2.12226
C	4904.56	1.24963	1.87007
O	4905.28	0.783442	2.73826
H	4903.92	2.81254	3.16067
H	4902.66	2.22298	2.00401
H	4904.03	3.26542	1.41359
N	4904.46	0.711398	0.652244
C	4905.19	-0.465422	0.256671
C	4905.26	-0.48487	-1.25803
O	4904.54	0.252403	-1.92883
H	4903.89	1.11745	-0.0556545
H	4906.21	-0.391669	0.630155
C	4904.51	-1.75186	0.774693
H	4903.47	-1.82398	0.390172
H	4905.07	-2.6599	0.472019
H	4904.47	-1.72481	1.8853
N	4906.15	-1.3191	-1.83352
C	4906.29	-1.39725	-3.26864
H	4906.73	-1.9026	-1.27327
H	4907.07	-2.14108	-3.54618
H	4906.59	-0.408174	-3.68854
H	4905.33	-1.70182	-3.7435
