44
  This energy is 3.61261e-320 and Call times are: 62145
C	-2.84327	1.63421	1.17103
C	-2.09974	0.401632	0.825885
O	-2.55191	-0.704307	1.08844
H	-3.79618	1.35976	1.67353
H	-3.07528	2.21126	0.251245
H	-2.2419	2.2638	1.86017
N	-0.919685	0.569696	0.224565
C	-0.0807562	-0.532711	-0.172581
C	1.33486	-0.0104417	-0.322608
O	1.55809	1.19803	-0.362569
H	-0.548926	1.47648	0.0423073
H	-0.0761111	-1.27354	0.616861
C	-0.561369	-1.15457	-1.50278
H	-0.565539	-0.391658	-2.31028
H	0.0822987	-2.00381	-1.81143
H	-1.59984	-1.53226	-1.38004
N	2.33137	-0.91529	-0.387555
C	3.71177	-0.510989	-0.518707
H	2.13097	-1.88862	-0.346319
H	4.37983	-1.39952	-0.557096
H	4.01957	0.121853	0.345016
H	3.86121	0.0806703	-1.4508
C	2945	-1.43571	-2.61558
C	2945.6	-0.264372	-1.93593
O	2945.62	0.835854	-2.47041
H	2944.62	-1.12684	-3.61357
H	2944.16	-1.83512	-2.0169
H	2945.77	-2.23012	-2.75196
N	2946.12	-0.481466	-0.72382
C	2946.73	0.558453	0.0614941
C	2947.64	-0.102715	1.08318
O	2947.56	-1.30938	1.3056
H	2946.12	-1.38855	-0.311368
H	2947.36	1.16573	-0.584114
C	2945.67	1.4273	0.774102
H	2945.04	0.801024	1.43507
H	2946.14	2.22912	1.37957
H	2945.02	1.90508	0.0149337
N	2948.54	0.674216	1.71576
C	2949.45	0.130207	2.69568
H	2948.59	1.64722	1.51671
H	2950.11	0.926884	3.10357
H	2950.09	-0.658167	2.24018
H	2948.89	-0.327858	3.54226
