44
  This energy is 6.21633e-320 and Call times are: 44841
C	3.34739	-0.95974	0.00170079
C	2.1573	-0.386725	0.669936
O	2.16868	-0.121673	1.86413
H	4.16148	-1.08786	0.747825
H	3.69998	-0.279048	-0.801518
H	3.10124	-1.95038	-0.435326
N	1.08465	-0.185785	-0.0990982
C	-0.147409	0.364997	0.406368
C	-1.25845	-0.0242369	-0.549308
O	-0.999908	-0.472106	-1.66483
H	1.07829	-0.432935	-1.0644
H	-0.366428	-0.085218	1.36627
C	-0.067213	1.90301	0.52966
H	0.158265	2.36156	-0.456752
H	-1.01419	2.33037	0.918731
H	0.751083	2.17515	1.23143
N	-2.52868	0.118406	-0.122478
C	-3.65129	-0.237422	-0.958727
H	-2.71718	0.475885	0.786317
H	-4.61133	-0.046002	-0.430588
H	-3.61091	-1.31667	-1.23229
H	-3.64427	0.357923	-1.90037
C	2127.45	-2.12075	-2.62781
C	2127.69	-1.85978	-1.18996
O	2127.43	-2.70574	-0.343558
H	2127.03	-3.14251	-2.75153
H	2128.4	-2.05436	-3.19043
H	2126.73	-1.38321	-3.03735
N	2128.18	-0.659293	-0.878442
C	2128.46	-0.258089	0.476482
C	2128.5	1.25733	0.51616
O	2128.55	1.91222	-0.522935
H	2128.35	0.0318725	-1.5745
H	2127.65	-0.585728	1.11671
C	2129.81	-0.832858	0.963274
H	2130.64	-0.495294	0.30384
H	2130.03	-0.525996	2.00626
H	2129.77	-1.94349	0.928316
N	2128.44	1.85244	1.72392
C	2128.46	3.29037	1.85921
H	2128.39	1.3052	2.55276
H	2128.4	3.58512	2.93052
H	2127.59	3.74397	1.32872
H	2129.39	3.71654	1.4227
