44
  This energy is 2.28999e-320 and Call times are: 55551
C	-1.21494	-3.20155	-0.632562
C	-0.570386	-1.94357	-1.07215
O	-0.101739	-1.83232	-2.19665
H	-1.17534	-3.9431	-1.45984
H	-2.27696	-3.01502	-0.367725
H	-0.6821	-3.6172	0.248494
N	-0.5276	-0.954655	-0.176281
C	0.066281	0.328268	-0.455998
C	0.407108	0.982678	0.8687
O	-0.0496393	0.543797	1.92255
H	-0.886916	-1.06751	0.746266
H	0.992305	0.177091	-0.996089
C	-0.895538	1.22964	-1.26194
H	-1.84474	1.3821	-0.705258
H	-0.441348	2.21823	-1.47918
H	-1.13839	0.738596	-2.22943
N	1.24067	2.0413	0.846783
C	1.6309	2.72104	2.05999
H	1.60541	2.37703	-0.0154751
H	2.31832	3.56574	1.83377
H	2.15202	2.02087	2.7524
H	0.737739	3.12737	2.58757
C	2634.76	-2.33449	2.25736
C	2634.42	-1.9064	0.881878
O	2634.74	-2.57898	-0.087902
H	2635.32	-3.29463	2.21543
H	2633.83	-2.48318	2.85204
H	2635.39	-1.56945	2.74989
N	2633.75	-0.754649	0.766896
C	2633.35	-0.207555	-0.504392
C	2633.11	1.27821	-0.31777
O	2633.02	1.76358	0.808215
H	2633.52	-0.201303	1.56274
H	2634.16	-0.324123	-1.21017
C	2632.07	-0.889657	-1.0303
H	2631.24	-0.768709	-0.303502
H	2631.75	-0.470888	-2.0091
H	2632.25	-1.97766	-1.16164
N	2633.03	2.04164	-1.42502
C	2632.81	3.46782	-1.34497
H	2633.11	1.63118	-2.32708
H	2632.77	3.91682	-2.36176
H	2633.64	3.95782	-0.779409
H	2631.85	3.69285	-0.822249
