44
  This energy is 6.01525e-320 and Call times are: 15231
C	-2.64696	2.08119	-0.887899
C	-1.86546	1.32613	0.117257
O	-2.09996	1.43505	1.31293
H	-3.40611	2.70606	-0.369156
H	-3.16684	1.37984	-1.57394
H	-1.97674	2.7436	-1.47523
N	-0.899115	0.535187	-0.354922
C	-0.0546351	-0.261885	0.498516
C	1.20558	-0.597433	-0.27512
O	1.26203	-0.422866	-1.49092
H	-0.698719	0.477317	-1.32931
H	0.234711	0.329043	1.35826
C	-0.767161	-1.55916	0.9418
H	-1.0632	-2.16263	0.0573196
H	-0.119783	-2.1752	1.5992
H	-1.68918	-1.29976	1.50636
N	2.25892	-1.06951	0.420297
C	3.5044	-1.40495	-0.229665
H	2.19587	-1.19705	1.40467
H	4.24644	-1.77735	0.510567
H	3.93482	-0.512246	-0.738656
H	3.34648	-2.19715	-0.996908
C	727.352	0.478546	-3.40479
C	727.263	0.985119	-2.01671
O	727.586	2.13236	-1.7403
H	727.741	1.28351	-4.06544
H	726.347	0.17231	-3.76502
H	728.042	-0.390169	-3.45209
N	726.822	0.122974	-1.09781
C	726.681	0.46841	0.294166
C	726.676	-0.818899	1.09544
O	726.527	-1.90517	0.538832
H	726.59	-0.817773	-1.33055
H	727.544	1.0445	0.60295
C	725.378	1.25789	0.548495
H	724.494	0.664243	0.22997
H	725.266	1.52562	1.6193
H	725.393	2.19795	-0.0449679
N	726.861	-0.727066	2.42712
C	726.883	-1.90005	3.26962
H	726.986	0.160594	2.85787
H	727.045	-1.61736	4.33315
H	727.702	-2.5897	2.96164
H	725.919	-2.45431	3.19692
