44
  This energy is 1.76134e-320 and Call times are: 19641
C	-0.565856	-2.3598	-2.49746
C	-0.294253	-1.99507	-1.08877
O	-0.311212	-2.83816	-0.202529
H	-0.773075	-3.45015	-2.56114
H	0.315352	-2.12393	-3.13043
H	-1.45017	-1.80334	-2.87335
N	-0.0393578	-0.706825	-0.848323
C	0.243614	-0.198895	0.470298
C	-0.0335374	1.29187	0.464722
O	-0.182226	1.89964	-0.593741
H	-0.0571615	-0.0247632	-1.57455
H	-0.43623	-0.657217	1.17728
C	1.71147	-0.464875	0.872507
H	2.40617	0.0061366	0.144731
H	1.93273	-0.0751817	1.88738
H	1.90202	-1.56024	0.871651
N	-0.13136	1.91395	1.65613
C	-0.404912	3.3291	1.74945
H	-0.0149769	1.40331	2.50167
H	-0.445235	3.65253	2.81294
H	-1.38145	3.57282	1.27174
H	0.388124	3.91758	1.23374
C	933.828	0.630038	2.72708
C	934.734	1.08467	1.64784
O	934.892	2.27506	1.41469
H	933.37	1.51523	3.219
H	934.397	0.0519819	3.48547
H	933.021	-0.00610938	2.30695
N	935.353	0.128766	0.951126
C	936.264	0.413939	-0.128525
C	936.358	-0.824953	-0.997662
O	935.929	-1.9062	-0.599938
H	935.193	-0.838085	1.13164
H	935.852	1.21059	-0.735117
C	937.663	0.798602	0.402625
H	938.082	-0.020611	1.02503
H	938.366	1.01898	-0.426073
H	937.579	1.70671	1.03868
N	936.907	-0.689835	-2.22095
C	937.029	-1.81154	-3.12271
H	937.243	0.195022	-2.52727
H	937.507	-1.49888	-4.07701
H	936.027	-2.2382	-3.35637
H	937.649	-2.6169	-2.66688
