44
  This energy is 2.20897e-320 and Call times are: 43329
C	1.01499	-0.470888	-3.2976
C	1.30535	-0.347907	-1.85131
O	2.42629	-0.562081	-1.41073
H	1.94031	-0.775139	-3.8334
H	0.669135	0.503384	-3.70257
H	0.232255	-1.24004	-3.46692
N	0.2815	0.000255163	-1.06844
C	0.40755	0.160217	0.358219
C	-0.97636	0.0350738	0.965154
O	-1.98021	0.0846409	0.256871
H	-0.633699	0.143608	-1.43558
H	1.01305	-0.646905	0.750644
C	1.02367	1.53056	0.718334
H	0.400334	2.35627	0.313647
H	1.12229	1.65697	1.81609
H	2.0366	1.61023	0.266928
N	-1.06019	-0.15305	2.29691
C	-2.33483	-0.294846	2.96126
H	-0.236002	-0.197498	2.85187
H	-2.19422	-0.439357	4.05515
H	-2.89127	-1.17288	2.56041
H	-2.9625	0.612262	2.80516
C	2055.83	2.90304	-1.86483
C	2056.58	2.10168	-0.870453
O	2057.65	2.48901	-0.422401
H	2056.4	3.82998	-2.09332
H	2054.84	3.18338	-1.45947
H	2055.7	2.32279	-2.80212
N	2056.02	0.944214	-0.502994
C	2056.63	0.0555726	0.455003
C	2056.05	-1.32698	0.24545
O	2055.04	-1.4846	-0.439156
H	2055.17	0.625974	-0.897009
H	2057.69	-0.00396498	0.255108
C	2056.37	0.528157	1.90319
H	2055.28	0.58875	2.10462
H	2056.84	-0.153758	2.64341
H	2056.81	1.54242	2.04347
N	2056.68	-2.36888	0.816244
C	2056.2	-3.72293	0.661648
H	2057.5	-2.22152	1.36066
H	2056.86	-4.43656	1.20656
H	2056.19	-4.0133	-0.413828
H	2055.17	-3.8224	1.06229
