44
  This energy is 3.53603e-320 and Call times are: 93855
C	-3.1777	-0.798094	1.17957
C	-2.24248	0.0977561	0.462617
O	-2.64761	1.07771	-0.147351
H	-4.21684	-0.425716	1.0477
H	-2.93669	-0.814516	2.2633
H	-3.11045	-1.82823	0.770609
N	-0.949149	-0.228837	0.517254
C	0.0803875	0.544842	-0.129509
C	1.29137	-0.349679	-0.310015
O	1.37461	-1.42256	0.284812
H	-0.634729	-1.04594	0.993093
H	-0.263774	0.835183	-1.11405
C	0.45822	1.7883	0.70605
H	0.810212	1.48683	1.71567
H	1.25061	2.38638	0.210866
H	-0.437527	2.43475	0.83209
N	2.2536	0.0644185	-1.15775
C	3.43718	-0.726602	-1.40188
H	2.16445	0.932399	-1.63513
H	4.10864	-0.216149	-2.12702
H	3.16457	-1.72334	-1.81835
H	4.00241	-0.890536	-0.455935
C	4446.91	0.20348	-2.83323
C	4446.73	0.0323178	-1.374
O	4447.67	-0.266415	-0.651116
H	4447.98	0.0133882	-3.09669
H	4446.65	1.23943	-3.13252
H	4446.27	-0.515652	-3.38522
N	4445.5	0.215621	-0.903723
C	4445.17	0.0846588	0.492383
C	4443.67	-0.160112	0.594777
O	4442.94	0.0313511	-0.371317
H	4444.73	0.430159	-1.50686
H	4445.67	-0.785078	0.894096
C	4445.55	1.35419	1.28398
H	4445.03	2.2446	0.868785
H	4445.3	1.25668	2.35938
H	4446.65	1.52311	1.20009
N	4443.19	-0.612856	1.76975
C	4441.79	-0.885526	1.95685
H	4443.81	-0.768371	2.53753
H	4441.59	-1.24762	2.99011
H	4441.44	-1.66465	1.24047
H	4441.18	0.0345008	1.78685
