44
  This energy is 3.52615e-320 and Call times are: 106749
C	0.261652	-3.39083	0.74827
C	0.792946	-2.0093	0.765665
O	1.81299	-1.73158	1.38119
H	0.920829	-4.04555	1.35876
H	0.23524	-3.77749	-0.292222
H	-0.762615	-3.41255	1.17646
N	0.0966187	-1.09754	0.0828896
C	0.48725	0.287476	0.00567393
C	-0.738451	1.09697	-0.370637
O	-1.75116	0.543723	-0.795097
H	-0.748753	-1.33042	-0.390449
H	0.811091	0.616839	0.984817
C	1.6052	0.499177	-1.03954
H	1.26983	0.159618	-2.04271
H	1.90849	1.56452	-1.10147
H	2.49692	-0.0999469	-0.753137
N	-0.681395	2.43273	-0.201847
C	-1.80394	3.28343	-0.521829
H	0.144671	2.86086	0.149659
H	-1.56083	4.34921	-0.31625
H	-2.69475	3.00362	0.085951
H	-2.07602	3.18704	-1.59787
C	5055.85	-3.03608	-1.70475
C	5055.17	-1.87533	-1.09449
O	5053.96	-1.7122	-1.22642
H	5055.11	-3.65408	-2.25525
H	5056.33	-3.65914	-0.916313
H	5056.63	-2.68957	-2.41707
N	5055.93	-1.02687	-0.406414
C	5055.41	0.14787	0.244519
C	5056.56	1.11248	0.45861
O	5057.73	0.739786	0.331832
H	5056.92	-1.15509	-0.330663
H	5054.7	0.627245	-0.414109
C	5054.75	-0.204245	1.59785
H	5055.49	-0.69646	2.2708
H	5054.35	0.697996	2.10168
H	5053.91	-0.912266	1.42749
N	5056.26	2.38824	0.768885
C	5057.29	3.38005	0.979239
H	5055.31	2.67199	0.859943
H	5056.84	4.36687	1.22639
H	5057.91	3.49877	0.0641337
H	5057.96	3.08007	1.81752
