44
  This energy is 3.50144e-320 and Call times are: 81045
C	-2.81582	1.84765	-0.885146
C	-2.09538	0.92796	0.0238892
O	-2.57089	0.604606	1.10363
H	-3.77652	2.15086	-0.415072
H	-3.03165	1.34125	-1.8494
H	-2.20542	2.75589	-1.07347
N	-0.909214	0.48467	-0.399033
C	-0.0905338	-0.415468	0.373199
C	1.33598	-0.292147	-0.125901
O	1.58353	0.276539	-1.18757
H	-0.519486	0.778385	-1.26781
H	-0.104648	-0.102564	1.40952
C	-0.576846	-1.87558	0.236522
H	-0.561725	-2.19308	-0.827941
H	0.0512377	-2.57133	0.830001
H	-1.62327	-1.95235	0.604295
N	2.3145	-0.806713	0.644628
C	3.70335	-0.725865	0.256391
H	2.09447	-1.25679	1.50384
H	4.35368	-1.2074	1.01957
H	4.01943	0.336831	0.146773
H	3.86924	-1.23778	-0.719111
C	3841.52	2.4736	1.92668
C	3841.53	1.15029	1.26343
O	3842.55	0.475306	1.21737
H	3842.53	2.69512	2.32329
H	3840.79	2.4724	2.76945
H	3841.23	3.26379	1.19934
N	3840.38	0.747885	0.721392
C	3840.23	-0.515029	0.042603
C	3839.02	-0.419696	-0.864591
O	3838.21	0.502086	-0.743931
H	3839.56	1.31965	0.740105
H	3841.1	-0.679891	-0.583469
C	3840.05	-1.67594	1.04644
H	3839.16	-1.50323	1.68753
H	3839.94	-2.64987	0.527136
H	3840.95	-1.73441	1.70585
N	3838.87	-1.36485	-1.81402
C	3837.76	-1.34885	-2.73109
H	3839.54	-2.09867	-1.90024
H	3837.81	-2.20889	-3.43422
H	3837.75	-0.408029	-3.32781
H	3836.79	-1.41131	-2.17746
