44
  This energy is 1.20009e-319 and Call times are: 11451
C	2.22174	1.037	2.47277
C	1.26831	0.0555526	1.90804
O	1.11674	-1.04542	2.4193
H	2.71954	0.595044	3.36313
H	1.68441	1.95819	2.7818
H	2.99568	1.29587	1.71981
N	0.598464	0.438751	0.818621
C	-0.363238	-0.40501	0.155279
C	-0.523198	0.098851	-1.26591
O	-0.0905886	1.20199	-1.59417
H	0.752162	1.32728	0.39456
H	0.0286588	-1.41295	0.104777
C	-1.72609	-0.384362	0.882826
H	-2.1249	0.651256	0.933426
H	-2.4689	-1.03313	0.37478
H	-1.59516	-0.754527	1.92301
N	-1.13333	-0.712766	-2.15192
C	-1.31985	-0.322717	-3.53005
H	-1.47013	-1.60468	-1.86857
H	-1.84255	-1.12356	-4.09811
H	-0.338101	-0.129229	-4.01992
H	-1.92813	0.608304	-3.59618
C	550.573	2.67588	-2.09019
C	549.658	1.96783	-1.16613
O	548.621	2.48856	-0.780508
H	550.154	3.67918	-2.32349
H	550.681	2.10299	-3.03516
H	551.57	2.80287	-1.61923
N	550.034	0.746066	-0.780694
C	549.25	-0.0664799	0.11495
C	550.171	-1.10218	0.730664
O	551.288	-1.30819	0.261224
H	550.896	0.34444	-1.07882
H	548.873	0.556356	0.916214
C	548.088	-0.763065	-0.628489
H	548.479	-1.40066	-1.45023
H	547.483	-1.38943	0.0582321
H	547.422	0.00630034	-1.07593
N	549.727	-1.76595	1.81642
C	550.539	-2.76145	2.47707
H	548.823	-1.57988	2.18554
H	549.999	-3.19493	3.34737
H	551.49	-2.31254	2.84349
H	550.795	-3.58845	1.77583
