44
  This energy is 9.76768e-320 and Call times are: 34341
C	3.27124	0.481395	1.09243
C	1.80701	0.543008	1.30084
O	1.33495	0.827276	2.39301
H	3.78845	0.718089	2.04759
H	3.57973	1.22099	0.323883
H	3.56888	-0.537117	0.765343
N	1.0449	0.267218	0.239939
C	-0.395353	0.286381	0.285953
C	-0.909585	-0.549957	-0.869617
O	-0.159328	-0.889238	-1.78276
H	1.4413	0.008537	-0.636923
H	-0.724342	-0.183563	1.2041
C	-0.942288	1.72771	0.183308
H	-0.602317	2.20706	-0.759435
H	-2.05098	1.74614	0.218575
H	-0.557425	2.33035	1.0347
N	-2.20468	-0.921571	-0.844581
C	-2.77976	-1.72833	-1.89558
H	-2.79388	-0.64294	-0.093287
H	-3.85581	-1.92636	-1.6952
H	-2.25199	-2.7064	-1.9735
H	-2.69549	-1.21125	-2.87879
C	1631.26	3.44329	-0.271239
C	1630.86	2.05143	-0.581701
O	1629.82	1.80839	-1.17916
H	1630.48	4.14071	-0.654127
H	1632.23	3.68231	-0.757659
H	1631.35	3.57857	0.826801
N	1631.69	1.09173	-0.169883
C	1631.44	-0.30929	-0.397701
C	1632.26	-1.0972	0.609774
O	1633.15	-0.555514	1.25602
H	1632.52	1.30095	0.34148
H	1630.4	-0.515949	-0.208892
C	1631.83	-0.723217	-1.83477
H	1632.9	-0.509207	-2.02527
H	1631.64	-1.80137	-2.01364
H	1631.23	-0.138155	-2.56319
N	1631.95	-2.39763	0.782722
C	1632.66	-3.22391	1.72857
H	1631.22	-2.81584	0.255389
H	1632.26	-4.2621	1.72319
H	1632.56	-2.8155	2.76033
H	1633.75	-3.26384	1.47614
