44
  This energy is 6.40556e-320 and Call times are: 3261
C	-0.455692	-2.41885	-2.46326
C	0.393093	-1.69838	-1.48771
O	1.5383	-2.06104	-1.25648
H	0.115587	-3.2735	-2.88643
H	-0.749883	-1.73869	-3.2901
H	-1.36743	-2.80834	-1.96329
N	-0.162784	-0.647378	-0.880458
C	0.536688	0.153379	0.0923503
C	-0.498453	0.882742	0.926468
O	-1.67217	0.937963	0.564302
H	-1.10639	-0.379508	-1.05592
H	1.0906	-0.500712	0.75373
C	1.48112	1.16863	-0.589133
H	0.909687	1.83761	-1.2674
H	2.02142	1.78676	0.157044
H	2.23383	0.621894	-1.19796
N	-0.0884043	1.44387	2.08102
C	-1.0055	2.1485	2.94624
H	0.864206	1.38214	2.36023
H	-0.477783	2.53869	3.8443
H	-1.82297	1.47225	3.28634
H	-1.46913	3.0084	2.41069
C	164.071	-1.36438	3.08312
C	164.398	-0.595273	1.86116
O	165.467	-0.0128047	1.74719
H	164.92	-1.29537	3.79807
H	163.901	-2.43183	2.82928
H	163.161	-0.949678	3.56479
N	163.463	-0.572186	0.907824
C	163.634	0.132751	-0.337411
C	162.258	0.387033	-0.921741
O	161.271	-0.199224	-0.48262
H	162.584	-1.02654	1.02466
H	164.09	1.09441	-0.137637
C	164.492	-0.68186	-1.33175
H	164.022	-1.66806	-1.53392
H	164.625	-0.141904	-2.29159
H	165.496	-0.862448	-0.891485
N	162.159	1.28944	-1.91764
C	160.889	1.60537	-2.52732
H	162.969	1.7586	-2.25429
H	161.015	2.3679	-3.32721
H	160.178	2.00729	-1.76906
H	160.432	0.695072	-2.97948
