44
  This energy is 1.54544e-320 and Call times are: 43077
C	-3.06342	1.55467	-0.569727
C	-1.74948	1.4765	0.107521
O	-1.34989	2.38715	0.819937
H	-3.54873	2.52295	-0.319183
H	-3.719	0.725553	-0.229717
H	-2.93105	1.4932	-1.67047
N	-1.0356	0.369348	-0.109158
C	0.260728	0.147384	0.479985
C	0.97884	-0.896043	-0.35357
O	0.366478	-1.5727	-1.17757
H	-1.3593	-0.35264	-0.714869
H	0.833988	1.06411	0.424682
C	0.138727	-0.333449	1.94321
H	-0.450504	-1.27372	1.99633
H	1.13506	-0.505182	2.39994
H	-0.390056	0.439061	2.54301
N	2.30691	-1.03524	-0.172299
C	3.07642	-1.99479	-0.929465
H	2.78559	-0.473296	0.494268
H	4.14853	-1.9591	-0.635257
H	3.0052	-1.78215	-2.02077
H	2.69872	-3.02805	-0.753683
C	2042.35	-1.54187	-2.43612
C	2042.5	-0.811527	-1.15721
O	2041.52	-0.403516	-0.544325
H	2041.27	-1.62116	-2.69027
H	2042.77	-2.56411	-2.34448
H	2042.87	-0.997418	-3.25097
N	2043.74	-0.623327	-0.723704
C	2044.05	0.0686381	0.502932
C	2045.49	0.548069	0.422055
O	2046.25	0.117309	-0.444404
H	2044.53	-0.935046	-1.24673
H	2043.42	0.942321	0.581519
C	2043.87	-0.852699	1.72943
H	2044.52	-1.74829	1.6452
H	2044.1	-0.323011	2.67563
H	2042.81	-1.19803	1.77671
N	2045.89	1.47311	1.31598
C	2047.23	1.99723	1.30824
H	2045.26	1.81447	2.00493
H	2047.37	2.74487	2.12058
H	2047.46	2.49231	0.335456
H	2047.98	1.17905	1.45736
