44
  This energy is 1.47103e-319 and Call times are: 42027
C	-0.714193	-3.24233	1.05041
C	-1.00413	-2.04769	0.225798
O	-1.87416	-2.06849	-0.633913
H	-1.38542	-4.07315	0.742093
H	-0.889537	-3.01812	2.12363
H	0.340078	-3.55992	0.906901
N	-0.263896	-0.964034	0.470956
C	-0.428277	0.273922	-0.248259
C	0.853134	1.07134	-0.102131
O	1.69597	0.758523	0.736681
H	0.461569	-0.968621	1.15405
H	-0.561198	0.0547838	-1.30011
C	-1.62449	1.08619	0.296169
H	-1.48516	1.30867	1.37562
H	-1.75402	2.03996	-0.255488
H	-2.55675	0.490732	0.184483
N	1.03926	2.11365	-0.935758
C	2.23405	2.92319	-0.878306
H	0.348648	2.34646	-1.61258
H	2.1988	3.73104	-1.6421
H	3.1392	2.30164	-1.06709
H	2.34186	3.39413	0.125569
C	1992.83	-1.3867	2.43014
C	1993.29	-1.26957	1.03043
O	1992.89	-2.0317	0.162915
H	1992.11	-2.23383	2.50881
H	1992.31	-0.452671	2.74157
H	1993.69	-1.57861	3.106
N	1994.18	-0.298624	0.778656
C	1994.72	-0.059518	-0.533441
C	1996.01	0.714119	-0.366044
O	1996.3	1.24165	0.708105
H	1994.52	0.297229	1.49976
H	1994.96	-1.00972	-0.992311
C	1993.74	0.738177	-1.41606
H	1993.49	1.71209	-0.942008
H	1994.15	0.923912	-2.42713
H	1992.79	0.16138	-1.53001
N	1996.84	0.780901	-1.42555
C	1998.1	1.48551	-1.35594
H	1996.6	0.341354	-2.28398
H	1998.64	1.42781	-2.32821
H	1998.76	1.04573	-0.567902
H	1997.94	2.55945	-1.10894
