44
  This energy is 4.29887e-320 and Call times are: 81381
C	-1.71252	2.7697	-1.23376
C	-1.01693	2.04876	-0.143982
O	-0.776003	2.59582	0.923341
H	-1.93561	3.80755	-0.903657
H	-2.66645	2.25885	-1.48249
H	-1.06885	2.81057	-2.13762
N	-0.668674	0.78498	-0.396842
C	0.0132966	-0.0450119	0.563812
C	0.695721	-1.16835	-0.192263
O	0.41062	-1.40031	-1.36561
H	-0.844626	0.359835	-1.28071
H	0.783784	0.539843	1.04999
C	-0.970318	-0.625683	1.60422
H	-1.75978	-1.22453	1.10197
H	-0.448494	-1.26516	2.34553
H	-1.46449	0.207163	2.15039
N	1.63441	-1.8814	0.460756
C	2.34537	-2.96203	-0.181855
H	1.85601	-1.67364	1.40784
H	3.07367	-3.42556	0.519542
H	2.90344	-2.59077	-1.07178
H	1.63649	-3.75078	-0.523223
C	3858.63	-0.529704	-2.22571
C	3857.73	-0.983137	-1.13806
O	3857.74	-2.14257	-0.748216
H	3859.24	-1.38646	-2.57518
H	3859.3	0.271283	-1.85677
H	3858.03	-0.145265	-3.07886
N	3856.91	-0.0630809	-0.620809
C	3855.98	-0.351921	0.442668
C	3854.9	0.709801	0.417297
O	3855.05	1.74042	-0.237251
H	3856.89	0.871075	-0.966854
H	3855.51	-1.30694	0.248394
C	3856.69	-0.359839	1.8178
H	3857.17	0.621164	2.01356
H	3855.98	-0.582075	2.63891
H	3857.48	-1.14091	1.82306
N	3853.77	0.470682	1.11676
C	3852.68	1.41872	1.14177
H	3853.67	-0.372514	1.63435
H	3851.85	1.04178	1.7727
H	3852.29	1.596	0.113404
H	3853.02	2.39598	1.5557
