44
  This energy is 3.0642e-320 and Call times are: 68487
C	-2.44835	-0.428496	2.43887
C	-1.68547	-0.903856	1.26276
O	-1.81458	-2.04621	0.844596
H	-3.08873	-1.25375	2.8193
H	-3.09624	0.427123	2.1543
H	-1.7525	-0.112903	3.24456
N	-0.855534	-0.0232122	0.698803
C	-0.0466178	-0.337397	-0.451749
C	1.10415	0.649034	-0.49562
O	1.08816	1.66476	0.197107
H	-0.737537	0.895377	1.06651
H	0.373342	-1.3274	-0.326865
C	-0.868635	-0.253151	-1.75724
H	-1.29854	0.763593	-1.88185
H	-0.248861	-0.494636	-2.64513
H	-1.70909	-0.979609	-1.71208
N	2.14551	0.359273	-1.30036
C	3.29107	1.23353	-1.39811
H	2.14287	-0.471185	-1.84768
H	4.03902	0.823348	-2.11195
H	3.78196	1.35044	-0.404827
H	2.98503	2.24424	-1.75306
C	3251.62	0.179054	1.31937
C	3250.42	0.808948	0.719194
O	3250.32	2.02519	0.632698
H	3252.33	0.971999	1.64463
H	3252.12	-0.469962	0.573526
H	3251.33	-0.428924	2.2024
N	3249.47	-0.0204224	0.290013
C	3248.24	0.441915	-0.316567
C	3247.22	-0.666626	-0.196866
O	3247.55	-1.80766	0.111029
H	3249.55	-1.0084	0.392595
H	3247.87	1.2939	0.240355
C	3248.46	0.810594	-1.80174
H	3248.84	-0.0655196	-2.36996
H	3247.52	1.16713	-2.27184
H	3249.21	1.62272	-1.87592
N	3245.92	-0.348909	-0.417869
C	3244.88	-1.33598	-0.315026
H	3245.67	0.581678	-0.658956
H	3243.88	-0.880791	-0.534516
H	3244.84	-1.7691	0.710924
H	3245.05	-2.16811	-1.03577
