44
  This energy is 1.31629e-319 and Call times are: 53577
C	2.68591	-1.56107	1.57323
C	1.23356	-1.34207	1.38906
O	0.410541	-2.03921	1.96623
H	2.84344	-2.41205	2.271
H	3.15845	-0.652474	2.00215
H	3.16335	-1.80124	0.599932
N	0.882971	-0.354915	0.561426
C	-0.49053	-0.0206042	0.281145
C	-0.52673	0.73946	-1.03043
O	0.505499	1.18751	-1.52599
H	1.56287	0.187019	0.0746164
H	-1.05489	-0.93474	0.147263
C	-1.10196	0.838737	1.41022
H	-0.520146	1.77541	1.54531
H	-2.15954	1.09783	1.19769
H	-1.06842	0.271281	2.36574
N	-1.72164	0.883657	-1.63656
C	-1.8516	1.58198	-2.89419
H	-2.54441	0.507668	-1.22315
H	-2.91234	1.59552	-3.22869
H	-1.24146	1.08632	-3.68368
H	-1.501	2.635	-2.79714
C	2543.38	-2.58917	1.23109
C	2542.87	-1.20047	1.2879
O	2543.13	-0.469592	2.23383
H	2543.98	-2.79812	2.14373
H	2544.02	-2.72339	0.338221
H	2542.53	-3.30602	1.1853
N	2542.11	-0.803124	0.260667
C	2541.55	0.518747	0.172766
C	2540.38	0.460505	-0.789694
O	2540.21	-0.511876	-1.52467
H	2541.88	-1.41733	-0.48994
H	2541.16	0.801074	1.14384
C	2542.59	1.54666	-0.320342
H	2542.98	1.25359	-1.31648
H	2542.15	2.5656	-0.389036
H	2543.44	1.57896	0.392548
N	2539.51	1.49784	-0.791367
C	2538.37	1.52467	-1.66521
H	2539.66	2.27221	-0.184049
H	2537.78	2.46075	-1.51952
H	2537.7	0.658829	-1.45938
H	2538.68	1.47073	-2.7322
