44
  This energy is 6.16446e-320 and Call times are: 75837
C	0.575763	-2.89046	1.85469
C	1.03792	-1.62855	1.23405
O	2.1651	-1.19912	1.43787
H	1.39045	-3.31015	2.48398
H	0.311925	-3.62911	1.06882
H	-0.311099	-2.69982	2.49507
N	0.159004	-0.994515	0.45438
C	0.461625	0.243439	-0.218465
C	-0.851097	0.922578	-0.557238
O	-1.91317	0.306689	-0.490008
H	-0.766062	-1.33947	0.31949
H	1.00099	0.890703	0.46139
C	1.28072	-0.00145345	-1.50541
H	0.724734	-0.666375	-2.2003
H	1.5156	0.949696	-2.02591
H	2.23926	-0.500393	-1.24385
N	-0.80954	2.22242	-0.910343
C	-2.01025	2.95501	-1.23864
H	0.0590306	2.70521	-0.951936
H	-1.76835	4.00765	-1.50452
H	-2.71334	2.96452	-0.37445
H	-2.53273	2.486	-2.10364
C	3593.96	0.38759	-3.33111
C	3594.99	0.2852	-2.27214
O	3596.18	0.219867	-2.55032
H	3594.46	0.384682	-4.3263
H	3593.39	1.33187	-3.2177
H	3593.27	-0.475813	-3.2735
N	3594.55	0.262838	-1.01343
C	3595.43	0.166726	0.124347
C	3594.62	-0.348662	1.29748
O	3593.39	-0.366268	1.25307
H	3593.57	0.28735	-0.800898
H	3596.2	-0.562413	-0.0878556
C	3596.05	1.53724	0.470724
H	3595.26	2.28301	0.6872
H	3596.73	1.46682	1.34626
H	3596.64	1.9044	-0.396989
N	3595.29	-0.802974	2.37202
C	3594.6	-1.32346	3.53093
H	3596.28	-0.787001	2.38587
H	3595.33	-1.64491	4.30822
H	3593.97	-2.20131	3.25413
H	3593.94	-0.548319	3.97374
