44
  This energy is 7.38233e-320 and Call times are: 3639
C	-2.60085	1.08892	-2.04351
C	-1.98574	0.0901081	-1.14062
O	-2.61207	-0.889625	-0.76071
H	-3.64666	0.786136	-2.26814
H	-2.03127	1.14669	-2.99486
H	-2.61215	2.08775	-1.55857
N	-0.725563	0.324702	-0.767417
C	0.00733089	-0.555459	0.107231
C	1.14503	0.237921	0.719958
O	1.46626	1.33269	0.261554
H	-0.235773	1.14153	-1.06038
H	-0.64309	-0.873168	0.91227
C	0.563462	-1.77579	-0.65999
H	1.22976	-1.4462	-1.48554
H	1.12822	-2.45567	0.0105285
H	-0.279633	-2.3479	-1.105
N	1.76963	-0.290176	1.79093
C	2.85601	0.398657	2.4478
H	1.49028	-1.17407	2.15139
H	3.23846	-0.197693	3.30532
H	2.51843	1.38842	2.83206
H	3.69734	0.572377	1.73846
C	179.755	3.15168	0.322852
C	179.925	1.74719	0.758172
O	179.413	1.33838	1.79098
H	179.131	3.69364	1.06679
H	179.248	3.18732	-0.664564
H	180.743	3.65243	0.249251
N	180.667	0.967507	-0.0316813
C	180.924	-0.42071	0.258205
C	182.166	-0.834738	-0.506343
O	182.617	-0.125379	-1.4034
H	181.104	1.31993	-0.855338
H	181.137	-0.526051	1.31435
C	179.728	-1.31039	-0.149158
H	179.511	-1.19936	-1.23308
H	179.922	-2.37993	0.0728109
H	178.824	-0.996262	0.416909
N	182.762	-1.98992	-0.151511
C	183.956	-2.45876	-0.815099
H	182.386	-2.54636	0.58178
H	184.293	-3.42656	-0.382075
H	184.783	-1.71966	-0.705284
H	183.769	-2.6077	-1.90311
