44
  This energy is 9.17282e-320 and Call times are: 64287
C	-0.325996	3.22376	-1.27563
C	0.497549	2.08661	-0.806732
O	1.71543	2.09797	-0.921317
H	0.336887	4.00133	-1.71361
H	-0.886297	3.66655	-0.425449
H	-1.04234	2.88298	-2.05259
N	-0.162242	1.06043	-0.264517
C	0.499967	-0.116943	0.237581
C	-0.517512	-1.24031	0.282575
O	-1.71913	-1.00492	0.170613
H	-1.15677	1.05054	-0.203333
H	1.27852	-0.405928	-0.456981
C	1.08661	0.12524	1.64624
H	0.285298	0.422175	2.35606
H	1.59736	-0.779281	2.03579
H	1.82956	0.951098	1.59999
N	-0.0545251	-2.49763	0.426712
C	-0.94797	-3.63175	0.468167
H	0.921921	-2.66821	0.508506
H	-0.376797	-4.57795	0.593541
H	-1.5387	-3.70117	-0.473886
H	-1.66261	-3.5383	1.31772
C	3049.65	-1.08604	3.19845
C	3048.99	-1.2883	1.88552
O	3048.51	-2.36972	1.57913
H	3049.61	-2.03478	3.77675
H	3049.12	-0.295612	3.77121
H	3050.71	-0.791801	3.05688
N	3048.97	-0.234404	1.0663
C	3048.37	-0.275745	-0.24344
C	3048.96	0.85455	-1.06279
O	3049.6	1.75452	-0.522217
H	3049.39	0.632822	1.31593
H	3048.64	-1.20721	-0.724742
C	3046.83	-0.126541	-0.163831
H	3046.56	0.829771	0.331064
H	3046.37	-0.158095	-1.17057
H	3046.41	-0.959747	0.439861
N	3048.78	0.821548	-2.39747
C	3049.32	1.84842	-3.25952
H	3048.26	0.0809954	-2.81674
H	3049.06	1.64498	-4.32201
H	3050.43	1.89424	-3.1717
H	3048.91	2.84708	-2.9838
