44
  This energy is 6.48856e-320 and Call times are: 82221
C	-0.404204	2.0452	-2.78924
C	0.11911	1.78804	-1.42865
O	0.879172	2.57663	-0.883754
H	0.00875175	3.00612	-3.16604
H	-1.51212	2.11465	-2.76621
H	-0.0995484	1.22868	-3.4773
N	-0.279337	0.655741	-0.844261
C	0.143951	0.267315	0.477397
C	-0.0474246	-1.23135	0.606261
O	-0.719272	-1.8522	-0.215322
H	-0.875621	0.00736914	-1.31009
H	1.20134	0.4742	0.58321
C	-0.668413	1.00226	1.56691
H	-1.75277	0.788342	1.45498
H	-0.344951	0.705623	2.58581
H	-0.52072	2.09912	1.46095
N	0.561059	-1.85301	1.63548
C	0.445361	-3.27929	1.83176
H	1.10632	-1.33412	2.28561
H	1.0148	-3.59984	2.73189
H	0.844358	-3.83088	0.949832
H	-0.620828	-3.57202	1.96862
C	3894.72	2.48402	-2.07888
C	3895.61	2.03201	-0.986426
O	3896.44	2.78434	-0.494734
H	3894.96	3.54157	-2.32953
H	3893.66	2.41645	-1.75982
H	3894.88	1.85784	-2.98274
N	3895.46	0.769083	-0.581254
C	3896.25	0.184966	0.471378
C	3896.2	-1.32222	0.31476
O	3895.37	-1.84721	-0.423494
H	3894.8	0.157359	-1.0096
H	3897.28	0.490773	0.346827
C	3895.73	0.594091	1.865
H	3894.67	0.279434	1.98912
H	3896.33	0.146177	2.67784
H	3895.77	1.70034	1.96671
N	3897.1	-2.05506	0.99385
C	3897.13	-3.49585	0.897252
H	3897.77	-1.61113	1.5806
H	3897.94	-3.91504	1.53033
H	3897.31	-3.81535	-0.155523
H	3896.16	-3.93327	1.23396
