44
  This energy is 7.07996e-321 and Call times are: 86253
C	-2.30963	-1.61481	2.04552
C	-1.93768	-0.94306	0.779972
O	-2.70712	-0.914002	-0.170612
H	-3.32961	-2.04575	1.94659
H	-2.30781	-0.884016	2.88143
H	-1.59368	-2.43356	2.26917
N	-0.725825	-0.384394	0.739068
C	-0.221768	0.305105	-0.421684
C	1.29092	0.339822	-0.322619
O	1.85821	0.0646304	0.732977
H	-0.0969155	-0.440067	1.50998
H	-0.480498	-0.261273	-1.30732
C	-0.781565	1.74249	-0.509318
H	-0.514867	2.32048	0.401125
H	-0.395584	2.2762	-1.40203
H	-1.89043	1.70335	-0.580251
N	1.98293	0.65996	-1.43376
C	3.42653	0.706838	-1.4376
H	1.50581	0.872476	-2.28017
H	3.80808	0.99069	-2.44314
H	3.8526	-0.286853	-1.16875
H	3.79754	1.45306	-0.698222
C	4084.84	3.18821	1.32809
C	4084.08	2.21038	0.516954
O	4082.98	2.48742	0.0587677
H	4084.25	4.12479	1.4231
H	4085.81	3.42259	0.837169
H	4085.03	2.77866	2.34254
N	4084.66	1.02277	0.324459
C	4084.05	-0.0311259	-0.44252
C	4084.69	-1.34204	-0.030428
O	4085.73	-1.35441	0.624911
H	4085.55	0.798945	0.727365
H	4083	-0.0845306	-0.187971
C	4084.23	0.196454	-1.95958
H	4085.31	0.251403	-2.2171
H	4083.76	-0.613139	-2.55313
H	4083.76	1.16035	-2.24851
N	4084.07	-2.48219	-0.389097
C	4084.6	-3.77723	-0.0310559
H	4083.22	-2.45113	-0.913182
H	4083.94	-4.59013	-0.41842
H	4084.67	-3.88094	1.07605
H	4085.62	-3.91518	-0.455369
