44
  This energy is 9.40849e-320 and Call times are: 109185
C	-0.163808	-0.214307	3.4718
C	-0.133989	-0.837082	2.12924
O	-0.0527429	-2.05045	1.99646
H	-0.0958718	-1.00854	4.24668
H	-1.11237	0.345258	3.61297
H	0.695273	0.478956	3.59143
N	-0.1943	-0.00409101	1.08767
C	-0.175671	-0.459476	-0.279479
C	0.262375	0.701278	-1.15126
O	0.285368	1.8475	-0.706878
H	-0.230896	0.984319	1.20868
H	0.564382	-1.24335	-0.379191
C	-1.56741	-0.962095	-0.723954
H	-2.32429	-0.155635	-0.61973
H	-1.5566	-1.31363	-1.77613
H	-1.87737	-1.81146	-0.076922
N	0.643022	0.425642	-2.41425
C	1.08685	1.46507	-3.31357
H	0.624158	-0.509312	-2.75298
H	1.35454	1.03894	-4.30554
H	1.9824	1.98462	-2.9021
H	0.285381	2.22438	-3.46279
C	5173.67	-1.02937	2.81947
C	5173.46	-0.993367	1.35405
O	5174.29	-1.46751	0.587206
H	5174.64	-1.52291	3.04184
H	5172.85	-1.60466	3.30641
H	5173.68	0.00260903	3.22885
N	5172.33	-0.414436	0.927399
C	5171.99	-0.303263	-0.468353
C	5170.98	0.816358	-0.612831
O	5170.41	1.27674	0.37282
H	5171.68	-0.00592725	1.56074
H	5172.88	-0.0209537	-1.0253
C	5171.41	-1.6249	-1.01057
H	5170.5	-1.91189	-0.436524
H	5171.14	-1.54285	-2.08507
H	5172.16	-2.43723	-0.89794
N	5170.75	1.29708	-1.85096
C	5169.82	2.37054	-2.08396
H	5171.23	0.916066	-2.63494
H	5169.77	2.62239	-3.1663
H	5170.12	3.28517	-1.52451
H	5168.79	2.08087	-1.74523
