44
  This energy is 1.01659e-319 and Call times are: 90075
C	0.148089	-0.819231	3.38128
C	0.563084	0.0017348	2.22154
O	1.27202	0.988139	2.36612
H	0.572365	-0.382203	4.31126
H	0.52359	-1.85804	3.26859
H	-0.959145	-0.833631	3.46356
N	0.117165	-0.39202	1.02635
C	0.435756	0.303721	-0.194826
C	-0.608719	-0.0684076	-1.22915
O	-1.36611	-1.01911	-1.04381
H	-0.483657	-1.18049	0.925003
H	0.362125	1.36989	-0.0218356
C	1.8453	-0.0711702	-0.704483
H	1.91752	-1.1657	-0.880267
H	2.0939	0.462887	-1.64457
H	2.6011	0.205362	0.0626165
N	-0.687399	0.691288	-2.33941
C	-1.65871	0.419949	-3.37339
H	-0.0703054	1.46069	-2.46765
H	-1.5637	1.15322	-4.20438
H	-2.69389	0.483582	-2.96646
H	-1.51382	-0.603057	-3.7901
C	4269.59	0.300682	1.35221
C	4268.68	0.152608	0.19957
O	4269.09	0.217893	-0.949949
H	4270.63	0.472868	0.979851
H	4269.58	-0.621747	1.97014
H	4269.29	1.16664	1.97618
N	4267.39	-0.0476329	0.488305
C	4266.38	-0.210413	-0.524719
C	4265.03	0.105218	0.103757
O	4264.92	0.184897	1.3249
H	4267.06	-0.0697798	1.42868
H	4266.55	0.51134	-1.3131
C	4266.38	-1.64794	-1.09094
H	4266.2	-2.38582	-0.279375
H	4265.6	-1.77672	-1.87133
H	4267.36	-1.86721	-1.5474
N	4263.99	0.314743	-0.723172
C	4262.68	0.632681	-0.215811
H	4264.11	0.252805	-1.70874
H	4261.95	0.766673	-1.05115
H	4262.7	1.57401	0.379565
H	4262.3	-0.18306	0.444099
