44
  This energy is 5.38037e-321 and Call times are: 118341
C	0.360859	-1.65035	-3.04504
C	-0.354082	-0.714012	-2.14875
O	-1.28555	-0.0342777	-2.55718
H	-0.0847228	-1.5976	-4.06216
H	0.267785	-2.6896	-2.66542
H	1.43471	-1.37506	-3.10837
N	0.0784169	-0.653965	-0.887121
C	-0.515752	0.208697	0.10263
C	0.499212	0.415565	1.21001
O	1.49546	-0.300468	1.29139
H	0.85695	-1.19133	-0.573984
H	-0.71473	1.17383	-0.345703
C	-1.81205	-0.404393	0.677817
H	-1.6044	-1.39471	1.13637
H	-2.27225	0.257342	1.44012
H	-2.54686	-0.552051	-0.143401
N	0.278761	1.4206	2.08025
C	1.19663	1.70034	3.1598
H	-0.52964	1.99346	1.99335
H	0.83998	2.56218	3.76584
H	2.20783	1.94622	2.76197
H	1.29518	0.816563	3.83092
C	5602.49	-0.711365	3.33319
C	5602.64	-1.1216	1.91974
O	5602.6	-2.29987	1.59409
H	5602.34	-1.61512	3.9637
H	5601.6	-0.0493588	3.44263
H	5603.39	-0.174701	3.68008
N	5602.84	-0.140684	1.03634
C	5603.01	-0.381888	-0.374103
C	5603.72	0.8224	-0.970884
O	5603.81	1.8729	-0.33872
H	5602.91	0.812943	1.31801
H	5603.66	-1.23962	-0.508425
C	5601.66	-0.606524	-1.07529
H	5601	0.275039	-0.934914
H	5601.78	-0.79269	-2.16143
H	5601.15	-1.49064	-0.628322
N	5604.25	0.689293	-2.20177
C	5604.95	1.77826	-2.84536
H	5604.17	-0.171155	-2.69424
H	5605.31	1.47317	-3.85188
H	5605.82	2.09564	-2.23823
H	5604.27	2.65845	-2.96636
