44
  This energy is 7.04587e-320 and Call times are: 108177
C	-2.14618	-1.18826	2.47146
C	-1.41479	-0.0898985	1.80072
O	-1.60255	1.07802	2.11252
H	-2.83384	-0.760321	3.23294
H	-1.43132	-1.87151	2.97639
H	-2.74249	-1.76016	1.72965
N	-0.554675	-0.447495	0.844326
C	0.23017	0.506594	0.102329
C	0.666831	-0.154386	-1.1906
O	0.564843	-1.37051	-1.34054
H	-0.432056	-1.40024	0.579432
H	-0.395064	1.35205	-0.155278
C	1.46594	0.966106	0.907833
H	2.10479	0.0962025	1.171
H	2.07242	1.70092	0.339488
H	1.13268	1.4475	1.853
N	1.14617	0.640012	-2.16793
C	1.57497	0.101126	-3.43754
H	1.21418	1.62264	-2.02994
H	1.93807	0.912206	-4.10654
H	0.733509	-0.422545	-3.94642
H	2.40167	-0.631849	-3.29438
C	5123.55	-0.544544	3.42152
C	5123.2	-0.841914	2.01384
O	5122.48	-1.78629	1.72691
H	5123.07	-1.29373	4.08555
H	5123.19	0.467951	3.69928
H	5124.65	-0.595777	3.56288
N	5123.72	-0.0309654	1.0901
C	5123.48	-0.192016	-0.320468
C	5124.58	0.519221	-1.07203
O	5125.33	1.30197	-0.492564
H	5124.33	0.717412	1.3344
H	5123.53	-1.24407	-0.569669
C	5122.1	0.392004	-0.721042
H	5122.05	1.47125	-0.463365
H	5121.91	0.26954	-1.80651
H	5121.3	-0.13654	-0.162845
N	5124.73	0.244651	-2.38369
C	5125.76	0.86498	-3.17789
H	5124.11	-0.397103	-2.83284
H	5125.71	0.512184	-4.23166
H	5126.77	0.618688	-2.77177
H	5125.65	1.97336	-3.17361
