44
  This energy is 4.4293e-320 and Call times are: 44169
C	1.70858	0.109172	3.03232
C	1.23377	0.744087	1.78226
O	1.37432	1.94387	1.58922
H	2.1646	0.883189	3.68716
H	2.47272	-0.663018	2.80289
H	0.858305	-0.360902	3.5699
N	0.645884	-0.0611487	0.89437
C	0.132896	0.408994	-0.367627
C	-0.88782	-0.598424	-0.860056
O	-0.968034	-1.71349	-0.348176
H	0.511225	-1.03165	1.07585
H	-0.381592	1.34847	-0.210302
C	1.26298	0.572394	-1.40846
H	1.7891	-0.393116	-1.56692
H	0.871493	0.934411	-2.38132
H	2.00465	1.31192	-1.0354
N	-1.71065	-0.218172	-1.85723
C	-2.72152	-1.10593	-2.38279
H	-1.63475	0.690934	-2.25346
H	-3.29398	-0.611198	-3.19813
H	-3.43738	-1.40367	-1.5827
H	-2.25691	-2.03195	-2.79245
C	2098.31	2.6374	-1.0699
C	2097.29	1.59037	-1.31997
O	2096.7	1.5242	-2.38949
H	2098.4	3.28329	-1.97012
H	2099.29	2.17155	-0.860654
H	2098	3.26578	-0.205818
N	2097.06	0.739057	-0.318337
C	2096.1	-0.332708	-0.410679
C	2095.72	-0.740961	0.999435
O	2096.38	-0.365482	1.96312
H	2097.52	0.821266	0.558452
H	2095.2	0.0357461	-0.898316
C	2096.68	-1.54276	-1.17593
H	2097.6	-1.91778	-0.67332
H	2095.94	-2.36978	-1.24901
H	2096.95	-1.23034	-2.20685
N	2094.62	-1.50655	1.15429
C	2094.18	-1.93412	2.46017
H	2094.09	-1.79415	0.362567
H	2093.26	-2.55657	2.37838
H	2093.95	-1.05464	3.10461
H	2094.96	-2.53697	2.96623
