44
  This energy is 1.17138e-319 and Call times are: 65337
C	1.5191	3.09566	-0.485104
C	1.48885	1.62314	-0.63329
O	2.32465	1.03802	-1.30825
H	2.37317	3.50585	-1.06664
H	1.64694	3.37011	0.583144
H	0.57646	3.53864	-0.869989
N	0.503692	0.98341	0.00119859
C	0.342452	-0.447831	-0.0475509
C	-1.096	-0.767096	0.310453
O	-1.82202	0.0863331	0.816794
H	-0.188174	1.47409	0.524161
H	0.511999	-0.786677	-1.06171
C	1.30371	-1.15591	0.933126
H	1.12749	-0.80545	1.97247
H	1.18231	-2.25809	0.89804
H	2.35399	-0.913108	0.6609
N	-1.54893	-2.00573	0.0335861
C	-2.90777	-2.39679	0.328181
H	-0.94799	-2.68004	-0.382842
H	-3.08665	-3.45306	0.0289547
H	-3.6304	-1.75	-0.220197
H	-3.11685	-2.30087	1.41826
C	3097.51	0.68617	-3.16277
C	3097.34	0.346086	-1.73267
O	3096.23	0.319115	-1.2196
H	3096.52	0.895628	-3.61423
H	3097.98	-0.16283	-3.70357
H	3098.15	1.58816	-3.2667
N	3098.45	0.0804639	-1.04634
C	3098.45	-0.266479	0.352374
C	3099.83	0.0114774	0.908998
O	3100.78	0.212199	0.156819
H	3099.36	0.134223	-1.46859
H	3097.75	0.377644	0.870807
C	3098.08	-1.75243	0.561306
H	3098.8	-2.41037	0.0275675
H	3098.07	-2.02292	1.63721
H	3097.06	-1.94335	0.148311
N	3099.97	0.0511706	2.2489
C	3101.24	0.320643	2.86934
H	3099.18	-0.106796	2.84062
H	3101.15	0.309	3.97783
H	3101.63	1.31956	2.55982
H	3102	-0.445833	2.57133
