44
  This energy is 1.49667e-319 and Call times are: 60381
C	-1.57153	-2.98062	0.87882
C	-1.12416	-1.99298	-0.128958
O	-1.22215	-2.22253	-1.32654
H	-1.96617	-3.88136	0.360367
H	-2.37661	-2.54682	1.50849
H	-0.719646	-3.28177	1.52423
N	-0.609137	-0.855454	0.343444
C	-0.131113	0.200899	-0.512383
C	0.824316	1.05812	0.294812
O	0.879252	0.956141	1.51891
H	-0.507862	-0.692439	1.32125
H	0.42874	-0.234933	-1.33012
C	-1.29669	1.0631	-1.04639
H	-1.86929	1.50812	-0.204839
H	-0.932165	1.87735	-1.70585
H	-1.98996	0.42336	-1.63483
N	1.61914	1.91256	-0.379126
C	2.56836	2.76016	0.304047
H	1.56476	1.97529	-1.37026
H	3.12585	3.39153	-0.422478
H	3.30453	2.14695	0.872619
H	2.0481	3.43142	1.0251
C	2864.26	0.395497	-3.37481
C	2864.27	-0.395428	-2.12356
O	2864.63	-1.56255	-2.11415
H	2864.62	-0.241109	-4.21286
H	2864.94	1.27186	-3.27559
H	2863.23	0.745255	-3.6034
N	2863.85	0.233111	-1.02339
C	2863.79	-0.403414	0.26845
C	2862.82	0.374938	1.13165
O	2862.43	1.49089	0.791524
H	2863.52	1.17525	-1.04949
H	2863.4	-1.40544	0.151087
C	2865.18	-0.437078	0.936657
H	2865.58	0.592465	1.05491
H	2865.15	-0.926672	1.93149
H	2865.89	-1.009	0.294015
N	2862.38	-0.20945	2.26505
C	2861.45	0.45084	3.14359
H	2862.7	-1.11602	2.51933
H	2861.21	-0.190064	4.02204
H	2860.49	0.672467	2.60795
H	2861.87	1.4139	3.51409
