44
  This energy is 1.1403e-320 and Call times are: 118551
C	-1.53249	0.628829	3.06304
C	-1.5926	0.345729	1.61133
O	-2.65836	0.121589	1.05419
H	-2.55907	0.589142	3.4878
H	-1.10994	1.64053	3.23834
H	-0.902168	-0.128482	3.57502
N	-0.427936	0.344299	0.958713
C	-0.324617	0.0860506	-0.455309
C	1.09864	-0.348231	-0.746836
O	1.98764	-0.189711	0.0876598
H	0.436564	0.499565	1.42932
H	-0.978843	-0.737688	-0.711271
C	-0.677161	1.3417	-1.28367
H	-0.00451877	2.18498	-1.01807
H	-0.598774	1.14631	-2.37291
H	-1.72165	1.65036	-1.06023
N	1.34328	-0.929648	-1.93768
C	2.66532	-1.38605	-2.29834
H	0.609048	-1.05549	-2.5967
H	2.66264	-1.83358	-3.31665
H	3.02522	-2.15605	-1.57806
H	3.3895	-0.539489	-2.28921
C	5614.6	3.1473	-0.511816
C	5613.72	2.21909	0.235971
O	5613.19	2.55876	1.2828
H	5614.66	4.11319	0.0348737
H	5614.18	3.33427	-1.52445
H	5615.62	2.71868	-0.604311
N	5613.56	1.00414	-0.292189
C	5612.73	-0.00817471	0.318507
C	5613.17	-1.35525	-0.22044
O	5613.9	-1.42931	-1.20719
H	5614.02	0.729693	-1.13036
H	5612.91	-0.00778345	1.38675
C	5611.24	0.223503	0.0108668
H	5611.06	0.223169	-1.0859
H	5610.6	-0.554107	0.479723
H	5610.93	1.21394	0.409665
N	5612.75	-2.45713	0.432722
C	5613.13	-3.78193	-0.000444497
H	5612.17	-2.37609	1.23349
H	5612.69	-4.55513	0.663842
H	5614.24	-3.89959	0.0180161
H	5612.78	-3.97019	-1.04127
