44
  This energy is 2.35274e-320 and Call times are: 125271
C	1.76966	2.57049	1.54501
C	1.09489	1.97952	0.367444
O	0.926402	2.62754	-0.656364
H	2.05127	3.62165	1.3178
H	2.68877	1.99658	1.78725
H	1.08757	2.56249	2.42116
N	0.682353	0.715982	0.492511
C	0.0106475	0.00468048	-0.565643
C	-0.752514	-1.14731	0.0586541
O	-0.531495	-1.49298	1.21775
H	0.799533	0.208181	1.34183
H	-0.711381	0.664353	-1.02995
C	1.01547	-0.528351	-1.61126
H	1.75511	-1.20421	-1.13141
H	0.501606	-1.07644	-2.42754
H	1.56887	0.325034	-2.0603
N	-1.68958	-1.75706	-0.693744
C	-2.47423	-2.8554	-0.179775
H	-1.85861	-1.45802	-1.62714
H	-3.18858	-3.22235	-0.949393
H	-3.0563	-2.53734	0.715368
H	-1.81567	-3.7026	0.119771
C	5928.07	-1.91109	2.17851
C	5928.86	-1.75415	0.938472
O	5929.13	-2.71666	0.232087
H	5927.81	-2.98272	2.31281
H	5927.13	-1.31662	2.11222
H	5928.66	-1.57353	3.05604
N	5929.27	-0.516068	0.646452
C	5930.05	-0.204517	-0.52548
C	5930.75	1.11619	-0.279974
O	5930.42	1.8422	0.654383
H	5929.07	0.255242	1.24517
H	5930.81	-0.963579	-0.654225
C	5929.15	-0.105796	-1.78338
H	5928.37	0.673364	-1.64761
H	5929.75	0.133833	-2.68763
H	5928.64	-1.07906	-1.95161
N	5931.76	1.44881	-1.10606
C	5932.5	2.68103	-0.942092
H	5932.02	0.844557	-1.85201
H	5933.29	2.77381	-1.71949
H	5932.98	2.71741	0.0590903
H	5931.82	3.55915	-1.02698
