44
  This energy is 4.41448e-320 and Call times are: 81423
C	-1.62543	-0.971196	-2.92248
C	-0.735126	-1.25153	-1.77358
O	-0.323934	-2.38238	-1.55316
H	-1.82087	-1.91599	-3.47477
H	-1.14419	-0.24533	-3.6112
H	-2.5919	-0.556912	-2.56575
N	-0.418395	-0.209932	-1.00084
C	0.43773	-0.324255	0.152768
C	0.165869	0.864238	1.05433
O	-0.46829	1.83372	0.642293
H	-0.783257	0.701024	-1.17396
H	0.172705	-1.21985	0.70025
C	1.92812	-0.352997	-0.253458
H	2.19641	0.566931	-0.815484
H	2.59013	-0.441116	0.63241
H	2.11399	-1.22737	-0.914571
N	0.623977	0.806185	2.32033
C	0.402564	1.8855	3.25427
H	1.12885	0.00988344	2.63694
H	0.856809	1.65026	4.24198
H	-0.687879	2.05932	3.40247
H	0.854703	2.83107	2.87658
C	3857.02	2.80095	-1.82154
C	3856.87	1.8759	-0.675534
O	3856.08	2.11185	0.229584
H	3856.33	3.66634	-1.68631
H	3856.76	2.28205	-2.76824
H	3858.06	3.17427	-1.87914
N	3857.64	0.787224	-0.688016
C	3857.61	-0.205387	0.356293
C	3858.92	-0.97707	0.304669
O	3859.66	-0.887647	-0.669278
H	3858.3	0.62094	-1.41647
H	3857.56	0.294381	1.31542
C	3856.42	-1.16912	0.180851
H	3856.47	-1.67961	-0.804403
H	3856.39	-1.93462	0.983375
H	3855.47	-0.591497	0.219343
N	3859.23	-1.74053	1.36888
C	3860.46	-2.50149	1.41421
H	3858.62	-1.79415	2.15044
H	3860.54	-3.06528	2.36989
H	3861.34	-1.82777	1.33168
H	3860.5	-3.23032	0.572645
