44
  This energy is 5.07702e-320 and Call times are: 81675
C	-0.598807	-1.7758	-2.93497
C	-0.944942	-0.715868	-1.96136
O	-1.84152	0.0844532	-2.18967
H	-1.25872	-1.68656	-3.82515
H	-0.744906	-2.77727	-2.47831
H	0.457865	-1.66809	-3.25868
N	-0.224418	-0.684405	-0.837872
C	-0.442774	0.287252	0.203777
C	0.822411	0.371109	1.03535
O	1.69946	-0.484605	0.933478
H	0.522635	-1.32377	-0.676449
H	-0.604118	1.2576	-0.248397
C	-1.64065	-0.105365	1.09712
H	-1.47209	-1.10161	1.55886
H	-1.81168	0.640739	1.90015
H	-2.56089	-0.164571	0.475999
N	0.955447	1.42336	1.86665
C	2.13092	1.59308	2.68862
H	0.237732	2.10904	1.92958
H	2.05087	2.51659	3.30342
H	3.04471	1.67127	2.05607
H	2.25934	0.724929	3.37492
C	3871.22	-3.26182	0.0983156
C	3871.05	-1.95564	-0.577327
O	3871.63	-1.70469	-1.6237
H	3871.92	-3.89126	-0.489802
H	3870.24	-3.78475	0.170093
H	3871.63	-3.11476	1.11729
N	3870.24	-1.07926	0.02062
C	3869.97	0.232093	-0.515144
C	3869.47	1.10672	0.618794
O	3869.12	0.610357	1.68646
H	3869.79	-1.28478	0.887948
H	3870.9	0.658494	-0.876292
C	3868.92	0.176112	-1.64498
H	3867.97	-0.262453	-1.27119
H	3868.71	1.18414	-2.05987
H	3869.3	-0.468474	-2.46891
N	3869.45	2.43928	0.418939
C	3869.01	3.35138	1.44568
H	3869.75	2.8221	-0.449509
H	3869.07	4.40352	1.08948
H	3869.64	3.2552	2.35874
H	3867.95	3.13533	1.73092
