44
  This energy is 3.79689e-320 and Call times are: 26319
C	3.09466	0.898929	-1.31953
C	1.81923	1.23441	-0.647265
O	1.61667	2.35381	-0.197377
H	3.75687	1.79186	-1.31749
H	2.90478	0.594774	-2.37036
H	3.60476	0.0719461	-0.782094
N	0.919437	0.25214	-0.558448
C	-0.367327	0.425054	0.0669851
C	-0.886212	-0.946659	0.452212
O	-0.363806	-1.9652	0.00332285
H	1.10778	-0.663684	-0.903017
H	-0.241925	0.996972	0.977621
C	-1.36554	1.12297	-0.88359
H	-1.4913	0.533914	-1.81703
H	-2.35733	1.25783	-0.405118
H	-0.973371	2.12615	-1.15926
N	-1.91925	-1.0044	1.31564
C	-2.47237	-2.26638	1.74881
H	-2.32367	-0.169069	1.67327
H	-3.31546	-2.10418	2.45602
H	-1.69694	-2.87953	2.26262
H	-2.85199	-2.8487	0.878203
C	1253.98	0.512182	-3.30217
C	1252.95	0.222366	-2.28039
O	1251.76	0.173832	-2.57495
H	1253.49	0.666113	-4.2871
H	1254.69	-0.339209	-3.38336
H	1254.54	1.43281	-3.03178
N	1253.39	0.026117	-1.03469
C	1252.5	-0.265515	0.0672753
C	1253.23	0.086026	1.35094
O	1254.44	0.292667	1.35085
H	1254.35	0.097097	-0.801943
H	1251.63	0.37175	-0.00200286
C	1252.09	-1.75489	0.0800739
H	1252.99	-2.40581	0.150546
H	1251.42	-1.98287	0.927235
H	1251.56	-1.99999	-0.865971
N	1252.5	0.183632	2.47749
C	1253.1	0.525199	3.74449
H	1251.52	0.0196918	2.45566
H	1252.34	0.553789	4.55014
H	1253.59	1.52491	3.69005
H	1253.88	-0.223569	4.02489
