44
  This energy is 6.7519e-320 and Call times are: 69999
C	1.72246	-2.93133	0.752706
C	1.48214	-1.48127	0.928117
O	2.06003	-0.845084	1.79864
H	2.45908	-3.27588	1.51068
H	2.12922	-3.13186	-0.260778
H	0.775868	-3.49554	0.889047
N	0.603974	-0.920483	0.0934297
C	0.26557	0.479571	0.139898
C	-1.07636	0.657466	-0.543342
O	-1.55576	-0.242043	-1.23101
H	0.117973	-1.45532	-0.592634
H	0.150663	0.779664	1.17373
C	1.33812	1.34115	-0.563273
H	1.45388	1.03016	-1.62346
H	1.08076	2.41975	-0.52921
H	2.31654	1.20106	-0.0541505
N	-1.72659	1.82192	-0.350335
C	-3.0152	2.0764	-0.95109
H	-1.32531	2.53476	0.215413
H	-3.38446	3.08883	-0.675616
H	-3.76348	1.3253	-0.608793
H	-2.94972	2.01716	-2.06167
C	3322.38	2.77555	-0.69585
C	3321.68	1.54054	-1.11137
O	3321.61	1.22218	-2.29008
H	3322.78	3.29522	-1.59654
H	3323.23	2.52562	-0.0258028
H	3321.68	3.45479	-0.166222
N	3321.14	0.809717	-0.134684
C	3320.43	-0.417236	-0.38128
C	3319.53	-0.68535	0.815144
O	3319.69	-0.0671673	1.86653
H	3321.18	1.09485	0.819113
H	3319.79	-0.28471	-1.24503
C	3321.4	-1.60004	-0.59592
H	3322.05	-1.73273	0.291799
H	3320.85	-2.54633	-0.786206
H	3322.04	-1.39085	-1.47433
N	3318.56	-1.60416	0.673968
C	3317.65	-1.91723	1.75499
H	3318.44	-2.0886	-0.187107
H	3316.92	-2.69776	1.44395
H	3317.08	-1.01103	2.06632
H	3318.21	-2.29417	2.64071
