44
  This energy is 8.73409e-320 and Call times are: 39801
C	1.99368	-1.96655	-2.0698
C	1.68057	-1.36316	-0.754852
O	2.31742	-1.66194	0.245967
H	2.8393	-2.67901	-1.95497
H	2.28513	-1.17658	-2.79356
H	1.11083	-2.51629	-2.45876
N	0.670937	-0.490055	-0.728349
C	0.248172	0.179713	0.475606
C	-1.17648	0.655738	0.268214
O	-1.67575	0.674343	-0.855266
H	0.140996	-0.276903	-1.54484
H	0.241567	-0.532697	1.29078
C	1.16617	1.37812	0.804577
H	1.17111	2.10665	-0.0340735
H	0.843571	1.89602	1.73112
H	2.20695	1.01634	0.953035
N	-1.87425	1.03319	1.35754
C	-3.24107	1.48951	1.25868
H	-1.45488	1.00417	2.25894
H	-3.64035	1.75565	2.26217
H	-3.88976	0.69557	0.822663
H	-3.30891	2.38871	0.604463
C	1888.14	-0.26306	3.38903
C	1888.83	0.400138	2.25541
O	1889.42	1.45669	2.40749
H	1888.28	0.350526	4.3067
H	1888.58	-1.26869	3.56355
H	1887.06	-0.363857	3.17635
N	1888.75	-0.214354	1.07293
C	1889.36	0.307393	-0.122542
C	1888.66	-0.31444	-1.31477
O	1887.92	-1.28858	-1.17308
H	1888.23	-1.05973	0.955815
H	1889.19	1.37651	-0.164739
C	1890.87	-0.0144469	-0.166886
H	1891.04	-1.11203	-0.122744
H	1891.34	0.385992	-1.08603
H	1891.37	0.445575	0.712242
N	1888.86	0.25187	-2.52148
C	1888.22	-0.264199	-3.71166
H	1889.45	1.04402	-2.61442
H	1888.51	0.335457	-4.60292
H	1887.11	-0.230941	-3.61107
H	1888.52	-1.32262	-3.88927
