44
  This energy is 5.83393e-320 and Call times are: 9099
C	1.0424	3.01536	1.39539
C	0.535688	1.63005	1.5193
O	0.440289	1.08671	2.61117
H	1.29575	3.40547	2.40509
H	0.266253	3.66754	0.942532
H	1.9552	3.03406	0.763414
N	0.199937	1.01745	0.381603
C	-0.308639	-0.330311	0.340182
C	-0.0873183	-0.868978	-1.05985
O	0.207451	-0.114044	-1.98452
H	0.309695	1.46048	-0.504183
H	0.264917	-0.943965	1.02322
C	-1.8116	-0.375547	0.695393
H	-2.39693	0.255582	-0.00687843
H	-2.20641	-1.41187	0.664602
H	-1.96051	0.0227131	1.7227
N	-0.203929	-2.19888	-1.24362
C	0.000672688	-2.80346	-2.5393
H	-0.436146	-2.79393	-0.481238
H	-0.14154	-3.90536	-2.48597
H	1.03189	-2.60066	-2.90905
H	-0.719828	-2.39245	-3.28303
C	435.833	-2.15131	-1.90496
C	436.149	-1.45577	-0.63695
O	435.384	-1.50245	0.317225
H	434.851	-2.663	-1.80863
H	436.613	-2.90933	-2.12976
H	435.777	-1.42038	-2.73897
N	437.299	-0.779368	-0.602007
C	437.744	-0.052823	0.560459
C	438.758	0.97864	0.105561
O	439.252	0.920603	-1.01862
H	437.899	-0.724861	-1.39566
H	436.902	0.478768	0.986246
C	438.379	-0.997379	1.60528
H	439.241	-1.54161	1.16493
H	438.722	-0.441229	2.50174
H	437.626	-1.74884	1.92954
N	439.075	1.96503	0.966979
C	440.022	2.9981	0.616844
H	438.659	1.9987	1.86955
H	440.151	3.71514	1.45745
H	439.673	3.56452	-0.276743
H	441.016	2.55565	0.378341
