44
  This energy is 1.51416e-319 and Call times are: 42195
C	0.683976	1.12263	-3.22459
C	1.05591	0.94082	-1.80339
O	2.17955	1.21326	-1.40377
H	1.56039	1.51233	-3.78665
H	-0.150833	1.8495	-3.3116
H	0.376043	0.151845	-3.66697
N	0.104673	0.46241	-0.998009
C	0.31485	0.231806	0.408929
C	-0.730845	-0.760194	0.879773
O	-1.70609	-1.02539	0.179483
H	-0.797934	0.216828	-1.34141
H	1.28699	-0.223441	0.549495
C	0.204	1.54415	1.21675
H	-0.794278	2.00884	1.06972
H	0.365455	1.37023	2.30048
H	0.974423	2.26277	0.861519
N	-0.538679	-1.35055	2.07583
C	-1.47511	-2.3169	2.60067
H	0.260505	-1.12794	2.62445
H	-1.1428	-2.68616	3.59589
H	-1.5643	-3.19025	1.9147
H	-2.48604	-1.86282	2.71473
C	2003.86	-0.703231	3.27151
C	2004.15	-0.193413	1.91149
O	2005.21	0.365864	1.65477
H	2004.73	-0.481691	3.93571
H	2003.71	-1.80178	3.24277
H	2002.96	-0.209887	3.6829
N	2003.19	-0.373907	0.997519
C	2003.32	0.0666347	-0.368342
C	2001.93	0.182223	-0.956289
O	2000.96	-0.314128	-0.382581
H	2002.32	-0.805026	1.22627
H	2003.77	1.05383	-0.378548
C	2004.17	-0.922556	-1.1996
H	2003.71	-1.93443	-1.18642
H	2004.27	-0.586307	-2.25179
H	2005.19	-0.999227	-0.758012
N	2001.79	0.863539	-2.11091
C	2000.51	1.03554	-2.73882
H	2002.59	1.26395	-2.55607
H	2000.6	1.62201	-3.67912
H	1999.81	1.5745	-2.05921
H	2000.05	0.0476173	-2.98608
