44
  This energy is 9.87193e-320 and Call times are: 83565
C	-0.274326	-2.42224	-2.48669
C	-0.649691	-1.12021	-1.89086
O	-1.37111	-0.334798	-2.49017
H	-0.737971	-2.51296	-3.493
H	-0.637343	-3.25436	-1.84745
H	0.828911	-2.4914	-2.59171
N	-0.154353	-0.857703	-0.679207
C	-0.430048	0.366435	0.0295284
C	0.656905	0.557713	1.06933
O	1.41354	-0.365326	1.36485
H	0.455858	-1.4932	-0.21367
H	-0.371227	1.19553	-0.664163
C	-1.8157	0.321725	0.711501
H	-1.87279	-0.530391	1.42196
H	-2.03126	1.26281	1.25801
H	-2.60302	0.18008	-0.0606432
N	0.773342	1.77518	1.63521
C	1.78642	2.05405	2.62622
H	0.15601	2.51119	1.37748
H	1.71857	3.10914	2.97181
H	2.80436	1.88802	2.20494
H	1.66563	1.38698	3.5103
C	3959.21	2.8014	1.91348
C	3960.03	2.11415	0.884287
O	3960.85	2.72492	0.21576
H	3959.48	3.87953	1.93504
H	3959.41	2.36134	2.91354
H	3958.13	2.70633	1.67509
N	3959.8	0.806851	0.729167
C	3960.52	0.00175409	-0.231197
C	3959.69	-1.23948	-0.502912
O	3958.75	-1.54252	0.231481
H	3959.11	0.326555	1.2597
H	3960.6	0.55218	-1.15984
C	3961.91	-0.395919	0.293697
H	3961.83	-0.959834	1.24679
H	3962.46	-1.01578	-0.443372
H	3962.51	0.522037	0.489972
N	3960.01	-1.97817	-1.58431
C	3959.27	-3.17007	-1.92898
H	3960.76	-1.71242	-2.17032
H	3959.68	-3.63776	-2.84909
H	3958.19	-2.92829	-2.11134
H	3959.32	-3.91624	-1.1032
