44
  This energy is 1.92982e-320 and Call times are: 86715
C	-0.572036	3.36272	0.700708
C	-0.45677	2.2321	-0.24777
O	-0.746052	2.3653	-1.4289
H	-0.946196	4.25908	0.159955
H	0.420611	3.59637	1.13989
H	-1.28511	3.10957	1.51335
N	-0.029543	1.07353	0.25973
C	0.13411	-0.115936	-0.537271
C	0.113237	-1.30965	0.39753
O	0.227559	-1.15873	1.61243
H	0.175146	0.970011	1.22943
H	-0.71039	-0.208812	-1.20829
C	1.46042	-0.0843796	-1.32912
H	2.32461	0.0116334	-0.6377
H	1.58955	-0.998717	-1.94401
H	1.46374	0.795153	-2.00924
N	-0.0562482	-2.52935	-0.149826
C	-0.100975	-3.72264	0.662732
H	-0.154095	-2.63003	-1.13447
H	-0.245093	-4.62504	0.0285805
H	-0.940863	-3.66956	1.39281
H	0.846995	-3.84408	1.23526
C	4107.97	-3.06661	-0.504063
C	4106.92	-2.22854	0.118298
O	4106.02	-2.72953	0.771945
H	4107.77	-4.13595	-0.27553
H	4108.97	-2.7935	-0.0997721
H	4107.97	-2.92793	-1.60575
N	4107.02	-0.911923	-0.0802475
C	4106.07	0.0320758	0.461267
C	4106.17	1.30589	-0.355962
O	4107.11	1.49329	-1.12204
H	4107.74	-0.518444	-0.638988
H	4105.07	-0.363135	0.340858
C	4106.37	0.33197	1.94814
H	4107.4	0.736618	2.0681
H	4105.64	1.05839	2.36831
H	4106.3	-0.609232	2.53577
N	4105.17	2.20614	-0.226559
C	4105.17	3.44239	-0.973465
H	4104.41	2.03292	0.393234
H	4104.27	4.04873	-0.727926
H	4105.17	3.23954	-2.06895
H	4106.08	4.04646	-0.73617
