44
  This energy is 5.17336e-320 and Call times are: 113973
C	-3.41445	-0.561122	0.39089
C	-2.23503	-0.242718	-0.445038
O	-2.32288	-0.174998	-1.66331
H	-4.29872	-0.715137	-0.265018
H	-3.62611	0.276222	1.08866
H	-3.23225	-1.48936	0.972372
N	-1.08519	-0.0429567	0.203292
C	0.147669	0.275249	-0.471719
C	1.29239	-0.0776413	0.457973
O	1.08752	-0.306669	1.64852
H	-1.0203	-0.129624	1.19385
H	0.236557	-0.346382	-1.35362
C	0.212083	1.77202	-0.849385
H	0.119921	2.40685	0.0575974
H	1.16003	2.02046	-1.36945
H	-0.632293	2.01803	-1.52957
N	2.52885	-0.151111	-0.0728343
C	3.67807	-0.491909	0.732979
H	2.67308	0.0307396	-1.03998
H	4.60323	-0.498765	0.115505
H	3.55323	-1.50096	1.18847
H	3.81232	0.244966	1.5577
C	5394.75	-0.306568	-2.24277
C	5396	-0.813515	-1.61932
O	5396.41	-1.94038	-1.85669
H	5394.32	-1.0953	-2.89713
H	5394.97	0.590981	-2.85852
H	5394.01	-0.0447079	-1.45931
N	5396.63	0.0210543	-0.789462
C	5397.85	-0.328206	-0.107858
C	5397.99	0.585603	1.09401
O	5397.29	1.59166	1.20371
H	5396.27	0.925925	-0.581692
H	5397.77	-1.34378	0.25863
C	5399.07	-0.176985	-1.03628
H	5399.15	0.865886	-1.41096
H	5400.02	-0.445263	-0.514667
H	5398.96	-0.850556	-1.91326
N	5398.89	0.242023	2.03909
C	5399.08	1.04488	3.22392
H	5399.44	-0.57979	1.93547
H	5399.86	0.598135	3.87791
H	5398.13	1.11879	3.80793
H	5399.4	2.07693	2.95142
