44
  This energy is 1.08798e-319 and Call times are: 109815
C	1.30721	-0.14678	-3.22425
C	0.888026	-0.790931	-1.95912
O	0.862197	-2.00889	-1.8477
H	1.55847	-0.931664	-3.97036
H	2.2033	0.486027	-3.05277
H	0.483557	0.480339	-3.62582
N	0.539291	0.027837	-0.963946
C	0.10961	-0.448965	0.326349
C	-0.678303	0.660995	0.994496
O	-0.643439	1.80889	0.555229
H	0.536675	1.01791	-1.07654
H	-0.55914	-1.28875	0.186312
C	1.31377	-0.850253	1.20731
H	1.99809	0.0134134	1.34836
H	0.986488	-1.21799	2.2015
H	1.88334	-1.66311	0.706323
N	-1.42876	0.337255	2.06595
C	-2.22172	1.32539	2.75948
H	-1.44932	-0.598682	2.40185
H	-2.76543	0.864517	3.61343
H	-2.97072	1.78109	2.07204
H	-1.5747	2.14151	3.15507
C	5200.54	2.68433	-1.74908
C	5200.65	1.84553	-0.534853
O	5200.09	2.16025	0.506717
H	5199.9	3.57045	-1.52469
H	5200.06	2.10517	-2.57087
H	5201.54	3.03197	-2.07092
N	5201.4	0.74364	-0.643861
C	5201.6	-0.172034	0.449699
C	5202.86	-0.971039	0.158018
O	5203.36	-0.965263	-0.964298
H	5201.87	0.513407	-1.48952
H	5201.78	0.395003	1.35538
C	5200.4	-1.12196	0.622932
H	5200.22	-1.70161	-0.308254
H	5200.55	-1.82827	1.46422
H	5199.48	-0.524429	0.834936
N	5203.41	-1.66366	1.17454
C	5204.61	-2.44359	0.993893
H	5202.99	-1.64991	2.07722
H	5204.9	-2.94001	1.94509
H	5205.45	-1.79495	0.662584
H	5204.46	-3.23065	0.220696
