44
  This energy is 4.6294e-321 and Call times are: 42699
C	-1.77663	-0.222264	-2.98669
C	-1.70591	-0.257889	-1.50853
O	-2.7202	-0.327883	-0.828241
H	-2.8412	-0.261615	-3.3045
H	-1.24084	-1.09464	-3.41646
H	-1.32178	0.715652	-3.36926
N	-0.484702	-0.203592	-0.971811
C	-0.254188	-0.229136	0.450525
C	1.11902	0.358987	0.710594
O	1.91804	0.521037	-0.209813
H	0.332183	-0.117344	-1.5359
H	-0.982272	0.407907	0.93647
C	-0.329704	-1.66856	1.00684
H	0.418086	-2.31951	0.505659
H	-0.152823	-1.69185	2.1018
H	-1.33997	-2.08851	0.808976
N	1.41756	0.714107	1.97581
C	2.69622	1.29304	2.31643
H	0.754835	0.581592	2.70552
H	2.75005	1.5147	3.40511
H	2.85911	2.24263	1.75697
H	3.52504	0.594358	2.05938
C	2023.16	0.638448	1.37014
C	2024.44	-0.110834	1.33295
O	2024.73	-0.91358	2.20997
H	2022.59	0.34568	2.27763
H	2022.55	0.403456	0.47126
H	2023.36	1.73039	1.4069
N	2025.25	0.144635	0.301185
C	2026.52	-0.504973	0.126837
C	2027.36	0.359319	-0.791776
O	2026.85	1.26852	-1.44258
H	2025.01	0.822193	-0.391358
H	2027.02	-0.554878	1.08403
C	2026.35	-1.91718	-0.47739
H	2025.84	-1.86233	-1.45896
H	2027.33	-2.42028	-0.612834
H	2025.74	-2.54	0.204312
N	2028.69	0.10739	-0.848827
C	2029.57	0.886122	-1.68647
H	2029.08	-0.628175	-0.309086
H	2030.62	0.524357	-1.59719
H	2029.54	1.96047	-1.39266
H	2029.26	0.812876	-2.75507
