44
  This energy is 9.28794e-320 and Call times are: 64329
C	3.38517	0.458141	0.675939
C	2.03752	-0.027668	1.04883
O	1.86287	-0.695172	2.05899
H	4.12263	0.112209	1.43247
H	3.39655	1.56796	0.644286
H	3.67514	0.0573107	-0.318141
N	1.04028	0.298058	0.22314
C	-0.325563	-0.100851	0.451581
C	-1.05915	-0.0311717	-0.873649
O	-0.563597	0.551078	-1.83659
H	1.20002	0.817624	-0.612007
H	-0.340477	-1.13171	0.782004
C	-1.01325	0.815341	1.4883
H	-0.995564	1.8722	1.14646
H	-2.06505	0.510898	1.66669
H	-0.465758	0.756264	2.45417
N	-2.25509	-0.646319	-0.959205
C	-3.02058	-0.643069	-2.18403
H	-2.63592	-1.11829	-0.170889
H	-3.97482	-1.19937	-2.05285
H	-2.4452	-1.12361	-3.0082
H	-3.26214	0.399459	-2.49381
C	3048.29	0.347593	-2.38934
C	3049.01	-0.439454	-1.36302
O	3048.6	-1.53141	-0.99804
H	3047.39	-0.211356	-2.71291
H	3048.94	0.514931	-3.27125
H	3047.98	1.32712	-1.97061
N	3050.12	0.111106	-0.86351
C	3050.93	-0.532771	0.141008
C	3051.75	0.536055	0.830014
O	3051.86	1.66149	0.345398
H	3050.43	1.01422	-1.14792
H	3050.28	-0.97638	0.884461
C	3051.85	-1.60077	-0.481995
H	3052.52	-1.14236	-1.24471
H	3052.48	-2.09863	0.288727
H	3051.24	-2.37722	-0.98457
N	3052.35	0.212424	1.99541
C	3053.14	1.16868	2.7287
H	3052.25	-0.701476	2.37483
H	3053.55	0.71241	3.65898
H	3052.53	2.05558	3.01094
H	3054	1.52305	2.11069
