44
  This energy is 5.15656e-320 and Call times are: 26823
C	-2.62276	1.06044	2.03045
C	-1.91572	1.02409	0.730464
O	-2.41073	1.51885	-0.272862
H	-3.59992	1.57495	1.90282
H	-2.01922	1.61591	2.7788
H	-2.80526	0.0279632	2.39602
N	-0.724507	0.421366	0.71996
C	0.0829864	0.306643	-0.468156
C	1.05899	-0.834936	-0.259713
O	1.23985	-1.3109	0.859477
H	-0.345031	-0.00347418	1.53754
H	-0.554774	0.0458264	-1.30321
C	0.850764	1.61634	-0.755082
H	1.50353	1.88129	0.103881
H	1.47342	1.53153	-1.66935
H	0.124705	2.44495	-0.904706
N	1.6978	-1.31704	-1.34392
C	2.63612	-2.41054	-1.24401
H	1.53253	-0.923119	-2.24211
H	3.05678	-2.66027	-2.24298
H	2.13785	-3.31979	-0.836295
H	3.4786	-2.14479	-0.565196
C	1276.97	3.13687	-1.51175
C	1277.69	1.96036	-0.968334
O	1278.9	1.84042	-1.09843
H	1277.7	3.80911	-2.01542
H	1276.47	3.69559	-0.690663
H	1276.21	2.81343	-2.25182
N	1276.94	1.04887	-0.341963
C	1277.49	-0.14882	0.239575
C	1276.37	-1.1575	0.381942
O	1275.19	-0.81115	0.267291
H	1275.95	1.14381	-0.26797
H	1278.22	-0.565418	-0.440664
C	1278.13	0.13663	1.61855
H	1277.37	0.564537	2.31368
H	1278.55	-0.783423	2.0691
H	1278.95	0.877711	1.50082
N	1276.71	-2.44094	0.615073
C	1275.7	-3.47305	0.753198
H	1277.66	-2.70253	0.697513
H	1276.18	-4.4601	0.942753
H	1275.09	-3.55213	-0.173562
H	1275.02	-3.24542	1.60197
