44
  This energy is 3.70006e-320 and Call times are: 81129
C	-1.91592	-1.68892	2.36705
C	-0.815244	-1.63935	1.37849
O	-0.0350033	-2.57317	1.25323
H	-1.87446	-2.65546	2.91471
H	-2.89644	-1.60943	1.85217
H	-1.81327	-0.857913	3.09632
N	-0.724717	-0.526098	0.647154
C	0.292166	-0.329747	-0.354955
C	0.426667	1.16118	-0.596356
O	-0.424434	1.94471	-0.179776
H	-1.34872	0.239538	0.778892
H	1.23887	-0.687424	0.0296184
C	-0.0699415	-1.05074	-1.67259
H	-1.04199	-0.681874	-2.06396
H	0.711007	-0.901748	-2.44635
H	-0.166741	-2.14183	-1.48209
N	1.51764	1.59097	-1.26048
C	1.7366	2.99368	-1.52628
H	2.19861	0.941893	-1.58328
H	2.68688	3.14451	-2.08438
H	1.79404	3.56964	-0.574329
H	0.902549	3.41346	-2.134
C	3845.26	-1.80581	-2.69584
C	3844.82	-0.540096	-2.07217
O	3844.96	0.532078	-2.64324
H	3845.72	-1.58672	-3.68701
H	3844.4	-2.48826	-2.8388
H	3846.02	-2.3009	-2.05482
N	3844.26	-0.639347	-0.862993
C	3843.77	0.502604	-0.12952
C	3843.71	0.120029	1.33614
O	3843.79	-1.05667	1.68317
H	3844.17	-1.51533	-0.395776
H	3844.49	1.31103	-0.225354
C	3842.38	0.942203	-0.62976
H	3841.65	0.110266	-0.53063
H	3842	1.82137	-0.0672313
H	3842.44	1.21867	-1.70478
N	3843.57	1.11431	2.23621
C	3843.51	0.846602	3.65418
H	3843.52	2.06074	1.93593
H	3843.4	1.79274	4.22853
H	3844.44	0.33395	3.99822
H	3842.65	0.188568	3.89235
