44
  This energy is 4.4041e-320 and Call times are: 119727
C	-2.84	1.91512	-0.62677
C	-1.73843	1.47113	0.256761
O	-1.54286	2.00396	1.34043
H	-3.38491	2.75373	-0.141319
H	-3.54968	1.07954	-0.802797
H	-2.43358	2.26549	-1.59888
N	-0.979156	0.471848	-0.198535
C	0.129397	-0.0695077	0.546363
C	1.04752	-0.775942	-0.432021
O	0.671271	-1.03234	-1.57418
H	-1.13058	0.065559	-1.09572
H	0.686534	0.745668	0.990391
C	-0.351598	-1.05795	1.63206
H	-0.923343	-1.89258	1.17313
H	0.49944	-1.47656	2.20763
H	-1.02419	-0.528595	2.34168
N	2.2886	-1.08878	-0.010285
C	3.23614	-1.7515	-0.875812
H	2.57665	-0.8665	0.91538
H	4.19888	-1.92393	-0.346046
H	3.43976	-1.13458	-1.7809
H	2.83931	-2.73683	-1.21172
C	5669.09	3.26244	1.21258
C	5669.61	2.23634	0.283266
O	5670.35	2.54057	-0.644604
H	5669.47	4.26212	0.907335
H	5669.43	3.05023	2.24803
H	5667.98	3.27421	1.18343
N	5669.23	0.977659	0.513736
C	5669.66	-0.130147	-0.303092
C	5668.67	-1.26363	-0.104035
O	5667.87	-1.23963	0.824421
H	5668.61	0.746474	1.25543
H	5669.62	0.163625	-1.34425
C	5671.08	-0.593185	0.0770836
H	5671.12	-0.893186	1.14598
H	5671.42	-1.44597	-0.550041
H	5671.8	0.246363	-0.0719876
N	5668.7	-2.27833	-0.990438
C	5667.79	-3.39498	-0.887832
H	5669.35	-2.27593	-1.73911
H	5667.97	-4.12539	-1.70727
H	5666.73	-3.04777	-0.953232
H	5667.92	-3.92076	0.0856003
