44
  This energy is 1.22341e-319 and Call times are: 59331
C	-2.10567	1.64842	-2.23047
C	-0.815575	1.5112	-1.51771
O	0.135192	2.23269	-1.78601
H	-2.02338	2.45978	-2.98597
H	-2.91343	1.90568	-1.51342
H	-2.35982	0.699611	-2.74827
N	-0.753261	0.56109	-0.581875
C	0.432821	0.306988	0.196244
C	0.335601	-1.1024	0.747074
O	-0.729447	-1.71617	0.719045
H	-1.52553	-0.0395584	-0.392789
H	1.29639	0.346597	-0.45549
C	0.574424	1.32102	1.35331
H	-0.313494	1.27818	2.01956
H	1.48675	1.12834	1.95441
H	0.64349	2.34953	0.936733
N	1.45823	-1.65821	1.24383
C	1.46429	-2.99979	1.77892
H	2.31191	-1.14791	1.25109
H	2.47993	-3.27467	2.13971
H	1.15828	-3.73493	0.999717
H	0.753686	-3.08567	2.63265
C	2810.17	0.6147	0.810531
C	2811.27	0.495629	-0.173367
O	2811.05	0.546477	-1.37585
H	2809.21	0.739531	0.270855
H	2810.33	1.49848	1.46236
H	2810.12	-0.300838	1.43644
N	2812.5	0.325758	0.325726
C	2813.67	0.194373	-0.504665
C	2814.75	-0.485223	0.315504
O	2814.63	-0.592239	1.53534
H	2812.66	0.256777	1.30657
H	2813.43	-0.451712	-1.34153
C	2814.16	1.57143	-0.999029
H	2814.4	2.23191	-0.137936
H	2815.06	1.47393	-1.63884
H	2813.36	2.05943	-1.5974
N	2815.81	-0.982165	-0.342842
C	2816.88	-1.65613	0.353162
H	2815.88	-0.891844	-1.33098
H	2817.67	-1.99019	-0.361365
H	2816.5	-2.55058	0.894579
H	2817.35	-0.977212	1.09979
