44
  This energy is 7.9179e-320 and Call times are: 15945
C	-1.95286	2.70839	0.988468
C	-1.24365	1.4413	1.27605
O	-1.13502	1.02287	2.42043
H	-2.31791	3.14942	1.94141
H	-2.8221	2.51807	0.324366
H	-1.26498	3.42958	0.498929
N	-0.732275	0.796213	0.224988
C	-0.015688	-0.448377	0.344672
C	0.840628	-0.614097	-0.89569
O	0.657049	0.0922377	-1.88525
H	-0.802203	1.1622	-0.699187
H	0.648498	-0.391353	1.19771
C	-0.984287	-1.64387	0.485168
H	-1.66463	-1.69897	-0.391308
H	-0.435831	-2.60377	0.577694
H	-1.60661	-1.50991	1.39671
N	1.81634	-1.54301	-0.862144
C	2.68895	-1.76344	-1.99181
H	1.95362	-2.09971	-0.0494514
H	3.42344	-2.5688	-1.77009
H	3.2517	-0.834663	-2.24066
H	2.10136	-2.0622	-2.88996
C	760.293	1.60642	3.04768
C	761.163	1.18948	1.92503
O	762.315	1.58983	1.83549
H	760.857	2.29484	3.71363
H	759.974	0.719406	3.63467
H	759.396	2.135	2.66119
N	760.618	0.366326	1.02636
C	761.338	-0.126458	-0.120414
C	760.321	-0.570304	-1.15395
O	759.138	-0.714033	-0.850637
H	759.669	0.0704395	1.09469
H	761.912	0.684545	-0.550653
C	762.26	-1.3069	0.259004
H	761.668	-2.13683	0.700677
H	762.816	-1.68867	-0.621658
H	762.999	-0.969143	1.01748
N	760.758	-0.777619	-2.4118
C	759.86	-1.1902	-3.46518
H	761.718	-0.649054	-2.63897
H	760.409	-1.30967	-4.42534
H	759.055	-0.434645	-3.61337
H	759.379	-2.16277	-3.21293
