44
  This energy is 1.5232e-320 and Call times are: 112545
C	2.51288	1.93658	1.43569
C	1.48785	0.871214	1.50984
O	1.38616	0.159029	2.49925
H	3.10856	1.93909	2.37432
H	2.02669	2.9276	1.316
H	3.19411	1.75343	0.57818
N	0.696907	0.734029	0.443085
C	-0.346584	-0.256936	0.365993
C	-0.669634	-0.480376	-1.09857
O	-0.267042	0.301891	-1.95753
H	0.80875	1.30124	-0.36852
H	0.0251546	-1.19128	0.767106
C	-1.61237	0.198831	1.12571
H	-1.99066	1.15796	0.712075
H	-2.41781	-0.561945	1.06851
H	-1.3622	0.360227	2.19693
N	-1.39036	-1.5727	-1.42013
C	-1.7359	-1.87369	-2.78987
H	-1.70083	-2.19751	-0.711302
H	-2.33169	-2.81117	-2.84823
H	-0.817649	-2.00298	-3.40739
H	-2.33726	-1.04775	-3.23414
C	5326.22	-0.727941	-1.215
C	5327.22	0.219458	-0.679732
O	5327	1.42183	-0.641971
H	5325.32	-0.163149	-1.5453
H	5325.92	-1.4524	-0.428772
H	5326.64	-1.27812	-2.0841
N	5328.37	-0.311445	-0.252655
C	5329.44	0.481271	0.294387
C	5330.72	-0.324175	0.181172
O	5330.69	-1.52683	-0.0723338
H	5328.55	-1.2894	-0.315632
H	5329.56	1.3742	-0.306073
C	5329.17	0.847563	1.77119
H	5329.05	-0.0707947	2.38419
H	5330	1.45808	2.1955
H	5328.23	1.43629	1.84074
N	5331.89	0.329618	0.346196
C	5333.16	-0.352264	0.244556
H	5331.9	1.30439	0.543668
H	5334	0.355578	0.413146
H	5333.28	-0.807277	-0.765084
H	5333.23	-1.167	1.00117
