44
  This energy is 1.14821e-320 and Call times are: 42951
C	-0.554969	-1.4863	-3.09985
C	-1.00786	-1.08556	-1.74874
O	-2.17703	-1.20956	-1.41085
H	-1.42157	-1.8754	-3.67731
H	0.213983	-2.28372	-3.02472
H	-0.129253	-0.612027	-3.63591
N	-0.0759628	-0.58224	-0.935964
C	-0.362715	-0.14839	0.40805
C	0.733487	0.809528	0.832282
O	1.77575	0.898048	0.185998
H	0.867233	-0.459235	-1.23293
H	-1.29667	0.399144	0.409321
C	-0.429377	-1.34494	1.38321
H	0.530133	-1.90479	1.37889
H	-0.650159	-1.01446	2.41898
H	-1.23531	-2.03971	1.06086
N	0.512338	1.56887	1.92338
C	1.49386	2.51759	2.39532
H	-0.340473	1.48772	2.42871
H	1.12745	3.043	3.30468
H	1.71054	3.28069	1.61304
H	2.44853	2.00226	2.64875
C	2035.14	1.43427	-0.309865
C	2036.36	0.839288	-0.895329
O	2036.44	0.592063	-2.09118
H	2034.39	1.58279	-1.11111
H	2035.38	2.41759	0.149062
H	2034.72	0.757875	0.462526
N	2037.37	0.587412	-0.0485935
C	2038.62	0.0103873	-0.468089
C	2039.28	-0.603647	0.750378
O	2038.88	-0.34209	1.8826
H	2037.28	0.766376	0.928195
H	2038.42	-0.787917	-1.17187
C	2039.54	1.07458	-1.09635
H	2039.75	1.89237	-0.371877
H	2040.51	0.633639	-1.4206
H	2039.05	1.51758	-1.9871
N	2040.3	-1.45685	0.543321
C	2040.98	-2.09881	1.64231
H	2040.61	-1.66117	-0.380772
H	2041.8	-2.76128	1.26803
H	2040.27	-2.71663	2.23877
H	2041.44	-1.33998	2.32131
