44
  This energy is 1.40606e-319 and Call times are: 98265
C	1.22603	2.13169	2.46554
C	0.238319	1.14685	1.96983
O	-0.621274	0.68642	2.70848
H	1.0368	2.33137	3.54265
H	1.133	3.08374	1.90183
H	2.25578	1.73284	2.34944
N	0.346148	0.793078	0.68703
C	-0.54114	-0.15376	0.0600993
C	0.15444	-0.698851	-1.17209
O	1.15883	-0.15008	-1.62141
H	1.06881	1.15331	0.103133
H	-0.707455	-0.981867	0.737338
C	-1.88083	0.506922	-0.334662
H	-1.70645	1.35645	-1.02893
H	-2.56648	-0.219376	-0.81753
H	-2.37988	0.903176	0.576425
N	-0.354884	-1.81144	-1.73666
C	0.247357	-2.40927	-2.90546
H	-1.16415	-2.24486	-1.35396
H	-0.317502	-3.3146	-3.21939
H	1.29994	-2.70813	-2.69573
H	0.255777	-1.68894	-3.7553
C	4653.11	2.97172	-0.293063
C	4653.69	1.87806	0.516007
O	4653.69	1.92415	1.73844
H	4652.72	3.76067	0.384619
H	4652.27	2.58434	-0.914929
H	4653.88	3.41675	-0.951367
N	4654.22	0.856213	-0.161457
C	4654.82	-0.281228	0.485109
C	4655.75	-0.949809	-0.515057
O	4655.69	-0.667418	-1.71035
H	4654.24	0.844027	-1.15758
H	4655.43	0.0653155	1.31206
C	4653.76	-1.28376	0.974141
H	4653.13	-1.63671	0.123351
H	4654.22	-2.16073	1.47262
H	4653.09	-0.781523	1.70523
N	4656.64	-1.84143	-0.0424997
C	4657.57	-2.51897	-0.918511
H	4656.68	-2.05111	0.929077
H	4658.22	-3.21297	-0.341752
H	4658.22	-1.78432	-1.44499
H	4657.02	-3.10954	-1.68874
