44
  This energy is 1.50053e-319 and Call times are: 98643
C	2.89207	1.47965	1.25407
C	2.20375	0.483584	0.402439
O	2.82852	-0.219223	-0.379999
H	3.98289	1.45367	1.04119
H	2.72956	1.24338	2.32672
H	2.5079	2.49881	1.03804
N	0.877606	0.405338	0.535081
C	0.0690851	-0.514886	-0.22407
C	-1.35527	0.00515231	-0.221906
O	-1.69956	0.891778	0.557321
H	0.376821	1.00365	1.1549
H	0.414673	-0.523182	-1.25002
C	0.116695	-1.93607	0.380148
H	-0.237862	-1.92377	1.43288
H	-0.50467	-2.64722	-0.202048
H	1.16545	-2.30515	0.373927
N	-2.21496	-0.523125	-1.11514
C	-3.58799	-0.0819284	-1.19459
H	-1.91531	-1.23471	-1.74211
H	-4.13398	-0.636806	-1.98911
H	-3.6381	1.00602	-1.42931
H	-4.11174	-0.250614	-0.225878
C	4675.62	-2.1557	0.235125
C	4674.17	-1.88624	0.285492
O	4673.36	-2.79796	0.389654
H	4675.8	-3.25203	0.298758
H	4676.14	-1.66133	1.08829
H	4676.05	-1.7794	-0.718617
N	4673.8	-0.60571	0.205279
C	4672.42	-0.185702	0.240759
C	4672.34	1.19521	-0.380151
O	4673.36	1.85917	-0.573394
H	4674.47	0.125661	0.091343
H	4671.83	-0.857271	-0.371505
C	4671.88	-0.150624	1.68782
H	4672.49	0.53876	2.31331
H	4670.82	0.17223	1.71878
H	4671.95	-1.16774	2.13183
N	4671.12	1.6522	-0.728726
C	4670.95	2.9505	-1.33708
H	4670.31	1.09692	-0.570717
H	4669.87	3.14462	-1.54781
H	4671.51	3.01351	-2.29682
H	4671.32	3.75411	-0.663257
