44
  This energy is 6.33343e-320 and Call times are: 38919
C	0.14065	3.09292	1.5938
C	0.748477	2.0255	0.767744
O	1.83752	2.18225	0.233034
H	0.817829	3.97438	1.61122
H	-0.0084486	2.73372	2.63379
H	-0.836813	3.39904	1.16509
N	0.0419185	0.900023	0.639534
C	0.50099	-0.2275	-0.131681
C	-0.707641	-1.07039	-0.48942
O	-1.78645	-0.893095	0.0732302
H	-0.857216	0.795506	1.05615
H	0.936439	0.1319	-1.05542
C	1.52243	-1.073	0.661362
H	1.07262	-1.43952	1.6087
H	1.87809	-1.94193	0.0704049
H	2.40238	-0.443884	0.918357
N	-0.558951	-1.99811	-1.45546
C	-1.65728	-2.83905	-1.87101
H	0.320231	-2.12147	-1.90385
H	-1.33543	-3.53787	-2.67432
H	-2.49932	-2.22187	-2.25998
H	-2.03751	-3.44098	-1.01411
C	1849.62	-1.63565	-1.43834
C	1848.44	-1.60694	-0.5366
O	1848.05	-2.623	0.0165104
H	1850.01	-2.67449	-1.49915
H	1850.42	-0.972879	-1.04637
H	1849.33	-1.30104	-2.45631
N	1847.85	-0.421867	-0.371698
C	1846.7	-0.234561	0.474225
C	1846	1.03696	0.0344097
O	1846.56	1.83482	-0.715507
H	1848.17	0.392878	-0.850653
H	1846.01	-1.05744	0.321087
C	1847.11	-0.13068	1.96148
H	1847.81	0.714082	2.11487
H	1846.22	0.0134385	2.61565
H	1847.62	-1.06766	2.271
N	1844.74	1.24468	0.476694
C	1844	2.42132	0.100762
H	1844.31	0.583719	1.07712
H	1842.99	2.41044	0.566822
H	1843.87	2.47076	-1.00522
H	1844.52	3.34519	0.430176
