44
  This energy is 7.2766e-320 and Call times are: 108261
C	2.7896	1.40722	1.53753
C	1.77738	1.3724	0.457994
O	1.70135	2.27237	-0.367096
H	3.39367	2.33586	1.44479
H	3.46504	0.529651	1.45709
H	2.29142	1.40013	2.52986
N	0.960749	0.31632	0.444641
C	-0.0740188	0.140846	-0.542928
C	-1.09762	-0.825111	0.0213473
O	-0.843709	-1.49856	1.01826
H	1.01377	-0.39583	1.1396
H	-0.570698	1.08916	-0.704463
C	0.500364	-0.407948	-1.86808
H	1.00976	-1.38052	-1.69858
H	-0.293696	-0.544114	-2.63077
H	1.24967	0.308105	-2.27051
N	-2.29375	-0.898875	-0.59496
C	-3.33444	-1.7816	-0.121748
H	-2.48252	-0.340479	-1.39608
H	-4.2406	-1.69975	-0.76162
H	-3.62006	-1.52681	0.924555
H	-2.98874	-2.84058	-0.137131
C	5125.32	-2.30119	0.392588
C	5126.48	-1.55558	0.911185
O	5126.8	-1.61496	2.09171
H	5124.84	-2.8597	1.22614
H	5125.64	-3.02417	-0.38608
H	5124.57	-1.59742	-0.0409577
N	5127.16	-0.820377	0.0247148
C	5128.32	-0.0401241	0.377623
C	5128.5	1.02899	-0.682101
O	5127.9	0.965321	-1.75
H	5126.88	-0.757151	-0.928313
H	5128.13	0.459199	1.32012
C	5129.59	-0.921623	0.466163
H	5129.77	-1.43289	-0.502203
H	5130.48	-0.324025	0.737861
H	5129.44	-1.70142	1.24498
N	5129.33	2.05382	-0.400153
C	5129.56	3.12399	-1.34339
H	5129.81	2.09105	0.472455
H	5130.27	3.86965	-0.928378
H	5128.6	3.64684	-1.58086
H	5129.98	2.72666	-2.29484
