44
  This energy is 4.5538e-320 and Call times are: 75207
C	1.26641	-2.07123	-2.49647
C	1.25537	-0.796435	-1.74415
O	2.11726	0.0525392	-1.92547
H	2.14132	-2.08545	-3.18218
H	0.337609	-2.16913	-3.09694
H	1.34516	-2.92879	-1.79552
N	0.264369	-0.635798	-0.864102
C	0.119416	0.549965	-0.0580115
C	-0.738118	0.196009	1.1414
O	-1.37943	-0.852723	1.16808
H	-0.415068	-1.34702	-0.704525
H	1.09343	0.846472	0.310025
C	-0.53493	1.69793	-0.858714
H	-1.53368	1.3901	-1.23534
H	-0.647905	2.61255	-0.241065
H	0.102236	1.94695	-1.73516
N	-0.751546	1.05864	2.17663
C	-1.52933	0.799804	3.36584
H	-0.220195	1.89856	2.13888
H	-1.41075	1.62619	4.10087
H	-1.20312	-0.1492	3.84981
H	-2.61082	0.705672	3.11543
C	3566.22	0.189446	-3.21768
C	3565.26	-0.364486	-2.23368
O	3564.35	-1.10371	-2.58327
H	3565.95	-0.171355	-4.23437
H	3567.25	-0.145046	-2.97832
H	3566.18	1.29906	-3.20791
N	3565.45	-0.00757758	-0.960612
C	3564.6	-0.465092	0.110719
C	3564.75	0.500533	1.26994
O	3565.67	1.31537	1.29297
H	3566.17	0.618534	-0.692449
H	3563.57	-0.426932	-0.216378
C	3564.98	-1.8948	0.557104
H	3566.04	-1.93046	0.891391
H	3564.33	-2.25025	1.3818
H	3564.86	-2.59224	-0.3012
N	3563.83	0.445057	2.25406
C	3563.89	1.33315	3.39171
H	3563.09	-0.216586	2.21365
H	3563.05	1.13073	4.09086
H	3563.82	2.39601	3.06402
H	3564.84	1.20057	3.94661
