44
  This energy is 6.1279e-320 and Call times are: 32997
C	-1.47014	-2.83697	1.38436
C	-1.05504	-2.02257	0.220034
O	-1.14298	-2.45773	-0.919877
H	-1.83279	-3.8263	1.03001
H	-2.29072	-2.32906	1.93345
H	-0.609594	-2.99355	2.06839
N	-0.580106	-0.803927	0.487833
C	-0.137	0.105272	-0.538736
C	0.787083	1.12047	0.105215
O	0.843296	1.23231	1.32839
H	-0.486214	-0.471942	1.42266
H	0.438901	-0.445303	-1.27173
C	-1.33046	0.822696	-1.20812
H	-1.91946	1.38597	-0.453197
H	-0.992845	1.52343	-1.99918
H	-2.00037	0.0681323	-1.67503
N	1.55339	1.87292	-0.708784
C	2.47182	2.85713	-0.185331
H	1.49866	1.76249	-1.69572
H	3.00866	3.37284	-1.01183
H	3.22753	2.37617	0.477102
H	1.9276	3.62422	0.411809
C	1567.2	1.07495	3.2741
C	1567.72	0.0981931	2.28963
O	1568.41	-0.846319	2.64043
H	1567.55	0.79282	4.29063
H	1566.09	1.07609	3.2644
H	1567.57	2.09335	3.03522
N	1567.39	0.312411	1.01322
C	1567.82	-0.550398	-0.0588893
C	1567.73	0.23552	-1.35267
O	1567.12	1.30027	-1.40099
H	1566.85	1.10181	0.736645
H	1568.86	-0.815041	0.0954042
C	1566.94	-1.8175	-0.146247
H	1565.87	-1.54231	-0.303879
H	1567.26	-2.48415	-0.970637
H	1567.01	-2.38371	0.807879
N	1568.36	-0.264278	-2.43189
C	1568.34	0.420562	-3.70344
H	1568.86	-1.12378	-2.37075
H	1568.92	-0.149552	-4.46556
H	1568.8	1.43493	-3.60995
H	1567.3	0.540024	-4.07037
