44
  This energy is 5.17633e-320 and Call times are: 62733
C	3.3587	-0.418464	-0.818631
C	1.92104	-0.692796	-1.04017
O	1.54062	-1.32359	-2.01683
H	3.94925	-0.859319	-1.65096
H	3.69182	-0.872633	0.138229
H	3.53957	0.676721	-0.790346
N	1.07741	-0.210911	-0.124501
C	-0.349634	-0.396218	-0.202125
C	-1.00534	0.673224	0.649687
O	-0.343487	1.33548	1.44668
H	1.39725	0.326413	0.651334
H	-0.66913	-0.243609	-1.22521
C	-0.762569	-1.7993	0.295839
H	-0.432662	-1.95272	1.34548
H	-1.86075	-1.9454	0.23729
H	-0.274793	-2.57367	-0.335484
N	-2.3263	0.881814	0.483695
C	-3.03376	1.88694	1.24225
H	-2.84299	0.340432	-0.171419
H	-4.11065	1.90385	0.96426
H	-2.60623	2.89761	1.04987
H	-2.95671	1.68167	2.33454
C	2976.47	1.01983	-2.88104
C	2976.42	0.770105	-1.4227
O	2977.43	0.854083	-0.734665
H	2977.51	1.26639	-3.17895
H	2975.81	1.87294	-3.14397
H	2976.14	0.114916	-3.43489
N	2975.23	0.44641	-0.91355
C	2975.03	0.174836	0.487026
C	2973.76	-0.63798	0.623772
O	2972.97	-0.736717	-0.315921
H	2974.42	0.352728	-1.48916
H	2975.85	-0.432864	0.850313
C	2974.91	1.48205	1.30266
H	2974.07	2.10334	0.926881
H	2974.76	1.27659	2.38156
H	2975.85	2.06887	1.19327
N	2973.53	-1.26013	1.79851
C	2972.36	-2.06572	2.01673
H	2974.19	-1.17382	2.54445
H	2972.36	-2.49098	3.04454
H	2972.32	-2.9082	1.28883
H	2971.43	-1.45469	1.88915
