44
  This energy is 9.61106e-320 and Call times are: 77181
C	1.62473	1.70144	-2.56738
C	1.37922	0.481399	-1.76588
O	1.87813	-0.591193	-2.07752
H	2.28536	1.45037	-3.42552
H	2.12249	2.47443	-1.94484
H	0.665685	2.10268	-2.95749
N	0.586291	0.6211	-0.700928
C	0.254743	-0.473628	0.175698
C	-1.01665	-0.108369	0.916902
O	-1.43632	1.04735	0.913455
H	0.162428	1.49395	-0.474177
H	0.0463779	-1.35212	-0.421726
C	1.39391	-0.754045	1.18107
H	1.60551	0.149459	1.79182
H	1.14199	-1.59651	1.8575
H	2.31982	-1.01924	0.625626
N	-1.67391	-1.09656	1.55525
C	-2.89935	-0.845473	2.27736
H	-1.322	-2.0267	1.54034
H	-3.28558	-1.78308	2.7345
H	-3.68138	-0.44017	1.59515
H	-2.7314	-0.102306	3.09018
C	3660.9	-1.14994	2.6049
C	3659.62	-1.1126	1.86963
O	3658.7	-1.86961	2.15849
H	3660.86	-1.93828	3.38728
H	3661.09	-0.170736	3.09253
H	3661.74	-1.38399	1.90896
N	3659.53	-0.218718	0.882294
C	3658.34	-0.0629086	0.0771703
C	3658.75	0.616828	-1.21721
O	3659.84	1.15565	-1.32897
H	3660.29	0.372421	0.637622
H	3657.96	-1.04265	-0.172313
C	3657.27	0.777778	0.808432
H	3657.67	1.78198	1.06346
H	3656.36	0.899586	0.191365
H	3656.99	0.269795	1.7554
N	3657.87	0.587676	-2.23801
C	3658.17	1.19808	-3.51204
H	3656.98	0.14047	-2.13019
H	3657.32	1.06951	-4.21974
H	3659.07	0.735963	-3.96471
H	3658.36	2.28856	-3.38974
