44
  This energy is 8.26127e-320 and Call times are: 121197
C	2.73647	2.08261	-0.548284
C	1.33936	1.67199	-0.814163
O	0.604148	2.34961	-1.519
H	2.94259	3.04274	-1.06935
H	3.44031	1.31096	-0.925094
H	2.89297	2.22448	0.541819
N	0.935742	0.536065	-0.240467
C	-0.394412	0.00666603	-0.405564
C	-0.66351	-0.944158	0.744548
O	0.254315	-1.34069	1.46022
H	1.53521	0.00809993	0.355209
H	-1.1074	0.818299	-0.335068
C	-0.541574	-0.734525	-1.75319
H	0.191797	-1.56608	-1.82242
H	-1.56464	-1.1433	-1.88363
H	-0.340826	-0.0275236	-2.58745
N	-1.94028	-1.31622	0.962352
C	-2.29358	-2.20901	2.04138
H	-2.66982	-0.978834	0.376549
H	-3.39002	-2.39581	2.0542
H	-2.00083	-1.77295	3.02392
H	-1.77246	-3.18724	1.92877
C	5738.29	2.4763	2.27229
C	5737.96	1.31958	1.40773
O	5736.86	0.795107	1.44191
H	5737.4	2.72887	2.89605
H	5738.55	3.35697	1.64975
H	5739.14	2.22764	2.94027
N	5738.94	0.886939	0.604621
C	5738.77	-0.227576	-0.294049
C	5740.15	-0.757218	-0.636803
O	5741.16	-0.101524	-0.378055
H	5739.84	1.30428	0.607067
H	5738.24	-1.01589	0.217741
C	5738.03	0.193146	-1.58185
H	5738.58	1.00245	-2.104
H	5737.9	-0.662675	-2.27599
H	5737.02	0.580351	-1.31712
N	5740.23	-1.9739	-1.21101
C	5741.5	-2.5645	-1.56183
H	5739.4	-2.49199	-1.40587
H	5741.35	-3.56563	-2.02409
H	5742.14	-2.6858	-0.657868
H	5742.05	-1.91943	-2.28749
