44
  This energy is 1.55838e-319 and Call times are: 67017
C	0.616096	3.34241	0.75818
C	-0.181338	2.10265	0.893462
O	-1.09399	2.02289	1.70414
H	0.245174	4.09869	1.48366
H	0.516551	3.7511	-0.269384
H	1.68591	3.13465	0.970993
N	0.15636	1.08992	0.0917742
C	-0.526	-0.179332	0.106072
C	0.400797	-1.21344	-0.502952
O	1.40271	-0.869541	-1.12724
H	0.920608	1.15739	-0.544078
H	-0.711133	-0.467738	1.13302
C	-1.84824	-0.116124	-0.690672
H	-1.65469	0.180676	-1.74356
H	-2.3763	-1.09175	-0.681586
H	-2.51783	0.645734	-0.235302
N	0.096941	-2.51285	-0.315322
C	0.927487	-3.56763	-0.848054
H	-0.714367	-2.77092	0.19889
H	0.510057	-4.5656	-0.589085
H	1.9599	-3.50154	-0.43454
H	0.994524	-3.4927	-1.95759
C	3176.24	-1.77551	-1.5494
C	3177.58	-1.70046	-0.935245
O	3178.24	-2.71062	-0.728852
H	3175.98	-2.83905	-1.75185
H	3176.22	-1.21402	-2.50717
H	3175.48	-1.35063	-0.860218
N	3178.02	-0.480333	-0.619735
C	3179.31	-0.246011	-0.0165632
C	3179.27	1.10899	0.66266
O	3178.35	1.9006	0.428652
H	3177.46	0.332261	-0.766141
H	3179.48	-0.992317	0.748836
C	3180.44	-0.275889	-1.071
H	3180.26	0.490509	-1.85503
H	3181.43	-0.095964	-0.609943
H	3180.46	-1.27316	-1.5621
N	3180.25	1.39921	1.54161
C	3180.28	2.66017	2.24515
H	3180.97	0.742499	1.72272
H	3181.16	2.70954	2.92053
H	3179.36	2.79247	2.8599
H	3180.34	3.50957	1.52677
