44
  This energy is 1.52923e-319 and Call times are: 66891
C	-3.32297	0.483727	-0.921943
C	-1.88022	0.791381	-1.04442
O	-1.46363	1.53039	-1.92579
H	-3.88051	1.01092	-1.72636
H	-3.70472	0.825365	0.0631337
H	-3.4915	-0.608982	-1.02458
N	-1.07316	0.215876	-0.150093
C	0.353559	0.418858	-0.140147
C	0.983007	-0.73466	0.616444
O	0.293845	-1.48679	1.30287
H	-1.42126	-0.407309	0.545178
H	0.720996	0.384199	-1.15792
C	0.726232	1.76016	0.530039
H	0.34718	1.79258	1.57378
H	1.82406	1.91971	0.539261
H	0.258143	2.59694	-0.0328334
N	2.3126	-0.913927	0.489753
C	2.99719	-1.99271	1.16336
H	2.8518	-0.298846	-0.0760847
H	4.08571	-1.97069	0.935557
H	2.59125	-2.97845	0.839661
H	2.86814	-1.91176	2.26698
C	3175.95	-1.45819	0.295743
C	3174.91	-0.743054	-0.484158
O	3175.15	-0.30806	-1.60238
H	3176.89	-1.50014	-0.294642
H	3175.61	-2.49442	0.514376
H	3176.15	-0.924806	1.24939
N	3173.72	-0.599183	0.102495
C	3172.62	0.072874	-0.529936
C	3171.65	0.505661	0.556867
O	3171.75	0.0570415	1.69765
H	3173.55	-0.932481	1.02549
H	3172.98	0.966216	-1.02081
C	3171.9	-0.851428	-1.53939
H	3171.53	-1.76719	-1.03258
H	3171.05	-0.337048	-2.02831
H	3172.62	-1.16238	-2.32961
N	3170.71	1.4101	0.230633
C	3169.75	1.88994	1.20257
H	3170.65	1.76658	-0.696157
H	3169.06	2.62643	0.741368
H	3170.27	2.38499	2.05382
H	3169.15	1.04681	1.61036
