44
  This energy is 5.65458e-320 and Call times are: 69579
C	-2.87784	-1.36583	1.40665
C	-1.96394	-0.228004	1.159
O	-2.26004	0.907771	1.50372
H	-3.79555	-0.996193	1.91363
H	-2.38507	-2.11741	2.05868
H	-3.16521	-1.84226	0.445729
N	-0.816086	-0.513267	0.539782
C	0.174359	0.486648	0.229913
C	1.04936	-0.0538691	-0.88429
O	1.01742	-1.24519	-1.18691
H	-0.599297	-1.43783	0.237907
H	-0.324353	1.37201	-0.143582
C	1.03712	0.82579	1.46593
H	1.54675	-0.0848486	1.84689
H	1.80069	1.59552	1.2309
H	0.384357	1.21955	2.27526
N	1.83981	0.820001	-1.53815
C	2.69817	0.398798	-2.62074
H	1.84616	1.78133	-1.28312
H	3.26978	1.26176	-3.02794
H	2.09824	-0.0457281	-3.44762
H	3.42503	-0.369224	-2.27004
C	3302.94	-2.28964	-0.671598
C	3302.1	-1.5149	0.271079
O	3302.15	-1.71296	1.47695
H	3303.55	-3.01669	-0.10131
H	3303.61	-1.60861	-1.23352
H	3302.29	-2.84647	-1.38608
N	3301.29	-0.604225	-0.269106
C	3300.41	0.227056	0.51811
C	3299.31	0.732168	-0.390083
O	3299.4	0.631513	-1.61179
H	3301.23	-0.47255	-1.25514
H	3299.95	-0.377512	1.28975
C	3301.17	1.41803	1.13916
H	3301.64	2.03572	0.344796
H	3300.5	2.06009	1.7461
H	3301.98	1.03474	1.80123
N	3298.22	1.27078	0.191097
C	3297.11	1.76746	-0.592858
H	3298.15	1.33679	1.18159
H	3296.31	2.17269	0.0668506
H	3296.67	0.953002	-1.21402
H	3297.44	2.58032	-1.27657
