44
  This energy is 4.46191e-320 and Call times are: 75165
C	0.0536996	3.11435	1.55694
C	-0.271712	1.67034	1.54546
O	-0.679049	1.10571	2.55133
H	-0.128087	3.52373	2.5744
H	-0.588125	3.65693	0.831341
H	1.1212	3.26836	1.29301
N	-0.0899468	1.03069	0.387803
C	-0.362699	-0.374391	0.219928
C	0.41776	-0.85965	-0.986159
O	0.920498	-0.0596608	-1.77299
H	0.27009	1.49549	-0.416729
H	0.00410712	-0.909994	1.08633
C	-1.87201	-0.633917	0.0155975
H	-2.24512	-0.0824262	-0.873649
H	-2.08558	-1.71485	-0.113838
H	-2.43264	-0.272989	0.905297
N	0.555683	-2.19044	-1.14736
C	1.29208	-2.74457	-2.25949
H	0.147473	-2.82139	-0.495831
H	1.29034	-3.85609	-2.21754
H	2.34978	-2.39491	-2.2436
H	0.838778	-2.42943	-3.22716
C	3563.56	0.547626	-3.37542
C	3563.96	0.0786644	-2.03029
O	3565.02	-0.50755	-1.85547
H	3564.34	0.271504	-4.1111
H	3563.44	1.65139	-3.37556
H	3562.6	0.0715515	-3.67649
N	3563.1	0.326278	-1.03555
C	3563.36	-0.0678488	0.327662
C	3562.03	-0.112632	1.05262
O	3561.02	0.395881	0.55637
H	3562.23	0.778911	-1.19576
H	3563.77	-1.069	0.334235
C	3564.31	0.920994	1.03204
H	3563.89	1.94717	1.02288
H	3564.51	0.620423	2.08185
H	3565.28	0.945508	0.490751
N	3561.98	-0.745619	2.24151
C	3560.76	-0.848909	2.99838
H	3562.8	-1.15697	2.62295
H	3560.93	-1.40324	3.94771
H	3559.98	-1.3877	2.4123
H	3560.36	0.162735	3.24853
