44
  This energy is 1.06382e-319 and Call times are: 40515
C	-2.86605	1.866	0.655687
C	-2.19149	0.594402	0.310425
O	-2.81404	-0.45721	0.255253
H	-3.94483	1.67113	0.840402
H	-2.76971	2.58961	-0.180932
H	-2.41705	2.30068	1.57351
N	-0.8797	0.664594	0.0724235
C	-0.085729	-0.486662	-0.275496
C	1.36286	-0.165208	0.0367468
O	1.71579	0.99092	0.261786
H	-0.378447	1.52239	0.149062
H	-0.3802	-1.31939	0.350542
C	-0.240011	-0.845427	-1.77035
H	0.0622992	0.0112935	-2.40969
H	0.369898	-1.73154	-2.04162
H	-1.30563	-1.07762	-1.98643
N	2.23571	-1.19105	0.0790423
C	3.63287	-0.982475	0.380085
H	1.92926	-2.12038	-0.0989328
H	4.18655	-1.94708	0.365444
H	3.75336	-0.524482	1.38853
H	4.09826	-0.299592	-0.367083
C	1919.62	1.0693	0.43896
C	1920.92	1.12138	-0.261083
O	1921.06	1.78734	-1.27676
H	1918.88	1.69614	-0.109085
H	1919.72	1.45982	1.473
H	1919.24	0.024323	0.475084
N	1921.91	0.402175	0.27366
C	1923.23	0.352311	-0.292538
C	1923.91	-0.903112	0.219746
O	1923.44	-1.53181	1.16511
H	1921.77	-0.159353	1.08491
H	1923.15	0.266934	-1.36879
C	1924.06	1.59905	0.0965858
H	1924.14	1.68392	1.20136
H	1925.08	1.56397	-0.33785
H	1923.55	2.51195	-0.283363
N	1925.03	-1.31056	-0.411097
C	1925.74	-2.50099	-0.00103094
H	1925.39	-0.792097	-1.17868
H	1926.63	-2.66681	-0.64109
H	1925.08	-3.3963	-0.0800552
H	1926.08	-2.41284	1.05708
