44
  This energy is 1.58941e-319 and Call times are: 124347
C	-0.69362	0.928868	3.28363
C	-0.531917	-0.0953139	2.22717
O	-0.558954	-1.2889	2.49385
H	-0.823437	0.425549	4.26632
H	-1.58909	1.55236	3.07817
H	0.206082	1.57808	3.32842
N	-0.351373	0.35798	0.984474
C	-0.179618	-0.515421	-0.148883
C	0.500342	0.276654	-1.24866
O	0.577125	1.50218	-1.18522
H	-0.302134	1.3329	0.784348
H	0.48128	-1.32663	0.129011
C	-1.53566	-1.06198	-0.648431
H	-2.21142	-0.227093	-0.932027
H	-1.40706	-1.73498	-1.52096
H	-2.02415	-1.63916	0.166661
N	1.03162	-0.411975	-2.278
C	1.70867	0.256258	-3.36485
H	0.965393	-1.40393	-2.30756
H	2.07333	-0.481058	-4.11361
H	2.58325	0.833842	-2.98702
H	1.02138	0.966939	-3.87841
C	5892	-1.7538	-1.09539
C	5891.36	-0.709124	-0.263434
O	5892	-0.095985	0.581518
H	5893.07	-1.85054	-0.806785
H	5891.94	-1.47679	-2.169
H	5891.5	-2.73026	-0.937755
N	5890.07	-0.485245	-0.485153
C	5889.31	0.499142	0.243953
C	5887.84	0.135985	0.127243
O	5887.46	-0.690183	-0.700698
H	5889.55	-1.01164	-1.15617
H	5889.58	0.446531	1.29115
C	5889.55	1.92041	-0.311785
H	5889.27	1.97062	-1.38643
H	5888.97	2.68087	0.247444
H	5890.63	2.17395	-0.221661
N	5886.98	0.733256	0.974519
C	5885.56	0.441047	0.945162
H	5887.31	1.39377	1.6422
H	5885.02	1.03318	1.71654
H	5885.38	-0.640255	1.14247
H	5885.13	0.687465	-0.0518929
