44
  This energy is 1.09095e-319 and Call times are: 23085
C	2.14751	0.787403	2.62571
C	1.76112	-0.0471644	1.46579
O	2.50946	-0.911951	1.03148
H	3.16149	0.48974	2.97082
H	1.42749	0.642087	3.45834
H	2.16651	1.85935	2.33671
N	0.565357	0.203014	0.92734
C	0.0499828	-0.525148	-0.204472
C	-1.02604	0.323377	-0.85364
O	-1.49522	1.29844	-0.269725
H	-0.0227958	0.929784	1.27204
H	0.844204	-0.659242	-0.92787
C	-0.535419	-1.8894	0.22358
H	-1.34946	-1.74815	0.966212
H	-0.933007	-2.45278	-0.645507
H	0.262321	-2.50096	0.698711
N	-1.42793	-0.017996	-2.09378
C	-2.43878	0.738306	-2.79548
H	-1.03103	-0.806264	-2.5524
H	-2.6324	0.299415	-3.79904
H	-2.11453	1.79542	-2.9319
H	-3.39493	0.741513	-2.22369
C	1101.56	-2.32501	-1.99343
C	1100.6	-1.21134	-1.81579
O	1100.08	-0.661417	-2.7789
H	1101.69	-2.52275	-3.07888
H	1101.17	-3.24464	-1.50649
H	1102.54	-2.05845	-1.55054
N	1100.34	-0.845845	-0.557916
C	1099.43	0.220236	-0.224829
C	1099.77	0.699253	1.17425
O	1100.5	0.0368211	1.90688
H	1100.79	-1.28236	0.217117
H	1099.59	1.04756	-0.903734
C	1097.96	-0.255023	-0.28599
H	1097.8	-1.10424	0.4112
H	1097.26	0.563428	-0.0302094
H	1097.73	-0.604429	-1.31553
N	1099.25	1.88003	1.57069
C	1099.52	2.42186	2.8812
H	1098.67	2.40465	0.960615
H	1099.01	3.39866	3.01831
H	1100.62	2.57912	3.02026
H	1099.17	1.7254	3.67611
