44
  This energy is 8.19062e-320 and Call times are: 22077
C	1.59985	0.207152	3.08605
C	0.797432	-0.528085	2.08268
O	0.528445	-1.71206	2.23218
H	1.8786	-0.483704	3.9112
H	1.00956	1.04865	3.50589
H	2.52676	0.602636	2.61982
N	0.396603	0.169458	1.01725
C	-0.390727	-0.406871	-0.0433112
C	-0.218738	0.460246	-1.27529
O	0.281868	1.58011	-1.19087
H	0.646848	1.12592	0.892749
H	-0.00159943	-1.38997	-0.276073
C	-1.88396	-0.488031	0.344992
H	-2.27974	0.522147	0.583782
H	-2.49307	-0.93147	-0.469336
H	-1.99637	-1.12492	1.24936
N	-0.612697	-0.0499168	-2.45873
C	-0.476873	0.69808	-3.68683
H	-1.00893	-0.960891	-2.50731
H	-0.858556	0.109478	-4.55003
H	0.591763	0.948257	-3.87833
H	-1.05019	1.65173	-3.63168
C	1054.16	0.380113	-2.6205
C	1052.8	0.0974619	-2.10395
O	1051.85	-0.022155	-2.86183
H	1054.12	0.457991	-3.72883
H	1054.86	-0.44037	-2.34117
H	1054.54	1.339	-2.20532
N	1052.68	-0.0111973	-0.778725
C	1051.43	-0.284389	-0.127127
C	1051.54	0.168864	1.31528
O	1052.64	0.431638	1.806
H	1053.46	0.117219	-0.170057
H	1050.65	0.30678	-0.596749
C	1051.08	-1.78852	-0.185167
H	1051.88	-2.39207	0.29689
H	1050.11	-2.00237	0.315513
H	1051	-2.10837	-1.24695
N	1050.4	0.292193	2.02458
C	1050.41	0.728855	3.40132
H	1049.53	0.0816533	1.60744
H	1049.38	0.764624	3.81051
H	1050.86	1.74598	3.48745
H	1051.02	0.0332368	4.02968
