44
  This energy is 2.87102e-320 and Call times are: 25983
C	-2.06751	2.62708	-0.97467
C	-1.04182	2.03959	-0.0835862
O	-0.47403	2.71828	0.761096
H	-2.18746	3.70606	-0.73535
H	-3.04172	2.11558	-0.826052
H	-1.75576	2.52677	-2.03566
N	-0.774603	0.743579	-0.260546
C	0.197777	0.0310653	0.529156
C	0.613755	-1.20352	-0.24673
O	-0.0356735	-1.58313	-1.21934
H	-1.223	0.208467	-0.971555
H	1.07514	0.653271	0.652334
C	-0.381547	-0.374862	1.90274
H	-1.28186	-1.01253	1.77264
H	0.364607	-0.923561	2.51344
H	-0.683528	0.538179	2.46069
N	1.7261	-1.84923	0.155458
C	2.20546	-3.02706	-0.529472
H	2.2419	-1.52225	0.940479
H	3.13072	-3.41295	-0.0475802
H	2.43542	-2.79575	-1.59477
H	1.43705	-3.83349	-0.509374
C	1236.96	-3.34218	0.976924
C	1237.52	-2.2244	0.184395
O	1238.54	-2.36397	-0.470326
H	1237.61	-4.23607	0.862138
H	1235.94	-3.59218	0.617741
H	1236.92	-3.06531	2.05133
N	1236.85	-1.06984	0.232694
C	1237.27	0.107345	-0.484567
C	1236.63	1.3111	0.181191
O	1235.72	1.1707	0.98713
H	1236.03	-0.960393	0.792922
H	1238.35	0.211005	-0.392328
C	1236.85	0.0392045	-1.97076
H	1235.75	-0.0677937	-2.06168
H	1237.18	0.944006	-2.52603
H	1237.33	-0.847378	-2.44672
N	1237.12	2.52824	-0.12646
C	1236.59	3.73077	0.467051
H	1237.87	2.62051	-0.775595
H	1237.12	4.62925	0.0860757
H	1236.69	3.70331	1.57566
H	1235.5	3.83813	0.227394
