44
  This energy is 1.00137e-319 and Call times are: 58491
C	0.481103	3.43489	-0.310212
C	0.223062	2.22487	0.502491
O	0.210459	2.27465	1.72473
H	0.649566	4.3018	0.365029
H	-0.391414	3.65125	-0.961916
H	1.38444	3.28826	-0.93905
N	0.0140197	1.09145	-0.171316
C	-0.250345	-0.167109	0.479051
C	0.0794144	-1.27626	-0.500891
O	0.24917	-1.03122	-1.69377
H	0.0557158	1.05813	-1.16635
H	0.413085	-0.270503	1.32831
C	-1.72656	-0.271786	0.922836
H	-2.40439	-0.164619	0.0492373
H	-1.93354	-1.23959	1.42412
H	-1.95578	0.546797	1.63944
N	0.199605	-2.52651	-0.0125947
C	0.523123	-3.64412	-0.868432
H	0.0655008	-2.7033	0.956938
H	0.575232	-4.58717	-0.280897
H	1.50752	-3.48613	-1.36567
H	-0.248755	-3.76767	-1.66223
C	2774.14	-2.96357	-1.7138
C	2774.28	-2.09123	-0.52596
O	2774.8	-2.49817	0.499385
H	2774.57	-3.96343	-1.48745
H	2774.68	-2.52503	-2.57625
H	2773.07	-3.08454	-1.97684
N	2773.79	-0.85298	-0.639557
C	2773.85	0.111759	0.429267
C	2772.79	1.16491	0.167326
O	2772.24	1.2449	-0.929913
H	2773.34	-0.542686	-1.47022
H	2773.6	-0.379667	1.36143
C	2775.25	0.770539	0.51343
H	2775.5	1.27317	-0.444737
H	2775.3	1.51382	1.33547
H	2776.01	-0.0114868	0.704367
N	2772.46	1.98778	1.18288
C	2771.46	3.01312	1.03003
H	2772.91	1.9025	2.06543
H	2771.33	3.58556	1.97554
H	2770.48	2.5625	0.760792
H	2771.74	3.72646	0.223251
