44
  This energy is 6.58194e-320 and Call times are: 63279
C	-0.152527	3.46352	0.326927
C	-0.757641	2.16261	-0.0373197
O	-1.94082	2.07685	-0.336029
H	-0.930449	4.25632	0.28038
H	0.662903	3.71813	-0.382346
H	0.255486	3.42049	1.35873
N	0.0547634	1.10345	-0.0140463
C	-0.387177	-0.228007	-0.343793
C	0.590957	-1.20946	0.272026
O	1.67947	-0.828331	0.698292
H	1.00984	1.18159	0.259209
H	-1.35509	-0.399889	0.109717
C	-0.455758	-0.435268	-1.87332
H	0.538721	-0.257486	-2.3354
H	-0.795851	-1.4594	-2.13074
H	-1.17461	0.290326	-2.31254
N	0.213655	-2.50064	0.352666
C	1.07416	-3.50442	0.934172
H	-0.67417	-2.78806	0.0085866
H	0.586834	-4.50392	0.906745
H	1.30576	-3.25643	1.99535
H	2.03654	-3.56805	0.376533
C	3003.05	-1.33439	-2.30293
C	3002.27	-0.202865	-1.74638
O	3002.44	0.93974	-2.14836
H	3003.75	-0.953758	-3.07748
H	3002.36	-2.07407	-2.76957
H	3003.63	-1.82872	-1.49976
N	3001.39	-0.501629	-0.788359
C	3000.56	0.490706	-0.150386
C	3000.1	-0.072346	1.17997
O	3000.23	-1.26919	1.4329
H	3001.28	-1.43212	-0.449066
H	3001.16	1.36948	0.0539105
C	2999.34	0.852195	-1.02578
H	2998.73	-0.0517279	-1.23398
H	2998.7	1.61616	-0.537597
H	2999.69	1.26235	-1.99776
N	2999.58	0.787672	2.07423
C	2999.12	0.344542	3.37146
H	2999.49	1.7537	1.85348
H	2998.72	1.1987	3.96048
H	2999.96	-0.11486	3.94553
H	2998.31	-0.41769	3.26617
