44
  This energy is 1.32153e-319 and Call times are: 11913
C	1.02669	-2.47729	2.2215
C	0.497625	-2.04431	0.908559
O	0.35302	-2.84047	-0.0088848
H	1.24583	-3.56665	2.18804
H	0.277164	-2.28584	3.01799
H	1.96341	-1.92929	2.45642
N	0.198212	-0.748876	0.787844
C	-0.325827	-0.177667	-0.427035
C	-0.0575251	1.31436	-0.393918
O	0.282562	1.86888	0.649484
H	0.347892	-0.104832	1.53332
H	0.212868	-0.590104	-1.2707
C	-1.84186	-0.441915	-0.564581
H	-2.39135	-0.0180701	0.302909
H	-2.2486	-0.00356327	-1.49903
H	-2.02522	-1.53829	-0.586472
N	-0.184187	1.99803	-1.54828
C	0.0625177	3.41958	-1.61555
H	-0.453422	1.53	-2.38356
H	-0.0959378	3.7977	-2.64956
H	1.10981	3.65126	-1.3143
H	-0.623281	3.97033	-0.931788
C	573.763	-2.72508	0.920104
C	572.516	-1.93162	1.0041
O	571.546	-2.34223	1.62552
H	573.632	-3.67617	1.48046
H	574.608	-2.15894	1.36627
H	573.996	-2.96148	-0.139566
N	572.515	-0.760073	0.363907
C	571.376	0.123647	0.353933
C	571.516	1.05025	-0.838147
O	572.583	1.14014	-1.44257
H	573.301	-0.449922	-0.163138
H	570.477	-0.462307	0.211314
C	571.291	0.946157	1.65906
H	572.216	1.54555	1.80257
H	570.416	1.62757	1.65479
H	571.19	0.255888	2.52478
N	570.428	1.7482	-1.21852
C	570.463	2.64605	-2.34935
H	569.572	1.65632	-0.720859
H	569.472	3.12716	-2.50066
H	570.731	2.09534	-3.28002
H	571.222	3.44703	-2.19171
