44
  This energy is 1.56994e-319 and Call times are: 67059
C	-0.767541	-1.49077	-3.05198
C	-0.911222	-1.38478	-1.58252
O	-1.74037	-2.05109	-0.978336
H	-1.50574	-2.22525	-3.44117
H	0.254924	-1.83652	-3.31245
H	-0.956389	-0.505162	-3.52722
N	-0.0958021	-0.525048	-0.967445
C	-0.115908	-0.311764	0.457664
C	0.519437	1.03661	0.735968
O	1.16235	1.62025	-0.134588
H	0.555524	0.0334061	-1.47424
H	-1.14456	-0.26601	0.792116
C	0.652389	-1.42526	1.20397
H	1.70709	-1.46984	0.857939
H	0.638763	-1.26421	2.30153
H	0.177907	-2.40793	0.990979
N	0.33421	1.57472	1.9575
C	0.891395	2.85997	2.30942
H	-0.195212	1.09008	2.64603
H	0.630426	3.12822	3.35688
H	0.499264	3.65595	1.6357
H	2.00157	2.84565	2.21726
C	3179	-2.82834	-0.942337
C	3179.15	-1.36026	-0.829213
O	3178.34	-0.599148	-1.34407
H	3178.09	-3.0585	-1.54039
H	3178.89	-3.28043	0.0658561
H	3179.89	-3.26695	-1.44969
N	3180.21	-0.924899	-0.145592
C	3180.5	0.474484	0.0509011
C	3181.97	0.610098	0.381723
O	3182.64	-0.374994	0.689327
H	3180.88	-1.55468	0.244331
H	3180.32	1.00323	-0.876729
C	3179.64	1.0668	1.19166
H	3179.82	0.521589	2.14163
H	3179.85	2.14422	1.34553
H	3178.56	0.960237	0.93775
N	3182.52	1.83901	0.304261
C	3183.92	2.06271	0.589749
H	3181.96	2.62244	0.0466105
H	3184.17	3.13835	0.472827
H	3184.56	1.47106	-0.102467
H	3184.16	1.75531	1.63282
