44
  This energy is 1.74899e-321 and Call times are: 13047
C	1.46705	-0.299982	3.14387
C	1.38275	-0.650188	1.70809
O	2.23907	-1.3418	1.17436
H	2.38565	-0.750663	3.57852
H	0.582105	-0.694131	3.68639
H	1.51481	0.80253	3.26687
N	0.332744	-0.166437	1.04038
C	0.112906	-0.420744	-0.36099
C	-0.815716	0.65508	-0.889668
O	-1.43806	1.38287	-0.118411
H	-0.34264	0.419938	1.47965
H	1.05475	-0.329915	-0.887064
C	-0.507777	-1.81718	-0.58866
H	-1.47352	-1.90713	-0.0470302
H	-0.678237	-2.01632	-1.66665
H	0.181486	-2.59624	-0.196063
N	-0.913628	0.794698	-2.22643
C	-1.76375	1.7997	-2.82094
H	-0.396423	0.200704	-2.8338
H	-1.70938	1.75419	-3.93099
H	-1.45306	2.81917	-2.49633
H	-2.82433	1.64829	-2.51526
C	619.669	-0.469683	1.44915
C	620.746	-0.874525	0.518241
O	620.696	-1.93929	-0.0820148
H	618.893	-1.26585	1.48229
H	619.199	0.474986	1.10304
H	620.079	-0.325292	2.47059
N	621.763	-0.020701	0.381128
C	622.885	-0.274096	-0.487637
C	624.04	0.589178	-0.0203275
O	623.856	1.51048	0.772842
H	621.806	0.83028	0.897768
H	623.184	-1.30924	-0.382967
C	622.541	0.0493106	-1.95881
H	622.234	1.11183	-2.06245
H	623.402	-0.144823	-2.63051
H	621.692	-0.588706	-2.28869
N	625.269	0.294789	-0.487887
C	626.432	1.0543	-0.0891735
H	625.399	-0.459171	-1.1235
H	627.347	0.659661	-0.581952
H	626.576	1.00058	1.01417
H	626.316	2.12609	-0.370447
