44
  This energy is 5.77662e-320 and Call times are: 32871
C	-3.24574	0.605875	-1.10643
C	-1.87014	0.10289	-1.32072
O	-1.57012	-0.50408	-2.33958
H	-3.8771	0.332041	-1.97951
H	-3.23697	1.71124	-1.00192
H	-3.68123	0.151831	-0.191476
N	-0.991795	0.344043	-0.344646
C	0.383451	-0.0820263	-0.407829
C	0.925008	-0.119835	1.00798
O	0.312102	0.415136	1.92993
H	-1.25574	0.814124	0.493384
H	0.421871	-1.08972	-0.801724
C	1.22997	0.876359	-1.27502
H	1.18777	1.90934	-0.868469
H	2.28942	0.551152	-1.32593
H	0.82238	0.896045	-2.30925
N	2.08321	-0.776277	1.2169
C	2.66899	-0.874952	2.53346
H	2.56047	-1.20878	0.459012
H	3.61968	-1.45134	2.49868
H	1.9731	-1.38876	3.23558
H	2.88759	0.137673	2.94331
C	1559.81	-2.92179	-0.0116861
C	1560.45	-1.79366	0.69422
O	1560.27	-1.6081	1.88983
H	1559.18	-3.4949	0.707581
H	1560.58	-3.59894	-0.438435
H	1559.16	-2.54041	-0.827417
N	1561.23	-0.999539	-0.0454517
C	1561.93	0.138007	0.498561
C	1562.26	1.07333	-0.648006
O	1562.17	0.695429	-1.81438
H	1561.35	-1.14409	-1.02454
H	1561.27	0.66647	1.17361
C	1563.22	-0.290822	1.22536
H	1563.9	-0.833255	0.53009
H	1563.76	0.582636	1.64559
H	1562.97	-0.976566	2.06218
N	1562.64	2.33054	-0.340613
C	1562.96	3.29471	-1.36628
H	1562.7	2.61935	0.609107
H	1563.25	4.26931	-0.913426
H	1562.09	3.46339	-2.03648
H	1563.81	2.93447	-1.99062
