44
  This energy is 8.61354e-320 and Call times are: 16197
C	2.13418	-0.0305737	2.75145
C	1.53683	-0.675207	1.56031
O	1.94217	-1.75629	1.15602
H	2.94879	-0.674786	3.148
H	1.36471	0.102398	3.54079
H	2.55862	0.958661	2.47903
N	0.5469	-0.0103527	0.959998
C	-0.133191	-0.508698	-0.208743
C	-0.787626	0.66893	-0.90455
O	-0.901783	1.75205	-0.333891
H	0.245285	0.883201	1.28175
H	0.597305	-0.928125	-0.888839
C	-1.1985	-1.56276	0.167018
H	-1.9459	-1.12931	0.865318
H	-1.72398	-1.9487	-0.730588
H	-0.706584	-2.41956	0.676981
N	-1.21522	0.488648	-2.16972
C	-1.83967	1.55627	-2.91566
H	-1.10733	-0.393296	-2.61668
H	-2.12259	1.21097	-3.93447
H	-1.14553	2.42156	-3.01904
H	-2.75977	1.91174	-2.39774
C	772.306	3.05155	-1.60328
C	773.03	1.7711	-1.43617
O	773.884	1.41802	-2.23758
H	772.668	3.56059	-2.52298
H	772.491	3.71234	-0.730392
H	771.216	2.86521	-1.70085
N	772.693	1.03366	-0.375441
C	773.308	-0.235279	-0.0785494
C	772.371	-1.00604	0.830727
O	771.43	-0.442911	1.38575
H	771.975	1.3185	0.254117
H	773.413	-0.79895	-0.996902
C	774.68	-0.048563	0.60759
H	774.569	0.530658	1.54901
H	775.157	-1.02367	0.837461
H	775.357	0.518362	-0.0680993
N	772.597	-2.32541	0.987106
C	771.75	-3.14274	1.82403
H	773.36	-2.7641	0.523799
H	772.099	-4.19879	1.82492
H	770.698	-3.12183	1.45766
H	771.757	-2.77002	2.87389
