44
  This energy is 8.20939e-320 and Call times are: 51687
C	2.74952	-1.9509	0.871921
C	1.5072	-1.22401	1.21756
O	1.01819	-1.30349	2.33607
H	3.09607	-2.52743	1.75701
H	3.54356	-1.23286	0.577408
H	2.56037	-2.65601	0.0352654
N	0.958451	-0.491943	0.245288
C	-0.250019	0.271428	0.428841
C	-0.850729	0.529008	-0.939384
O	-0.194411	0.334528	-1.96078
H	1.35043	-0.458518	-0.670231
H	-0.958643	-0.321733	0.992832
C	0.033944	1.61065	1.14506
H	0.761776	2.21633	0.564095
H	-0.894449	2.20089	1.28815
H	0.474778	1.40829	2.14549
N	-2.1283	0.954609	-0.991105
C	-2.78778	1.2146	-2.24954
H	-2.64499	1.0992	-0.153637
H	-3.83257	1.55775	-2.08247
H	-2.81731	0.293318	-2.87533
H	-2.24686	2.0031	-2.82125
C	2449.02	2.33645	0.999529
C	2450.12	1.89581	0.10956
O	2450.43	2.54468	-0.8796
H	2448.58	3.28117	0.606547
H	2449.41	2.51811	2.02401
H	2448.22	1.56313	1.03751
N	2450.73	0.759841	0.445266
C	2451.82	0.203438	-0.321364
C	2451.92	-1.27262	0.0118516
O	2451.32	-1.73783	0.98418
H	2450.45	0.225102	1.2373
H	2451.59	0.288086	-1.3751
C	2453.15	0.909915	0.000806469
H	2453.39	0.821698	1.08273
H	2453.99	0.484047	-0.587883
H	2453.07	1.99056	-0.24654
N	2452.65	-2.05084	-0.805724
C	2452.79	-3.46963	-0.574379
H	2453.12	-1.6568	-1.59152
H	2453.44	-3.93324	-1.35336
H	2451.8	-3.97174	-0.597861
H	2453.25	-3.66183	0.421753
