44
  This energy is 1.9565e-321 and Call times are: 99147
C	2.00519	1.53075	2.40044
C	1.21782	1.56608	1.14745
O	1.00886	2.61922	0.561168
H	2.3227	2.56305	2.66392
H	2.90906	0.899929	2.26663
H	1.38877	1.12192	3.22859
N	0.751714	0.395211	0.706779
C	-0.0300839	0.268318	-0.49718
C	-0.803648	-1.03327	-0.415361
O	-0.517201	-1.88293	0.425991
H	0.904073	-0.451869	1.20895
H	-0.749343	1.07652	-0.536476
C	0.868051	0.274427	-1.75433
H	1.60516	-0.555552	-1.7104
H	0.26927	0.177037	-2.68318
H	1.43017	1.23249	-1.80206
N	-1.82249	-1.21029	-1.27944
C	-2.62271	-2.41266	-1.26803
H	-2.04319	-0.507898	-1.94815
H	-3.40859	-2.36947	-2.05401
H	-3.12155	-2.54324	-0.280432
H	-1.98812	-3.30896	-1.45547
C	4697.82	2.0333	0.228489
C	4696.36	1.82174	0.312127
O	4695.61	2.69983	0.727876
H	4698.06	3.05392	0.594769
H	4698.16	1.93777	-0.82391
H	4698.35	1.28847	0.857783
N	4695.9	0.628542	-0.0828713
C	4694.51	0.273424	-0.0605587
C	4694.41	-1.23986	-0.0596692
O	4695.39	-1.93204	-0.327735
H	4696.52	-0.0887257	-0.392156
H	4694.07	0.631428	0.861848
C	4693.76	0.852426	-1.28266
H	4694.21	0.48364	-2.22721
H	4692.69	0.58101	-1.26854
H	4693.84	1.96141	-1.27239
N	4693.23	-1.7908	0.265307
C	4693.04	-3.22305	0.304212
H	4692.45	-1.21377	0.486066
H	4692	-3.47876	0.590243
H	4693.73	-3.68708	1.04557
H	4693.25	-3.67339	-0.692749
