44
  This energy is 1.17148e-319 and Call times are: 84279
C	3.40646	-0.696616	-0.192016
C	2.11466	-0.334648	-0.81765
O	2.04986	-0.0186927	-1.99768
H	4.21619	-0.618393	-0.949695
H	3.36889	-1.73943	0.187401
H	3.63203	-0.00598171	0.647679
N	1.04149	-0.368124	-0.024201
C	-0.283686	-0.0426101	-0.487641
C	-1.12376	0.3211	0.721171
O	-0.732028	0.0664984	1.85852
H	1.11169	-0.59893	0.942617
H	-0.228894	0.830816	-1.12498
C	-0.923429	-1.2299	-1.24142
H	-0.977463	-2.12441	-0.584876
H	-1.94383	-0.98262	-1.59978
H	-0.298028	-1.4873	-2.1239
N	-2.29596	0.948662	0.501829
C	-3.15696	1.34406	1.59202
H	-2.5921	1.15229	-0.425572
H	-4.07348	1.84379	1.20794
H	-2.63017	2.05247	2.27164
H	-3.466	0.456685	2.19056
C	3993.57	1.04586	3.29415
C	3993.53	0.00326925	2.24409
O	3993.33	-1.16909	2.52433
H	3993.4	0.5752	4.28588
H	3992.78	1.80365	3.11104
H	3994.57	1.54275	3.30285
N	3993.74	0.415009	0.991408
C	3993.74	-0.480781	-0.13745
C	3994.5	0.186108	-1.26708
O	3994.77	1.38382	-1.21934
H	3993.94	1.36833	0.779322
H	3994.27	-1.38589	0.127651
C	3992.29	-0.805697	-0.587011
H	3991.75	0.125127	-0.857584
H	3992.28	-1.49535	-1.45595
H	3991.75	-1.29271	0.249601
N	3994.88	-0.584343	-2.30558
C	3995.61	-0.0391573	-3.42087
H	3994.65	-1.55301	-2.32232
H	3995.83	-0.829441	-4.17304
H	3996.58	0.39287	-3.07773
H	3995.03	0.769666	-3.91956
