44
  This energy is 8.77905e-320 and Call times are: 83145
C	2.67619	-2.08588	0.783115
C	1.49177	-1.73947	-0.0344156
O	1.20485	-2.38084	-1.03582
H	3.19348	-2.95874	0.328833
H	2.36443	-2.35026	1.81546
H	3.38111	-1.22868	0.818291
N	0.770271	-0.695253	0.379615
C	-0.409254	-0.23738	-0.31024
C	-0.654441	1.20384	0.0922665
O	-0.0697898	1.69558	1.0557
H	1.03091	-0.162867	1.1806
H	-0.221974	-0.253835	-1.37642
C	-1.63893	-1.10393	0.0420641
H	-1.82777	-1.08532	1.13665
H	-2.54888	-0.75421	-0.487528
H	-1.44624	-2.1574	-0.25663
N	-1.51428	1.92389	-0.654867
C	-1.801	3.30728	-0.354557
H	-1.97203	1.51	-1.43487
H	-2.53265	3.724	-1.08139
H	-0.871929	3.92033	-0.40197
H	-2.22841	3.40679	0.669453
C	3942.37	-0.383112	2.52061
C	3940.98	-0.452861	2.02158
O	3940.09	-0.938637	2.70265
H	3942.42	-0.828748	3.53793
H	3942.71	0.674288	2.57529
H	3943.05	-0.950118	1.84742
N	3940.76	0.0346624	0.797688
C	3939.46	0.0375879	0.175986
C	3939.66	0.156661	-1.32233
O	3940.76	0.480972	-1.78681
H	3941.5	0.40127	0.241247
H	3938.98	-0.911286	0.368721
C	3938.6	1.20822	0.690761
H	3939.1	2.18006	0.492012
H	3937.59	1.21337	0.21421
H	3938.46	1.1101	1.78957
N	3938.61	-0.126114	-2.11783
C	3938.71	-0.0515599	-3.55677
H	3937.74	-0.393689	-1.72303
H	3937.74	-0.318647	-4.03287
H	3939.49	-0.752231	-3.93306
H	3938.99	0.97847	-3.87866
