44
  This energy is 8.57105e-320 and Call times are: 57945
C	2.40151	2.50671	-0.274381
C	1.25334	1.87376	0.412855
O	0.863075	2.28101	1.49837
H	2.79114	3.33863	0.35168
H	2.08196	2.91505	-1.2562
H	3.2119	1.76364	-0.429508
N	0.682489	0.842247	-0.213615
C	-0.443498	0.124523	0.328467
C	-0.491132	-1.23781	-0.335618
O	0.174089	-1.46946	-1.34342
H	1.02802	0.501437	-1.0839
H	-0.284411	-0.0313677	1.38793
C	-1.76642	0.883078	0.080284
H	-1.92613	1.04187	-1.00755
H	-2.63546	0.333288	0.496546
H	-1.71835	1.87972	0.570724
N	-1.26764	-2.18246	0.230676
C	-1.36626	-3.51218	-0.324555
H	-1.79279	-1.97763	1.05012
H	-2.05441	-4.14148	0.281812
H	-0.367104	-4.00465	-0.344626
H	-1.75364	-3.47453	-1.36844
C	2744.56	0.514837	1.79795
C	2745.31	0.441043	0.524108
O	2744.74	0.506968	-0.55356
H	2743.48	0.624138	1.57954
H	2744.9	1.39117	2.39046
H	2744.72	-0.412453	2.38849
N	2746.64	0.294175	0.623025
C	2747.5	0.20725	-0.526435
C	2748.79	-0.45842	-0.0893194
O	2749.06	-0.58927	1.10375
H	2747.09	0.212474	1.50653
H	2747.04	-0.430088	-1.26847
C	2747.8	1.60493	-1.11464
H	2748.27	2.25636	-0.350546
H	2748.46	1.54166	-1.99996
H	2746.84	2.08245	-1.42992
N	2749.62	-0.916386	-1.05195
C	2750.86	-1.57449	-0.730536
H	2749.38	-0.807322	-2.01167
H	2751.4	-1.87592	-1.65731
H	2750.68	-2.48774	-0.119698
H	2751.52	-0.896639	-0.146213
