44
  This energy is 4.26873e-320 and Call times are: 20607
C	-0.649988	1.86131	2.8704
C	-0.00869273	1.69068	1.54721
O	0.582341	2.61539	1.00677
H	-0.497142	2.90523	3.22073
H	-0.197506	1.16503	3.60747
H	-1.74	1.66314	2.79598
N	-0.119009	0.484385	0.985906
C	0.451787	0.164598	-0.298133
C	-0.278485	-1.04704	-0.843909
O	-1.00059	-1.72616	-0.116451
H	-0.627987	-0.252358	1.42304
H	0.274502	0.988963	-0.977151
C	1.96345	-0.133387	-0.183247
H	2.14174	-0.979155	0.51461
H	2.40618	-0.379858	-1.17017
H	2.48682	0.761394	0.218747
N	-0.123129	-1.33401	-2.15139
C	-0.788712	-2.46116	-2.76189
H	0.45985	-0.768152	-2.72513
H	-0.533403	-2.53066	-3.84228
H	-1.89449	-2.36209	-2.66875
H	-0.48444	-3.41217	-2.26774
C	979.307	-1.89915	-1.33944
C	980.15	-0.682708	-1.31258
O	980.063	0.166238	-2.18912
H	978.655	-1.87433	-2.23951
H	978.667	-1.94111	-0.433129
H	979.945	-2.80657	-1.38305
N	981.002	-0.574251	-0.290586
C	981.887	0.551174	-0.126991
C	983.025	0.121421	0.778852
O	982.95	-0.918231	1.43111
H	981.083	-1.28655	0.401447
H	982.312	0.807602	-1.08926
C	981.149	1.7628	0.485101
H	980.714	1.49602	1.47188
H	981.828	2.63119	0.612299
H	980.318	2.0671	-0.187261
N	984.119	0.906187	0.822918
C	985.257	0.571027	1.64774
H	984.163	1.73981	0.282194
H	986.054	1.33992	1.54888
H	985.681	-0.414873	1.34956
H	984.96	0.509184	2.71984
