44
  This energy is 3.38484e-320 and Call times are: 37827
C	-1.74994	2.28618	1.95888
C	-1.26252	1.79932	0.648692
O	-1.62912	2.31998	-0.395825
H	-2.4521	3.13291	1.79797
H	-0.897712	2.63862	2.5772
H	-2.28386	1.4734	2.49484
N	-0.415172	0.768031	0.677173
C	0.145239	0.183702	-0.515021
C	0.607616	-1.21936	-0.173176
O	0.707846	-1.58034	0.997926
H	-0.146798	0.333886	1.53299
H	-0.631398	0.100603	-1.26469
C	1.33113	1.01906	-1.04695
H	2.12572	1.10285	-0.275117
H	1.76492	0.572034	-1.96498
H	0.979618	2.04486	-1.29256
N	0.880537	-2.05402	-1.19536
C	1.31558	-3.41215	-0.966413
H	0.786457	-1.74533	-2.13615
H	1.49066	-3.93695	-1.93139
H	0.546935	-3.97957	-0.393296
H	2.26368	-3.42788	-0.38158
C	1794.99	-1.66361	-3.05793
C	1795.55	-1.36288	-1.72321
O	1796.51	-1.98637	-1.28665
H	1795.56	-2.49623	-3.52039
H	1795.06	-0.770458	-3.71368
H	1793.92	-1.96849	-2.96361
N	1794.96	-0.387392	-1.03321
C	1795.39	0.0199529	0.278861
C	1794.24	0.731729	0.953239
O	1793.26	1.09695	0.303697
H	1794.16	0.0934122	-1.38759
H	1795.62	-0.862164	0.863208
C	1796.62	0.956398	0.199223
H	1796.38	1.85997	-0.401501
H	1796.96	1.27184	1.20777
H	1797.46	0.423716	-0.297768
N	1794.31	0.926428	2.28449
C	1793.25	1.58437	3.01403
H	1795.11	0.61719	2.79348
H	1793.5	1.65058	4.09584
H	1792.3	1.02332	2.9092
H	1793.09	2.61676	2.62747
