44
  This energy is 1.04268e-319 and Call times are: 52527
C	-3.14471	-0.482499	1.41566
C	-2.20556	0.275462	0.558526
O	-2.59269	1.2052	-0.135891
H	-4.16898	-0.0677189	1.29445
H	-2.84549	-0.395274	2.48134
H	-3.15325	-1.553	1.12087
N	-0.929713	-0.11679	0.585489
C	0.101076	0.52212	-0.193033
C	1.2526	-0.454527	-0.332327
O	1.31314	-1.45971	0.373203
H	-0.632034	-0.894227	1.13313
H	-0.281431	0.723394	-1.18563
C	0.587931	1.82505	0.479619
H	0.979055	1.61499	1.49796
H	1.38156	2.31966	-0.117283
H	-0.265025	2.53155	0.576921
N	2.18667	-0.190396	-1.26707
C	3.31268	-1.06964	-1.47968
H	2.11615	0.624477	-1.83297
H	3.96854	-0.679965	-2.28915
H	2.96656	-2.08835	-1.76892
H	3.92001	-1.16229	-0.550296
C	2493.36	-0.558097	2.82119
C	2493.18	-0.0400026	1.44721
O	2494.05	0.620372	0.89636
H	2494.36	-0.241135	3.20093
H	2493.32	-1.66737	2.82164
H	2492.58	-0.153937	3.49306
N	2492.01	-0.328883	0.857579
C	2491.69	0.104505	-0.477007
C	2490.18	0.0701013	-0.619852
O	2489.48	-0.514357	0.207806
H	2491.3	-0.842988	1.32771
H	2492	1.13152	-0.601929
C	2492.34	-0.804425	-1.54082
H	2492.01	-1.85737	-1.40931
H	2492.09	-0.473457	-2.56959
H	2493.45	-0.771411	-1.42478
N	2489.63	0.718603	-1.66865
C	2488.2	0.750316	-1.87958
H	2490.21	1.19171	-2.32354
H	2487.95	1.33091	-2.79493
H	2487.69	1.22441	-1.01265
H	2487.8	-0.281603	-1.99811
