44
  This energy is 2.82111e-320 and Call times are: 93561
C	-0.428911	-2.2246	2.64449
C	0.0944635	-1.88327	1.30256
O	0.840089	-2.64472	0.701941
H	-0.030402	-3.21548	2.95303
H	-1.53786	-2.27468	2.62125
H	-0.109088	-1.46201	3.38552
N	-0.287386	-0.707454	0.798574
C	0.138208	-0.236275	-0.495136
C	-0.0293404	1.27055	-0.520452
O	-0.688653	1.84433	0.344373
H	-0.871751	-0.0830823	1.31006
H	1.19181	-0.452216	-0.61913
C	-0.689124	-0.881936	-1.62905
H	-1.76955	-0.658968	-1.49836
H	-0.36393	-0.521448	-2.62658
H	-0.558837	-1.98569	-1.59893
N	0.586051	1.95143	-1.50721
C	0.492803	3.38946	-1.60504
H	1.12095	1.46965	-2.19351
H	1.06468	3.76176	-2.48345
H	0.903252	3.87299	-0.689088
H	-0.568923	3.70778	-1.71725
C	4429.65	-3.17163	-0.711338
C	4429.95	-1.7754	-1.09808
O	4429.81	-1.39412	-2.25207
H	4429.31	-3.73561	-1.60749
H	4428.84	-3.19058	0.0512476
H	4430.56	-3.66119	-0.300561
N	4430.39	-0.97163	-0.124771
C	4430.72	0.412321	-0.345511
C	4431.64	0.854766	0.779431
O	4431.77	0.169479	1.7923
H	4430.53	-1.30183	0.805333
H	4431.28	0.496645	-1.27226
C	4429.46	1.29921	-0.381356
H	4428.89	1.20977	0.570645
H	4429.72	2.36546	-0.551308
H	4428.8	0.964195	-1.20878
N	4432.32	2.00758	0.616421
C	4433.22	2.50216	1.62886
H	4432.21	2.54428	-0.213496
H	4433.68	3.46346	1.3099
H	4434.04	1.76877	1.81844
H	4432.68	2.67299	2.58819
