44
  This energy is 8.13825e-320 and Call times are: 57777
C	-0.493777	-1.44455	-3.12979
C	-0.487094	-1.5129	-1.65111
O	-0.911868	-2.49696	-1.06146
H	-0.93007	-2.38168	-3.53881
H	0.54267	-1.33384	-3.51234
H	-1.10712	-0.583935	-3.47051
N	-0.0014107	-0.447084	-1.0104
C	0.0710461	-0.364832	0.426541
C	0.161361	1.10063	0.805363
O	0.415691	1.95443	-0.0420855
H	0.314726	0.360328	-1.5014
H	-0.845475	-0.757681	0.848124
C	1.29635	-1.13125	0.972757
H	2.23479	-0.726091	0.537694
H	1.3551	-1.0701	2.07892
H	1.21883	-2.20307	0.687568
N	-0.068009	1.42894	2.09207
C	-0.0155837	2.80013	2.54293
H	-0.279338	0.724258	2.76139
H	-0.230499	2.86435	3.63239
H	-0.765108	3.42093	2.00065
H	0.992713	3.23641	2.35805
C	2740.39	-2.74451	-1.95198
C	2739.98	-2.14139	-0.663649
O	2739.7	-2.83959	0.301455
H	2740.38	-3.85221	-1.85816
H	2741.41	-2.41456	-2.22001
H	2739.68	-2.4464	-2.75574
N	2739.92	-0.807954	-0.622893
C	2739.54	-0.0761722	0.558892
C	2739.09	1.30597	0.126525
O	2739.33	1.71764	-1.0077
H	2740.13	-0.251106	-1.42439
H	2738.7	-0.568207	1.02001
C	2740.72	0.0349182	1.55462
H	2741.59	0.539561	1.07808
H	2740.43	0.597679	2.46581
H	2741.04	-0.984104	1.86272
N	2738.41	2.04948	1.01993
C	2737.93	3.37273	0.693489
H	2738.22	1.69579	1.9304
H	2737.4	3.82217	1.55898
H	2737.23	3.33473	-0.170976
H	2738.78	4.04096	0.420234
