44
  This energy is 1.19692e-319 and Call times are: 35139
C	-2.90232	-1.45865	1.255
C	-2.04756	-0.279317	0.990853
O	-2.45182	0.855404	1.2041
H	-3.88789	-1.11885	1.64107
H	-2.42577	-2.11426	2.01387
H	-3.06194	-2.0333	0.318386
N	-0.828243	-0.527139	0.506893
C	0.11789	0.515791	0.200371
C	1.13171	-0.0472651	-0.776552
O	1.20988	-1.25852	-0.97298
H	-0.52117	-1.45443	0.310005
H	-0.400714	1.32694	-0.294772
C	0.831326	1.02032	1.47457
H	1.36176	0.185498	1.98036
H	1.56044	1.82354	1.24218
H	0.0777783	1.42915	2.1825
N	1.92126	0.826828	-1.4312
C	2.90741	0.383688	-2.38897
H	1.83783	1.80367	-1.26372
H	3.45638	1.25079	-2.81795
H	2.42223	-0.171829	-3.22398
H	3.64686	-0.29548	-1.90613
C	1672.05	-1.76195	1.86548
C	1671.61	-1.10655	0.614505
O	1672.37	-0.966394	-0.331147
H	1673.12	-2.05883	1.76637
H	1671.44	-2.66992	2.05847
H	1671.95	-1.06131	2.72108
N	1670.35	-0.67883	0.585143
C	1669.77	-0.0227403	-0.561024
C	1668.56	0.765025	-0.0887568
O	1668.08	0.572213	1.02708
H	1669.74	-0.77281	1.3726
H	1670.49	0.682603	-0.960736
C	1669.35	-1.04423	-1.64069
H	1668.61	-1.76669	-1.22704
H	1668.9	-0.542416	-2.52471
H	1670.24	-1.61557	-1.97744
N	1668.06	1.6919	-0.92489
C	1666.91	2.49826	-0.556456
H	1668.46	1.83801	-1.8209
H	1666.65	3.19968	-1.37731
H	1667.14	3.09605	0.357499
H	1666.03	1.85473	-0.343215
