44
  This energy is 1.06614e-319 and Call times are: 52611
C	-2.97679	-0.445911	1.751
C	-1.62137	-0.889038	1.35391
O	-1.09906	-1.86726	1.8704
H	-3.36742	-1.12254	2.54185
H	-3.66176	-0.48065	0.877833
H	-2.93945	0.589571	2.15016
N	-1.01102	-0.161888	0.415245
C	0.309123	-0.467859	-0.075086
C	0.878097	0.791807	-0.698583
O	0.152446	1.75231	-0.948964
H	-1.43531	0.649961	0.0230519
H	0.941934	-0.735535	0.761558
C	0.271687	-1.60685	-1.11835
H	-0.378911	-1.32917	-1.97493
H	1.28656	-1.8451	-1.49788
H	-0.148111	-2.52347	-0.649605
N	2.20265	0.824218	-0.944586
C	2.83511	1.98556	-1.52549
H	2.77415	0.0394764	-0.728263
H	3.92734	1.81687	-1.65133
H	2.69105	2.87821	-0.874598
H	2.39792	2.2127	-2.52471
C	2494.29	-3.28443	0.339587
C	2495.24	-2.27867	-0.188161
O	2496.26	-2.61704	-0.776224
H	2494.68	-4.3038	0.11305
H	2493.3	-3.15875	-0.137248
H	2494.19	-3.17491	1.4399
N	2494.93	-0.998371	0.019789
C	2495.75	0.0937599	-0.43409
C	2495.4	1.31669	0.390324
O	2494.38	1.33652	1.08328
H	2494.11	-0.736037	0.525734
H	2496.79	-0.144837	-0.241628
C	2495.53	0.382065	-1.93516
H	2494.46	0.625807	-2.12914
H	2496.16	1.22235	-2.28798
H	2495.79	-0.521737	-2.52804
N	2496.25	2.36289	0.350549
C	2496	3.5653	1.11179
H	2497.07	2.32476	-0.210746
H	2496.81	4.30949	0.944957
H	2495.95	3.33764	2.20135
H	2495.03	4.02784	0.812979
