44
  This energy is 2.73762e-320 and Call times are: 93519
C	-2.83416	-2.02201	0.0717005
C	-2.10511	-0.818607	-0.388199
O	-2.57845	-0.0794139	-1.24028
H	-3.79858	-2.0988	-0.475899
H	-3.04347	-1.94998	1.15974
H	-2.23319	-2.93383	-0.12922
N	-0.913817	-0.596753	0.172126
C	-0.0865757	0.53221	-0.171303
C	1.33914	0.203326	0.2267
O	1.58193	-0.750499	0.963657
H	-0.526187	-1.22222	0.84404
H	-0.105231	0.668358	-1.24517
C	-0.557248	1.81467	0.550422
H	-0.537504	1.67125	1.65186
H	0.077457	2.68594	0.288112
H	-1.60323	2.04408	0.251378
N	2.32214	0.977958	-0.272962
C	3.71052	0.733338	0.0412666
H	2.10586	1.74079	-0.873413
H	4.365	1.47783	-0.463355
H	4.01546	-0.284815	-0.292824
H	3.88297	0.802325	1.13976
C	4428.25	-3.41981	0.0942952
C	4427.86	-2.01361	0.34392
O	4426.73	-1.726	0.711637
H	4427.38	-4.08204	0.287554
H	4429.08	-3.71266	0.770447
H	4428.57	-3.5467	-0.961153
N	4428.81	-1.09188	0.139983
C	4428.58	0.317058	0.340541
C	4429.62	1.0751	-0.452719
O	4430.61	0.497038	-0.905486
H	4429.71	-1.33623	-0.187627
H	4427.61	0.577913	-0.0619527
C	4428.67	0.694129	1.8361
H	4429.67	0.424538	2.24594
H	4428.49	1.77828	1.99413
H	4427.9	0.131369	2.40635
N	4429.42	2.39125	-0.65844
C	4430.36	3.19195	-1.41219
H	4428.61	2.83929	-0.289952
H	4430.01	4.24865	-1.46892
H	4430.46	2.8012	-2.45028
H	4431.36	3.17468	-0.933878
