44
  This energy is 9.00731e-320 and Call times are: 109017
C	-0.580838	-2.44988	2.40559
C	0.213294	-1.32838	1.85533
O	1.14463	-0.844573	2.48385
H	-0.188864	-2.71919	3.41042
H	-0.503784	-3.33568	1.74057
H	-1.6463	-2.15288	2.50319
N	-0.148588	-0.880396	0.650866
C	0.527465	0.204043	-0.0152955
C	-0.418848	0.775624	-1.05309
O	-1.43362	0.16457	-1.38276
H	-0.927449	-1.26366	0.161561
H	0.735601	0.984617	0.705438
C	1.83061	-0.276555	-0.692023
H	1.61348	-1.07776	-1.43029
H	2.35378	0.555987	-1.20578
H	2.51474	-0.694061	0.0785558
N	-0.1172	1.97935	-1.57851
C	-0.965574	2.60761	-2.56427
H	0.704834	2.46128	-1.2935
H	-0.547152	3.59055	-2.87409
H	-1.98747	2.77551	-2.15344
H	-1.0587	1.96503	-3.46959
C	5166.13	-0.729513	2.57199
C	5164.81	-0.868239	1.91476
O	5163.98	-1.66823	2.32448
H	5166.19	-1.44203	3.42299
H	5166.26	0.303593	2.95806
H	5166.94	-0.957963	1.85095
N	5164.59	-0.0818893	0.858973
C	5163.36	-0.101411	0.115771
C	5163.63	0.484686	-1.25588
O	5164.67	1.10007	-1.48105
H	5165.29	0.545028	0.517136
H	5163.04	-1.12903	-0.02165
C	5162.25	0.712484	0.83209
H	5162.58	1.76602	0.97203
H	5161.3	0.699428	0.262606
H	5162.07	0.273842	1.83599
N	5162.7	0.286784	-2.21536
C	5162.88	0.797581	-3.55449
H	5161.87	-0.219989	-2.01534
H	5162.01	0.533045	-4.19569
H	5163.8	0.371899	-4.0178
H	5162.98	1.90694	-3.54171
