44
  This energy is 1.33067e-319 and Call times are: 23967
C	1.56987	-1.30751	2.81994
C	1.32517	-0.209264	1.85807
O	1.78731	0.908207	2.04296
H	2.19293	-0.928757	3.65911
H	2.10776	-2.14066	2.32058
H	0.606941	-1.68121	3.22743
N	0.574834	-0.508186	0.795057
C	0.249824	0.453695	-0.227676
C	-0.985006	-0.0400478	-0.956133
O	-1.37745	-1.19676	-0.815324
H	0.179944	-1.41456	0.670626
H	-0.000490127	1.39621	0.24251
C	1.41783	0.632725	-1.22308
H	1.67244	-0.33623	-1.7031
H	1.171	1.37281	-2.01183
H	2.31656	0.993533	-0.676957
N	-1.64158	0.838125	-1.73954
C	-2.83385	0.461305	-2.46251
H	-1.31223	1.77176	-1.83488
H	-3.22503	1.32044	-3.05082
H	-3.63042	0.126455	-1.75923
H	-2.61926	-0.376205	-3.16515
C	1140.31	1.46823	2.72776
C	1140.99	0.324402	2.07701
O	1141.28	-0.682613	2.70878
H	1140.15	1.23539	3.80247
H	1139.33	1.65414	2.24696
H	1140.94	2.3806	2.64904
N	1141.27	0.46057	0.778351
C	1141.92	-0.565302	0.00773336
C	1142.53	0.0896864	-1.21647
O	1142.21	1.23162	-1.54266
H	1141.05	1.29748	0.281641
H	1142.73	-0.983022	0.594215
C	1140.93	-1.6696	-0.419297
H	1140.1	-1.23748	-1.0202
H	1141.43	-2.46121	-1.01272
H	1140.49	-2.14074	0.486354
N	1143.44	-0.615335	-1.91345
C	1144.09	-0.0688283	-3.086
H	1143.69	-1.53522	-1.62931
H	1144.8	-0.801133	-3.51923
H	1144.65	0.85994	-2.83043
H	1143.33	0.186191	-3.86479
