44
  This energy is 1.5406e-319 and Call times are: 30561
C	-2.77107	-0.158377	-2.10291
C	-2.09247	-0.449093	-0.819869
O	-2.70287	-0.93402	0.122869
H	-3.84318	-0.441536	-2.02377
H	-2.3046	-0.743092	-2.92348
H	-2.70174	0.925091	-2.3358
N	-0.793458	-0.147998	-0.754536
C	0.00262827	-0.372852	0.425513
C	1.22159	0.525264	0.343293
O	1.52373	1.07989	-0.711665
H	-0.314215	0.273653	-1.5197
H	-0.567285	-0.0749671	1.29645
C	0.438338	-1.85098	0.536862
H	1.02219	-2.15342	-0.358555
H	1.05137	-2.02766	1.44447
H	-0.463556	-2.49854	0.595165
N	1.94115	0.706993	1.46811
C	3.11078	1.55419	1.48829
H	1.67631	0.255081	2.31361
H	3.56495	1.5734	2.50348
H	2.84483	2.59794	1.20351
H	3.87646	1.18437	0.768473
C	1454.37	0.510358	-3.3858
C	1454.4	0.982095	-1.98324
O	1454.2	2.15539	-1.70462
H	1454.14	1.36833	-4.05579
H	1453.58	-0.259249	-3.50895
H	1455.35	0.0794245	-3.67198
N	1454.68	0.0622123	-1.05556
C	1454.75	0.367803	0.350934
C	1455.57	-0.720567	1.02298
O	1455.82	-1.77116	0.43559
H	1454.87	-0.884592	-1.29795
H	1455.28	1.30288	0.481089
C	1453.34	0.444873	0.982804
H	1452.8	-0.51582	0.846865
H	1453.4	0.680163	2.06573
H	1452.76	1.24492	0.481061
N	1456.02	-0.483242	2.27016
C	1456.81	-1.45633	2.98437
H	1455.81	0.376055	2.72585
H	1457.08	-1.07668	3.9936
H	1457.75	-1.68177	2.42883
H	1456.25	-2.40864	3.10885
