44
  This energy is 3.22131e-320 and Call times are: 93729
C	-0.00839413	-2.43432	-2.49001
C	-0.555685	-1.83849	-1.25039
O	-1.58671	-2.2623	-0.746541
H	-0.674984	-3.25763	-2.82716
H	1.00497	-2.84692	-2.30113
H	0.0485315	-1.6672	-3.29078
N	0.132488	-0.820945	-0.72753
C	-0.273423	-0.139013	0.475397
C	0.389621	1.22463	0.484251
O	1.31116	1.48054	-0.288475
H	0.955199	-0.465907	-1.16345
H	-1.3445	0.0161917	0.447523
C	0.130868	-0.934532	1.73667
H	1.2302	-1.09252	1.76172
H	-0.180307	-0.412353	2.66472
H	-0.360344	-1.93177	1.71762
N	-0.0820735	2.14345	1.34987
C	0.478973	3.47247	1.42125
H	-0.833226	1.91935	1.96206
H	-0.0425149	4.07845	2.19462
H	0.379798	3.99392	0.441716
H	1.56146	3.42872	1.68105
C	4438.33	-1.5809	3.0502
C	4437.85	-0.940658	1.80604
O	4436.66	-0.945644	1.51192
H	4437.47	-2.02468	3.59362
H	4438.82	-0.82731	3.70393
H	4439.06	-2.38589	2.8096
N	4438.78	-0.371132	1.03333
C	4438.46	0.291083	-0.20727
C	4439.73	0.34379	-1.04154
O	4440.82	0.103611	-0.537799
H	4439.74	-0.399133	1.26941
H	4437.74	-0.302133	-0.748252
C	4437.93	1.71977	0.0376967
H	4438.67	2.32537	0.593466
H	4437.68	2.23249	-0.91547
H	4437	1.6675	0.650815
N	4439.6	0.640072	-2.3501
C	4440.75	0.701395	-3.22493
H	4438.7	0.824293	-2.74046
H	4440.44	0.961191	-4.26139
H	4441.27	-0.280138	-3.2518
H	4441.47	1.47147	-2.87117
