44
  This energy is 1.14554e-319 and Call times are: 59037
C	-0.231992	0.19148	-3.46924
C	-0.786056	0.407989	-2.11376
O	-1.83119	1.02182	-1.94824
H	-0.901123	0.665883	-4.21962
H	-0.163278	-0.895445	-3.68533
H	0.777062	0.648183	-3.54784
N	-0.0814964	-0.0956489	-1.09773
C	-0.491783	0.0332321	0.277727
C	0.732826	-0.164764	1.14972
O	1.76852	-0.633997	0.681744
H	0.78344	-0.568505	-1.24343
H	-0.85465	1.03961	0.443845
C	-1.5762	-1.00563	0.640944
H	-1.20082	-2.03691	0.468701
H	-1.89452	-0.909093	1.69931
H	-2.4674	-0.850729	-0.00552288
N	0.648161	0.211306	2.441
C	1.76706	0.0716246	3.34362
H	-0.196454	0.595594	2.79902
H	1.49962	0.434382	4.36054
H	2.64076	0.659727	2.98026
H	2.07776	-0.995358	3.42234
C	2797.92	1.12344	2.8936
C	2798.22	0.0675245	1.90013
O	2797.85	-1.086	2.07275
H	2797.36	0.680299	3.74165
H	2797.31	1.92244	2.4293
H	2798.87	1.56227	3.28137
N	2798.91	0.44558	0.822867
C	2799.28	-0.466929	-0.230642
C	2800.45	0.136026	-0.98321
O	2800.76	1.31656	-0.827427
H	2799.23	1.38223	0.707789
H	2799.62	-1.39666	0.210361
C	2798.1	-0.715526	-1.19549
H	2797.76	0.240425	-1.64559
H	2798.38	-1.41783	-2.00782
H	2797.25	-1.15614	-0.631864
N	2801.15	-0.672245	-1.80528
C	2802.28	-0.18925	-2.5538
H	2800.89	-1.62646	-1.91236
H	2802.72	-1.00315	-3.17277
H	2803.07	0.191854	-1.86651
H	2801.98	0.643367	-3.23055
