44
  This energy is 1.33511e-319 and Call times are: 5907
C	0.534258	1.92992	-2.84888
C	0.483887	1.76567	-1.37861
O	0.859811	2.65662	-0.629355
H	0.951226	2.93124	-3.09251
H	-0.486914	1.85186	-3.27775
H	1.18451	1.15057	-3.29913
N	0.0152498	0.599653	-0.927894
C	-0.0947792	0.291433	0.475574
C	-0.148103	-1.2172	0.618485
O	-0.350733	-1.93447	-0.359418
H	-0.260634	-0.129344	-1.54869
H	0.79633	0.638617	0.98298
C	-1.35914	0.928681	1.09399
H	-2.27137	0.570848	0.570637
H	-1.44688	0.693469	2.17461
H	-1.30846	2.03367	0.981819
N	0.0556131	-1.73647	1.84521
C	0.0350657	-3.16227	2.07516
H	0.225115	-1.13972	2.62263
H	0.221306	-3.39032	3.1478
H	0.819248	-3.66953	1.46772
H	-0.952966	-3.59193	1.79168
C	289.91	-3.33349	-0.714257
C	289.792	-1.91324	-1.1144
O	290.159	-1.53423	-2.21785
H	290.364	-3.91303	-1.54691
H	288.906	-3.75276	-0.490584
H	290.557	-3.42578	0.183231
N	289.272	-1.08289	-0.207325
C	289.093	0.326415	-0.449522
C	288.992	1.02098	0.894569
O	288.812	0.373965	1.92451
H	289.003	-1.39858	0.698746
H	289.971	0.711069	-0.953333
C	287.821	0.596687	-1.28424
H	286.923	0.200195	-0.764774
H	287.68	1.68087	-1.4727
H	287.907	0.0816022	-2.26579
N	289.128	2.36148	0.917297
C	289.058	3.10727	2.15225
H	289.28	2.86635	0.0739927
H	289.191	4.19517	1.96274
H	289.853	2.7743	2.85783
H	288.072	2.95595	2.64753
