44
  This energy is 9.50829e-320 and Call times are: 16533
C	1.35379	-1.05412	3.03022
C	1.49711	-0.553164	1.64468
O	2.58871	-0.225403	1.20031
H	2.34972	-1.05822	3.52415
H	0.951931	-2.08915	3.02315
H	0.669577	-0.396202	3.60636
N	0.376616	-0.476739	0.922867
C	0.355271	-0.00940098	-0.440206
C	-1.0592	0.434777	-0.758351
O	-1.99404	0.133466	-0.018683
H	-0.510839	-0.719199	1.30572
H	0.999054	0.856842	-0.525296
C	0.797585	-1.11755	-1.42177
H	0.135415	-2.00495	-1.33134
H	0.78245	-0.761037	-2.47222
H	1.83472	-1.43503	-1.17742
N	-1.24547	1.18477	-1.86235
C	-2.55528	1.66336	-2.23858
H	-0.475142	1.42403	-2.44422
H	-2.50171	2.25997	-3.17582
H	-2.98332	2.3078	-1.43688
H	-3.25251	0.810529	-2.40509
C	785.597	1.03779	0.889736
C	787.054	1.27045	0.768114
O	787.54	2.3702	0.993757
H	785.098	1.98413	1.19166
H	785.396	0.263935	1.66022
H	785.18	0.706204	-0.0843173
N	787.793	0.222456	0.39649
C	789.223	0.292365	0.23535
C	789.648	-0.854182	-0.661621
O	788.876	-1.77952	-0.906584
H	787.382	-0.660765	0.187294
H	789.476	1.21603	-0.269807
C	789.948	0.198247	1.59664
H	789.686	-0.750198	2.11243
H	791.05	0.251907	1.47624
H	789.628	1.04289	2.2448
N	790.886	-0.807504	-1.19235
C	791.372	-1.8485	-2.06733
H	791.493	-0.0466427	-0.987799
H	792.412	-1.63021	-2.39799
H	790.728	-1.93479	-2.97184
H	791.37	-2.83317	-1.5462
