44
  This energy is 1.43704e-319 and Call times are: 54039
C	-2.61002	-1.36206	1.85976
C	-1.87935	-1.17329	0.58631
O	-2.18033	-1.80732	-0.415641
H	-3.40148	-2.12989	1.71875
H	-3.08577	-0.408899	2.17278
H	-1.91357	-1.70534	2.65352
N	-0.882288	-0.285577	0.600681
C	-0.0800312	0.00765332	-0.560021
C	1.22353	0.618112	-0.0832659
O	1.34565	1.01482	1.07412
H	-0.627967	0.203328	1.43088
H	0.156812	-0.918988	-1.06728
C	-0.805829	0.982721	-1.51374
H	-1.04789	1.932	-0.989915
H	-0.190954	1.21053	-2.40862
H	-1.7596	0.524382	-1.8549
N	2.24053	0.687487	-0.964692
C	3.52255	1.24198	-0.5971
H	2.12422	0.354568	-1.89468
H	4.22547	1.21227	-1.45865
H	3.97346	0.665832	0.243127
H	3.4134	2.30133	-0.26991
C	2564.08	-3.14937	1.32185
C	2563.56	-2.27266	0.24576
O	2563.22	-2.73193	-0.835664
H	2564.09	-4.2017	0.963653
H	2563.42	-3.08203	2.216
H	2565.11	-2.85105	1.59756
N	2563.5	-0.968133	0.522668
C	2563.02	0.00942119	-0.421946
C	2563.56	1.36363	-0.00465362
O	2564.06	1.52699	1.10883
H	2563.81	-0.602815	1.39713
H	2563.43	-0.218791	-1.39985
C	2561.48	0.0427068	-0.463546
H	2561.07	0.276433	0.541427
H	2561.11	0.794249	-1.19
H	2561.1	-0.955313	-0.769334
N	2563.5	2.36603	-0.903009
C	2564	3.68659	-0.598806
H	2563.1	2.21203	-1.80142
H	2563.85	4.37079	-1.46374
H	2565.09	3.64962	-0.359551
H	2563.47	4.11547	0.280713
