44
  This energy is 9.33883e-320 and Call times are: 34173
C	0.471383	-1.33714	-3.18056
C	0.708898	-1.3391	-1.71947
O	1.3073	-2.25794	-1.17714
H	0.904588	-2.25978	-3.62433
H	0.955851	-0.452976	-3.64572
H	-0.618594	-1.31454	-3.39124
N	0.231208	-0.294109	-1.03964
C	0.38348	-0.153723	0.386523
C	-0.67892	0.81126	0.87576
O	-1.30702	1.50973	0.082374
H	-0.279984	0.433816	-1.4888
H	0.199094	-1.11165	0.856055
C	1.78895	0.373021	0.753006
H	1.97502	1.35554	0.269115
H	1.90966	0.482154	1.85041
H	2.55815	-0.34208	0.388169
N	-0.920179	0.856092	2.20082
C	-1.92169	1.73564	2.75719
H	-0.406274	0.277792	2.82588
H	-1.96879	1.6281	3.86329
H	-2.9272	1.50036	2.33906
H	-1.68827	2.79836	2.51777
C	1624.27	-0.379013	-3.41379
C	1623.71	-0.851304	-2.12778
O	1622.99	-1.83866	-2.07636
H	1623.93	-1.04511	-4.23293
H	1625.38	-0.402056	-3.3789
H	1623.93	0.65662	-3.62303
N	1624.03	-0.139683	-1.04442
C	1623.56	-0.474385	0.276845
C	1623.66	0.771403	1.13561
O	1624.31	1.74603	0.75718
H	1624.6	0.679657	-1.10345
H	1622.52	-0.752714	0.220049
C	1624.4	-1.61536	0.897677
H	1625.47	-1.32672	0.953815
H	1624.04	-1.87571	1.91502
H	1624.32	-2.52172	0.258692
N	1623	0.775622	2.30941
C	1623.03	1.92191	3.18775
H	1622.48	-0.0201776	2.59467
H	1622.43	1.73024	4.10275
H	1622.61	2.81924	2.67532
H	1624.07	2.15519	3.49814
