44
  This energy is 1.09806e-319 and Call times are: 40641
C	0.727853	-1.67451	2.96519
C	0.553314	-1.64608	1.49552
O	0.836954	-2.6159	0.805965
H	1.13637	-2.66325	3.26747
H	-0.249169	-1.51998	3.46954
H	1.43667	-0.880693	3.282
N	0.0797895	-0.510866	0.976449
C	-0.144261	-0.3308	-0.435715
C	-0.167636	1.15893	-0.717511
O	-0.263525	1.97094	0.200784
H	-0.120041	0.282239	1.54565
H	0.688824	-0.755712	-0.981144
C	-1.47535	-0.976655	-0.880911
H	-2.32777	-0.538898	-0.318901
H	-1.65093	-0.839997	-1.96778
H	-1.44599	-2.06752	-0.668064
N	-0.0578577	1.55408	-2.00118
C	-0.0585524	2.9521	-2.36413
H	0.0260074	0.881837	-2.72938
H	0.0391853	3.07246	-3.46559
H	0.789796	3.48497	-1.8767
H	-1.00548	3.44175	-2.04049
C	1931.08	-1.32903	2.36796
C	1930.79	-0.811484	1.0119
O	1931.69	-0.629574	0.198863
H	1932.17	-1.49049	2.47259
H	1930.56	-2.29533	2.5288
H	1930.75	-0.598078	3.1357
N	1929.51	-0.553696	0.737496
C	1929.07	-0.046569	-0.537876
C	1927.71	0.604658	-0.338621
O	1927.07	0.417472	0.693346
H	1928.79	-0.678501	1.41808
H	1929.76	0.721014	-0.867508
C	1928.97	-1.17595	-1.5872
H	1928.26	-1.96199	-1.24553
H	1928.63	-0.788919	-2.57046
H	1929.97	-1.64567	-1.72315
N	1927.26	1.40703	-1.31956
C	1925.98	2.07913	-1.21277
H	1927.79	1.5515	-2.14392
H	1925.78	2.6904	-2.12042
H	1925.97	2.75325	-0.325885
H	1925.16	1.34016	-1.09917
