44
  This energy is 8.02313e-320 and Call times are: 57735
C	-2.5851	-0.213293	2.32334
C	-1.32519	-0.713218	1.72844
O	-0.703975	-1.6329	2.243
H	-2.81122	-0.792371	3.24497
H	-3.42306	-0.338383	1.60571
H	-2.48355	0.860018	2.58911
N	-0.911968	-0.102989	0.615231
C	0.294154	-0.476725	-0.079331
C	0.720998	0.698497	-0.937175
O	-0.0491033	1.63274	-1.15157
H	-1.41158	0.664273	0.221997
H	1.07716	-0.655643	0.646591
C	0.0712513	-1.72529	-0.961669
H	-0.73311	-1.53847	-1.70478
H	0.998013	-2.0159	-1.4978
H	-0.242158	-2.5787	-0.321668
N	1.97428	0.688392	-1.43233
C	2.47259	1.77001	-2.24963
H	2.58473	-0.0733329	-1.24163
H	3.52274	1.57617	-2.56083
H	2.44537	2.73171	-1.68781
H	1.85117	1.88821	-3.16671
C	2738.22	-3.40444	-0.10469
C	2738.64	-1.98577	-0.0468356
O	2739.82	-1.67848	0.119902
H	2739.12	-4.05596	0.0299023
H	2737.76	-3.62698	-1.08925
H	2737.49	-3.6216	0.703669
N	2737.68	-1.07598	-0.179936
C	2737.93	0.342756	-0.145601
C	2736.62	1.03803	0.19684
O	2735.55	0.432336	0.142779
H	2736.72	-1.33895	-0.286093
H	2738.63	0.556374	0.647671
C	2738.46	0.852705	-1.50297
H	2737.73	0.631318	-2.3146
H	2738.65	1.94473	-1.47999
H	2739.41	0.334948	-1.74289
N	2736.68	2.32834	0.580581
C	2735.5	3.06845	0.937183
H	2737.56	2.7989	0.624865
H	2735.75	4.1122	1.22248
H	2734.98	2.58776	1.79805
H	2734.78	3.10458	0.0813245
