44
  This energy is 9.16986e-321 and Call times are: 99441
C	2.06884	2.18092	1.75772
C	1.84349	1.16465	0.70529
O	2.72337	0.876021	-0.094084
H	3.10075	2.5838	1.66432
H	1.95123	1.72358	2.76262
H	1.3455	3.01579	1.64494
N	0.636131	0.595464	0.679385
C	0.266489	-0.409923	-0.284665
C	-1.24727	-0.442817	-0.366412
O	-1.93511	0.115557	0.486193
H	-0.081733	0.860177	1.31777
H	0.642213	-0.119504	-1.25758
C	0.807169	-1.80035	0.117214
H	0.420281	-2.09485	1.11606
H	0.524491	-2.57683	-0.623019
H	1.91686	-1.76265	0.174776
N	-1.80295	-1.08389	-1.41343
C	-3.23572	-1.15693	-1.58085
H	-1.22919	-1.5234	-2.0967
H	-3.49568	-1.72688	-2.5
H	-3.67388	-0.136123	-1.66578
H	-3.70806	-1.6639	-0.708476
C	4705.79	-0.648617	1.17522
C	4707.21	-0.31606	1.3983
O	4707.63	-0.0200461	2.51078
H	4705.24	-0.570446	2.1379
H	4705.69	-1.68566	0.7901
H	4705.34	0.0586698	0.446233
N	4708	-0.352859	0.32463
C	4709.41	-0.0546486	0.382474
C	4709.87	0.315778	-1.01554
O	4709.16	0.0853057	-1.99065
H	4707.65	-0.567077	-0.581522
H	4709.56	0.80918	1.01735
C	4710.22	-1.26329	0.902404
H	4710.07	-2.14787	0.249158
H	4711.31	-1.03705	0.948346
H	4709.88	-1.52541	1.92665
N	4711.07	0.922159	-1.14287
C	4711.58	1.32205	-2.43328
H	4711.62	1.10646	-0.340967
H	4712.57	1.80181	-2.32951
H	4710.89	2.04905	-2.92069
H	4711.68	0.439859	-3.1058
