44
  This energy is 2.50788e-320 and Call times are: 99903
C	-2.38249	-2.53557	0.144141
C	-2.00262	-1.10487	0.14525
O	-2.85155	-0.224979	0.105209
H	-3.48983	-2.62152	0.0965663
H	-2.02345	-3.02744	1.07257
H	-1.94403	-3.04743	-0.738296
N	-0.695033	-0.838539	0.18597
C	-0.170598	0.503753	0.192915
C	1.26995	0.443567	-0.276581
O	1.8658	-0.630057	-0.34089
H	-0.012322	-1.56437	0.18892
H	-0.724217	1.10151	-0.520015
C	-0.243833	1.12898	1.60389
H	0.3246	0.51286	2.33286
H	0.159036	2.16261	1.6128
H	-1.30398	1.16629	1.9368
N	1.85842	1.6007	-0.638191
C	3.22326	1.6394	-1.10924
H	1.35721	2.45818	-0.585808
H	3.52503	2.68139	-1.35507
H	3.3408	1.01528	-2.02462
H	3.91853	1.24698	-0.332206
C	4727.98	-1.68537	-0.396367
C	4728.77	-0.438604	-0.278442
O	4728.25	0.656111	-0.455271
H	4726.93	-1.43194	-0.659839
H	4727.98	-2.23451	0.568638
H	4728.4	-2.33305	-1.19241
N	4730.06	-0.581386	0.022509
C	4730.96	0.537424	0.171443
C	4732.37	0.0277181	-0.0121159
O	4732.61	-1.17769	0.00755272
H	4730.48	-1.48	0.135477
H	4730.76	1.25313	-0.616671
C	4730.81	1.19813	1.55988
H	4731.01	0.46092	2.36604
H	4731.49	2.06007	1.67787
H	4729.76	1.56621	1.6824
N	4733.34	0.93949	-0.217827
C	4734.72	0.546912	-0.414561
H	4733.13	1.90996	-0.237434
H	4735.37	1.43978	-0.565676
H	4734.82	-0.111061	-1.30839
H	4735.1	-0.0143981	0.470043
