44
  This energy is 8.36008e-320 and Call times are: 70629
C	0.0297912	-3.47791	-0.171425
C	0.723309	-2.17085	-0.128604
O	1.94076	-2.1037	-0.0296722
H	0.78018	-4.29453	-0.0945663
H	-0.522842	-3.5866	-1.1283
H	-0.681189	-3.56207	0.677321
N	-0.0515604	-1.08587	-0.197569
C	0.47631	0.254774	-0.168246
C	-0.64211	1.18669	0.255901
O	-1.81077	0.804534	0.261194
H	-1.04442	-1.15347	-0.248615
H	1.25367	0.310485	0.583202
C	1.02206	0.674791	-1.55131
H	0.222141	0.615828	-2.31992
H	1.42943	1.70652	-1.53226
H	1.8398	-0.0162568	-1.85113
N	-0.304518	2.43215	0.644322
C	-1.3004	3.38504	1.07607
H	0.64746	2.72016	0.639821
H	-0.825486	4.35204	1.35285
H	-1.85414	3.00003	1.96285
H	-2.03899	3.57671	0.264322
C	3350.43	3.14809	-1.48816
C	3350.53	1.67283	-1.56111
O	3350.59	1.09516	-2.63793
H	3350.42	3.56652	-2.51798
H	3351.31	3.56287	-0.944797
H	3349.5	3.44475	-0.965689
N	3350.55	1.02122	-0.395981
C	3350.64	-0.414073	-0.304266
C	3350.11	-0.828145	1.05758
O	3349.95	0.00467775	1.94658
H	3350.47	1.50127	0.473872
H	3349.99	-0.856293	-1.05264
C	3352.09	-0.897552	-0.483858
H	3352.75	-0.441439	0.285091
H	3352.17	-2.00228	-0.413954
H	3352.46	-0.586981	-1.48468
N	3349.82	-2.13017	1.24554
C	3349.31	-2.61502	2.50527
H	3349.96	-2.7875	0.511486
H	3349.13	-3.71253	2.46205
H	3348.34	-2.11534	2.75471
H	3350.03	-2.40729	3.32967
