44
  This energy is 5.69164e-321 and Call times are: 25185
C	0.38618	-1.91721	2.88119
C	0.61968	-0.682959	2.09806
O	1.15269	0.295384	2.60328
H	0.756356	-1.76928	3.91895
H	0.93097	-2.76955	2.42343
H	-0.699226	-2.14874	2.91636
N	0.212943	-0.701546	0.826614
C	0.371203	0.422555	-0.0611793
C	-0.623909	0.264972	-1.19439
O	-1.20103	-0.804763	-1.37995
H	-0.246308	-1.49441	0.434953
H	0.120745	1.33051	0.472642
C	1.80853	0.497676	-0.622919
H	2.06239	-0.435639	-1.16936
H	1.93392	1.36219	-1.30679
H	2.52792	0.611829	0.217082
N	-0.864556	1.34102	-1.96912
C	-1.80491	1.2886	-3.06419
H	-0.392779	2.19981	-1.79845
H	-1.86176	2.27186	-3.58111
H	-2.82319	1.02711	-2.69544
H	-1.49889	0.518226	-3.80854
C	1201.18	1.9851	-1.85073
C	1200.67	1.46922	-0.562496
O	1201.23	1.72325	0.492195
H	1202.1	2.58307	-1.66581
H	1200.42	2.63426	-2.33434
H	1201.43	1.14176	-2.52825
N	1199.57	0.715603	-0.623024
C	1198.95	0.142578	0.544837
C	1198.09	-1.02488	0.0926728
O	1197.82	-1.18014	-1.09585
H	1199.13	0.491725	-1.49131
H	1199.72	-0.247737	1.19694
C	1198.08	1.18193	1.28737
H	1197.29	1.58076	0.615274
H	1197.6	0.744072	2.18722
H	1198.71	2.03248	1.61232
N	1197.67	-1.88979	1.03445
C	1196.86	-3.03732	0.696232
H	1197.9	-1.75084	1.99001
H	1196.61	-3.62487	1.60718
H	1197.4	-3.70412	-0.0136648
H	1195.9	-2.71837	0.2131
