44
  This energy is 1.56061e-319 and Call times are: 42363
C	-1.84245	-0.146439	-2.95128
C	-0.576259	0.0741902	-2.21692
O	0.480585	0.233673	-2.81202
H	-1.63869	-0.142459	-4.04414
H	-2.56613	0.662613	-2.71773
H	-2.28165	-1.12703	-2.67114
N	-0.657251	0.0821571	-0.884349
C	0.487598	0.28505	-0.0328906
C	0.153737	-0.272011	1.33731
O	-1.0055	-0.55199	1.63666
H	-1.51928	-0.0779601	-0.410853
H	1.32224	-0.282608	-0.424323
C	0.848917	1.78326	0.0763253
H	-0.00976498	2.36272	0.477582
H	1.73012	1.94306	0.731101
H	1.09023	2.17964	-0.93402
N	1.17218	-0.466804	2.19803
C	0.951638	-1.00421	3.52042
H	2.1042	-0.240692	1.93449
H	1.91158	-1.08764	4.07612
H	0.491791	-2.01726	3.46116
H	0.26551	-0.34711	4.10235
C	2009.68	1.91571	2.63876
C	2010.42	1.77678	1.36598
O	2010.82	2.75907	0.758097
H	2009.57	2.99425	2.88702
H	2010.23	1.40974	3.45995
H	2008.67	1.46919	2.54205
N	2010.62	0.531454	0.926176
C	2011.32	0.235404	-0.295311
C	2010.91	-1.15457	-0.743516
O	2010.32	-1.91164	0.0201874
H	2010.26	-0.259216	1.41551
H	2011.01	0.933328	-1.06097
C	2012.85	0.300268	-0.0914116
H	2013.17	-0.416484	0.695191
H	2013.4	0.0729728	-1.03003
H	2013.14	1.32303	0.237907
N	2011.21	-1.5153	-2.00798
C	2010.85	-2.81448	-2.52656
H	2011.69	-0.885824	-2.61284
H	2011.18	-2.92117	-3.58342
H	2009.75	-2.96127	-2.4875
H	2011.33	-3.62301	-1.92681
