44
  This energy is 1.7737e-321 and Call times are: 30855
C	0.0865698	1.52201	3.13084
C	0.300272	1.54459	1.66625
O	0.598287	2.5797	1.08638
H	0.234169	2.54532	3.53937
H	0.812978	0.834418	3.61289
H	-0.947018	1.18842	3.36184
N	0.143938	0.383456	1.02618
C	0.318176	0.24623	-0.397771
C	-0.418944	-1.00322	-0.839082
O	-0.80775	-1.82803	-0.0142478
H	-0.127476	-0.446784	1.50573
H	-0.143002	1.09199	-0.891809
C	1.81305	0.141985	-0.774088
H	2.28317	-0.726308	-0.265007
H	1.95083	0.0363697	-1.86982
H	2.34201	1.06268	-0.444441
N	-0.648059	-1.16094	-2.15765
C	-1.3526	-2.31318	-2.66967
H	-0.331734	-0.478768	-2.80866
H	-1.43883	-2.26114	-3.77742
H	-2.37921	-2.36867	-2.24044
H	-0.815832	-3.25242	-2.40342
C	1463.31	0.30452	-2.51838
C	1464.65	-0.11833	-2.03214
O	1465.4	-0.774817	-2.73902
H	1463.16	-0.0730023	-3.55317
H	1463.24	1.41258	-2.52637
H	1462.52	-0.111441	-1.86503
N	1464.97	0.250721	-0.790351
C	1466.23	-0.0848226	-0.177873
C	1466.06	0.0152443	1.32544
O	1465.08	0.57201	1.81049
H	1464.34	0.760511	-0.214016
H	1466.47	-1.11316	-0.413541
C	1467.35	0.864235	-0.648897
H	1467.1	1.91838	-0.40615
H	1468.33	0.608591	-0.179331
H	1467.47	0.782432	-1.75177
N	1467.01	-0.544801	2.10125
C	1466.92	-0.509403	3.5427
H	1467.79	-0.997055	1.68968
H	1467.8	-1.02121	4.00061
H	1466	-1.01764	3.89451
H	1466.9	0.542355	3.90941
