44
  This energy is 3.27566e-320 and Call times are: 119307
C	0.20483	-1.93288	-2.88932
C	-0.254105	-1.71488	-1.49897
O	-1.02769	-2.49351	-0.958788
H	-0.265165	-2.85696	-3.2906
H	1.30855	-2.05134	-2.91373
H	-0.0886334	-1.07367	-3.52853
N	0.217058	-0.628488	-0.882435
C	-0.137581	-0.282081	0.470732
C	0.126062	1.19952	0.656733
O	0.793469	1.82704	-0.163396
H	0.823833	0.0137328	-1.34321
H	-1.19844	-0.447407	0.609754
C	0.681686	-1.10004	1.4939
H	1.76954	-0.928583	1.34799
H	0.411016	-0.835908	2.53685
H	0.480672	-2.18355	1.34644
N	-0.414058	1.79994	1.73551
C	-0.226662	3.20954	1.9887
H	-0.957028	1.27641	2.38384
H	-0.746324	3.51357	2.92399
H	-0.633656	3.81717	1.14824
H	0.8561	3.4492	2.09531
C	5652.6	0.242323	0.730237
C	5651.24	0.82689	0.640465
O	5651	1.9486	1.06825
H	5653.28	0.968394	1.22561
H	5652.99	0.0206367	-0.285796
H	5652.57	-0.692841	1.3284
N	5650.3	0.062726	0.0773849
C	5648.93	0.492711	-0.081433
C	5648.07	-0.743971	-0.250452
O	5648.58	-1.83725	-0.488192
H	5650.5	-0.860676	-0.240882
H	5648.62	0.994102	0.823668
C	5648.78	1.42184	-1.30564
H	5649.1	0.904534	-2.23231
H	5647.72	1.75492	-1.43078
H	5649.41	2.32329	-1.17011
N	5646.74	-0.601977	-0.109028
C	5645.84	-1.72568	-0.240764
H	5646.35	0.289731	0.0903514
H	5644.79	-1.40573	-0.0920571
H	5646.08	-2.50954	0.514256
H	5645.93	-2.18293	-1.25283
