44
  This energy is 3.00145e-320 and Call times are: 106539
C	2.43709	0.598512	2.41423
C	1.27841	-0.162547	1.89514
O	0.891108	-1.18166	2.45002
H	2.83673	0.0883517	3.31749
H	2.12581	1.62774	2.69101
H	3.23738	0.648671	1.64614
N	0.694767	0.321967	0.796516
C	-0.44255	-0.306762	0.17359
C	-0.507565	0.168202	-1.26496
O	0.156924	1.13272	-1.63911
H	1.03772	1.13695	0.337032
H	-0.288375	-1.37826	0.159569
C	-1.75407	0.0470675	0.909681
H	-1.90875	1.14708	0.922771
H	-2.63179	-0.435531	0.432733
H	-1.69331	-0.305033	1.96252
N	-1.29868	-0.516595	-2.11419
C	-1.4145	-0.144881	-3.50509
H	-1.823	-1.2987	-1.79385
H	-2.11295	-0.82735	-4.03767
H	-0.42229	-0.195668	-4.00926
H	-1.79864	0.896283	-3.60303
C	5043.58	1.47941	2.13603
C	5044.06	0.340534	1.31834
O	5043.49	-0.742594	1.35215
H	5042.7	1.16234	2.72795
H	5043.29	2.32658	1.47982
H	5044.38	1.80948	2.83327
N	5045.13	0.563926	0.557509
C	5045.71	-0.445296	-0.292648
C	5047.14	-0.0451552	-0.58038
O	5047.54	1.09092	-0.329779
H	5045.6	1.44207	0.560783
H	5045.73	-1.38603	0.24271
C	5044.92	-0.587047	-1.61438
H	5044.9	0.380016	-2.16069
H	5045.37	-1.36343	-2.27131
H	5043.87	-0.879248	-1.3899
N	5047.96	-0.982621	-1.0965
C	5049.35	-0.696558	-1.39188
H	5047.62	-1.89832	-1.2856
H	5049.85	-1.59397	-1.81097
H	5049.89	-0.386843	-0.469449
H	5049.43	0.130351	-2.13408
