44
  This energy is 6.24598e-320 and Call times are: 15315
C	-2.10812	1.43084	2.37374
C	-1.59594	0.261886	1.62379
O	-1.9418	-0.875569	1.91201
H	-2.79595	1.08112	3.17403
H	-2.66448	2.10854	1.69256
H	-1.2666	1.98524	2.84002
N	-0.741048	0.521912	0.631869
C	-0.157623	-0.509876	-0.187799
C	1.10108	0.0526108	-0.819073
O	1.32656	1.26121	-0.802463
H	-0.44453	1.45062	0.425673
H	0.133739	-1.33892	0.444551
C	-1.13882	-0.978316	-1.2855
H	-1.43616	-0.125198	-1.93194
H	-0.692827	-1.77288	-1.91838
H	-2.05706	-1.38706	-0.810196
N	1.96534	-0.819544	-1.37442
C	3.19556	-0.377063	-1.98839
H	1.76832	-1.79443	-1.37145
H	3.76861	-1.24224	-2.38879
H	3.83552	0.154424	-1.2473
H	2.98564	0.323664	-2.82868
C	729.565	-1.8978	2.64562
C	729.368	-1.07531	1.43067
O	728.264	-0.95612	0.919398
H	728.592	-2.34	2.95114
H	729.95	-1.26856	3.47543
H	730.284	-2.71858	2.44013
N	730.457	-0.485295	0.931516
C	730.426	0.346052	-0.245214
C	731.831	0.407207	-0.810296
O	732.793	0.0263975	-0.145619
H	731.357	-0.613713	1.34034
H	729.792	-0.120657	-0.988866
C	729.923	1.76938	0.0849408
H	730.575	2.24496	0.848624
H	729.898	2.41212	-0.818937
H	728.893	1.71076	0.499106
N	731.98	0.87079	-2.06684
C	733.28	0.954159	-2.69241
H	731.189	1.16749	-2.59106
H	733.194	1.3617	-3.72384
H	733.752	-0.0528702	-2.75161
H	733.955	1.61916	-2.10755
