44
  This energy is 6.35121e-320 and Call times are: 63195
C	1.4825	-1.78063	-2.59955
C	1.53497	-0.773741	-1.51575
O	2.59095	-0.248524	-1.19089
H	2.50623	-1.94018	-3.00252
H	0.824579	-1.42529	-3.42034
H	1.09612	-2.74508	-2.20776
N	0.376258	-0.483226	-0.919633
C	0.266659	0.475739	0.150508
C	-1.01108	0.180423	0.911703
O	-1.86471	-0.568586	0.440396
H	-0.472495	-0.939306	-1.17369
H	1.09558	0.337561	0.83306
C	0.240072	1.92247	-0.391149
H	-0.611113	2.06051	-1.09154
H	0.155895	2.66344	0.430224
H	1.18085	2.12588	-0.947652
N	-1.16211	0.749152	2.12403
C	-2.34022	0.516167	2.92649
H	-0.45677	1.3466	2.49116
H	-2.27766	1.07247	3.88767
H	-2.45117	-0.568417	3.15586
H	-3.25579	0.850341	2.38683
C	2994.88	-1.60574	2.41802
C	2995.26	-0.399881	1.65063
O	2994.63	0.642386	1.75092
H	2993.98	-1.37878	3.03248
H	2995.7	-1.91123	3.09146
H	2994.64	-2.43992	1.72548
N	2996.32	-0.520541	0.849548
C	2996.82	0.564019	0.040443
C	2997.64	-0.0323491	-1.08211
O	2998	-1.20791	-1.04283
H	2996.81	-1.38336	0.754513
H	2995.98	1.08085	-0.407758
C	2997.68	1.53953	0.873782
H	2998.54	1.00588	1.33267
H	2998.06	2.37594	0.253887
H	2997.06	1.96862	1.69337
N	2997.95	0.764394	-2.12536
C	2998.72	0.280282	-3.24544
H	2997.64	1.71085	-2.1419
H	2998.87	1.08491	-3.99939
H	2998.21	-0.573557	-3.73997
H	2999.72	-0.0713439	-2.90889
