44
  This energy is 9.34278e-321 and Call times are: 105741
C	2.62119	-1.72143	1.51398
C	1.20234	-1.30419	1.45113
O	0.371263	-1.77068	2.21807
H	2.74674	-2.47602	2.32064
H	3.26772	-0.846612	1.73648
H	2.93058	-2.17315	0.547968
N	0.889578	-0.404904	0.515274
C	-0.448134	0.0984855	0.331005
C	-0.546553	0.65581	-1.07574
O	0.465547	0.857757	-1.7441
H	1.57008	-0.0541673	-0.122567
H	-1.14749	-0.724295	0.408523
C	-0.782218	1.19877	1.36294
H	-0.0624216	2.04097	1.28108
H	-1.81158	1.58848	1.224
H	-0.70541	0.778197	2.38928
N	-1.77764	0.897857	-1.5675
C	-1.96979	1.41759	-2.90135
H	-2.58464	0.721152	-1.01363
H	-3.0524	1.55027	-3.11952
H	-1.54218	0.72205	-3.65939
H	-1.46559	2.40452	-3.01506
C	5006.86	2.35583	-2.34206
C	5007.89	1.77134	-1.45412
O	5009.05	2.15946	-1.48938
H	5007.32	3.13545	-2.98257
H	5006.05	2.82254	-1.73758
H	5006.42	1.56888	-2.99331
N	5007.48	0.80438	-0.628887
C	5008.36	0.13968	0.294123
C	5007.73	-1.18934	0.666485
O	5006.56	-1.42314	0.404574
H	5006.54	0.476841	-0.630147
H	5009.3	-0.0680497	-0.205235
C	5008.6	0.991069	1.5622
H	5007.63	1.20286	2.07161
H	5009.28	0.482275	2.275
H	5009.05	1.96231	1.27583
N	5008.52	-2.10376	1.27059
C	5008.01	-3.4013	1.65113
H	5009.47	-1.89823	1.46758
H	5008.81	-4.00856	2.13541
H	5007.64	-3.95588	0.758316
H	5007.16	-3.29739	2.36783
