44
  This energy is 4.90607e-321 and Call times are: 13173
C	-2.49954	-2.41161	0.250048
C	-1.16401	-1.96354	-0.204675
O	-0.375357	-2.74532	-0.717852
H	-2.60998	-3.49946	0.0493913
H	-3.29422	-1.8627	-0.297677
H	-2.61228	-2.23399	1.34032
N	-0.875692	-0.673552	-0.0171662
C	0.382559	-0.089147	-0.407172
C	0.572126	1.18521	0.392398
O	-0.366286	1.68551	1.00958
H	-1.51547	-0.0530885	0.428533
H	1.18323	-0.767168	-0.14017
C	0.412745	0.223388	-1.91996
H	-0.410364	0.91867	-2.1905
H	1.38025	0.673348	-2.22369
H	0.271655	-0.717959	-2.49451
N	1.80436	1.73019	0.417105
C	2.0823	2.93647	1.16129
H	2.55232	1.30637	-0.0830426
H	3.15101	3.22621	1.05571
H	1.86441	2.7892	2.24392
H	1.4526	3.77888	0.793865
C	630.729	-1.26906	-2.60693
C	630.594	-0.656627	-1.26603
O	631.564	-0.517175	-0.534017
H	631.791	-1.54957	-2.77762
H	630.417	-0.546575	-3.3905
H	630.1	-2.18196	-2.67573
N	629.365	-0.277065	-0.908159
C	629.075	0.333964	0.364426
C	627.596	0.151837	0.642548
O	626.827	-0.202361	-0.249618
H	628.578	-0.422637	-1.50173
H	629.622	-0.189005	1.13858
C	629.434	1.8367	0.361639
H	628.872	2.37002	-0.434168
H	629.212	2.31028	1.34007
H	630.52	1.95667	0.155651
N	627.165	0.370381	1.90048
C	625.775	0.210241	2.26167
H	627.803	0.649515	2.61008
H	625.621	0.437224	3.33952
H	625.438	-0.834358	2.07151
H	625.132	0.895229	1.66314
