44
  This energy is 6.26475e-321 and Call times are: 7167
C	0.316848	-1.6892	-3.02859
C	0.662988	-0.575494	-2.11697
O	1.55683	0.212949	-2.39248
H	0.982873	-1.65629	-3.91807
H	-0.737025	-1.5947	-3.3651
H	0.453946	-2.6629	-2.51278
N	-0.0464646	-0.489893	-0.989267
C	0.172871	0.53869	-0.00400675
C	-0.396914	0.0507143	1.31374
O	-1.14425	-0.924889	1.35264
H	-0.752486	-1.15555	-0.76261
H	1.23835	0.676758	0.129319
C	-0.502804	1.86562	-0.416116
H	-1.59565	1.72019	-0.552684
H	-0.335771	2.65985	0.340247
H	-0.0776096	2.21184	-1.38332
N	-0.0369645	0.70975	2.43272
C	-0.520205	0.309767	3.73375
H	0.574491	1.4925	2.38123
H	-0.113423	0.975938	4.52621
H	-0.212063	-0.736088	3.96283
H	-1.63258	0.358146	3.77182
C	344.109	-0.240771	3.03482
C	344.462	0.487814	1.79536
O	343.906	1.53668	1.49866
H	343.31	0.314087	3.57243
H	344.998	-0.32218	3.69626
H	343.738	-1.25774	2.78865
N	345.405	-0.0658965	1.02973
C	345.855	0.524207	-0.205621
C	346.499	-0.568616	-1.03667
O	346.792	-1.65102	-0.532727
H	345.829	-0.935611	1.26763
H	344.996	0.891485	-0.753406
C	346.867	1.66269	0.0508669
H	347.747	1.28255	0.613593
H	347.216	2.11939	-0.898233
H	346.384	2.45623	0.661506
N	346.714	-0.316071	-2.34282
C	347.31	-1.30088	-3.2146
H	346.462	0.56343	-2.73345
H	347.405	-0.904054	-4.24937
H	346.688	-2.22406	-3.24904
H	348.326	-1.58257	-2.85246
