44
  This energy is 1.50957e-319 and Call times are: 92049
C	-3.26246	1.15596	-0.382381
C	-2.09712	0.802264	0.459093
O	-2.08741	1.0412	1.6588
H	-4.03816	1.64062	0.249491
H	-3.69343	0.24206	-0.842671
H	-2.95679	1.86323	-1.18193
N	-1.07011	0.220363	-0.164617
C	0.133119	-0.181956	0.518901
C	1.23691	-0.303834	-0.513585
O	0.974859	-0.321869	-1.71477
H	-1.0783	0.0574639	-1.14764
H	0.41884	0.595877	1.21562
C	-0.0597335	-1.5283	1.25189
H	-0.353442	-2.32385	0.534276
H	0.864797	-1.84098	1.77939
H	-0.871653	-1.42613	2.00455
N	2.50656	-0.368732	-0.0666137
C	3.62346	-0.47407	-0.976353
H	2.69856	-0.345449	0.909002
H	4.58379	-0.516804	-0.416727
H	3.656	0.403639	-1.66178
H	3.53856	-1.39466	-1.59804
C	4361.82	-1.46811	-2.81998
C	4361.24	-1.55345	-1.46227
O	4361	-2.63519	-0.942203
H	4361.97	-2.4943	-3.21973
H	4362.8	-0.948321	-2.78301
H	4361.14	-0.916214	-3.49726
N	4360.98	-0.393522	-0.852075
C	4360.42	-0.313834	0.470463
C	4359.79	1.06024	0.629032
O	4360.04	1.95917	-0.17189
H	4361.15	0.4813	-1.29787
H	4359.62	-1.04554	0.558
C	4361.49	-0.539746	1.55754
H	4362.3	0.212197	1.46438
H	4361.06	-0.479208	2.57711
H	4361.94	-1.54914	1.42973
N	4358.95	1.24839	1.66088
C	4358.3	2.51968	1.8845
H	4358.75	0.506408	2.29398
H	4357.65	2.47462	2.78239
H	4357.67	2.80088	1.00731
H	4359.06	3.32364	2.04126
