44
  This energy is 4.16893e-320 and Call times are: 119643
C	-1.89519	1.33229	2.59988
C	-1.20227	1.45694	1.29776
O	-1.30675	2.47001	0.620059
H	-2.47386	2.26052	2.79833
H	-1.15497	1.18912	3.41499
H	-2.59454	0.470033	2.58043
N	-0.471887	0.408124	0.911899
C	0.260246	0.379572	-0.329066
C	0.519813	-1.07169	-0.683592
O	0.353254	-1.96152	0.148458
H	-0.418182	-0.422804	1.45927
H	-0.356326	0.804044	-1.1112
C	1.59717	1.14497	-0.211147
H	2.22693	0.707303	0.592581
H	2.1634	1.1251	-1.16497
H	1.39341	2.2063	0.0500121
N	0.915468	-1.3466	-1.94212
C	1.17474	-2.70027	-2.37402
H	1.03769	-0.613316	-2.60286
H	1.49089	-2.7191	-3.44029
H	0.260566	-3.32827	-2.26838
H	1.98268	-3.16068	-1.76048
C	5661.76	-0.396738	0.382907
C	5662.98	0.447561	0.327142
O	5662.9	1.66837	0.339966
H	5660.86	0.255634	0.426775
H	5661.78	-1.03948	1.28801
H	5661.7	-1.03613	-0.522668
N	5664.14	-0.196603	0.25693
C	5665.41	0.48664	0.196882
C	5666.43	-0.472552	-0.3866
O	5666.18	-1.67328	-0.479377
H	5664.19	-1.19114	0.217799
H	5665.33	1.32755	-0.479638
C	5665.86	0.955822	1.59751
H	5665.95	0.0907282	2.28915
H	5666.84	1.48244	1.5549
H	5665.11	1.6569	2.01448
N	5667.6	0.0424601	-0.815741
C	5668.62	-0.792384	-1.39644
H	5667.78	1.01779	-0.738574
H	5669.51	-0.184177	-1.68487
H	5668.24	-1.30851	-2.30679
H	5668.96	-1.57092	-0.671261
