44
  This energy is 1.4822e-321 and Call times are: 92469
C	-2.57922	-1.79179	1.50442
C	-1.47584	-0.806386	1.5569
O	-1.27552	-0.133858	2.55893
H	-3.12882	-1.77957	2.47067
H	-2.1738	-2.81139	1.33449
H	-3.28446	-1.53369	0.686511
N	-0.727767	-0.694627	0.456783
C	0.381403	0.219858	0.355361
C	0.65113	0.463659	-1.11673
O	0.151984	-0.260857	-1.97566
H	-0.919155	-1.22729	-0.363322
H	0.098992	1.1661	0.799149
C	1.64421	-0.349466	1.03969
H	1.93072	-1.32051	0.58241
H	2.50014	0.35222	0.963591
H	1.43324	-0.524752	2.11714
N	1.43481	1.51004	-1.44371
C	1.73713	1.82664	-2.82014
H	1.82352	2.08885	-0.7344
H	2.39724	2.71974	-2.88238
H	0.803037	2.04095	-3.38828
H	2.25428	0.97311	-3.31534
C	4376.47	-1.18784	2.1917
C	4377.86	-1.15696	1.68159
O	4378.76	-1.75007	2.26053
H	4376.43	-1.7976	3.12052
H	4375.79	-1.64263	1.43636
H	4376.12	-0.158445	2.42365
N	4378.07	-0.447082	0.570199
C	4379.36	-0.32276	-0.0467143
C	4379.34	0.914702	-0.92285
O	4378.28	1.46613	-1.21051
H	4377.33	0.05554	0.12415
H	4380.11	-0.168843	0.724968
C	4379.7	-1.56877	-0.894013
H	4378.94	-1.72408	-1.68425
H	4380.7	-1.47643	-1.37035
H	4379.71	-2.46853	-0.240943
N	4380.53	1.39418	-1.35137
C	4380.61	2.57438	-2.17995
H	4381.38	0.937889	-1.10188
H	4381.67	2.80715	-2.42887
H	4380.17	3.45409	-1.65525
H	4380.05	2.42612	-3.13182
