44
  This energy is 9.11749e-320 and Call times are: 22413
C	-2.38362	-0.877441	-2.38214
C	-1.79546	-0.985769	-1.02806
O	-2.35315	-1.62313	-0.145314
H	-3.34357	-1.43734	-2.41147
H	-1.69208	-1.31017	-3.13536
H	-2.58059	0.186853	-2.62998
N	-0.638638	-0.349028	-0.831338
C	0.0556788	-0.361736	0.431433
C	0.992791	0.830006	0.459877
O	1.24887	1.45299	-0.568784
H	-0.208962	0.190997	-1.55015
H	-0.663994	-0.233416	1.22998
C	0.854662	-1.67049	0.620893
H	1.59155	-1.79929	-0.200403
H	1.39038	-1.68367	1.59229
H	0.157065	-2.5359	0.59696
N	1.51149	1.18905	1.65069
C	2.40381	2.31779	1.77679
H	1.2865	0.676556	2.47286
H	2.72354	2.45013	2.83391
H	1.90195	3.25461	1.44252
H	3.31375	2.17134	1.1509
C	1065.59	1.06083	2.38467
C	1066.79	0.28122	1.98386
O	1067.48	-0.293645	2.81553
H	1065.48	1.01752	3.48978
H	1064.68	0.635527	1.91357
H	1065.71	2.12139	2.07636
N	1067.06	0.249956	0.678179
C	1068.19	-0.466333	0.134831
C	1068.5	0.118917	-1.22914
O	1067.7	0.859738	-1.79284
H	1066.51	0.746419	0.0135488
H	1069.05	-0.299392	0.768255
C	1067.89	-1.97644	0.00891379
H	1067	-2.14403	-0.641016
H	1068.75	-2.53101	-0.409003
H	1067.66	-2.39293	1.0145
N	1069.69	-0.18502	-1.78372
C	1070.08	0.335578	-3.07413
H	1070.33	-0.780527	-1.30855
H	1071.09	-0.0297268	-3.35808
H	1070.1	1.44937	-3.05814
H	1069.36	0.0153438	-3.85995
