44
  This energy is 3.26281e-320 and Call times are: 68571
C	1.48416	2.83824	-1.36667
C	1.5654	1.53021	-0.678436
O	2.64378	0.993066	-0.466115
H	2.50943	3.18149	-1.62528
H	1.00998	3.59117	-0.70254
H	0.8907	2.7434	-2.30034
N	0.405392	0.978505	-0.314622
C	0.321968	-0.290382	0.363458
C	-1.07602	-0.839238	0.154582
O	-1.97583	-0.120192	-0.275693
H	-0.468079	1.41224	-0.519219
H	1.01836	-0.98087	-0.0951655
C	0.614212	-0.141607	1.87328
H	-0.101612	0.567942	2.34046
H	0.550969	-1.1168	2.39843
H	1.64062	0.262334	2.0128
N	-1.28522	-2.14041	0.435983
C	-2.58068	-2.75347	0.256755
H	-0.542462	-2.70753	0.776447
H	-2.5505	-3.82766	0.54389
H	-2.90442	-2.684	-0.807018
H	-3.34693	-2.24396	0.884803
C	3249.71	-1.91307	-1.1132
C	3250.94	-1.12178	-1.36218
O	3251.44	-1.06666	-2.47644
H	3249.39	-2.39836	-2.05996
H	3248.9	-1.2516	-0.752501
H	3249.91	-2.70008	-0.355736
N	3251.46	-0.486317	-0.309321
C	3252.65	0.322719	-0.393646
C	3253.23	0.444868	1.00192
O	3252.57	0.12386	1.98781
H	3251.06	-0.562656	0.599397
H	3253.38	-0.187461	-1.00973
C	3252.33	1.72437	-0.963743
H	3251.59	2.24466	-0.32967
H	3253.25	2.3499	-1.03017
H	3251.91	1.62108	-1.98571
N	3254.49	0.894376	1.11566
C	3255.13	1.03236	2.40311
H	3255.01	1.14227	0.305426
H	3256.17	1.41788	2.28747
H	3255.18	0.0494582	2.92548
H	3254.57	1.74004	3.05018
