44
  This energy is 3.8295e-320 and Call times are: 68823
C	-2.28791	-0.210908	-2.6167
C	-0.91412	-0.0146345	-2.10154
O	0.0416172	0.0607704	-2.86139
H	-2.25849	-0.274736	-3.72617
H	-2.93245	0.644123	-2.32292
H	-2.71702	-1.15243	-2.21379
N	-0.784225	0.0677056	-0.775377
C	0.487521	0.25847	-0.124916
C	0.3509	-0.208253	1.31131
O	-0.757257	-0.414401	1.80256
H	-1.56688	-0.0243819	-0.165533
H	1.22652	-0.369622	-0.606009
C	0.921986	1.74067	-0.162822
H	0.161281	2.38224	0.330971
H	1.90091	1.89109	0.337036
H	1.01734	2.07072	-1.22023
N	1.48324	-0.407397	2.01426
C	1.45172	-0.862638	3.38464
H	2.37064	-0.241855	1.5967
H	2.4829	-0.963939	3.78918
H	0.947562	-1.85344	3.45799
H	0.892828	-0.142618	4.02526
C	3264.47	1.58892	-3.09776
C	3264.92	0.524605	-2.17001
O	3265.63	-0.39199	-2.55416
H	3264.88	1.38663	-4.11167
H	3264.84	2.57704	-2.75187
H	3263.36	1.60876	-3.15445
N	3264.49	0.622538	-0.908042
C	3264.84	-0.335562	0.110464
C	3263.82	-0.228281	1.22177
O	3263.05	0.730168	1.27772
H	3263.89	1.35811	-0.614194
H	3264.77	-1.33254	-0.305882
C	3266.26	-0.0732101	0.66826
H	3266.33	0.950664	1.09398
H	3266.53	-0.809239	1.45263
H	3267	-0.153532	-0.155724
N	3263.77	-1.22743	2.12464
C	3262.81	-1.21717	3.21071
H	3264.39	-1.99796	2.05813
H	3262.93	-2.12322	3.84517
H	3261.77	-1.19641	2.81889
H	3262.96	-0.318293	3.85259
