44
  This energy is 1.29707e-319 and Call times are: 17835
C	-0.160911	-2.81803	-2.03934
C	-0.33021	-1.36534	-1.81083
O	-0.597273	-0.606894	-2.73275
H	-0.307482	-3.03956	-3.11884
H	-0.910296	-3.3878	-1.45061
H	0.860874	-3.13574	-1.74276
N	-0.169733	-0.939827	-0.555624
C	-0.302875	0.444113	-0.176401
C	0.430965	0.640264	1.13594
O	0.784127	-0.326089	1.80919
H	0.0764027	-1.56342	0.181588
H	0.183825	1.06133	-0.920874
C	-1.78699	0.84426	-0.0201653
H	-2.28338	0.208641	0.74384
H	-1.89314	1.90932	0.27164
H	-2.31368	0.694882	-0.987858
N	0.69753	1.90409	1.52024
C	1.40219	2.18762	2.74875
H	0.409744	2.67246	0.958077
H	1.52232	3.28449	2.88903
H	2.41464	1.7228	2.73721
H	0.845574	1.781	3.62398
C	851.176	-1.31383	-3.20295
C	850.962	-1.47445	-1.74702
O	850.698	-2.5665	-1.26317
H	851.049	-2.29829	-3.70359
H	852.202	-0.940084	-3.39996
H	850.436	-0.59962	-3.62201
N	851.068	-0.368637	-1.00656
C	850.888	-0.365092	0.423235
C	850.561	1.05334	0.848111
O	850.734	1.99599	0.0779855
H	851.255	0.520299	-1.41617
H	850.037	-0.987189	0.672189
C	852.158	-0.858619	1.15158
H	853.028	-0.218593	0.893395
H	852.022	-0.857297	2.25268
H	852.387	-1.89819	0.830867
N	850.056	1.23504	2.08445
C	849.705	2.5485	2.57148
H	849.917	0.458647	2.69017
H	849.309	2.4901	3.60947
H	848.924	3.01135	1.92469
H	850.594	3.21878	2.57243
