44
  This energy is 5.74055e-320 and Call times are: 21153
C	-1.62369	-1.5902	-2.63837
C	-1.41795	-0.424336	-1.74977
O	-1.99043	0.636919	-1.95589
H	-2.33139	-1.31323	-3.44974
H	-2.05048	-2.43882	-2.06346
H	-0.659175	-1.90003	-3.09298
N	-0.576537	-0.598683	-0.728002
C	-0.274694	0.441841	0.222276
C	1.04425	0.0978366	0.886565
O	1.53001	-1.02617	0.774861
H	-0.0939135	-1.4591	-0.587641
H	-0.141721	1.37575	-0.308957
C	-1.3874	0.571974	1.28626
H	-1.52161	-0.388073	1.82886
H	-1.15825	1.37238	2.01948
H	-2.34851	0.822929	0.786829
N	1.66773	1.07105	1.57948
C	2.93343	0.839341	2.2356
H	1.26196	1.97619	1.65226
H	3.28229	1.75991	2.75339
H	3.70999	0.53764	1.49589
H	2.84145	0.0255905	2.99094
C	1011.38	-0.102161	-0.120123
C	1010.06	-0.768551	-0.0609584
O	1009.96	-1.98308	-0.166896
H	1012.17	-0.867884	-0.272939
H	1011.58	0.436274	0.830152
H	1011.41	0.617428	-0.965311
N	1009	0.0271646	0.106679
C	1007.65	-0.473112	0.183864
C	1006.71	0.66907	-0.148989
O	1007.12	1.82974	-0.173749
H	1009.09	1.01774	0.16247
H	1007.52	-1.23983	-0.568539
C	1007.34	-1.02735	1.59129
H	1007.48	-0.238362	2.36077
H	1006.3	-1.41352	1.65418
H	1008.03	-1.86253	1.8236
N	1005.43	0.361541	-0.435553
C	1004.47	1.38174	-0.775528
H	1005.12	-0.584408	-0.417142
H	1003.47	0.929917	-0.975586
H	1004.79	1.93853	-1.68543
H	1004.36	2.11394	0.0572143
