44
  This energy is 4.81763e-320 and Call times are: 94401
C	-1.63446	-3.07402	-0.0712528
C	-0.551806	-2.18635	0.409485
O	0.21324	-2.54395	1.29454
H	-1.6042	-4.03014	0.495114
H	-1.49923	-3.29186	-1.15157
H	-2.62268	-2.59327	0.0876902
N	-0.467259	-0.986671	-0.170153
C	0.532846	-0.0134631	0.189686
C	0.035774	1.34988	-0.25014
O	-0.916013	1.45308	-1.02169
H	-1.11459	-0.695973	-0.869717
H	0.63391	0.00522311	1.26742
C	1.88909	-0.326247	-0.48105
H	1.78162	-0.345299	-1.58658
H	2.66149	0.42109	-0.205991
H	2.24177	-1.32789	-0.151697
N	0.659292	2.43422	0.251301
C	0.24773	3.77304	-0.101353
H	1.42298	2.32997	0.879901
H	0.883741	4.52787	0.411449
H	-0.812035	3.94889	0.193969
H	0.330876	3.93306	-1.20074
C	4473.44	-2.02963	1.25308
C	4472.47	-1.65726	0.195197
O	4472.49	-2.20719	-0.897435
H	4474.11	-2.82789	0.871371
H	4472.9	-2.41038	2.14626
H	4474.05	-1.14901	1.53896
N	4471.6	-0.693982	0.501129
C	4470.6	-0.22344	-0.422917
C	4470.16	1.15733	0.026544
O	4470.45	1.57594	1.14511
H	4471.62	-0.233442	1.38463
H	4471.04	-0.124097	-1.40431
C	4469.38	-1.17624	-0.469055
H	4468.93	-1.27638	0.539499
H	4468.61	-0.816994	-1.17971
H	4469.72	-2.18446	-0.7985
N	4469.47	1.9088	-0.849278
C	4469.02	3.24047	-0.513769
H	4469.24	1.55493	-1.75228
H	4468.46	3.69427	-1.36361
H	4469.88	3.89695	-0.271677
H	4468.34	3.21694	0.373332
