44
  This energy is 6.5187e-320 and Call times are: 21447
C	0.601228	0.526043	3.38939
C	0.522283	1.00664	1.99153
O	0.634971	2.19499	1.7239
H	0.76091	1.39258	4.06723
H	1.44994	-0.180689	3.50359
H	-0.34395	0.0171038	3.67322
N	0.317453	0.0769806	1.05551
C	0.217948	0.389365	-0.347823
C	-0.510763	-0.752752	-1.02884
O	-0.677655	-1.82527	-0.45118
H	0.198208	-0.884352	1.28908
H	-0.383551	1.28147	-0.467923
C	1.6138	0.581984	-0.981562
H	2.22842	-0.334842	-0.855947
H	1.54085	0.822792	-2.06206
H	2.13774	1.42055	-0.473202
N	-0.983075	-0.539547	-2.27281
C	-1.69989	-1.56469	-2.99492
H	-0.844073	0.337632	-2.72055
H	-2.00438	-1.19792	-3.99992
H	-2.61703	-1.86794	-2.43982
H	-1.06309	-2.46885	-3.12967
C	1021.95	0.195621	3.47642
C	1022.08	-0.565103	2.21357
O	1022.47	-1.72476	2.21175
H	1022.26	-0.449819	4.32806
H	1020.89	0.509261	3.62473
H	1022.6	1.0937	3.453
N	1021.76	0.0854299	1.09278
C	1021.84	-0.520781	-0.212338
C	1021.92	0.592199	-1.23893
O	1021.66	1.75368	-0.928623
H	1021.47	1.03924	1.10478
H	1022.75	-1.09714	-0.278837
C	1020.61	-1.41275	-0.492237
H	1019.67	-0.818431	-0.422535
H	1020.66	-1.88122	-1.49629
H	1020.56	-2.22331	0.267196
N	1022.3	0.263535	-2.48806
C	1022.42	1.25815	-3.5288
H	1022.52	-0.680864	-2.71764
H	1022.75	0.791066	-4.48408
H	1023.17	2.03615	-3.24632
H	1021.44	1.76363	-3.70161
