44
  This energy is 1.07983e-319 and Call times are: 122289
C	-1.64369	2.43929	-1.86394
C	-1.52105	1.58012	-0.664776
O	-2.26757	1.72184	0.293929
H	-2.4704	3.16675	-1.71156
H	-1.87033	1.81965	-2.75697
H	-0.699341	2.99854	-2.03244
N	-0.555431	0.658593	-0.691776
C	-0.31253	-0.251225	0.399122
C	1.10852	-0.764312	0.270272
O	1.74436	-0.599921	-0.769205
H	0.0650103	0.57235	-1.46673
H	-0.38263	0.292256	1.33282
C	-1.30789	-1.43273	0.378448
H	-1.23377	-1.98766	-0.581067
H	-1.12378	-2.13515	1.21719
H	-2.34514	-1.04357	0.472345
N	1.64919	-1.38251	1.33869
C	2.99995	-1.89334	1.31263
H	1.12093	-1.49946	2.17325
H	3.2596	-2.36821	2.2844
H	3.72702	-1.07176	1.11869
H	3.11674	-2.65485	0.507868
C	5793.11	-1.65602	-2.39677
C	5791.9	-1.5386	-1.54699
O	5790.96	-2.30471	-1.67994
H	5792.97	-2.49897	-3.1092
H	5794	-1.85485	-1.76781
H	5793.26	-0.719581	-2.97295
N	5791.91	-0.555348	-0.643903
C	5790.8	-0.314804	0.254845
C	5790.91	1.1178	0.741472
O	5791.93	1.76891	0.570953
H	5792.67	0.080391	-0.565061
H	5789.88	-0.411901	-0.292548
C	5790.84	-1.28705	1.45521
H	5791.79	-1.18526	2.01413
H	5789.99	-1.1047	2.14917
H	5790.76	-2.33301	1.08537
N	5789.82	1.65088	1.3431
C	5789.82	3.01134	1.82823
H	5789	1.11008	1.46532
H	5788.84	3.2625	2.29248
H	5790.01	3.72605	0.994059
H	5790.62	3.15693	2.59198
