44
  This energy is 1.09243e-319 and Call times are: 34761
C	-0.525508	-1.4658	-3.11471
C	-0.947917	-1.1711	-1.72693
O	-2.06506	-1.47081	-1.32862
H	-1.36159	-1.95945	-3.65612
H	0.351825	-2.14631	-3.11123
H	-0.26127	-0.525226	-3.64239
N	-0.0492456	-0.561467	-0.950333
C	-0.312625	-0.209959	0.42222
C	0.660416	0.883533	0.818078
O	1.63852	1.1383	0.117906
H	0.847252	-0.296299	-1.29517
H	-1.31295	0.197575	0.495336
C	-0.149819	-1.42973	1.35644
H	0.877311	-1.8457	1.27841
H	-0.352042	-1.16264	2.41405
H	-0.867178	-2.224	1.0553
N	0.4004	1.57333	1.94616
C	1.26433	2.63996	2.39573
H	-0.400099	1.35688	2.49533
H	0.882925	3.08241	3.34231
H	1.32286	3.44724	1.63014
H	2.29598	2.26034	2.57674
C	1653.42	-0.548426	-2.97834
C	1652.17	-0.344818	-2.21732
O	1651.09	-0.206428	-2.78972
H	1653.19	-0.54082	-4.06681
H	1653.87	-1.52597	-2.7125
H	1654.14	0.266654	-2.75507
N	1652.28	-0.316004	-0.887279
C	1651.15	-0.126609	-0.0118045
C	1651.67	0.366281	1.32329
O	1652.87	0.298455	1.59279
H	1653.16	-0.400814	-0.433836
H	1650.51	0.647085	-0.421367
C	1650.36	-1.44049	0.179539
H	1651.02	-2.2322	0.599215
H	1649.49	-1.2982	0.852989
H	1649.98	-1.79169	-0.805722
N	1650.78	0.897016	2.18577
C	1651.19	1.40304	3.4756
H	1649.82	0.949542	1.94631
H	1650.32	1.7962	4.03852
H	1651.93	2.22737	3.35801
H	1651.66	0.597423	4.08192
