44
  This energy is 1.32923e-319 and Call times are: 84909
C	2.68244	1.80191	1.29759
C	1.63173	0.765889	1.41533
O	1.58569	0.0187685	2.3829
H	3.35088	1.74955	2.18433
H	2.22148	2.81109	1.25417
H	3.28661	1.63211	0.381562
N	0.754067	0.694674	0.411842
C	-0.324625	-0.260538	0.383178
C	-0.770768	-0.416397	-1.05762
O	-0.412211	0.386508	-1.91705
H	0.819589	1.2897	-0.384766
H	0.0466565	-1.22072	0.718259
C	-1.50989	0.203032	1.25917
H	-1.88787	1.18866	0.913055
H	-2.34218	-0.530242	1.23949
H	-1.1698	0.31458	2.3118
N	-1.55078	-1.47298	-1.35965
C	-2.01435	-1.70934	-2.70703
H	-1.82431	-2.11551	-0.65144
H	-2.64374	-2.62539	-2.75134
H	-1.15311	-1.84193	-3.40124
H	-2.62144	-0.848801	-3.07048
C	4026.46	-2.18938	-1.13063
C	4025.94	-0.8228	-0.894272
O	4026.65	0.160523	-1.0746
H	4027.52	-2.12858	-1.46482
H	4025.86	-2.6936	-1.91914
H	4026.41	-2.78411	-0.194164
N	4024.68	-0.731832	-0.472509
C	4024.04	0.528115	-0.199807
C	4022.86	0.261002	0.720546
O	4022.45	-0.883967	0.898889
H	4024.12	-1.54164	-0.30143
H	4024.73	1.17029	0.329131
C	4023.55	1.20403	-1.50093
H	4022.84	0.542223	-2.04136
H	4023.05	2.1745	-1.29461
H	4024.42	1.39328	-2.16696
N	4022.3	1.31677	1.34653
C	4021.19	1.15764	2.25047
H	4022.66	2.23465	1.19462
H	4020.87	2.14141	2.66256
H	4021.46	0.493385	3.10137
H	4020.32	0.702123	1.72472
