44
  This energy is 1.52093e-319 and Call times are: 66849
C	-1.073	-3.19381	-0.879981
C	-1.30636	-1.74117	-0.716984
O	-2.33938	-1.21824	-1.11185
H	-1.94747	-3.65112	-1.39186
H	-0.945839	-3.67462	0.112732
H	-0.164809	-3.36913	-1.49431
N	-0.33116	-1.0465	-0.126404
C	-0.411869	0.373956	0.102997
C	0.999381	0.897058	0.287327
O	1.93603	0.124227	0.480362
H	0.518026	-1.47907	0.16463
H	-0.826637	0.849445	-0.776749
C	-1.26456	0.694658	1.35087
H	-0.836594	0.204757	2.2514
H	-1.32891	1.78756	1.53034
H	-2.29554	0.305313	1.20379
N	1.18736	2.22922	0.209761
C	2.49784	2.81747	0.360719
H	0.417706	2.83748	0.0457943
H	2.44515	3.92454	0.26661
H	3.19368	2.43214	-0.419386
H	2.92703	2.57036	1.35868
C	3172.3	-0.302264	3.127
C	3171.23	-0.627496	2.16235
O	3170.39	-1.48042	2.41483
H	3172.19	-0.941666	4.02963
H	3172.23	0.763451	3.43096
H	3173.3	-0.493216	2.67116
N	3171.24	0.0535774	1.01411
C	3170.26	-0.150513	-0.0223729
C	3170.84	0.362371	-1.32406
O	3171.85	1.06782	-1.32605
H	3171.94	0.725274	0.808099
H	3170.08	-1.21271	-0.136516
C	3168.94	0.589959	0.296271
H	3169.12	1.67929	0.413383
H	3168.18	0.434817	-0.499712
H	3168.52	0.20605	1.25255
N	3170.23	-0.000958909	-2.46939
C	3170.72	0.429545	-3.75724
H	3169.42	-0.578232	-2.44726
H	3170.08	0.0287131	-4.57592
H	3171.76	0.0726913	-3.91848
H	3170.72	1.5415	-3.82597
