44
  This energy is 1.11723e-319 and Call times are: 46731
C	0.915824	1.04718	3.19231
C	0.8555	0.0221947	2.12601
O	1.44166	-1.04538	2.24094
H	1.54943	0.673281	4.02574
H	-0.103201	1.25525	3.58104
H	1.35898	1.98537	2.7969
N	0.137177	0.333171	1.0445
C	-0.0158183	-0.560452	-0.0757039
C	-0.415435	0.267872	-1.28128
O	-0.796899	1.4291	-1.14761
H	-0.311738	1.21778	0.950233
H	0.940656	-1.0184	-0.293673
C	-1.08612	-1.63833	0.206694
H	-2.0659	-1.16502	0.430568
H	-1.20637	-2.32821	-0.653762
H	-0.782255	-2.23742	1.09264
N	-0.315555	-0.307362	-2.49583
C	-0.662471	0.408111	-3.70162
H	0.00204846	-1.24578	-2.58377
H	-0.514761	-0.235236	-4.59691
H	-0.0287449	1.31738	-3.81503
H	-1.72827	0.731349	-3.67402
C	2219.01	-3.36767	0.53142
C	2219.09	-2.13439	-0.283692
O	2219.77	-2.08536	-1.29397
H	2219.65	-4.15054	0.0739833
H	2217.96	-3.73817	0.567898
H	2219.37	-3.16709	1.56354
N	2218.37	-1.09245	0.149231
C	2218.34	0.174879	-0.53629
C	2217.9	1.23151	0.455735
O	2217.4	0.91171	1.53188
H	2217.84	-1.13577	0.989669
H	2219.35	0.42498	-0.854303
C	2217.38	0.140136	-1.74399
H	2216.35	-0.117389	-1.41423
H	2217.36	1.11435	-2.27421
H	2217.72	-0.638557	-2.46262
N	2218.09	2.52286	0.122944
C	2217.71	3.59727	1.00955
H	2218.51	2.76111	-0.749482
H	2217.95	4.58465	0.556585
H	2218.25	3.51673	1.98015
H	2216.62	3.56346	1.21995
