44
  This energy is 5.32455e-320 and Call times are: 50595
C	0.351543	1.9386	2.8713
C	0.769466	1.54612	1.50657
O	1.62747	2.17486	0.902402
H	0.923933	2.83806	3.18628
H	0.556161	1.11395	3.58608
H	-0.732364	2.1792	2.88546
N	0.156523	0.482646	0.981507
C	0.45505	-0.0203873	-0.33556
C	-0.728213	-0.848641	-0.797211
O	-1.59667	-1.20209	-0.00179405
H	-0.561532	-0.00358579	1.47233
H	0.557426	0.81507	-1.01645
C	1.7374	-0.882175	-0.331232
H	1.62916	-1.73794	0.368813
H	1.97027	-1.27099	-1.34384
H	2.59651	-0.264334	0.00986777
N	-0.800459	-1.16015	-2.10631
C	-1.89673	-1.93495	-2.63929
H	-0.0914376	-0.858738	-2.73533
H	-1.77493	-2.08704	-3.7344
H	-2.86673	-1.41594	-2.46328
H	-1.94617	-2.93449	-2.14975
C	2401.88	-2.19677	1.06332
C	2400.79	-1.81861	0.14384
O	2400.54	-2.48244	-0.853735
H	2402.38	-3.11398	0.681987
H	2401.48	-2.40259	2.07675
H	2402.63	-1.37878	1.12337
N	2400.1	-0.720849	0.463039
C	2399	-0.226691	-0.332782
C	2398.81	1.2406	-0.00174917
O	2399.35	1.73733	0.986585
H	2400.33	-0.172251	1.26271
H	2399.27	-0.295587	-1.37977
C	2397.7	-1.00991	-0.0475541
H	2397.43	-0.937657	1.02754
H	2396.86	-0.632088	-0.65878
H	2397.86	-2.08335	-0.292933
N	2398.05	1.97655	-0.838837
C	2397.83	3.38439	-0.610838
H	2397.63	1.55782	-1.63722
H	2397.18	3.81147	-1.40697
H	2398.79	3.94323	-0.606912
H	2397.33	3.54764	0.372407
