44
  This energy is 1.43032e-319 and Call times are: 60129
C	0.163939	3.47587	0.132467
C	0.796131	2.14868	-0.0409668
O	1.9648	2.04512	-0.387362
H	0.90555	4.26964	-0.103775
H	-0.17679	3.60318	1.18152
H	-0.703661	3.57917	-0.552766
N	0.0212681	1.08738	0.194832
C	0.493235	-0.268433	0.0689243
C	-0.714706	-1.16767	-0.108548
O	-1.84805	-0.750938	0.123181
H	-0.937525	1.18459	0.448214
H	1.09755	-0.348982	-0.825717
C	1.29946	-0.701277	1.31382
H	0.676698	-0.616767	2.22987
H	1.6645	-1.74471	1.22013
H	2.18082	-0.0341564	1.43343
N	-0.499985	-2.42351	-0.547584
C	-1.59022	-3.34736	-0.757491
H	0.423934	-2.73969	-0.736359
H	-1.21024	-4.3287	-1.11783
H	-2.30322	-2.94812	-1.51478
H	-2.15129	-3.5151	0.190265
C	2849.13	-2.37094	0.952986
C	2850.44	-1.99964	0.369006
O	2851.27	-2.85207	0.0800349
H	2849.08	-3.4758	1.06453
H	2848.31	-2.0376	0.287853
H	2849.01	-1.90273	1.95267
N	2850.66	-0.69549	0.185621
C	2851.89	-0.179353	-0.372785
C	2852.01	1.27521	0.0377018
O	2851.05	1.87899	0.507348
H	2849.99	-0.00896512	0.452092
H	2852.72	-0.714393	0.0585142
C	2851.9	-0.299343	-1.91311
H	2851.04	0.25012	-2.35223
H	2852.84	0.0970277	-2.34635
H	2851.8	-1.36938	-2.20087
N	2853.21	1.86769	-0.110997
C	2853.42	3.24605	0.26372
H	2853.98	1.36012	-0.486261
H	2854.48	3.54911	0.0636179
H	2853.22	3.39516	1.34816
H	2852.75	3.91952	-0.312633
