44
  This energy is 1.20335e-319 and Call times are: 23505
C	-1.94523	-0.122742	2.88568
C	-1.78606	0.10719	1.43207
O	-2.75629	0.29838	0.71193
H	-3.02559	-0.093261	3.14606
H	-1.4159	0.6677	3.45826
H	-1.53565	-1.11682	3.16317
N	-0.536719	0.0872228	0.961836
C	-0.221635	0.294811	-0.429012
C	1.15066	-0.295497	-0.688984
O	1.88966	-0.603214	0.244297
H	0.243026	-0.0985095	1.55381
H	-0.934089	-0.249103	-1.03617
C	-0.230752	1.79713	-0.78968
H	0.500784	2.35219	-0.164479
H	0.0113182	1.96055	-1.85995
H	-1.24102	2.21794	-0.593674
N	1.51551	-0.488018	-1.97188
C	2.79844	-1.05559	-2.31558
H	0.900515	-0.239152	-2.71288
H	2.91168	-1.13185	-3.41948
H	2.90586	-2.07577	-1.88093
H	3.62644	-0.423234	-1.92095
C	1117.46	-1.95351	1.52845
C	1118.86	-1.50825	1.37645
O	1119.73	-1.86867	2.16119
H	1117.37	-2.61048	2.42147
H	1117.14	-2.5247	0.631495
H	1116.79	-1.07651	1.66478
N	1119.12	-0.69602	0.348388
C	1120.43	-0.179497	0.0697092
C	1120.27	1.06112	-0.787646
O	1119.2	1.31793	-1.32963
H	1118.4	-0.386216	-0.266851
H	1120.9	0.120874	1.00038
C	1121.3	-1.22432	-0.663309
H	1120.82	-1.53073	-1.61729
H	1122.32	-0.829932	-0.879299
H	1121.41	-2.12861	-0.0254324
N	1121.34	1.87493	-0.912519
C	1121.28	3.08487	-1.699
H	1122.2	1.65346	-0.460299
H	1122.26	3.61559	-1.67996
H	1120.5	3.77332	-1.30129
H	1121.03	2.85248	-2.75896
