44
  This energy is 5.8359e-320 and Call times are: 114225
C	-1.41912	-1.26678	-2.91676
C	-1.29418	-1.22346	-1.44241
O	-2.06182	-1.84875	-0.723906
H	-2.27697	-1.91736	-3.19371
H	-0.493102	-1.68207	-3.36714
H	-1.59844	-0.246267	-3.31595
N	-0.309941	-0.465956	-0.952693
C	-0.0619036	-0.323808	0.459787
C	0.731023	0.95187	0.667518
O	1.26214	1.52364	-0.282652
H	0.290608	0.0617274	-1.54753
H	-1.0081	-0.210324	0.973515
C	0.721355	-1.53302	1.01784
H	1.69118	-1.6469	0.488128
H	0.913919	-1.42689	2.10523
H	0.130481	-2.46126	0.858492
N	0.810891	1.44119	1.92059
C	1.53433	2.65677	2.21242
H	0.368217	0.967772	2.67501
H	1.48528	2.89251	3.29837
H	1.104	3.51529	1.64763
H	2.60555	2.55564	1.92354
C	5412.57	0.97913	1.0441
C	5411.59	-0.0622178	0.675813
O	5411.92	-1.23541	0.568666
H	5413.57	0.508777	1.17932
H	5412.28	1.46891	1.99489
H	5412.64	1.74275	0.240877
N	5410.34	0.353346	0.465089
C	5409.27	-0.540907	0.100634
C	5408.17	0.282579	-0.550138
O	5408.17	1.50913	-0.464084
H	5410.09	1.316	0.527036
H	5409.63	-1.24419	-0.636995
C	5408.71	-1.28399	1.33531
H	5408.34	-0.559488	2.09027
H	5407.89	-1.97351	1.05824
H	5409.52	-1.88251	1.80361
N	5407.22	-0.376496	-1.23889
C	5406.15	0.324573	-1.90175
H	5407.24	-1.36882	-1.30292
H	5405.47	-0.391803	-2.41155
H	5406.55	1.02925	-2.6651
H	5405.55	0.913996	-1.16806
