44
  This energy is 1.4486e-319 and Call times are: 36063
C	2.26402	-0.282533	-2.63068
C	1.08336	-0.755075	-1.8731
O	0.388461	-1.67087	-2.29135
H	2.36234	-0.876221	-3.56542
H	3.18487	-0.412313	-2.02404
H	2.14472	0.788978	-2.89635
N	0.824398	-0.124944	-0.724955
C	-0.288401	-0.470979	0.122845
C	-0.5854	0.721169	1.01156
O	0.21904	1.64552	1.11295
H	1.38104	0.638936	-0.409393
H	-1.16015	-0.646123	-0.494773
C	0.0274568	-1.7122	0.986967
H	0.922692	-1.5293	1.6188
H	-0.827335	-1.9815	1.64087
H	0.244371	-2.57817	0.32425
N	-1.76523	0.73704	1.66252
C	-2.13961	1.83625	2.52144
H	-2.40585	-0.0170917	1.56187
H	-3.14411	1.66296	2.96665
H	-2.17061	2.79055	1.94733
H	-1.40458	1.95558	3.35009
C	1713.06	-2.21486	2.60895
C	1713.84	-1.11788	1.99583
O	1714.7	-0.526135	2.62899
H	1713.39	-2.35936	3.66017
H	1713.22	-3.15952	2.04822
H	1711.98	-1.9628	2.60459
N	1713.54	-0.814952	0.729549
C	1714.22	0.227385	-0.00235099
C	1713.32	0.64118	-1.15461
O	1712.36	-0.050343	-1.48318
H	1712.82	-1.28488	0.233828
H	1714.34	1.08745	0.643487
C	1715.58	-0.254907	-0.537558
H	1715.45	-1.13772	-1.19919
H	1716.11	0.545278	-1.10149
H	1716.23	-0.556222	0.31607
N	1713.61	1.79788	-1.78401
C	1712.81	2.27822	-2.88426
H	1714.39	2.34694	-1.49865
H	1713.2	3.24362	-3.26868
H	1711.75	2.43647	-2.56129
H	1712.8	1.54195	-3.72037
