44
  This energy is 6.38333e-321 and Call times are: 92679
C	0.106834	3.29973	1.10746
C	0.127916	2.28806	0.0270587
O	0.0989593	2.61919	-1.15023
H	0.05686	4.31552	0.658532
H	1.02885	3.22314	1.72134
H	-0.782028	3.14915	1.75569
N	0.173723	1.01047	0.4118
C	0.199592	-0.0866756	-0.522243
C	-0.269084	-1.33068	0.207164
O	-0.347396	-1.34797	1.43411
H	0.167511	0.752573	1.37429
H	-0.505718	0.112826	-1.31899
C	1.6189	-0.307533	-1.09138
H	2.34001	-0.511275	-0.271256
H	1.64238	-1.1515	-1.81106
H	1.95111	0.61118	-1.62217
N	-0.614195	-2.39934	-0.537721
C	-1.08316	-3.62346	0.0687354
H	-0.550655	-2.36323	-1.52963
H	-1.31438	-4.38423	-0.709094
H	-2.00684	-3.43847	0.663566
H	-0.310785	-4.04445	0.752397
C	4390	3.27	-0.474855
C	4390.25	1.81286	-0.392092
O	4391.34	1.33919	-0.677179
H	4390.92	3.78015	-0.822877
H	4389.72	3.66855	0.524038
H	4389.18	3.47914	-1.1951
N	4389.22	1.05831	0.00141076
C	4389.3	-0.374415	0.130812
C	4387.89	-0.932625	0.0753036
O	4386.92	-0.192361	0.193699
H	4388.32	1.45303	0.202837
H	4389.85	-0.772096	-0.715888
C	4389.98	-0.77955	1.45763
H	4389.42	-0.369359	2.32411
H	4390.05	-1.88209	1.56044
H	4391.01	-0.363596	1.48647
N	4387.75	-2.25724	-0.129216
C	4386.45	-2.87615	-0.208531
H	4388.56	-2.8384	-0.229737
H	4386.55	-3.97132	-0.378518
H	4385.86	-2.44121	-1.04668
H	4385.88	-2.7157	0.735426
