44
  This energy is 8.55326e-320 and Call times are: 45723
C	-0.670736	-1.93378	2.81722
C	-0.0156654	-1.72751	1.50591
O	0.798474	-2.53098	1.07219
H	-0.293001	-2.87502	3.27247
H	-1.77051	-2.01365	2.68712
H	-0.43985	-1.08741	3.49789
N	-0.359063	-0.623337	0.838646
C	0.192005	-0.28521	-0.449307
C	0.00760383	1.20529	-0.658218
O	-0.745559	1.85314	0.0662604
H	-1.00173	0.0382302	1.21581
H	1.25561	-0.487087	-0.440932
C	-0.504438	-1.07073	-1.5829
H	-1.59551	-0.861812	-1.58816
H	-0.0824414	-0.812892	-2.57598
H	-0.363048	-2.16108	-1.41766
N	0.712751	1.78991	-1.64664
C	0.610696	3.206	-1.91208
H	1.32242	1.2498	-2.21745
H	1.2655	3.49467	-2.76363
H	0.917344	3.79634	-1.01837
H	-0.437876	3.48373	-2.16614
C	2172.82	1.15046	2.10537
C	2172.28	0.164849	1.14506
O	2172.97	-0.743656	0.708646
H	2173.89	0.910571	2.31243
H	2172.26	1.11152	3.05815
H	2172.76	2.17423	1.67991
N	2171	0.330217	0.785563
C	2170.33	-0.547323	-0.139657
C	2169.14	0.197231	-0.705395
O	2168.74	1.23749	-0.183698
H	2170.46	1.09137	1.1257
H	2171	-0.770005	-0.961591
C	2169.87	-1.84714	0.554293
H	2169.18	-1.61496	1.3974
H	2169.35	-2.52519	-0.155296
H	2170.75	-2.3826	0.965425
N	2168.55	-0.310509	-1.80587
C	2167.41	0.3362	-2.42178
H	2168.89	-1.14953	-2.21743
H	2167.07	-0.234695	-3.31305
H	2167.68	1.36837	-2.7471
H	2166.56	0.40747	-1.70395
