44
  This energy is 1.54494e-319 and Call times are: 117921
C	-1.57975	-0.0866863	3.10209
C	-1.4993	0.364507	1.69456
O	-2.41911	0.980767	1.1743
H	-2.55861	0.219918	3.53069
H	-0.76554	0.375357	3.69908
H	-1.49474	-1.19254	3.15512
N	-0.379535	0.0563434	1.03614
C	-0.153783	0.426717	-0.338158
C	0.914637	-0.491695	-0.898725
O	1.60018	-1.18771	-0.152115
H	0.350446	-0.471411	1.46221
H	-1.06226	0.25713	-0.902062
C	0.296253	1.89996	-0.457038
H	1.22811	2.07056	0.123181
H	0.470819	2.18852	-1.51394
H	-0.494382	2.56235	-0.041972
N	1.06617	-0.530498	-2.23721
C	2.04983	-1.38395	-2.86187
H	0.496837	0.0349857	-2.82485
H	2.02118	-1.2727	-3.96824
H	1.85816	-2.45263	-2.61201
H	3.07475	-1.12554	-2.50984
C	5584.08	-1.98946	2.53301
C	5585.21	-1.29804	1.8792
O	5586.31	-1.24433	2.41165
H	5584.41	-2.39752	3.51177
H	5583.72	-2.82715	1.89682
H	5583.24	-1.27738	2.70611
N	5584.96	-0.739785	0.692613
C	5585.96	-0.0330736	-0.0656639
C	5585.25	0.879954	-1.04318
O	5584.05	0.744917	-1.26651
H	5584.05	-0.76531	0.28273
H	5586.54	0.59057	0.60665
C	5586.88	-1.01053	-0.828211
H	5586.29	-1.64921	-1.5165
H	5587.66	-0.469694	-1.41302
H	5587.4	-1.67451	-0.101133
N	5585.97	1.85042	-1.63515
C	5585.37	2.77438	-2.5709
H	5586.94	1.94792	-1.43588
H	5586.13	3.49542	-2.94957
H	5584.55	3.35078	-2.08464
H	5584.94	2.22869	-3.44148
