44
  This energy is 1.15157e-319 and Call times are: 65253
C	-2.08348	0.778215	2.67949
C	-1.86041	0.249931	1.3148
O	-2.76181	-0.294212	0.691992
H	-3.1358	0.584311	2.98093
H	-1.89951	1.87299	2.70073
H	-1.4047	0.275585	3.4003
N	-0.630882	0.396706	0.81573
C	-0.260295	-0.0652741	-0.498069
C	1.24809	-0.216795	-0.530372
O	1.94801	0.27166	0.354701
H	0.102579	0.815711	1.34432
H	-0.6928	-1.04415	-0.661815
C	-0.71836	0.924588	-1.59236
H	-0.273345	1.92793	-1.42092
H	-0.434748	0.571861	-2.60524
H	-1.82484	1.02772	-1.55743
N	1.784	-0.920688	-1.54691
C	3.20947	-1.1274	-1.65399
H	1.20024	-1.31417	-2.24949
H	3.45288	-1.72843	-2.55774
H	3.59649	-1.66712	-0.759466
H	3.74365	-0.152455	-1.72686
C	3091.55	-1.24859	-0.144017
C	3092.98	-1.37439	0.226502
O	3093.38	-2.3191	0.893079
H	3090.99	-2.10669	0.278967
H	3091.44	-1.25475	-1.24881
H	3091.13	-0.30497	0.263879
N	3093.79	-0.403913	-0.200617
C	3095.2	-0.387104	0.0792656
C	3095.69	1.03951	-0.0780053
O	3094.99	1.88657	-0.630366
H	3093.45	0.375575	-0.718186
H	3095.36	-0.677258	1.11024
C	3095.98	-1.32247	-0.876472
H	3095.81	-1.02235	-1.93329
H	3097.07	-1.31205	-0.663633
H	3095.61	-2.36412	-0.752449
N	3096.91	1.3441	0.426935
C	3097.45	2.67926	0.334709
H	3097.45	0.64633	0.876669
H	3098.46	2.72787	0.806231
H	3096.78	3.41013	0.850248
H	3097.55	2.99173	-0.730311
