44
  This energy is 1.05582e-319 and Call times are: 58701
C	-0.17112	2.05553	2.80565
C	-0.30692	1.82675	1.34948
O	-0.77516	2.68583	0.615165
H	-0.554625	3.06859	3.05561
H	0.896132	1.99134	3.1051
H	-0.758701	1.29985	3.36837
N	0.101772	0.639814	0.895032
C	0.0336951	0.269841	-0.496123
C	0.0695539	-1.24385	-0.577957
O	0.39468	-1.91855	0.397184
H	0.454424	-0.0626145	1.50754
H	-0.91465	0.598811	-0.9017
C	1.20929	0.873171	-1.2968
H	2.18061	0.534156	-0.877626
H	1.15987	0.590393	-2.36842
H	1.17244	1.98225	-1.22797
N	-0.287261	-1.81539	-1.74502
C	-0.294976	-3.24997	-1.91262
H	-0.554097	-1.25246	-2.52035
H	-0.615175	-3.52391	-2.94203
H	-0.995724	-3.72627	-1.1892
H	0.72126	-3.67163	-1.73756
C	2782.3	2.13458	2.47515
C	2782.32	0.827287	1.78103
O	2781.7	-0.130443	2.21794
H	2781.67	2.05717	3.38601
H	2781.88	2.91514	1.80873
H	2783.33	2.4242	2.77573
N	2783.05	0.757851	0.668281
C	2783.17	-0.444913	-0.116793
C	2784.43	-0.333706	-0.953613
O	2785.01	0.744647	-1.08105
H	2783.58	1.53694	0.338517
H	2783.29	-1.28955	0.549509
C	2781.94	-0.642307	-1.03122
H	2781.82	0.226307	-1.71298
H	2782.03	-1.5676	-1.63703
H	2781.02	-0.72115	-0.406315
N	2784.9	-1.45829	-1.52862
C	2786.1	-1.45128	-2.3333
H	2784.42	-2.32258	-1.40775
H	2786.32	-2.47097	-2.71899
H	2786.97	-1.10672	-1.73359
H	2785.99	-0.764465	-3.20303
