44
  This energy is 1.15898e-319 and Call times are: 5235
C	1.58964	3.04823	-0.554505
C	0.50713	2.23456	0.0432589
O	-0.288088	2.72287	0.834255
H	1.52894	4.0862	-0.161064
H	1.48199	3.07583	-1.65925
H	2.58	2.62114	-0.290481
N	0.457096	0.952136	-0.324505
C	-0.538176	0.03518	0.170928
C	-0.00842451	-1.37321	-0.0162884
O	0.966395	-1.58787	-0.734257
H	1.12838	0.559076	-0.94726
H	-0.669613	0.198704	1.23303
C	-1.87929	0.202249	-0.577818
H	-1.74066	0.0344664	-1.6672
H	-2.64794	-0.502195	-0.198728
H	-2.25616	1.23829	-0.433831
N	-0.629676	-2.36809	0.647234
C	-0.188241	-3.73911	0.539497
H	-1.41244	-2.17309	1.22903
H	-0.827234	-4.40769	1.15751
H	0.865193	-3.84117	0.887495
H	-0.237626	-4.086	-0.518052
C	257.02	-0.57008	-3.43057
C	256.728	0.243808	-2.22927
O	256.225	1.35486	-2.32509
H	256.72	-0.00443963	-4.33942
H	256.45	-1.52234	-3.39566
H	258.107	-0.791794	-3.48742
N	257.047	-0.299596	-1.05249
C	256.823	0.369415	0.204106
C	257.74	-0.258016	1.236
O	258.309	-1.3235	1.00621
H	257.483	-1.19339	-0.989273
H	257.104	1.41008	0.103719
C	255.351	0.242061	0.654409
H	255.066	-0.826817	0.755742
H	255.175	0.756214	1.62158
H	254.689	0.704311	-0.110405
N	257.922	0.40406	2.39557
C	258.786	-0.110574	3.43204
H	257.458	1.26846	2.55973
H	258.803	0.575809	4.30718
H	259.829	-0.222437	3.0548
H	258.435	-1.10997	3.77672
