44
  This energy is 9.60217e-320 and Call times are: 64455
C	-2.97532	-1.67311	0.688679
C	-1.90001	-1.25875	-0.240416
O	-1.84224	-1.70214	-1.37908
H	-3.64085	-2.40272	0.178186
H	-3.57672	-0.791563	0.995312
H	-2.53886	-2.15385	1.58942
N	-1.00692	-0.388542	0.236536
C	0.0958608	0.108268	-0.54697
C	1.1533	0.622462	0.410458
O	0.891049	0.804529	1.59785
H	-1.04807	-0.0570073	1.17533
H	0.528617	-0.712158	-1.10527
C	-0.354523	1.23926	-1.49835
H	-0.798594	2.07898	-0.922336
H	0.492137	1.62401	-2.10326
H	-1.12992	0.850172	-2.1937
N	2.38662	0.848749	-0.0832264
C	3.4603	1.32753	0.755904
H	2.58086	0.68854	-1.04543
H	4.39471	1.45291	0.165639
H	3.66223	0.609481	1.58347
H	3.19683	2.31082	1.20856
C	3056.74	2.96957	1.81781
C	3057.02	1.52123	1.69939
O	3057.6	0.913185	2.59306
H	3057.13	3.34119	2.79056
H	3055.65	3.15092	1.77588
H	3057.24	3.52508	0.99551
N	3056.63	0.929866	0.570741
C	3056.83	-0.472771	0.309453
C	3056.75	-0.683523	-1.19008
O	3056.3	0.193329	-1.9253
H	3056.19	1.44214	-0.162212
H	3057.83	-0.749544	0.628578
C	3055.77	-1.33749	1.02404
H	3054.74	-1.05045	0.694824
H	3055.92	-2.41809	0.825109
H	3055.83	-1.17319	2.1216
N	3057.21	-1.85102	-1.68222
C	3057.19	-2.1357	-3.09805
H	3057.58	-2.54514	-1.07164
H	3057.6	-3.14578	-3.30311
H	3057.79	-1.38599	-3.65968
H	3056.14	-2.10213	-3.48834
