44
  This energy is 4.59382e-320 and Call times are: 56433
C	-0.609547	3.42849	0.006537
C	-0.399058	2.14525	-0.7007
O	-0.548823	2.05844	-1.9117
H	-0.908437	4.20782	-0.727745
H	0.328585	3.74763	0.507417
H	-1.41437	3.32072	0.763893
N	-0.0466967	1.10254	0.0549324
C	0.193723	-0.210522	-0.488097
C	0.051378	-1.21426	0.639506
O	0.0267934	-0.843615	1.81162
H	0.0437377	1.17924	1.04431
H	-0.568915	-0.432041	-1.22389
C	1.60267	-0.31101	-1.1141
H	2.38256	-0.0825054	-0.356687
H	1.79105	-1.32073	-1.53333
H	1.69458	0.430006	-1.93787
N	-0.0682031	-2.51478	0.307332
C	-0.220158	-3.54058	1.31273
H	-0.0531821	-2.79396	-0.647167
H	-0.300837	-4.54468	0.841006
H	-1.13785	-3.36348	1.91913
H	0.654088	-3.54673	2.00327
C	2677.67	-1.47031	2.29516
C	2677.08	-1.36984	0.940821
O	2677.52	-2.03194	0.00997468
H	2678.51	-2.19679	2.27685
H	2676.9	-1.82341	3.01935
H	2678.05	-0.480981	2.61896
N	2676.06	-0.519792	0.799163
C	2675.38	-0.312875	-0.456385
C	2674.68	1.02885	-0.39106
O	2674.53	1.61106	0.682199
H	2675.73	0.0355033	1.55851
H	2676.12	-0.260042	-1.24827
C	2674.36	-1.43617	-0.735767
H	2673.61	-1.48799	0.0788889
H	2673.84	-1.28003	-1.70184
H	2674.89	-2.41385	-0.780052
N	2674.24	1.56289	-1.54881
C	2673.57	2.8418	-1.58579
H	2674.38	1.07955	-2.40783
H	2673.29	3.10743	-2.62818
H	2674.23	3.64412	-1.18722
H	2672.65	2.81861	-0.966124
