44
  This energy is 9.65058e-320 and Call times are: 89865
C	-1.34808	1.13684	3.00273
C	-1.17189	1.23262	1.53611
O	-1.81828	2.03129	0.872185
H	-2.11978	1.86776	3.32846
H	-0.392765	1.36894	3.51879
H	-1.68019	0.114893	3.28252
N	-0.281189	0.401285	0.990306
C	0.000971654	0.37605	-0.422697
C	0.620646	-0.968582	-0.750119
O	1.03101	-1.70606	0.144063
H	0.217978	-0.264906	1.53799
H	-0.930761	0.450612	-0.968945
C	0.962889	1.51634	-0.824667
H	1.91744	1.43718	-0.261913
H	1.18216	1.49994	-1.91206
H	0.497896	2.49582	-0.578625
N	0.682804	-1.32902	-2.04712
C	1.2452	-2.59591	-2.4532
H	0.338862	-0.721412	-2.75546
H	1.2076	-2.70636	-3.55938
H	0.68007	-3.44085	-1.9972
H	2.30792	-2.6763	-2.12864
C	4257.81	1.8473	2.59306
C	4257.1	1.75445	1.29562
O	4256.65	2.75125	0.747895
H	4257.83	2.90811	2.92491
H	4258.85	1.48349	2.48722
H	4257.28	1.24101	3.35999
N	4256.99	0.532486	0.771119
C	4256.32	0.281738	-0.484788
C	4255.92	-1.17896	-0.514212
O	4256.38	-1.97546	0.302371
H	4257.33	-0.275286	1.24119
H	4255.42	0.875379	-0.531339
C	4257.25	0.600275	-1.68056
H	4258.18	-0.00998203	-1.62929
H	4256.74	0.408452	-2.64919
H	4257.54	1.67277	-1.64691
N	4255.03	-1.56102	-1.44877
C	4254.57	-2.92867	-1.54536
H	4254.66	-0.900041	-2.09606
H	4253.84	-3.04275	-2.37679
H	4254.08	-3.2462	-0.598804
H	4255.43	-3.61507	-1.7344
