44
  This energy is 2.52863e-320 and Call times are: 86967
C	0.974085	3.25884	-0.746482
C	-0.0241582	2.27589	-0.268454
O	-1.08927	2.6385	0.21169
H	0.584687	4.28712	-0.582547
H	1.16364	3.11504	-1.83101
H	1.92568	3.14136	-0.186471
N	0.307881	0.988194	-0.386631
C	-0.558479	-0.0841252	0.0333447
C	0.296558	-1.31851	0.244175
O	1.45076	-1.36316	-0.177304
H	1.19074	0.70621	-0.752668
H	-1.00265	0.174991	0.986047
C	-1.65218	-0.369029	-1.02011
H	-1.19301	-0.633865	-1.99639
H	-2.32114	-1.19408	-0.699841
H	-2.27082	0.54315	-1.16628
N	-0.247	-2.3466	0.925037
C	0.495679	-3.55793	1.18442
H	-1.18017	-2.28841	1.26421
H	-0.123612	-4.28421	1.7556
H	1.41287	-3.33715	1.77709
H	0.809059	-4.03893	0.229628
C	4117.79	-2.18118	2.64621
C	4118.18	-0.855227	2.1152
O	4118.35	0.101291	2.86006
H	4117.69	-2.11782	3.75107
H	4118.57	-2.93423	2.40215
H	4116.82	-2.49874	2.21016
N	4118.34	-0.768001	0.791789
C	4118.71	0.454234	0.127249
C	4118.29	0.343084	-1.32539
O	4117.97	-0.741942	-1.80492
H	4118.17	-1.54721	0.192869
H	4118.16	1.27706	0.566672
C	4120.23	0.700942	0.222399
H	4120.8	-0.14539	-0.228721
H	4120.53	1.64133	-0.28814
H	4120.53	0.779283	1.29139
N	4118.27	1.47451	-2.05697
C	4117.87	1.46772	-3.44525
H	4118.52	2.34389	-1.64879
H	4117.91	2.49363	-3.87261
H	4116.83	1.08967	-3.55291
H	4118.54	0.808299	-4.04326
