44
  This energy is 1.41812e-319 and Call times are: 18297
C	-2.00103	-2.84934	-0.05718
C	-0.874827	-2.03916	-0.573407
O	-0.105814	-2.48719	-1.41268
H	-1.98815	-3.84861	-0.544181
H	-2.96675	-2.35103	-0.284934
H	-1.90451	-2.98339	1.04085
N	-0.748866	-0.809462	-0.0690946
C	0.296132	0.0973823	-0.472133
C	0.459228	1.13562	0.620888
O	-0.390324	1.26066	1.50092
H	-1.36441	-0.466518	0.635481
H	1.2272	-0.449886	-0.54755
C	-0.0430283	0.786232	-1.81287
H	-0.999089	1.34618	-1.73212
H	0.759591	1.48508	-2.12623
H	-0.161109	0.0149697	-2.60493
N	1.57317	1.89376	0.601711
C	1.81998	2.89971	1.60835
H	2.2523	1.77252	-0.11475
H	2.78637	3.41685	1.41886
H	1.86176	2.43923	2.62199
H	1.00815	3.66267	1.60894
C	870.395	2.14136	1.32629
C	871.533	1.86286	0.421257
O	871.903	2.68806	-0.402794
H	869.992	3.154	1.10811
H	870.731	2.10856	2.38414
H	869.59	1.39253	1.17087
N	872.119	0.670379	0.55422
C	873.237	0.25427	-0.253657
C	873.301	-1.26024	-0.21607
O	872.655	-1.89629	0.614307
H	871.79	-0.00455971	1.20942
H	873.06	0.550637	-1.27969
C	874.562	0.855094	0.267395
H	874.74	0.549597	1.32043
H	875.425	0.536837	-0.352478
H	874.502	1.96484	0.235897
N	874.071	-1.87637	-1.135
C	874.183	-3.31549	-1.18364
H	874.58	-1.34436	-1.80311
H	874.863	-3.62903	-2.00675
H	873.186	-3.78224	-1.35502
H	874.589	-3.71056	-0.224278
