44
  This energy is 8.86897e-320 and Call times are: 51939
C	-0.403489	2.72116	2.13509
C	0.21479	1.42292	1.78367
O	1.12539	0.954248	2.45273
H	0.0953147	3.13272	3.03934
H	-1.48386	2.58425	2.35158
H	-0.282799	3.44156	1.29878
N	-0.271922	0.807344	0.703603
C	0.226114	-0.461667	0.23627
C	-0.151878	-0.60076	-1.22558
O	-0.980772	0.151201	-1.73482
H	-0.994183	1.21334	0.150029
H	1.30699	-0.459705	0.297796
C	-0.365565	-1.63298	1.05178
H	-1.47458	-1.63158	0.987005
H	0.0159415	-2.61161	0.694661
H	-0.0825727	-1.51881	2.1209
N	0.467731	-1.55853	-1.94305
C	0.180905	-1.75734	-3.34462
H	1.1408	-2.15234	-1.51455
H	0.789669	-2.59247	-3.75598
H	0.410812	-0.835966	-3.92724
H	-0.895762	-2.00111	-3.49477
C	2466.04	1.39536	-1.787
C	2465.27	0.228544	-1.30387
O	2465.52	-0.902134	-1.69916
H	2466.81	1.05228	-2.51489
H	2466.55	1.8954	-0.936739
H	2465.37	2.11926	-2.29044
N	2464.3	0.483878	-0.427447
C	2463.46	-0.546675	0.132991
C	2462.19	0.108829	0.639376
O	2462.12	1.32989	0.765644
H	2464.08	1.41272	-0.135334
H	2463.18	-1.23966	-0.651099
C	2464.17	-1.28498	1.2875
H	2464.46	-0.570984	2.08982
H	2463.53	-2.07928	1.72123
H	2465.1	-1.75977	0.903884
N	2461.14	-0.691525	0.921838
C	2459.89	-0.155787	1.3981
H	2461.22	-1.67662	0.806319
H	2459.15	-0.972099	1.5748
H	2459.46	0.550697	0.653627
H	2460.04	0.397125	2.35412
