44
  This energy is 1.4109e-319 and Call times are: 12249
C	-2.27139	0.936703	2.46769
C	-1.30042	-0.0178984	1.88703
O	-0.952229	-1.01756	2.50017
H	-2.57411	0.584038	3.47757
H	-3.17412	1.00289	1.82464
H	-1.81021	1.94242	2.56151
N	-0.830729	0.278745	0.673048
C	0.119192	-0.552621	-0.0221566
C	0.805753	0.300966	-1.07061
O	0.352032	1.40065	-1.38153
H	-1.09998	1.11117	0.196072
H	0.875039	-0.884601	0.678242
C	-0.574144	-1.76044	-0.691161
H	-1.34939	-1.41625	-1.40855
H	0.154425	-2.40278	-1.22723
H	-1.07423	-2.37702	0.0872243
N	1.93502	-0.180077	-1.6268
C	2.6636	0.567586	-2.62498
H	2.2901	-1.06899	-1.35666
H	3.56187	0.0039028	-2.96057
H	2.99804	1.54804	-2.21498
H	2.02173	0.765869	-3.51373
C	590.603	1.97452	-0.608002
C	589.595	1.39112	0.305934
O	589.693	1.51723	1.51879
H	591.386	2.48978	-0.0104423
H	590.124	2.7127	-1.28491
H	591.08	1.17463	-1.21242
N	588.591	0.723473	-0.267028
C	587.535	0.100504	0.489447
C	586.9	-0.963262	-0.38524
O	587.126	-1.00038	-1.59338
H	588.538	0.602852	-1.25475
H	587.964	-0.395029	1.35106
C	586.471	1.13294	0.926091
H	586.034	1.63987	0.0397596
H	585.656	0.656649	1.50893
H	586.949	1.90728	1.56518
N	586.104	-1.87128	0.212886
C	585.466	-2.92786	-0.537502
H	585.94	-1.82865	1.19288
H	584.852	-3.56985	0.131624
H	586.228	-3.56978	-1.03698
H	584.801	-2.50465	-1.32488
