44
  This energy is 9.17134e-320 and Call times are: 10359
C	-0.761846	-1.59231	-3.00171
C	-0.905102	-1.43974	-1.53631
O	-1.7304	-2.09048	-0.910275
H	-1.4965	-2.34274	-3.3664
H	0.262219	-1.94102	-3.25174
H	-0.956095	-0.623519	-3.50831
N	-0.0937276	-0.556449	-0.949938
C	-0.113994	-0.29744	0.467571
C	0.514562	1.06246	0.701743
O	1.15387	1.62102	-0.187705
H	0.554371	-0.0112816	-1.47501
H	-1.14265	-0.246217	0.801224
C	0.660536	-1.38233	1.24874
H	1.71522	-1.43262	0.903461
H	0.646804	-1.18605	2.34056
H	0.190996	-2.37379	1.06793
N	0.327365	1.6387	1.90545
C	0.878136	2.93748	2.21529
H	-0.199093	1.1738	2.60968
H	0.616476	3.23801	3.25378
H	0.481454	3.7093	1.5166
H	1.98831	2.9259	2.12273
C	498.742	-2.45717	-2.28064
C	498.495	-1.04321	-1.91843
O	498.787	-0.134223	-2.68343
H	499.207	-2.50223	-3.28944
H	497.785	-3.01937	-2.30072
H	499.43	-2.92611	-1.54637
N	497.949	-0.824618	-0.720174
C	497.649	0.49588	-0.226863
C	497.548	0.416947	1.28402
O	497.462	-0.669986	1.85231
H	497.743	-1.57193	-0.0940956
H	498.473	1.1565	-0.467318
C	496.327	1.03165	-0.820615
H	495.485	0.351185	-0.572602
H	496.094	2.0483	-0.442981
H	496.414	1.08359	-1.92784
N	497.579	1.57418	1.97386
C	497.5	1.59655	3.41591
H	497.656	2.44309	1.49613
H	497.539	2.64128	3.79571
H	498.347	1.02866	3.86437
H	496.55	1.13181	3.76504
