44
  This energy is 6.87245e-321 and Call times are: 61053
C	2.45639	-2.32991	-0.814731
C	1.4268	-1.79057	0.10193
O	1.09971	-2.39694	1.11278
H	2.82019	-3.30551	-0.425204
H	3.31385	-1.62778	-0.882547
H	2.02514	-2.485	-1.82612
N	0.881146	-0.621443	-0.241231
C	-0.13263	0.0299684	0.54918
C	-0.870844	1.00265	-0.349807
O	-0.415444	1.31208	-1.44921
H	1.13519	-0.151446	-1.08236
H	-0.84551	-0.71134	0.887316
C	0.486013	0.780686	1.74952
H	1.21734	1.53993	1.39905
H	-0.291833	1.2833	2.36036
H	1.02485	0.0573895	2.39963
N	-2.04616	1.4927	0.0911944
C	-2.82515	2.41542	-0.701237
H	-2.40133	1.22462	0.9807
H	-3.75668	2.704	-0.166243
H	-3.10874	1.95461	-1.67513
H	-2.2419	3.34051	-0.913839
C	2895.82	0.693035	3.2577
C	2894.98	-0.0492602	2.2838
O	2894.28	-0.986981	2.63655
H	2895.68	0.251174	4.26872
H	2895.51	1.75985	3.28767
H	2896.89	0.624352	2.97651
N	2895.05	0.358432	1.0143
C	2894.3	-0.263572	-0.0472064
C	2894.98	0.0730645	-1.35905
O	2895.83	0.958631	-1.41598
H	2895.65	1.10496	0.734708
H	2894.34	-1.3383	0.0774
C	2892.84	0.231812	-0.0666406
H	2892.8	1.33481	-0.193944
H	2892.26	-0.245245	-0.882702
H	2892.35	-0.0197517	0.900163
N	2894.64	-0.645697	-2.44544
C	2895.24	-0.404251	-3.73465
H	2893.95	-1.36295	-2.37744
H	2894.83	-1.09524	-4.50018
H	2896.35	-0.558386	-3.68651
H	2895.06	0.642253	-4.06727
