44
  This energy is 2.38238e-320 and Call times are: 68193
C	-1.15522	-3.28498	0.0222067
C	-1.38568	-1.82467	-0.0525557
O	-2.49464	-1.37115	-0.299589
H	-2.10918	-3.81826	-0.181328
H	-0.79645	-3.5643	1.03517
H	-0.402821	-3.59306	-0.734058
N	-0.322445	-1.04503	0.157318
C	-0.388459	0.394042	0.117974
C	1.01354	0.918296	-0.124513
O	1.9903	0.181917	7.1476e-05
H	0.58174	-1.42707	0.328868
H	-1.00207	0.695302	-0.721547
C	-0.949185	0.967719	1.43843
H	-0.317678	0.656166	2.29764
H	-1.00151	2.07556	1.41149
H	-1.97599	0.575241	1.60512
N	1.14314	2.20599	-0.500071
C	2.43772	2.78936	-0.764492
H	0.340054	2.78378	-0.602335
H	2.33525	3.85734	-1.05803
H	2.9519	2.24663	-1.59052
H	3.08558	2.73491	0.140212
C	3234.04	-0.312441	-3.44995
C	3234.52	0.414038	-2.2509
O	3235.23	1.40431	-2.35176
H	3234.44	0.184656	-4.36175
H	3232.93	-0.301994	-3.48892
H	3234.4	-1.36299	-3.42833
N	3234.13	-0.0750255	-1.06988
C	3234.52	0.521967	0.185193
C	3234.37	-0.531223	1.26601
O	3233.75	-1.57234	1.04898
H	3233.58	-0.89944	-1.00011
H	3235.56	0.801476	0.139006
C	3233.64	1.74855	0.514743
H	3232.56	1.45835	0.560688
H	3233.93	2.21076	1.48044
H	3233.75	2.51212	-0.284999
N	3234.95	-0.292222	2.45597
C	3234.88	-1.24279	3.54069
H	3235.45	0.553105	2.60969
H	3235.42	-0.863896	4.43501
H	3235.33	-2.21635	3.24295
H	3233.81	-1.42805	3.82605
