44
  This energy is 3.64126e-321 and Call times are: 60927
C	2.36991	-0.717988	2.44829
C	1.91187	-0.716987	1.04067
O	2.66146	-1.04517	0.131329
H	3.43284	-1.04116	2.48842
H	1.75726	-1.42231	3.04946
H	2.28805	0.30248	2.87828
N	0.650305	-0.3355	0.827856
C	0.0606211	-0.283133	-0.486053
C	-1.1328	0.650225	-0.424259
O	-1.59604	1.00752	0.657214
H	0.0585204	-0.0425628	1.57412
H	0.776878	0.144015	-1.17641
C	-0.385135	-1.68489	-0.958821
H	-1.11938	-2.12041	-0.247962
H	-0.839496	-1.64823	-1.97025
H	0.497841	-2.35935	-0.998716
N	-1.64673	1.08589	-1.59134
C	-2.77541	1.98629	-1.63071
H	-1.25328	0.790992	-2.4559
H	-3.05034	2.22653	-2.6814
H	-2.5367	2.93877	-1.10436
H	-3.66065	1.52892	-1.13237
C	2890.84	0.0144085	2.82528
C	2890.31	-0.633316	1.60154
O	2890.78	-1.68543	1.19184
H	2891.67	-0.598396	3.23866
H	2890.03	0.0945038	3.58883
H	2891.22	1.02805	2.58692
N	2889.31	-0.00404484	0.97866
C	2888.7	-0.510064	-0.222915
C	2888.01	0.649177	-0.91953
O	2887.83	1.71374	-0.333088
H	2888.96	0.867403	1.30611
H	2889.47	-0.880319	-0.884092
C	2887.67	-1.62098	0.0944632
H	2886.88	-1.2379	0.773487
H	2887.2	-2.01296	-0.828533
H	2888.19	-2.46373	0.605578
N	2887.64	0.474759	-2.20241
C	2886.99	1.52659	-2.9501
H	2887.81	-0.391727	-2.66169
H	2886.76	1.1892	-3.98473
H	2887.65	2.42579	-3.01221
H	2886.04	1.8273	-2.45898
