44
  This energy is 2.86212e-320 and Call times are: 68403
C	-1.65206	-1.33779	-2.75811
C	-1.6431	-0.570134	-1.49247
O	-2.63934	0.0262418	-1.10733
H	-2.65443	-1.25388	-3.23147
H	-1.43787	-2.40864	-2.55756
H	-0.889684	-0.933189	-3.4567
N	-0.495326	-0.564247	-0.810605
C	-0.331318	0.137026	0.437652
C	1.15192	0.369846	0.649863
O	1.98538	-0.22766	-0.0284917
H	0.317837	-1.02993	-1.14949
H	-0.80888	1.10571	0.362414
C	-0.916495	-0.670595	1.61767
H	-0.424795	-1.66402	1.69151
H	-0.792032	-0.133436	2.58034
H	-2.00311	-0.835446	1.44962
N	1.51605	1.26609	1.58803
C	2.90498	1.56185	1.85179
H	0.826442	1.74459	2.12162
H	2.99887	2.32222	2.65818
H	3.40294	1.9577	0.937133
H	3.44875	0.643317	2.17083
C	3242.11	-0.259986	2.60645
C	3243.39	-0.622709	1.95871
O	3244.22	-1.31028	2.53814
H	3242.07	-0.698126	3.62766
H	3241.25	-0.6583	2.01757
H	3242.02	0.843907	2.686
N	3243.58	-0.154685	0.723401
C	3244.77	-0.422557	-0.0359202
C	3244.89	0.639811	-1.11158
O	3243.94	1.36778	-1.38196
H	3242.91	0.428646	0.273241
H	3245.63	-0.326849	0.615384
C	3244.73	-1.82679	-0.67875
H	3243.85	-1.92173	-1.34574
H	3245.65	-2.03638	-1.26405
H	3244.64	-2.59586	0.119487
N	3246.08	0.767548	-1.73812
C	3246.29	1.75932	-2.76735
H	3246.84	0.173684	-1.5001
H	3247.32	1.70528	-3.16134
H	3246.12	2.7844	-2.36515
H	3245.58	1.60009	-3.61493
