44
  This energy is 2.91598e-320 and Call times are: 31821
C	1.33332	2.55928	-1.94896
C	1.45841	1.27357	-1.22612
O	2.47343	0.596111	-1.3114
H	2.26326	2.74675	-2.52857
H	1.18549	3.39068	-1.22803
H	0.473742	2.52184	-2.65086
N	0.407766	0.901905	-0.491017
C	0.379359	-0.322142	0.26907
C	-1.07204	-0.674166	0.531283
O	-1.96317	0.15173	0.34254
H	-0.424628	1.44835	-0.452855
H	0.807955	-1.11708	-0.327965
C	1.13947	-0.171982	1.60578
H	0.697578	0.644812	2.21545
H	1.1197	-1.11272	2.1935
H	2.20094	0.0870298	1.40004
N	-1.3455	-1.92402	0.954471
C	-2.69912	-2.35317	1.21851
H	-0.611142	-2.58004	1.09441
H	-2.71665	-3.41202	1.55878
H	-3.32393	-2.26988	0.299857
H	-3.16398	-1.72252	2.01057
C	1509.27	-2.19179	1.1896
C	1510.36	-1.84053	0.249107
O	1510.8	-2.66165	-0.543352
H	1508.98	-3.2541	1.0361
H	1508.38	-1.54797	1.00735
H	1509.61	-2.06048	2.23758
N	1510.82	-0.59211	0.322575
C	1511.88	-0.101702	-0.526296
C	1512.5	1.1088	0.148154
O	1511.93	1.65781	1.09202
H	1510.48	0.0588461	0.992274
H	1512.65	-0.860243	-0.605765
C	1511.35	0.283317	-1.92387
H	1510.56	1.06118	-1.83857
H	1512.16	0.661193	-2.58012
H	1510.9	-0.611586	-2.40689
N	1513.69	1.54124	-0.310022
C	1514.36	2.67905	0.277806
H	1514.13	1.07914	-1.07019
H	1515.32	2.87857	-0.23838
H	1514.57	2.49678	1.35651
H	1513.72	3.59118	0.199376
