44
  This energy is 1.42973e-319 and Call times are: 91713
C	2.85618	0.402568	1.95098
C	1.90532	0.879185	0.921456
O	1.98327	2.01106	0.46398
H	3.57326	1.21667	2.19366
H	3.42255	-0.47407	1.57211
H	2.30951	0.11798	2.87462
N	0.967554	0.0118009	0.533388
C	-0.0276616	0.328924	-0.45949
C	-1.18985	-0.627636	-0.276332
O	-1.07282	-1.63243	0.422616
H	0.896591	-0.897497	0.934732
H	-0.395525	1.33142	-0.281275
C	0.544044	0.202707	-1.88929
H	0.921129	-0.826766	-2.06848
H	-0.219595	0.446343	-2.65628
H	1.39534	0.907553	-2.01028
N	-2.35204	-0.323413	-0.886885
C	-3.51622	-1.16884	-0.759917
H	-2.42884	0.497991	-1.44243
H	-4.37074	-0.750493	-1.33613
H	-3.82303	-1.25725	0.307458
H	-3.30223	-2.19265	-1.14357
C	4347.56	-1.03101	-1.04873
C	4346.67	-0.150426	-0.251757
O	4347.13	0.63498	0.565469
H	4348.61	-0.844237	-0.764067
H	4347.43	-0.818361	-2.13145
H	4347.31	-2.09647	-0.851511
N	4345.36	-0.269237	-0.472736
C	4344.38	0.518793	0.224523
C	4343.05	-0.206623	0.131431
O	4342.89	-1.13225	-0.662662
H	4345	-0.933386	-1.12021
H	4344.65	0.57528	1.27108
C	4344.25	1.93306	-0.385217
H	4343.98	1.87136	-1.45906
H	4343.5	2.54258	0.149388
H	4345.23	2.45351	-0.311959
N	4342.06	0.185822	0.96184
C	4340.77	-0.45425	0.95304
H	4342.21	0.932161	1.60229
H	4340.09	0.0112835	1.7056
H	4340.86	-1.53828	1.19158
H	4340.29	-0.362284	-0.0494908
