44
  This energy is 1.37795e-319 and Call times are: 6075
C	1.98604	2.78155	-0.666888
C	0.953046	2.08028	0.12831
O	0.511557	2.56598	1.16062
H	2.24707	3.73945	-0.166734
H	1.60147	3.00097	-1.68511
H	2.90001	2.15575	-0.744197
N	0.543621	0.899418	-0.341065
C	-0.455325	0.0989548	0.320895
C	-0.297152	-1.33168	-0.156077
O	0.389517	-1.59333	-1.14191
H	0.93203	0.500944	-1.16768
H	-0.267621	0.112898	1.38703
C	-1.88061	0.608041	0.0102235
H	-2.06955	0.593032	-1.0844
H	-2.65225	-0.00597928	0.51848
H	-1.98324	1.65728	0.363382
N	-0.915753	-2.29817	0.550482
C	-0.812299	-3.68996	0.178431
H	-1.46106	-2.0669	1.34947
H	-1.39181	-4.32886	0.880718
H	0.250523	-4.02359	0.19683
H	-1.20732	-3.85216	-0.850563
C	298.038	-0.615679	-3.32345
C	298.133	-0.923095	-1.87861
O	298.719	-1.92087	-1.48162
H	298.555	-1.41111	-3.90317
H	298.523	0.359407	-3.54001
H	296.973	-0.576503	-3.63695
N	297.544	-0.0596526	-1.04836
C	297.551	-0.22277	0.38348
C	296.403	0.588254	0.950821
O	295.822	1.42357	0.260473
H	297.045	0.734018	-1.3857
H	297.368	-1.26317	0.620058
C	298.889	0.249408	0.996404
H	299.074	1.31693	0.751196
H	298.898	0.125064	2.09878
H	299.722	-0.351577	0.57187
N	296.033	0.343325	2.2234
C	294.942	1.05815	2.84444
H	296.511	-0.341653	2.7634
H	294.794	0.716052	3.89241
H	293.994	0.891852	2.28399
H	295.148	2.15308	2.85865
