44
  This energy is 5.20745e-320 and Call times are: 44463
C	-2.00515	-2.32312	1.64579
C	-0.692735	-1.86589	1.13617
O	0.335784	-2.47153	1.40419
H	-1.8613	-3.23545	2.26451
H	-2.68084	-2.56612	0.798911
H	-2.46871	-1.53284	2.27311
N	-0.700531	-0.764293	0.381989
C	0.496479	-0.197436	-0.18605
C	0.215031	1.25694	-0.509797
O	-0.93677	1.68715	-0.519945
H	-1.54135	-0.263356	0.194868
H	1.28427	-0.222722	0.556126
C	0.925034	-0.952845	-1.46387
H	0.114283	-0.925488	-2.22285
H	1.8465	-0.519058	-1.90376
H	1.12711	-2.01711	-1.21356
N	1.26995	2.05668	-0.761934
C	1.09976	3.45795	-1.06798
H	2.19478	1.69128	-0.741875
H	2.08429	3.94394	-1.24619
H	0.595748	3.98557	-0.226056
H	0.474226	3.58779	-1.98068
C	2112.74	-0.750085	2.36993
C	2111.5	-0.0554535	1.95159
O	2110.82	0.567929	2.75646
H	2112.89	-0.600743	3.46068
H	2113.61	-0.336739	1.82349
H	2112.66	-1.8381	2.16436
N	2111.17	-0.155183	0.661556
C	2110	0.465734	0.104298
C	2109.66	-0.254076	-1.18633
O	2110.47	-1.0136	-1.71443
H	2111.72	-0.690175	0.021646
H	2109.17	0.326275	0.786685
C	2110.23	1.96785	-0.170996
H	2111.08	2.10729	-0.870864
H	2109.33	2.4491	-0.599989
H	2110.48	2.48356	0.781963
N	2108.43	-0.0468576	-1.7146
C	2108.02	-0.698386	-2.93461
H	2107.79	0.565957	-1.26843
H	2106.98	-0.398508	-3.20685
H	2108.04	-1.80596	-2.81668
H	2108.69	-0.425648	-3.77651
