44
  This energy is 8.46384e-320 and Call times are: 121281
C	-3.21812	0.440742	-1.25522
C	-1.85854	-0.139419	-1.33368
O	-1.57296	-0.968782	-2.18638
H	-3.85331	-0.00288273	-2.05246
H	-3.17379	1.5405	-1.40143
H	-3.6732	0.217548	-0.267277
N	-0.978124	0.287966	-0.425618
C	0.382786	-0.183306	-0.374113
C	0.915081	0.0815546	1.02079
O	0.314962	0.828591	1.79126
H	-1.23113	0.942256	0.282074
H	0.390402	-1.25444	-0.531205
C	1.2649	0.529231	-1.42354
H	1.25426	1.62796	-1.25984
H	2.31341	0.168618	-1.38672
H	0.86382	0.328395	-2.44086
N	2.05005	-0.546271	1.3864
C	2.6251	-0.364356	2.69881
H	2.51705	-1.15248	0.751058
H	3.55662	-0.962644	2.80636
H	1.90897	-0.685626	3.48949
H	2.87444	0.707305	2.8736
C	5743.75	-2.95725	1.75586
C	5744.23	-1.70762	1.12826
O	5745.39	-1.34222	1.26119
H	5744.58	-3.43282	2.31902
H	5743.39	-3.66341	0.976571
H	5742.92	-2.73497	2.45979
N	5743.34	-1.01135	0.423568
C	5743.66	0.223849	-0.245448
C	5742.36	0.977928	-0.479382
O	5741.28	0.416923	-0.349982
H	5742.39	-1.30449	0.346907
H	5744.28	0.826755	0.407229
C	5744.37	-0.0346292	-1.59058
H	5743.74	-0.653962	-2.25743
H	5744.62	0.914362	-2.1083
H	5745.32	-0.588601	-1.40567
N	5742.45	2.2814	-0.81018
C	5741.27	3.08276	-1.04045
H	5743.34	2.71904	-0.90304
H	5741.55	4.12702	-1.3028
H	5740.63	3.10963	-0.129442
H	5740.67	2.66108	-1.87565
