44
  This energy is 9.7662e-320 and Call times are: 71175
C	1.28846	-3.20114	0.467675
C	1.45778	-1.73677	0.332882
O	2.54267	-1.20512	0.524876
H	2.25956	-3.65799	0.757711
H	0.959742	-3.63877	-0.498367
H	0.535726	-3.42897	1.25153
N	0.367592	-1.04196	-0.000419721
C	0.374129	0.389235	-0.169146
C	-1.05224	0.882241	-0.021954
O	-1.99573	0.0943054	-0.0502465
H	-0.517011	-1.48324	-0.125635
H	0.959682	0.834504	0.625169
C	0.934743	0.790049	-1.55196
H	0.33209	0.330995	-2.36449
H	0.941341	1.89141	-1.68515
H	1.97954	0.422126	-1.64774
N	-1.24101	2.20387	0.161548
C	-2.56288	2.76309	0.323166
H	-0.464145	2.82433	0.188649
H	-2.50938	3.86564	0.460121
H	-3.06932	2.32357	1.21288
H	-3.19154	2.55095	-0.571802
C	3376.83	-0.496332	3.42008
C	3376.08	0.051094	2.26821
O	3374.98	0.570993	2.41819
H	3376.23	-0.351545	4.34848
H	3377.8	0.0310916	3.5289
H	3377.01	-1.58199	3.27644
N	3376.66	-0.0616226	1.07237
C	3376.05	0.423169	-0.141604
C	3376.69	-0.306198	-1.30627
O	3377.73	-0.950835	-1.1511
H	3377.54	-0.513321	0.959328
H	3375	0.170237	-0.13425
C	3376.25	1.94792	-0.2977
H	3377.33	2.20393	-0.304182
H	3375.78	2.32456	-1.23135
H	3375.77	2.4706	0.562157
N	3376.08	-0.238283	-2.50229
C	3376.61	-0.910623	-3.66547
H	3375.24	0.282593	-2.60592
H	3375.96	-0.733323	-4.55178
H	3376.67	-2.00916	-3.49033
H	3377.63	-0.540657	-3.9005
