44
  This energy is 5.32356e-320 and Call times are: 38541
C	-1.10734	-1.02329	3.13892
C	-0.0260664	-0.672788	2.19066
O	1.13617	-0.583078	2.56167
H	-0.674914	-1.16393	4.15336
H	-1.6008	-1.96698	2.82464
H	-1.86044	-0.208316	3.17908
N	-0.393591	-0.457938	0.925301
C	0.543637	-0.109161	-0.112382
C	-0.230297	0.552226	-1.23614
O	-1.45728	0.485015	-1.27885
H	-1.34759	-0.505543	0.641494
H	1.24477	0.618234	0.276703
C	1.28695	-1.35609	-0.641321
H	0.564631	-2.1005	-1.0391
H	2.00951	-1.0911	-1.44036
H	1.84895	-1.83207	0.191585
N	0.472758	1.22908	-2.16543
C	-0.179357	1.90071	-3.26536
H	1.46458	1.27791	-2.10945
H	0.568556	2.39824	-3.92136
H	-0.886055	2.6755	-2.88918
H	-0.758445	1.17509	-3.88126
C	1826.47	0.153539	2.49197
C	1827.49	-0.584765	1.70782
O	1827.81	-1.72659	2.00603
H	1826.11	-0.488923	3.32511
H	1825.61	0.419896	1.84594
H	1826.92	1.07892	2.91687
N	1828.03	0.0655769	0.673848
C	1829.03	-0.520209	-0.182732
C	1829.77	0.60813	-0.875854
O	1829.32	1.75351	-0.862797
H	1827.78	1.00596	0.458707
H	1829.74	-1.05607	0.427512
C	1828.39	-1.46034	-1.23016
H	1827.66	-0.907515	-1.85399
H	1829.16	-1.91323	-1.89129
H	1827.85	-2.2818	-0.709746
N	1830.93	0.31202	-1.48225
C	1831.71	1.32383	-2.15742
H	1831.28	-0.619503	-1.47564
H	1832.63	0.88325	-2.59362
H	1832.01	2.12937	-1.44758
H	1831.12	1.78919	-2.98052
