44
  This energy is 9.88576e-320 and Call times are: 71217
C	2.16583	0.281989	2.71216
C	1.85079	-0.175756	1.34014
O	2.71064	-0.673256	0.626242
H	3.24205	0.0991172	2.92232
H	1.55517	-0.277402	3.45176
H	1.96016	1.36877	2.80987
N	0.589969	-0.00881438	0.934164
C	0.130969	-0.404375	-0.373383
C	-1.13375	0.374477	-0.67854
O	-1.72895	0.980163	0.210678
H	-0.0943816	0.424391	1.51462
H	0.875452	-0.123497	-1.1075
C	-0.15185	-1.92205	-0.434932
H	-0.91553	-2.20683	0.319928
H	-0.505315	-2.23007	-1.4404
H	0.782004	-2.4813	-0.208433
N	-1.5629	0.39414	-1.95582
C	-2.75074	1.11904	-2.34278
H	-1.06341	-0.0964271	-2.66228
H	-2.93869	1.01215	-3.43388
H	-2.64253	2.20325	-2.11034
H	-3.6414	0.735572	-1.79427
C	3380.47	0.25651	2.78783
C	3380.09	-0.375291	1.50545
O	3380.8	-1.21738	0.97673
H	3381.45	-0.155189	3.12197
H	3379.71	0.0422516	3.56398
H	3380.57	1.35506	2.65921
N	3378.93	0.0294755	0.966716
C	3378.43	-0.492594	-0.276984
C	3377.44	0.510764	-0.833572
O	3377	1.42148	-0.130842
H	3378.38	0.737328	1.39245
H	3379.24	-0.574875	-0.983243
C	3377.74	-1.86151	-0.0738591
H	3376.9	-1.77358	0.651748
H	3377.35	-2.26646	-1.02955
H	3378.48	-2.58721	0.33526
N	3377.07	0.378476	-2.12386
C	3376.14	1.29391	-2.7435
H	3377.44	-0.360885	-2.67806
H	3375.97	1.0174	-3.80665
H	3376.53	2.33538	-2.71249
H	3375.16	1.27959	-2.21204
