44
  This energy is 1.04021e-319 and Call times are: 16869
C	-0.174947	-2.77171	-2.10075
C	-0.443603	-1.34743	-1.79999
O	-0.89928	-0.596231	-2.65119
H	-0.443647	-2.98063	-3.15905
H	-0.784023	-3.42375	-1.43992
H	0.90192	-2.99792	-1.95197
N	-0.156257	-0.938329	-0.562071
C	-0.362846	0.417401	-0.119191
C	0.518817	0.65131	1.09209
O	1.04515	-0.292771	1.67819
H	0.241832	-1.55296	0.113717
H	-0.038121	1.0954	-0.898255
C	-1.84297	0.671103	0.244104
H	-2.17297	-0.0265916	1.04313
H	-2.00561	1.71411	0.585382
H	-2.47842	0.495274	-0.651124
N	0.718281	1.92532	1.48339
C	1.552	2.24539	2.61858
H	0.289309	2.67595	0.991693
H	1.58955	3.3451	2.78128
H	2.59187	1.87915	2.458
H	1.1566	1.76726	3.54391
C	806.097	-3.15549	0.697907
C	805.435	-1.89871	1.11514
O	804.989	-1.76397	2.24623
H	806.091	-3.87289	1.54712
H	807.149	-2.95486	0.403779
H	805.554	-3.60802	-0.158379
N	805.352	-0.937851	0.192033
C	804.737	0.340177	0.447624
C	804.353	0.947859	-0.887523
O	804.796	0.487554	-1.93821
H	805.693	-1.07048	-0.734731
H	803.826	0.185851	1.01271
C	805.697	1.2848	1.20499
H	806.63	1.44039	0.622757
H	805.226	2.26974	1.40356
H	805.971	0.827765	2.18063
N	803.498	1.98913	-0.877597
C	803.066	2.62439	-2.10095
H	803.145	2.34258	-0.017452
H	802.366	3.46096	-1.88394
H	802.545	1.89335	-2.76069
H	803.939	3.03339	-2.66022
