44
  This energy is 1.10829e-319 and Call times are: 116283
C	-0.737088	-3.37483	-0.439707
C	-0.442052	-2.20863	0.422921
O	-0.525072	-2.28572	1.64098
H	-1.02625	-4.23894	0.197139
H	0.161016	-3.64956	-1.03195
H	-1.57573	-3.1393	-1.12829
N	-0.0907764	-1.08245	-0.202138
C	0.226677	0.135092	0.500455
C	0.0634013	1.28895	-0.469691
O	-0.0361747	1.0849	-1.67811
H	-0.0550231	-1.02423	-1.19626
H	-0.487697	0.275439	1.30173
C	1.66914	0.105804	1.05322
H	2.39934	-0.0389849	0.228621
H	1.91684	1.04174	1.59493
H	1.77607	-0.744447	1.76159
N	0.0101262	2.53402	0.043111
C	-0.155538	3.69311	-0.802618
H	0.0853772	2.67792	1.02437
H	-0.173816	4.62427	-0.194459
H	-1.10961	3.62914	-1.37436
H	0.681106	3.76854	-1.53441
C	5508.45	-1.01194	-3.16377
C	5508.32	0.00915772	-2.09957
O	5508.87	1.096	-2.19678
H	5509.09	-0.61593	-3.97788
H	5507.45	-1.25377	-3.58275
H	5508.91	-1.93514	-2.7555
N	5507.58	-0.327123	-1.04001
C	5507.36	0.55951	0.0752998
C	5506.96	-0.283233	1.26828
O	5506.62	-1.45649	1.12308
H	5507.16	-1.22646	-0.959324
H	5508.3	1.04917	0.32177
C	5506.27	1.60106	-0.238687
H	5505.31	1.09528	-0.491757
H	5506.1	2.28547	0.617926
H	5506.58	2.21109	-1.11508
N	5507	0.293599	2.48537
C	5506.64	-0.434584	3.68015
H	5507.28	1.24208	2.58291
H	5506.74	0.212313	4.57956
H	5507.3	-1.32212	3.81224
H	5505.59	-0.79351	3.62073
