44
  This energy is 1.50018e-319 and Call times are: 124011
C	3.43666	-0.126362	0.547297
C	2.13263	0.570849	0.615099
O	2.01726	1.64163	1.19529
H	4.20156	0.471855	1.08853
H	3.75376	-0.242646	-0.51041
H	3.36089	-1.12714	1.02231
N	1.10418	-0.0355971	0.0176912
C	-0.225933	0.518689	-0.00192229
C	-1.19818	-0.612686	-0.273897
O	-0.797366	-1.7022	-0.679037
H	1.20471	-0.921839	-0.426614
H	-0.454213	0.920351	0.977174
C	-0.364429	1.61043	-1.08637
H	-0.128883	1.19511	-2.08944
H	-1.38736	2.03947	-1.10412
H	0.353767	2.43279	-0.876464
N	-2.50473	-0.385144	-0.0348587
C	-3.502	-1.40686	-0.253342
H	-2.80841	0.500944	0.299599
H	-4.51644	-1.02649	-0.00138451
H	-3.29512	-2.29966	0.380189
H	-3.50419	-1.73255	-1.31875
C	5871.46	-2.72892	-1.28296
C	5871.65	-1.67059	-0.266637
O	5870.82	-1.47423	0.609932
H	5870.49	-3.24353	-1.0959
H	5872.28	-3.47401	-1.2222
H	5871.44	-2.28393	-2.30007
N	5872.77	-0.95038	-0.368285
C	5873.1	0.113378	0.545951
C	5874.11	1.01832	-0.136922
O	5874.69	0.65626	-1.15986
H	5873.43	-1.10078	-1.10422
H	5872.21	0.699045	0.740943
C	5873.69	-0.439557	1.86259
H	5874.61	-1.04041	1.65879
H	5873.95	0.376862	2.5689
H	5872.95	-1.10175	2.35246
N	5874.33	2.23285	0.40501
C	5875.26	3.1667	-0.182659
H	5873.85	2.51012	1.22903
H	5875.3	4.10763	0.409228
H	5874.96	3.42055	-1.22447
H	5876.29	2.73041	-0.217115
