44
  This energy is 7.77511e-320 and Call times are: 45429
C	1.54514	-2.51742	1.84425
C	1.55625	-1.19	1.18924
O	2.49982	-0.423938	1.32822
H	2.48019	-2.64485	2.43189
H	1.48884	-3.32076	1.07985
H	0.675716	-2.59865	2.53014
N	0.485592	-0.882968	0.453179
C	0.350436	0.370406	-0.245116
C	-1.12413	0.595162	-0.517819
O	-1.93411	-0.320782	-0.388165
H	-0.289554	-1.50377	0.371394
H	0.69151	1.17074	0.399244
C	1.14109	0.362893	-1.57249
H	0.789075	-0.459788	-2.23083
H	1.03932	1.32655	-2.11267
H	2.21945	0.196245	-1.35918
N	-1.51062	1.83335	-0.883221
C	-2.8953	2.14422	-1.15197
H	-0.840994	2.56292	-0.975715
H	-3.00988	3.21271	-1.43911
H	-3.52262	1.9542	-0.251074
H	-3.28544	1.51381	-1.98356
C	2155.56	1.34416	-3.12623
C	2156.5	1.06104	-2.02108
O	2157.7	1.29979	-2.13227
H	2156.12	1.76873	-3.98751
H	2154.8	2.07894	-2.79765
H	2155.06	0.408304	-3.45025
N	2155.98	0.531148	-0.914075
C	2156.77	0.201051	0.245386
C	2156	-0.81716	1.06095
O	2154.8	-1.02814	0.837933
H	2155.01	0.314266	-0.84654
H	2157.69	-0.267152	-0.0778557
C	2157.06	1.45366	1.10058
H	2156.12	1.93185	1.42992
H	2157.67	1.2031	1.9941
H	2157.63	2.1922	0.491463
N	2156.67	-1.49117	2.01646
C	2156.02	-2.48807	2.83476
H	2157.63	-1.31123	2.17684
H	2156.73	-2.92798	3.56259
H	2155.61	-3.3105	2.20292
H	2155.17	-2.03881	3.40365
