44
  This energy is 3.16894e-320 and Call times are: 49755
C	1.68839	-2.1835	-2.12316
C	1.39762	-1.64193	-0.776547
O	1.85726	-2.16593	0.228765
H	2.34022	-3.0788	-2.02608
H	2.21349	-1.42154	-2.73675
H	0.745043	-2.47888	-2.62892
N	0.609303	-0.565575	-0.727789
C	0.237071	0.0753106	0.508146
C	-1.02082	0.882922	0.253775
O	-1.39792	1.11446	-0.893404
H	0.217443	-0.165352	-1.55193
H	-0.00271998	-0.6851	1.24051
C	1.36425	0.99651	1.02582
H	1.60817	1.77499	0.271769
H	1.081	1.49147	1.97743
H	2.28036	0.393188	1.20713
N	-1.71442	1.31389	1.32578
C	-2.93055	2.07956	1.18099
H	-1.39676	1.11014	2.246
H	-3.35127	2.34144	2.17681
H	-3.69656	1.49773	0.6189
H	-2.7363	3.02404	0.622945
C	2361.75	0.45751	2.52952
C	2360.41	0.676407	1.94433
O	2359.52	1.23081	2.58132
H	2361.77	0.85908	3.56598
H	2362.52	0.982677	1.92675
H	2361.98	-0.627968	2.56042
N	2360.22	0.232311	0.698728
C	2358.97	0.372159	-0.00488497
C	2358.95	-0.656936	-1.11823
O	2359.97	-1.24666	-1.45282
H	2360.94	-0.243746	0.200867
H	2358.16	0.143813	0.672853
C	2358.81	1.79282	-0.590806
H	2359.65	2.02402	-1.2851
H	2357.85	1.90401	-1.13312
H	2358.84	2.53739	0.234606
N	2357.76	-0.912819	-1.70582
C	2357.64	-1.88533	-2.76657
H	2356.94	-0.430287	-1.41604
H	2356.59	-1.95056	-3.11988
H	2357.95	-2.89411	-2.41319
H	2358.28	-1.60669	-3.63207
