44
  This energy is 3.10224e-320 and Call times are: 14139
C	-1.2934	-2.72249	-1.74393
C	-1.24681	-1.84091	-0.555719
O	-2.06833	-1.94845	0.3443
H	-2.15211	-3.42208	-1.64876
H	-0.355868	-3.31253	-1.81951
H	-1.42379	-2.11665	-2.66529
N	-0.27054	-0.930618	-0.530622
C	-0.0951274	-0.00239065	0.557703
C	0.71912	1.16916	0.0441874
O	1.31558	1.09794	-1.02866
H	0.374946	-0.833688	-1.28354
H	-1.06422	0.376461	0.856696
C	0.624559	-0.666349	1.75283
H	1.61809	-1.05447	1.44239
H	0.761122	0.0455539	2.59266
H	0.0186368	-1.52364	2.11896
N	0.74447	2.28899	0.793414
C	1.48324	3.45888	0.378957
H	0.249435	2.32942	1.65512
H	1.38214	4.27397	1.12906
H	1.10687	3.8348	-0.59996
H	2.56537	3.22014	0.264164
C	672.415	-1.44245	-2.08721
C	673.327	-1.49404	-0.922846
O	673.309	-2.43907	-0.146262
H	671.775	-2.35139	-2.09277
H	673	-1.40901	-3.03045
H	671.764	-0.544993	-2.02413
N	674.155	-0.457518	-0.771796
C	675.101	-0.363964	0.311469
C	675.476	1.09585	0.477989
O	675.195	1.91991	-0.39028
H	674.14	0.320057	-1.39477
H	674.621	-0.686785	1.22658
C	676.364	-1.20794	0.029794
H	676.854	-0.874532	-0.910035
H	677.094	-1.13829	0.861978
H	676.076	-2.27493	-0.0913613
N	676.104	1.45424	1.61529
C	676.488	2.82351	1.86673
H	676.316	0.773857	2.30906
H	676.993	2.91518	2.85356
H	675.595	3.48897	1.86712
H	677.188	3.18595	1.07951
