44
  This energy is 1.00033e-319 and Call times are: 96585
C	-0.0878738	1.01231	-3.33071
C	0.454224	0.171355	-2.23978
O	1.24134	-0.735857	-2.47196
H	0.329115	0.667718	-4.30191
H	0.197569	2.07373	-3.17344
H	-1.19457	0.92863	-3.36479
N	0.0322646	0.456483	-1.00568
C	0.470125	-0.272242	0.157967
C	-0.553012	-0.0552555	1.25585
O	-1.40087	0.829944	1.15894
H	-0.631548	1.17926	-0.83282
H	0.484564	-1.32965	-0.0738979
C	1.86294	0.20319	0.628236
H	1.84468	1.28851	0.864608
H	2.2032	-0.355959	1.52398
H	2.60306	0.0399784	-0.185231
N	-0.509897	-0.878295	2.32203
C	-1.45119	-0.754724	3.41055
H	0.179351	-1.59312	2.37858
H	-1.25101	-1.52021	4.19235
H	-2.49469	-0.891642	3.04504
H	-1.37923	0.253086	3.87994
C	4576.28	-2.34498	-2.17078
C	4576.08	-1.78476	-0.81523
O	4576.5	-2.36621	0.177156
H	4576.83	-3.30981	-2.09261
H	4576.88	-1.64316	-2.79075
H	4575.3	-2.5262	-2.65842
N	4575.43	-0.625637	-0.743681
C	4575.15	0.043482	0.503508
C	4573.99	0.991915	0.280249
O	4573.62	1.27454	-0.857412
H	4575.07	-0.176405	-1.55708
H	4574.84	-0.690454	1.23625
C	4576.39	0.825231	1.00287
H	4576.71	1.57682	0.248461
H	4576.18	1.34154	1.96309
H	4577.23	0.119482	1.16144
N	4573.37	1.49066	1.36903
C	4572.25	2.39175	1.25422
H	4573.69	1.24431	2.2812
H	4571.88	2.6919	2.26014
H	4571.41	1.90612	0.704876
H	4572.54	3.31232	0.697774
