44
  This energy is 6.26475e-321 and Call times are: 67479
C	-1.57452	2.87792	1.16815
C	-1.34331	1.41619	1.20093
O	-1.83363	0.717726	2.07742
H	-2.21677	3.16756	2.02808
H	-2.08652	3.16321	0.225131
H	-0.608373	3.42013	1.24249
N	-0.572849	0.915814	0.232232
C	-0.257419	-0.486664	0.130311
C	0.997671	-0.62208	-0.709719
O	1.41512	0.325099	-1.37336
H	-0.155433	1.49933	-0.459295
H	-0.0350659	-0.869991	1.11808
C	-1.41661	-1.27847	-0.515006
H	-1.64251	-0.882161	-1.52793
H	-1.17712	-2.35877	-0.594874
H	-2.33032	-1.17027	0.109151
N	1.64347	-1.80454	-0.682554
C	2.85323	-2.0224	-1.44098
H	1.29371	-2.55662	-0.133667
H	3.2317	-3.05723	-1.28891
H	3.64842	-1.30854	-1.12584
H	2.66708	-1.87344	-2.52925
C	3200.34	3.47038	-0.280877
C	3199.73	2.18792	0.141508
O	3198.71	2.16253	0.811301
H	3199.73	4.3124	0.110246
H	3200.37	3.53267	-1.38904
H	3201.37	3.55733	0.122201
N	3200.37	1.07726	-0.243196
C	3199.9	-0.244428	0.0897982
C	3201.07	-1.1983	-0.0319237
O	3202.1	-0.853526	-0.600025
H	3201.21	1.11168	-0.763932
H	3199.57	-0.252803	1.12244
C	3198.75	-0.688195	-0.847286
H	3199.09	-0.677804	-1.90589
H	3198.39	-1.70541	-0.593569
H	3197.9	0.019206	-0.74965
N	3200.94	-2.42017	0.521804
C	3202.01	-3.39087	0.466013
H	3200.1	-2.67776	0.983441
H	3201.71	-4.33353	0.975569
H	3202.93	-2.99723	0.964915
H	3202.27	-3.63022	-0.590826
