44
  This energy is 4.83493e-320 and Call times are: 26697
C	-1.992	-2.65025	1.065
C	-1.7843	-1.40989	0.284249
O	-2.63352	-1.00496	-0.497633
H	-2.98062	-3.08693	0.804609
H	-1.97352	-2.42557	2.15219
H	-1.19858	-3.38975	0.827147
N	-0.627077	-0.773315	0.479126
C	-0.280397	0.44573	-0.206855
C	1.22803	0.593359	-0.160969
O	1.9045	-0.0981221	0.598024
H	0.0689663	-1.12897	1.09716
H	-0.571001	0.359485	-1.24617
C	-0.954372	1.67151	0.449145
H	-0.654586	1.75657	1.51545
H	-0.68968	2.61185	-0.0766684
H	-2.05892	1.55062	0.410205
N	1.79406	1.48903	-0.993665
C	3.22397	1.68986	-1.02851
H	1.23017	2.03399	-1.60544
H	3.49362	2.46848	-1.77569
H	3.74684	0.745032	-1.30265
H	3.59956	2.01553	-0.0314893
C	1272.37	0.427766	3.17199
C	1271.97	-0.426794	2.03189
O	1272.26	-1.61535	2.00018
H	1272.94	-0.183821	3.90816
H	1271.47	0.848697	3.66964
H	1273.02	1.25672	2.81924
N	1271.29	0.172771	1.05206
C	1270.83	-0.525991	-0.121698
C	1270.59	0.501462	-1.2097
O	1270.54	1.70057	-0.942253
H	1271.09	1.14804	1.07589
H	1271.61	-1.18901	-0.465595
C	1269.53	-1.31529	0.164931
H	1268.73	-0.632151	0.518157
H	1269.18	-1.85465	-0.736705
H	1269.73	-2.06373	0.964357
N	1270.45	0.053332	-2.47311
C	1270.22	0.958856	-3.57587
H	1270.5	-0.920254	-2.67017
H	1270.14	0.398819	-4.53283
H	1271.07	1.68073	-3.66897
H	1269.29	1.54108	-3.42226
