44
  This energy is 1.00651e-319 and Call times are: 102885
C	2.01735	0.83232	-2.71361
C	1.21696	1.2027	-1.52475
O	1.20932	2.34975	-1.09965
H	2.55623	1.72982	-3.08772
H	1.35374	0.450472	-3.51775
H	2.76084	0.0519988	-2.44667
N	0.519025	0.220267	-0.95021
C	-0.3068	0.424988	0.212946
C	-0.510783	-0.9203	0.882145
O	-0.228131	-1.96339	0.295706
H	0.556448	-0.716232	-1.2886
H	0.220371	1.06299	0.910882
C	-1.67147	1.04146	-0.167533
H	-2.20928	0.384693	-0.884143
H	-2.3098	1.20057	0.725769
H	-1.50826	2.02588	-0.657865
N	-0.989126	-0.925649	2.14197
C	-1.20453	-2.15836	2.86322
H	-1.2051	-0.070705	2.60203
H	-1.60301	-1.95379	3.88136
H	-0.250602	-2.72441	2.96742
H	-1.93353	-2.80645	2.32497
C	4870.19	0.557502	-1.98365
C	4870.96	0.74455	-0.731405
O	4870.58	1.52374	0.132097
H	4869.3	1.21672	-1.96818
H	4869.86	-0.497928	-2.07455
H	4870.82	0.823821	-2.86023
N	4872.08	0.0251089	-0.607481
C	4872.93	0.0978215	0.552722
C	4874.3	-0.405884	0.154546
O	4874.47	-1.01338	-0.901658
H	4872.39	-0.584543	-1.33062
H	4873.03	1.13392	0.849363
C	4872.37	-0.750657	1.71598
H	4872.26	-1.81286	1.40799
H	4873.02	-0.696799	2.61099
H	4871.36	-0.3724	1.99744
N	4875.33	-0.144071	0.986609
C	4876.68	-0.573964	0.684701
H	4875.18	0.355164	1.83319
H	4877.38	-0.265297	1.49072
H	4877.02	-0.127105	-0.274205
H	4876.72	-1.68271	0.58572
