44
  This energy is 4.02565e-320 and Call times are: 113511
C	3.07873	-0.469029	-1.55807
C	2.1951	-0.543026	-0.372772
O	2.56463	-1.0871	0.658695
H	4.04417	-0.970021	-1.32831
H	3.27774	0.591125	-1.8213
H	2.60459	-0.981253	-2.42165
N	0.985468	0.00748846	-0.499599
C	0.0145901	0.0150831	0.565373
C	-1.35405	0.223017	-0.0533589
O	-1.46657	0.598366	-1.21881
H	0.685508	0.422055	-1.35464
H	0.0137386	-0.954188	1.04764
C	0.310692	1.1343	1.5885
H	0.311464	2.1272	1.09024
H	-0.434895	1.1429	2.40997
H	1.31638	0.97123	2.03364
N	-2.43217	-0.0389358	0.711513
C	-3.77515	0.118883	0.203877
H	-2.32029	-0.348627	1.65003
H	-4.52368	-0.14351	0.983687
H	-3.94185	-0.541074	-0.678115
H	-3.95407	1.17159	-0.113891
C	5373.72	-2.4907	1.75764
C	5374.84	-2.02809	0.90584
O	5375.78	-2.76215	0.64771
H	5373.91	-3.53692	2.08051
H	5372.76	-2.4599	1.18805
H	5373.63	-1.84694	2.65815
N	5374.75	-0.776418	0.448562
C	5375.76	-0.184162	-0.391515
C	5375.63	1.32279	-0.285799
O	5374.63	1.83323	0.215944
H	5373.99	-0.178672	0.689798
H	5376.74	-0.456834	-0.012757
C	5375.6	-0.629426	-1.86235
H	5374.6	-0.348723	-2.2475
H	5376.38	-0.175345	-2.51195
H	5375.7	-1.73519	-1.92613
N	5376.66	2.07256	-0.739579
C	5376.63	3.51489	-0.669504
H	5377.46	1.64047	-1.13571
H	5377.56	3.9491	-1.09419
H	5376.53	3.85496	0.387154
H	5375.76	3.91789	-1.24137
