44
  This energy is 1.47859e-319 and Call times are: 117669
C	-2.75426	-1.81914	-1.10947
C	-1.84146	-1.36381	-0.0367715
O	-2.07202	-1.61366	1.13835
H	-3.60611	-2.37174	-0.656864
H	-2.21724	-2.49557	-1.80723
H	-3.14965	-0.946977	-1.67156
N	-0.769967	-0.668618	-0.425327
C	0.209129	-0.158828	0.501125
C	0.952566	0.972332	-0.182261
O	0.859725	1.14243	-1.39646
H	-0.608558	-0.446577	-1.38323
H	-0.302142	0.255587	1.36074
C	1.20114	-1.26126	0.934341
H	1.72339	-1.68465	0.0499726
H	1.95633	-0.872169	1.64784
H	0.644072	-2.08446	1.43249
N	1.69467	1.78952	0.59071
C	2.42779	2.90041	0.0297781
H	1.75136	1.63963	1.57232
H	2.97699	3.45087	0.825152
H	1.73597	3.61262	-0.475567
H	3.16665	2.54337	-0.72375
C	5573.9	3.00828	1.68025
C	5574	2.16035	0.471001
O	5574.37	2.62548	-0.599209
H	5574.2	4.04931	1.4241
H	5574.58	2.62736	2.47165
H	5572.86	3.0127	2.05982
N	5573.67	0.876727	0.617448
C	5573.71	-0.0718579	-0.466494
C	5572.81	-1.2334	-0.107596
O	5572.39	-1.37593	1.04134
H	5573.34	0.516363	1.48761
H	5573.31	0.393668	-1.35852
C	5575.15	-0.57705	-0.711616
H	5575.56	-1.05344	0.205703
H	5575.19	-1.30752	-1.5457
H	5575.81	0.283363	-0.972459
N	5572.46	-2.08281	-1.09422
C	5571.59	-3.21058	-0.849107
H	5572.8	-1.94639	-2.019
H	5571.42	-3.78951	-1.78424
H	5570.6	-2.86888	-0.46795
H	5572.04	-3.89229	-0.089164
