44
  This energy is 6.24746e-320 and Call times are: 75879
C	2.81387	-1.8902	-0.797128
C	2.11371	-0.593481	-0.657503
O	2.71135	0.465599	-0.790441
H	3.88765	-1.70589	-1.01821
H	2.37105	-2.47637	-1.62968
H	2.73565	-2.47104	0.145982
N	0.810006	-0.650817	-0.375673
C	-0.00639159	0.525183	-0.210307
C	-1.23459	0.131375	0.586985
O	-1.52271	-1.05223	0.754021
H	0.340766	-1.5195	-0.241013
H	0.54243	1.25571	0.37038
C	-0.425751	1.1153	-1.57523
H	-0.987963	0.362996	-2.16859
H	-1.05436	2.02102	-1.45158
H	0.482819	1.39865	-2.15
N	-1.97846	1.12123	1.11883
C	-3.15874	0.841627	1.90302
H	-1.72478	2.07262	0.978387
H	-3.6331	1.78598	2.25005
H	-2.90025	0.229925	2.79759
H	-3.90537	0.274686	1.30111
C	3599.86	1.26436	-1.33081
C	3599.11	0.259355	-0.541851
O	3599.66	-0.752623	-0.125819
H	3600.91	0.926774	-1.45315
H	3599.85	2.24302	-0.806381
H	3599.4	1.38129	-2.33508
N	3597.82	0.519303	-0.320989
C	3596.96	-0.362664	0.429604
C	3595.53	-0.0524191	0.0493339
O	3595.25	0.973991	-0.567538
H	3597.38	1.333	-0.690004
H	3597.17	-1.38489	0.137232
C	3597.16	-0.179487	1.95092
H	3596.95	0.870452	2.24728
H	3596.5	-0.857201	2.53187
H	3598.22	-0.408563	2.21641
N	3594.58	-0.949383	0.392153
C	3593.19	-0.744598	0.0617466
H	3594.83	-1.77738	0.884876
H	3592.57	-1.59115	0.430089
H	3593.06	-0.665684	-1.04142
H	3592.81	0.195406	0.52386
