44
  This energy is 7.2845e-320 and Call times are: 33417
C	-0.789802	-1.16286	-3.18592
C	-0.556875	-1.38278	-1.74073
O	-0.778969	-2.46828	-1.22221
H	-1.17618	-2.09997	-3.64244
H	0.160102	-0.883471	-3.68836
H	-1.53763	-0.355674	-3.33472
N	-0.101802	-0.33651	-1.04747
C	0.173046	-0.395226	0.365976
C	0.156852	1.0227	0.903055
O	0.187582	1.98496	0.13824
H	0.0475279	0.550804	-1.47562
H	-0.622207	-0.941929	0.856651
C	1.54241	-1.05373	0.645853
H	2.35586	-0.490727	0.140452
H	1.75715	-1.10069	1.73326
H	1.54178	-2.09139	0.246592
N	0.0857723	1.18432	2.23903
C	0.0533589	2.497	2.8407
H	0.0545583	0.393069	2.84084
H	-0.00368625	2.42034	3.9489
H	-0.831794	3.07134	2.4831
H	0.969076	3.07357	2.57571
C	1587.59	-3.24649	-1.255
C	1587.13	-1.83962	-1.2437
O	1586.37	-1.41779	-2.09906
H	1587.14	-3.77355	-2.1236
H	1587.28	-3.75905	-0.321259
H	1588.7	-3.28684	-1.34507
N	1587.6	-1.06958	-0.25997
C	1587.25	0.319299	-0.115764
C	1588.31	0.98883	0.728644
O	1589.13	0.318252	1.36374
H	1588.25	-1.41733	0.413931
H	1587.26	0.788356	-1.09144
C	1585.86	0.478392	0.552429
H	1585.86	-0.00451662	1.55286
H	1585.59	1.54659	0.664866
H	1585.09	-0.0172477	-0.0751981
N	1588.35	2.33591	0.73739
C	1589.34	3.06036	1.50268
H	1587.69	2.86062	0.211168
H	1589.2	4.15768	1.382
H	1590.37	2.7959	1.16666
H	1589.25	2.81362	2.58589
