44
  This energy is 1.00809e-319 and Call times are: 52401
C	1.69022	0.738051	2.95374
C	1.66832	0.47934	1.49641
O	2.67225	0.625542	0.812868
H	2.70936	1.06592	3.25328
H	1.43232	-0.187336	3.51048
H	0.964955	1.53837	3.21145
N	0.50052	0.0881354	0.981078
C	0.321956	-0.20158	-0.419282
C	-1.15814	-0.0969042	-0.731673
O	-1.99027	-0.0582121	0.172709
H	-0.317407	0.000806251	1.54349
H	0.835396	0.552071	-1.00277
C	0.840873	-1.61341	-0.77223
H	0.312485	-2.38404	-0.171347
H	0.705053	-1.8397	-1.84979
H	1.92579	-1.67752	-0.537702
N	-1.51997	-0.0263689	-2.02786
C	-2.90528	0.0870621	-2.42057
H	-0.831153	-0.0520297	-2.74487
H	-2.99779	0.129848	-3.52821
H	-3.35992	1.01086	-1.99497
H	-3.49078	-0.786688	-2.05324
C	2486.4	3.31244	-0.395626
C	2486.05	1.9847	-0.946744
O	2485.94	1.80911	-2.15241
H	2486.52	4.03604	-1.23069
H	2487.35	3.25095	0.169113
H	2485.59	3.67376	0.278027
N	2485.85	1.0067	-0.0589566
C	2485.5	-0.338392	-0.441474
C	2484.87	-1.01362	0.757494
O	2484.95	-0.514641	1.87812
H	2485.92	1.16932	0.922073
H	2484.76	-0.299363	-1.22941
C	2486.75	-1.13256	-0.899977
H	2487.51	-1.17004	-0.0894837
H	2486.48	-2.16867	-1.19538
H	2487.2	-0.62708	-1.77794
N	2484.19	-2.16054	0.543783
C	2483.54	-2.86772	1.62298
H	2484.13	-2.54457	-0.371544
H	2483.04	-3.78757	1.24625
H	2482.77	-2.22437	2.1072
H	2484.28	-3.1641	2.40047
