44
  This energy is 2.1976e-320 and Call times are: 1665
C	-0.337515	-3.26244	1.16993
C	-0.706214	-2.16636	0.245867
O	-1.45908	-2.36142	-0.698398
H	-0.837325	-4.2007	0.844783
H	-0.666182	-3.01934	2.20226
H	0.761785	-3.41856	1.15944
N	-0.169155	-0.970765	0.499804
C	-0.433087	0.19239	-0.309045
C	0.689572	1.18509	-0.0779317
O	1.46795	1.04577	0.863635
H	0.465756	-0.8313	1.25503
H	-0.410381	-0.0926309	-1.35323
C	-1.79162	0.832937	0.0531859
H	-1.81169	1.12351	1.12523
H	-1.99807	1.72874	-0.567853
H	-2.60547	0.0953595	-0.119327
N	0.812208	2.20443	-0.950809
C	1.85815	3.19157	-0.817656
H	0.176724	2.29587	-1.71044
H	1.79039	3.94834	-1.63004
H	2.86158	2.71027	-0.869844
H	1.77867	3.71898	0.160457
C	84.1514	0.950458	-1.3888
C	85.3863	1.25131	-0.629979
O	85.666	2.39716	-0.305532
H	83.5999	1.89603	-1.58264
H	83.4997	0.267783	-0.803919
H	84.405	0.476624	-2.36046
N	86.1672	0.210469	-0.331375
C	87.4004	0.343649	0.402275
C	88.2497	-0.878469	0.111742
O	87.7605	-1.87074	-0.424881
H	85.943	-0.714483	-0.626577
H	87.9356	1.21068	0.0363839
C	87.1416	0.461909	1.92087
H	86.5917	-0.428895	2.29275
H	88.089	0.564755	2.48878
H	86.5175	1.36021	2.12035
N	89.5551	-0.825473	0.442177
C	90.4434	-1.93665	0.192585
H	89.9336	-0.0108078	0.869135
H	91.4747	-1.70048	0.536036
H	90.4818	-2.17222	-0.89566
H	90.0945	-2.84748	0.730909
