44
  This energy is 1.57073e-319 and Call times are: 18885
C	-2.60683	-2.27558	-0.390256
C	-1.95867	-1.14733	0.315533
O	-2.53763	-0.542954	1.20773
H	-3.62786	-2.42874	0.0219334
H	-2.01795	-3.20582	-0.246363
H	-2.68685	-2.05323	-1.4752
N	-0.723509	-0.831183	-0.0804463
C	0.0361752	0.241512	0.510344
C	1.11141	0.650099	-0.477662
O	1.3813	-0.0618755	-1.44311
H	-0.273733	-1.31236	-0.828181
H	-0.614988	1.09357	0.658883
C	0.679582	-0.193977	1.84582
H	1.34642	-1.06869	1.68988
H	1.26516	0.629667	2.30351
H	-0.118353	-0.491909	2.56044
N	1.73816	1.82472	-0.269175
C	2.76701	2.30144	-1.16381
H	1.50054	2.39	0.513912
H	3.16125	3.28374	-0.821869
H	2.36435	2.42522	-2.19521
H	3.61451	1.57968	-1.20836
C	899.72	0.634959	-3.24894
C	900.602	-0.05634	-2.28256
O	901.358	-0.948243	-2.64234
H	899.875	0.204214	-4.2619
H	899.959	1.71871	-3.2786
H	898.656	0.499653	-2.96046
N	900.519	0.344058	-1.0117
C	901.314	-0.232363	0.0431299
C	900.622	0.0590622	1.36046
O	899.718	0.890246	1.42534
H	899.878	1.0517	-0.726236
H	901.341	-1.3072	-0.0836663
C	902.744	0.352448	0.0535076
H	902.713	1.45533	0.183085
H	903.359	-0.0893338	0.864409
H	903.24	0.133312	-0.917245
N	901.019	-0.639017	2.44277
C	900.409	-0.437797	3.73671
H	901.747	-1.31241	2.36835
H	900.873	-1.10313	4.49773
H	899.318	-0.659655	3.6959
H	900.535	0.617709	4.07041
