44
  This energy is 2.15413e-321 and Call times are: 19095
C	1.52451	-2.73079	1.53127
C	0.957204	-1.36419	1.57323
O	0.815284	-0.7705	2.63337
H	1.75981	-3.06271	2.56583
H	2.45798	-2.73922	0.930131
H	0.791759	-3.43599	1.08548
N	0.60962	-0.830131	0.40006
C	0.0448649	0.490175	0.278932
C	-0.688883	0.563302	-1.04602
O	-0.519893	-0.298528	-1.90656
H	0.703164	-1.33518	-0.453819
H	-0.683486	0.634955	1.06672
C	1.14005	1.57825	0.340487
H	1.88591	1.4263	-0.468657
H	0.708632	2.59611	0.247671
H	1.67087	1.51332	1.31525
N	-1.54246	1.58936	-1.23206
C	-2.29391	1.73454	-2.45698
H	-1.67079	2.27267	-0.520836
H	-2.93816	2.64046	-2.41808
H	-2.9465	0.847344	-2.62506
H	-1.60819	1.82908	-3.32993
C	911.959	0.968101	2.63642
C	911.109	-0.0288011	1.94656
O	911.041	-1.1842	2.34269
H	912.47	0.482874	3.49597
H	911.335	1.80522	3.01516
H	912.726	1.36522	1.93911
N	910.437	0.403575	0.877413
C	909.57	-0.447661	0.102605
C	909.403	0.180467	-1.26738
O	909.746	1.34341	-1.47169
H	910.523	1.33982	0.547398
H	910.049	-1.40888	-0.0324112
C	908.192	-0.614744	0.781748
H	907.703	0.373326	0.91932
H	907.522	-1.26974	0.18787
H	908.328	-1.07468	1.7848
N	908.889	-0.58702	-2.24854
C	908.704	-0.0782689	-3.5877
H	908.624	-1.52798	-2.06507
H	908.268	-0.859493	-4.24856
H	909.678	0.245244	-4.02259
H	908.019	0.800122	-3.58356
