44
  This energy is 1.49845e-319 and Call times are: 117753
C	-2.86923	-0.832052	1.78922
C	-2.15983	-0.565181	0.51772
O	-2.70319	-0.755138	-0.561707
H	-3.89121	-1.20919	1.56746
H	-2.95205	0.101634	2.38437
H	-2.32332	-1.59854	2.37865
N	-0.906594	-0.11666	0.620709
C	-0.0888273	0.188286	-0.526066
C	1.36182	0.155198	-0.0858942
O	1.65658	0.151234	1.10781
H	-0.46516	0.00632466	1.50555
H	-0.22436	-0.585786	-1.27072
C	-0.435053	1.57582	-1.11086
H	-0.295552	2.36746	-0.34408
H	0.192674	1.81375	-1.99411
H	-1.5005	1.58744	-1.42842
N	2.30566	0.108423	-1.04662
C	3.71239	0.062523	-0.722284
H	2.04672	0.105183	-2.00691
H	4.32847	0.0297902	-1.64782
H	3.94597	-0.840939	-0.113648
H	4.0098	0.961061	-0.134613
C	5579.5	2.74305	0.458526
C	5579.27	1.2873	0.313176
O	5580.21	0.508173	0.218439
H	5580.59	2.94754	0.455225
H	5579.07	3.10301	1.41681
H	5579.03	3.28956	-0.385825
N	5578	0.88416	0.28624
C	5577.62	-0.499624	0.150287
C	5576.19	-0.544023	-0.358062
O	5575.49	0.463204	-0.340776
H	5577.24	1.5316	0.335028
H	5578.25	-0.965052	-0.597169
C	5577.73	-1.2473	1.49807
H	5577.08	-0.766775	2.26273
H	5577.44	-2.31312	1.39696
H	5578.78	-1.2065	1.8603
N	5575.74	-1.71554	-0.845476
C	5574.39	-1.84982	-1.36218
H	5576.33	-2.51747	-0.857444
H	5574.21	-2.88883	-1.71427
H	5574.23	-1.15574	-2.21836
H	5573.64	-1.60854	-0.574787
