44
  This energy is 1.4572e-319 and Call times are: 48033
C	-1.71905	-0.329912	-3.01034
C	-1.68812	-0.119853	-1.54538
O	-2.70334	0.166541	-0.92586
H	-2.75603	-0.178475	-3.38128
H	-1.39715	-1.3639	-3.25544
H	-1.04713	0.395597	-3.51542
N	-0.4998	-0.25448	-0.951968
C	-0.310183	-0.0813956	0.4661
C	1.15793	0.211138	0.707566
O	1.99067	0.0201044	-0.176679
H	0.325241	-0.459394	-1.47183
H	-0.875796	0.781534	0.793984
C	-0.736121	-1.34359	1.24875
H	-0.154369	-2.22706	0.909393
H	-0.591569	-1.21369	2.341
H	-1.81305	-1.54778	1.06256
N	1.50705	0.705195	1.91173
C	2.87956	1.0249	2.22826
H	0.817479	0.859517	2.61167
H	2.96285	1.41645	3.26605
H	3.27418	1.79763	1.5294
H	3.52384	0.120109	2.14204
C	2281.54	0.722325	-3.17469
C	2280.79	-0.143145	-2.23469
O	2280.16	-1.11624	-2.6321
H	2281.41	0.336378	-4.20947
H	2282.62	0.719567	-2.92037
H	2281.15	1.76184	-3.12868
N	2280.83	0.202709	-0.946029
C	2280.16	-0.540625	0.0872498
C	2279.98	0.376639	1.28176
O	2280.6	1.43785	1.35571
H	2281.32	1.01442	-0.638448
H	2279.17	-0.815433	-0.264686
C	2280.96	-1.79539	0.494924
H	2281.97	-1.50986	0.85483
H	2280.44	-2.37016	1.29026
H	2281.09	-2.45851	-0.388966
N	2279.11	-0.00404282	2.2396
C	2278.87	0.810673	3.40752
H	2278.62	-0.863002	2.15802
H	2278.13	0.326451	4.0777
H	2278.48	1.81157	3.11417
H	2279.81	0.963447	3.98197
