44
  This energy is 1.35246e-319 and Call times are: 59835
C	-1.07364	1.4931	2.95704
C	-0.724394	0.29997	2.1535
O	-0.669214	-0.811209	2.66216
H	-1.24806	1.18752	4.01158
H	-1.99843	1.96339	2.56154
H	-0.243489	2.22999	2.929
N	-0.471221	0.509785	0.859577
C	-0.118376	-0.550988	-0.0498674
C	0.586648	0.0706653	-1.23971
O	0.547508	1.28485	-1.42961
H	-0.490993	1.42385	0.463318
H	0.583867	-1.2144	0.438823
C	-1.36832	-1.32826	-0.519557
H	-2.0869	-0.64453	-1.01984
H	-1.10022	-2.14588	-1.21984
H	-1.8764	-1.77775	0.361327
N	1.26995	-0.750954	-2.06071
C	1.98196	-0.247579	-3.21216
H	1.29558	-1.72977	-1.88606
H	2.47849	-1.07772	-3.76131
H	2.76288	0.484093	-2.90223
H	1.28425	0.267591	-3.91144
C	2835.76	-2.44491	1.76399
C	2835.88	-1.0773	1.21094
O	2834.94	-0.29286	1.2502
H	2834.73	-2.58601	2.17141
H	2836.49	-2.59396	2.58215
H	2835.93	-3.19747	0.966866
N	2837.06	-0.759938	0.669225
C	2837.33	0.531823	0.0910874
C	2838.5	0.380344	-0.856562
O	2839.2	-0.6312	-0.835121
H	2837.8	-1.4175	0.61716
H	2836.47	0.84307	-0.493396
C	2837.66	1.57772	1.18002
H	2838.54	1.25493	1.77816
H	2837.87	2.57356	0.73833
H	2836.79	1.67852	1.86835
N	2838.74	1.38006	-1.73012
C	2839.82	1.31849	-2.67832
H	2838.15	2.18728	-1.73664
H	2839.85	2.23548	-3.30737
H	2839.71	0.436282	-3.34926
H	2840.8	1.22778	-2.15047
