44
  This energy is 1.20932e-319 and Call times are: 72099
C	3.13977	-1.16001	-0.960375
C	2.05273	-1.01855	0.0343694
O	2.09129	-1.61374	1.10243
H	3.91039	-1.85729	-0.565639
H	3.61242	-0.174019	-1.15339
H	2.73788	-1.56937	-1.91108
N	1.03969	-0.217583	-0.304133
C	-0.0901354	0.0206953	0.558153
C	-1.23692	0.514494	-0.302243
O	-1.04101	0.886399	-1.45772
H	1.00583	0.238851	-1.18926
H	-0.394833	-0.916677	1.006
C	0.243995	1.06386	1.64778
H	0.556827	2.02403	1.18485
H	-0.62374	1.2496	2.3136
H	1.08622	0.690827	2.2704
N	-2.47141	0.508574	0.238126
C	-3.62572	0.949653	-0.50968
H	-2.61044	0.197159	1.17243
H	-4.5477	0.871049	0.107586
H	-3.76224	0.328276	-1.42428
H	-3.50605	2.01062	-0.827801
C	3419.87	3.43528	-0.21365
C	3420.62	2.26262	0.289063
O	3421.66	2.39949	0.915397
H	3420.41	4.3653	0.0682571
H	3418.86	3.45983	0.233816
H	3419.79	3.39015	-1.31988
N	3420.1	1.06387	0.0152263
C	3420.72	-0.169534	0.437294
C	3420.19	-1.28017	-0.450384
O	3419.21	-1.09942	-1.16677
H	3419.27	0.964591	-0.520974
H	3421.79	-0.102016	0.280019
C	3420.4	-0.47757	1.91792
H	3419.3	-0.545483	2.07583
H	3420.87	-1.42654	2.24624
H	3420.79	0.343901	2.55758
N	3420.85	-2.45541	-0.439184
C	3420.43	-3.56625	-1.26039
H	3421.65	-2.57968	0.14205
H	3421.09	-4.44279	-1.10932
H	3420.45	-3.28885	-2.33914
H	3419.39	-3.8705	-1.0056
