44
  This energy is 5.74203e-320 and Call times are: 81927
C	-2.36185	-1.59721	1.99918
C	-1.04717	-1.55324	1.3203
O	-0.207577	-2.42233	1.5107
H	-2.40715	-2.49429	2.6542
H	-3.178	-1.65855	1.24887
H	-2.50116	-0.689267	2.62302
N	-0.835597	-0.518191	0.504042
C	0.39319	-0.337632	-0.226922
C	0.497719	1.12626	-0.608152
O	-0.476957	1.8704	-0.518168
H	-1.51637	0.198775	0.379759
H	1.22695	-0.568377	0.423977
C	0.428674	-1.22053	-1.49434
H	-0.428418	-0.981644	-2.15951
H	1.37355	-1.08408	-2.05948
H	0.350156	-2.29025	-1.20165
N	1.69643	1.57967	-1.02469
C	1.8939	2.9611	-1.3973
H	2.47486	0.963404	-1.08388
H	2.9459	3.1367	-1.71309
H	1.66822	3.63547	-0.53966
H	1.223	3.2402	-2.24179
C	3881.93	2.258	-2.64997
C	3881.31	1.62043	-1.46594
O	3880.25	2.02944	-1.00773
H	3881.29	3.10324	-2.98756
H	3882.02	1.52284	-3.47718
H	3882.93	2.6487	-2.3921
N	3881.97	0.590348	-0.933504
C	3881.5	-0.131905	0.219506
C	3882.68	-0.842043	0.845177
O	3883.74	-0.952661	0.233889
H	3882.85	0.285098	-1.29835
H	3881.12	0.575344	0.945516
C	3880.41	-1.15656	-0.168225
H	3880.8	-1.88016	-0.913644
H	3880.04	-1.71435	0.717264
H	3879.54	-0.623972	-0.626444
N	3882.53	-1.3232	2.09515
C	3883.61	-2.00338	2.77592
H	3881.67	-1.2174	2.57589
H	3883.29	-2.32532	3.79198
H	3884.49	-1.33299	2.88133
H	3883.93	-2.90607	2.20544
