44
  This energy is 2.34385e-320 and Call times are: 37449
C	-3.2973	-1.03108	0.436865
C	-2.29069	-0.0571993	-0.0422032
O	-2.61782	0.913174	-0.711421
H	-4.30508	-0.72094	0.0846601
H	-3.29913	-1.06474	1.54668
H	-3.07229	-2.04225	0.0370639
N	-1.02167	-0.303384	0.291475
C	0.0696508	0.552445	-0.1002
C	1.3486	-0.258429	-0.0227274
O	1.37207	-1.34128	0.559267
H	-0.764472	-1.11299	0.812371
H	-0.069246	0.849913	-1.13185
C	0.169878	1.79164	0.817121
H	0.311656	1.4828	1.87478
H	1.00907	2.45286	0.518242
H	-0.773471	2.37647	0.75229
N	2.44286	0.240473	-0.630763
C	3.70206	-0.466971	-0.619806
H	2.40181	1.11503	-1.10267
H	4.47989	0.106119	-1.17097
H	3.59564	-1.46596	-1.10141
H	4.056	-0.623295	0.424925
C	1779.35	1.3137	-2.09535
C	1778.53	0.186185	-1.6001
O	1778.56	-0.906092	-2.15024
H	1779.93	0.983617	-2.9856
H	1780.06	1.6446	-1.30827
H	1778.7	2.16409	-2.38558
N	1777.76	0.433559	-0.535106
C	1776.91	-0.562264	0.0619582
C	1775.84	0.158352	0.862464
O	1775.95	1.35418	1.12576
H	1777.73	1.33578	-0.113611
H	1776.41	-1.11695	-0.723994
C	1777.71	-1.51288	0.979421
H	1778.22	-0.940463	1.78416
H	1777.06	-2.28101	1.44068
H	1778.49	-2.03373	0.381408
N	1774.77	-0.552772	1.25116
C	1773.69	0.0517735	2.00677
H	1774.69	-1.5177	1.02212
H	1772.9	-0.695673	2.23208
H	1773.23	0.889071	1.43411
H	1774.07	0.46093	2.97064
