44
  This energy is 1.18833e-319 and Call times are: 103641
C	3.11311	-1.45762	-0.556759
C	1.6372	-1.45695	-0.670222
O	1.05316	-2.30509	-1.33056
H	3.52648	-2.30405	-1.14715
H	3.41514	-1.57863	0.504822
H	3.52798	-0.506806	-0.952704
N	0.993033	-0.483964	-0.0215912
C	-0.441895	-0.351379	-0.0367186
C	-0.781317	1.08086	0.327601
O	0.069122	1.8244	0.813127
H	1.48197	0.218205	0.489127
H	-0.801073	-0.528914	-1.04248
C	-1.10733	-1.32536	0.961116
H	-0.736089	-1.14089	1.99178
H	-2.21224	-1.22602	0.951923
H	-0.850076	-2.37092	0.684053
N	-2.03493	1.50863	0.0796549
C	-2.44601	2.85977	0.382337
H	-2.70671	0.89384	-0.320301
H	-3.51241	3.01716	0.107951
H	-1.82689	3.59448	-0.181691
H	-2.32865	3.07207	1.46969
C	4905.99	0.573456	-1.65204
C	4907.44	0.277341	-1.65492
O	4908.03	-0.00367329	-2.69123
H	4905.59	0.485633	-2.68753
H	4905.81	1.60621	-1.28564
H	4905.45	-0.147783	-1.00035
N	4908.06	0.329361	-0.472765
C	4909.47	0.0664901	-0.314836
C	4909.71	-0.298308	1.13625
O	4908.85	-0.0896686	1.99113
H	4907.56	0.530928	0.368612
H	4909.73	-0.790674	-0.919462
C	4910.31	1.29703	-0.704571
H	4910.04	2.1747	-0.0828165
H	4911.4	1.09802	-0.584292
H	4910.12	1.55478	-1.76927
N	4910.89	-0.87529	1.44469
C	4911.21	-1.26772	2.79789
H	4911.57	-1.04232	0.737497
H	4912.22	-1.7221	2.84766
H	4910.47	-2.01364	3.17405
H	4911.18	-0.386042	3.47854
