44
  This energy is 1.06303e-319 and Call times are: 116115
C	0.655238	3.37203	0.57116
C	0.52294	1.97418	1.03992
O	0.834006	1.65714	2.17975
H	1.06267	3.99843	1.39426
H	-0.337115	3.77118	0.27328
H	1.34833	3.42143	-0.294938
N	0.055628	1.09289	0.152616
C	-0.129015	-0.302878	0.460117
C	-0.156025	-1.06862	-0.848373
O	-0.284773	-0.47862	-1.91943
H	-0.166797	1.35794	-0.781843
H	0.722786	-0.653537	1.02893
C	-1.44156	-0.538088	1.24051
H	-2.31327	-0.176598	0.654374
H	-1.58679	-1.61177	1.47905
H	-1.40974	0.0290535	2.19627
N	-0.0123947	-2.40736	-0.792273
C	-0.0136684	-3.21821	-1.98756
H	0.0977483	-2.86554	0.0836129
H	0.114843	-4.29346	-1.73346
H	0.816031	-2.91715	-2.66741
H	-0.973378	-3.10092	-2.54107
C	5499.98	-3.40966	-0.40589
C	5500.22	-2.12043	0.279316
O	5500.91	-2.06158	1.29093
H	5500.5	-4.22357	0.148161
H	5500.38	-3.37307	-1.44241
H	5498.89	-3.62817	-0.434136
N	5499.65	-1.04274	-0.263943
C	5499.8	0.280692	0.287552
C	5498.65	1.12895	-0.227875
O	5497.96	0.743106	-1.16566
H	5499.07	-1.10799	-1.07159
H	5499.71	0.224854	1.36493
C	5501.15	0.912351	-0.115194
H	5501.24	0.967479	-1.22108
H	5501.27	1.93139	0.307902
H	5501.98	0.281002	0.267205
N	5498.41	2.30177	0.391822
C	5497.34	3.17035	-0.0219472
H	5498.98	2.59309	1.15346
H	5497.31	4.08614	0.608628
H	5496.36	2.64973	0.0676081
H	5497.47	3.48016	-1.08407
