44
  This energy is 1.0327e-319 and Call times are: 58617
C	0.433394	-3.39401	-0.6473
C	0.953662	-2.01217	-0.542234
O	2.15043	-1.77782	-0.638751
H	1.28146	-4.0945	-0.808449
H	-0.267323	-3.47481	-1.50479
H	-0.0935984	-3.67686	0.28823
N	0.0495512	-1.05247	-0.332662
C	0.401626	0.339474	-0.208666
C	-0.727825	1.04273	0.518663
O	-1.81843	0.494318	0.665841
H	-0.91939	-1.25952	-0.226762
H	1.29042	0.424412	0.40363
C	0.627428	0.988021	-1.59269
H	-0.286098	0.898492	-2.21844
H	0.898834	2.05979	-1.50088
H	1.45634	0.463173	-2.11575
N	-0.483481	2.27275	1.01197
C	-1.49469	3.01382	1.72922
H	0.407798	2.69661	0.888719
H	-1.10204	4.00299	2.05267
H	-1.8237	2.45424	2.63469
H	-2.38774	3.18448	1.08538
C	2777.95	-2.45932	-1.91375
C	2778.04	-1.62483	-0.694804
O	2777.16	-1.63478	0.149101
H	2776.99	-3.02865	-1.89568
H	2778.79	-3.17742	-1.95258
H	2777.96	-1.81741	-2.81959
N	2779.13	-0.867327	-0.578364
C	2779.37	-0.00288808	0.550434
C	2780.38	1.05048	0.128847
O	2781.02	0.920854	-0.907438
H	2779.83	-0.846034	-1.28665
H	2778.45	0.505185	0.802809
C	2779.91	-0.795128	1.76329
H	2780.85	-1.31563	1.50067
H	2780.09	-0.132577	2.63428
H	2779.16	-1.56422	2.06156
N	2780.51	2.135	0.916932
C	2781.44	3.19515	0.589494
H	2779.97	2.22485	1.74772
H	2781.4	3.99667	1.36008
H	2781.18	3.64696	-0.396814
H	2782.48	2.80445	0.532661
