44
  This energy is 1.28576e-319 and Call times are: 84741
C	0.858995	3.35413	-0.371546
C	0.0321796	2.17618	-0.717979
O	-0.940734	2.28014	-1.45223
H	0.43936	4.25614	-0.867688
H	1.90254	3.20496	-0.720226
H	0.856042	3.51418	0.727235
N	0.405252	1.0116	-0.182332
C	-0.298634	-0.22207	-0.426134
C	0.0447285	-1.18376	0.694802
O	0.984807	-0.954853	1.45354
H	1.18253	0.945095	0.437631
H	-1.36389	-0.0337737	-0.383244
C	0.0937822	-0.833591	-1.78965
H	1.18734	-1.02485	-1.83044
H	-0.446491	-1.78354	-1.98063
H	-0.161726	-0.119029	-2.60221
N	-0.728422	-2.27813	0.83832
C	-0.48462	-3.24364	1.88452
H	-1.48892	-2.44196	0.218613
H	-1.22539	-4.07196	1.83561
H	-0.560803	-2.76408	2.88724
H	0.535954	-3.67963	1.78697
C	4015.05	-0.222171	-3.3436
C	4014.81	0.208084	-1.94806
O	4013.86	0.925372	-1.66281
H	4014.27	0.211043	-4.0026
H	4015.01	-1.32938	-3.41532
H	4016.05	0.132675	-3.68664
N	4015.68	-0.224043	-1.03455
C	4015.58	0.109704	0.363631
C	4016.95	-0.0829572	0.990166
O	4017.83	-0.69411	0.39341
H	4016.47	-0.784007	-1.28397
H	4015.32	1.1564	0.457353
C	4014.54	-0.778724	1.079
H	4014.81	-1.85186	0.980291
H	4014.46	-0.524299	2.15574
H	4013.54	-0.629312	0.610015
N	4017.16	0.456648	2.2067
C	4018.43	0.334535	2.87608
H	4016.43	0.953717	2.67024
H	4018.41	0.842592	3.86527
H	4019.24	0.795507	2.26587
H	4018.69	-0.737123	3.0387
