44
  This energy is 6.67878e-320 and Call times are: 39045
C	2.90534	1.91737	-0.094128
C	1.93825	0.988082	-0.720536
O	2.02205	0.691262	-1.90433
H	3.6394	2.2536	-0.8583
H	3.45027	1.40608	0.727122
H	2.37579	2.80539	0.310769
N	0.979512	0.505904	0.0736193
C	-0.0333763	-0.408274	-0.390238
C	-1.20474	-0.331926	0.569616
O	-1.0863	0.216879	1.66352
H	0.904626	0.778048	1.02927
H	-0.382627	-0.0829296	-1.36196
C	0.503766	-1.8553	-0.458905
H	0.861824	-2.1856	0.5395
H	-0.273547	-2.56181	-0.815848
H	1.36214	-1.89759	-1.16428
N	-2.37602	-0.865338	0.170152
C	-3.54905	-0.829054	1.01209
H	-2.45362	-1.29876	-0.721673
H	-4.41036	-1.3201	0.507839
H	-3.83274	0.222745	1.2455
H	-3.35861	-1.35697	1.97449
C	1855.51	1.19399	-1.97127
C	1854.87	0.132846	-1.16064
O	1855.35	-0.993803	-1.10719
H	1856.41	0.780874	-2.47125
H	1855.82	2.04074	-1.32106
H	1854.81	1.5596	-2.74734
N	1853.76	0.47515	-0.505992
C	1853.03	-0.446964	0.323307
C	1851.61	0.0814198	0.469094
O	1851.34	1.23507	0.145755
H	1853.37	1.38819	-0.58082
H	1852.97	-1.404	-0.179621
C	1853.68	-0.598322	1.71366
H	1853.74	0.385455	2.22652
H	1853.12	-1.30776	2.35474
H	1854.72	-0.984916	1.59306
N	1850.67	-0.763308	0.942179
C	1849.3	-0.352267	1.10383
H	1850.92	-1.69521	1.19159
H	1848.68	-1.18687	1.50668
H	1848.87	-0.0373119	0.126965
H	1849.23	0.508451	1.80742
