44
  This energy is 9.64169e-320 and Call times are: 83481
C	-1.90983	-0.00713704	2.91181
C	-0.616074	0.121452	2.20409
O	0.396696	0.469111	2.79563
H	-1.77134	0.260685	3.98184
H	-2.27864	-1.05246	2.84785
H	-2.66077	0.67749	2.46424
N	-0.624435	-0.155658	0.89814
C	0.555595	-0.0763013	0.0746955
C	0.108771	0.0634695	-1.36754
O	-1.05723	-0.158221	-1.68867
H	-1.46198	-0.409657	0.421765
H	1.10763	0.817559	0.336129
C	1.44053	-1.3323	0.237369
H	0.870873	-2.2475	-0.031014
H	2.35009	-1.27443	-0.395182
H	1.76026	-1.42401	1.29827
N	1.02736	0.458187	-2.27108
C	0.690827	0.630013	-3.66514
H	1.96408	0.639623	-1.99025
H	1.58068	0.956652	-4.24713
H	-0.107428	1.39793	-3.78484
H	0.318613	-0.32563	-4.10033
C	3955.98	-0.599811	-3.43018
C	3955.34	-0.631327	-2.10039
O	3954.16	-0.939684	-1.97874
H	3955.24	-0.881058	-4.20833
H	3956.83	-1.32103	-3.46107
H	3956.36	0.421159	-3.64715
N	3956.1	-0.301326	-1.05817
C	3955.61	-0.285643	0.297457
C	3956.53	0.601303	1.11404
O	3957.62	0.951661	0.670821
H	3957.05	-0.0237704	-1.17343
H	3954.63	0.16172	0.310936
C	3955.58	-1.70851	0.898435
H	3956.59	-2.16473	0.882424
H	3955.2	-1.7001	1.94215
H	3954.9	-2.34859	0.29064
N	3956.1	1.00445	2.32475
C	3956.9	1.85992	3.16794
H	3955.21	0.716002	2.6627
H	3956.37	2.07829	4.12229
H	3957.12	2.8264	2.65674
H	3957.87	1.37379	3.40878
