44
  This energy is 2.05482e-320 and Call times are: 99735
C	-0.473191	1.98751	-2.81993
C	-0.905897	1.47778	-1.49927
O	-1.88346	1.94411	-0.930588
H	-1.15621	2.80406	-3.14023
H	-0.507766	1.17349	-3.57425
H	0.560474	2.38798	-2.75583
N	-0.170247	0.496125	-0.97246
C	-0.465549	-0.102859	0.304584
C	0.800752	-0.76407	0.813035
O	1.75799	-0.948565	0.063713
H	0.640926	0.14468	-1.43226
H	-0.733518	0.677381	1.00565
C	-1.59947	-1.1458	0.187961
H	-1.3215	-1.94439	-0.53253
H	-1.8295	-1.60887	1.16951
H	-2.52103	-0.649189	-0.186537
N	0.842615	-1.11805	2.11263
C	2.01077	-1.74258	2.68843
H	0.0603492	-0.953834	2.70452
H	1.84949	-1.95879	3.76754
H	2.89922	-1.0771	2.59329
H	2.24024	-2.70116	2.16916
C	4723.07	-1.44609	-3.16692
C	4722.42	-1.21176	-1.85802
O	4721.29	-1.60758	-1.63636
H	4722.37	-1.99541	-3.8323
H	4723.99	-2.05378	-3.03376
H	4723.34	-0.47782	-3.64267
N	4723.14	-0.54613	-0.950002
C	4722.65	-0.242112	0.368415
C	4723.45	0.918674	0.91431
O	4724.5	1.26405	0.372865
H	4724.06	-0.203451	-1.15265
H	4721.62	0.0822391	0.290622
C	4722.76	-1.46172	1.30939
H	4723.82	-1.79224	1.38636
H	4722.38	-1.23115	2.32538
H	4722.17	-2.30547	0.89782
N	4722.97	1.56457	1.99361
C	4723.67	2.68883	2.5758
H	4722.12	1.27443	2.4131
H	4723.11	3.08178	3.45577
H	4723.77	3.51207	1.8328
H	4724.69	2.39017	2.90968
