44
  This energy is 1.24183e-319 and Call times are: 116787
C	1.81375	1.45476	2.59232
C	0.615811	1.37579	1.72635
O	-0.369087	2.06782	1.94445
H	1.63449	2.1968	3.40046
H	2.69482	1.77641	1.99811
H	2.01967	0.465262	3.05215
N	0.673977	0.510773	0.711104
C	-0.411584	0.321442	-0.217626
C	-0.232871	-1.03415	-0.873119
O	0.830133	-1.64434	-0.775508
H	1.47086	-0.0684022	0.561229
H	-1.3446	0.30103	0.331127
C	-0.433327	1.43209	-1.29146
H	0.525588	1.45063	-1.85204
H	-1.26807	1.28944	-2.00814
H	-0.563549	2.42007	-0.798434
N	-1.28358	-1.54837	-1.54214
C	-1.21017	-2.83814	-2.18812
H	-2.13761	-1.04234	-1.60374
H	-2.17397	-3.08401	-2.686
H	-0.985584	-3.63742	-1.44518
H	-0.40532	-2.84673	-2.95839
C	5531.26	-3.1878	1.39404
C	5530.64	-2.05572	0.667682
O	5529.52	-2.15407	0.174055
H	5530.56	-4.05418	1.38492
H	5531.46	-2.90125	2.44731
H	5532.21	-3.48527	0.902261
N	5531.36	-0.939219	0.580894
C	5530.9	0.246101	-0.0936586
C	5532.11	1.08538	-0.450489
O	5533.21	0.848845	0.0497322
H	5532.28	-0.881221	0.96205
H	5530.42	-0.0423535	-1.01802
C	5529.93	1.05851	0.798377
H	5530.43	1.35221	1.74608
H	5529.57	1.9718	0.281988
H	5529.05	0.432296	1.05372
N	5531.94	2.07776	-1.34638
C	5533.04	2.92121	-1.75594
H	5531.05	2.24878	-1.7453
H	5532.7	3.67811	-2.49662
H	5533.85	2.31363	-2.22217
H	5533.47	3.45718	-0.879914
