44
  This energy is 7.09577e-320 and Call times are: 21657
C	0.646367	-0.603372	3.36813
C	-0.177797	-0.0217206	2.28478
O	-1.26339	0.490211	2.52122
H	0.112927	-0.489692	4.33683
H	1.62199	-0.077057	3.43123
H	0.820957	-1.68343	3.17856
N	0.327162	-0.0948975	1.05108
C	-0.356438	0.42651	-0.105493
C	0.208981	-0.263837	-1.33145
O	1.25269	-0.910285	-1.26354
H	1.19937	-0.540416	0.867501
H	-1.40627	0.170644	-0.0387564
C	-0.173236	1.95597	-0.22515
H	0.904945	2.21495	-0.292736
H	-0.69846	2.36076	-1.11456
H	-0.590328	2.44984	0.679432
N	-0.483676	-0.159692	-2.4827
C	-0.0286882	-0.793386	-3.69826
H	-1.32987	0.361946	-2.51561
H	-0.732592	-0.589816	-4.53512
H	0.0445788	-1.89676	-3.56246
H	0.97813	-0.413403	-3.98655
C	1031.27	1.77344	-2.93006
C	1032.19	1.25466	-1.89525
O	1033.41	1.36061	-2.01834
H	1031.86	2.22454	-3.75641
H	1030.61	2.55137	-2.49626
H	1030.65	0.947624	-3.34006
N	1031.63	0.667279	-0.83779
C	1032.39	0.114225	0.250768
C	1031.52	-0.89172	0.97227
O	1030.31	-0.932281	0.766421
H	1030.64	0.561198	-0.763002
H	1033.24	-0.420028	-0.153041
C	1032.86	1.21602	1.23061
H	1031.98	1.76252	1.64246
H	1033.45	0.793649	2.06994
H	1033.5	1.94711	0.689684
N	1032.12	-1.7462	1.82373
C	1031.37	-2.74605	2.54629
H	1033.1	-1.70214	1.97134
H	1032.04	-3.34906	3.19627
H	1030.85	-3.43592	1.84013
H	1030.59	-2.2677	3.18948
