44
  This energy is 1.82409e-320 and Call times are: 7587
C	-2.23958	-2.55057	0.777827
C	-1.92734	-1.22368	0.200695
O	-2.76819	-0.591882	-0.424039
H	-3.29133	-2.8178	0.536444
H	-2.11935	-2.52568	1.88134
H	-1.56545	-3.32233	0.350178
N	-0.687512	-0.768795	0.396337
C	-0.234127	0.504516	-0.103611
C	1.28041	0.467555	-0.167263
O	1.91201	-0.420451	0.402262
H	-0.00291678	-1.30582	0.882001
H	-0.602619	0.637692	-1.11284
C	-0.699523	1.66382	0.805532
H	-0.320283	1.52365	1.84025
H	-0.352268	2.64574	0.4234
H	-1.81054	1.67933	0.844756
N	1.89946	1.42559	-0.884863
C	3.33771	1.46394	-1.01192
H	1.37034	2.13137	-1.34435
H	3.65423	2.32644	-1.63895
H	3.71534	0.528961	-1.48568
H	3.81819	1.56254	-0.011619
C	363.408	2.52625	0.153222
C	364.635	1.86302	0.650559
O	365.323	2.37702	1.52154
H	363.272	3.493	0.68495
H	362.522	1.88415	0.342582
H	363.495	2.72421	-0.935931
N	364.942	0.689262	0.0933943
C	366.103	-0.0758744	0.471997
C	366.424	-1.02738	-0.663961
O	365.61	-1.23176	-1.56239
H	364.389	0.29488	-0.635819
H	366.944	0.595392	0.587105
C	365.854	-0.868537	1.77462
H	364.989	-1.55568	1.65321
H	366.746	-1.45869	2.0691
H	365.618	-0.160327	2.59865
N	367.636	-1.61758	-0.660953
C	368.035	-2.52919	-1.70782
H	368.283	-1.43377	0.0711603
H	369.064	-2.91038	-1.52621
H	368.019	-2.02038	-2.69884
H	367.342	-3.40005	-1.75599
