44
  This energy is 7.73163e-320 and Call times are: 3765
C	1.9932	1.53091	2.41031
C	1.60766	0.358087	1.59358
O	2.27699	-0.665847	1.60156
H	2.9283	1.30041	2.96557
H	1.19121	1.76902	3.14034
H	2.17088	2.41084	1.75678
N	0.503727	0.487535	0.854032
C	0.00155923	-0.5657	0.00824825
C	-0.899719	0.0647256	-1.03554
O	-1.29232	1.22315	-0.910044
H	-0.0167309	1.33703	0.833763
H	0.832531	-1.02709	-0.510089
C	-0.784502	-1.61598	0.824418
H	-1.63584	-1.13911	1.3554
H	-1.17246	-2.42849	0.176269
H	-0.113593	-2.0695	1.58623
N	-1.23204	-0.681457	-2.10735
C	-2.07586	-0.161328	-3.15788
H	-0.898407	-1.6144	-2.19418
H	-2.23501	-0.926367	-3.94949
H	-1.61155	0.736496	-3.62647
H	-3.07008	0.135972	-2.75252
C	190.442	1.02425	-0.753757
C	189.159	0.385787	-1.1252
O	188.933	0.0447225	-2.27799
H	191.08	1.12031	-1.65899
H	190.975	0.40382	-0.00273597
H	190.259	2.03584	-0.334153
N	188.275	0.213384	-0.139578
C	186.984	-0.393257	-0.344675
C	186.082	0.0344156	0.796447
O	186.55	0.558206	1.80557
H	188.46	0.521958	0.789728
H	186.557	-0.0102012	-1.26288
C	187.088	-1.93411	-0.391268
H	187.527	-2.32365	0.551973
H	186.095	-2.40443	-0.549221
H	187.752	-2.23446	-1.23052
N	184.756	-0.160715	0.652058
C	183.819	0.225713	1.68094
H	184.396	-0.57962	-0.175088
H	182.778	-0.018413	1.37604
H	183.879	1.32092	1.87618
H	184.04	-0.307549	2.63392
