44
  This energy is 7.73756e-320 and Call times are: 9813
C	-2.42994	2.29774	0.970524
C	-1.05599	1.75071	1.03548
O	-0.174034	2.32792	1.65635
H	-2.47375	3.24956	1.54323
H	-3.14965	1.57799	1.41414
H	-2.71219	2.49962	-0.0842396
N	-0.840927	0.608263	0.379025
C	0.44249	-0.0465596	0.349459
C	0.467767	-0.968017	-0.854499
O	-0.568873	-1.24848	-1.45329
H	-1.56041	0.162934	-0.147251
H	1.21479	0.699076	0.209276
C	0.691482	-0.854858	1.64243
H	-0.103007	-1.61841	1.78347
H	1.6789	-1.36024	1.62306
H	0.669326	-0.16874	2.51701
N	1.66391	-1.44512	-1.25151
C	1.78707	-2.31952	-2.3945
H	2.49222	-1.20082	-0.758101
H	2.8496	-2.60462	-2.55883
H	1.41251	-1.81713	-3.31566
H	1.19362	-3.25017	-2.24319
C	471.954	-3.02383	-1.72009
C	471.198	-1.8748	-1.17287
O	470.01	-1.72329	-1.42137
H	471.277	-3.64548	-2.34461
H	472.354	-3.64769	-0.893056
H	472.795	-2.66401	-2.35046
N	471.885	-1.02345	-0.407517
C	471.288	0.140974	0.196359
C	472.401	1.11593	0.528296
O	473.577	0.756345	0.514069
H	472.86	-1.14194	-0.23628
H	470.638	0.6177	-0.526029
C	470.506	-0.227879	1.47647
H	471.176	-0.717328	2.21511
H	470.045	0.666388	1.94393
H	469.694	-0.943356	1.22008
N	472.055	2.38614	0.815282
C	473.047	3.38706	1.13175
H	471.098	2.65931	0.814588
H	472.564	4.3673	1.33976
H	473.756	3.51899	0.283067
H	473.634	3.08795	2.02979
