44
  This energy is 8.62046e-320 and Call times are: 115317
C	-0.217764	3.46291	0.294929
C	0.303549	2.14931	0.735273
O	1.16864	2.0685	1.59642
H	0.301288	4.27063	0.855311
H	-1.30767	3.52899	0.496335
H	-0.0336713	3.60337	-0.791039
N	-0.217115	1.07445	0.138666
C	0.187771	-0.27081	0.459882
C	-0.184145	-1.16115	-0.709822
O	-0.9479	-0.761024	-1.58641
H	-0.900428	1.15474	-0.582147
H	1.26494	-0.298478	0.56486
C	-0.500037	-0.772546	1.74918
H	-1.60497	-0.742196	1.63824
H	-0.190392	-1.80803	1.99951
H	-0.22056	-0.111364	2.59823
N	0.368319	-2.38922	-0.76104
C	0.0821094	-3.30201	-1.84321
H	0.98961	-2.69192	-0.0457735
H	0.629844	-4.26017	-1.70474
H	0.387703	-2.8616	-2.81988
H	-1.00834	-3.52518	-1.8912
C	5463.06	-2.92714	0.895946
C	5462.62	-1.54009	1.17499
O	5462.8	-1.02983	2.2724
H	5463.53	-3.3562	1.80893
H	5463.81	-2.93601	0.0729251
H	5462.19	-3.55215	0.61098
N	5462.03	-0.892284	0.171209
C	5461.55	0.462128	0.289447
C	5460.51	0.684788	-0.790353
O	5460.39	-0.110351	-1.72038
H	5461.86	-1.32888	-0.709058
H	5461.06	0.58006	1.24777
C	5462.7	1.48048	0.135208
H	5463.2	1.35624	-0.84872
H	5462.34	2.52437	0.225869
H	5463.46	1.30608	0.931216
N	5459.72	1.76742	-0.678807
C	5458.69	2.05442	-1.65287
H	5459.82	2.39515	0.084971
H	5458.14	2.98747	-1.38725
H	5457.95	1.22088	-1.70335
H	5459.13	2.18401	-2.6662
