44
  This energy is 1.00508e-319 and Call times are: 90033
C	0.0628213	-3.12195	-1.5413
C	0.686865	-2.06788	-0.710215
O	1.74881	-2.26196	-0.134812
H	0.701594	-4.03158	-1.52142
H	-0.0342761	-2.77393	-2.59119
H	-0.941289	-3.37912	-1.14309
N	0.0254031	-0.911411	-0.624089
C	0.505424	0.208129	0.146
C	-0.677523	1.10744	0.447853
O	-1.74267	0.966925	-0.150103
H	-0.853305	-0.775634	-1.07395
H	0.89248	-0.154187	1.08992
C	1.58939	0.99624	-0.622774
H	1.18913	1.36589	-1.5909
H	1.96132	1.85889	-0.0326152
H	2.44986	0.326125	-0.838852
N	-0.522814	2.04379	1.40457
C	-1.59773	2.93741	1.76814
H	0.34468	2.13703	1.88206
H	-1.27431	3.63505	2.57185
H	-2.47863	2.36309	2.13611
H	-1.92154	3.54076	0.889341
C	4261.55	-1.44556	1.37385
C	4262.98	-1.10357	1.42522
O	4263.65	-1.30486	2.4338
H	4261.23	-1.87242	2.352
H	4261.36	-2.19715	0.57813
H	4260.94	-0.535405	1.17078
N	4263.51	-0.564197	0.320744
C	4264.89	-0.179073	0.217442
C	4265.01	0.832656	-0.90564
O	4264.09	0.998009	-1.70352
H	4262.95	-0.378328	-0.484516
H	4265.19	0.311534	1.1353
C	4265.79	-1.39944	-0.068347
H	4265.48	-1.90075	-1.01029
H	4266.86	-1.10649	-0.148347
H	4265.7	-2.13356	0.760923
N	4266.15	1.55231	-0.980135
C	4266.35	2.54692	-2.00846
H	4266.88	1.40884	-0.320764
H	4267.34	3.02858	-1.90228
H	4265.57	3.33927	-1.94474
H	4266.29	2.08386	-3.01998
