44
  This energy is 1.42064e-319 and Call times are: 117459
C	-1.72436	-2.53523	1.65086
C	-0.506451	-1.72617	1.41991
O	0.471219	-1.83291	2.14741
H	-1.57079	-3.18455	2.54005
H	-1.93032	-3.177	0.768521
H	-2.59522	-1.87181	1.83638
N	-0.543063	-0.880896	0.387179
C	0.563948	-0.0277392	0.0357841
C	0.0230144	1.1181	-0.797097
O	-1.11054	1.07031	-1.27103
H	-1.35606	-0.782076	-0.180456
H	0.984803	0.393023	0.94017
C	1.63968	-0.800882	-0.759307
H	1.20435	-1.23175	-1.68611
H	2.49359	-0.146969	-1.03137
H	2.02704	-1.63819	-0.138814
N	0.819073	2.19047	-0.976825
C	0.384617	3.33376	-1.74514
H	1.73045	2.21312	-0.579198
H	1.18035	4.11024	-1.77893
H	-0.527924	3.78651	-1.294
H	0.141227	3.03531	-2.79055
C	5564.46	1.83018	2.76592
C	5563.42	1.09105	2.01531
O	5562.33	0.851444	2.51487
H	5564.07	2.08417	3.77657
H	5564.72	2.76956	2.2344
H	5565.37	1.20387	2.87669
N	5563.75	0.702686	0.779707
C	5562.84	-0.0244964	-0.0735601
C	5563.66	-0.733219	-1.13091
O	5564.84	-0.436523	-1.31213
H	5564.65	0.878547	0.394688
H	5562.34	-0.782003	0.512913
C	5561.82	0.920078	-0.742415
H	5562.34	1.69632	-1.34271
H	5561.12	0.363397	-1.40001
H	5561.22	1.434	0.042676
N	5563.06	-1.70753	-1.84228
C	5563.77	-2.4452	-2.86184
H	5562.11	-1.93778	-1.67583
H	5563.11	-3.2013	-3.33431
H	5564.65	-2.97453	-2.42515
H	5564.14	-1.75893	-3.65705
