44
  This energy is 8.16098e-320 and Call times are: 3933
C	-1.02958	-2.85806	-1.70223
C	-1.18449	-1.43048	-1.34276
O	-2.02031	-0.726756	-1.89293
H	-1.75785	-3.11671	-2.50134
H	-1.22499	-3.4989	-0.816824
H	-0.00194647	-3.04919	-2.07692
N	-0.363377	-0.964128	-0.399021
C	-0.393505	0.40239	0.0576523
C	0.945452	0.708567	0.70006
O	1.72624	-0.196636	0.98783
H	0.332929	-1.54007	0.0209592
H	-0.505355	1.05678	-0.797528
C	-1.53485	0.630902	1.07364
H	-1.41736	-0.0424953	1.94933
H	-1.56102	1.68213	1.42721
H	-2.51009	0.402096	0.591247
N	1.25171	2.00223	0.920612
C	2.5088	2.39011	1.51682
H	0.609527	2.72063	0.674168
H	2.57186	3.49611	1.61698
H	3.36348	2.04562	0.890648
H	2.61913	1.93938	2.52966
C	198.327	-1.47248	-0.42447
C	196.915	-1.27637	-0.824927
O	196.478	-1.76057	-1.85985
H	198.845	-2.08475	-1.19402
H	198.378	-2.00181	0.550218
H	198.841	-0.491729	-0.339529
N	196.162	-0.543978	-0.00159124
C	194.771	-0.26577	-0.255106
C	194.388	0.963243	0.546236
O	195.122	1.38628	1.43751
H	196.537	-0.130608	0.823798
H	194.645	-0.0271338	-1.30359
C	193.876	-1.46048	0.144514
H	194.008	-1.703	1.22056
H	192.804	-1.24969	-0.049514
H	194.167	-2.35464	-0.448602
N	193.232	1.58037	0.230391
C	192.792	2.76419	0.930937
H	192.656	1.22676	-0.498858
H	191.819	3.12105	0.526949
H	193.538	3.5846	0.823666
H	192.664	2.55337	2.01743
