44
  This energy is 1.54262e-319 and Call times are: 111705
C	2.21624	1.9168	1.88157
C	1.6411	0.614174	1.47713
O	2.12882	-0.439538	1.86223
H	3.09796	1.7418	2.53563
H	1.46389	2.50924	2.44354
H	2.54084	2.48674	0.985602
N	0.57641	0.660071	0.672949
C	-0.0935405	-0.522872	0.194787
C	-0.873529	-0.145707	-1.04964
O	-1.0662	1.03413	-1.33723
H	0.206148	1.52421	0.34263
H	0.649344	-1.25621	-0.0922957
C	-1.04689	-1.10063	1.26457
H	-1.80728	-0.345473	1.55725
H	-1.56428	-2.01166	0.899734
H	-0.463582	-1.37184	2.1714
N	-1.3239	-1.14608	-1.83222
C	-2.06576	-0.882661	-3.04318
H	-1.15157	-2.09423	-1.58617
H	-2.34928	-1.83378	-3.54542
H	-1.45605	-0.279178	-3.75403
H	-2.99687	-0.313932	-2.81788
C	5295.16	1.2025	0.264793
C	5294.13	0.362682	-0.389915
O	5294.37	-0.230437	-1.43302
H	5296.09	1.18145	-0.341181
H	5295.38	0.81243	1.28018
H	5294.8	2.25179	0.341912
N	5292.94	0.298607	0.21665
C	5291.84	-0.477096	-0.298416
C	5290.56	0.0721681	0.302548
O	5290.6	0.840451	1.26188
H	5292.75	0.80969	1.05054
H	5291.79	-0.34032	-1.37094
C	5291.99	-1.97347	0.0545178
H	5292.05	-2.11007	1.15552
H	5291.15	-2.57369	-0.340704
H	5292.94	-2.36354	-0.39043
N	5289.4	-0.294777	-0.265753
C	5288.13	0.187498	0.230849
H	5289.39	-0.911729	-1.04585
H	5287.29	-0.228355	-0.367274
H	5288.08	1.29924	0.175064
H	5287.98	-0.111191	1.29432
