44
  This energy is 6.44854e-320 and Call times are: 75963
C	-1.86261	-2.49073	-1.56623
C	-1.28942	-1.86102	-0.355393
O	-1.57818	-2.26263	0.763457
H	-2.54477	-3.31477	-1.26376
H	-1.05248	-2.90916	-2.19981
H	-2.43927	-1.74285	-2.15025
N	-0.454773	-0.838765	-0.557187
C	0.18221	-0.125255	0.520767
C	0.607941	1.23142	-0.00593392
O	0.623524	1.46011	-1.21394
H	-0.250164	-0.502229	-1.47251
H	-0.541127	0.0401466	1.30912
C	1.40915	-0.895624	1.05766
H	2.14886	-1.06416	0.246152
H	1.90192	-0.349103	1.88788
H	1.08417	-1.888	1.4394
N	0.944229	2.17465	0.895864
C	1.35091	3.49919	0.487978
H	0.918339	1.97234	1.86933
H	1.58822	4.12806	1.37424
H	0.539576	3.99896	-0.0892644
H	2.25592	3.45043	-0.159911
C	3598.7	-2.23068	-1.5224
C	3599.15	-1.44165	-0.35449
O	3598.48	-1.37776	0.664858
H	3597.72	-2.69489	-1.29324
H	3599.43	-3.03397	-1.7483
H	3598.59	-1.57215	-2.40947
N	3600.32	-0.808558	-0.483132
C	3600.89	-0.00254782	0.565728
C	3601.89	0.947308	-0.0680387
O	3602.28	0.774775	-1.22254
H	3600.85	-0.844751	-1.32919
H	3600.11	0.594824	1.01664
C	3601.6	-0.877562	1.62881
H	3602.4	-1.48955	1.16268
H	3602.04	-0.260129	2.43799
H	3600.85	-1.56967	2.08468
N	3602.32	1.99106	0.670553
C	3603.26	2.95401	0.14662
H	3601.99	2.11744	1.60035
H	3603.48	3.73496	0.905446
H	3602.84	3.45471	-0.758625
H	3604.21	2.45565	-0.140125
