44
  This energy is 3.61903e-320 and Call times are: 37911
C	0.952836	2.70072	-1.981
C	-0.0697389	1.92117	-1.24761
O	-1.21104	2.34131	-1.11564
H	0.502538	3.65198	-2.33904
H	1.31816	2.1241	-2.85671
H	1.80693	2.93685	-1.31189
N	0.326795	0.751155	-0.741468
C	-0.552954	-0.119654	-0.00352296
C	0.305021	-1.04511	0.8371
O	1.51248	-1.14567	0.627879
H	1.26699	0.433335	-0.8307
H	-1.15295	0.476714	0.672069
C	-1.45297	-0.944068	-0.950847
H	-0.8342	-1.55416	-1.64297
H	-2.13174	-1.61556	-0.385915
H	-2.07549	-0.25464	-1.56184
N	-0.299569	-1.72989	1.82783
C	0.438939	-2.62556	2.68723
H	-1.2764	-1.62949	1.9858
H	-0.234648	-3.09513	3.43758
H	1.24072	-2.07583	3.23146
H	0.918886	-3.43539	2.0914
C	1798.12	1.47789	-3.05528
C	1799.08	0.844963	-2.12269
O	1800.22	0.560905	-2.47949
H	1798.61	1.61524	-4.04547
H	1797.81	2.47034	-2.66758
H	1797.23	0.832172	-3.18071
N	1798.63	0.601512	-0.888014
C	1799.45	-0.00901168	0.131225
C	1798.52	-0.597521	1.17818
O	1797.33	-0.295444	1.20489
H	1797.7	0.810965	-0.618084
H	1800.01	-0.824497	-0.308161
C	1800.4	1.02	0.781475
H	1799.82	1.85553	1.23065
H	1801.03	0.55321	1.56664
H	1801.07	1.44457	0.00403278
N	1799.05	-1.4738	2.0563
C	1798.24	-2.09415	3.08077
H	1800.02	-1.71082	2.01383
H	1798.86	-2.78122	3.70337
H	1797.41	-2.6817	2.62506
H	1797.79	-1.32317	3.74805
