44
  This energy is 3.92683e-320 and Call times are: 100449
C	2.69291	1.63666	1.4818
C	1.24076	1.39042	1.33399
O	0.432209	1.89637	2.1
H	2.86528	2.30485	2.35339
H	3.09276	2.12631	0.569011
H	3.2283	0.678848	1.6518
N	0.874263	0.588857	0.33123
C	-0.501242	0.255474	0.0598091
C	-0.518667	-1.02308	-0.755202
O	0.508756	-1.44776	-1.28044
H	1.5446	0.159479	-0.268123
H	-1.00621	0.0554785	0.996335
C	-1.21251	1.38822	-0.713558
H	-0.691468	1.59123	-1.67346
H	-2.27188	1.13487	-0.924074
H	-1.1919	2.31945	-0.106494
N	-1.69004	-1.68083	-0.861294
C	-1.80002	-2.91278	-1.6072
H	-2.50878	-1.32474	-0.423001
H	-2.84296	-3.29835	-1.57808
H	-1.12649	-3.69138	-1.18132
H	-1.51434	-2.75423	-2.6723
C	4754.14	-0.102231	-1.98641
C	4754.91	-0.512558	-0.789892
O	4754.39	-1.18112	0.0950466
H	4753.1	-0.489052	-1.90573
H	4754.61	-0.518311	-2.90322
H	4754.11	1.00528	-2.05881
N	4756.18	-0.108476	-0.734578
C	4757.06	-0.428501	0.365068
C	4758.19	0.577992	0.3664
O	4758.39	1.3037	-0.606308
H	4756.58	0.46036	-1.448
H	4756.51	-0.31164	1.29342
C	4757.62	-1.86204	0.237928
H	4758.18	-1.9786	-0.715859
H	4758.29	-2.1118	1.08311
H	4756.78	-2.58967	0.236953
N	4758.95	0.659725	1.47491
C	4760.05	1.59685	1.57192
H	4758.77	0.0687668	2.25433
H	4760.55	1.51036	2.55902
H	4759.68	2.64256	1.45627
H	4760.8	1.40492	0.774113
