44
  This energy is 1.56283e-319 and Call times are: 111789
C	-1.45758	-1.22484	-2.91571
C	-1.25058	-1.25888	-1.45038
O	-1.90919	-2.00172	-0.735597
H	-2.26216	-1.94139	-3.18971
H	-0.52346	-1.5154	-3.44088
H	-1.75967	-0.205517	-3.23612
N	-0.318385	-0.436238	-0.963914
C	-0.00247589	-0.355823	0.439854
C	0.672048	0.978993	0.689895
O	1.08727	1.6587	-0.246809
H	0.191149	0.185137	-1.55315
H	-0.923214	-0.370853	1.00914
C	0.927506	-1.51064	0.874185
H	1.87081	-1.49262	0.2877
H	1.17263	-1.45185	1.95457
H	0.422394	-2.48283	0.684815
N	0.777337	1.39669	1.96678
C	1.39372	2.65964	2.30029
H	0.428731	0.835572	2.71032
H	1.38599	2.82258	3.40058
H	0.848412	3.50262	1.81732
H	2.45073	2.68598	1.94927
C	5292.71	-1.12549	0.823382
C	5294.09	-1.36031	0.332572
O	5294.5	-2.49306	0.126973
H	5292.19	-2.10212	0.955627
H	5292.14	-0.516149	0.0899849
H	5292.74	-0.598088	1.80016
N	5294.84	-0.275334	0.136904
C	5296.2	-0.342262	-0.338126
C	5296.89	0.950404	0.0474365
O	5296.24	1.92219	0.428545
H	5294.5	0.640398	0.335814
H	5296.71	-1.15224	0.167689
C	5296.25	-0.536082	-1.87009
H	5295.72	0.296258	-2.3858
H	5297.29	-0.588184	-2.23919
H	5295.74	-1.4857	-2.13966
N	5298.24	0.983807	-0.0226648
C	5298.98	2.16735	0.335963
H	5298.74	0.184717	-0.326659
H	5300.07	1.99706	0.209759
H	5298.79	2.44543	1.39778
H	5298.68	3.02861	-0.305261
