44
  This energy is 2.78752e-320 and Call times are: 80751
C	2.69635	1.124	-1.89537
C	1.3894	0.440638	-1.76854
O	0.764155	0.0827471	-2.75721
H	2.95061	1.23348	-2.97205
H	3.48975	0.527695	-1.39762
H	2.64753	2.13248	-1.43327
N	0.939299	0.247456	-0.526579
C	-0.314803	-0.402997	-0.242033
C	-0.74468	0.00423763	1.15389
O	0.0457119	0.551506	1.92045
H	1.44424	0.569649	0.269764
H	-1.06377	-0.0418292	-0.935349
C	-0.1841	-1.93994	-0.330499
H	0.585536	-2.30698	0.381582
H	-1.14798	-2.44394	-0.112108
H	0.132417	-2.22524	-1.35742
N	-2.02221	-0.235573	1.50944
C	-2.52457	0.128362	2.81381
H	-2.64838	-0.672948	0.872388
H	-3.59611	-0.152407	2.9149
H	-2.43305	1.22655	2.97769
H	-1.94925	-0.389421	3.61511
C	3826.42	-2.41412	2.47399
C	3826.38	-1.00423	2.02505
O	3826.44	-0.0827826	2.82747
H	3826.5	-2.44433	3.58223
H	3827.3	-2.92886	2.03428
H	3825.49	-2.94198	2.16783
N	3826.27	-0.803844	0.709908
C	3826.21	0.51049	0.121342
C	3825.58	0.381176	-1.24971
O	3825.44	-0.720487	-1.77917
H	3826.19	-1.5629	0.0689296
H	3825.57	1.13942	0.723576
C	3827.62	1.13015	-0.00214851
H	3828.28	0.482049	-0.620025
H	3827.58	2.14228	-0.454826
H	3828.08	1.21843	1.00868
N	3825.15	1.50958	-1.84945
C	3824.52	1.48282	-3.15021
H	3825.26	2.39072	-1.40159
H	3824.24	2.50988	-3.4733
H	3823.6	0.859092	-3.12855
H	3825.21	1.05151	-3.91077
