44
  This energy is 5.45646e-320 and Call times are: 69495
C	-3.30405	0.841103	-0.708476
C	-1.84648	1.04962	-0.86088
O	-1.40362	1.85251	-1.67065
H	-3.84584	1.49982	-1.42151
H	-3.62057	1.09347	0.325421
H	-3.56448	-0.215993	-0.92681
N	-1.05681	0.313449	-0.0754858
C	0.381096	0.404066	-0.107626
C	0.941848	-0.874751	0.483493
O	0.219309	-1.64698	1.11073
H	-1.42884	-0.358243	0.559622
H	0.707138	0.46058	-1.13844
C	0.885776	1.62535	0.692925
H	0.548929	1.56447	1.74978
H	1.99255	1.69822	0.670133
H	0.467055	2.55555	0.250718
N	2.24696	-1.13923	0.27674
C	2.86568	-2.33857	0.791474
H	2.81338	-0.505317	-0.239545
H	3.94335	-2.37346	0.518241
H	2.36941	-3.24573	0.376723
H	2.78397	-2.37752	1.90187
C	3297.62	-2.86643	1.55722
C	3297.08	-2.1551	0.374229
O	3297.05	-2.69186	-0.724499
H	3297.95	-3.88301	1.25494
H	3296.83	-2.9626	2.33397
H	3298.49	-2.31393	1.97673
N	3296.65	-0.907648	0.576768
C	3296.11	-0.0889182	-0.475593
C	3296.22	1.36024	-0.0428294
O	3296.47	1.65022	1.12549
H	3296.71	-0.471247	1.47056
H	3296.71	-0.212359	-1.36656
C	3294.63	-0.449062	-0.759384
H	3294.02	-0.321948	0.156916
H	3294.21	0.179371	-1.56929
H	3294.56	-1.51328	-1.07428
N	3296.05	2.30841	-0.986033
C	3296.15	3.71427	-0.669504
H	3295.86	2.05339	-1.92739
H	3295.98	4.33441	-1.57746
H	3297.16	3.956	-0.261856
H	3295.39	3.99874	0.0950223
