44
  This energy is 1.31649e-319 and Call times are: 117081
C	1.84102	-1.12204	-2.73456
C	0.831413	-0.228514	-2.1234
O	0.340116	0.696536	-2.75539
H	2.03641	-0.795319	-3.77904
H	1.46781	-2.16766	-2.74899
H	2.79025	-1.07659	-2.16023
N	0.499742	-0.487481	-0.856401
C	-0.467298	0.292797	-0.126451
C	-0.218195	0.0773648	1.35368
O	0.504181	-0.838388	1.74278
H	0.928507	-1.22609	-0.34303
H	-0.30479	1.34203	-0.338067
C	-1.91158	-0.120273	-0.487765
H	-2.07461	-1.19737	-0.270039
H	-2.65874	0.47867	0.0723992
H	-2.08099	0.0411833	-1.57468
N	-0.797258	0.935488	2.21641
C	-0.607328	0.815806	3.64322
H	-1.37261	1.67443	1.88151
H	-1.1657	1.61248	4.18245
H	0.471888	0.905813	3.90482
H	-0.969268	-0.173298	4.00633
C	5547.68	-0.402413	2.59828
C	5546.31	-0.457463	2.05403
O	5545.39	-0.930357	2.70689
H	5547.69	-0.845105	3.61799
H	5548.03	0.651156	2.66071
H	5548.38	-0.979654	1.94941
N	5546.14	0.0283881	0.822228
C	5544.86	0.0445067	0.158163
C	5545.11	0.156088	-1.33312
O	5546.22	0.465929	-1.7625
H	5546.9	0.384336	0.289307
H	5544.36	-0.897931	0.337765
C	5543.99	1.22703	0.640641
H	5544.51	2.19222	0.455478
H	5543	1.24235	0.131437
H	5543.81	1.1343	1.73461
N	5544.08	-0.117009	-2.16182
C	5544.23	-0.0485617	-3.59691
H	5543.19	-0.372931	-1.79508
H	5543.27	-0.305838	-4.10377
H	5545.01	-0.759659	-3.94526
H	5544.53	0.977029	-3.91266
