44
  This energy is 5.53156e-320 and Call times are: 75585
C	3.31749	-0.421251	-0.971039
C	1.87987	-0.760495	-1.06773
O	1.46522	-1.5159	-1.93602
H	3.87332	-0.943558	-1.77981
H	3.72202	-0.746034	0.0106389
H	3.461	0.67384	-1.08561
N	1.07501	-0.194384	-0.165468
C	-0.346719	-0.427478	-0.130904
C	-0.988557	0.719047	0.625905
O	-0.304798	1.49164	1.29479
H	1.42072	0.442138	0.518827
H	-0.730916	-0.409577	-1.14291
C	-0.679998	-1.77043	0.556504
H	-0.283826	-1.78561	1.59426
H	-1.77389	-1.95313	0.584697
H	-0.203147	-2.60202	-0.00670938
N	-2.32351	0.868959	0.519061
C	-3.0202	1.93887	1.19442
H	-2.85837	0.237626	-0.0328235
H	-4.11147	1.89177	0.984312
H	-2.64058	2.93011	0.855914
H	-2.87195	1.87039	2.29647
C	3584.1	2.73608	-1.78891
C	3582.99	1.87754	-1.31093
O	3581.82	2.18807	-1.49973
H	3583.68	3.63121	-2.29554
H	3584.73	2.17842	-2.5118
H	3584.72	3.06838	-0.932616
N	3583.34	0.762783	-0.665235
C	3582.38	-0.172646	-0.141495
C	3583.06	-0.992052	0.935319
O	3584.29	-0.979875	1.05192
H	3584.3	0.535545	-0.492225
H	3581.57	0.377563	0.326481
C	3581.84	-1.10089	-1.25068
H	3582.67	-1.66329	-1.72908
H	3581.09	-1.82233	-0.850882
H	3581.34	-0.488517	-2.03384
N	3582.28	-1.7102	1.76571
C	3582.84	-2.51111	2.82821
H	3581.29	-1.70134	1.65961
H	3582.04	-3.02705	3.3988
H	3583.42	-1.87455	3.53586
H	3583.53	-3.28359	2.41591
