44
  This energy is 6.63431e-320 and Call times are: 21489
C	-2.63655	-1.40089	1.79226
C	-1.2471	-1.43237	1.28271
O	-0.462973	-2.3019	1.63704
H	-2.78854	-2.24708	2.49706
H	-3.35476	-1.50021	0.951352
H	-2.82597	-0.447551	2.32911
N	-0.906225	-0.463597	0.429692
C	0.408417	-0.360934	-0.151688
C	0.601511	1.06912	-0.617416
O	-0.354975	1.83705	-0.702586
H	-1.54541	0.255868	0.171325
H	1.14802	-0.560437	0.61333
C	0.575394	-1.33387	-1.34023
H	-0.185349	-1.12682	-2.12286
H	1.58659	-1.25754	-1.79014
H	0.430425	-2.37781	-0.986205
N	1.85518	1.46724	-0.910349
C	2.13702	2.81385	-1.35013
H	2.61687	0.832958	-0.828257
H	3.22467	2.94516	-1.54253
H	1.82621	3.55293	-0.576573
H	1.58434	3.0443	-2.28961
C	1027.25	-0.875449	-0.32649
C	1025.89	-1.12626	0.182992
O	1025.6	-2.17485	0.746024
H	1027.89	-1.7593	-0.112758
H	1027.69	0.014043	0.17373
H	1027.23	-0.707005	-1.42373
N	1024.99	-0.153742	-0.0126651
C	1023.62	-0.250408	0.426214
C	1022.8	0.733837	-0.385124
O	1023.35	1.60749	-1.05429
H	1025.23	0.683848	-0.498537
H	1023.25	-1.24442	0.208847
C	1023.49	0.0640782	1.9332
H	1023.87	1.08428	2.15275
H	1022.44	-0.00958584	2.2745
H	1024.1	-0.663056	2.51641
N	1021.46	0.599913	-0.360991
C	1020.6	1.48355	-1.11169
H	1021.04	-0.117909	0.181012
H	1019.53	1.21319	-0.960796
H	1020.83	1.42157	-2.20072
H	1020.75	2.54012	-0.788762
