44
  This energy is 7.14567e-320 and Call times are: 39213
C	1.4407	2.29402	-2.18814
C	0.543686	1.15083	-1.90586
O	-0.199613	0.70221	-2.76768
H	1.29772	2.62188	-3.24072
H	2.50004	1.99322	-2.04622
H	1.20394	3.14248	-1.51212
N	0.591259	0.651127	-0.668767
C	-0.220885	-0.460653	-0.243097
C	-0.307838	-0.421645	1.27023
O	0.450737	0.290594	1.9253
H	1.17984	1.04404	0.0327562
H	-1.22274	-0.334376	-0.633505
C	0.380509	-1.80639	-0.706175
H	1.40853	-1.93235	-0.304415
H	-0.242428	-2.66457	-0.380224
H	0.43996	-1.8219	-1.8163
N	-1.25577	-1.17517	1.86152
C	-1.42117	-1.19261	3.29627
H	-1.86468	-1.73932	1.31361
H	-2.25068	-1.87372	3.58825
H	-1.65506	-0.17211	3.67722
H	-0.488366	-1.54201	3.79525
C	1862.24	0.287572	3.20251
C	1862.38	0.259564	1.72954
O	1863.45	0.522843	1.19334
H	1863.21	0.576806	3.6611
H	1861.95	-0.716487	3.57772
H	1861.46	1.02902	3.49761
N	1861.29	-0.0602805	1.03272
C	1861.27	-0.129693	-0.406633
C	1859.83	0.0047455	-0.862807
O	1858.91	-0.108378	-0.062112
H	1860.42	-0.244249	1.47987
H	1861.82	0.712001	-0.805946
C	1861.87	-1.46268	-0.912479
H	1861.3	-2.32403	-0.500378
H	1861.86	-1.51938	-2.02038
H	1862.92	-1.54962	-0.570716
N	1859.61	0.27265	-2.16492
C	1858.27	0.429426	-2.68799
H	1860.37	0.367638	-2.7957
H	1858.3	0.643688	-3.77914
H	1857.75	1.26983	-2.17878
H	1857.68	-0.497963	-2.52744
