44
  This energy is 1.57829e-319 and Call times are: 67101
C	-3.2555	-0.429848	1.1589
C	-1.8047	-0.718067	1.21644
O	-1.32743	-1.38275	2.12578
H	-3.75747	-0.895384	2.03478
H	-3.6925	-0.8504	0.228852
H	-3.42941	0.666501	1.18579
N	-1.05967	-0.209928	0.232022
C	0.365954	-0.404339	0.150584
C	0.935759	0.689776	-0.73116
O	0.198091	1.38123	-1.43085
H	-1.45605	0.354374	-0.48727
H	0.794006	-0.287315	1.13808
C	0.711933	-1.79199	-0.434088
H	0.270689	-1.9089	-1.44688
H	1.80886	-1.94506	-0.49805
H	0.287981	-2.58465	0.220208
N	2.26855	0.886595	-0.700618
C	2.89924	1.91309	-1.49732
H	2.84773	0.321337	-0.122465
H	3.99974	1.91574	-1.33563
H	2.50294	2.91877	-1.22753
H	2.70442	1.74461	-2.58122
C	3186.14	0.234113	0.971033
C	3184.75	-0.260517	1.16776
O	3184.49	-1.07401	2.04304
H	3186.81	-0.251547	1.71078
H	3186.17	1.33388	1.11915
H	3186.49	-0.0128924	-0.0523521
N	3183.83	0.224679	0.338882
C	3182.44	-0.160651	0.406111
C	3181.81	0.142669	-0.93774
O	3182.38	0.854057	-1.75826
H	3184.06	0.86487	-0.388896
H	3182.38	-1.22988	0.564618
C	3181.7	0.601097	1.52714
H	3181.76	1.6977	1.36176
H	3180.63	0.306681	1.58179
H	3182.17	0.371425	2.50613
N	3180.61	-0.41168	-1.20282
C	3179.93	-0.188824	-2.46068
H	3180.16	-0.990249	-0.528634
H	3178.96	-0.727447	-2.48634
H	3180.56	-0.550802	-3.31005
H	3179.74	0.897011	-2.61455
