44
  This energy is 1.55216e-319 and Call times are: 98853
C	1.48443	-3.14986	0.0314474
C	0.345595	-2.25052	-0.260857
O	-0.63842	-2.65228	-0.866491
H	1.27146	-4.15895	-0.383558
H	1.63185	-3.2363	1.12854
H	2.41199	-2.75741	-0.436056
N	0.460107	-0.990733	0.165989
C	-0.564161	0.00135013	-0.0425156
C	0.0797908	1.36868	0.0797966
O	1.20471	1.493	0.560363
H	1.27926	-0.66806	0.632686
H	-0.945743	-0.0934904	-1.05121
C	-1.70516	-0.142739	0.989214
H	-1.31007	-0.045592	2.02294
H	-2.49563	0.619531	0.831451
H	-2.16785	-1.14885	0.890168
N	-0.614991	2.42982	-0.375463
C	-0.077366	3.76887	-0.311519
H	-1.52088	2.30775	-0.767501
H	-0.798946	4.50289	-0.733171
H	0.872234	3.83901	-0.88995
H	0.138778	4.05571	0.743083
C	4685.27	2.47353	-0.624258
C	4683.94	2.03605	-0.135361
O	4683.19	2.81359	0.437331
H	4685.42	3.54684	-0.375146
H	4685.33	2.34844	-1.72576
H	4686.07	1.87834	-0.139105
N	4683.62	0.757529	-0.349786
C	4682.37	0.18454	0.0670481
C	4682.55	-1.31915	0.147153
O	4683.53	-1.8635	-0.35507
H	4684.26	0.126732	-0.7916
H	4682.13	0.541185	1.06148
C	4681.24	0.533198	-0.922756
H	4681.48	0.166462	-1.94204
H	4680.27	0.0936896	-0.604733
H	4681.12	1.6374	-0.973282
N	4681.61	-2.02596	0.804007
C	4681.7	-3.46083	0.941562
H	4680.82	-1.56629	1.20973
H	4680.83	-3.85753	1.5117
H	4682.63	-3.745	1.481
H	4681.72	-3.95131	-0.0586025
