44
  This energy is 6.84182e-320 and Call times are: 70041
C	-1.25598	1.26342	2.99206
C	-1.10897	0.176642	1.99782
O	-1.53437	-0.948087	2.22257
H	-1.7758	0.869684	3.8924
H	-1.85641	2.09402	2.56495
H	-0.257522	1.64566	3.29191
N	-0.487083	0.494081	0.859905
C	-0.268727	-0.454819	-0.202515
C	0.870091	0.0606197	-1.0608
O	1.26262	1.22091	-0.953697
H	-0.119233	1.40637	0.70071
H	0.0439474	-1.39813	0.226987
C	-1.53963	-0.639926	-1.06139
H	-1.85798	0.329849	-1.49991
H	-1.37504	-1.37005	-1.8803
H	-2.36666	-1.01666	-0.420893
N	1.44395	-0.80248	-1.92205
C	2.54245	-0.404531	-2.77123
H	1.11669	-1.73932	-1.98888
H	2.87447	-1.2536	-3.40849
H	3.40951	-0.0657717	-2.1591
H	2.2402	0.43623	-3.43677
C	3322.75	-2.06718	2.78052
C	3322.83	-1.81997	1.32352
O	3323.32	-2.6484	0.56902
H	3323.19	-3.06169	3.01067
H	3321.69	-2.05919	3.10852
H	3323.31	-1.28755	3.33475
N	3322.35	-0.651416	0.891278
C	3322.37	-0.26713	-0.497608
C	3322.25	1.24346	-0.564081
O	3321.92	1.89297	0.425638
H	3321.98	0.0273635	1.51949
H	3323.32	-0.544675	-0.931085
C	3321.2	-0.922243	-1.2728
H	3320.23	-0.635934	-0.825031
H	3321.21	-0.628589	-2.34262
H	3321.3	-2.02859	-1.21551
N	3322.55	1.84174	-1.73463
C	3322.48	3.27622	-1.88874
H	3322.82	1.29929	-2.52203
H	3322.76	3.57431	-2.92356
H	3323.18	3.78122	-1.1795
H	3321.45	3.6448	-1.68302
