44
  This energy is 8.48953e-320 and Call times are: 4059
C	3.09988	-1.0956	1.14739
C	2.07375	-0.971692	0.0877252
O	2.3024	-1.3304	-1.05924
H	4.02525	-1.53272	0.713251
H	2.73438	-1.76056	1.95799
H	3.33785	-0.0961773	1.56866
N	0.90262	-0.446299	0.45486
C	-0.193408	-0.262158	-0.462552
C	-1.11728	0.789451	0.120393
O	-1.01187	1.13729	1.29501
H	0.738612	-0.130989	1.38578
H	0.192028	0.121162	-1.39881
C	-0.965485	-1.58123	-0.688515
H	-1.35893	-1.97201	0.274091
H	-1.81001	-1.44306	-1.39453
H	-0.277463	-2.34361	-1.1146
N	-2.03554	1.33832	-0.699078
C	-2.95015	2.35555	-0.235484
H	-2.10033	1.04856	-1.64833
H	-3.62785	2.67862	-1.05621
H	-2.39255	3.248	0.130388
H	-3.57401	1.97043	0.603363
C	199.962	0.0686321	-3.2539
C	201.05	0.269336	-2.27097
O	202.189	0.532388	-2.63289
H	200.368	0.189944	-4.28159
H	199.159	0.818655	-3.09402
H	199.538	-0.952893	-3.15305
N	200.718	0.141348	-0.984195
C	201.667	0.307574	0.0879863
C	201.114	-0.396715	1.31199
O	199.939	-0.754559	1.35435
H	199.794	-0.101887	-0.703298
H	202.593	-0.182021	-0.183034
C	201.908	1.80164	0.398584
H	200.955	2.30095	0.675586
H	202.638	1.93325	1.22359
H	202.312	2.30645	-0.506184
N	201.962	-0.632185	2.33316
C	201.528	-1.30732	3.53422
H	202.911	-0.341204	2.27686
H	202.369	-1.40428	4.25601
H	201.151	-2.32826	3.2966
H	200.705	-0.741365	4.02814
