44
  This energy is 1.3114e-319 and Call times are: 29721
C	-2.49403	1.21707	2.10349
C	-2.02974	0.333073	1.0107
O	-2.76316	-0.522172	0.534102
H	-3.54076	0.953498	2.36949
H	-2.46248	2.27785	1.77701
H	-1.85182	1.08729	2.99996
N	-0.777315	0.520436	0.587989
C	-0.18342	-0.260856	-0.467331
C	1.32333	-0.159132	-0.330933
O	1.83269	0.692413	0.395187
H	-0.180141	1.20097	1.00415
H	-0.456526	-1.29974	-0.332392
C	-0.626223	0.244338	-1.85867
H	-0.34508	1.3106	-1.99346
H	-0.170875	-0.35514	-2.67357
H	-1.73186	0.165749	-1.94551
N	2.07407	-1.04557	-1.01402
C	3.51628	-1.0328	-0.936223
H	1.64284	-1.73164	-1.59071
H	3.9514	-1.8369	-1.56974
H	3.85454	-1.19183	0.113317
H	3.92007	-0.0546674	-1.28464
C	1412.48	-0.124022	-2.40393
C	1413.89	0.094102	-2.00401
O	1414.77	0.263547	-2.84075
H	1412.41	-0.108362	-3.51308
H	1411.84	0.679891	-1.98974
H	1412.13	-1.10903	-2.0341
N	1414.14	0.0884657	-0.692934
C	1415.46	0.287223	-0.149689
C	1415.48	-0.284749	1.25452
O	1414.43	-0.572124	1.82885
H	1413.43	-0.0796565	-0.0222843
H	1416.18	-0.273312	-0.741773
C	1415.84	1.78564	-0.117542
H	1415.11	2.35778	0.490144
H	1416.85	1.94226	0.300057
H	1415.82	2.193	-1.15191
N	1416.68	-0.48423	1.83384
C	1416.8	-1.03564	3.16386
H	1417.52	-0.251945	1.34994
H	1417.86	-1.12095	3.46338
H	1416.34	-2.04979	3.20967
H	1416.27	-0.387001	3.90462
