44
  This energy is 4.45894e-320 and Call times are: 14643
C	2.29317	-2.16041	-1.48328
C	1.70258	-0.815577	-1.29937
O	2.20763	0.172797	-1.81371
H	3.20247	-2.07861	-2.11759
H	1.5651	-2.83278	-1.98392
H	2.57821	-2.59108	-0.500311
N	0.604156	-0.748605	-0.543498
C	-0.0844734	0.488155	-0.273233
C	-0.917812	0.293502	0.978524
O	-1.12402	-0.832387	1.42762
H	0.219036	-1.55688	-0.106102
H	0.646156	1.25954	-0.065334
C	-0.990167	0.897781	-1.45604
H	-1.73807	0.103897	-1.66702
H	-1.52179	1.84975	-1.25134
H	-0.367999	1.03611	-2.36704
N	-1.40039	1.39546	1.58582
C	-2.19408	1.30861	2.78944
H	-1.21656	2.29816	1.2109
H	-2.49793	2.32161	3.13406
H	-1.61625	0.819105	3.6066
H	-3.11523	0.70813	2.61038
C	700.541	0.047971	3.01553
C	699.464	-0.470565	2.14252
O	698.781	-1.42726	2.48104
H	700.589	-0.564169	3.94225
H	700.334	1.10322	3.29228
H	701.519	-0.0122698	2.49358
N	699.291	0.157729	0.977326
C	698.284	-0.230033	0.0222047
C	698.694	0.31102	-1.33346
O	699.582	1.15668	-1.43024
H	699.873	0.917545	0.700257
H	698.262	-1.3102	-0.0474894
C	696.894	0.320023	0.415077
H	696.92	1.42834	0.486321
H	696.116	0.0231814	-0.318155
H	696.605	-0.0827244	1.41033
N	698.069	-0.183853	-2.41965
C	698.402	0.262712	-3.75229
H	697.358	-0.872904	-2.32107
H	697.777	-0.260196	-4.50974
H	699.473	0.0574847	-3.97929
H	698.231	1.35901	-3.85353
