44
  This energy is 9.02114e-320 and Call times are: 70881
C	-0.328565	0.705042	-3.39427
C	-0.0273815	-0.222662	-2.28078
O	0.1579	-1.4148	-2.48323
H	-0.353151	0.136709	-4.34939
H	0.455418	1.48834	-3.46231
H	-1.31733	1.18488	-3.23602
N	0.0227619	0.313625	-1.05921
C	0.30492	-0.460352	0.123235
C	-0.218912	0.309493	1.31997
O	-0.53916	1.49202	1.21555
H	-0.15876	1.28101	-0.903825
H	-0.238587	-1.39514	0.0698899
C	1.82044	-0.717462	0.278855
H	2.37501	0.243621	0.33259
H	2.04122	-1.3133	1.18826
H	2.19213	-1.28098	-0.604572
N	-0.339062	-0.354426	2.48649
C	-0.839924	0.293197	3.67641
H	-0.0813613	-1.31303	2.54896
H	-0.861935	-0.417872	4.53148
H	-1.87365	0.674261	3.51078
H	-0.194047	1.15708	3.95522
C	3361.63	-3.39097	-0.196122
C	3362.45	-2.21665	-0.580087
O	3363.45	-2.3418	-1.26362
H	3362.09	-4.31133	-0.615829
H	3360.6	-3.2896	-0.598259
H	3361.59	-3.48245	0.909663
N	3362.03	-1.03068	-0.135533
C	3362.71	0.202548	-0.425989
C	3362.3	1.22309	0.616217
O	3361.33	1.01846	1.34657
H	3361.22	-0.945144	0.444854
H	3363.78	0.0437223	-0.325345
C	3362.37	0.718434	-1.84101
H	3361.27	0.879649	-1.94098
H	3362.9	1.66781	-2.06799
H	3362.68	-0.0385896	-2.59512
N	3363.04	2.34307	0.723721
C	3362.73	3.36526	1.69547
H	3363.82	2.48695	0.128345
H	3363.45	4.20705	1.62648
H	3362.77	2.95083	2.72878
H	3361.7	3.76895	1.52664
