44
  This energy is 1.49702e-321 and Call times are: 105405
C	-1.62666	-2.84936	-1.16672
C	-1.55029	-1.38491	-0.964854
O	-2.37613	-0.633553	-1.46479
H	-2.50204	-3.08633	-1.80969
H	-1.74795	-3.3643	-0.190528
H	-0.704719	-3.21569	-1.66549
N	-0.535598	-0.9412	-0.219272
C	-0.328235	0.455969	0.0666441
C	1.12494	0.640712	0.458281
O	1.82985	-0.328375	0.733626
H	0.147305	-1.56088	0.158329
H	-0.501245	1.02916	-0.835351
C	-1.25146	0.939795	1.20712
H	-1.0718	0.349196	2.13072
H	-1.0945	2.01524	1.42975
H	-2.31297	0.798049	0.908362
N	1.61419	1.89629	0.470858
C	2.98925	2.168	0.819513
H	1.02972	2.66662	0.238003
H	3.19831	3.25952	0.773426
H	3.68226	1.64853	0.118715
H	3.21083	1.81175	1.85158
C	4989.52	2.40271	-0.829574
C	4990.09	1.04376	-0.949939
O	4989.52	0.166114	-1.57656
H	4988.55	2.44047	-1.37051
H	4990.21	3.15028	-1.27551
H	4989.35	2.65163	0.238476
N	4991.26	0.836905	-0.336108
C	4991.94	-0.431692	-0.362922
C	4992.9	-0.468718	0.810181
O	4993.18	0.5574	1.42841
H	4991.71	1.55176	0.195648
H	4991.22	-1.22419	-0.220799
C	4992.72	-0.627199	-1.68719
H	4993.46	0.187899	-1.83012
H	4993.24	-1.60309	-1.71124
H	4992	-0.59689	-2.53872
N	4993.42	-1.66407	1.15852
C	4994.33	-1.79834	2.26947
H	4993.18	-2.48403	0.650233
H	4994.65	-2.8582	2.39512
H	4993.85	-1.46034	3.2161
H	4995.25	-1.18009	2.10542
