44
  This energy is 2.25689e-320 and Call times are: 93309
C	-2.35609	0.30294	2.54621
C	-1.05132	0.639472	1.93342
O	-0.335431	1.5105	2.40808
H	-2.52417	0.952748	3.43242
H	-2.36322	-0.758393	2.87231
H	-3.1763	0.470712	1.81678
N	-0.712186	-0.0523399	0.843122
C	0.525216	0.160613	0.135791
C	0.355128	-0.375432	-1.27239
O	-0.596258	-1.09986	-1.55858
H	-1.31714	-0.739226	0.44922
H	0.709992	1.22483	0.0625597
C	1.70355	-0.551695	0.836687
H	1.51037	-1.64317	0.910716
H	2.65793	-0.389666	0.29475
H	1.81691	-0.151	1.86758
N	1.26803	-0.0113196	-2.19436
C	1.18095	-0.463119	-3.56347
H	2.02674	0.581399	-1.94478
H	2.02384	-0.0579381	-4.16565
H	0.225414	-0.127652	-4.02786
H	1.21721	-1.57549	-3.61337
C	4416.95	-2.73489	-0.910024
C	4417.75	-1.98246	0.0769646
O	4417.81	-2.33438	1.24717
H	4416.45	-3.59258	-0.403501
H	4417.6	-3.12307	-1.72071
H	4416.16	-2.07757	-1.34693
N	4418.4	-0.908298	-0.381352
C	4419.22	-0.0756757	0.457324
C	4419.36	1.27553	-0.217213
O	4419.03	1.42666	-1.39317
H	4418.32	-0.615135	-1.33052
H	4418.72	0.0781926	1.40366
C	4420.62	-0.703341	0.675339
H	4421.13	-0.860426	-0.297552
H	4421.26	-0.0648798	1.32081
H	4420.51	-1.69309	1.16899
N	4419.83	2.2998	0.523516
C	4419.98	3.62508	-0.0302816
H	4420.08	2.15897	1.47543
H	4420.38	4.3274	0.734404
H	4419	4.01626	-0.387961
H	4420.68	3.61159	-0.894727
