44
  This energy is 1.09791e-319 and Call times are: 17079
C	-1.20609	-3.14183	0.894643
C	-0.821694	-2.13599	-0.1211
O	-0.790909	-2.41844	-1.31096
H	-1.4288	-4.10696	0.389887
H	-2.11138	-2.80558	1.44255
H	-0.374788	-3.29611	1.61442
N	-0.50948	-0.921079	0.335926
C	-0.116523	0.162343	-0.529296
C	0.642727	1.17427	0.306636
O	0.613509	1.12354	1.53481
H	-0.510224	-0.711591	1.31012
H	0.562007	-0.217344	-1.28263
C	-1.34449	0.830802	-1.18686
H	-2.03878	1.21859	-0.411167
H	-1.0455	1.66537	-1.85385
H	-1.89271	0.0789085	-1.79534
N	1.36199	2.10935	-0.344727
C	2.12635	3.1066	0.367631
H	1.37864	2.12939	-1.33899
H	2.64662	3.7854	-0.343558
H	2.89303	2.62449	1.01649
H	1.46182	3.72146	1.01687
C	812.211	-2.313	-0.266423
C	813.579	-1.93354	0.15138
O	814.268	-2.68958	0.822302
H	811.973	-3.32451	0.128926
H	812.141	-2.33478	-1.37436
H	811.472	-1.58748	0.135761
N	814.006	-0.730218	-0.23869
C	815.313	-0.220473	0.0893937
C	815.27	1.28989	-0.0377005
O	814.332	1.84621	-0.605622
H	813.424	-0.111672	-0.760307
H	815.534	-0.45743	1.12239
C	816.395	-0.801624	-0.848131
H	816.165	-0.557242	-1.90709
H	817.403	-0.411322	-0.598191
H	816.416	-1.9086	-0.746532
N	816.28	1.99268	0.511115
C	816.318	3.43526	0.450009
H	817.027	1.52449	0.972703
H	817.228	3.82671	0.956016
H	815.423	3.87309	0.949427
H	816.328	3.78374	-0.608126
