44
  This energy is 2.581e-320 and Call times are: 68277
C	-3.38806	-0.573127	-0.56456
C	-2.215	-0.484337	0.333916
O	-2.34106	-0.561517	1.54827
H	-4.3085	-0.703864	0.0449911
H	-3.2824	-1.44267	-1.24687
H	-3.48278	0.357003	-1.16358
N	-1.02915	-0.311298	-0.254455
C	0.202915	-0.207127	0.48581
C	1.2215	0.483922	-0.399722
O	1.01752	0.619897	-1.6046
H	-0.942983	-0.220732	-1.24304
H	0.0406143	0.420982	1.35253
C	0.724133	-1.5986	0.909176
H	0.888905	-2.24057	0.0176361
H	1.67262	-1.52206	1.47952
H	-0.0314998	-2.09487	1.55639
N	2.33894	0.958238	0.185396
C	3.35909	1.64084	-0.575883
H	2.48231	0.844608	1.16303
H	4.19893	1.95294	0.0832904
H	2.94139	2.55017	-1.06565
H	3.76634	0.976192	-1.37186
C	3236.15	-2.59879	-0.564274
C	3237.07	-1.54742	-1.04898
O	3237.36	-1.45075	-2.23557
H	3235.82	-3.21713	-1.4246
H	3235.26	-2.13682	-0.0843395
H	3236.67	-3.25361	0.168451
N	3237.58	-0.727165	-0.123497
C	3238.49	0.344345	-0.440301
C	3239.24	0.709097	0.826507
O	3238.85	0.306633	1.92262
H	3237.36	-0.834412	0.84376
H	3239.21	-0.0116751	-1.16065
C	3237.74	1.57835	-0.986569
H	3236.99	1.94054	-0.24533
H	3238.43	2.40524	-1.23167
H	3237.19	1.29773	-1.91374
N	3240.34	1.46678	0.70159
C	3241.13	1.8538	1.851
H	3240.64	1.77661	-0.19483
H	3242	2.47599	1.54267
H	3241.51	0.954776	2.38495
H	3240.51	2.44328	2.56739
