44
  This energy is 3.34631e-320 and Call times are: 68613
C	-1.32728	1.50493	-2.84599
C	-0.60898	0.399327	-2.17301
O	-0.318134	-0.625086	-2.77508
H	-1.52749	1.22342	-3.90265
H	-0.709796	2.42759	-2.83075
H	-2.29448	1.69934	-2.3364
N	-0.308102	0.584519	-0.885559
C	0.388871	-0.399473	-0.0963713
C	0.103228	-0.11222	1.36484
O	-0.397489	0.956695	1.70913
H	-0.576204	1.41148	-0.398528
H	-0.0107822	-1.37974	-0.323135
C	1.91083	-0.355711	-0.358764
H	2.3174	0.65152	-0.125741
H	2.45054	-1.11221	0.247196
H	2.10672	-0.566512	-1.4327
N	0.397101	-1.07543	2.26031
C	0.148817	-0.896099	3.67182
H	0.795211	-1.93637	1.96111
H	0.458946	-1.79851	4.24342
H	-0.934471	-0.716874	3.86052
H	0.716768	-0.0210106	4.06276
C	3255.16	2.59132	2.20018
C	3255.56	1.44658	1.35112
O	3256.73	1.17956	1.16352
H	3256.07	3.10196	2.58105
H	3254.56	2.23571	3.06393
H	3254.56	3.31643	1.60861
N	3254.56	0.737816	0.806002
C	3254.79	-0.40377	-0.0428631
C	3253.55	-0.626014	-0.873752
O	3252.49	-0.0640588	-0.585605
H	3253.61	0.982998	0.942818
H	3255.61	-0.178556	-0.722856
C	3255.11	-1.66736	0.787624
H	3254.28	-1.89511	1.48459
H	3255.29	-2.54823	0.137115
H	3256.03	-1.4913	1.39261
N	3253.64	-1.43938	-1.94375
C	3252.51	-1.70092	-2.80006
H	3254.51	-1.87918	-2.1645
H	3252.79	-2.3948	-3.62287
H	3252.13	-0.755205	-3.25243
H	3251.68	-2.16236	-2.22066
