44
  This energy is 1.03596e-319 and Call times are: 10821
C	-2.70332	-1.99989	0.904788
C	-1.28668	-1.82603	0.512223
O	-0.505219	-2.76704	0.53034
H	-2.87675	-3.05898	1.1948
H	-3.36998	-1.74656	0.0537847
H	-2.94391	-1.34641	1.76967
N	-0.918923	-0.595297	0.148339
C	0.424216	-0.269446	-0.259859
C	0.612246	1.22583	-0.0923926
O	-0.354393	1.96516	0.0831719
H	-1.5579	0.169128	0.165677
H	1.12311	-0.765024	0.401972
C	0.680061	-0.6759	-1.72835
H	-0.0390894	-0.1662	-2.40447
H	1.71339	-0.426555	-2.04588
H	0.537994	-1.77314	-1.83804
N	1.87158	1.7046	-0.121369
C	2.14854	3.1128	0.0413092
H	2.64105	1.08925	-0.257401
H	3.24227	3.30747	-0.0144156
H	1.77795	3.4747	1.02768
H	1.64551	3.70696	-0.755638
C	519.052	1.78987	-2.89192
C	519.492	0.556266	-2.20176
O	519.654	-0.488784	-2.81653
H	518.911	1.57532	-3.9736
H	519.819	2.58477	-2.78006
H	518.089	2.14369	-2.46746
N	519.691	0.652224	-0.885129
C	520.119	-0.460813	-0.0762486
C	519.745	-0.162544	1.36256
O	519.411	0.970603	1.70313
H	519.527	1.50185	-0.390973
H	519.576	-1.34661	-0.380532
C	521.643	-0.687015	-0.192818
H	522.197	0.223883	0.119475
H	521.977	-1.54341	0.428649
H	521.905	-0.903373	-1.25159
N	519.772	-1.18474	2.24028
C	519.42	-0.998127	3.62861
H	520.038	-2.09594	1.94371
H	519.506	-1.95555	4.18824
H	518.373	-0.63034	3.72237
H	520.093	-0.250254	4.10754
