44
  This energy is 1.53393e-319 and Call times are: 85707
C	-1.99685	-0.404731	2.82399
C	-0.922636	0.288565	2.07793
O	-0.41213	1.31293	2.50985
H	-2.2164	0.156517	3.75815
H	-1.67519	-1.43359	3.0901
H	-2.91996	-0.453855	2.20885
N	-0.555235	-0.262158	0.91858
C	0.47562	0.295714	0.0801628
C	0.273656	-0.23855	-1.32448
O	-0.4764	-1.19022	-1.53323
H	-0.998931	-1.08065	0.563414
H	0.355733	1.37105	0.04348
C	1.88336	-0.0800069	0.594171
H	2.00268	-1.18387	0.631167
H	2.6795	0.348063	-0.0490219
H	2.01835	0.316008	1.62427
N	0.926133	0.379949	-2.32834
C	0.78578	-0.0513325	-3.69964
H	1.52303	1.15289	-2.13988
H	1.40219	0.581158	-4.37584
H	-0.276976	0.0184641	-4.02663
H	1.11345	-1.10995	-3.81424
C	4064.84	2.00677	-0.112246
C	4064.18	0.692487	0.0569203
O	4064.84	-0.336913	0.147561
H	4065.95	1.86337	-0.142488
H	4064.59	2.67385	0.738719
H	4064.52	2.47991	-1.06204
N	4062.85	0.699692	0.0977517
C	4062.07	-0.499107	0.258131
C	4060.67	-0.212682	-0.250985
O	4060.3	0.941271	-0.462866
H	4062.33	1.54154	-0.00641994
H	4062.49	-1.28062	-0.361082
C	4062.01	-0.942648	1.73717
H	4061.58	-0.138311	2.36965
H	4061.41	-1.86553	1.86423
H	4063.04	-1.14825	2.09848
N	4059.86	-1.26544	-0.480771
C	4058.51	-1.0904	-0.977271
H	4060.18	-2.192	-0.309902
H	4058.01	-2.07381	-1.09934
H	4058.52	-0.576366	-1.96566
H	4057.91	-0.472043	-0.27252
