44
  This energy is 6.76277e-320 and Call times are: 76089
C	-0.396502	-0.74001	3.37954
C	0.144801	0.0969582	2.28516
O	0.719855	1.15084	2.52
H	-0.19219	-0.246735	4.35463
H	0.0888427	-1.73862	3.37334
H	-1.49382	-0.861946	3.26139
N	-0.0362594	-0.360138	1.04393
C	0.433649	0.341637	-0.123771
C	-0.364639	-0.150031	-1.31551
O	-1.05077	-1.16726	-1.23603
H	-0.531933	-1.20565	0.86404
H	0.230153	1.3983	-0.00486993
C	1.94141	0.0983723	-0.357419
H	2.14669	-0.98669	-0.478313
H	2.30657	0.637412	-1.25568
H	2.51498	0.461702	0.523011
N	-0.309796	0.578225	-2.44804
C	-1.04597	0.194055	-3.62984
H	0.245557	1.40226	-2.49022
H	-0.869732	0.918128	-4.45561
H	-2.13943	0.162668	-3.41865
H	-0.732234	-0.816995	-3.97701
C	3608.66	2.07431	-2.17042
C	3608.4	1.52224	-0.822003
O	3609.14	1.77223	0.118336
H	3609.59	2.6928	-2.14158
H	3607.81	2.71179	-2.49393
H	3608.81	1.25001	-2.90066
N	3607.33	0.74119	-0.699128
C	3606.94	0.131397	0.548641
C	3606.05	-1.04989	0.232914
O	3605.56	-1.19112	-0.889525
H	3606.75	0.52146	-1.47917
H	3607.83	-0.250078	1.04157
C	3606.2	1.1342	1.45917
H	3605.29	1.52405	0.950123
H	3605.9	0.66798	2.42087
H	3606.87	1.99529	1.68211
N	3605.82	-1.94228	1.21666
C	3604.99	-3.10447	1.00505
H	3606.22	-1.81415	2.11614
H	3604.92	-3.71448	1.93279
H	3605.41	-3.7441	0.194299
H	3603.96	-2.80208	0.709397
