44
  This energy is 3.94758e-321 and Call times are: 86127
C	-2.00989	2.63089	1.07929
C	-0.753704	1.84914	1.12469
O	0.203731	2.22824	1.78506
H	-1.89774	3.54289	1.70503
H	-2.85205	2.02501	1.47488
H	-2.23315	2.93649	0.0353962
N	-0.728925	0.724364	0.405917
C	0.42109	-0.142337	0.350016
C	0.30762	-0.986687	-0.904351
O	-0.750811	-1.04821	-1.52706
H	-1.50516	0.441304	-0.151097
H	1.31395	0.463178	0.259291
C	0.501553	-1.05128	1.59679
H	-0.416286	-1.67058	1.68716
H	1.386	-1.71984	1.55707
H	0.583163	-0.420799	2.50892
N	1.40945	-1.64329	-1.31768
C	1.39943	-2.46185	-2.50765
H	2.25842	-1.5751	-0.804029
H	2.39887	-2.91907	-2.67887
H	1.13518	-1.852	-3.4018
H	0.650213	-3.28115	-2.41485
C	4078.94	0.815312	-3.34154
C	4078.74	1.19531	-1.92478
O	4078.87	2.35484	-1.5568
H	4079.21	1.71913	-3.92977
H	4078.01	0.382592	-3.75645
H	4079.76	0.0723371	-3.42703
N	4078.43	0.207476	-1.08492
C	4078.2	0.420228	0.322499
C	4078.38	-0.908607	1.02966
O	4078.42	-1.95952	0.392583
H	4078.35	-0.737767	-1.39162
H	4078.95	1.1002	0.700487
C	4076.78	0.972814	0.587961
H	4076.01	0.273085	0.198327
H	4076.61	1.13794	1.67068
H	4076.66	1.94569	0.0636508
N	4078.52	-0.8896	2.37
C	4078.71	-2.10469	3.1273
H	4078.49	-0.0283497	2.86672
H	4078.8	-1.88113	4.2131
H	4079.64	-2.63131	2.79904
H	4077.85	-2.79687	2.9828
