44
  This energy is 5.11358e-321 and Call times are: 7125
C	2.90481	-1.91844	-0.08832
C	1.58333	-1.53174	-0.631783
O	1.18414	-1.97533	-1.69967
H	3.40137	-2.61931	-0.794063
H	2.78205	-2.42345	0.892862
H	3.54533	-1.02003	0.0362784
N	0.867415	-0.676716	0.102223
C	-0.436423	-0.207831	-0.293988
C	-0.712632	1.08444	0.449637
O	-0.0160828	1.42093	1.40537
H	1.21603	-0.299877	0.956272
H	-0.422275	0.0184011	-1.35262
C	-1.53067	-1.25011	0.0275358
H	-1.54194	-1.48036	1.11426
H	-2.53586	-0.892349	-0.276397
H	-1.31624	-2.1924	-0.522253
N	-1.72902	1.853	0.0111405
C	-2.05856	3.10617	0.649221
H	-2.27652	1.56684	-0.768342
H	-2.92453	3.5886	0.144646
H	-1.19376	3.80736	0.608042
H	-2.32165	2.94495	1.71972
C	342.341	1.81569	2.58855
C	342.277	1.15153	1.2672
O	341.215	1.03121	0.67068
H	341.32	2.1384	2.88746
H	342.999	2.70838	2.53642
H	342.733	1.11161	3.35227
N	343.431	0.693419	0.777005
C	343.529	0.02521	-0.496054
C	344.806	-0.792158	-0.495916
O	345.667	-0.612571	0.363159
H	344.284	0.771667	1.2858
H	342.699	-0.662015	-0.597706
C	343.546	1.03774	-1.66293
H	344.399	1.74162	-1.55512
H	343.622	0.526587	-2.64467
H	342.606	1.63096	-1.65127
N	344.948	-1.72985	-1.45327
C	346.125	-2.56406	-1.5251
H	344.237	-1.86482	-2.13523
H	346.055	-3.27057	-2.38133
H	346.244	-3.15765	-0.58976
H	347.04	-1.94239	-1.65772
