44
  This energy is 1.57266e-319 and Call times are: 92301
C	-0.402993	-3.37578	0.753557
C	-0.511775	-1.94181	1.10443
O	-1.07402	-1.58236	2.1297
H	-0.898642	-3.98503	1.54033
H	0.664616	-3.67361	0.68776
H	-0.901461	-3.57077	-0.2193
N	0.0285994	-1.07767	0.242093
C	0.0030599	0.348802	0.445438
C	0.209871	1.01511	-0.900853
O	0.609021	0.368537	-1.86752
H	0.458303	-1.38134	-0.60412
H	-0.976325	0.635169	0.8072
C	1.10304	0.795842	1.43403
H	2.10639	0.49988	1.06012
H	1.08612	1.89367	1.59301
H	0.941002	0.299957	2.41586
N	-0.0798046	2.32747	-0.999878
C	0.0747837	3.04358	-2.24465
H	-0.408437	2.83157	-0.20797
H	-0.21219	4.11126	-2.12236
H	-0.567747	2.59657	-3.03748
H	1.13215	3.00233	-2.59316
C	4373.89	2.41264	2.02149
C	4373.95	1.39137	0.951803
O	4374.97	1.23596	0.284524
H	4374.86	2.95212	2.07184
H	4373.7	1.92845	3.0018
H	4373.08	3.14416	1.80539
N	4372.85	0.665299	0.75941
C	4372.76	-0.365956	-0.242995
C	4371.29	-0.601068	-0.535618
O	4370.42	-0.153358	0.210198
H	4372.02	0.821262	1.29005
H	4373.22	-0.0128846	-1.15488
C	4373.42	-1.67688	0.235937
H	4372.94	-2.0359	1.17195
H	4373.35	-2.47303	-0.533568
H	4374.49	-1.49103	0.448057
N	4370.97	-1.29515	-1.64761
C	4369.6	-1.55783	-2.01358
H	4371.69	-1.64302	-2.24218
H	4369.55	-2.14358	-2.95785
H	4369.05	-0.604132	-2.16292
H	4369.09	-2.13695	-1.21393
