44
  This energy is 7.05328e-320 and Call times are: 33333
C	-3.11685	1.51254	0.351584
C	-1.68745	1.37768	0.71191
O	-1.14489	2.18049	1.45866
H	-3.53821	2.41199	0.850902
H	-3.68199	0.617538	0.686853
H	-3.22543	1.62759	-0.74747
N	-1.03535	0.344147	0.174378
C	0.35806	0.08038	0.430603
C	0.880828	-0.794294	-0.692294
O	0.106008	-1.35646	-1.46395
H	-1.48108	-0.286236	-0.455609
H	0.904217	1.01469	0.401283
C	0.556068	-0.625949	1.79039
H	-0.00611494	-1.58373	1.81725
H	1.62787	-0.830405	1.99092
H	0.168095	0.0244196	2.60442
N	2.21692	-0.911864	-0.822796
C	2.80624	-1.71374	-1.86964
H	2.8274	-0.443327	-0.192697
H	3.91653	-1.68545	-1.80884
H	2.50044	-1.33691	-2.8725
H	2.47727	-2.77473	-1.78445
C	1583.25	-3.45194	0.0610898
C	1582.75	-2.07833	-0.186052
O	1581.66	-1.88148	-0.699372
H	1582.49	-4.18374	-0.292219
H	1583.42	-3.60747	1.14712
H	1584.19	-3.62309	-0.490213
N	1583.56	-1.0825	0.175237
C	1583.22	0.306792	-0.000930005
C	1584.51	1.10714	0.0132695
O	1585.56	0.601087	0.403856
H	1584.46	-1.25617	0.565744
H	1582.77	0.436509	-0.973669
C	1582.28	0.800761	1.11726
H	1582.75	0.665597	2.11384
H	1582.02	1.8701	0.984593
H	1581.34	0.205838	1.09698
N	1584.46	2.37672	-0.43602
C	1585.64	3.21104	-0.470907
H	1583.61	2.7658	-0.75461
H	1585.4	4.22005	-0.870315
H	1586.43	2.75731	-1.12013
H	1586.07	3.3322	0.551264
