44
  This energy is 1.76579e-320 and Call times are: 74115
C	-2.67806	2.18894	-0.403352
C	-2.11678	0.822508	-0.308305
O	-2.84553	-0.15912	-0.265737
H	-3.78808	2.12982	-0.418286
H	-2.33181	2.68068	-1.33669
H	-2.36213	2.79437	0.472199
N	-0.785602	0.729816	-0.266461
C	-0.0923248	-0.530232	-0.174405
C	1.29823	-0.258545	0.365751
O	1.74527	0.886249	0.4037
H	-0.20361	1.53863	-0.272495
H	-0.604813	-1.16247	0.539534
C	-0.0010164	-1.22396	-1.55191
H	0.5247	-0.572322	-2.28205
H	0.532089	-2.19455	-1.48463
H	-1.02602	-1.41642	-1.93724
N	2.00928	-1.30982	0.818798
C	3.3376	-1.14598	1.36183
H	1.62724	-2.22754	0.78615
H	3.75676	-2.12649	1.67831
H	3.3194	-0.470315	2.24749
H	4.02065	-0.701282	0.60231
C	3511	1.80572	-2.29204
C	3512.29	1.25118	-1.82005
O	3513.3	1.31549	-2.51118
H	3511.14	2.2393	-3.30658
H	3510.65	2.60446	-1.60367
H	3510.23	1.00348	-2.34394
N	3512.28	0.679584	-0.613568
C	3513.46	0.096029	-0.0185927
C	3513	-0.881773	1.04777
O	3511.84	-0.879477	1.44901
H	3511.45	0.607541	-0.0725303
H	3513.99	-0.465811	-0.773933
C	3514.37	1.17728	0.604993
H	3513.82	1.75218	1.37897
H	3515.27	0.731406	1.06388
H	3514.69	1.88788	-0.186062
N	3513.91	-1.75992	1.51777
C	3513.57	-2.73595	2.5253
H	3514.84	-1.75056	1.17524
H	3514.45	-3.36445	2.78121
H	3512.75	-3.40471	2.16267
H	3513.21	-2.23359	3.45449
