44
  This energy is 1.24164e-319 and Call times are: 53283
C	0.464616	-3.18965	-1.31773
C	-0.362313	-1.98321	-1.08992
O	-1.44924	-1.84918	-1.635
H	-0.0623214	-3.86825	-2.0232
H	0.630924	-3.72593	-0.359837
H	1.4441	-2.90517	-1.75662
N	0.147067	-1.0614	-0.269451
C	-0.538812	0.165038	0.0503088
C	0.492721	1.16057	0.544377
O	1.62418	0.792008	0.853898
H	1.04656	-1.16902	0.145593
H	-0.978602	0.568086	-0.853135
C	-1.61985	-0.0603057	1.13091
H	-1.16531	-0.474451	2.05611
H	-2.15003	0.882	1.37939
H	-2.36869	-0.792274	0.75726
N	0.12972	2.45674	0.60898
C	1.0487	3.47743	1.05602
H	-0.788304	2.73602	0.34732
H	0.56308	4.47801	1.04031
H	1.94667	3.5133	0.397517
H	1.39107	3.27004	2.09571
C	2528.15	1.86586	2.84274
C	2528.54	1.23754	1.55899
O	2529.64	1.43494	1.06335
H	2528.99	2.49389	3.21097
H	2527.93	1.08447	3.59939
H	2527.26	2.5088	2.7012
N	2527.62	0.458377	0.98128
C	2527.85	-0.221402	-0.268965
C	2526.49	-0.558188	-0.868469
O	2525.47	-0.483933	-0.191825
H	2526.71	0.328719	1.38042
H	2528.35	0.453315	-0.949988
C	2528.67	-1.51039	-0.0661488
H	2528.15	-2.2	0.633546
H	2528.85	-2.03623	-1.02686
H	2529.66	-1.25027	0.374567
N	2526.46	-0.917499	-2.16678
C	2525.22	-1.2445	-2.82625
H	2527.3	-0.96474	-2.69936
H	2525.39	-1.51622	-3.88992
H	2524.52	-0.377612	-2.79881
H	2524.72	-2.10526	-2.32326
