44
  This energy is 1.42553e-319 and Call times are: 53997
C	2.65548	0.289849	2.23395
C	1.31467	-0.21713	1.86462
O	0.723283	-1.01792	2.5756
H	2.97252	-0.174785	3.19284
H	2.62583	1.39243	2.36142
H	3.39373	0.028793	1.44669
N	0.801155	0.242517	0.721206
C	-0.492826	-0.157554	0.228881
C	-0.528428	0.114503	-1.26241
O	0.328836	0.817812	-1.79372
H	1.30523	0.872303	0.136218
H	-0.609098	-1.22443	0.371486
C	-1.62774	0.615374	0.937167
H	-1.50498	1.70954	0.789386
H	-2.62548	0.309656	0.560574
H	-1.59004	0.408628	2.02895
N	-1.51561	-0.458286	-1.97892
C	-1.62285	-0.265616	-3.40635
H	-2.19567	-1.02991	-1.53172
H	-2.50005	-0.815812	-3.81262
H	-0.707418	-0.635402	-3.92258
H	-1.74345	0.814975	-3.64917
C	2557.99	-0.513162	0.491035
C	2559.23	0.279496	0.674383
O	2559.2	1.39028	1.18596
H	2557.12	0.0665949	0.87362
H	2558.06	-1.46781	1.05361
H	2557.83	-0.730199	-0.586189
N	2560.36	-0.282447	0.247523
C	2561.64	0.364662	0.357266
C	2562.58	-0.27684	-0.651166
O	2562.28	-1.33638	-1.19882
H	2560.37	-1.17569	-0.194051
H	2561.54	1.40781	0.088426
C	2562.22	0.224782	1.78225
H	2562.33	-0.846607	2.05504
H	2563.21	0.722066	1.8703
H	2561.53	0.697522	2.5116
N	2563.73	0.366341	-0.93679
C	2564.67	-0.162637	-1.89303
H	2563.95	1.22629	-0.488316
H	2565.55	0.509048	-1.98793
H	2564.2	-0.264623	-2.89678
H	2565.03	-1.16886	-1.57627
