44
  This energy is 3.91251e-320 and Call times are: 68865
C	-0.542065	-2.72776	2.09562
C	-0.784315	-1.32213	1.69975
O	-1.642	-0.64793	2.25323
H	-1.2422	-3.00487	2.91347
H	0.500286	-2.8488	2.45849
H	-0.71318	-3.4038	1.23154
N	-0.0239122	-0.84488	0.711623
C	-0.141478	0.503302	0.216236
C	0.454543	0.541167	-1.17752
O	1.14525	-0.388115	-1.59127
H	0.651455	-1.41305	0.249018
H	-1.19058	0.757111	0.132359
C	0.591632	1.50609	1.13497
H	1.66748	1.24235	1.21931
H	0.502988	2.54518	0.756535
H	0.146509	1.46786	2.15308
N	0.181049	1.61429	-1.94539
C	0.695121	1.73205	-3.29002
H	-0.385801	2.35264	-1.59503
H	0.361479	2.6851	-3.75652
H	0.337073	0.887912	-3.92285
H	1.80905	1.7137	-3.28798
C	3269.08	-0.174333	-2.21517
C	3268.2	-0.775197	-1.18956
O	3268.28	-1.96251	-0.905395
H	3269.75	-0.959157	-2.62879
H	3269.7	0.62704	-1.76319
H	3268.47	0.251272	-3.04123
N	3267.32	0.0458137	-0.606915
C	3266.4	-0.391084	0.408823
C	3265.26	0.604963	0.458965
O	3265.35	1.69744	-0.0973876
H	3267.25	1.00469	-0.867887
H	3265.99	-1.34986	0.120691
C	3267.08	-0.483697	1.79051
H	3267.51	0.501451	2.08268
H	3266.37	-0.819975	2.57493
H	3267.92	-1.21552	1.74019
N	3264.14	0.239266	1.11302
C	3262.99	1.1173	1.20297
H	3264.08	-0.651917	1.55067
H	3262.17	0.637485	1.7818
H	3262.61	1.36473	0.187649
H	3263.27	2.07065	1.70937
