44
  This energy is 4.97969e-320 and Call times are: 119937
C	-2.32977	-2.29127	1.20348
C	-0.959918	-1.73257	1.15284
O	-0.0891519	-2.12225	1.91862
H	-2.38542	-3.05488	2.0095
H	-2.58297	-2.77185	0.235101
H	-3.06372	-1.48654	1.41949
N	-0.738766	-0.786666	0.237032
C	0.54194	-0.148384	0.066109
C	0.313479	1.17183	-0.643884
O	-0.761977	1.41507	-1.188
H	-1.46406	-0.457087	-0.361516
H	0.95901	0.0702508	1.04096
C	1.50631	-1.03324	-0.754946
H	1.07502	-1.25614	-1.75416
H	2.49346	-0.544842	-0.888322
H	1.66451	-1.99767	-0.224853
N	1.31956	2.06834	-0.635593
C	1.189	3.35659	-1.27554
H	2.17967	1.85557	-0.183737
H	2.12333	3.94915	-1.16084
H	0.349633	3.93522	-0.826208
H	0.981625	3.23584	-2.36347
C	5675.87	-0.139491	-1.0251
C	5676.94	-0.394149	-0.0318481
O	5676.68	-0.800816	1.09111
H	5674.89	-0.368445	-0.569404
H	5676.02	-0.786907	-1.91563
H	5675.89	0.926073	-1.33709
N	5678.19	-0.150256	-0.429952
C	5679.34	-0.349976	0.422581
C	5680.48	0.485523	-0.125427
O	5680.42	0.970098	-1.25381
H	5678.39	0.208553	-1.33772
H	5679.11	0.0186857	1.41393
C	5679.75	-1.83884	0.474876
H	5679.98	-2.21395	-0.543879
H	5680.63	-1.99621	1.13057
H	5678.9	-2.44024	0.876871
N	5681.54	0.692065	0.674953
C	5682.67	1.48436	0.243061
H	5681.57	0.297358	1.58746
H	5683.44	1.53531	1.04091
H	5682.35	2.52306	-0.00150609
H	5683.14	1.04276	-0.668108
