44
  This energy is 1.44104e-319 and Call times are: 66513
C	0.455062	-3.25116	1.16145
C	0.484724	-1.78386	1.35469
O	0.694693	-1.29505	2.45627
H	0.638821	-3.75373	2.13589
H	1.24475	-3.55859	0.444024
H	-0.53731	-3.56657	0.775892
N	0.265329	-1.03823	0.269211
C	0.262991	0.402596	0.298059
C	-0.506763	0.891603	-0.913382
O	-0.779126	0.126003	-1.83615
H	0.0665857	-1.4485	-0.616858
H	-0.267116	0.735984	1.18119
C	1.70073	0.967946	0.277698
H	2.24188	0.623415	-0.629257
H	1.7026	2.07713	0.299978
H	2.2544	0.601484	1.16949
N	-0.89592	2.1817	-0.927764
C	-1.64342	2.73319	-2.03379
H	-0.671983	2.78352	-0.168226
H	-1.86737	3.80873	-1.85968
H	-2.60789	2.19119	-2.16527
H	-1.0654	2.64435	-2.98204
C	3156.77	-0.226439	-2.86572
C	3155.45	-0.214957	-2.18722
O	3154.41	-0.205243	-2.82789
H	3156.61	-0.217766	-3.9666
H	3157.33	-1.14141	-2.58933
H	3157.35	0.671135	-2.57807
N	3155.47	-0.209837	-0.852343
C	3154.27	-0.19906	-0.0515551
C	3154.64	0.320807	1.32541
O	3155.81	0.406588	1.67384
H	3156.33	-0.188405	-0.342032
H	3153.56	0.493656	-0.487708
C	3153.66	-1.61207	0.0597093
H	3154.39	-2.32028	0.50692
H	3152.74	-1.60736	0.675529
H	3153.4	-1.98206	-0.95558
N	3153.63	0.702261	2.13626
C	3153.88	1.22097	3.46055
H	3152.69	0.63184	1.8333
H	3152.93	1.47669	3.97078
H	3154.51	2.14024	3.40972
H	3154.42	0.469057	4.08131
