44
  This energy is 1.47078e-319 and Call times are: 85455
C	-3.47647	0.0881718	0.180327
C	-2.21667	-0.3859	-0.435605
O	-2.22186	-1.25087	-1.30065
H	-4.33315	-0.46269	-0.265216
H	-3.60994	1.17406	-0.00902324
H	-3.46062	-0.096626	1.27511
N	-1.09065	0.176612	0.00939298
C	0.212392	-0.179461	-0.492718
C	1.23941	0.229879	0.545029
O	0.934353	0.981811	1.46881
H	-1.09733	0.859378	0.73515
H	0.265584	-1.25528	-0.601636
C	0.507717	0.521264	-1.83766
H	0.451648	1.62476	-1.72244
H	1.51022	0.249178	-2.22721
H	-0.252168	0.214077	-2.5889
N	2.48271	-0.276512	0.427696
C	3.5232	0.0476597	1.37557
H	2.708	-0.889039	-0.32283
H	4.47327	-0.464765	1.10714
H	3.23174	-0.270104	2.40286
H	3.71006	1.14581	1.39384
C	4047.89	-2.72038	-0.539659
C	4048.67	-1.83402	0.35483
O	4048.59	-1.93157	1.57135
H	4047.28	-3.41318	0.0744273
H	4048.58	-3.31767	-1.1771
H	4047.22	-2.1176	-1.18496
N	4049.46	-0.930884	-0.239866
C	4050.27	0.00073382	0.495919
C	4050.59	1.16399	-0.421915
O	4050.39	1.0837	-1.6324
H	4049.49	-0.842003	-1.23164
H	4049.7	0.388044	1.32964
C	4051.58	-0.663342	0.989644
H	4052.16	-1.06015	0.131843
H	4052.21	0.0511679	1.55672
H	4051.33	-1.51453	1.66
N	4051.08	2.28684	0.140095
C	4051.41	3.44941	-0.653217
H	4051.23	2.33467	1.12241
H	4051.8	4.26847	-0.00945204
H	4050.51	3.82386	-1.1888
H	4052.18	3.20218	-1.41409
