44
  This energy is 5.7697e-320 and Call times are: 69621
C	2.96862	1.76869	0.430314
C	1.81082	1.34918	-0.391098
O	1.60657	1.83903	-1.49329
H	3.54324	2.54807	-0.115799
H	3.63422	0.901452	0.624478
H	2.61987	2.19022	1.39656
N	1.01181	0.421073	0.14048
C	-0.153493	-0.0882925	-0.537337
C	-1.07435	-0.689186	0.506785
O	-0.671498	-0.911481	1.64702
H	1.17248	0.0508912	1.05157
H	-0.678088	0.736251	-1.00317
C	0.228056	-1.15603	-1.58685
H	0.76664	-2.00011	-1.10564
H	-0.666866	-1.55025	-2.11076
H	0.903603	-0.703676	-2.34524
N	-2.34645	-0.946873	0.144356
C	-3.29829	-1.50795	1.07461
H	-2.65524	-0.753298	-0.781067
H	-4.28853	-1.64775	0.587635
H	-3.4316	-0.836203	1.95337
H	-2.94761	-2.49776	1.44673
C	3305.86	0.208704	-0.303438
C	3304.58	0.653724	0.282613
O	3304.55	1.46242	1.2
H	3306.7	0.713076	0.223923
H	3305.9	0.474291	-1.38074
H	3305.98	-0.890041	-0.18933
N	3303.47	0.120934	-0.240521
C	3302.15	0.455105	0.223148
C	3301.21	-0.663825	-0.191601
O	3301.56	-1.50323	-1.01839
H	3303.51	-0.558825	-0.968075
H	3302.15	0.494888	1.30502
C	3301.67	1.79778	-0.370457
H	3301.66	1.75367	-1.48048
H	3300.65	2.0582	-0.0153758
H	3302.36	2.60896	-0.0603592
N	3300	-0.713593	0.393382
C	3299.05	-1.74977	0.0700882
H	3299.74	-0.029234	1.0654
H	3298.11	-1.61771	0.653668
H	3299.47	-2.75545	0.302999
H	3298.79	-1.72473	-1.01408
