44
  This energy is 6.03501e-320 and Call times are: 56979
C	1.46154	-1.63897	-2.70256
C	0.44204	-0.734024	-2.12559
O	-0.317878	-0.0980858	-2.84294
H	1.39395	-1.60868	-3.81178
H	1.28624	-2.68054	-2.36018
H	2.47839	-1.31545	-2.39548
N	0.407989	-0.651681	-0.793511
C	-0.527614	0.18534	-0.0857887
C	0.0315059	0.440404	1.30042
O	0.966898	-0.229577	1.73401
H	1.05163	-1.15254	-0.22097
H	-0.599137	1.13948	-0.592318
C	-1.91609	-0.484592	0.016379
H	-1.83892	-1.46348	0.535943
H	-2.63899	0.157281	0.560619
H	-2.31422	-0.667187	-1.00553
N	-0.518407	1.43632	2.02274
C	-0.0436882	1.75973	3.34797
H	-1.26987	1.97177	1.65148
H	-0.623784	2.60585	3.77788
H	1.0315	2.0503	3.3201
H	-0.146836	0.882791	4.02732
C	2698.42	-0.445012	-1.56669
C	2699.35	-0.657507	-0.430854
O	2698.97	-1.19161	0.602355
H	2697.41	-0.830508	-1.29704
H	2698.79	-0.988418	-2.46376
H	2698.34	0.638064	-1.79805
N	2700.6	-0.230861	-0.59943
C	2701.62	-0.367239	0.414435
C	2702.71	0.644541	0.120922
O	2702.76	1.21706	-0.966058
H	2700.89	0.228993	-1.43482
H	2701.19	-0.118936	1.37709
C	2702.21	-1.79495	0.430925
H	2702.64	-2.04663	-0.55837
H	2702.99	-1.90349	1.21055
H	2701.4	-2.52671	0.645763
N	2703.6	0.904889	1.0982
C	2704.66	1.86205	0.91385
H	2703.54	0.436462	1.97341
H	2705.29	1.93391	1.82993
H	2704.25	2.87253	0.691916
H	2705.32	1.56248	0.0636083
