44
  This energy is 3.72822e-320 and Call times are: 62187
C	1.38786	-2.01337	-2.47917
C	0.50578	-0.907642	-2.04271
O	-0.0439376	-0.178167	-2.85645
H	1.43884	-2.02607	-3.58962
H	0.98483	-2.98612	-2.12681
H	2.41158	-1.86919	-2.07402
N	0.35453	-0.754524	-0.725124
C	-0.471593	0.275469	-0.147662
C	-0.0161596	0.4908	1.28253
O	0.726956	-0.318677	1.83422
H	0.830811	-1.33705	-0.0718546
H	-0.309755	1.20004	-0.68715
C	-1.96502	-0.119511	-0.175889
H	-2.12734	-1.06877	0.377898
H	-2.60398	0.671425	0.267866
H	-2.286	-0.275522	-1.22887
N	-0.436908	1.60595	1.91136
C	-0.0448394	1.90098	3.26982
H	-1.03213	2.25238	1.44545
H	-0.49414	2.86022	3.60927
H	1.06321	1.98542	3.3494
H	-0.37998	1.09312	3.95991
C	2947.61	3.14893	-0.895343
C	2947.57	1.93536	-0.0486436
O	2946.85	1.87301	0.933892
H	2946.92	3.90968	-0.47961
H	2947.3	2.90287	-1.93153
H	2948.64	3.57149	-0.911036
N	2948.37	0.930292	-0.415123
C	2948.44	-0.314293	0.307818
C	2949.76	-0.979735	-0.0403669
O	2950.43	-0.588083	-0.994627
H	2948.98	1.00427	-1.2008
H	2948.45	-0.104338	1.36986
C	2947.27	-1.24528	-0.0561966
H	2947.26	-1.45806	-1.14652
H	2947.32	-2.20446	0.498798
H	2946.31	-0.74589	0.202587
N	2950.18	-1.9939	0.744211
C	2951.42	-2.67966	0.496746
H	2949.62	-2.29148	1.516
H	2951.59	-3.48313	1.24852
H	2952.28	-1.96943	0.551708
H	2951.42	-3.14242	-0.516676
