44
  This energy is 1.44089e-319 and Call times are: 79071
C	0.328252	-2.265	2.62453
C	-0.421894	-1.69638	1.4821
O	-1.4494	-2.22144	1.07584
H	-0.190447	-3.17947	2.98585
H	0.37802	-1.52864	3.45406
H	1.35778	-2.53654	2.30945
N	0.0883927	-0.594608	0.927055
C	-0.527305	0.0744145	-0.191048
C	0.533305	0.918693	-0.870414
O	1.60619	1.14691	-0.314838
H	0.941799	-0.193013	1.24854
H	-0.863163	-0.668008	-0.903846
C	-1.70404	0.965628	0.265197
H	-1.35606	1.72568	0.99687
H	-2.1805	1.48214	-0.593275
H	-2.47349	0.335558	0.762287
N	0.263912	1.3861	-2.10531
C	1.21823	2.18858	-2.83434
H	-0.60723	1.18453	-2.54087
H	0.811251	2.47718	-3.82849
H	2.16553	1.62429	-2.99382
H	1.46105	3.11876	-2.27132
C	3745.83	-1.6461	0.132197
C	3746.97	-0.95267	0.78335
O	3746.94	-0.672917	1.97389
H	3745.04	-1.82882	0.883357
H	3746.17	-2.62085	-0.281391
H	3745.42	-1.01958	-0.686345
N	3748.01	-0.650657	0.000755007
C	3749.18	0.023062	0.488955
C	3749.89	0.653522	-0.697986
O	3749.58	0.337731	-1.84732
H	3748.01	-0.85787	-0.973923
H	3748.88	0.821633	1.15447
C	3750.14	-0.95793	1.20949
H	3750.44	-1.77624	0.524069
H	3751.04	-0.442438	1.5868
H	3749.61	-1.41387	2.07614
N	3750.83	1.58143	-0.445289
C	3751.54	2.24405	-1.5124
H	3751.05	1.82848	0.491507
H	3752.28	2.97078	-1.10207
H	3750.84	2.79602	-2.1736
H	3752.09	1.50332	-2.13688
