44
  This energy is 7.35417e-320 and Call times are: 27621
C	-0.318817	-3.26001	-1.18187
C	-0.882218	-2.0387	-0.563668
O	-2.08338	-1.92964	-0.35919
H	-1.14222	-3.97401	-1.40115
H	0.400498	-3.74325	-0.487686
H	0.198184	-3.00517	-2.13093
N	-0.011518	-1.07541	-0.253284
C	-0.407502	0.170258	0.353612
C	0.686046	1.18646	0.0876689
O	1.78954	0.829969	-0.321042
H	0.960961	-1.16437	-0.451547
H	-1.31014	0.524841	-0.127616
C	-0.625774	0.0105055	1.87478
H	0.301985	-0.354026	2.36519
H	-0.930918	0.967761	2.34523
H	-1.42828	-0.737287	2.05627
N	0.395419	2.48601	0.294297
C	1.36986	3.5253	0.056533
H	-0.505611	2.75495	0.618411
H	0.941536	4.52589	0.285887
H	1.69789	3.52016	-1.00818
H	2.2697	3.37411	0.695759
C	1313.89	-2.5904	-2.04707
C	1313.69	-1.28854	-1.37176
O	1312.7	-0.605397	-1.59641
H	1313.04	-2.78323	-2.73389
H	1313.94	-3.40721	-1.29654
H	1314.83	-2.57458	-2.63723
N	1314.65	-0.909135	-0.519426
C	1314.59	0.330718	0.213176
C	1316	0.677285	0.64663
O	1316.9	-0.15921	0.587058
H	1315.46	-1.46093	-0.366905
H	1314.25	1.11587	-0.448609
C	1313.67	0.215096	1.44776
H	1314.03	-0.59173	2.12418
H	1313.63	1.16807	2.01407
H	1312.64	-0.0402244	1.11692
N	1316.24	1.93384	1.07497
C	1317.55	2.35829	1.4965
H	1315.5	2.59827	1.10908
H	1317.54	3.42405	1.81465
H	1318.28	2.25054	0.664579
H	1317.91	1.74131	2.35292
