44
  This energy is 1.63832e-320 and Call times are: 74073
C	-1.39075	1.30742	2.91249
C	-1.0275	1.41481	1.48151
O	-1.39074	2.3682	0.806521
H	-2.00601	2.18683	3.20224
H	-0.474515	1.28766	3.53934
H	-1.9795	0.382797	3.08969
N	-0.294728	0.418216	0.979302
C	0.136788	0.381049	-0.395194
C	0.464087	-1.05834	-0.742008
O	0.586534	-1.90539	0.140791
H	-0.0296827	-0.367356	1.53208
H	-0.682544	0.694168	-1.0298
C	1.3755	1.27662	-0.620285
H	2.21389	0.95302	0.0327878
H	1.71033	1.25045	-1.67763
H	1.12307	2.32805	-0.361593
N	0.59236	-1.3735	-2.04593
C	0.891387	-2.72087	-2.47178
H	0.482524	-0.675312	-2.74572
H	0.958584	-2.77704	-3.58065
H	0.0977184	-3.42537	-2.13263
H	1.86177	-3.06211	-2.04389
C	3508.32	2.25136	-0.61329
C	3508.86	1.0447	0.0481688
O	3508.22	0.450242	0.90583
H	3507.31	2.4756	-0.196473
H	3508.22	2.07906	-1.70612
H	3508.98	3.12125	-0.432551
N	3510.08	0.654826	-0.339456
C	3510.74	-0.499948	0.211447
C	3512.23	-0.348185	-0.0420733
O	3512.65	0.492396	-0.83512
H	3510.6	1.16442	-1.01825
H	3510.59	-0.514493	1.28337
C	3510.22	-1.806	-0.43127
H	3510.38	-1.78741	-1.53101
H	3510.73	-2.69716	-0.00925805
H	3509.13	-1.90482	-0.239489
N	3513.06	-1.14922	0.646868
C	3514.5	-1.06821	0.479929
H	3512.71	-1.81825	1.28937
H	3515.01	-1.80894	1.13111
H	3514.87	-0.0514247	0.745926
H	3514.78	-1.27341	-0.577428
