44
  This energy is 8.4085e-320 and Call times are: 33837
C	-0.681636	1.7488	-2.93312
C	-0.00353433	1.61717	-1.6239
O	0.840686	2.42631	-1.26462
H	-0.289492	2.64491	-3.4614
H	-1.77582	1.86801	-2.78696
H	-0.487991	0.85063	-3.55661
N	-0.360967	0.572544	-0.873326
C	0.209229	0.310664	0.424026
C	-0.00948126	-1.1558	0.741673
O	-0.795077	-1.83188	0.0801773
H	-1.02885	-0.0958679	-1.18969
H	1.27731	0.481961	0.380025
C	-0.441342	1.19288	1.51287
H	-1.53713	1.0151	1.55481
H	-0.00452002	0.993899	2.51305
H	-0.275131	2.26458	1.26799
N	0.701672	-1.68878	1.75468
C	0.568449	-3.07935	2.12177
H	1.33766	-1.12695	2.27343
H	1.23403	-3.32545	2.97833
H	0.839832	-3.73929	1.26616
H	-0.481197	-3.30942	2.41586
C	1606.52	2.2249	2.40561
C	1607.39	1.89251	1.25527
O	1608.06	2.75313	0.696566
H	1606.6	3.31331	2.61954
H	1606.84	1.65925	3.30509
H	1605.47	1.97547	2.17119
N	1607.4	0.615069	0.867391
C	1608.2	0.137987	-0.235218
C	1607.59	-1.16688	-0.715947
O	1606.76	-1.76307	-0.0343883
H	1606.83	-0.071171	1.31223
H	1608.13	0.849408	-1.0488
C	1609.67	-0.080938	0.185702
H	1609.73	-0.810799	1.02095
H	1610.28	-0.448142	-0.66097
H	1610.1	0.881914	0.536893
N	1607.98	-1.63117	-1.91909
C	1607.45	-2.85917	-2.46393
H	1608.65	-1.13052	-2.45872
H	1607.9	-3.07205	-3.46054
H	1606.35	-2.79134	-2.58183
H	1607.68	-3.71723	-1.78935
