44
  This energy is 1.77518e-320 and Call times are: 13635
C	-2.72091	-0.902308	1.97702
C	-1.2776	-0.627861	1.79606
O	-0.515673	-0.592477	2.75246
H	-2.9347	-1.0459	3.05848
H	-3.00666	-1.82454	1.4287
H	-3.32304	-0.0480775	1.60196
N	-0.866302	-0.418481	0.54332
C	0.507261	-0.139878	0.207863
C	0.527244	0.539541	-1.14758
O	-0.469842	0.536407	-1.86705
H	-1.50183	-0.421132	-0.224164
H	0.911722	0.556882	0.931058
C	1.3497	-1.43434	0.165755
H	0.931583	-2.14714	-0.576683
H	2.4079	-1.22344	-0.0921093
H	1.32603	-1.9231	1.1641
N	1.66428	1.16017	-1.51901
C	1.77255	1.84384	-2.78671
H	2.45803	1.15763	-0.919689
H	2.78488	2.28836	-2.90856
H	1.01968	2.66203	-2.85739
H	1.5956	1.13802	-3.63032
C	651.823	-2.90505	1.62483
C	651.047	-1.64546	1.57599
O	650.248	-1.36029	2.45719
H	651.542	-3.47431	2.53749
H	652.91	-2.68334	1.66003
H	651.602	-3.52614	0.731468
N	651.266	-0.854563	0.522923
C	650.587	0.402985	0.335456
C	650.665	0.75905	-1.13645
O	651.437	0.166153	-1.88699
H	651.898	-1.11175	-0.2031
H	649.542	0.280322	0.589933
C	651.23	1.52096	1.18682
H	652.302	1.64365	0.923641
H	650.71	2.49061	1.04498
H	651.168	1.24759	2.26274
N	649.844	1.72736	-1.58913
C	649.839	2.12543	-2.97754
H	649.221	2.19039	-0.967443
H	649.097	2.93631	-3.15134
H	649.575	1.26346	-3.63239
H	650.843	2.49715	-3.28368
