44
  This energy is 1.29149e-320 and Call times are: 25437
C	1.31758	-1.39767	-2.90459
C	1.36377	-0.421153	-1.79306
O	2.33783	0.299376	-1.62416
H	2.26518	-1.34073	-3.48311
H	0.468643	-1.16652	-3.58186
H	1.20166	-2.42721	-2.50516
N	0.294582	-0.380541	-0.994592
C	0.191311	0.516725	0.128385
C	-0.84957	-0.0434355	1.07814
O	-1.61072	-0.939766	0.718874
H	-0.48048	-0.993037	-1.12522
H	1.13856	0.535213	0.652265
C	-0.211524	1.93845	-0.322773
H	-1.18339	1.91569	-0.860439
H	-0.291802	2.63195	0.539427
H	0.558292	2.33708	-1.01892
N	-0.891771	0.460645	2.32718
C	-1.84137	-0.0192194	3.304
H	-0.262612	1.18068	2.60094
H	-1.71943	0.520293	4.26904
H	-1.69686	-1.10806	3.49051
H	-2.88512	0.134182	2.9459
C	1211.68	-2.5159	-2.31021
C	1210.78	-1.50292	-1.71572
O	1209.69	-1.24268	-2.2238
H	1211.21	-2.93545	-3.22512
H	1211.86	-3.33998	-1.58786
H	1212.65	-2.0507	-2.58698
N	1211.21	-0.895665	-0.610337
C	1210.45	0.111321	0.0827879
C	1211.41	0.925248	0.927194
O	1212.56	0.528175	1.13561
H	1212.11	-1.09556	-0.222587
H	1210.01	0.778451	-0.644628
C	1209.36	-0.523893	0.978326
H	1209.82	-1.20819	1.72295
H	1208.77	0.248681	1.51338
H	1208.67	-1.11831	0.348099
N	1210.97	2.101	1.41714
C	1211.82	2.94923	2.22162
H	1210.05	2.40827	1.23139
H	1211.28	3.86942	2.5303
H	1212.73	3.25279	1.65047
H	1212.15	2.41404	3.14011
