44
  This energy is 9.27361e-321 and Call times are: 13341
C	2.12324	-1.95431	1.94901
C	1.10493	-1.80203	0.885497
O	0.776691	-2.74881	0.183812
H	2.48784	-3.00445	1.96076
H	1.68079	-1.71645	2.9392
H	2.98233	-1.27773	1.75621
N	0.579211	-0.583753	0.737936
C	-0.422133	-0.279304	-0.252745
C	-0.401512	1.21801	-0.491187
O	0.18994	1.96951	0.281644
H	0.876079	0.186187	1.2965
H	-0.15542	-0.764262	-1.1832
C	-1.82685	-0.723929	0.212207
H	-2.09698	-0.225036	1.16733
H	-2.60027	-0.491135	-0.548326
H	-1.82842	-1.82231	0.384561
N	-1.03297	1.68538	-1.5861
C	-1.05625	3.09479	-1.90107
H	-1.49981	1.06045	-2.20315
H	-1.62594	3.27887	-2.83852
H	-0.0213113	3.48396	-2.03773
H	-1.53694	3.67332	-1.07923
C	639.104	0.467803	2.56914
C	637.827	0.787911	1.89104
O	637.01	1.5395	2.40395
H	639.145	0.999222	3.54473
H	639.961	0.795932	1.94496
H	639.177	-0.625019	2.75181
N	637.624	0.209151	0.70519
C	636.432	0.423056	-0.0751587
C	636.297	-0.73357	-1.04636
O	637.238	-1.49831	-1.24788
H	638.285	-0.424103	0.311303
H	635.572	0.402118	0.58279
C	636.497	1.75996	-0.846886
H	637.38	1.7783	-1.52039
H	635.58	1.9279	-1.44869
H	636.597	2.59907	-0.124353
N	635.108	-0.901173	-1.65742
C	634.882	-1.98176	-2.58896
H	634.356	-0.275925	-1.47567
H	633.844	-1.94888	-2.98563
H	635.037	-2.9671	-2.0925
H	635.588	-1.9136	-3.44818
