44
  This energy is 9.49792e-320 and Call times are: 10485
C	0.263145	-1.6865	3.03523
C	-0.479483	-1.32641	1.80639
O	-1.54107	-1.86664	1.52767
H	-0.295078	-2.47613	3.58362
H	0.368202	-0.798109	3.69291
H	1.27045	-2.07394	2.77415
N	0.0761595	-0.393525	1.02963
C	-0.526495	0.0622415	-0.197525
C	0.562629	0.687433	-1.04734
O	1.65709	0.966163	-0.561222
H	0.955747	0.0181689	1.25272
H	-0.915125	-0.792059	-0.737165
C	-1.64555	1.09233	0.0740453
H	-1.24352	1.96709	0.628367
H	-2.11185	1.44524	-0.868715
H	-2.43652	0.622484	0.698352
N	0.292829	0.902922	-2.34994
C	1.27263	1.48288	-3.23866
H	-0.596358	0.663938	-2.72606
H	0.861051	1.58123	-4.26734
H	2.18574	0.846292	-3.2859
H	1.57511	2.49466	-2.88373
C	506.677	1.87318	0.582085
C	505.74	0.782706	0.935002
O	505.999	-0.0071732	1.83274
H	507.573	1.81513	1.23858
H	506.188	2.85946	0.727414
H	507	1.77325	-0.475617
N	504.616	0.712254	0.219176
C	503.608	-0.292581	0.444361
C	502.774	-0.407291	-0.817178
O	502.844	0.448881	-1.69689
H	504.43	1.34388	-0.528892
H	504.092	-1.24706	0.606408
C	502.707	0.0737111	1.64485
H	502.212	1.05373	1.47556
H	501.929	-0.697965	1.82113
H	503.329	0.155895	2.56238
N	501.977	-1.48672	-0.944031
C	501.157	-1.68668	-2.11567
H	501.94	-2.17211	-0.224258
H	500.573	-2.62972	-2.03067
H	501.788	-1.74652	-3.03183
H	500.442	-0.841968	-2.24357
