44
  This energy is 6.88925e-320 and Call times are: 120651
C	-0.191846	-3.01358	1.73426
C	-0.35946	-1.54501	1.6541
O	-0.892999	-0.918896	2.55953
H	-0.619098	-3.38022	2.69285
H	0.885815	-3.27825	1.69663
H	-0.722723	-3.50604	0.892482
N	0.0957001	-0.955835	0.545915
C	0.00488271	0.464936	0.322332
C	0.115827	0.709767	-1.16998
O	0.504292	-0.179012	-1.92562
H	0.502161	-1.48054	-0.197329
H	-0.970848	0.809543	0.64056
C	1.12339	1.22463	1.06994
H	2.12298	0.868149	0.741545
H	1.05633	2.3189	0.900079
H	1.03181	1.03617	2.16184
N	-0.246146	1.92241	-1.63309
C	-0.185333	2.24292	-3.04013
H	-0.564685	2.62603	-1.00645
H	-0.521874	3.28768	-3.22036
H	-0.838669	1.55797	-3.62769
H	0.855989	2.13905	-3.42228
C	5713.99	-2.80268	-1.91019
C	5714.03	-1.34459	-1.65864
O	5714.71	-0.60316	-2.35271
H	5714.65	-3.04671	-2.77167
H	5712.95	-3.11851	-2.15021
H	5714.35	-3.3563	-1.01639
N	5713.3	-0.89649	-0.63848
C	5713.24	0.495547	-0.270471
C	5712.77	0.576815	1.17044
O	5712.28	-0.403214	1.72938
H	5712.77	-1.51435	-0.062344
H	5714.23	0.915665	-0.318551
C	5712.27	1.27805	-1.18611
H	5711.25	0.84398	-1.13486
H	5712.22	2.3503	-0.905606
H	5712.62	1.2098	-2.23881
N	5712.93	1.74922	1.81464
C	5712.53	1.91692	3.19169
H	5713.34	2.52857	1.34721
H	5712.75	2.95113	3.54074
H	5713.08	1.20437	3.85043
H	5711.44	1.72625	3.30838
