44
  This energy is 5.30083e-320 and Call times are: 94611
C	1.48541	1.88951	-2.51981
C	1.29303	1.54442	-1.09324
O	1.99057	2.04486	-0.221756
H	2.3189	2.61935	-2.61196
H	0.560691	2.3463	-2.93098
H	1.73861	0.979256	-3.10313
N	0.329161	0.661538	-0.821476
C	0.0223087	0.226838	0.517817
C	-0.709222	-1.09787	0.421577
O	-1.16275	-1.48892	-0.652303
H	-0.212906	0.238947	-1.54294
H	0.94776	0.0534793	1.05219
C	-0.851051	1.26337	1.25941
H	-1.79933	1.43931	0.708117
H	-1.08907	0.931879	2.29103
H	-0.304498	2.22954	1.32222
N	-0.821928	-1.83279	1.54549
C	-1.49142	-3.11262	1.54748
H	-0.441969	-1.50236	2.40321
H	-1.48134	-3.5601	2.56577
H	-0.988762	-3.82003	0.848807
H	-2.55159	-3.00214	1.22343
C	4479.82	-1.28764	3.05094
C	4480.75	-0.466117	2.23878
O	4481.59	0.248137	2.7669
H	4480.04	-1.12244	4.12957
H	4479.96	-2.36427	2.81803
H	4478.77	-0.997968	2.84329
N	4480.61	-0.547371	0.913801
C	4481.43	0.191261	-0.00766907
C	4480.69	0.27838	-1.32885
O	4479.72	-0.433933	-1.55056
H	4479.9	-1.11056	0.496363
H	4481.56	1.1997	0.364893
C	4482.8	-0.494461	-0.209316
H	4482.67	-1.52902	-0.590942
H	4483.44	0.0717443	-0.918159
H	4483.33	-0.553203	0.765849
N	4481.13	1.17525	-2.23328
C	4480.49	1.33714	-3.51392
H	4481.92	1.74753	-2.03227
H	4481	2.12088	-4.11639
H	4479.42	1.63539	-3.38037
H	4480.51	0.383156	-4.08892
