44
  This energy is 5.80478e-320 and Call times are: 56895
C	-2.04352	2.20632	1.75565
C	-1.81041	1.24234	0.656734
O	-2.72818	0.8641	-0.0582044
H	-3.12202	2.47417	1.78665
H	-1.44884	3.12884	1.58788
H	-1.75735	1.75427	2.72863
N	-0.555916	0.813142	0.50056
C	-0.172587	-0.124898	-0.52412
C	1.13309	-0.769376	-0.10094
O	1.80095	-0.293656	0.815295
H	0.177627	1.10641	1.10789
H	-0.920396	-0.905441	-0.584185
C	-0.00137248	0.574271	-1.89122
H	0.766023	1.37486	-1.82581
H	0.293628	-0.145153	-2.68254
H	-0.964301	1.04332	-2.18939
N	1.51743	-1.8868	-0.748741
C	2.73975	-2.57603	-0.40656
H	0.959631	-2.26024	-1.48266
H	2.88114	-3.47022	-1.05283
H	2.71759	-2.91129	0.655677
H	3.61941	-1.90525	-0.538604
C	2695.26	-2.65376	0.266854
C	2695.6	-1.268	-0.131983
O	2694.81	-0.586109	-0.771721
H	2694.25	-2.90995	-0.110182
H	2695.27	-2.74531	1.37338
H	2696	-3.3647	-0.166316
N	2696.8	-0.817429	0.239223
C	2697.26	0.509002	-0.0741029
C	2698.78	0.502661	0.0178986
O	2699.37	-0.431281	0.554224
H	2697.44	-1.39265	0.734982
H	2697	0.743731	-1.09685
C	2696.68	1.55689	0.897771
H	2696.95	1.31266	1.94612
H	2697.04	2.57938	0.659268
H	2695.57	1.55081	0.821678
N	2699.44	1.54155	-0.526364
C	2700.88	1.61569	-0.497167
H	2698.94	2.28416	-0.962229
H	2701.24	2.54519	-0.993607
H	2701.33	0.742808	-1.02415
H	2701.26	1.61408	0.552799
