44
  This energy is 1.14011e-319 and Call times are: 97173
C	-3.28964	0.00429863	-1.1421
C	-1.85781	0.346711	-1.2964
O	-1.43019	0.823419	-2.3387
H	-3.82829	0.244243	-2.08451
H	-3.73646	0.592444	-0.313086
H	-3.40332	-1.07952	-0.929109
N	-1.07266	0.100935	-0.244969
C	0.341079	0.380502	-0.242839
C	0.982119	-0.467742	0.838267
O	0.293164	-1.02893	1.68811
H	-1.42761	-0.314685	0.588222
H	0.761489	0.0755441	-1.19275
C	0.618093	1.87723	0.022107
H	0.184862	2.18685	0.997075
H	1.70571	2.09601	0.0242711
H	0.142342	2.48786	-0.775976
N	2.32318	-0.598539	0.817198
C	3.02013	-1.39605	1.79924
H	2.8625	-0.142313	0.117034
H	4.11682	-1.37753	1.61434
H	2.67614	-2.45504	1.76121
H	2.83106	-1.00831	2.82642
C	4603.74	1.4933	3.03296
C	4603.96	0.487656	1.97093
O	4604.96	-0.224279	1.97693
H	4604.58	1.46461	3.75362
H	4602.79	1.26946	3.57591
H	4603.67	2.51	2.59077
N	4603.03	0.411268	1.01696
C	4603.11	-0.517452	-0.0819884
C	4602.23	0.00292328	-1.19827
O	4601.41	0.898559	-0.988185
H	4602.24	1.01681	1.00733
H	4604.13	-0.537663	-0.450932
C	4602.66	-1.93159	0.341686
H	4601.61	-1.90706	0.720278
H	4602.72	-2.64925	-0.502083
H	4603.31	-2.30097	1.16062
N	4602.39	-0.535409	-2.42352
C	4601.6	-0.0948238	-3.54996
H	4603.06	-1.25425	-2.57486
H	4601.87	-0.658693	-4.46817
H	4601.76	0.990362	-3.74302
H	4600.51	-0.2522	-3.35478
