44
  This energy is 1.41515e-319 and Call times are: 153
C	0.450008	2.4694	-2.41365
C	-0.300649	1.87321	-1.2857
O	-1.2392	2.46312	-0.768388
H	0.0214041	3.46664	-2.65378
H	0.372674	1.81959	-3.31064
H	1.51862	2.59416	-2.13899
N	0.108132	0.672078	-0.8703
C	-0.521861	-0.0355632	0.215602
C	0.468716	-1.05444	0.744639
O	1.47857	-1.34064	0.104241
H	0.892422	0.214628	-1.28087
H	-0.733656	0.663134	1.015
C	-1.81459	-0.742873	-0.248811
H	-1.59376	-1.45842	-1.06939
H	-2.30232	-1.2886	0.584901
H	-2.53145	0.0140994	-0.635151
N	0.211336	-1.61215	1.94411
C	1.10378	-2.58316	2.53306
H	-0.607567	-1.36211	2.45018
H	0.717996	-2.92476	3.51883
H	2.1163	-2.14422	2.68596
H	1.20949	-3.47255	1.8705
C	19.1135	2.75665	0.244908
C	18.0942	1.95767	-0.471837
O	17.5654	2.37602	-1.49258
H	19.2683	3.71909	-0.289529
H	20.0769	2.20567	0.279104
H	18.7737	2.97097	1.28005
N	17.7879	0.772267	0.0604839
C	16.816	-0.118363	-0.521733
C	16.3482	-1.07024	0.561962
O	16.9635	-1.16698	1.62209
H	18.2044	0.455326	0.908425
H	15.9589	0.458814	-0.844919
C	17.4171	-0.912307	-1.70301
H	18.2965	-1.50274	-1.36806
H	16.6713	-1.59896	-2.15374
H	17.757	-0.203687	-2.48945
N	15.2289	-1.78303	0.327395
C	14.7015	-2.70544	1.30578
H	14.7412	-1.68538	-0.533907
H	13.7781	-3.19581	0.926257
H	14.4523	-2.17383	2.25261
H	15.4482	-3.49812	1.54115
