44
  This energy is 8.65554e-320 and Call times are: 22245
C	-3.32882	-0.247495	-0.991897
C	-2.04356	0.483162	-0.918
O	-1.87591	1.53126	-1.52618
H	-4.02779	0.305176	-1.65661
H	-3.78184	-0.327873	0.0186138
H	-3.16754	-1.26493	-1.40634
N	-1.0908	-0.0678235	-0.162333
C	0.211839	0.524543	0.00811805
C	1.16434	-0.566076	0.458155
O	0.737716	-1.64845	0.856015
H	-1.22975	-0.936956	0.304825
H	0.559879	0.890721	-0.949408
C	0.17927	1.66475	1.05022
H	-0.178865	1.28574	2.03114
H	1.18065	2.12319	1.18381
H	-0.522834	2.45665	0.709478
N	2.48563	-0.311657	0.384349
C	3.4676	-1.29431	0.779721
H	2.81117	0.567776	0.052902
H	4.49774	-0.896149	0.647382
H	3.3676	-2.21869	0.165899
H	3.33464	-1.57439	1.8498
C	1062.07	-1.2079	2.4366
C	1060.71	-1.02197	1.88252
O	1059.75	-1.57214	2.38695
H	1062.02	-1.89024	3.3128
H	1062.49	-0.23216	2.76454
H	1062.74	-1.65548	1.67053
N	1060.61	-0.233008	0.810253
C	1059.36	0.0442407	0.158972
C	1059.66	0.504886	-1.25419
O	1060.8	0.827659	-1.58131
H	1061.42	0.186154	0.391069
H	1058.79	-0.872752	0.0916591
C	1058.56	1.13106	0.91398
H	1059.15	2.07018	0.981775
H	1057.59	1.34688	0.415274
H	1058.35	0.781999	1.948
N	1058.64	0.524999	-2.13488
C	1058.83	0.937695	-3.50547
H	1057.72	0.253267	-1.85272
H	1057.88	0.887522	-4.06995
H	1059.57	0.279047	-4.01328
H	1059.21	1.98411	-3.55108
