44
  This energy is 1.48071e-319 and Call times are: 98559
C	-0.131062	2.17925	2.7129
C	0.566474	1.59467	1.54546
O	1.63424	2.0464	1.15521
H	0.463893	3.03149	3.10733
H	-0.241948	1.41757	3.51313
H	-1.13429	2.54929	2.41365
N	-0.0362754	0.562883	0.950079
C	0.518811	-0.111229	-0.196341
C	-0.610601	-0.8351	-0.903219
O	-1.69818	-0.993337	-0.351895
H	-0.920221	0.222671	1.25965
H	0.915438	0.627629	-0.881067
C	1.61632	-1.11628	0.218954
H	1.20615	-1.87241	0.921907
H	2.04599	-1.63701	-0.661389
H	2.43718	-0.573806	0.73669
N	-0.383627	-1.27452	-2.15677
C	-1.40365	-1.96382	-2.91215
H	0.500851	-1.13045	-2.58826
H	-1.02407	-2.24639	-3.91879
H	-2.29988	-1.31543	-3.04483
H	-1.72373	-2.89158	-2.3849
C	4671.69	1.8926	0.872693
C	4671.07	0.698444	0.25787
O	4671.74	-0.110126	-0.37122
H	4672.78	1.89345	0.652487
H	4671.55	1.87518	1.97349
H	4671.24	2.81727	0.455655
N	4669.75	0.563924	0.425034
C	4669	-0.544715	-0.113196
C	4667.55	-0.128947	-0.196464
O	4667.15	0.87649	0.386789
H	4669.21	1.24463	0.914828
H	4669.35	-0.744372	-1.12038
C	4669.15	-1.80255	0.772461
H	4668.79	-1.59398	1.80516
H	4668.57	-2.65815	0.360839
H	4670.22	-2.09616	0.826372
N	4666.72	-0.886364	-0.946501
C	4665.32	-0.561232	-1.09402
H	4667.07	-1.69212	-1.41652
H	4664.81	-1.30372	-1.74699
H	4665.2	0.448291	-1.54898
H	4664.81	-0.557752	-0.103169
