44
  This energy is 2.74206e-320 and Call times are: 1875
C	0.100216	-2.29103	-2.62054
C	-0.184534	-1.93639	-1.21187
O	-0.736565	-2.7275	-0.459604
H	-0.266351	-3.32118	-2.82124
H	1.19358	-2.2553	-2.81054
H	-0.416819	-1.58587	-3.30491
N	0.187642	-0.715327	-0.820914
C	-0.0213845	-0.225809	0.518305
C	0.0226408	1.28919	0.472764
O	0.45547	1.876	-0.517262
H	0.610238	-0.0694706	-1.45117
H	-1.01056	-0.516356	0.848748
C	1.05722	-0.759764	1.48713
H	2.07079	-0.460439	1.14476
H	0.899186	-0.384897	2.51925
H	1.01538	-1.87055	1.51059
N	-0.447838	1.96065	1.54225
C	-0.456997	3.40438	1.58391
H	-0.800559	1.46773	2.33082
H	-0.879996	3.76733	2.5465
H	-1.07289	3.81752	0.752504
H	0.576623	3.80715	1.481
C	98.7595	-1.0542	-2.92963
C	98.3728	0.00353626	-1.96899
O	98.7959	1.14578	-2.08163
H	99.4504	-0.626524	-3.68834
H	97.8596	-1.44997	-3.44568
H	99.2756	-1.8824	-2.39988
N	97.5504	-0.362646	-0.983128
C	97.0852	0.553313	0.0275674
C	96.6347	-0.262367	1.22379
O	96.4649	-1.47644	1.1288
H	97.2357	-1.30306	-0.885353
H	97.9121	1.17529	0.346127
C	95.918	1.42092	-0.493848
H	95.0717	0.779625	-0.820421
H	95.5575	2.12745	0.281814
H	96.2605	2.01256	-1.37066
N	96.451	0.387389	2.39001
C	96.0342	-0.308409	3.58515
H	96.6005	1.36896	2.44833
H	95.9368	0.398803	4.43815
H	96.7761	-1.09194	3.86248
H	95.0497	-0.805476	3.4275
