44
  This energy is 6.64963e-320 and Call times are: 45009
C	-0.208597	3.2931	-1.11269
C	-0.593302	1.86585	-1.19118
O	-1.48651	1.49167	-1.93861
H	-0.847962	3.88436	-1.8037
H	0.853866	3.41981	-1.40924
H	-0.351109	3.67174	-0.0786406
N	0.0811149	1.02569	-0.402727
C	-0.178185	-0.391477	-0.367537
C	0.356816	-0.93056	0.944866
O	1.11261	-0.254854	1.64058
H	0.786809	1.34693	0.223158
H	-1.24854	-0.553698	-0.377891
C	0.495906	-1.11628	-1.55387
H	1.59379	-0.947188	-1.54055
H	0.298146	-2.20765	-1.52993
H	0.0963695	-0.711555	-2.50923
N	-0.0432483	-2.15991	1.3252
C	0.40485	-2.75053	2.56478
H	-0.660874	-2.6881	0.751808
H	-0.0323085	-3.76466	2.69781
H	0.100714	-2.12121	3.43236
H	1.51503	-2.84277	2.57751
C	2138.81	0.652435	-2.32008
C	2138.3	0.631548	-0.933569
O	2139.02	0.880708	0.0174802
H	2139.89	0.909739	-2.30429
H	2138.27	1.41396	-2.91949
H	2138.69	-0.345494	-2.79063
N	2137	0.322537	-0.787299
C	2136.36	0.261871	0.498307
C	2135.11	-0.592397	0.352737
O	2134.68	-0.882556	-0.759439
H	2136.43	0.0930502	-1.5677
H	2137.01	-0.232743	1.20132
C	2135.98	1.67161	1.00393
H	2135.3	2.17641	0.280018
H	2135.48	1.62858	1.99369
H	2136.9	2.2878	1.10522
N	2134.52	-1.03506	1.48065
C	2133.34	-1.86398	1.43998
H	2134.9	-0.795297	2.37106
H	2133.01	-2.12264	2.4688
H	2133.54	-2.81081	0.888976
H	2132.51	-1.33529	0.922838
