44
  This energy is 7.03599e-320 and Call times are: 82431
C	1.44203	-1.85655	2.56903
C	0.748601	-0.649135	2.06653
O	0.339822	0.211095	2.83425
H	1.4955	-1.81433	3.67863
H	2.47365	-1.90289	2.16107
H	0.885446	-2.76982	2.27052
N	0.594018	-0.561589	0.743346
C	-0.0596712	0.55276	0.104798
C	-0.515671	0.100663	-1.26885
O	-0.0947289	-0.945932	-1.75801
H	0.905621	-1.28293	0.130558
H	-0.942018	0.816393	0.674039
C	0.890479	1.76438	-0.022936
H	1.79488	1.49021	-0.606889
H	0.390289	2.62425	-0.514054
H	1.21827	2.08513	0.989891
N	-1.40945	0.873703	-1.91659
C	-1.90977	0.517161	-3.22378
H	-1.7435	1.71327	-1.50093
H	-2.6331	1.27905	-3.58925
H	-2.42646	-0.469347	-3.19105
H	-1.07497	0.445473	-3.95806
C	3903.67	-0.437043	-2.54876
C	3904.41	0.419306	-1.59631
O	3904.32	1.63869	-1.64211
H	3903.08	0.205911	-3.24306
H	3902.97	-1.10155	-2.00027
H	3904.38	-1.0546	-3.14036
N	3905.17	-0.212375	-0.701307
C	3905.95	0.483556	0.290058
C	3907.05	-0.451807	0.759825
O	3907.01	-1.65209	0.496366
H	3905.26	-1.20517	-0.692857
H	3906.43	1.33998	-0.17277
C	3905.08	0.922349	1.48711
H	3904.6	0.0413788	1.95913
H	3905.68	1.45865	2.25227
H	3904.28	1.60614	1.12961
N	3908.08	0.0841046	1.45232
C	3909.17	-0.726961	1.92986
H	3908.09	1.05883	1.64925
H	3909.91	-0.103896	2.47766
H	3909.69	-1.22406	1.0795
H	3908.8	-1.52002	2.61956
