44
  This energy is 1.0696e-319 and Call times are: 4899
C	-0.814173	2.41176	-2.37628
C	-1.19404	1.36286	-1.40328
O	-2.3662	1.1579	-1.11953
H	-1.73143	2.92023	-2.745
H	-0.282917	1.95851	-3.2395
H	-0.15664	3.16374	-1.89139
N	-0.192262	0.668794	-0.858226
C	-0.402958	-0.383327	0.103791
C	0.889528	-0.577353	0.872603
O	1.94084	-0.0831395	0.469696
H	0.760198	0.864878	-1.07573
H	-1.16126	-0.0682902	0.809347
C	-0.813556	-1.70302	-0.586807
H	-0.0337125	-2.02294	-1.31042
H	-0.976739	-2.51524	0.151059
H	-1.76095	-1.54732	-1.14747
N	0.835889	-1.28808	2.01628
C	2.01366	-1.51463	2.82108
H	-0.0257754	-1.67384	2.32926
H	1.76525	-2.12158	3.7195
H	2.44918	-0.547205	3.16115
H	2.79139	-2.05661	2.23578
C	243.435	-0.320695	-2.65134
C	242.72	0.493473	-1.64225
O	242.989	1.67568	-1.47828
H	244.191	0.311643	-3.16491
H	242.719	-0.708886	-3.40604
H	243.951	-1.17203	-2.16033
N	241.783	-0.134918	-0.928613
C	241.004	0.523065	0.0892877
C	240.451	-0.54324	1.01497
O	240.479	-1.72997	0.6945
H	241.594	-1.10553	-1.05143
H	241.655	1.16085	0.673722
C	239.848	1.34124	-0.528489
H	239.182	0.683971	-1.1279
H	239.246	1.84932	0.252507
H	240.266	2.11805	-1.20532
N	239.953	-0.143735	2.20149
C	239.416	-1.0891	3.15242
H	239.945	0.820458	2.44543
H	239.054	-0.566308	4.065
H	240.194	-1.82585	3.45624
H	238.563	-1.65156	2.70863
