44
  This energy is 1.05424e-319 and Call times are: 52569
C	-0.529505	2.05141	-2.7636
C	-0.489162	1.82161	-1.30183
O	-0.623469	2.74626	-0.512215
H	-0.684742	3.13437	-2.961
H	-1.36607	1.47984	-3.21777
H	0.428528	1.73525	-3.22745
N	-0.293941	0.562023	-0.904727
C	-0.230982	0.181037	0.483694
C	0.496598	-1.14652	0.570007
O	0.690749	-1.82361	-0.437805
H	-0.156822	-0.177971	-1.55783
H	0.355915	0.913481	1.02328
C	-1.6435	0.0535565	1.09661
H	-2.24307	-0.69816	0.540234
H	-1.59869	-0.239531	2.16566
H	-2.16642	1.03219	1.02616
N	0.937208	-1.54027	1.78113
C	1.65042	-2.78372	1.95817
H	0.776483	-0.974928	2.58349
H	1.9268	-2.93	3.02563
H	2.58402	-2.79114	1.35024
H	1.0225	-3.64617	1.63712
C	2491.37	2.24852	-1.7149
C	2492.04	0.935489	-1.58968
O	2491.82	0.0331027	-2.38535
H	2490.69	2.2301	-2.59301
H	2492.12	3.05122	-1.86125
H	2490.77	2.46252	-0.802354
N	2492.89	0.79741	-0.566005
C	2493.61	-0.4199	-0.312838
C	2494.04	-0.414605	1.14282
O	2493.98	0.615184	1.81183
H	2493.04	1.53029	0.0922713
H	2492.95	-1.26348	-0.459159
C	2494.85	-0.533844	-1.22749
H	2495.53	0.333503	-1.07528
H	2495.42	-1.4701	-1.03529
H	2494.53	-0.535467	-2.29095
N	2494.46	-1.5783	1.6749
C	2494.87	-1.67194	3.05581
H	2494.5	-2.40232	1.11908
H	2495.19	-2.7099	3.30268
H	2494.04	-1.38785	3.73583
H	2495.73	-0.988626	3.25716
