44
  This energy is 2.97378e-320 and Call times are: 20103
C	-0.84713	-2.6696	2.06924
C	-0.46249	-1.25547	1.8607
O	-0.458495	-0.457672	2.78807
H	-1.10966	-2.82501	3.13825
H	-0.00127096	-3.33895	1.80597
H	-1.7278	-2.92327	1.44233
N	-0.130944	-0.908634	0.61485
C	0.265627	0.429375	0.255278
C	0.0596872	0.590847	-1.23829
O	-0.13235	-0.388939	-1.95591
H	-0.166225	-1.56094	-0.137604
H	-0.385029	1.13557	0.755289
C	1.74338	0.69514	0.619614
H	2.40801	-0.0315243	0.105476
H	2.052	1.72456	0.344236
H	1.88131	0.572537	1.71601
N	0.0734655	1.84165	-1.73958
C	-0.125682	2.09357	-3.14779
H	0.223295	2.62204	-1.14144
H	-0.0775343	3.18383	-3.3629
H	-1.12007	1.71479	-3.47789
H	0.65707	1.58175	-3.7532
C	955.5	1.62167	1.93241
C	956.097	1.2691	0.624666
O	955.545	1.56996	-0.424639
H	954.539	2.15577	1.76544
H	956.186	2.28504	2.49993
H	955.302	0.702575	2.52325
N	957.255	0.60684	0.66114
C	957.958	0.195338	-0.527759
C	958.897	-0.933405	-0.147146
O	959.146	-1.17248	1.03285
H	957.681	0.341977	1.52251
H	957.244	-0.196798	-1.24072
C	958.758	1.36611	-1.14234
H	959.489	1.76641	-0.408018
H	959.3	1.05276	-2.05805
H	958.059	2.18682	-1.41575
N	959.424	-1.67119	-1.14408
C	960.318	-2.77366	-0.876914
H	959.204	-1.46646	-2.09223
H	960.645	-3.25357	-1.8256
H	959.814	-3.54455	-0.249535
H	961.223	-2.42207	-0.331447
