44
  This energy is 7.12789e-320 and Call times are: 57399
C	-1.24964	1.83477	-2.68293
C	-0.755915	1.73622	-1.29091
O	-0.564153	2.73789	-0.615366
H	-1.38508	2.90546	-2.94966
H	-2.22536	1.31393	-2.78056
H	-0.51669	1.38012	-3.38223
N	-0.53051	0.504642	-0.827465
C	-0.0495295	0.247317	0.506427
C	0.573493	-1.13505	0.518459
O	0.384937	-1.91763	-0.410977
H	-0.662833	-0.302002	-1.39734
H	0.729145	0.961135	0.743499
C	-1.19408	0.323237	1.54149
H	-1.99146	-0.409887	1.29487
H	-0.827186	0.125744	2.56968
H	-1.64288	1.34026	1.522
N	1.35291	-1.4603	1.56856
C	1.99745	-2.7496	1.66052
H	1.49904	-0.810583	2.30731
H	2.59258	-2.82582	2.59715
H	2.68218	-2.90907	0.796257
H	1.24156	-3.56801	1.65772
C	2718.82	0.791018	-2.07229
C	2719.76	-0.182963	-1.48072
O	2719.62	-1.38548	-1.65843
H	2718.04	0.244358	-2.64496
H	2719.35	1.4757	-2.7613
H	2718.32	1.38339	-1.27146
N	2720.75	0.324758	-0.747046
C	2721.75	-0.495393	-0.107639
C	2722.37	0.313321	1.01678
O	2722.19	1.52715	1.09104
H	2720.84	1.30444	-0.585636
H	2721.27	-1.35741	0.33417
C	2722.84	-0.934564	-1.10791
H	2723.34	-0.0477772	-1.55975
H	2723.61	-1.56636	-0.618908
H	2722.38	-1.52501	-1.9272
N	2723.1	-0.349136	1.93531
C	2723.71	0.335603	3.04783
H	2723.23	-1.33255	1.86174
H	2724.27	-0.380666	3.68991
H	2722.94	0.840253	3.6742
H	2724.43	1.11153	2.68583
