44
  This energy is 1.02884e-319 and Call times are: 96711
C	1.18192	-3.14754	-0.906733
C	1.34214	-1.84418	-0.223517
O	2.30596	-1.62153	0.496186
H	2.03598	-3.80826	-0.642331
H	1.16669	-3.00314	-2.00752
H	0.237485	-3.63489	-0.585064
N	0.380489	-0.942292	-0.433723
C	0.396296	0.370241	0.161116
C	-1.02296	0.903924	0.149995
O	-1.89306	0.361853	-0.528915
H	-0.414459	-1.14605	-0.998946
H	0.707384	0.284482	1.19453
C	1.3299	1.32744	-0.613015
H	1.00827	1.41256	-1.67293
H	1.34455	2.33894	-0.157578
H	2.36612	0.924715	-0.598511
N	-1.29489	1.97295	0.924097
C	-2.62053	2.54299	0.986641
H	-0.578782	2.39307	1.47175
H	-2.64117	3.41575	1.67593
H	-3.35522	1.78974	1.35282
H	-2.94953	2.88445	-0.0214994
C	4579.96	-0.596011	-3.29827
C	4580.91	-0.0839807	-2.29023
O	4582.02	0.305949	-2.61455
H	4580.43	-0.557764	-4.30418
H	4579.04	0.0289981	-3.30776
H	4579.68	-1.6478	-3.06857
N	4580.49	-0.0799028	-1.02309
C	4581.31	0.388459	0.0692893
C	4580.76	-0.214845	1.34922
O	4579.65	-0.748746	1.37071
H	4579.59	-0.427325	-0.767971
H	4582.32	0.0220306	-0.0630023
C	4581.29	1.93071	0.160769
H	4580.25	2.30325	0.295783
H	4581.92	2.29474	1.00075
H	4581.69	2.36046	-0.783223
N	4581.54	-0.162396	2.44672
C	4581.11	-0.721223	3.70716
H	4582.44	0.267585	2.40728
H	4581.89	-0.577113	4.48771
H	4580.91	-1.8131	3.60601
H	4580.17	-0.231701	4.05414
