44
  This energy is 3.60964e-320 and Call times are: 106791
C	-2.3378	-2.5708	-0.227671
C	-1.00295	-2.05513	0.151122
O	-0.213748	-2.74529	0.781457
H	-2.45227	-3.6088	0.153531
H	-2.44489	-2.57999	-1.33278
H	-3.13349	-1.93547	0.215237
N	-0.720439	-0.806339	-0.22713
C	0.53669	-0.166043	0.0669379
C	0.328904	1.33311	-0.0257666
O	-0.682778	1.79633	-0.548989
H	-1.38288	-0.244082	-0.714951
H	0.819002	-0.39658	1.08636
C	1.63919	-0.611588	-0.919517
H	1.346	-0.374185	-1.96441
H	2.60855	-0.120569	-0.695857
H	1.78096	-1.71166	-0.842756
N	1.27845	2.12969	0.503225
C	1.16075	3.56891	0.472204
H	2.08645	1.73554	0.928684
H	2.0419	4.04602	0.955105
H	0.243673	3.89981	1.01138
H	1.09507	3.93537	-0.577828
C	5055.17	0.714195	2.03719
C	5056.48	1.06759	1.44554
O	5056.96	2.18054	1.59928
H	5054.76	1.59255	2.58582
H	5055.28	-0.130849	2.7479
H	5054.45	0.428687	1.2383
N	5057.09	0.112194	0.739096
C	5058.37	0.304871	0.10332
C	5058.5	-0.731621	-0.995169
O	5057.73	-1.6918	-1.05107
H	5056.67	-0.781055	0.596715
H	5058.38	1.28202	-0.362446
C	5059.52	0.160678	1.1152
H	5059.5	-0.842654	1.59161
H	5060.51	0.308594	0.629012
H	5059.41	0.924644	1.91529
N	5059.47	-0.54796	-1.912
C	5059.67	-1.47644	-3.00083
H	5060.08	0.239174	-1.85364
H	5060.51	-1.15323	-3.64537
H	5058.75	-1.54117	-3.63194
H	5059.89	-2.49618	-2.61224
