44
  This energy is 3.21785e-320 and Call times are: 43707
C	0.37056	-3.2358	1.23225
C	-0.433842	-2.17133	0.591117
O	-1.54629	-2.40472	0.138918
H	-0.197427	-4.1911	1.20679
H	0.581665	-2.97133	2.28975
H	1.32839	-3.37253	0.687453
N	0.124483	-0.960045	0.53256
C	-0.534167	0.176388	-0.0603389
C	0.529387	1.19471	-0.42242
O	1.67229	1.09427	0.0197548
H	1.04327	-0.78933	0.878439
H	-1.01665	-0.135744	-0.977868
C	-1.5599	0.801993	0.911051
H	-1.06166	1.12046	1.8515
H	-2.06901	1.67721	0.457643
H	-2.33283	0.0457177	1.16946
N	0.180598	2.19259	-1.25823
C	1.12954	3.2014	-1.66812
H	-0.747413	2.25254	-1.61099
H	0.651784	3.93505	-2.35424
H	1.99266	2.73684	-2.19768
H	1.5233	3.75303	-0.783905
C	2073.54	-1.7899	-2.88908
C	2073.28	-0.693158	-1.93048
O	2072.43	0.155783	-2.15888
H	2072.87	-1.67715	-3.76933
H	2073.34	-2.77207	-2.41054
H	2074.6	-1.75251	-3.23296
N	2074.02	-0.684823	-0.820391
C	2073.88	0.317306	0.205732
C	2075.16	0.339487	1.01361
O	2075.98	-0.569626	0.913355
H	2074.73	-1.36529	-0.659422
H	2073.77	1.28717	-0.26242
C	2072.68	0.0146511	1.12704
H	2072.79	-0.981319	1.60514
H	2072.57	0.784417	1.9182
H	2071.74	2.78325e-06	0.523121
N	2075.37	1.39685	1.82184
C	2076.57	1.50999	2.62
H	2074.7	2.12588	1.88374
H	2076.56	2.44781	3.21797
H	2077.48	1.52089	1.97041
H	2076.66	0.648418	3.32077
