44
  This energy is 9.99791e-320 and Call times are: 34425
C	-1.72857	2.02162	-2.24749
C	-1.19534	1.73798	-0.896045
O	-1.24599	2.57691	-0.00715113
H	-2.13397	3.05645	-2.27264
H	-2.54445	1.30998	-2.49397
H	-0.92064	1.93364	-3.0041
N	-0.658196	0.52968	-0.712053
C	-0.0987768	0.106432	0.546811
C	0.851037	-1.04307	0.271609
O	0.844266	-1.6176	-0.815453
H	-0.596584	-0.134565	-1.45227
H	0.481092	0.919301	0.965226
C	-1.2027	-0.340546	1.53103
H	-1.79605	-1.17411	1.09833
H	-0.775434	-0.666946	2.50143
H	-1.89247	0.509942	1.72347
N	1.71006	-1.39197	1.24954
C	2.65913	-2.46647	1.07377
H	1.70488	-0.910159	2.11964
H	3.27485	-2.60115	1.99028
H	3.34275	-2.25124	0.220787
H	2.1327	-3.42499	0.860955
C	1638.84	-0.303638	-1.47262
C	1637.37	-0.153204	-1.561
O	1636.82	0.047848	-2.63408
H	1639.28	-0.197297	-2.48722
H	1639.1	-1.30614	-1.07141
H	1639.27	0.479974	-0.811226
N	1636.7	-0.243248	-0.412926
C	1635.26	-0.118544	-0.337676
C	1634.9	0.248333	1.08848
O	1635.73	0.14282	1.99331
H	1637.16	-0.378196	0.45863
H	1634.95	0.695764	-0.977101
C	1634.56	-1.43475	-0.741669
H	1634.89	-2.26813	-0.0840941
H	1633.46	-1.34219	-0.684993
H	1634.83	-1.69312	-1.7878
N	1633.66	0.71133	1.3185
C	1633.23	1.09665	2.64238
H	1633	0.796186	0.57181
H	1632.17	1.4489	2.62609
H	1633.86	1.91933	3.03892
H	1633.3	0.235102	3.34512
