44
  This energy is 1.00908e-319 and Call times are: 109479
C	-1.85126	-0.356239	-2.92781
C	-0.657253	-0.640047	-2.10016
O	0.179462	-1.45823	-2.45649
H	-1.82371	-0.989011	-3.84143
H	-1.8617	0.711924	-3.23069
H	-2.77583	-0.587647	-2.3581
N	-0.554919	0.0380245	-0.954684
C	0.549209	-0.128648	-0.0436678
C	0.104179	0.358018	1.32174
O	-0.922515	1.02263	1.44829
H	-1.2579	0.680546	-0.661555
H	0.778804	-1.18319	0.0417368
C	1.7896	0.664526	-0.51208
H	1.55033	1.74585	-0.599261
H	2.64169	0.538288	0.187052
H	2.10491	0.299403	-1.51379
N	0.86035	0.0172317	2.38385
C	0.50857	0.425302	3.72396
H	1.68371	-0.527167	2.26165
H	1.25442	0.0487487	4.45824
H	-0.49288	0.0267314	4.00589
H	0.471848	1.5362	3.79969
C	5182.65	-0.138215	1.23809
C	5183.98	0.508636	1.13618
O	5184.18	1.60737	1.63217
H	5181.96	0.528258	1.7983
H	5182.73	-1.10389	1.77937
H	5182.23	-0.318413	0.224838
N	5184.92	-0.168965	0.473897
C	5186.26	0.329309	0.291219
C	5186.87	-0.395496	-0.893173
O	5186.34	-1.40602	-1.35184
H	5184.73	-1.05017	0.0492999
H	5186.21	1.38226	0.0438789
C	5187.12	0.102248	1.55347
H	5187.16	-0.978923	1.80472
H	5188.15	0.484888	1.4163
H	5186.66	0.637234	2.41409
N	5187.99	0.120268	-1.43174
C	5188.63	-0.494843	-2.56872
H	5188.4	0.942828	-1.05071
H	5189.54	0.0759331	-2.86228
H	5187.94	-0.527049	-3.442
H	5188.94	-1.53978	-2.3304
