44
  This energy is 1.26629e-320 and Call times are: 118593
C	3.2414	-0.664529	-1.0853
C	1.92934	0.00384422	-1.23691
O	1.74363	0.842663	-2.10777
H	3.94463	-0.271184	-1.8512
H	3.1313	-1.76019	-1.22752
H	3.65934	-0.46319	-0.076477
N	0.977173	-0.356034	-0.373062
C	-0.350108	0.204946	-0.394346
C	-0.969385	-0.0115139	0.972724
O	-0.460557	-0.789799	1.77721
H	1.14951	-1.01931	0.350334
H	-0.278205	1.27278	-0.557544
C	-1.22309	-0.456851	-1.48386
H	-1.29416	-1.55236	-1.31376
H	-2.24571	-0.0271431	-1.50311
H	-0.758109	-0.292186	-2.48027
N	-2.07711	0.693487	1.2759
C	-2.72924	0.561885	2.55792
H	-2.46958	1.32364	0.613998
H	-3.62303	1.22161	2.61404
H	-2.03456	0.841992	3.38266
H	-3.05813	-0.489261	2.72556
C	5616.14	3.31798	-0.488083
C	5615.9	2.14856	0.387095
O	5616.2	2.17384	1.57294
H	5616.61	4.13185	0.10683
H	5615.18	3.68608	-0.906871
H	5616.82	3.04082	-1.3185
N	5615.35	1.07825	-0.191061
C	5615.05	-0.134611	0.529431
C	5614.95	-1.26145	-0.479487
O	5614.85	-1.02184	-1.68178
H	5615.13	1.0597	-1.16442
H	5615.88	-0.361678	1.18923
C	5613.74	-0.00901556	1.32788
H	5612.89	0.224614	0.648016
H	5613.51	-0.941115	1.88397
H	5613.83	0.820481	2.06257
N	5614.98	-2.52476	-0.0116131
C	5614.9	-3.66157	-0.898622
H	5615.06	-2.69806	0.964164
H	5614.94	-4.61288	-0.323829
H	5615.74	-3.65405	-1.62777
H	5613.94	-3.64209	-1.47327
