44
  This energy is 3.91547e-320 and Call times are: 50049
C	0.859717	2.81478	1.86119
C	1.03328	1.38944	1.50137
O	1.95934	0.730918	1.95441
H	1.67414	3.12067	2.5533
H	-0.117179	2.96547	2.36694
H	0.905512	3.44795	0.950173
N	0.133076	0.876523	0.659395
C	0.168981	-0.494489	0.216826
C	-0.62591	-0.589335	-1.07096
O	-1.36485	0.328359	-1.42258
H	-0.599876	1.43106	0.274424
H	1.19289	-0.764966	-0.00795266
C	-0.426441	-1.4445	1.27987
H	-1.47668	-1.16374	1.50856
H	-0.400218	-2.501	0.942396
H	0.163905	-1.36477	2.21864
N	-0.474365	-1.70014	-1.81871
C	-1.18141	-1.87355	-3.06619
H	0.13379	-2.42851	-1.52062
H	-0.92535	-2.85124	-3.53073
H	-0.915753	-1.06411	-3.78416
H	-2.28279	-1.84123	-2.90154
C	2370.73	1.81935	1.29623
C	2371.76	1.57975	0.262229
O	2371.78	2.22931	-0.774194
H	2370.05	2.62777	0.954061
H	2371.21	2.13157	2.24853
H	2370.14	0.896335	1.46608
N	2372.65	0.620713	0.524589
C	2373.71	0.271938	-0.383544
C	2374.18	-1.13013	-0.0405437
O	2373.85	-1.66145	1.01718
H	2372.61	0.0787463	1.35961
H	2373.32	0.251028	-1.39258
C	2374.89	1.26374	-0.275812
H	2375.29	1.28316	0.760768
H	2375.71	0.998211	-0.973836
H	2374.54	2.28716	-0.528294
N	2374.95	-1.77286	-0.943132
C	2375.43	-3.115	-0.708315
H	2375.2	-1.32859	-1.79638
H	2376.04	-3.46851	-1.56514
H	2374.57	-3.81911	-0.575043
H	2376.05	-3.15328	0.212248
