44
  This energy is 1.03981e-319 and Call times are: 71427
C	-0.418006	-2.45923	2.42973
C	-0.938993	-1.35664	1.59064
O	-2.13156	-1.0847	1.57254
H	-1.26159	-2.93671	2.97401
H	0.310189	-2.0656	3.16974
H	0.0776632	-3.22284	1.794
N	-0.0405175	-0.691229	0.861025
C	-0.394001	0.406	-0.00382559
C	0.712339	0.566918	-1.02821
O	1.79659	0.00751278	-0.875552
H	0.924084	-0.941186	0.862171
H	-1.30216	0.155202	-0.537137
C	-0.573355	1.71644	0.794728
H	0.359955	1.97038	1.34114
H	-0.845726	2.56333	0.131872
H	-1.38567	1.58514	1.54243
N	0.454186	1.32281	-2.11356
C	1.44274	1.52311	-3.14739
H	-0.431846	1.76138	-2.22237
H	1.04148	2.17538	-3.9541
H	1.74103	0.549596	-3.59966
H	2.35663	2.00409	-2.72949
C	3390.11	1.24001	2.7676
C	3390	0.985025	1.31381
O	3390.82	1.43998	0.526523
H	3391	1.87388	2.96122
H	3390.23	0.281559	3.3164
H	3389.21	1.77036	3.13448
N	3388.96	0.243664	0.920517
C	3388.72	-0.0901734	-0.460056
C	3387.25	-0.459501	-0.598622
O	3386.56	-0.684319	0.395094
H	3388.28	-0.096834	1.56855
H	3388.89	0.786119	-1.07056
C	3389.61	-1.26608	-0.920056
H	3389.42	-2.16317	-0.291199
H	3389.42	-1.52564	-1.98269
H	3390.68	-0.983374	-0.812529
N	3386.74	-0.509345	-1.84204
C	3385.35	-0.840537	-2.07079
H	3387.31	-0.317146	-2.633
H	3385.12	-0.831194	-3.15854
H	3384.68	-0.107155	-1.56347
H	3385.12	-1.85394	-1.67105
