44
  This energy is 1.30305e-319 and Call times are: 5781
C	-2.91558	1.82966	-0.527155
C	-1.89034	0.858364	-0.970639
O	-2.02158	0.23179	-2.01308
H	-3.74365	1.85381	-1.26848
H	-2.4727	2.8449	-0.449913
H	-3.32567	1.52951	0.460106
N	-0.8321	0.706523	-0.170988
C	0.247825	-0.200522	-0.467398
C	0.970043	-0.505068	0.830635
O	0.772721	0.176685	1.83468
H	-0.750774	1.20133	0.690111
H	-0.165065	-1.12943	-0.839864
C	1.2304	0.410266	-1.49141
H	1.65157	1.36341	-1.10637
H	2.0631	-0.285589	-1.72202
H	0.68893	0.629882	-2.4373
N	1.8124	-1.55684	0.845403
C	2.53481	-1.92965	2.03926
H	1.95315	-2.10058	0.02457
H	3.17658	-2.81807	1.84925
H	1.82859	-2.17752	2.86452
H	3.18621	-1.09328	2.38182
C	284.361	-1.85475	-2.70904
C	284.55	-0.834791	-1.6531
O	285.647	-0.333242	-1.44754
H	285.333	-2.04681	-3.21278
H	283.63	-1.49346	-3.46331
H	283.993	-2.80317	-2.26372
N	283.467	-0.505595	-0.945486
C	283.493	0.470551	0.114376
C	282.294	0.219591	1.00804
O	281.377	-0.513011	0.639649
H	282.585	-0.942539	-1.10313
H	284.384	0.319916	0.709964
C	283.446	1.90989	-0.445307
H	282.531	2.06074	-1.05633
H	283.466	2.66405	0.368101
H	284.329	2.08071	-1.09914
N	282.283	0.808723	2.21999
C	281.189	0.618	3.1434
H	283.037	1.39232	2.50256
H	281.364	1.18562	4.08374
H	281.075	-0.460018	3.40075
H	280.231	0.968799	2.69564
