44
  This energy is 1.37553e-319 and Call times are: 59919
C	1.18785	-3.21682	0.605954
C	0.878738	-2.09411	-0.307923
O	1.21228	-2.12597	-1.48445
H	1.73698	-4.00516	0.0466369
H	0.249114	-3.65072	1.01009
H	1.82278	-2.8634	1.44553
N	0.228236	-1.05734	0.22528
C	-0.142688	0.108295	-0.536656
C	-0.368864	1.24867	0.43681
O	-0.477246	1.0337	1.64258
H	-0.0122894	-1.03068	1.19191
H	0.682231	0.384602	-1.18104
C	-1.42214	-0.14483	-1.36493
H	-2.26621	-0.428711	-0.700802
H	-1.7105	0.750635	-1.95296
H	-1.24383	-0.983094	-2.07322
N	-0.423713	2.49788	-0.0656479
C	-0.623888	3.6469	0.786321
H	-0.326655	2.65186	-1.04345
H	-0.641386	4.58322	0.186104
H	0.195558	3.727	1.53688
H	-1.58918	3.56491	1.33648
C	2838.95	-0.332335	-2.35064
C	2840.15	0.355485	-1.8174
O	2840.7	1.25355	-2.44409
H	2838.69	0.0978971	-3.3423
H	2838.09	-0.192624	-1.66214
H	2839.16	-1.41713	-2.4717
N	2840.59	-0.0631436	-0.630315
C	2841.75	0.508164	0.0179571
C	2842.26	-0.500279	1.02656
O	2841.58	-1.46572	1.35653
H	2840.16	-0.81535	-0.14307
H	2842.53	0.662369	-0.719288
C	2841.4	1.8353	0.726131
H	2840.6	1.67356	1.4813
H	2842.28	2.27799	1.22622
H	2841.02	2.56505	-0.0232269
N	2843.5	-0.309607	1.52551
C	2844.08	-1.22434	2.48212
H	2844.04	0.473862	1.2406
H	2845.1	-0.895136	2.77296
H	2844.15	-2.24956	2.05192
H	2843.45	-1.27867	3.40206
