44
  This energy is 1.58239e-319 and Call times are: 783
C	0.654188	1.4747	-3.08601
C	1.09635	0.948799	-1.77485
O	2.28456	0.846202	-1.50258
H	1.54585	1.72134	-3.70243
H	0.049241	2.39498	-2.94479
H	0.0480681	0.712532	-3.61955
N	0.132032	0.593041	-0.922861
C	0.404663	0.0649766	0.390017
C	-0.824574	-0.693367	0.851676
O	-1.89789	-0.5675	0.26518
H	-0.832008	0.654136	-1.16746
H	1.22136	-0.642467	0.322105
C	0.740351	1.19271	1.39134
H	-0.0993291	1.917	1.45803
H	0.950961	0.789587	2.40323
H	1.6418	1.74131	1.04124
N	-0.689213	-1.52005	1.90726
C	-1.80168	-2.29191	2.41009
H	0.189374	-1.6136	2.36396
H	-1.49042	-2.90831	3.28211
H	-2.19516	-2.97362	1.62161
H	-2.63123	-1.62179	2.73252
C	46.4246	3.43264	0.109541
C	47.2008	2.23028	0.487682
O	48.255	2.325	1.10105
H	46.9593	4.34108	0.462636
H	45.419	3.40221	0.57935
H	46.3151	3.48623	-0.994132
N	46.6895	1.05379	0.117877
C	47.3284	-0.203732	0.413187
C	46.7949	-1.23722	-0.559671
O	45.7937	-1.00669	-1.23525
H	45.8447	0.99135	-0.406865
H	48.3926	-0.107026	0.239484
C	47.0501	-0.648513	1.86639
H	45.9574	-0.746078	2.0413
H	47.5407	-1.61638	2.09719
H	47.4446	0.117428	2.56912
N	47.4686	-2.39913	-0.669162
C	47.0419	-3.43731	-1.57815
H	48.2807	-2.56389	-0.119012
H	47.7238	-4.31427	-1.52153
H	47.0381	-3.06346	-2.62765
H	46.0108	-3.77816	-1.32937
