44
  This energy is 1.19179e-319 and Call times are: 97383
C	2.95338	0.0082867	-1.84489
C	1.54729	-0.407042	-1.64089
O	0.933206	-1.00966	-2.51052
H	3.28689	-0.308857	-2.85685
H	3.60734	-0.468969	-1.08504
H	3.0416	1.11241	-1.76702
N	0.997248	-0.0825393	-0.468494
C	-0.360996	-0.417955	-0.122811
C	-0.802623	0.514127	0.988686
O	0.0184177	1.19079	1.60501
H	1.4987	0.434044	0.220432
H	-0.997657	-0.233878	-0.978879
C	-0.477353	-1.88782	0.338792
H	0.177572	-2.07332	1.21673
H	-1.52192	-2.14949	0.605594
H	-0.149868	-2.56034	-0.483775
N	-2.12133	0.586867	1.25649
C	-2.63584	1.45566	2.28928
H	-2.7706	0.0366279	0.741796
H	-3.74294	1.37255	2.35762
H	-2.37671	2.5177	2.07442
H	-2.20224	1.18813	3.28004
C	4610.76	-2.2103	1.63744
C	4611.63	-1.84328	0.49478
O	4611.89	-2.65041	-0.387066
H	4610.44	-3.26935	1.53
H	4609.86	-1.56233	1.6576
H	4611.32	-2.09834	2.5916
N	4612.11	-0.596894	0.489703
C	4612.97	-0.0923654	-0.554335
C	4613.72	1.10508	-0.00403598
O	4613.36	1.63754	1.04732
H	4611.91	0.0422232	1.2289
H	4613.7	-0.85018	-0.807434
C	4612.15	0.318441	-1.80065
H	4611.4	1.0955	-1.53726
H	4612.81	0.70724	-2.60657
H	4611.6	-0.567092	-2.19345
N	4614.79	1.54443	-0.695746
C	4615.57	2.6707	-0.242391
H	4615.06	1.09567	-1.54062
H	4616.4	2.87848	-0.94707
H	4616	2.46873	0.76417
H	4614.93	3.58479	-0.169108
