44
  This energy is 1.13363e-319 and Call times are: 58995
C	-0.27699	1.27234	3.22964
C	-0.85784	0.92583	1.91292
O	-2.06202	1.00454	1.7123
H	-1.09157	1.57922	3.92112
H	0.439307	2.1139	3.12227
H	0.247648	0.393395	3.65993
N	0.000834201	0.522258	0.973678
C	-0.412716	0.151469	-0.356104
C	0.674371	-0.7186	-0.956488
O	1.78527	-0.786709	-0.433903
H	0.976106	0.434454	1.15826
H	-1.3134	-0.445668	-0.290814
C	-0.645529	1.39675	-1.24052
H	0.280266	2.0074	-1.30478
H	-0.964215	1.11486	-2.2651
H	-1.44313	2.02636	-0.78934
N	0.369892	-1.42481	-2.06308
C	1.33738	-2.28928	-2.69779
H	-0.536883	-1.36174	-2.46683
H	0.897671	-2.78077	-3.59352
H	1.67662	-3.08311	-1.99353
H	2.23177	-1.70842	-3.02005
C	2800.86	-0.478938	-0.768986
C	2799.71	0.396262	-0.449501
O	2799.86	1.59379	-0.251375
H	2801.79	0.127963	-0.779987
H	2800.72	-0.94303	-1.76814
H	2800.96	-1.27584	-0.00216097
N	2798.52	-0.194964	-0.38603
C	2797.3	0.523756	-0.0861345
C	2796.28	-0.477828	0.4099
O	2796.46	-1.68539	0.263118
H	2798.41	-1.17648	-0.520724
H	2797.5	1.22142	0.718575
C	2796.77	1.2624	-1.33164
H	2796.57	0.543781	-2.15542
H	2795.83	1.81698	-1.10421
H	2797.53	1.99223	-1.68588
N	2795.19	0.00343034	1.03202
C	2794.16	-0.87524	1.54814
H	2795.06	0.983603	1.14736
H	2793.34	-0.289819	2.02243
H	2794.59	-1.56677	2.31171
H	2793.72	-1.49136	0.729934
