44
  This energy is 1.13018e-319 and Call times are: 40767
C	-0.541103	2.09525	-2.72824
C	-0.648436	0.781562	-2.05451
O	-1.28967	-0.133855	-2.55183
H	-1.11656	2.06851	-3.67902
H	0.521377	2.32193	-2.95752
H	-0.957251	2.89383	-2.0786
N	-0.0162573	0.661631	-0.88475
C	-0.0280193	-0.554069	-0.110952
C	0.309676	-0.196643	1.32343
O	0.777063	0.905672	1.60322
H	0.478624	1.42386	-0.476058
H	-1.02862	-0.967333	-0.120131
C	0.991389	-1.57848	-0.657302
H	2.01671	-1.151	-0.647085
H	0.984842	-2.51581	-0.0638774
H	0.733726	-1.83113	-1.70893
N	0.0586271	-1.11909	2.2732
C	0.336577	-0.863253	3.66728
H	-0.326462	-2.0026	2.02753
H	0.0635959	-1.74314	4.29061
H	-0.244248	0.0160767	4.02876
H	1.41908	-0.648114	3.81921
C	1938.16	-1.23228	0.106655
C	1936.91	-0.790765	0.770889
O	1936.75	-0.925971	1.97659
H	1938.84	-1.67243	0.864591
H	1938.66	-0.367566	-0.373474
H	1937.93	-2.00082	-0.661953
N	1935.98	-0.249351	-0.0170132
C	1934.71	0.227639	0.482381
C	1933.74	0.276909	-0.68081
O	1934.14	0.188211	-1.83951
H	1936.1	-0.171328	-1.00218
H	1934.33	-0.48342	1.2024
C	1934.85	1.6288	1.11848
H	1935.25	2.3556	0.377264
H	1933.88	1.99904	1.50419
H	1935.57	1.5795	1.9684
N	1932.43	0.398484	-0.395275
C	1931.43	0.441974	-1.43721
H	1932.12	0.461617	0.549039
H	1930.41	0.546564	-1.00151
H	1931.46	-0.490608	-2.04617
H	1931.61	1.30462	-2.11881
