44
  This energy is 4.02762e-320 and Call times are: 68907
C	1.28005	-1.54345	2.84699
C	0.264112	-1.42274	1.77718
O	-0.613726	-2.26373	1.64068
H	1.09145	-2.47127	3.4296
H	1.2205	-0.671101	3.53131
H	2.29716	-1.59724	2.4048
N	0.36755	-0.357889	0.978583
C	-0.546089	-0.102806	-0.106324
C	0.138412	0.835656	-1.081
O	1.16222	1.43677	-0.761128
H	1.10449	0.304836	1.08179
H	-0.742411	-1.03161	-0.626761
C	-1.86186	0.527117	0.402656
H	-1.6567	1.47943	0.936631
H	-2.5677	0.724698	-0.430125
H	-2.35294	-0.169507	1.11659
N	-0.403087	0.966181	-2.30808
C	0.186098	1.82799	-3.30624
H	-1.22783	0.46576	-2.55016
H	-0.405652	1.80118	-4.24771
H	1.22746	1.50659	-3.53756
H	0.222105	2.8811	-2.94451
C	3266.24	1.01674	2.53833
C	3267.29	1.29628	1.53091
O	3267.65	2.44096	1.29485
H	3265.89	1.97523	2.97836
H	3266.65	0.377908	3.34899
H	3265.38	0.502607	2.06224
N	3267.81	0.237572	0.900988
C	3268.83	0.348888	-0.104003
C	3268.8	-0.912512	-0.944871
O	3268.18	-1.90294	-0.568637
H	3267.48	-0.687567	1.08134
H	3268.6	1.18326	-0.753549
C	3270.23	0.525815	0.534919
H	3270.46	-0.331565	1.20115
H	3271.02	0.612001	-0.236109
H	3270.24	1.45253	1.14912
N	3269.46	-0.897025	-2.12065
C	3269.47	-2.04773	-2.99348
H	3269.95	-0.0834588	-2.41079
H	3270.07	-1.83875	-3.90953
H	3268.44	-2.31973	-3.30275
H	3269.92	-2.92712	-2.47689
