44
  This energy is 6.26525e-320 and Call times are: 114393
C	-2.38697	-2.47149	-0.565882
C	-1.98975	-1.05177	-0.432422
O	-2.77468	-0.148702	-0.687041
H	-3.44009	-2.52672	-0.917661
H	-2.30861	-2.98457	0.415665
H	-1.73426	-2.98395	-1.30365
N	-0.738199	-0.82161	-0.0286671
C	-0.205644	0.50574	0.148409
C	1.30674	0.412329	0.0918625
O	1.87277	-0.676198	0.172818
H	-0.099313	-1.56571	0.147622
H	-0.527928	1.12723	-0.677397
C	-0.650253	1.11494	1.49686
H	-0.318563	0.474492	2.3418
H	-0.242074	2.13705	1.63637
H	-1.75996	1.17687	1.52622
N	1.99809	1.55749	-0.0713712
C	3.44038	1.565	-0.148288
H	1.5214	2.42756	-0.142007
H	3.8217	2.60142	-0.28127
H	3.79117	0.949473	-1.00812
H	3.88582	1.1441	0.782094
C	5416.48	3.25784	0.819776
C	5416.69	2.17145	-0.165031
O	5416.34	2.3003	-1.33005
H	5415.99	4.11919	0.319917
H	5417.46	3.59145	1.22799
H	5415.84	2.90544	1.65089
N	5417.26	1.05649	0.291948
C	5417.52	-0.0866245	-0.545093
C	5417.68	-1.29785	0.354514
O	5417.82	-1.16516	1.56816
H	5417.52	0.952786	1.24983
H	5416.67	-0.257881	-1.18633
C	5418.81	0.114622	-1.38497
H	5419.68	0.290719	-0.724003
H	5419.01	-0.763654	-2.03076
H	5418.68	1.00548	-2.03871
N	5417.62	-2.51494	-0.221529
C	5417.74	-3.72541	0.556884
H	5417.5	-2.60158	-1.20432
H	5417.68	-4.62231	-0.0975281
H	5416.93	-3.78596	1.31925
H	5418.72	-3.75286	1.08958
