44
  This energy is 6.93174e-321 and Call times are: 42783
C	1.61272	1.89597	2.43527
C	0.393542	1.47643	1.7081
O	-0.716097	1.8439	2.06887
H	1.32484	2.54256	3.29254
H	2.28187	2.47045	1.7607
H	2.15323	1.00633	2.82171
N	0.577135	0.678953	0.653254
C	-0.510895	0.187914	-0.15415
C	-0.0257035	-1.04669	-0.888719
O	1.17274	-1.31652	-0.941184
H	1.48383	0.362931	0.386837
H	-1.32284	-0.113636	0.495373
C	-0.987178	1.25476	-1.16514
H	-0.151567	1.56232	-1.82943
H	-1.82499	0.880019	-1.78837
H	-1.3389	2.1544	-0.614604
N	-0.954034	-1.84076	-1.45762
C	-0.586789	-3.04371	-2.1677
H	-1.91944	-1.60907	-1.39803
H	-1.49011	-3.55772	-2.564
H	-0.0494897	-3.74938	-1.49347
H	0.0849548	-2.8052	-3.02388
C	2030.41	3.28615	-1.14639
C	2030.3	2.29109	-0.0565252
O	2030.3	2.63523	1.11737
H	2030.5	4.30336	-0.707001
H	2029.51	3.25223	-1.79236
H	2031.32	3.07887	-1.76034
N	2030.2	1.01309	-0.428771
C	2030.08	-0.0689183	0.515588
C	2030.5	-1.34596	-0.182822
O	2030.62	-1.38325	-1.40587
H	2030.22	0.742907	-1.38755
H	2030.76	0.101916	1.33513
C	2028.63	-0.204489	1.03535
H	2027.93	-0.378992	0.191926
H	2028.53	-1.03661	1.76283
H	2028.33	0.737757	1.54376
N	2030.76	-2.42225	0.585631
C	2031.18	-3.67787	0.00987896
H	2030.66	-2.36998	1.57414
H	2031.34	-4.4401	0.803786
H	2032.14	-3.55132	-0.553106
H	2030.41	-4.06471	-0.696675
