44
  This energy is 6.81465e-320 and Call times are: 57273
C	-2.7895	-2.08023	-0.132038
C	-1.69238	-1.33113	-0.785011
O	-1.47048	-1.44971	-1.98217
H	-3.30493	-2.71074	-0.888777
H	-3.52485	-1.37482	0.308967
H	-2.38295	-2.73664	0.665949
N	-0.967028	-0.53446	0.00336822
C	0.132851	0.257947	-0.485697
C	1.02017	0.6022	0.694725
O	0.625104	0.437051	1.84732
H	-1.13923	-0.468703	0.982632
H	0.717844	-0.338886	-1.17392
C	-0.365579	1.55021	-1.17035
H	-0.965888	2.15975	-0.461686
H	0.478751	2.16265	-1.54823
H	-1.01533	1.28445	-2.03252
N	2.25586	1.0713	0.432025
C	3.17499	1.41446	1.49203
H	2.55958	1.19117	-0.507452
H	4.13764	1.78285	1.07389
H	3.38723	0.526633	2.13076
H	2.74639	2.21214	2.14102
C	2718.66	1.445	-0.167004
C	2717.78	0.273294	0.00315666
O	2718.23	-0.861377	0.0606836
H	2719.72	1.09987	-0.231101
H	2718.56	2.13119	0.699976
H	2718.41	1.98852	-1.10035
N	2716.47	0.527629	0.0826994
C	2715.48	-0.507444	0.249246
C	2714.14	0.0436251	-0.215169
O	2713.99	1.24963	-0.400471
H	2716.11	1.4538	0.00526053
H	2715.73	-1.34191	-0.392574
C	2715.38	-0.961179	1.72299
H	2715.12	-0.102526	2.37869
H	2714.62	-1.75823	1.85477
H	2716.37	-1.36164	2.05144
N	2713.15	-0.835842	-0.435842
C	2711.85	-0.404524	-0.890746
H	2713.29	-1.80854	-0.286988
H	2711.16	-1.27442	-1.01161
H	2711.93	0.117265	-1.87187
H	2711.39	0.301505	-0.160456
