44
  This energy is 1.5983e-319 and Call times are: 12963
C	-3.21951	-0.963282	-0.912682
C	-1.75949	-1.19867	-0.848361
O	-1.27547	-2.26827	-1.19211
H	-3.72257	-1.87821	-1.29438
H	-3.441	-0.118727	-1.5986
H	-3.61481	-0.731144	0.0986498
N	-1.0154	-0.188084	-0.392913
C	0.418603	-0.265521	-0.272686
C	0.860383	0.789871	0.72241
O	0.0916673	1.68243	1.07489
H	-1.42441	0.668068	-0.0885253
H	0.685928	-1.23286	0.133353
C	1.11056	-0.0343386	-1.63462
H	0.83359	0.958652	-2.0486
H	2.21481	-0.0934338	-1.54569
H	0.777729	-0.813113	-2.35496
N	2.11054	0.698239	1.21709
C	2.61447	1.65109	2.1785
H	2.71502	-0.0355151	0.924793
H	3.66206	1.40719	2.4619
H	1.99107	1.64468	3.10185
H	2.59622	2.6821	1.75676
C	618.995	1.35501	1.55539
C	620.451	1.32708	1.29286
O	621.186	2.21019	1.71217
H	618.745	2.26233	2.14748
H	618.692	0.455517	2.13197
H	618.433	1.38552	0.597719
N	620.905	0.296555	0.575466
C	622.296	0.130824	0.238658
C	622.378	-0.790305	-0.963025
O	621.402	-1.44868	-1.3181
H	620.291	-0.401099	0.214793
H	622.704	1.09008	-0.0537582
C	623.094	-0.464988	1.42014
H	622.672	-1.4487	1.71796
H	624.165	-0.593785	1.16426
H	623.025	0.218481	2.29436
N	623.546	-0.841102	-1.63319
C	623.714	-1.68058	-2.7965
H	624.322	-0.295304	-1.33439
H	624.744	-1.58531	-3.20487
H	622.992	-1.3937	-3.59541
H	623.536	-2.74976	-2.5386
