44
  This energy is 4.84827e-320 and Call times are: 2673
C	-1.44074	-2.83177	1.4253
C	-1.52302	-1.44082	0.925607
O	-2.59772	-0.863278	0.836416
H	-2.46272	-3.19604	1.66762
H	-0.817743	-2.87219	2.34349
H	-0.998477	-3.49174	0.649556
N	-0.369129	-0.866439	0.577781
C	-0.287425	0.481552	0.0747152
C	1.01819	0.617225	-0.684364
O	1.89932	-0.233554	-0.576559
H	0.496523	-1.35746	0.627589
H	-1.09485	0.644463	-0.627853
C	-0.344661	1.5146	1.22217
H	0.484657	1.34414	1.9414
H	-0.282144	2.55361	0.838317
H	-1.30518	1.40411	1.7711
N	1.16379	1.6865	-1.49149
C	2.36758	1.89289	-2.26251
H	0.436383	2.36018	-1.57066
H	2.29563	2.82751	-2.86132
H	2.53773	1.04154	-2.96073
H	3.25438	1.97278	-1.59291
C	133.75	-3.11322	-0.575815
C	133.861	-1.8502	0.188216
O	133.054	-1.56759	1.06344
H	132.863	-3.68113	-0.22005
H	134.658	-3.73328	-0.423643
H	133.628	-2.89659	-1.65797
N	134.877	-1.04779	-0.136628
C	135.116	0.214069	0.516998
C	135.971	1.06152	-0.404969
O	136.542	0.559277	-1.37163
H	135.51	-1.27572	-0.871358
H	134.172	0.725324	0.651796
C	135.83	0.0185533	1.87315
H	136.799	-0.506811	1.73124
H	136.016	0.988186	2.37921
H	135.195	-0.604731	2.53892
N	136.063	2.37915	-0.137472
C	136.844	3.26636	-0.967006
H	135.588	2.76784	0.645359
H	136.795	4.30901	-0.582624
H	136.465	3.26085	-2.01449
H	137.912	2.94887	-0.984909
