44
  This energy is 2.76776e-320 and Call times are: 113007
C	-2.31381	2.60139	0.0721834
C	-1.74076	1.38597	-0.548769
O	-2.28518	0.845821	-1.50184
H	-3.25048	2.8783	-0.458694
H	-1.59534	3.44456	-0.00317348
H	-2.54905	2.41096	1.14052
N	-0.612759	0.919382	-0.00814834
C	0.0638582	-0.253353	-0.501818
C	0.952845	-0.780118	0.607893
O	1.19851	-0.0918571	1.59672
H	-0.194699	1.35155	0.786455
H	-0.671365	-1.01622	-0.724421
C	0.911022	0.0707146	-1.75258
H	1.66378	0.854145	-1.52083
H	1.43326	-0.830112	-2.13541
H	0.248433	0.456728	-2.55764
N	1.44037	-2.02973	0.478301
C	2.28572	-2.61971	1.48997
H	1.22429	-2.57346	-0.326003
H	2.58523	-3.65089	1.19977
H	1.75208	-2.6715	2.46659
H	3.20936	-2.01338	1.63296
C	5349.29	-1.41513	2.38505
C	5349.52	-0.698625	1.10968
O	5348.6	-0.466542	0.341942
H	5348.22	-1.673	2.47519
H	5349.58	-0.770878	3.24218
H	5349.89	-2.35117	2.40948
N	5350.78	-0.332197	0.850441
C	5351.16	0.372047	-0.348899
C	5352.64	0.164018	-0.56304
O	5353.35	-0.288441	0.335262
H	5351.53	-0.552764	1.47025
H	5350.64	-0.0663552	-1.19223
C	5350.84	1.8806	-0.238053
H	5351.37	2.32699	0.628518
H	5351.13	2.42586	-1.1599
H	5349.75	2.01947	-0.0801995
N	5353.15	0.471392	-1.77352
C	5354.55	0.295167	-2.07321
H	5352.56	0.82961	-2.48966
H	5354.77	0.60531	-3.11836
H	5354.85	-0.772329	-1.95449
H	5355.18	0.906256	-1.38586
