44
  This energy is 7.61355e-320 and Call times are: 70335
C	1.48915	-0.470446	-3.11243
C	0.364224	-0.650221	-2.16722
O	-0.695425	-1.14134	-2.53115
H	1.18583	-0.834888	-4.11794
H	2.37207	-1.05079	-2.77115
H	1.7594	0.604029	-3.18604
N	0.572872	-0.243506	-0.912866
C	-0.425603	-0.352729	0.120549
C	-0.0733272	0.635749	1.2151
O	1.03514	1.16674	1.24964
H	1.43036	0.181755	-0.635724
H	-1.38636	-0.064136	-0.28655
C	-0.484243	-1.78502	0.696924
H	0.503193	-2.07809	1.1131
H	-1.25214	-1.87269	1.4928
H	-0.741969	-2.49962	-0.11491
N	-1.02276	0.922911	2.1273
C	-0.782084	1.86115	3.19874
H	-1.91596	0.488155	2.07814
H	-1.68254	1.96048	3.84414
H	-0.530421	2.86698	2.79104
H	0.0688044	1.52312	3.83348
C	3336.02	-2.5799	2.30809
C	3336.18	-2.08712	0.921659
O	3336.36	-2.86201	-0.00883273
H	3336.09	-3.68928	2.31425
H	3335.03	-2.28146	2.70682
H	3336.82	-2.16471	2.95769
N	3336.13	-0.763631	0.753235
C	3336.28	-0.133965	-0.535392
C	3336.69	1.30701	-0.307215
O	3336.6	1.81647	0.808523
H	3336.02	-0.14128	1.5232
H	3337.07	-0.622525	-1.08054
C	3334.95	-0.18757	-1.33485
H	3334.14	0.31394	-0.772393
H	3335.06	0.296259	-2.32768
H	3334.66	-1.24831	-1.49431
N	3337.17	1.99367	-1.36196
C	3337.6	3.36712	-1.23722
H	3337.24	1.56152	-2.25515
H	3337.96	3.75638	-2.2144
H	3338.43	3.45424	-0.497044
H	3336.76	4.01186	-0.892325
