44
  This energy is 2.34928e-320 and Call times are: 118971
C	3.37961	0.572254	-0.613907
C	2.23379	0.408725	0.308895
O	2.39948	0.354795	1.51973
H	4.32122	0.622146	-0.0250535
H	3.27029	1.5108	-1.19701
H	3.43653	-0.290716	-1.31032
N	1.02677	0.319024	-0.254498
C	-0.183297	0.157947	0.511412
C	-1.24305	-0.418157	-0.407424
O	-1.07983	-0.42927	-1.62606
H	0.907767	0.335075	-1.2437
H	-0.00666594	-0.561028	1.30132
C	-0.662533	1.50542	1.09603
H	-0.842132	2.24084	0.283001
H	-1.594	1.38499	1.68649
H	0.123	1.91754	1.76628
N	-2.35098	-0.932765	0.161506
C	-3.40821	-1.51359	-0.632896
H	-2.46122	-0.920841	1.14991
H	-4.23311	-1.87945	0.0174412
H	-3.0247	-2.37292	-1.22932
H	-3.82666	-0.761636	-1.34046
C	5630.63	1.31017	1.9536
C	5631.63	1.42911	0.870072
O	5631.66	2.40987	0.13944
H	5629.98	2.20949	1.95004
H	5631.14	1.23922	2.93823
H	5630	0.408445	1.79662
N	5632.49	0.411753	0.737925
C	5633.52	0.382286	-0.268946
C	5633.93	-1.06295	-0.47266
O	5633.59	-1.93113	0.330851
H	5632.44	-0.39484	1.32075
H	5633.11	0.742271	-1.20365
C	5634.74	1.22804	0.152435
H	5635.16	0.856418	1.11202
H	5635.54	1.20767	-0.620659
H	5634.43	2.28421	0.299635
N	5634.65	-1.35845	-1.57125
C	5635.08	-2.70905	-1.8545
H	5634.91	-0.642997	-2.21324
H	5635.66	-2.74693	-2.80071
H	5634.2	-3.38519	-1.95777
H	5635.72	-3.09967	-1.03128
