44
  This energy is 2.23762e-320 and Call times are: 125229
C	-2.8439	0.676929	1.89212
C	-1.75821	1.0975	0.97801
O	-1.74535	2.21646	0.483789
H	-3.56881	1.5115	2.00988
H	-2.42695	0.419842	2.88856
H	-3.37524	-0.204561	1.47548
N	-0.81117	0.191017	0.725478
C	0.308854	0.451929	-0.143026
C	0.85978	-0.882564	-0.60654
O	0.525501	-1.92758	-0.0515341
H	-0.848375	-0.726994	1.11123
H	-0.0410165	0.985114	-1.01789
C	1.40886	1.25716	0.584093
H	1.76502	0.707579	1.48144
H	2.2727	1.45994	-0.0818198
H	0.992371	2.23188	0.91963
N	1.70554	-0.879272	-1.65568
C	2.27102	-2.103	-2.17424
H	1.95827	-0.0239157	-2.09582
H	2.94258	-1.89187	-3.03545
H	1.4665	-2.79279	-2.51804
H	2.86234	-2.62663	-1.38854
C	5928.94	-2.95415	-1.58686
C	5929.23	-1.80339	-0.7018
O	5930.27	-1.74074	-0.0662724
H	5929.79	-3.67284	-1.54348
H	5928.81	-2.60892	-2.63472
H	5928.01	-3.46937	-1.25478
N	5928.29	-0.855123	-0.636613
C	5928.43	0.324448	0.179918
C	5927.04	0.885345	0.424394
O	5926.08	0.499046	-0.239456
H	5927.43	-0.931798	-1.13669
H	5928.84	0.0420829	1.1394
C	5929.32	1.38501	-0.508222
H	5928.89	1.67189	-1.49253
H	5929.42	2.29453	0.117853
H	5930.33	0.961467	-0.682841
N	5926.9	1.7996	1.40434
C	5925.61	2.38036	1.71688
H	5927.69	2.09401	1.93516
H	5925.7	3.1113	2.55036
H	5924.89	1.59058	2.02094
H	5925.2	2.90973	0.830286
