44
  This energy is 5.85418e-320 and Call times are: 3051
C	-1.67271	3.02646	-0.410755
C	-1.55319	1.56622	-0.62198
O	-2.46183	0.924203	-1.13059
H	-2.66668	3.36961	-0.771488
H	-0.880923	3.56094	-0.97665
H	-1.58014	3.26589	0.669547
N	-0.411366	1.00087	-0.223262
C	-0.146963	-0.408953	-0.362279
C	0.945643	-0.777393	0.622456
O	1.61391	0.0943156	1.17506
H	0.309672	1.52984	0.216313
H	-1.0364	-0.962382	-0.0889832
C	0.294202	-0.75934	-1.80093
H	1.20651	-0.189332	-2.07825
H	0.49846	-1.84416	-1.91152
H	-0.514194	-0.483573	-2.51269
N	1.13818	-2.08569	0.881868
C	2.14748	-2.53058	1.81437
H	0.582316	-2.7756	0.429898
H	2.1516	-3.64035	1.88954
H	1.9572	-2.1113	2.82889
H	3.15902	-2.19746	1.48728
C	155.667	-2.39021	-0.572191
C	155.059	-1.31754	0.246889
O	155.484	-1.05694	1.36409
H	156.5	-2.85898	-0.00397549
H	156.069	-1.96843	-1.51712
H	154.91	-3.16775	-0.807717
N	154.029	-0.66589	-0.298999
C	153.335	0.402165	0.374419
C	151.966	0.542731	-0.263237
O	151.714	-0.00219679	-1.33613
H	153.674	-0.907053	-1.19816
H	153.188	0.127634	1.41131
C	154.111	1.73391	0.2663
H	154.26	2.0122	-0.798749
H	153.579	2.55842	0.783891
H	155.112	1.61743	0.735898
N	151.04	1.26397	0.397984
C	149.706	1.44256	-0.126213
H	151.261	1.69118	1.2684
H	149.093	2.06715	0.561039
H	149.198	0.458855	-0.25175
H	149.738	1.94382	-1.12063
