44
  This energy is 9.46679e-320 and Call times are: 102633
C	-2.04652	-1.58967	2.32612
C	-1.36239	-1.53855	1.01442
O	-1.35916	-2.50513	0.264607
H	-2.50031	-2.59502	2.46474
H	-2.84947	-0.82399	2.36891
H	-1.31878	-1.40785	3.14483
N	-0.753017	-0.390954	0.707759
C	-0.0460098	-0.188232	-0.531544
C	0.922626	0.961307	-0.332689
O	0.829274	1.69984	0.645925
H	-0.738017	0.379452	1.33957
H	0.535699	-1.07386	-0.753713
C	-1.01899	0.130981	-1.6885
H	-1.61461	1.03968	-1.45696
H	-0.477921	0.287504	-2.64428
H	-1.72393	-0.718163	-1.82322
N	1.89446	1.12592	-1.25163
C	2.86922	2.18579	-1.139
H	1.95761	0.513444	-2.03273
H	3.58291	2.15592	-1.99164
H	3.4492	2.08724	-0.192876
H	2.36889	3.1812	-1.13516
C	4858.92	-2.37507	1.47472
C	4860.12	-2.00113	0.69348
O	4860.96	-2.83631	0.383348
H	4858.96	-3.46365	1.698
H	4858	-2.1541	0.892689
H	4858.9	-1.81245	2.4317
N	4860.24	-0.713654	0.358542
C	4861.35	-0.197424	-0.400509
C	4861.43	1.29612	-0.151366
O	4860.49	1.89629	0.378379
H	4859.56	-0.0377291	0.642138
H	4862.26	-0.64234	-0.031415
C	4861.17	-0.475599	-1.91044
H	4860.23	-0.0183337	-2.28562
H	4862.03	-0.0795552	-2.49785
H	4861.12	-1.57291	-2.07951
N	4862.56	1.92946	-0.510452
C	4862.73	3.3482	-0.301134
H	4863.31	1.42492	-0.931243
H	4863.73	3.68121	-0.663701
H	4862.65	3.59822	0.781554
H	4861.95	3.92371	-0.847617
