44
  This energy is 1.07454e-319 and Call times are: 116157
C	0.345883	-3.10642	1.53515
C	0.903082	-1.81953	1.06115
O	2.05238	-1.49288	1.32364
H	1.11859	-3.64644	2.12435
H	0.0482118	-3.73608	0.670435
H	-0.538244	-2.9257	2.18215
N	0.0834933	-1.0463	0.345088
C	0.480934	0.233389	-0.185254
C	-0.776769	1.03349	-0.463203
O	-1.87873	0.488187	-0.475839
H	-0.859841	-1.31046	0.162671
H	1.04937	0.764979	0.567317
C	1.3061	0.0733078	-1.48163
H	0.720196	-0.473032	-2.25126
H	1.6139	1.05674	-1.89259
H	2.22399	-0.515464	-1.2649
N	-0.641692	2.35794	-0.672017
C	-1.78428	3.20224	-0.932427
H	0.257849	2.78173	-0.650651
H	-1.46753	4.25836	-1.07916
H	-2.50144	3.16656	-0.0805691
H	-2.32043	2.86627	-1.8494
C	5498.38	0.541873	1.64092
C	5499.55	-0.298484	1.3243
O	5499.75	-1.35418	1.90937
H	5497.78	0.0555865	2.44599
H	5497.74	0.656463	0.741815
H	5498.7	1.5434	1.99087
N	5500.38	0.163532	0.378737
C	5501.56	-0.541058	-0.0390619
C	5502.49	0.460063	-0.697599
O	5502.08	1.57355	-1.025
H	5500.22	1.03915	-0.0700557
H	5502.06	-0.931459	0.835951
C	5501.22	-1.67923	-1.02678
H	5500.7	-1.27527	-1.92294
H	5502.13	-2.22393	-1.3504
H	5500.54	-2.40515	-0.532818
N	5503.77	0.0917094	-0.887723
C	5504.73	0.982981	-1.49628
H	5504.08	-0.811119	-0.609413
H	5505.73	0.497123	-1.56677
H	5504.84	1.91558	-0.896025
H	5504.41	1.26828	-2.52317
