44
  This energy is 1.27642e-319 and Call times are: 65799
C	2.69229	1.73387	1.36799
C	2.10135	0.849862	0.338167
O	2.73822	0.519007	-0.652503
H	3.72783	2.00556	1.06847
H	2.72685	1.21101	2.34689
H	2.09126	2.66234	1.4662
N	0.846575	0.446975	0.551658
C	0.136748	-0.415104	-0.359272
C	-1.3477	-0.243584	-0.101938
O	-1.74835	0.324142	0.912461
H	0.328286	0.746964	1.3481
H	0.334001	-0.0934657	-1.37402
C	0.542118	-1.89343	-0.165993
H	0.33903	-2.21988	0.876264
H	-0.00246503	-2.55997	-0.865944
H	1.6318	-2.00554	-0.356187
N	-2.20183	-0.714465	-1.03185
C	-3.63222	-0.585768	-0.87823
H	-1.85783	-1.1645	-1.84939
H	-4.16299	-1.03587	-1.74595
H	-3.92472	0.486862	-0.806446
H	-3.97589	-1.10009	0.0483456
C	3117.89	-1.27965	1.42026
C	3119.26	-0.724121	1.53197
O	3119.74	-0.445886	2.62104
H	3117.45	-1.37035	2.43555
H	3117.92	-2.28554	0.951293
H	3117.25	-0.607421	0.808204
N	3119.92	-0.542668	0.386733
C	3121.26	-0.0112323	0.333135
C	3121.49	0.536503	-1.06225
O	3120.71	0.260754	-1.97967
H	3119.5	-0.745957	-0.496082
H	3121.34	0.815355	1.02788
C	3122.31	-1.0978	0.655704
H	3122.22	-1.94456	-0.0585132
H	3123.34	-0.691964	0.615468
H	3122.13	-1.49176	1.6799
N	3122.54	1.348	-1.24967
C	3122.83	1.92611	-2.54116
H	3123.15	1.56492	-0.493015
H	3123.75	2.56159	-2.49188
H	3121.99	2.55799	-2.88833
H	3123	1.12815	-3.29993
