44
  This energy is 4.18572e-320 and Call times are: 2421
C	-0.955392	3.05336	-1.37489
C	-1.0478	1.57845	-1.28955
O	-1.90087	0.961031	-1.9121
H	-1.75192	3.43274	-2.05126
H	0.0336871	3.35181	-1.78168
H	-1.09263	3.50439	-0.369565
N	-0.159216	0.973433	-0.497877
C	-0.122595	-0.455272	-0.312706
C	0.608714	-0.738275	0.985113
O	1.2626	0.141053	1.54283
H	0.512258	1.48996	0.026775
H	-1.13551	-0.822362	-0.206303
C	0.592176	-1.15681	-1.48917
H	1.63081	-0.777366	-1.59587
H	0.622023	-2.25703	-1.34988
H	0.047485	-0.940765	-2.43404
N	0.496095	-1.97461	1.50931
C	1.14747	-2.33246	2.7478
H	-0.0434828	-2.67031	1.04661
H	0.936229	-3.39227	3.01129
H	0.788996	-1.68595	3.58132
H	2.251	-2.20554	2.66248
C	124.491	3.23396	-0.0282819
C	124.009	2.03107	0.687274
O	124.111	1.93488	1.90256
H	124.925	3.94826	0.704846
H	123.649	3.7282	-0.556243
H	125.274	2.95379	-0.763755
N	123.47	1.06934	-0.0656946
C	122.957	-0.159295	0.48528
C	122.918	-1.18873	-0.627386
O	123.044	-0.849237	-1.80245
H	123.42	1.14712	-1.05783
H	123.642	-0.518775	1.24255
C	121.543	0.0369851	1.07638
H	120.843	0.406453	0.296983
H	121.144	-0.907076	1.50163
H	121.584	0.794175	1.88946
N	122.765	-2.48118	-0.278186
C	122.728	-3.53224	-1.26821
H	122.672	-2.73647	0.678598
H	122.593	-4.52435	-0.783718
H	123.676	-3.55389	-1.85301
H	121.887	-3.37243	-1.9806
