44
  This energy is 2.08002e-320 and Call times are: 19767
C	1.58886	2.92092	1.03434
C	1.34014	1.46579	1.14358
O	2.00533	0.764946	1.8938
H	2.42802	3.20164	1.70729
H	0.682457	3.48757	1.33464
H	1.86101	3.18555	-0.00913658
N	0.363174	0.972154	0.379241
C	0.00311618	-0.423257	0.375408
C	-0.72912	-0.711927	-0.920638
O	-1.14224	0.20575	-1.62706
H	-0.152168	1.54846	-0.249433
H	0.906548	-1.01977	0.382697
C	-0.894371	-0.775915	1.58258
H	-1.81995	-0.161658	1.57235
H	-1.17336	-1.84967	1.5828
H	-0.347028	-0.558854	2.52568
N	-0.887976	-2.00241	-1.27479
C	-1.56185	-2.373	-2.49739
H	-0.540237	-2.73047	-0.693209
H	-1.59285	-3.47921	-2.60956
H	-1.03521	-1.94572	-3.38132
H	-2.60827	-1.99068	-2.50087
C	943.363	2.0792	2.37977
C	942.631	0.850183	1.9988
O	942.402	-0.0290013	2.8179
H	943.634	2.02643	3.45666
H	942.724	2.97197	2.21328
H	944.292	2.17296	1.77952
N	942.248	0.759565	0.723139
C	941.527	-0.374555	0.202114
C	941.716	-0.39558	-1.30223
O	942.17	0.583071	-1.89252
H	942.466	1.46942	0.0587788
H	941.963	-1.28177	0.601108
C	940.024	-0.292677	0.547492
H	939.58	0.639526	0.137239
H	939.466	-1.16448	0.147929
H	939.899	-0.276767	1.65216
N	941.391	-1.5274	-1.95736
C	941.548	-1.64398	-3.38838
H	941.032	-2.31102	-1.46088
H	941.225	-2.64894	-3.73895
H	942.614	-1.49693	-3.67977
H	940.937	-0.875618	-3.91491
