44
  This energy is 1.53225e-319 and Call times are: 98769
C	-2.13226	2.53579	-1.07209
C	-1.82458	1.37037	-0.212819
O	-2.57961	1.03196	0.688238
H	-3.09365	2.98887	-0.746051
H	-2.22665	2.21594	-2.13115
H	-1.32873	3.29734	-0.986489
N	-0.6857	0.724798	-0.474642
C	-0.250271	-0.427075	0.273967
C	1.24662	-0.570707	0.0791982
O	1.82821	0.0542902	-0.805652
H	-0.0647702	1.02786	-1.19265
H	-0.429542	-0.250701	1.32698
C	-0.972644	-1.70939	-0.1961
H	-0.787141	-1.88693	-1.27693
H	-0.639833	-2.59822	0.378348
H	-2.06836	-1.59101	-0.0493098
N	1.91112	-1.38641	0.921255
C	3.33933	-1.57629	0.819529
H	1.42363	-1.87793	1.63539
H	3.69836	-2.28444	1.59855
H	3.87479	-0.608341	0.952226
H	3.61106	-1.98699	-0.179803
C	4677.64	-2.21815	-2.36991
C	4678.41	-1.92678	-1.1398
O	4678.84	-2.82879	-0.432322
H	4677.54	-3.319	-2.48936
H	4678.16	-1.80612	-3.25693
H	4676.62	-1.77175	-2.30128
N	4678.6	-0.637369	-0.851554
C	4679.33	-0.196187	0.310378
C	4678.92	1.23293	0.604658
O	4678.3	1.89162	-0.226917
H	4678.22	0.0883996	-1.42024
H	4679.04	-0.803373	1.15881
C	4680.86	-0.271662	0.0788539
H	4681.15	0.35184	-0.792653
H	4681.42	0.0671916	0.971633
H	4681.15	-1.32329	-0.136865
N	4679.24	1.73996	1.81159
C	4678.88	3.08743	2.18509
H	4679.73	1.18863	2.47355
H	4679.23	3.31841	3.21438
H	4677.77	3.21966	2.15571
H	4679.33	3.825	1.48475
