44
  This energy is 4.41596e-320 and Call times are: 2505
C	0.834159	0.583149	-3.3302
C	0.365467	1.04781	-2.0052
O	0.205879	2.23812	-1.77241
H	0.99758	1.46211	-3.99095
H	0.0733398	-0.0789425	-3.79454
H	1.79095	0.0295195	-3.22534
N	0.136923	0.101443	-1.09168
C	-0.322383	0.397026	0.241924
C	0.0216173	-0.785863	1.12605
O	0.360304	-1.86071	0.634284
H	0.298572	-0.862753	-1.28437
H	0.217888	1.25666	0.617693
C	-1.84556	0.654634	0.268074
H	-2.39669	-0.228988	-0.118692
H	-2.20255	0.882691	1.29342
H	-2.08464	1.52265	-0.384262
N	-0.0368995	-0.606836	2.46041
C	0.284735	-1.67264	3.38063
H	-0.306265	0.272577	2.83897
H	0.175292	-1.32985	4.43313
H	1.33367	-2.01724	3.23154
H	-0.390723	-2.5446	3.22375
C	125.258	-2.66018	1.12998
C	125.909	-1.89305	0.0444107
O	125.924	-2.31166	-1.10495
H	124.838	-3.60164	0.713664
H	124.433	-2.06586	1.57688
H	125.999	-2.91416	1.91709
N	126.476	-0.735931	0.393675
C	127.147	0.121794	-0.549976
C	128.085	1.02533	0.226874
O	127.992	1.12588	1.44881
H	126.482	-0.419788	1.33863
H	127.75	-0.486984	-1.21176
C	126.138	0.9702	-1.35568
H	125.521	1.59299	-0.673629
H	126.652	1.63169	-2.08334
H	125.456	0.296707	-1.91927
N	129.03	1.69048	-0.466881
C	129.974	2.56427	0.189216
H	129.093	1.59033	-1.4544
H	130.668	3.0198	-0.551034
H	130.579	1.9997	0.935423
H	129.444	3.38516	0.724358
