44
  This energy is 9.93566e-320 and Call times are: 89991
C	2.86692	1.80489	-0.80578
C	1.76561	1.45621	0.119831
O	1.73892	1.89036	1.2632
H	3.58847	2.47041	-0.28394
H	2.46599	2.33618	-1.69449
H	3.39742	0.885966	-1.13303
N	0.820439	0.645609	-0.361761
C	-0.313584	0.21748	0.417678
C	-0.863194	-1.04634	-0.214725
O	-0.514683	-1.38725	-1.34351
H	0.868705	0.275234	-1.28557
H	0.0203902	-0.0329469	1.41659
C	-1.40773	1.30733	0.464421
H	-1.74757	1.56229	-0.562041
H	-2.28232	0.981018	1.06391
H	-0.992244	2.2282	0.928657
N	-1.72406	-1.78566	0.512127
C	-2.28968	-3.01078	-0.00297917
H	-1.98825	-1.49668	1.42642
H	-2.9749	-3.47142	0.742366
H	-1.48614	-3.74488	-0.240981
H	-2.86643	-2.81563	-0.935965
C	4264.58	-1.70737	2.1116
C	4263.54	-0.678996	1.86623
O	4263.03	-0.0660113	2.79149
H	4264.76	-1.79331	3.20518
H	4265.53	-1.42075	1.61218
H	4264.24	-2.69165	1.72471
N	4263.21	-0.469484	0.591629
C	4262.22	0.498076	0.194422
C	4261.72	0.117448	-1.18732
O	4262.33	-0.70542	-1.8686
H	4263.61	-0.995861	-0.151017
H	4261.37	0.438762	0.873208
C	4262.8	1.9276	0.17374
H	4263.66	1.98469	-0.523103
H	4262.04	2.67515	-0.131547
H	4263.16	2.19396	1.19132
N	4260.58	0.695502	-1.62558
C	4260.03	0.385645	-2.92315
H	4260.1	1.35363	-1.05649
H	4259.1	0.963378	-3.10042
H	4259.79	-0.69974	-2.99905
H	4260.76	0.636197	-3.73024
