44
  This energy is 1.50339e-319 and Call times are: 54291
C	-0.234649	0.697033	3.40371
C	-0.0436458	1.12108	1.99839
O	0.00744821	2.30544	1.69643
H	-0.319275	1.59711	4.05067
H	0.63253	0.0916732	3.74188
H	-1.16391	0.0968436	3.49958
N	0.0617814	0.145081	1.09359
C	0.250872	0.399586	-0.31222
C	-0.187746	-0.836776	-1.07266
O	-0.37288	-1.90208	-0.487263
H	-0.01062	-0.815558	1.34828
H	-0.393895	1.21603	-0.611835
C	1.72737	0.723758	-0.631558
H	2.38608	-0.115631	-0.322294
H	1.87649	0.920403	-1.71316
H	2.03679	1.63057	-0.0675598
N	-0.386009	-0.71659	-2.40015
C	-0.815492	-1.83676	-3.20449
H	-0.237742	0.155759	-2.85431
H	-0.920361	-1.53795	-4.27077
H	-1.7993	-2.22085	-2.84976
H	-0.0778034	-2.66946	-3.14454
C	2575.39	-2.12615	2.75783
C	2574.69	-1.34141	1.71787
O	2573.48	-1.42615	1.57239
H	2574.66	-2.74679	3.31101
H	2575.9	-1.44527	3.47436
H	2576.15	-2.79479	2.28957
N	2575.45	-0.551688	0.955901
C	2574.91	0.272304	-0.0967521
C	2576.04	0.602977	-1.05321
O	2577.21	0.402113	-0.736691
H	2576.44	-0.513431	1.06511
H	2574.17	-0.296596	-0.645424
C	2574.3	1.57203	0.466191
H	2575.06	2.15285	1.02902
H	2573.88	2.20878	-0.341658
H	2573.47	1.31616	1.1662
N	2575.71	1.10062	-2.26138
C	2576.72	1.43377	-3.24177
H	2574.76	1.24928	-2.50136
H	2576.25	1.82971	-4.16904
H	2577.32	0.534285	-3.50957
H	2577.42	2.20722	-2.84331
