44
  This energy is 8.94901e-320 and Call times are: 10275
C	-0.113916	-2.38906	2.53092
C	-0.69665	-1.71834	1.34696
O	-1.71072	-2.14606	0.812922
H	-0.732235	-3.27513	2.79248
H	-0.0989839	-1.69326	3.39606
H	0.920866	-2.72554	2.30967
N	-0.0527873	-0.637094	0.901181
C	-0.497512	0.122353	-0.239997
C	0.686751	0.910007	-0.765697
O	1.70875	1.03242	-0.093113
H	0.788662	-0.315561	1.32723
H	-0.808932	-0.562344	-1.01864
C	-1.64858	1.08166	0.13666
H	-1.32587	1.78223	0.93615
H	-1.99354	1.66788	-0.739771
H	-2.50945	0.492569	0.521387
N	0.583302	1.44685	-1.9974
C	1.66436	2.20304	-2.58533
H	-0.249328	1.33062	-2.52886
H	1.38623	2.56244	-3.60057
H	2.58013	1.57484	-2.67462
H	1.9128	3.08804	-1.95586
C	494.829	-2.30002	-2.4034
C	493.963	-1.89954	-1.27178
O	493.027	-2.60044	-0.912861
H	494.473	-3.26999	-2.81333
H	495.878	-2.41909	-2.05893
H	494.789	-1.53399	-3.20621
N	494.259	-0.740056	-0.679868
C	493.509	-0.217101	0.433883
C	493.761	1.27645	0.505148
O	494.679	1.79017	-0.13145
H	495.007	-0.164017	-1.00019
H	492.453	-0.363983	0.246666
C	493.928	-0.890377	1.75995
H	495.012	-0.738301	1.94855
H	493.352	-0.490146	2.61959
H	493.739	-1.98416	1.69448
N	492.932	2.01437	1.26982
C	493.088	3.44539	1.38896
H	492.191	1.58102	1.77163
H	492.312	3.87048	2.06293
H	492.993	3.93514	0.392743
H	494.09	3.69868	1.80444
