44
  This energy is 7.18124e-320 and Call times are: 70167
C	1.02045	0.935807	3.19516
C	0.735946	1.24723	1.77626
O	0.759292	2.3989	1.36445
H	1.22974	1.8799	3.74357
H	1.90738	0.272134	3.27078
H	0.144705	0.436391	3.66057
N	0.45059	0.208989	0.986962
C	0.152481	0.352182	-0.415697
C	-0.60844	-0.882321	-0.858687
O	-0.649584	-1.88434	-0.147277
H	0.406153	-0.721496	1.34074
H	-0.498677	1.20634	-0.551614
C	1.44224	0.509725	-1.25165
H	2.10823	-0.367956	-1.10933
H	1.21634	0.620369	-2.33216
H	1.99105	1.41678	-0.916671
N	-1.25021	-0.829748	-2.04248
C	-2.00999	-1.95259	-2.54063
H	-1.21081	-0.00726537	-2.60034
H	-2.46078	-1.71477	-3.5293
H	-2.83122	-2.21529	-1.83507
H	-1.35706	-2.84749	-2.65903
C	3327.57	0.948707	3.24728
C	3328.55	0.490434	2.23359
O	3329.75	0.421305	2.49127
H	3328.11	1.1957	4.18898
H	3326.83	0.147597	3.45504
H	3327.05	1.85587	2.88659
N	3328.06	0.167788	1.03648
C	3328.88	-0.294791	-0.0514498
C	3328.12	-0.0650706	-1.34274
O	3326.92	0.197264	-1.32639
H	3327.09	0.256138	0.829902
H	3329.78	0.304154	-0.089614
C	3329.23	-1.7928	0.102225
H	3328.3	-2.40424	0.141711
H	3329.86	-2.15223	-0.733728
H	3329.78	-1.94799	1.05238
N	3328.81	-0.137532	-2.49713
C	3328.17	0.0784619	-3.77487
H	3329.78	-0.343948	-2.48903
H	3328.91	-0.0256974	-4.60369
H	3327.73	1.09953	-3.82528
H	3327.36	-0.660852	-3.93593
