44
  This energy is 1.05434e-320 and Call times are: 55089
C	2.70275	-1.44968	-1.64915
C	1.48252	-0.611774	-1.63713
O	1.14677	0.0308867	-2.6224
H	3.19518	-1.36716	-2.64241
H	2.43881	-2.51253	-1.46612
H	3.4115	-1.10515	-0.866898
N	0.784818	-0.596548	-0.498993
C	-0.42416	0.170143	-0.333507
C	-0.645247	0.37655	1.15234
O	-0.0143932	-0.279741	1.97887
H	1.08454	-1.10144	0.306106
H	-0.287114	1.14491	-0.784207
C	-1.63895	-0.553793	-0.955861
H	-1.77622	-1.55369	-0.491664
H	-2.57151	0.0338771	-0.830354
H	-1.4641	-0.700019	-2.04407
N	-1.53667	1.31507	1.52724
C	-1.80424	1.58964	2.91979
H	-2.0319	1.84066	0.843332
H	-2.56771	2.39198	3.02277
H	-0.876302	1.91993	3.44046
H	-2.18284	0.677098	3.43467
C	2608.74	-0.682236	-2.00933
C	2609.73	-1.07738	-0.988014
O	2609.64	-2.14109	-0.391195
H	2607.97	-1.47792	-2.09726
H	2609.23	-0.550428	-2.99481
H	2608.24	0.267032	-1.71441
N	2610.72	-0.210774	-0.757849
C	2611.77	-0.453937	0.205509
C	2612.38	0.882981	0.578093
O	2612.15	1.88715	-0.0940301
H	2610.77	0.665492	-1.22972
H	2611.33	-0.876055	1.10072
C	2612.85	-1.39307	-0.366252
H	2613.3	-0.957265	-1.28491
H	2613.66	-1.58254	0.37299
H	2612.39	-2.3684	-0.636352
N	2613.16	0.930376	1.67801
C	2613.77	2.16177	2.11667
H	2613.32	0.108356	2.21269
H	2614.37	1.99506	3.03759
H	2612.99	2.93037	2.33863
H	2614.44	2.56823	1.32734
