44
  This energy is 1.00844e-319 and Call times are: 71301
C	2.64677	-1.9242	1.19087
C	1.28875	-1.7919	0.616877
O	0.657995	-2.77431	0.25148
H	2.93582	-2.99755	1.20678
H	2.66292	-1.53228	2.2296
H	3.37977	-1.36372	0.573201
N	0.804723	-0.551561	0.518656
C	-0.500956	-0.262287	-0.0183273
C	-0.512595	1.18861	-0.458797
O	0.378151	1.95959	-0.106681
H	1.33993	0.242978	0.792866
H	-0.663623	-0.874004	-0.89663
C	-1.60785	-0.507752	1.03127
H	-1.4375	0.120879	1.93122
H	-2.61452	-0.286124	0.621057
H	-1.58803	-1.57373	1.34662
N	-1.51724	1.58989	-1.26233
C	-1.60435	2.94962	-1.74162
H	-2.22466	0.949142	-1.54204
H	-2.50073	3.08254	-2.38666
H	-0.701201	3.21471	-2.33769
H	-1.67692	3.66304	-0.889001
C	3382.36	-2.01097	-2.84257
C	3382.64	-1.79439	-1.40565
O	3382.97	-2.72058	-0.680249
H	3382.49	-3.08675	-3.08604
H	3383.05	-1.40916	-3.46401
H	3381.31	-1.72202	-3.0751
N	3382.5	-0.544968	-0.955956
C	3382.74	-0.17742	0.416839
C	3382.01	1.12534	0.684017
O	3381.58	1.80395	-0.244324
H	3382.2	0.195484	-1.55049
H	3382.31	-0.932674	1.06313
C	3384.25	-0.00956791	0.699453
H	3384.69	0.765491	0.0342542
H	3384.44	0.273291	1.75565
H	3384.77	-0.970297	0.498862
N	3381.84	1.49494	1.96888
C	3381.15	2.71336	2.31997
H	3382.19	0.928593	2.70619
H	3381.12	2.84206	3.4243
H	3380.1	2.69568	1.93692
H	3381.66	3.5981	1.8794
