44
  This energy is 1.03937e-319 and Call times are: 46437
C	2.18176	2.46367	1.1386
C	1.11174	1.99065	0.231676
O	0.54303	2.75975	-0.530914
H	2.33097	3.55557	0.992523
H	3.13357	1.93775	0.914342
H	1.89743	2.27804	2.19579
N	0.806315	0.692852	0.301024
C	-0.211744	0.0846159	-0.517776
C	-0.646503	-1.20129	0.157992
O	0.0174809	-1.68671	1.07196
H	1.25672	0.0823785	0.947083
H	-1.07088	0.742184	-0.557317
C	0.313909	-0.213859	-1.93965
H	1.19566	-0.888153	-1.89532
H	-0.467498	-0.682106	-2.57283
H	0.630241	0.735887	-2.42345
N	-1.79101	-1.77355	-0.264657
C	-2.28979	-2.99282	0.327614
H	-2.31788	-1.36152	-1.00078
H	-3.24097	-3.30504	-0.157189
H	-2.48115	-2.85125	1.416
H	-1.54982	-3.81753	0.211579
C	2202.44	-0.411515	2.917
C	2203.69	-0.0411608	2.20844
O	2204.63	0.464489	2.80511
H	2202.54	-0.149197	3.99289
H	2202.26	-1.50349	2.8283
H	2201.58	0.141302	2.48906
N	2203.72	-0.284164	0.896045
C	2204.86	0.0205548	0.0709468
C	2204.39	0.114212	-1.36589
O	2203.27	-0.300792	-1.68859
H	2202.94	-0.669656	0.416265
H	2205.25	0.990869	0.352695
C	2205.95	-1.06431	0.199443
H	2205.55	-2.05855	-0.089724
H	2206.83	-0.832731	-0.434465
H	2206.29	-1.12385	1.25668
N	2205.21	0.685378	-2.26237
C	2204.84	0.828775	-3.65061
H	2206.11	1.02152	-1.9802
H	2205.66	1.32022	-4.22723
H	2203.92	1.44744	-3.74856
H	2204.64	-0.166661	-4.10818
