44
  This energy is 5.32059e-320 and Call times are: 14979
C	1.85139	2.09684	-2.07406
C	0.704835	1.83745	-1.17444
O	-0.0380202	2.74226	-0.819503
H	1.88636	3.18008	-2.3215
H	1.73883	1.51695	-3.01421
H	2.80153	1.81122	-1.57546
N	0.537947	0.57434	-0.775596
C	-0.531668	0.165849	0.0995539
C	-0.131066	-1.1472	0.743502
O	0.81561	-1.79871	0.306272
H	1.16705	-0.148698	-1.04832
H	-0.64048	0.899357	0.88835
C	-1.85777	-0.00491089	-0.674657
H	-1.74237	-0.757605	-1.48351
H	-2.68353	-0.319256	-0.00377476
H	-2.13965	0.963459	-1.14258
N	-0.833929	-1.55658	1.81793
C	-0.517393	-2.78776	2.50363
H	-1.59204	-1.01174	2.16093
H	-1.20913	-2.95032	3.35939
H	0.52516	-2.76229	2.89564
H	-0.60501	-3.65667	1.81189
C	714.746	3.47454	0.225521
C	715.47	2.18341	0.191383
O	716.691	2.14383	0.141683
H	715.481	4.3081	0.192105
H	714.153	3.55597	1.16036
H	714.069	3.55722	-0.650414
N	714.717	1.08119	0.211812
C	715.275	-0.247247	0.183823
C	714.195	-1.19582	-0.300204
O	713.02	-0.838618	-0.347815
H	713.721	1.12679	0.222933
H	716.083	-0.274248	-0.535722
C	715.772	-0.677804	1.58163
H	714.941	-0.648311	2.31744
H	716.203	-1.70018	1.56365
H	716.562	0.0255852	1.92539
N	714.576	-2.42737	-0.693333
C	713.619	-3.39417	-1.18022
H	715.533	-2.69507	-0.654007
H	714.126	-4.34624	-1.45192
H	713.094	-3.00679	-2.08309
H	712.853	-3.61462	-0.402614
