44
  This energy is 1.6487e-320 and Call times are: 93057
C	1.64693	1.80846	-2.47855
C	1.07392	0.550838	-1.94823
O	1.00149	-0.453573	-2.64278
H	1.95581	1.65441	-3.5353
H	2.53653	2.10429	-1.88364
H	0.890225	2.62016	-2.43997
N	0.641945	0.582205	-0.68538
C	0.0605042	-0.561742	-0.0295312
C	-0.763841	-0.0593058	1.13976
O	-0.648607	1.09796	1.53889
H	0.679766	1.41479	-0.139209
H	-0.612525	-1.0574	-0.717592
C	1.14933	-1.53814	0.46869
H	1.8384	-1.02619	1.17382
H	0.705078	-2.4202	0.974058
H	1.74691	-1.89802	-0.397064
N	-1.63575	-0.917688	1.70452
C	-2.47135	-0.524511	2.8151
H	-1.71946	-1.8479	1.36256
H	-3.11796	-1.36956	3.13919
H	-3.12751	0.329546	2.53
H	-1.8485	-0.20682	3.68246
C	4403.44	-0.289421	-0.303649
C	4404.82	-0.519639	-0.803153
O	4405.02	-1.21342	-1.78928
H	4402.72	-0.834348	-0.950076
H	4403.2	0.794231	-0.330751
H	4403.35	-0.66324	0.737442
N	4405.8	0.0634223	-0.117084
C	4407.19	-0.0672021	-0.480103
C	4408.03	0.250817	0.745711
O	4407.52	0.792813	1.7267
H	4405.62	0.602369	0.701709
H	4407.39	-1.09595	-0.753993
C	4407.56	0.886971	-1.63725
H	4407.36	1.94142	-1.35311
H	4408.63	0.788872	-1.91941
H	4406.94	0.644496	-2.52874
N	4409.33	-0.101234	0.725423
C	4410.19	0.15069	1.85154
H	4409.72	-0.545396	-0.0750533
H	4411.23	-0.209425	1.64107
H	4409.82	-0.371715	2.76141
H	4410.24	1.24114	2.07467
