44
  This energy is 9.43468e-320 and Call times are: 22539
C	-3.21378	0.22518	1.32177
C	-2.26679	0.282104	0.185467
O	-2.66593	0.391415	-0.965719
H	-4.25446	0.289542	0.93615
H	-3.03348	1.0752	2.01299
H	-3.09327	-0.731117	1.87306
N	-0.969446	0.201837	0.490142
C	0.0713564	0.243295	-0.50577
C	1.3165	-0.379172	0.0953975
O	1.398	-0.578203	1.30601
H	-0.658132	0.0836835	1.42932
H	-0.225553	-0.365203	-1.35055
C	0.364822	1.69287	-0.952684
H	0.668472	2.31448	-0.08348
H	1.16566	1.72843	-1.71961
H	-0.555318	2.13799	-1.39012
N	2.31202	-0.722576	-0.745437
C	3.53031	-1.33192	-0.265181
H	2.2241	-0.559918	-1.7227
H	4.22594	-1.53781	-1.10837
H	3.31108	-2.29443	0.251306
H	4.04627	-0.661047	0.459314
C	1070.6	-0.554641	-0.96079
C	1072.06	-0.723261	-1.1544
O	1072.5	-1.47138	-2.01581
H	1070.06	-1.19532	-1.68865
H	1070.31	0.504365	-1.12879
H	1070.31	-0.856723	0.0684411
N	1072.85	-0.0230664	-0.338504
C	1074.29	-0.0815629	-0.404655
C	1074.83	0.383961	0.930701
O	1074.11	0.95957	1.74058
H	1072.48	0.560666	0.378459
H	1074.59	-1.11119	-0.543886
C	1074.83	0.808704	-1.54258
H	1074.52	1.86415	-1.39695
H	1075.94	0.765885	-1.59644
H	1074.43	0.458161	-2.51516
N	1076.13	0.124204	1.20069
C	1076.73	0.519095	2.45136
H	1076.7	-0.349059	0.535259
H	1077.8	0.218267	2.48267
H	1076.21	0.0398795	3.30987
H	1076.68	1.62367	2.58455
