44
  This energy is 9.32648e-320 and Call times are: 28335
C	-2.17532	2.7191	-0.0242211
C	-1.89041	1.27847	-0.210232
O	-2.7911	0.47725	-0.418292
H	-3.27123	2.88957	-0.100307
H	-1.66366	3.31474	-0.809222
H	-1.82848	3.05185	0.976737
N	-0.608881	0.912499	-0.131958
C	-0.174613	-0.452337	-0.291528
C	1.1902	-0.58568	0.355573
O	1.83885	0.411686	0.665965
H	0.112668	1.57033	0.0669555
H	-0.856291	-1.10306	0.241339
C	-0.0961283	-0.846893	-1.78327
H	0.603531	-0.176887	-2.32704
H	0.2378	-1.89726	-1.90975
H	-1.1018	-0.743811	-2.24602
N	1.64975	-1.82971	0.594732
C	2.93321	-2.05431	1.218
H	1.10679	-2.62401	0.342706
H	3.13223	-3.14322	1.32708
H	2.96541	-1.58906	2.2298
H	3.75058	-1.60793	0.606575
C	1350.31	-2.93733	-1.33315
C	1349.17	-2.10977	-0.878429
O	1348.02	-2.47371	-1.05231
H	1349.93	-3.85858	-1.82086
H	1350.94	-3.22708	-0.467301
H	1350.93	-2.3732	-2.06621
N	1349.48	-0.955752	-0.280989
C	1348.48	-0.0436514	0.215662
C	1349.12	1.32634	0.336258
O	1350.34	1.45808	0.277374
H	1350.42	-0.656785	-0.171322
H	1347.68	0.0294429	-0.508989
C	1347.93	-0.498667	1.5881
H	1348.76	-0.573237	2.32891
H	1347.16	0.201331	1.97337
H	1347.47	-1.50387	1.48654
N	1348.3	2.38637	0.487019
C	1348.82	3.73038	0.598303
H	1347.31	2.25987	0.525212
H	1347.99	4.46213	0.717809
H	1349.4	4.00447	-0.312047
H	1349.49	3.81965	1.47917
