44
  This energy is 1.46708e-319 and Call times are: 117627
C	2.96292	0.0195512	-1.82944
C	1.6264	-0.537827	-1.52246
O	1.12466	-1.40277	-2.22719
H	3.36121	-0.465471	-2.74704
H	3.661	-0.175036	-0.988228
H	2.89059	1.11377	-2.00379
N	1.00917	-0.040896	-0.448005
C	-0.294652	-0.482497	-0.0215447
C	-0.890097	0.601872	0.855283
O	-0.188427	1.51107	1.29442
H	1.41586	0.684235	0.101287
H	-0.931511	-0.589563	-0.890464
C	-0.210097	-1.81189	0.761193
H	0.444543	-1.69864	1.65155
H	-1.2123	-2.15487	1.09093
H	0.228746	-2.59764	0.108388
N	-2.21139	0.541776	1.11332
C	-2.86812	1.53693	1.92852
H	-2.76348	-0.197949	0.742867
H	-3.95322	1.31235	2.02526
H	-2.75869	2.54944	1.47674
H	-2.4233	1.56455	2.94958
C	5573.34	1.03222	-2.70048
C	5572.49	1.31969	-1.52508
O	5572.34	2.46249	-1.11363
H	5573.78	1.98218	-3.07907
H	5572.74	0.567713	-3.50744
H	5574.17	0.346127	-2.41607
N	5571.9	0.269036	-0.946869
C	5571.04	0.388765	0.204483
C	5570.99	-0.964068	0.887145
O	5571.4	-1.97341	0.316224
H	5572.05	-0.660284	-1.27377
H	5571.48	1.09078	0.900717
C	5569.62	0.838962	-0.198472
H	5569.17	0.116887	-0.913275
H	5568.96	0.932308	0.685697
H	5569.68	1.83051	-0.6985
N	5570.5	-1.01171	2.14151
C	5570.42	-2.25352	2.87477
H	5570.18	-0.182819	2.58904
H	5569.99	-2.08593	3.88591
H	5571.43	-2.70411	2.99629
H	5569.78	-2.98728	2.33606
