44
  This energy is 6.7939e-320 and Call times are: 15525
C	-2.2825	1.01734	-2.42515
C	-1.91063	0.197448	-1.25012
O	-2.74231	-0.481629	-0.663895
H	-3.36876	0.896531	-2.62837
H	-1.71101	0.687465	-3.31813
H	-2.07103	2.08915	-2.22653
N	-0.631331	0.249149	-0.871865
C	-0.117953	-0.492622	0.251989
C	1.16657	0.174918	0.703242
O	1.72706	1.00576	-0.00906425
H	0.0304078	0.828813	-1.33987
H	-0.826038	-0.429211	1.06849
C	0.152812	-1.96671	-0.12334
H	0.879107	-2.02804	-0.961701
H	0.548056	-2.5408	0.739784
H	-0.795568	-2.44406	-0.453266
N	1.65275	-0.159667	1.91472
C	2.86363	0.433066	2.43301
H	1.18077	-0.828835	2.47924
H	3.0993	0.0278518	3.44172
H	2.75547	1.5388	2.516
H	3.72508	0.220016	1.75943
C	740.693	-3.28202	1.15891
C	741.364	-1.96892	1.0284
O	742.394	-1.72091	1.64079
H	741.268	-3.91921	1.86596
H	740.65	-3.78919	0.172138
H	739.663	-3.1484	1.55114
N	740.781	-1.08312	0.217464
C	741.314	0.235841	-0.0121673
C	740.187	1.11129	-0.524953
O	739.132	0.614019	-0.914412
H	739.926	-1.28681	-0.253239
H	741.649	0.649168	0.930847
C	742.471	0.204505	-1.03619
H	742.124	-0.220693	-2.00221
H	742.884	1.21845	-1.21524
H	743.289	-0.440919	-0.649371
N	740.378	2.44523	-0.516057
C	739.357	3.35799	-0.974362
H	741.236	2.82864	-0.19036
H	739.705	4.41129	-0.890122
H	738.429	3.24554	-0.368347
H	739.1	3.15758	-2.03973
