44
  This energy is 1.3484e-319 and Call times are: 110907
C	2.80478	1.02794	-1.7896
C	1.88762	-0.0255131	-1.29944
O	1.98942	-1.18215	-1.68456
H	3.52287	0.582685	-2.51206
H	3.37276	1.46548	-0.941789
H	2.22991	1.82836	-2.30125
N	0.952451	0.360686	-0.428422
C	-0.0116491	-0.548627	0.137696
C	-1.18787	0.269311	0.634402
O	-1.10022	1.49026	0.750356
H	0.861395	1.31155	-0.144692
H	-0.374388	-1.20683	-0.641575
C	0.598233	-1.3627	1.30064
H	0.96995	-0.684325	2.09798
H	-0.141385	-2.06398	1.73875
H	1.45948	-1.95649	0.924064
N	-2.3296	-0.387123	0.919953
C	-3.50516	0.309711	1.38758
H	-2.38284	-1.3745	0.812814
H	-4.33919	-0.403653	1.56855
H	-3.84233	1.05969	0.635857
H	-3.29074	0.847355	2.33949
C	5256.84	1.43093	-1.19392
C	5255.86	1.18273	-0.11438
O	5256.08	1.54296	1.03417
H	5257.73	1.95387	-0.771817
H	5256.39	2.0686	-1.98272
H	5257.17	0.469114	-1.64029
N	5254.74	0.54536	-0.465808
C	5253.69	0.232525	0.471893
C	5252.87	-0.898729	-0.111278
O	5252.98	-1.21305	-1.29468
H	5254.59	0.231187	-1.39897
H	5254.14	-0.125213	1.39149
C	5252.79	1.46031	0.741324
H	5252.34	1.8251	-0.204279
H	5251.99	1.22298	1.46305
H	5253.41	2.28226	1.16717
N	5252.03	-1.55413	0.717274
C	5251.22	-2.65233	0.253882
H	5251.96	-1.28939	1.67334
H	5250.59	-3.05828	1.08286
H	5251.85	-3.47562	-0.142088
H	5250.53	-2.31923	-0.563004
