44
  This energy is 6.42878e-320 and Call times are: 27285
C	-1.97702	-2.8666	0.0121241
C	-0.787577	-2.10391	0.453418
O	-0.0455105	-2.53728	1.32406
H	-2.04156	-3.81361	0.590795
H	-1.89606	-3.11035	-1.06808
H	-2.89916	-2.27384	0.188888
N	-0.581478	-0.928295	-0.144757
C	0.532601	-0.0724811	0.17655
C	0.183524	1.33402	-0.269686
O	-0.770136	1.53738	-1.01869
H	-1.20943	-0.572867	-0.831985
H	0.663437	-0.0537195	1.25108
C	1.826	-0.546259	-0.523281
H	1.68803	-0.564951	-1.62543
H	2.68586	0.11041	-0.277919
H	2.0702	-1.57811	-0.18891
N	0.940072	2.34502	0.200983
C	0.675396	3.71829	-0.159902
H	1.70306	2.16065	0.811793
H	1.40692	4.40067	0.326393
H	-0.349128	4.0179	0.159201
H	0.747389	3.85566	-1.26314
C	1298.4	1.65558	-3.00347
C	1299.25	0.819419	-2.12608
O	1300.28	0.30639	-2.54431
H	1298.85	1.70155	-4.01778
H	1298.32	2.68573	-2.59582
H	1297.38	1.21635	-3.08321
N	1298.82	0.657467	-0.870221
C	1299.54	-0.127549	0.101501
C	1298.57	-0.521993	1.19433
O	1297.47	0.0256112	1.28603
H	1297.97	1.05667	-0.549701
H	1299.89	-1.03663	-0.370388
C	1300.72	0.666174	0.703704
H	1300.36	1.59847	1.1864
H	1301.28	0.0646119	1.45221
H	1301.43	0.950193	-0.107025
N	1298.94	-1.50317	2.03964
C	1298.07	-1.95349	3.10356
H	1299.83	-1.93889	1.94459
H	1298.56	-2.76462	3.6897
H	1297.12	-2.34466	2.69076
H	1297.83	-1.11498	3.79686
