44
  This energy is 8.31562e-320 and Call times are: 51729
C	-1.16248	-2.66986	1.90961
C	-0.955226	-1.99187	0.610154
O	-1.20861	-2.55617	-0.44524
H	-1.55029	-3.69623	1.73064
H	-1.90022	-2.10845	2.52066
H	-0.202033	-2.73987	2.46241
N	-0.475968	-0.746835	0.660678
C	-0.222019	0.0414143	-0.518729
C	0.764661	1.13122	-0.147207
O	1.00805	1.38371	1.03128
H	-0.246031	-0.308605	1.52556
H	0.246539	-0.585473	-1.26675
C	-1.52339	0.667613	-1.06774
H	-2.00179	1.30955	-0.297562
H	-1.3315	1.27511	-1.97598
H	-2.23821	-0.140917	-1.33505
N	1.37495	1.79077	-1.15147
C	2.33805	2.83586	-0.893773
H	1.16984	1.56692	-2.09859
H	2.72592	3.25704	-1.8474
H	3.2	2.44034	-0.309089
H	1.874	3.66241	-0.308403
C	2452.43	-0.0884433	-3.34303
C	2453.3	0.406274	-2.25329
O	2454.28	1.10288	-2.49136
H	2452.82	0.269514	-4.31913
H	2451.4	0.29453	-3.2102
H	2452.41	-1.19871	-3.34696
N	2452.96	0.0452612	-1.01333
C	2453.71	0.448171	0.150006
C	2453.39	-0.521197	1.27053
O	2452.43	-1.28923	1.1816
H	2452.18	-0.546612	-0.83482
H	2454.77	0.362095	-0.065252
C	2453.36	1.8901	0.576233
H	2452.27	1.97498	0.79565
H	2453.93	2.2036	1.47163
H	2453.6	2.59025	-0.253506
N	2454.2	-0.522377	2.34823
C	2453.98	-1.41883	3.45876
H	2454.97	0.1018	2.39823
H	2454.75	-1.26628	4.2472
H	2454.02	-2.47997	3.12275
H	2452.97	-1.24465	3.90997
