44
  This energy is 1.47938e-319 and Call times are: 111453
C	-0.287383	1.21575	-3.25046
C	0.323415	0.315259	-2.24685
O	1.10339	-0.566427	-2.57967
H	0.0759844	0.937	-4.26344
H	-0.00217894	2.26869	-3.04355
H	-1.39348	1.12124	-3.22679
N	-0.0293233	0.518306	-0.975347
C	0.480659	-0.275924	0.113663
C	-0.479503	-0.139557	1.27931
O	-1.33883	0.739842	1.28629
H	-0.688076	1.22106	-0.720177
H	0.490515	-1.31667	-0.184359
C	1.89419	0.185902	0.532889
H	1.88055	1.25418	0.837367
H	2.28995	-0.423637	1.37111
H	2.58771	0.0822168	-0.329918
N	-0.368417	-1.02655	2.28773
C	-1.24664	-0.98186	3.43355
H	0.328837	-1.73529	2.2602
H	-0.995561	-1.79192	4.15328
H	-2.30824	-1.1082	3.12005
H	-1.15619	-0.00430924	3.96023
C	5281.84	-1.48972	2.48171
C	5280.86	-0.473279	2.02598
O	5280.29	0.261721	2.82293
H	5281.92	-1.44512	3.58913
H	5282.83	-1.29095	2.03511
H	5281.5	-2.50516	2.1884
N	5280.64	-0.413556	0.71112
C	5279.72	0.522749	0.116391
C	5279.32	-0.012156	-1.24699
O	5279.96	-0.92778	-1.76925
H	5281.08	-1.0374	0.074949
H	5278.82	0.568787	0.722331
C	5280.35	1.9235	-0.0256393
H	5281.27	1.87248	-0.647276
H	5279.65	2.64697	-0.483102
H	5280.64	2.3037	0.97971
N	5278.25	0.536351	-1.84787
C	5277.79	0.0834958	-3.14156
H	5277.75	1.27151	-1.4058
H	5276.9	0.658636	-3.46689
H	5277.52	-0.99653	-3.10663
H	5278.59	0.214343	-3.90734
