44
  This energy is 1.35616e-319 and Call times are: 66135
C	1.25342	-3.24839	0.0552335
C	0.734725	-2.06551	-0.667935
O	0.7496	-2.0146	-1.8901
H	1.62522	-3.99458	-0.680176
H	0.445658	-3.71159	0.660041
H	2.09074	-2.95277	0.721901
N	0.262217	-1.06991	0.0856407
C	-0.275867	0.145054	-0.472169
C	-0.222389	1.21435	0.601598
O	-0.0162135	0.915719	1.77639
H	0.282356	-1.11118	1.08104
H	0.356911	0.467498	-1.2893
C	-1.73081	-0.0528205	-0.95289
H	-2.37705	-0.38424	-0.112265
H	-2.14817	0.880723	-1.38311
H	-1.75659	-0.83932	-1.73832
N	-0.386414	2.49538	0.216799
C	-0.33936	3.58183	1.16737
H	-0.545084	2.71728	-0.73966
H	-0.497779	4.55761	0.657467
H	0.64853	3.61142	1.68161
H	-1.12911	3.45945	1.94358
C	3139.71	1.04599	1.60144
C	3138.67	0.0276611	1.32048
O	3138.78	-1.11716	1.7378
H	3140.52	0.585769	2.20403
H	3139.27	1.89017	2.17435
H	3140.14	1.42782	0.651143
N	3137.63	0.428841	0.589037
C	3136.54	-0.44619	0.2335
C	3135.85	0.144873	-0.976636
O	3136.07	1.30346	-1.32486
H	3137.57	1.35641	0.23035
H	3136.94	-1.4086	-0.0561122
C	3135.54	-0.601118	1.39998
H	3135.13	0.388164	1.69497
H	3134.7	-1.27437	1.12967
H	3136.06	-1.03386	2.28058
N	3135	-0.650391	-1.66175
C	3134.3	-0.177924	-2.83393
H	3134.84	-1.5873	-1.36822
H	3133.65	-0.978143	-3.25435
H	3135.02	0.138113	-3.62137
H	3133.66	0.697369	-2.58261
