44
  This energy is 1.59351e-319 and Call times are: 105321
C	1.64657	-3.05648	-0.270009
C	0.413059	-2.25065	-0.127497
O	-0.692551	-2.77125	-0.183192
H	1.37278	-4.12216	-0.428833
H	2.26369	-2.97722	0.649613
H	2.23615	-2.70306	-1.14204
N	0.579652	-0.938923	0.0568331
C	-0.523788	-0.0251098	0.212374
C	-0.025819	1.36773	-0.121201
O	1.17836	1.60088	-0.207418
H	1.48488	-0.522642	0.0712421
H	-1.2947	-0.279164	-0.504021
C	-1.08324	-0.0586436	1.65217
H	-0.289574	0.201812	2.38454
H	-1.93311	0.643717	1.77539
H	-1.44361	-1.08443	1.88463
N	-0.948113	2.3258	-0.339084
C	-0.567995	3.67837	-0.674123
H	-1.9179	2.11559	-0.271618
H	-1.46814	4.31692	-0.812785
H	0.0241907	3.69777	-1.61762
H	0.0562163	4.12298	0.134492
C	4992.27	1.06375	-0.528968
C	4990.81	1.29948	-0.529599
O	4990.35	2.41365	-0.73618
H	4992.8	2.02211	-0.728976
H	4992.54	0.333337	-1.32042
H	4992.6	0.67463	0.459036
N	4990.04	0.237394	-0.288282
C	4988.6	0.308207	-0.256462
C	4988.09	-0.884225	0.530573
O	4988.84	-1.82739	0.792745
H	4990.43	-0.659141	-0.0926225
H	4988.3	1.20357	0.274996
C	4988.01	0.296411	-1.6821
H	4988.31	-0.623157	-2.22469
H	4986.9	0.350976	-1.66128
H	4988.39	1.17409	-2.24864
N	4986.81	-0.858885	0.946284
C	4986.24	-1.94425	1.71171
H	4986.23	-0.0833851	0.730152
H	4985.18	-1.73766	1.95669
H	4986.8	-2.08615	2.6656
H	4986.29	-2.89785	1.13779
