44
  This energy is 1.02445e-319 and Call times are: 10779
C	0.0028907	-3.1019	1.5825
C	0.161643	-2.2544	0.379281
O	0.566222	-2.72319	-0.675728
H	0.307248	-4.14346	1.34087
H	-1.05761	-3.10456	1.91137
H	0.64391	-2.72196	2.40572
N	-0.153775	-0.964445	0.516722
C	-0.0520812	-0.0155649	-0.563145
C	0.0275674	1.3724	0.0421961
O	-0.249313	1.5589	1.22558
H	-0.454511	-0.588671	1.38924
H	0.870163	-0.192949	-1.10173
C	-1.26685	-0.112008	-1.51296
H	-2.2113	0.0698287	-0.957023
H	-1.1917	0.61716	-2.34569
H	-1.3147	-1.13369	-1.94888
N	0.431568	2.38023	-0.755972
C	0.549001	3.73314	-0.264014
H	0.658007	2.20778	-1.70898
H	0.893305	4.4166	-1.07122
H	1.28096	3.78418	0.574357
H	-0.432948	4.10125	0.11209
C	520.119	-1.12988	2.33915
C	519.097	-1.37437	1.29643
O	518.884	-2.50164	0.871942
H	520.601	-2.09321	2.61422
H	519.646	-0.693631	3.24383
H	520.897	-0.435086	1.9577
N	518.437	-0.303124	0.85038
C	517.414	-0.380826	-0.161848
C	517.266	0.995486	-0.780653
O	517.762	1.98341	-0.242957
H	518.64	0.61381	1.18325
H	517.741	-1.05817	-0.940737
C	516.066	-0.843374	0.434921
H	515.735	-0.146635	1.23409
H	515.276	-0.904441	-0.341803
H	516.189	-1.85214	0.88607
N	516.592	1.08828	-1.94433
C	516.411	2.35546	-2.61322
H	516.204	0.276195	-2.36731
H	515.83	2.22443	-3.55287
H	517.395	2.80888	-2.87006
H	515.862	3.07036	-1.9585
