44
  This energy is 1.30058e-319 and Call times are: 59625
C	0.442416	0.749523	3.37174
C	0.878709	0.101893	2.11419
O	1.97449	-0.434781	2.02617
H	1.24806	0.655537	4.13198
H	-0.47488	0.256981	3.75747
H	0.237437	1.82667	3.19657
N	0.0171183	0.144575	1.09527
C	0.29819	-0.4412	-0.191083
C	-0.607139	0.220108	-1.21201
O	-1.56615	0.901245	-0.85399
H	-0.860661	0.610172	1.17049
H	1.32137	-0.216246	-0.464147
C	0.0588786	-1.96753	-0.17849
H	-0.991567	-2.19474	0.10268
H	0.274506	-2.42181	-1.16739
H	0.727067	-2.43999	0.574139
N	-0.308158	0.0510066	-2.51509
C	-1.10635	0.652636	-3.55774
H	0.47629	-0.497928	-2.78443
H	-0.700891	0.395683	-4.56115
H	-1.11358	1.76209	-3.45626
H	-2.15971	0.294037	-3.50278
C	2828.93	-1.36082	2.87108
C	2828.02	-1.44357	1.70209
O	2827.45	-2.48864	1.41335
H	2828.97	-2.35382	3.36847
H	2828.54	-0.613332	3.59795
H	2829.95	-1.0711	2.54536
N	2827.87	-0.324851	0.98952
C	2827.02	-0.248292	-0.174252
C	2827.48	0.93771	-1.00307
O	2828.24	1.78022	-0.531041
H	2828.36	0.512393	1.2179
H	2827.16	-1.1402	-0.771421
C	2825.54	-0.0841679	0.220051
H	2825.4	0.831415	0.833139
H	2824.88	-0.0250407	-0.673672
H	2825.22	-0.958631	0.827742
N	2827.03	1.01867	-2.27321
C	2827.42	2.10596	-3.14105
H	2826.42	0.323102	-2.63903
H	2826.95	1.99549	-4.14371
H	2828.53	2.12833	-3.27186
H	2827.1	3.08396	-2.71166
