44
  This energy is 1.08606e-319 and Call times are: 116199
C	2.9083	-1.91508	-0.0198341
C	1.96119	-0.979934	-0.667666
O	2.21899	-0.465375	-1.74714
H	3.81011	-2.02677	-0.660249
H	2.4343	-2.9107	0.110104
H	3.21776	-1.52119	0.97114
N	0.827584	-0.732018	-0.00748037
C	-0.191242	0.155065	-0.509381
C	-1.04037	0.601176	0.665012
O	-0.968884	0.0231552	1.74788
H	0.642123	-1.1348	0.884881
H	0.282385	1.03499	-0.925892
C	-1.0736	-0.543466	-1.56797
H	-1.55742	-1.44609	-1.1375
H	-1.85906	0.136804	-1.95665
H	-0.439681	-0.86647	-2.42234
N	-1.85274	1.66073	0.482244
C	-2.6892	2.16407	1.54674
H	-1.8911	2.11945	-0.399425
H	-3.28439	3.03733	1.19971
H	-2.06937	2.48517	2.41504
H	-3.39436	1.37649	1.89838
C	5504.34	0.918899	-3.22547
C	5504.42	1.06053	-1.75457
O	5505.26	1.79025	-1.23773
H	5505.12	1.54923	-3.70212
H	5503.34	1.25134	-3.58339
H	5504.5	-0.139535	-3.51855
N	5503.55	0.348231	-1.03752
C	5503.51	0.38105	0.402698
C	5502.81	-0.876371	0.878468
O	5502.18	-1.57686	0.0931549
H	5502.9	-0.264998	-1.46926
H	5504.53	0.356424	0.782917
C	5502.77	1.63242	0.916723
H	5501.73	1.65484	0.524213
H	5502.73	1.66092	2.0253
H	5503.29	2.54666	0.560463
N	5502.93	-1.20407	2.18017
C	5502.31	-2.38955	2.72101
H	5503.46	-0.628116	2.79826
H	5502.52	-2.48399	3.80879
H	5502.69	-3.30244	2.2089
H	5501.2	-2.35155	2.58127
