44
  This energy is 1.06026e-320 and Call times are: 105783
C	1.37119	-1.27266	-2.93706
C	1.49958	-0.592077	-1.62881
O	2.59753	-0.334012	-1.1551
H	2.38464	-1.4803	-3.34408
H	0.82219	-0.625281	-3.65283
H	0.828248	-2.23378	-2.81699
N	0.359529	-0.287351	-1.00448
C	0.321838	0.375718	0.274488
C	-1.02925	0.0973064	0.90399
O	-1.95012	-0.368644	0.235609
H	-0.528215	-0.528975	-1.38718
H	1.07914	-0.0554987	0.916837
C	0.53459	1.89871	0.124987
H	-0.243638	2.33771	-0.535128
H	0.506306	2.41236	1.10791
H	1.52715	2.0893	-0.338314
N	-1.17211	0.358004	2.21838
C	-2.41846	0.113472	2.90613
H	-0.412896	0.728149	2.74357
H	-2.33662	0.39293	3.97966
H	-2.69639	-0.963658	2.84458
H	-3.24228	0.709184	2.45048
C	5012.41	2.36783	-0.475097
C	5011.12	1.73918	-0.854765
O	5010.42	2.22355	-1.72709
H	5012.57	3.28206	-1.08783
H	5013.25	1.66408	-0.65844
H	5012.39	2.65265	0.598022
N	5010.79	0.630458	-0.191573
C	5009.57	-0.0943105	-0.448343
C	5009.26	-0.936914	0.774265
O	5010.11	-1.11811	1.64298
H	5011.36	0.262031	0.53712
H	5008.76	0.612811	-0.572693
C	5009.7	-0.996584	-1.69535
H	5010.53	-1.72033	-1.56465
H	5008.77	-1.55599	-1.89603
H	5009.93	-0.36759	-2.58378
N	5008.02	-1.4561	0.88019
C	5007.63	-2.26139	2.01493
H	5007.34	-1.29216	0.170119
H	5006.58	-2.59642	1.91716
H	5007.73	-1.68036	2.96054
H	5008.28	-3.16389	2.09603
