44
  This energy is 4.93028e-320 and Call times are: 56559
C	1.53785	2.76018	1.46374
C	0.897892	2.08535	0.312106
O	0.640043	2.69648	-0.715768
H	1.70624	3.83054	1.21505
H	2.51584	2.2857	1.69005
H	0.881499	2.69774	2.35718
N	0.618267	0.788891	0.464972
C	-0.00359185	-0.00341574	-0.565741
C	-0.631118	-1.21612	0.0936479
O	-0.348283	-1.51901	1.25127
H	0.806696	0.309259	1.31784
H	-0.799608	0.572645	-1.02026
C	1.0243	-0.449438	-1.62951
H	1.83985	-1.03958	-1.15968
H	0.548802	-1.05959	-2.42474
H	1.47761	0.44794	-2.10425
N	-1.51975	-1.92917	-0.625992
C	-2.17674	-3.09246	-0.0770639
H	-1.7407	-1.66379	-1.55872
H	-2.8688	-3.54183	-0.822961
H	-2.76609	-2.82017	0.828346
H	-1.4289	-3.86412	0.216956
C	2682.27	-1.08953	-3.21586
C	2682.54	-0.243642	-2.02986
O	2683.55	0.436005	-1.94982
H	2683.11	-0.985674	-3.93483
H	2681.33	-0.769288	-3.71357
H	2682.19	-2.15485	-2.91482
N	2681.61	-0.272835	-1.06462
C	2681.73	0.495722	0.149071
C	2680.84	-0.14775	1.1938
O	2680	-0.984745	0.872923
H	2680.81	-0.852972	-1.12879
H	2682.75	0.438811	0.506656
C	2681.31	1.9658	-0.0743638
H	2680.26	2.02045	-0.441814
H	2681.4	2.56048	0.858137
H	2681.97	2.42546	-0.84255
N	2681.02	0.215009	2.47895
C	2680.22	-0.35333	3.54356
H	2681.71	0.888711	2.71921
H	2680.52	0.073261	4.52673
H	2680.36	-1.45858	3.58615
H	2679.14	-0.142318	3.38289
