44
  This energy is 1.59865e-319 and Call times are: 30771
C	-1.96677	2.15439	-1.90172
C	-1.46623	1.65569	-0.600968
O	-1.73541	2.23261	0.443638
H	-2.56951	3.07356	-1.73535
H	-2.60758	1.387	-2.38472
H	-1.11539	2.39918	-2.57119
N	-0.708978	0.556827	-0.638824
C	-0.149476	-0.0479749	0.543546
C	1.02601	-0.905398	0.116581
O	1.19737	-1.19297	-1.06654
H	-0.472724	0.112693	-1.49898
H	0.230313	0.731741	1.19153
C	-1.19604	-0.911332	1.28276
H	-1.58403	-1.70979	0.614891
H	-0.768598	-1.3784	2.19376
H	-2.05242	-0.271903	1.58917
N	1.87978	-1.31733	1.07439
C	3.03374	-2.1273	0.760548
H	1.72784	-1.06815	2.02521
H	3.61011	-2.36438	1.68188
H	3.70823	-1.59279	0.0530139
H	2.72361	-3.08565	0.284556
C	1468.01	-1.7436	0.151387
C	1467.21	-0.553671	-0.221485
O	1467.75	0.458476	-0.650542
H	1469.09	-1.53178	-0.0201222
H	1467.71	-2.61419	-0.469787
H	1467.86	-1.98584	1.22426
N	1465.89	-0.650239	-0.0571394
C	1464.98	0.4228	-0.375582
C	1463.7	0.188304	0.392384
O	1463.47	-0.897235	0.923841
H	1465.47	-1.4698	0.320687
H	1465.41	1.35684	-0.0295068
C	1464.69	0.482892	-1.89196
H	1464.26	-0.477152	-2.24374
H	1464	1.30811	-2.14067
H	1465.64	0.653842	-2.44329
N	1462.83	1.21504	0.486821
C	1461.58	1.08838	1.20817
H	1463.03	2.08787	0.0558644
H	1461.01	2.03954	1.16959
H	1461.77	0.83622	2.27678
H	1460.96	0.280254	0.768696
