44
  This energy is 7.48954e-320 and Call times are: 15777
C	-2.0353	-0.721682	2.73182
C	-1.74076	-0.761148	1.28169
O	-2.44554	-1.39717	0.510156
H	-2.93689	-1.33773	2.94037
H	-2.23123	0.322614	3.05412
H	-1.17894	-1.13144	3.30773
N	-0.670439	-0.0745265	0.875077
C	-0.25635	-0.0169405	-0.504068
C	1.2085	0.373594	-0.534784
O	1.76094	0.820983	0.46845
H	-0.0874363	0.41583	1.51741
H	-0.342639	-1.00464	-0.938888
C	-1.09581	1.00632	-1.30116
H	-1.00552	2.01834	-0.851967
H	-0.779693	1.0531	-2.36355
H	-2.16687	0.709662	-1.27
N	1.87988	0.191584	-1.68896
C	3.28044	0.523596	-1.80887
H	1.41686	-0.178411	-2.48768
H	3.65022	0.303983	-2.83467
H	3.88737	-0.0657154	-1.08389
H	3.4473	1.60512	-1.59998
C	752.761	-1.2368	3.25499
C	752.093	-0.605331	2.0944
O	750.885	-0.411968	2.08751
H	752.001	-1.47615	4.03026
H	753.511	-0.542741	3.68921
H	753.264	-2.17612	2.94285
N	752.879	-0.27043	1.06837
C	752.377	0.351905	-0.130387
C	753.386	0.1138	-1.23703
O	754.518	-0.288728	-0.978979
H	753.857	-0.4597	1.07406
H	751.452	-0.133231	-0.417841
C	752.158	1.86793	0.0720756
H	753.108	2.36235	0.367539
H	751.771	2.35024	-0.848987
H	751.418	2.02897	0.886002
N	752.987	0.337919	-2.50479
C	753.875	0.127085	-3.6242
H	752.064	0.656635	-2.69358
H	753.364	0.367712	-4.58239
H	754.213	-0.934018	-3.66372
H	754.779	0.773389	-3.53656
