44
  This energy is 8.3507e-320 and Call times are: 82977
C	1.48946	1.49859	-2.76801
C	0.701035	0.413092	-2.14248
O	0.163804	-0.450797	-2.82187
H	1.47881	1.37082	-3.87228
H	2.54057	1.4619	-2.41215
H	1.04853	2.48606	-2.51619
N	0.609073	0.438599	-0.810841
C	-0.122855	-0.54912	-0.0588306
C	-0.454818	0.0478104	1.29495
O	0.0991541	1.07504	1.68191
H	1.02695	1.16416	-0.270581
H	-1.05715	-0.755732	-0.565262
C	0.700388	-1.84439	0.119113
H	1.65848	-1.62866	0.638378
H	0.139711	-2.60713	0.697598
H	0.938101	-2.27112	-0.879654
N	-1.38886	-0.57477	2.04057
C	-1.77842	-0.0725608	3.33758
H	-1.83089	-1.40087	1.70682
H	-2.55712	-0.72298	3.79346
H	-2.18976	0.95929	3.252
H	-0.902657	-0.0391748	4.02541
C	3931.44	-3.32458	-0.871424
C	3931.8	-1.93096	-1.21789
O	3932.19	-1.63958	-2.33814
H	3931.6	-3.97628	-1.75774
H	3930.37	-3.38131	-0.571749
H	3932.08	-3.68833	-0.0381043
N	3931.67	-1.02628	-0.244378
C	3931.98	0.368964	-0.428511
C	3932.23	0.975585	0.938929
O	3931.91	0.372446	1.9615
H	3931.38	-1.28121	0.672421
H	3932.9	0.453392	-0.996919
C	3930.83	1.11262	-1.13863
H	3929.89	1.02339	-0.553141
H	3931.06	2.18717	-1.28215
H	3930.66	0.65804	-2.13854
N	3932.83	2.18145	0.988539
C	3933.12	2.83151	2.24603
H	3933.09	2.65029	0.150118
H	3933.61	3.81433	2.07721
H	3933.79	2.20228	2.86811
H	3932.18	3.00373	2.82242
