44
  This energy is 5.65458e-320 and Call times are: 120189
C	-2.39319	2.20244	1.2442
C	-1.0145	1.89106	0.804352
O	-0.169575	2.76976	0.701916
H	-2.48075	3.29454	1.43264
H	-2.62824	1.65603	2.18175
H	-3.12069	1.91419	0.456417
N	-0.756014	0.611465	0.524743
C	0.537834	0.153282	0.0855938
C	0.347032	-1.17597	-0.61862
O	-0.710351	-1.79518	-0.516835
H	-1.46073	-0.090525	0.584106
H	0.932711	0.855153	-0.637955
C	1.51012	-0.0104337	1.27512
H	1.1016	-0.730624	2.01576
H	2.50739	-0.362967	0.940512
H	1.64052	0.969854	1.78323
N	1.3655	-1.63641	-1.37143
C	1.27028	-2.88679	-2.08812
H	2.21046	-1.1172	-1.44692
H	2.20986	-3.09232	-2.64688
H	0.428095	-2.85874	-2.81694
H	1.08936	-3.73078	-1.38376
C	5692.41	1.0272	3.09862
C	5691.3	0.715008	2.17518
O	5690.14	0.694368	2.56628
H	5692	1.21114	4.11653
H	5692.95	1.93691	2.75662
H	5693.12	0.174591	3.14421
N	5691.63	0.455294	0.909041
C	5690.66	0.135396	-0.106094
C	5691.38	-0.588709	-1.2276
O	5692.61	-0.587255	-1.29107
H	5692.58	0.446669	0.609286
H	5689.93	-0.545882	0.309364
C	5689.98	1.40878	-0.649633
H	5690.73	2.10575	-1.07448
H	5689.23	1.16607	-1.43137
H	5689.45	1.93066	0.181725
N	5690.63	-1.24631	-2.1311
C	5691.22	-1.97372	-3.22665
H	5689.64	-1.24156	-2.05847
H	5690.44	-2.44435	-3.86006
H	5691.9	-2.77691	-2.84528
H	5691.83	-1.2924	-3.86688
