44
  This energy is 3.31518e-321 and Call times are: 993
C	-0.513265	0.568526	3.39698
C	0.367803	0.267366	2.24623
O	1.58414	0.234482	2.37245
H	0.110038	0.74579	4.30027
H	-1.19361	-0.286978	3.59209
H	-1.11451	1.479	3.19086
N	-0.238326	0.0431382	1.07803
C	0.483636	-0.262651	-0.131143
C	-0.419237	0.0576453	-1.3065
O	-1.62157	0.254151	-1.14031
H	-1.22841	0.101504	0.981742
H	1.35014	0.383089	-0.196434
C	0.904887	-1.74852	-0.17426
H	0.0135876	-2.40814	-0.106395
H	1.46115	-1.98737	-1.10393
H	1.5649	-1.97064	0.692453
N	0.147797	0.139288	-2.52626
C	-0.630827	0.450962	-3.70218
H	1.12369	-0.0160237	-2.63911
H	0.0149049	0.470161	-4.60767
H	-1.11808	1.44744	-3.598
H	-1.42999	-0.309582	-3.8574
C	52.4191	-0.568978	2.01712
C	53.0432	-0.345928	0.693537
O	52.3933	-0.448941	-0.33773
H	51.3473	-0.829561	1.87852
H	52.4881	0.352409	2.63282
H	52.9268	-1.40419	2.54398
N	54.3418	-0.0358547	0.69496
C	55.0879	0.210288	-0.513135
C	56.5585	0.0118959	-0.201077
O	56.9508	-0.0544264	0.962326
H	54.867	0.0164781	1.54012
H	54.8072	-0.525362	-1.25615
C	54.8455	1.6415	-1.04226
H	55.1339	2.39362	-0.277261
H	55.4184	1.83434	-1.97251
H	53.7646	1.77445	-1.26596
N	57.4072	-0.109807	-1.2407
C	58.8231	-0.313253	-1.04044
H	57.0693	-0.0605264	-2.17484
H	59.3517	-0.38711	-2.01635
H	59.0083	-1.25195	-0.469645
H	59.2644	0.533016	-0.465742
