44
  This energy is 1.03487e-319 and Call times are: 64749
C	1.71534	2.46533	-1.76235
C	0.47432	1.90616	-1.18063
O	-0.565116	2.55108	-1.16861
H	1.51473	3.49231	-2.13775
H	2.05935	1.83421	-2.60862
H	2.51193	2.51409	-0.990325
N	0.56024	0.674778	-0.672018
C	-0.561126	-0.00315971	-0.0722133
C	-0.0177724	-1.09346	0.830695
O	1.16029	-1.43856	0.760683
H	1.41991	0.17099	-0.661612
H	-1.10482	0.697529	0.548676
C	-1.48816	-0.61545	-1.14591
H	-0.927	-1.33327	-1.78148
H	-2.35273	-1.1381	-0.687517
H	-1.87862	0.19321	-1.80147
N	-0.864673	-1.64846	1.71993
C	-0.433611	-2.68518	2.62854
H	-1.81248	-1.35052	1.76602
H	-1.27461	-3.01308	3.2785
H	0.39106	-2.31759	3.28125
H	-0.0596346	-3.57078	2.06548
C	3067.44	-0.603382	-0.674537
C	3068.52	-0.0542155	0.177954
O	3068.26	0.629638	1.15946
H	3066.45	-0.284002	-0.27135
H	3067.48	-1.71283	-0.679497
H	3067.54	-0.225049	-1.71338
N	3069.77	-0.342386	-0.189017
C	3070.92	0.119471	0.539597
C	3072.11	0.0706935	-0.396437
O	3072.05	-0.541962	-1.46074
H	3069.96	-0.876191	-1.00724
H	3070.77	1.15293	0.823364
C	3071.19	-0.75545	1.78488
H	3071.34	-1.81511	1.49018
H	3072.08	-0.402507	2.34832
H	3070.31	-0.712191	2.46191
N	3073.22	0.738075	-0.028559
C	3074.4	0.758004	-0.861409
H	3073.25	1.23383	0.833246
H	3075.21	1.35774	-0.385725
H	3074.18	1.20471	-1.85609
H	3074.79	-0.275417	-1.02664
