44
  This energy is 1.27686e-319 and Call times are: 29595
C	-0.33472	-1.62578	3.0612
C	-0.426158	-0.416026	2.21306
O	-0.918975	0.619405	2.63909
H	-0.772744	-1.40835	4.05956
H	0.72733	-1.9222	3.19159
H	-0.897351	-2.46265	2.5964
N	0.0501319	-0.525452	0.970664
C	0.0317315	0.564192	0.0277091
C	0.143218	-0.0235088	-1.36564
O	0.478676	-1.19514	-1.52869
H	0.422648	-1.38298	0.625969
H	-0.922092	1.07187	0.0952266
C	1.19435	1.54909	0.283472
H	2.1713	1.02481	0.214103
H	1.18308	2.38943	-0.440743
H	1.1019	1.97171	1.30768
N	-0.158751	0.776228	-2.40738
C	-0.0926889	0.300197	-3.76945
H	-0.435081	1.71935	-2.25442
H	-0.37573	1.10618	-4.48186
H	-0.78559	-0.559265	-3.91929
H	0.938674	-0.0405601	-4.01715
C	1412.22	0.450279	-1.25978
C	1410.87	0.959744	-0.917525
O	1410.6	2.15165	-0.995503
H	1412.86	1.30094	-1.56302
H	1412.15	-0.269504	-2.10262
H	1412.67	-0.051986	-0.379861
N	1409.97	0.0517286	-0.518574
C	1408.62	0.393401	-0.152302
C	1408.08	-0.725344	0.714141
O	1408.66	-1.80696	0.782847
H	1410.21	-0.912466	-0.431282
H	1408.64	1.29543	0.446194
C	1407.73	0.580618	-1.40063
H	1407.72	-0.346404	-2.01266
H	1406.69	0.843929	-1.12222
H	1408.14	1.402	-2.02754
N	1406.95	-0.481197	1.41654
C	1406.37	-1.48233	2.2774
H	1406.5	0.4029	1.35307
H	1405.45	-1.09162	2.76604
H	1407.09	-1.78476	3.07347
H	1406.1	-2.39177	1.69422
