44
  This energy is 1.35814e-319 and Call times are: 5991
C	-1.0791	1.2444	3.06808
C	-0.606868	1.43756	1.67852
O	-0.594667	2.5469	1.16305
H	-1.3925	2.22441	3.48907
H	-0.262729	0.828431	3.69524
H	-1.94701	0.552003	3.08474
N	-0.206707	0.34113	1.03039
C	0.279145	0.368558	-0.326084
C	0.142493	-1.029	-0.898267
O	-0.0759926	-1.99044	-0.163597
H	-0.248852	-0.561071	1.45133
H	-0.34986	1.02679	-0.911882
C	1.75386	0.825407	-0.38624
H	2.39621	0.148338	0.216319
H	2.13111	0.847806	-1.42929
H	1.84073	1.84991	0.0368309
N	0.247187	-1.17045	-2.23432
C	0.119033	-2.46112	-2.86987
H	0.417029	-0.37919	-2.8125
H	0.237481	-2.37019	-3.97212
H	-0.88126	-2.90466	-2.66028
H	0.895047	-3.16479	-2.49062
C	290.16	0.541334	-1.61024
C	291.013	-0.200991	-0.6547
O	290.542	-1.05799	0.0800603
H	289.11	0.18927	-1.51553
H	290.506	0.363417	-2.65009
H	290.196	1.62909	-1.39012
N	292.308	0.122426	-0.640624
C	293.263	-0.511586	0.233334
C	294.458	0.412161	0.366532
O	294.608	1.36027	-0.401789
H	292.675	0.842718	-1.22351
H	292.821	-0.62198	1.21565
C	293.71	-1.88224	-0.321969
H	294.162	-1.76537	-1.33007
H	294.445	-2.37325	0.348605
H	292.825	-2.54921	-0.415934
N	295.329	0.167541	1.3654
C	296.489	1.00078	1.57693
H	295.186	-0.600393	1.98108
H	297.082	0.636461	2.4448
H	296.186	2.05386	1.77715
H	297.146	0.995927	0.676946
