44
  This energy is 5.94065e-320 and Call times are: 3093
C	-0.551634	-2.17795	2.66052
C	-1.0132	-1.45011	1.45702
O	-2.11679	-1.6625	0.973816
H	-1.34271	-2.88779	2.98637
H	-0.348344	-1.46308	3.48542
H	0.372156	-2.7498	2.43131
N	-0.160398	-0.564939	0.935906
C	-0.466051	0.220063	-0.233358
C	0.84408	0.693617	-0.83214
O	1.89209	0.613764	-0.194071
H	0.74719	-0.422	1.32164
H	-0.9523	-0.412852	-0.964832
C	-1.35746	1.4316	0.119765
H	-0.855862	2.07839	0.870884
H	-1.59485	2.03813	-0.778311
H	-2.31344	1.0714	0.55852
N	0.817385	1.18057	-2.08839
C	2.01762	1.64388	-2.74487
H	-0.0395204	1.23035	-2.59085
H	1.78916	2.008	-3.77077
H	2.76503	0.821394	-2.82325
H	2.48186	2.4788	-2.17167
C	155.775	-1.10343	-3.25234
C	156.157	-0.316454	-2.05817
O	157.242	0.243959	-1.99048
H	156.607	-1.07959	-3.98937
H	154.867	-0.670247	-3.72155
H	155.577	-2.15836	-2.96827
N	155.259	-0.262145	-1.07172
C	155.486	0.463998	0.152313
C	154.551	-0.0970741	1.20657
O	153.614	-0.828169	0.891216
H	154.39	-0.747054	-1.12674
H	156.501	0.286268	0.484204
C	155.229	1.97597	-0.0348508
H	154.187	2.15463	-0.376002
H	155.402	2.53813	0.905692
H	155.918	2.37464	-0.810387
N	154.8	0.217001	2.49323
C	153.971	-0.280694	3.56635
H	155.567	0.804301	2.72873
H	154.336	0.0899179	4.5495
H	153.981	-1.39459	3.5861
H	152.916	0.0530361	3.43551
