44
  This energy is 1.40794e-319 and Call times are: 111159
C	0.15394	-3.16403	1.44614
C	0.296468	-2.25432	0.287125
O	0.765555	-2.64784	-0.77193
H	0.533745	-4.17191	1.17084
H	-0.914393	-3.24952	1.73627
H	0.741114	-2.78162	2.30749
N	-0.107209	-0.994788	0.468728
C	-0.0323087	0.00673045	-0.564799
C	-0.0638747	1.36802	0.102392
O	-0.391344	1.48246	1.28201
H	-0.460605	-0.679065	1.34529
H	0.916875	-0.0865901	-1.07706
C	-1.20609	-0.124047	-1.56092
H	-2.17828	-0.0284974	-1.03194
H	-1.15142	0.645511	-2.35814
H	-1.17242	-1.12583	-2.042
N	0.299342	2.43486	-0.636476
C	0.311504	3.76876	-0.0826463
H	0.567973	2.32073	-1.58729
H	0.63675	4.50883	-0.846692
H	1.01044	3.82843	0.782901
H	-0.704357	4.05578	0.273485
C	5269.38	0.125071	-0.0398647
C	5268.05	0.781908	0.0122675
O	5267.95	1.98483	0.209657
H	5270.17	0.885141	0.129282
H	5269.54	-0.342414	-1.03475
H	5269.45	-0.652645	0.749275
N	5266.99	-0.00946023	-0.160961
C	5265.64	0.482715	-0.137301
C	5264.72	-0.688817	0.157585
O	5265.13	-1.84456	0.0796764
H	5267.09	-0.992656	-0.29195
H	5265.54	1.19259	0.673682
C	5265.25	1.13297	-1.48469
H	5265.36	0.402145	-2.31452
H	5264.21	1.51316	-1.46988
H	5265.93	1.9889	-1.68969
N	5263.46	-0.41419	0.526526
C	5262.51	-1.46478	0.838402
H	5263.14	0.527827	0.590661
H	5261.53	-1.03748	1.11788
H	5262.88	-2.08206	1.68961
H	5262.37	-2.13672	-0.0385275
