44
  This energy is 9.77954e-320 and Call times are: 58407
C	0.197972	2.2498	2.65053
C	0.0932231	1.94698	1.20536
O	-0.0956478	2.8347	0.385131
H	0.0729291	3.34335	2.80665
H	1.19382	1.94358	3.03438
H	-0.595379	1.71348	3.21258
N	0.209943	0.663058	0.858534
C	0.130571	0.212207	-0.507944
C	-0.217883	-1.26345	-0.492187
O	-0.133898	-1.91812	0.545207
H	0.334525	-0.054229	1.53891
H	-0.67652	0.735485	-1.00479
C	1.46611	0.434802	-1.25218
H	2.29201	-0.102854	-0.739413
H	1.40845	0.0888868	-2.3047
H	1.7107	1.51938	-1.25571
N	-0.640555	-1.81828	-1.64523
C	-1.00578	-3.21353	-1.7231
H	-0.708585	-1.27012	-2.47236
H	-1.3249	-3.47949	-2.75493
H	-1.84612	-3.4391	-1.02726
H	-0.143496	-3.86168	-1.44466
C	2771.36	2.46003	1.61557
C	2770.41	1.32592	1.63277
O	2770.04	0.827955	2.68654
H	2771.64	2.72374	2.65966
H	2770.89	3.34414	1.13327
H	2772.28	2.1798	1.06046
N	2769.99	0.882981	0.444109
C	2769.07	-0.212283	0.29832
C	2769.22	-0.769568	-1.10335
O	2769.84	-0.142891	-1.96465
H	2770.33	1.27811	-0.408068
H	2769.34	-0.995612	0.995374
C	2767.61	0.247477	0.529272
H	2767.34	1.05157	-0.187054
H	2766.9	-0.593441	0.417925
H	2767.51	0.654659	1.559
N	2768.68	-1.97816	-1.35858
C	2768.79	-2.59362	-2.66081
H	2768.2	-2.47275	-0.646285
H	2768.28	-3.58317	-2.67124
H	2769.86	-2.74527	-2.93663
H	2768.32	-1.95018	-3.43967
