44
  This energy is 6.78451e-320 and Call times are: 63363
C	-3.1191	-0.888493	-1.26804
C	-1.7233	-0.42978	-1.44839
O	-1.23195	-0.32208	-2.56351
H	-3.56861	-1.09715	-2.26316
H	-3.71758	-0.102615	-0.761058
H	-3.14118	-1.81836	-0.661583
N	-1.04217	-0.150828	-0.334563
C	0.324489	0.306217	-0.347887
C	0.923574	0.023653	1.01611
O	0.205052	-0.270416	1.96957
H	-1.44425	-0.270447	0.569295
H	0.880787	-0.269034	-1.07706
C	0.409524	1.81638	-0.662992
H	-0.162802	2.40346	0.0866057
H	1.46047	2.17159	-0.674189
H	-0.0335811	2.01036	-1.66408
N	2.26449	0.0856006	1.1349
C	2.92478	-0.179593	2.39183
H	2.82916	0.318263	0.349883
H	4.02728	-0.076612	2.28627
H	2.70132	-1.21316	2.74261
H	2.57939	0.533156	3.17533
C	3005.12	2.3922	2.50959
C	3004.31	1.623	1.54216
O	3003.09	1.70245	1.53904
H	3004.45	2.98694	3.16509
H	3005.81	3.0843	1.97114
H	3005.72	1.70171	3.14056
N	3004.98	0.844051	0.689824
C	3004.33	0.0363051	-0.309418
C	3005.29	-1.06489	-0.717611
O	3006.48	-1.00918	-0.409217
H	3005.97	0.765587	0.721506
H	3003.46	-0.432508	0.130865
C	3003.93	0.878717	-1.54213
H	3004.83	1.35875	-1.99092
H	3003.43	0.259887	-2.31345
H	3003.23	1.68251	-1.22963
N	3004.78	-2.10822	-1.40655
C	3005.62	-3.2089	-1.82732
H	3003.82	-2.13833	-1.64033
H	3005.02	-3.96619	-2.38156
H	3006.09	-3.70675	-0.946771
H	3006.44	-2.84981	-2.4943
