44
  This energy is 1.26975e-320 and Call times are: 13467
C	-2.90856	-0.252906	1.89801
C	-1.43956	-0.114295	1.77958
O	-0.742977	0.0982396	2.76249
H	-3.20474	-0.127074	2.96211
H	-3.22694	-1.25909	1.55297
H	-3.41678	0.524253	1.28917
N	-0.930356	-0.22797	0.550699
C	0.479939	-0.11727	0.27567
C	0.642864	0.22445	-1.19264
O	-0.301049	0.11247	-1.97259
H	-1.51134	-0.37211	-0.245928
H	0.887363	0.703883	0.85168
C	1.22134	-1.43335	0.600289
H	0.800389	-2.27375	0.00813982
H	2.30752	-1.35155	0.389812
H	1.09333	-1.67319	1.67836
N	1.84656	0.672711	-1.60028
C	2.09176	1.03382	-2.97711
H	2.59581	0.763172	-0.952462
H	3.14113	1.37683	-3.1128
H	1.41042	1.856	-3.29496
H	1.91802	0.162274	-3.64898
C	644.625	-2.82268	0.909003
C	644.474	-1.35562	0.78248
O	645.304	-0.590959	1.25547
H	645.556	-3.04848	1.4743
H	644.694	-3.28833	-0.096619
H	643.759	-3.25121	1.4561
N	643.389	-0.925166	0.134899
C	643.103	0.472605	-0.0689365
C	641.618	0.609549	-0.34402
O	640.935	-0.376904	-0.612376
H	642.705	-1.55742	-0.220475
H	643.32	1.01275	0.843974
C	643.918	1.04665	-1.24987
H	643.693	0.489784	-2.18463
H	643.7	2.12279	-1.4095
H	645.003	0.939277	-1.03662
N	641.078	1.84146	-0.261592
C	639.671	2.06679	-0.495477
H	641.647	2.62606	-0.0361122
H	639.421	3.14485	-0.382844
H	639.055	1.48672	0.228914
H	639.387	1.74671	-1.52419
