44
  This energy is 1.09436e-319 and Call times are: 71637
C	0.147481	0.682598	-3.41152
C	-0.349142	0.969785	-2.04693
O	-1.00899	1.97273	-1.81198
H	-0.172226	1.49678	-4.09764
H	-0.270303	-0.279351	-3.77611
H	1.25648	0.627277	-3.41159
N	-0.0317025	0.0823675	-1.10137
C	-0.44228	0.223767	0.272771
C	0.486675	-0.618241	1.12559
O	1.22722	-1.45421	0.611215
H	0.531055	-0.715736	-1.29954
H	-0.318232	1.25663	0.572563
C	-1.90521	-0.231304	0.472403
H	-2.02904	-1.29112	0.163248
H	-2.22466	-0.123613	1.52935
H	-2.57542	0.392354	-0.158488
N	0.483963	-0.400044	2.4554
C	1.3434	-1.14556	3.34521
H	-0.117409	0.285894	2.85172
H	1.19356	-0.822447	4.39896
H	2.41407	-0.989422	3.07963
H	1.1267	-2.23633	3.27866
C	3401	-1.11883	2.02494
C	3400.39	-0.896571	0.695301
O	3401.02	-1.09419	-0.332881
H	3402.05	-1.46081	1.89397
H	3400.44	-1.89681	2.5805
H	3401	-0.174509	2.60907
N	3399.13	-0.467601	0.688204
C	3398.4	-0.206797	-0.526605
C	3397.25	0.724715	-0.189398
O	3396.92	0.920466	0.979286
H	3398.63	-0.282456	1.53284
H	3399.05	0.309234	-1.22306
C	3397.86	-1.51321	-1.1491
H	3397.19	-2.04036	-0.431696
H	3397.29	-1.31605	-2.08474
H	3398.71	-2.18739	-1.39046
N	3396.62	1.3408	-1.21145
C	3395.53	2.25412	-0.985957
H	3396.91	1.17479	-2.14977
H	3395.14	2.65565	-1.95035
H	3395.85	3.11161	-0.354173
H	3394.69	1.74006	-0.463181
