44
  This energy is 9.60464e-321 and Call times are: 55047
C	2.37474	1.17667	2.2588
C	1.88542	0.962343	0.878281
O	2.468	1.44751	-0.0817775
H	3.28567	1.8133	2.23091
H	2.63037	0.204037	2.7294
H	1.59764	1.68757	2.86545
N	0.781665	0.222588	0.748503
C	0.185218	-0.0739103	-0.529451
C	-1.26337	-0.453194	-0.290761
O	-1.6668	-0.71299	0.84131
H	0.299702	-0.142818	1.54042
H	0.194839	0.821171	-1.13839
C	0.925998	-1.22754	-1.24185
H	0.914781	-2.14399	-0.614081
H	0.469423	-1.45833	-2.22625
H	1.98616	-0.937742	-1.40983
N	-2.08823	-0.472388	-1.35624
C	-3.48624	-0.81023	-1.22355
H	-1.7443	-0.252127	-2.26312
H	-3.99555	-0.771981	-2.21168
H	-3.99908	-0.0981378	-0.537138
H	-3.60475	-1.83686	-0.807426
C	2608.57	0.28235	3.34473
C	2609.53	-0.120116	2.28846
O	2610.65	-0.516719	2.56902
H	2609.05	0.163411	4.33993
H	2607.67	-0.357888	3.30477
H	2608.28	1.34521	3.21164
N	2609.1	-0.0191115	1.02894
C	2609.91	-0.373179	-0.10646
C	2609.35	0.331523	-1.32368
O	2608.23	0.844639	-1.28981
H	2608.19	0.33297	0.81204
H	2610.92	-0.00136473	0.0510066
C	2609.92	-1.90116	-0.335031
H	2608.89	-2.27933	-0.495562
H	2610.55	-2.17728	-1.20844
H	2610.34	-2.40578	0.56408
N	2610.12	0.391459	-2.42685
C	2609.67	1.05225	-3.62942
H	2611.02	-0.0236786	-2.4321
H	2610.44	0.992665	-4.42508
H	2609.45	2.12695	-3.42993
H	2608.73	0.578295	-4.01218
