44
  This energy is 5.10271e-320 and Call times are: 94527
C	0.675931	0.931214	3.28665
C	1.07247	0.782013	1.86831
O	2.13399	1.23046	1.45775
H	1.46845	1.4873	3.83304
H	0.549211	-0.0672448	3.75553
H	-0.27638	1.49744	3.36043
N	0.209571	0.14235	1.07546
C	0.45451	-0.0811155	-0.326998
C	-0.880784	-0.337867	-0.998047
O	-1.88397	-0.580009	-0.329597
H	-0.665076	-0.192777	1.41549
H	0.872048	0.819441	-0.759127
C	1.40011	-1.28276	-0.548383
H	0.968998	-2.20477	-0.10325
H	1.59096	-1.45753	-1.62718
H	2.37419	-1.08279	-0.0510546
N	-0.92798	-0.268806	-2.34304
C	-2.15793	-0.486938	-3.06817
H	-0.106811	-0.0645225	-2.86571
H	-1.99128	-0.389101	-4.16357
H	-2.9306	0.255633	-2.76351
H	-2.55909	-1.50606	-2.8641
C	4479.87	1.22988	1.3488
C	4479.12	0.295132	0.473683
O	4479.71	-0.45881	-0.289692
H	4480.96	1.11124	1.17089
H	4479.65	1.00914	2.41525
H	4479.58	2.27779	1.12252
N	4477.79	0.329831	0.563665
C	4476.93	-0.519076	-0.222722
C	4475.56	0.119977	-0.265158
O	4475.27	1.03327	0.504334
H	4477.32	0.968994	1.16828
H	4477.31	-0.557518	-1.2371
C	4476.84	-1.93868	0.380008
H	4476.45	-1.89546	1.42088
H	4476.18	-2.595	-0.223128
H	4477.85	-2.39544	0.406655
N	4474.69	-0.334165	-1.18645
C	4473.36	0.221907	-1.30897
H	4474.94	-1.06913	-1.80486
H	4472.79	-0.285282	-2.12161
H	4473.41	1.30999	-1.5431
H	4472.79	0.0990796	-0.357836
