44
  This energy is 6.76475e-320 and Call times are: 45051
C	0.306518	-0.226703	3.46133
C	0.827782	0.160392	2.13105
O	1.86159	0.804875	2.01981
H	0.986404	0.163014	4.24983
H	0.255589	-1.33268	3.54525
H	-0.705925	0.202405	3.6155
N	0.10694	-0.226685	1.07609
C	0.485076	0.0737648	-0.281687
C	-0.756107	-0.0349545	-1.14591
O	-1.7755	-0.57241	-0.71717
H	-0.748849	-0.726227	1.18107
H	0.832134	1.09803	-0.33184
C	1.5735	-0.897589	-0.790528
H	1.21436	-1.94748	-0.737061
H	1.86711	-0.668982	-1.83567
H	2.47689	-0.809182	-0.148491
N	-0.704575	0.495912	-2.38346
C	-1.84146	0.450317	-3.27318
H	0.127251	0.932964	-2.70947
H	-1.60097	0.937403	-4.24383
H	-2.71385	0.977327	-2.82324
H	-2.14106	-0.603682	-3.47443
C	2137.26	3.18957	0.933056
C	2138.23	2.27249	0.287413
O	2139.17	2.70251	-0.355542
H	2137.55	4.24067	0.719871
H	2137.26	3.03262	2.03223
H	2136.24	3.01274	0.534182
N	2138	0.966185	0.443093
C	2138.85	-0.0485149	-0.124838
C	2138.05	-1.33433	-0.207948
O	2136.99	-1.45261	0.395343
H	2137.21	0.62833	0.944727
H	2139.12	0.239484	-1.13408
C	2140.12	-0.264909	0.733023
H	2139.84	-0.559598	1.76791
H	2140.77	-1.04548	0.298495
H	2140.69	0.684454	0.787097
N	2138.54	-2.32501	-0.980171
C	2137.84	-3.58064	-1.12921
H	2139.4	-2.20735	-1.4661
H	2138.4	-4.26545	-1.80205
H	2136.83	-3.41765	-1.56197
H	2137.72	-4.08178	-0.141796
