44
  This energy is 9.20741e-320 and Call times are: 28293
C	0.233922	-3.47316	-0.0926144
C	0.846688	-2.12604	-0.124049
O	2.06145	-1.98307	-0.104093
H	1.03664	-4.24076	-0.0446573
H	-0.369093	-3.64065	-1.00975
H	-0.416613	-3.5771	0.801223
N	0.00349214	-1.09193	-0.168775
C	0.448335	0.278367	-0.203949
C	-0.697125	1.15234	0.268632
O	-1.83737	0.700793	0.356844
H	-0.984543	-1.22053	-0.155186
H	1.26578	0.400989	0.495207
C	0.88046	0.693096	-1.62816
H	0.0396834	0.56541	-2.34294
H	1.22371	1.74762	-1.65881
H	1.71921	0.0447147	-1.9632
N	-0.413729	2.42587	0.606002
C	-1.43795	3.32834	1.07791
H	0.516532	2.77044	0.534495
H	-1.00746	4.32928	1.30162
H	-1.91091	2.93471	2.00667
H	-2.23578	3.45328	0.310423
C	1349.69	1.62053	-1.49789
C	1349	1.07538	-0.309286
O	1349.55	1.03415	0.781671
H	1350.72	1.94181	-1.20998
H	1349.14	2.49746	-1.89503
H	1349.77	0.843153	-2.28714
N	1347.76	0.632492	-0.50044
C	1346.95	0.0750002	0.558764
C	1345.87	-0.771329	-0.0759187
O	1345.63	-0.688795	-1.27928
H	1347.33	0.644697	-1.40017
H	1347.57	-0.579596	1.16076
C	1346.32	1.1842	1.42953
H	1345.69	1.85428	0.808657
H	1345.7	0.758419	2.24618
H	1347.13	1.79775	1.88778
N	1345.19	-1.6257	0.720465
C	1344.15	-2.48003	0.202259
H	1345.41	-1.68296	1.69036
H	1343.72	-3.10756	1.01219
H	1344.55	-3.15534	-0.58764
H	1343.33	-1.87253	-0.246503
