44
  This energy is 1.24579e-319 and Call times are: 41187
C	2.34772	-1.86362	1.77235
C	1.72307	-0.575059	1.39737
O	2.03154	0.465419	1.96195
H	3.07446	-1.6935	2.59623
H	2.88553	-2.29559	0.902297
H	1.5721	-2.57851	2.11918
N	0.811216	-0.619352	0.423243
C	0.117357	0.551036	-0.0517076
C	-1.1547	0.0922047	-0.737693
O	-1.3171	-1.08964	-1.03552
H	0.547442	-1.47761	-0.00890894
H	-0.167772	1.15967	0.797022
C	0.989619	1.36107	-1.03666
H	1.28087	0.733456	-1.90579
H	0.458451	2.26303	-1.40421
H	1.91878	1.69031	-0.522454
N	-2.10062	1.01946	-0.985556
C	-3.34908	0.673345	-1.62411
H	-1.95334	1.96944	-0.730471
H	-3.99313	1.57257	-1.7418
H	-3.90473	-0.0789171	-1.01864
H	-3.16695	0.237902	-2.63326
C	1953.36	-0.00975448	3.12212
C	1953.78	-0.68896	1.87576
O	1953.65	-1.89816	1.74072
H	1952.95	-0.763031	3.83231
H	1952.57	0.738414	2.90237
H	1954.23	0.497673	3.59294
N	1954.3	0.08788	0.924641
C	1954.76	-0.426568	-0.34256
C	1955.73	0.576702	-0.930942
O	1955.81	1.71382	-0.471019
H	1954.43	1.06745	1.05801
H	1955.3	-1.34931	-0.174284
C	1953.58	-0.654021	-1.3131
H	1953.02	0.294468	-1.48296
H	1953.92	-1.05026	-2.28977
H	1952.87	-1.38988	-0.870043
N	1956.5	0.168782	-1.95442
C	1957.47	1.05094	-2.57035
H	1956.43	-0.757586	-2.30777
H	1958.01	0.532014	-3.39411
H	1958.22	1.39504	-1.8232
H	1956.96	1.95034	-2.9925
