44
  This energy is 7.97817e-320 and Call times are: 95745
C	-0.37376	1.73893	2.99375
C	-0.928153	0.966363	1.8593
O	-2.09889	0.611788	1.84753
H	-1.17028	1.90041	3.75227
H	-0.00744069	2.72617	2.64161
H	0.462954	1.18096	3.46441
N	-0.0819686	0.67967	0.867256
C	-0.473209	-0.0642304	-0.303373
C	0.781488	-0.640885	-0.929825
O	1.89392	-0.241608	-0.590833
H	0.876762	0.949039	0.902061
H	-1.10032	-0.893044	-0.000259275
C	-1.21007	0.834987	-1.321
H	-0.564108	1.68458	-1.62929
H	-1.51287	0.265323	-2.22353
H	-2.12654	1.25213	-0.849605
N	0.630463	-1.61513	-1.84855
C	1.7682	-2.23194	-2.48984
H	-0.277852	-1.92952	-2.10419
H	1.43795	-3.00848	-3.21453
H	2.43007	-2.71555	-1.73532
H	2.36923	-1.47199	-3.03977
C	4537.36	2.41318	-0.48015
C	4536.79	1.26574	0.260163
O	4537.42	0.716472	1.1565
H	4538.38	2.63459	-0.0871107
H	4536.72	3.31081	-0.347792
H	4537.44	2.17106	-1.56103
N	4535.57	0.869622	-0.109804
C	4534.89	-0.231459	0.516035
C	4533.82	-0.724121	-0.446157
O	4533.5	-0.0512486	-1.42281
H	4535.09	1.30671	-0.860987
H	4535.59	-1.04076	0.673328
C	4534.24	0.196492	1.85128
H	4533.52	1.02733	1.68633
H	4533.71	-0.648986	2.33592
H	4535.03	0.556402	2.54687
N	4533.27	-1.92798	-0.202272
C	4532.26	-2.48383	-1.07034
H	4533.55	-2.46049	0.589352
H	4531.92	-3.47922	-0.700841
H	4532.65	-2.60765	-2.1048
H	4531.37	-1.81356	-1.1178
