44
  This energy is 4.00588e-320 and Call times are: 74997
C	2.55422	-2.00546	-1.25707
C	1.56615	-1.65988	-0.210411
O	1.37357	-2.39786	0.746035
H	3.02471	-2.9819	-1.00996
H	3.34533	-1.22804	-1.30798
H	2.05307	-2.08764	-2.24451
N	0.903738	-0.512625	-0.375868
C	-0.088	-0.0410739	0.557365
C	-0.97297	0.954746	-0.166795
O	-0.637101	1.41939	-1.25451
H	1.04869	0.0656386	-1.17433
H	-0.709729	-0.873818	0.860784
C	0.568522	0.626957	1.78612
H	1.20614	1.4804	1.47115
H	-0.192266	0.991066	2.50681
H	1.21502	-0.112448	2.30715
N	-2.14187	1.29007	0.413914
C	-3.05449	2.22138	-0.207359
H	-2.39903	0.897749	1.29094
H	-3.95755	2.3683	0.425207
H	-3.38187	1.84526	-1.20365
H	-2.56539	3.2113	-0.355715
C	3554.2	-2.69196	-2.09623
C	3553.78	-1.65624	-1.12499
O	3552.6	-1.47381	-0.864504
H	3553.3	-3.20514	-2.49704
H	3554.85	-3.4426	-1.59889
H	3554.76	-2.22564	-2.93887
N	3554.76	-0.940129	-0.563816
C	3554.51	0.102423	0.399387
C	3555.72	1.01602	0.420792
O	3556.78	0.672367	-0.106
H	3555.72	-1.0786	-0.806101
H	3553.66	0.688675	0.0715201
C	3554.26	-0.481174	1.80793
H	3555.14	-1.08255	2.14088
H	3554.07	0.318862	2.55203
H	3553.37	-1.14945	1.77858
N	3555.59	2.21773	1.01561
C	3556.68	3.15865	1.07406
H	3554.72	2.48027	1.42994
H	3556.38	4.08672	1.60461
H	3557.02	3.43591	0.048302
H	3557.55	2.71764	1.61367
