44
  This energy is 1.44924e-319 and Call times are: 79113
C	-3.25908	0.571657	1.08524
C	-2.23423	0.510079	0.0188955
O	-2.53905	0.634231	-1.15931
H	-4.25854	0.731081	0.625315
H	-3.04273	1.41392	1.7756
H	-3.27427	-0.380032	1.65708
N	-0.976	0.307589	0.416673
C	0.130608	0.224257	-0.50273
C	1.26172	-0.50617	0.194616
O	1.23812	-0.686719	1.41062
H	-0.744448	0.178904	1.37728
H	-0.166432	-0.369382	-1.35797
C	0.599062	1.62768	-0.94778
H	0.902408	2.23421	-0.0678808
H	1.45094	1.56719	-1.65589
H	-0.23879	2.1528	-1.4561
N	2.27381	-0.96459	-0.567968
C	3.38804	-1.68185	0.00668411
H	2.27111	-0.814662	-1.5512
H	4.1165	-1.97367	-0.781623
H	3.03746	-2.60665	0.519605
H	3.91715	-1.05049	0.756754
C	3749.19	1.88348	2.37843
C	3750.44	1.42495	1.73576
O	3751.52	1.91619	2.03298
H	3749.43	2.69047	3.10611
H	3748.71	1.04218	2.91837
H	3748.49	2.28168	1.61345
N	3750.32	0.460413	0.820774
C	3751.45	-0.0895173	0.110039
C	3750.93	-0.736752	-1.15865
O	3749.73	-0.952969	-1.30695
H	3749.43	0.0887221	0.566412
H	3752.11	0.717326	-0.179613
C	3752.2	-1.13127	0.967949
H	3751.52	-1.95721	1.26389
H	3753.07	-1.55662	0.423769
H	3752.57	-0.645002	1.89478
N	3751.82	-1.04243	-2.11741
C	3751.42	-1.6501	-3.36377
H	3752.79	-0.853066	-1.9814
H	3752.3	-1.82544	-4.01981
H	3750.7	-0.992373	-3.90732
H	3750.92	-2.62826	-3.17996
