44
  This energy is 5.72128e-321 and Call times are: 61011
C	1.30088	1.5016	2.8599
C	0.162768	1.01241	2.0496
O	-0.973346	0.991053	2.50268
H	0.933174	1.80483	3.86425
H	1.77053	2.37979	2.36896
H	2.0575	0.698083	2.9817
N	0.450028	0.596468	0.813943
C	-0.549998	0.0937382	-0.0938225
C	0.153195	-0.743396	-1.14452
O	1.37479	-0.692504	-1.27466
H	1.38398	0.591592	0.466602
H	-1.22283	-0.557551	0.449493
C	-1.32915	1.2459	-0.766548
H	-0.635776	1.91245	-1.32247
H	-2.10008	0.86233	-1.46606
H	-1.8387	1.85224	0.0137385
N	-0.605257	-1.55443	-1.90804
C	-0.0220955	-2.39703	-2.92595
H	-1.59139	-1.58673	-1.78259
H	-0.808546	-2.98725	-3.44593
H	0.709391	-3.10711	-2.47657
H	0.514574	-1.78271	-3.68475
C	2891.02	2.99244	-0.0733576
C	2891.11	1.53569	0.174559
O	2890.18	0.923628	0.68176
H	2890.03	3.36554	0.273312
H	2891.12	3.20262	-1.15875
H	2891.82	3.52408	0.483233
N	2892.25	0.94125	-0.179037
C	2892.48	-0.469479	-0.00111777
C	2893.98	-0.696682	-0.00527742
O	2894.75	0.182732	-0.390858
H	2893.01	1.456	-0.564535
H	2892.11	-0.768961	0.969175
C	2891.82	-1.29636	-1.12368
H	2892.21	-0.986075	-2.11773
H	2892	-2.38308	-0.98967
H	2890.72	-1.12028	-1.11075
N	2894.44	-1.88213	0.447205
C	2895.85	-2.18368	0.491559
H	2893.8	-2.57822	0.761638
H	2896.02	-3.20711	0.89225
H	2896.39	-1.4575	1.14429
H	2896.3	-2.12694	-0.527662
