44
  This energy is 4.88285e-320 and Call times are: 32535
C	-1.79364	-2.95101	-0.447766
C	-0.977901	-1.83166	-0.970078
O	-0.58544	-1.8218	-2.12869
H	-1.94648	-3.70138	-1.25366
H	-2.78394	-2.57826	-0.111336
H	-1.27391	-3.43881	0.403632
N	-0.696232	-0.850977	-0.109093
C	0.0864051	0.304333	-0.469045
C	0.63626	0.910695	0.807365
O	0.193569	0.575042	1.90427
H	-0.997215	-0.884692	0.840227
H	0.927966	-0.0143834	-1.07093
C	-0.765085	1.34624	-1.22833
H	-1.6279	1.67051	-0.608237
H	-0.165515	2.23706	-1.50714
H	-1.16297	0.88943	-2.16061
N	1.63555	1.8076	0.693398
C	2.22966	2.42851	1.8543
H	1.98492	2.06079	-0.202744
H	3.03278	3.13693	1.55365
H	2.67428	1.65957	2.52683
H	1.46337	2.99253	2.43383
C	1543.1	-0.532432	-2.25435
C	1544.15	-1.03014	-1.33953
O	1544.25	-2.22059	-1.07509
H	1542.48	-1.38792	-2.60287
H	1543.56	-0.0399044	-3.13602
H	1542.45	0.192842	-1.72663
N	1544.97	-0.111841	-0.823907
C	1546.04	-0.441479	0.0809921
C	1546.41	0.81458	0.847952
O	1546.01	1.91603	0.478593
H	1544.86	0.858354	-1.0242
H	1545.69	-1.17208	0.796449
C	1547.28	-0.976941	-0.679715
H	1547.64	-0.22519	-1.4133
H	1548.11	-1.23188	0.0140595
H	1547	-1.89628	-1.23833
N	1547.17	0.67399	1.953
C	1547.56	1.81216	2.75341
H	1547.48	-0.226577	2.23951
H	1548.18	1.49156	3.61751
H	1546.66	2.34055	3.14606
H	1548.14	2.53727	2.14647
