44
  This energy is 6.5439e-320 and Call times are: 27327
C	-0.216671	1.60509	-3.08267
C	0.304237	1.50584	-1.70064
O	1.16932	2.26943	-1.29437
H	0.302645	2.43312	-3.61234
H	-1.30655	1.81656	-3.06646
H	-0.0325528	0.656821	-3.63025
N	-0.216775	0.541561	-0.938362
C	0.187694	0.320194	0.427006
C	-0.184523	-1.10203	0.79844
O	-0.948167	-1.75698	0.0915275
H	-0.900076	-0.0927216	-1.2901
H	1.26485	0.406288	0.493253
C	-0.500249	1.31715	1.38614
H	-1.60518	1.22659	1.31511
H	-0.190925	1.1496	2.43829
H	-0.220549	2.35523	1.10276
N	0.367554	-1.62206	1.91235
C	0.0810392	-2.97214	2.33821
H	0.988763	-1.07848	2.4672
H	0.628475	-3.21321	3.276
H	0.386754	-3.7041	1.5559
H	-1.00948	-3.10218	2.5254
C	1302.77	2.61678	-1.46287
C	1302.4	1.18665	-1.37211
O	1302.77	0.382368	-2.21638
H	1303.39	2.77926	-2.37384
H	1303.36	2.91608	-0.571544
H	1301.86	3.24567	-1.52939
N	1301.64	0.835492	-0.33024
C	1301.2	-0.51787	-0.105615
C	1299.99	-0.467781	0.804788
O	1299.7	0.560979	1.41441
H	1301.32	1.50529	0.334931
H	1300.89	-0.946449	-1.04868
C	1302.32	-1.37309	0.538778
H	1302.64	-0.930191	1.50572
H	1301.98	-2.41581	0.71298
H	1303.2	-1.40091	-0.137293
N	1299.23	-1.57911	0.900792
C	1298.06	-1.62116	1.73394
H	1299.48	-2.39934	0.393966
H	1297.57	-2.62142	1.68074
H	1297.31	-0.856011	1.40585
H	1298.32	-1.41445	2.79682
