44
  This energy is 8.81166e-320 and Call times are: 16281
C	-3.22885	-0.0369115	-1.30356
C	-2.00139	0.678024	-0.887155
O	-1.85932	1.87272	-1.10853
H	-3.91381	0.675305	-1.81291
H	-3.74511	-0.459579	-0.416058
H	-2.97417	-0.856674	-2.00788
N	-1.07024	-0.0526082	-0.269497
C	0.17668	0.500878	0.194918
C	1.16348	-0.639825	0.350667
O	0.780467	-1.80817	0.340255
H	-1.18538	-1.03119	-0.120967
H	0.566399	1.17223	-0.559716
C	-0.00149474	1.23684	1.54167
H	-0.402071	0.54534	2.31335
H	0.956675	1.66438	1.90208
H	-0.727484	2.06925	1.4145
N	2.46766	-0.325196	0.477612
C	3.48068	-1.34497	0.619142
H	2.75843	0.625953	0.476527
H	4.48988	-0.886552	0.711932
H	3.48319	-2.02175	-0.265846
H	3.29171	-1.96352	1.52626
C	775.379	2.98385	1.09688
C	776.513	2.03679	1.01073
O	777.62	2.33457	1.43899
H	775.722	3.92527	1.5783
H	774.561	2.54616	1.70647
H	774.998	3.21811	0.0806395
N	776.259	0.857197	0.439573
C	777.26	-0.167807	0.283677
C	776.802	-1.10201	-0.819515
O	775.644	-1.06883	-1.23112
H	775.361	0.637649	0.068333
H	778.186	0.291104	-0.0372165
C	777.466	-0.956509	1.59607
H	776.514	-1.42542	1.92274
H	778.237	-1.74647	1.47961
H	777.8	-0.260805	2.39645
N	777.713	-1.947	-1.3411
C	777.372	-2.86463	-2.40298
H	778.647	-1.9537	-0.999372
H	778.255	-3.4755	-2.6938
H	777.017	-2.31057	-3.30224
H	776.559	-3.55465	-2.08004
