44
  This energy is 7.76276e-320 and Call times are: 63741
C	0.400602	1.81166	-2.94678
C	-0.426036	1.3296	-1.81741
O	-1.5654	1.74093	-1.64671
H	-0.179688	2.55483	-3.5357
H	0.675308	0.96385	-3.60903
H	1.32383	2.29686	-2.56575
N	0.142954	0.43573	-1.00524
C	-0.534525	-0.1261	0.135899
C	0.519014	-0.65886	1.08746
O	1.68408	-0.799486	0.720468
H	1.08211	0.130318	-1.13805
H	-1.07269	0.661189	0.648367
C	-1.495	-1.26151	-0.282968
H	-0.939707	-2.06715	-0.808998
H	-2.01843	-1.69625	0.593275
H	-2.26112	-0.858645	-0.980753
N	0.135205	-0.948462	2.34635
C	1.07147	-1.44955	3.32539
H	-0.810708	-0.821095	2.6261
H	0.564238	-1.62849	4.29901
H	1.89696	-0.719507	3.48922
H	1.52213	-2.40921	2.98313
C	3022.85	1.54984	3.11795
C	3023.45	0.669405	2.09225
O	3024.59	0.227728	2.22496
H	3023.58	1.70808	3.94146
H	3021.93	1.0801	3.53467
H	3022.59	2.53379	2.67343
N	3022.7	0.396291	1.02626
C	3023.15	-0.444897	-0.0547642
C	3022.3	-0.123326	-1.27466
O	3021.27	0.533345	-1.1697
H	3021.79	0.785759	0.91596
H	3024.17	-0.198571	-0.289684
C	3023.01	-1.9416	0.304109
H	3021.95	-2.19068	0.545194
H	3023.35	-2.59214	-0.526028
H	3023.63	-2.16401	1.19987
N	3022.74	-0.563283	-2.47036
C	3022.01	-0.294925	-3.68824
H	3023.59	-1.087	-2.53545
H	3022.53	-0.740688	-4.56432
H	3021.92	0.802436	-3.85681
H	3020.99	-0.724115	-3.63471
