44
  This energy is 3.49749e-320 and Call times are: 8217
C	-2.02517	-2.79889	-0.43707
C	-1.83417	-1.37055	-0.0985845
O	-2.79086	-0.630186	0.0833198
H	-3.11306	-3.02145	-0.490236
H	-1.56456	-3.44167	0.342352
H	-1.56372	-3.02407	-1.4216
N	-0.571598	-0.945488	-0.0114028
C	-0.225682	0.416119	0.309839
C	1.18825	0.665132	-0.178055
O	1.9147	-0.271636	-0.504492
H	0.198839	-1.55155	-0.190449
H	-0.883181	1.08355	-0.232655
C	-0.316561	0.675862	1.83017
H	0.358704	-0.0109972	2.38366
H	-0.0509922	1.7234	2.08101
H	-1.35677	0.488855	2.17532
N	1.60521	1.94399	-0.259706
C	2.93126	2.2782	-0.72454
H	0.999966	2.68848	0.00231441
H	3.08428	3.37992	-0.717783
H	3.08789	1.90898	-1.76396
H	3.70532	1.81261	-0.0724466
C	394.372	1.5822	2.75406
C	395.496	1.36587	1.81504
O	396.49	2.07889	1.84267
H	394.605	2.44717	3.41243
H	394.222	0.680848	3.38474
H	393.44	1.79936	2.19172
N	395.357	0.362843	0.944991
C	396.364	0.028822	-0.0302086
C	395.695	-0.758927	-1.13977
O	394.566	-1.22212	-0.989245
H	394.53	-0.192435	0.913234
H	396.752	0.942426	-0.462939
C	397.503	-0.803425	0.599913
H	397.102	-1.73962	1.04347
H	398.281	-1.06222	-0.148198
H	397.984	-0.215835	1.41193
N	396.373	-0.910649	-2.29477
C	395.811	-1.63509	-3.41083
H	397.282	-0.5222	-2.39958
H	396.521	-1.65099	-4.26692
H	394.862	-1.15918	-3.75076
H	395.585	-2.68737	-3.12283
