44
  This energy is 1.10938e-319 and Call times are: 40683
C	-0.853881	0.937685	3.24311
C	-1.17526	0.305922	1.94357
O	-2.21876	-0.311554	1.7813
H	-1.67915	0.740563	3.96139
H	-0.74127	2.03512	3.11752
H	0.0875158	0.514238	3.65227
N	-0.266153	0.444754	0.975787
C	-0.436203	-0.11279	-0.342187
C	0.934452	-0.225442	-0.980819
O	1.90429	0.35251	-0.493762
H	0.593198	0.925299	1.12918
H	-0.840121	-1.11315	-0.251624
C	-1.35679	0.771558	-1.21257
H	-0.939762	1.79726	-1.30282
H	-1.49	0.345086	-2.22803
H	-2.35719	0.847128	-0.733377
N	1.05018	-0.995226	-2.08084
C	2.31803	-1.17123	-2.74998
H	0.254981	-1.4605	-2.45556
H	2.20704	-1.83726	-3.63391
H	3.06633	-1.62535	-2.06074
H	2.71855	-0.191352	-3.09727
C	1929.52	0.589673	3.1417
C	1930.49	-0.0848635	2.25359
O	1931.39	-0.778603	2.71046
H	1929.76	0.356073	4.20047
H	1928.49	0.231938	2.92401
H	1929.57	1.68946	2.99608
N	1930.33	0.112948	0.942666
C	1931.2	-0.476287	-0.0462383
C	1931.08	0.33951	-1.31854
O	1930.16	1.1486	-1.46095
H	1929.62	0.703823	0.584318
H	1932.23	-0.401797	0.295027
C	1930.82	-1.94876	-0.320789
H	1929.77	-2.02156	-0.670066
H	1931.49	-2.40558	-1.08167
H	1930.92	-2.53541	0.61912
N	1932.02	0.159742	-2.269
C	1931.99	0.900917	-3.50837
H	1932.75	-0.494538	-2.13195
H	1932.84	0.610765	-4.1596
H	1932.05	1.99584	-3.31291
H	1931.04	0.704361	-4.06246
