44
  This energy is 7.29686e-320 and Call times are: 21741
C	-0.262337	-2.97577	-1.78945
C	-0.0880394	-2.2296	-0.522935
O	-0.0836445	-2.80663	0.555724
H	-0.382456	-4.05785	-1.56467
H	0.627997	-2.84034	-2.4389
H	-1.16722	-2.61706	-2.32373
N	0.0558885	-0.906578	-0.629122
C	0.234959	-0.0456772	0.512636
C	-0.154487	1.36085	0.101238
O	-0.297544	1.65201	-1.08476
H	0.021388	-0.444925	-1.51152
H	-0.441462	-0.357813	1.29819
C	1.69757	-0.0679625	1.01003
H	2.38882	0.25215	0.201442
H	1.83894	0.593742	1.8892
H	1.97092	-1.10388	1.30719
N	-0.357183	2.26485	1.07986
C	-0.742077	3.6252	0.784038
H	-0.243372	2.00792	2.03393
H	-0.858523	4.21349	1.72084
H	-1.71002	3.64861	0.232879
H	0.0278612	4.1227	0.150902
C	1035.53	-0.970364	-3.32343
C	1035.09	-0.198972	-2.1363
O	1034.19	0.623868	-2.21077
H	1034.92	-0.662755	-4.2024
H	1035.38	-2.05687	-3.14787
H	1036.6	-0.772418	-3.53944
N	1035.74	-0.449083	-0.997519
C	1035.44	0.220862	0.24104
C	1036.65	0.101808	1.14704
O	1037.55	-0.690149	0.887562
H	1036.5	-1.10075	-0.95626
H	1035.28	1.27298	0.0418595
C	1034.2	-0.399893	0.924715
H	1034.37	-1.47941	1.12699
H	1033.96	0.113687	1.87861
H	1033.32	-0.3074	0.25049
N	1036.7	0.907177	2.22611
C	1037.82	0.87265	3.13891
H	1035.96	1.54641	2.41501
H	1037.68	1.60688	3.9624
H	1038.77	1.11974	2.60811
H	1037.93	-0.141026	3.58788
