44
  This energy is 8.44259e-320 and Call times are: 108765
C	-1.36426	2.76195	1.62375
C	-0.608144	2.15052	0.507664
O	-0.27293	2.81094	-0.465976
H	-1.54549	3.83568	1.39988
H	-0.783557	2.68458	2.56695
H	-2.34206	2.25093	1.74907
N	-0.32425	0.851313	0.625244
C	0.404934	0.116704	-0.377486
C	0.0974918	-1.35642	-0.191432
O	-0.447271	-1.76021	0.834246
H	-0.628149	0.317505	1.40987
H	0.0457023	0.406577	-1.35677
C	1.9259	0.361103	-0.258911
H	2.29094	0.0632754	0.747151
H	2.49038	-0.202936	-1.02962
H	2.13781	1.44391	-0.395877
N	0.422299	-2.19445	-1.19553
C	0.156783	-3.61177	-1.11263
H	0.85605	-1.84731	-2.02051
H	0.497836	-4.1304	-2.03565
H	-0.934059	-3.80046	-0.987326
H	0.687093	-4.06075	-0.241784
C	5151.06	3.19736	-1.0943
C	5150.78	1.74774	-0.97643
O	5149.72	1.27446	-1.34521
H	5150.18	3.70448	-1.53744
H	5151.94	3.36759	-1.75157
H	5151.26	3.63202	-0.0920643
N	5151.76	1.00094	-0.444917
C	5151.64	-0.423966	-0.265457
C	5152.64	-0.84569	0.793379
O	5153.53	-0.0834585	1.15063
H	5152.61	1.40263	-0.121493
H	5150.65	-0.649603	0.109091
C	5151.91	-1.18172	-1.5843
H	5152.92	-0.947417	-1.96607
H	5151.82	-2.27913	-1.44973
H	5151.17	-0.863067	-2.35199
N	5152.49	-2.06982	1.33789
C	5153.39	-2.55268	2.36133
H	5151.75	-2.66912	1.04047
H	5153.11	-3.58036	2.67941
H	5153.36	-1.88846	3.25529
H	5154.44	-2.57803	1.98482
