44
  This energy is 9.74396e-320 and Call times are: 40179
C	-3.21662	0.190258	1.32033
C	-1.74621	0.127138	1.47881
O	-1.22139	0.270082	2.57454
H	-3.68477	0.382797	2.31009
H	-3.60023	-0.772807	0.922627
H	-3.49198	1.01228	0.626497
N	-1.03857	-0.0863218	0.367036
C	0.399903	-0.173343	0.360718
C	0.877271	0.104488	-1.05143
O	0.0879274	0.0997325	-1.99417
H	-1.47606	-0.172119	-0.524131
H	0.802044	0.600578	1.00213
C	0.881075	-1.56803	0.81944
H	0.466127	-2.35963	0.159663
H	1.98824	-1.63845	0.815899
H	0.523935	-1.75994	1.8547
N	2.18548	0.376095	-1.22697
C	2.72862	0.664499	-2.53388
H	2.80693	0.382189	-0.450442
H	3.82186	0.859758	-2.47105
H	2.23703	1.56206	-2.9743
H	2.56474	-0.193258	-3.22567
C	1905.82	2.97519	1.4517
C	1905.69	1.89261	0.450684
O	1904.71	1.82209	-0.280346
H	1904.92	3.63287	1.40071
H	1906.72	3.583	1.24159
H	1905.89	2.54555	2.47302
N	1906.69	1.00761	0.400192
C	1906.7	-0.100709	-0.52078
C	1907.66	-1.14681	0.0258117
O	1908.44	-0.87239	0.935255
H	1907.46	1.05914	1.02095
H	1905.72	-0.542077	-0.557569
C	1907.16	0.344938	-1.92932
H	1908.17	0.797868	-1.88778
H	1907.17	-0.505995	-2.64101
H	1906.45	1.11204	-2.31806
N	1907.6	-2.38393	-0.50529
C	1908.46	-3.44757	-0.0402216
H	1906.95	-2.58809	-1.23566
H	1908.26	-4.38713	-0.601679
H	1908.29	-3.64433	1.04319
H	1909.53	-3.17584	-0.178229
