44
  This energy is 1.17548e-319 and Call times are: 116535
C	2.88369	-1.87589	-0.539874
C	2.11267	-0.616226	-0.639688
O	2.63722	0.417115	-1.03154
H	3.93248	-1.69081	-0.858721
H	2.43879	-2.65007	-1.19982
H	2.88599	-2.24132	0.508649
N	0.829737	-0.675755	-0.275126
C	-0.048554	0.46603	-0.31709
C	-1.21117	0.194117	0.617588
O	-1.41788	-0.937835	1.05094
H	0.421592	-1.51673	0.0700118
H	0.481258	1.33154	0.0600852
C	-0.567448	0.724207	-1.74929
H	-1.10987	-0.165947	-2.13337
H	-1.2439	1.60278	-1.78524
H	0.293806	0.920851	-2.42436
N	-1.98839	1.23758	0.968478
C	-3.11085	1.07655	1.86309
H	-1.8005	2.14721	0.612813
H	-3.62533	2.04893	2.0275
H	-2.77327	0.687229	2.85087
H	-3.84892	0.356074	1.44196
C	5522.13	-0.258347	-2.14952
C	5521.33	-0.734285	-0.998304
O	5521.59	-1.79282	-0.442575
H	5522.92	-1.0004	-2.37543
H	5522.6	0.71613	-1.90888
H	5521.48	-0.142773	-3.04395
N	5520.32	0.0490442	-0.613762
C	5519.45	-0.278821	0.489697
C	5518.16	0.504133	0.31933
O	5518.09	1.43517	-0.480883
H	5520.1	0.894795	-1.093
H	5519.2	-1.33189	0.442439
C	5520.11	0.0681469	1.84407
H	5520.36	1.14906	1.88887
H	5519.44	-0.183177	2.6959
H	5521.05	-0.510888	1.9562
N	5517.1	0.127808	1.05739
C	5515.83	0.806859	0.953621
H	5517.17	-0.632701	1.69417
H	5515.08	0.351677	1.64125
H	5515.43	0.742656	-0.0857376
H	5515.94	1.88421	1.21619
