44
  This energy is 1.24302e-319 and Call times are: 35307
C	-1.85565	-2.88305	0.608853
C	-1.14479	-1.67044	1.07303
O	-1.19457	-1.31699	2.24311
H	-2.39172	-3.34528	1.46608
H	-1.13111	-3.61814	0.199573
H	-2.59475	-2.61677	-0.175857
N	-0.46104	-0.993187	0.14773
C	0.281134	0.205619	0.445838
C	0.475286	0.967866	-0.850512
O	0.258643	0.429738	-1.93463
H	-0.452082	-1.27511	-0.807978
H	-0.306933	0.827904	1.10842
C	1.65153	-0.123964	1.0787
H	2.25192	-0.763015	0.396606
H	2.22556	0.796865	1.30965
H	1.49559	-0.683273	2.02686
N	0.8699	2.25365	-0.766544
C	1.06913	3.06155	-1.94713
H	1.03316	2.67319	0.120339
H	1.39455	4.0886	-1.67048
H	0.125295	3.13911	-2.53399
H	1.84831	2.61185	-2.60427
C	1674.84	1.90702	-0.537924
C	1675.7	0.737246	-0.830239
O	1675.32	-0.153909	-1.57812
H	1673.87	1.80191	-1.08443
H	1675.34	2.8413	-0.868422
H	1674.63	1.96559	0.550929
N	1676.89	0.712697	-0.231025
C	1677.83	-0.358348	-0.416779
C	1678.79	-0.339759	0.756029
O	1678.85	0.629583	1.51068
H	1677.17	1.43035	0.398914
H	1677.31	-1.30281	-0.393888
C	1678.61	-0.198947	-1.74273
H	1679.15	0.771299	-1.76311
H	1679.34	-1.02206	-1.889
H	1677.9	-0.212952	-2.59387
N	1679.57	-1.42748	0.949122
C	1680.5	-1.50481	2.04655
H	1679.5	-2.2047	0.33162
H	1681.04	-2.47637	2.03391
H	1679.97	-1.41158	3.02211
H	1681.25	-0.684134	1.98159
