44
  This energy is 9.38082e-320 and Call times are: 77097
C	0.0750045	2.05858	-2.80763
C	0.751807	1.28294	-1.7439
O	1.96537	1.12885	-1.74814
H	0.832622	2.42316	-3.53492
H	-0.450964	2.93219	-2.36834
H	-0.657015	1.41729	-3.34227
N	-0.0336307	0.764589	-0.796916
C	0.477554	-0.013597	0.303059
C	-0.662467	-0.849099	0.852174
O	-1.8263	-0.609747	0.535906
H	-1.02394	0.872603	-0.820494
H	1.23418	-0.693076	-0.0682833
C	1.05453	0.892931	1.4132
H	0.275846	1.58916	1.7914
H	1.44915	0.296956	2.26165
H	1.88791	1.50056	0.997974
N	-0.34981	-1.86892	1.67571
C	-1.36779	-2.72579	2.23756
H	0.59852	-2.0509	1.91401
H	-0.911671	-3.50297	2.88963
H	-1.94012	-3.23749	1.43018
H	-2.08697	-2.13345	2.84837
C	3652.11	2.01077	0.522993
C	3652.78	0.867939	-0.129866
O	3652.16	0.0789178	-0.828006
H	3651.02	1.98923	0.270334
H	3652.54	2.96805	0.164677
H	3652.22	1.94386	1.62557
N	3654.09	0.750175	0.0922474
C	3654.89	-0.308905	-0.473897
C	3656.15	-0.447438	0.365507
O	3656.46	0.424527	1.17288
H	3654.58	1.38267	0.686501
H	3654.34	-1.23933	-0.401151
C	3655.26	-0.00816983	-1.9426
H	3655.83	0.947329	-2.01364
H	3655.88	-0.821715	-2.38166
H	3654.34	0.0921906	-2.54668
N	3656.88	-1.56467	0.208349
C	3658.09	-1.78904	0.972956
H	3656.61	-2.26197	-0.444978
H	3658.55	-2.76226	0.699315
H	3657.86	-1.8021	2.06423
H	3658.83	-0.98069	0.782607
