44
  This energy is 1.12746e-319 and Call times are: 77853
C	-2.1466	2.65309	-0.692369
C	-1.85873	1.33855	-0.0756578
O	-2.66786	0.796282	0.664439
H	-3.14933	3.00181	-0.362556
H	-2.14275	2.56545	-1.79922
H	-1.38567	3.39824	-0.378229
N	-0.676116	0.792495	-0.368268
C	-0.252796	-0.481935	0.154662
C	1.2596	-0.543386	0.0645635
O	1.88248	0.270954	-0.614188
H	-0.0135785	1.25769	-0.949279
H	-0.522576	-0.539871	1.20153
C	-0.880106	-1.65116	-0.636868
H	-0.601857	-1.58824	-1.71052
H	-0.55637	-2.63395	-0.236754
H	-1.98807	-1.59415	-0.564006
N	1.88928	-1.50393	0.769448
C	3.32786	-1.63218	0.754188
H	1.36799	-2.14901	1.31841
H	3.65373	-2.48175	1.39394
H	3.80925	-0.702228	1.13457
H	3.69546	-1.81227	-0.281967
C	3687.54	-0.720041	0.547104
C	3688.96	-1.12037	0.487486
O	3689.32	-2.22967	0.855628
H	3686.94	-1.55853	0.962535
H	3687.16	-0.480939	-0.470948
H	3687.42	0.167886	1.20278
N	3689.81	-0.206855	0.0195286
C	3691.23	-0.448341	-0.0988493
C	3691.93	0.89613	-0.148385
O	3691.29	1.92953	-0.342265
H	3689.51	0.703541	-0.249937
H	3691.57	-0.965637	0.787777
C	3691.56	-1.2645	-1.36928
H	3691.2	-0.731227	-2.27689
H	3692.65	-1.45237	-1.46345
H	3691.04	-2.24649	-1.32132
N	3693.26	0.914967	0.0488093
C	3694.01	2.14977	0.0312107
H	3693.76	0.0687946	0.211272
H	3695.09	1.95679	0.21104
H	3693.64	2.84396	0.820998
H	3693.91	2.65983	-0.953563
