44
  This energy is 4.18177e-320 and Call times are: 20565
C	0.858571	-1.66799	2.93373
C	-0.0356429	-1.45003	1.77439
O	-0.968458	-2.20714	1.54389
H	0.532612	-2.57787	3.48303
H	0.812628	-0.797398	3.62132
H	1.90427	-1.8116	2.58902
N	0.238818	-0.394838	1.00393
C	-0.540468	-0.0522586	-0.158905
C	0.315488	0.825228	-1.05143
O	1.35395	1.32926	-0.627897
H	1.01911	0.197712	1.18551
H	-0.768896	-0.9567	-0.708342
C	-1.83685	0.691859	0.231991
H	-1.59884	1.61884	0.796065
H	-2.43936	0.957006	-0.66101
H	-2.45444	0.0390004	0.886597
N	-0.092493	1.01072	-2.32231
C	0.664322	1.82065	-3.24828
H	-0.931991	0.588492	-2.64819
H	0.165125	1.85254	-4.24178
H	1.68989	1.40725	-3.38448
H	0.760137	2.86425	-2.87028
C	977.11	1.50802	-1.43743
C	978.522	1.06898	-1.48729
O	979.171	1.13971	-2.52233
H	976.802	1.86964	-2.44256
H	976.992	2.33523	-0.706244
H	976.455	0.660071	-1.14454
N	979.036	0.592443	-0.350735
C	980.395	0.12726	-0.241728
C	980.479	-0.790904	0.962139
O	979.57	-0.826838	1.78928
H	978.489	0.512795	0.478378
H	980.638	-0.458221	-1.11936
C	981.382	1.30545	-0.0804552
H	981.129	1.90433	0.820455
H	982.43	0.950822	0.00361119
H	981.31	1.97116	-0.968075
N	981.569	-1.57482	1.07628
C	981.729	-2.48922	2.18273
H	982.29	-1.53635	0.392732
H	982.691	-3.0427	2.09907
H	980.898	-3.23106	2.20319
H	981.725	-1.93884	3.15136
