44
  This energy is 1.05152e-319 and Call times are: 116073
C	-2.55806	1.75231	1.58489
C	-1.12363	1.47323	1.34884
O	-0.252945	2.18012	1.83742
H	-2.65584	2.65332	2.22869
H	-3.03612	0.891013	2.09719
H	-3.07498	1.94178	0.620603
N	-0.843525	0.421225	0.576053
C	0.504051	0.0232824	0.255886
C	0.453486	-0.824587	-1.00022
O	-0.614629	-1.27062	-1.41496
H	-1.56227	-0.129533	0.160112
H	1.08833	0.907013	0.032929
C	1.1438	-0.777505	1.41199
H	0.54148	-1.68305	1.63853
H	2.18153	-1.08537	1.16885
H	1.1739	-0.145882	2.32648
N	1.61257	-1.04908	-1.64994
C	1.66009	-1.83484	-2.86093
H	2.46541	-0.673504	-1.30231
H	2.70238	-1.90621	-3.24274
H	1.02729	-1.37376	-3.65352
H	1.28327	-2.86665	-2.67502
C	5498.01	-1.95752	-2.8136
C	5498.2	-0.719537	-2.0235
O	5499.01	0.132816	-2.36365
H	5498.7	-1.94372	-3.68516
H	5496.97	-2.02251	-3.18348
H	5498.24	-2.84752	-2.18962
N	5497.44	-0.595685	-0.929486
C	5497.51	0.551497	-0.0597688
C	5496.95	0.145643	1.29015
O	5496.32	-0.900039	1.41952
H	5496.81	-1.31031	-0.647061
H	5498.55	0.825585	0.082654
C	5496.71	1.73907	-0.632794
H	5495.64	1.4542	-0.778271
H	5496.75	2.62413	0.0343246
H	5497.12	2.02597	-1.62212
N	5497.2	0.95862	2.33715
C	5496.71	0.647873	3.66274
H	5497.72	1.79679	2.21349
H	5497.01	1.43814	4.38565
H	5497.13	-0.32445	4.01393
H	5495.6	0.570918	3.66875
