44
  This energy is 3.3137e-320 and Call times are: 2085
C	-0.461706	-3.45145	0.0211224
C	-0.701156	-2.10973	-0.556515
O	-1.29654	-1.9745	-1.61657
H	-0.890564	-4.22375	-0.653779
H	-0.949147	-3.53244	1.01544
H	0.62845	-3.63314	0.128322
N	-0.228626	-1.07213	0.138079
C	-0.383365	0.293739	-0.294679
C	0.674449	1.12629	0.403267
O	1.30076	0.67362	1.35964
H	0.280199	-1.19709	0.985675
H	-0.195711	0.348871	-1.35949
C	-1.79145	0.833988	0.0407831
H	-1.98088	0.775331	1.13385
H	-1.91407	1.88543	-0.291209
H	-2.55725	0.214975	-0.475473
N	0.913759	2.36272	-0.0762758
C	1.91094	3.22319	0.516516
H	0.401379	2.70827	-0.855567
H	1.95701	4.19782	-0.0175422
H	2.91796	2.74904	0.468028
H	1.67352	3.4207	1.58693
C	104.553	-1.57398	-1.62559
C	105.156	-0.398755	-0.957796
O	104.585	0.682654	-0.942246
H	103.575	-1.28347	-2.06737
H	104.387	-2.38874	-0.889764
H	105.219	-1.93805	-2.43571
N	106.349	-0.5881	-0.387206
C	107.061	0.458949	0.300297
C	108.526	0.070081	0.350852
O	108.881	-1.07729	0.087785
H	106.817	-1.46631	-0.431873
H	106.983	1.37337	-0.27401
C	106.516	0.664304	1.73141
H	106.597	-0.275908	2.31756
H	107.063	1.46992	2.26357
H	105.442	0.947599	1.68068
N	109.417	1.02926	0.671214
C	110.833	0.754798	0.73261
H	109.11	1.9535	0.873784
H	111.399	1.66999	1.0142
H	111.208	0.400942	-0.255092
H	111.048	-0.0363803	1.48699
