44
  This energy is 1.07163e-320 and Call times are: 7335
C	1.48657	-3.14364	-0.183708
C	1.19197	-1.80806	-0.749955
O	1.72493	-1.4275	-1.78321
H	2.22492	-3.66295	-0.832575
H	0.559076	-3.75219	-0.136424
H	1.91362	-3.04139	0.836156
N	0.325845	-1.05346	-0.0696866
C	-0.061083	0.268182	-0.494403
C	-0.603132	1.00596	0.714359
O	-0.888278	0.399446	1.74522
H	-0.0793983	-1.36327	0.786309
H	0.818027	0.799158	-0.8369
C	-1.13245	0.210608	-1.60615
H	-2.03264	-0.33536	-1.25161
H	-1.43255	1.22656	-1.93562
H	-0.723504	-0.333253	-2.48542
N	-0.737693	2.34361	0.621716
C	-1.23455	3.13133	1.72571
H	-0.494778	2.81696	-0.218622
H	-1.27374	4.20912	1.45353
H	-0.575365	3.01863	2.61679
H	-2.26045	2.80428	2.01161
C	353.642	2.25821	2.64605
C	353.882	0.90127	2.10553
O	354.325	0.00761303	2.81372
H	353.93	2.28219	3.7196
H	352.567	2.52094	2.55621
H	354.252	3.00388	2.09377
N	353.595	0.71775	0.81467
C	353.775	-0.546056	0.14593
C	353.862	-0.276669	-1.34373
O	353.533	0.814183	-1.80558
H	353.262	1.46143	0.241073
H	354.718	-0.978038	0.457773
C	352.606	-1.51156	0.443729
H	351.641	-1.06496	0.123177
H	352.742	-2.48571	-0.0695288
H	352.552	-1.69988	1.53816
N	354.332	-1.26431	-2.13114
C	354.461	-1.09483	-3.55967
H	354.6	-2.13744	-1.7375
H	354.863	-2.01905	-4.03049
H	355.153	-0.253059	-3.79439
H	353.473	-0.868208	-4.01985
