44
  This energy is 3.93029e-320 and Call times are: 56181
C	3.34178	-0.780778	-0.590756
C	2.21045	-0.510575	0.324824
O	2.32427	-0.66335	1.53321
H	4.21895	-1.12298	0.000294571
H	3.61767	0.143265	-1.14108
H	3.06576	-1.57444	-1.3166
N	1.07318	-0.101623	-0.242393
C	-0.114023	0.200993	0.516418
C	-1.30146	0.116238	-0.422756
O	-1.13814	0.0804001	-1.6409
H	0.984264	-0.00897828	-1.23055
H	-0.244875	-0.554144	1.28109
C	-0.0348379	1.60928	1.14696
H	0.100068	2.38143	0.359752
H	-0.947318	1.84547	1.73209
H	0.839647	1.65874	1.83178
N	-2.53051	0.0600011	0.127032
C	-3.71928	-0.034008	-0.687944
H	-2.64147	0.0830558	1.11516
H	-4.63085	-0.0671389	-0.0513971
H	-3.69492	-0.955632	-1.31345
H	-3.79909	0.843739	-1.36939
C	2663.33	-2.9465	1.84815
C	2662.7	-1.7586	1.23167
O	2661.48	-1.62627	1.21542
H	2662.54	-3.62049	2.24292
H	2663.99	-2.63718	2.68605
H	2663.93	-3.49791	1.09193
N	2663.53	-0.856901	0.697061
C	2663.06	0.350253	0.0619817
C	2664.16	0.847712	-0.855316
O	2665.3	0.395641	-0.771843
H	2664.51	-0.990225	0.690824
H	2662.2	0.1157	-0.552671
C	2662.71	1.43434	1.1047
H	2663.59	1.67204	1.73395
H	2662.35	2.36513	0.619104
H	2661.9	1.05725	1.77116
N	2663.84	1.78064	-1.77198
C	2664.81	2.30494	-2.69579
H	2662.91	2.12868	-1.82845
H	2664.35	3.06238	-3.36806
H	2665.24	1.4887	-3.32506
H	2665.65	2.78794	-2.14618
