44
  This energy is 1.45952e-319 and Call times are: 41985
C	-1.63785	2.53267	1.74044
C	-1.52438	1.60565	0.591983
O	-2.42465	1.50372	-0.229981
H	-2.61951	3.05261	1.69716
H	-0.827627	3.29086	1.7016
H	-1.57122	1.9695	2.69509
N	-0.397645	0.893844	0.51354
C	-0.1408	-0.0488649	-0.545779
C	0.923217	-1.01482	-0.0620036
O	1.58386	-0.769262	0.945509
H	0.315976	0.964486	1.20542
H	-1.04127	-0.619257	-0.735183
C	0.334439	0.664919	-1.83099
H	1.258	1.24965	-1.63292
H	0.532974	-0.058019	-2.64875
H	-0.453213	1.37046	-2.17446
N	1.09877	-2.1531	-0.761652
C	2.08026	-3.13745	-0.369323
H	0.549328	-2.33686	-1.57009
H	2.07376	-4.00056	-1.07092
H	1.86725	-3.51764	0.656018
H	3.10245	-2.69439	-0.36783
C	1992.42	-3.41442	0.488248
C	1992.06	-2.12836	-0.151762
O	1991.23	-2.07713	-1.04781
H	1991.83	-4.23379	0.018644
H	1992.19	-3.38029	1.57288
H	1993.5	-3.62274	0.351184
N	1992.7	-1.04474	0.298951
C	1992.46	0.276615	-0.22381
C	1993.66	1.13616	0.112123
O	1994.5	0.757953	0.933612
H	1993.4	-1.10359	1.00936
H	1992.39	0.220325	-1.30249
C	1991.18	0.89612	0.379213
H	1991.26	0.951741	1.48597
H	1990.99	1.91352	-0.021271
H	1990.31	0.256576	0.127101
N	1993.79	2.3104	-0.53617
C	1994.91	3.1895	-0.290254
H	1993.11	2.59547	-1.20265
H	1994.84	4.10477	-0.91805
H	1995.87	2.67795	-0.527549
H	1994.94	3.49935	0.779484
