44
  This energy is 1.38976e-319 and Call times are: 30015
C	1.50788	2.9867	0.965408
C	1.57865	1.56758	0.550325
O	2.65191	1.0308	0.312714
H	2.53502	3.41044	1.00161
H	1.04988	3.06803	1.97359
H	0.904375	3.56887	0.237532
N	0.415074	0.921207	0.447096
C	0.321609	-0.462258	0.0545189
C	-1.08532	-0.708011	-0.454777
O	-1.97977	0.110538	-0.250366
H	-0.454589	1.37769	0.615163
H	1.00456	-0.642077	-0.766036
C	0.630123	-1.40514	1.23896
H	-0.0719304	-1.2175	2.07922
H	0.559201	-2.47118	0.940128
H	1.66298	-1.2144	1.60361
N	-1.30875	-1.83872	-1.15304
C	-2.61372	-2.15153	-1.68725
H	-0.570223	-2.48518	-1.31399
H	-2.59479	-3.12365	-2.2275
H	-2.94664	-1.36154	-2.39882
H	-3.36727	-2.2194	-0.86948
C	1431.51	1.25709	2.06392
C	1431.06	0.590401	0.821545
O	1431.84	0.347247	-0.0859264
H	1432.6	1.47031	1.99208
H	1431.33	0.59771	2.93892
H	1430.96	2.21418	2.20432
N	1429.76	0.281013	0.751578
C	1429.17	-0.370012	-0.391947
C	1427.68	-0.0982482	-0.367299
O	1427.14	0.352558	0.641046
H	1429.13	0.51058	1.48546
H	1429.57	0.0744792	-1.29423
C	1429.44	-1.89231	-0.369371
H	1429.02	-2.34495	0.557914
H	1428.98	-2.39669	-1.24856
H	1430.53	-2.07803	-0.386536
N	1426.98	-0.347584	-1.49183
C	1425.56	-0.108151	-1.56563
H	1427.44	-0.705495	-2.2997
H	1425.17	-0.376458	-2.5713
H	1425.33	0.965676	-1.37553
H	1425.02	-0.715946	-0.804585
