44
  This energy is 1.47232e-319 and Call times are: 79197
C	-2.37839	-2.54316	0.0414214
C	-1.34214	-1.74126	-0.647297
O	-0.953525	-2.03871	-1.76846
H	-2.68503	-3.38744	-0.613584
H	-3.26778	-1.91455	0.257413
H	-1.97635	-2.95324	0.991763
N	-0.860821	-0.692262	0.0237498
C	0.150299	0.182564	-0.513973
C	0.813087	0.897773	0.647245
O	0.306347	0.881348	1.76741
H	-1.16456	-0.477397	0.948146
H	0.906516	-0.414954	-1.00711
C	-0.45846	1.2107	-1.49349
H	-1.23432	1.82151	-0.984486
H	0.317377	1.88581	-1.90952
H	-0.941873	0.674193	-2.33884
N	1.98038	1.52769	0.409266
C	2.6898	2.22518	1.45636
H	2.37789	1.5235	-0.502437
H	3.62586	2.67887	1.0624
H	2.95919	1.52642	2.28123
H	2.05931	3.03786	1.88439
C	3752.08	-1.98817	0.460719
C	3753.19	-1.15876	0.986202
O	3753.25	-0.867262	2.17254
H	3751.39	-2.25146	1.29295
H	3752.48	-2.92346	0.0157902
H	3751.51	-1.42546	-0.310452
N	3754.09	-0.749664	0.0969866
C	3755.23	0.062763	0.455956
C	3755.72	0.753292	-0.800135
O	3755.34	0.388254	-1.91023
H	3754.01	-0.96947	-0.871695
H	3754.91	0.830348	1.14834
C	3756.36	-0.790961	1.07303
H	3756.69	-1.57782	0.360319
H	3757.23	-0.168509	1.35073
H	3755.98	-1.29239	1.99163
N	3756.57	1.78784	-0.651061
C	3757.09	2.51329	-1.78923
H	3756.87	2.07266	0.256015
H	3757.77	3.32612	-1.46083
H	3756.26	2.97016	-2.37254
H	3757.65	1.83243	-2.46726
