44
  This energy is 5.61901e-320 and Call times are: 101121
C	3.40536	0.717097	-0.124078
C	2.06298	0.875596	0.479321
O	1.90751	1.49563	1.52233
H	4.15834	1.22557	0.516498
H	3.42654	1.17444	-1.13562
H	3.66632	-0.359511	-0.199973
N	1.04837	0.303107	-0.172747
C	-0.315013	0.370354	0.289295
C	-1.08111	-0.770238	-0.352099
O	-0.604472	-1.3938	-1.29858
H	1.19194	-0.224061	-1.00606
H	-0.331428	0.216156	1.36076
C	-0.967542	1.72169	-0.0784171
H	-0.948394	1.87694	-1.17826
H	-2.01736	1.7769	0.276005
H	-0.396439	2.54901	0.396475
N	-2.28465	-1.08442	0.166347
C	-3.08074	-2.16302	-0.371267
H	-2.64995	-0.572544	0.936913
H	-4.03663	-2.26317	0.188636
H	-2.53095	-3.12954	-0.301782
H	-3.32007	-1.97828	-1.44354
C	4790.28	-2.67705	1.82228
C	4789.16	-1.80107	1.40801
O	4788.01	-2.0501	1.73419
H	4789.88	-3.52267	2.42375
H	4791	-2.10609	2.44087
H	4790.8	-3.08448	0.928799
N	4789.48	-0.74136	0.662221
C	4788.5	0.202531	0.183025
C	4789.1	0.928551	-1.00673
O	4790.31	0.857483	-1.24701
H	4790.42	-0.565397	0.378704
H	4787.63	-0.338854	-0.165066
C	4788.11	1.21551	1.28253
H	4789.01	1.76866	1.6378
H	4787.36	1.94369	0.916963
H	4787.68	0.671109	2.14885
N	4788.26	1.63029	-1.79553
C	4788.74	2.3439	-2.95741
H	4787.29	1.66974	-1.58843
H	4787.9	2.85988	-3.47355
H	4789.22	1.64349	-3.67993
H	4789.5	3.10879	-2.6663
