44
  This energy is 9.41739e-320 and Call times are: 52149
C	-1.98833	-2.8351	-0.367237
C	-1.00672	-2.02236	0.385828
O	-0.660187	-2.33626	1.51626
H	-2.30995	-3.69565	0.258774
H	-1.52861	-3.22195	-1.30096
H	-2.87891	-2.22217	-0.620464
N	-0.534675	-0.93819	-0.233933
C	0.425879	-0.0491405	0.369188
C	0.338504	1.28533	-0.345515
O	-0.261111	1.38805	-1.41404
H	-0.846716	-0.677104	-1.14355
H	0.153282	0.11358	1.40422
C	1.85964	-0.615183	0.264161
H	2.13577	-0.781533	-0.798947
H	2.60178	0.0668197	0.727718
H	1.91013	-1.59322	0.790511
N	0.920189	2.34892	0.243062
C	0.878085	3.66176	-0.357643
H	1.39455	2.24681	1.11127
H	1.4138	4.40187	0.276785
H	-0.175046	4.00353	-0.481536
H	1.35764	3.6495	-1.36316
C	2475.87	-1.21022	-2.13112
C	2474.57	-0.545689	-1.89175
O	2473.94	-0.0409105	-2.81025
H	2476.12	-1.14801	-3.21237
H	2475.82	-2.27919	-1.83627
H	2476.67	-0.707807	-1.54722
N	2474.14	-0.5265	-0.628878
C	2472.89	0.0824179	-0.238834
C	2472.97	0.384156	1.24536
O	2473.85	-0.108123	1.94407
H	2474.68	-0.91558	0.114885
H	2472.78	1.0244	-0.760975
C	2471.7	-0.848708	-0.533283
H	2471.81	-1.81438	0.00340498
H	2470.74	-0.382875	-0.234301
H	2471.65	-1.06308	-1.62344
N	2472.05	1.2233	1.75879
C	2472.04	1.57809	3.1589
H	2471.34	1.61699	1.17559
H	2471.21	2.2766	3.38647
H	2473	2.07337	3.43995
H	2471.93	0.670625	3.79418
