44
  This energy is 4.30134e-320 and Call times are: 94191
C	3.06803	-1.21841	-1.10851
C	2.01163	-1.09517	-0.0789244
O	2.05268	-1.75338	0.951401
H	3.82014	-1.96621	-0.775358
H	3.57401	-0.241193	-1.25635
H	2.62766	-1.55557	-2.07045
N	1.02277	-0.238148	-0.343546
C	-0.0757751	-0.00890935	0.560594
C	-1.22282	0.577524	-0.239164
O	-1.04046	1.00935	-1.37587
H	0.985423	0.270674	-1.19949
H	-0.405943	-0.958972	0.961148
C	0.324994	0.954843	1.69975
H	0.663816	1.92824	1.28525
H	-0.518523	1.13343	2.39787
H	1.16678	0.514355	2.27725
N	-2.44322	0.586091	0.332298
C	-3.59712	1.11357	-0.357961
H	-2.57172	0.225522	1.25029
H	-4.50632	1.03336	0.277785
H	-3.7798	0.552818	-1.30317
H	-3.44383	2.18622	-0.617003
C	4464.34	0.0466396	-0.549119
C	4463.04	-0.65645	-0.507064
O	4462.93	-1.80763	-0.90593
H	4465.11	-0.629144	-0.983399
H	4464.65	0.334243	0.476684
H	4464.26	0.956693	-1.18069
N	4462	0.0357466	-0.0195665
C	4460.68	-0.512197	0.0854295
C	4459.7	0.64525	0.16671
O	4460.1	1.78738	0.390755
H	4462.1	0.982718	0.275155
H	4460.45	-1.06833	-0.81614
C	4460.54	-1.41366	1.3324
H	4460.77	-0.840124	2.25542
H	4459.51	-1.83735	1.41623
H	4461.26	-2.25692	1.2613
N	4458.39	0.377755	-0.0365226
C	4457.39	1.41823	0.00971312
H	4458.09	-0.55186	-0.223559
H	4456.38	0.998762	-0.18046
H	4457.6	2.19687	-0.759781
H	4457.39	1.9127	1.00803
