44
  This energy is 1.52271e-320 and Call times are: 37155
C	2.8548	1.97129	0.300409
C	1.46834	1.62154	0.683297
O	0.914176	2.17192	1.62483
H	3.23951	2.75462	0.989072
H	2.87756	2.36323	-0.73819
H	3.50898	1.07694	0.372082
N	0.871281	0.67775	-0.0482407
C	-0.475697	0.230506	0.20166
C	-0.635389	-1.14053	-0.426035
O	0.195966	-1.56654	-1.22553
H	1.34357	0.216199	-0.794463
H	-0.618043	0.122047	1.26939
C	-1.51282	1.2103	-0.391202
H	-1.36348	1.31972	-1.48657
H	-2.55106	0.86903	-0.200455
H	-1.38462	2.21109	0.0758412
N	-1.70361	-1.87549	-0.05897
C	-1.93178	-3.19711	-0.595121
H	-2.36131	-1.51601	0.594815
H	-2.86176	-3.63763	-0.172833
H	-1.08088	-3.87303	-0.349485
H	-2.0337	-3.15928	-1.70389
C	1765.43	0.993668	-2.17978
C	1764.01	0.676574	-1.8866
O	1763.13	0.879405	-2.71388
H	1765.5	1.41755	-3.20461
H	1766.04	0.0726473	-2.12463
H	1765.81	1.73983	-1.45252
N	1763.76	0.168603	-0.678819
C	1762.43	-0.190263	-0.247213
C	1762.42	-0.22269	1.26876
O	1763.48	-0.21826	1.90047
H	1764.48	0.0352177	-0.0030588
H	1761.74	0.580164	-0.561637
C	1762.01	-1.56639	-0.809192
H	1762.72	-2.35428	-0.485248
H	1760.99	-1.84573	-0.478923
H	1762.01	-1.52983	-1.92038
N	1761.23	-0.234129	1.89049
C	1761.13	-0.253057	3.3311
H	1760.39	-0.230204	1.36174
H	1760.06	-0.262049	3.64951
H	1761.62	0.645417	3.77161
H	1761.62	-1.15767	3.74872
