44
  This energy is 1.46214e-319 and Call times are: 104775
C	2.33977	1.62398	2.00358
C	1.8185	0.411857	1.33257
O	2.45817	-0.63085	1.3238
H	3.33628	1.40077	2.44288
H	1.651	1.93764	2.81601
H	2.44722	2.4511	1.27059
N	0.627184	0.527399	0.741143
C	-0.0107332	-0.563572	0.0485604
C	-1.03108	0.0241149	-0.906825
O	-1.37527	1.20079	-0.813078
H	0.12912	1.39039	0.73024
H	0.730389	-1.08647	-0.542533
C	-0.702475	-1.52929	1.03649
H	-1.46167	-0.989426	1.64171
H	-1.19456	-2.3706	0.506547
H	0.0553624	-1.95207	1.73153
N	-1.52442	-0.781679	-1.86772
C	-2.49139	-0.306341	-2.82959
H	-1.228	-1.72894	-1.93149
H	-2.77538	-1.11766	-3.53553
H	-2.07437	0.541657	-3.4197
H	-3.41352	0.0506837	-2.31637
C	4960.84	2.30772	-1.46688
C	4962.19	1.7178	-1.28202
O	4963.13	2.06163	-1.98123
H	4960.88	3.04641	-2.29698
H	4960.52	2.8249	-0.538557
H	4960.11	1.51459	-1.72131
N	4962.31	0.796437	-0.322938
C	4963.55	0.132993	-0.0235965
C	4963.23	-1.158	0.70292
O	4962.1	-1.3576	1.15944
H	4961.52	0.503801	0.220479
H	4964.04	-0.126637	-0.952026
C	4964.46	1.01985	0.850812
H	4963.95	1.28487	1.80215
H	4965.42	0.512108	1.08306
H	4964.69	1.96279	0.307947
N	4964.2	-2.0785	0.807813
C	4963.99	-3.34218	1.47205
H	4965.11	-1.90118	0.425542
H	4964.91	-3.96061	1.45579
H	4963.17	-3.91425	0.969505
H	4963.69	-3.18184	2.53404
