44
  This energy is 8.38479e-320 and Call times are: 39675
C	0.161498	0.557214	-3.43359
C	-0.491728	0.728954	-2.1164
O	-1.44435	1.48354	-1.97635
H	-0.347108	1.20224	-4.18267
H	0.0883533	-0.500959	-3.76183
H	1.23032	0.851832	-3.37222
N	0.0196914	0.024114	-1.10446
C	-0.507409	0.0848288	0.23543
C	0.57618	-0.389233	1.18429
O	1.57268	-0.971306	0.760013
H	0.814245	-0.56501	-1.2251
H	-0.730364	1.11576	0.479449
C	-1.76733	-0.796889	0.384735
H	-1.53517	-1.8537	0.132995
H	-2.17588	-0.752343	1.41521
H	-2.55304	-0.440141	-0.316358
N	0.41509	-0.129758	2.49682
C	1.40032	-0.532533	3.47318
H	-0.394865	0.348783	2.81962
H	1.08606	-0.230617	4.49657
H	2.38541	-0.0598986	3.25531
H	1.53742	-1.63807	3.46025
C	1885.42	-2.3324	-0.568983
C	1884.8	-1.00556	-0.78668
O	1885.38	-0.131733	-1.41516
H	1886.43	-2.35189	-1.04585
H	1884.79	-3.12707	-1.02275
H	1885.54	-2.52772	0.518062
N	1883.59	-0.822562	-0.257134
C	1882.86	0.413451	-0.38426
C	1881.83	0.459716	0.723573
O	1881.55	-0.549862	1.36924
H	1883.14	-1.53236	0.277586
H	1883.54	1.24143	-0.233283
C	1882.17	0.519018	-1.76172
H	1881.47	-0.332299	-1.91356
H	1881.61	1.46963	-1.86303
H	1882.94	0.482747	-2.56464
N	1881.24	1.64583	0.984298
C	1880.26	1.78849	2.02868
H	1881.48	2.45284	0.455415
H	1879.89	2.83845	2.08618
H	1880.69	1.51212	3.01789
H	1879.38	1.12547	1.83613
