44
  This energy is 1.62548e-321 and Call times are: 73527
C	-1.2299	-0.434583	3.22872
C	-0.169892	-0.0128735	2.28545
O	0.834518	0.563776	2.67932
H	-0.943377	-0.136045	4.26053
H	-1.35509	-1.53732	3.19539
H	-2.19187	0.0544115	2.96713
N	-0.377948	-0.291515	0.996482
C	0.561655	0.0552569	-0.039724
C	-0.186782	0.0794873	-1.35824
O	-1.31138	-0.408752	-1.45175
H	-1.21366	-0.735734	0.684716
H	0.935809	1.05432	0.144538
C	1.72439	-0.959915	-0.107419
H	1.33693	-1.98386	-0.295894
H	2.44983	-0.695818	-0.904147
H	2.26387	-0.969017	0.864704
N	0.415582	0.671819	-2.40815
C	-0.225425	0.753111	-3.69992
H	1.32288	1.06742	-2.31051
H	0.429999	1.27432	-4.43205
H	-1.18537	1.31393	-3.62757
H	-0.449248	-0.265229	-4.09244
C	3483.58	0.258557	-3.21173
C	3484.3	-0.488036	-2.15823
O	3484.61	-1.66276	-2.31151
H	3483.39	-0.415531	-4.07513
H	3484.19	1.12104	-3.55617
H	3482.61	0.625256	-2.82148
N	3484.59	0.18868	-1.04444
C	3485.29	-0.400835	0.0684765
C	3484.99	0.430856	1.30058
O	3484.48	1.54344	1.19854
H	3484.31	1.13698	-0.919875
H	3484.9	-1.39641	0.241353
C	3486.82	-0.445301	-0.185548
H	3487.21	0.577614	-0.363172
H	3487.36	-0.898784	0.669374
H	3487.02	-1.05643	-1.09127
N	3485.29	-0.102716	2.502
C	3485.03	0.610658	3.73062
H	3485.7	-1.00744	2.56401
H	3485.34	0.00676826	4.61019
H	3483.94	0.836719	3.83105
H	3485.59	1.57547	3.75047
