44
  This energy is 6.24351e-320 and Call times are: 33039
C	-2.66059	-0.312163	-2.22485
C	-1.7681	0.501694	-1.3691
O	-1.81332	1.72399	-1.39022
H	-3.30492	0.362321	-2.82964
H	-3.30793	-0.959119	-1.59619
H	-2.05996	-0.945884	-2.91084
N	-0.919123	-0.171187	-0.588822
C	0.0107194	0.480361	0.298707
C	1.12335	-0.501548	0.610374
O	1.00172	-1.69528	0.341985
H	-0.871775	-1.16643	-0.602113
H	0.452139	1.32602	-0.213237
C	-0.680469	0.93207	1.60459
H	-1.13279	0.0621543	2.12687
H	0.0326146	1.43428	2.29021
H	-1.49415	1.65005	1.36259
N	2.2492	-0.014137	1.16796
C	3.36609	-0.871911	1.48885
H	2.33113	0.956071	1.37098
H	4.19555	-0.284839	1.94116
H	3.75157	-1.37441	0.572262
H	3.05998	-1.66157	2.21268
C	1567.69	-0.513137	-2.79957
C	1568.56	0.342121	-1.9599
O	1568.91	1.45372	-2.33529
H	1567.46	0.0196727	-3.74652
H	1566.75	-0.734696	-2.26686
H	1568.21	-1.46468	-3.04177
N	1568.94	-0.169989	-0.787433
C	1569.79	0.541363	0.138593
C	1570.43	-0.476797	1.06242
O	1570.01	-1.63093	1.11363
H	1568.68	-1.08836	-0.505763
H	1570.58	1.02961	-0.412672
C	1568.98	1.57053	0.96026
H	1568.17	1.06633	1.524
H	1569.63	2.12017	1.6742
H	1568.52	2.30997	0.271999
N	1571.48	-0.0754591	1.8019
C	1572.16	-0.978532	2.70077
H	1571.81	0.860754	1.74105
H	1573	-0.460957	3.21931
H	1572.58	-1.84781	2.14282
H	1571.46	-1.36868	3.47219
