44
  This energy is 1.35824e-319 and Call times are: 91419
C	0.090066	3.42287	0.634026
C	0.568382	2.0422	0.871021
O	1.53998	1.82251	1.58111
H	0.744197	4.13697	1.17995
H	-0.951227	3.53555	1.00258
H	0.125741	3.65959	-0.45024
N	-0.112806	1.06653	0.265696
C	0.231061	-0.326495	0.400124
C	-0.372028	-1.07079	-0.77527
O	-1.22167	-0.538693	-1.48718
H	-0.884852	1.26047	-0.333692
H	1.30688	-0.430877	0.338572
C	-0.299653	-0.911268	1.72809
H	-1.40353	-0.801913	1.7882
H	-0.0365063	-1.98371	1.8349
H	0.148626	-0.356787	2.58117
N	0.0726166	-2.3193	-1.01923
C	-0.434987	-3.09991	-2.12338
H	0.765819	-2.72972	-0.435913
H	0.0527968	-4.09905	-2.15566
H	-0.240946	-2.58374	-3.09145
H	-1.5347	-3.24951	-2.02624
C	4327.18	0.928639	-0.94562
C	4328.5	1.22907	-0.336717
O	4328.79	2.36695	0.00170248
H	4326.59	1.86683	-1.0244
H	4326.62	0.204702	-0.314614
H	4327.32	0.503618	-1.96227
N	4329.33	0.197267	-0.187612
C	4330.64	0.331271	0.388885
C	4331.47	-0.854588	-0.0627292
O	4330.94	-1.83549	-0.577769
H	4329.09	-0.719777	-0.493993
H	4331.11	1.22691	-0.00191321
C	4330.58	0.377635	1.93186
H	4330.1	-0.542385	2.32936
H	4331.59	0.48093	2.37902
H	4329.97	1.24989	2.24985
N	4332.81	-0.781528	0.101411
C	4333.68	-1.85731	-0.30952
H	4333.22	0.0237844	0.513707
H	4334.74	-1.60906	-0.0893048
H	4333.58	-2.04503	-1.40346
H	4333.42	-2.79918	0.226488
