44
  This energy is 1.57814e-319 and Call times are: 48495
C	0.374164	2.10522	2.74849
C	-0.432733	1.53409	1.6467
O	-1.62901	1.77096	1.55018
H	-0.280234	2.72349	3.40069
H	1.182	2.74699	2.33817
H	0.822034	1.29136	3.35675
N	0.215459	0.751104	0.781167
C	-0.433013	0.123644	-0.34249
C	0.419668	-1.0533	-0.774902
O	1.57212	-1.17878	-0.365092
H	1.184	0.542267	0.887238
H	-1.39201	-0.264528	-0.0235535
C	-0.606965	1.11329	-1.51614
H	0.378718	1.51006	-1.84036
H	-1.1061	0.633452	-2.38297
H	-1.23233	1.97132	-1.18621
N	-0.138703	-1.95956	-1.60129
C	0.592792	-3.11886	-2.05639
H	-1.07505	-1.84404	-1.91615
H	-0.0367905	-3.74193	-2.72919
H	0.910579	-3.74686	-1.19276
H	1.50657	-2.81259	-2.61531
C	2299.07	0.141265	-1.29467
C	2300.12	-0.51384	-0.480491
O	2299.86	-1.48515	0.217711
H	2298.1	-0.38493	-1.14054
H	2299.34	0.0945646	-2.37144
H	2298.96	1.20233	-0.988443
N	2301.34	0.0171504	-0.549874
C	2302.47	-0.508998	0.18367
C	2303.51	0.587978	0.291156
O	2303.43	1.59826	-0.405424
H	2301.53	0.826262	-1.09976
H	2302.14	-0.757752	1.18739
C	2303.07	-1.74576	-0.520082
H	2303.39	-1.48715	-1.54974
H	2303.93	-2.15352	0.0421632
H	2302.29	-2.54153	-0.593648
N	2304.5	0.422603	1.18831
C	2305.53	1.41948	1.36896
H	2304.54	-0.398732	1.74774
H	2306.25	1.09941	2.14977
H	2305.08	2.39181	1.68143
H	2306.09	1.58471	0.41905
