44
  This energy is 1.60127e-319 and Call times are: 54669
C	-3.25455	-1.17735	-0.384536
C	-2.1019	-0.36615	-0.836811
O	-2.10872	0.190454	-1.92614
H	-4.0382	-1.17367	-1.17304
H	-3.68067	-0.750281	0.547584
H	-2.93626	-2.22484	-0.199042
N	-1.06726	-0.285912	0.00309837
C	0.125419	0.465871	-0.295501
C	1.24348	-0.067453	0.578989
O	0.998429	-0.800844	1.53498
H	-1.06183	-0.767781	0.875284
H	0.402707	0.290659	-1.32724
C	-0.0803129	1.97457	-0.0335527
H	-0.365325	2.15064	1.02564
H	0.836071	2.55643	-0.262598
H	-0.902612	2.35282	-0.679228
N	2.50655	0.273637	0.256013
C	3.63602	-0.196413	1.02383
H	2.68477	0.862319	-0.525603
H	4.58825	0.193977	0.601821
H	3.67991	-1.30964	1.01682
H	3.55821	0.139367	2.08326
C	2596.73	-1.02721	-0.0114292
C	2595.28	-1.31173	0.0806832
O	2594.86	-2.46085	0.100505
H	2597.29	-1.98624	-0.0605547
H	2597.06	-0.460148	0.882043
H	2596.94	-0.437012	-0.926601
N	2594.47	-0.251891	0.133905
C	2593.03	-0.367632	0.225626
C	2592.43	0.938503	-0.251843
O	2593.13	1.94165	-0.38741
H	2594.82	0.679284	0.0875979
H	2592.7	-1.1491	-0.445283
C	2592.58	-0.662583	1.67426
H	2592.93	0.140739	2.35994
H	2591.48	-0.752471	1.74845
H	2593.04	-1.62116	2.01262
N	2591.11	0.949712	-0.540083
C	2590.45	2.1445	-1.01246
H	2590.57	0.125792	-0.4307
H	2589.37	1.95208	-1.19157
H	2590.91	2.49437	-1.96661
H	2590.54	2.96545	-0.264819
