44
  This energy is 1.03719e-319 and Call times are: 109605
C	1.08988	0.917581	3.17747
C	0.013835	0.671304	2.19123
O	-1.16396	0.694926	2.52097
H	0.637635	1.10125	4.17628
H	1.68288	1.80862	2.88217
H	1.75889	0.0337901	3.24289
N	0.403176	0.419563	0.939265
C	-0.526267	0.160921	-0.131281
C	0.219238	-0.574236	-1.2281
O	1.44772	-0.625877	-1.2275
H	1.36671	0.374303	0.689279
H	-1.3076	-0.494643	0.231798
C	-1.12665	1.47277	-0.684181
H	-0.32229	2.14321	-1.05518
H	-1.84287	1.27727	-1.50855
H	-1.66902	2.00238	0.129144
N	-0.51276	-1.18182	-2.18257
C	0.109745	-1.91536	-3.25987
H	-1.50602	-1.13456	-2.1616
H	-0.659173	-2.33962	-3.94253
H	0.724664	-2.75405	-2.86022
H	0.777488	-1.25022	-3.85392
C	5193.5	2.62523	1.63241
C	5193.29	1.181	1.38588
O	5194.02	0.33977	1.8883
H	5194.38	2.75933	2.29725
H	5192.61	3.0637	2.12591
H	5193.69	3.15353	0.674256
N	5192.27	0.858708	0.58807
C	5191.94	-0.503552	0.254932
C	5191.12	-0.484822	-1.02039
O	5190.64	0.564627	-1.44237
H	5191.7	1.5546	0.161472
H	5192.85	-1.04829	0.0509264
C	5191.14	-1.18168	1.3903
H	5190.2	-0.619884	1.59743
H	5190.88	-2.2308	1.13714
H	5191.75	-1.18799	2.31914
N	5190.96	-1.65002	-1.67842
C	5190.21	-1.72677	-2.90748
H	5191.36	-2.48718	-1.32457
H	5190.19	-2.7697	-3.2938
H	5190.66	-1.07164	-3.68736
H	5189.15	-1.39555	-2.74455
