44
  This energy is 1.06792e-319 and Call times are: 103137
C	-0.780097	1.7464	-2.90992
C	-1.1155	0.77221	-1.84707
O	-2.23475	0.28524	-1.76565
H	-1.67672	1.92231	-3.54315
H	0.0380554	1.35035	-3.54757
H	-0.463462	2.71063	-2.45944
N	-0.136728	0.467201	-0.991883
C	-0.309819	-0.463891	0.0943656
C	0.765729	-0.182108	1.1254
O	1.72957	0.529862	0.849828
H	0.762361	0.892712	-1.05118
H	-1.26934	-0.284079	0.562406
C	-0.206135	-1.92548	-0.395669
H	0.779173	-2.10627	-0.875876
H	-0.339097	-2.64505	0.438184
H	-0.998503	-2.11883	-1.15126
N	0.612834	-0.720387	2.35132
C	1.57991	-0.497018	3.40063
H	-0.177694	-1.28788	2.55688
H	1.27797	-1.02415	4.33241
H	1.67037	0.590176	3.62662
H	2.5841	-0.871009	3.09581
C	4884.75	1.48235	3.14083
C	4884.75	0.292915	2.25969
O	4884.74	-0.838618	2.72437
H	4884.73	1.15286	4.2025
H	4883.84	2.09804	2.94488
H	4885.66	2.09448	2.9653
N	4884.78	0.528374	0.945887
C	4884.79	-0.525476	-0.0370294
C	4885.34	0.0478981	-1.32917
O	4885.45	1.26324	-1.4824
H	4884.82	1.45446	0.58033
H	4885.47	-1.30513	0.290053
C	4883.38	-1.09338	-0.267631
H	4882.68	-0.290742	-0.602445
H	4883.38	-1.90515	-1.02379
H	4882.98	-1.50922	0.686477
N	4885.73	-0.820766	-2.28544
C	4886.27	-0.367216	-3.54378
H	4885.64	-1.80074	-2.13961
H	4886.52	-1.23124	-4.197
H	4887.2	0.230045	-3.37844
H	4885.54	0.27565	-4.08125
