44
  This energy is 1.24495e-319 and Call times are: 78315
C	1.3144	-3.05006	1.04672
C	1.36826	-1.57392	0.950239
O	2.21656	-0.931142	1.55333
H	2.1239	-3.4038	1.72158
H	1.45833	-3.50449	0.0439297
H	0.335393	-3.37121	1.46068
N	0.443397	-0.99584	0.180292
C	0.367153	0.430261	-0.0127171
C	-1.03777	0.763276	-0.475902
O	-1.79789	-0.121668	-0.864388
H	-0.260305	-1.52822	-0.282648
H	0.525463	0.922986	0.938195
C	1.39903	0.912567	-1.05661
H	1.23414	0.404592	-2.03072
H	1.34315	2.01023	-1.20756
H	2.42391	0.661676	-0.706157
N	-1.42365	2.0534	-0.42426
C	-2.74678	2.46332	-0.833503
H	-0.796335	2.75385	-0.100086
H	-2.8709	3.56273	-0.718887
H	-3.52357	1.95667	-0.216127
H	-2.92757	2.19933	-1.90065
C	3710.01	-1.8957	-0.45543
C	3711.46	-1.64683	-0.676774
O	3712.16	-2.47532	-1.23429
H	3709.75	-2.89703	-0.858473
H	3709.41	-1.12559	-0.977812
H	3709.78	-1.87264	0.63057
N	3711.93	-0.481748	-0.231305
C	3713.31	-0.0960786	-0.3732
C	3713.61	0.977005	0.657461
O	3712.69	1.54527	1.2502
H	3711.35	0.172439	0.247255
H	3713.94	-0.948483	-0.147853
C	3713.61	0.437726	-1.79339
H	3712.96	1.31172	-2.02151
H	3714.67	0.735458	-1.90616
H	3713.39	-0.357255	-2.53911
N	3714.9	1.26456	0.911283
C	3715.27	2.26338	1.88505
H	3715.62	0.78863	0.426307
H	3716.38	2.35544	1.94819
H	3714.89	1.99306	2.89407
H	3714.85	3.25795	1.60926
