44
  This energy is 5.74203e-320 and Call times are: 3009
C	3.40629	-0.45484	-0.562529
C	1.99913	-0.459746	-1.02197
O	1.71934	-0.625625	-2.20124
H	4.0779	-0.611123	-1.43452
H	3.57239	-1.27249	0.17006
H	3.65143	0.519707	-0.090185
N	1.06843	-0.268679	-0.0840664
C	-0.342652	-0.247592	-0.375999
C	-1.04098	0.485966	0.752482
O	-0.455953	0.716943	1.809
H	1.31045	-0.10563	0.868706
H	-0.505407	0.316673	-1.2855
C	-0.910494	-1.6781	-0.511363
H	-0.741218	-2.25436	0.423188
H	-1.99678	-1.66554	-0.736301
H	-0.389977	-2.20522	-1.34043
N	-2.30957	0.890268	0.54457
C	-3.05012	1.60599	1.55724
H	-2.76324	0.700047	-0.319856
H	-4.07419	1.84903	1.19745
H	-2.53582	2.5586	1.82043
H	-3.13998	0.994615	2.48425
C	151.694	-3.31224	0.954536
C	152.204	-1.99839	0.501486
O	153.404	-1.77088	0.44515
H	152.552	-3.97062	1.21081
H	151.102	-3.79194	0.147123
H	151.057	-3.18588	1.85492
N	151.285	-1.08861	0.168867
C	151.625	0.234301	-0.290298
C	150.419	1.12742	-0.0735862
O	149.317	0.644704	0.177051
H	150.309	-1.27633	0.246826
H	152.434	0.620387	0.317265
C	152.02	0.227114	-1.78418
H	151.188	-0.170165	-2.40448
H	152.282	1.24415	-2.14097
H	152.903	-0.431535	-1.92983
N	150.607	2.45994	-0.14424
C	149.52	3.38849	0.0600075
H	151.509	2.83127	-0.34109
H	149.875	4.43786	-0.0405221
H	149.082	3.26264	1.07647
H	148.712	3.21833	-0.687957
