44
  This energy is 1.56797e-319 and Call times are: 118005
C	1.94075	-2.48716	-1.47434
C	1.77815	-1.33135	-0.563916
O	2.68314	-0.980375	0.180599
H	2.95524	-2.92123	-1.33925
H	1.82675	-2.16179	-2.52978
H	1.18316	-3.26556	-1.24394
N	0.597751	-0.708735	-0.600992
C	0.289071	0.431254	0.224823
C	-1.22018	0.544351	0.317607
O	-1.94616	-0.089589	-0.445874
H	-0.141664	-1.0222	-1.19086
H	0.66775	0.255048	1.22364
C	0.883951	1.72993	-0.363962
H	0.493868	1.90727	-1.3889
H	0.648279	2.60967	0.269517
H	1.98977	1.63389	-0.427832
N	-1.72942	1.34316	1.27604
C	-3.15456	1.5036	1.44754
H	-1.12547	1.84227	1.8887
H	-3.3737	2.20145	2.28553
H	-3.63598	0.524264	1.672
H	-3.6185	1.91197	0.520621
C	5587.22	2.50675	1.04533
C	5587.63	1.45627	0.0871856
O	5586.91	1.12681	-0.840831
H	5586.21	2.88241	0.76729
H	5587.94	3.35268	1.01785
H	5587.18	2.09128	2.07419
N	5588.83	0.894833	0.29923
C	5589.36	-0.14017	-0.546893
C	5590.42	-0.883568	0.242931
O	5590.87	-0.419537	1.29173
H	5589.39	1.15145	1.07574
H	5588.58	-0.844346	-0.785397
C	5589.98	0.449877	-1.83584
H	5590.78	1.17234	-1.58746
H	5590.39	-0.34436	-2.48972
H	5589.19	0.992813	-2.40475
N	5590.84	-2.07278	-0.234955
C	5591.84	-2.85745	0.455505
H	5590.46	-2.43463	-1.08164
H	5592.05	-3.80064	-0.0957481
H	5591.49	-3.12046	1.48071
H	5592.79	-2.28768	0.549763
