44
  This energy is 4.38533e-320 and Call times are: 20649
C	-3.00964	0.327596	1.72072
C	-1.55291	0.556326	1.591
O	-0.951748	1.26994	2.3821
H	-3.39362	0.893317	2.59729
H	-3.21523	-0.752948	1.8723
H	-3.53516	0.679045	0.80789
N	-0.946054	-0.0508036	0.56851
C	0.466335	0.0751971	0.311392
C	0.708367	-0.277582	-1.14333
O	-0.162139	-0.83662	-1.8078
H	-1.45198	-0.606165	-0.0861263
H	0.758905	1.10794	0.452488
C	1.29027	-0.856359	1.22815
H	0.987087	-1.91496	1.08131
H	2.37825	-0.761754	1.03292
H	1.1033	-0.588498	2.2909
N	1.89676	0.062963	-1.67975
C	2.21211	-0.22184	-3.0602
H	2.58547	0.521248	-1.1276
H	3.23586	0.133452	-3.31108
H	1.48913	0.283604	-3.7407
H	2.16312	-1.31737	-3.25663
C	985.732	-1.2845	2.66844
C	984.582	-0.528422	2.12322
O	983.677	-0.142234	2.85009
H	985.599	-1.41462	3.76451
H	986.676	-0.730407	2.48387
H	985.792	-2.28582	2.19233
N	984.591	-0.302775	0.8074
C	983.542	0.418462	0.130943
C	983.592	0.0444566	-1.33769
O	984.567	-0.541399	-1.80438
H	985.319	-0.647779	0.22154
H	982.585	0.0954518	0.520314
C	983.713	1.94513	0.296462
H	984.696	2.27297	-0.103407
H	982.907	2.50353	-0.223062
H	983.676	2.20599	1.37661
N	982.525	0.357444	-2.09902
C	982.478	0.0301577	-3.50503
H	981.743	0.8252	-1.7012
H	981.52	0.370969	-3.95623
H	982.564	-1.0704	-3.65532
H	983.317	0.519899	-4.05092
