44
  This energy is 1.06002e-319 and Call times are: 122205
C	0.648448	3.23415	-1.11621
C	0.983213	2.04907	-0.29479
O	2.03813	1.98391	0.321168
H	1.48206	3.96748	-1.05983
H	-0.278192	3.71357	-0.736317
H	0.502578	2.9366	-2.17599
N	0.0782968	1.06774	-0.273156
C	0.260781	-0.1473	0.479983
C	-0.649449	-1.20469	-0.113852
O	-1.54617	-0.894929	-0.896007
H	-0.764309	1.12024	-0.802489
H	1.28175	-0.486413	0.35879
C	-0.0719057	0.0617716	1.97421
H	-1.11981	0.410285	2.09483
H	0.0676877	-0.871799	2.55708
H	0.600827	0.839408	2.39713
N	-0.424053	-2.4881	0.229772
C	-1.23221	-3.56399	-0.295131
H	0.311074	-2.71917	0.8586
H	-0.89182	-4.54369	0.106816
H	-1.16574	-3.59903	-1.4067
H	-2.30197	-3.42358	-0.017487
C	5790.36	-1.34298	-0.574354
C	5789.12	-1.23974	0.218167
O	5788.89	-1.99969	1.15094
H	5790.98	-2.1786	-0.179842
H	5790.94	-0.399682	-0.498744
H	5790.12	-1.54489	-1.63964
N	5788.26	-0.283703	-0.146785
C	5787	-0.0592971	0.52738
C	5786.09	0.695105	-0.421619
O	5786.54	1.22334	-1.43707
H	5788.44	0.310219	-0.926765
H	5786.54	-1.0153	0.73712
C	5787.2	0.749279	1.82896
H	5787.68	1.72913	1.61019
H	5786.24	0.92374	2.35067
H	5787.87	0.186557	2.51509
N	5784.78	0.744034	-0.121536
C	5783.84	1.42948	-0.97248
H	5784.44	0.304199	0.701091
H	5782.81	1.35887	-0.555044
H	5783.83	0.983445	-1.9934
H	5784.1	2.50698	-1.0677
