44
  This energy is 9.01867e-320 and Call times are: 89613
C	-0.496805	0.859005	-3.33788
C	-0.989028	0.351766	-2.03725
O	-2.17925	0.139658	-1.8505
H	-1.35737	0.995812	-4.02821
H	0.212894	0.133223	-3.78775
H	0.0121487	1.83618	-3.19991
N	-0.0675629	0.148908	-1.09273
C	-0.391671	-0.342095	0.222827
C	0.743059	0.0372528	1.15434
O	1.81986	0.427383	0.706983
H	0.895358	0.35313	-1.24769
H	-1.28618	0.156511	0.573986
C	-0.58609	-1.87484	0.219049
H	0.333222	-2.38313	-0.142362
H	-0.835916	-2.25623	1.23044
H	-1.41919	-2.13981	-0.467881
N	0.518529	-0.0485422	2.48032
C	1.53598	0.303083	3.4433
H	-0.361949	-0.35965	2.82267
H	1.16025	0.163854	4.48094
H	1.84155	1.36748	3.32107
H	2.44055	-0.333341	3.30951
C	4244.81	2.11816	2.73369
C	4244.79	1.86404	1.27553
O	4244.88	2.782	0.472171
H	4244.91	3.21053	2.91482
H	4245.67	1.59695	3.20119
H	4243.86	1.7609	3.19744
N	4244.66	0.590162	0.897294
C	4244.62	0.18505	-0.485267
C	4243.97	-1.17897	-0.554479
O	4243.8	-1.84939	0.462838
H	4244.56	-0.145662	1.56124
H	4244	0.878273	-1.03939
C	4246.05	0.120101	-1.08869
H	4246.68	-0.591463	-0.517409
H	4246.02	-0.191376	-2.15321
H	4246.52	1.12504	-1.03092
N	4243.55	-1.61329	-1.76155
C	4242.9	-2.89398	-1.92272
H	4243.69	-1.05297	-2.57186
H	4242.64	-3.07061	-2.98918
H	4241.97	-2.93947	-1.31965
H	4243.57	-3.71832	-1.58484
