44
  This energy is 7.14913e-321 and Call times are: 99357
C	1.35409	3.20682	0.0940856
C	0.198806	2.28275	0.0430564
O	-0.947569	2.69696	0.146726
H	0.987002	4.24609	0.239135
H	1.92602	3.15711	-0.856305
H	2.0209	2.93972	0.940824
N	0.481891	0.987631	-0.114756
C	-0.534336	-0.0318927	-0.18318
C	0.113601	-1.3593	0.159463
O	1.3376	-1.47354	0.184099
H	1.42119	0.659412	-0.168775
H	-1.28693	0.170477	0.568296
C	-1.17044	-0.0985517	-1.58961
H	-0.395466	-0.305636	-2.35814
H	-1.95347	-0.88245	-1.64576
H	-1.64059	0.880087	-1.82913
N	-0.698368	-2.39348	0.454744
C	-0.171387	-3.69202	0.804385
H	-1.6862	-2.27909	0.436261
H	-0.996597	-4.40876	1.0107
H	0.469393	-3.62425	1.71326
H	0.448991	-4.10097	-0.0257185
C	4702.27	0.922547	1.95728
C	4703.69	0.528274	1.80494
O	4704.46	0.554456	2.75565
H	4702.08	1.22178	3.01151
H	4701.61	0.0694726	1.70287
H	4702.04	1.78175	1.29329
N	4704.07	0.153647	0.582207
C	4705.42	-0.25757	0.277087
C	4705.63	-0.103139	-1.21706
O	4704.67	0.0661338	-1.97017
H	4703.44	0.164433	-0.190434
H	4706.11	0.408442	0.775774
C	4705.67	-1.7225	0.699524
H	4704.96	-2.40293	0.186583
H	4706.71	-2.04235	0.466159
H	4705.51	-1.82263	1.79577
N	4706.89	-0.136466	-1.67946
C	4707.19	0.01392	-3.08536
H	4707.65	-0.267257	-1.05317
H	4708.28	-0.0436587	-3.26557
H	4706.82	0.997165	-3.46053
H	4706.69	-0.788089	-3.67894
