44
  This energy is 1.53506e-319 and Call times are: 48327
C	-2.66543	1.48047	1.6822
C	-1.21714	1.23677	1.49709
O	-0.384027	1.84915	2.15085
H	-2.8099	2.26369	2.4578
H	-3.17082	0.549036	2.01361
H	-3.11976	1.82873	0.730755
N	-0.881507	0.32493	0.581523
C	0.486245	-0.0217232	0.288411
C	0.522112	-0.650972	-1.09072
O	-0.514288	-1.01721	-1.6417
H	-1.5686	-0.146179	0.0348157
H	1.07873	0.883672	0.252379
C	1.05417	-1.00515	1.336
H	0.443581	-1.93256	1.3708
H	2.10722	-1.27406	1.11341
H	1.02128	-0.532851	2.34199
N	1.72217	-0.771333	-1.69187
C	1.85263	-1.34725	-3.01
H	2.5485	-0.462452	-1.23253
H	2.91789	-1.36009	-3.32986
H	1.26999	-0.758768	-3.75529
H	1.47041	-2.39366	-3.02134
C	2297.36	-0.0316493	-1.6668
C	2295.88	-0.129726	-1.65473
O	2295.24	-0.187395	-2.69651
H	2297.72	-0.016416	-2.719
H	2297.8	-0.906247	-1.14794
H	2297.68	0.902436	-1.16255
N	2295.3	-0.145017	-0.454035
C	2293.87	-0.23703	-0.279868
C	2293.53	0.28589	1.10339
O	2294.42	0.4536	1.94295
H	2295.83	-0.0680889	0.386735
H	2293.38	0.407869	-1.00175
C	2293.38	-1.6937	-0.430911
H	2293.88	-2.35264	0.31072
H	2292.28	-1.76813	-0.297543
H	2293.63	-2.06544	-1.44783
N	2292.24	0.577626	1.36586
C	2291.83	1.09182	2.65124
H	2291.55	0.441775	0.67088
H	2290.73	1.26701	2.67119
H	2292.35	2.05613	2.87123
H	2292.09	0.372181	3.46254
