44
  This energy is 1.50364e-319 and Call times are: 79323
C	2.1257	2.75817	-0.00436415
C	0.778717	2.15314	0.0994622
O	-0.19519	2.82654	0.40693
H	2.06187	3.8408	0.239993
H	2.51716	2.6454	-1.03725
H	2.82123	2.26896	0.709677
N	0.695123	0.844977	-0.15369
C	-0.545976	0.114977	-0.0936881
C	-0.2144	-1.35383	0.0849495
O	0.929386	-1.76669	-0.0970656
H	1.50059	0.30155	-0.374703
H	-1.10084	0.43543	0.778956
C	-1.38107	0.318776	-1.37751
H	-0.808578	-0.0103693	-2.27084
H	-2.33745	-0.241822	-1.3346
H	-1.61636	1.39876	-1.49756
N	-1.2097	-2.1771	0.469141
C	-0.985257	-3.58888	0.675754
H	-2.12692	-1.82257	0.618289
H	-1.92553	-4.09514	0.98694
H	-0.219865	-3.75313	1.4685
H	-0.621164	-4.07019	-0.260708
C	3760.97	-2.965	1.8248
C	3761.64	-1.7989	1.20954
O	3762.83	-1.57813	1.40476
H	3761.7	-3.52869	2.44188
H	3760.57	-3.63735	1.03581
H	3760.14	-2.62652	2.47618
N	3760.88	-1.01141	0.444531
C	3761.4	0.159906	-0.221408
C	3760.22	1.06432	-0.54055
O	3759.07	0.645822	-0.466964
H	3759.91	-1.18556	0.316756
H	3762.05	0.69453	0.45788
C	3762.15	-0.21353	-1.51901
H	3761.48	-0.762436	-2.2133
H	3762.54	0.686034	-2.03423
H	3763	-0.877056	-1.27181
N	3760.49	2.33965	-0.883477
C	3759.43	3.2767	-1.19291
H	3761.43	2.66121	-0.93044
H	3759.86	4.27237	-1.45278
H	3758.75	3.40213	-0.321185
H	3758.83	2.91634	-2.05606
