44
  This energy is 8.64071e-320 and Call times are: 108849
C	0.886129	0.237649	-3.35923
C	0.811411	-0.507529	-2.08239
O	1.11869	-1.69004	-2.02121
H	1.23824	-0.445047	-4.16285
H	1.60002	1.08309	-3.26756
H	-0.11625	0.628747	-3.6335
N	0.388311	0.179478	-1.01873
C	0.262991	-0.407356	0.29152
C	-0.697431	0.447709	1.09507
O	-1.01879	1.56845	0.704559
H	0.113163	1.13473	-1.08752
H	-0.17532	-1.3926	0.195331
C	1.63058	-0.485024	1.00622
H	2.07769	0.527358	1.10261
H	1.53774	-0.936531	2.01533
H	2.32535	-1.11306	0.407045
N	-1.19714	-0.074083	2.23262
C	-2.1274	0.661898	3.05671
H	-0.930373	-0.98557	2.52802
H	-2.42061	0.0648048	3.94821
H	-3.04932	0.910412	2.48266
H	-1.67173	1.61592	3.40798
C	5153.78	-1.47171	2.33572
C	5154.29	-1.32298	0.955245
O	5153.94	-2.08203	0.0635972
H	5153.08	-2.33701	2.37732
H	5153.23	-0.555032	2.64139
H	5154.62	-1.65247	3.03906
N	5155.16	-0.327391	0.748233
C	5155.74	-0.0560979	-0.540228
C	5157.01	0.746194	-0.316391
O	5157.24	1.26479	0.774218
H	5155.46	0.266099	1.48915
H	5156.02	-0.993389	-1.00311
C	5154.77	0.730152	-1.4464
H	5154.48	1.69081	-0.96819
H	5155.22	0.940603	-2.43936
H	5153.84	0.132334	-1.6017
N	5157.87	0.848465	-1.34468
C	5159.11	1.58234	-1.22073
H	5157.67	0.415643	-2.21714
H	5159.68	1.55181	-2.17397
H	5159.75	1.14716	-0.416019
H	5158.91	2.64829	-0.965094
