44
  This energy is 7.21583e-320 and Call times are: 63531
C	-1.73332	0.459116	-2.98512
C	-0.798023	-0.30246	-2.12697
O	-0.373884	-1.39745	-2.46989
H	-1.94605	-0.126036	-3.9061
H	-1.28214	1.43177	-3.27357
H	-2.68697	0.639805	-2.44582
N	-0.455958	0.268885	-0.969848
C	0.444668	-0.34856	-0.0293897
C	0.202962	0.280446	1.32898
O	-0.450721	1.31648	1.43461
H	-0.831052	1.14817	-0.688596
H	0.204785	-1.40141	0.0482721
C	1.91832	-0.153433	-0.450572
H	2.16079	0.927781	-0.529926
H	2.61449	-0.627769	0.271315
H	2.0821	-0.617501	-1.44755
N	0.70999	-0.347877	2.40793
C	0.520404	0.170506	3.74267
H	1.23007	-1.18907	2.30237
H	1.01354	-0.485859	4.49317
H	-0.564198	0.232158	3.98981
H	0.953625	1.19297	3.83245
C	3010.7	0.375093	2.74908
C	3011.2	0.809941	1.42705
O	3010.66	1.71851	0.81148
H	3009.81	0.987016	3.02334
H	3011.48	0.513035	3.52223
H	3010.4	-0.693801	2.71234
N	3012.26	0.154544	0.952614
C	3012.87	0.462735	-0.318563
C	3013.66	-0.750692	-0.763583
O	3013.91	-1.66	0.0244958
H	3012.68	-0.603196	1.45043
H	3012.09	0.630806	-1.04864
C	3013.79	1.69479	-0.216548
H	3014.59	1.51919	0.533771
H	3014.26	1.93497	-1.19363
H	3013.2	2.57654	0.111389
N	3014.05	-0.802187	-2.05131
C	3014.8	-1.92377	-2.56812
H	3013.83	-0.0596923	-2.67523
H	3015.03	-1.77897	-3.64649
H	3014.22	-2.86826	-2.45784
H	3015.76	-2.04256	-2.01649
