44
  This energy is 7.57798e-320 and Call times are: 95577
C	-2.11999	-1.66706	-2.20288
C	-0.891659	-0.893596	-1.91278
O	-0.0372585	-0.718186	-2.77053
H	-2.09148	-2.02002	-3.25667
H	-3.01682	-1.02774	-2.0622
H	-2.18538	-2.54819	-1.53036
N	-0.773233	-0.411617	-0.673414
C	0.364033	0.360309	-0.240302
C	0.426684	0.288712	1.27303
O	-0.530003	-0.129021	1.92271
H	-1.46254	-0.586055	0.0246977
H	1.26648	-0.0944032	-0.628761
C	0.252594	1.83165	-0.698396
H	-0.674648	2.29484	-0.298653
H	1.12674	2.42884	-0.366711
H	0.206309	1.87038	-1.80858
N	1.57056	0.676967	1.87038
C	1.72639	0.632409	3.30561
H	2.33603	1.00525	1.32676
H	2.73557	0.993454	3.60299
H	1.60158	-0.408665	3.68222
H	0.963629	1.27357	3.8039
C	4526.27	3.18813	-1.25171
C	4527.18	2.05568	-0.972839
O	4528.33	2.04915	-1.39496
H	4526.8	3.94442	-1.8689
H	4525.95	3.66259	-0.301111
H	4525.38	2.83298	-1.80873
N	4526.68	1.05397	-0.247821
C	4527.44	-0.115778	0.105603
C	4526.47	-1.22513	0.444581
O	4525.28	-0.978893	0.635801
H	4525.73	1.05772	0.0656095
H	4528.02	-0.434488	-0.755229
C	4528.37	0.161109	1.3093
H	4527.78	0.488487	2.19044
H	4528.96	-0.737464	1.584
H	4529.08	0.976336	1.04867
N	4526.95	-2.48305	0.505517
C	4526.09	-3.60473	0.809739
H	4527.91	-2.66272	0.340595
H	4526.67	-4.55351	0.815042
H	4525.28	-3.69504	0.0524858
H	4525.62	-3.47761	1.81022
