44
  This energy is 6.63283e-320 and Call times are: 69957
C	-3.16617	-1.04114	1.00873
C	-1.71707	-1.27725	0.820133
O	-1.18	-2.28926	1.24894
H	-3.60677	-1.89244	1.57178
H	-3.6722	-0.961518	0.023637
H	-3.32995	-0.106072	1.58473
N	-1.04158	-0.328231	0.167873
C	0.373024	-0.415019	-0.0932707
C	0.885297	0.987826	-0.35564
O	0.103872	1.91212	-0.572158
H	-1.48493	0.505235	-0.151044
H	0.872149	-0.787182	0.792417
C	0.666054	-1.32348	-1.30815
H	0.151944	-0.939147	-2.21485
H	1.75439	-1.39265	-1.51193
H	0.284932	-2.34778	-1.1039
N	2.21816	1.18335	-0.320415
C	2.79683	2.48728	-0.546451
H	2.83363	0.424007	-0.136486
H	3.90613	2.44246	-0.47793
H	2.42816	3.21724	0.210176
H	2.52299	2.8691	-1.55661
C	3316.08	2.58349	-0.230967
C	3317.04	1.76864	0.536766
O	3317.36	2.06713	1.6818
H	3315.74	3.43748	0.394866
H	3315.19	1.96884	-0.508329
H	3316.55	2.97994	-1.15142
N	3317.56	0.706838	-0.0910341
C	3318.51	-0.181548	0.524677
C	3319.24	-0.916161	-0.580477
O	3318.82	-0.89879	-1.73501
H	3317.32	0.490817	-1.03406
H	3319.24	0.406245	1.06879
C	3317.81	-1.19218	1.4625
H	3317.06	-1.79303	0.901188
H	3318.54	-1.87767	1.93838
H	3317.28	-0.641531	2.26688
N	3320.38	-1.56446	-0.253574
C	3321.15	-2.28137	-1.24158
H	3320.71	-1.56079	0.6849
H	3322.05	-2.7484	-0.777153
H	3321.49	-1.59313	-2.04832
H	3320.54	-3.086	-1.71028
