44
  This energy is 8.83538e-320 and Call times are: 102381
C	1.23672	2.57431	-1.99238
C	1.24479	1.16851	-1.52885
O	1.94627	0.327007	-2.07318
H	1.9292	2.68041	-2.85556
H	1.57349	3.24805	-1.17661
H	0.214556	2.86564	-2.31371
N	0.446165	0.879115	-0.498896
C	0.345321	-0.443493	0.0644579
C	-0.969089	-0.531076	0.815388
O	-1.61139	0.483767	1.07878
H	-0.142336	1.56716	-0.0827302
H	0.313339	-1.16715	-0.740135
C	1.5234	-0.739535	1.01924
H	1.55362	0.00512641	1.84306
H	1.44896	-1.75719	1.45468
H	2.48038	-0.671059	0.457414
N	-1.41176	-1.75638	1.15987
C	-2.65842	-1.93847	1.86616
H	-0.881056	-2.56595	0.931399
H	-2.8467	-3.0175	2.05983
H	-3.50966	-1.53547	1.27099
H	-2.63772	-1.40505	2.84403
C	4847.94	2.01436	-2.63576
C	4848.77	1.77589	-1.42949
O	4849.62	2.57817	-1.07818
H	4848.24	2.97638	-3.10328
H	4846.87	2.07133	-2.36013
H	4848.09	1.19499	-3.37
N	4848.53	0.644603	-0.762097
C	4849.25	0.273384	0.430023
C	4849.11	-1.22611	0.608951
O	4848.28	-1.86224	-0.0329663
H	4847.85	-0.0148631	-1.07484
H	4850.3	0.493331	0.289601
C	4848.69	1.00911	1.67182
H	4847.62	0.781764	1.8125
H	4849.25	0.725703	2.59149
H	4848.8	2.10656	1.52778
N	4849.94	-1.83115	1.47551
C	4849.9	-3.25676	1.70227
H	4850.62	-1.30001	1.98018
H	4850.66	-3.56237	2.45017
H	4850.09	-3.81195	0.755997
H	4848.89	-3.56038	2.08149
