44
  This energy is 1.54287e-319 and Call times are: 105111
C	-0.229026	3.34923	-0.92538
C	0.449367	2.03391	-0.955809
O	1.4033	1.83113	-1.69431
H	0.263895	4.03356	-1.64966
H	-0.160549	3.79159	0.0907174
H	-1.29693	3.23585	-1.20764
N	-0.041167	1.09476	-0.143574
C	0.511745	-0.233492	-0.0607051
C	-0.552449	-1.14592	0.517406
O	-1.55605	-0.68017	1.05378
H	-0.836955	1.26334	0.43196
H	0.737721	-0.583526	-1.05995
C	1.77576	-0.262213	0.827309
H	1.54047	0.0981239	1.85147
H	2.20416	-1.28344	0.893164
H	2.54713	0.410969	0.393775
N	-0.366331	-2.47551	0.401082
C	-1.33177	-3.42111	0.91094
H	0.448959	-2.83275	-0.0426716
H	-0.998195	-4.46501	0.720526
H	-2.32166	-3.27465	0.421147
H	-1.46729	-3.29103	2.00907
C	4975.88	-0.660193	-1.38889
C	4976.74	-0.00361952	-0.382695
O	4976.29	0.819063	0.400851
H	4974.84	-0.274954	-1.28859
H	4975.87	-1.75884	-1.22845
H	4976.24	-0.438945	-2.41285
N	4978.03	-0.355475	-0.387438
C	4978.99	0.195817	0.530742
C	4980.37	-0.00183119	-0.0677185
O	4980.54	-0.762862	-1.01847
H	4978.39	-1.00523	-1.04989
H	4978.82	1.26122	0.621442
C	4978.91	-0.490341	1.91257
H	4979.08	-1.58328	1.81573
H	4979.65	-0.0681434	2.62206
H	4977.89	-0.339293	2.33972
N	4981.39	0.700465	0.465232
C	4982.74	0.585996	-0.0467629
H	4981.23	1.3166	1.2297
H	4983.43	1.24033	0.524273
H	4982.78	0.884814	-1.11934
H	4983.1	-0.464433	0.0324003
