44
  This energy is 1.44233e-319 and Call times are: 104691
C	3.06377	-1.42064	-0.849259
C	1.71579	-0.923873	-1.20616
O	1.36252	-0.836741	-2.37411
H	3.6238	-1.66303	-1.77849
H	2.98163	-2.33824	-0.229509
H	3.62157	-0.643176	-0.285914
N	0.923478	-0.576295	-0.189406
C	-0.4149	-0.0759389	-0.377066
C	-0.808035	0.683916	0.874853
O	-0.148552	0.578576	1.90724
H	1.2333	-0.624391	0.756444
H	-0.415871	0.625638	-1.2016
C	-1.41399	-1.22556	-0.636514
H	-1.40992	-1.94377	0.211001
H	-2.44548	-0.843799	-0.781603
H	-1.11431	-1.77505	-1.55543
N	-1.88645	1.48896	0.804692
C	-2.32875	2.26053	1.94278
H	-2.40276	1.56615	-0.0418894
H	-3.23168	2.85735	1.68632
H	-1.5293	2.96063	2.27743
H	-2.58155	1.59148	2.79696
C	4958.45	-2.57185	2.28197
C	4958.04	-1.31332	1.61621
O	4956.94	-0.825689	1.80451
H	4957.61	-2.93788	2.91575
H	4959.34	-2.3958	2.92531
H	4958.69	-3.34582	1.52327
N	4958.94	-0.755007	0.80479
C	4958.7	0.469985	0.0870708
C	4959.66	0.526402	-1.08352
O	4960.62	-0.235845	-1.143
H	4959.83	-1.17739	0.637035
H	4957.69	0.445961	-0.314237
C	4958.89	1.70386	0.996005
H	4959.93	1.725	1.40651
H	4958.7	2.6488	0.446569
H	4958.18	1.65003	1.85018
N	4959.41	1.42229	-2.05791
C	4960.26	1.53988	-3.21655
H	4958.62	2.02543	-1.99493
H	4959.89	2.33281	-3.90153
H	4960.3	0.578622	-3.77874
H	4961.3	1.79952	-2.91327
