44
  This energy is 1.54524e-319 and Call times are: 6705
C	-1.15378	-2.67333	-1.91004
C	-1.12306	-1.88687	-0.656347
O	-1.89268	-2.13115	0.262622
H	-1.95022	-3.44572	-1.83964
H	-0.177415	-3.17743	-2.06944
H	-1.37203	-2.00965	-2.77308
N	-0.220584	-0.905004	-0.594233
C	-0.0696505	-0.0538833	0.558867
C	0.627028	1.21667	0.11214
O	1.17872	1.27861	-0.984961
H	0.38111	-0.697119	-1.36084
H	-1.05101	0.220285	0.9247
C	0.752264	-0.748881	1.66727
H	1.75818	-1.02937	1.28835
H	0.870274	-0.096355	2.55668
H	0.231984	-1.67868	1.98495
N	0.598424	2.27258	0.948942
C	1.22448	3.52757	0.603618
H	0.140721	2.20487	1.82937
H	1.09374	4.27034	1.4212
H	0.776616	3.94731	-0.32615
H	2.31572	3.38735	0.428372
C	330.453	0.389947	-1.17942
C	329.423	0.543575	-0.127852
O	329.717	0.933185	0.993842
H	331.446	0.670122	-0.764672
H	330.223	1.05272	-2.04006
H	330.493	-0.664389	-1.52547
N	328.172	0.229367	-0.472894
C	327.061	0.327302	0.440101
C	325.951	-0.565177	-0.079486
O	325.987	-1.01072	-1.22493
H	327.95	-0.114672	-1.38129
H	327.365	-0.0546705	1.40639
C	326.559	1.78355	0.561352
H	326.249	2.17247	-0.431854
H	325.704	1.86259	1.26371
H	327.382	2.42729	0.941749
N	324.944	-0.865554	0.764123
C	323.849	-1.71756	0.361265
H	324.937	-0.500961	1.68946
H	323.122	-1.84342	1.19343
H	324.223	-2.72501	0.0672796
H	323.312	-1.28071	-0.511271
