44
  This energy is 2.61163e-320 and Call times are: 87009
C	-0.615559	-1.16446	3.22355
C	-0.884771	-0.23827	2.10065
O	-1.82477	0.543751	2.13718
H	-1.37938	-1.01182	4.01674
H	0.390154	-0.966237	3.65025
H	-0.667068	-2.21669	2.87271
N	-0.053778	-0.312593	1.05839
C	-0.186401	0.52311	-0.108157
C	0.542761	-0.154469	-1.25203
O	1.31523	-1.08737	-1.04028
H	0.690873	-0.974042	1.02812
H	-1.23298	0.587745	-0.377545
C	0.402458	1.93015	0.137995
H	1.47605	1.86007	0.414786
H	0.301861	2.5763	-0.758194
H	-0.139352	2.4154	0.9789
N	0.295536	0.28834	-2.50055
C	0.934511	-0.303736	-3.65265
H	-0.33831	1.03972	-2.65186
H	0.603326	0.199268	-4.58783
H	0.682325	-1.38626	-3.72874
H	2.0423	-0.211706	-3.57833
C	4118.43	-2.58935	-1.24088
C	4119.29	-1.39732	-1.4347
O	4119.63	-1.04345	-2.55284
H	4118.2	-3.04478	-2.22977
H	4117.48	-2.29969	-0.753303
H	4118.95	-3.33865	-0.610893
N	4119.65	-0.745611	-0.329239
C	4120.49	0.431386	-0.356005
C	4121.12	0.587471	1.01396
O	4120.7	-0.0544847	1.97555
H	4119.39	-1.06074	0.577902
H	4121.28	0.281713	-1.07101
C	4119.66	1.69168	-0.709605
H	4118.85	1.84184	0.0255387
H	4120.3	2.59978	-0.731235
H	4119.21	1.56431	-1.71473
N	4122.16	1.43373	1.12937
C	4122.83	1.63776	2.39178
H	4122.49	1.93872	0.337936
H	4123.66	2.37116	2.28218
H	4123.26	0.680251	2.76908
H	4122.12	2.02423	3.15731
