44
  This energy is 4.26477e-320 and Call times are: 50175
C	-1.68796	-2.11758	-2.18924
C	-1.67234	-1.12237	-1.09356
O	-2.71017	-0.63588	-0.666076
H	-2.73803	-2.29822	-2.50639
H	-1.24758	-3.07585	-1.84197
H	-1.11002	-1.73907	-3.05853
N	-0.472506	-0.789174	-0.612165
C	-0.29525	0.164343	0.453768
C	1.12949	0.678935	0.386421
O	1.97307	0.10571	-0.30033
H	0.367502	-1.17077	-0.9886
H	-0.956828	1.00502	0.287474
C	-0.56356	-0.477719	1.83322
H	0.116398	-1.3402	2.00023
H	-0.428115	0.253764	2.65624
H	-1.60997	-0.8517	1.86934
N	1.42571	1.79224	1.08557
C	2.75281	2.36216	1.07222
H	0.727403	2.24567	1.62963
H	2.79609	3.2729	1.70936
H	3.04852	2.645	0.0359809
H	3.49907	1.62959	1.45642
C	2378.24	2.66453	1.91562
C	2378.02	1.39772	1.18073
O	2376.95	0.815453	1.22517
H	2377.31	2.93437	2.46252
H	2378.48	3.48108	1.20567
H	2379.06	2.54676	2.64777
N	2379.06	0.933904	0.481632
C	2379	-0.285395	-0.284562
C	2380.42	-0.767606	-0.496528
O	2381.38	-0.0270173	-0.270665
H	2379.94	1.40223	0.476884
H	2378.48	-1.03966	0.291677
C	2378.31	-0.0625934	-1.64682
H	2378.85	0.712259	-2.23507
H	2378.26	-0.99948	-2.2393
H	2377.27	0.291582	-1.47782
N	2380.6	-2.03595	-0.917385
C	2381.92	-2.58604	-1.13517
H	2379.81	-2.62182	-1.08777
H	2381.85	-3.64107	-1.4812
H	2382.51	-2.5628	-0.194117
H	2382.47	-1.99811	-1.90603
