44
  This energy is 8.31018e-320 and Call times are: 63951
C	-0.472588	3.44898	0.085409
C	-0.648516	2.09647	0.660706
O	-1.13402	1.9403	1.77264
H	-0.833997	4.20757	0.813278
H	-1.05766	3.54446	-0.853421
H	0.600706	3.63787	-0.127448
N	-0.24478	1.07318	-0.0957546
C	-0.350895	-0.300599	0.326497
C	0.634169	-1.11592	-0.488451
O	1.15983	-0.643964	-1.49481
H	0.175968	1.21505	-0.98782
H	-0.0571015	-0.372898	1.36598
C	-1.7838	-0.842026	0.124649
H	-2.08221	-0.765731	-0.942708
H	-1.86908	-1.89955	0.44891
H	-2.49589	-0.235675	0.725835
N	0.924391	-2.35913	-0.056941
C	1.85978	-3.20445	-0.761684
H	0.493958	-2.72041	0.763691
H	1.96236	-4.18778	-0.251995
H	2.86505	-2.72622	-0.80623
H	1.51671	-3.38491	-1.80615
C	3031.98	0.0946603	3.38208
C	3032.22	0.760697	2.08319
O	3032	1.95449	1.93268
H	3031.58	0.83907	4.10781
H	3032.92	-0.329323	3.77978
H	3031.23	-0.718183	3.26024
N	3032.69	-0.0123292	1.09905
C	3032.98	0.490754	-0.22032
C	3032.97	-0.684291	-1.17869
O	3033	-1.83915	-0.757461
H	3032.84	-0.989527	1.22584
H	3032.18	1.16459	-0.520711
C	3034.35	1.20409	-0.263627
H	3035.16	0.510127	0.0457539
H	3034.57	1.59283	-1.27806
H	3034.34	2.06204	0.44349
N	3032.91	-0.414766	-2.49778
C	3032.89	-1.46953	-3.48426
H	3032.88	0.526285	-2.81851
H	3032.84	-1.04606	-4.51175
H	3032	-2.12759	-3.33573
H	3033.8	-2.10025	-3.40619
