44
  This energy is 7.59379e-321 and Call times are: 31065
C	2.31962	-1.15996	2.32378
C	1.91518	-0.241961	1.23525
O	2.62404	0.698776	0.905059
H	3.30035	-0.834223	2.73356
H	2.41881	-2.19499	1.9343
H	1.5659	-1.14276	3.13898
N	0.743197	-0.497221	0.649024
C	0.214926	0.305917	-0.424628
C	-1.28292	0.0774936	-0.483877
O	-1.80038	-0.859191	0.121675
H	0.161295	-1.24939	0.946635
H	0.379462	1.35124	-0.195925
C	0.862993	-0.0662318	-1.7769
H	0.692847	-1.13942	-2.00806
H	0.458612	0.550391	-2.60577
H	1.96017	0.104396	-1.72007
N	-2.01996	0.947343	-1.20231
C	-3.45461	0.816469	-1.30631
H	-1.58343	1.70306	-1.67934
H	-3.87833	1.62571	-1.94101
H	-3.92855	0.876016	-0.299793
H	-3.72807	-0.163979	-1.75922
C	1477.24	3.07837	0.541333
C	1476.13	2.25179	0.0141535
O	1475.11	2.76696	-0.43903
H	1476.97	4.15349	0.449846
H	1478.16	2.88839	-0.0383441
H	1477.41	2.84219	1.61155
N	1476.29	0.928572	0.0687768
C	1475.31	-0.00580147	-0.405433
C	1475.57	-1.34167	0.262021
O	1476.63	-1.55307	0.849511
H	1477.11	0.52059	0.466993
H	1474.33	0.3308	-0.0926867
C	1475.37	-0.158326	-1.9417
H	1476.37	-0.503123	-2.25912
H	1474.61	-0.876966	-2.31022
H	1475.17	0.827221	-2.41871
N	1474.59	-2.27149	0.204886
C	1474.75	-3.56811	0.821774
H	1473.74	-2.07874	-0.269123
H	1473.84	-4.19081	0.663604
H	1474.92	-3.46393	1.91838
H	1475.63	-4.10648	0.389149
