44
  This energy is 3.72674e-320 and Call times are: 32115
C	1.0144	1.09519	3.14606
C	0.0491459	0.415068	2.25336
O	-0.915622	-0.185955	2.70556
H	0.704112	0.947283	4.20327
H	1.03684	2.18347	2.92704
H	2.03039	0.669387	3.00676
N	0.296642	0.492154	0.943711
C	-0.551144	-0.117926	-0.0492091
C	0.263634	-0.287877	-1.31668
O	1.34063	0.289294	-1.45375
H	1.10189	0.960035	0.589304
H	-0.838687	-1.10441	0.291741
C	-1.79916	0.747874	-0.331993
H	-1.5005	1.75939	-0.680925
H	-2.45421	0.280969	-1.09598
H	-2.3868	0.865837	0.604441
N	-0.225048	-1.10677	-2.26884
C	0.486904	-1.33907	-3.50389
H	-1.09494	-1.57034	-2.13611
H	-0.077707	-2.04006	-4.1574
H	1.4903	-1.77921	-3.30215
H	0.633975	-0.384058	-4.05842
C	1523.01	-2.11093	0.653007
C	1523.58	-0.770553	0.383407
O	1522.85	0.197368	0.197611
H	1521.9	-2.04883	0.642585
H	1523.34	-2.47284	1.64937
H	1523.34	-2.8293	-0.127944
N	1524.91	-0.686162	0.350146
C	1525.61	0.549029	0.099898
C	1527	0.205109	-0.377037
O	1527.45	-0.934958	-0.253402
H	1525.49	-1.48757	0.474175
H	1525.11	1.07994	-0.700613
C	1525.68	1.422	1.37259
H	1526.19	0.874023	2.19198
H	1526.22	2.37393	1.18341
H	1524.65	1.66604	1.71249
N	1527.73	1.18474	-0.956526
C	1529.06	0.947382	-1.45181
H	1527.35	2.099	-1.0538
H	1529.49	1.87571	-1.89099
H	1529.05	0.158518	-2.23851
H	1529.73	0.608206	-0.628767
