44
  This energy is 1.24826e-319 and Call times are: 103893
C	-1.59995	-0.443543	-3.06097
C	-1.62663	-0.27932	-1.59008
O	-2.68266	-0.142522	-0.987937
H	-2.63967	-0.410878	-3.4531
H	-1.14548	-1.42059	-3.32865
H	-1.01407	0.376414	-3.5272
N	-0.443614	-0.283676	-0.971358
C	-0.307261	-0.134745	0.455546
C	1.10699	0.330974	0.742342
O	1.97562	0.274586	-0.12606
H	0.411439	-0.366715	-1.47626
H	-0.98369	0.639507	0.794737
C	-0.587541	-1.46522	1.1893
H	0.107721	-2.25745	0.838429
H	-0.483574	-1.35408	2.28821
H	-1.62608	-1.79624	0.970171
N	1.3657	0.825128	1.96908
C	2.68012	1.30338	2.32929
H	0.647565	0.869041	2.6558
H	2.69157	1.6681	3.38005
H	2.98912	2.14183	1.66389
H	3.43474	0.489546	2.2323
C	4918.51	-1.67646	1.77196
C	4919.94	-1.36773	1.50051
O	4920.83	-1.78598	2.22998
H	4918.44	-2.29885	2.69029
H	4918.08	-2.23928	0.92119
H	4917.94	-0.737945	1.92814
N	4920.19	-0.6106	0.429335
C	4921.52	-0.226211	0.0357535
C	4921.41	1.00038	-0.84874
O	4920.32	1.34121	-1.31731
H	4919.45	-0.251806	-0.140446
H	4922.08	0.0544858	0.91843
C	4922.23	-1.36662	-0.724644
H	4921.65	-1.65253	-1.6292
H	4923.26	-1.07406	-1.02905
H	4922.3	-2.2596	-0.0664302
N	4922.53	1.70794	-1.08042
C	4922.52	2.89682	-1.90055
H	4923.4	1.41992	-0.686384
H	4923.54	3.33477	-1.97256
H	4921.84	3.66518	-1.46905
H	4922.16	2.66062	-2.93023
