44
  This energy is 1.50112e-319 and Call times are: 66765
C	-1.18753	-1.56627	-2.87449
C	-1.15184	-1.3977	-1.40428
O	-1.93237	-1.99931	-0.679487
H	-1.99815	-2.27807	-3.143
H	-0.219205	-1.97117	-3.23675
H	-1.38759	-0.59136	-3.36691
N	-0.232421	-0.556081	-0.926044
C	-0.0746618	-0.288139	0.481133
C	0.647868	1.0372	0.624916
O	1.20854	1.55529	-0.338965
H	0.378451	-0.0497321	-1.52886
H	-1.05359	-0.179553	0.930552
C	0.72661	-1.40869	1.18073
H	1.73007	-1.51782	0.71675
H	0.849814	-1.20563	2.26441
H	0.187481	-2.3744	1.06719
N	0.632085	1.62968	1.83517
C	1.28299	2.89862	2.06382
H	0.166859	1.19795	2.60095
H	1.15963	3.21885	3.12188
H	0.849475	3.68666	1.40633
H	2.37279	2.82662	1.84399
C	3167.83	3.26261	-0.653989
C	3168.05	1.79921	-0.675836
O	3169.02	1.31477	-1.24339
H	3168.64	3.76643	-1.21361
H	3167.83	3.6338	0.392451
H	3166.86	3.51006	-1.13464
N	3167.13	1.05162	-0.0520101
C	3167.21	-0.385879	0.0131437
C	3165.82	-0.915707	0.305661
O	3164.93	-0.161647	0.689295
H	3166.33	1.45618	0.381695
H	3167.51	-0.766114	-0.95512
C	3168.2	-0.84618	1.11027
H	3167.89	-0.453779	2.10216
H	3168.26	-1.95253	1.16306
H	3169.21	-0.450617	0.885085
N	3165.6	-2.2302	0.108886
C	3164.31	-2.8219	0.34961
H	3166.33	-2.82262	-0.208767
H	3164.32	-3.91259	0.132173
H	3163.53	-2.34922	-0.297305
H	3164	-2.68141	1.41187
