44
  This energy is 1.41342e-319 and Call times are: 72729
C	-0.726167	3.27422	0.937187
C	-0.500183	2.23465	-0.0920983
O	-0.695178	2.46528	-1.27754
H	-1.08076	4.20638	0.446065
H	0.219729	3.48997	1.47714
H	-1.49589	2.93458	1.66184
N	-0.0822949	1.04547	0.34789
C	0.181167	-0.0650214	-0.532013
C	0.118571	-1.33684	0.291278
O	0.128158	-1.29138	1.51997
H	0.0449384	0.861204	1.31887
H	-0.602223	-0.116841	-1.27746
C	1.56658	0.065625	-1.20334
H	2.36782	0.119201	-0.435708
H	1.77261	-0.787731	-1.88166
H	1.59998	1.00167	-1.80238
N	0.0305328	-2.50684	-0.371546
C	-0.0457889	-3.76795	0.328418
H	0.016956	-2.52226	-1.36594
H	-0.110737	-4.61375	-0.39107
H	-0.944045	-3.79813	0.986801
H	0.855064	-3.91858	0.96635
C	3450.62	-0.0712414	3.47455
C	3450.74	0.629772	2.17663
O	3450.97	1.83141	2.12544
H	3450.75	0.660001	4.3011
H	3451.4	-0.857316	3.56028
H	3449.62	-0.535737	3.56499
N	3450.59	-0.118774	1.08163
C	3450.68	0.419409	-0.252042
C	3449.97	-0.533576	-1.18954
O	3449.66	-1.66575	-0.821048
H	3450.38	-1.09115	1.13672
H	3450.16	1.36755	-0.285711
C	3452.16	0.589545	-0.689394
H	3452.69	-0.38491	-0.653035
H	3452.23	1.00389	-1.71581
H	3452.67	1.28888	0.00590938
N	3449.67	-0.0862166	-2.42409
C	3448.97	-0.918653	-3.38099
H	3449.92	0.835628	-2.70098
H	3448.82	-0.372509	-4.33746
H	3447.98	-1.22622	-2.98728
H	3449.56	-1.84129	-3.59524
