44
  This energy is 6.53204e-320 and Call times are: 51057
C	-3.15367	1.4737	0.0932407
C	-2.06811	0.766473	-0.622708
O	-2.22645	0.354422	-1.7636
H	-4.04875	1.53325	-0.563384
H	-2.83144	2.5033	0.355753
H	-3.42329	0.923656	1.01937
N	-0.924426	0.603392	0.0464455
C	0.222125	-0.06405	-0.516377
C	1.10244	-0.523949	0.629384
O	0.925782	-0.0964299	1.76862
H	-0.817618	0.917919	0.985914
H	-0.110559	-0.945408	-1.04986
C	1.01582	0.874356	-1.45262
H	1.35501	1.77778	-0.902263
H	1.89926	0.363563	-1.88784
H	0.359608	1.20513	-2.28696
N	2.06311	-1.42843	0.355483
C	2.94144	-1.93313	1.38505
H	2.18559	-1.76763	-0.571438
H	3.6637	-2.66543	0.961578
H	2.35679	-2.44069	2.18617
H	3.51787	-1.10202	1.85214
C	2420.89	3.43325	0.287507
C	2421.23	2.11467	0.86775
O	2421.63	2.01437	2.0203
H	2421.07	4.22522	1.04789
H	2419.83	3.45411	-0.0144004
H	2421.53	3.63818	-0.597825
N	2421.09	1.058	0.0649392
C	2421.38	-0.289366	0.485697
C	2421.61	-1.12609	-0.757559
O	2421.29	-0.703086	-1.86779
H	2420.79	1.15586	-0.881212
H	2422.3	-0.288919	1.05752
C	2420.22	-0.881689	1.31657
H	2419.28	-0.880005	0.727156
H	2420.44	-1.91903	1.64231
H	2420.06	-0.259155	2.22375
N	2422.19	-2.33165	-0.600492
C	2422.46	-3.19285	-1.72807
H	2422.45	-2.65312	0.305398
H	2422.94	-4.13947	-1.39395
H	2423.14	-2.69068	-2.45115
H	2421.52	-3.44714	-2.26351
