44
  This energy is 2.33545e-320 and Call times are: 112839
C	2.43974	0.360103	-2.45848
C	1.5826	0.911124	-1.38476
O	1.72802	2.05819	-0.985282
H	3.16954	1.13472	-2.77976
H	1.81893	0.0673158	-3.33123
H	2.99631	-0.526088	-2.08722
N	0.658624	0.0885752	-0.882707
C	-0.249673	0.479976	0.165448
C	-0.766533	-0.78157	0.829221
O	-0.605738	-1.88054	0.301726
H	0.569337	-0.853002	-1.19639
H	0.295792	1.04425	0.911196
C	-1.42874	1.3082	-0.392187
H	-1.98572	0.726569	-1.15743
H	-2.12999	1.61136	0.412253
H	-1.03683	2.2289	-0.876821
N	-1.38399	-0.653317	2.02014
C	-1.89822	-1.80002	2.73205
H	-1.49801	0.243878	2.434
H	-2.37185	-1.48875	3.68915
H	-1.07882	-2.51842	2.96387
H	-2.66158	-2.33279	2.11998
C	5346.16	1.13066	1.80425
C	5344.72	1.1948	1.44144
O	5343.95	1.92756	2.04354
H	5346.35	1.81661	2.6573
H	5346.78	1.4425	0.942598
H	5346.43	0.0971855	2.10482
N	5344.33	0.410313	0.435091
C	5342.97	0.362571	-0.0331164
C	5342.77	-0.945801	-0.775091
O	5343.74	-1.62681	-1.10927
H	5344.96	-0.203814	-0.0283673
H	5342.3	0.357265	0.820725
C	5342.65	1.55337	-0.965311
H	5343.34	1.55613	-1.83982
H	5341.6	1.51979	-1.32754
H	5342.8	2.50574	-0.410378
N	5341.51	-1.33938	-1.03164
C	5341.23	-2.57645	-1.72245
H	5340.74	-0.777849	-0.746763
H	5340.13	-2.72189	-1.83908
H	5341.64	-3.44409	-1.15675
H	5341.69	-2.5746	-2.73564
