44
  This energy is 9.09229e-320 and Call times are: 28251
C	-0.712392	3.18327	1.21877
C	-0.777713	1.70763	1.31585
O	-1.22243	1.15848	2.31443
H	-1.10771	3.63089	2.15644
H	-1.32653	3.53802	0.364485
H	0.339115	3.51161	1.07923
N	-0.322246	1.0234	0.263831
C	-0.320359	-0.416686	0.209355
C	0.69863	-0.842284	-0.829762
O	1.16381	-0.0275722	-1.62455
H	0.0645209	1.48191	-0.531854
H	0.00425801	-0.804582	1.16656
C	-1.71619	-0.967494	-0.15859
H	-2.0464	-0.567017	-1.14078
H	-1.71834	-2.07608	-0.201263
H	-2.45369	-0.647833	0.609566
N	1.08676	-2.13277	-0.83276
C	2.06115	-2.62658	-1.7777
H	0.703991	-2.77506	-0.176881
H	2.24583	-3.7122	-1.621
H	3.02871	-2.08631	-1.66284
H	1.7051	-2.47868	-2.82294
C	1342.81	-2.43016	1.19847
C	1343.44	-1.67294	0.0898114
O	1343.24	-1.98106	-1.07719
H	1342.2	-3.25515	0.779045
H	1342.16	-1.76229	1.79765
H	1343.6	-2.86444	1.85395
N	1344.22	-0.65167	0.437762
C	1344.9	0.178615	-0.527083
C	1346.06	0.854952	0.173147
O	1346.14	0.855036	1.40005
H	1344.4	-0.428748	1.3926
H	1345.31	-0.450268	-1.30846
C	1343.95	1.24006	-1.12102
H	1343.53	1.88302	-0.316612
H	1344.46	1.88101	-1.86444
H	1343.1	0.731906	-1.63008
N	1347	1.43146	-0.596902
C	1348.15	2.08864	-0.0189996
H	1346.92	1.41455	-1.58816
H	1348.81	2.50085	-0.814815
H	1348.75	1.37296	0.593024
H	1347.84	2.92702	0.64221
