44
  This energy is 3.42931e-320 and Call times are: 68655
C	-1.52693	-1.58772	-2.69699
C	-1.54853	-1.06335	-1.31288
O	-2.58434	-1.0369	-0.662575
H	-2.55159	-1.90972	-2.98379
H	-0.843838	-2.46042	-2.76485
H	-1.18828	-0.798055	-3.40033
N	-0.385675	-0.622035	-0.827725
C	-0.247318	-0.0837359	0.501906
C	1.0066	0.768349	0.531434
O	1.83225	0.703443	-0.377373
H	0.445282	-0.621959	-1.37768
H	-1.08995	0.563745	0.708818
C	-0.150343	-1.20842	1.5568
H	0.714751	-1.87114	1.34111
H	-0.0438762	-0.797432	2.58176
H	-1.07426	-1.82605	1.52425
N	1.16741	1.608	1.57313
C	2.32404	2.46644	1.68017
H	0.484525	1.65112	2.29497
H	2.27405	3.07992	2.60666
H	2.38428	3.15523	0.806565
H	3.26008	1.86298	1.70921
C	3258.17	-2.84372	0.953091
C	3257.3	-1.68616	1.26402
O	3256.8	-1.54741	2.37371
H	3258.25	-3.49106	1.85284
H	3259.18	-2.49466	0.664151
H	3257.73	-3.43795	0.122886
N	3257.09	-0.819043	0.270953
C	3256.27	0.355733	0.419989
C	3255.83	0.797303	-0.963253
O	3256.37	0.343272	-1.96873
H	3257.48	-0.958575	-0.637073
H	3255.38	0.0943433	0.978248
C	3257.04	1.4955	1.12274
H	3257.95	1.76066	0.547707
H	3256.41	2.40155	1.23925
H	3257.36	1.15908	2.13438
N	3254.82	1.68252	-1.04603
C	3254.33	2.15129	-2.32071
H	3254.39	2.0328	-0.220983
H	3253.5	2.87499	-2.17902
H	3253.95	1.30038	-2.93393
H	3255.14	2.65746	-2.89272
