44
  This energy is 1.03112e-319 and Call times are: 52485
C	1.52465	-0.27731	3.11844
C	0.533801	0.333183	2.20371
O	-0.307553	1.11956	2.61629
H	1.34747	0.0927139	4.15167
H	2.55384	0.00117691	2.80856
H	1.42292	-1.38299	3.11027
N	0.610539	-0.0271265	0.920494
C	-0.283336	0.481547	-0.0889939
C	-0.265613	-0.48527	-1.25698
O	0.604765	-1.34933	-1.3446
H	1.28195	-0.690936	0.601913
H	-1.29012	0.498511	0.308726
C	0.142384	1.89042	-0.55904
H	1.17592	1.86949	-0.965839
H	-0.543846	2.28516	-1.33624
H	0.126448	2.58888	0.305862
N	-1.2459	-0.374573	-2.17501
C	-1.3171	-1.25886	-3.31481
H	-1.94522	0.326607	-2.08262
H	-2.19208	-1.00711	-3.95378
H	-1.41751	-2.31815	-2.98457
H	-0.394967	-1.17635	-3.93452
C	2486.92	2.44866	-0.0258174
C	2488.2	1.88983	0.483191
O	2488.91	2.52697	1.2502
H	2486.78	3.46772	0.39331
H	2486.07	1.8062	0.283976
H	2486.95	2.51626	-1.1338
N	2488.52	0.667754	0.0547038
C	2489.73	-0.00860913	0.461476
C	2490.03	-1.07963	-0.568137
O	2489.18	-1.4169	-1.39275
H	2487.95	0.170736	-0.592944
H	2490.55	0.698151	0.452383
C	2489.57	-0.645644	1.86029
H	2488.73	-1.36965	1.8662
H	2490.5	-1.16714	2.17666
H	2489.35	0.14904	2.60515
N	2491.26	-1.62618	-0.557211
C	2491.65	-2.64439	-1.50721
H	2491.94	-1.33471	0.113509
H	2492.7	-2.96781	-1.3347
H	2491.56	-2.25977	-2.54965
H	2490.98	-3.53635	-1.41561
