44
  This energy is 1.42637e-320 and Call times are: 67815
C	0.931448	-3.35427	0.0859528
C	-0.0447492	-2.28168	-0.210336
O	-1.09439	-2.52414	-0.789956
H	0.542853	-4.32154	-0.300375
H	1.08405	-3.4405	1.18236
H	1.90243	-3.13482	-0.40596
N	0.289395	-1.05048	0.183173
C	-0.556564	0.0959248	-0.0334933
C	0.311383	1.33682	0.0444613
O	1.45051	1.27932	0.503707
H	1.16044	-0.861065	0.628524
H	-0.968772	0.0451044	-1.03328
C	-1.68465	0.169621	1.01964
H	-1.25824	0.220972	2.04417
H	-2.33801	1.0511	0.855664
H	-2.3125	-0.745538	0.953062
N	-0.20316	2.4901	-0.425847
C	0.554065	3.71986	-0.403829
H	-1.12431	2.51466	-0.800167
H	-0.0414629	4.55609	-0.831983
H	1.49011	3.61558	-0.998962
H	0.836589	3.98887	0.63972
C	3213.58	-1.70898	-1.1153
C	3214.63	-0.683126	-1.28767
O	3214.76	-0.075929	-2.34227
H	3213	-1.79903	-2.05772
H	3212.89	-1.41693	-0.294027
H	3214.04	-2.69273	-0.880846
N	3215.43	-0.46926	-0.238151
C	3216.5	0.496589	-0.252778
C	3217.48	0.120245	0.839025
O	3217.18	-0.697564	1.70493
H	3215.34	-0.991017	0.605633
H	3217.02	0.431438	-1.20009
C	3215.97	1.9282	-0.0185716
H	3215.43	1.99128	0.953812
H	3216.79	2.67444	-0.02937
H	3215.25	2.19139	-0.824236
N	3218.7	0.696274	0.809589
C	3219.7	0.390134	1.80094
H	3218.93	1.35026	0.0965401
H	3220.64	0.965408	1.60685
H	3219.95	-0.695732	1.78582
H	3219.34	0.646678	2.82206
