44
  This energy is 8.9747e-320 and Call times are: 96165
C	-2.0339	-2.72718	-0.742895
C	-0.878695	-1.84794	-1.03214
O	-0.0843723	-2.11938	-1.922
H	-2.01549	-3.59727	-1.43461
H	-2.98386	-2.17144	-0.889716
H	-1.98063	-3.09787	0.302426
N	-0.756066	-0.759567	-0.268748
C	0.31497	0.191181	-0.429338
C	0.450022	0.964389	0.868024
O	-0.430466	0.913411	1.72475
H	-1.39331	-0.564701	0.472117
H	1.24111	-0.345944	-0.590081
C	0.0355413	1.16099	-1.59917
H	-0.915611	1.70985	-1.43133
H	0.858332	1.89432	-1.72572
H	-0.0624603	0.58223	-2.54341
N	1.57355	1.68541	1.05195
C	1.79509	2.44408	2.26088
H	2.27762	1.70819	0.349812
H	2.77451	2.96983	2.22128
H	1.79266	1.77419	3.1511
H	0.993693	3.20546	2.39955
C	4552.53	2.03791	-1.52815
C	4553.92	1.72637	-1.14649
O	4554.86	2.39958	-1.55981
H	4552.52	2.91918	-2.20578
H	4551.93	2.27445	-0.624354
H	4552.07	1.1738	-2.05727
N	4554.1	0.676847	-0.339916
C	4555.39	0.250078	0.118414
C	4555.28	-1.20016	0.547065
O	4554.18	-1.72534	0.709261
H	4553.33	0.118729	-0.0334597
H	4556.09	0.296355	-0.708075
C	4555.89	1.11675	1.29876
H	4555.17	1.0675	2.14462
H	4556.89	0.790954	1.65405
H	4555.96	2.17683	0.97223
N	4556.43	-1.89014	0.720061
C	4556.42	-3.27919	1.11585
H	4557.31	-1.44933	0.576969
H	4557.46	-3.66772	1.20709
H	4555.88	-3.89882	0.364666
H	4555.91	-3.4051	2.09872
