44
  This energy is 1.38225e-319 and Call times are: 53829
C	0.929071	-3.35486	0.088538
C	0.470301	-2.11339	0.751468
O	0.135608	-2.11117	1.9281
H	0.897645	-4.19364	0.817463
H	1.9715	-3.23241	-0.273638
H	0.266522	-3.59854	-0.768549
N	0.439246	-1.01382	-0.00507291
C	0.0165876	0.269013	0.497438
C	-0.38918	1.12306	-0.687969
O	-0.0935199	0.789173	-1.8338
H	0.686663	-1.03465	-0.970105
H	-0.858967	0.132205	1.11934
C	1.14688	0.962848	1.29
H	2.04376	1.10102	0.649198
H	0.824763	1.95082	1.67849
H	1.43584	0.326721	2.15486
N	-1.0994	2.24093	-0.439061
C	-1.53974	3.10958	-1.50571
H	-1.3349	2.49024	0.494542
H	-2.10678	3.97568	-1.09879
H	-2.20113	2.55885	-2.21317
H	-0.668426	3.4995	-2.08012
C	2550.59	-2.04813	0.130123
C	2552.01	-1.77822	0.412952
O	2552.68	-2.54282	1.09872
H	2550.29	-2.99344	0.631531
H	2550.43	-2.15462	-0.963457
H	2549.96	-1.21956	0.516557
N	2552.52	-0.661851	-0.114136
C	2553.9	-0.263968	0.0721167
C	2553.99	1.22703	-0.187998
O	2553.06	1.82786	-0.735559
H	2551.96	-0.0321907	-0.646808
H	2554.17	-0.43577	1.1039
C	2554.84	-1.02932	-0.883729
H	2554.55	-0.851367	-1.94132
H	2555.9	-0.725483	-0.74287
H	2554.76	-2.12027	-0.683915
N	2555.1	1.86519	0.221226
C	2555.27	3.28613	0.027017
H	2555.83	1.36261	0.668867
H	2556.25	3.62248	0.42913
H	2554.47	3.85372	0.547298
H	2555.23	3.54261	-1.05635
