44
  This energy is 1.39776e-319 and Call times are: 98223
C	-3.38815	0.192682	-0.78065
C	-2.24878	0.420299	0.136532
O	-2.38864	1.05301	1.17413
H	-4.29738	0.678435	-0.364469
H	-3.58005	-0.895488	-0.889656
H	-3.17077	0.63105	-1.77741
N	-1.07509	-0.0950972	-0.23653
C	0.124441	0.0423301	0.550282
C	1.31134	-0.176973	-0.367546
O	1.15948	-0.665202	-1.48576
H	-0.967542	-0.583595	-1.09835
H	0.183403	1.05523	0.927939
C	0.155347	-0.976497	1.71138
H	0.0940161	-2.01452	1.32041
H	1.07758	-0.87334	2.31935
H	-0.719743	-0.806106	2.37571
N	2.52514	0.20166	0.0789215
C	3.71118	0.0425938	-0.729896
H	2.62638	0.601419	0.984005
H	4.60955	0.410979	-0.187232
H	3.61747	0.614538	-1.68139
H	3.87139	-1.02975	-0.986007
C	4654.72	-0.452465	-2.93354
C	4654.37	0.32806	-1.72487
O	4655.01	1.32552	-1.41146
H	4655.6	0.0153887	-3.43328
H	4653.87	-0.462283	-3.64189
H	4654.98	-1.49516	-2.65418
N	4653.34	-0.121092	-1.00542
C	4652.88	0.530657	0.195526
C	4652.1	-0.482006	1.00374
O	4651.73	-1.54105	0.498304
H	4652.85	-0.951426	-1.25518
H	4653.74	0.825761	0.785104
C	4652	1.75411	-0.131062
H	4651.12	1.44786	-0.73653
H	4651.64	2.2584	0.791412
H	4652.59	2.48782	-0.724236
N	4651.84	-0.187008	2.29268
C	4651.1	-1.09579	3.14277
H	4652.15	0.672002	2.68526
H	4650.99	-0.673278	4.16554
H	4651.63	-2.07243	3.22339
H	4650.09	-1.2877	2.72879
