44
  This energy is 8.92184e-320 and Call times are: 108975
C	0.700513	2.96863	1.68008
C	0.380777	1.52334	1.66936
O	0.398227	0.863982	2.69962
H	0.940714	3.28395	2.7187
H	-0.169812	3.55567	1.31851
H	1.57819	3.17141	1.03085
N	0.0824849	0.990786	0.482019
C	-0.250321	-0.400907	0.310966
C	-0.0162106	-0.760595	-1.14336
O	0.143266	0.116635	-1.99004
H	0.100115	1.53216	-0.354369
H	0.423222	-1.00002	0.910527
C	-1.72017	-0.679349	0.69714
H	-2.40836	-0.0625928	0.0806031
H	-1.97975	-1.75005	0.566762
H	-1.87898	-0.410686	1.76426
N	0.0316081	-2.06864	-1.46389
C	0.261646	-2.50613	-2.82104
H	-0.0926706	-2.76348	-0.763189
H	0.264055	-3.61682	-2.8811
H	1.24323	-2.1329	-3.1931
H	-0.53389	-2.11999	-3.49869
C	5160.82	0.615583	3.25233
C	5161.32	1.07633	1.93982
O	5161.39	2.26785	1.67171
H	5160.54	1.49776	3.86887
H	5161.6	0.0388604	3.78432
H	5159.92	-0.0235893	3.11369
N	5161.69	0.124544	1.07739
C	5162.2	0.415856	-0.237849
C	5162.01	-0.821055	-1.09489
O	5161.74	-1.905	-0.583089
H	5161.6	-0.843358	1.29682
H	5161.61	1.21163	-0.676289
C	5163.69	0.806115	-0.186174
H	5164.3	-0.0122226	0.264767
H	5164.09	1.03122	-1.19721
H	5163.82	1.7127	0.445514
N	5162.14	-0.681234	-2.42951
C	5161.97	-1.80078	-3.3257
H	5162.35	0.205713	-2.82496
H	5162.11	-1.48422	-4.38239
H	5160.94	-2.2317	-3.2242
H	5162.7	-2.60403	-3.0974
