44
  This energy is 1.39381e-319 and Call times are: 123591
C	1.15042	-3.15021	0.937454
C	0.210505	-2.27298	0.203812
O	-0.607758	-2.7366	-0.578493
H	0.970586	-4.20748	0.644714
H	0.993385	-3.04871	2.03192
H	2.1986	-2.8816	0.688252
N	0.313874	-0.963238	0.440974
C	-0.530406	0.0155157	-0.196254
C	0.171393	1.35742	-0.118658
O	1.13468	1.52076	0.627824
H	1.004	-0.595452	1.05855
H	-0.637087	-0.239862	-1.2429
C	-1.91234	0.098263	0.489693
H	-1.79913	0.359775	1.56343
H	-2.56502	0.850852	0.0014353
H	-2.41563	-0.891144	0.427096
N	-0.285089	2.34824	-0.909788
C	0.327697	3.65617	-0.912409
H	-1.06134	2.19421	-1.51223
H	-0.191158	4.33209	-1.62737
H	1.39919	3.58742	-1.20975
H	0.279571	4.11482	0.101744
C	5851.46	-0.674726	-2.93794
C	5852.3	0.206535	-2.09619
O	5852.76	1.24802	-2.53841
H	5851.36	-0.230399	-3.95236
H	5850.44	-0.777761	-2.4927
H	5851.92	-1.67775	-3.02804
N	5852.52	-0.202933	-0.844757
C	5853.31	0.546141	0.0938337
C	5853.78	-0.408223	1.1769
O	5853.27	-1.52119	1.29445
H	5852.16	-1.06771	-0.505266
H	5854.19	0.921833	-0.412711
C	5852.51	1.70566	0.718041
H	5851.6	1.31673	1.2363
H	5853.12	2.28462	1.44113
H	5852.17	2.39693	-0.0856686
N	5854.78	0.000240319	1.98392
C	5855.29	-0.845136	3.03548
H	5855.18	0.901753	1.86824
H	5856.11	-0.330699	3.58908
H	5855.7	-1.79322	2.61397
H	5854.49	-1.10617	3.76012
