44
  This energy is 1.05359e-319 and Call times are: 83817
C	-2.55597	1.59123	1.74961
C	-2.06931	0.762157	0.623997
O	-2.85003	0.220885	-0.146714
H	-3.66756	1.60413	1.74251
H	-2.18386	2.63228	1.6468
H	-2.20761	1.16817	2.71533
N	-0.745082	0.638776	0.507563
C	-0.120875	-0.134536	-0.536075
C	1.28245	-0.484608	-0.0806955
O	1.79069	0.0843579	0.883567
H	-0.120243	1.0608	1.15903
H	-0.666618	-1.06105	-0.661832
C	-0.0674785	0.652878	-1.86432
H	0.492519	1.60308	-1.73153
H	0.412424	0.0602928	-2.67012
H	-1.10147	0.904282	-2.18652
N	1.93575	-1.45101	-0.755432
C	3.27111	-1.85954	-0.38651
H	1.50468	-1.90456	-1.52854
H	3.63674	-2.66437	-1.06164
H	3.28962	-2.24384	0.65906
H	3.97702	-1.00006	-0.450996
C	3970.28	-2.80582	1.13281
C	3970.33	-1.37991	0.738403
O	3969.3	-0.714348	0.642972
H	3969.22	-3.10501	1.29748
H	3970.84	-2.96234	2.07373
H	3970.71	-3.44014	0.330434
N	3971.54	-0.874519	0.491113
C	3971.75	0.495982	0.0978385
C	3973.1	0.583306	-0.585597
O	3973.9	-0.33998	-0.50188
H	3972.36	-1.43467	0.544049
H	3970.99	0.773074	-0.627684
C	3971.71	1.44364	1.31744
H	3972.48	1.15609	2.06001
H	3971.87	2.49974	1.01817
H	3970.71	1.36947	1.80994
N	3973.37	1.6939	-1.30012
C	3974.62	1.86045	-1.99484
H	3972.7	2.42689	-1.36165
H	3974.65	2.83911	-2.52261
H	3974.76	1.05167	-2.74768
H	3975.47	1.82089	-1.27967
