44
  This energy is 2.35818e-320 and Call times are: 80583
C	-1.12343	-2.35623	-2.30482
C	-0.309716	-1.17347	-1.94405
O	0.489969	-0.690997	-2.73413
H	-0.867625	-2.6767	-3.33813
H	-2.20398	-2.10411	-2.26392
H	-0.912804	-3.19335	-1.60638
N	-0.495741	-0.677074	-0.718759
C	0.221547	0.470366	-0.22307
C	0.167889	0.434608	1.29188
O	-0.61562	-0.311803	1.87568
H	-1.12905	-1.09676	-0.0739918
H	1.26029	0.390093	-0.517409
C	-0.394297	1.78751	-0.745543
H	-1.46012	1.86628	-0.442354
H	0.155689	2.67304	-0.365903
H	-0.350029	1.80086	-1.8564
N	1.02098	1.23027	1.96654
C	1.05014	1.25452	3.4104
H	1.65231	1.82187	1.47597
H	1.8168	1.9726	3.77624
H	1.2934	0.245554	3.81544
H	0.0597468	1.56078	3.81846
C	3818.8	-3.35341	0.492774
C	3818.14	-2.09616	0.915612
O	3817.4	-2.06613	1.8878
H	3818.49	-4.17501	1.17705
H	3819.9	-3.24106	0.534747
H	3818.49	-3.61581	-0.542015
N	3818.4	-1.01438	0.177303
C	3817.84	0.280442	0.463237
C	3817.9	1.10744	-0.806069
O	3818.59	0.746609	-1.75693
H	3818.98	-1.05796	-0.629564
H	3816.79	0.159497	0.724283
C	3818.6	0.990636	1.59973
H	3819.68	1.11247	1.32888
H	3818.17	1.98787	1.82257
H	3818.55	0.37426	2.52349
N	3817.16	2.23193	-0.857864
C	3817.15	3.07633	-2.02964
H	3816.6	2.50319	-0.0806701
H	3816.48	3.95254	-1.87673
H	3816.79	2.51041	-2.91835
H	3818.17	3.45143	-2.25336
