44
  This energy is 1.9728e-320 and Call times are: 61515
C	-0.435879	3.39643	0.632767
C	-0.850601	1.98245	0.773737
O	-1.76376	1.66272	1.52234
H	-1.06606	4.03154	1.29259
H	-0.56588	3.73029	-0.418166
H	0.627679	3.51484	0.929027
N	-0.172126	1.09034	0.0483621
C	-0.458807	-0.321665	0.0781983
C	0.772454	-1.05755	-0.413436
O	1.6797	-0.454159	-0.983221
H	0.588886	1.3599	-0.535701
H	-0.635051	-0.623345	1.10289
C	-1.67461	-0.667687	-0.81018
H	-1.49066	-0.356238	-1.86055
H	-1.89821	-1.75412	-0.78939
H	-2.56965	-0.121511	-0.440407
N	0.841687	-2.38353	-0.183242
C	1.98092	-3.16512	-0.60449
H	0.10046	-2.85238	0.285792
H	1.84921	-4.23392	-0.325969
H	2.91376	-2.79022	-0.12438
H	2.11261	-3.10421	-1.70908
C	2915.5	-0.157941	-3.22628
C	2916.12	-0.7905	-2.04106
O	2916.26	-2.00419	-1.96992
H	2915.21	-0.946835	-3.95368
H	2916.22	0.53235	-3.71346
H	2914.59	0.406825	-2.9269
N	2916.51	0.033302	-1.06639
C	2917.13	-0.432207	0.147875
C	2916.97	0.64647	1.20025
O	2916.61	1.78161	0.886121
H	2916.37	1.01787	-1.12356
H	2916.61	-1.31441	0.49473
C	2918.63	-0.735241	-0.0677006
H	2919.17	0.171763	-0.424149
H	2919.11	-1.09405	0.865259
H	2918.74	-1.52597	-0.841584
N	2917.2	0.308191	2.48431
C	2917.05	1.26572	3.55573
H	2917.47	-0.617498	2.719
H	2917.28	0.796992	4.53678
H	2916.01	1.65594	3.5943
H	2917.74	2.13016	3.40679
