44
  This energy is 3.61705e-320 and Call times are: 56055
C	2.92064	-1.89049	-0.148469
C	1.69076	-1.34457	-0.765366
O	1.46851	-1.48074	-1.96059
H	3.5329	-2.39039	-0.930196
H	2.65885	-2.63434	0.633176
H	3.51701	-1.07151	0.306015
N	0.854454	-0.698678	0.050593
C	-0.382139	-0.112887	-0.401639
C	-0.793945	0.942262	0.606486
O	-0.258644	0.998276	1.71199
H	1.06078	-0.569146	1.01682
H	-0.210394	0.385106	-1.34746
C	-1.49235	-1.1786	-0.538807
H	-1.66547	-1.68796	0.433146
H	-2.44586	-0.730975	-0.886987
H	-1.17804	-1.94626	-1.27911
N	-1.74586	1.82179	0.237296
C	-2.19343	2.86835	1.12643
H	-2.16186	1.76434	-0.664299
H	-2.98108	3.48619	0.641511
H	-1.34627	3.53611	1.4051
H	-2.61421	2.43541	2.06274
C	2657.43	-3.12735	-1.52986
C	2657.74	-2.24651	-0.382897
O	2658.12	-2.70916	0.684854
H	2657.58	-4.1871	-1.23354
H	2658.09	-2.89125	-2.38782
H	2656.37	-2.99361	-1.83495
N	2657.59	-0.935538	-0.581414
C	2657.85	0.0467375	0.438567
C	2657.1	1.3123	0.0753811
O	2656.63	1.45961	-1.04837
H	2657.25	-0.572933	-1.44664
H	2657.46	-0.309976	1.38227
C	2659.37	0.341686	0.552519
H	2659.77	0.706785	-0.417536
H	2659.58	1.09752	1.3371
H	2659.91	-0.593436	0.817758
N	2656.96	2.25094	1.03173
C	2656.25	3.48298	0.781225
H	2657.35	2.10998	1.93708
H	2656.24	4.12478	1.68968
H	2655.19	3.27547	0.490803
H	2656.73	4.0526	-0.0469994
