44
  This energy is 1.34756e-319 and Call times are: 47613
C	-0.194538	1.46713	-3.15211
C	0.0281514	0.297794	-2.27219
O	0.160464	-0.826546	-2.7357
H	-0.219185	1.13035	-4.21128
H	0.628627	2.2018	-3.02771
H	-1.16273	1.95218	-2.90658
N	0.0689803	0.542079	-0.960309
C	0.278219	-0.492171	0.0212068
C	-0.241794	0.0161625	1.35178
O	-0.500387	1.20751	1.51192
H	-0.0692484	1.45815	-0.593377
H	-0.308768	-1.36001	-0.251507
C	1.7741	-0.85979	0.140836
H	2.37341	0.0329419	0.420066
H	1.93877	-1.65599	0.895642
H	2.14323	-1.22957	-0.840567
N	-0.428337	-0.885538	2.33572
C	-0.931223	-0.495828	3.63241
H	-0.219967	-1.8462	2.18426
H	-1.01303	-1.3787	4.30405
H	-1.93972	-0.0315895	3.53939
H	-0.252082	0.246754	4.11045
C	2260.55	-2.02512	2.82209
C	2260.4	-0.69898	2.18014
O	2260.18	0.304096	2.8436
H	2260.41	-1.91789	3.92042
H	2261.56	-2.43986	2.62243
H	2259.78	-2.72411	2.43243
N	2260.53	-0.667158	0.851129
C	2260.41	0.547877	0.0845484
C	2260.08	0.167282	-1.34587
O	2260.21	-0.993815	-1.73146
H	2260.68	-1.49563	0.319137
H	2259.59	1.1303	0.468728
C	2261.72	1.36529	0.128765
H	2262.57	0.764555	-0.265443
H	2261.64	2.30159	-0.46036
H	2261.95	1.63684	1.18196
N	2259.63	1.13951	-2.16388
C	2259.29	0.868536	-3.53884
H	2259.54	2.07152	-1.83103
H	2258.94	1.79577	-4.04677
H	2258.47	0.112891	-3.59495
H	2260.16	0.469756	-4.09645
