44
  This energy is 2.95007e-320 and Call times are: 100071
C	-3.46131	0.31296	0.217983
C	-2.19362	-0.37749	0.545759
O	-2.16371	-1.29466	1.3547
H	-4.28758	-0.134756	0.811859
H	-3.69161	0.197599	-0.862053
H	-3.38449	1.39256	0.46598
N	-1.10014	0.0605373	-0.082584
C	0.205651	-0.510529	0.130978
C	1.23797	0.512621	-0.301136
O	0.91092	1.49262	-0.967823
H	-1.13268	0.827725	-0.717644
H	0.342704	-0.689059	1.18995
C	0.385691	-1.81846	-0.671531
H	0.243756	-1.63179	-1.75741
H	1.39002	-2.26093	-0.509271
H	-0.377067	-2.55921	-0.346524
N	2.51277	0.318002	0.0900339
C	3.56176	1.24565	-0.263895
H	2.75615	-0.477473	0.635209
H	4.53875	0.910712	0.149103
H	3.34072	2.26081	0.138376
H	3.6581	1.32637	-1.37087
C	4740.81	-1.85226	2.32978
C	4740.72	-0.81687	1.27551
O	4741.68	-0.101169	1.01075
H	4741.82	-1.83087	2.78203
H	4740.63	-2.85789	1.89413
H	4740.06	-1.65516	3.12339
N	4739.55	-0.710247	0.64508
C	4739.31	0.249196	-0.4033
C	4737.81	0.452991	-0.515424
O	4737.03	-0.323056	0.0298413
H	4738.77	-1.27952	0.889902
H	4739.75	1.19676	-0.120298
C	4739.88	-0.23818	-1.75311
H	4739.43	-1.2108	-2.04007
H	4739.7	0.498283	-2.56254
H	4740.98	-0.384801	-1.65742
N	4737.38	1.52151	-1.21179
C	4735.97	1.80281	-1.36216
H	4738.02	2.14184	-1.63967
H	4735.81	2.72203	-1.96904
H	4735.49	1.95467	-0.367643
H	4735.45	0.956586	-1.86898
