44
  This energy is 3.79393e-320 and Call times are: 14391
C	2.25997	-0.641041	2.57055
C	1.27376	0.229195	1.89138
O	0.892681	1.27283	2.40333
H	2.54011	-0.187102	3.54591
H	3.17274	-0.744155	1.94681
H	1.82252	-1.64503	2.75381
N	0.828106	-0.192534	0.705673
C	-0.132477	0.544809	-0.0756291
C	-0.783421	-0.421211	-1.04636
O	-0.298512	-1.53319	-1.24683
H	1.12429	-1.05895	0.312569
H	-0.905757	0.921646	0.581718
C	0.539898	1.70175	-0.84797
H	1.3331	1.31167	-1.52086
H	-0.196925	2.27168	-1.4505
H	1.01397	2.40164	-0.12578
N	-1.91653	-0.0240553	-1.65818
C	-2.61277	-0.881009	-2.58934
H	-2.29708	0.876881	-1.47727
H	-3.52002	-0.374854	-2.98677
H	-2.92847	-1.82679	-2.09229
H	-1.95415	-1.14548	-3.4481
C	688.56	1.40051	-2.65808
C	688.024	1.45515	-1.27967
O	688.314	2.3723	-0.523833
H	689.219	2.27912	-2.83072
H	687.729	1.42474	-3.39367
H	689.154	0.472818	-2.80147
N	687.22	0.452904	-0.916075
C	686.621	0.366815	0.391562
C	686.232	-1.07915	0.631843
O	686.209	-1.88609	-0.295581
H	687.015	-0.303617	-1.53127
H	687.359	0.63719	1.13571
C	685.376	1.27613	0.50079
H	684.621	0.996429	-0.264478
H	684.912	1.21238	1.50645
H	685.674	2.33233	0.321615
N	685.938	-1.44589	1.89483
C	685.57	-2.80379	2.22099
H	685.97	-0.779779	2.63274
H	685.364	-2.90486	3.30951
H	686.389	-3.50882	1.95204
H	684.655	-3.10794	1.66187
