44
  This energy is 3.21241e-320 and Call times are: 106623
C	-2.41735	0.401711	2.4741
C	-1.09122	-0.0684466	2.01416
O	-0.267644	-0.509541	2.80388
H	-2.48646	0.283848	3.57737
H	-3.22191	-0.19704	1.99765
H	-2.55358	1.47351	2.21792
N	-0.851218	0.0231135	0.704057
C	0.391879	-0.394026	0.106118
C	0.524007	0.307628	-1.23159
O	-0.441037	0.872075	-1.74337
H	-1.51932	0.411304	0.0748617
H	1.21141	-0.0651385	0.732432
C	0.43521	-1.92584	-0.0908606
H	-0.407295	-2.25987	-0.733294
H	1.3911	-2.25047	-0.550932
H	0.336293	-2.42812	0.896091
N	1.73588	0.306625	-1.82098
C	1.95958	0.959465	-3.08981
H	2.50608	-0.149539	-1.38746
H	3.01905	0.846041	-3.40902
H	1.72975	2.04724	-3.01787
H	1.30674	0.520076	-3.87843
C	5046.68	0.31653	1.29517
C	5048.15	0.414254	1.42596
O	5048.67	0.906609	2.4202
H	5046.2	0.749848	2.2001
H	5046.38	-0.746653	1.20098
H	5046.34	0.880131	0.402164
N	5048.87	-0.0559138	0.403838
C	5050.31	-0.0309433	0.384532
C	5050.76	-0.136336	-1.06011
O	5049.97	-0.47289	-1.94048
H	5048.44	-0.428089	-0.413244
H	5050.65	0.92336	0.765882
C	5050.91	-1.19322	1.21132
H	5050.56	-2.17067	0.81779
H	5052.02	-1.1769	1.19871
H	5050.57	-1.10527	2.26721
N	5052.04	0.172224	-1.34093
C	5052.56	0.11228	-2.68958
H	5052.67	0.449326	-0.615632
H	5053.63	0.400253	-2.71453
H	5051.99	0.804517	-3.35587
H	5052.46	-0.918373	-3.10145
