44
  This energy is 7.18174e-320 and Call times are: 21699
C	2.992	-1.69803	-0.539239
C	2.21846	-0.448794	-0.359641
O	2.77954	0.633389	-0.256871
H	4.07768	-1.45926	-0.551067
H	2.71992	-2.18156	-1.501
H	2.78721	-2.39878	0.297388
N	0.890301	-0.575465	-0.311459
C	0.0036499	0.547808	-0.141353
C	-1.31903	0.022288	0.381702
O	-1.5749	-1.17992	0.349065
H	0.446529	-1.46591	-0.367163
H	0.41479	1.20998	0.610026
C	-0.212961	1.3002	-1.47331
H	-0.634192	0.617766	-2.24205
H	-0.895069	2.1658	-1.3459
H	0.763403	1.67909	-1.84653
N	-2.1857	0.91507	0.899217
C	-3.46436	0.50567	1.43177
H	-1.95724	1.88278	0.923146
H	-4.03299	1.38431	1.80846
H	-3.32797	-0.210805	2.27398
H	-4.07457	0.00339195	0.64658
C	1034.93	-2.31948	2.38555
C	1034.06	-1.90824	1.25919
O	1033.3	-2.70176	0.726727
H	1034.75	-3.39449	2.60942
H	1034.69	-1.72112	3.29009
H	1036	-2.17587	2.11808
N	1034.16	-0.637841	0.86251
C	1033.39	-0.0897031	-0.219395
C	1034.1	1.14751	-0.727262
O	1035.01	1.66215	-0.0750191
H	1034.81	-0.00886007	1.28529
H	1033.36	-0.807394	-1.02935
C	1031.96	0.274185	0.243406
H	1031.99	1.01011	1.07483
H	1031.36	0.696393	-0.58724
H	1031.45	-0.640244	0.614174
N	1033.72	1.64277	-1.92158
C	1034.35	2.81049	-2.49078
H	1032.99	1.20784	-2.43749
H	1033.9	3.06181	-3.47523
H	1035.44	2.63402	-2.64097
H	1034.23	3.68919	-1.81608
