44
  This energy is 1.33951e-319 and Call times are: 104271
C	-0.788694	3.29682	-0.796898
C	-0.467152	2.2361	0.18426
O	-0.277953	2.50139	1.36338
H	-0.810031	4.28089	-0.280151
H	-1.78381	3.10821	-1.25186
H	-0.0173343	3.32666	-1.59506
N	-0.391652	0.991093	-0.291798
C	-0.0882449	-0.146467	0.539303
C	0.421338	-1.2569	-0.358748
O	0.281292	-1.19296	-1.57864
H	-0.519152	0.791621	-1.25973
H	0.710512	0.11843	1.2204
C	-1.33488	-0.622749	1.31787
H	-2.15256	-0.893047	0.616108
H	-1.10477	-1.49845	1.95894
H	-1.6991	0.199984	1.97102
N	1.04771	-2.29655	0.226744
C	1.57656	-3.3942	-0.548923
H	1.15744	-2.32646	1.21482
H	2.05255	-4.15043	0.113498
H	2.34176	-3.03104	-1.27268
H	0.765435	-3.89441	-1.12602
C	4936.61	-0.417185	2.4938
C	4937.02	0.0687151	1.15978
O	4936.21	0.528301	0.369917
H	4935.51	-0.291396	2.60199
H	4937.11	0.165753	3.29031
H	4936.86	-1.49292	2.60576
N	4938.32	-0.0299368	0.874182
C	4938.88	0.400608	-0.382318
C	4940.21	-0.309866	-0.569865
O	4940.75	-0.892613	0.369008
H	4938.97	-0.43303	1.51488
H	4938.23	0.0889334	-1.18481
C	4939.09	1.93124	-0.410158
H	4939.77	2.24759	0.414816
H	4939.52	2.26618	-1.37631
H	4938.11	2.44001	-0.270577
N	4940.76	-0.295789	-1.80088
C	4942.01	-0.955547	-2.0769
H	4940.3	0.175183	-2.54927
H	4942.3	-0.829116	-3.14484
H	4941.94	-2.04597	-1.86052
H	4942.83	-0.532247	-1.4449
