44
  This energy is 4.02021e-320 and Call times are: 94065
C	-0.349099	3.40235	0.654439
C	-0.557418	1.98049	1.00958
O	-1.01927	1.66109	2.09639
H	-0.664826	4.04364	1.50586
H	-0.954468	3.66639	-0.238102
H	0.724311	3.59049	0.441507
N	-0.209416	1.08146	0.0860002
C	-0.352679	-0.338708	0.284573
C	0.58188	-1.04082	-0.681286
O	1.09764	-0.428273	-1.61435
H	0.19291	1.3531	-0.784217
H	-0.0349025	-0.587345	1.2892
C	-1.80841	-0.796455	0.0428208
H	-2.13137	-0.539222	-0.988511
H	-1.9223	-1.88945	0.195018
H	-2.48307	-0.274133	0.755667
N	0.839393	-2.34575	-0.464877
C	1.72611	-3.09379	-1.32531
H	0.417862	-2.82194	0.299838
H	1.80729	-4.14936	-0.984089
H	2.74604	-2.64546	-1.32349
H	1.35013	-3.09215	-2.37403
C	4452.28	2.28183	-0.267563
C	4453.63	1.89408	0.215012
O	4454.36	2.70392	0.767761
H	4452.11	3.35727	-0.045981
H	4451.5	1.67896	0.244906
H	4452.21	2.12444	-1.36429
N	4453.99	0.625883	0.00714879
C	4455.27	0.0994888	0.419808
C	4455.55	-1.14377	-0.402186
O	4454.65	-1.67803	-1.05688
H	4453.4	-0.0166717	-0.470327
H	4456.04	0.824898	0.190923
C	4455.27	-0.24684	1.92551
H	4454.48	-0.990747	2.15691
H	4456.25	-0.652285	2.24665
H	4455.06	0.671863	2.5166
N	4456.8	-1.62234	-0.403833
C	4457.17	-2.79429	-1.16644
H	4457.52	-1.17168	0.126768
H	4458.25	-3.02975	-1.03688
H	4456.97	-2.63305	-2.2513
H	4456.57	-3.67719	-0.835976
