44
  This energy is 1.55275e-319 and Call times are: 36441
C	-0.665477	2.93672	-1.74899
C	-0.229085	1.52319	-1.69698
O	-0.0194713	0.887806	-2.72111
H	-0.756974	3.25403	-2.8105
H	0.0795399	3.58598	-1.2428
H	-1.65246	3.05119	-1.2533
N	-0.0864378	0.990979	-0.480928
C	0.331713	-0.37164	-0.268212
C	-0.107672	-0.781909	1.12386
O	-0.479491	0.0598992	1.9393
H	-0.28837	1.51022	0.345238
H	-0.179613	-1.01124	-0.976403
C	1.86356	-0.518056	-0.406551
H	2.38496	0.139956	0.320962
H	2.18893	-1.56607	-0.243513
H	2.1728	-0.213377	-1.43011
N	-0.0953632	-2.09621	1.42128
C	-0.50802	-2.58149	2.71758
H	0.20211	-2.76249	0.745404
H	-0.425002	-3.68959	2.76734
H	-1.56594	-2.29967	2.92406
H	0.128545	-2.14567	3.52134
C	1728.29	-0.304232	-0.647353
C	1729.52	0.508797	-0.480791
O	1729.52	1.70668	-0.728907
H	1727.47	0.344946	-1.01497
H	1727.99	-0.748834	0.325068
H	1728.47	-1.11482	-1.38563
N	1730.61	-0.138192	-0.0550157
C	1731.87	0.516201	0.15527
C	1732.96	-0.543648	0.118284
O	1732.67	-1.73761	0.186099
H	1730.6	-1.11987	0.115814
H	1732.05	1.20154	-0.662797
C	1731.9	1.26048	1.50887
H	1731.71	0.554544	2.34583
H	1732.88	1.76562	1.67393
H	1731.1	2.03321	1.52375
N	1734.23	-0.129077	-0.0129329
C	1735.33	-1.06664	-0.0693163
H	1734.44	0.841167	-0.0734067
H	1736.3	-0.531627	-0.176777
H	1735.21	-1.75697	-0.935888
H	1735.37	-1.68143	0.858925
