44
  This energy is 3.84185e-320 and Call times are: 32157
C	-3.35225	-0.34002	0.879179
C	-2.24916	-0.427512	-0.104053
O	-2.42596	-0.91695	-1.21116
H	-4.27379	-0.777332	0.43716
H	-3.54795	0.721059	1.14116
H	-3.09138	-0.905376	1.79856
N	-1.06535	0.0484184	0.288947
C	0.10242	0.0335711	-0.555401
C	1.32373	0.143141	0.336587
O	1.21343	0.474776	1.51544
H	-0.926821	0.418136	1.20385
H	0.153866	-0.918592	-1.06805
C	0.0785219	1.19939	-1.56901
H	0.0250526	2.17463	-1.0397
H	0.976191	1.19086	-2.22085
H	-0.821367	1.10832	-2.21558
N	2.52137	-0.15622	-0.203825
C	3.73787	-0.0917099	0.57215
H	2.58901	-0.429472	-1.15776
H	4.61638	-0.372122	-0.0498191
H	3.6871	-0.78741	1.44086
H	3.90003	0.938536	0.963912
C	1528.69	-2.41257	-2.3092
C	1527.67	-1.51343	-1.72071
O	1526.57	-1.37961	-2.2379
H	1528.27	-2.88151	-3.22914
H	1528.95	-3.2124	-1.58696
H	1529.6	-1.83661	-2.57635
N	1528.02	-0.862635	-0.610223
C	1527.14	0.0463273	0.0781135
C	1527.99	0.964213	0.932729
O	1529.18	0.702757	1.15055
H	1528.93	-0.957847	-0.214896
H	1526.63	0.659244	-0.651883
C	1526.13	-0.714093	0.962611
H	1526.66	-1.34237	1.70991
H	1525.45	-0.0172124	1.49396
H	1525.51	-1.3838	0.324973
N	1527.42	2.07911	1.42112
C	1528.15	3.01802	2.23488
H	1526.46	2.27666	1.22773
H	1527.5	3.8676	2.54057
H	1529.02	3.42707	1.67247
H	1528.54	2.52255	3.15521
