44
  This energy is 1.52592e-319 and Call times are: 42237
C	0.951559	-1.65713	-2.91111
C	1.15269	-0.609701	-1.88464
O	2.16799	0.0724773	-1.86751
H	1.83588	-1.68643	-3.58415
H	0.047521	-1.43219	-3.51521
H	0.834968	-2.64981	-2.42744
N	0.174281	-0.462113	-0.988372
C	0.22478	0.514419	0.0702406
C	-0.734753	0.0724333	1.15798
O	-1.5654	-0.808413	0.943588
H	-0.634823	-1.04369	-0.99539
H	1.22102	0.522849	0.493936
C	-0.163269	1.91957	-0.441706
H	-1.18556	1.90713	-0.876305
H	-0.125288	2.67396	0.370836
H	0.546384	2.23129	-1.23881
N	-0.626826	0.662905	2.3645
C	-1.48952	0.298351	3.46406
H	0.0565161	1.36862	2.52023
H	-1.24634	0.896551	4.36975
H	-1.37174	-0.780778	3.71477
H	-2.55742	0.477327	3.20187
C	2005.55	-1.46987	-3.08848
C	2004.69	-1.26238	-1.90159
O	2003.56	-1.72378	-1.85209
H	2005	-2.06692	-3.84432
H	2006.47	-2.01969	-2.80211
H	2005.83	-0.492218	-3.53587
N	2005.22	-0.545867	-0.905756
C	2004.51	-0.259432	0.313233
C	2005.15	0.953267	0.956169
O	2006.25	1.35591	0.578174
H	2006.13	-0.150746	-0.970132
H	2003.48	0.0014681	0.0697728
C	2004.55	-1.46038	1.2844
H	2005.6	-1.72576	1.53151
H	2004	-1.24328	2.224
H	2004.07	-2.34248	0.801243
N	2004.47	1.57936	1.93442
C	2005	2.74912	2.59623
H	2003.58	1.24239	2.22124
H	2004.29	3.11646	3.37129
H	2005.17	3.57001	1.86343
H	2005.97	2.51577	3.09058
