44
  This energy is 1.48961e-319 and Call times are: 66723
C	1.84462	-2.58246	1.43331
C	1.57008	-1.14425	1.21567
O	2.17126	-0.283452	1.84345
H	2.628	-2.69275	2.21435
H	2.20631	-3.04945	0.493136
H	0.923276	-3.10105	1.77263
N	0.635123	-0.849533	0.309377
C	0.25774	0.503483	-0.012735
C	-1.12122	0.465248	-0.642218
O	-1.60711	-0.596494	-1.0275
H	0.13182	-1.56054	-0.17445
H	0.185457	1.07615	0.903184
C	1.26776	1.15285	-0.985
H	1.33991	0.562445	-1.92326
H	0.980278	2.19479	-1.23501
H	2.27404	1.17379	-0.512654
N	-1.79557	1.62776	-0.741322
C	-3.11949	1.68673	-1.31573
H	-1.38816	2.47523	-0.417245
H	-3.5047	2.7302	-1.30957
H	-3.82703	1.04852	-0.738395
H	-3.10757	1.32351	-2.36888
C	3161.61	-0.55403	1.2791
C	3163.04	-0.904036	1.15989
O	3163.54	-1.7754	1.8589
H	3161.14	-1.18589	2.06482
H	3161.09	-0.73575	0.314856
H	3161.5	0.513676	1.56302
N	3163.75	-0.215601	0.259624
C	3165.15	-0.441862	0.0282038
C	3165.72	0.800449	-0.62821
O	3164.98	1.66054	-1.09761
H	3163.34	0.511892	-0.283258
H	3165.65	-0.56821	0.981263
C	3165.38	-1.67349	-0.875899
H	3164.87	-1.54078	-1.85251
H	3166.46	-1.85067	-1.056
H	3164.96	-2.57658	-0.384436
N	3167.06	0.933214	-0.656461
C	3167.7	2.08809	-1.24996
H	3167.65	0.22963	-0.264919
H	3168.8	2.01123	-1.17631
H	3167.37	3.02122	-0.733211
H	3167.42	2.1771	-2.326
