44
  This energy is 8.09032e-320 and Call times are: 51645
C	-2.54357	0.823994	-2.23101
C	-1.63789	-0.159137	-1.59508
O	-1.76084	-1.35856	-1.80187
H	-3.28347	0.286525	-2.8631
H	-1.96283	1.52081	-2.87133
H	-3.08707	1.40217	-1.45432
N	-0.696286	0.336831	-0.789008
C	0.258703	-0.493264	-0.0992493
C	0.798826	0.296651	1.07699
O	0.610445	1.50888	1.15975
H	-0.624797	1.31369	-0.605769
H	-0.251183	-1.36312	0.295007
C	1.41569	-0.914333	-1.03263
H	1.93615	-0.0195281	-1.43582
H	2.15278	-1.55373	-0.504756
H	1.00681	-1.4911	-1.89071
N	1.4684	-0.380774	2.03028
C	2.00849	0.285386	3.19248
H	1.60422	-1.36268	1.9487
H	2.52491	-0.441267	3.85772
H	1.19702	0.778592	3.77515
H	2.74205	1.068	2.8915
C	2451.8	2.4204	0.720154
C	2450.86	1.35636	1.13627
O	2450.83	0.948499	2.28934
H	2452.41	2.72667	1.59263
H	2451.24	3.30376	0.349039
H	2452.47	2.04589	-0.0811321
N	2450.05	0.872448	0.187507
C	2449.08	-0.164401	0.438563
C	2448.74	-0.813578	-0.888376
O	2449.06	-0.282471	-1.94954
H	2450.1	1.19257	-0.754847
H	2449.53	-0.92116	1.06872
C	2447.81	0.405918	1.09579
H	2447.35	1.18243	0.446968
H	2447.06	-0.389798	1.29062
H	2448.07	0.879684	2.06629
N	2448.09	-1.996	-0.857733
C	2447.74	-2.69398	-2.07098
H	2447.85	-2.41306	0.0111662
H	2447.21	-3.64572	-1.83706
H	2448.65	-2.93384	-2.66793
H	2447.07	-2.06785	-2.70178
