44
  This energy is 7.27759e-321 and Call times are: 79995
C	-1.38952	-2.28716	2.22807
C	-0.877965	-1.92174	0.887923
O	-0.745187	-2.76362	0.0103682
H	-1.59617	-3.37909	2.25713
H	-2.33042	-1.73757	2.44134
H	-0.635063	-2.04334	3.00543
N	-0.569389	-0.636327	0.701204
C	-0.0608344	-0.128012	-0.547722
C	0.650189	1.18069	-0.263157
O	0.504189	1.75395	0.814753
H	-0.654491	0.0345972	1.43302
H	0.672246	-0.822576	-0.937911
C	-1.19855	0.0965506	-1.56865
H	-1.94914	0.809068	-1.16486
H	-0.810448	0.487784	-2.53151
H	-1.71221	-0.869209	-1.76767
N	1.45838	1.67432	-1.22188
C	2.18559	2.90829	-1.03562
H	1.5689	1.19194	-2.08462
H	2.79278	3.14673	-1.93657
H	2.87139	2.83196	-0.160927
H	1.4841	3.754	-0.851582
C	3792.53	-0.613635	-2.31363
C	3791.1	-0.499836	-1.9478
O	3790.22	-0.559245	-2.79837
H	3792.62	-0.743481	-3.41418
H	3792.98	-1.49269	-1.81044
H	3793.08	0.306108	-2.01529
N	3790.83	-0.324874	-0.651763
C	3789.49	-0.197611	-0.141651
C	3789.57	0.489071	1.20803
O	3790.64	0.604316	1.7936
H	3791.56	-0.248935	0.027811
H	3788.92	0.44239	-0.803996
C	3788.81	-1.57736	0.00269265
H	3789.4	-2.23158	0.682303
H	3787.78	-1.48303	0.395103
H	3788.76	-2.07055	-0.992512
N	3788.42	0.982922	1.72493
C	3788.4	1.66311	2.99894
H	3787.57	0.885905	1.2324
H	3787.37	1.99332	3.25157
H	3789.06	2.56074	2.97591
H	3788.77	0.989979	3.80986
