44
  This energy is 6.61455e-320 and Call times are: 114519
C	-2.08606	1.85598	2.08082
C	-1.32657	1.67797	0.822773
O	-1.4308	2.47715	-0.0975126
H	-2.70921	2.77363	2.00693
H	-1.38773	1.96385	2.93728
H	-2.75049	0.983292	2.25368
N	-0.537056	0.6036	0.753685
C	0.263861	0.295324	-0.404039
C	0.59692	-1.18331	-0.359857
O	0.417491	-1.8377	0.665524
H	-0.483006	-0.0556935	1.4989
H	-0.32346	0.473706	-1.29584
C	1.56256	1.13193	-0.428555
H	2.16231	0.947004	0.488074
H	2.18156	0.897167	-1.31878
H	1.30497	2.21305	-0.459662
N	1.07231	-1.7509	-1.48584
C	1.40575	-3.15514	-1.54155
H	1.20378	-1.206	-2.30745
H	1.7815	-3.43032	-2.55167
H	0.511222	-3.78052	-1.31801
H	2.19478	-3.40171	-0.794681
C	5425.13	-0.564799	2.96654
C	5424.73	-0.96121	1.59815
O	5425.23	-1.934	1.04917
H	5425.91	-1.2676	3.33933
H	5424.26	-0.602053	3.64838
H	5425.55	0.463347	2.95968
N	5423.81	-0.198761	1.00686
C	5423.32	-0.457287	-0.322539
C	5422.72	0.830032	-0.856572
O	5422.49	1.77412	-0.104277
H	5423.43	0.608132	1.45336
H	5424.15	-0.723045	-0.960967
C	5422.25	-1.57633	-0.319919
H	5421.4	-1.30069	0.336533
H	5421.87	-1.77805	-1.342
H	5422.7	-2.51353	0.0744833
N	5422.48	0.905047	-2.18017
C	5421.92	2.09509	-2.78039
H	5422.68	0.132878	-2.77343
H	5421.79	1.96014	-3.87726
H	5422.59	2.9704	-2.60947
H	5420.93	2.32909	-2.339
