44
  This energy is 1.43704e-319 and Call times are: 123759
C	1.81279	0.244372	2.96314
C	0.844853	-0.447904	2.08277
O	0.411917	-1.55625	2.36673
H	2.03865	-0.400905	3.83976
H	1.38426	1.20315	3.32361
H	2.75572	0.445217	2.41225
N	0.483721	0.200393	0.972964
C	-0.449286	-0.343338	0.0186672
C	-0.230899	0.366909	-1.30311
O	0.436347	1.39812	-1.35987
H	0.86572	1.09028	0.73819
H	-0.22809	-1.39248	-0.131181
C	-1.90893	-0.154257	0.488567
H	-2.13223	0.923113	0.641954
H	-2.62996	-0.571941	-0.243844
H	-2.05564	-0.678142	1.45819
N	-0.77403	-0.184526	-2.40625
C	-0.608916	0.414579	-3.71009
H	-1.30464	-1.02321	-2.34069
H	-1.13058	-0.185836	-4.48767
H	0.470165	0.476268	-3.98031
H	-1.02794	1.44676	-3.72431
C	5862.18	-2.84406	-1.75238
C	5861.3	-1.67109	-1.56518
O	5860.48	-1.35775	-2.41361
H	5861.96	-3.31946	-2.73214
H	5862.01	-3.58628	-0.944987
H	5863.25	-2.52759	-1.74083
N	5861.46	-0.983071	-0.432308
C	5860.67	0.180995	-0.10731
C	5861.44	0.982116	0.930207
O	5862.39	0.489491	1.52754
H	5862.15	-1.23126	0.237832
H	5860.58	0.79739	-0.9919
C	5859.29	-0.212848	0.441269
H	5859.39	-0.845684	1.34832
H	5858.68	0.681105	0.692392
H	5858.74	-0.800158	-0.327605
N	5861.04	2.25134	1.15327
C	5861.72	3.09383	2.11403
H	5860.27	2.63411	0.654607
H	5861.24	4.09995	2.15416
H	5862.79	3.22113	1.84129
H	5861.67	2.64374	3.13209
