44
  This energy is 1.26812e-319 and Call times are: 65757
C	-2.2393	0.0109006	-2.66675
C	-0.896223	-0.237093	-2.09592
O	-0.0202639	-0.782029	-2.75336
H	-2.27193	-0.373425	-3.70938
H	-2.45492	1.10003	-2.67833
H	-3.01305	-0.512426	-2.06642
N	-0.705054	0.15964	-0.835593
C	0.547153	-0.0124937	-0.143369
C	0.268699	0.0500602	1.34586
O	-0.80834	0.467783	1.76696
H	-1.43552	0.576087	-0.300865
H	0.938506	-0.997559	-0.36374
C	1.56412	1.0809	-0.540082
H	1.15914	2.09019	-0.313261
H	2.52949	0.951267	-0.00901323
H	1.75867	1.02525	-1.63333
N	1.23186	-0.387226	2.18078
C	1.05159	-0.376774	3.61381
H	2.09382	-0.728241	1.82028
H	1.95554	-0.773018	4.12677
H	0.179435	-1.00605	3.90467
H	0.866888	0.659354	3.97919
C	3116	-0.71659	1.94859
C	3117.43	-0.336228	1.80441
O	3118.09	-0.00157612	2.77398
H	3115.71	-0.632106	3.01672
H	3115.85	-1.76488	1.61548
H	3115.36	-0.040605	1.34345
N	3117.93	-0.374743	0.567836
C	3119.3	-0.0331206	0.268253
C	3119.38	0.317473	-1.20478
O	3118.45	0.0426156	-1.96789
H	3117.37	-0.620987	-0.217892
H	3119.57	0.849695	0.831972
C	3120.25	-1.20422	0.588749
H	3119.97	-2.10842	0.00924641
H	3121.31	-0.944511	0.359384
H	3120.18	-1.45213	1.67036
N	3120.48	0.956279	-1.63563
C	3120.64	1.34054	-3.01872
H	3121.22	1.17627	-1.00119
H	3121.62	1.85235	-3.17437
H	3119.83	2.03474	-3.33028
H	3120.61	0.446097	-3.68191
