44
  This energy is 1.2613e-319 and Call times are: 23715
C	-2.64321	0.277364	-2.25004
C	-1.83129	0.794764	-1.12563
O	-2.00809	1.92172	-0.683799
H	-3.36499	1.05913	-2.5721
H	-3.20808	-0.623771	-1.93114
H	-1.98778	0.0179703	-3.10798
N	-0.90372	-0.0305919	-0.634946
C	-0.03675	0.329462	0.458467
C	1.17945	-0.574603	0.405907
O	1.18314	-1.58304	-0.297572
H	-0.74974	-0.935543	-1.02262
H	0.303706	1.34739	0.317073
C	-0.753717	0.176945	1.81854
H	-1.10225	-0.868344	1.96002
H	-0.0890524	0.453517	2.66265
H	-1.64333	0.843344	1.84393
N	2.25419	-0.219747	1.13735
C	3.46139	-1.01274	1.14042
H	2.23415	0.60381	1.69465
H	4.22927	-0.557459	1.804
H	3.88552	-1.08664	0.112853
H	3.25247	-2.04532	1.50278
C	1132.96	1.63253	-0.259515
C	1131.57	1.54674	0.239809
O	1131.14	2.3581	1.04603
H	1133.47	2.49967	0.215721
H	1132.97	1.77363	-1.36083
H	1133.52	0.706027	-0.00430412
N	1130.84	0.540156	-0.232879
C	1129.47	0.325308	0.158434
C	1129.12	-1.12305	-0.128811
O	1129.85	-1.81516	-0.834975
H	1131.21	-0.131346	-0.867091
H	1129.38	0.479131	1.22635
C	1128.51	1.2622	-0.610571
H	1128.6	1.10222	-1.70582
H	1127.45	1.09952	-0.311575
H	1128.77	2.32005	-0.392673
N	1128	-1.62283	0.43383
C	1127.6	-2.99451	0.226407
H	1127.43	-1.04876	1.00798
H	1126.65	-3.21366	0.769915
H	1128.39	-3.69399	0.5936
H	1127.44	-3.19671	-0.856932
