44
  This energy is 1.41747e-319 and Call times are: 78987
C	-0.337093	0.728374	3.38851
C	-0.312559	-0.227973	2.2589
O	-0.35067	-1.43544	2.45144
H	-0.385179	0.165038	4.34569
H	-1.22842	1.3862	3.31354
H	0.582594	1.35054	3.38346
N	-0.241215	0.30126	1.03531
C	-0.209523	-0.499882	-0.162188
C	0.383288	0.345424	-1.27272
O	0.504418	1.56184	-1.14044
H	-0.181332	1.28567	0.892897
H	0.44973	-1.34386	-0.00355162
C	-1.62469	-0.978387	-0.556447
H	-2.29855	-0.110049	-0.717766
H	-1.60392	-1.59567	-1.47803
H	-2.04837	-1.59543	0.26568
N	0.788632	-0.287222	-2.3914
C	1.37593	0.433772	-3.49658
H	0.688679	-1.27313	-2.47643
H	1.64168	-0.261692	-4.323
H	2.3012	0.963257	-3.17291
H	0.664044	1.1936	-3.89289
C	3741.8	-0.757463	-1.39983
C	3742.73	0.174877	-0.723214
O	3742.44	1.34963	-0.552297
H	3740.88	-0.209289	-1.69209
H	3741.53	-1.58623	-0.714694
H	3742.28	-1.17559	-2.31269
N	3743.9	-0.337076	-0.322425
C	3744.91	0.444415	0.350078
C	3746.23	-0.267865	0.186913
O	3746.28	-1.43178	-0.206929
H	3744.14	-1.28874	-0.493473
H	3744.99	1.40781	-0.137091
C	3744.58	0.616401	1.84963
H	3744.49	-0.373877	2.34615
H	3745.35	1.21779	2.37046
H	3743.6	1.1383	1.9556
N	3747.35	0.42679	0.467198
C	3748.66	-0.164981	0.329655
H	3747.3	1.36994	0.777766
H	3749.46	0.564352	0.608713
H	3748.84	-0.488866	-0.721636
H	3748.76	-1.05871	0.987442
