44
  This energy is 8.15406e-320 and Call times are: 108639
C	2.68694	-1.0371	-1.95726
C	1.52274	-1.32228	-1.08864
O	1.12096	-2.46604	-0.924701
H	3.06761	-1.98967	-2.38571
H	3.49698	-0.559627	-1.36678
H	2.38893	-0.363155	-2.78788
N	0.943365	-0.268569	-0.50866
C	-0.197925	-0.385785	0.363432
C	-0.889525	0.962845	0.409519
O	-0.330141	1.97106	-0.0175979
H	1.26207	0.661099	-0.67323
H	-0.893816	-1.09797	-0.0615469
C	0.223293	-0.815733	1.7864
H	0.937696	-0.0832636	2.2191
H	-0.653094	-0.907095	2.46047
H	0.729725	-1.80437	1.73884
N	-2.13892	1.00776	0.9125
C	-2.88006	2.24533	0.985493
H	-2.57715	0.179748	1.24653
H	-3.88533	2.07601	1.43046
H	-3.0155	2.68265	-0.0302078
H	-2.33977	2.99062	1.61304
C	5148.83	1.75041	-0.69268
C	5147.79	0.764265	-1.05363
O	5147.75	0.257862	-2.16669
H	5149.5	1.91487	-1.56607
H	5149.44	1.37217	0.157097
H	5148.36	2.71715	-0.411028
N	5146.89	0.470782	-0.104848
C	5145.82	-0.46965	-0.30532
C	5144.75	-0.175851	0.722981
O	5144.98	0.554045	1.6847
H	5146.91	0.911862	0.788434
H	5145.39	-0.308997	-1.2858
C	5146.31	-1.92628	-0.1569
H	5146.76	-2.0874	0.849849
H	5145.49	-2.65303	-0.310798
H	5147.1	-2.12851	-0.914867
N	5143.53	-0.724034	0.530317
C	5142.44	-0.490593	1.45052
H	5143.36	-1.3061	-0.25793
H	5141.53	-1.02839	1.12056
H	5142.21	0.596598	1.5131
H	5142.71	-0.84562	2.47242
