44
  This energy is 1.51169e-319 and Call times are: 124053
C	-3.36752	0.883453	0.0739948
C	-2.11732	0.579788	-0.658121
O	-2.10624	0.481622	-1.87744
H	-4.20324	0.983898	-0.652187
H	-3.26126	1.83651	0.633643
H	-3.60461	0.0629403	0.783565
N	-1.02003	0.416167	0.0845455
C	0.270458	0.117107	-0.482934
C	1.12615	-0.501086	0.60558
O	0.784114	-0.439615	1.78501
H	-1.04772	0.469863	1.07917
H	0.14836	-0.621737	-1.26478
C	0.950741	1.38971	-1.03504
H	1.07383	2.14579	-0.230488
H	1.94456	1.16301	-1.47288
H	0.313518	1.83362	-1.83068
N	2.25494	-1.13391	0.229597
C	3.12613	-1.7626	1.19498
H	2.51082	-1.17901	-0.73047
H	4.00167	-2.2275	0.690453
H	2.58251	-2.55684	1.75613
H	3.50154	-1.01524	1.93098
C	5873.71	1.73033	2.63155
C	5874.78	1.56507	1.62166
O	5875.63	2.43507	1.44312
H	5873.83	2.71674	3.13102
H	5873.78	0.929394	3.39735
H	5872.72	1.68911	2.14386
N	5874.77	0.426937	0.923935
C	5875.74	0.121264	-0.0925271
C	5875.15	-0.938214	-1.0018
O	5874.15	-1.56046	-0.669745
H	5874.06	-0.261439	1.0584
H	5875.92	1.00702	-0.689923
C	5877.06	-0.388409	0.528745
H	5876.88	-1.29675	1.14146
H	5877.82	-0.624573	-0.251138
H	5877.49	0.39626	1.19347
N	5875.76	-1.15287	-2.18713
C	5875.26	-2.13326	-3.12302
H	5876.57	-0.634075	-2.44064
H	5875.89	-2.1624	-4.03706
H	5874.21	-1.89016	-3.42734
H	5875.26	-3.14882	-2.66495
