44
  This energy is 5.96732e-320 and Call times are: 27117
C	-1.22584	-2.82052	-1.63344
C	-1.40474	-1.65096	-0.743865
O	-2.51298	-1.32774	-0.339126
H	-2.21619	-3.28367	-1.83485
H	-0.569137	-3.57312	-1.1485
H	-0.774847	-2.50309	-2.59717
N	-0.298474	-0.977222	-0.42042
C	-0.311436	0.181785	0.435946
C	0.956408	0.970469	0.171773
O	1.88769	0.47131	-0.457027
H	0.594875	-1.23317	-0.780079
H	-1.1514	0.809266	0.166118
C	-0.38616	-0.220473	1.92582
H	0.476671	-0.864671	2.19904
H	-0.396469	0.669571	2.58801
H	-1.31863	-0.798548	2.10603
N	1.01215	2.23634	0.630547
C	2.17395	3.06727	0.416208
H	0.245316	2.6246	1.131
H	2.02773	4.07229	0.869859
H	2.36709	3.19917	-0.673078
H	3.07816	2.60423	0.873575
C	1290.16	2.96648	-1.61654
C	1290.57	1.54679	-1.63663
O	1290.64	0.921304	-2.68592
H	1289.93	3.29797	-2.65369
H	1290.97	3.5996	-1.20504
H	1289.24	3.08789	-0.995251
N	1290.87	0.997859	-0.455179
C	1291.29	-0.372667	-0.313033
C	1291.03	-0.794149	1.12008
O	1290.78	0.0424255	1.98577
H	1290.78	1.50954	0.39564
H	1290.68	-0.996722	-0.955164
C	1292.79	-0.537583	-0.651408
H	1293.41	0.104513	0.00875784
H	1293.12	-1.59172	-0.543134
H	1292.96	-0.224478	-1.70331
N	1291.06	-2.11205	1.39961
C	1290.81	-2.60771	2.73351
H	1291.26	-2.77386	0.683802
H	1290.88	-3.71733	2.76044
H	1289.79	-2.3145	3.07907
H	1291.55	-2.19022	3.45193
