44
  This energy is 1.27805e-319 and Call times are: 35433
C	-1.83191	2.05104	-2.13623
C	-0.574667	1.68072	-1.44818
O	0.477504	2.25018	-1.70344
H	-1.62657	2.8676	-2.86213
H	-2.58155	2.40637	-1.39825
H	-2.23991	1.17632	-2.68518
N	-0.658081	0.69706	-0.549399
C	0.478261	0.225612	0.201128
C	0.160164	-1.17035	0.700474
O	-0.989996	-1.60362	0.665334
H	-1.51532	0.221238	-0.371431
H	1.33132	0.151551	-0.461353
C	0.791171	1.15771	1.39294
H	-0.0863146	1.23192	2.07016
H	1.66571	0.79771	1.97291
H	1.02132	2.17729	1.01397
N	1.1829	-1.91817	1.15957
C	0.977514	-3.26321	1.64419
H	2.10763	-1.5522	1.17322
H	1.93872	-3.71147	1.97946
H	0.550488	-3.90865	0.842754
H	0.269705	-3.26724	2.50452
C	1686.52	1.54251	-1.3376
C	1685.27	0.76208	-1.48377
O	1684.82	0.496268	-2.58808
H	1686.91	1.80964	-2.34525
H	1687.29	0.940551	-0.806703
H	1686.33	2.47577	-0.768759
N	1684.68	0.377226	-0.352093
C	1683.46	-0.387864	-0.331771
C	1682.81	-0.197814	1.02668
O	1683.44	0.295645	1.95951
H	1685.04	0.624968	0.541689
H	1682.78	0.0102722	-1.0768
C	1683.73	-1.88748	-0.585795
H	1684.42	-2.29251	0.17993
H	1682.79	-2.47951	-0.570969
H	1684.2	-2.01315	-1.58338
N	1681.52	-0.567698	1.16305
C	1680.82	-0.413288	2.4159
H	1681.03	-0.958481	0.394333
H	1679.77	-0.776326	2.32703
H	1680.79	0.657401	2.72289
H	1681.32	-0.992212	3.22305
