44
  This energy is 9.10563e-320 and Call times are: 115527
C	-2.94668	-1.7623	0.580969
C	-1.51361	-1.50011	0.843197
O	-0.923408	-2.06528	1.75355
H	-3.32614	-2.50098	1.32003
H	-3.0792	-2.17584	-0.440913
H	-3.5317	-0.823557	0.678243
N	-0.915684	-0.617025	0.0400661
C	0.473924	-0.257981	0.170085
C	0.673807	1.08378	-0.507379
O	-0.188925	1.54733	-1.25079
H	-1.41466	-0.14154	-0.67957
H	0.708773	-0.134733	1.21972
C	1.39209	-1.32048	-0.474264
H	1.14798	-1.44485	-1.55086
H	2.4628	-1.04723	-0.375815
H	1.23532	-2.2989	0.0299936
N	1.81486	1.75173	-0.246908
C	2.08692	3.04161	-0.837127
H	2.49759	1.3631	0.363073
H	3.07526	3.42671	-0.502273
H	1.30567	3.78012	-0.544723
H	2.09641	2.97102	-1.94893
C	5473.49	2.57786	1.05784
C	5472.32	1.69431	1.24254
O	5471.68	1.69863	2.28695
H	5473.65	3.17495	1.98195
H	5473.32	3.27075	0.207664
H	5474.4	1.97121	0.860852
N	5472	0.899836	0.21583
C	5470.89	-0.0144229	0.244799
C	5471.14	-1.08092	-0.804789
O	5472	-0.931164	-1.66202
H	5472.55	0.884582	-0.618786
H	5470.86	-0.503484	1.21024
C	5469.56	0.713516	-0.0389264
H	5469.59	1.21467	-1.02982
H	5468.7	0.0124999	-0.0172291
H	5469.39	1.49289	0.736096
N	5470.39	-2.1988	-0.747365
C	5470.56	-3.27323	-1.6974
H	5469.69	-2.30421	-0.0417304
H	5469.85	-4.10262	-1.48502
H	5471.59	-3.67858	-1.64977
H	5470.37	-2.91262	-2.73562
