44
  This energy is 1.29287e-319 and Call times are: 53493
C	2.31746	1.73062	1.93919
C	1.9639	0.897987	0.767474
O	2.78379	0.65715	-0.107893
H	3.37623	2.0579	1.85115
H	2.19915	1.14445	2.87473
H	1.66595	2.62879	1.98122
N	0.711366	0.438042	0.723105
C	0.21853	-0.384897	-0.352401
C	-1.29434	-0.283073	-0.361349
O	-1.89747	0.200602	0.59475
H	0.0444625	0.665346	1.42774
H	0.580435	0.011144	-1.29275
C	0.650839	-1.85783	-0.177181
H	0.278463	-2.26073	0.788803
H	0.273169	-2.49425	-1.00368
H	1.76097	-1.91873	-0.171056
N	-1.94376	-0.719704	-1.45844
C	-3.38281	-0.651696	-1.56183
H	-1.4373	-1.10129	-2.22468
H	-3.72673	-1.06051	-2.53745
H	-3.73314	0.402779	-1.48062
H	-3.86367	-1.23903	-0.746363
C	2535.32	-2.67523	0.809736
C	2535.77	-1.6092	-0.113892
O	2535.33	-1.53214	-1.2527
H	2534.58	-3.32297	0.29106
H	2534.84	-2.22809	1.70571
H	2536.19	-3.29754	1.12511
N	2536.68	-0.753356	0.364183
C	2537.21	0.336363	-0.41392
C	2538.53	0.752113	0.20845
O	2538.84	0.364358	1.33202
H	2537.05	-0.844152	1.28398
H	2537.42	-0.0152217	-1.41693
C	2536.24	1.53499	-0.444311
H	2536.03	1.8927	0.586324
H	2536.64	2.37579	-1.04273
H	2535.27	1.21714	-0.901311
N	2539.35	1.53841	-0.521542
C	2540.63	1.97468	-0.0159939
H	2539.08	1.83577	-1.43157
H	2541.15	2.61441	-0.762544
H	2541.28	1.09988	0.210653
H	2540.5	2.56262	0.921739
