44
  This energy is 6.88085e-320 and Call times are: 101625
C	-2.87988	-0.861737	-1.7578
C	-2.12263	-0.708192	-0.495177
O	-2.66588	-0.858708	0.590513
H	-3.93792	-1.10988	-1.52366
H	-2.44497	-1.68149	-2.36745
H	-2.8526	0.0845485	-2.33809
N	-0.830465	-0.393945	-0.613138
C	0.0364915	-0.211465	0.523487
C	1.22458	0.617095	0.0749727
O	1.452	0.794344	-1.12031
H	-0.40644	-0.245396	-1.50256
H	-0.4912	0.353498	1.2814
C	0.516919	-1.56711	1.08787
H	1.05726	-2.14435	0.307529
H	1.18456	-1.43028	1.96327
H	-0.362729	-2.16499	1.41176
N	2.00124	1.16463	1.03049
C	3.14722	1.9786	0.698275
H	1.79653	1.01543	1.99229
H	3.65716	2.33482	1.6204
H	2.83801	2.86809	0.102914
H	3.88072	1.3969	0.0943129
C	4814.53	-1.51581	-2.7371
C	4813.89	-0.352513	-2.08307
O	4813.86	0.742964	-2.62683
H	4814.94	-1.20323	-3.72141
H	4813.78	-2.32218	-2.89912
H	4815.36	-1.90083	-2.10686
N	4813.36	-0.568629	-0.878078
C	4812.7	0.463894	-0.117458
C	4812.69	0.0386849	1.33802
O	4812.96	-1.11863	1.65574
H	4813.41	-1.45855	-0.433096
H	4813.28	1.37689	-0.191369
C	4811.25	0.690542	-0.609869
H	4810.66	-0.248238	-0.533286
H	4810.74	1.48505	-0.026445
H	4811.27	1.00041	-1.67749
N	4812.41	0.976929	2.26233
C	4812.39	0.66735	3.67303
H	4812.2	1.90964	1.98566
H	4812.13	1.56956	4.27057
H	4813.39	0.298899	4.00635
H	4811.64	-0.124901	3.89262
