44
  This energy is 6.87838e-320 and Call times are: 76131
C	-1.98825	-1.01641	2.67206
C	-0.72553	-0.474554	2.12149
O	0.156611	-0.0543712	2.85754
H	-1.96101	-0.955704	3.78176
H	-2.1112	-2.07867	2.3732
H	-2.85228	-0.425944	2.30092
N	-0.613444	-0.467484	0.791168
C	0.554701	0.0277783	0.107809
C	0.152877	0.369794	-1.31374
O	-0.918679	-0.0187791	-1.77484
H	-1.35102	-0.785649	0.201513
H	0.881042	0.942358	0.586473
C	1.68947	-1.02073	0.101472
H	1.35104	-1.95792	-0.389706
H	2.59052	-0.64258	-0.423792
H	1.97386	-1.26358	1.14851
N	0.999639	1.12832	-2.03736
C	0.695901	1.51395	-3.39575
H	1.85872	1.43889	-1.64396
H	1.5155	2.1341	-3.82109
H	-0.247448	2.10541	-3.43465
H	0.566213	0.614391	-4.04007
C	3611.36	-0.0675189	2.46541
C	3609.94	-0.113512	2.03816
O	3609.05	-0.367063	2.83481
H	3611.42	-0.297022	3.55129
H	3611.78	0.944296	2.28668
H	3611.95	-0.819041	1.90377
N	3609.7	0.129396	0.74718
C	3608.38	0.120802	0.181812
C	3608.51	-0.0890479	-1.31403
O	3609.6	0.0338831	-1.87179
H	3610.44	0.306001	0.102258
H	3607.83	-0.720966	0.584603
C	3607.64	1.44504	0.468648
H	3608.2	2.30653	0.0546555
H	3606.61	1.44175	0.0348448
H	3607.55	1.58764	1.56763
N	3607.4	-0.434144	-1.99774
C	3607.43	-0.666227	-3.42295
H	3606.53	-0.535658	-1.52716
H	3606.42	-0.93765	-3.80045
H	3608.14	-1.49622	-3.66988
H	3607.78	0.246657	-3.9621
