44
  This energy is 6.86356e-320 and Call times are: 95283
C	-1.26387	3.24457	-0.0387043
C	-0.147746	2.28085	-0.167954
O	0.958828	2.64137	-0.544797
H	-0.911629	4.25642	-0.335268
H	-1.61779	3.28125	1.01306
H	-2.10431	2.94814	-0.701074
N	-0.421469	1.01144	0.141959
C	0.560366	-0.0407594	0.0664537
C	-0.178473	-1.36134	-0.0306513
O	-1.38125	-1.42829	0.215675
H	-1.33458	0.725112	0.419786
H	1.13736	0.0808834	-0.841489
C	1.48374	-0.0384385	1.3052
H	0.888478	-0.162753	2.23489
H	2.24105	-0.847291	1.25024
H	2.01825	0.934589	1.36566
N	0.524992	-2.44435	-0.415638
C	-0.0965985	-3.74143	-0.547571
H	1.49593	-2.36829	-0.617438
H	0.646761	-4.50254	-0.872174
H	-0.91691	-3.70919	-1.30076
H	-0.532566	-4.06902	0.423922
C	4516.24	-0.789538	0.581137
C	4514.93	-1.06452	-0.045964
O	4514.8	-1.96063	-0.868049
H	4517	-1.49722	0.17654
H	4516.18	-0.924422	1.68127
H	4516.56	0.248671	0.354986
N	4513.92	-0.281397	0.331381
C	4512.58	-0.426286	-0.189542
C	4511.85	0.884884	0.0283272
O	4512.31	1.74206	0.781114
H	4514.04	0.464048	0.980235
H	4512.64	-0.598528	-1.25694
C	4511.82	-1.57754	0.51137
H	4511.77	-1.39794	1.60632
H	4510.8	-1.69197	0.112558
H	4512.37	-2.53212	0.345276
N	4510.7	1.08012	-0.647089
C	4509.94	2.30245	-0.512004
H	4510.35	0.377296	-1.25704
H	4509.03	2.27085	-1.14547
H	4510.55	3.18016	-0.822841
H	4509.63	2.45654	0.546311
