44
  This energy is 1.26644e-319 and Call times are: 11703
C	-1.67991	1.79446	2.46656
C	-1.21672	0.520908	1.87098
O	-1.35876	-0.541604	2.46037
H	-2.12953	1.59189	3.46289
H	-2.44638	2.26489	1.81538
H	-0.824732	2.4913	2.59314
N	-0.637445	0.603527	0.670985
C	-0.136244	-0.547934	-0.0359528
C	0.879518	-0.0646425	-1.05276
O	0.964252	1.12825	-1.33852
H	-0.501343	1.4785	0.213999
H	0.379955	-1.1931	0.663595
C	-1.27604	-1.31234	-0.745643
H	-1.80388	-0.647321	-1.46206
H	-0.893638	-2.19964	-1.29084
H	-2.01397	-1.66002	0.009823
N	1.69302	-0.983713	-1.6091
C	2.69865	-0.614975	-2.57809
H	1.61363	-1.94319	-1.35944
H	3.26354	-1.51055	-2.9188
H	3.42194	0.108944	-2.13758
H	2.22996	-0.136357	-3.46827
C	559.789	-0.151739	-2.83899
C	561.109	-0.23139	-2.17275
O	562.105	-0.593739	-2.78345
H	559.894	-0.467323	-3.89981
H	559.408	0.89083	-2.81011
H	559.064	-0.823966	-2.33384
N	561.142	0.106042	-0.881483
C	562.352	0.0795535	-0.0979225
C	561.958	0.00154855	1.36426
O	560.801	0.223617	1.71627
H	560.319	0.371632	-0.387706
H	562.906	-0.818662	-0.337462
C	563.213	1.33739	-0.34976
H	562.64	2.25702	-0.103636
H	564.145	1.32017	0.2519
H	563.494	1.38357	-1.4245
N	562.913	-0.339416	2.25164
C	562.628	-0.450327	3.66326
H	563.841	-0.522215	1.94619
H	563.542	-0.738603	4.22752
H	561.845	-1.22158	3.84662
H	562.258	0.519886	4.06699
