44
  This energy is 2.91993e-321 and Call times are: 13089
C	2.93048	1.8751	0.149792
C	1.69023	1.45115	-0.53814
O	1.32253	1.99406	-1.57088
H	3.39731	2.71029	-0.416234
H	3.64833	1.02951	0.1999
H	2.69794	2.22359	1.1781
N	1.00486	0.458194	0.0334105
C	-0.220292	-0.0640074	-0.517167
C	-0.970388	-0.765885	0.598163
O	-0.411048	-1.03506	1.65954
H	1.2994	0.0436869	0.890361
H	-0.833087	0.761178	-0.857203
C	0.0580648	-1.05062	-1.67312
H	0.687502	-1.89555	-1.32094
H	-0.88315	-1.45451	-2.09946
H	0.608916	-0.52466	-2.4831
N	-2.26879	-1.06023	0.389545
C	-3.06625	-1.71724	1.39879
H	-2.70526	-0.827816	-0.473416
H	-4.10656	-1.8739	1.03757
H	-3.10655	-1.10427	2.32824
H	-2.63193	-2.7098	1.65836
C	623.241	3.10169	-0.271642
C	624.376	2.18836	-0.532463
O	625.298	2.51873	-1.26529
H	623.393	4.04787	-0.834857
H	623.178	3.3347	0.812163
H	622.29	2.63503	-0.604405
N	624.329	0.996977	0.0681475
C	625.359	0.0014719	-0.0880384
C	624.763	-1.34606	0.26973
O	623.683	-1.42082	0.853225
H	623.558	0.728518	0.639612
H	625.657	-0.0363533	-1.12817
C	626.574	0.30234	0.817858
H	626.264	0.341088	1.88411
H	627.369	-0.462173	0.69998
H	627.001	1.29248	0.546585
N	625.447	-2.44866	-0.0938169
C	624.951	-3.77452	0.193788
H	626.315	-2.36739	-0.571639
H	625.656	-4.54809	-0.182838
H	623.961	-3.93738	-0.290131
H	624.827	-3.91808	1.29155
