44
  This energy is 8.867e-320 and Call times are: 45849
C	-2.81168	-0.506231	1.99106
C	-1.76483	0.367607	1.41512
O	-1.80052	1.5811	1.56565
H	-3.55904	0.119372	2.52579
H	-2.36011	-1.22073	2.71106
H	-3.32608	-1.07008	1.18458
N	-0.7969	-0.241455	0.726259
C	0.290512	0.473492	0.107217
C	0.870432	-0.410544	-0.979711
O	0.584293	-1.60494	-1.03786
H	-0.794785	-1.228	0.586034
H	-0.0994423	1.36512	-0.367143
C	1.38387	0.835935	1.13693
H	1.78123	-0.0810229	1.62212
H	2.22262	1.38666	0.663657
H	0.946133	1.48262	1.92834
N	1.68704	0.164947	-1.88412
C	2.27653	-0.595276	-2.9615
H	1.90078	1.13447	-1.82425
H	2.91763	0.054921	-3.5967
H	1.48513	-1.04328	-3.6051
H	2.90503	-1.42312	-2.56043
C	2175.53	2.30613	-2.49178
C	2176.41	1.79383	-1.42197
O	2177.52	2.28097	-1.22845
H	2176.04	3.13636	-3.02571
H	2174.58	2.68887	-2.05462
H	2175.3	1.49855	-3.21862
N	2175.94	0.778156	-0.69612
C	2176.68	0.172739	0.379403
C	2176.11	-1.21295	0.616695
O	2175.03	-1.54172	0.128671
H	2175.05	0.370941	-0.882522
H	2177.71	0.0570824	0.0721157
C	2176.59	1.01405	1.67186
H	2175.53	1.13127	1.98387
H	2177.16	0.550818	2.502
H	2177.01	2.02703	1.48453
N	2176.84	-2.06905	1.3588
C	2176.39	-3.41321	1.62773
H	2177.72	-1.78648	1.739
H	2177.13	-3.95979	2.25588
H	2176.25	-3.97857	0.677756
H	2175.41	-3.3977	2.16559
