44
  This energy is 9.23557e-320 and Call times are: 102549
C	0.687029	-1.8944	-2.83996
C	0.639377	-1.72195	-1.37054
O	0.86351	-2.65852	-0.61615
H	0.937337	-2.9511	-3.07783
H	1.46461	-1.23364	-3.27768
H	-0.29973	-1.64954	-3.28639
N	0.335153	-0.500251	-0.926404
C	0.250704	-0.176737	0.475393
C	-0.592623	1.07573	0.614513
O	-0.856041	1.76837	-0.36666
H	0.126076	0.247369	-1.55113
H	-0.262971	-0.978129	0.991127
C	1.65149	0.0556156	1.08443
H	2.1759	0.877938	0.552553
H	1.59015	0.304784	2.16375
H	2.25974	-0.868634	0.975141
N	-1.05593	1.38424	1.84178
C	-1.87656	2.55102	2.06839
H	-0.837713	0.807195	2.62193
H	-2.15531	2.63323	3.14207
H	-2.81249	2.496	1.46653
H	-1.33175	3.47764	1.77557
C	4855.26	2.40542	-1.82479
C	4856.26	2.01596	-0.801365
O	4856.99	2.84915	-0.274082
H	4855.32	3.5028	-1.99338
H	4854.24	2.14698	-1.4804
H	4855.48	1.88344	-2.78198
N	4856.32	0.717211	-0.498457
C	4857.24	0.185258	0.47728
C	4857.41	-1.29513	0.197316
O	4856.64	-1.88562	-0.556559
H	4855.75	0.0443209	-0.956084
H	4858.21	0.658368	0.347419
C	4856.72	0.396907	1.9155
H	4855.73	-0.0891532	2.04502
H	4857.42	-0.0113933	2.66935
H	4856.6	1.48514	2.10768
N	4858.45	-1.92685	0.785183
C	4858.7	-3.33289	0.567908
H	4859.06	-1.42994	1.38631
H	4859.59	-3.66667	1.13887
H	4858.87	-3.53807	-0.512681
H	4857.82	-3.94205	0.896193
