44
  This energy is 1.35181e-319 and Call times are: 18045
C	0.261724	3.25054	1.22132
C	0.0615963	1.79744	1.42046
O	0.0116933	1.31379	2.54299
H	0.353707	3.74771	2.21138
H	-0.604683	3.6854	0.679964
H	1.18993	3.43304	0.639878
N	-0.0533057	1.05769	0.315055
C	-0.252012	-0.369319	0.346671
C	0.177426	-0.929366	-0.995405
O	0.363796	-0.185384	-1.95644
H	0.0182008	1.45942	-0.594029
H	0.392881	-0.797691	1.10343
C	-1.72988	-0.725474	0.62265
H	-2.38871	-0.283877	-0.155199
H	-1.8864	-1.82349	0.647812
H	-2.03252	-0.308612	1.60793
N	0.366252	-2.2606	-1.08571
C	0.786567	-2.88217	-2.31988
H	0.217158	-2.84496	-0.294805
H	0.88444	-3.98282	-2.19244
H	1.77185	-2.47831	-2.64751
H	0.0469433	-2.68731	-3.12992
C	860.342	-0.208632	-3.44564
C	861.064	0.297468	-2.257
O	862.103	0.933515	-2.37154
H	860.897	0.0807499	-4.36402
H	859.322	0.229764	-3.48911
H	860.266	-1.3157	-3.40513
N	860.523	0.0155716	-1.06952
C	861.109	0.439633	0.176931
C	860.568	-0.45589	1.27454
O	859.596	-1.18055	1.07245
H	859.692	-0.528374	-0.988207
H	862.181	0.292154	0.130185
C	860.773	1.91648	0.482583
H	859.673	2.06433	0.529161
H	861.223	2.24633	1.44158
H	861.174	2.56194	-0.329295
N	861.204	-0.442108	2.46264
C	860.768	-1.27022	3.56272
H	861.994	0.145907	2.60423
H	861.417	-1.11564	4.45272
H	860.807	-2.34792	3.28299
H	859.719	-1.02565	3.84697
