44
  This energy is 1.36239e-319 and Call times are: 123465
C	0.683096	2.87307	-1.84526
C	1.10712	1.75539	-0.972217
O	2.28948	1.55466	-0.730958
H	1.58154	3.4238	-2.1993
H	0.0315891	3.57319	-1.28118
H	0.130663	2.48273	-2.72583
N	0.133674	0.987767	-0.476708
C	0.38848	-0.136634	0.387945
C	-0.818134	-1.05302	0.328374
O	-1.87682	-0.667176	-0.163703
H	-0.823835	1.14394	-0.704134
H	1.2391	-0.687612	0.00722483
C	0.638845	0.31819	1.84313
H	-0.235471	0.883678	2.23031
H	0.835534	-0.545099	2.51158
H	1.52443	0.989752	1.87306
N	-0.678178	-2.30306	0.811921
C	-1.7689	-3.24957	0.786611
H	0.188736	-2.59869	1.1996
H	-1.45727	-4.22063	1.23066
H	-2.10463	-3.43424	-0.259537
H	-2.63876	-2.86245	1.36511
C	5849.82	-0.296193	2.27818
C	5848.44	0.110049	1.9256
O	5847.66	0.504413	2.78031
H	5849.96	-0.182051	3.37409
H	5850.55	0.345024	1.74783
H	5849.99	-1.3582	2.00146
N	5848.1	0.0149566	0.636767
C	5846.8	0.373274	0.13972
C	5846.6	-0.325574	-1.19107
O	5847.55	-0.837835	-1.78073
H	5848.74	-0.335359	-0.0454996
H	5846.05	-0.000125194	0.823376
C	5846.66	1.90223	-0.0377825
H	5847.44	2.28202	-0.73921
H	5845.66	2.18163	-0.420232
H	5846.81	2.40253	0.9438
N	5845.35	-0.381359	-1.68621
C	5845.06	-1.03647	-2.94084
H	5844.59	0.0329893	-1.19056
H	5843.97	-0.974082	-3.17709
H	5845.35	-2.11184	-2.89773
H	5845.63	-0.560001	-3.77247
