44
  This energy is 1.13467e-319 and Call times are: 71805
C	-0.0189463	0.361407	3.4634
C	0.0391544	0.925713	2.09615
O	-0.00500913	2.13366	1.908
H	-0.109181	1.1899	4.19915
H	0.906589	-0.212394	3.6801
H	-0.899984	-0.306767	3.5647
N	0.135246	0.047079	1.09558
C	0.201742	0.442877	-0.288527
C	-0.216863	-0.74469	-1.13333
O	-0.291957	-1.86971	-0.6429
H	0.140993	-0.935702	1.26003
H	-0.512388	1.23789	-0.461846
C	1.62738	0.894689	-0.676502
H	2.35752	0.0769323	-0.496801
H	1.68211	1.20028	-1.74158
H	1.92265	1.7643	-0.0498137
N	-0.521788	-0.515866	-2.42587
C	-0.941701	-1.58332	-3.30359
H	-0.46171	0.402823	-2.80221
H	-1.14483	-1.1949	-4.3259
H	-1.87066	-2.06449	-2.9205
H	-0.1522	-2.366	-3.37626
C	3403.27	-1.52055	-0.196093
C	3404.52	-1.20168	0.531687
O	3404.66	-1.49482	1.71142
H	3402.56	-2.024	0.495643
H	3403.49	-2.20052	-1.04688
H	3402.8	-0.589286	-0.577489
N	3405.47	-0.578107	-0.167561
C	3406.74	-0.202639	0.401723
C	3407.33	0.898061	-0.458813
O	3406.87	1.1409	-1.57212
H	3405.34	-0.318656	-1.12014
H	3406.58	0.205687	1.39075
C	3407.71	-1.40573	0.461473
H	3407.88	-1.82257	-0.554741
H	3408.69	-1.12017	0.899443
H	3407.27	-2.20548	1.09372
N	3408.36	1.60747	0.0500204
C	3408.98	2.68221	-0.691907
H	3408.71	1.40036	0.955742
H	3409.8	3.14107	-0.105565
H	3408.23	3.47593	-0.927037
H	3409.39	2.30627	-1.65336
