44
  This energy is 1.05523e-319 and Call times are: 64833
C	0.39424	-1.66007	-3.0356
C	0.900865	-0.78222	-1.95675
O	2.06778	-0.415697	-1.93507
H	1.22256	-1.8919	-3.73988
H	-0.419453	-1.15034	-3.59318
H	0.00995079	-2.60986	-2.60762
N	0.0195831	-0.42557	-1.01947
C	0.362248	0.424614	0.0925586
C	-0.664398	0.198772	1.18537
O	-1.71378	-0.396718	0.948662
H	-0.920961	-0.754425	-1.03236
H	1.32728	0.124398	0.480704
C	0.378738	1.91303	-0.321511
H	-0.612604	2.21747	-0.719853
H	0.642376	2.57046	0.532342
H	1.13386	2.06505	-1.12327
N	-0.373312	0.653361	2.42012
C	-1.28499	0.473638	3.52589
H	0.484265	1.1265	2.59313
H	-0.867137	0.917639	4.45622
H	-1.47294	-0.609283	3.7081
H	-2.26299	0.962657	3.31246
C	3077.19	-2.16995	1.31105
C	3075.79	-1.72006	1.14938
O	3074.85	-2.38241	1.5856
H	3077.2	-3.14123	1.8517
H	3077.76	-1.42388	1.89782
H	3077.66	-2.30519	0.31695
N	3075.6	-0.566571	0.502153
C	3074.3	0.00106076	0.266967
C	3074.42	0.971447	-0.892337
O	3075.52	1.34744	-1.28898
H	3076.37	-0.0508298	0.126009
H	3073.62	-0.787872	-0.0314486
C	3073.77	0.732365	1.5207
H	3074.47	1.54061	1.82445
H	3072.77	1.17051	1.34313
H	3073.69	0.0110139	2.36298
N	3073.28	1.38418	-1.47923
C	3073.29	2.29836	-2.59738
H	3072.4	1.06295	-1.14824
H	3072.25	2.51835	-2.93789
H	3073.86	1.86386	-3.45335
H	3073.78	3.25917	-2.31374
