44
  This energy is 9.54831e-320 and Call times are: 28419
C	-2.68461	-1.09452	-1.92899
C	-2.11558	-0.270787	-0.838639
O	-2.79514	0.561742	-0.254192
H	-3.74859	-0.81272	-2.08523
H	-2.63351	-2.171	-1.66179
H	-2.12467	-0.921063	-2.87203
N	-0.831915	-0.485569	-0.541242
C	-0.138133	0.236962	0.494829
C	1.34918	0.135703	0.21755
O	1.78315	-0.679114	-0.594591
H	-0.280978	-1.14617	-1.04425
H	-0.412726	1.28269	0.438859
C	-0.458317	-0.338081	1.89266
H	-0.175985	-1.41117	1.94634
H	0.0741402	0.216042	2.69279
H	-1.55085	-0.259149	2.08316
N	2.16658	0.981935	0.874629
C	3.59572	0.966745	0.666057
H	1.79542	1.63894	1.52256
H	4.09356	1.73476	1.29816
H	3.83942	1.17875	-0.4002
H	4.02026	-0.0300299	0.925644
C	1353.84	1.18265	3.16608
C	1353.73	0.0933266	2.16937
O	1354.2	-1.01551	2.39243
H	1354.38	0.81015	4.06099
H	1352.83	1.51799	3.47501
H	1354.4	2.04116	2.73724
N	1353.11	0.393574	1.02632
C	1352.93	-0.560197	-0.0387322
C	1352.69	0.213011	-1.32
O	1352.42	1.41282	-1.28891
H	1352.76	1.30882	0.844765
H	1353.85	-1.12486	-0.16478
C	1351.74	-1.50382	0.247467
H	1350.8	-0.92119	0.376895
H	1351.6	-2.23961	-0.570567
H	1351.93	-2.06348	1.18903
N	1352.79	-0.456594	-2.48446
C	1352.59	0.19941	-3.75503
H	1353.02	-1.42564	-2.48899
H	1352.72	-0.519141	-4.594
H	1353.32	1.03108	-3.88913
H	1351.56	0.627221	-3.81638
