44
  This energy is 7.63381e-320 and Call times are: 33543
C	-1.86554	0.381441	-2.91554
C	-1.46823	0.81798	-1.55805
O	-1.85525	1.88319	-1.09757
H	-2.51669	1.15668	-3.37476
H	-2.42836	-0.574097	-2.8607
H	-0.966184	0.244341	-3.55217
N	-0.668184	-0.00811869	-0.879924
C	-0.197088	0.277977	0.451633
C	1.04557	-0.556052	0.695429
O	1.33672	-1.48473	-0.0559872
H	-0.336176	-0.859496	-1.27724
H	0.0902807	1.3203	0.506823
C	-1.27282	-0.0491772	1.51129
H	-1.56578	-1.11909	1.45141
H	-0.913438	0.170086	2.53771
H	-2.17829	0.567314	1.32099
N	1.82264	-0.227559	1.74627
C	3.03156	-0.95745	2.04948
H	1.57379	0.531826	2.33842
H	3.52914	-0.536947	2.95106
H	3.74708	-0.903839	1.19719
H	2.8046	-2.03091	2.24273
C	1594.64	-2.61953	-2.09083
C	1594.34	-2.06737	-0.75075
O	1594.29	-2.7911	0.234037
H	1594.79	-3.71914	-2.01139
H	1595.57	-2.16447	-2.49214
H	1593.8	-2.41567	-2.78657
N	1594.13	-0.750798	-0.685685
C	1593.83	-0.0677881	0.546591
C	1593.16	1.2452	0.198057
O	1593.18	1.67869	-0.952284
H	1594.15	-0.176358	-1.49971
H	1593.12	-0.660414	1.11259
C	1595.11	0.194168	1.37361
H	1595.83	0.801805	0.789713
H	1594.88	0.719814	2.32319
H	1595.59	-0.775258	1.62146
N	1592.52	1.90081	1.18605
C	1591.84	3.1522	0.945584
H	1592.5	1.53007	2.10885
H	1591.37	3.53441	1.88194
H	1591.03	3.02286	0.184723
H	1592.55	3.92059	0.567794
