44
  This energy is 6.12641e-320 and Call times are: 38835
C	1.20649	-1.30939	-2.99266
C	0.906877	-1.42631	-1.54775
O	1.02508	-2.49351	-0.961571
H	1.5212	-2.30122	-3.38393
H	2.02908	-0.581535	-3.15512
H	0.303158	-0.97522	-3.54517
N	0.499859	-0.31247	-0.934508
C	0.171416	-0.267777	0.467974
C	-0.716084	0.939517	0.700402
O	-0.828258	1.81195	-0.158729
H	0.379591	0.544038	-1.42935
H	-0.400609	-1.15065	0.7237
C	1.44262	-0.168533	1.3405
H	2.0274	0.737938	1.07505
H	1.19336	-0.134072	2.42099
H	2.08479	-1.05805	1.16017
N	-1.38794	1.00619	1.86666
C	-2.26559	2.11223	2.17095
H	-1.28942	0.286632	2.54619
H	-2.72371	1.98558	3.1766
H	-3.08467	2.18221	1.41899
H	-1.70384	3.07426	2.16011
C	1845.64	0.788381	2.00352
C	1844.99	0.636381	0.678594
O	1845.56	0.994723	-0.344279
H	1846.64	1.25636	1.87522
H	1845.76	-0.204828	2.48337
H	1845.02	1.43792	2.65714
N	1843.77	0.0974122	0.670105
C	1843.02	-0.114945	-0.540623
C	1841.56	-0.232115	-0.164821
O	1841.22	-0.39645	1.00611
H	1843.31	-0.16367	1.51276
H	1843.13	0.753201	-1.17847
C	1843.48	-1.39298	-1.27434
H	1843.37	-2.28155	-0.616879
H	1842.91	-1.55943	-2.20713
H	1844.56	-1.29508	-1.54312
N	1840.65	-0.127732	-1.15377
C	1839.23	-0.214887	-0.889309
H	1840.94	0.0122639	-2.09399
H	1838.65	-0.107334	-1.83048
H	1838.91	0.588312	-0.186
H	1838.98	-1.19727	-0.429522
