44
  This energy is 3.50638e-320 and Call times are: 119391
C	3.47317	0.0992937	0.230931
C	2.13661	0.697203	0.448444
O	2.00288	1.73188	1.08723
H	4.24242	0.728167	0.729572
H	3.69813	0.0501579	-0.855255
H	3.51001	-0.923184	0.662356
N	1.10093	0.0434472	-0.0828998
C	-0.259913	0.500671	0.0431386
C	-1.17391	-0.685636	-0.194615
O	-0.739128	-1.72566	-0.685693
H	1.21995	-0.814041	-0.57634
H	-0.423334	0.843863	1.05684
C	-0.572229	1.62362	-0.971045
H	-0.40288	1.26832	-2.00989
H	-1.61922	1.97811	-0.876631
H	0.104682	2.48623	-0.787104
N	-2.46515	-0.563051	0.170987
C	-3.40651	-1.6441	-0.00606144
H	-2.79614	0.284185	0.573317
H	-4.41678	-1.34868	0.353573
H	-3.08157	-2.54516	0.56294
H	-3.4852	-1.92464	-1.08137
C	5654.23	-3.20931	-0.876502
C	5653.58	-1.91802	-1.19572
O	5653.22	-1.65479	-2.33543
H	5654.32	-3.81614	-1.80394
H	5653.62	-3.77019	-0.135381
H	5655.25	-3.03517	-0.464926
N	5653.42	-1.06867	-0.17862
C	5652.8	0.225398	-0.331765
C	5653.24	1.09103	0.833099
O	5653.78	0.591946	1.81859
H	5653.74	-1.2829	0.739608
H	5653.17	0.684854	-1.24026
C	5651.26	0.115607	-0.360614
H	5650.89	-0.356773	0.572583
H	5650.78	1.11022	-0.478581
H	5650.95	-0.521862	-1.21755
N	5653.04	2.41967	0.736122
C	5653.43	3.32368	1.79056
H	5652.6	2.80509	-0.0725918
H	5653.18	4.37356	1.52429
H	5654.53	3.26232	1.96856
H	5652.91	3.06849	2.74282
