44
  This energy is 1.47365e-319 and Call times are: 60297
C	-1.92873	-2.61559	-1.25093
C	-1.78904	-1.33164	-0.527638
O	-2.7717	-0.691785	-0.179143
H	-3.00784	-2.83948	-1.39674
H	-1.46731	-3.43747	-0.664048
H	-1.43768	-2.55059	-2.24471
N	-0.542301	-0.918519	-0.288157
C	-0.245384	0.30955	0.405035
C	1.17143	0.71517	0.048167
O	1.93336	-0.0788784	-0.500265
H	0.250114	-1.43429	-0.602793
H	-0.909857	1.08546	0.0465434
C	-0.379759	0.13869	1.9347
H	0.302796	-0.658513	2.29898
H	-0.151974	1.08246	2.47153
H	-1.42166	-0.159587	2.18295
N	1.5513	1.97621	0.333622
C	2.87718	2.45537	0.0195891
H	0.917826	2.60592	0.771108
H	2.9966	3.51585	0.333233
H	3.06928	2.39014	-1.07589
H	3.64946	1.84593	0.542423
C	2861.98	1.7408	1.7229
C	2861.04	0.601035	1.5866
O	2861.07	-0.341105	2.36618
H	2862.65	1.56442	2.59231
H	2861.41	2.6815	1.89016
H	2862.59	1.84003	0.806437
N	2860.18	0.661511	0.571359
C	2859.2	-0.37059	0.30922
C	2858.78	-0.251385	-1.14094
O	2859.05	0.753498	-1.79546
H	2860.18	1.42057	-0.0742164
H	2859.68	-1.33714	0.43508
C	2857.98	-0.236291	1.2371
H	2857.5	0.756677	1.10588
H	2857.23	-1.02954	1.03803
H	2858.3	-0.324167	2.2964
N	2858.11	-1.29078	-1.68487
C	2857.68	-1.272	-3.06189
H	2857.91	-2.09805	-1.14081
H	2857.15	-2.2161	-3.32012
H	2858.55	-1.15878	-3.74776
H	2856.98	-0.42031	-3.24276
