44
  This energy is 1.53106e-319 and Call times are: 111663
C	-0.849513	-1.81084	2.8505
C	0.151328	-1.24649	1.9172
O	1.34789	-1.29693	2.1666
H	-0.32777	-2.23715	3.73475
H	-1.42683	-2.61692	2.35074
H	-1.54521	-1.01583	3.19242
N	-0.326414	-0.682013	0.805676
C	0.522377	-0.0904697	-0.197548
C	-0.318511	0.876629	-1.00802
O	-1.5455	0.860643	-0.930103
H	-1.30499	-0.621269	0.6278
H	1.30056	0.480953	0.292336
C	1.13426	-1.16638	-1.12228
H	0.333167	-1.75114	-1.6227
H	1.78851	-0.714352	-1.89584
H	1.74682	-1.86916	-0.516444
N	0.327893	1.76085	-1.79308
C	-0.389023	2.7276	-2.59159
H	1.32152	1.76261	-1.83702
H	0.318386	3.36318	-3.16852
H	-1.00771	3.39047	-1.94423
H	-1.06835	2.2164	-3.31156
C	5288.08	1.92938	2.25519
C	5289.2	1.02319	1.92843
O	5290.07	0.775229	2.74983
H	5288.2	2.299	3.29707
H	5287.11	1.38683	2.17281
H	5288.07	2.79835	1.56394
N	5289.21	0.505771	0.697739
C	5290.24	-0.392113	0.232356
C	5290.23	-0.358956	-1.2836
O	5289.29	0.145129	-1.89873
H	5288.51	0.738421	0.0281063
H	5291.2	-0.0285479	0.566663
C	5289.99	-1.83331	0.732907
H	5289	-2.20288	0.388702
H	5290.78	-2.52727	0.376515
H	5290	-1.84389	1.84467
N	5291.3	-0.879555	-1.92318
C	5291.39	-0.881622	-3.36477
H	5292.05	-1.27647	-1.40739
H	5292.34	-1.35457	-3.69926
H	5291.35	0.158811	-3.76189
H	5290.54	-1.44774	-3.81043
