44
  This energy is 1.26634e-319 and Call times are: 59499
C	1.43948	-2.1599	-2.32139
C	0.480643	-1.0929	-1.95624
O	-0.178403	-0.515459	-2.80989
H	1.43239	-2.29832	-3.42441
H	1.15009	-3.11634	-1.83734
H	2.4649	-1.87924	-2.00096
N	0.38569	-0.800126	-0.657148
C	-0.502831	0.213462	-0.147249
C	0.00535074	0.634611	1.2179
O	0.850338	-0.0356325	1.80832
H	0.949236	-1.25754	0.0255877
H	-0.458551	1.07897	-0.796106
C	-1.95129	-0.312538	-0.0358851
H	-1.99294	-1.20082	0.629946
H	-2.63813	0.465434	0.356277
H	-2.31144	-0.618844	-1.04217
N	-0.485581	1.77429	1.74337
C	-0.0517772	2.26025	3.0325
H	-1.16349	2.3064	1.24686
H	-0.571626	3.20922	3.29029
H	1.04587	2.45105	3.03139
H	-0.271434	1.51256	3.82867
C	2818.94	0.158275	2.35269
C	2819.65	-0.52452	1.25119
O	2819.36	-1.66328	0.915461
H	2818.16	-0.523497	2.76562
H	2818.44	1.07798	1.97547
H	2819.65	0.426782	3.16237
N	2820.63	0.167299	0.659693
C	2821.42	-0.361888	-0.426507
C	2822.71	0.426792	-0.493637
O	2822.83	1.48592	0.118712
H	2820.88	1.08337	0.961619
H	2821.67	-1.39154	-0.208343
C	2820.66	-0.258079	-1.76999
H	2820.4	0.799466	-1.99035
H	2821.26	-0.664802	-2.60849
H	2819.71	-0.838943	-1.70744
N	2823.72	-0.086164	-1.22684
C	2824.99	0.588489	-1.33937
H	2823.6	-0.948106	-1.70923
H	2825.68	0.0100156	-1.986
H	2825.46	0.708604	-0.336908
H	2824.86	1.60198	-1.78321
