44
  This energy is 1.06941e-319 and Call times are: 34677
C	-1.19876	-0.912652	3.13945
C	-0.638319	0.0841358	2.1995
O	-0.546378	1.26398	2.50935
H	-1.4918	-0.403386	4.08319
H	-0.439737	-1.68926	3.37093
H	-2.09637	-1.39377	2.697
N	-0.25076	-0.376744	1.00796
C	0.313898	0.470547	-0.0118854
C	0.14816	-0.23177	-1.3455
O	-0.155617	-1.42217	-1.39556
H	-0.357769	-1.33507	0.756765
H	-0.249794	1.39388	-0.0540802
C	1.80863	0.754578	0.25683
H	2.38382	-0.194846	0.300152
H	2.24653	1.40684	-0.526481
H	1.91665	1.26808	1.23703
N	0.323922	0.49993	-2.46341
C	0.175142	-0.0805347	-3.7776
H	0.562447	1.46355	-2.40198
H	0.361456	0.680577	-4.56706
H	-0.854546	-0.483166	-3.91498
H	0.895418	-0.918259	-3.92113
C	1650.74	1.64849	0.407397
C	1649.94	0.411967	0.267289
O	1650.48	-0.680474	0.149246
H	1651.82	1.39081	0.377203
H	1650.52	2.14241	1.37608
H	1650.51	2.34776	-0.424959
N	1648.61	0.561609	0.271638
C	1647.7	-0.54694	0.14472
C	1646.37	-0.00142859	-0.328274
O	1646.13	1.20525	-0.293357
H	1648.19	1.46001	0.339213
H	1648.07	-1.22065	-0.618157
C	1647.52	-1.28751	1.48926
H	1647.15	-0.593255	2.26975
H	1646.82	-2.14177	1.39508
H	1648.51	-1.68124	1.82548
N	1645.46	-0.881935	-0.804642
C	1644.17	-0.453352	-1.28813
H	1645.67	-1.85363	-0.831312
H	1643.57	-1.32411	-1.63584
H	1644.29	0.255617	-2.13986
H	1643.6	0.0641898	-0.482411
