44
  This energy is 1.43081e-319 and Call times are: 104649
C	-1.99743	2.07166	-1.96077
C	-1.26905	0.803662	-1.73088
O	-1.37384	-0.135754	-2.50742
H	-2.60023	1.98553	-2.89086
H	-1.27884	2.9104	-2.07468
H	-2.67842	2.28181	-1.10929
N	-0.506679	0.747769	-0.636334
C	0.262156	-0.417257	-0.277954
C	0.561177	-0.339583	1.20656
O	0.388069	0.706721	1.82875
H	-0.452452	1.50943	0.00387698
H	-0.339489	-1.30139	-0.446492
C	1.57938	-0.49114	-1.08206
H	2.19382	0.417732	-0.90735
H	2.17376	-1.3871	-0.808694
H	1.34671	-0.546447	-2.16786
N	0.999216	-1.45916	1.8154
C	1.29826	-1.48335	3.22825
H	1.12611	-2.29784	1.29602
H	1.64603	-2.49306	3.53936
H	0.394175	-1.22458	3.82568
H	2.09685	-0.74633	3.47368
C	4954.78	2.65709	0.382055
C	4956.15	2.08611	0.416093
O	4957.13	2.79878	0.586327
H	4954.84	3.75824	0.52299
H	4954.17	2.22293	1.19695
H	4954.3	2.44512	-0.596844
N	4956.24	0.765348	0.24594
C	4957.5	0.0645937	0.25429
C	4957.3	-1.25674	-0.462897
O	4956.17	-1.67809	-0.704819
H	4955.44	0.199565	0.0790425
H	4958.23	0.63863	-0.307582
C	4958	-0.182597	1.6963
H	4957.25	-0.771165	2.27006
H	4958.97	-0.721847	1.7064
H	4958.14	0.792862	2.21124
N	4958.41	-1.93372	-0.840576
C	4958.32	-3.19468	-1.53918
H	4959.31	-1.57265	-0.641929
H	4959.33	-3.5946	-1.76101
H	4957.77	-3.07218	-2.50211
H	4957.77	-3.94624	-0.924858
