44
  This energy is 6.49548e-320 and Call times are: 114477
C	-2.90218	-1.91566	-0.183641
C	-1.57616	-1.50895	-0.700799
O	-1.05169	-2.10229	-1.6332
H	-3.27046	-2.78948	-0.763879
H	-3.62706	-1.08153	-0.291257
H	-2.8245	-2.20173	0.886443
N	-0.994135	-0.473433	-0.0914324
C	0.295307	0.0388108	-0.481014
C	0.861817	0.815405	0.691677
O	0.146094	1.13368	1.63945
H	-1.41856	-0.0168209	0.68594
H	0.959973	-0.793098	-0.676513
C	0.18578	0.953912	-1.72106
H	-0.497352	1.80591	-1.51722
H	1.17687	1.34995	-2.02383
H	-0.231528	0.373606	-2.57267
N	2.17408	1.12068	0.663843
C	2.80386	1.84737	1.74156
H	2.73804	0.848033	-0.108714
H	3.88532	2.00203	1.53234
H	2.70887	1.28832	2.70056
H	2.32623	2.84503	1.87475
C	5418.24	-0.634012	-1.3291
C	5419.22	0.250289	-0.646324
O	5418.95	1.42335	-0.420037
H	5417.33	-0.054867	-1.57004
H	5417.97	-1.48338	-0.668589
H	5418.68	-1.0254	-2.27233
N	5420.38	-0.302269	-0.303336
C	5421.43	0.429838	0.366929
C	5422.73	-0.30378	0.133628
O	5422.74	-1.45171	-0.306893
H	5420.6	-1.25129	-0.519248
H	5421.51	1.40998	-0.0843382
C	5421.15	0.548764	1.88184
H	5421.06	-0.458561	2.34145
H	5421.95	1.11206	2.401
H	5420.19	1.0869	2.0393
N	5423.88	0.354832	0.405154
C	5425.17	-0.259034	0.202761
H	5423.85	1.28581	0.754212
H	5425.98	0.441332	0.484881
H	5425.3	-0.544329	-0.865537
H	5425.27	-1.18028	0.821431
