44
  This energy is 9.42035e-320 and Call times are: 89781
C	1.83497	-1.6906	-2.42918
C	1.70066	-1.0894	-1.08318
O	2.57437	-1.22834	-0.238297
H	2.79831	-2.24201	-2.49068
H	1.8251	-0.896795	-3.20545
H	1.00192	-2.40051	-2.61626
N	0.580545	-0.401374	-0.8501
C	0.305925	0.241286	0.410217
C	-1.19191	0.456768	0.506711
O	-1.90925	0.337785	-0.484797
H	-0.136826	-0.319919	-1.53689
H	0.595127	-0.423283	1.21445
C	1.04561	1.59284	0.525399
H	0.747074	2.27191	-0.301561
H	0.836488	2.09031	1.49471
H	2.1417	1.42148	0.452048
N	-1.70326	0.759435	1.71622
C	-3.11938	0.970422	1.90661
H	-1.10714	0.844238	2.50786
H	-3.34176	1.21057	2.96969
H	-3.69378	0.0580104	1.62587
H	-3.47974	1.81356	1.27381
C	4249.69	1.17076	-1.84886
C	4250.73	1.34362	-0.805943
O	4250.9	2.42377	-0.258043
H	4249.17	2.13791	-2.00989
H	4248.95	0.409153	-1.52865
H	4250.16	0.851994	-2.80415
N	4251.46	0.264877	-0.509168
C	4252.5	0.276017	0.483531
C	4253.43	-0.890812	0.198954
O	4253.09	-1.7852	-0.575132
H	4251.33	-0.601879	-0.983223
H	4253.08	1.18641	0.377721
C	4251.92	0.158719	1.91104
H	4251.33	-0.776008	2.01587
H	4252.72	0.167137	2.6779
H	4251.24	1.01856	2.10669
N	4254.63	-0.896737	0.80591
C	4255.58	-1.96053	0.586149
H	4254.89	-0.160198	1.42335
H	4256.51	-1.78604	1.1748
H	4255.86	-2.02467	-0.491415
H	4255.15	-2.94193	0.891585
