44
  This energy is 5.05775e-320 and Call times are: 113931
C	-0.306332	2.97258	1.78776
C	-0.515101	1.51445	1.64116
O	-0.949208	0.841484	2.56591
H	-0.593884	3.28326	2.8157
H	-0.934079	3.52432	1.05678
H	0.762153	3.22497	1.62168
N	-0.199136	0.986319	0.456424
C	-0.347166	-0.416511	0.161496
C	0.555381	-0.743611	-1.01224
O	1.04972	0.152393	-1.69388
H	0.181073	1.54019	-0.279513
H	-0.00370354	-0.99285	1.01117
C	-1.81226	-0.767782	-0.180868
H	-2.16158	-0.174246	-1.05254
H	-1.92984	-1.84723	-0.408341
H	-2.46328	-0.522442	0.686386
N	0.80929	-2.04321	-1.26236
C	1.66659	-2.44965	-2.35142
H	0.405502	-2.75327	-0.69491
H	1.74946	-3.55805	-2.39406
H	2.68939	-2.02632	-2.22531
H	1.26193	-2.09049	-3.3253
C	5393.3	-1.68992	-2.20161
C	5393.72	-1.31847	-0.832785
O	5393.05	-1.63167	0.143029
H	5392.34	-2.24924	-2.15003
H	5394.06	-2.33591	-2.6776
H	5393.15	-0.777804	-2.81722
N	5394.86	-0.625425	-0.731414
C	5395.4	-0.192505	0.532003
C	5396.35	0.960159	0.262365
O	5396.73	1.20317	-0.879706
H	5395.38	-0.351192	-1.53598
H	5394.59	0.181929	1.15042
C	5396.15	-1.34	1.24588
H	5396.97	-1.72219	0.608379
H	5396.57	-1.01013	2.21911
H	5395.44	-2.17855	1.43664
N	5396.73	1.71409	1.31202
C	5397.62	2.83956	1.14974
H	5396.4	1.50568	2.22742
H	5397.81	3.33022	2.12855
H	5397.18	3.59523	0.461436
H	5398.59	2.51117	0.720675
