44
  This energy is 7.86404e-320 and Call times are: 33627
C	2.12023	-0.0901025	2.76091
C	1.83785	-0.332481	1.32818
O	2.72235	-0.684366	0.559851
H	3.19891	-0.27237	2.95861
H	1.51816	-0.777907	3.39119
H	1.87874	0.960704	3.02631
N	0.577737	-0.140168	0.93133
C	0.148655	-0.335691	-0.430466
C	-1.13619	0.444271	-0.630661
O	-1.76194	0.882769	0.332659
H	-0.127586	0.174697	1.56087
H	0.893291	0.0803444	-1.09718
C	-0.0847722	-1.83183	-0.737365
H	-0.84874	-2.25558	-0.05114
H	-0.415109	-1.98599	-1.78517
H	0.863422	-2.3923	-0.585867
N	-1.54908	0.654541	-1.89609
C	-2.75431	1.39656	-2.18422
H	-1.02504	0.297708	-2.66243
H	-2.92453	1.45939	-3.28164
H	-2.68378	2.43259	-1.78062
H	-3.63934	0.904559	-1.71965
C	1594.38	0.789186	0.709482
C	1595.42	-0.121765	0.169593
O	1595.13	-1.25399	-0.196951
H	1593.4	0.268413	0.713499
H	1594.31	1.69792	0.0762454
H	1594.64	1.08422	1.74923
N	1596.66	0.359944	0.11403
C	1597.77	-0.406085	-0.38676
C	1599.05	0.207841	0.162898
O	1599.03	1.32112	0.684678
H	1596.88	1.27375	0.442801
H	1597.71	-1.41709	-0.00570184
C	1597.81	-0.40537	-1.93142
H	1597.88	0.633401	-2.31896
H	1598.66	-0.994432	-2.32038
H	1596.87	-0.856445	-2.32163
N	1600.18	-0.518374	0.0771777
C	1601.44	-0.0204679	0.584251
H	1600.17	-1.42018	-0.342174
H	1602.25	-0.762264	0.418769
H	1601.37	0.184122	1.67715
H	1601.72	0.928283	0.0728739
