44
  This energy is 1.23027e-319 and Call times are: 29427
C	1.5302	-0.976319	2.97177
C	0.566543	-0.144894	2.21593
O	-0.228974	0.583692	2.79283
H	1.38032	-0.813539	4.06122
H	2.57045	-0.69341	2.70594
H	1.36998	-2.05112	2.74357
N	0.61485	-0.242749	0.885345
C	-0.258057	0.503272	0.0145321
C	-0.299986	-0.208106	-1.32391
O	0.522735	-1.07959	-1.59862
H	1.24784	-0.861794	0.428136
H	-1.25964	0.49055	0.425325
C	0.23832	1.95464	-0.170541
H	1.26634	1.96396	-0.591497
H	-0.431604	2.53195	-0.84039
H	0.265636	2.46446	0.817125
N	-1.27961	0.13455	-2.18351
C	-1.40576	-0.497285	-3.4762
H	-1.94011	0.83712	-1.93985
H	-2.27074	-0.078177	-4.03602
H	-1.55977	-1.59494	-3.36364
H	-0.485032	-0.338269	-4.08296
C	1397.77	-0.708034	1.10045
C	1399.09	-0.0584495	1.26882
O	1399.3	0.725076	2.18519
H	1397.09	-0.357131	1.90097
H	1397.88	-1.81096	1.17445
H	1397.34	-0.443504	0.113133
N	1400.03	-0.371631	0.368161
C	1401.36	0.178526	0.399721
C	1401.95	0.041001	-0.98864
O	1401.42	-0.684038	-1.82942
H	1399.84	-0.988922	-0.39071
H	1401.3	1.235	0.628185
C	1402.25	-0.553399	1.43179
H	1402.31	-1.63707	1.19479
H	1403.27	-0.132197	1.4588
H	1401.8	-0.446192	2.44437
N	1403.06	0.755901	-1.26834
C	1403.69	0.697735	-2.5673
H	1403.47	1.34243	-0.576732
H	1404.59	1.3539	-2.59937
H	1402.98	1.03155	-3.36126
H	1404.01	-0.343464	-2.80373
