44
  This energy is 1.20671e-319 and Call times are: 53157
C	2.64224	-2.15393	-0.710837
C	1.35625	-1.84685	-0.0451549
O	0.729829	-2.71242	0.550568
H	2.88098	-3.23048	-0.56974
H	3.45751	-1.54402	-0.26793
H	2.57084	-1.94115	-1.7983
N	0.925974	-0.586534	-0.139115
C	-0.306288	-0.134868	0.456164
C	-0.7312	1.13352	-0.257893
O	0.0524981	1.73578	-0.989285
H	1.43092	0.10265	-0.65194
H	-1.07288	-0.880315	0.2867
C	-0.134114	0.138283	1.96708
H	0.653522	0.90298	2.13733
H	-1.0811	0.486085	2.42863
H	0.178356	-0.798181	2.47849
N	-1.99743	1.55804	-0.077737
C	-2.49465	2.74891	-0.726405
H	-2.61854	1.05288	0.512409
H	-3.55677	2.93213	-0.451503
H	-2.43168	2.6483	-1.83418
H	-1.89604	3.6392	-0.426013
C	2523.38	2.40716	1.55329
C	2522.09	1.94663	0.994349
O	2521.07	2.61215	1.12293
H	2523.23	3.38234	2.06591
H	2524.12	2.53865	0.739668
H	2523.76	1.66924	2.28894
N	2522.1	0.77424	0.355865
C	2520.93	0.194712	-0.241494
C	2521.17	-1.29408	-0.397337
O	2522.3	-1.7632	-0.278183
H	2522.93	0.227651	0.283066
H	2520.09	0.323195	0.433204
C	2520.62	0.830371	-1.6165
H	2521.48	0.697309	-2.30594
H	2519.72	0.386547	-2.07921
H	2520.45	1.92105	-1.48887
N	2520.1	-2.07788	-0.647476
C	2520.23	-3.50816	-0.799378
H	2519.19	-1.68013	-0.733312
H	2519.24	-3.97497	-1.002
H	2520.65	-3.96448	0.126202
H	2520.92	-3.7523	-1.64511
