44
  This energy is 5.53946e-320 and Call times are: 69537
C	1.74174	-0.32679	-2.99761
C	0.744746	-0.803752	-2.01287
O	0.0232746	-1.76122	-2.25622
H	1.68847	-0.959541	-3.91011
H	2.76448	-0.396672	-2.57108
H	1.52958	0.726516	-3.27776
N	0.678738	-0.130202	-0.86207
C	-0.24012	-0.474356	0.193433
C	-0.415797	0.746923	1.07483
O	0.353538	1.70197	0.98625
H	1.25174	0.666106	-0.687427
H	-1.20382	-0.70772	-0.24119
C	0.284101	-1.66257	1.03036
H	1.27318	-1.41999	1.4742
H	-0.421068	-1.9303	1.84389
H	0.409655	-2.55046	0.373061
N	-1.4526	0.752637	1.93565
C	-1.70586	1.8771	2.80606
H	-2.06822	-0.0268306	1.98736
H	-2.60106	1.69041	3.43931
H	-1.88409	2.80208	2.21118
H	-0.83448	2.05986	3.47575
C	3296.29	-1.00015	2.5807
C	3297.36	-1.27107	1.59933
O	3297.98	-2.32633	1.61393
H	3296.18	-1.87167	3.26323
H	3295.32	-0.839135	2.05629
H	3296.54	-0.100161	3.18175
N	3297.61	-0.303984	0.714216
C	3298.63	-0.420071	-0.302203
C	3298.99	0.979319	-0.757353
O	3298.29	1.94118	-0.462133
H	3297.12	0.562872	0.731025
H	3299.51	-0.866058	0.133625
C	3298.13	-1.25571	-1.50227
H	3297.22	-0.795707	-1.94654
H	3298.91	-1.34722	-2.28671
H	3297.86	-2.27808	-1.15548
N	3300.13	1.12796	-1.47306
C	3300.56	2.42411	-1.93923
H	3300.69	0.338226	-1.69565
H	3301.51	2.33825	-2.50998
H	3300.73	3.11443	-1.08095
H	3299.79	2.88048	-2.60446
