44
  This energy is 4.84184e-321 and Call times are: 73653
C	-0.311117	-1.38273	-3.18079
C	-0.86348	-1.03941	-1.85104
O	-2.05025	-1.19653	-1.5993
H	-1.12805	-1.76614	-3.82999
H	0.466998	-2.16842	-3.08058
H	0.132361	-0.482109	-3.6553
N	0.000154331	-0.549216	-0.958731
C	-0.386685	-0.169563	0.376577
C	0.65815	0.791875	0.908738
O	1.74017	0.922446	0.339517
H	0.958754	-0.398623	-1.18532
H	-1.32952	0.360714	0.332412
C	-0.495498	-1.40166	1.30243
H	0.473279	-1.94368	1.34489
H	-0.793333	-1.11294	2.33137
H	-1.26314	-2.09865	0.901088
N	0.347414	1.5071	2.00778
C	1.27478	2.45556	2.57926
H	-0.536144	1.39239	2.44983
H	0.836362	2.94101	3.47892
H	1.52887	3.25027	1.84095
H	2.22018	1.9486	2.87992
C	3488.24	-1.71887	-1.44437
C	3489.11	-0.528569	-1.33109
O	3489.03	0.393688	-2.13068
H	3487.57	-1.6027	-2.32613
H	3487.61	-1.82334	-0.532484
H	3488.85	-2.63353	-1.57723
N	3489.98	-0.526901	-0.320511
C	3490.9	0.560139	-0.0795528
C	3492.04	0.0291117	0.76411
O	3491.95	-1.06036	1.32726
H	3490.06	-1.29722	0.306943
H	3491.31	0.887896	-1.02479
C	3490.2	1.73165	0.647368
H	3489.78	1.39173	1.61634
H	3490.9	2.57044	0.834342
H	3489.37	2.11088	0.0196631
N	3493.15	0.782247	0.853015
C	3494.3	0.35235	1.62398
H	3493.21	1.65769	0.384114
H	3495.11	1.10858	1.57499
H	3494.69	-0.613947	1.23506
H	3494.02	0.206161	2.6926
