44
  This energy is 2.88287e-320 and Call times are: 113049
C	0.0619178	2.96891	-1.81876
C	0.525386	1.58536	-1.56936
O	1.26657	1.01477	-2.35776
H	0.485845	3.33047	-2.78074
H	0.401928	3.63941	-1.00166
H	-1.04635	2.99595	-1.88165
N	0.0858338	1.00542	-0.450066
C	0.449535	-0.336288	-0.0701173
C	-0.590038	-0.840421	0.911909
O	-1.3839	-0.0644023	1.4405
H	-0.54097	1.47027	0.169588
H	0.411123	-0.972456	-0.945268
C	1.85316	-0.377492	0.574286
H	1.8892	0.276746	1.47139
H	2.13643	-1.40915	0.867905
H	2.60536	-0.0046915	-0.154661
N	-0.622879	-2.16404	1.16284
C	-1.58575	-2.73661	2.07456
H	0.0233604	-2.77658	0.719672
H	-1.45068	-3.83823	2.14835
H	-2.62469	-2.53338	1.72737
H	-1.47051	-2.30015	3.09308
C	5352.46	0.437179	3.32541
C	5353.49	0.289021	2.2716
O	5354.68	0.439229	2.52191
H	5352.96	0.694429	4.28752
H	5351.91	-0.514212	3.45132
H	5351.75	1.24871	3.05707
N	5353.05	-0.00838418	1.04783
C	5353.93	-0.184438	-0.0803899
C	5353.11	0.0114305	-1.3427
O	5351.88	0.0210252	-1.301
H	5352.08	-0.0995097	0.850452
H	5354.69	0.586073	-0.0576947
C	5354.57	-1.5885	-0.0773641
H	5353.79	-2.37653	-0.100015
H	5355.25	-1.72739	-0.944675
H	5355.17	-1.71991	0.85285
N	5353.78	0.194943	-2.49805
C	5353.09	0.40114	-3.74817
H	5354.78	0.190989	-2.50998
H	5353.81	0.530533	-4.58272
H	5352.45	1.31067	-3.69632
H	5352.43	-0.469582	-3.98309
