44
  This energy is 3.37743e-320 and Call times are: 31989
C	2.28499	-2.55332	0.620874
C	1.69152	-1.52395	-0.261961
O	2.18744	-1.26052	-1.34877
H	3.18714	-2.98083	0.131776
H	1.55404	-3.36914	0.802468
H	2.5821	-2.10104	1.59047
N	0.601017	-0.905853	0.197511
C	-0.0891643	0.117572	-0.546181
C	-0.908345	0.933863	0.434558
O	-1.10564	0.528949	1.57865
H	0.223537	-1.10884	1.09709
H	0.640844	0.778888	-0.995427
C	-1.00895	-0.495192	-1.62583
H	-1.75617	-1.17358	-1.16155
H	-1.54181	0.290078	-2.20045
H	-0.397072	-1.09156	-2.33723
N	-1.3884	2.12024	0.0125938
C	-2.16883	2.97134	0.880199
H	-1.21187	2.43363	-0.914691
H	-2.47265	3.9007	0.349883
H	-1.58052	3.2586	1.78165
H	-3.08967	2.44559	1.22199
C	1521.1	-1.3597	-2.8827
C	1521.15	-0.444637	-1.72002
O	1522.16	0.185026	-1.44962
H	1522.09	-1.35265	-3.39419
H	1520.32	-1.02781	-3.6007
H	1520.88	-2.3943	-2.5472
N	1520.03	-0.355195	-0.992098
C	1519.92	0.492628	0.167998
C	1518.78	-0.0255686	1.01645
O	1517.97	-0.8385	0.560913
H	1519.22	-0.895395	-1.20559
H	1520.83	0.408574	0.7529
C	1519.66	1.96249	-0.232026
H	1518.73	2.04496	-0.832501
H	1519.58	2.61809	0.658853
H	1520.51	2.32985	-0.854116
N	1518.69	0.419805	2.28519
C	1517.64	-0.0272073	3.17086
H	1519.35	1.07211	2.6375
H	1517.73	0.453655	4.16922
H	1517.68	-1.1319	3.30806
H	1516.64	0.227894	2.75401
