44
  This energy is 7.17729e-320 and Call times are: 95409
C	0.605766	2.21153	2.62074
C	-0.0137457	0.985567	2.069
O	-0.593883	0.188836	2.79368
H	0.449159	2.23897	3.72101
H	0.13971	3.11233	2.16888
H	1.69648	2.21626	2.41274
N	0.10353	0.803156	0.751682
C	-0.446437	-0.340628	0.0689489
C	0.290438	-0.496405	-1.2471
O	0.998993	0.409557	-1.68186
H	0.603713	1.44483	0.176349
H	-0.256254	-1.22788	0.659451
C	-1.96038	-0.168633	-0.186974
H	-2.15193	0.742867	-0.792444
H	-2.38711	-1.04762	-0.712391
H	-2.48861	-0.0543401	0.784652
N	0.156308	-1.66534	-1.90406
C	0.829748	-1.90877	-3.15841
H	-0.415926	-2.38892	-1.53229
H	0.592323	-2.92575	-3.54133
H	1.93402	-1.83041	-3.03314
H	0.515423	-1.16338	-3.92442
C	4516.38	-1.66525	-1.73108
C	4517.08	-1.31016	-0.477411
O	4516.63	-1.63615	0.61306
H	4515.45	-2.22632	-1.48593
H	4517.03	-2.30441	-2.36561
H	4516.11	-0.745814	-2.29051
N	4518.21	-0.617037	-0.608635
C	4519.01	-0.199037	0.518008
C	4519.88	0.958004	0.0694467
O	4520.02	1.21552	-1.12502
H	4518.55	-0.332296	-1.50108
H	4518.35	0.166784	1.29652
C	4519.89	-1.35432	1.04443
H	4520.56	-1.72763	0.243031
H	4520.5	-1.03594	1.91206
H	4519.24	-2.196	1.36871
N	4520.48	1.69943	1.0246
C	4521.31	2.82789	0.692632
H	4520.35	1.47937	1.98594
H	4521.71	3.30671	1.61434
H	4520.74	3.59143	0.122167
H	4522.18	2.50598	0.0644091
