44
  This energy is 3.33346e-320 and Call times are: 14223
C	2.90363	-0.152785	-1.91618
C	1.44259	-0.32402	-1.75107
O	0.724936	-0.589243	-2.7056
H	3.17171	-0.296202	-2.98549
H	3.44821	-0.903264	-1.30542
H	3.20718	0.868471	-1.6034
N	0.963115	-0.167364	-0.514978
C	-0.435773	-0.302792	-0.19623
C	-0.689156	0.427276	1.10839
O	0.246865	0.779467	1.82369
H	1.55404	0.0773165	0.249136
H	-1.02077	0.185386	-0.965346
C	-0.840779	-1.78769	-0.0614202
H	-0.238237	-2.28559	0.727979
H	-1.91734	-1.8956	0.183834
H	-0.649218	-2.31159	-1.02318
N	-1.96867	0.691647	1.43847
C	-2.3057	1.39268	2.65549
H	-2.71175	0.404708	0.842882
H	-3.40773	1.51145	2.7486
H	-1.84184	2.40558	2.66676
H	-1.93669	0.834044	3.54596
C	678.203	-0.802116	-3.3357
C	677.891	-0.917361	-1.89335
O	676.896	-1.51537	-1.5074
H	677.414	-1.31774	-3.92475
H	679.183	-1.27718	-3.55419
H	678.236	0.266329	-3.63622
N	678.747	-0.33156	-1.05264
C	678.578	-0.357514	0.378341
C	679.379	0.790249	0.96267
O	680.212	1.3856	0.282684
H	679.538	0.177524	-1.3808
H	677.536	-0.184543	0.612963
C	679.058	-1.69863	0.977024
H	680.128	-1.8732	0.733857
H	678.929	-1.72207	2.0787
H	678.465	-2.53137	0.540114
N	679.126	1.14262	2.23861
C	679.83	2.23094	2.87555
H	678.442	0.653159	2.77009
H	679.483	2.36403	3.92386
H	679.659	3.18479	2.32589
H	680.927	2.03367	2.89166
