44
  This energy is 9.15998e-321 and Call times are: 67605
C	0.670687	-3.4087	-0.238933
C	-0.172142	-2.22504	-0.521415
O	-1.13673	-2.2995	-1.2701
H	0.27805	-4.28229	-0.803327
H	0.649768	-3.64307	0.846172
H	1.71771	-3.21748	-0.555367
N	0.184197	-1.08663	0.0781021
C	-0.537049	0.148524	-0.09801
C	0.393933	1.28797	0.268271
O	1.44392	1.07289	0.870854
H	0.98921	-1.03209	0.662837
H	-0.796287	0.25863	-1.14335
C	-1.80311	0.191639	0.786493
H	-1.53356	0.0777327	1.85817
H	-2.36093	1.1413	0.65324
H	-2.47625	-0.648671	0.509167
N	0.0382253	2.53177	-0.109149
C	0.867683	3.67699	0.185216
H	-0.811925	2.68438	-0.602291
H	0.403564	4.60944	-0.205144
H	1.87316	3.56413	-0.28118
H	1.00772	3.78867	1.28481
C	3204.28	2.67837	-0.685728
C	3205.63	2.10435	-0.484589
O	3206.64	2.76579	-0.697245
H	3204.38	3.72728	-1.04122
H	3203.72	2.6734	0.270516
H	3203.73	2.09086	-1.44602
N	3205.68	0.836712	-0.068609
C	3206.92	0.140572	0.171913
C	3206.64	-1.34793	0.113147
O	3205.48	-1.76991	0.143238
H	3204.85	0.299265	0.0731314
H	3207.62	0.374804	-0.623975
C	3207.52	0.513904	1.54708
H	3206.8	0.272904	2.36119
H	3208.47	-0.0202336	1.73544
H	3207.72	1.60684	1.57777
N	3207.69	-2.18087	0.00533454
C	3207.52	-3.61288	-0.0690969
H	3208.62	-1.81957	-0.0246733
H	3208.5	-4.12423	-0.152283
H	3206.9	-3.88871	-0.956633
H	3207	-3.99405	0.840928
