44
  This energy is 1.75097e-320 and Call times are: 106035
C	0.878654	3.33099	0.508552
C	0.554131	1.97852	1.01523
O	0.673769	1.70165	2.20078
H	1.22435	3.9663	1.35278
H	-0.0217329	3.79562	0.0544124
H	1.68654	3.27167	-0.250886
N	0.134724	1.0911	0.110282
C	-0.2189	-0.264045	0.449945
C	-0.135163	-1.09808	-0.813629
O	-0.0593235	-0.561298	-1.91724
H	0.0692535	1.32041	-0.857224
H	0.509872	-0.653007	1.14971
C	-1.6429	-0.341652	1.04434
H	-2.38791	0.0587923	0.324112
H	-1.91836	-1.38369	1.30714
H	-1.69142	0.274298	1.96867
N	-0.12502	-2.4388	-0.678133
C	-0.0357454	-3.31343	-1.82409
H	-0.180006	-2.85399	0.223989
H	-0.0435705	-4.37948	-1.5067
H	0.904316	-3.12345	-2.39104
H	-0.894605	-3.14654	-2.51379
C	5022.7	-2.21477	-2.56408
C	5023.06	-1.42884	-1.3624
O	5024.15	-1.56403	-0.820752
H	5023.55	-2.88659	-2.83011
H	5022.5	-1.53568	-3.41898
H	5021.8	-2.83233	-2.36216
N	5022.14	-0.580237	-0.909667
C	5022.34	0.252835	0.248637
C	5020.98	0.666465	0.769466
O	5019.97	0.508963	0.0846859
H	5021.24	-0.500397	-1.34252
H	5022.83	-0.330744	1.02132
C	5023.18	1.50351	-0.0978632
H	5022.68	2.09952	-0.891317
H	5023.34	2.14711	0.791812
H	5024.17	1.18702	-0.479292
N	5020.92	1.18843	2.01027
C	5019.66	1.59974	2.59428
H	5021.74	1.30121	2.55143
H	5019.82	2.00441	3.61847
H	5018.96	0.738072	2.66161
H	5019.18	2.39052	1.97456
