44
  This energy is 3.70006e-320 and Call times are: 56097
C	-0.644347	-1.37323	-3.13452
C	-0.956932	-0.429632	-2.03765
O	-1.82047	0.427121	-2.16713
H	-1.29367	-1.1486	-4.00846
H	-0.832102	-2.41717	-2.80625
H	0.418071	-1.26738	-3.43949
N	-0.244173	-0.56589	-0.917034
C	-0.432965	0.276761	0.23671
C	0.828234	0.207474	1.07565
O	1.67261	-0.662469	0.870563
H	0.476622	-1.24893	-0.834323
H	-0.553645	1.30126	-0.0917906
C	-1.65166	-0.176749	1.07112
H	-1.52483	-1.22839	1.40591
H	-1.80001	0.470032	1.96019
H	-2.56881	-0.122561	0.44499
N	0.995228	1.14246	2.03163
C	2.17014	1.16299	2.87147
H	0.303842	1.84245	2.17737
H	2.12091	2.00548	3.59606
H	3.09097	1.28344	2.25599
H	2.26009	0.212052	3.44489
C	2662.7	-1.30294	0.430082
C	2661.4	-1.2527	-0.274074
O	2661.21	-1.89053	-1.30076
H	2663.39	-1.97085	-0.126131
H	2662.56	-1.7016	1.45739
H	2663.15	-0.287315	0.484072
N	2660.46	-0.474783	0.269678
C	2659.15	-0.323537	-0.299057
C	2658.55	0.967883	0.231718
O	2659.06	1.54692	1.18834
H	2660.64	0.0626054	1.09027
H	2659.24	-0.226822	-1.37357
C	2658.23	-1.51565	0.067713
H	2658.14	-1.61235	1.17076
H	2657.22	-1.40248	-0.368731
H	2658.68	-2.45563	-0.325642
N	2657.47	1.46249	-0.395337
C	2656.84	2.69274	0.0321068
H	2657.07	0.982902	-1.17214
H	2655.97	2.9308	-0.607492
H	2657.56	3.54104	-0.030722
H	2656.5	2.61149	1.08777
