44
  This energy is 1.57518e-319 and Call times are: 30687
C	-1.21989	-2.83925	1.60519
C	-0.241037	-1.73634	1.47626
O	0.605362	-1.53795	2.33693
H	-1.03797	-3.38227	2.55803
H	-1.10877	-3.55018	0.759582
H	-2.25382	-2.43446	1.61395
N	-0.341743	-0.979062	0.381382
C	0.53843	0.130451	0.114729
C	-0.153005	1.0458	-0.876879
O	-1.14566	0.666922	-1.49567
H	-1.05402	-1.13277	-0.298306
H	0.687239	0.68937	1.0299
C	1.89054	-0.349352	-0.458593
H	1.73411	-0.92293	-1.39703
H	2.57075	0.502428	-0.664924
H	2.38644	-1.01991	0.276652
N	0.346434	2.28742	-1.03487
C	-0.252976	3.23247	-1.94797
H	1.14618	2.57761	-0.519668
H	0.30247	4.19611	-1.93728
H	-1.31141	3.43486	-1.66514
H	-0.24377	2.8339	-2.98828
C	1464.04	-0.889642	-1.45394
C	1462.57	-0.731531	-1.50529
O	1461.95	-0.892227	-2.54907
H	1464.41	-1.1511	-2.4666
H	1464.31	-1.70208	-0.748096
H	1464.51	0.0589069	-1.12721
N	1461.96	-0.401613	-0.359877
C	1460.54	-0.212832	-0.251035
C	1460.27	0.631274	0.980344
O	1461.16	0.815346	1.81808
H	1462.48	-0.244974	0.477266
H	1460.19	0.343217	-1.11227
C	1459.8	-1.56465	-0.137958
H	1460.16	-2.13275	0.746225
H	1458.7	-1.42297	-0.054142
H	1460	-2.17401	-1.0454
N	1459.05	1.18464	1.10736
C	1458.71	2.01326	2.24041
H	1458.36	1.0297	0.415099
H	1457.66	2.37228	2.16384
H	1459.38	2.90108	2.29344
H	1458.82	1.44237	3.1911
