44
  This energy is 5.05577e-320 and Call times are: 8805
C	2.97319	-1.25728	-1.30595
C	1.8437	-1.31527	-0.350921
O	1.69085	-2.27632	0.390367
H	3.58013	-2.18408	-1.21369
H	3.6183	-0.381576	-1.08278
H	2.59171	-1.17952	-2.34584
N	1.01109	-0.271658	-0.353123
C	-0.132937	-0.182627	0.518712
C	-1.10337	0.813118	-0.0862554
O	-0.749911	1.56325	-0.994108
H	1.12976	0.491968	-0.982192
H	-0.626821	-1.14551	0.550575
C	0.275687	0.269225	1.93856
H	0.782656	1.25704	1.90209
H	-0.602803	0.338682	2.61251
H	0.987461	-0.467794	2.37021
N	-2.36331	0.827439	0.391621
C	-3.35956	1.73307	-0.131336
H	-2.63185	0.207625	1.12165
H	-4.33122	1.5934	0.391741
H	-3.5188	1.55601	-1.2197
H	-3.03795	2.79125	0.00287372
C	420.486	0.0897981	-1.06606
C	421.564	0.485619	-0.131998
O	421.373	1.32897	0.733347
H	419.568	0.671998	-0.834899
H	420.263	-0.992266	-0.956083
H	420.791	0.299534	-2.11308
N	422.742	-0.121672	-0.294194
C	423.886	0.156877	0.536734
C	425.127	-0.27845	-0.217954
O	425.038	-0.992055	-1.21531
H	422.893	-0.785816	-1.02149
H	423.955	1.2258	0.694042
C	423.796	-0.589475	1.88653
H	423.725	-1.68574	1.72141
H	424.675	-0.377107	2.52887
H	422.882	-0.262672	2.42905
N	426.319	0.16231	0.231341
C	427.553	-0.190787	-0.430029
H	426.369	0.744822	1.03593
H	428.423	0.267047	0.0904965
H	427.549	0.165449	-1.48564
H	427.692	-1.29615	-0.439194
