44
  This energy is 7.35021e-320 and Call times are: 82557
C	-0.447439	-0.80697	-3.35779
C	0.266271	-0.949483	-2.06879
O	1.13347	-1.79875	-1.91644
H	-0.0657829	-1.56597	-4.0748
H	-0.275341	0.205212	-3.7805
H	-1.53665	-0.966018	-3.21196
N	-0.0942153	-0.109913	-1.09537
C	0.508635	-0.12568	0.213499
C	-0.449536	0.548766	1.17593
O	-1.39847	1.2098	0.758318
H	-0.822372	0.558294	-1.22275
H	0.627692	-1.15299	0.533698
C	1.86812	0.608422	0.215509
H	1.7424	1.66182	-0.114115
H	2.33515	0.598042	1.22177
H	2.56056	0.105463	-0.494218
N	-0.234019	0.377808	2.49514
C	-1.10104	0.972166	3.48569
H	0.535215	-0.166621	2.81312
H	-0.757377	0.71778	4.51254
H	-2.14579	0.604603	3.36465
H	-1.11141	2.08156	3.3841
C	3912.08	-0.590039	-3.43088
C	3911.36	-0.519438	-2.13956
O	3910.15	-0.639588	-2.08624
H	3911.35	-0.751558	-4.25153
H	3912.8	-1.43448	-3.42119
H	3912.63	0.359013	-3.61748
N	3912.11	-0.313501	-1.05351
C	3911.56	-0.221463	0.272954
C	3912.56	0.510534	1.14714
O	3913.71	0.685546	0.768384
H	3913.1	-0.188149	-1.11336
H	3910.65	0.374753	0.235578
C	3911.26	-1.62092	0.858387
H	3912.19	-2.23011	0.894657
H	3910.84	-1.55373	1.87963
H	3910.53	-2.14725	0.208362
N	3912.12	0.976559	2.33542
C	3913	1.69586	3.22937
H	3911.18	0.831017	2.62086
H	3912.46	1.99424	4.15479
H	3913.39	2.6169	2.73937
H	3913.87	1.06336	3.51961
