44
  This energy is 5.60172e-320 and Call times are: 114141
C	0.672733	3.37635	0.523304
C	0.127591	2.26924	-0.294221
O	-0.508152	2.49077	-1.31562
H	0.398687	4.34724	0.0562666
H	1.77933	3.30317	0.577197
H	0.249716	3.33895	1.54927
N	0.364244	1.03241	0.149184
C	-0.100928	-0.146335	-0.53711
C	-0.12476	-1.28763	0.460944
O	0.445706	-1.18631	1.54544
H	0.858484	0.865802	0.998245
H	-1.11714	0.0193197	-0.871693
C	0.815732	-0.501873	-1.72893
H	1.85758	-0.670499	-1.38219
H	0.460353	-1.40894	-2.2597
H	0.825545	0.342536	-2.45214
N	-0.808599	-2.39877	0.123695
C	-0.896515	-3.5317	1.01528
H	-1.26955	-2.45869	-0.755604
H	-1.49959	-4.34653	0.55746
H	-1.3764	-3.23847	1.97703
H	0.117839	-3.93193	1.2435
C	5408.39	-1.05785	1.44208
C	5407.63	-0.305562	0.414631
O	5408.2	0.435082	-0.373903
H	5409.47	-0.819352	1.35107
H	5408.25	-2.14966	1.29721
H	5408.04	-0.772289	2.45752
N	5406.31	-0.478447	0.406101
C	5405.44	0.184533	-0.533282
C	5404.04	0.186251	0.0483294
O	5403.76	-0.529405	1.00719
H	5405.85	-1.06204	1.07241
H	5405.76	1.21529	-0.636535
C	5405.45	-0.528324	-1.90402
H	5405.12	-1.5857	-1.7943
H	5404.78	-0.0203435	-2.62978
H	5406.48	-0.523889	-2.31885
N	5403.13	1.0124	-0.508799
C	5401.78	1.09058	-0.0143319
H	5403.38	1.58895	-1.27952
H	5401.19	1.82442	-0.604279
H	5401.77	1.40889	1.05328
H	5401.28	0.0982731	-0.0838494
