44
  This energy is 1.20241e-319 and Call times are: 5403
C	2.19245	-2.67768	0.386422
C	1.07737	-1.82912	0.86365
O	0.442598	-2.12407	1.86693
H	2.30623	-3.55066	1.06526
H	3.13983	-2.09864	0.383818
H	1.98159	-3.0455	-0.639826
N	0.807624	-0.74122	0.138344
C	-0.246744	0.181459	0.475686
C	-0.606545	0.956073	-0.777212
O	0.126418	0.930767	-1.7641
H	1.31311	-0.527378	-0.693336
H	-1.12183	-0.379575	0.778224
C	0.19263	1.15344	1.59341
H	1.09098	1.72688	1.27996
H	-0.616919	1.8652	1.85573
H	0.454601	0.573662	2.50521
N	-1.76226	1.64912	-0.77336
C	-2.1929	2.40666	-1.92525
H	-2.3452	1.65131	0.0324993
H	-3.16587	2.90728	-1.72535
H	-2.31668	1.74054	-2.80968
H	-1.44284	3.18864	-2.18427
C	265.441	-0.580294	3.42509
C	265.001	-0.97059	2.06659
O	264.51	-2.07009	1.85236
H	265.252	-1.42059	4.12794
H	264.875	0.310525	3.76934
H	266.527	-0.349828	3.42449
N	265.178	-0.0636923	1.10284
C	264.8	-0.296628	-0.268228
C	265.587	0.664318	-1.13805
O	266.183	1.61753	-0.64093
H	265.606	0.817453	1.28453
H	265.087	-1.3027	-0.546323
C	263.284	-0.0834951	-0.477957
H	262.993	0.949404	-0.191064
H	262.99	-0.262184	-1.53256
H	262.719	-0.792434	0.165535
N	265.624	0.42116	-2.46301
C	266.357	1.27507	-3.36783
H	265.14	-0.35946	-2.84518
H	266.265	0.910693	-4.41467
H	267.438	1.29618	-3.09858
H	265.97	2.31882	-3.32417
