44
  This energy is 2.39523e-320 and Call times are: 74367
C	-0.635772	0.0880125	-3.4226
C	-0.293009	0.752241	-2.1449
O	0.028321	1.93213	-2.11165
H	-0.539167	0.819386	-4.25424
H	-1.68117	-0.284804	-3.39156
H	0.0540261	-0.761825	-3.60941
N	-0.349687	-0.00680244	-1.04808
C	-0.0448591	0.49655	0.26742
C	0.297354	-0.686983	1.15138
O	0.0433302	-1.83482	0.791148
H	-0.584602	-0.974185	-1.09193
H	0.832924	1.12746	0.208072
C	-1.23896	1.27606	0.862061
H	-2.13792	0.626032	0.920883
H	-1.0076	1.66517	1.8749
H	-1.48046	2.13966	0.204778
N	0.9055	-0.43394	2.32702
C	1.27969	-1.49841	3.22871
H	1.10907	0.501305	2.5974
H	1.76542	-1.08813	4.1414
H	1.99343	-2.19784	2.73615
H	0.383723	-2.08246	3.54067
C	3526.37	-3.05972	-0.780029
C	3525.19	-2.2315	-0.43337
O	3524.06	-2.69876	-0.453618
H	3526.03	-4.08628	-1.0412
H	3527.06	-3.1187	0.0844278
H	3526.9	-2.62351	-1.65174
N	3525.44	-0.96007	-0.107916
C	3524.4	-0.031337	0.253157
C	3524.93	1.37218	0.0470462
O	3526.13	1.56829	-0.116314
H	3526.36	-0.583509	-0.123379
H	3523.56	-0.165047	-0.417826
C	3523.96	-0.221968	1.72213
H	3524.82	-0.0847582	2.40768
H	3523.15	0.491472	2.00343
H	3523.57	-1.25423	1.8603
N	3524.04	2.38425	0.0282302
C	3524.46	3.7525	-0.173783
H	3523.07	2.20431	0.155146
H	3523.58	4.43708	-0.154675
H	3524.97	3.8663	-1.15659
H	3525.17	4.06929	0.624258
