44
  This energy is 9.92627e-320 and Call times are: 10653
C	-2.75906	-1.42604	1.57484
C	-1.5898	-0.518312	1.56723
O	-1.38006	0.250815	2.4951
H	-3.34334	-1.26453	2.50671
H	-2.4226	-2.4836	1.54042
H	-3.41144	-1.21739	0.700879
N	-0.793514	-0.585964	0.497779
C	0.382329	0.23324	0.345704
C	0.725908	0.285701	-1.13025
O	0.20904	-0.498072	-1.92421
H	-0.99122	-1.19599	-0.264922
H	0.15251	1.24155	0.66598
C	1.57292	-0.337134	1.14838
H	1.80554	-1.37186	0.817714
H	2.47992	0.291313	1.03363
H	1.30817	-0.371483	2.22767
N	1.5957	1.2315	-1.53635
C	1.97335	1.36499	-2.92406
H	1.99771	1.86101	-0.879578
H	2.69859	2.198	-3.05586
H	1.08004	1.57477	-3.5559
H	2.44584	0.426669	-3.29485
C	515.054	0.360625	-1.1855
C	513.815	-0.428197	-1.0046
O	513.671	-1.51366	-1.55
H	515.745	-0.190551	-1.85971
H	515.555	0.516094	-0.206806
H	514.818	1.34575	-1.6402
N	512.876	0.113425	-0.225566
C	511.617	-0.53329	0.0457514
C	510.633	0.530614	0.493292
O	511.023	1.65216	0.812936
H	512.993	1.0116	0.189639
H	511.238	-0.965826	-0.871779
C	511.764	-1.6145	1.13956
H	512.153	-1.16743	2.07923
H	510.796	-2.11457	1.35084
H	512.488	-2.3872	0.800095
N	509.325	0.207284	0.505346
C	508.315	1.15919	0.90534
H	509.029	-0.703358	0.236306
H	507.302	0.703911	0.850029
H	508.334	2.05407	0.241968
H	508.489	1.50102	1.95126
