44
  This energy is 1.47889e-319 and Call times are: 6453
C	2.76373	0.906298	-1.91482
C	1.30564	0.719675	-1.7406
O	0.513775	1.09067	-2.59605
H	2.95594	1.41027	-2.8869
H	3.27836	-0.0775582	-1.9122
H	3.16943	1.5375	-1.09633
N	0.913995	0.135392	-0.605875
C	-0.470298	-0.114723	-0.292823
C	-0.585049	-0.283483	1.20971
O	0.417344	-0.450818	1.90183
H	1.56696	-0.13599	0.0962151
H	-1.05632	0.751638	-0.572229
C	-0.989561	-1.38043	-1.01079
H	-0.385707	-2.26716	-0.722382
H	-2.0552	-1.57587	-0.77206
H	-0.899028	-1.24463	-2.11056
N	-1.81648	-0.221168	1.75349
C	-2.02198	-0.359077	3.17649
H	-2.61449	-0.0779536	1.17738
H	-3.10288	-0.281009	3.4271
H	-1.47514	0.437327	3.73142
H	-1.64962	-1.34652	3.53353
C	312.259	-0.666937	-1.7407
C	313.712	-0.388233	-1.69916
O	314.398	-0.455939	-2.70962
H	311.965	-0.929751	-2.7801
H	311.688	0.23038	-1.42177
H	312.013	-1.51822	-1.07151
N	314.221	-0.069002	-0.506827
C	315.616	0.229191	-0.306973
C	315.93	0.0295677	1.16316
O	315.025	-0.0789244	1.98939
H	313.657	-0.0456325	0.31427
H	316.211	-0.479142	-0.869224
C	315.948	1.67802	-0.728865
H	315.335	2.40202	-0.150581
H	317.022	1.91093	-0.576432
H	315.713	1.81167	-1.80733
N	317.226	-0.0455798	1.52138
C	317.62	-0.246319	2.89648
H	317.943	0.0373963	0.836963
H	318.728	-0.278458	2.98757
H	317.208	-1.20505	3.28706
H	317.239	0.580236	3.53906
