44
  This energy is 1.01288e-319 and Call times are: 58533
C	-2.72629	0.0302869	2.16623
C	-1.79763	0.707189	1.23317
O	-1.98597	1.8635	0.881072
H	-3.54672	0.729013	2.43925
H	-2.18859	-0.270946	3.08979
H	-3.16525	-0.868733	1.68454
N	-0.760421	-0.0140573	0.801477
C	0.228506	0.506027	-0.108668
C	0.915603	-0.671386	-0.772621
O	0.782232	-1.80976	-0.327486
H	-0.633985	-0.964494	1.07281
H	-0.270478	1.07502	-0.882837
C	1.26709	1.38043	0.628819
H	1.77661	0.793765	1.42276
H	2.02996	1.78263	-0.0690595
H	0.751059	2.23865	1.11183
N	1.65357	-0.425248	-1.873
C	2.33456	-1.48553	-2.57885
H	1.74344	0.501837	-2.22181
H	2.88889	-1.08208	-3.45475
H	1.60615	-2.24506	-2.94462
H	3.06217	-1.99919	-1.90959
C	2774.47	-1.83023	2.77913
C	2775.21	-1.70915	1.49821
O	2775.93	-2.60782	1.09768
H	2774.71	-2.80989	3.24732
H	2773.38	-1.77413	2.6011
H	2774.78	-1.01734	3.47193
N	2775.03	-0.572489	0.820225
C	2775.67	-0.307679	-0.441458
C	2775.68	1.19373	-0.653359
O	2774.99	1.93108	0.0397926
H	2774.46	0.164099	1.17124
H	2776.7	-0.639174	-0.387517
C	2774.94	-1.00374	-1.60679
H	2773.88	-0.661863	-1.65879
H	2775.43	-0.802054	-2.57975
H	2774.94	-2.10284	-1.43909
N	2776.5	1.6848	-1.6083
C	2776.58	3.10209	-1.87334
H	2777.06	1.07239	-2.15382
H	2777.31	3.30596	-2.69469
H	2776.92	3.65202	-0.96524
H	2775.59	3.50647	-2.17183
