44
  This energy is 1.40463e-319 and Call times are: 66345
C	-2.36959	-2.54358	0.20343
C	-1.84269	-1.30114	-0.404779
O	-2.34897	-0.825808	-1.41187
H	-3.2291	-2.91118	-0.398209
H	-2.71504	-2.3455	1.23989
H	-1.58169	-3.32582	0.219869
N	-0.792348	-0.74317	0.201704
C	-0.168873	0.467097	-0.270906
C	1.23701	0.518557	0.294858
O	1.57457	-0.231295	1.20897
H	-0.370751	-1.15595	1.0047
H	-0.087945	0.423148	-1.34961
C	-0.963868	1.71743	0.166996
H	-1.04554	1.75901	1.27412
H	-0.48664	2.65109	-0.195367
H	-1.99214	1.66712	-0.252848
N	2.1001	1.39575	-0.254322
C	3.46289	1.50708	0.211089
H	1.80991	1.98896	-0.998044
H	4.0127	2.28416	-0.36433
H	3.99914	0.537806	0.0919968
H	3.48844	1.78556	1.2895
C	3148.21	-3.02367	-1.00248
C	3148.28	-1.56166	-0.783629
O	3149.34	-0.957393	-0.910729
H	3149.21	-3.40797	-1.27137
H	3147.5	-3.25022	-1.83089
H	3147.86	-3.53193	-0.0768523
N	3147.15	-0.953526	-0.438131
C	3147.06	0.463847	-0.191784
C	3145.83	0.716918	0.652976
O	3144.97	-0.155392	0.794187
H	3146.3	-1.46139	-0.309371
H	3147.92	0.773019	0.384748
C	3146.97	1.2601	-1.51288
H	3146.09	0.939925	-2.10213
H	3146.91	2.35184	-1.32686
H	3147.88	1.06524	-2.12306
N	3145.72	1.91749	1.25513
C	3144.58	2.24418	2.08825
H	3146.42	2.6076	1.13434
H	3144.68	3.27701	2.49072
H	3144.51	1.53848	2.9473
H	3143.64	2.17809	1.50612
