44
  This energy is 9.53102e-320 and Call times are: 46101
C	0.569014	3.11387	-1.45126
C	-0.336931	2.02998	-1.00895
O	-1.55186	2.17028	-1.03665
H	-0.0355799	3.98995	-1.7719
H	1.18661	2.77063	-2.30775
H	1.23355	3.42187	-0.616706
N	0.245891	0.908596	-0.578613
C	-0.501976	-0.233413	-0.116728
C	0.416157	-1.0714	0.751633
O	1.63032	-0.87738	0.752754
H	1.23714	0.817307	-0.533486
H	-1.31981	0.10934	0.504355
C	-1.02978	-1.07592	-1.2994
H	-0.188214	-1.42534	-1.93484
H	-1.60623	-1.95599	-0.947317
H	-1.70005	-0.450433	-1.92841
N	-0.14922	-2.01385	1.53147
C	0.644365	-2.85159	2.40013
H	-1.13431	-2.15069	1.52174
H	-0.00254057	-3.56429	2.95765
H	1.20289	-2.23313	3.13958
H	1.38569	-3.43824	1.81068
C	2191.32	-1.03236	1.39151
C	2190.54	-0.274411	0.386033
O	2191.09	0.490464	-0.394338
H	2192.4	-0.773497	1.29392
H	2191.2	-2.12357	1.22774
H	2190.98	-0.77166	2.41559
N	2189.22	-0.470032	0.387798
C	2188.33	0.19503	-0.530133
C	2186.94	0.161725	0.0656784
O	2186.68	-0.576327	1.01387
H	2188.78	-1.07366	1.04773
H	2188.63	1.23282	-0.617347
C	2188.33	-0.492185	-1.91391
H	2188.03	-1.55684	-1.82065
H	2187.65	0.0174637	-2.62321
H	2189.36	-0.462205	-2.3391
N	2186.01	0.98217	-0.466648
C	2184.66	1.02771	0.0430004
H	2186.24	1.57712	-1.229
H	2184.05	1.76194	-0.527076
H	2184.65	1.326	1.11642
H	2184.17	0.0283064	-0.0398894
