44
  This energy is 5.28107e-320 and Call times are: 81759
C	1.98346	-2.85687	-0.174136
C	0.80324	-2.06457	-0.587098
O	0.083443	-2.43337	-1.5049
H	2.06418	-3.75888	-0.818899
H	1.87701	-3.17919	0.883027
H	2.90821	-2.25222	-0.284568
N	0.57999	-0.936076	0.0904238
C	-0.528009	-0.0596492	-0.194258
C	-0.193118	1.31056	0.362166
O	0.741689	1.45901	1.14698
H	1.19032	-0.63162	0.81688
H	-0.632891	0.0377504	-1.26738
C	-1.83682	-0.584189	0.43739
H	-1.72547	-0.683541	1.53823
H	-2.69205	0.0882065	0.220006
H	-2.07045	-1.58889	0.0224919
N	-0.940447	2.3529	-0.0513869
C	-0.687792	3.69618	0.415457
H	-1.68802	2.21337	-0.692396
H	-1.40895	4.41196	-0.0371427
H	0.343435	4.01896	0.144118
H	-0.786739	3.75227	1.52372
C	3875.72	-2.21462	2.06794
C	3875.32	-0.844395	1.6737
O	3875.6	0.121313	2.36909
H	3876.26	-2.17434	3.03475
H	3876.38	-2.65672	1.29664
H	3874.82	-2.8541	2.19048
N	3874.64	-0.730422	0.531955
C	3874.18	0.536002	0.0167148
C	3873.04	0.264131	-0.95061
O	3872.83	-0.873188	-1.3667
H	3874.39	-1.52778	-0.0108519
H	3873.78	1.12561	0.833127
C	3875.32	1.29392	-0.700878
H	3875.73	0.685909	-1.53741
H	3874.97	2.26958	-1.0987
H	3876.15	1.48593	0.0180427
N	3872.27	1.30572	-1.31531
C	3871.16	1.14034	-2.22272
H	3872.46	2.21714	-0.9621
H	3870.65	2.11243	-2.40034
H	3870.42	0.424397	-1.80543
H	3871.51	0.743131	-3.20336
