44
  This energy is 6.72967e-320 and Call times are: 114561
C	-0.0162675	3.44701	-0.493963
C	0.0766639	2.25823	0.383178
O	0.358298	2.36728	1.56862
H	0.209608	4.35968	0.0992199
H	-1.04109	3.53473	-0.912125
H	0.716126	3.36797	-1.3248
N	-0.156627	1.07662	-0.192783
C	-0.103875	-0.169143	0.5298
C	0.103461	-1.28353	-0.477372
O	-0.0543488	-1.08137	-1.6799
H	-0.3565	0.998394	-1.16585
H	0.754897	-0.157499	1.18893
C	-1.40345	-0.410941	1.32965
H	-2.28249	-0.421615	0.650466
H	-1.36615	-1.36925	1.88735
H	-1.54447	0.412711	2.06303
N	0.485588	-2.48744	-0.00772944
C	0.718333	-3.60472	-0.893006
H	0.614947	-2.62912	0.968194
H	1.02321	-4.50605	-0.316903
H	1.52524	-3.36597	-1.62317
H	-0.204569	-3.85067	-1.46654
C	5424.31	-2.70866	1.89951
C	5424.16	-1.3263	1.39419
O	5423.13	-0.687108	1.60889
H	5423.39	-3.00543	2.45073
H	5425.18	-2.76687	2.58971
H	5424.47	-3.41054	1.05293
N	5425.18	-0.830056	0.694775
C	5425.17	0.499481	0.138777
C	5426.19	0.539969	-0.981231
O	5427.02	-0.359841	-1.10966
H	5425.99	-1.37115	0.501835
H	5424.2	0.695654	-0.295349
C	5425.52	1.55844	1.20996
H	5426.51	1.35377	1.6537
H	5425.51	2.58333	0.785265
H	5424.76	1.51779	2.02528
N	5426.14	1.581	-1.83549
C	5427.07	1.69794	-2.9391
H	5425.46	2.29543	-1.71899
H	5426.87	2.62215	-3.5244
H	5426.98	0.823131	-3.62286
H	5428.12	1.73858	-2.56954
