44
  This energy is 4.18819e-320 and Call times are: 32283
C	1.92762	1.12134	-2.67451
C	1.73874	0.841537	-1.23325
O	2.66745	0.938853	-0.442986
H	2.98755	1.40166	-2.85841
H	1.27381	1.96147	-2.99001
H	1.68514	0.219143	-3.27467
N	0.511388	0.475928	-0.856024
C	0.172105	0.171199	0.511036
C	-1.08405	-0.678051	0.501122
O	-1.76643	-0.779178	-0.516698
H	-0.229795	0.372048	-1.51389
H	0.966368	-0.421395	0.946987
C	-0.0633156	1.4584	1.3325
H	-0.8783	2.06425	0.882101
H	-0.324616	1.22741	2.38566
H	0.863687	2.07225	1.33104
N	-1.40738	-1.32915	1.63582
C	-2.57876	-2.17027	1.71679
H	-0.838463	-1.2402	2.44678
H	-2.67361	-2.61574	2.73158
H	-2.51951	-2.99889	0.974424
H	-3.50064	-1.58182	1.50453
C	1532.49	-2.93031	-1.43983
C	1533.08	-1.57742	-1.54298
O	1533.46	-1.13471	-2.61718
H	1532.48	-3.40424	-2.44539
H	1531.45	-2.86421	-1.06283
H	1533.09	-3.56026	-0.751877
N	1533.17	-0.883094	-0.406569
C	1533.73	0.446467	-0.346394
C	1534.16	0.70888	1.08447
O	1533.78	-0.0272358	1.99664
H	1532.89	-1.26609	0.466874
H	1534.61	0.487702	-0.967378
C	1532.7	1.50536	-0.795136
H	1531.79	1.45982	-0.156389
H	1533.12	2.53025	-0.750163
H	1532.39	1.30137	-1.84432
N	1534.97	1.75869	1.31102
C	1535.44	2.07879	2.63927
H	1535.26	2.33827	0.558598
H	1536.09	2.97657	2.61903
H	1536.02	1.22945	3.06629
H	1534.58	2.28673	3.3191
