44
  This energy is 1.19129e-319 and Call times are: 84363
C	0.511327	-2.55577	-2.30926
C	0.407373	-2.05982	-0.918428
O	0.418237	-2.83145	0.0307577
H	0.58584	-3.66492	-2.29908
H	1.41751	-2.13921	-2.79724
H	-0.38875	-2.26133	-2.88901
N	0.296587	-0.738024	-0.766915
C	0.187032	-0.105638	0.5234
C	-0.429956	1.26445	0.319888
O	-0.508778	1.75776	-0.803619
H	0.259617	-0.122213	-1.54944
H	-0.489175	-0.682367	1.14162
C	1.5681	0.0292368	1.2028
H	2.25949	0.620867	0.565561
H	1.48738	0.515636	2.19661
H	2.00996	-0.981028	1.34517
N	-0.904048	1.90425	1.40704
C	-1.51899	3.20745	1.30857
H	-0.837386	1.48529	2.30663
H	-1.84235	3.56641	2.31049
H	-2.41254	3.17104	0.644139
H	-0.803459	3.94869	0.884588
C	3997.08	1.74178	2.87042
C	3997.46	1.69767	1.44053
O	3997.41	2.7001	0.741221
H	3996.76	2.77465	3.13508
H	3997.94	1.45578	3.50534
H	3996.23	1.04803	3.06333
N	3997.85	0.51205	0.96711
C	3998.25	0.310777	-0.402476
C	3998.12	-1.16732	-0.714057
O	3997.97	-1.98946	0.188563
H	3997.86	-0.303461	1.53964
H	3997.57	0.845745	-1.05092
C	3999.7	0.77552	-0.637064
H	4000.4	0.22516	0.030238
H	4000.01	0.622104	-1.69066
H	3999.79	1.85947	-0.404224
N	3998.14	-1.53788	-2.00943
C	3998.01	-2.92166	-2.40233
H	3998.25	-0.856815	-2.72564
H	3998.06	-3.02239	-3.50904
H	3997.04	-3.33903	-2.05422
H	3998.83	-3.53486	-1.95863
