44
  This energy is 1.53373e-319 and Call times are: 6663
C	2.64312	1.98699	1.09176
C	1.20919	1.61966	1.08022
O	0.414646	2.14821	1.84561
H	2.8179	2.76028	1.87108
H	2.94062	2.39834	0.104282
H	3.26462	1.09646	1.32332
N	0.843516	0.685128	0.199706
C	-0.515284	0.223096	0.0692647
C	-0.482638	-1.1372	-0.599885
O	0.538897	-1.54194	-1.15169
H	1.50541	0.241136	-0.398381
H	-0.939286	0.0937206	1.05697
C	-1.36582	1.20584	-0.766147
H	-0.927629	1.33674	-1.77855
H	-2.41271	0.853205	-0.868438
H	-1.38084	2.19872	-0.266029
N	-1.60114	-1.88696	-0.546781
C	-1.65975	-3.20007	-1.14552
H	-2.41532	-1.5447	-0.0893926
H	-2.6637	-3.65542	-0.99724
H	-0.898505	-3.87396	-0.689874
H	-1.45898	-3.1424	-2.23985
C	326.967	0.858519	2.87495
C	325.956	0.0454076	2.1631
O	325.413	-0.906926	2.70647
H	327.113	0.450087	3.89862
H	326.625	1.91187	2.95358
H	327.936	0.824355	2.33342
N	325.681	0.407015	0.907712
C	324.72	-0.285909	0.0874184
C	325.032	0.0290049	-1.36266
O	325.795	0.946788	-1.65635
H	326.151	1.16687	0.466438
H	324.843	-1.35254	0.226197
C	323.276	0.146378	0.426141
H	323.153	1.24124	0.283325
H	322.533	-0.385364	-0.203547
H	323.06	-0.08856	1.49124
N	324.461	-0.744419	-2.30709
C	324.709	-0.526924	-3.71329
H	323.851	-1.48678	-2.04898
H	324.148	-1.26344	-4.33001
H	325.794	-0.632606	-3.94179
H	324.391	0.49734	-4.0147
