44
  This energy is 8.60415e-320 and Call times are: 102297
C	-1.41483	1.67215	2.70708
C	-0.495499	0.661335	2.13762
O	0.298674	0.0581671	2.84612
H	-1.23619	1.75614	3.80111
H	-2.46937	1.36888	2.53742
H	-1.23482	2.66165	2.23652
N	-0.581556	0.456282	0.82122
C	0.245744	-0.494649	0.122555
C	0.264921	-0.10707	-1.34327
O	-0.543734	0.704595	-1.78949
H	-1.21244	0.974903	0.250299
H	1.25929	-0.420299	0.495742
C	-0.292052	-1.93397	0.284518
H	-1.33224	-2.00649	-0.0987097
H	0.342704	-2.66876	-0.252091
H	-0.302204	-2.20537	1.36266
N	1.20926	-0.666135	-2.12537
C	1.31199	-0.348233	-3.53056
H	1.85909	-1.31536	-1.74398
H	2.14893	-0.910148	-4.0007
H	1.49667	0.741	-3.67447
H	0.369657	-0.61196	-4.06314
C	4847.85	-1.23857	-1.56618
C	4847.03	-1.00756	-0.35984
O	4847.33	-1.50136	0.717826
H	4848.71	-1.89506	-1.30361
H	4848.24	-0.273856	-1.95265
H	4847.25	-1.73476	-2.35471
N	4845.94	-0.243027	-0.520085
C	4845.04	0.0720675	0.559508
C	4843.71	0.482262	-0.0467146
O	4843.63	0.746055	-1.24431
H	4845.69	0.129546	-1.40943
H	4844.87	-0.820387	1.14861
C	4845.6	1.21208	1.44174
H	4845.77	2.12586	0.834085
H	4844.91	1.45713	2.2741
H	4846.57	0.899636	1.87892
N	4842.64	0.52426	0.767911
C	4841.33	0.89236	0.277126
H	4842.73	0.300341	1.73265
H	4840.59	0.869621	1.09895
H	4841	0.188843	-0.520091
H	4841.35	1.91957	-0.153854
