44
  This energy is 4.35371e-320 and Call times are: 87723
C	-2.95974	1.82665	-0.171492
C	-2.20665	0.596974	0.163112
O	-2.7412	-0.330907	0.754549
H	-4.00291	1.7312	0.200737
H	-2.98287	1.97361	-1.2718
H	-2.48595	2.70845	0.309025
N	-0.925124	0.566483	-0.209869
C	-0.0636073	-0.560406	0.0445665
C	1.37115	-0.0742541	-0.0214691
O	1.64074	1.02568	-0.500327
H	-0.493415	1.34054	-0.665286
H	-0.242952	-0.920556	1.04965
C	-0.290961	-1.68677	-0.988265
H	-0.10676	-1.31366	-2.0183
H	0.370703	-2.55608	-0.795196
H	-1.34582	-2.03333	-0.930676
N	2.32773	-0.87938	0.481261
C	3.72004	-0.495238	0.472713
H	2.08861	-1.76265	0.870979
H	4.35026	-1.29074	0.927971
H	3.87163	0.445392	1.05019
H	4.07342	-0.321314	-0.569427
C	4153.1	0.960107	-3.08587
C	4154.05	1.13259	-1.96146
O	4154.96	1.9518	-2.0182
H	4153.38	1.65972	-3.90587
H	4152.07	1.1832	-2.75179
H	4153.15	-0.0804221	-3.47053
N	4153.86	0.34591	-0.899734
C	4154.7	0.396759	0.271176
C	4154.55	-0.918337	1.01054
O	4153.63	-1.69226	0.735087
H	4153.14	-0.337832	-0.877429
H	4155.73	0.481839	-0.0396623
C	4154.31	1.57296	1.19314
H	4153.25	1.48287	1.50958
H	4154.95	1.61515	2.09563
H	4154.42	2.5303	0.639489
N	4155.46	-1.21201	1.95771
C	4155.4	-2.44655	2.70524
H	4156.2	-0.575897	2.16104
H	4156.24	-2.50198	3.43758
H	4155.48	-3.32339	2.02195
H	4154.44	-2.52396	3.26316
