44
  This energy is 1.03052e-319 and Call times are: 83733
C	0.00077029	-0.505139	3.44543
C	0.640221	-0.023176	2.20043
O	1.68651	0.609941	2.23084
H	0.613285	-0.190952	4.31834
H	-0.06892	-1.61323	3.43553
H	-1.0167	-0.0719655	3.54574
N	0.0101979	-0.312939	1.05961
C	0.508564	0.0873392	-0.231995
C	-0.653507	0.0690146	-1.2059
O	-1.71203	-0.482798	-0.911172
H	-0.856694	-0.804204	1.04997
H	0.869429	1.10614	-0.169611
C	1.62698	-0.859567	-0.721518
H	1.25352	-1.90397	-0.783712
H	2.01309	-0.554154	-1.71571
H	2.47175	-0.838014	0.00100469
N	-0.488552	0.695141	-2.38775
C	-1.54384	0.739929	-3.37291
H	0.37311	1.14203	-2.60469
H	-1.21442	1.29801	-4.27694
H	-2.44658	1.24484	-2.95895
H	-1.8358	-0.289454	-3.68324
C	3965.77	-1.04779	-2.46301
C	3966.06	-0.467261	-1.13274
O	3965.17	-0.00185778	-0.436966
H	3964.68	-0.968044	-2.6683
H	3966.06	-2.11869	-2.4853
H	3966.33	-0.496788	-3.25093
N	3967.34	-0.477576	-0.747818
C	3967.78	0.0506391	0.519069
C	3969.26	0.353921	0.409072
O	3969.93	-0.0826404	-0.529922
H	3968.06	-0.83316	-1.33603
H	3967.27	0.984654	0.707979
C	3967.53	-0.953843	1.66542
H	3968.06	-1.91111	1.46805
H	3967.86	-0.550244	2.64238
H	3966.44	-1.16861	1.73481
N	3969.81	1.13228	1.36115
C	3971.21	1.4839	1.33249
H	3969.26	1.48171	2.10907
H	3971.48	2.12782	2.20092
H	3971.46	2.03828	0.398164
H	3971.85	0.569688	1.36966
