44
  This energy is 5.29144e-320 and Call times are: 62775
C	3.41765	-0.373029	-0.553732
C	2.26073	-0.153548	0.343244
O	2.39648	-0.140168	1.55893
H	4.33502	-0.51467	0.0580236
H	3.56001	0.506254	-1.21662
H	3.25516	-1.28011	-1.1732
N	1.07649	0.0202993	-0.248117
C	-0.140516	0.244681	0.490381
C	-1.30541	-0.119053	-0.4096
O	-1.14023	-0.280289	-1.61731
H	0.974143	-0.0217893	-1.23841
H	-0.162783	-0.422201	1.34293
C	-0.259548	1.71661	0.944664
H	-0.235692	2.39802	0.0676099
H	-1.19544	1.89284	1.51373
H	0.600147	1.97091	1.60223
N	-2.5136	-0.278673	0.165551
C	-3.67834	-0.636513	-0.610021
H	-2.62542	-0.150791	1.14554
H	-4.57535	-0.718522	0.0425884
H	-3.52529	-1.61516	-1.11999
H	-3.88179	0.131617	-1.39089
C	2975.1	1.06606	2.84545
C	2976.33	0.941916	2.03629
O	2977.36	1.511	2.36462
H	2975.3	1.72565	3.71812
H	2974.78	0.0680942	3.21412
H	2974.28	1.51121	2.23608
N	2976.25	0.186313	0.938871
C	2977.36	-0.0300056	0.0512833
C	2976.81	-0.462043	-1.29323
O	2975.64	-0.814632	-1.40739
H	2975.39	-0.248452	0.666441
H	2977.88	0.907498	-0.0932801
C	2978.32	-1.10903	0.603795
H	2977.78	-2.06928	0.751527
H	2979.18	-1.27799	-0.0771159
H	2978.72	-0.781163	1.58934
N	2977.64	-0.423291	-2.35242
C	2977.2	-0.804928	-3.67394
H	2978.59	-0.128211	-2.24093
H	2978.03	-0.706702	-4.40862
H	2976.36	-0.158463	-4.00887
H	2976.85	-1.8621	-3.68107
