44
  This energy is 2.1062e-320 and Call times are: 31527
C	-1.7066	-0.179975	-3.03006
C	-1.42358	-0.675441	-1.66418
O	-2.09925	-1.56203	-1.16027
H	-2.57923	-0.728699	-3.44633
H	-0.828442	-0.349331	-3.68806
H	-1.94379	0.904428	-3.00248
N	-0.403955	-0.098869	-1.02364
C	-0.00679501	-0.473121	0.310157
C	0.784165	0.677778	0.900962
O	1.20049	1.58706	0.185615
H	0.120504	0.642523	-1.43379
H	-0.893497	-0.608329	0.916418
C	0.850808	-1.75825	0.301952
H	1.75928	-1.61624	-0.321454
H	1.15822	-2.04935	1.3274
H	0.260562	-2.59344	-0.13419
N	0.991559	0.675281	2.2325
C	1.72348	1.73567	2.88522
H	0.640456	-0.0658573	2.79523
H	1.78855	1.55226	3.98038
H	1.22137	2.71697	2.72344
H	2.75859	1.80643	2.47936
C	1494.23	0.188372	0.171119
C	1495.53	-0.291135	0.681301
O	1495.61	-0.891354	1.74412
H	1493.43	-0.0829739	0.894311
H	1494	-0.284755	-0.807779
H	1494.24	1.29225	0.052427
N	1496.6	-0.0264273	-0.0764871
C	1497.93	-0.428555	0.28611
C	1498.91	0.449311	-0.475581
O	1498.53	1.13995	-1.41864
H	1496.52	0.488822	-0.926038
H	1498.08	-0.244495	1.34262
C	1498.18	-1.91565	-0.0499667
H	1498.03	-2.10105	-1.13447
H	1499.21	-2.22865	0.228086
H	1497.46	-2.54804	0.513284
N	1500.19	0.458855	-0.0671057
C	1501.19	1.27294	-0.724107
H	1500.48	-0.101568	0.702613
H	1502.18	1.14184	-0.243532
H	1500.91	2.351	-0.670215
H	1501.28	0.992919	-1.79865
