44
  This energy is 9.6323e-320 and Call times are: 121785
C	-2.12897	2.45623	-1.24923
C	-1.53822	1.69419	-0.126049
O	-1.75611	2.00903	1.0358
H	-2.74148	3.29111	-0.84468
H	-2.78028	1.79547	-1.85916
H	-1.32613	2.87733	-1.89037
N	-0.759503	0.660916	-0.455136
C	-0.114717	-0.175386	0.525516
C	1.05189	-0.870193	-0.149396
O	1.15699	-0.875579	-1.37445
H	-0.566225	0.432297	-1.40556
H	0.285953	0.450431	1.31285
C	-1.09374	-1.22146	1.10375
H	-1.50338	-1.86131	0.293258
H	-0.600555	-1.867	1.85928
H	-1.94428	-0.699845	1.59431
N	1.97208	-1.45713	0.641023
C	3.12305	-2.13218	0.0880864
H	1.87301	-1.43574	1.63045
H	3.76016	-2.55079	0.898099
H	3.74035	-1.42693	-0.514244
H	2.80656	-2.96831	-0.576673
C	5769.63	2.10935	-1.32231
C	5768.66	0.998968	-1.45237
O	5768.42	0.493571	-2.54005
H	5770.04	2.3583	-2.32524
H	5770.47	1.81035	-0.656314
H	5769.13	3.00845	-0.905393
N	5768.07	0.593439	-0.326337
C	5767.11	-0.475601	-0.292022
C	5766.29	-0.321927	0.973963
O	5766.65	0.430614	1.87399
H	5768.26	1.03263	0.549193
H	5766.44	-0.369871	-1.13425
C	5767.8	-1.85787	-0.313515
H	5768.49	-1.96268	0.551496
H	5767.06	-2.6833	-0.28734
H	5768.4	-1.9575	-1.24514
N	5765.14	-1.02002	1.06273
C	5764.29	-0.927823	2.22521
H	5764.85	-1.61821	0.320683
H	5763.39	-1.57735	2.10885
H	5763.94	0.120577	2.37736
H	5764.83	-1.24722	3.14091
