44
  This energy is 8.24052e-320 and Call times are: 108681
C	2.19456	-0.49688	2.65766
C	0.861811	-0.63115	2.02762
O	-0.0235784	-1.29038	2.55487
H	2.21081	-1.07212	3.60881
H	2.40719	0.570111	2.87933
H	2.97953	-0.897269	1.98204
N	0.690637	-0.00230847	0.862449
C	-0.54943	-0.0391178	0.129165
C	-0.246385	0.304753	-1.31623
O	0.836446	0.794098	-1.63222
H	1.42883	0.507576	0.428836
H	-0.941883	-1.04785	0.151976
C	-1.57564	0.959782	0.708994
H	-1.16952	1.99351	0.684676
H	-2.5317	0.933924	0.146805
H	-1.78822	0.697783	1.76839
N	-1.1944	0.034504	-2.23505
C	-0.990322	0.31662	-3.63682
H	-2.06137	-0.368167	-1.96037
H	-1.88459	0.0255214	-4.23079
H	-0.111844	-0.246589	-4.02709
H	-0.802207	1.40314	-3.79577
C	5146.74	1.24241	-3.03736
C	5146.9	0.144855	-2.05834
O	5146.35	-0.933724	-2.21604
H	5146.06	0.906127	-3.85409
H	5147.72	1.51875	-3.47423
H	5146.29	2.13063	-2.54383
N	5147.68	0.403518	-1.00504
C	5147.94	-0.563438	0.0316345
C	5148.39	0.188996	1.26839
O	5148.72	1.37111	1.1991
H	5148.1	1.29586	-0.872939
H	5147.02	-1.07373	0.275534
C	5149.03	-1.57434	-0.400658
H	5149.97	-1.0474	-0.650771
H	5149.23	-2.32043	0.395192
H	5148.68	-2.1181	-1.30812
N	5148.39	-0.477653	2.43953
C	5148.8	0.160224	3.67131
H	5148.12	-1.43184	2.47614
H	5148.73	-0.552674	4.52269
H	5148.14	1.03285	3.89438
H	5149.85	0.526577	3.5995
