44
  This energy is 3.00886e-320 and Call times are: 87177
C	-1.57733	-2.45628	-1.89865
C	-0.390879	-1.64297	-1.54924
O	0.70232	-1.87213	-2.04814
H	-1.28287	-3.24017	-2.62987
H	-2.35997	-1.81464	-2.35536
H	-1.98591	-2.94728	-0.990397
N	-0.583971	-0.662173	-0.664309
C	0.472829	0.213815	-0.225395
C	0.0549251	0.820366	1.10001
O	-1.1089	0.740774	1.48862
H	-1.47306	-0.504097	-0.243045
H	1.36636	-0.372295	-0.0517574
C	0.743705	1.33012	-1.25864
H	-0.175205	1.929	-1.43488
H	1.55699	2.00636	-0.923907
H	1.04777	0.872793	-2.22536
N	1.00626	1.42528	1.83828
C	0.704092	2.02078	3.119
H	1.94383	1.47307	1.50978
H	1.61696	2.46921	3.56936
H	0.305242	1.2556	3.82375
H	-0.0624318	2.82173	3.00902
C	4130.01	-1.35491	2.77528
C	4129.4	-1.48377	1.43237
O	4129.48	-2.52888	0.801092
H	4130.5	-2.31293	3.04814
H	4129.23	-1.12586	3.52969
H	4130.77	-0.546115	2.77455
N	4128.78	-0.402547	0.957496
C	4128.14	-0.373401	-0.33282
C	4128.01	1.07673	-0.757436
O	4128.18	1.98613	0.051534
H	4128.75	0.452039	1.4691
H	4128.77	-0.872651	-1.05298
C	4126.74	-1.03626	-0.283009
H	4126.09	-0.522028	0.457253
H	4126.24	-1.01568	-1.27494
H	4126.85	-2.09767	0.0303973
N	4127.72	1.32674	-2.05016
C	4127.59	2.67638	-2.54834
H	4127.59	0.577282	-2.69089
H	4127.35	2.67349	-3.63445
H	4128.54	3.24161	-2.40053
H	4126.78	3.21808	-2.01121
