44
  This energy is 9.40503e-320 and Call times are: 96333
C	1.30471	2.84147	-1.53294
C	0.24629	1.81921	-1.37191
O	-0.819983	1.91398	-1.964
H	0.949509	3.63126	-2.23002
H	2.22291	2.37874	-1.95202
H	1.54001	3.30669	-0.552564
N	0.52138	0.805525	-0.54781
C	-0.407337	-0.265643	-0.289133
C	-0.0150148	-0.915637	1.02343
O	1.07833	-0.685548	1.53675
H	1.38237	0.754829	-0.0487558
H	-1.39922	0.150551	-0.16656
C	-0.390279	-1.31174	-1.42601
H	0.628908	-1.73617	-1.54946
H	-1.10436	-2.13787	-1.23011
H	-0.678229	-0.82287	-2.38217
N	-0.913332	-1.73082	1.61038
C	-0.632397	-2.3845	2.86734
H	-1.79548	-1.89872	1.18277
H	-1.49328	-3.01338	3.18458
H	-0.434566	-1.6328	3.6655
H	0.265428	-3.0381	2.77844
C	4561.29	2.89678	-1.07134
C	4561.42	1.74169	-0.154348
O	4560.71	1.6383	0.83502
H	4560.5	3.57775	-0.696479
H	4561.02	2.54883	-2.08909
H	4562.25	3.45503	-1.11881
N	4562.35	0.836242	-0.466332
C	4562.59	-0.341481	0.328191
C	4563.99	-0.838634	0.0109653
O	4564.6	-0.415829	-0.969198
H	4562.94	0.946594	-1.25908
H	4562.57	-0.0698082	1.37593
C	4561.55	-1.44577	0.0276078
H	4561.58	-1.72158	-1.04822
H	4561.74	-2.35399	0.637795
H	4560.53	-1.06876	0.262963
N	4564.54	-1.73772	0.851133
C	4565.87	-2.25867	0.636121
H	4564.03	-2.06223	1.64282
H	4566.14	-2.98606	1.43282
H	4566.62	-1.43524	0.643369
H	4565.93	-2.77634	-0.348245
