44
  This energy is 1.43605e-319 and Call times are: 6285
C	3.0677	1.27973	-1.0381
C	1.79994	0.562663	-1.30229
O	1.47856	0.243773	-2.43874
H	3.5999	1.451	-1.99897
H	3.7171	0.67534	-0.370406
H	2.86038	2.26128	-0.562149
N	1.03751	0.29492	-0.239558
C	-0.223244	-0.396424	-0.336299
C	-1.02889	-0.072363	0.906747
O	-0.495131	0.450813	1.88308
H	1.29647	0.585672	0.67769
H	-0.768741	-0.0155788	-1.19039
C	-0.0197985	-1.92344	-0.454417
H	0.540714	-2.31069	0.423068
H	-0.988571	-2.45884	-0.529248
H	0.572643	-2.14757	-1.36816
N	-2.34576	-0.357957	0.890224
C	-3.19484	-0.0738808	2.0236
H	-2.76043	-0.774677	0.0879614
H	-4.24324	-0.382577	1.8167
H	-3.18957	1.0159	2.25508
H	-2.84014	-0.620496	2.92725
C	309.75	1.97743	-1.30896
C	308.317	1.66044	-1.11708
O	307.443	2.4277	-1.49674
H	309.844	2.96374	-1.81323
H	310.232	1.20292	-1.94217
H	310.266	2.02528	-0.327099
N	308.042	0.505022	-0.507516
C	306.696	0.0584675	-0.249877
C	306.75	-0.964675	0.867906
O	307.821	-1.4622	1.21297
H	308.763	-0.0977861	-0.176808
H	306.108	0.897255	0.100385
C	306.059	-0.566374	-1.51143
H	306.665	-1.42613	-1.86843
H	305.023	-0.911151	-1.31661
H	306.026	0.192728	-2.3231
N	305.592	-1.28731	1.47709
C	305.549	-2.24282	2.55934
H	304.738	-0.868408	1.18814
H	304.507	-2.37409	2.92611
H	306.18	-1.90056	3.41138
H	305.93	-3.23442	2.22388
