44
  This energy is 8.33983e-321 and Call times are: 99399
C	3.41632	0.0631366	0.671509
C	2.2199	0.568192	-0.0389189
O	2.27752	1.56559	-0.744877
H	4.28169	0.724849	0.449852
H	3.6557	-0.966942	0.333199
H	3.23785	0.0598286	1.76745
N	1.08942	-0.118866	0.140876
C	-0.156316	0.248625	-0.483568
C	-1.28115	-0.382359	0.313833
O	-1.04881	-1.26229	1.14061
H	1.04873	-0.912836	0.741618
H	-0.275076	1.32319	-0.426294
C	-0.212358	-0.229923	-1.95155
H	-0.0895282	-1.33264	-2.00666
H	-1.17018	0.0515213	-2.43543
H	0.61732	0.238396	-2.52466
N	-2.53152	0.0713868	0.0977472
C	-3.66386	-0.461323	0.819002
H	-2.69813	0.789053	-0.570407
H	-4.60446	0.0390192	0.499342
H	-3.53958	-0.30644	1.91527
H	-3.76822	-1.55505	0.634487
C	4709.11	2.30285	-1.53462
C	4708.72	1.47123	-0.376276
O	4709.43	1.38134	0.612596
H	4710.1	2.76992	-1.32984
H	4708.37	3.10514	-1.70428
H	4709.2	1.6749	-2.44675
N	4707.55	0.830105	-0.478872
C	4707.03	-0.0158814	0.564819
C	4706.02	-0.955234	-0.0595389
O	4705.58	-0.749241	-1.19129
H	4706.99	0.888257	-1.30154
H	4707.83	-0.61919	0.964006
C	4706.36	0.816302	1.68351
H	4705.54	1.43451	1.27038
H	4705.96	0.168024	2.48885
H	4707.12	1.5011	2.13196
N	4705.63	-2.0271	0.660569
C	4704.68	-2.98251	0.143169
H	4706	-2.18023	1.57171
H	4704.49	-3.79024	0.884228
H	4705.06	-3.44886	-0.793998
H	4703.71	-2.48538	-0.0884549
