44
  This energy is 5.4451e-320 and Call times are: 120105
C	2.45698	1.48422	1.97141
C	1.07201	1.41018	1.45412
O	0.191173	2.13323	1.89889
H	2.50952	2.2542	2.77156
H	3.15556	1.76559	1.15554
H	2.76018	0.503856	2.39556
N	0.846033	0.514276	0.49046
C	-0.448936	0.325235	-0.112985
C	-0.472066	-1.05329	-0.744158
O	0.56869	-1.68719	-0.907934
H	1.56541	-0.0891941	0.156918
H	-1.20455	0.344856	0.662088
C	-0.73429	1.40378	-1.18183
H	0.0431479	1.38129	-1.97505
H	-1.73068	1.26129	-1.64839
H	-0.713377	2.40893	-0.707084
N	-1.67042	-1.56017	-1.0949
C	-1.79151	-2.86996	-1.69154
H	-2.50188	-1.0346	-0.947655
H	-2.85643	-3.10583	-1.90958
H	-1.3925	-3.65234	-1.00604
H	-1.21838	-2.92184	-2.64548
C	5685.06	-2.0265	1.8563
C	5686.41	-1.64155	1.39243
O	5687.42	-2.16543	1.85944
H	5685.15	-2.80707	2.64274
H	5684.47	-2.43484	1.01084
H	5684.54	-1.14522	2.28287
N	5686.47	-0.696737	0.450931
C	5687.71	-0.217222	-0.100751
C	5687.46	1.14702	-0.710675
O	5686.31	1.5429	-0.904201
H	5685.65	-0.256896	0.0993852
H	5688.43	-0.0892758	0.701744
C	5688.26	-1.18385	-1.17358
H	5687.53	-1.31334	-1.99499
H	5689.22	-0.817736	-1.60035
H	5688.44	-2.1798	-0.714493
N	5688.53	1.91006	-1.00889
C	5688.38	3.22777	-1.58163
H	5689.45	1.57475	-0.838174
H	5689.37	3.69438	-1.75617
H	5687.8	3.88921	-0.900371
H	5687.84	3.17497	-2.55555
