44
  This energy is 8.16542e-320 and Call times are: 27915
C	-1.22318	-3.25282	0.221626
C	-0.396634	-2.21494	-0.434755
O	0.364259	-2.49757	-1.34999
H	-1.01481	-4.23907	-0.247156
H	-2.30131	-3.01733	0.0991182
H	-0.9782	-3.31	1.30313
N	-0.526839	-0.9707	0.0313662
C	0.20974	0.145912	-0.504783
C	0.226578	1.2401	0.544841
O	-0.527058	1.19198	1.51518
H	-1.12844	-0.758199	0.796777
H	1.2339	-0.159002	-0.678548
C	-0.433082	0.670019	-1.80832
H	-1.48388	0.981317	-1.62657
H	0.13166	1.52973	-2.22393
H	-0.440478	-0.141161	-2.56863
N	1.10803	2.24672	0.38437
C	1.20413	3.32633	1.33904
H	1.71438	2.264	-0.40384
H	1.98511	4.05578	1.03046
H	1.46853	2.93583	2.34842
H	0.232976	3.86604	1.42115
C	1331.84	-1.96881	0.410804
C	1330.39	-1.74263	0.543133
O	1329.64	-2.63864	0.908043
H	1332.08	-3.02152	0.680592
H	1332.4	-1.29101	1.09231
H	1332.17	-1.78578	-0.635874
N	1329.95	-0.519741	0.238172
C	1328.56	-0.146988	0.317922
C	1328.35	1.07073	-0.561602
O	1329.31	1.71281	-0.98238
H	1330.56	0.193297	-0.0858794
H	1327.95	-0.950346	-0.0852305
C	1328.14	0.171185	1.77191
H	1328.76	0.995301	2.18259
H	1327.07	0.45843	1.83695
H	1328.3	-0.728305	2.40615
N	1327.08	1.4048	-0.878718
C	1326.79	2.54135	-1.72032
H	1326.32	0.868398	-0.534166
H	1325.69	2.65193	-1.8631
H	1327.26	2.42135	-2.72171
H	1327.18	3.47964	-1.264
