44
  This energy is 5.87296e-320 and Call times are: 50805
C	3.19324	1.13331	-0.803103
C	1.827	1.35532	-0.278415
O	1.51491	2.41624	0.24458
H	3.80642	2.0439	-0.627911
H	3.15573	0.929747	-1.89396
H	3.66817	0.274711	-0.283292
N	0.970987	0.338557	-0.404185
C	-0.392691	0.403225	0.0573642
C	-0.891315	-1.01734	0.237907
O	-0.267363	-1.96702	-0.231815
H	1.24568	-0.531003	-0.805861
H	-0.413604	0.884873	1.02672
C	-1.29142	1.15806	-0.947439
H	-1.26709	0.661641	-1.94096
H	-2.34211	1.20984	-0.595084
H	-0.914973	2.19679	-1.0718
N	-2.02355	-1.19713	0.946225
C	-2.56751	-2.51458	1.17991
H	-2.51012	-0.416395	1.32429
H	-3.50184	-2.45343	1.78037
H	-1.8369	-3.14901	1.73215
H	-2.80308	-3.01939	0.215104
C	2406.51	-0.423874	1.8946
C	2407.22	-0.39095	0.597904
O	2406.67	-0.729299	-0.438242
H	2405.47	-0.791502	1.73425
H	2406.47	0.595263	2.33307
H	2407.03	-1.10723	2.59958
N	2408.49	0.0191567	0.629969
C	2409.32	0.105312	-0.5495
C	2410.77	0.0864211	-0.107446
O	2411.07	0.261371	1.07206
H	2408.94	0.264382	1.48455
H	2409.15	-0.771722	-1.16137
C	2409.02	1.39426	-1.34866
H	2409.19	2.292	-0.717749
H	2409.65	1.46371	-2.25758
H	2407.96	1.39654	-1.66565
N	2411.7	-0.149617	-1.04695
C	2413.11	-0.197906	-0.717277
H	2411.44	-0.295851	-1.99484
H	2413.72	-0.401731	-1.62479
H	2413.31	-1.00116	0.0280318
H	2413.44	0.770578	-0.27999
