44
  This energy is 1.54593e-319 and Call times are: 124179
C	3.34499	0.690687	0.678305
C	1.90011	0.971135	0.835946
O	1.50138	1.80531	1.63699
H	3.92224	1.33218	1.37912
H	3.66681	0.913498	-0.360736
H	3.55571	-0.374657	0.909792
N	1.0711	0.263234	0.0652377
C	-0.360569	0.423356	0.10415
C	-0.985777	-0.834897	-0.466072
O	-0.305094	-1.64943	-1.08659
H	1.40646	-0.434128	-0.56258
H	-0.677078	0.50946	1.13589
C	-0.810994	1.65654	-0.710398
H	-0.484064	1.56521	-1.76817
H	-1.91283	1.78288	-0.682436
H	-0.345324	2.57143	-0.283453
N	-2.30077	-1.03345	-0.248394
C	-2.97958	-2.20849	-0.743017
H	-2.83286	-0.366077	0.262222
H	-4.05596	-2.18779	-0.463313
H	-2.52488	-3.13278	-0.318527
H	-2.90677	-2.26639	-1.85321
C	5878.29	0.0868584	-1.90627
C	5879.54	0.706818	-1.40797
O	5879.93	1.77904	-1.84684
H	5877.84	0.738788	-2.6878
H	5877.56	-0.0292399	-1.07559
H	5878.5	-0.908055	-2.34907
N	5880.2	0.0300904	-0.468023
C	5881.43	0.504302	0.114881
C	5882.15	-0.687247	0.713859
O	5881.57	-1.75818	0.875855
H	5879.88	-0.856408	-0.139586
H	5882.06	0.909091	-0.668807
C	5881.16	1.5665	1.20463
H	5880.52	1.14808	2.00667
H	5882.11	1.93391	1.65546
H	5880.63	2.4335	0.753421
N	5883.45	-0.533167	1.03803
C	5884.22	-1.6158	1.60285
H	5883.9	0.339212	0.892653
H	5885.27	-1.29167	1.80225
H	5884.25	-2.4834	0.904531
H	5883.77	-1.95993	2.56236
