44
  This energy is 5.9861e-320 and Call times are: 44757
C	-2.7518	-0.443504	2.08736
C	-2.11317	-0.470147	0.752198
O	-2.70128	-0.920366	-0.221414
H	-3.77055	-0.882723	2.01603
H	-2.83603	0.602424	2.45034
H	-2.15382	-1.03812	2.80972
N	-0.871546	0.0150155	0.678959
C	-0.119981	0.0569762	-0.54995
C	1.35043	0.157779	-0.193611
O	1.70207	0.441592	0.949905
H	-0.392372	0.352198	1.48496
H	-0.266055	-0.873547	-1.08368
C	-0.538403	1.26005	-1.4244
H	-0.387872	2.21294	-0.873535
H	0.0382406	1.29529	-2.37151
H	-1.61767	1.17504	-1.67757
N	2.24811	-0.0955307	-1.16623
C	3.66952	-0.0353966	-0.916937
H	1.94365	-0.330532	-2.08346
H	4.24124	-0.273322	-1.84094
H	3.96103	-0.764803	-0.126854
H	3.96566	0.982236	-0.573561
C	2124.87	-3.42346	0.277245
C	2125.35	-2.02744	0.17185
O	2126.54	-1.75597	0.296226
H	2125.74	-4.09477	0.479759
H	2124.39	-3.73477	-0.67322
H	2124.14	-3.51523	1.10903
N	2124.43	-1.09615	-0.0579806
C	2124.74	0.304773	-0.185819
C	2123.47	1.09175	0.0829696
O	2122.38	0.532173	0.103739
H	2123.46	-1.3265	-0.128387
H	2125.46	0.574811	0.574253
C	2125.28	0.633995	-1.59512
H	2124.54	0.355087	-2.37244
H	2125.52	1.71187	-1.69695
H	2126.21	0.050375	-1.7802
N	2123.59	2.41306	0.317869
C	2122.44	3.241	0.595012
H	2124.49	2.84605	0.303753
H	2122.75	4.2977	0.758921
H	2121.91	2.88414	1.50762
H	2121.72	3.21212	-0.255466
