44
  This energy is 1.16036e-319 and Call times are: 97257
C	0.85105	-1.64428	2.94927
C	0.0217181	-1.50125	1.7315
O	-0.78856	-2.36078	1.41347
H	0.60471	-2.60546	3.45058
H	0.64589	-0.809539	3.65207
H	1.9285	-1.64474	2.68084
N	0.214502	-0.39506	1.00932
C	-0.516692	-0.113993	-0.200305
C	0.282672	0.892598	-1.00469
O	1.21577	1.50794	-0.492329
H	0.898267	0.283876	1.26318
H	-0.588571	-1.02113	-0.786835
C	-1.92165	0.449134	0.109669
H	-1.8442	1.37932	0.71205
H	-2.48745	0.666519	-0.819519
H	-2.49666	-0.297063	0.700177
N	-0.0535104	1.06782	-2.29786
C	0.658739	1.99615	-3.14466
H	-0.807137	0.555178	-2.69595
H	0.231947	1.99847	-4.17184
H	1.73558	1.71872	-3.21319
H	0.594032	3.03042	-2.73567
C	4603.89	-1.36581	1.10285
C	4605.16	-0.646938	1.34803
O	4605.41	-0.14824	2.438
H	4603.28	-1.34652	2.02727
H	4604.1	-2.42229	0.829477
H	4603.33	-0.875081	0.282861
N	4606.01	-0.572595	0.319048
C	4607.29	0.0934261	0.403184
C	4607.73	0.438359	-1.0065
O	4607.17	-0.0639657	-1.97974
H	4605.79	-0.957731	-0.572445
H	4607.16	1.02209	0.945842
C	4608.34	-0.80194	1.08541
H	4608.47	-1.75405	0.526493
H	4609.33	-0.292118	1.15198
H	4608.01	-1.04848	2.11677
N	4608.73	1.32625	-1.14878
C	4609.21	1.72431	-2.45249
H	4609.16	1.72708	-0.348997
H	4610.04	2.45969	-2.3598
H	4608.39	2.1927	-3.04482
H	4609.58	0.842031	-3.01985
