44
  This energy is 1.12894e-320 and Call times are: 86421
C	-2.14776	1.57121	-2.24601
C	-1.70061	1.26765	-0.867929
O	-2.19513	1.8344	0.0968174
H	-2.94107	2.34925	-2.21174
H	-2.56045	0.658049	-2.72419
H	-1.29693	1.95178	-2.8495
N	-0.734149	0.354762	-0.745635
C	-0.194905	-0.0466829	0.529075
C	1.17119	-0.657949	0.285396
O	1.52624	-0.971434	-0.849284
H	-0.319096	-0.0786551	-1.54113
H	-0.0566347	0.832646	1.1453
C	-1.11603	-1.06801	1.23302
H	-1.25625	-1.96853	0.597793
H	-0.703874	-1.37914	2.21491
H	-2.1138	-0.608549	1.40476
N	1.98151	-0.821863	1.34959
C	3.30456	-1.38478	1.21232
H	1.67862	-0.555333	2.25869
H	3.81314	-1.4393	2.20006
H	3.92796	-0.761494	0.531058
H	3.25195	-2.41342	0.787687
C	4092.84	1.87394	-2.90182
C	4092.1	1.55145	-1.66022
O	4091.18	2.25578	-1.27139
H	4092.42	2.80154	-3.34837
H	4092.74	1.04509	-3.63361
H	4093.92	2.03791	-2.67627
N	4092.5	0.46359	-0.997761
C	4091.88	0.0211555	0.225511
C	4092.87	-0.873747	0.950716
O	4093.86	-1.30987	0.374301
H	4093.27	-0.0855876	-1.30927
H	4091.69	0.88119	0.85547
C	4090.57	-0.748931	-0.05447
H	4090.77	-1.63018	-0.701529
H	4090.09	-1.09092	0.885299
H	4089.86	-0.0829192	-0.586985
N	4092.62	-1.15128	2.2467
C	4093.51	-1.98473	3.02127
H	4091.82	-0.782994	2.69728
H	4093.14	-2.09602	4.06326
H	4094.53	-1.53994	3.06004
H	4093.6	-2.99913	2.56806
