44
  This energy is 4.58444e-320 and Call times are: 20733
C	1.27219	3.11208	-0.906974
C	1.4016	1.64443	-0.763984
O	2.37334	1.04884	-1.20837
H	2.15522	3.50701	-1.45483
H	1.22618	3.59136	0.0935247
H	0.353508	3.36154	-1.47859
N	0.403709	1.01967	-0.134496
C	0.386459	-0.405001	0.0819196
C	-1.05083	-0.821754	0.326342
O	-1.91658	0.0177096	0.566368
H	-0.396395	1.5123	0.197301
H	0.724388	-0.901817	-0.818664
C	1.26699	-0.801443	1.28799
H	0.917939	-0.289463	2.21003
H	1.2561	-1.89779	1.45736
H	2.317	-0.489689	1.09707
N	-1.34268	-2.13508	0.248791
C	-2.68602	-2.62407	0.454914
H	-0.629485	-2.79811	0.0463892
H	-2.72178	-3.73099	0.351429
H	-3.38461	-2.17963	-0.290533
H	-3.0504	-2.35505	1.47277
C	990.381	-0.872499	2.28291
C	989.725	0.102676	1.38291
O	990.07	1.27597	1.36197
H	991.166	-0.354898	2.87541
H	990.854	-1.6828	1.68932
H	989.636	-1.31168	2.97957
N	988.743	-0.369681	0.611244
C	988.011	0.456304	-0.315516
C	986.693	-0.232257	-0.612936
O	986.514	-1.40788	-0.30066
H	988.451	-1.32126	0.658558
H	987.788	1.40375	0.158263
C	988.804	0.673027	-1.62352
H	989.032	-0.300999	-2.10658
H	988.244	1.30874	-2.33931
H	989.768	1.17703	-1.39195
N	985.728	0.495812	-1.20786
C	984.437	-0.0718479	-1.51892
H	985.89	1.44771	-1.44625
H	983.782	0.683719	-2.0067
H	983.931	-0.428115	-0.59251
H	984.545	-0.939871	-2.20887
