44
  This energy is 9.68912e-320 and Call times are: 96459
C	2.48238	0.0825852	2.44072
C	1.12532	-0.283321	1.97628
O	0.388289	-0.978707	2.66165
H	2.66411	-0.372274	3.43868
H	2.57272	1.18587	2.52684
H	3.24574	-0.29604	1.72877
N	0.763403	0.180908	0.778004
C	-0.524795	-0.0897282	0.191379
C	-0.407766	0.118125	-1.30606
O	0.566441	0.694287	-1.78647
H	1.3837	0.722187	0.216594
H	-0.777131	-1.12886	0.360506
C	-1.61405	0.838831	0.773108
H	-1.35166	1.90408	0.598432
H	-2.60726	0.633029	0.323694
H	-1.68911	0.677813	1.87064
N	-1.3946	-0.369028	-2.08378
C	-1.36298	-0.228915	-3.52098
H	-2.17112	-0.838541	-1.67659
H	-2.2633	-0.692472	-3.98119
H	-0.45891	-0.723712	-3.94416
H	-1.3354	0.846523	-3.81056
C	4569.94	-2.9403	1.55099
C	4569.62	-1.49414	1.58053
O	4569.6	-0.872216	2.63379
H	4570.12	-3.29658	2.58719
H	4570.85	-3.12182	0.938565
H	4569.08	-3.50901	1.12434
N	4569.36	-0.920609	0.404264
C	4569.04	0.477615	0.271364
C	4568.31	0.664554	-1.04534
O	4568.31	-0.223676	-1.89557
H	4569.35	-1.44427	-0.443441
H	4568.36	0.759001	1.06595
C	4570.31	1.35403	0.303936
H	4571	1.06222	-0.512107
H	4570.06	2.43126	0.201996
H	4570.83	1.20715	1.2729
N	4567.65	1.82389	-1.2354
C	4566.92	2.08606	-2.4529
H	4567.65	2.52747	-0.532425
H	4566.44	3.09258	-2.41892
H	4566.11	1.32727	-2.60028
H	4567.59	2.04673	-3.33549
