44
  This energy is 8.06118e-320 and Call times are: 121113
C	0.787045	-2.14768	-2.62567
C	1.17192	-1.32672	-1.45559
O	2.30851	-1.36186	-1.00456
H	1.66391	-2.74312	-2.96096
H	0.45663	-1.49364	-3.45986
H	-0.0354792	-2.84178	-2.35249
N	0.214013	-0.561454	-0.927238
C	0.435321	0.292286	0.212489
C	-0.911945	0.585845	0.843312
O	-1.9552	0.33578	0.242543
H	-0.715709	-0.563603	-1.28577
H	1.03069	-0.241975	0.941989
C	1.12814	1.61073	-0.198405
H	0.514977	2.15591	-0.947348
H	1.30019	2.2704	0.676813
H	2.11332	1.38198	-0.660194
N	-0.920063	1.10652	2.08623
C	-2.15546	1.40763	2.77128
H	-0.0653361	1.29511	2.55857
H	-1.95284	1.82987	3.78019
H	-2.77121	0.487248	2.89375
H	-2.7541	2.1493	2.19446
C	5736.89	-3.00703	-0.481981
C	5735.66	-2.18193	-0.528561
O	5734.63	-2.60741	-1.03498
H	5736.69	-3.98893	-0.963882
H	5737.19	-3.17907	0.571511
H	5737.71	-2.4992	-1.02712
N	5735.75	-0.960366	0.00322305
C	5734.64	-0.0412977	0.0333079
C	5735.2	1.35792	0.205109
O	5736.37	1.53083	0.541675
H	5736.6	-0.614501	0.386675
H	5734.12	-0.0763907	-0.920005
C	5733.66	-0.370785	1.18807
H	5734.19	-0.334535	2.16449
H	5732.81	0.334879	1.21406
H	5733.26	-1.39862	1.05125
N	5734.37	2.39479	-0.0450562
C	5734.82	3.76241	0.0805127
H	5733.43	2.23419	-0.323259
H	5734	4.46936	-0.165703
H	5735.67	3.96208	-0.609214
H	5735.16	3.97033	1.12033
