44
  This energy is 1.45823e-319 and Call times are: 91839
C	-2.78391	-1.4691	1.4892
C	-1.91845	-1.21331	0.315852
O	-2.09832	-1.7996	-0.742638
H	-3.54533	-2.23448	1.22407
H	-3.30313	-0.535655	1.79236
H	-2.17596	-1.84607	2.33846
N	-0.940089	-0.320607	0.483991
C	-0.0173138	0.0344955	-0.564444
C	1.21756	0.629744	0.083626
O	1.2053	0.970183	1.26506
H	-0.785703	0.128817	1.35984
H	0.285793	-0.864591	-1.08583
C	-0.644346	1.0501	-1.54552
H	-0.954755	1.97095	-1.00719
H	0.0634482	1.32558	-2.35416
H	-1.54857	0.602525	-2.01264
N	2.32539	0.749063	-0.674326
C	3.55169	1.29361	-0.139694
H	2.31735	0.461253	-1.62634
H	4.34641	1.31086	-0.917751
H	3.91331	0.680124	0.717108
H	3.39388	2.33491	0.22357
C	4348.42	0.4522	-2.82867
C	4349.72	0.539205	-2.12009
O	4350.74	0.84981	-2.71188
H	4348.57	0.698144	-3.90226
H	4347.7	1.17336	-2.39301
H	4348.01	-0.576267	-2.74989
N	4349.7	0.255924	-0.815545
C	4350.88	0.297247	0.00865785
C	4350.62	-0.551787	1.23789
O	4349.48	-0.918332	1.51956
H	4348.86	-0.0241518	-0.350989
H	4351.7	-0.151371	-0.533218
C	4351.23	1.74448	0.42567
H	4350.38	2.20189	0.980749
H	4352.14	1.77996	1.06027
H	4351.41	2.35638	-0.483648
N	4351.68	-0.90366	1.99003
C	4351.53	-1.72037	3.17197
H	4352.6	-0.603015	1.7415
H	4352.52	-1.89883	3.65354
H	4351.09	-2.70738	2.91366
H	4350.87	-1.22215	3.91255
