44
  This energy is 7.39221e-320 and Call times are: 9687
C	0.720428	3.29615	-0.861672
C	1.13365	1.89869	-0.601759
O	2.27789	1.52611	-0.821702
H	1.58582	3.86624	-1.26411
H	0.380636	3.77609	0.080149
H	-0.103026	3.31974	-1.60619
N	0.192221	1.08083	-0.125122
C	0.441645	-0.305949	0.177291
C	-0.891322	-1.02873	0.182472
O	-1.94746	-0.399536	0.205272
H	-0.743846	1.38899	0.0223721
H	1.04548	-0.735145	-0.612166
C	1.13837	-0.466499	1.54693
H	0.516486	-0.0245258	2.35442
H	1.33205	-1.53308	1.78286
H	2.11296	0.0683428	1.53054
N	-0.872311	-2.37549	0.139159
C	-2.09238	-3.14846	0.128613
H	-0.0075295	-2.86615	0.113929
H	-1.86779	-4.23729	0.0930095
H	-2.71382	-2.88959	-0.759105
H	-2.69491	-2.94438	1.04321
C	462.368	-0.564522	0.165395
C	463.653	-0.562099	-0.569871
O	463.739	-1.03641	-1.69418
H	461.587	-1.04743	-0.461334
H	462.054	0.476403	0.391316
H	462.47	-1.13337	1.11347
N	464.697	-0.0234776	0.0633703
C	466.012	0.0522749	-0.52198
C	467.014	0.216386	0.603785
O	466.643	0.514026	1.73758
H	464.621	0.333353	0.990606
H	466.229	-0.883168	-1.02191
C	466.121	1.23695	-1.50771
H	465.897	2.19492	-0.991689
H	467.132	1.29813	-1.96037
H	465.381	1.10548	-2.32687
N	468.314	0.00322314	0.319309
C	469.339	0.124687	1.33015
H	468.594	-0.243834	-0.602667
H	470.342	-0.0872906	0.900207
H	469.156	-0.59219	2.16312
H	469.35	1.15386	1.7566
