44
  This energy is 1.503e-319 and Call times are: 48201
C	-2.62919	1.83376	1.36044
C	-2.08351	0.880972	0.367653
O	-2.81835	0.286986	-0.409323
H	-3.73525	1.87794	1.25773
H	-2.21143	2.84782	1.18727
H	-2.37679	1.50108	2.38931
N	-0.759713	0.708248	0.37686
C	-0.0816531	-0.184735	-0.528482
C	1.26582	-0.527098	0.0767765
O	1.71451	0.121944	1.01978
H	-0.174839	1.17604	1.03415
H	-0.649431	-1.10309	-0.607988
C	0.10923	0.461855	-1.91866
H	0.691512	1.40407	-1.83331
H	0.630888	-0.223095	-2.6183
H	-0.884938	0.708969	-2.35076
N	1.93557	-1.57547	-0.441261
C	3.22023	-1.98278	0.0782784
H	1.55243	-2.09255	-1.19959
H	3.60951	-2.86223	-0.480543
H	3.13904	-2.25929	1.15447
H	3.96056	-1.15502	-0.0106128
C	2286.39	-2.89575	0.332917
C	2287.67	-2.15336	0.465407
O	2288.64	-2.65132	1.0251
H	2286.5	-3.89431	0.81001
H	2286.14	-3.03471	-0.739453
H	2285.57	-2.34179	0.836322
N	2287.69	-0.922471	-0.05095
C	2288.86	-0.077641	-0.000505933
C	2288.4	1.35708	-0.182752
O	2287.27	1.61018	-0.585289
H	2286.89	-0.517005	-0.478686
H	2289.31	-0.15765	0.9808
C	2289.88	-0.456026	-1.10071
H	2289.41	-0.373491	-2.10605
H	2290.78	0.192432	-1.06464
H	2290.2	-1.50948	-0.956777
N	2289.28	2.33477	0.132336
C	2288.93	3.73012	0.00232734
H	2290.19	2.1096	0.463263
H	2289.78	4.37874	0.308151
H	2288.05	3.97673	0.643432
H	2288.66	3.97249	-1.05247
