44
  This energy is 1.39075e-319 and Call times are: 104481
C	-1.57656	-3.02473	0.701143
C	-0.370116	-2.22968	0.379287
O	0.74342	-2.73597	0.393444
H	-1.276	-4.06815	0.939479
H	-2.26799	-3.03946	-0.167494
H	-2.09754	-2.591	1.58058
N	-0.569344	-0.943283	0.0828727
C	0.504923	-0.0427841	-0.251614
C	0.0167801	1.37315	-0.0147714
O	-1.17939	1.60672	0.147909
H	-1.47837	-0.535611	0.103185
H	1.33538	-0.221034	0.41969
C	0.944934	-0.213953	-1.72274
H	0.0904118	-0.0310274	-2.40863
H	1.77208	0.477826	-1.98361
H	1.29917	-1.25549	-1.88354
N	0.940512	2.35322	0.0318252
C	0.570488	3.7299	0.264262
H	1.90432	2.14298	-0.0950585
H	1.47007	4.38411	0.265156
H	0.0573864	3.83822	1.24724
H	-0.123955	4.0896	-0.529176
C	4945.63	-0.886069	0.0765157
C	4946.72	0.0626908	-0.247062
O	4946.5	1.08784	-0.877104
H	4944.68	-0.50374	-0.341724
H	4945.53	-0.987782	1.17724
H	4945.85	-1.88092	-0.367659
N	4947.94	-0.268106	0.179936
C	4949.1	0.553277	-0.0571023
C	4950.33	-0.325151	0.0789371
O	4950.25	-1.44152	0.588186
H	4948.12	-1.1203	0.666989
H	4949.07	0.92034	-1.07513
C	4949.18	1.72696	0.94506
H	4949.21	1.34682	1.98845
H	4950.07	2.36154	0.765282
H	4948.27	2.36214	0.836204
N	4951.5	0.153604	-0.396393
C	4952.72	-0.616624	-0.321394
H	4951.54	1.05648	-0.811481
H	4953.57	-0.0512391	-0.763129
H	4952.61	-1.57735	-0.875207
H	4952.97	-0.854794	0.737838
