44
  This energy is 1.46876e-319 and Call times are: 48075
C	-2.87204	-1.11455	-1.62335
C	-1.51397	-0.525815	-1.63821
O	-0.920434	-0.331088	-2.69001
H	-3.19311	-1.32373	-2.66692
H	-3.59119	-0.40588	-1.16136
H	-2.87081	-2.06559	-1.05023
N	-0.982616	-0.230534	-0.44958
C	0.329224	0.347415	-0.301665
C	0.805487	0.0667604	1.1103
O	0.0214048	-0.327514	1.97146
H	-1.46447	-0.420879	0.401608
H	1.01028	-0.146757	-0.982864
C	0.305548	1.87025	-0.561522
H	-0.394625	2.37396	0.138584
H	1.31408	2.31845	-0.448615
H	-0.0461283	2.06259	-1.59857
N	2.11484	0.244046	1.37518
C	2.66133	-0.0096578	2.68788
H	2.73464	0.556843	0.662971
H	3.75436	0.195827	2.70523
H	2.49971	-1.07199	2.98213
H	2.17055	0.638152	3.44988
C	2282.58	3.43828	-0.473711
C	2282.98	2.04551	-0.775625
O	2283.76	1.79376	-1.68811
H	2283.08	4.12739	-1.18813
H	2282.89	3.70844	0.55933
H	2281.48	3.55128	-0.576139
N	2282.45	1.09479	-0.00538194
C	2282.74	-0.305822	-0.176095
C	2281.62	-1.09834	0.468697
O	2280.82	-0.552219	1.22295
H	2281.8	1.31019	0.716129
H	2282.74	-0.538692	-1.23338
C	2284.1	-0.67964	0.467668
H	2284.09	-0.438803	1.55215
H	2284.33	-1.75738	0.337932
H	2284.91	-0.091544	-0.012496
N	2281.53	-2.4085	0.167231
C	2280.49	-3.24016	0.724153
H	2282.18	-2.8304	-0.450877
H	2280.58	-4.2862	0.357814
H	2279.48	-2.85681	0.435516
H	2280.55	-3.25154	1.83662
