44
  This energy is 6.26722e-320 and Call times are: 9267
C	2.30998	1.932	-1.74858
C	0.977653	1.73485	-1.13437
O	0.174585	2.65439	-1.05675
H	2.40882	2.98846	-2.08022
H	2.42743	1.26636	-2.62946
H	3.10873	1.71105	-1.00958
N	0.71319	0.510741	-0.671793
C	-0.539184	0.164341	-0.0485803
C	-0.313213	-1.07644	0.793218
O	0.708669	-1.74754	0.662008
H	1.38668	-0.222406	-0.714663
H	-0.83379	0.964919	0.61802
C	-1.63737	-0.101359	-1.10239
H	-1.33156	-0.922755	-1.78496
H	-2.60306	-0.368208	-0.625939
H	-1.79256	0.814613	-1.71317
N	-1.25846	-1.39863	1.69804
C	-1.12384	-2.55565	2.55207
H	-2.07496	-0.838863	1.79407
H	-2.00395	-2.65194	3.22541
H	-0.20815	-2.47492	3.18154
H	-1.04398	-3.4858	1.94411
C	443.241	-1.96289	1.3135
C	444.369	-1.01723	1.47278
O	444.625	-0.515253	2.55858
H	442.731	-2.09433	2.29243
H	443.615	-2.94954	0.967895
H	442.51	-1.5666	0.5776
N	445.075	-0.745606	0.372728
C	446.2	0.154302	0.368748
C	446.417	0.62332	-1.05687
O	445.867	0.0524894	-1.99679
H	444.838	-1.13844	-0.511961
H	445.958	1.02309	0.967691
C	447.476	-0.537647	0.89983
H	447.721	-1.42886	0.283499
H	448.344	0.152499	0.898268
H	447.304	-0.877582	1.94436
N	447.211	1.6947	-1.24859
C	447.466	2.2199	-2.56978
H	447.642	2.14724	-0.47446
H	448.144	3.10017	-2.5191
H	446.515	2.53735	-3.05628
H	447.943	1.44676	-3.21499
