44
  This energy is 4.30973e-320 and Call times are: 69033
C	2.48115	-0.747566	-2.32619
C	1.10047	-0.340166	-1.9813
O	0.313071	0.0208915	-2.84509
H	2.62796	-0.654959	-3.42425
H	2.65429	-1.80307	-2.02826
H	3.21396	-0.0929011	-1.80913
N	0.774729	-0.384863	-0.68737
C	-0.530092	-0.0193937	-0.196757
C	-0.397502	0.31316	1.2767
O	0.617394	0.00936617	1.90082
H	1.43411	-0.652941	0.00997307
H	-0.859968	0.876245	-0.707723
C	-1.54645	-1.16637	-0.393156
H	-1.20458	-2.08381	0.131772
H	-2.55225	-0.888265	-0.0166024
H	-1.63359	-1.40124	-1.47639
N	-1.41808	0.968627	1.86388
C	-1.37577	1.33765	3.25966
H	-2.22781	1.21197	1.34009
H	-2.30836	1.86716	3.55487
H	-0.511446	2.01089	3.46202
H	-1.26725	0.433915	3.90205
C	3272.4	1.37984	2.49563
C	3272.91	0.221478	1.72633
O	3272.63	-0.924578	2.05123
H	3271.78	1.01463	3.34541
H	3271.77	2.02451	1.84621
H	3273.25	1.97445	2.89633
N	3273.68	0.50098	0.674982
C	3274.25	-0.518516	-0.170407
C	3275.44	0.0847222	-0.893343
O	3275.62	1.30152	-0.906739
H	3273.93	1.43771	0.437797
H	3274.62	-1.32576	0.45032
C	3273.22	-1.04217	-1.19242
H	3272.84	-0.211325	-1.82709
H	3273.65	-1.82742	-1.84489
H	3272.35	-1.48042	-0.650311
N	3276.3	-0.760097	-1.49625
C	3277.47	-0.277644	-2.19853
H	3276.14	-1.74197	-1.46809
H	3278.04	-1.12491	-2.62696
H	3278.13	0.290016	-1.50957
H	3277.17	0.401597	-3.03076
