44
  This energy is 1.22133e-320 and Call times are: 19473
C	-1.25419	0.432997	3.21957
C	-0.642745	0.960578	1.97901
O	-0.495722	2.16293	1.80804
H	-1.52645	1.28136	3.88442
H	-0.534186	-0.223766	3.75163
H	-2.17194	-0.143796	2.97878
N	-0.272719	0.0562805	1.06923
C	0.336111	0.415026	-0.186735
C	0.142516	-0.74323	-1.14601
O	-0.217689	-1.84518	-0.736395
H	-0.424432	-0.918764	1.20782
H	-0.18255	1.27217	-0.597056
C	1.84159	0.71748	-0.0159792
H	2.37048	-0.163723	0.405777
H	2.31349	0.99421	-0.98113
H	1.96998	1.5669	0.689823
N	0.357775	-0.512498	-2.45613
C	0.18687	-1.55179	-3.44448
H	0.641899	0.387976	-2.76863
H	0.412704	-1.16661	-4.46325
H	-0.86033	-1.93202	-3.43772
H	0.866809	-2.4091	-3.23498
C	926.053	2.25485	-1.90508
C	926.519	0.883106	-1.6017
O	926.061	-0.0856575	-2.19197
H	925.274	2.21123	-2.69708
H	926.899	2.87533	-2.26738
H	925.616	2.72041	-0.996596
N	927.452	0.770103	-0.653613
C	928.005	-0.497499	-0.248113
C	928.601	-0.324578	1.13524
O	928.786	0.796833	1.60439
H	927.796	1.56423	-0.15962
H	927.205	-1.22255	-0.172958
C	929.089	-0.980725	-1.23735
H	929.908	-0.234235	-1.31252
H	929.517	-1.95659	-0.928204
H	928.64	-1.10236	-2.24708
N	928.897	-1.43934	1.83215
C	929.457	-1.37279	3.16183
H	928.734	-2.33772	1.43796
H	929.632	-2.39405	3.56652
H	928.768	-0.835473	3.85227
H	930.429	-0.828393	3.15214
