44
  This energy is 1.02924e-319 and Call times are: 40389
C	-1.52721	2.38649	-2.02447
C	-0.3742	1.89109	-1.23937
O	0.702767	2.47083	-1.26258
H	-1.22589	3.29869	-2.58389
H	-2.3695	2.64188	-1.34761
H	-1.85745	1.61298	-2.74943
N	-0.578013	0.785187	-0.519793
C	0.446771	0.182903	0.295007
C	0.0642832	-1.26554	0.529448
O	-1.07063	-1.66494	0.275895
H	-1.45141	0.30564	-0.53207
H	1.38136	0.192024	-0.251372
C	0.596114	0.918238	1.6456
H	-0.364669	0.907549	2.20318
H	1.38447	0.45716	2.27542
H	0.875238	1.97835	1.46011
N	1.0158	-2.09476	1.00168
C	0.746976	-3.49296	1.24446
H	1.93023	-1.75403	1.19391
H	1.65421	-4.00619	1.63276
H	0.431919	-4.00144	0.30455
H	-0.0703667	-3.61204	1.99209
C	1914.81	-2.55428	1.10355
C	1915.15	-1.46635	0.15898
O	1914.49	-1.27842	-0.853393
H	1913.92	-3.10595	0.724519
H	1914.57	-2.13285	2.1027
H	1915.66	-3.26178	1.19468
N	1916.21	-0.717881	0.47294
C	1916.66	0.377254	-0.346504
C	1918.11	0.646137	-0.00224253
O	1918.62	0.159945	1.00681
H	1916.75	-0.899389	1.28556
H	1916.62	0.0793958	-1.38651
C	1915.81	1.64732	-0.107352
H	1915.86	1.94969	0.960686
H	1916.16	2.49248	-0.736858
H	1914.75	1.43692	-0.362031
N	1918.82	1.41424	-0.850518
C	1920.22	1.7144	-0.611019
H	1918.4	1.79256	-1.66548
H	1920.62	2.36078	-1.41929
H	1920.82	0.77825	-0.57333
H	1920.34	2.24564	0.360084
