44
  This energy is 1.10804e-319 and Call times are: 122415
C	-0.558992	-3.3837	0.603506
C	0.343921	-2.23918	0.346565
O	1.55898	-2.36484	0.412472
H	0.0477364	-4.28207	0.849829
H	-1.16998	-3.59893	-0.298266
H	-1.22993	-3.15755	1.45887
N	-0.241789	-1.07702	0.0487588
C	0.50292	0.125641	-0.226657
C	-0.421499	1.30704	-0.0053093
O	-1.6357	1.14409	0.099614
H	-1.23332	-0.980465	0.0267508
H	1.31592	0.206514	0.483674
C	1.03994	0.135384	-1.67532
H	0.203315	0.0515961	-2.40138
H	1.61398	1.05997	-1.89072
H	1.71475	-0.735466	-1.82498
N	0.138254	2.52893	0.0929581
C	-0.661622	3.71082	0.315487
H	1.12344	2.63924	0.012469
H	-0.0187328	4.61718	0.364873
H	-1.22593	3.62882	1.27261
H	-1.39828	3.84786	-0.508977
C	5794.04	1.04381	-1.04014
C	5795.26	0.214904	-1.20201
O	5795.32	-0.655358	-2.05945
H	5793.28	0.727878	-1.78554
H	5794.29	2.11465	-1.20571
H	5793.63	0.913407	-0.0202783
N	5796.27	0.468352	-0.362478
C	5797.51	-0.253659	-0.396438
C	5798.18	-0.0924279	0.954876
O	5797.79	0.756832	1.75292
H	5796.19	1.16026	0.350755
H	5797.31	-1.3069	-0.537399
C	5798.44	0.275562	-1.51409
H	5798.65	1.35648	-1.36675
H	5799.4	-0.278284	-1.54315
H	5797.94	0.152898	-2.49863
N	5799.2	-0.924426	1.25199
C	5799.89	-0.852931	2.51937
H	5799.5	-1.6098	0.595661
H	5800.7	-1.61765	2.57244
H	5799.18	-1.03022	3.36169
H	5800.35	0.151867	2.66051
