44
  This energy is 1.27983e-319 and Call times are: 41313
C	-0.840598	1.4567	-3.04919
C	-0.0540919	1.42309	-1.7956
O	0.867605	2.20477	-1.606
H	-0.444654	2.25837	-3.70981
H	-1.9073	1.66918	-2.82599
H	-0.760597	0.483375	-3.57757
N	-0.404152	0.496396	-0.900586
C	0.26604	0.340066	0.365602
C	-0.0118737	-1.06272	0.869782
O	-0.895003	-1.75023	0.36062
H	-1.13803	-0.153609	-1.07907
H	1.334	0.428752	0.211752
C	-0.226182	1.38182	1.39496
H	-1.32227	1.28846	1.54988
H	0.287927	1.26439	2.37102
H	-0.0179171	2.40512	1.01336
N	0.755608	-1.52939	1.87436
C	0.57186	-2.85756	2.41138
H	1.4699	-0.960307	2.26827
H	1.2972	-3.05397	3.23147
H	0.722324	-3.62605	1.61889
H	-0.458336	-2.97808	2.81801
C	1961.96	-2.40188	2.28745
C	1962.05	-1.73074	0.970867
O	1962.95	-1.9926	0.184927
H	1962.81	-3.11336	2.39302
H	1961.01	-2.96463	2.36848
H	1962.02	-1.65163	3.10406
N	1961.1	-0.830793	0.701008
C	1961.05	-0.0961086	-0.537741
C	1960.22	1.15024	-0.306534
O	1959.52	1.26318	0.700409
H	1960.39	-0.605141	1.36139
H	1962.05	0.220913	-0.800021
C	1960.43	-0.945358	-1.6705
H	1959.4	-1.26944	-1.39783
H	1960.39	-0.382739	-2.62581
H	1961.05	-1.85584	-1.82926
N	1960.29	2.12942	-1.22966
C	1959.54	3.35708	-1.08808
H	1960.86	2.02206	-2.03411
H	1959.73	4.0348	-1.94938
H	1959.83	3.88858	-0.153098
H	1958.45	3.14822	-1.04072
