44
  This energy is 4.02713e-320 and Call times are: 26403
C	0.126957	0.354825	-3.46181
C	0.683255	-0.141523	-2.18299
O	1.65274	-0.887284	-2.16199
H	0.71813	-0.0621043	-4.30593
H	0.181211	1.46323	-3.49804
H	-0.930264	0.0330639	-3.56997
N	0.0665325	0.264496	-1.07071
C	0.490831	-0.133142	0.247882
C	-0.681423	0.0551439	1.19107
O	-1.66554	0.707687	0.848247
H	-0.740118	0.848663	-1.10231
H	0.736902	-1.18735	0.235345
C	1.69781	0.704119	0.726751
H	1.44209	1.78514	0.737759
H	2.02719	0.400442	1.74167
H	2.54936	0.558451	0.0269029
N	-0.611371	-0.534515	2.40078
C	-1.6848	-0.420237	3.3604
H	0.190447	-1.06439	2.65681
H	-1.43812	-0.972356	4.29397
H	-2.6297	-0.839278	2.94467
H	-1.86626	0.64741	3.6219
C	1255.22	1.6164	-2.51826
C	1255.4	1.20832	-1.10659
O	1254.66	1.62921	-0.228057
H	1254.36	2.31935	-2.59166
H	1255.01	0.727471	-3.15
H	1256.13	2.1259	-2.88812
N	1256.41	0.36951	-0.854688
C	1256.7	-0.117311	0.468205
C	1258.15	-0.586427	0.476514
O	1258.76	-0.749935	-0.576206
H	1257.02	0.0566619	-1.57465
H	1256.62	0.701325	1.17171
C	1255.77	-1.27813	0.866405
H	1255.85	-2.11595	0.142211
H	1255.99	-1.65527	1.88455
H	1254.71	-0.921956	0.855362
N	1258.73	-0.793763	1.67365
C	1260.1	-1.22956	1.78015
H	1258.22	-0.64903	2.51437
H	1260.4	-1.34509	2.84659
H	1260.79	-0.489915	1.30573
H	1260.24	-2.20918	1.26898
