44
  This energy is 1.20211e-319 and Call times are: 78147
C	2.3691	-2.13384	1.40007
C	1.19563	-1.88087	0.53394
O	0.738514	-2.75928	-0.184347
H	2.70874	-3.18322	1.26112
H	2.09765	-1.98217	2.46597
H	3.19966	-1.44842	1.12932
N	0.678571	-0.650884	0.580253
C	-0.463196	-0.252938	-0.203861
C	-0.450082	1.25949	-0.31167
O	0.274142	1.93535	0.416721
H	1.07789	0.0643319	1.14765
H	-0.360651	-0.654893	-1.20386
C	-1.78324	-0.727993	0.443382
H	-1.88487	-0.314331	1.46938
H	-2.66441	-0.423387	-0.157887
H	-1.7799	-1.83732	0.517743
N	-1.24036	1.82656	-1.24435
C	-1.28478	3.25853	-1.42785
H	-1.8138	1.26209	-1.82896
H	-1.99457	3.52904	-2.24041
H	-0.277641	3.65156	-1.69701
H	-1.61404	3.76476	-0.491628
C	3706.51	-1.74369	2.5486
C	3705.55	-0.718782	2.07636
O	3704.81	-0.136064	2.85776
H	3706.41	-1.85767	3.65014
H	3707.55	-1.43469	2.30986
H	3706.29	-2.7202	2.06581
N	3705.54	-0.477827	0.763282
C	3704.66	0.490842	0.15381
C	3704.54	0.143338	-1.31662
O	3705.31	-0.654933	-1.8433
H	3706.13	-0.979967	0.1334
H	3703.68	0.405182	0.598663
C	3705.21	1.92584	0.314799
H	3706.22	2.00997	-0.14208
H	3704.54	2.67425	-0.153231
H	3705.3	2.16776	1.39624
N	3703.54	0.722425	-2.0113
C	3703.33	0.442823	-3.41322
H	3702.92	1.36026	-1.5654
H	3702.46	1.01638	-3.80477
H	3703.14	-0.642294	-3.57274
H	3704.23	0.722052	-4.00654
