44
  This energy is 1.52152e-319 and Call times are: 117837
C	-1.85956	1.8091	2.32278
C	-1.44491	0.533243	1.69711
O	-1.79611	-0.542576	2.16162
H	-2.48644	1.59382	3.21527
H	-2.45286	2.41261	1.60404
H	-0.96672	2.3871	2.64166
N	-0.670312	0.62818	0.613901
C	-0.186852	-0.523654	-0.104689
C	1.02878	-0.0973465	-0.904526
O	1.28784	1.09348	-1.06778
H	-0.367027	1.50984	0.262277
H	0.13423	-1.27332	0.607335
C	-1.26994	-1.09382	-1.04753
H	-1.59751	-0.32192	-1.77622
H	-0.901059	-1.98092	-1.60229
H	-2.15546	-1.4013	-0.449659
N	1.81871	-1.0672	-1.40592
C	3.00415	-0.756417	-2.17034
H	1.59606	-2.02503	-1.25686
H	3.51734	-1.68791	-2.49622
H	3.71888	-0.157403	-1.56076
H	2.74306	-0.164218	-3.07715
C	5578.82	-2.27605	-0.516732
C	5579.56	-1.32678	0.339168
O	5579.15	-1.01811	1.44929
H	5577.9	-2.60363	0.0141386
H	5579.44	-3.16718	-0.735447
H	5578.53	-1.78557	-1.46971
N	5580.69	-0.831165	-0.170689
C	5581.53	0.102465	0.541556
C	5582.39	0.8296	-0.475375
O	5582.48	0.414283	-1.62869
H	5581	-1.06799	-1.08793
H	5580.9	0.837831	1.02716
C	5582.42	-0.618153	1.57405
H	5583.07	-1.37229	1.07255
H	5583.07	0.097817	2.12438
H	5581.78	-1.14784	2.31254
N	5583.02	1.95128	-0.0739373
C	5583.84	2.71644	-0.975909
H	5582.92	2.27506	0.861587
H	5584.28	3.60161	-0.458426
H	5583.25	3.07503	-1.84723
H	5584.68	2.09353	-1.36303
