44
  This energy is 9.04634e-320 and Call times are: 16365
C	-3.12546	-1.53262	-0.0933159
C	-2.10622	-0.61942	-0.657611
O	-2.25632	-0.106545	-1.75803
H	-3.9621	-1.64151	-0.817225
H	-3.52423	-1.12023	0.857341
H	-2.6811	-2.53254	0.095465
N	-1.02616	-0.39838	0.0953619
C	0.0508805	0.465631	-0.317311
C	1.28354	0.0872432	0.480568
O	1.19332	-0.633111	1.47293
H	-0.902043	-0.845008	0.977436
H	0.266985	0.283931	-1.36247
C	-0.29872	1.95207	-0.0819241
H	-0.5205	2.13478	0.991177
H	0.528376	2.62014	-0.398735
H	-1.20395	2.21636	-0.670857
N	2.47355	0.549862	0.0494483
C	3.70251	0.231704	0.738373
H	2.52657	1.12558	-0.759853
H	4.57156	0.706399	0.231759
H	3.86758	-0.869918	0.758828
H	3.66858	0.595328	1.7909
C	777.638	-0.0593216	1.45694
C	778.738	0.647144	0.763519
O	778.601	1.79517	0.364102
H	776.753	0.610972	1.51978
H	777.95	-0.33899	2.48497
H	777.356	-0.974491	0.894753
N	779.872	-0.0384954	0.598242
C	781.031	0.513424	-0.0568941
C	781.895	-0.641007	-0.525854
O	781.698	-1.78213	-0.1126
H	779.962	-0.983169	0.902252
H	780.711	1.06245	-0.933564
C	781.835	1.4257	0.896328
H	782.16	0.859439	1.7949
H	782.728	1.85248	0.395035
H	781.19	2.26664	1.23363
N	782.864	-0.372182	-1.42232
C	783.729	-1.40988	-1.93472
H	783.004	0.556522	-1.75001
H	784.461	-0.989667	-2.65843
H	783.134	-2.19547	-2.45451
H	784.293	-1.89589	-1.10631
