44
  This energy is 1.15681e-319 and Call times are: 110109
C	-0.403055	-1.59765	-3.06777
C	-0.187144	-0.381418	-2.25207
O	0.0636713	0.69524	-2.77589
H	-0.291191	-1.3427	-4.14403
H	-1.42528	-1.99616	-2.89725
H	0.345059	-2.3742	-2.80273
N	-0.275891	-0.531639	-0.928465
C	-0.0912327	0.558344	-0.00398288
C	0.256037	-0.0319305	1.34887
O	0.092911	-1.22992	1.57259
H	-0.451965	-1.41989	-0.512592
H	0.751335	1.15584	-0.32825
C	-1.36568	1.42486	0.105774
H	-2.22821	0.808609	0.438007
H	-1.22691	2.26517	0.8167
H	-1.61005	1.85043	-0.891882
N	0.766622	0.797395	2.28028
C	1.13777	0.322545	3.59289
H	0.89773	1.76226	2.07759
H	1.53556	1.15496	4.21426
H	1.9222	-0.465089	3.51847
H	0.257069	-0.115634	4.11592
C	5218.35	-2.16432	-1.19598
C	5217.84	-0.803249	-0.923573
O	5218.54	0.183228	-1.08302
H	5219.41	-2.09679	-1.53365
H	5217.75	-2.64813	-1.99379
H	5218.31	-2.78186	-0.274221
N	5216.58	-0.720926	-0.493638
C	5215.94	0.532825	-0.186914
C	5214.76	0.244775	0.732215
O	5214.35	-0.903662	0.884291
H	5216.02	-1.53393	-0.339884
H	5216.63	1.16081	0.35434
C	5215.44	1.24125	-1.46865
H	5214.73	0.593949	-2.02179
H	5214.95	2.20704	-1.23612
H	5216.31	1.44562	-2.13399
N	5214.21	1.28559	1.38666
C	5213.1	1.10581	2.29176
H	5214.56	2.20643	1.25571
H	5212.79	2.07957	2.72945
H	5213.38	0.420417	3.12471
H	5212.23	0.664593	1.75914
