44
  This energy is 2.75738e-320 and Call times are: 43539
C	-3.44446	-0.469322	-0.203932
C	-2.2525	0.186937	0.378962
O	-2.36374	1.11899	1.16344
H	-4.36195	0.0251426	0.182825
H	-3.46765	-1.54244	0.0801426
H	-3.42763	-0.380508	-1.31063
N	-1.06598	-0.29065	-0.00372084
C	0.183379	0.243306	0.476719
C	1.2665	-0.144911	-0.51089
O	1.05857	-1.00281	-1.36681
H	-0.988077	-1.03126	-0.665809
H	0.122262	1.32412	0.48987
C	0.525041	-0.301877	1.88141
H	0.586295	-1.41096	1.86442
H	1.48637	0.107365	2.25443
H	-0.276498	-0.0118125	2.59523
N	2.44794	0.497944	-0.427624
C	3.53393	0.203386	-1.33318
H	2.59428	1.19418	0.267414
H	4.42035	0.834566	-1.10268
H	3.23008	0.397454	-2.38734
H	3.8344	-0.866327	-1.25184
C	2063.02	0.863257	0.795385
C	2064.47	1.14363	0.783382
O	2064.91	2.22762	1.14328
H	2062.48	1.76216	1.15786
H	2062.8	0.0121637	1.47371
H	2062.67	0.619168	-0.229284
N	2065.27	0.156577	0.355963
C	2066.7	0.278283	0.287306
C	2067.21	-0.762816	-0.69024
O	2066.48	-1.67864	-1.06928
H	2064.89	-0.711755	0.0378901
H	2066.95	1.25348	-0.10979
C	2067.35	0.0683838	1.67347
H	2067.09	-0.932747	2.07817
H	2068.45	0.161568	1.62425
H	2066.97	0.836402	2.38061
N	2068.47	-0.632546	-1.13973
C	2069.04	-1.56924	-2.08148
H	2069.04	0.119485	-0.826594
H	2070.09	-1.29306	-2.32726
H	2068.45	-1.58195	-3.02665
H	2069.04	-2.60038	-1.65967
