44
  This energy is 1.45631e-319 and Call times are: 72897
C	-1.2331	-2.60636	-1.95256
C	-1.39641	-1.30689	-1.26269
O	-2.41	-0.637279	-1.40668
H	-2.13553	-2.81108	-2.56865
H	-1.1132	-3.42196	-1.20876
H	-0.343493	-2.57824	-2.61646
N	-0.38117	-0.914128	-0.489777
C	-0.392484	0.325347	0.245343
C	1.04413	0.691157	0.564024
O	1.94681	-0.13319	0.431919
H	0.451415	-1.45479	-0.40362
H	-0.798172	1.10539	-0.386339
C	-1.21024	0.198094	1.55003
H	-0.791724	-0.603462	2.19537
H	-1.22115	1.15075	2.11846
H	-2.26028	-0.0712849	1.30303
N	1.29241	1.95098	0.972929
C	2.63088	2.39337	1.28752
H	0.549338	2.60542	1.06672
H	2.6281	3.45903	1.60627
H	3.29613	2.29497	0.399261
H	3.06335	1.78177	2.1122
C	3460.35	-1.67664	-2.3439
C	3460.1	-0.526947	-1.44797
O	3460.94	0.341696	-1.27431
H	3461.38	-1.58722	-2.77064
H	3459.62	-1.68719	-3.17478
H	3460.28	-2.6281	-1.77583
N	3458.91	-0.500555	-0.845473
C	3458.51	0.552806	0.0539832
C	3457.38	0.0234308	0.923365
O	3456.8	-1.01938	0.631702
H	3458.24	-1.22928	-0.972441
H	3459.34	0.794207	0.70306
C	3458.04	1.80474	-0.719253
H	3457.18	1.55335	-1.38463
H	3457.73	2.61784	-0.0297072
H	3458.87	2.18208	-1.35313
N	3457.07	0.723702	2.03023
C	3456.02	0.290116	2.92431
H	3457.55	1.56135	2.25284
H	3455.91	0.99921	3.77418
H	3456.25	-0.719111	3.33729
H	3455.04	0.231227	2.38797
