44
  This energy is 1.12538e-319 and Call times are: 11157
C	-0.45671	2.61895	2.24914
C	-0.675747	1.9822	0.930897
O	-1.44833	2.46618	0.1152
H	-1.08776	3.53095	2.32589
H	0.609153	2.90899	2.36153
H	-0.736759	1.9185	3.06394
N	0.007646	0.860166	0.69344
C	-0.0991622	0.126632	-0.542419
C	0.364021	-1.29367	-0.282728
O	0.972944	-1.57791	0.746957
H	0.611915	0.460044	1.37732
H	-1.13988	0.0844197	-0.83772
C	0.758792	0.770272	-1.65451
H	1.82573	0.81259	-1.34797
H	0.678747	0.208047	-2.60755
H	0.410311	1.81063	-1.83442
N	0.0648713	-2.22758	-1.20702
C	0.454534	-3.60829	-1.03974
H	-0.434862	-1.97907	-2.03027
H	0.118881	-4.21939	-1.90643
H	0.00324718	-4.03456	-0.114603
H	1.56194	-3.69681	-0.956103
C	533.934	2.04699	2.11053
C	534.149	1.36522	0.814332
O	533.285	1.36641	-0.0519534
H	532.921	2.50363	2.12165
H	534.69	2.84748	2.25187
H	534.009	1.31713	2.94402
N	535.325	0.752872	0.654216
C	535.681	0.0476076	-0.551009
C	536.793	-0.924964	-0.210266
O	537.402	-0.83577	0.854277
H	536.009	0.734278	1.37855
H	534.829	-0.530928	-0.884972
C	536.147	1.0218	-1.65594
H	537.021	1.61416	-1.30973
H	536.422	0.482075	-2.58541
H	535.324	1.72963	-1.8956
N	537.07	-1.89554	-1.10315
C	538.104	-2.8738	-0.859314
H	536.561	-1.95531	-1.95572
H	538.181	-3.58577	-1.7105
H	537.885	-3.45528	0.0653579
H	539.093	-2.37656	-0.728187
