44
  This energy is 8.15505e-320 and Call times are: 70545
C	1.81279	-2.62567	1.39491
C	1.57501	-1.63327	0.322626
O	2.37804	-1.48079	-0.58754
H	2.78148	-3.1394	1.21167
H	1.00046	-3.38257	1.40265
H	1.85549	-2.11961	2.38234
N	0.44925	-0.921276	0.412588
C	0.0790327	0.0811649	-0.554304
C	-0.920544	1.01409	0.101235
O	-1.46523	0.708043	1.16024
H	-0.182739	-1.03436	1.17465
H	0.954794	0.664223	-0.809568
C	-0.539695	-0.557414	-1.81783
H	-1.43749	-1.15536	-1.55223
H	-0.825766	0.211643	-2.56449
H	0.201929	-1.23938	-2.28801
N	-1.16901	2.19091	-0.506512
C	-2.09673	3.1478	0.0501543
H	-0.71278	2.42329	-1.35921
H	-2.16554	4.05057	-0.596007
H	-1.76892	3.46785	1.06571
H	-3.11399	2.70252	0.14009
C	3347.68	-0.998254	3.08248
C	3347.15	-1.29995	1.73237
O	3347.16	-2.43947	1.28768
H	3348.05	-1.935	3.54735
H	3346.87	-0.578439	3.72203
H	3348.51	-0.269628	3.01369
N	3346.67	-0.265371	1.03812
C	3346.12	-0.400285	-0.288585
C	3346.17	0.962402	-0.952082
O	3346.38	1.97733	-0.289859
H	3346.69	0.662873	1.39991
H	3346.75	-1.06704	-0.862734
C	3344.67	-0.922874	-0.247942
H	3344.03	-0.236839	0.342406
H	3344.25	-1.02808	-1.26784
H	3344.65	-1.92101	0.241404
N	3346	1.01352	-2.28757
C	3346.04	2.26522	-3.00721
H	3345.84	0.180354	-2.8067
H	3345.87	2.099	-4.09459
H	3347.02	2.76375	-2.87479
H	3345.25	2.95777	-2.63457
