44
  This energy is 9.15257e-320 and Call times are: 102507
C	-0.735424	3.29799	0.841739
C	0.214273	2.17121	0.701602
O	1.41607	2.3331	0.862782
H	-0.172753	4.22367	1.09151
H	-1.46094	3.08787	1.65555
H	-1.28421	3.45685	-0.110389
N	-0.313923	0.986112	0.387089
C	0.481257	-0.203645	0.216812
C	-0.320933	-1.18502	-0.615428
O	-1.52357	-1.01272	-0.804682
H	-1.2914	0.873263	0.229789
H	1.37473	0.0471152	-0.340777
C	0.846283	-0.835894	1.57848
H	-0.0726237	-1.09129	2.14813
H	1.45869	-1.75213	1.45105
H	1.43262	-0.106698	2.179
N	0.335715	-2.23202	-1.15265
C	-0.342943	-3.21127	-1.96915
H	1.31043	-2.3501	-0.993808
H	0.366938	-3.99441	-2.31559
H	-0.797244	-2.72905	-2.86487
H	-1.1578	-3.70661	-1.39311
C	4856.52	-1.52522	2.73799
C	4856.58	-0.737549	1.48629
O	4857.63	-0.223706	1.11447
H	4857.52	-1.53747	3.21538
H	4856.21	-2.5696	2.51775
H	4855.79	-1.068	3.44174
N	4855.44	-0.619509	0.801656
C	4855.34	0.115272	-0.434268
C	4853.89	0.480353	-0.646125
O	4853	-0.0539865	0.0192587
H	4854.59	-1.01834	1.13004
H	4855.9	1.03711	-0.34046
C	4855.86	-0.719434	-1.62703
H	4855.29	-1.6647	-1.71992
H	4855.79	-0.156594	-2.58025
H	4856.93	-0.981421	-1.45915
N	4853.61	1.42134	-1.56904
C	4852.25	1.84179	-1.83106
H	4854.34	1.84714	-2.09218
H	4852.23	2.62153	-2.62396
H	4851.78	2.26341	-0.910762
H	4851.63	0.979972	-2.16791
