44
  This energy is 9.66886e-320 and Call times are: 102717
C	1.85106	-1.88506	2.26854
C	1.75626	-0.948526	1.12612
O	2.75375	-0.412952	0.662799
H	2.91395	-1.97665	2.58116
H	1.47558	-2.88749	1.97363
H	1.25585	-1.50514	3.12547
N	0.531867	-0.723407	0.643896
C	0.279015	0.161847	-0.464805
C	-1.17753	0.579166	-0.40501
O	-1.97289	-0.0165987	0.31907
H	-0.276074	-1.14328	1.04871
H	0.881738	1.05352	-0.347656
C	0.579232	-0.527274	-1.81466
H	-0.0403092	-1.44198	-1.93124
H	0.385746	0.151618	-2.67049
H	1.64884	-0.829168	-1.84544
N	-1.55694	1.63346	-1.15368
C	-2.92042	2.11001	-1.15171
H	-0.896853	2.10683	-1.72765
H	-3.03283	2.98306	-1.83172
H	-3.22594	2.4224	-0.126859
H	-3.6171	1.30945	-1.4907
C	4865.98	-0.744857	3.25787
C	4865.44	-1.14187	1.93811
O	4865.24	-2.31761	1.66202
H	4866.16	-1.65499	3.87137
H	4865.25	-0.0900799	3.78647
H	4866.94	-0.204772	3.13112
N	4865.19	-0.152052	1.07842
C	4864.66	-0.379976	-0.243071
C	4864.98	0.8343	-1.09075
O	4865.37	1.87999	-0.569837
H	4865.38	0.799567	1.30462
H	4865.16	-1.23194	-0.681222
C	4863.13	-0.608207	-0.207008
H	4862.62	0.267428	0.243677
H	4862.72	-0.784172	-1.22288
H	4862.91	-1.49965	0.417934
N	4864.86	0.715484	-2.42724
C	4865.16	1.81481	-3.31492
H	4864.55	-0.141265	-2.83007
H	4864.99	1.5209	-4.37478
H	4866.22	2.1332	-3.20173
H	4864.51	2.69124	-3.08816
