44
  This energy is 6.98362e-320 and Call times are: 21615
C	-1.354	-3.13751	0.669948
C	-1.2771	-1.89813	-0.135789
O	-1.90078	-1.78409	-1.18198
H	-2.02576	-3.86398	0.163144
H	-1.76192	-2.91373	1.67808
H	-0.345619	-3.59109	0.771881
N	-0.491641	-0.929175	0.340185
C	-0.31503	0.334078	-0.330507
C	0.978934	0.94865	0.166681
O	1.53991	0.508188	1.16825
H	0.0340767	-1.0453	1.17868
H	-0.207819	0.15636	-1.39305
C	-1.49772	1.28863	-0.0526697
H	-1.60523	1.46823	1.03834
H	-1.36503	2.26223	-0.567725
H	-2.43969	0.82645	-0.420404
N	1.49614	1.97326	-0.539491
C	2.73057	2.6133	-0.148692
H	1.03093	2.31066	-1.35126
H	2.9884	3.43399	-0.853845
H	3.56895	1.87959	-0.143218
H	2.64275	3.04484	0.874655
C	1029.26	1.07011	-3.25119
C	1029.79	0.079208	-2.28774
O	1030.18	-1.01749	-2.6604
H	1029.29	0.638807	-4.27538
H	1029.88	1.99187	-3.23143
H	1028.21	1.32514	-2.99887
N	1029.81	0.449113	-1.00506
C	1030.29	-0.405081	0.0487097
C	1029.7	0.0845264	1.35606
O	1029.16	1.18636	1.42755
H	1029.45	1.33422	-0.710564
H	1029.93	-1.41175	-0.119333
C	1031.84	-0.383403	0.123038
H	1032.2	0.650914	0.29483
H	1032.21	-1.04019	0.933289
H	1032.26	-0.743075	-0.840944
N	1029.77	-0.738124	2.42109
C	1029.22	-0.362028	3.70391
H	1030.21	-1.62875	2.34123
H	1029.38	-1.1705	4.45125
H	1028.13	-0.168967	3.62315
H	1029.71	0.565681	4.08222
