44
  This energy is 8.63083e-320 and Call times are: 28083
C	2.38657	2.52983	0.174211
C	1.22274	1.8805	-0.470041
O	0.630366	2.41837	-1.3954
H	2.576	3.51097	-0.312973
H	3.28958	1.89334	0.0634474
H	2.18292	2.6975	1.2528
N	0.861407	0.691695	0.0183729
C	-0.24992	-0.0627914	-0.503671
C	-0.688709	-1.04548	0.564513
O	0.0249518	-1.27459	1.53921
H	1.33401	0.277309	0.791591
H	-1.07634	0.611303	-0.689943
C	0.139883	-0.818986	-1.79338
H	0.988397	-1.50912	-1.59883
H	-0.713575	-1.40086	-2.19811
H	0.460493	-0.088162	-2.56749
N	-1.89102	-1.63552	0.415156
C	-2.39727	-2.57587	1.38759
H	-2.45691	-1.43156	-0.37693
H	-3.39971	-2.952	1.08608
H	-2.48986	-2.09475	2.38818
H	-1.71059	-3.44764	1.48589
C	1340.03	0.130054	-1.70868
C	1339.25	0.0159019	-0.459708
O	1339.79	-0.231376	0.608674
H	1341.11	-0.0470949	-1.48389
H	1339.92	1.14647	-2.14085
H	1339.69	-0.62559	-2.44687
N	1337.93	0.191039	-0.57114
C	1337.03	0.111015	0.553985
C	1335.64	-0.162514	0.020861
O	1335.38	-0.0279646	-1.17483
H	1337.49	0.363155	-1.45188
H	1337.32	-0.729752	1.17306
C	1337.04	1.42073	1.37356
H	1336.74	2.28127	0.735234
H	1336.35	1.3625	2.24076
H	1338.06	1.61041	1.75745
N	1334.7	-0.57647	0.898495
C	1333.35	-0.872395	0.480298
H	1334.93	-0.686129	1.86079
H	1332.73	-1.19538	1.3468
H	1333.34	-1.68828	-0.278341
H	1332.87	0.0260223	0.0251802
