44
  This energy is 1.04875e-319 and Call times are: 109647
C	-2.70749	-1.97279	-0.950643
C	-1.25336	-1.75062	-0.785316
O	-0.450077	-2.6539	-0.973261
H	-2.88647	-3.02994	-1.24434
H	-3.10856	-1.30678	-1.74336
H	-3.23671	-1.77055	0.00432974
N	-0.879043	-0.522918	-0.417903
C	0.499341	-0.153189	-0.217438
C	0.527417	1.07997	0.664469
O	-0.495847	1.73059	0.868076
H	-1.54502	0.196527	-0.239555
H	1.00348	-0.949802	0.314844
C	1.20464	0.13824	-1.56084
H	0.684467	0.955492	-2.10456
H	2.26622	0.423091	-1.41016
H	1.17624	-0.772376	-2.19812
N	1.70351	1.41832	1.22868
C	1.82365	2.56955	2.09264
H	2.51877	0.874955	1.05741
H	2.86914	2.68149	2.4555
H	1.15448	2.46817	2.9776
H	1.53939	3.49988	1.54962
C	5190.52	-0.264535	-0.786721
C	5191.86	0.309869	-1.0066
O	5192.09	1.03626	-1.96384
H	5189.84	0.0695238	-1.6009
H	5190.11	0.080188	0.186374
H	5190.57	-1.37372	-0.793734
N	5192.8	-0.0142196	-0.111806
C	5194.16	0.466446	-0.190737
C	5195.03	-0.469158	0.62178
O	5194.53	-1.27928	1.39989
H	5192.61	-0.630346	0.647495
H	5194.49	0.415758	-1.21997
C	5194.28	1.90848	0.3512
H	5193.93	1.95697	1.40705
H	5195.32	2.28176	0.29176
H	5193.63	2.58369	-0.251595
N	5196.36	-0.392884	0.442056
C	5197.27	-1.25192	1.16322
H	5196.75	0.264414	-0.197489
H	5198.33	-1.03557	0.879186
H	5197.06	-2.32293	0.939761
H	5197.17	-1.10145	2.2621
