44
  This energy is 5.90013e-320 and Call times are: 94863
C	-2.35333	-2.55937	-0.193922
C	-1.99282	-1.13052	-0.0538104
O	-2.84995	-0.257782	-0.0658022
H	-3.45544	-2.65068	-0.307357
H	-2.03695	-3.124	0.708255
H	-1.86262	-2.99184	-1.09121
N	-0.692762	-0.857164	0.0784401
C	-0.187047	0.484359	0.224716
C	1.27676	0.476166	-0.170791
O	1.88918	-0.583099	-0.292201
H	-0.00168621	-1.57474	0.0574617
H	-0.710387	1.13478	-0.464586
C	-0.342208	0.988773	1.67682
H	0.195326	0.318838	2.38135
H	0.0460609	2.02151	1.79295
H	-1.41873	0.988904	1.95477
N	1.86813	1.66455	-0.403238
C	3.25513	1.75436	-0.796115
H	1.35367	2.51026	-0.306604
H	3.55566	2.81585	-0.938161
H	3.42857	1.21001	-1.75258
H	3.91387	1.30443	-0.0184294
C	4492.12	-0.233973	3.38573
C	4491.83	0.240741	2.01351
O	4490.78	0.801453	1.74622
H	4491.26	0.000918422	4.04447
H	4493.02	0.273052	3.78421
H	4492.28	-1.33233	3.38458
N	4492.78	0.0168101	1.09799
C	4492.64	0.420109	-0.279029
C	4493.6	-0.417413	-1.10513
O	4494.49	-1.07637	-0.56452
H	4493.62	-0.46695	1.32178
H	4491.64	0.19814	-0.614346
C	4492.96	1.92153	-0.458866
H	4493.99	2.14584	-0.113271
H	4492.86	2.23546	-1.51798
H	4492.25	2.5241	0.152186
N	4493.43	-0.427774	-2.44161
C	4494.28	-1.20526	-3.30779
H	4492.7	0.106526	-2.8595
H	4493.98	-1.08107	-4.37156
H	4494.22	-2.28763	-3.05071
H	4495.34	-0.88402	-3.20334
