44
  This energy is 4.1457e-320 and Call times are: 50133
C	3.07587	0.177033	1.62291
C	1.59632	0.133486	1.63897
O	0.97773	0.0368347	2.68992
H	3.45682	0.10295	2.66466
H	3.42567	1.13299	1.17951
H	3.47752	-0.672969	1.03204
N	0.988214	0.1992	0.452278
C	-0.445114	0.168773	0.305739
C	-0.759255	-0.259053	-1.11465
O	0.116828	-0.266028	-1.97736
H	1.50411	0.248407	-0.398821
H	-0.851142	-0.581238	0.972596
C	-1.06954	1.55223	0.594289
H	-0.650273	2.31937	-0.0911546
H	-2.17312	1.53233	0.482512
H	-0.831257	1.85476	1.63729
N	-2.02047	-0.648798	-1.38564
C	-2.4095	-1.08401	-2.70678
H	-2.71343	-0.642891	-0.672188
H	-3.48646	-1.36141	-2.7282
H	-1.81276	-1.97126	-3.01974
H	-2.24108	-0.274027	-3.45293
C	2377.59	-2.67264	2.22401
C	2376.83	-1.62876	1.50667
O	2375.6	-1.58885	1.56382
H	2376.89	-3.34263	2.76104
H	2378.28	-2.20515	2.963
H	2378.18	-3.2766	1.5038
N	2377.54	-0.75017	0.799032
C	2376.94	0.322416	0.0483389
C	2377.93	0.769552	-1.00528
O	2379.11	0.417345	-0.948644
H	2378.53	-0.810769	0.736785
H	2376.06	-0.0554792	-0.464796
C	2376.56	1.50941	0.964139
H	2377.46	1.89418	1.48949
H	2376.1	2.33701	0.389353
H	2375.84	1.16858	1.73219
N	2377.47	1.54319	-2.00906
C	2378.35	2.00711	-3.06358
H	2376.52	1.81161	-2.04108
H	2377.78	2.63067	-3.79278
H	2378.79	1.146	-3.61076
H	2379.18	2.62021	-2.64568
