44
  This energy is 1.13171e-319 and Call times are: 65169
C	1.84193	2.4131	1.70597
C	0.725808	2.01341	0.819571
O	-0.122234	2.82139	0.466735
H	1.74328	3.49152	1.95726
H	2.81384	2.25083	1.19423
H	1.81572	1.82136	2.64518
N	0.699285	0.733827	0.439661
C	-0.323021	0.195177	-0.421486
C	-0.355233	-1.30774	-0.22286
O	0.559176	-1.88408	0.363246
H	1.37957	0.0787134	0.757417
H	-1.28416	0.58814	-0.115109
C	-0.0433568	0.529287	-1.90381
H	0.943711	0.125264	-2.21458
H	-0.828692	0.116145	-2.56964
H	-0.0210995	1.63302	-2.03584
N	-1.42704	-1.97728	-0.690769
C	-1.55037	-3.40813	-0.53706
H	-2.16003	-1.49193	-1.15596
H	-2.49959	-3.77179	-0.988713
H	-1.54486	-3.68938	0.540951
H	-0.702092	-3.93149	-1.03475
C	3091.36	-2.41007	2.4497
C	3091.84	-1.50248	1.38252
O	3093.04	-1.35247	1.16814
H	3092.24	-2.86849	2.96099
H	3090.74	-3.21738	2.01363
H	3090.77	-1.84336	3.19563
N	3090.9	-0.862692	0.682921
C	3091.21	0.0524816	-0.386628
C	3090.01	0.95498	-0.58906
O	3088.92	0.678193	-0.0838459
H	3089.93	-0.971098	0.886437
H	3092.04	0.675868	-0.0868735
C	3091.53	-0.701204	-1.69565
H	3090.68	-1.34025	-1.99989
H	3091.77	0.000471708	-2.52124
H	3092.42	-1.35965	-1.53383
N	3090.18	2.07369	-1.31983
C	3089.1	2.99882	-1.55586
H	3091.07	2.28373	-1.71431
H	3089.44	3.85419	-2.17934
H	3088.71	3.40092	-0.59284
H	3088.26	2.49324	-2.08454
