44
  This energy is 1.40241e-319 and Call times are: 47823
C	-3.17673	-1.33065	0.513689
C	-1.98759	-1.09079	-0.334616
O	-1.87411	-1.62356	-1.42995
H	-3.86415	-2.03198	-0.00733362
H	-3.71175	-0.375977	0.701232
H	-2.87172	-1.77957	1.48239
N	-1.05763	-0.273679	0.165263
C	0.154112	0.0566314	-0.541414
C	1.16896	0.541808	0.475409
O	0.822412	0.837972	1.61735
H	-1.14818	0.131194	1.07125
H	0.55032	-0.840927	-0.999106
C	-0.095253	1.14847	-1.60575
H	-0.50231	2.0676	-1.13286
H	0.835694	1.4051	-2.15188
H	-0.841209	0.781259	-2.34389
N	2.45746	0.613606	0.0873189
C	3.49532	1.05305	0.990602
H	2.71891	0.362735	-0.838931
H	4.48602	1.04516	0.48494
H	3.55063	0.384822	1.88035
H	3.29247	2.0884	1.34848
C	2269.78	0.41451	-3.41815
C	2269.76	0.921396	-2.02752
O	2269.52	2.09713	-1.78628
H	2269.56	1.25127	-4.11732
H	2269.01	-0.372681	-3.54992
H	2270.78	-0.00475568	-3.65801
N	2270.02	0.030061	-1.06758
C	2270.03	0.371612	0.332395
C	2270.84	-0.684273	1.0605
O	2271.13	-1.74414	0.509297
H	2270.24	-0.918609	-1.27877
H	2270.54	1.31944	0.457638
C	2268.6	0.437705	0.911397
H	2268.08	-0.536085	0.780627
H	2268.61	0.700614	1.98917
H	2268.02	1.21391	0.368875
N	2271.24	-0.40773	2.31661
C	2272.03	-1.34774	3.08316
H	2271	0.45849	2.74263
H	2272.26	-0.938195	4.09155
H	2272.99	-1.56909	2.56743
H	2271.48	-2.30717	3.2115
