44
  This energy is 1.11955e-319 and Call times are: 122457
C	-0.528881	0.0281578	-3.44175
C	-0.296846	-0.686453	-2.16633
O	-0.359368	-1.9066	-2.10446
H	-0.755002	-0.710803	-4.24091
H	0.377126	0.602148	-3.72899
H	-1.38936	0.722612	-3.34046
N	-0.0250723	0.07262	-1.10223
C	0.224072	-0.476644	0.206616
C	-0.0237718	0.61803	1.22617
O	-0.125663	1.79216	0.875642
H	-0.00568672	1.06726	-1.15932
H	-0.487476	-1.2702	0.396461
C	1.67243	-1.00009	0.330589
H	2.39975	-0.183583	0.134562
H	1.86763	-1.42385	1.33712
H	1.84162	-1.80054	-0.422279
N	-0.148735	0.253022	2.51736
C	-0.39771	1.22472	3.55659
H	-0.0702214	-0.703046	2.78004
H	-0.466792	0.729098	4.54999
H	-1.35306	1.7659	3.36773
H	0.423166	1.97689	3.59626
C	5799.5	2.68738	2.19369
C	5798.85	2.00568	1.05267
O	5797.83	2.45569	0.544317
H	5798.92	3.59578	2.46024
H	5800.54	2.99041	1.91942
H	5799.54	2.01166	3.0741
N	5799.43	0.88255	0.623134
C	5798.92	0.107832	-0.477131
C	5799.47	-1.29899	-0.355865
O	5800.4	-1.54379	0.404469
H	5800.24	0.510521	1.06433
H	5797.84	0.0466977	-0.389874
C	5799.32	0.722119	-1.83593
H	5800.43	0.783962	-1.9218
H	5798.92	0.128154	-2.68531
H	5798.91	1.75286	-1.91189
N	5798.88	-2.26543	-1.09163
C	5799.34	-3.63637	-1.03241
H	5798.12	-2.04858	-1.69563
H	5798.73	-4.27861	-1.71044
H	5799.24	-4.03596	0.00345441
H	5800.4	-3.71227	-1.33759
