44
  This energy is 1.51001e-319 and Call times are: 117795
C	-0.33957	-3.44521	-0.375969
C	0.374607	-2.1728	-0.625231
O	1.46457	-2.15746	-1.18042
H	0.272682	-4.29093	-0.757771
H	-1.31787	-3.44404	-0.901077
H	-0.505147	-3.58433	0.713147
N	-0.233054	-1.05998	-0.207219
C	0.336181	0.252853	-0.378332
C	-0.316937	1.17881	0.62928
O	-1.33587	0.838539	1.22747
H	-1.10744	-1.08805	0.269846
H	1.39343	0.210549	-0.149173
C	0.108467	0.782205	-1.81188
H	-0.977158	0.823673	-2.04386
H	0.545656	1.79282	-1.94714
H	0.590623	0.0945968	-2.54048
N	0.271304	2.36968	0.856893
C	-0.272221	3.31153	1.8075
H	1.09937	2.6237	0.368011
H	0.352064	4.23112	1.85082
H	-0.30829	2.86407	2.82717
H	-1.30856	3.60432	1.5221
C	5580.36	1.87431	2.77301
C	5580.52	0.717077	1.86438
O	5581.49	-0.031152	1.95908
H	5581.22	1.91105	3.47812
H	5579.42	1.77402	3.35597
H	5580.33	2.81858	2.18939
N	5579.57	0.546777	0.944829
C	5579.59	-0.533047	-0.00935174
C	5578.71	-0.138858	-1.17642
O	5577.93	0.81389	-1.08643
H	5578.81	1.18004	0.85903
H	5580.6	-0.652419	-0.385953
C	5579.08	-1.84932	0.620764
H	5578.05	-1.72309	1.00667
H	5579.1	-2.68291	-0.111178
H	5579.74	-2.12655	1.47508
N	5578.81	-0.85441	-2.3131
C	5578.02	-0.544891	-3.48004
H	5579.45	-1.61732	-2.36846
H	5578.25	-1.24691	-4.31093
H	5578.23	0.492728	-3.83025
H	5576.93	-0.622969	-3.24872
