44
  This energy is 8.42481e-320 and Call times are: 22161
C	-2.73098	-1.13555	-1.83804
C	-2.07242	-0.134237	-0.969202
O	-2.60202	0.942445	-0.730933
H	-3.70406	-0.731168	-2.19225
H	-2.91609	-2.07177	-1.27056
H	-2.09212	-1.35762	-2.71865
N	-0.879457	-0.471869	-0.474024
C	-0.11634	0.396203	0.38675
C	1.3331	-0.0451486	0.326878
O	1.63991	-1.13087	-0.161905
H	-0.445434	-1.34016	-0.699048
H	-0.168517	1.40706	0.00266735
C	-0.629817	0.33763	1.84278
H	-0.57551	-0.700913	2.23341
H	-0.0445255	1.00499	2.50825
H	-1.69281	0.662102	1.87292
N	2.26484	0.802143	0.806404
C	3.67084	0.472478	0.780469
H	1.99711	1.67924	1.19145
H	4.27588	1.29535	1.22098
H	4.01587	0.305004	-0.265545
H	3.86735	-0.457321	1.36188
C	1058.32	2.47993	0.35784
C	1056.98	1.92225	0.633607
O	1056.22	2.45254	1.43996
H	1058.48	3.38469	0.984248
H	1058.4	2.76457	-0.712105
H	1059.1	1.73183	0.603384
N	1056.64	0.81746	-0.0380385
C	1055.37	0.158467	0.122163
C	1055.53	-1.27397	-0.350482
O	1056.51	-1.61786	-1.00265
H	1057.27	0.378432	-0.670661
H	1055.12	0.132121	1.17459
C	1054.26	0.868486	-0.687993
H	1054.53	0.894314	-1.7671
H	1053.28	0.363741	-0.566774
H	1054.16	1.9171	-0.33303
N	1054.56	-2.15182	-0.0112694
C	1054.63	-3.53938	-0.406543
H	1053.78	-1.85568	0.523005
H	1053.74	-4.09847	-0.0336021
H	1055.55	-4.02061	0.00512725
H	1054.66	-3.63084	-1.51644
