44
  This energy is 2.95352e-320 and Call times are: 55803
C	2.38216	0.412587	-2.50624
C	1.0176	0.0613595	-2.05257
O	0.121198	-0.158846	-2.85536
H	2.40513	0.435965	-3.61745
H	3.11119	-0.34419	-2.1476
H	2.6684	1.41339	-2.1197
N	0.827365	0.00658395	-0.732275
C	-0.444107	-0.321886	-0.13873
C	-0.444533	0.204951	1.28313
O	0.601155	0.565264	1.82029
H	1.55832	0.216585	-0.0884305
H	-1.22836	0.191855	-0.680111
C	-0.688156	-1.84752	-0.140081
H	0.118587	-2.37147	0.415579
H	-1.66638	-2.10394	0.316107
H	-0.684348	-2.22128	-1.18719
N	-1.62923	0.282373	1.92071
C	-1.72878	0.78241	3.27209
H	-2.46523	-0.00740635	1.46644
H	-2.78493	0.76586	3.62071
H	-1.35649	1.83079	3.3315
H	-1.12018	0.159992	3.96734
C	2646.73	1.39085	2.94675
C	2646.93	0.763796	1.62096
O	2648.04	0.674583	1.12566
H	2647.71	1.73151	3.34415
H	2646.29	0.65677	3.65463
H	2646.05	2.26747	2.85736
N	2645.83	0.313767	1.00582
C	2645.87	-0.320184	-0.287915
C	2644.48	-0.22299	-0.891319
O	2643.51	0.0929047	-0.198991
H	2644.93	0.41853	1.40677
H	2646.54	0.227987	-0.930513
C	2646.3	-1.80038	-0.177798
H	2645.6	-2.35961	0.48267
H	2646.32	-2.29151	-1.17218
H	2647.31	-1.85801	0.266662
N	2644.35	-0.472917	-2.20939
C	2643.07	-0.393117	-2.87332
H	2645.15	-0.720052	-2.75399
H	2643.17	-0.63489	-3.95425
H	2642.65	0.632033	-2.78216
H	2642.35	-1.1095	-2.42032
