44
  This energy is 7.76029e-320 and Call times are: 108471
C	-1.17004	3.26911	0.264622
C	-0.460193	2.09221	0.814363
O	0.143947	2.15696	1.87611
H	-1.03918	4.13178	0.953497
H	-2.25397	3.05001	0.165031
H	-0.754487	3.53688	-0.729641
N	-0.514466	0.973928	0.0871325
C	0.125858	-0.252532	0.490382
C	0.310524	-1.1102	-0.746362
O	-0.277434	-0.840358	-1.79198
H	-0.985414	0.941953	-0.790433
H	1.10896	-0.0239574	0.881959
C	-0.718274	-1.00899	1.5403
H	-1.72639	-1.24129	1.13552
H	-0.228063	-1.95377	1.85312
H	-0.847293	-0.369692	2.44075
N	1.15424	-2.15747	-0.660511
C	1.4019	-3.02286	-1.79009
H	1.62609	-2.35513	0.192436
H	2.12279	-3.82567	-1.51981
H	1.8252	-2.44427	-2.6429
H	0.456267	-3.50162	-2.13324
C	5139.92	-2.4632	1.41294
C	5139.14	-1.90772	0.282247
O	5139.17	-2.42953	-0.82375
H	5140.48	-3.35789	1.06768
H	5139.23	-2.7632	2.23566
H	5140.64	-1.70797	1.7889
N	5138.42	-0.814499	0.539265
C	5137.61	-0.159088	-0.457936
C	5137.37	1.26693	-0.000871896
O	5137.62	1.6057	1.1554
H	5138.42	-0.381933	1.43692
H	5138.16	-0.118394	-1.38777
C	5136.26	-0.886076	-0.655697
H	5135.7	-0.926598	0.300295
H	5135.63	-0.384126	-1.42298
H	5136.45	-1.92981	-0.989304
N	5136.9	2.14522	-0.910434
C	5136.66	3.5271	-0.569593
H	5136.72	1.85338	-1.84299
H	5136.28	4.08754	-1.45108
H	5137.6	4.01857	-0.221315
H	5135.9	3.60233	0.247555
