44
  This energy is 2.00788e-320 and Call times are: 43245
C	3.19457	0.114136	-1.38124
C	2.1476	-0.554772	-0.576489
O	2.29959	-1.69645	-0.164208
H	4.05217	-0.579903	-1.51798
H	3.55127	1.02803	-0.861253
H	2.79278	0.389926	-2.37896
N	1.04102	0.152764	-0.337268
C	-0.0649581	-0.361612	0.430238
C	-1.29716	0.44548	0.0703566
O	-1.19699	1.50417	-0.54687
H	0.917039	1.07126	-0.703242
H	-0.247732	-1.38831	0.139449
C	0.209624	-0.263965	1.94753
H	0.397361	0.79055	2.24227
H	-0.639908	-0.659317	2.54148
H	1.11522	-0.85834	2.19803
N	-2.49689	-0.050719	0.431538
C	-3.72562	0.642211	0.121332
H	-2.55751	-0.912591	0.924219
H	-4.60361	0.07581	0.502878
H	-3.83982	0.765589	-0.980021
H	-3.7334	1.65525	0.584873
C	2054.57	2.1516	-1.52586
C	2054.16	0.806985	-1.06172
O	2054.82	-0.18523	-1.33535
H	2055.51	2.06588	-2.11956
H	2054.76	2.81639	-0.656156
H	2053.78	2.59354	-2.16594
N	2053.04	0.744654	-0.341683
C	2052.52	-0.491283	0.180198
C	2051.04	-0.28593	0.4658
O	2050.56	0.844019	0.490044
H	2052.5	1.55633	-0.150133
H	2052.6	-1.25817	-0.57931
C	2053.25	-0.916215	1.47005
H	2053.16	-0.126918	2.24683
H	2052.85	-1.86759	1.87449
H	2054.33	-1.06228	1.24776
N	2050.28	-1.38286	0.668246
C	2048.87	-1.2857	0.935147
H	2050.69	-2.28892	0.63749
H	2048.42	-2.29591	1.07501
H	2048.34	-0.785778	0.0896293
H	2048.68	-0.689987	1.85801
