44
  This energy is 1.0867e-319 and Call times are: 17037
C	-2.63178	2.25408	0.344938
C	-2.02982	0.916065	0.54128
O	-2.59207	0.0618242	1.21257
H	-3.59915	2.30522	0.890307
H	-2.81786	2.4352	-0.734596
H	-1.95449	3.04033	0.739969
N	-0.849714	0.70474	-0.046146
C	-0.140023	-0.545598	0.0529555
C	1.3201	-0.278366	-0.256651
O	1.6697	0.78232	-0.771003
H	-0.388089	1.41837	-0.566303
H	-0.199756	-0.904224	1.07271
C	-0.708098	-1.59421	-0.929291
H	-0.645875	-1.22277	-1.97441
H	-0.164022	-2.55822	-0.8555
H	-1.77842	-1.78022	-0.692724
N	2.21349	-1.23229	0.071822
C	3.62642	-1.0612	-0.174206
H	1.9116	-2.08081	0.493849
H	4.19548	-1.95526	0.163526
H	4.01537	-0.171355	0.371823
H	3.82089	-0.911615	-1.26094
C	812.039	1.69936	2.94265
C	812.046	0.474506	2.11145
O	811.699	-0.604478	2.57216
H	811.694	1.44531	3.96832
H	811.349	2.4531	2.50766
H	813.062	2.12643	3.00345
N	812.453	0.617382	0.848144
C	812.514	-0.481317	-0.0824207
C	813.473	-0.0983099	-1.19319
O	813.843	1.0662	-1.33047
H	812.761	1.49617	0.492973
H	812.924	-1.34714	0.421871
C	811.121	-0.7996	-0.66927
H	810.703	0.0909889	-1.1853
H	811.164	-1.64521	-1.38609
H	810.428	-1.07752	0.154488
N	813.916	-1.0803	-2.00271
C	814.84	-0.812175	-3.08007
H	813.61	-2.01759	-1.87095
H	815.083	-1.7471	-3.63151
H	815.789	-0.381051	-2.68592
H	814.403	-0.0835804	-3.80062
