44
  This energy is 2.72724e-320 and Call times are: 87051
C	3.17217	-1.42298	0.196508
C	2.1134	-0.52666	0.713069
O	2.22676	0.0264525	1.79829
H	3.99884	-1.48014	0.937591
H	3.57407	-1.02855	-0.760427
H	2.7645	-2.44286	0.0334547
N	1.04029	-0.366592	-0.0648615
C	-0.0718956	0.473725	0.300837
C	-1.27691	0.0284382	-0.50471
O	-1.1452	-0.720348	-1.47105
H	0.946802	-0.845562	-0.933644
H	-0.30057	0.318931	1.34765
C	0.232616	1.96262	0.022329
H	0.467429	2.11771	-1.05235
H	-0.62162	2.61249	0.302915
H	1.11794	2.27617	0.61734
N	-2.48907	0.464608	-0.109202
C	-3.69432	0.0831502	-0.8078
H	-2.57554	1.06422	0.679608
H	-4.5875	0.544612	-0.33185
H	-3.82255	-1.02348	-0.794582
H	-3.65357	0.413313	-1.87105
C	4125.33	1.68179	0.856699
C	4124.61	0.552254	0.218643
O	4125.21	-0.27246	-0.457934
H	4126.41	1.62303	0.60478
H	4125.21	1.63258	1.95995
H	4124.92	2.64758	0.485983
N	4123.29	0.493843	0.41955
C	4122.47	-0.545482	-0.135314
C	4121.04	-0.0371764	-0.161103
O	4120.72	0.968942	0.468779
H	4122.81	1.18809	0.948641
H	4122.77	-0.728633	-1.15856
C	4122.55	-1.84176	0.700815
H	4122.24	-1.65009	1.75012
H	4121.91	-2.64417	0.276273
H	4123.6	-2.2032	0.712881
N	4120.15	-0.713534	-0.912885
C	4118.77	-0.296747	-1.00771
H	4120.43	-1.52122	-1.42097
H	4118.19	-0.981405	-1.67124
H	4118.7	0.734635	-1.42295
H	4118.29	-0.298322	-0.00283387
