44
  This energy is 3.33692e-320 and Call times are: 43749
C	-1.24475	0.725046	-3.17034
C	-1.00089	-0.212101	-2.05074
O	-1.47706	-1.33893	-2.05391
H	-1.8923	0.231995	-3.92759
H	-0.283546	1.00778	-3.64885
H	-1.75597	1.6387	-2.80043
N	-0.245119	0.244298	-1.0493
C	0.0805182	-0.549359	0.108667
C	0.474019	0.396806	1.22633
O	0.719685	1.57861	0.992182
H	0.112892	1.17421	-1.04479
H	-0.804168	-1.08559	0.427825
C	1.23657	-1.53029	-0.188707
H	2.14233	-0.97687	-0.516492
H	1.48978	-2.14308	0.70076
H	0.936265	-2.21708	-1.00985
N	0.521706	-0.0999344	2.47812
C	0.874929	0.728912	3.60702
H	0.312503	-1.05732	2.64807
H	0.85988	0.137581	4.54902
H	0.157862	1.57499	3.71285
H	1.89578	1.15572	3.47714
C	2078.61	-0.366799	2.58162
C	2077.23	-0.438839	2.04863
O	2076.32	-0.918643	2.71085
H	2078.63	-0.804923	3.60309
H	2078.94	0.690638	2.63679
H	2079.3	-0.939471	1.9297
N	2077.04	0.0398071	0.81617
C	2075.76	0.0394363	0.162299
C	2076	0.147184	-1.3314
O	2077.1	0.466934	-1.77097
H	2077.8	0.401524	0.275645
H	2075.27	-0.90749	0.349932
C	2074.88	1.21474	0.646669
H	2075.39	2.18457	0.453249
H	2073.89	1.21736	0.145308
H	2074.72	1.12491	1.74239
N	2074.97	-0.140422	-2.15068
C	2075.1	-0.0766496	-3.5872
H	2074.08	-0.404175	-1.77576
H	2074.15	-0.346281	-4.08528
H	2075.89	-0.780884	-3.93876
H	2075.39	0.950682	-3.90971
