44
  This energy is 5.60369e-320 and Call times are: 9015
C	-2.42656	0.953163	-2.30855
C	-1.999	0.626222	-0.929601
O	-2.75181	0.787465	0.0210677
H	-3.46779	1.3421	-2.28775
H	-2.39538	0.0435766	-2.94456
H	-1.76143	1.72966	-2.74168
N	-0.756986	0.157068	-0.789369
C	-0.198043	-0.205517	0.488497
C	1.3126	-0.185103	0.358957
O	1.84815	-0.143518	-0.747065
H	-0.143392	0.0576721	-1.56819
H	-0.475675	0.543465	1.21926
C	-0.674207	-1.60631	0.933666
H	-0.388319	-2.37212	0.181391
H	-0.245816	-1.88858	1.91732
H	-1.78237	-1.60841	1.02371
N	2.03755	-0.191988	1.49492
C	3.48139	-0.162122	1.47007
H	1.58544	-0.218586	2.38043
H	3.89283	-0.175279	2.50341
H	3.84658	0.758102	0.959124
H	3.8834	-1.04438	0.921259
C	431.676	2.27505	1.56228
C	432.806	1.31911	1.58899
O	433.507	1.19555	2.58414
H	431.618	2.80254	2.53914
H	430.722	1.73469	1.3885
H	431.828	3.0248	0.757428
N	433.014	0.614961	0.473868
C	434.073	-0.353689	0.346869
C	434.342	-0.558768	-1.13123
O	433.55	-0.149333	-1.97721
H	432.454	0.745724	-0.340139
H	434.974	0.0494602	0.792322
C	433.69	-1.69633	1.00842
H	432.765	-2.10674	0.549498
H	434.504	-2.44442	0.912599
H	433.494	-1.53237	2.09053
N	435.485	-1.18249	-1.47786
C	435.832	-1.4115	-2.86125
H	436.118	-1.50007	-0.778699
H	436.808	-1.93929	-2.94012
H	435.91	-0.446025	-3.41169
H	435.055	-2.03314	-3.36312
