44
  This energy is 6.03798e-320 and Call times are: 63069
C	0.585873	-3.01837	1.63473
C	1.05627	-1.82913	0.889314
O	2.25008	-1.60548	0.743362
H	1.46404	-3.595	1.9983
H	-0.0221656	-3.66945	0.972009
H	-0.0253904	-2.70607	2.50753
N	0.110641	-1.02452	0.398659
C	0.411587	0.170262	-0.348847
C	-0.803755	1.0751	-0.290116
O	-1.88882	0.645915	0.0975106
H	-0.858251	-1.20201	0.549262
H	1.23136	0.688913	0.131829
C	0.759031	-0.157998	-1.81808
H	-0.0838553	-0.690616	-2.30795
H	0.991439	0.75972	-2.39649
H	1.65012	-0.822264	-1.84738
N	-0.643032	2.36222	-0.655485
C	-1.74076	3.30029	-0.620723
H	0.244669	2.69211	-0.959452
H	-1.40902	4.30652	-0.959387
H	-2.14479	3.39409	0.413297
H	-2.5683	2.96174	-1.28536
C	2988.46	2.55383	-0.387197
C	2988.85	1.19896	0.069377
O	2988.08	0.513861	0.731572
H	2987.44	2.78625	-0.0267869
H	2988.47	2.60093	-1.49647
H	2989.17	3.30905	0.021125
N	2990.07	0.779788	-0.276243
C	2990.58	-0.514198	0.093272
C	2992.1	-0.454022	0.00995274
O	2992.66	0.479461	-0.560267
H	2990.69	1.3587	-0.791102
H	2990.32	-0.717538	1.12311
C	2990.04	-1.62191	-0.838793
H	2990.32	-1.40979	-1.89454
H	2990.44	-2.6196	-0.556988
H	2988.93	-1.65495	-0.769504
N	2992.79	-1.44418	0.599713
C	2994.24	-1.46455	0.581987
H	2992.32	-2.18704	1.06237
H	2994.63	-2.35911	1.11773
H	2994.65	-0.554728	1.07581
H	2994.62	-1.49103	-0.464984
