44
  This energy is 1.48714e-321 and Call times are: 30813
C	-0.230754	-3.40963	-0.668816
C	-0.656243	-2.19494	0.0624109
O	-1.62463	-2.21315	0.809667
H	-0.917363	-4.2477	-0.419677
H	0.801988	-3.69147	-0.374149
H	-0.266192	-3.22939	-1.7639
N	0.0682526	-1.09309	-0.145925
C	-0.221504	0.16542	0.493619
C	0.420844	1.26507	-0.329422
O	1.25505	0.998576	-1.1925
H	0.837291	-1.0837	-0.779509
H	-1.29178	0.328029	0.48159
C	0.320164	0.199134	1.94019
H	1.41829	0.0313142	1.94887
H	0.0986433	1.16673	2.43563
H	-0.157165	-0.611823	2.53235
N	0.0280186	2.5325	-0.0942483
C	0.575767	3.64352	-0.837076
H	-0.653549	2.72699	0.603513
H	0.128124	4.60314	-0.496512
H	0.370032	3.52772	-1.92589
H	1.67963	3.70282	-0.698689
C	1460.5	0.839729	-1.09921
C	1461.97	0.758065	-1.29668
O	1462.48	1.02209	-2.37765
H	1460.02	1.15311	-2.05071
H	1460.27	1.58598	-0.31255
H	1460.1	-0.151721	-0.802132
N	1462.69	0.378138	-0.239027
C	1464.12	0.252347	-0.275489
C	1464.54	-0.662426	0.85983
O	1463.75	-0.948155	1.75859
H	1462.26	0.137646	0.627892
H	1464.41	-0.223825	-1.20414
C	1464.81	1.62751	-0.129814
H	1464.52	2.11349	0.823616
H	1465.92	1.53433	-0.157626
H	1464.5	2.28862	-0.966691
N	1465.79	-1.16268	0.832679
C	1466.27	-2.05141	1.86466
H	1466.41	-0.925256	0.0930341
H	1467.33	-2.35213	1.66565
H	1465.65	-2.97264	1.91235
H	1466.23	-1.55492	2.86118
