44
  This energy is 1.48383e-319 and Call times are: 79239
C	0.170175	-0.868605	3.36789
C	-0.597513	-0.563282	2.13963
O	-1.81136	-0.709755	2.09957
H	-0.526156	-1.22819	4.15636
H	0.686262	0.0440729	3.73326
H	0.921066	-1.66055	3.16313
N	0.107577	-0.130275	1.09191
C	-0.497501	0.207667	-0.171622
C	0.580726	0.145591	-1.23596
O	1.76921	0.0965047	-0.924634
H	1.09954	-0.0428772	1.12795
H	-1.24346	-0.53818	-0.415193
C	-1.12682	1.61823	-0.134541
H	-0.358914	2.38082	0.11627
H	-1.59375	1.88159	-1.10582
H	-1.91415	1.65095	0.649795
N	0.186664	0.124276	-2.52447
C	1.14177	0.0539173	-3.60568
H	-0.780087	0.157541	-2.75581
H	0.62251	0.0484075	-4.58934
H	1.75543	-0.872711	-3.52812
H	1.8317	0.928231	-3.5782
C	3755.78	-1.41269	2.97843
C	3756.86	-0.907201	2.10421
O	3758.01	-0.79983	2.51542
H	3756.19	-1.64071	3.98374
H	3755.34	-2.34034	2.55088
H	3754.98	-0.645922	3.08447
N	3756.51	-0.574991	0.859323
C	3757.45	-0.0687576	-0.108024
C	3756.67	0.670905	-1.17577
O	3755.45	0.546949	-1.26014
H	3755.57	-0.639531	0.545177
H	3758.1	0.646495	0.376532
C	3758.27	-1.21178	-0.746457
H	3757.6	-1.94405	-1.24208
H	3759	-0.825484	-1.49169
H	3758.84	-1.74647	0.0461334
N	3757.36	1.47927	-2.00682
C	3756.69	2.23265	-3.04634
H	3758.34	1.57168	-1.9179
H	3757.43	2.83557	-3.62376
H	3755.94	2.92538	-2.60935
H	3756.17	1.54996	-3.75266
