44
  This energy is 1.26649e-319 and Call times are: 35391
C	1.79319	1.07469	-2.7849
C	0.844756	1.31707	-1.67452
O	0.434881	2.4428	-1.42709
H	2.02905	2.03977	-3.28373
H	1.34209	0.38595	-3.52987
H	2.73405	0.632231	-2.39508
N	0.474681	0.247381	-0.966583
C	-0.44174	0.323257	0.14303
C	-0.232811	-0.906764	1.00479
O	0.411946	-1.86602	0.585342
H	0.838187	-0.660099	-1.15966
H	-0.196924	1.19061	0.742892
C	-1.90735	0.389838	-0.341409
H	-2.1549	-0.501145	-0.957026
H	-2.61564	0.448496	0.510444
H	-2.04706	1.29448	-0.972485
N	-0.758593	-0.897382	2.24555
C	-0.600573	-2.01906	3.14168
H	-1.27101	-0.10875	2.56916
H	-1.10533	-1.82067	4.11282
H	0.478145	-2.21395	3.34075
H	-1.04203	-2.94114	2.6989
C	1680.33	-2.79219	-1.56297
C	1680.2	-1.44872	-0.953979
O	1679.15	-0.827185	-1.0022
H	1679.36	-3.07519	-2.02894
H	1680.58	-3.54219	-0.78581
H	1681.11	-2.78636	-2.34597
N	1681.3	-0.962216	-0.36285
C	1681.33	0.330191	0.273763
C	1682.78	0.768331	0.358968
O	1683.69	-0.0328553	0.161578
H	1682.16	-1.46595	-0.355637
H	1680.81	1.04392	-0.349786
C	1680.71	0.278463	1.68653
H	1681.25	-0.455186	2.32333
H	1680.73	1.27199	2.17952
H	1679.65	-0.0448824	1.61051
N	1683.03	2.06411	0.635405
C	1684.37	2.5749	0.724807
H	1682.27	2.69839	0.784893
H	1684.37	3.66165	0.961862
H	1684.91	2.42944	-0.238791
H	1684.94	2.04511	1.52279
