44
  This energy is 9.96975e-320 and Call times are: 16701
C	0.288714	3.41874	-0.595829
C	-0.272965	2.08566	-0.909857
O	-1.16077	1.95312	-1.74096
H	-0.225664	4.18832	-1.21147
H	1.3745	3.4405	-0.82694
H	0.134846	3.65575	0.477994
N	0.237874	1.05303	-0.235248
C	-0.205205	-0.304305	-0.430554
C	0.175366	-1.10062	0.802447
O	0.969495	-0.6462	1.62385
H	0.940502	1.17759	0.460263
H	-1.28499	-0.314232	-0.508205
C	0.438872	-0.930924	-1.68739
H	1.54663	-0.918503	-1.60466
H	0.0997512	-1.97602	-1.84084
H	0.153456	-0.337819	-2.58344
N	-0.403315	-2.30585	0.971412
C	-0.111082	-3.12986	2.1211
H	-1.04885	-2.65298	0.299094
H	-0.683632	-4.08252	2.07786
H	-0.382304	-2.6004	3.06309
H	0.974889	-3.37496	2.1632
C	799.29	1.22074	2.10589
C	797.901	0.776319	1.85412
O	797.101	0.650899	2.77106
H	799.43	1.38925	3.19579
H	799.492	2.17019	1.56669
H	800.008	0.444111	1.76724
N	797.582	0.518894	0.583606
C	796.27	0.07858	0.18109
C	796.4	-0.598995	-1.16919
O	797.425	-0.47749	-1.83744
H	798.251	0.59685	-0.150834
H	795.915	-0.661055	0.887471
C	795.283	1.26351	0.0881112
H	795.65	2.02069	-0.636904
H	794.272	0.927998	-0.221442
H	795.197	1.75206	1.08318
N	795.365	-1.35075	-1.59348
C	795.403	-2.04302	-2.86055
H	794.547	-1.44247	-1.035
H	794.459	-2.60497	-3.03043
H	796.251	-2.76578	-2.88782
H	795.538	-1.32153	-3.69873
