44
  This energy is 4.77218e-320 and Call times are: 113805
C	1.31769	2.44006	-2.10617
C	1.35489	1.63312	-0.865739
O	2.31595	1.67846	-0.110222
H	2.25845	3.02621	-2.19137
H	0.457946	3.14219	-2.08015
H	1.22609	1.77667	-2.99187
N	0.292701	0.859648	-0.629392
C	0.182174	0.0181884	0.535322
C	-0.83831	-1.06223	0.234399
O	-1.5848	-0.968482	-0.738122
H	-0.471193	0.809399	-1.26726
H	1.13377	-0.467627	0.710003
C	-0.253176	0.829424	1.77608
H	-1.22943	1.32701	1.59317
H	-0.339116	0.184592	2.67474
H	0.501927	1.61823	1.98525
N	-0.87875	-2.13002	1.05549
C	-1.80932	-3.21357	0.840691
H	-0.261515	-2.19077	1.83302
H	-1.68905	-3.99595	1.62214
H	-1.64137	-3.6841	-0.155117
H	-2.85926	-2.84254	0.874564
C	5390.05	2.90161	1.81077
C	5389.18	1.76736	1.44194
O	5388.13	1.55772	2.03797
H	5389.6	3.45471	2.66183
H	5390.17	3.59456	0.950399
H	5391.05	2.52872	2.11658
N	5389.6	0.995275	0.437175
C	5388.85	-0.144861	-0.036314
C	5389.82	-1.0552	-0.773796
O	5390.93	-0.656655	-1.10134
H	5390.47	1.15921	-0.0212628
H	5388.47	-0.692646	0.814857
C	5387.7	0.283834	-0.974548
H	5388.1	0.846111	-1.8463
H	5387.13	-0.59162	-1.34085
H	5387.01	0.95119	-0.422863
N	5389.41	-2.31393	-1.03384
C	5390.27	-3.25543	-1.7208
H	5388.51	-2.61969	-0.754322
H	5389.75	-4.23525	-1.84126
H	5391.21	-3.42071	-1.14997
H	5390.54	-2.87482	-2.73212
