44
  This energy is 1.52523e-319 and Call times are: 85665
C	-2.92773	1.48166	-1.16584
C	-1.65138	1.53318	-0.417866
O	-1.22291	2.58778	0.0301693
H	-3.35828	2.50468	-1.22847
H	-3.6502	0.819042	-0.644494
H	-2.75363	1.1014	-2.19445
N	-1.00352	0.375252	-0.270052
C	0.249502	0.264891	0.433208
C	0.931653	-1.00862	-0.0273206
O	0.311158	-1.86031	-0.660914
H	-1.34839	-0.472194	-0.664819
H	0.883725	1.09695	0.154791
C	0.0347994	0.229304	1.96283
H	-0.616806	-0.625085	2.24487
H	0.997613	0.144518	2.50742
H	-0.466642	1.16706	2.28737
N	2.23889	-1.158	0.263924
C	2.9746	-2.33204	-0.144164
H	2.72516	-0.454239	0.771359
H	4.03344	-2.26868	0.190638
H	2.9634	-2.43688	-1.25327
H	2.52261	-3.25118	0.294088
C	4059.11	3.34746	-0.356487
C	4059.07	1.93552	-0.799181
O	4058.33	1.57895	-1.70973
H	4058.4	3.94383	-0.965088
H	4060.13	3.76177	-0.492157
H	4058.82	3.4219	0.712845
N	4059.87	1.08688	-0.148507
C	4059.94	-0.317333	-0.464503
C	4060.5	-1.03887	0.744921
O	4061.04	-0.4128	1.65771
H	4060.44	1.38414	0.61088
H	4058.94	-0.691435	-0.634628
C	4060.83	-0.571208	-1.69801
H	4061.86	-0.185595	-1.52029
H	4060.89	-1.65143	-1.94419
H	4060.41	-0.0364249	-2.57679
N	4060.37	-2.37951	0.788976
C	4060.87	-3.15004	1.90629
H	4059.93	-2.86723	0.0437731
H	4060.67	-4.23386	1.75546
H	4060.37	-2.83106	2.85257
H	4061.97	-3.0091	2.02583
