44
  This energy is 5.08937e-320 and Call times are: 38457
C	-1.64323	-1.65392	2.5866
C	-1.29637	-1.49485	1.15636
O	-1.62226	-2.33515	0.3292
H	-2.1986	-2.60679	2.72606
H	-2.28508	-0.81171	2.92056
H	-0.720419	-1.68217	3.20351
N	-0.610669	-0.396501	0.831068
C	-0.201199	-0.101856	-0.518876
C	0.95107	0.881535	-0.4521
O	1.21089	1.47539	0.592723
H	-0.325828	0.266164	1.51858
H	0.16699	-1.0091	-0.98084
C	-1.36391	0.497189	-1.34129
H	-1.73964	1.42741	-0.864178
H	-1.05211	0.725107	-2.3813
H	-2.20201	-0.232267	-1.38168
N	1.68579	1.06023	-1.56756
C	2.80939	1.9674	-1.59502
H	1.46401	0.565009	-2.4011
H	3.28296	1.97649	-2.60145
H	3.57842	1.66302	-0.848566
H	2.48331	3.00448	-1.35148
C	1821.73	-0.49257	1.35823
C	1823.19	-0.27288	1.49969
O	1823.69	-0.0716544	2.59515
H	1821.25	-0.432913	2.35949
H	1821.54	-1.4963	0.925554
H	1821.29	0.285396	0.701004
N	1823.9	-0.301587	0.373331
C	1825.33	-0.105323	0.349481
C	1825.72	0.313758	-1.05482
O	1824.93	0.190431	-1.98924
H	1823.48	-0.437478	-0.516278
H	1825.59	0.707445	1.01779
C	1826.08	-1.39534	0.74657
H	1825.82	-2.22724	0.0593121
H	1827.18	-1.2477	0.729394
H	1825.79	-1.69244	1.77663
N	1826.95	0.842396	-1.23194
C	1827.4	1.28071	-2.53131
H	1827.57	0.940495	-0.461892
H	1828.44	1.68347	-2.47127
H	1826.74	2.08083	-2.93017
H	1827.4	0.434292	-3.25568
