44
  This energy is 1.0284e-319 and Call times are: 71385
C	1.33679	3.01275	-1.12359
C	1.38014	1.811	-0.260396
O	2.3596	1.56242	0.429072
H	2.2916	3.57291	-1.02153
H	0.49825	3.67326	-0.817956
H	1.20552	2.71672	-2.1857
N	0.302195	1.02374	-0.285366
C	0.195156	-0.18011	0.499561
C	-0.862493	-1.05972	-0.138331
O	-1.62867	-0.60684	-0.986684
H	-0.477609	1.22159	-0.873325
H	1.13637	-0.71331	0.456148
C	-0.187604	0.134711	1.96295
H	-1.15331	0.682307	2.00374
H	-0.270727	-0.79002	2.57019
H	0.594378	0.780537	2.41853
N	-0.914022	-2.3514	0.242341
C	-1.87988	-3.26673	-0.319322
H	-0.280656	-2.70061	0.925076
H	-1.76361	-4.28096	0.122349
H	-1.74887	-3.34785	-1.42273
H	-2.91773	-2.91422	-0.11986
C	3386.45	2.48568	2.43819
C	3387.12	1.43228	1.63881
O	3388.33	1.26421	1.69623
H	3387.22	3.03403	3.03133
H	3385.72	2.03058	3.13358
H	3385.93	3.20381	1.76894
N	3386.33	0.691992	0.858276
C	3386.83	-0.370508	0.0227605
C	3385.8	-0.626054	-1.0675
O	3384.67	-0.162268	-0.985387
H	3385.35	0.857829	0.798215
H	3387.74	-0.0422267	-0.454417
C	3387.07	-1.66074	0.837709
H	3386.13	-1.99433	1.32641
H	3387.45	-2.48086	0.197457
H	3387.82	-1.46001	1.63372
N	3386.19	-1.35667	-2.13078
C	3385.29	-1.64129	-3.22296
H	3387.12	-1.71717	-2.18208
H	3385.8	-2.25638	-3.99979
H	3384.94	-0.697049	-3.69793
H	3384.4	-2.19937	-2.86013
