44
  This energy is 8.59921e-320 and Call times are: 10149
C	2.60239	-1.34348	1.88382
C	1.3389	-1.48124	1.12499
O	0.861163	-2.58183	0.886323
H	2.98165	-2.35344	2.15213
H	2.42784	-0.765876	2.81587
H	3.36566	-0.825448	1.26575
N	0.764834	-0.346665	0.718091
C	-0.466826	-0.318253	-0.0295948
C	-0.543709	1.01361	-0.750343
O	0.211127	1.93611	-0.448623
H	1.17909	0.54244	0.89365
H	-0.440622	-1.09763	-0.780566
C	-1.69119	-0.492619	0.896495
H	-1.71459	0.308194	1.66608
H	-2.64123	-0.471372	0.324005
H	-1.62237	-1.47136	1.41945
N	-1.4493	1.1371	-1.74063
C	-1.58646	2.36392	-2.49047
H	-2.0462	0.376703	-1.97459
H	-2.38484	2.26791	-3.25899
H	-0.632172	2.61787	-3.00631
H	-1.84965	3.21001	-1.81516
C	489.358	2.62055	1.68309
C	488.678	2.05852	0.494321
O	488.365	2.76966	-0.450561
H	489.498	3.71445	1.54308
H	490.352	2.14489	1.81563
H	488.743	2.45041	2.5919
N	488.426	0.747706	0.519746
C	487.771	0.0564472	-0.562207
C	487.193	-1.23187	-0.00986384
O	487.532	-1.6498	1.09574
H	488.66	0.184406	1.30777
H	486.947	0.660981	-0.918359
C	488.758	-0.253259	-1.71029
H	489.603	-0.873012	-1.34126
H	488.257	-0.785369	-2.54511
H	489.175	0.698445	-2.10543
N	486.285	-1.88275	-0.762989
C	485.671	-3.11083	-0.313847
H	486.018	-1.52465	-1.65182
H	484.954	-3.49276	-1.07329
H	485.119	-2.94809	0.639714
H	486.444	-3.89381	-0.135951
