44
  This energy is 9.35118e-320 and Call times are: 121659
C	-3.07256	-1.35574	0.920574
C	-1.60446	-1.23864	1.06948
O	-1.01628	-1.78813	1.99067
H	-3.47688	-1.98009	1.74675
H	-3.32162	-1.83701	-0.0485329
H	-3.54332	-0.351106	0.965799
N	-0.972345	-0.501963	0.152907
C	0.453835	-0.295294	0.16408
C	0.750247	0.951828	-0.645898
O	-0.107381	1.44633	-1.37513
H	-1.46632	-0.0354366	-0.575983
H	0.774663	-0.110719	1.18147
C	1.20255	-1.50742	-0.433663
H	0.870514	-1.69434	-1.47718
H	2.30095	-1.35168	-0.42646
H	0.976218	-2.41468	0.167833
N	1.97294	1.50393	-0.518592
C	2.34145	2.69886	-1.24145
H	2.6508	1.09288	0.0820558
H	3.38717	2.99493	-1.00466
H	1.66815	3.54454	-0.971758
H	2.26422	2.53299	-2.34041
C	5760.6	2.56787	-2.27398
C	5761.02	1.18705	-1.95256
O	5761.26	0.374519	-2.83717
H	5760.54	2.68558	-3.37769
H	5761.33	3.29761	-1.87555
H	5759.6	2.77283	-1.83404
N	5761.13	0.886293	-0.656297
C	5761.54	-0.415024	-0.18675
C	5761.06	-0.562699	1.24471
O	5760.67	0.41482	1.88213
H	5760.91	1.54838	0.0552205
H	5761.04	-1.17264	-0.779261
C	5763.07	-0.586849	-0.255182
H	5763.58	0.192393	0.353216
H	5763.38	-1.58782	0.105499
H	5763.41	-0.475278	-1.30863
N	5761.05	-1.80033	1.77787
C	5760.61	-2.03933	3.12966
H	5761.36	-2.57961	1.2435
H	5760.68	-3.11971	3.38357
H	5759.54	-1.7227	3.25287
H	5761.22	-1.46475	3.85671
