44
  This energy is 8.51621e-320 and Call times are: 10107
C	-3.34068	-0.876003	0.445659
C	-2.24356	0.117725	0.452625
O	-2.46992	1.30873	0.61619
H	-4.31017	-0.353821	0.598226
H	-3.19588	-1.61149	1.26475
H	-3.36868	-1.40858	-0.52826
N	-1.01054	-0.358936	0.26603
C	0.158598	0.483437	0.247431
C	1.25894	-0.262778	-0.481706
O	1.15675	-1.46637	-0.711371
H	-0.842147	-1.32774	0.104814
H	-0.0622455	1.3794	-0.318736
C	0.617312	0.840698	1.67889
H	0.842388	-0.0807842	2.2571
H	1.51725	1.48937	1.66824
H	-0.19787	1.38586	2.20274
N	2.33347	0.444216	-0.883631
C	3.42505	-0.179019	-1.59512
H	2.39427	1.41878	-0.69454
H	4.21387	0.567059	-1.83673
H	3.0659	-0.630468	-2.54825
H	3.88351	-0.987803	-0.981229
C	488.002	1.28485	2.37215
C	487.579	0.227266	1.42661
O	488.3	-0.731661	1.18673
H	489.013	1.04259	2.76621
H	487.29	1.34508	3.222
H	488.043	2.26653	1.85493
N	486.383	0.385799	0.855771
C	485.834	-0.558344	-0.0846851
C	484.771	0.156267	-0.895728
O	484.334	1.24794	-0.536262
H	485.818	1.18613	1.03725
H	486.615	-0.869181	-0.767244
C	485.221	-1.77927	0.636761
H	484.421	-1.4567	1.33667
H	484.798	-2.50833	-0.0844454
H	486.01	-2.29333	1.22821
N	484.344	-0.437444	-2.0276
C	483.343	0.173942	-2.87017
H	484.715	-1.31752	-2.30524
H	483.124	-0.468712	-3.75148
H	483.691	1.16628	-3.23768
H	482.395	0.328306	-2.30555
