44
  This energy is 1.42454e-319 and Call times are: 6243
C	1.83868	2.14275	-2.03813
C	1.57362	0.807116	-1.4576
O	2.18854	-0.180412	-1.83596
H	2.62948	2.05538	-2.81458
H	2.18641	2.84113	-1.24809
H	0.916817	2.54588	-2.50781
N	0.631425	0.747175	-0.513648
C	0.261707	-0.48022	0.144864
C	-1.1242	-0.295027	0.731545
O	-1.6229	0.825009	0.824584
H	0.117141	1.5538	-0.234711
H	0.203967	-1.27129	-0.59199
C	1.26651	-0.844795	1.26047
H	1.32374	-0.0308045	2.0143
H	0.98491	-1.78945	1.76949
H	2.27794	-0.976571	0.817997
N	-1.79003	-1.39936	1.12286
C	-3.11952	-1.32172	1.68199
H	-1.37222	-2.29744	1.03278
H	-3.49607	-2.33525	1.94319
H	-3.82602	-0.862416	0.953207
H	-3.12189	-0.698051	2.60514
C	304.317	-3.25891	0.85232
C	304.229	-1.79385	1.04461
O	303.422	-1.30576	1.82412
H	303.564	-3.76028	1.49847
H	305.329	-3.62106	1.13199
H	304.112	-3.51907	-0.207406
N	305.068	-1.04903	0.320628
C	305.101	0.389623	0.398095
C	305.748	0.909629	-0.871028
O	306.358	0.151039	-1.62184
H	305.7	-1.4569	-0.332501
H	304.086	0.764134	0.427198
C	305.896	0.868069	1.63375
H	306.937	0.481503	1.60099
H	305.923	1.97535	1.69654
H	305.412	0.47957	2.5567
N	305.609	2.22036	-1.15157
C	306.18	2.80262	-2.34356
H	305.105	2.81648	-0.535042
H	305.959	3.89152	-2.39421
H	305.764	2.31756	-3.25606
H	307.286	2.66861	-2.35531
