44
  This energy is 8.06216e-320 and Call times are: 33711
C	-2.66728	0.250463	-2.22464
C	-1.22041	0.301731	-1.91621
O	-0.387891	0.417349	-2.80506
H	-2.81124	0.324972	-3.32445
H	-3.193	1.09718	-1.73524
H	-3.1007	-0.70819	-1.86956
N	-0.885207	0.209237	-0.627241
C	0.481185	0.243872	-0.170512
C	0.528668	-0.391051	1.20566
O	-0.504694	-0.593714	1.84042
H	-1.57114	0.0860673	0.0849844
H	1.08886	-0.359934	-0.832493
C	1.01628	1.69186	-0.106293
H	0.390156	2.30866	0.573156
H	2.0682	1.72217	0.244869
H	0.975129	2.14617	-1.12022
N	1.73599	-0.741236	1.69119
C	1.87795	-1.36251	2.98736
H	2.55986	-0.575451	1.15923
H	2.9478	-1.57252	3.20773
H	1.31689	-2.32428	3.02561
H	1.47893	-0.69798	3.78759
C	1599.5	-1.0596	-2.48317
C	1600.82	-1.09695	-1.80845
O	1601.67	-1.92145	-2.12128
H	1599.46	-1.86481	-3.24841
H	1599.36	-0.0794799	-2.98416
H	1598.69	-1.22125	-1.74463
N	1601.02	-0.192103	-0.847347
C	1602.25	-0.102997	-0.101074
C	1601.95	0.628763	1.19424
O	1600.9	1.24484	1.34363
H	1600.31	0.455476	-0.581771
H	1602.58	-1.10211	0.15309
C	1603.34	0.646486	-0.899798
H	1602.99	1.67083	-1.15945
H	1604.28	0.716773	-0.328148
H	1603.54	0.101098	-1.84679
N	1602.88	0.558952	2.17417
C	1602.68	1.2141	3.44612
H	1603.72	0.0494688	2.03654
H	1603.55	1.04103	4.11709
H	1601.76	0.825288	3.95039
H	1602.56	2.31267	3.30751
