44
  This energy is 1.07904e-319 and Call times are: 23043
C	2.43907	1.55437	-1.93933
C	1.44525	0.48106	-1.71235
O	1.16717	-0.320249	-2.59387
H	2.82768	1.48136	-2.97832
H	3.28674	1.44705	-1.23026
H	1.96608	2.54949	-1.80161
N	0.875281	0.446172	-0.505586
C	-0.109144	-0.538649	-0.134285
C	-0.89369	0.00756957	1.04273
O	-0.488673	0.985241	1.66879
H	1.08886	1.12234	0.194493
H	-0.800409	-0.672599	-0.95665
C	0.554051	-1.88118	0.246376
H	1.26306	-1.73997	1.08987
H	-0.201111	-2.6418	0.532665
H	1.12656	-2.27017	-0.623717
N	-2.05313	-0.602446	1.35828
C	-2.8734	-0.14502	2.4556
H	-2.3674	-1.38777	0.835083
H	-3.78352	-0.776548	2.55614
H	-3.19463	0.909328	2.29309
H	-2.30783	-0.189748	3.4144
C	1100.19	1.0342	2.40747
C	1099.72	0.969472	1.00801
O	1100.26	1.61697	0.123505
H	1101.06	1.73192	2.46881
H	1100.52	0.0286364	2.74734
H	1099.38	1.40433	3.07171
N	1098.67	0.176888	0.775706
C	1098.09	0.00980608	-0.533517
C	1096.67	-0.499356	-0.355049
O	1096.29	-0.933975	0.730655
H	1098.21	-0.322906	1.50987
H	1098.03	0.975721	-1.01923
C	1098.91	-0.98446	-1.38742
H	1098.96	-1.97411	-0.885864
H	1098.46	-1.11534	-2.3962
H	1099.94	-0.600635	-1.50978
N	1095.85	-0.43644	-1.41842
C	1094.48	-0.887075	-1.33929
H	1096.17	-0.0747972	-2.28644
H	1093.96	-0.755183	-2.31664
H	1093.92	-0.309788	-0.568002
H	1094.43	-1.96538	-1.06265
