44
  This energy is 7.78005e-320 and Call times are: 120987
C	-0.347895	2.61964	-2.26773
C	-0.801419	1.34011	-1.67754
O	-1.87387	0.843096	-1.99268
H	-1.11886	2.99032	-2.97771
H	0.605116	2.47077	-2.81767
H	-0.199544	3.37785	-1.4702
N	0.0179138	0.773702	-0.788586
C	-0.284609	-0.471555	-0.12931
C	0.54982	-0.544264	1.13468
O	1.48937	0.228578	1.31297
H	0.875548	1.20319	-0.518511
H	-1.32671	-0.470243	0.16411
C	0.0250378	-1.6802	-1.04058
H	1.09477	-1.67806	-1.34023
H	-0.2069	-2.64066	-0.536094
H	-0.591575	-1.61458	-1.96341
N	0.209596	-1.4669	2.05609
C	0.938998	-1.60185	3.29542
H	-0.558418	-2.07837	1.89642
H	0.507934	-2.41602	3.91877
H	0.898996	-0.654275	3.88002
H	2.00908	-1.84063	3.09772
C	5729.71	3.01275	-1.67123
C	5730.07	1.60846	-1.37968
O	5730.94	1.03493	-2.02215
H	5730.32	3.38566	-2.51658
H	5729.89	3.64957	-0.78109
H	5728.63	3.0781	-1.95364
N	5729.4	1.0137	-0.390574
C	5729.65	-0.348979	0.0102385
C	5728.42	-0.844501	0.747374
O	5727.55	-0.0570449	1.13163
H	5728.68	1.4823	0.106067
H	5729.77	-0.959929	-0.87529
C	5730.89	-0.453778	0.920705
H	5730.76	0.174719	1.82785
H	5731.08	-1.50172	1.23106
H	5731.78	-0.0867239	0.369598
N	5728.3	-2.17253	0.943117
C	5727.16	-2.7371	1.6245
H	5729	-2.79406	0.618337
H	5727.24	-3.84416	1.68765
H	5726.21	-2.49042	1.08334
H	5727.08	-2.33204	2.65925
