44
  This energy is 1.30433e-320 and Call times are: 80205
C	-1.25	1.46382	2.90187
C	-0.131126	1.11693	1.99689
O	0.99637	1.55044	2.19006
H	-0.878297	2.13818	3.7037
H	-1.6638	0.545056	3.36821
H	-2.05177	1.98466	2.33721
N	-0.425972	0.318218	0.968549
C	0.555486	-0.107304	0.00288945
C	-0.18041	-0.533761	-1.25243
O	-1.39557	-0.720699	-1.23586
H	-1.3544	-0.0047963	0.805403
H	1.18417	0.735605	-0.254679
C	1.40598	-1.27826	0.543837
H	0.757805	-2.14102	0.807701
H	2.16282	-1.6083	-0.197142
H	1.93899	-0.953461	1.46392
N	0.540876	-0.676869	-2.38171
C	-0.0758932	-1.06818	-3.62776
H	1.52205	-0.514052	-2.37634
H	0.682689	-1.1331	-4.43868
H	-0.851366	-0.328241	-3.93169
H	-0.56805	-2.06262	-3.52749
C	3803.29	-1.03018	-0.492472
C	3801.84	-1.10801	-0.793601
O	3801.42	-1.79514	-1.71523
H	3803.85	-1.66088	-1.21651
H	3803.49	-1.40124	0.535228
H	3803.64	0.0186965	-0.58072
N	3801.03	-0.387567	-0.0121562
C	3799.6	-0.36104	-0.180636
C	3799.08	0.897919	0.482497
O	3799.79	1.54941	1.24499
H	3801.39	0.191074	0.717043
H	3799.37	-0.296118	-1.23681
C	3798.94	-1.60743	0.446649
H	3799.18	-1.67128	1.53003
H	3797.84	-1.59029	0.318587
H	3799.33	-2.52291	-0.0468687
N	3797.82	1.28256	0.188027
C	3797.24	2.47427	0.762414
H	3797.26	0.745786	-0.436909
H	3796.2	2.61922	0.399433
H	3797.84	3.37387	0.485534
H	3797.22	2.40385	1.87404
