44
  This energy is 1.1028e-319 and Call times are: 90411
C	-2.38702	-1.76025	1.82476
C	-2.00749	-0.79221	0.771175
O	-2.84376	-0.32544	0.0100823
H	-3.48065	-1.95228	1.77039
H	-2.14371	-1.34958	2.82724
H	-1.84606	-2.71862	1.677
N	-0.713928	-0.46962	0.700404
C	-0.19175	0.458249	-0.27079
C	1.29487	0.195888	-0.413484
O	1.89218	-0.498648	0.406686
H	-0.037891	-0.878899	1.30736
H	-0.654072	0.261231	-1.2297
C	-0.433837	1.92144	0.162303
H	0.0412189	2.1199	1.14671
H	-0.0331286	2.63854	-0.583337
H	-1.52638	2.10049	0.264451
N	1.92481	0.731375	-1.47764
C	3.33665	0.525469	-1.70238
H	1.4225	1.28457	-2.13406
H	3.66779	1.04712	-2.6273
H	3.56282	-0.559914	-1.81207
H	3.93221	0.917444	-0.846321
C	4285.04	1.86576	-1.29692
C	4284.46	0.594612	-0.804198
O	4285.08	-0.456642	-0.890754
H	4286.05	1.67093	-1.72292
H	4285.14	2.59105	-0.461814
H	4284.39	2.29837	-2.08867
N	4283.24	0.664784	-0.272829
C	4282.55	-0.486061	0.249542
C	4281.06	-0.165812	0.276016
O	4280.67	0.989715	0.13538
H	4282.73	1.52222	-0.234521
H	4282.69	-1.31996	-0.425632
C	4283.04	-0.841692	1.67026
H	4282.89	0.0162241	2.36013
H	4282.51	-1.72748	2.07544
H	4284.13	-1.07303	1.63752
N	4280.21	-1.19208	0.436287
C	4278.78	-0.984663	0.462126
H	4280.55	-2.12092	0.541293
H	4278.24	-1.94945	0.604766
H	4278.43	-0.528791	-0.492968
H	4278.49	-0.300425	1.29457
