44
  This energy is 1.27321e-320 and Call times are: 42993
C	-2.99964	1.44706	-1.01701
C	-1.88083	1.30822	-0.0577434
O	-1.76455	2.06932	0.892884
H	-3.63606	2.30775	-0.716942
H	-3.61895	0.525493	-1.01843
H	-2.60691	1.62969	-2.03944
N	-1.016	0.319094	-0.2945
C	0.122657	0.0577093	0.549283
C	1.12898	-0.737679	-0.259367
O	0.807041	-1.26007	-1.32487
H	-1.10526	-0.276052	-1.08871
H	0.585881	0.998974	0.816711
C	-0.283923	-0.730257	1.81456
H	-0.759405	-1.695	1.53652
H	0.590435	-0.933094	2.46658
H	-1.02212	-0.137515	2.39754
N	2.38455	-0.829548	0.221356
C	3.41315	-1.55622	-0.485832
H	2.62724	-0.393794	1.08185
H	4.3754	-1.51749	0.0707899
H	3.5762	-1.12095	-1.49835
H	3.12365	-2.62463	-0.611858
C	2040.54	3.47303	-0.0730654
C	2040.75	2.1671	0.59073
O	2041.39	2.0828	1.63149
H	2041.04	4.2709	0.517387
H	2039.46	3.69888	-0.134532
H	2040.98	3.45761	-1.09563
N	2040.22	1.102	-0.0113771
C	2040.34	-0.234867	0.51301
C	2040.1	-1.20586	-0.626706
O	2039.61	-0.821645	-1.68759
H	2039.73	1.17992	-0.874272
H	2041.35	-0.384407	0.865032
C	2039.33	-0.487651	1.64894
H	2038.29	-0.332708	1.28451
H	2039.42	-1.51605	2.0551
H	2039.51	0.230655	2.47708
N	2040.46	-2.49063	-0.439732
C	2040.28	-3.48393	-1.4729
H	2040.86	-2.78046	0.423348
H	2040.64	-4.47946	-1.12726
H	2040.85	-3.20603	-2.38833
H	2039.21	-3.57288	-1.75038
