44
  This energy is 1.44119e-319 and Call times are: 18381
C	1.87473	2.17329	-1.97188
C	1.63106	0.842057	-1.37218
O	2.31388	-0.125069	-1.68027
H	2.71947	2.10306	-2.69114
H	2.13642	2.90715	-1.18081
H	0.969686	2.5208	-2.51325
N	0.630665	0.76242	-0.491712
C	0.272549	-0.463615	0.175686
C	-1.15686	-0.328325	0.663257
O	-1.71043	0.769235	0.69071
H	0.0630021	1.55105	-0.270892
H	0.300433	-1.27513	-0.540368
C	1.21472	-0.752201	1.3657
H	1.18415	0.0826209	2.098
H	0.941896	-1.69562	1.88176
H	2.25872	-0.847929	0.995502
N	-1.7975	-1.45213	1.04092
C	-3.16398	-1.42232	1.50786
H	-1.3347	-2.33175	1.00466
H	-3.51156	-2.44529	1.77239
H	-3.83932	-1.01531	0.720779
H	-3.25691	-0.775993	2.41052
C	876.581	1.11069	3.29307
C	876.048	0.358197	2.135
O	875.057	-0.351163	2.24317
H	875.952	0.903575	4.18629
H	876.559	2.20086	3.08356
H	877.624	0.796126	3.50696
N	876.71	0.495078	0.983631
C	876.313	-0.172973	-0.230122
C	877.518	-0.224139	-1.14898
O	878.511	0.464784	-0.922412
H	877.532	1.05297	0.915367
H	876.035	-1.19258	0.00429283
C	875.147	0.56623	-0.923801
H	875.436	1.61209	-1.16225
H	874.839	0.0544219	-1.85865
H	874.271	0.597959	-0.240046
N	877.466	-1.06373	-2.20179
C	878.571	-1.18839	-3.12399
H	876.657	-1.61817	-2.36407
H	878.335	-1.9265	-3.92211
H	879.49	-1.52754	-2.59292
H	878.793	-0.208959	-3.60641
