44
  This energy is 6.702e-320 and Call times are: 15483
C	-2.60722	1.48363	-1.76844
C	-1.16898	1.19853	-1.56503
O	-0.335006	1.52768	-2.39728
H	-2.74497	2.00035	-2.74305
H	-2.98558	2.14026	-0.956953
H	-3.18752	0.536997	-1.77835
N	-0.84409	0.563874	-0.436304
C	0.513087	0.217731	-0.0970659
C	0.466916	-0.902102	0.924247
O	-0.581124	-1.18217	1.50304
H	-1.53588	0.275127	0.220195
H	1.0104	-0.162816	-0.980207
C	1.27582	1.43141	0.47941
H	0.762539	1.81968	1.3849
H	2.32124	1.16843	0.741553
H	1.30158	2.24512	-0.277802
N	1.60507	-1.58617	1.1537
C	1.65377	-2.67629	2.09999
H	2.44114	-1.34898	0.670011
H	2.67708	-3.10959	2.14839
H	0.944794	-3.48381	1.80588
H	1.37316	-2.32483	3.11926
C	738.265	2.88995	-1.86767
C	738.4	2.1823	-0.574555
O	738.429	2.7968	0.482834
H	738.209	3.98477	-1.6831
H	737.339	2.56502	-2.38658
H	739.144	2.67892	-2.51327
N	738.494	0.851839	-0.6336
C	738.63	0.0250187	0.538907
C	739.218	-1.30375	0.10639
O	739.257	-1.61698	-1.08197
H	738.499	0.364998	-1.50302
H	739.332	0.490543	1.2183
C	737.266	-0.197924	1.23087
H	736.548	-0.67503	0.530854
H	737.367	-0.834044	2.13417
H	736.845	0.78292	1.54181
N	739.712	-2.1105	1.06604
C	740.303	-3.38954	0.747688
H	739.678	-1.83598	2.02138
H	740.649	-3.90386	1.67138
H	741.178	-3.26051	0.0700591
H	739.564	-4.04735	0.235734
