44
  This energy is 1.42666e-319 and Call times are: 195
C	2.65022	-0.0295733	-2.25867
C	1.38858	-0.590487	-1.72496
O	0.805486	-1.49771	-2.3024
H	2.91569	-0.554816	-3.20181
H	3.47194	-0.170468	-1.52536
H	2.52763	1.05311	-2.47249
N	0.930275	-0.0486164	-0.594161
C	-0.28355	-0.487324	0.0469256
C	-0.763541	0.631383	0.950995
O	-0.0241177	1.57223	1.23365
H	1.39905	0.709631	-0.148915
H	-1.04217	-0.648153	-0.708528
C	-0.0513661	-1.77359	0.870779
H	0.727929	-1.60522	1.64439
H	-0.98402	-2.11424	1.36564
H	0.301086	-2.585	0.197334
N	-2.02876	0.564775	1.4101
C	-2.57664	1.59033	2.26698
H	-2.61379	-0.201087	1.16427
H	-3.6292	1.35477	2.53877
H	-2.55982	2.57997	1.75552
H	-1.98296	1.67672	3.20573
C	16.5394	0.767612	2.34148
C	17.0488	-0.0278723	1.20174
O	16.4387	-1.0047	0.789345
H	15.587	0.322847	2.7033
H	16.3492	1.8141	2.02292
H	17.2767	0.762547	3.17174
N	18.2014	0.377498	0.663726
C	18.8228	-0.293397	-0.450106
C	20.2929	0.0779799	-0.456465
O	20.708	1.01307	0.225554
H	18.7037	1.15752	1.02734
H	18.7544	-1.36325	-0.299084
C	18.1665	0.112618	-1.78858
H	18.2378	1.21085	-1.93998
H	18.6424	-0.402258	-2.64832
H	17.0897	-0.163665	-1.77077
N	21.1221	-0.665131	-1.21558
C	22.5394	-0.393324	-1.27494
H	20.768	-1.42218	-1.75481
H	23.0494	-1.11162	-1.95402
H	22.9988	-0.480389	-0.263708
H	22.7263	0.638424	-1.65141
