44
  This energy is 1.54445e-320 and Call times are: 124977
C	-0.226218	0.499771	-3.43878
C	-0.844481	0.337529	-2.10362
O	-2.04533	0.502297	-1.93838
H	-1.01034	0.781101	-4.17489
H	0.243878	-0.453111	-3.76103
H	0.543152	1.29988	-3.40976
N	-0.0212321	0.0109408	-1.10464
C	-0.473859	-0.181934	0.249891
C	0.721684	-0.0191196	1.16826
O	1.86545	-0.0182948	0.71702
H	0.959707	-0.0919532	-1.24644
H	-1.18645	0.594828	0.496729
C	-1.10256	-1.58052	0.439111
H	-0.369021	-2.37497	0.184375
H	-1.45229	-1.73232	1.48095
H	-1.9764	-1.68763	-0.239914
N	0.481389	0.14526	2.48403
C	1.55663	0.319626	3.43252
H	-0.451559	0.148862	2.82874
H	1.15627	0.437088	4.46362
H	2.15657	1.22499	3.18425
H	2.23897	-0.560959	3.41944
C	5915.76	-3.46284	0.279005
C	5915.27	-2.09683	0.566285
O	5914.2	-1.91591	1.12604
H	5915.02	-4.20526	0.639677
H	5916.73	-3.63915	0.80002
H	5915.9	-3.59703	-0.814203
N	5916.05	-1.08936	0.176835
C	5915.71	0.294571	0.386536
C	5916.51	1.12679	-0.597642
O	5917.46	0.638622	-1.20911
H	5916.91	-1.24915	-0.304324
H	5914.66	0.435184	0.160531
C	5916.02	0.738329	1.83327
H	5917.1	0.592091	2.06196
H	5915.76	1.80341	1.99823
H	5915.43	0.120403	2.54447
N	5916.13	2.40483	-0.789813
C	5916.82	3.26936	-1.71613
H	5915.35	2.77929	-0.290768
H	5916.36	4.28084	-1.73145
H	5916.78	2.85085	-2.74794
H	5917.89	3.37754	-1.42688
