44
  This energy is 1.0032e-319 and Call times are: 4647
C	-2.3596	-1.7314	-1.88697
C	-1.09335	-1.67235	-1.12256
O	-0.455191	-2.68658	-0.876415
H	-2.57993	-2.78843	-2.15157
H	-2.27047	-1.13817	-2.82129
H	-3.1955	-1.33249	-1.27452
N	-0.700037	-0.461969	-0.71926
C	0.509584	-0.243558	0.0330305
C	0.38009	1.08775	0.747241
O	-0.504633	1.88361	0.437882
H	-1.24364	0.353146	-0.900972
H	0.598532	-1.01451	0.787876
C	1.75048	-0.234169	-0.887409
H	1.65559	0.557463	-1.66099
H	2.68364	-0.0663767	-0.311364
H	1.83343	-1.21434	-1.40561
N	1.25187	1.35172	1.74038
C	1.19777	2.58849	2.48445
H	1.95619	0.691809	1.98054
H	1.99792	2.61823	3.25654
H	0.213627	2.69693	2.99528
H	1.33259	3.4617	1.80584
C	232.558	-0.854438	0.350938
C	231.29	-0.309013	0.887438
O	231.175	-0.0259328	2.07192
H	233.297	-0.945876	1.17631
H	232.968	-0.175119	-0.425451
H	232.386	-1.8587	-0.0904771
N	230.294	-0.153227	0.0123224
C	229.002	0.366235	0.383119
C	228.004	-0.0717867	-0.67089
O	228.385	-0.527956	-1.74705
H	230.391	-0.414841	-0.944255
H	228.702	-0.0762277	1.3245
C	229.024	1.90767	0.486102
H	229.333	2.35827	-0.481162
H	228.031	2.31097	0.771589
H	229.76	2.21573	1.26056
N	226.694	0.0374137	-0.374781
C	225.671	-0.365801	-1.31172
H	226.405	0.402351	0.504266
H	224.658	-0.196639	-0.884929
H	225.771	-1.44722	-1.56049
H	225.754	0.215346	-2.25857
