44
  This energy is 1.5489e-320 and Call times are: 13551
C	3.3948	0.750689	0.194819
C	2.01093	1.0778	-0.2164
O	1.73277	2.17235	-0.686597
H	4.05071	1.62859	0.00792276
H	3.77416	-0.112583	-0.391414
H	3.42441	0.503836	1.27701
N	1.09763	0.120268	-0.0392238
C	-0.289731	0.288654	-0.390925
C	-1.09608	-0.727434	0.394321
O	-0.541073	-1.66307	0.967374
H	1.33114	-0.756923	0.371808
H	-0.613648	1.27467	-0.0828432
C	-0.514151	0.0883965	-1.90639
H	-0.180155	-0.923905	-2.21914
H	-1.58133	0.217493	-2.18068
H	0.0827688	0.837872	-2.47041
N	-2.43086	-0.552856	0.456642
C	-3.27849	-1.46303	1.191
H	-2.86038	0.214563	-0.00791655
H	-4.34392	-1.15121	1.12114
H	-2.99015	-1.48696	2.26688
H	-3.18846	-2.49711	0.78635
C	647.993	-2.92787	1.4594
C	647.097	-1.74958	1.45014
O	646.21	-1.6234	2.28232
H	647.705	-3.60158	2.29553
H	649.046	-2.6066	1.60305
H	647.904	-3.48419	0.502589
N	647.311	-0.849455	0.487668
C	646.523	0.348717	0.348678
C	646.672	0.841981	-1.07737
O	647.555	0.396408	-1.80735
H	648.019	-0.977989	-0.201983
H	645.48	0.103551	0.504396
C	646.981	1.44186	1.3397
H	648.052	1.69045	1.1776
H	646.376	2.36578	1.23547
H	646.868	1.06779	2.38056
N	645.792	1.7637	-1.5154
C	645.849	2.28314	-2.86191
H	645.08	2.10657	-0.911659
H	645.043	3.03127	-3.02935
H	645.725	1.46247	-3.60518
H	646.83	2.77596	-3.05179
