44
  This energy is 1.53798e-319 and Call times are: 54417
C	3.00908	1.31661	-1.15676
C	2.17972	0.185668	-0.683135
O	2.59838	-0.963286	-0.716595
H	3.987	0.929421	-1.51678
H	3.18936	2.03248	-0.327387
H	2.50018	1.84074	-1.99298
N	0.962126	0.492379	-0.229518
C	0.0397055	-0.498356	0.264863
C	-1.35648	0.0890378	0.195093
O	-1.52329	1.29373	0.0142178
H	0.621664	1.42886	-0.234507
H	0.0665826	-1.36121	-0.388467
C	0.373989	-0.902616	1.71812
H	0.346168	-0.0149509	2.38549
H	-0.334241	-1.66546	2.10186
H	1.39956	-1.33031	1.75595
N	-2.3977	-0.757848	0.316094
C	-3.76297	-0.291032	0.250518
H	-2.24207	-1.73036	0.454792
H	-4.47427	-1.13737	0.373115
H	-3.96464	0.196958	-0.730522
H	-3.96263	0.454123	1.0543
C	2581.28	-0.399261	-3.45738
C	2581.07	-0.901259	-2.08133
O	2580.51	-1.96758	-1.87745
H	2580.86	-1.12511	-4.18349
H	2582.37	-0.285372	-3.6587
H	2580.78	0.580674	-3.59019
N	2581.52	-0.126472	-1.09106
C	2581.39	-0.479669	0.299691
C	2581.51	0.791874	1.11697
O	2581.93	1.82765	0.609096
H	2581.95	0.753816	-1.26906
H	2580.4	-0.885214	0.466078
C	2582.47	-1.49227	0.729752
H	2583.49	-1.07325	0.557072
H	2582.37	-1.76651	1.80005
H	2582.37	-2.41871	0.12294
N	2581.11	0.747155	2.40449
C	2581.18	1.91167	3.25632
H	2580.76	-0.0986876	2.79506
H	2580.81	1.67278	4.27853
H	2580.55	2.73692	2.84325
H	2582.23	2.2794	3.33789
