44
  This energy is 1.05957e-319 and Call times are: 90243
C	0.766925	-1.38073	3.10347
C	-0.206907	-0.902445	2.09645
O	-1.40933	-1.06483	2.25231
H	0.221013	-1.87282	3.93755
H	1.34847	-0.52634	3.50923
H	1.46156	-2.11594	2.64534
N	0.301526	-0.297164	1.02058
C	-0.518436	0.222058	-0.0447386
C	0.349633	0.348412	-1.28156
O	1.57429	0.274786	-1.2002
H	1.28447	-0.196874	0.891337
H	-1.30265	-0.491163	-0.264734
C	-1.11826	1.59677	0.326039
H	-0.311014	2.32583	0.55176
H	-1.75032	1.9994	-0.49199
H	-1.75096	1.49093	1.23414
N	-0.270459	0.520939	-2.4655
C	0.473395	0.639316	-3.69792
H	-1.26275	0.570825	-2.51147
H	-0.214733	0.777333	-4.56087
H	1.08277	-0.27573	-3.87845
H	1.16467	1.51206	-3.65752
C	4276.85	-2.41037	0.54235
C	4276.12	-1.18606	0.938065
O	4276.31	-0.660394	2.02648
H	4277.53	-2.7154	1.36805
H	4277.46	-2.21668	-0.3679
H	4276.14	-3.23581	0.341511
N	4275.25	-0.701847	0.048814
C	4274.47	0.481852	0.289083
C	4273.27	0.441437	-0.638813
O	4273.23	-0.34667	-1.5818
H	4275.09	-1.15571	-0.822639
H	4274.1	0.457823	1.3061
C	4275.29	1.76466	0.0375669
H	4275.67	1.78572	-1.00649
H	4274.69	2.67799	0.221795
H	4276.17	1.7817	0.722516
N	4272.25	1.28094	-0.377652
C	4271.06	1.30498	-1.19955
H	4272.29	1.90618	0.394411
H	4270.34	2.06274	-0.824345
H	4270.56	0.310043	-1.19476
H	4271.32	1.55712	-2.25391
