44
  This energy is 8.0755e-320 and Call times are: 22035
C	2.41377	2.28293	-1.04312
C	2.01325	0.944229	-0.554572
O	2.81971	0.0265438	-0.491473
H	3.49119	2.26691	-1.31656
H	2.25578	3.04294	-0.249241
H	1.81935	2.55677	-1.94013
N	0.734659	0.801152	-0.198076
C	0.195394	-0.440292	0.296735
C	-1.30815	-0.405039	0.103494
O	-1.88342	0.649058	-0.160655
H	0.0806709	1.54832	-0.281596
H	0.584675	-1.25559	-0.299768
C	0.534439	-0.645317	1.7901
H	0.134187	0.193209	2.39902
H	0.120837	-1.60036	2.17429
H	1.63859	-0.668149	1.91844
N	-1.97954	-1.5686	0.210111
C	-3.41117	-1.63414	0.0303482
H	-1.49507	-2.41214	0.417382
H	-3.77637	-2.67685	0.159296
H	-3.6954	-1.28683	-0.989374
H	-3.93065	-0.986242	0.773018
C	1052.88	-0.758709	1.62974
C	1052.09	-0.552015	0.397553
O	1052.62	-0.542343	-0.703763
H	1053.95	-0.882186	1.36
H	1052.54	-1.6721	2.1584
H	1052.78	0.118482	2.30279
N	1050.78	-0.373433	0.56099
C	1049.87	-0.16087	-0.541708
C	1048.62	0.504098	0.0012936
O	1048.4	0.539591	1.21082
H	1050.36	-0.354381	1.46553
H	1050.33	0.523543	-1.2446
C	1049.51	-1.49271	-1.23457
H	1049.04	-2.1927	-0.510462
H	1048.81	-1.33267	-2.08421
H	1050.43	-1.97043	-1.62689
N	1047.78	1.06875	-0.885414
C	1046.57	1.73477	-0.460053
H	1047.98	1.03571	-1.85958
H	1046.01	2.13155	-1.33581
H	1046.81	2.5857	0.21851
H	1045.91	1.0298	0.0902841
