44
  This energy is 4.29887e-320 and Call times are: 62397
C	2.80824	-1.8899	0.817423
C	1.68901	-1.54652	-0.0884556
O	1.59695	-2.05044	-1.19935
H	3.47657	-2.62208	0.314317
H	2.41802	-2.34325	1.75285
H	3.39389	-0.979468	1.06458
N	0.802731	-0.661199	0.37315
C	-0.339665	-0.227735	-0.390963
C	-0.803859	1.0993	0.177133
O	-0.395544	1.49344	1.2679
H	0.904688	-0.235831	1.26847
H	-0.0338301	-0.0580028	-1.41553
C	-1.4849	-1.26284	-0.326828
H	-1.79571	-1.43505	0.725718
H	-2.36606	-0.932295	-0.914254
H	-1.13181	-2.23074	-0.744742
N	-1.6569	1.83276	-0.564739
C	-2.14351	3.11458	-0.110508
H	-1.97016	1.49982	-1.44806
H	-2.83507	3.56039	-0.859004
H	-1.29755	3.82161	0.0498219
H	-2.69165	3.00779	0.853503
C	2961.63	0.353489	-1.99209
C	2960.17	0.335168	-1.80995
O	2959.41	0.655282	-2.71846
H	2961.87	0.693023	-3.02356
H	2962.05	-0.665001	-1.84395
H	2962.1	1.05265	-1.26683
N	2959.72	-0.0410823	-0.608388
C	2958.32	-0.109309	-0.278978
C	2958.19	-0.0505917	1.23087
O	2959.18	-0.213649	1.95124
H	2960.35	-0.271494	0.132582
H	2957.82	0.760925	-0.685229
C	2957.68	-1.40825	-0.816
H	2958.19	-2.29899	-0.397744
H	2956.6	-1.46394	-0.564245
H	2957.78	-1.43976	-1.9228
N	2956.97	0.207048	1.74609
C	2956.76	0.293594	3.1718
H	2956.19	0.343134	1.14633
H	2955.69	0.510492	3.39633
H	2957.38	1.10435	3.61436
H	2957.04	-0.664247	3.66962
