44
  This energy is 1.5111e-319 and Call times are: 73107
C	-1.68292	-2.70429	1.40738
C	-0.909699	-2.08054	0.309991
O	-0.51859	-2.74059	-0.642829
H	-1.80825	-3.78887	1.19804
H	-2.68619	-2.23472	1.48342
H	-1.14489	-2.58411	2.37124
N	-0.664168	-0.773406	0.426059
C	0.0747381	-0.0263022	-0.560187
C	0.602447	1.2296	0.105758
O	0.17322	1.58828	1.20072
H	-0.963105	-0.252725	1.22133
H	0.9272	-0.612293	-0.879557
C	-0.81538	0.346129	-1.76688
H	-1.68928	0.946662	-1.43555
H	-0.249527	0.921338	-2.52827
H	-1.19657	-0.582334	-2.2452
N	1.56761	1.91833	-0.534631
C	2.13893	3.11955	0.0282567
H	1.90677	1.6079	-1.41658
H	2.91497	3.54039	-0.648436
H	2.61226	2.90503	1.01375
H	1.35256	3.89319	0.184042
C	3466.79	-2.92671	0.985137
C	3466.78	-1.57083	0.391295
O	3465.77	-1.12026	-0.134805
H	3465.79	-3.39476	0.853683
H	3467.02	-2.86707	2.06995
H	3467.55	-3.55824	0.481053
N	3467.92	-0.882821	0.459227
C	3468.06	0.448603	-0.0733162
C	3469.54	0.704346	-0.297089
O	3470.39	-0.0386239	0.193719
H	3468.74	-1.27212	0.864492
H	3467.57	0.497095	-1.03658
C	3467.48	1.50591	0.891281
H	3467.99	1.45291	1.87868
H	3467.59	2.53222	0.484246
H	3466.4	1.30684	1.04789
N	3469.88	1.75611	-1.06666
C	3471.27	2.07031	-1.34468
H	3469.18	2.3413	-1.46068
H	3471.34	2.97086	-1.99315
H	3471.76	1.22085	-1.86487
H	3471.82	2.27076	-0.399859
