44
  This energy is 2.89522e-320 and Call times are: 106497
C	0.427526	2.33287	2.54972
C	-0.317681	1.79465	1.38946
O	-1.40587	2.25251	1.06899
H	-0.161967	3.15125	3.01729
H	1.4072	2.73859	2.22038
H	0.593008	1.53369	3.30262
N	0.260372	0.789334	0.727984
C	-0.341213	0.161658	-0.42134
C	0.285071	-1.20962	-0.584456
O	1.3103	-1.50893	0.0247658
H	1.13363	0.405797	1.01652
H	-1.3978	0.0203444	-0.232313
C	-0.122244	1.0012	-1.69975
H	0.962741	1.14479	-1.8903
H	-0.584325	0.520847	-2.58661
H	-0.584539	2.00361	-1.56707
N	-0.333739	-2.08651	-1.3994
C	0.182773	-3.41929	-1.60701
H	-1.16635	-1.82776	-1.87797
H	-0.464631	-3.98662	-2.31147
H	0.226786	-3.978	-0.644127
H	1.21233	-3.38023	-2.03089
C	5042.24	-1.09272	2.8576
C	5043.3	-1.2278	1.84126
O	5044.18	-2.07124	1.95518
H	5042.4	-1.84217	3.66252
H	5041.24	-1.27154	2.39498
H	5042.26	-0.0760024	3.3034
N	5043.25	-0.380419	0.810884
C	5044.22	-0.388859	-0.25715
C	5044.18	0.967633	-0.933537
O	5043.25	1.74814	-0.721481
H	5042.55	0.321393	0.744346
H	5045.21	-0.516362	0.164826
C	5043.92	-1.5034	-1.28298
H	5042.9	-1.36991	-1.71339
H	5044.66	-1.51283	-2.10664
H	5043.95	-2.49181	-0.774862
N	5045.2	1.28917	-1.75171
C	5045.25	2.56333	-2.4299
H	5045.94	0.646783	-1.90483
H	5046.17	2.63737	-3.05732
H	5045.26	3.39986	-1.69414
H	5044.37	2.69472	-3.08907
