44
  This energy is 4.66941e-320 and Call times are: 107211
C	-2.75228	-1.68188	-1.3124
C	-2.15517	-0.598816	-0.498985
O	-2.84725	0.29239	-0.0264688
H	-3.8487	-1.51766	-1.39457
H	-2.5714	-2.66596	-0.831067
H	-2.3116	-1.68267	-2.33159
N	-0.833086	-0.651034	-0.320817
C	-0.108399	0.330391	0.446294
C	1.34527	0.275576	0.0184154
O	1.76904	-0.666241	-0.64884
H	-0.276382	-1.36607	-0.735238
H	-0.485849	1.31559	0.203435
C	-0.226509	0.058382	1.9626
H	0.160979	-0.953395	2.20811
H	0.330218	0.812315	2.55625
H	-1.29612	0.100151	2.26316
N	2.14149	1.30203	0.376781
C	3.53643	1.34204	0.00432115
H	1.77806	2.0584	0.910679
H	4.02116	2.26429	0.39385
H	3.64763	1.32908	-1.10415
H	4.07865	0.460181	0.416034
C	5076.86	2.75314	1.86091
C	5077.11	1.3025	1.71447
O	5077.03	0.545105	2.67116
H	5076.61	2.97627	2.92
H	5076.01	3.05876	1.2156
H	5077.76	3.33181	1.57849
N	5077.45	0.879361	0.49271
C	5077.73	-0.502497	0.192939
C	5078.55	-0.546686	-1.08131
O	5078.65	0.446269	-1.79961
H	5077.54	1.5106	-0.272295
H	5078.33	-0.920241	0.988113
C	5076.42	-1.31271	0.0138064
H	5075.8	-0.881017	-0.802265
H	5076.63	-2.37721	-0.216972
H	5075.83	-1.27151	0.953585
N	5079.17	-1.70079	-1.38062
C	5079.99	-1.83287	-2.56693
H	5079.09	-2.49098	-0.782924
H	5080.42	-2.85658	-2.63743
H	5080.83	-1.10097	-2.55103
H	5079.38	-1.64298	-3.48219
