44
  This energy is 1.32444e-319 and Call times are: 66009
C	-1.41362	-2.62282	1.8024
C	-1.0997	-1.94047	0.526835
O	-1.32978	-2.47442	-0.549479
H	-1.85037	-3.62208	1.58658
H	-2.14855	-2.02744	2.38398
H	-0.489096	-2.75669	2.40262
N	-0.552379	-0.726546	0.622745
C	-0.191794	0.0614786	-0.528699
C	0.835601	1.08624	-0.0887514
O	1.03121	1.30786	1.10475
H	-0.343003	-0.314454	1.50551
H	0.27814	-0.581566	-1.262
C	-1.42417	0.770508	-1.13339
H	-1.9042	1.42885	-0.378223
H	-1.15011	1.37805	-2.02028
H	-2.16968	0.00910605	-1.4506
N	1.53481	1.72248	-1.04912
C	2.54207	2.70555	-0.724796
H	1.36691	1.52404	-2.00916
H	3.00307	3.11622	-1.65004
H	3.34786	2.25211	-0.103236
H	2.09671	3.54985	-0.150344
C	3132.88	-1.48807	-2.36004
C	3132.09	-1.53216	-1.10834
O	3131.93	-2.58036	-0.498445
H	3133.25	-2.50984	-2.59897
H	3133.76	-0.812026	-2.23875
H	3132.25	-1.12812	-3.19876
N	3131.57	-0.37504	-0.695796
C	3130.78	-0.257996	0.503156
C	3129.95	1.00307	0.38965
O	3130.2	1.84592	-0.47039
H	3131.69	0.466619	-1.21699
H	3130.1	-1.09842	0.559425
C	3131.67	-0.192557	1.76214
H	3132.37	0.670356	1.70077
H	3131.07	-0.102557	2.68714
H	3132.28	-1.12143	1.83317
N	3128.92	1.1511	1.24713
C	3128.06	2.31343	1.20623
H	3128.73	0.454484	1.93132
H	3127.28	2.25087	1.99122
H	3127.56	2.39746	0.214768
H	3128.65	3.24298	1.37442
