44
  This energy is 8.77115e-320 and Call times are: 22287
C	1.97679	-1.02743	-2.67634
C	0.905272	-0.186236	-2.09717
O	0.386868	0.712625	-2.74509
H	2.18661	-0.691319	-3.71503
H	1.65769	-2.09064	-2.70026
H	2.90483	-0.933805	-2.07392
N	0.549298	-0.461576	-0.840251
C	-0.477544	0.268691	-0.14087
C	-0.262357	0.0663266	1.3464
O	0.493541	-0.811545	1.75846
H	0.999381	-1.17742	-0.313067
H	-0.362192	1.3248	-0.349224
C	-1.88752	-0.217184	-0.544624
H	-2.00217	-1.30114	-0.330132
H	-2.68058	0.343123	-0.00806931
H	-2.03222	-0.0646426	-1.63638
N	-0.909829	0.894041	2.19001
C	-0.75697	0.784296	3.62206
H	-1.51162	1.6028	1.83682
H	-1.37097	1.55166	4.14303
H	0.307955	0.928985	3.91573
H	-1.079	-0.221867	3.97577
C	1063.45	-3.11852	0.0257167
C	1063.37	-1.69977	0.441015
O	1064.14	-1.24354	1.27848
H	1064.26	-3.62252	0.588894
H	1063.67	-3.18785	-1.06084
H	1062.49	-3.63366	0.243796
N	1062.43	-0.961531	-0.142202
C	1062.23	0.434066	0.157396
C	1060.81	0.801989	-0.251332
O	1060.15	0.0516724	-0.964392
H	1061.79	-1.35208	-0.801592
H	1062.31	0.579327	1.22714
C	1063.25	1.32089	-0.593557
H	1063.16	1.16887	-1.69067
H	1063.1	2.39611	-0.365019
H	1064.28	1.04072	-0.286312
N	1060.31	1.96329	0.212231
C	1058.97	2.39062	-0.114618
H	1060.86	2.55332	0.793878
H	1058.74	3.37098	0.359415
H	1058.22	1.64668	0.243771
H	1058.85	2.49783	-1.21696
