44
  This energy is 1.48264e-319 and Call times are: 30351
C	-0.668466	0.0401265	-3.41726
C	0.118131	0.471222	-2.23971
O	1.13679	1.13623	-2.36847
H	-0.176055	0.409327	-4.34305
H	-1.69562	0.458545	-3.36523
H	-0.722715	-1.06823	-3.45655
N	-0.343189	0.0896486	-1.04642
C	0.312007	0.431691	0.190739
C	-0.144335	-0.554911	1.24791
O	-1.11524	-1.28314	1.05079
H	-1.15817	-0.476587	-0.956346
H	1.38086	0.311184	0.0678594
C	-0.0286943	1.87396	0.627655
H	-1.12603	1.99424	0.75213
H	0.474285	2.14066	1.57984
H	0.309556	2.58685	-0.155623
N	0.56386	-0.616462	2.39275
C	0.211019	-1.53379	3.45114
H	1.3507	-0.0238693	2.53039
H	0.911497	-1.43237	4.30922
H	0.251282	-2.58642	3.08838
H	-0.8223	-1.33379	3.81642
C	1443.86	2.47425	-2.1693
C	1444.45	2.0423	-0.880614
O	1444.87	2.8583	-0.0709466
H	1443.89	3.58378	-2.23236
H	1442.8	2.13746	-2.24126
H	1444.44	2.051	-3.01545
N	1444.5	0.726042	-0.662781
C	1445.04	0.152888	0.543438
C	1445.41	-1.28652	0.248049
O	1445.01	-1.84296	-0.773134
H	1444.18	0.07036	-1.34265
H	1445.94	0.68118	0.807415
C	1444.02	0.209306	1.70105
H	1443.09	-0.333049	1.4266
H	1444.43	-0.231065	2.63141
H	1443.75	1.26881	1.90686
N	1446.21	-1.91847	1.13062
C	1446.63	-3.28584	0.926831
H	1446.53	-1.44875	1.94744
H	1447.28	-3.62659	1.76198
H	1447.2	-3.38443	-0.0249429
H	1445.75	-3.96293	0.871678
