44
  This energy is 1.21822e-319 and Call times are: 53199
C	-1.4456	3.16772	-0.0442359
C	-1.3287	1.79788	0.504472
O	-1.94194	1.46442	1.50909
H	-2.13399	3.76198	0.595159
H	-1.85384	3.13292	-1.0762
H	-0.45099	3.66122	-0.0569643
N	-0.519679	0.963127	-0.152062
C	-0.303353	-0.40095	0.259428
C	1.00392	-0.869522	-0.349429
O	1.54566	-0.226525	-1.2466
H	-0.0030352	1.25537	-0.952444
H	-0.194041	-0.430552	1.33611
C	-1.46074	-1.31668	-0.197757
H	-1.57049	-1.28339	-1.30273
H	-1.29745	-2.36772	0.117569
H	-2.41277	-0.962199	0.25404
N	1.55428	-1.99675	0.14298
C	2.80346	-2.51272	-0.366425
H	1.10411	-2.49899	0.873964
H	3.08884	-3.44727	0.16501
H	3.62096	-1.76824	-0.229768
H	2.72089	-2.73906	-1.45415
C	2525.14	2.93538	-0.692742
C	2524.49	1.99848	0.252731
O	2524.58	2.15804	1.46231
H	2525.67	3.72514	-0.120018
H	2524.38	3.41477	-1.34013
H	2525.87	2.39377	-1.32629
N	2523.82	0.980201	-0.28865
C	2523.14	-0.0132319	0.50092
C	2522.95	-1.24595	-0.361916
O	2523.12	-1.1936	-1.57846
H	2523.78	0.844694	-1.27501
H	2523.77	-0.290137	1.33809
C	2521.77	0.504058	0.993267
H	2521.13	0.78785	0.131896
H	2521.24	-0.258337	1.60169
H	2521.92	1.40775	1.6231
N	2522.61	-2.39567	0.255273
C	2522.43	-3.62265	-0.483147
H	2522.49	-2.41921	1.24151
H	2522.15	-4.45534	0.201289
H	2523.36	-3.90469	-1.02105
H	2521.61	-3.50678	-1.23772
