44
  This energy is 1.36827e-319 and Call times are: 110991
C	0.838743	0.16089	3.37591
C	0.0616711	0.624207	2.20428
O	-0.846502	1.43442	2.32785
H	0.449882	0.654414	4.29301
H	1.91027	0.424495	3.25281
H	0.73979	-0.939146	3.49025
N	0.404588	0.105942	1.02269
C	-0.257956	0.458791	-0.207501
C	0.00251166	-0.647762	-1.21096
O	0.87105	-1.49296	-1.00334
H	1.12706	-0.575227	0.939125
H	-1.32562	0.499885	-0.0328928
C	0.258128	1.80717	-0.757645
H	1.35385	1.76168	-0.934993
H	-0.250039	2.08196	-1.70476
H	0.0624823	2.60917	-0.0128901
N	-0.764085	-0.680165	-2.31879
C	-0.596376	-1.70362	-3.32407
H	-1.46651	0.0085997	-2.46518
H	-1.31817	-1.55798	-4.15777
H	-0.764734	-2.71464	-2.88733
H	0.435023	-1.67648	-3.74438
C	5256.52	1.42286	-2.86172
C	5257.45	0.485455	-2.19368
O	5258.09	-0.332417	-2.83651
H	5256.53	1.23282	-3.957
H	5256.83	2.47144	-2.67589
H	5255.48	1.27372	-2.48106
N	5257.54	0.582644	-0.865042
C	5258.4	-0.259648	-0.0746973
C	5257.88	-0.250844	1.35005
O	5257.05	0.58351	1.71263
H	5256.98	1.23345	-0.349904
H	5258.33	-1.27555	-0.442859
C	5259.86	0.239609	-0.110843
H	5259.92	1.28231	0.266882
H	5260.53	-0.406775	0.496575
H	5260.23	0.229526	-1.15997
N	5258.34	-1.19921	2.18911
C	5257.89	-1.27643	3.56063
H	5259	-1.8699	1.87475
H	5258.39	-2.12138	4.08822
H	5256.79	-1.43177	3.607
H	5258.13	-0.334515	4.10541
