44
  This energy is 1.17192e-320 and Call times are: 73905
C	2.05515	-2.14557	1.81633
C	0.93376	-1.1835	1.72619
O	0.204941	-0.969911	2.68519
H	2.07916	-2.58713	2.83628
H	3.01908	-1.62849	1.62583
H	1.92058	-2.96098	1.07475
N	0.766042	-0.5769	0.548788
C	-0.280229	0.384095	0.306644
C	-0.50324	0.462575	-1.19114
O	0.31063	-0.0235464	-1.97417
H	1.3485	-0.781107	-0.233504
H	-1.19738	0.0268146	0.757491
C	0.0953006	1.77629	0.861524
H	1.03699	2.13948	0.397375
H	-0.708199	2.51864	0.676909
H	0.257156	1.70507	1.95919
N	-1.62981	1.06153	-1.62485
C	-1.93265	1.17253	-3.03273
H	-2.27953	1.44241	-0.975214
H	-2.90094	1.69792	-3.18645
H	-2.00325	0.163676	-3.50014
H	-1.13594	1.74343	-3.56235
C	3501.33	-2.27692	2.11252
C	3502.51	-1.80449	1.3573
O	3503.6	-2.3458	1.48456
H	3501.62	-3.13465	2.7558
H	3500.53	-2.60914	1.41131
H	3500.93	-1.46256	2.75685
N	3502.32	-0.762487	0.545214
C	3503.37	-0.189874	-0.254872
C	3502.96	1.22394	-0.620063
O	3501.8	1.60428	-0.461269
H	3501.43	-0.311812	0.472246
H	3504.27	-0.128038	0.341767
C	3503.62	-1.01868	-1.53501
H	3502.69	-1.08064	-2.14438
H	3504.43	-0.580649	-2.15333
H	3503.91	-2.05244	-1.25394
N	3503.91	2.04592	-1.10051
C	3503.62	3.41271	-1.46384
H	3504.85	1.72151	-1.215
H	3504.53	3.92458	-1.83908
H	3503.24	3.97943	-0.584455
H	3502.84	3.44925	-2.2627
