44
  This energy is 1.11382e-319 and Call times are: 58911
C	1.66523	-2.2213	2.10213
C	1.27946	-1.74522	0.754639
O	1.76548	-2.23869	-0.253716
H	2.4181	-3.03325	2.0032
H	0.776629	-2.61837	2.6365
H	2.10846	-1.38982	2.6896
N	0.385875	-0.754368	0.709106
C	-0.0880031	-0.18539	-0.527232
C	-0.645205	1.19164	-0.223012
O	-0.870597	1.53669	0.935423
H	0.0191339	-0.341038	1.53832
H	0.750209	-0.059625	-1.20077
C	-1.17899	-1.0695	-1.17161
H	-2.03708	-1.19698	-0.477676
H	-1.54599	-0.634389	-2.12385
H	-0.758623	-2.07568	-1.38848
N	-0.860651	2.02233	-1.26202
C	-1.37807	3.35678	-1.06788
H	-0.665223	1.72708	-2.19147
H	-1.48705	3.88193	-2.04235
H	-0.693379	3.95364	-0.422747
H	-2.37612	3.32338	-0.573952
C	2793.4	-1.94731	2.8851
C	2793.49	-0.637642	2.20128
O	2793.45	0.409547	2.83247
H	2793.29	-1.78357	3.97945
H	2794.32	-2.54113	2.69882
H	2792.51	-2.51016	2.5178
N	2793.61	-0.669803	0.87194
C	2793.71	0.521432	0.067089
C	2793.31	0.160804	-1.35052
O	2793.22	-1.01507	-1.69898
H	2793.61	-1.52861	0.366582
H	2793	1.25349	0.432475
C	2795.14	1.09383	0.0854008
H	2795.87	0.339991	-0.289424
H	2795.22	2.01122	-0.533216
H	2795.43	1.35291	1.12945
N	2793.04	1.17127	-2.19909
C	2792.64	0.923851	-3.56477
H	2793.11	2.116	-1.89607
H	2792.46	1.8814	-4.10197
H	2791.7	0.324074	-3.59689
H	2793.43	0.358025	-4.10933
