44
  This energy is 4.80923e-320 and Call times are: 50385
C	2.19361	-0.71518	-2.60821
C	1.74011	-0.874473	-1.20814
O	2.25602	-1.69888	-0.466054
H	3.0128	-1.43813	-2.81344
H	2.57399	0.314971	-2.77227
H	1.35451	-0.914797	-3.30751
N	0.743728	-0.0784125	-0.81334
C	0.194615	-0.115398	0.518551
C	-1.19196	0.496226	0.467993
O	-1.56038	1.13824	-0.5138
H	0.312189	0.568946	-1.43595
H	0.0877187	-1.14777	0.826527
C	1.08261	0.66298	1.5149
H	1.1907	1.72149	1.19555
H	0.662791	0.636405	2.54145
H	2.09577	0.205885	1.54181
N	-2.00454	0.291035	1.52328
C	-3.34618	0.824793	1.55892
H	-1.69043	-0.237319	2.3052
H	-3.85371	0.549724	2.50971
H	-3.95	0.426763	0.71144
H	-3.32943	1.93588	1.47902
C	2392.59	1.18769	-0.724921
C	2391.48	0.227608	-0.926676
O	2391.52	-0.604278	-1.82275
H	2393.38	1.00773	-1.49055
H	2393.04	1.05312	0.283909
H	2392.22	2.22886	-0.829072
N	2390.45	0.328521	-0.0860954
C	2389.3	-0.534493	-0.15582
C	2388.15	0.161173	0.551433
O	2388.36	1.13899	1.26838
H	2390.42	1.02938	0.621472
H	2389.02	-0.661701	-1.19328
C	2389.58	-1.90215	0.505802
H	2389.87	-1.76788	1.56983
H	2388.7	-2.5692	0.453751
H	2390.42	-2.40104	-0.0205983
N	2386.91	-0.317439	0.346898
C	2385.76	0.287742	0.968923
H	2386.76	-1.1053	-0.24249
H	2384.83	-0.249844	0.679357
H	2385.65	1.35312	0.6588
H	2385.85	0.258347	2.0789
