44
  This energy is 8.75781e-320 and Call times are: 33963
C	-2.46911	-1.12321	-2.18358
C	-1.3713	-1.37067	-1.22192
O	-1.11399	-2.50162	-0.833016
H	-2.95802	-2.08836	-2.43916
H	-2.06807	-0.666418	-3.11273
H	-3.22528	-0.444935	-1.73515
N	-0.693424	-0.297993	-0.806949
C	0.401138	-0.378203	0.127037
C	0.577713	0.989955	0.756483
O	0.0313564	1.97963	0.272878
H	-0.931517	0.621335	-1.10875
H	0.140291	-1.0721	0.91605
C	1.70765	-0.813309	-0.573547
H	1.97192	-0.0996297	-1.38283
H	2.55247	-0.876233	0.142758
H	1.56486	-1.81631	-1.03152
N	1.33258	1.07316	1.8697
C	1.54711	2.33186	2.54486
H	1.76046	0.259685	2.24971
H	2.19604	2.19363	3.43763
H	0.578255	2.76805	2.87998
H	2.03843	3.06429	1.86418
C	1615.47	-2.9978	0.0377497
C	1614.4	-2.12343	-0.497963
O	1613.76	-2.44537	-1.48649
H	1615.55	-3.90869	-0.594442
H	1615.23	-3.30244	1.07791
H	1616.45	-2.46454	0.0253344
N	1614.2	-0.97582	0.15164
C	1613.19	-0.0218495	-0.248921
C	1613.57	1.32428	0.339106
O	1614.42	1.40939	1.21821
H	1614.75	-0.71151	0.938359
H	1613.21	0.0740798	-1.32716
C	1611.79	-0.442305	0.241182
H	1611.78	-0.540429	1.34767
H	1611.01	0.289975	-0.0656557
H	1611.53	-1.4303	-0.19559
N	1612.95	2.4158	-0.151584
C	1613.25	3.74045	0.338691
H	1612.26	2.32688	-0.867913
H	1612.64	4.50404	-0.187906
H	1614.33	3.98337	0.177653
H	1613.04	3.81303	1.43027
