44
  This energy is 6.10122e-320 and Call times are: 44799
C	-1.16209	-0.229727	-3.27458
C	-0.681901	-0.846602	-2.01757
O	-0.707263	-2.05921	-1.85807
H	-1.51843	-1.02717	-3.96231
H	-0.337285	0.327201	-3.76687
H	-2.00234	0.464834	-3.06361
N	-0.231699	-0.0092268	-1.08029
C	0.268209	-0.458631	0.194444
C	0.192972	0.706826	1.16155
O	0.00391626	1.85116	0.753379
H	-0.243288	0.978568	-1.21091
H	-0.379347	-1.24049	0.570539
C	1.72449	-0.962272	0.0816986
H	2.38593	-0.157883	-0.30505
H	2.1125	-1.30921	1.06142
H	1.76631	-1.81509	-0.630406
N	0.318422	0.437487	2.47597
C	0.248213	1.48175	3.47135
H	0.463748	-0.496025	2.78689
H	0.375625	1.0605	4.4929
H	-0.736271	2.00141	3.42681
H	1.0468	2.24	3.30255
C	2127.84	2.22279	2.19752
C	2127.81	0.958025	1.42866
O	2128.8	0.232581	1.37783
H	2128.84	2.3545	2.66114
H	2127.07	2.19504	3.00025
H	2127.63	3.08311	1.5248
N	2126.67	0.665617	0.798523
C	2126.5	-0.528926	0.0113278
C	2125.35	-0.293496	-0.944103
O	2124.59	0.659545	-0.787947
H	2125.89	1.27908	0.823737
H	2127.39	-0.691884	-0.582214
C	2126.21	-1.75435	0.905698
H	2125.29	-1.5835	1.5137
H	2126.07	-2.6759	0.302781
H	2127.06	-1.91543	1.60171
N	2125.2	-1.15018	-1.97445
C	2124.14	-0.99829	-2.94151
H	2125.83	-1.91108	-2.08772
H	2124.19	-1.8013	-3.70959
H	2124.22	-0.0140918	-3.45795
H	2123.15	-1.05032	-2.44368
