44
  This energy is 6.31317e-320 and Call times are: 27243
C	2.12136	2.28614	-1.54904
C	1.30833	1.83963	-0.395437
O	1.34139	2.43789	0.671091
H	2.70942	3.1837	-1.25847
H	1.46202	2.54942	-2.40272
H	2.82198	1.48193	-1.85781
N	0.552499	0.755875	-0.586686
C	-0.292728	0.201233	0.440344
C	-0.573992	-1.24495	0.0816222
O	-0.323619	-1.67371	-1.04324
H	0.556425	0.260232	-1.45113
H	0.244586	0.208496	1.38019
C	-1.61815	0.985743	0.562508
H	-2.16646	0.976822	-0.403613
H	-2.27129	0.561418	1.35252
H	-1.3984	2.0437	0.824381
N	-1.08411	-2.03962	1.04302
C	-1.37305	-3.43323	0.796942
H	-1.27312	-1.67567	1.94913
H	-1.78781	-3.91589	1.70923
H	-0.448499	-3.97981	0.500785
H	-2.11646	-3.54121	-0.025773
C	1299.84	-1.90096	0.659683
C	1299.05	-1.00903	-0.21374
O	1299.51	-0.557106	-1.24997
H	1300.85	-2.04601	0.215374
H	1299.34	-2.88928	0.751914
H	1299.95	-1.4488	1.66753
N	1297.81	-0.727789	0.19675
C	1296.91	0.124365	-0.545034
C	1295.85	0.63456	0.412982
O	1295.71	0.120844	1.52056
H	1297.45	-1.07871	1.05746
H	1297.47	0.980505	-0.9112
C	1296.25	-0.638231	-1.71338
H	1295.68	-1.51626	-1.33422
H	1295.56	0.0150159	-2.28675
H	1297.04	-1.00779	-2.40726
N	1295.1	1.67832	0.0139897
C	1294.08	2.23931	0.863581
H	1295.24	2.08478	-0.883225
H	1293.57	3.08842	0.356995
H	1294.52	2.61295	1.81618
H	1293.31	1.47062	1.11565
