44
  This energy is 2.93475e-321 and Call times are: 79827
C	-3.37337	-0.852204	-0.142267
C	-1.93927	-1.18441	-0.29783
O	-1.57669	-2.32981	-0.528244
H	-3.9795	-1.77648	-0.261363
H	-3.68206	-0.117898	-0.915782
H	-3.56068	-0.42704	0.866246
N	-1.07853	-0.172298	-0.166972
C	0.347595	-0.337986	-0.291601
C	1.01522	0.83022	0.40755
O	0.367061	1.82467	0.728163
H	-1.38443	0.750987	0.0496054
H	0.64314	-1.24267	0.224412
C	0.780664	-0.387966	-1.77385
H	0.475308	0.541373	-2.30035
H	1.87819	-0.515629	-1.87345
H	0.283936	-1.24716	-2.27504
N	2.33076	0.726332	0.680625
C	3.04846	1.78341	1.35418
H	2.83617	-0.0895057	0.419481
H	4.11873	1.5104	1.48548
H	2.61017	1.97688	2.36003
H	2.99717	2.72912	0.767515
C	3782.13	2.06799	-2.79862
C	3781.84	0.769542	-2.15244
O	3781.28	-0.13202	-2.76803
H	3781.77	2.04505	-3.85054
H	3783.23	2.2557	-2.79628
H	3781.61	2.89021	-2.26038
N	3782.2	0.647537	-0.873224
C	3781.98	-0.554546	-0.109634
C	3782.01	-0.185535	1.36069
O	3782.45	0.905062	1.72489
H	3782.62	1.39944	-0.374318
H	3780.99	-0.934582	-0.329971
C	3783.05	-1.62075	-0.415494
H	3784.07	-1.22731	-0.188957
H	3782.89	-2.54771	0.170675
H	3783.02	-1.88156	-1.49572
N	3781.53	-1.08383	2.24223
C	3781.51	-0.815006	3.66124
H	3781.18	-1.95794	1.92715
H	3781.08	-1.67527	4.21889
H	3780.9	0.0887363	3.88199
H	3782.54	-0.633382	4.04028
