44
  This energy is 1.13996e-319 and Call times are: 103431
C	-2.77829	-2.0323	0.526326
C	-1.57111	-1.65104	-0.240851
O	-1.15793	-2.34785	-1.15749
H	-3.17687	-2.99182	0.130963
H	-3.55925	-1.24964	0.424568
H	-2.52444	-2.16345	1.59931
N	-0.966798	-0.519269	0.12831
C	0.21713	-0.0172337	-0.522154
C	0.90582	0.936134	0.434942
O	0.32249	1.35558	1.43275
H	-1.29634	0.0245003	0.895547
H	0.893143	-0.842186	-0.707984
C	-0.130868	0.711502	-1.83933
H	-0.825048	1.55678	-1.6451
H	0.778485	1.09921	-2.34286
H	-0.635858	0.00276746	-2.53131
N	2.1787	1.28459	0.16226
C	2.91857	2.17778	1.02306
H	2.63578	0.928872	-0.646304
H	3.94542	2.34312	0.628746
H	3.00154	1.75442	2.05025
H	2.408	3.16524	1.09682
C	4897.94	1.6391	-2.88278
C	4898.95	1.36051	-1.8437
O	4900.09	1.80827	-1.93311
H	4898.39	2.27071	-3.67846
H	4897.08	2.18115	-2.43932
H	4897.58	0.689391	-3.33576
N	4898.56	0.596498	-0.82109
C	4899.44	0.238688	0.26664
C	4898.87	-1.0008	0.931688
O	4897.72	-1.37259	0.694698
H	4897.64	0.213718	-0.774392
H	4900.41	-0.0180897	-0.133936
C	4899.56	1.3862	1.29446
H	4898.56	1.64751	1.70288
H	4900.23	1.1141	2.13327
H	4899.97	2.28857	0.794652
N	4899.68	-1.68459	1.76821
C	4899.23	-2.88326	2.43761
H	4900.61	-1.37159	1.94148
H	4900.03	-3.29803	3.08313
H	4898.94	-3.6621	1.69587
H	4898.34	-2.6679	3.07735
