44
  This energy is 1.12938e-319 and Call times are: 116367
C	0.0299178	2.45728	-2.46719
C	0.723632	1.54233	-1.53293
O	1.93952	1.41096	-1.5622
H	0.778502	2.93943	-3.13278
H	-0.508417	3.24622	-1.90098
H	-0.693736	1.89126	-3.0908
N	-0.0493595	0.874774	-0.673154
C	0.478951	-0.0508949	0.296821
C	-0.645035	-0.978251	0.716231
O	-1.81391	-0.713688	0.441319
H	-1.04139	0.968515	-0.67867
H	1.24503	-0.654249	-0.17346
C	1.04562	0.688439	1.52946
H	0.257246	1.30695	2.00906
H	1.45338	-0.0213383	2.27827
H	1.86727	1.36532	1.20873
N	-0.312419	-2.10466	1.37697
C	-1.31398	-3.053	1.80556
H	0.639721	-2.30442	1.58375
H	-0.842582	-3.91143	2.33295
H	-1.8812	-3.44735	0.931493
H	-2.04021	-2.57107	2.49947
C	5510.45	0.218698	3.34358
C	5511.43	0.429805	2.25095
O	5512.46	1.0509	2.44023
H	5510.83	0.704003	4.27052
H	5510.32	-0.867143	3.53447
H	5509.47	0.667731	3.07426
N	5511.11	-0.0869614	1.06219
C	5511.96	0.0352061	-0.0966997
C	5511.1	-0.179119	-1.32744
O	5509.97	-0.65334	-1.23006
H	5510.25	-0.565768	0.913422
H	5512.35	1.04327	-0.140943
C	5513.11	-0.997412	-0.064538
H	5512.7	-2.03043	-0.0184902
H	5513.76	-0.906023	-0.955356
H	5513.73	-0.830546	0.842207
N	5511.61	0.188186	-2.5188
C	5510.86	0.0328082	-3.74343
H	5512.52	0.576713	-2.57598
H	5511.45	0.390294	-4.61487
H	5509.91	0.616415	-3.70034
H	5510.6	-1.03722	-3.91168
