44
  This energy is 4.65706e-320 and Call times are: 14727
C	-0.972558	0.0370846	-3.34348
C	-0.988353	0.605901	-1.97695
O	-1.51906	1.68375	-1.74655
H	-1.48788	0.735585	-4.03804
H	-1.50142	-0.939093	-3.35767
H	0.0737536	-0.104691	-3.68711
N	-0.390946	-0.11703	-1.02678
C	-0.324541	0.303837	0.34992
C	0.820465	-0.439718	1.00971
O	1.33798	-1.41108	0.461563
H	0.0632614	-0.979751	-1.23255
H	-0.0932855	1.36093	0.383929
C	-1.64708	0.00957359	1.09249
H	-1.88161	-1.07565	1.05506
H	-1.59946	0.332531	2.15278
H	-2.47805	0.559042	0.598806
N	1.25857	0.0161657	2.19977
C	2.35155	-0.620596	2.89699
H	0.831387	0.808026	2.62369
H	2.5615	-0.100464	3.85752
H	3.27751	-0.600366	2.27778
H	2.10865	-1.68472	3.12018
C	704.287	2.95407	1.08955
C	703.196	2.21954	0.411667
O	702.181	2.79433	0.0415185
H	704.006	4.0256	1.18304
H	705.224	2.87847	0.498171
H	704.457	2.53706	2.10461
N	703.381	0.909032	0.237366
C	702.41	0.060481	-0.405518
C	702.684	-1.3682	0.022662
O	703.739	-1.66677	0.578561
H	704.2	0.447148	0.569424
H	701.422	0.326364	-0.0521516
C	702.491	0.178667	-1.94392
H	703.506	-0.0941684	-2.30295
H	701.744	-0.473299	-2.44211
H	702.29	1.23001	-2.24463
N	701.723	-2.28476	-0.20855
C	701.89	-3.66719	0.175237
H	700.873	-2.022	-0.653184
H	700.992	-4.263	-0.101108
H	702.043	-3.7538	1.27538
H	702.776	-4.11205	-0.332717
