44
  This energy is 5.58591e-320 and Call times are: 107589
C	-3.3099	1.00974	0.388733
C	-1.86281	1.304	0.286079
O	-1.45449	2.45532	0.221014
H	-3.87986	1.96421	0.386273
H	-3.52369	0.465983	1.33289
H	-3.63745	0.393312	-0.474786
N	-1.04354	0.250131	0.263177
C	0.388868	0.375584	0.16675
C	0.938117	-0.940228	-0.349196
O	0.237141	-1.95025	-0.366952
H	-1.39031	-0.683728	0.287476
H	0.626862	1.13982	-0.562203
C	1.0175	0.71284	1.53722
H	0.770806	-0.0728863	2.2828
H	2.12036	0.810302	1.46655
H	0.606145	1.67815	1.90479
N	2.20664	-0.9528	-0.803826
C	2.8107	-2.15689	-1.32485
H	2.75538	-0.123425	-0.787723
H	3.8579	-1.96407	-1.6465
H	2.2385	-2.53537	-2.20268
H	2.82356	-2.95724	-0.549967
C	5098.44	-1.19774	2.06189
C	5097.59	-0.0988507	1.54005
O	5097.64	1.02171	2.02848
H	5099.05	-0.819722	2.90858
H	5099.12	-1.57088	1.26566
H	5097.8	-2.03113	2.42422
N	5096.79	-0.403786	0.522185
C	5095.91	0.558066	-0.0927704
C	5094.81	-0.205053	-0.808778
O	5094.91	-1.41342	-1.01109
H	5096.74	-1.32758	0.152115
H	5095.44	1.15462	0.681499
C	5096.67	1.45746	-1.0924
H	5097.14	0.842179	-1.88495
H	5095.99	2.19935	-1.56763
H	5097.47	2.01008	-0.555824
N	5093.72	0.483833	-1.19129
C	5092.62	-0.160948	-1.86861
H	5093.65	1.45978	-1.0121
H	5091.81	0.573103	-2.10168
H	5092.18	-0.96591	-1.23302
H	5092.96	-0.621865	-2.82354
