44
  This energy is 1.34139e-320 and Call times are: 86505
C	-0.0520353	-0.603024	-3.42925
C	0.422131	0.151781	-2.24746
O	1.30782	0.989862	-2.3458
H	0.519405	-0.278427	-4.32589
H	-1.13139	-0.406926	-3.60063
H	0.105966	-1.69151	-3.277
N	-0.164078	-0.138999	-1.08377
C	0.18887	0.510845	0.153144
C	-0.257441	-0.383665	1.29327
O	-1.02795	-1.32061	1.09256
H	-0.864116	-0.844457	-1.01158
H	1.26632	0.601078	0.20824
C	-0.482429	1.89736	0.271613
H	-1.58766	1.80115	0.214029
H	-0.212668	2.40058	1.22281
H	-0.14829	2.54265	-0.569875
N	0.237135	-0.126323	2.52013
C	-0.122017	-0.931937	3.66388
H	0.865016	0.632096	2.66084
H	0.385669	-0.560756	4.58134
H	0.174116	-1.99413	3.50484
H	-1.22239	-0.9023	3.8356
C	4093.75	0.844002	-2.08965
C	4094.36	-0.000395191	-1.03907
O	4093.7	-0.844842	-0.444584
H	4092.67	0.573441	-2.19983
H	4094.26	0.679398	-3.06017
H	4093.82	1.91612	-1.81013
N	4095.65	0.217878	-0.780325
C	4096.38	-0.523595	0.213644
C	4097.6	0.296023	0.603244
O	4097.95	1.25813	-0.0759766
H	4096.16	0.928645	-1.25112
H	4095.77	-0.636341	1.09577
C	4096.82	-1.90305	-0.325142
H	4097.46	-1.78368	-1.23045
H	4097.39	-2.47669	0.437716
H	4095.92	-2.49319	-0.608093
N	4098.26	-0.055755	1.72563
C	4099.42	0.673421	2.18145
H	4097.95	-0.833082	2.26554
H	4099.82	0.229678	3.11986
H	4099.16	1.73883	2.37988
H	4100.22	0.65103	1.41211
