44
  This energy is 6.20448e-320 and Call times are: 69789
C	-2.60739	-1.7368	1.52024
C	-1.18325	-1.59653	1.14163
O	-0.338721	-2.37887	1.55539
H	-2.72325	-2.6117	2.19626
H	-3.22991	-1.89727	0.614957
H	-2.95431	-0.824756	2.05012
N	-0.881381	-0.57465	0.337263
C	0.459686	-0.307984	-0.117989
C	0.52661	1.14566	-0.544213
O	-0.500994	1.80082	-0.707413
H	-1.5738	0.0729281	0.0304551
H	1.145	-0.439982	0.709653
C	0.845811	-1.22623	-1.29903
H	0.14031	-1.08873	-2.14607
H	1.87789	-1.02366	-1.65195
H	0.791715	-2.28819	-0.974277
N	1.74684	1.69177	-0.713929
C	1.90889	3.07207	-1.10722
H	2.56652	1.1471	-0.570072
H	2.98683	3.33174	-1.19591
H	1.44535	3.75168	-0.355878
H	1.42069	3.26046	-2.09076
C	3313.11	-2.19091	0.0267448
C	3312.05	-1.43571	-0.683955
O	3312.01	-1.40429	-1.90615
H	3313.78	-2.66472	-0.717318
H	3312.65	-2.98488	0.655745
H	3313.7	-1.50654	0.66823
N	3311.16	-0.795528	0.0805814
C	3310.08	-0.0194399	-0.464346
C	3309.62	0.95191	0.604873
O	3309.97	0.815061	1.77393
H	3311.22	-0.804879	1.07508
H	3310.45	0.561848	-1.30018
C	3308.9	-0.923654	-0.902348
H	3308.53	-1.51904	-0.0426115
H	3308.07	-0.329303	-1.32256
H	3309.25	-1.63129	-1.68483
N	3308.83	1.97445	0.221917
C	3308.35	2.95544	1.16814
H	3308.56	2.07204	-0.730085
H	3307.71	3.71408	0.660695
H	3309.2	3.48166	1.65354
H	3307.74	2.46874	1.96714
