44
  This energy is 7.7924e-320 and Call times are: 89109
C	0.486936	3.44787	0.0345434
C	0.57035	2.11511	0.673285
O	1.14056	1.96171	1.74465
H	1.00766	4.19433	0.672902
H	-0.574929	3.75143	-0.0800024
H	0.97435	3.42559	-0.962891
N	-0.00172313	1.10481	0.0142088
C	-0.00364473	-0.249087	0.507966
C	-0.245521	-1.17392	-0.669068
O	-0.645628	-0.731519	-1.74425
H	-0.437864	1.23743	-0.871866
H	0.974856	-0.478154	0.910631
C	-1.09752	-0.455532	1.57938
H	-2.09997	-0.219009	1.1631
H	-1.10169	-1.49692	1.96183
H	-0.909704	0.228405	2.43559
N	0.0143674	-2.48505	-0.497558
C	-0.174801	-3.43889	-1.56554
H	0.344332	-2.82249	0.377935
H	0.0910614	-4.4649	-1.2281
H	0.464819	-3.18097	-2.44053
H	-1.23631	-3.44496	-1.90369
C	4222.55	-2.721	0.331177
C	4221.53	-1.94678	-0.419967
O	4221.23	-2.24798	-1.56581
H	4222.93	-3.5424	-0.311364
H	4222.09	-3.16137	1.24378
H	4223.39	-2.06365	0.620268
N	4220.99	-0.911025	0.219292
C	4219.99	-0.0637472	-0.379439
C	4219.98	1.25235	0.373602
O	4220.55	1.35972	1.45715
H	4221.26	-0.658193	1.14225
H	4220.27	0.144761	-1.4035
C	4218.59	-0.717025	-0.320828
H	4218.3	-0.930177	0.731116
H	4217.81	-0.0673548	-0.78113
H	4218.61	-1.68072	-0.874985
N	4219.35	2.29594	-0.197655
C	4219.3	3.59106	0.439892
H	4218.89	2.19087	-1.07831
H	4218.73	4.31594	-0.18515
H	4220.32	3.99126	0.595709
H	4218.8	3.5212	1.43418
