44
  This energy is 1.18003e-319 and Call times are: 103599
C	1.53014	0.220502	-3.12028
C	1.59099	0.0879554	-1.64722
O	2.64927	-0.134431	-1.07531
H	2.54837	0.0807043	-3.544
H	1.16057	1.22984	-3.39864
H	0.854498	-0.550722	-3.5465
N	0.435192	0.218285	-0.991848
C	0.333767	0.115384	0.442011
C	-1.10743	-0.207794	0.78514
O	-1.9958	-0.0892171	-0.0566326
H	-0.424871	0.370361	-1.47154
H	0.945643	-0.71149	0.779593
C	0.762277	1.4297	1.13199
H	0.132954	2.27598	0.782871
H	0.685538	1.35389	2.23614
H	1.81929	1.6559	0.871786
N	-1.36976	-0.64725	2.03176
C	-2.71033	-0.990679	2.44543
H	-0.636122	-0.7433	2.69642
H	-2.72044	-1.32871	3.50509
H	-3.11894	-1.81104	1.81195
H	-3.38811	-0.111511	2.35128
C	4904.66	-2.56281	-0.259065
C	4905.61	-1.74867	0.523132
O	4905.7	-1.8654	1.73791
H	4904.09	-3.22566	0.429992
H	4905.2	-3.19109	-0.995215
H	4903.94	-1.9035	-0.793828
N	4906.36	-0.887513	-0.168671
C	4907.34	-0.0275495	0.451362
C	4907.61	1.13036	-0.490778
O	4907.23	1.08845	-1.66043
H	4906.26	-0.780963	-1.15446
H	4906.92	0.379678	1.36306
C	4908.65	-0.786842	0.744262
H	4909.08	-1.20385	-0.193095
H	4909.41	-0.127662	1.22184
H	4908.44	-1.63317	1.43443
N	4908.25	2.20645	0.00672052
C	4908.53	3.36095	-0.812577
H	4908.54	2.22412	0.957771
H	4909.07	4.13891	-0.223094
H	4907.59	3.80544	-1.20814
H	4909.17	3.07845	-1.68008
