44
  This energy is 2.62497e-320 and Call times are: 49545
C	-0.360061	-3.4495	-0.3121
C	-0.152156	-2.10456	-0.894422
O	0.111821	-1.9627	-2.08046
H	-0.229603	-4.21736	-1.10535
H	-1.38664	-3.53225	0.102758
H	0.380263	-3.63626	0.494118
N	-0.263066	-1.07167	-0.0558467
C	-0.088728	0.296508	-0.473601
C	0.233929	1.12183	0.756833
O	0.0619811	0.662807	1.88447
H	-0.449738	-1.20208	0.914248
H	0.76159	0.35495	-1.14115
C	-1.36101	0.841463	-1.16021
H	-2.2315	0.779396	-0.472823
H	-1.23017	1.89469	-1.48328
H	-1.58728	0.227722	-2.05925
N	0.732902	2.35908	0.566426
C	1.08059	3.21298	1.67824
H	0.871481	2.70982	-0.353906
H	1.47184	4.18947	1.31679
H	1.86269	2.73474	2.31136
H	0.189605	3.40738	2.3182
C	2350.76	0.84542	3.0907
C	2349.77	1.03484	2.01143
O	2348.83	1.80386	2.14715
H	2350.49	1.48294	3.95918
H	2351.77	1.13786	2.73506
H	2350.78	-0.21642	3.41504
N	2349.96	0.320254	0.899472
C	2349.07	0.396386	-0.237047
C	2349.26	-0.865378	-1.05709
O	2350.22	-1.60777	-0.858997
H	2350.71	-0.324615	0.812295
H	2348.05	0.412644	0.11344
C	2349.37	1.64106	-1.10127
H	2350.43	1.62148	-1.45858
H	2348.7	1.70285	-1.97717
H	2349.24	2.55852	-0.488796
N	2348.33	-1.14917	-1.98807
C	2348.42	-2.3348	-2.80829
H	2347.55	-0.539562	-2.12837
H	2347.56	-2.38947	-3.51359
H	2348.41	-3.25173	-2.17549
H	2349.36	-2.3329	-3.40235
