44
  This energy is 1.311e-319 and Call times are: 78567
C	-0.174825	-3.29304	1.11867
C	-0.509823	-2.22966	0.144917
O	-1.08736	-2.48949	-0.901714
H	-0.52108	-4.27351	0.725404
H	-0.678881	-3.09651	2.08827
H	0.923568	-3.33635	1.27552
N	-0.142517	-0.988607	0.472386
C	-0.398787	0.150847	-0.371889
C	0.568494	1.24993	0.0225878
O	1.20574	1.17976	1.07179
H	0.353305	-0.793919	1.31452
H	-0.18947	-0.118392	-1.3994
C	-1.85479	0.645614	-0.222328
H	-2.0663	0.920328	0.833094
H	-2.05558	1.52282	-0.871154
H	-2.55343	-0.168934	-0.513138
N	0.716692	2.2864	-0.825809
C	1.62392	3.37327	-0.539762
H	0.197342	2.3214	-1.67333
H	1.60264	4.12847	-1.35614
H	2.66763	2.99721	-0.437324
H	1.34396	3.8786	0.412837
C	3722.83	-1.39748	2.42329
C	3723.07	-0.47511	1.29082
O	3722.15	0.143251	0.772234
H	3721.74	-1.40669	2.66523
H	3723.39	-1.06049	3.31787
H	3723.14	-2.42678	2.15271
N	3724.33	-0.366265	0.872872
C	3724.72	0.490864	-0.217505
C	3726.05	-0.00665661	-0.746493
O	3726.72	-0.812267	-0.103581
H	3725.07	-0.897413	1.28462
H	3724	0.399118	-1.01532
C	3724.85	1.96115	0.240143
H	3725.59	2.05152	1.05911
H	3725.15	2.62391	-0.597027
H	3723.87	2.31329	0.626511
N	3726.46	0.448538	-1.94866
C	3727.7	0.02122	-2.53775
H	3725.9	1.09463	-2.45672
H	3727.86	0.507643	-3.52595
H	3727.71	-1.083	-2.68573
H	3728.56	0.286365	-1.87776
