44
  This energy is 4.66892e-320 and Call times are: 75249
C	-0.0509422	-3.4725	0.255515
C	0.662835	-2.19345	0.0415938
O	1.88306	-2.1554	-0.0364249
H	0.689468	-4.29852	0.328648
H	-0.733949	-3.67648	-0.595787
H	-0.637188	-3.43087	1.1976
N	-0.0963514	-1.09939	-0.0534549
C	0.452088	0.216863	-0.262056
C	-0.580564	1.22944	0.193523
O	-1.74298	0.889665	0.406062
H	-1.08752	-1.13962	0.0408777
H	1.32792	0.336237	0.363037
C	0.8053	0.450057	-1.74798
H	-0.0953206	0.326153	-2.38646
H	1.22799	1.46256	-1.91213
H	1.56162	-0.298659	-2.06978
N	-0.171701	2.50052	0.375685
C	-1.08164	3.53075	0.819342
H	0.77479	2.75417	0.205234
H	-0.556991	4.50761	0.907221
H	-1.51177	3.27319	1.81428
H	-1.92352	3.64835	0.0992171
C	3567.49	-1.00253	3.28185
C	3566.69	-0.28151	2.26506
O	3565.62	0.223644	2.54847
H	3566.95	-0.989688	4.25191
H	3568.48	-0.508801	3.41502
H	3567.65	-2.05707	2.97028
N	3567.21	-0.222893	1.03619
C	3566.55	0.443641	-0.058918
C	3567.12	-0.112865	-1.35092
O	3568.15	-0.785823	-1.34803
H	3568.08	-0.663466	0.810866
H	3565.5	0.205133	-0.0325592
C	3566.77	1.97224	0.001048
H	3567.85	2.21331	-0.0255147
H	3566.26	2.4886	-0.840657
H	3566.35	2.36746	0.952569
N	3566.44	0.138889	-2.48913
C	3566.9	-0.360106	-3.76534
H	3565.61	0.679481	-2.46976
H	3566.21	-0.0456796	-4.57988
H	3566.95	-1.47313	-3.75743
H	3567.92	0.0282004	-3.9978
