44
  This energy is 4.1215e-320 and Call times are: 75039
C	3.16701	-1.33838	-0.552169
C	1.71595	-1.26825	-0.836269
O	1.22219	-1.89363	-1.76449
H	3.65465	-2.00727	-1.29424
H	3.33818	-1.74623	0.466252
H	3.62096	-0.327757	-0.626398
N	0.991334	-0.486858	-0.0320846
C	-0.431872	-0.316977	-0.181934
C	-0.82231	0.974619	0.509857
O	-0.0421545	1.53879	1.27464
H	1.40989	0.0403411	0.702634
H	-0.664651	-0.210114	-1.23382
C	-1.20772	-1.50386	0.43165
H	-0.96605	-1.611	1.51065
H	-2.30389	-1.37635	0.317875
H	-0.911942	-2.44404	-0.0828568
N	-2.03906	1.48618	0.238159
C	-2.4926	2.718	0.840747
H	-2.65315	1.01847	-0.389028
H	-3.51858	2.97116	0.493594
H	-1.81405	3.55985	0.572231
H	-2.50999	2.62929	1.95116
C	3558.95	2.77972	0.428571
C	3558.01	1.76806	0.949677
O	3557.76	1.68627	2.14576
H	3559.35	3.37762	1.27543
H	3558.43	3.46102	-0.278133
H	3559.8	2.28132	-0.09189
N	3557.45	0.958494	0.047135
C	3556.51	-0.0748009	0.400185
C	3556.49	-1.0921	-0.724092
O	3557	-0.833996	-1.81368
H	3557.68	1.01606	-0.92106
H	3556.86	-0.577741	1.29325
C	3555.09	0.503603	0.616358
H	3554.74	1.01942	-0.30153
H	3554.36	-0.289316	0.88849
H	3555.12	1.24824	1.44154
N	3555.92	-2.28754	-0.476201
C	3555.86	-3.32247	-1.48231
H	3555.52	-2.47979	0.414231
H	3555.36	-4.22896	-1.08732
H	3556.89	-3.61007	-1.80503
H	3555.31	-2.96971	-2.37982
