44
  This energy is 7.61256e-320 and Call times are: 3723
C	-2.47006	1.14651	-2.17036
C	-1.05157	1.00252	-1.77242
O	-0.147014	1.35916	-2.51477
H	-2.52283	1.59516	-3.18613
H	-3.00223	1.80982	-1.45647
H	-2.9649	0.15269	-2.19026
N	-0.824067	0.461675	-0.573212
C	0.501789	0.257103	-0.0468255
C	0.416076	-0.805241	1.03175
O	-0.671385	-1.14597	1.49345
H	-1.56875	0.148366	0.0100684
H	1.13819	-0.124899	-0.834948
C	1.0821	1.56359	0.539228
H	0.426395	1.95305	1.347
H	2.10298	1.40968	0.945285
H	1.13862	2.334	-0.260405
N	1.56725	-1.37142	1.44436
C	1.58253	-2.39981	2.45844
H	2.43647	-1.08711	1.0534
H	2.62303	-2.73668	2.66123
H	0.985769	-3.28222	2.13215
H	1.14513	-2.01998	3.41007
C	184.322	0.226392	-3.36206
C	184.001	-0.0866295	-1.95124
O	182.859	-0.358815	-1.60749
H	183.393	0.171838	-3.97059
H	185.055	-0.506405	-3.75935
H	184.743	1.25061	-3.44071
N	185.02	-0.0480762	-1.08901
C	184.865	-0.328986	0.316024
C	186.037	0.296081	1.04752
O	187.026	0.688824	0.430981
H	185.94	0.203482	-1.37626
H	183.962	0.148808	0.673268
C	184.822	-1.84996	0.584102
H	185.75	-2.33703	0.215769
H	184.703	-2.06981	1.66499
H	183.96	-2.29611	0.0418624
N	185.943	0.422791	2.38583
C	187.004	1.0166	3.16513
H	185.132	0.105351	2.86568
H	186.74	1.02881	4.24538
H	187.192	2.06503	2.83848
H	187.951	0.441882	3.0426
