44
  This energy is 4.9619e-320 and Call times are: 81633
C	-0.908857	-3.17113	-1.11537
C	-0.636605	-2.20139	-0.0306171
O	-0.864273	-2.47983	1.13863
H	-1.32733	-4.10356	-0.677964
H	0.030709	-3.41686	-1.65356
H	-1.64476	-2.74817	-1.83125
N	-0.140144	-1.01928	-0.402785
C	0.176223	0.0264807	0.536965
C	0.204333	1.34013	-0.219856
O	0.230859	1.35699	-1.44902
H	0.0136333	-0.79384	-1.36115
H	-0.61443	0.0882947	1.27393
C	1.54017	-0.22335	1.2184
H	2.34889	-0.286881	0.459419
H	1.78681	0.579933	1.94275
H	1.50694	-1.18905	1.76836
N	0.177001	2.47795	0.501687
C	0.188781	3.77547	-0.132718
H	0.148426	2.44335	1.49528
H	0.163861	4.5858	0.628856
H	-0.695291	3.89449	-0.80017
H	1.10725	3.90273	-0.750291
C	3867.7	3.46884	-0.0754236
C	3868.49	2.22593	-0.23582
O	3869.63	2.25133	-0.687241
H	3868.31	4.33414	-0.425499
H	3867.44	3.62135	0.993036
H	3866.77	3.41266	-0.678301
N	3867.89	1.09162	0.131745
C	3868.53	-0.197118	0.0356292
C	3867.44	-1.25494	0.0253939
O	3866.29	-0.973671	0.342218
H	3866.95	1.08083	0.470809
H	3869.06	-0.25888	-0.907402
C	3869.49	-0.437213	1.21876
H	3868.95	-0.372478	2.18463
H	3869.99	-1.42857	1.1478
H	3870.28	0.344839	1.2158
N	3867.79	-2.49915	-0.362565
C	3866.82	-3.56829	-0.415047
H	3868.72	-2.70515	-0.622007
H	3867.29	-4.51425	-0.755859
H	3865.99	-3.31655	-1.12074
H	3866.37	-3.743	0.590253
