44
  This energy is 1.53358e-319 and Call times are: 105069
C	-0.0918797	-0.991177	3.33695
C	0.627954	-0.468878	2.15363
O	1.77967	-0.0658319	2.24086
H	0.573118	-0.93437	4.226
H	-0.381448	-2.05029	3.1719
H	-1.00212	-0.385153	3.52967
N	-0.0499627	-0.459574	1.00354
C	0.515207	0.0181355	-0.233068
C	-0.629444	0.37124	-1.16276
O	-1.77613	0.00212619	-0.916374
H	-0.997511	-0.763495	0.951392
H	1.07238	0.925626	-0.0379019
C	1.42085	-1.04923	-0.887011
H	0.846229	-1.97909	-1.08523
H	1.8578	-0.684632	-1.83933
H	2.25464	-1.30006	-0.195614
N	-0.345613	1.11769	-2.24823
C	-1.37306	1.51257	-3.18344
H	0.587408	1.41259	-2.4264
H	-0.940997	2.12019	-4.00889
H	-2.15581	2.11988	-2.67383
H	-1.86542	0.617303	-3.62758
C	4977.25	-1.8321	2.95039
C	4977.77	-0.824503	1.99551
O	4978.75	-0.140924	2.26297
H	4977.88	-1.82393	3.86695
H	4977.29	-2.84459	2.49639
H	4976.21	-1.59403	3.23129
N	4977.1	-0.705728	0.843797
C	4977.48	0.229982	-0.184573
C	4976.27	0.468539	-1.06655
O	4975.29	-0.271956	-1.00351
H	4976.29	-1.24799	0.649828
H	4977.74	1.17355	0.277317
C	4978.66	-0.309069	-1.02994
H	4978.39	-1.27746	-1.50178
H	4978.95	0.409013	-1.82263
H	4979.54	-0.480788	-0.372166
N	4976.3	1.528	-1.89873
C	4975.19	1.84067	-2.76715
H	4977.1	2.11953	-1.92994
H	4975.41	2.74631	-3.37482
H	4974.27	2.03219	-2.17196
H	4974.99	0.994106	-3.46125
