44
  This energy is 2.69315e-320 and Call times are: 37575
C	0.446091	0.941164	3.32285
C	-0.0804161	0.0203986	2.29029
O	-0.595192	-1.0461	2.597
H	0.29232	0.492186	4.32815
H	-0.0890986	1.91294	3.27763
H	1.53242	1.1102	3.16707
N	0.045068	0.41769	1.02191
C	-0.418893	-0.368727	-0.0930377
C	0.322358	0.0960216	-1.3315
O	0.95803	1.1485	-1.3257
H	0.492547	1.27547	0.783366
H	-0.159241	-1.4061	0.0758206
C	-1.94257	-0.212803	-0.296022
H	-2.20549	0.852702	-0.468323
H	-2.30319	-0.817137	-1.15364
H	-2.47402	-0.555451	0.618472
N	0.275044	-0.694526	-2.42182
C	0.959975	-0.339494	-3.64289
H	-0.238862	-1.54589	-2.40437
H	0.799199	-1.11515	-4.42375
H	2.05556	-0.243054	-3.46502
H	0.586644	0.634576	-4.03403
C	1780.35	1.34198	1.95576
C	1780.85	0.381186	0.945208
O	1780.13	-0.520338	0.5255
H	1779.3	1.08437	2.22354
H	1780.37	2.37383	1.5464
H	1780.98	1.29365	2.87084
N	1782.1	0.553533	0.530929
C	1782.73	-0.299928	-0.4482
C	1784.23	-0.164637	-0.293952
O	1784.72	0.749588	0.370814
H	1782.68	1.27404	0.901935
H	1782.47	-1.32887	-0.235707
C	1782.31	0.0863228	-1.88292
H	1782.57	1.14268	-2.09731
H	1782.78	-0.568946	-2.63935
H	1781.2	-0.0158323	-1.98259
N	1785.01	-1.09093	-0.890958
C	1786.45	-1.04995	-0.78916
H	1784.6	-1.82716	-1.41862
H	1786.91	-1.89507	-1.34885
H	1786.77	-1.11992	0.275482
H	1786.84	-0.0965131	-1.20728
