44
  This energy is 1.06234e-319 and Call times are: 71511
C	-2.82182	-1.79067	-0.978237
C	-1.52053	-1.69178	-0.279616
O	-1.10836	-2.60505	0.422189
H	-3.29193	-2.77002	-0.74215
H	-2.673	-1.71889	-2.0762
H	-3.49899	-0.976904	-0.643328
N	-0.837616	-0.558196	-0.455652
C	0.443316	-0.314052	0.15789
C	0.668554	1.1852	0.185402
O	-0.0367687	1.93917	-0.482342
H	-1.19752	0.190176	-1.00642
H	0.414363	-0.661196	1.18294
C	1.5821	-1.00814	-0.622198
H	1.60848	-0.650181	-1.67352
H	2.56979	-0.822335	-0.1524
H	1.4048	-2.10565	-0.636094
N	1.64946	1.65545	0.980819
C	1.9291	3.06897	1.08047
H	2.20462	1.02976	1.51891
H	2.77145	3.25464	1.78277
H	1.03534	3.62108	1.45142
H	2.20409	3.4864	0.0848253
C	3391.55	-3.03677	1.47899
C	3391.19	-1.73729	0.872485
O	3390.02	-1.45754	0.634127
H	3390.63	-3.63799	1.6442
H	3392.06	-2.87472	2.45527
H	3392.23	-3.59719	0.802004
N	3392.19	-0.904364	0.60027
C	3392	0.395279	0.00996804
C	3393.3	0.824217	-0.622859
O	3394.35	0.232072	-0.365236
H	3393.14	-1.15565	0.772302
H	3391.26	0.314448	-0.779798
C	3391.55	1.4313	1.06675
H	3392.31	1.51119	1.87579
H	3391.4	2.4331	0.615584
H	3390.59	1.10498	1.52366
N	3393.27	1.85695	-1.48796
C	3394.47	2.32768	-2.14802
H	3392.41	2.31855	-1.68878
H	3394.24	3.18449	-2.81822
H	3394.92	1.51663	-2.76114
H	3395.22	2.66175	-1.40092
