44
  This energy is 2.83445e-320 and Call times are: 61851
C	-0.144329	3.37308	0.853027
C	0.102559	1.95381	1.1935
O	0.565046	1.63524	2.28029
H	0.158343	4.0142	1.7093
H	-1.22325	3.53491	0.646704
H	0.449734	3.6616	-0.0396022
N	-0.200772	1.05679	0.252372
C	-0.016969	-0.360787	0.435467
C	0.0461814	-1.00345	-0.93648
O	-0.30129	-0.381443	-1.93858
H	-0.549655	1.33102	-0.639825
H	0.934309	-0.532166	0.923086
C	-1.17126	-0.976086	1.25774
H	-2.14572	-0.797841	0.754963
H	-1.03282	-2.06749	1.40073
H	-1.2076	-0.49611	2.25996
N	0.514947	-2.26443	-1.0151
C	0.622354	-2.95316	-2.28013
H	0.797882	-2.74841	-0.193549
H	1.02708	-3.97918	-2.13615
H	1.30112	-2.4024	-2.97092
H	-0.375373	-3.03512	-2.769
C	2932.41	-2.89401	1.89683
C	2932.41	-1.42059	1.75457
O	2932.03	-0.698068	2.66567
H	2932.02	-3.16673	2.90362
H	2933.44	-3.2863	1.78834
H	2931.76	-3.3547	1.12583
N	2932.83	-0.936701	0.5852
C	2932.89	0.474158	0.296585
C	2932.9	0.64128	-1.21045
O	2933.12	-0.318279	-1.9475
H	2933.11	-1.53671	-0.159668
H	2931.99	0.945385	0.672302
C	2934.14	1.12613	0.913922
H	2935.06	0.639852	0.526818
H	2934.19	2.21252	0.693733
H	2934.12	0.995831	2.01789
N	2932.64	1.86787	-1.70552
C	2932.62	2.11961	-3.12762
H	2932.46	2.63003	-1.09286
H	2932.39	3.18849	-3.33441
H	2931.84	1.49318	-3.626
H	2933.61	1.87671	-3.58452
