44
  This energy is 9.33685e-320 and Call times are: 89739
C	2.6388	-0.254471	2.25789
C	2.10213	0.0469862	0.911674
O	2.81187	0.533505	0.0421519
H	3.71127	0.0353264	2.2991
H	2.55174	-1.34087	2.46999
H	2.08188	0.318204	3.02914
N	0.812895	-0.235347	0.710363
C	0.14789	0.00112812	-0.54609
C	-1.34297	0.0707874	-0.278292
O	-1.80744	-0.31062	0.794381
H	0.23789	-0.604434	1.43568
H	0.457987	0.963677	-0.932629
C	0.453005	-1.12055	-1.56386
H	0.134227	-2.10669	-1.16382
H	-0.0573632	-0.941533	-2.53249
H	1.54825	-1.16202	-1.75055
N	-2.12859	0.583304	-1.24583
C	-3.55813	0.700112	-1.07565
H	-1.73288	0.893136	-2.10411
H	-4.02715	1.1429	-1.98185
H	-3.79811	1.35047	-0.203478
H	-4.0157	-0.299823	-0.896939
C	4247.68	-0.227275	-2.16389
C	4249.09	-0.517297	-1.80653
O	4249.77	-1.27133	-2.48612
H	4247.41	-0.791911	-3.08284
H	4247.55	0.858227	-2.35823
H	4247	-0.538133	-1.33986
N	4249.56	0.0816458	-0.709278
C	4250.9	-0.10143	-0.234177
C	4250.93	0.267577	1.23626
O	4250	0.876665	1.75068
H	4248.98	0.670863	-0.147828
H	4251.17	-1.14849	-0.31597
C	4251.9	0.775694	-1.02247
H	4251.63	1.84915	-0.936954
H	4252.94	0.637068	-0.65932
H	4251.87	0.496435	-2.09817
N	4252.01	-0.114725	1.95492
C	4252.12	0.181771	3.36419
H	4252.75	-0.613085	1.52199
H	4253.07	-0.21338	3.77537
H	4251.28	-0.278588	3.92983
H	4252.09	1.28189	3.53779
