44
  This energy is 9.60315e-320 and Call times are: 4479
C	0.263437	-1.36197	3.19402
C	0.786951	-0.532153	2.08562
O	1.79211	0.150646	2.2268
H	0.912835	-1.23383	4.08718
H	0.26134	-2.43319	2.90197
H	-0.769633	-1.04766	3.45271
N	0.100604	-0.570041	0.941135
C	0.485496	0.182051	-0.22636
C	-0.736117	0.322768	-1.11355
O	-1.73658	-0.365143	-0.91942
H	-0.733205	-1.10761	0.847766
H	0.786565	1.17614	0.0789559
C	1.62443	-0.521024	-0.998126
H	1.31241	-1.54081	-1.30924
H	1.92336	0.0554807	-1.89761
H	2.51296	-0.619074	-0.337032
N	-0.689726	1.23923	-2.10043
C	-1.80963	1.45183	-2.98745
H	0.126359	1.79115	-2.23689
H	-1.5766	2.24471	-3.73195
H	-2.71176	1.76444	-2.41328
H	-2.0581	0.51578	-3.53814
C	223.335	-1.98735	-1.90177
C	222.309	-0.928158	-1.77808
O	221.973	-0.256763	-2.744
H	223.698	-2.02644	-2.9519
H	222.901	-2.97381	-1.63452
H	224.194	-1.76817	-1.23286
N	221.784	-0.749763	-0.563452
C	220.775	0.241157	-0.285584
C	220.797	0.522864	1.20419
O	221.396	-0.223151	1.97641
H	222.087	-1.28346	0.221647
H	221.034	1.15936	-0.797736
C	219.374	-0.24778	-0.713646
H	219.112	-1.19026	-0.186846
H	218.594	0.512871	-0.501248
H	219.371	-0.451764	-1.80659
N	220.157	1.62566	1.64111
C	220.134	1.98097	3.0409
H	219.684	2.22063	0.999635
H	219.557	2.91871	3.19907
H	221.169	2.13718	3.42378
H	219.661	1.17231	3.64391
