44
  This energy is 1.36743e-319 and Call times are: 47697
C	1.48356	0.632712	-3.08624
C	0.318838	0.654998	-2.17293
O	-0.723608	1.21072	-2.49069
H	1.22891	1.18023	-4.01963
H	1.74725	-0.414478	-3.34447
H	2.35545	1.12565	-2.6069
N	0.476518	0.0451126	-0.99584
C	-0.565479	-0.0177497	-0.00230241
C	0.0860016	-0.290517	1.33949
O	1.25558	-0.663994	1.40606
H	1.34033	-0.378838	-0.736947
H	-1.05232	0.947317	0.0585366
C	-1.58976	-1.12682	-0.330816
H	-1.08681	-2.1154	-0.393135
H	-2.39356	-1.17789	0.432116
H	-2.05901	-0.916069	-1.31648
N	-0.654796	-0.0877574	2.44679
C	-0.115222	-0.309855	3.76804
H	-1.59716	0.221487	2.37231
H	-0.87864	-0.0901674	4.54662
H	0.767185	0.346204	3.94745
H	0.211765	-1.36829	3.88628
C	2265.11	-1.60121	-2.98566
C	2264.53	-1.6044	-1.61957
O	2263.94	-2.58008	-1.18546
H	2264.89	-2.5743	-3.47695
H	2266.21	-1.46012	-2.94066
H	2264.65	-0.785258	-3.58753
N	2264.7	-0.49048	-0.903537
C	2264.21	-0.342184	0.441011
C	2264.11	1.14105	0.739244
O	2264.65	1.96767	0.00938308
H	2265.17	0.308265	-1.27894
H	2263.21	-0.757666	0.494955
C	2265.14	-1.02718	1.46437
H	2266.16	-0.598999	1.40585
H	2264.76	-0.915044	2.50069
H	2265.21	-2.11288	1.23432
N	2263.38	1.51455	1.81395
C	2263.22	2.90512	2.16916
H	2262.95	0.830917	2.3881
H	2262.6	3.00707	3.0835
H	2262.73	3.4667	1.34295
H	2264.21	3.3785	2.36602
