44
  This energy is 3.62941e-320 and Call times are: 113343
C	-0.692586	2.44311	-2.38278
C	0.192479	1.82894	-1.36757
O	1.33844	2.22487	-1.20479
H	-0.140666	3.25084	-2.91082
H	-1.58901	2.88016	-1.89469
H	-1.0108	1.68081	-3.12479
N	-0.328051	0.826851	-0.655364
C	0.40908	0.130269	0.368471
C	-0.253357	-1.21641	0.584968
O	-1.37314	-1.44618	0.132052
H	-1.25326	0.494195	-0.817447
H	1.4161	-0.0515366	0.0150181
C	0.429844	0.930678	1.68985
H	-0.604863	1.11598	2.04923
H	0.996746	0.397245	2.48032
H	0.916461	1.9154	1.51761
N	0.437321	-2.15011	1.26846
C	-0.10805	-3.46498	1.51317
H	1.34505	-1.94726	1.62076
H	0.609629	-4.08683	2.09238
H	-0.326215	-3.98489	0.552266
H	-1.05779	-3.39522	2.09135
C	5366.39	1.80383	2.801
C	5366.17	1.3134	1.42095
O	5365.11	1.49005	0.845468
H	5365.46	2.3067	3.1601
H	5367.22	2.53293	2.82195
H	5366.62	0.954493	3.47724
N	5367.2	0.67054	0.854022
C	5367.14	0.135822	-0.483015
C	5368.21	-0.934346	-0.602631
O	5369.09	-1.03793	0.245641
H	5368.05	0.50749	1.34385
H	5366.18	-0.340234	-0.63098
C	5367.37	1.2384	-1.54013
H	5368.36	1.72512	-1.38498
H	5367.33	0.830142	-2.57078
H	5366.58	2.01674	-1.44125
N	5368.13	-1.77359	-1.65458
C	5369.1	-2.83072	-1.84464
H	5367.41	-1.67799	-2.3264
H	5368.87	-3.41025	-2.76636
H	5369.09	-3.53166	-0.978702
H	5370.13	-2.41178	-1.93872
