44
  This energy is 2.41351e-320 and Call times are: 86925
C	-3.38247	-0.825979	0.0529192
C	-1.95424	-1.19515	-0.0698885
O	-1.60554	-2.36676	-0.117012
H	-3.99843	-1.75045	0.0954373
H	-3.6987	-0.223523	-0.824501
H	-3.54812	-0.240691	0.981866
N	-1.08276	-0.184965	-0.119211
C	0.339457	-0.384721	-0.238424
C	1.02933	0.87388	0.250697
O	0.395441	1.91441	0.415975
H	-1.37692	0.764612	-0.0505737
H	0.636504	-1.19693	0.412844
C	0.745541	-0.679477	-1.6997
H	0.438707	0.155466	-2.36516
H	1.83999	-0.833955	-1.79506
H	0.232685	-1.60298	-2.0465
N	2.34861	0.800892	0.515608
C	3.08715	1.94513	0.996722
H	2.84235	-0.0521477	0.382303
H	4.15724	1.68502	1.15322
H	2.66855	2.3042	1.96475
H	3.0334	2.7836	0.265112
C	4114.69	1.15066	2.8079
C	4114.84	1.00829	1.34192
O	4113.95	1.37067	0.578854
H	4113.7	1.60397	3.03504
H	4115.49	1.80927	3.21066
H	4114.75	0.155724	3.2972
N	4115.98	0.462344	0.911003
C	4116.27	0.25856	-0.485878
C	4117.34	-0.809081	-0.588366
O	4117.98	-1.15467	0.40311
H	4116.68	0.144443	1.54396
H	4115.38	-0.118138	-0.978117
C	4116.75	1.56369	-1.15608
H	4117.66	1.94771	-0.648194
H	4116.98	1.41038	-2.23178
H	4115.96	2.33801	-1.07321
N	4117.55	-1.37436	-1.7942
C	4118.54	-2.40749	-1.98506
H	4117.01	-1.08606	-2.58292
H	4118.56	-2.74275	-3.04547
H	4118.31	-3.28982	-1.34257
H	4119.55	-2.03325	-1.71695
