44
  This energy is 9.80424e-320 and Call times are: 96501
C	0.327912	-0.485325	-3.43265
C	-0.168278	0.282077	-2.26813
O	-0.705847	1.3716	-2.41112
H	0.130775	0.0904652	-4.36295
H	-0.194722	-1.46281	-3.49749
H	1.42117	-0.656431	-3.34074
N	0.0101675	-0.2778	-1.06936
C	-0.41892	0.346518	0.156586
C	0.374372	-0.266577	1.29415
O	1.02056	-1.29889	1.12504
H	0.475639	-1.1525	-0.963646
H	-0.177063	1.40107	0.11782
C	-1.9319	0.141152	0.392841
H	-2.1766	-0.941787	0.431395
H	-2.26569	0.620745	1.3359
H	-2.50179	0.593594	-0.447798
N	0.360606	0.371643	2.48094
C	1.09578	-0.131295	3.61794
H	-0.162661	1.20964	2.5958
H	0.956894	0.531403	4.50043
H	2.18468	-0.186089	3.38871
H	0.748213	-1.15436	3.88946
C	4573.77	1.87515	0.606628
C	4572.3	1.74558	0.493416
O	4571.56	2.66604	0.807235
H	4574.02	2.88278	1.00393
H	4574.24	1.75455	-0.390826
H	4574.17	1.10577	1.30024
N	4571.84	0.576853	0.0399376
C	4570.44	0.299913	-0.125404
C	4570.26	-1.20568	-0.139631
O	4571.22	-1.95278	-0.275115
H	4572.46	-0.17548	-0.184821
H	4569.9	0.687264	0.730423
C	4569.89	0.912158	-1.43565
H	4570.45	0.513111	-2.31152
H	4568.81	0.700933	-1.56604
H	4570.03	2.0151	-1.41328
N	4569.01	-1.688	0.0228358
C	4568.74	-3.10766	0.0348117
H	4568.24	-1.0673	0.138143
H	4567.66	-3.30332	0.178139
H	4569.3	-3.60482	0.861182
H	4569.06	-3.57496	-0.925635
