44
  This energy is 7.27709e-320 and Call times are: 9645
C	-3.37487	-0.335117	-0.789998
C	-1.94624	-0.289749	-1.17494
O	-1.58973	-0.552725	-2.31522
H	-3.98315	-0.635773	-1.6706
H	-3.71045	0.66593	-0.44633
H	-3.529	-1.07555	0.0229925
N	-1.08324	0.0451898	-0.212962
C	0.338184	0.1325	-0.433777
C	1.02695	0.0122872	0.911729
O	0.388287	0.121009	1.95677
H	-1.38321	0.228796	0.719371
H	0.65229	-0.707457	-1.04031
C	0.721484	1.46807	-1.10938
H	0.397183	2.32763	-0.484791
H	1.81526	1.53855	-1.28101
H	0.209645	1.5445	-2.09341
N	2.35106	-0.238171	0.915991
C	3.08919	-0.380503	2.14931
H	2.84876	-0.32989	0.059773
H	4.1637	-0.581409	1.94357
H	2.68451	-1.224	2.75427
H	3.01678	0.548361	2.76017
C	465.266	0.807162	-3.05354
C	464.37	1.1182	-1.91766
O	463.844	2.2175	-1.80935
H	465.352	1.70055	-3.70965
H	464.854	-0.036244	-3.64653
H	466.277	0.537483	-2.68077
N	464.178	0.140792	-1.02871
C	463.333	0.291807	0.128817
C	463.744	-0.755386	1.14554
O	464.471	-1.6931	0.823285
H	464.635	-0.740766	-1.11247
H	463.51	1.26494	0.569049
C	461.842	0.120445	-0.237224
H	461.664	-0.878675	-0.689197
H	461.188	0.236262	0.651743
H	461.553	0.892573	-0.98346
N	463.302	-0.606209	2.40995
C	463.652	-1.54717	3.44844
H	462.72	0.163257	2.6525
H	463.191	-1.2531	4.41707
H	464.757	-1.58923	3.58465
H	463.297	-2.57046	3.18746
