44
  This energy is 7.70644e-320 and Call times are: 114939
C	1.73998	-3.01005	-0.19545
C	0.479165	-2.23504	-0.165189
O	-0.599934	-2.7745	-0.367744
H	1.51197	-4.07352	-0.42545
H	2.24585	-2.95633	0.791481
H	2.41666	-2.60984	-0.979592
N	0.591866	-0.92892	0.0872076
C	-0.543869	-0.0440183	0.149518
C	-0.0448246	1.37076	-0.0708915
O	1.15533	1.6308	-0.00885748
H	1.47919	-0.495914	0.221709
H	-1.22148	-0.283675	-0.660096
C	-1.26325	-0.147257	1.51295
H	-0.565019	0.0985886	2.3413
H	-2.13835	0.532699	1.56428
H	-1.62294	-1.18854	1.66291
N	-0.95904	2.31867	-0.356686
C	-0.575899	3.69098	-0.593663
H	-1.92482	2.08692	-0.409459
H	-1.46946	4.3169	-0.810512
H	0.119603	3.76049	-1.46124
H	-0.0591265	4.11436	0.297893
C	5443.33	-3.31307	1.06976
C	5443.1	-1.86719	1.29553
O	5442.55	-1.46317	2.30879
H	5442.92	-3.88652	1.92934
H	5444.41	-3.52367	0.982916
H	5442.81	-3.63947	0.141637
N	5443.53	-1.04411	0.335957
C	5443.39	0.387704	0.411874
C	5443.49	0.941102	-0.996538
O	5443.9	0.243801	-1.91849
H	5443.96	-1.38744	-0.498175
H	5442.4	0.621974	0.790252
C	5444.48	1.01685	1.30606
H	5445.49	0.773976	0.915381
H	5444.37	2.11925	1.36683
H	5444.4	0.602434	2.33459
N	5443.08	2.20908	-1.19939
C	5443.12	2.81688	-2.5089
H	5442.73	2.7548	-0.441759
H	5442.74	3.86295	-2.46979
H	5442.49	2.24495	-3.22889
H	5444.16	2.83365	-2.89952
