44
  This energy is 6.60368e-320 and Call times are: 3345
C	1.38418	-2.22464	2.29372
C	1.4803	-1.36864	1.08988
O	2.55138	-1.18516	0.528071
H	2.39359	-2.61436	2.54882
H	0.706203	-3.08236	2.10012
H	0.998719	-1.63569	3.1525
N	0.343217	-0.812686	0.665241
C	0.276401	0.0439829	-0.491686
C	-0.981385	0.883199	-0.377985
O	-1.85711	0.596183	0.435995
H	-0.51784	-0.946388	1.1486
H	1.12364	0.717866	-0.479919
C	0.250123	-0.778116	-1.79958
H	-0.619907	-1.46884	-1.808
H	0.198839	-0.121586	-2.69239
H	1.17618	-1.38931	-1.87036
N	-1.08981	1.95909	-1.18217
C	-2.24609	2.82342	-1.13613
H	-0.367126	2.17875	-1.82924
H	-2.14864	3.65022	-1.8738
H	-2.36246	3.27027	-0.122208
H	-3.17347	2.25212	-1.37015
C	167.35	-0.435563	-3.45165
C	167.283	0.426562	-2.25021
O	167.394	1.64174	-2.33665
H	167.513	0.198504	-4.35005
H	166.399	-0.994836	-3.57471
H	168.192	-1.15401	-3.36091
N	167.102	-0.195863	-1.08302
C	167.016	0.506644	0.17233
C	167.336	-0.478241	1.28021
O	167.358	-1.68755	1.05907
H	167.042	-1.18867	-1.02243
H	167.772	1.28216	0.194044
C	165.609	1.10795	0.385082
H	164.837	0.3097	0.361557
H	165.539	1.64972	1.35069
H	165.387	1.82673	-0.433535
N	167.613	0.0218574	2.50047
C	167.939	-0.838811	3.61345
H	167.597	1.00383	2.65761
H	168.133	-0.239562	4.53027
H	168.849	-1.44183	3.38999
H	167.102	-1.5426	3.82505
