44
  This energy is 1.10651e-319 and Call times are: 17121
C	-0.940105	-0.756999	3.26639
C	-1.20319	-0.143261	1.94528
O	-2.29946	0.326352	1.67301
H	-1.86268	-0.707452	3.88465
H	-0.127964	-0.208387	3.78818
H	-0.646993	-1.82084	3.14279
N	-0.186448	-0.1396	1.08007
C	-0.288355	0.421541	-0.243396
C	0.807824	-0.189696	-1.09429
O	1.73392	-0.810287	-0.5756
H	0.693044	-0.551387	1.30337
H	-1.23869	0.134281	-0.675155
C	-0.14359	1.95951	-0.214954
H	0.832151	2.2507	0.229183
H	-0.22172	2.39487	-1.23237
H	-0.951585	2.39504	0.412423
N	0.715265	-0.0456354	-2.43096
C	1.70597	-0.603834	-3.32152
H	-0.045602	0.453911	-2.83191
H	1.45471	-0.376886	-4.38106
H	1.76123	-1.71032	-3.2037
H	2.71369	-0.182506	-3.10207
C	818.141	-2.3404	-2.20209
C	818.06	-1.70722	-0.866578
O	818.665	-2.16924	0.0906505
H	818.798	-3.23544	-2.14462
H	818.569	-1.62742	-2.93797
H	817.132	-2.65673	-2.53831
N	817.29	-0.620159	-0.771789
C	817.112	0.105809	0.460207
C	815.832	0.910571	0.345171
O	815.285	1.07035	-0.744745
H	816.779	-0.270495	-1.55225
H	816.984	-0.60135	1.26995
C	818.306	1.04501	0.738207
H	818.435	1.7687	-0.0947745
H	818.172	1.60543	1.68618
H	819.238	0.443534	0.819116
N	815.31	1.42029	1.47824
C	814.088	2.18994	1.46779
H	815.763	1.27394	2.35145
H	813.823	2.52247	2.49585
H	813.244	1.58185	1.0685
H	814.197	3.09286	0.824435
