44
  This energy is 1.46243e-320 and Call times are: 86547
C	2.35762	-2.10276	-1.46498
C	1.35788	-1.7986	-0.416551
O	1.01696	-2.64594	0.397262
H	2.68722	-3.15952	-1.36267
H	3.24075	-1.43871	-1.35565
H	1.91155	-1.96129	-2.47194
N	0.854408	-0.562121	-0.418103
C	-0.126381	-0.116332	0.539057
C	-0.834855	1.08942	-0.0469978
O	-0.37793	1.67097	-1.02926
H	1.11865	0.110338	-1.10433
H	-0.86409	-0.89672	0.676361
C	0.531519	0.256931	1.88626
H	1.28824	1.05729	1.74161
H	-0.220869	0.600471	2.62563
H	1.04809	-0.634322	2.30456
N	-1.98643	1.48089	0.533201
C	-2.7366	2.61096	0.0368523
H	-2.34352	0.99287	1.32286
H	-3.65146	2.77468	0.647975
H	-3.04651	2.44316	-1.02005
H	-2.12022	3.5383	0.0728199
C	4099.76	-3.07678	-0.904697
C	4098.94	-2.22732	-0.00923547
O	4098.27	-2.7165	0.893202
H	4099.64	-4.14208	-0.610182
H	4100.83	-2.79911	-0.822334
H	4099.42	-2.95529	-1.95692
N	4098.97	-0.914121	-0.24803
C	4098.23	0.0398203	0.537251
C	4098.07	1.30058	-0.289961
O	4098.74	1.4744	-1.30643
H	4099.49	-0.530642	-1.0045
H	4097.24	-0.355504	0.72854
C	4098.95	0.362351	1.86279
H	4099.97	0.767059	1.66285
H	4098.38	1.09647	2.46998
H	4099.06	-0.569455	2.45895
N	4097.16	2.20444	0.117793
C	4096.93	3.4289	-0.61307
H	4096.62	2.0422	0.939047
H	4096.14	4.04053	-0.118432
H	4096.6	3.209	-1.65418
H	4097.86	4.03504	-0.667543
