44
  This energy is 3.10174e-320 and Call times are: 80877
C	-2.90553	-0.599814	1.82325
C	-1.43681	-0.672911	1.65381
O	-0.713502	-1.0563	2.56284
H	-3.17348	-0.928255	2.85096
H	-3.40875	-1.26533	1.09066
H	-3.25643	0.443375	1.67638
N	-0.957245	-0.294263	0.466791
C	0.448694	-0.309924	0.150693
C	0.67493	0.634356	-1.01395
O	-0.272325	1.05415	-1.676
H	-1.55426	0.0437705	-0.255876
H	1.004	0.0731592	0.997428
C	0.926539	-1.7322	-0.217959
H	0.354318	-2.12238	-1.08654
H	2.00871	-1.7479	-0.461776
H	0.754299	-2.41446	0.64286
N	1.94222	1.00892	-1.27793
C	2.25282	1.91423	-2.35965
H	2.69439	0.663901	-0.72618
H	3.34835	2.09829	-2.41612
H	1.74021	2.89244	-2.21275
H	1.91749	1.49167	-3.33442
C	3829.12	1.93527	-0.30456
C	3830.55	1.77587	0.0398123
O	3831.25	2.74329	0.317433
H	3828.85	3.01316	-0.265736
H	3828.49	1.38066	0.420495
H	3828.93	1.55356	-1.32945
N	3831.03	0.52972	0.0229354
C	3832.4	0.21485	0.335409
C	3832.72	-1.13854	-0.27049
O	3831.82	-1.87237	-0.675151
H	3830.46	-0.246887	-0.233227
H	3833.05	0.945487	-0.135963
C	3832.64	0.181851	1.86199
H	3831.97	-0.568264	2.34244
H	3833.69	-0.0601628	2.10612
H	3832.4	1.17858	2.29395
N	3834.02	-1.49199	-0.366925
C	3834.41	-2.75634	-0.940709
H	3834.73	-0.88124	-0.0402976
H	3835.52	-2.86247	-0.928894
H	3834.07	-2.83596	-1.99592
H	3833.97	-3.60411	-0.367017
