44
  This energy is 3.38237e-320 and Call times are: 8175
C	-3.08683	1.55944	0.407102
C	-1.72101	1.2341	0.876029
O	-1.25453	1.75854	1.87795
H	-3.54063	2.30999	1.09019
H	-3.71855	0.646345	0.405897
H	-3.04868	1.98351	-0.618402
N	-1.03783	0.350315	0.144897
C	0.30172	-0.0670763	0.47387
C	0.937451	-0.626726	-0.783856
O	0.251582	-0.898163	-1.76759
H	-1.418	-0.0480096	-0.685608
H	0.876299	0.799595	0.775224
C	0.299809	-1.13629	1.58917
H	-0.291076	-2.02369	1.27694
H	1.32968	-1.45981	1.84505
H	-0.169461	-0.714374	2.50455
N	2.27482	-0.79235	-0.787789
C	2.96897	-1.30793	-1.94473
H	2.81316	-0.560124	0.0156381
H	4.06241	-1.37208	-1.75103
H	2.80749	-0.646725	-2.82676
H	2.59842	-2.32608	-2.20404
C	391.04	-1.77826	1.15989
C	391.653	-0.744697	0.295482
O	390.999	-0.168358	-0.562575
H	389.971	-1.90446	0.880214
H	391.099	-1.47019	2.225
H	391.563	-2.74844	1.02665
N	392.946	-0.488736	0.503444
C	393.682	0.489874	-0.25716
C	395.157	0.159619	-0.138771
O	395.557	-0.635281	0.709702
H	393.476	-0.9857	1.18592
H	393.408	0.402574	-1.30092
C	393.415	1.92101	0.260103
H	393.696	2.00683	1.33133
H	393.979	2.67705	-0.32344
H	392.33	2.15026	0.169119
N	396.001	0.750078	-1.00729
C	397.421	0.487214	-0.977886
H	395.657	1.38494	-1.69124
H	397.945	1.06823	-1.76856
H	397.624	-0.595323	-1.14601
H	397.853	0.770051	0.00942275
