44
  This energy is 2.79592e-320 and Call times are: 125439
C	0.533191	3.0095	-1.66875
C	1.00295	1.88928	-0.822797
O	2.18271	1.7774	-0.519246
H	1.39874	3.6513	-1.9422
H	-0.20799	3.62284	-1.11442
H	0.0679051	2.61853	-2.59805
N	0.0737278	1.0182	-0.422644
C	0.37626	-0.122588	0.404336
C	-0.74033	-1.13358	0.230091
O	-1.799	-0.814432	-0.307673
H	-0.87929	1.10406	-0.700711
H	1.29202	-0.579865	0.0516884
C	0.502839	0.278183	1.8911
H	-0.438124	0.747572	2.2494
H	0.735905	-0.597831	2.53068
H	1.32322	1.01987	2.00519
N	-0.519391	-2.38999	0.664397
C	-1.52003	-3.42287	0.530016
H	0.346605	-2.63033	1.09045
H	-1.15049	-4.38515	0.947978
H	-1.77836	-3.58254	-0.541905
H	-2.45185	-3.14021	1.07131
C	5936.67	-0.406008	3.19074
C	5936.57	-0.501523	1.71685
O	5935.61	-1.04367	1.18068
H	5935.78	-0.89055	3.65044
H	5936.7	0.658794	3.50389
H	5937.58	-0.922653	3.5475
N	5937.58	0.0276375	1.01958
C	5937.62	0.0126888	-0.420705
C	5939.07	0.198766	-0.841882
O	5939.91	0.57749	-0.0343869
H	5938.36	0.440728	1.46873
H	5937.3	-0.958694	-0.773176
C	5936.74	1.13226	-1.02366
H	5937.08	2.12734	-0.659442
H	5936.78	1.12353	-2.13252
H	5935.69	0.985292	-0.706782
N	5939.39	-0.0862115	-2.11945
C	5940.74	0.0497009	-2.60768
H	5938.69	-0.398235	-2.75578
H	5940.8	-0.229832	-3.68263
H	5941.43	-0.609011	-2.03508
H	5941.09	1.10048	-2.49829
