44
  This energy is 3.92288e-321 and Call times are: 7083
C	-0.458099	-0.0708403	3.45127
C	0.18385	-0.566646	2.21301
O	1.10013	-1.37602	2.25594
H	0.0303387	-0.541542	4.33202
H	-1.53668	-0.334432	3.45498
H	-0.347037	1.0315	3.52516
N	-0.288344	-0.0782057	1.06374
C	0.233276	-0.464767	-0.222848
C	-0.137166	0.616142	-1.21967
O	-0.977222	1.46897	-0.938906
H	-1.01562	0.602665	1.04327
H	1.31373	-0.504423	-0.167005
C	-0.340797	-1.82545	-0.676829
H	-1.44944	-1.78139	-0.732388
H	0.0588858	-2.12619	-1.66707
H	-0.0635441	-2.60843	0.0622344
N	0.501472	0.617572	-2.40632
C	0.22301	1.6151	-3.41309
H	1.18326	-0.0767973	-2.61187
H	0.847611	1.44578	-4.31777
H	0.438901	2.63661	-3.02431
H	-0.848734	1.58007	-3.71528
C	344.653	1.98953	0.163829
C	343.931	0.724973	0.429787
O	344.514	-0.254982	0.873145
H	345.727	1.86073	0.421982
H	344.231	2.80882	0.782692
H	344.572	2.25836	-0.910423
N	342.625	0.718705	0.154093
C	341.788	-0.436451	0.359803
C	340.556	-0.279904	-0.509727
O	340.284	0.802513	-1.02579
H	342.168	1.51433	-0.234137
H	342.318	-1.31889	0.0238914
C	341.378	-0.576816	1.84269
H	340.835	0.330462	2.18417
H	340.734	-1.46537	2.00465
H	342.289	-0.689591	2.46918
N	339.79	-1.37022	-0.710259
C	338.604	-1.31941	-1.53303
H	340.03	-2.23882	-0.28973
H	338.11	-2.31541	-1.57339
H	338.86	-1.0128	-2.57304
H	337.874	-0.58266	-1.1257
