44
  This energy is 1.0821e-319 and Call times are: 90327
C	-3.04749	1.21233	1.17012
C	-2.05078	0.128972	1.01487
O	-2.18387	-0.940653	1.59339
H	-3.85151	0.875598	1.86006
H	-3.49876	1.46084	0.186539
H	-2.5655	2.11805	1.59474
N	-1.00987	0.390168	0.220736
C	0.0412556	-0.5635	-0.0292029
C	1.25998	0.201196	-0.507931
O	1.16647	1.3749	-0.862187
H	-0.897794	1.27587	-0.221887
H	0.303164	-1.05047	0.90157
C	-0.383536	-1.6038	-1.0896
H	-0.652171	-1.10074	-2.04296
H	0.423454	-2.33974	-1.28436
H	-1.27782	-2.15633	-0.727499
N	2.44272	-0.444668	-0.508561
C	3.65898	0.206418	-0.936308
H	2.49899	-1.39218	-0.211446
H	4.5235	-0.489934	-0.865913
H	3.87287	1.09604	-0.300642
H	3.57045	0.549946	-1.9924
C	4275.59	-1.03384	-1.77783
C	4276.26	-0.140581	-0.805414
O	4275.68	0.834238	-0.341897
H	4274.56	-0.657366	-1.97607
H	4275.52	-2.06349	-1.36786
H	4276.16	-1.05297	-2.73275
N	4277.51	-0.456901	-0.475203
C	4278.29	0.315361	0.457698
C	4279.76	0.0106065	0.204235
O	4280.09	-0.949661	-0.488548
H	4277.98	-1.237	-0.881834
H	4278.14	1.36832	0.260015
C	4277.93	-0.0268095	1.91856
H	4278.09	-1.10789	2.11771
H	4278.53	0.566157	2.63952
H	4276.85	0.199762	2.09107
N	4280.67	0.839779	0.745579
C	4282.09	0.635553	0.54831
H	4280.38	1.61553	1.29723
H	4282.68	1.42042	1.0738
H	4282.34	0.673502	-0.535516
H	4282.4	-0.358777	0.941932
