44
  This energy is 6.58441e-320 and Call times are: 57189
C	-3.05076	0.883449	-1.42776
C	-1.90733	-0.0432846	-1.26985
O	-1.91207	-1.14875	-1.79371
H	-3.83168	0.399877	-2.054
H	-2.71915	1.81883	-1.92566
H	-3.48575	1.12734	-0.435664
N	-0.88828	0.393575	-0.526176
C	0.294202	-0.392939	-0.281304
C	0.965687	0.150869	0.964737
O	0.640788	1.24232	1.42843
H	-0.908944	1.28468	-0.0807124
H	0.00101708	-1.41499	-0.077542
C	1.26815	-0.332249	-1.47916
H	1.56634	0.717743	-1.68584
H	2.17969	-0.936903	-1.29401
H	0.763991	-0.732232	-2.38579
N	1.90862	-0.613042	1.55067
C	2.59343	-0.182819	2.74738
H	2.15243	-1.49648	1.16424
H	3.33262	-0.947213	3.07381
H	1.86862	-0.0192338	3.57752
H	3.13467	0.774292	2.56799
C	2713.37	-1.56208	2.48998
C	2712.14	-1.43498	1.66718
O	2711.26	-2.27601	1.71854
H	2713.31	-2.49422	3.09298
H	2713.46	-0.694665	3.17713
H	2714.26	-1.61155	1.83711
N	2712.07	-0.36438	0.872834
C	2710.94	-0.102686	0.0140577
C	2711.4	0.843449	-1.07924
O	2712.47	1.44347	-0.985021
H	2712.81	0.298454	0.818308
H	2710.64	-1.02801	-0.457971
C	2709.77	0.522086	0.801102
H	2710.09	1.47083	1.2846
H	2708.9	0.724737	0.142896
H	2709.45	-0.180146	1.59963
N	2710.61	0.982028	-2.1585
C	2710.96	1.85157	-3.25458
H	2709.75	0.482374	-2.2193
H	2710.18	1.83074	-4.04526
H	2711.93	1.53303	-3.7088
H	2711.08	2.90213	-2.90177
