44
  This energy is 3.4965e-320 and Call times are: 32031
C	-1.40653	-0.390379	-3.16155
C	-1.16559	0.398731	-1.93254
O	-1.5224	1.56595	-1.85017
H	-1.92111	0.247546	-3.91263
H	-2.04917	-1.26669	-2.93369
H	-0.442426	-0.740105	-3.58715
N	-0.538543	-0.231525	-0.936573
C	-0.233738	0.403109	0.320869
C	0.889465	-0.376778	0.976178
O	1.20323	-1.49235	0.565233
H	-0.226935	-1.17372	-1.02664
H	0.129093	1.40519	0.130423
C	-1.46904	0.43621	1.24826
H	-1.83903	-0.593387	1.441
H	-1.23789	0.92435	2.21732
H	-2.28498	1.00927	0.756346
N	1.53855	0.205839	2.00343
C	2.62893	-0.455998	2.68109
H	1.27443	1.11213	2.31664
H	3.03047	0.183563	3.49777
H	3.45729	-0.677125	1.96963
H	2.2888	-1.41947	3.12518
C	1520.19	3.01459	0.864772
C	1521.2	2.23361	0.122728
O	1521.92	2.76282	-0.715603
H	1520.21	4.07172	0.521816
H	1520.4	2.98448	1.95368
H	1519.17	2.60155	0.676777
N	1521.28	0.933737	0.416644
C	1522.22	0.0442338	-0.220558
C	1521.7	-1.37218	-0.0560681
O	1520.8	-1.62437	0.741442
H	1520.67	0.508467	1.08063
H	1522.25	0.263059	-1.28046
C	1523.63	0.172392	0.401439
H	1523.59	-0.052113	1.48894
H	1524.35	-0.511039	-0.0869676
H	1523.99	1.21466	0.27546
N	1522.25	-2.33084	-0.827891
C	1521.82	-3.70576	-0.749065
H	1522.98	-2.10547	-1.47235
H	1522.39	-4.34094	-1.46041
H	1520.73	-3.78984	-0.997458
H	1521.97	-4.1074	0.279136
