44
  This energy is 9.83438e-320 and Call times are: 121869
C	0.28843	-2.8999	1.90618
C	0.633706	-1.48853	1.62327
O	1.30805	-0.83322	2.40578
H	0.72507	-3.19576	2.88479
H	0.700213	-3.56058	1.1145
H	-0.81419	-3.02235	1.95285
N	0.165244	-0.981004	0.480759
C	0.417133	0.376285	0.0670592
C	-0.644793	0.759504	-0.945213
O	-1.35831	-0.0977122	-1.46282
H	-0.40742	-1.51626	-0.134463
H	0.30771	1.03089	0.922393
C	1.82308	0.522487	-0.55669
H	1.9321	-0.150932	-1.43347
H	2.02038	1.5664	-0.876205
H	2.59182	0.237726	0.194368
N	-0.788592	2.06757	-1.23551
C	-1.78135	2.52765	-2.17835
H	-0.206315	2.74665	-0.800731
H	-1.74168	3.63437	-2.28249
H	-2.80461	2.2438	-1.84129
H	-1.61028	2.07463	-3.18169
C	5770.74	-2.75244	-2.08291
C	5770.66	-1.29965	-1.80963
O	5770.37	-0.505148	-2.69087
H	5770.5	-2.93819	-3.1524
H	5770.01	-3.29988	-1.45053
H	5771.76	-3.12763	-1.87382
N	5770.94	-0.9155	-0.561537
C	5770.91	0.462924	-0.142381
C	5771.75	0.588389	1.11297
O	5772.1	-0.411426	1.73503
H	5771.21	-1.5695	0.140233
H	5771.37	1.07472	-0.908513
C	5769.46	0.931315	0.137657
H	5768.99	0.301108	0.923602
H	5769.43	1.99231	0.460481
H	5768.86	0.833357	-0.789237
N	5772.11	1.82711	1.50342
C	5772.92	2.04344	2.67943
H	5771.82	2.62313	0.982595
H	5773.1	3.12904	2.83434
H	5773.9	1.52987	2.57885
H	5772.41	1.64193	3.58602
