44
  This energy is 6.18126e-320 and Call times are: 94989
C	0.974725	3.33085	0.285406
C	1.1259	1.89709	0.621059
O	2.07933	1.49771	1.27524
H	1.83136	3.89937	0.708282
H	0.0319141	3.72754	0.717343
H	0.962047	3.46683	-0.816545
N	0.174244	1.07822	0.167007
C	0.182744	-0.341889	0.412073
C	-0.692454	-1.00084	-0.636282
O	-1.45284	-0.330398	-1.33209
H	-0.582068	1.41156	-0.389597
H	1.19043	-0.715471	0.281412
C	-0.343216	-0.671704	1.82689
H	-1.37694	-0.286441	1.95771
H	-0.337882	-1.76434	2.01897
H	0.305643	-0.182289	2.58557
N	-0.588135	-2.33575	-0.788428
C	-1.37305	-3.04806	-1.76959
H	0.0382094	-2.85967	-0.220601
H	-1.14648	-4.13664	-1.73944
H	-1.15413	-2.67281	-2.79551
H	-2.46173	-2.91096	-1.57683
C	4500.88	1.55425	-2.4033
C	4500.67	0.523981	-1.36281
O	4501.49	-0.360918	-1.16766
H	4501.85	1.36043	-2.91594
H	4500.92	2.56332	-1.9413
H	4500.07	1.51897	-3.15355
N	4499.53	0.615707	-0.665042
C	4499.18	-0.312146	0.379906
C	4497.68	-0.242379	0.578353
O	4497.02	0.677789	0.0938219
H	4498.86	1.3241	-0.853233
H	4499.42	-1.31611	0.0554681
C	4499.91	0.0259516	1.70077
H	4499.66	1.05681	2.03035
H	4499.64	-0.686627	2.50748
H	4501.01	-0.0274689	1.54181
N	4497.09	-1.23217	1.28194
C	4495.67	-1.25597	1.5119
H	4497.64	-1.97179	1.65986
H	4495.38	-2.14768	2.11181
H	4495.11	-1.29101	0.545531
H	4495.34	-0.343579	2.0627
