44
  This energy is 5.18868e-320 and Call times are: 94569
C	2.2788	2.08598	-1.60683
C	1.79693	0.742869	-1.21305
O	2.32164	-0.271239	-1.6521
H	3.1262	1.97816	-2.31827
H	2.62877	2.6441	-0.71305
H	1.46401	2.65509	-2.10198
N	0.76546	0.707663	-0.366179
C	0.185667	-0.523262	0.108681
C	-1.21874	-0.220201	0.593469
O	-1.58423	0.939546	0.775781
H	0.328002	1.54079	-0.0383671
H	0.105525	-1.2167	-0.718847
C	1.02296	-1.13417	1.25448
H	1.1037	-0.419892	2.10147
H	0.579422	-2.08217	1.62238
H	2.04973	-1.35049	0.886917
N	-2.04949	-1.26225	0.793433
C	-3.40853	-1.06971	1.24302
H	-1.73718	-2.1929	0.633453
H	-3.92963	-2.04662	1.34953
H	-3.97808	-0.44607	0.516434
H	-3.4266	-0.553156	2.22995
C	4480.61	-2.55767	-1.62807
C	4480.09	-1.91435	-0.399607
O	4480.16	-2.47601	0.685064
H	4481.02	-3.55837	-1.37305
H	4481.42	-1.93924	-2.07221
H	4479.79	-2.68351	-2.36836
N	4479.55	-0.703505	-0.547841
C	4479.01	0.0484766	0.553558
C	4478.05	1.07529	-0.0141691
O	4478.04	1.32837	-1.21736
H	4479.48	-0.268869	-1.44136
H	4478.44	-0.619317	1.18756
C	4480.12	0.752039	1.36129
H	4480.7	1.43583	0.707674
H	4479.7	1.33185	2.21022
H	4480.82	-0.0107882	1.77078
N	4477.2	1.67767	0.841803
C	4476.24	2.65976	0.390294
H	4477.22	1.45403	1.81075
H	4475.63	3.03993	1.2428
H	4475.55	2.21623	-0.36092
H	4476.76	3.52404	-0.0854205
