44
  This energy is 1.56955e-319 and Call times are: 48453
C	-3.25667	1.22836	-0.106615
C	-1.86378	1.27465	0.3923
O	-1.47031	2.20349	1.08436
H	-3.80255	2.13113	0.243935
H	-3.7718	0.324101	0.280383
H	-3.26533	1.21165	-1.21684
N	-1.07366	0.257742	0.0401955
C	0.305163	0.161634	0.448149
C	1.01126	-0.774669	-0.513101
O	0.368984	-1.491	-1.27873
H	-1.39782	-0.478292	-0.548118
H	0.76769	1.13627	0.357445
C	0.428324	-0.369321	1.89384
H	-0.0477903	-1.36902	1.98346
H	1.4887	-0.444423	2.21123
H	-0.0938966	0.324665	2.58797
N	2.35885	-0.773964	-0.509955
C	3.11699	-1.62343	-1.39866
H	2.86046	-0.181829	0.112136
H	4.20903	-1.47976	-1.2435
H	2.88041	-1.39007	-2.46206
H	2.87528	-2.69595	-1.21853
C	2297.87	-0.476165	-2.4449
C	2299.24	-0.640802	-1.93091
O	2300.06	-1.33721	-2.51942
H	2297.75	-1.06799	-3.37868
H	2297.67	0.592748	-2.6696
H	2297.13	-0.839119	-1.69506
N	2299.54	0.00362885	-0.798633
C	2300.83	-0.0587923	-0.175776
C	2300.67	0.320962	1.28298
O	2299.63	0.849935	1.68191
H	2298.85	0.54442	-0.313078
H	2301.19	-1.07965	-0.211503
C	2301.84	0.896426	-0.86388
H	2301.46	1.94272	-0.825986
H	2302.84	0.850762	-0.386868
H	2301.95	0.608433	-1.93203
N	2301.69	0.0378758	2.12104
C	2301.62	0.351993	3.52902
H	2302.51	-0.396915	1.78028
H	2302.55	0.0437983	4.04866
H	2300.76	-0.175965	4.00626
H	2301.47	1.44664	3.68086
