44
  This energy is 5.39668e-320 and Call times are: 2883
C	0.81932	3.35164	0.470508
C	1.14507	1.98523	0.00358672
O	2.16948	1.75922	-0.625692
H	1.62228	4.05047	0.149976
H	0.747697	3.37044	1.57836
H	-0.144491	3.68636	0.0323574
N	0.261425	1.03008	0.302318
C	0.438934	-0.34718	-0.0830077
C	-0.921415	-1.01661	-0.0594637
O	-1.88028	-0.472772	0.485201
H	-0.583593	1.23208	0.790248
H	0.805733	-0.383278	-1.10096
C	1.40752	-1.07843	0.87315
H	1.0285	-1.03888	1.91665
H	1.54658	-2.13912	0.579256
H	2.3999	-0.577757	0.847657
N	-1.04133	-2.2104	-0.673036
C	-2.30055	-2.91683	-0.712069
H	-0.255338	-2.63076	-1.11433
H	-2.19475	-3.87917	-1.25974
H	-3.07824	-2.30552	-1.22465
H	-2.6594	-3.13782	0.319226
C	147.725	1.37262	-1.96586
C	146.904	1.34507	-0.734751
O	147.159	2.07643	0.212187
H	148.54	2.1194	-1.84702
H	147.1	1.65927	-2.83704
H	148.176	0.374369	-2.14761
N	145.886	0.480899	-0.72003
C	144.998	0.338614	0.405711
C	144.335	-1.02155	0.307065
O	144.393	-1.67513	-0.732799
H	145.707	-0.13015	-1.48639
H	145.581	0.35519	1.31804
C	143.927	1.45186	0.421087
H	143.331	1.43238	-0.516587
H	143.241	1.3454	1.2867
H	144.425	2.44314	0.492394
N	143.705	-1.49053	1.40185
C	143.055	-2.78063	1.40529
H	143.675	-0.949693	2.23603
H	142.593	-2.98546	2.39599
H	143.788	-3.59029	1.1867
H	142.256	-2.82036	0.630252
