44
  This energy is 4.50637e-320 and Call times are: 62481
C	-3.40714	0.235273	-0.679811
C	-2.2638	0.244396	0.260343
O	-2.41558	0.538621	1.43801
H	-4.33134	0.530379	-0.137015
H	-3.54751	-0.782185	-1.10159
H	-3.22961	0.956119	-1.50553
N	-1.07326	-0.0778226	-0.250697
C	0.132196	-0.113659	0.538231
C	1.31154	0.00655826	-0.40725
O	1.16346	-0.14135	-1.61887
H	-0.957617	-0.287285	-1.21801
H	0.148372	0.746596	1.19533
C	0.234005	-1.4239	1.35065
H	0.21645	-2.30438	0.673492
H	1.16097	-1.45473	1.95939
H	-0.636162	-1.50061	2.03845
N	2.51326	0.301143	0.126677
C	3.69078	0.447036	-0.696944
H	2.61125	0.42411	1.10877
H	4.57975	0.687327	-0.0730527
H	3.55192	1.26604	-1.43937
H	3.89859	-0.494036	-1.25585
C	2963.31	-3.42377	-0.379233
C	2963.52	-2.02173	-0.806471
O	2964.3	-1.74303	-1.70294
H	2963.96	-4.09206	-0.984104
H	2962.25	-3.71803	-0.533392
H	2963.57	-3.54014	0.693173
N	2962.81	-1.09349	-0.158066
C	2962.9	0.312529	-0.460266
C	2962.41	1.08257	0.748759
O	2961.79	0.513404	1.64741
H	2962.2	-1.33041	0.590144
H	2963.94	0.571775	-0.612548
C	2962.06	0.677474	-1.70333
H	2960.99	0.409565	-1.54392
H	2962.13	1.75935	-1.93893
H	2962.43	0.105993	-2.58175
N	2962.69	2.39934	0.80868
C	2962.27	3.21114	1.92706
H	2963.19	2.84012	0.0748506
H	2962.59	4.26651	1.79041
H	2962.71	2.82967	2.87671
H	2961.16	3.19502	2.02987
