44
  This energy is 5.19461e-320 and Call times are: 2799
C	-2.94611	1.85625	0.0300237
C	-1.81329	1.20123	0.722031
O	-1.63625	1.34737	1.92361
H	-3.53101	2.45104	0.764855
H	-3.61098	1.09151	-0.423798
H	-2.56903	2.53546	-0.76334
N	-1.00531	0.45696	-0.0366474
C	0.138408	-0.242455	0.492083
C	1.08386	-0.526468	-0.658871
O	0.710796	-0.402947	-1.82395
H	-1.1433	0.36929	-1.01961
H	0.654734	0.404433	1.18995
C	-0.277269	-1.56373	1.17659
H	-0.80727	-2.22468	0.457998
H	0.600966	-2.10476	1.58497
H	-0.970592	-1.34215	2.01703
N	2.34425	-0.894923	-0.356129
C	3.31782	-1.1743	-1.38584
H	2.62895	-0.982345	0.592837
H	4.29373	-1.4624	-0.936566
H	3.47855	-0.278222	-2.02807
H	2.97189	-2.0088	-2.03784
C	140.351	-2.84004	-1.82726
C	141.319	-2.03362	-1.05007
O	142.414	-2.48289	-0.743911
H	140.792	-3.83805	-2.0404
H	140.119	-2.33673	-2.78942
H	139.414	-2.97747	-1.24721
N	140.925	-0.805857	-0.703968
C	141.755	0.0972976	0.0522271
C	140.852	1.13185	0.695653
O	139.684	1.2584	0.334249
H	140.018	-0.462004	-0.934342
H	142.242	-0.453998	0.846617
C	142.799	0.791271	-0.850869
H	142.296	1.35535	-1.66511
H	143.44	1.48729	-0.27177
H	143.453	0.0226786	-1.31713
N	141.371	1.88496	1.68553
C	140.583	2.88708	2.36461
H	142.316	1.76255	1.96848
H	141.187	3.40032	3.14476
H	139.697	2.4237	2.85607
H	140.216	3.65372	1.64411
