44
  This energy is 7.42877e-320 and Call times are: 45303
C	1.89008	-0.408715	2.89598
C	1.29368	0.439918	1.83988
O	1.34039	1.66046	1.90768
H	2.3344	0.240444	3.68149
H	2.68799	-1.05015	2.46618
H	1.10995	-1.04956	3.35821
N	0.705076	-0.200094	0.826821
C	0.0809939	0.48767	-0.275145
C	-0.899349	-0.468601	-0.926075
O	-0.871039	-1.67035	-0.667539
H	0.648062	-1.1945	0.797681
H	-0.484281	1.32734	0.108898
C	1.12777	0.960394	-1.30855
H	1.70629	0.0965563	-1.69996
H	0.650646	1.4905	-2.15832
H	1.84058	1.65928	-0.819064
N	-1.80873	0.050075	-1.7746
C	-2.78946	-0.781821	-2.4321
H	-1.81998	1.02615	-1.96533
H	-3.4455	-0.170791	-3.09051
H	-3.43036	-1.30057	-1.68284
H	-2.29109	-1.55817	-3.05667
C	2150.38	-2.55962	2.35973
C	2150.34	-1.12517	1.99614
O	2150.19	-0.260121	2.84855
H	2150.25	-2.66329	3.45903
H	2151.35	-3.00314	2.06904
H	2149.56	-3.10531	1.84845
N	2150.47	-0.838819	0.698581
C	2150.46	0.509638	0.190398
C	2150.1	0.44825	-1.28293
O	2150.13	-0.61868	-1.89321
H	2150.56	-1.55404	0.0106002
H	2149.67	1.06608	0.69298
C	2151.83	1.19802	0.379994
H	2152.62	0.624184	-0.136297
H	2151.82	2.23655	-0.0100852
H	2152.07	1.23565	1.46321
N	2149.73	1.59571	-1.88562
C	2149.37	1.63195	-3.28256
H	2149.71	2.44753	-1.37289
H	2149.1	2.66568	-3.59163
H	2148.49	0.968097	-3.47766
H	2150.21	1.28555	-3.9192
