44
  This energy is 1.33511e-319 and Call times are: 41523
C	-0.540472	-3.14701	1.38937
C	-1.02902	-1.90845	0.742449
O	-2.19208	-1.8012	0.378761
H	-1.37388	-3.87967	1.45644
H	-0.174126	-2.92472	2.41367
H	0.282336	-3.59237	0.791387
N	-0.133128	-0.932461	0.577577
C	-0.4575	0.330988	-0.0350457
C	0.834085	0.956691	-0.524476
O	1.92298	0.522446	-0.153564
H	0.818486	-1.04295	0.851729
H	-1.08459	0.152281	-0.899277
C	-1.16064	1.27659	0.964225
H	-0.514819	1.45723	1.84989
H	-1.41196	2.25031	0.495736
H	-2.10464	0.806295	1.31614
N	0.741637	1.98415	-1.39153
C	1.91774	2.63466	-1.92048
H	-0.148632	2.31643	-1.6852
H	1.63408	3.45615	-2.61471
H	2.55153	1.90766	-2.47817
H	2.53137	3.06727	-1.09738
C	1970.81	3.12504	1.53345
C	1970.18	2.04646	0.737325
O	1968.99	2.08935	0.437686
H	1970.04	3.8942	1.77727
H	1971.62	3.60241	0.953375
H	1971.22	2.71338	2.47965
N	1970.97	1.03597	0.377127
C	1970.51	-0.0857757	-0.398945
C	1971.47	-1.2359	-0.178908
O	1972.57	-1.04641	0.345412
H	1971.93	0.998289	0.652201
H	1969.54	-0.392981	-0.0274567
C	1970.43	0.263166	-1.90212
H	1971.43	0.578536	-2.27976
H	1970.07	-0.598315	-2.5026
H	1969.72	1.10771	-2.04981
N	1971.07	-2.46628	-0.557486
C	1971.92	-3.62341	-0.376438
H	1970.18	-2.60019	-0.973472
H	1971.41	-4.54117	-0.75186
H	1972.16	-3.77077	0.701785
H	1972.88	-3.49946	-0.928652
