44
  This energy is 1.24455e-320 and Call times are: 31233
C	-0.620174	-1.90954	2.8452
C	0.239826	-1.50754	1.70942
O	1.3884	-1.91664	1.60991
H	-0.0486714	-2.5861	3.51715
H	-1.51819	-2.44659	2.47375
H	-0.936944	-1.01459	3.4211
N	-0.305955	-0.67821	0.816838
C	0.404862	-0.198851	-0.341515
C	-0.279592	1.06793	-0.816936
O	-1.39501	1.37417	-0.399946
H	-1.23296	-0.328913	0.924519
H	1.41482	0.0619129	-0.0515971
C	0.415451	-1.25297	-1.47105
H	-0.622239	-1.51866	-1.76554
H	0.962098	-0.887175	-2.36444
H	0.918392	-2.17639	-1.10982
N	0.386972	1.84868	-1.68994
C	-0.180456	3.07974	-2.18863
H	1.29164	1.58723	-2.01003
H	0.519109	3.57693	-2.8962
H	-0.390314	3.78338	-1.35072
H	-1.13833	2.88314	-2.72249
C	1486.6	1.92354	0.0936778
C	1485.79	0.818968	-0.464859
O	1486.16	0.204225	-1.45723
H	1487.51	2.05893	-0.526903
H	1486.91	1.68559	1.13434
H	1486.02	2.86859	0.0867218
N	1484.65	0.543452	0.168857
C	1483.75	-0.502619	-0.254701
C	1482.38	-0.204161	0.322131
O	1482.24	0.634635	1.21035
H	1484.35	1.07063	0.958995
H	1483.67	-0.477794	-1.33371
C	1484.24	-1.88863	0.223433
H	1484.32	-1.91035	1.33075
H	1483.55	-2.69643	-0.101115
H	1485.24	-2.09481	-0.204968
N	1481.33	-0.87313	-0.188552
C	1479.98	-0.646358	0.289904
H	1481.46	-1.54283	-0.911929
H	1479.26	-1.29229	-0.252811
H	1479.69	0.41688	0.138925
H	1479.91	-0.87413	1.37797
