44
  This energy is 1.11145e-319 and Call times are: 65085
C	-0.396181	0.998993	-3.31228
C	0.32106	1.03782	-2.01796
O	1.38542	1.62961	-1.9021
H	0.188594	1.56014	-4.07321
H	-1.39674	1.46923	-3.20946
H	-0.514878	-0.0511757	-3.65287
N	-0.254398	0.391296	-1.00148
C	0.321994	0.339232	0.318322
C	-0.274894	-0.852879	1.0407
O	-1.27018	-1.42272	0.597399
H	-1.10702	-0.111579	-1.11586
H	1.3878	0.17071	0.230411
C	0.0370918	1.63622	1.10811
H	-1.0572	1.80637	1.19582
H	0.479635	1.59957	2.12476
H	0.478367	2.50207	0.567995
N	0.336753	-1.27245	2.1658
C	-0.153001	-2.4066	2.91416
H	1.14523	-0.802447	2.50447
H	0.483301	-2.59285	3.80729
H	-0.149014	-3.3249	2.28333
H	-1.19749	-2.22887	3.25859
C	3088.44	1.69095	2.56515
C	3087.23	1.40195	1.76116
O	3086.14	1.86663	2.06744
H	3088.16	2.34667	3.41962
H	3089.2	2.21118	1.94269
H	3088.87	0.747331	2.96068
N	3087.4	0.609445	0.700148
C	3086.32	0.238252	-0.178216
C	3086.73	-1.02363	-0.912706
O	3087.9	-1.40501	-0.904003
H	3088.29	0.213565	0.477842
H	3085.45	0.0036724	0.417541
C	3086	1.36321	-1.18944
H	3086.9	1.60179	-1.79847
H	3085.17	1.08077	-1.86723
H	3085.71	2.28228	-0.638885
N	3085.76	-1.71582	-1.55104
C	3086.06	-2.93544	-2.26698
H	3084.82	-1.39465	-1.54043
H	3085.13	-3.35429	-2.72515
H	3086.49	-3.70074	-1.58013
H	3086.8	-2.74664	-3.07834
