44
  This energy is 9.69357e-321 and Call times are: 80079
C	-3.44321	-0.517568	-0.0504227
C	-2.25164	0.275923	0.326042
O	-2.36358	1.38559	0.828628
H	-4.36118	0.0605212	0.19249
H	-3.46046	-1.47333	0.514416
H	-3.43156	-0.732486	-1.13974
N	-1.0647	-0.283996	0.081028
C	0.184369	0.364147	0.39178
C	1.2649	-0.2743	-0.459143
O	1.05704	-1.33298	-1.04891
H	-0.98641	-1.1763	-0.355557
H	0.118565	1.40775	0.111363
C	0.534494	0.221831	1.88987
H	0.600543	-0.850023	2.17427
H	1.49562	0.719904	2.13264
H	-0.265216	0.692344	2.50243
N	2.44386	0.370619	-0.559841
C	3.52721	-0.155404	-1.35724
H	2.59014	1.22984	-0.0806979
H	4.41183	0.517351	-1.31148
H	3.21795	-0.255736	-2.42285
H	3.83271	-1.16194	-0.990168
C	3796.78	-0.931017	-1.88142
C	3795.79	-1.1773	-0.80289
O	3795.76	-2.24661	-0.209643
H	3797.41	-1.83833	-2.02088
H	3797.44	-0.0777657	-1.61209
H	3796.25	-0.706753	-2.83404
N	3794.96	-0.176813	-0.526098
C	3793.94	-0.265572	0.496377
C	3792.88	0.776177	0.194899
O	3793.1	1.67036	-0.622012
H	3794.97	0.678942	-1.03627
H	3793.47	-1.23898	0.442027
C	3794.54	-0.0249496	1.90089
H	3795.02	0.974256	1.95291
H	3793.76	-0.0927247	2.69059
H	3795.32	-0.793754	2.10915
N	3791.7	0.670579	0.836052
C	3790.63	1.60971	0.603992
H	3791.55	-0.0642871	1.48818
H	3789.74	1.3555	1.22566
H	3790.32	1.59797	-0.466725
H	3790.95	2.6452	0.859321
