44
  This energy is 1.05967e-319 and Call times are: 46521
C	-2.6864	2.17755	0.409499
C	-1.42239	1.56708	0.879416
O	-0.858382	1.97535	1.88525
H	-2.9726	3.00388	1.09588
H	-3.49766	1.41952	0.401818
H	-2.55571	2.58903	-0.613508
N	-0.940184	0.562062	0.144719
C	0.279051	-0.132054	0.474109
C	0.785445	-0.807585	-0.785438
O	0.0607512	-0.922108	-1.77212
H	-1.39361	0.257826	-0.688814
H	1.02365	0.591222	0.781553
C	0.0464423	-1.18211	1.58334
H	-0.718458	-1.92212	1.26487
H	0.983252	-1.71833	1.83952
H	-0.325444	-0.674791	2.50011
N	2.05711	-1.25353	-0.787528
C	2.62963	-1.89892	-1.94592
H	2.6299	-1.14506	0.0183162
H	3.68385	-2.19488	-1.75032
H	2.61514	-1.21402	-2.82453
H	2.05208	-2.81377	-2.21176
C	2209.83	0.736892	3.0382
C	2208.87	-0.0301249	2.22023
O	2208.26	-0.980907	2.68867
H	2209.88	0.298768	4.05887
H	2209.51	1.79679	3.1164
H	2210.84	0.690252	2.58077
N	2208.71	0.370613	0.956417
C	2207.81	-0.27491	0.0380812
C	2208.25	0.0682011	-1.37074
O	2209.06	0.972109	-1.57254
H	2209.24	1.12842	0.578135
H	2207.89	-1.34766	0.157305
C	2206.35	0.187625	0.263898
H	2206.27	1.28869	0.141479
H	2205.65	-0.307599	-0.44146
H	2206.04	-0.0683859	1.29974
N	2207.74	-0.665192	-2.38156
C	2208.12	-0.418814	-3.75484
H	2207.1	-1.39708	-2.19715
H	2207.59	-1.12393	-4.43739
H	2209.22	-0.548042	-3.89253
H	2207.85	0.621034	-4.05391
