44
  This energy is 4.46882e-320 and Call times are: 87765
C	-0.867518	-2.58238	2.16907
C	0.0240092	-1.47651	1.75261
O	0.945028	-1.1036	2.46617
H	-0.551633	-2.95221	3.16872
H	-0.80608	-3.41825	1.44081
H	-1.91679	-2.2248	2.23323
N	-0.239428	-0.915712	0.570043
C	0.538907	0.169781	0.0290002
C	-0.309037	0.879017	-1.00889
O	-1.33829	0.362245	-1.43949
H	-1.01047	-1.2091	0.0111595
H	0.752009	0.878128	0.81951
C	1.84744	-0.341995	-0.613608
H	1.62514	-1.06895	-1.42369
H	2.44925	0.491262	-1.03108
H	2.45902	-0.860539	0.156604
N	0.0953151	2.09692	-1.42023
C	-0.654605	2.85222	-2.39662
H	0.927241	2.50119	-1.05458
H	-0.159844	3.82647	-2.60471
H	-1.6865	3.05471	-2.0286
H	-0.733998	2.28769	-3.3538
C	4153.34	1.33692	0.98539
C	4154.5	1.27918	0.0680442
O	4154.52	1.92698	-0.969501
H	4152.57	2.01997	0.562857
H	4153.66	1.72146	1.97797
H	4152.9	0.326282	1.10508
N	4155.51	0.483275	0.435065
C	4156.7	0.32273	-0.352327
C	4157.36	-0.982174	0.0564958
O	4157.01	-1.56637	1.08094
H	4155.47	-0.0617719	1.2683
H	4156.43	0.240097	-1.39634
C	4157.68	1.49902	-0.135765
H	4157.96	1.5813	0.93642
H	4158.6	1.37867	-0.740691
H	4157.19	2.44908	-0.437792
N	4158.31	-1.48249	-0.752246
C	4158.98	-2.7254	-0.450292
H	4158.58	-0.998467	-1.58052
H	4159.74	-2.96652	-1.23336
H	4158.25	-3.56396	-0.397065
H	4159.51	-2.66115	0.53102
