44
  This energy is 8.49793e-321 and Call times are: 19347
C	-1.22753	-3.14637	0.848334
C	-1.17937	-1.67731	1.02373
O	-1.96237	-1.10311	1.76784
H	-2.04901	-3.56378	1.47027
H	-0.267006	-3.60165	1.16917
H	-1.41863	-3.39883	-0.215945
N	-0.245979	-1.02697	0.325016
C	-0.074937	0.402468	0.390502
C	0.665385	0.8408	-0.858108
O	1.22581	0.016862	-1.57844
H	0.367031	-1.50277	-0.300094
H	-1.04922	0.874358	0.377955
C	0.716915	0.817077	1.65073
H	1.71562	0.330652	1.66071
H	0.850306	1.91713	1.70438
H	0.164761	0.489272	2.55838
N	0.665647	2.15513	-1.15567
C	1.33423	2.66374	-2.33061
H	0.200362	2.80528	-0.564019
H	1.22239	3.76827	-2.39953
H	0.906164	2.20986	-3.25364
H	2.42146	2.42259	-2.29952
C	925.219	-0.811751	0.671763
C	923.768	-1.08768	0.762596
O	923.352	-2.14042	1.22654
H	925.784	-1.6828	1.06913
H	925.476	0.0868995	1.27117
H	925.512	-0.645917	-0.386426
N	922.953	-0.132812	0.30786
C	921.517	-0.254811	0.329362
C	920.952	0.712021	-0.692957
O	921.656	1.59472	-1.17971
H	923.304	0.708193	-0.0945729
H	921.244	-1.25613	0.0210201
C	920.947	0.0599866	1.73033
H	921.229	1.08771	2.0438
H	919.841	-0.0331522	1.75048
H	921.369	-0.654308	2.47021
N	919.665	0.552526	-1.05959
C	919.044	1.41809	-2.03522
H	919.114	-0.172247	-0.659522
H	917.983	1.12763	-2.20022
H	919.58	1.35839	-3.0104
H	919.069	2.47783	-1.69236
