44
  This energy is 6.83589e-320 and Call times are: 114603
C	-1.03382	-3.32479	-0.0558319
C	-0.0814817	-2.26438	0.343898
O	0.843036	-2.50027	1.10948
H	-0.755384	-4.27679	0.446202
H	-0.999628	-3.47504	-1.15541
H	-2.06534	-3.04704	0.247088
N	-0.294726	-1.05109	-0.170719
C	0.54593	0.0817299	0.123966
C	-0.246481	1.33985	-0.173464
O	-1.29148	1.28661	-0.8192
H	-1.06851	-0.86487	-0.77032
H	0.778481	0.081721	1.18132
C	1.83975	0.0567651	-0.720152
H	1.59747	0.0561641	-1.80432
H	2.48943	0.927557	-0.495638
H	2.41052	-0.87017	-0.493985
N	0.224741	2.50497	0.312773
C	-0.468689	3.75228	0.0901649
H	1.0684	2.52632	0.839091
H	0.07704	4.59614	0.566965
H	-1.4962	3.71252	0.51898
H	-0.557519	3.96348	-1.0001
C	5428.51	1.07743	-3.12128
C	5428.04	0.0163961	-2.20104
O	5427.8	-1.11285	-2.60664
H	5428.58	0.665213	-4.15128
H	5429.51	1.44006	-2.80948
H	5427.79	1.9261	-3.12239
N	5427.89	0.364971	-0.920935
C	5427.44	-0.556403	0.0931639
C	5426.9	0.255009	1.25295
O	5427.12	1.46224	1.33293
H	5428.06	1.29579	-0.608231
H	5426.63	-1.14915	-0.303994
C	5428.6	-1.46496	0.574898
H	5429.43	-0.853589	0.98109
H	5428.26	-2.17576	1.35568
H	5428.99	-2.05309	-0.284079
N	5426.15	-0.390061	2.17227
C	5425.58	0.30259	3.30461
H	5425.98	-1.36588	2.08608
H	5425.01	-0.399901	3.94603
H	5424.9	1.11156	2.96549
H	5426.39	0.766911	3.92462
