44
  This energy is 9.81116e-320 and Call times are: 10611
C	-3.26515	-0.410868	-1.13848
C	-1.97576	0.315934	-1.11753
O	-1.75503	1.23503	-1.89409
H	-3.91347	0.0142309	-1.93524
H	-3.78046	-0.304031	-0.160801
H	-3.09442	-1.48741	-1.3503
N	-1.07971	-0.0919433	-0.215811
C	0.218983	0.516403	-0.0739025
C	1.12521	-0.477748	0.625845
O	0.658408	-1.46784	1.18588
H	-1.26039	-0.860878	0.391667
H	0.630667	0.700648	-1.0581
C	0.140113	1.82749	0.7397
H	-0.283278	1.63492	1.74855
H	1.13835	2.29862	0.850749
H	-0.527518	2.54683	0.217245
N	2.45231	-0.24626	0.590584
C	3.39295	-1.14433	1.21894
H	2.81103	0.556785	0.126188
H	4.43527	-0.781015	1.08177
H	3.31657	-2.16465	0.778083
H	3.19034	-1.22426	2.31153
C	509.675	-2.10164	2.77373
C	509.022	-1.36849	1.66569
O	507.835	-1.52701	1.41479
H	508.929	-2.76131	3.26747
H	510.074	-1.38617	3.52332
H	510.505	-2.72737	2.3825
N	509.799	-0.540296	0.963785
C	509.309	0.241831	-0.142868
C	510.497	0.632514	-0.999965
O	511.645	0.504816	-0.578614
H	510.771	-0.441786	1.15954
H	508.656	-0.374663	-0.747403
C	508.568	1.50634	0.346509
H	509.241	2.13615	0.966913
H	508.189	2.11081	-0.503055
H	507.701	1.20666	0.974103
N	510.247	1.10025	-2.23886
C	511.316	1.48588	-3.13062
H	509.312	1.18949	-2.56409
H	510.908	1.84582	-4.10081
H	511.99	0.622107	-3.33269
H	511.927	2.30276	-2.68223
