44
  This energy is 9.15257e-320 and Call times are: 121575
C	-1.16737	-0.257929	3.27061
C	-0.564332	0.514151	2.1609
O	-0.377597	1.71929	2.25709
H	-1.39419	0.428685	4.11498
H	-0.460233	-1.03844	3.62215
H	-2.11043	-0.738247	2.93466
N	-0.247184	-0.175316	1.06253
C	0.346787	0.435777	-0.0996209
C	0.0905394	-0.472914	-1.28615
O	-0.300361	-1.62696	-1.12123
H	-0.431075	-1.15162	0.985415
H	-0.149279	1.37825	-0.293903
C	1.8656	0.646503	0.0899231
H	2.37125	-0.322267	0.289706
H	2.32611	1.117	-0.803017
H	2.03999	1.3128	0.962727
N	0.285476	0.0375247	-2.518
C	0.0555761	-0.749464	-3.70711
H	0.595176	0.975923	-2.63082
H	0.27301	-0.153841	-4.621
H	-1.00432	-1.08952	-3.75434
H	0.708403	-1.65221	-3.7133
C	5760.1	0.138536	-1.92768
C	5758.89	-0.568768	-1.43653
O	5758.56	-1.65193	-1.8994
H	5760.58	-0.46539	-2.7283
H	5760.82	0.278547	-1.09934
H	5759.82	1.12887	-2.34396
N	5758.2	0.042739	-0.475444
C	5757	-0.520066	0.103792
C	5756.21	0.609986	0.737299
O	5756.73	1.71025	0.922059
H	5758.46	0.938531	-0.127091
H	5756.39	-0.943179	-0.685475
C	5757.34	-1.59036	1.16479
H	5757.97	-1.15304	1.97262
H	5756.43	-2.02589	1.61271
H	5757.92	-2.41193	0.688419
N	5754.93	0.368728	1.06637
C	5754.1	1.38788	1.66335
H	5754.53	-0.52605	0.902324
H	5753.08	0.995555	1.8617
H	5754.01	2.26894	0.987165
H	5754.53	1.73524	2.62808
