44
  This energy is 8.90306e-320 and Call times are: 89571
C	3.01636	-0.764078	-1.5633
C	2.23277	-0.0791291	-0.510664
O	2.78628	0.516898	0.40305
H	4.10097	-0.635677	-1.35595
H	2.78627	-0.326321	-2.55741
H	2.77827	-1.84859	-1.57325
N	0.90409	-0.156286	-0.615628
C	0.00821664	0.458862	0.330855
C	-1.334	-0.238313	0.22292
O	-1.58522	-0.97437	-0.729412
H	0.465316	-0.669428	-1.3485
H	0.385648	0.292678	1.33186
C	-0.153973	1.9698	0.0517919
H	-0.540703	2.13667	-0.976172
H	-0.843034	2.44663	0.778847
H	0.83629	2.46877	0.132757
N	-2.22397	-0.0380394	1.21481
C	-3.52289	-0.669591	1.20348
H	-1.99917	0.555554	1.98054
H	-4.10912	-0.37937	2.10312
H	-3.4203	-1.77893	1.19487
H	-4.0982	-0.369034	0.298014
C	4243.24	-3.21306	1.04822
C	4243.12	-1.75636	1.28356
O	4243.32	-1.27641	2.39104
H	4243.51	-3.71807	2.00033
H	4244.03	-3.41625	0.294742
H	4242.27	-3.62222	0.688577
N	4242.78	-1.01069	0.228944
C	4242.63	0.420501	0.300407
C	4241.77	0.855793	-0.868294
O	4241.54	0.0894985	-1.80315
H	4242.6	-1.4169	-0.661335
H	4242.1	0.672854	1.21106
C	4244	1.13588	0.246302
H	4244.54	0.874238	-0.688871
H	4243.88	2.23803	0.301258
H	4244.62	0.80762	1.10689
N	4241.24	2.09713	-0.830891
C	4240.4	2.59419	-1.89322
H	4241.43	2.69967	-0.0622354
H	4240.07	3.63499	-1.67966
H	4239.5	1.95625	-2.00672
H	4240.95	2.59168	-2.86339
