44
  This energy is 1.57197e-319 and Call times are: 98937
C	2.54734	-0.20115	-2.36574
C	1.95288	-0.562739	-1.05919
O	2.46362	-1.41554	-0.346185
H	3.45746	-0.815886	-2.5379
H	2.83199	0.872044	-2.37266
H	1.82195	-0.396132	-3.18351
N	0.837824	0.0858503	-0.715181
C	0.143856	-0.155841	0.524506
C	-1.28467	0.325364	0.360252
O	-1.60226	1.03926	-0.58913
H	0.415342	0.757647	-1.31779
H	0.112648	-1.22232	0.708144
C	0.820932	0.581738	1.70122
H	0.851849	1.67549	1.50921
H	0.289213	0.397682	2.65735
H	1.867	0.221209	1.8103
N	-2.18845	-0.0753191	1.27603
C	-3.57437	0.323122	1.19452
H	-1.91327	-0.6588	2.03303
H	-4.15727	-0.106109	2.03906
H	-4.02892	-0.0289866	0.240242
H	-3.66726	1.43268	1.23243
C	4687.2	1.2232	3.2468
C	4687.61	1.18567	1.82685
O	4688.43	1.98297	1.38583
H	4687.73	2.05175	3.76364
H	4687.45	0.265203	3.74615
H	4686.1	1.39675	3.32033
N	4687.05	0.245316	1.06727
C	4687.35	0.0830363	-0.332136
C	4686.2	-0.673769	-0.97301
O	4685.37	-1.24952	-0.281128
H	4686.36	-0.379683	1.43141
H	4687.4	1.05956	-0.79684
C	4688.67	-0.687335	-0.534877
H	4688.62	-1.68839	-0.0563325
H	4688.91	-0.813933	-1.61128
H	4689.51	-0.12325	-0.0599274
N	4686.13	-0.671425	-2.31845
C	4685.06	-1.35501	-3.01625
H	4686.81	-0.193696	-2.86048
H	4685.18	-1.23824	-4.11665
H	4684.07	-0.943463	-2.72004
H	4685.07	-2.44292	-2.77636
