44
  This energy is 1.5653e-319 and Call times are: 105195
C	-2.2437	-0.290076	-2.64722
C	-0.867869	-0.170974	-2.11421
O	0.105868	-0.279719	-2.84667
H	-2.19832	-0.486201	-3.74054
H	-2.80395	0.652803	-2.47424
H	-2.77432	-1.13097	-2.15296
N	-0.757334	0.0531762	-0.802758
C	0.513689	0.192756	-0.138043
C	0.301148	-0.0865206	1.33711
O	-0.831992	-0.123477	1.81299
H	-1.55756	0.110792	-0.211773
H	1.19474	-0.55714	-0.520005
C	1.09709	1.61023	-0.331726
H	0.395559	2.37708	0.0606047
H	2.07584	1.72112	0.178698
H	1.24699	1.80295	-1.41641
N	1.39286	-0.312363	2.09419
C	1.28735	-0.598367	3.50601
H	2.3008	-0.28515	1.68905
H	2.29446	-0.752565	3.95234
H	0.683811	-1.51923	3.67629
H	0.791526	0.243348	4.0416
C	4980.11	-0.63272	1.83911
C	4980.8	-0.281384	0.576602
O	4980.19	-0.201099	-0.477924
H	4979.03	-0.796381	1.63509
H	4980.22	0.192045	2.5749
H	4980.54	-1.56396	2.26368
N	4982.11	-0.0666764	0.658127
C	4982.92	0.283623	-0.483286
C	4984.36	-0.0575826	-0.157368
O	4984.7	-0.304565	0.997645
H	4982.61	-0.163681	1.51782
H	4982.62	-0.325737	-1.32645
C	4982.8	1.78571	-0.822098
H	4983.1	2.4079	0.0452906
H	4983.42	2.05883	-1.7006
H	4981.73	2.02303	-1.05777
N	4985.24	-0.10048	-1.17834
C	4986.63	-0.428052	-0.96545
H	4984.94	0.095521	-2.10695
H	4987.19	-0.409457	-1.92636
H	4986.73	-1.44464	-0.520842
H	4987.11	0.301583	-0.269377
