44
  This energy is 6.21633e-320 and Call times are: 88479
C	2.08293	-2.25299	-1.64668
C	1.19685	-1.88407	-0.519753
O	0.870396	-2.70748	0.324
H	2.3497	-3.32926	-1.56702
H	3.01389	-1.64873	-1.61503
H	1.56424	-2.08189	-2.61344
N	0.777478	-0.617061	-0.485353
C	-0.0880929	-0.108015	0.548324
C	-0.762359	1.14216	0.0176039
O	-0.352177	1.6928	-1.00239
H	1.02689	0.0368476	-1.19467
H	-0.861426	-0.838094	0.750844
C	0.703634	0.220332	1.83381
H	1.49657	0.969087	1.62228
H	0.0401644	0.612392	2.63185
H	1.19371	-0.703279	2.21185
N	-1.83294	1.60846	0.690225
C	-2.54611	2.78583	0.252765
H	-2.15386	1.14467	1.50945
H	-3.39372	3.00925	0.937523
H	-2.95397	2.63939	-0.773612
H	-1.86922	3.67046	0.232328
C	4189.42	-2.2417	-2.47907
C	4189.93	-1.94277	-1.11917
O	4190.05	-2.82715	-0.283865
H	4189.21	-3.32904	-2.55966
H	4190.19	-1.97061	-3.23751
H	4188.49	-1.6734	-2.67583
N	4190.22	-0.665887	-0.862911
C	4190.72	-0.219555	0.413247
C	4190.45	1.26807	0.525226
O	4190.13	1.92459	-0.463498
H	4190.08	0.0498362	-1.54257
H	4190.16	-0.715142	1.20049
C	4192.23	-0.495401	0.552976
H	4192.8	0.01394	-0.256603
H	4192.62	-0.153095	1.53453
H	4192.42	-1.58831	0.467992
N	4190.55	1.83215	1.74477
C	4190.3	3.23955	1.94994
H	4190.8	1.28257	2.53379
H	4190.44	3.51176	3.01963
H	4189.26	3.49976	1.65321
H	4191	3.85674	1.33854
