44
  This energy is 1.38022e-319 and Call times are: 29973
C	-1.61285	2.68453	1.52255
C	-0.496918	1.71584	1.43572
O	0.482607	1.81254	2.16213
H	-1.38301	3.44045	2.30461
H	-2.55359	2.16105	1.7942
H	-1.74634	3.203	0.54976
N	-0.621396	0.747939	0.52465
C	0.380256	-0.268132	0.321866
C	0.183221	-0.846186	-1.06603
O	-0.847748	-0.62507	-1.69852
H	-1.41094	0.696974	-0.0811231
H	1.35956	0.192542	0.350344
C	0.27089	-1.38557	1.38323
H	-0.735213	-1.85555	1.35168
H	1.0408	-2.16952	1.23012
H	0.415858	-0.949063	2.39545
N	1.18355	-1.58688	-1.58248
C	1.09023	-2.16798	-2.9015
H	2.0129	-1.74847	-1.0578
H	2.01161	-2.7418	-3.14449
H	0.958242	-1.37423	-3.67206
H	0.219199	-2.85963	-2.96558
C	1428.8	-1.28449	-2.6918
C	1427.65	-0.540869	-2.13107
O	1426.86	0.0487355	-2.85848
H	1428.79	-1.19107	-3.79953
H	1428.73	-2.35907	-2.42137
H	1429.75	-0.867245	-2.30189
N	1427.53	-0.548548	-0.801433
C	1426.46	0.128942	-0.108903
C	1426.9	0.356817	1.32273
O	1427.89	-0.228286	1.77679
H	1428.19	-1.00824	-0.218095
H	1426.31	1.09916	-0.563763
C	1425.16	-0.70045	-0.134784
H	1425.32	-1.69539	0.332015
H	1424.33	-0.181631	0.39745
H	1424.84	-0.861441	-1.18897
N	1426.2	1.23497	2.06372
C	1426.56	1.52487	3.43307
H	1425.41	1.70373	1.67595
H	1425.86	2.26982	3.87224
H	1427.59	1.9376	3.49116
H	1426.52	0.600142	4.05326
