44
  This energy is 1.41881e-319 and Call times are: 60087
C	-2.82158	-2.03979	0.0639147
C	-1.94142	-1.01621	0.671208
O	-2.26269	-0.434598	1.69834
H	-3.74179	-2.14449	0.678817
H	-2.30041	-3.01952	0.0273919
H	-3.10923	-1.7359	-0.964604
N	-0.794909	-0.766644	0.034343
C	0.164556	0.20142	0.502433
C	1.03839	0.596813	-0.672014
O	1.03378	-0.0633973	-1.70929
H	-0.557914	-1.22621	-0.81746
H	-0.362322	1.08739	0.833382
C	1.03468	-0.374549	1.64185
H	1.57324	-1.28371	1.29908
H	1.77445	0.368297	2.00474
H	0.382747	-0.661405	2.49557
N	1.79662	1.70328	-0.542405
C	2.65109	2.16334	-1.61218
H	1.78107	2.22805	0.302347
H	3.1942	3.08656	-1.31228
H	2.05199	2.38966	-2.52382
H	3.40262	1.38485	-1.8774
C	2848	2.72423	-1.56673
C	2848.85	2.13848	-0.504363
O	2849.48	2.84975	0.267192
H	2848.06	3.83307	-1.51627
H	2846.94	2.41626	-1.42537
H	2848.35	2.38982	-2.56542
N	2848.89	0.805341	-0.445342
C	2849.67	0.0894659	0.53277
C	2849.9	-1.31335	0.00655212
O	2849.25	-1.74309	-0.946278
H	2848.39	0.236805	-1.09799
H	2850.63	0.568437	0.632024
C	2848.94	0.0317644	1.89639
H	2847.95	-0.459593	1.79077
H	2849.54	-0.518631	2.6519
H	2848.78	1.06551	2.27048
N	2850.85	-2.05534	0.605556
C	2851.15	-3.39777	0.165252
H	2851.37	-1.68711	1.37054
H	2851.96	-3.84251	0.783941
H	2851.49	-3.39749	-0.898482
H	2850.25	-4.0487	0.246283
