44
  This energy is 5.87345e-320 and Call times are: 120273
C	-0.823368	-0.132035	-3.38094
C	0.168424	-0.126953	-2.28207
O	1.35445	-0.333268	-2.49948
H	-0.306628	-0.348784	-4.34108
H	-1.31767	0.859449	-3.45474
H	-1.59028	-0.914579	-3.20089
N	-0.305842	0.107351	-1.05629
C	0.535194	0.144218	0.113384
C	-0.343351	-0.0915995	1.32656
O	-1.56775	-0.0203387	1.2394
H	-1.27832	0.245106	-0.888213
H	1.24776	-0.669106	0.0601751
C	1.26311	1.50111	0.240252
H	0.529146	2.33329	0.29392
H	1.91169	1.53286	1.13976
H	1.90235	1.66249	-0.655001
N	0.265199	-0.401296	2.48835
C	-0.490279	-0.654314	3.69309
H	1.25681	-0.461162	2.53685
H	0.189536	-0.890099	4.54133
H	-1.18267	-1.51519	3.54912
H	-1.09972	0.236473	3.96925
C	5691.86	0.431287	0.897324
C	5693.09	-0.385843	0.819925
O	5693.17	-1.47763	1.36724
H	5691.1	-0.10718	1.50369
H	5691.45	0.604432	-0.120381
H	5692.08	1.4078	1.37887
N	5694.11	0.137761	0.130918
C	5695.37	-0.537238	-0.0336888
C	5696.42	0.505484	-0.384456
O	5696.08	1.63788	-0.728204
H	5694.05	1.04092	-0.285856
H	5695.66	-0.984079	0.910102
C	5695.3	-1.60816	-1.14479
H	5695	-1.14641	-2.11145
H	5696.27	-2.12996	-1.27408
H	5694.53	-2.36534	-0.876506
N	5697.71	0.15107	-0.283906
C	5698.78	1.08091	-0.585865
H	5697.96	-0.767949	0.00287359
H	5699.77	0.601236	-0.44521
H	5698.72	1.97207	0.0803814
H	5698.7	1.43296	-1.64031
