44
  This energy is 7.0014e-320 and Call times are: 120693
C	-0.708145	2.11862	-2.67135
C	-1.12493	1.32671	-1.49221
O	-2.26571	1.39461	-1.05575
H	-1.56757	2.72728	-3.02743
H	-0.382467	1.44313	-3.49016
H	0.126274	2.79912	-2.40003
N	-0.190537	0.549866	-0.939226
C	-0.444175	-0.278931	0.212117
C	0.8887	-0.591026	0.864252
O	1.94427	-0.374378	0.272081
H	0.74318	0.525386	-1.28637
H	-1.03614	0.280836	0.925074
C	-1.16114	-1.58876	-0.184645
H	-0.551397	-2.16018	-0.916636
H	-1.35811	-2.22923	0.699537
H	-2.13547	-1.34647	-0.66226
N	0.870577	-1.09014	2.11588
C	2.09081	-1.40638	2.821
H	0.00635467	-1.2517	2.5809
H	1.86696	-1.80653	3.83442
H	2.72532	-0.497763	2.93524
H	2.67965	-2.17091	2.26426
C	5718.59	-0.80265	0.0622158
C	5717.43	-0.0914297	-0.523479
O	5717.58	0.734532	-1.4135
H	5719.52	-0.451151	-0.428936
H	5718.49	-1.89651	-0.0992968
H	5718.65	-0.594648	1.15091
N	5716.23	-0.398525	-0.023186
C	5715.01	0.208741	-0.490172
C	5713.96	0.0439227	0.594267
O	5714.14	-0.734483	1.52885
H	5716.13	-1.05179	0.721871
H	5715.18	1.26958	-0.629101
C	5714.52	-0.444866	-1.80265
H	5714.35	-1.53323	-1.65671
H	5713.58	0.0204457	-2.16511
H	5715.3	-0.318331	-2.58858
N	5712.85	0.794255	0.505119
C	5711.8	0.71356	1.49772
H	5712.72	1.42358	-0.255014
H	5710.97	1.40572	1.24728
H	5712.19	0.986453	2.50438
H	5711.39	-0.321366	1.55508
