44
  This energy is 4.04541e-320 and Call times are: 56223
C	1.35881	1.70992	-2.71219
C	0.20442	1.16328	-1.964
O	-0.944298	1.40673	-2.30704
H	0.98842	2.329	-3.55801
H	1.97881	0.882536	-3.11699
H	1.98012	2.34552	-2.04666
N	0.490669	0.404233	-0.903683
C	-0.52429	-0.198256	-0.0768247
C	0.100403	-0.521445	1.26651
O	1.32109	-0.502976	1.41284
H	1.43034	0.23716	-0.617246
H	-1.31391	0.522771	0.0925478
C	-1.08726	-1.48336	-0.723888
H	-0.274425	-2.22058	-0.896848
H	-1.86913	-1.94976	-0.0899057
H	-1.54096	-1.23336	-1.70766
N	-0.729376	-0.805491	2.28964
C	-0.225737	-1.11369	3.60779
H	-1.71453	-0.808317	2.15287
H	-1.06303	-1.32044	4.31025
H	0.367561	-0.261204	4.01092
H	0.435164	-2.01002	3.57641
C	2667.46	0.595581	2.8157
C	2667.14	-0.173863	1.59273
O	2667.89	-1.04577	1.17805
H	2668.43	0.246813	3.22355
H	2666.67	0.440849	3.58322
H	2667.54	1.67755	2.5782
N	2666	0.142385	0.976222
C	2665.55	-0.517352	-0.22378
C	2664.55	0.396711	-0.914103
O	2664.07	1.36217	-0.323987
H	2665.41	0.87453	1.30763
H	2666.39	-0.648969	-0.889562
C	2664.89	-1.87661	0.0954908
H	2664.02	-1.73795	0.779238
H	2664.54	-2.38736	-0.826292
H	2665.62	-2.53652	0.601956
N	2664.24	0.123688	-2.19566
C	2663.31	0.945566	-2.93752
H	2664.65	-0.658033	-2.658
H	2663.18	0.557472	-3.97194
H	2663.68	1.99511	-3.00034
H	2662.32	0.958882	-2.44112
