44
  This energy is 1.29944e-319 and Call times are: 104103
C	-3.43134	0.550145	0.22219
C	-2.19586	-0.150867	0.638561
O	-2.19554	-0.921894	1.5883
H	-4.26511	0.256704	0.896419
H	-3.69659	0.271818	-0.819443
H	-3.28773	1.64937	0.285594
N	-1.09686	0.111434	-0.0726203
C	0.180255	-0.493191	0.210614
C	1.25615	0.381204	-0.403492
O	0.966588	1.25527	-1.21835
H	-1.10351	0.763694	-0.825912
H	0.335461	-0.502117	1.28202
C	0.265392	-1.92411	-0.365863
H	0.105047	-1.91133	-1.46506
H	1.24743	-2.39267	-0.149448
H	-0.528559	-2.55425	0.0909976
N	2.52812	0.178367	-0.00731083
C	3.61742	0.970667	-0.528718
H	2.74122	-0.529143	0.658458
H	4.58489	0.651031	-0.08254
H	3.46427	2.04968	-0.297376
H	3.6884	0.861485	-1.63516
C	4933.44	-0.176389	2.47705
C	4932.07	0.153151	2.01957
O	4931.2	0.487463	2.81317
H	4933.49	-0.0706759	3.58242
H	4934.18	0.515214	2.01413
H	4933.69	-1.22217	2.20339
N	4931.85	0.0583756	0.707116
C	4930.57	0.346722	0.111114
C	4930.52	-0.342045	-1.23878
O	4931.54	-0.788198	-1.75598
H	4932.56	-0.2432	0.0742558
H	4929.79	-0.0809174	0.728361
C	4930.36	1.86767	-0.0601686
H	4931.16	2.30323	-0.693349
H	4929.37	2.09325	-0.518685
H	4930.4	2.3607	0.935522
N	4929.31	-0.463975	-1.83312
C	4929.16	-1.11547	-3.11372
H	4928.5	-0.102688	-1.3952
H	4928.1	-1.1136	-3.43539
H	4929.51	-2.17251	-3.05919
H	4929.77	-0.593526	-3.89207
