44
  This energy is 9.71531e-320 and Call times are: 121827
C	1.29996	0.816986	3.1255
C	0.161117	0.61765	2.2011
O	-0.993828	0.658408	2.60227
H	0.913017	0.986047	4.15388
H	1.89422	1.70206	2.81515
H	1.95141	-0.0821988	3.12992
N	0.468483	0.388022	0.922369
C	-0.529423	0.17524	-0.0953416
C	0.131715	-0.548904	-1.25195
O	1.35651	-0.626739	-1.3272
H	1.41392	0.328278	0.613318
H	-1.30218	-0.4721	0.299472
C	-1.13202	1.51259	-0.580603
H	-0.336428	2.1745	-0.984378
H	-1.90087	1.35241	-1.36417
H	-1.6122	2.03382	0.276073
N	-0.670103	-1.11747	-2.17381
C	-0.130497	-1.83785	-3.30344
H	-1.65896	-1.04955	-2.09145
H	-0.948608	-2.22896	-3.94763
H	0.48814	-2.69888	-2.96117
H	0.515201	-1.17293	-3.92161
C	5768.09	3.02713	-1.3165
C	5767.86	1.61977	-0.918054
O	5766.74	1.1311	-0.934492
H	5767.12	3.49122	-1.59609
H	5768.78	3.07165	-2.18973
H	5768.53	3.59756	-0.47212
N	5768.94	0.928954	-0.539479
C	5768.88	-0.449821	-0.124678
C	5770.12	-0.742863	0.702446
O	5771.07	0.0351064	0.706909
H	5769.85	1.34687	-0.502552
H	5768.02	-0.58706	0.514199
C	5768.82	-1.40078	-1.34072
H	5769.7	-1.25686	-1.99433
H	5768.77	-2.46323	-1.02492
H	5767.91	-1.17516	-1.93904
N	5770.12	-1.86884	1.44282
C	5771.25	-2.22431	2.27079
H	5769.34	-2.48196	1.43129
H	5771.06	-3.18493	2.79942
H	5771.44	-1.43564	3.03414
H	5772.17	-2.33731	1.6532
