44
  This energy is 1.1492e-319 and Call times are: 29133
C	-0.753043	1.47708	3.06224
C	0.188332	0.807878	2.13639
O	1.37532	0.698224	2.41122
H	-0.199031	1.82566	3.9608
H	-1.54519	0.767507	3.38134
H	-1.22038	2.35346	2.56575
N	-0.329858	0.343663	0.996941
C	0.459052	-0.330681	-0.00291287
C	-0.287214	-0.246283	-1.32018
O	-1.46788	0.0954531	-1.35299
H	-1.29289	0.464974	0.771579
H	1.39839	0.194057	-0.122805
C	0.703112	-1.80859	0.37568
H	-0.26262	-2.34374	0.498538
H	1.31039	-2.33077	-0.391987
H	1.24938	-1.85678	1.34285
N	0.395494	-0.53684	-2.44512
C	-0.228906	-0.472202	-3.74594
H	1.35227	-0.804458	-2.39834
H	0.495228	-0.748194	-4.54388
H	-0.601937	0.557189	-3.95196
H	-1.09497	-1.17081	-3.80138
C	1387.54	-2.24036	-2.61101
C	1388	-1.50507	-1.41128
O	1389.08	-1.74118	-0.902577
H	1388.31	-2.97888	-2.90871
H	1387.37	-1.53466	-3.45201
H	1386.59	-2.7806	-2.39042
N	1387.16	-0.586024	-0.922631
C	1387.47	0.210381	0.23877
C	1386.16	0.732894	0.803048
O	1385.12	0.672544	0.145684
H	1386.27	-0.423344	-1.32879
H	1387.92	-0.423416	0.99061
C	1388.4	1.38866	-0.117369
H	1387.93	2.03643	-0.889392
H	1388.64	2.00388	0.774659
H	1389.35	0.992717	-0.530693
N	1386.18	1.24119	2.05099
C	1384.98	1.75125	2.67532
H	1387.03	1.27469	2.5695
H	1385.2	2.12675	3.69913
H	1384.21	0.952654	2.75296
H	1384.55	2.58911	2.07865
