44
  This energy is 4.30726e-320 and Call times are: 32325
C	-0.824045	2.35595	2.42829
C	-1.18673	1.46439	1.30366
O	-2.3538	1.30618	0.972891
H	-1.74874	2.79522	2.86169
H	-0.169842	3.17805	2.06913
H	-0.295198	1.78105	3.21744
N	-0.176344	0.84814	0.685831
C	-0.370132	-0.0491968	-0.425052
C	0.856216	-0.935056	-0.527822
O	1.88567	-0.656892	0.084284
H	0.767741	0.962624	0.983376
H	-1.22017	-0.686916	-0.218095
C	-0.57738	0.726414	-1.74512
H	0.296203	1.38012	-1.95401
H	-0.727049	0.0385064	-2.60254
H	-1.47793	1.3724	-1.65652
N	0.7661	-2.04108	-1.29241
C	1.87871	-2.95014	-1.44033
H	-0.0779662	-2.25262	-1.77411
H	1.60857	-3.79671	-2.10935
H	2.17969	-3.36683	-0.451884
H	2.75951	-2.42566	-1.87657
C	1536.06	-0.215353	3.45722
C	1535.42	0.351412	2.24728
O	1534.45	1.09716	2.33149
H	1535.52	0.143339	4.3596
H	1537.12	0.110993	3.52021
H	1536.01	-1.32452	3.4291
N	1535.95	-0.00151737	1.07548
C	1535.44	0.468251	-0.188289
C	1535.91	-0.493568	-1.26437
O	1536.79	-1.31646	-1.03274
H	1536.72	-0.632894	1.01876
H	1534.36	0.437835	-0.1651
C	1535.94	1.89648	-0.50019
H	1537.05	1.92418	-0.522551
H	1535.55	2.26135	-1.47252
H	1535.6	2.59112	0.295913
N	1535.31	-0.425574	-2.46702
C	1535.67	-1.30911	-3.54865
H	1534.59	0.242461	-2.6326
H	1535.06	-1.09613	-4.45498
H	1535.51	-2.37279	-3.25961
H	1536.75	-1.18262	-3.81073
