44
  This energy is 6.08936e-320 and Call times are: 69747
C	2.51592	2.1872	-1.00619
C	1.59416	1.6464	0.0180661
O	1.67353	1.9953	1.18788
H	3.22314	2.89756	-0.525466
H	1.94312	2.7257	-1.79024
H	3.09579	1.36318	-1.47275
N	0.688134	0.762711	-0.406874
C	-0.276712	0.149239	0.470367
C	-0.763446	-1.12547	-0.191021
O	-0.53422	-1.34433	-1.37904
H	0.652461	0.464609	-1.35703
H	0.213963	-0.126653	1.39514
C	-1.46818	1.09387	0.744584
H	-1.96882	1.37543	-0.206308
H	-2.21294	0.624693	1.41985
H	-1.09827	2.02426	1.22802
N	-1.43202	-2.01072	0.574056
C	-1.92304	-3.25702	0.033857
H	-1.60128	-1.81855	1.53513
H	-2.4469	-3.84641	0.818363
H	-1.08269	-3.87124	-0.363364
H	-2.63784	-3.06957	-0.799871
C	3310.29	2.88356	0.492491
C	3310.14	1.41072	0.478507
O	3311.11	0.676772	0.635398
H	3311.36	3.14416	0.65254
H	3309.69	3.32068	1.31555
H	3309.96	3.31089	-0.476804
N	3308.91	0.940136	0.280922
C	3308.61	-0.468372	0.241705
C	3307.29	-0.64253	-0.494659
O	3306.56	0.321971	-0.71361
H	3308.13	1.5481	0.125327
H	3309.37	-0.977053	-0.328808
C	3308.5	-1.06079	1.66471
H	3307.71	-0.53619	2.24742
H	3308.27	-2.14523	1.63819
H	3309.47	-0.925854	2.19399
N	3306.97	-1.88187	-0.914966
C	3305.74	-2.14161	-1.63455
H	3307.58	-2.64816	-0.734287
H	3305.66	-3.2206	-1.89144
H	3305.71	-1.55272	-2.57972
H	3304.86	-1.85759	-1.01984
