44
  This energy is 6.72868e-320 and Call times are: 88689
C	-3.04857	-1.53255	0.695452
C	-2.23188	-0.520471	-0.0115963
O	-2.71359	0.177462	-0.893263
H	-4.08189	-1.52225	0.285574
H	-3.09005	-1.3006	1.78049
H	-2.61444	-2.5442	0.550368
N	-0.954239	-0.422381	0.363077
C	-0.0351834	0.515159	-0.231215
C	1.37286	0.0174126	0.0312607
O	1.58254	-0.86867	0.857534
H	-0.566198	-1.01673	1.06244
H	-0.186253	0.524586	-1.3032
C	-0.216579	1.93156	0.358723
H	-0.0615559	1.9181	1.45868
H	0.489444	2.65601	-0.0967825
H	-1.25224	2.28426	0.160867
N	2.37334	0.564714	-0.68673
C	3.74465	0.145515	-0.51366
H	2.18242	1.27551	-1.35572
H	4.41823	0.713888	-1.19225
H	3.85504	-0.940008	-0.73882
H	4.07842	0.31619	0.535457
C	4198.88	0.50545	3.09396
C	4200.09	0.352498	2.24254
O	4201.21	0.536702	2.6931
H	4199.2	0.799954	4.11957
H	4198.33	-0.454768	3.14888
H	4198.22	1.2929	2.68038
N	4199.87	0.0119472	0.969656
C	4200.94	-0.174342	0.0195408
C	4200.35	-0.0315707	-1.37216
O	4199.14	-0.0491032	-1.54749
H	4198.95	-0.106824	0.607255
H	4201.67	0.613774	0.151869
C	4201.6	-1.56262	0.179007
H	4200.84	-2.36875	0.0433003
H	4202.42	-1.70932	-0.550953
H	4202.02	-1.65508	1.20287
N	4201.21	0.135912	-2.39698
C	4200.75	0.292175	-3.75528
H	4202.19	0.154501	-2.23372
H	4201.6	0.415524	-4.45312
H	4200.09	1.1878	-3.84496
H	4200.16	-0.599398	-4.0747
