44
  This energy is 1.50542e-320 and Call times are: 61347
C	3.35735	0.29466	0.876086
C	2.21562	0.58559	-0.0200352
O	2.32324	1.3799	-0.944148
H	4.23544	0.898834	0.560181
H	3.62302	-0.781954	0.820027
H	3.09853	0.557156	1.92349
N	1.07628	-0.0587461	0.242829
C	-0.120697	0.119002	-0.539776
C	-1.30007	-0.319127	0.306605
O	-1.12765	-0.964101	1.33913
H	0.992921	-0.681423	1.0163
H	-0.245427	1.1721	-0.757748
C	-0.0673794	-0.706591	-1.84464
H	0.0613034	-1.78636	-1.61734
H	-0.987441	-0.571923	-2.44973
H	0.801412	-0.376912	-2.4551
N	-2.53196	0.0424574	-0.102901
C	-3.7134	-0.319292	0.645122
H	-2.65021	0.570466	-0.937441
H	-4.62881	0.0682115	0.146021
H	-3.67062	0.102661	1.67535
H	-3.80175	-1.42669	0.728992
C	2910.95	-0.972996	-2.56116
C	2909.6	-0.863087	-1.96743
O	2908.6	-1.16493	-2.60687
H	2910.86	-1.34349	-3.6057
H	2911.57	-1.68698	-1.97676
H	2911.44	0.0207461	-2.57225
N	2909.54	-0.414956	-0.711332
C	2908.29	-0.254107	0.0014874
C	2908.53	0.723939	1.13572
O	2909.67	1.03158	1.47218
H	2910.35	-0.144712	-0.210965
H	2907.56	0.184721	-0.663485
C	2907.79	-1.6026	0.559944
H	2908.54	-2.05031	1.24119
H	2906.83	-1.48241	1.10927
H	2907.62	-2.31055	-0.280604
N	2907.45	1.2544	1.73996
C	2907.58	2.2032	2.82142
H	2906.53	0.998226	1.44847
H	2906.58	2.52115	3.18626
H	2908.13	3.10926	2.48555
H	2908.14	1.75369	3.67473
