44
  This energy is 1.04149e-320 and Call times are: 25353
C	3.19352	-0.324874	1.34981
C	1.79521	0.156305	1.41602
O	1.34997	0.668304	2.43392
H	3.69109	-0.143275	2.32721
H	3.74848	0.219969	0.557357
H	3.21389	-1.41368	1.13296
N	1.05931	-0.00633106	0.314031
C	-0.317092	0.411205	0.224611
C	-0.967042	-0.365034	-0.904219
O	-0.282988	-0.987691	-1.71428
H	1.42487	-0.451287	-0.499184
H	-0.825863	0.145041	1.14243
C	-0.428297	1.92908	-0.0414855
H	0.0952811	2.19873	-0.983436
H	-1.48679	2.25399	-0.110762
H	0.0524887	2.48638	0.791824
N	-2.31301	-0.363122	-0.970228
C	-3.01991	-1.0838	-2.00324
H	-2.84909	0.140987	-0.301102
H	-4.11914	-0.958089	-1.88856
H	-2.7846	-2.17169	-1.95462
H	-2.72777	-0.712117	-3.01204
C	1206.41	3.42671	0.185279
C	1206.5	2.08605	0.806281
O	1206.41	1.94322	2.0182
H	1206.27	4.19099	0.980261
H	1205.54	3.46856	-0.510234
H	1207.34	3.6546	-0.371449
N	1206.68	1.05836	-0.0257231
C	1206.79	-0.305212	0.428118
C	1207.49	-1.10222	-0.653345
O	1207.64	-0.63911	-1.78343
H	1206.78	1.19084	-1.00852
H	1207.41	-0.333275	1.31412
C	1205.4	-0.913108	0.716703
H	1204.77	-0.882099	-0.194161
H	1205.48	-1.96295	1.06651
H	1204.9	-0.319654	1.50962
N	1207.97	-2.31823	-0.323019
C	1208.67	-3.14395	-1.28364
H	1207.85	-2.6724	0.598744
H	1208.98	-4.10606	-0.821614
H	1209.58	-2.62489	-1.66333
H	1208.01	-3.37055	-2.15443
