44
  This energy is 7.59132e-320 and Call times are: 114897
C	-1.48627	2.26679	-2.18604
C	-0.58591	1.9483	-1.05506
O	0.13535	2.80367	-0.560469
H	-1.36758	3.33773	-2.45965
H	-2.54274	2.08472	-1.89699
H	-1.2311	1.64044	-3.06668
N	-0.60528	0.68669	-0.618785
C	0.213747	0.22461	0.473233
C	0.336943	-1.2823	0.358044
O	-0.403803	-1.91825	-0.389423
H	-1.17585	-0.0077845	-1.04901
H	1.20633	0.644576	0.370835
C	-0.402234	0.604492	1.83829
H	-1.42071	0.172587	1.9397
H	0.225955	0.250338	2.68134
H	-0.488237	1.71068	1.90972
N	1.29667	-1.88836	1.08442
C	1.49625	-3.31783	1.02989
H	1.89075	-1.35546	1.67798
H	2.33062	-3.62419	1.69863
H	1.74197	-3.64092	-0.00764037
H	0.574678	-3.85587	1.34991
C	5443.08	-0.00765056	-3.04863
C	5442.89	-0.508606	-1.66982
O	5443.52	-1.46926	-1.24939
H	5443.84	-0.6356	-3.56203
H	5443.44	1.04324	-3.02622
H	5442.13	-0.0613884	-3.61591
N	5441.99	0.139861	-0.926655
C	5441.68	-0.229113	0.433184
C	5440.32	0.333941	0.775913
O	5439.79	1.17895	0.0569715
H	5441.46	0.902858	-1.29021
H	5441.62	-1.30788	0.499364
C	5442.74	0.317572	1.41378
H	5442.81	1.42445	1.34278
H	5442.51	0.0351651	2.46174
H	5443.74	-0.101358	1.15135
N	5439.7	-0.14083	1.87795
C	5438.4	0.327548	2.27644
H	5440.15	-0.829719	2.44281
H	5438.06	-0.180854	3.20815
H	5437.65	0.123595	1.47872
H	5438.41	1.42582	2.46276
