44
  This energy is 6.21732e-320 and Call times are: 101373
C	-0.91383	2.76642	1.90735
C	-0.414851	2.15695	0.654042
O	-0.252149	2.82902	-0.355092
H	-1.09456	3.85077	1.74187
H	-0.162901	2.64665	2.71641
H	-1.86678	2.28589	2.21382
N	-0.162902	0.846416	0.691264
C	0.327231	0.112038	-0.447722
C	0.00656815	-1.35391	-0.230013
O	-0.341534	-1.76375	0.875742
H	-0.327161	0.304364	1.5111
H	-0.205697	0.437512	-1.3321
C	1.85009	0.301898	-0.626521
H	2.39366	-0.0323677	0.282829
H	2.23078	-0.262099	-1.50274
H	2.07196	1.37992	-0.783984
N	0.0962718	-2.17791	-1.29255
C	-0.201408	-3.58703	-1.18326
H	0.372781	-1.82578	-2.18069
H	-0.0677815	-4.0944	-2.16406
H	-1.2529	-3.74168	-0.849049
H	0.471869	-4.07463	-0.441559
C	4800.41	-2.14509	2.67992
C	4801.24	-1.1388	1.97434
O	4802.23	-0.651396	2.50097
H	4800.85	-2.33235	3.6874
H	4800.4	-3.09837	2.11072
H	4799.37	-1.77352	2.79723
N	4800.84	-0.796858	0.747992
C	4801.54	0.167964	-0.0629191
C	4800.57	0.686479	-1.10837
O	4799.5	0.109083	-1.32048
H	4800.01	-1.17951	0.341365
H	4801.83	1.00476	0.558908
C	4802.77	-0.460982	-0.747288
H	4802.47	-1.31952	-1.38388
H	4803.31	0.279225	-1.37236
H	4803.47	-0.83798	0.0291396
N	4800.91	1.80776	-1.77394
C	4800.04	2.38183	-2.7786
H	4801.77	2.2644	-1.58288
H	4800.5	3.2991	-3.21215
H	4799.06	2.65513	-2.33854
H	4799.86	1.65561	-3.60415
