44
  This energy is 9.64861e-320 and Call times are: 52233
C	-3.37671	-0.651704	0.547052
C	-2.10067	0.00145747	0.916247
O	-2.0494	0.823688	1.82057
H	-4.18959	-0.264605	1.19916
H	-3.29792	-1.75061	0.684993
H	-3.6284	-0.429431	-0.511339
N	-1.02628	-0.352911	0.20739
C	0.284686	0.194926	0.44838
C	1.11098	-0.0044012	-0.807308
O	0.730582	-0.76414	-1.69609
H	-1.08648	-1.00224	-0.546058
H	0.1951	1.2605	0.617494
C	0.969789	-0.493425	1.65001
H	1.05946	-1.58654	1.47345
H	1.97937	-0.0738907	1.83845
H	0.354143	-0.341119	2.56321
N	2.25747	0.694987	-0.918735
C	3.10331	0.578758	-2.08373
H	2.54453	1.31013	-0.191804
H	3.99917	1.23076	-1.98588
H	2.54978	0.879329	-3.0027
H	3.44746	-0.472512	-2.2163
C	2480.02	-0.251875	2.2775
C	2479.46	-0.415708	0.918795
O	2480.17	-0.732523	-0.0264949
H	2481.12	-0.452069	2.24789
H	2479.54	-0.967921	2.97894
H	2479.86	0.785023	2.63845
N	2478.15	-0.193602	0.789954
C	2477.45	-0.313375	-0.467853
C	2476.17	0.485252	-0.369498
O	2475.75	0.876345	0.719744
H	2477.59	0.0923517	1.56198
H	2478.06	0.132216	-1.247
C	2477.14	-1.78938	-0.797846
H	2476.52	-2.24358	0.00384389
H	2476.61	-1.88525	-1.76579
H	2478.09	-2.36384	-0.865986
N	2475.52	0.765449	-1.5156
C	2474.29	1.5303	-1.52104
H	2475.87	0.446151	-2.38773
H	2473.91	1.6526	-2.55829
H	2474.46	2.54288	-1.08742
H	2473.51	1.0206	-0.915762
