44
  This energy is 1.40186e-319 and Call times are: 72687
C	-2.34428	-2.44915	0.795094
C	-0.953218	-2.01379	0.536984
O	-0.00946005	-2.77048	0.719286
H	-2.33886	-3.49969	1.15867
H	-2.94159	-2.39536	-0.139325
H	-2.8102	-1.80341	1.56896
N	-0.794569	-0.760548	0.105021
C	0.496869	-0.19295	-0.18968
C	0.365202	1.31674	-0.137326
O	-0.742081	1.85123	-0.128937
H	-1.56909	-0.144584	-0.0117437
H	1.19583	-0.489142	0.582201
C	1.00084	-0.634319	-1.58192
H	0.281092	-0.329455	-2.3713
H	1.99508	-0.199188	-1.81198
H	1.09191	-1.74211	-1.60768
N	1.49979	2.04149	-0.0785919
C	1.47238	3.48415	-0.014058
H	2.38605	1.59008	-0.0791982
H	2.50499	3.89567	0.0263426
H	0.922952	3.8265	0.892676
H	0.960697	3.90797	-0.908338
C	3445	-0.582295	0.468377
C	3446.15	0.330423	0.304767
O	3445.99	1.53725	0.184719
H	3444.06	0.00902997	0.452076
H	3445.07	-1.11843	1.43811
H	3444.97	-1.32042	-0.360775
N	3447.36	-0.237643	0.290528
C	3448.58	0.518445	0.139629
C	3449.66	-0.428533	-0.348313
O	3449.49	-1.6461	-0.30574
H	3447.48	-1.22494	0.360006
H	3448.43	1.27202	-0.623814
C	3449.01	1.16851	1.47445
H	3449.15	0.392652	2.25556
H	3449.94	1.75159	1.36181
H	3448.21	1.8589	1.82178
N	3450.79	0.113439	-0.846346
C	3451.86	-0.709489	-1.34524
H	3450.9	1.10114	-0.878843
H	3452.7	-0.0786467	-1.70997
H	3451.51	-1.34732	-2.18854
H	3452.25	-1.37939	-0.543422
