44
  This energy is 1.15997e-319 and Call times are: 84237
C	2.26232	2.63441	0.260626
C	1.95105	1.1899	0.172805
O	2.83943	0.357582	0.0523753
H	3.36263	2.77781	0.192671
H	1.90563	3.04445	1.22885
H	1.77626	3.18223	-0.573982
N	0.659184	0.85735	0.226343
C	0.199516	-0.50657	0.153842
C	-1.25447	-0.485979	-0.275962
O	-1.90219	0.558883	-0.252373
H	-0.0569195	1.54683	0.295265
H	0.761376	-1.02703	-0.611344
C	0.340628	-1.2209	1.51654
H	-0.236462	-0.683948	2.29933
H	-0.0122724	-2.27138	1.46424
H	1.40999	-1.22825	1.82075
N	-1.79687	-1.64375	-0.701841
C	-3.1706	-1.71786	-1.14177
H	-1.25424	-2.47708	-0.720267
H	-3.42907	-2.75457	-1.45112
H	-3.34246	-1.04015	-2.00919
H	-3.86241	-1.41332	-0.323336
C	3989.98	0.611559	-2.76867
C	3990.43	0.919891	-1.393
O	3990.03	1.91685	-0.80561
H	3989.28	1.40556	-3.11293
H	3989.45	-0.364611	-2.78809
H	3990.85	0.57417	-3.45766
N	3991.29	0.0582021	-0.843602
C	3991.82	0.222393	0.48706
C	3993.1	-0.586014	0.583413
O	3993.38	-1.42075	-0.274154
H	3991.63	-0.734774	-1.34322
H	3992.07	1.26332	0.63781
C	3990.81	-0.251861	1.55581
H	3990.55	-1.31993	1.39777
H	3991.21	-0.126698	2.58158
H	3989.87	0.347214	1.47395
N	3993.91	-0.339416	1.62532
C	3995.16	-1.05169	1.7932
H	3993.67	0.345062	2.30492
H	3995.69	-0.708518	2.7096
H	3995.83	-0.884017	0.918628
H	3994.98	-2.147	1.88314
