44
  This energy is 7.85268e-320 and Call times are: 9855
C	-1.39811	-1.74086	2.67223
C	-1.07126	-1.60625	1.23478
O	-1.2679	-2.52599	0.452549
H	-1.81004	-2.75588	2.86173
H	-2.15692	-0.984798	2.96446
H	-0.483888	-1.60343	3.28725
N	-0.550607	-0.438043	0.851911
C	-0.181845	-0.156285	-0.51244
C	0.815256	0.986016	-0.49916
O	0.981254	1.66376	0.513231
H	-0.368152	0.29311	1.50388
H	0.316231	-1.02285	-0.928435
C	-1.41526	0.224995	-1.36122
H	-1.9242	1.11394	-0.931249
H	-1.13492	0.442443	-2.41236
H	-2.13848	-0.619459	-1.36199
N	1.52154	1.21235	-1.6243
C	2.50178	2.27038	-1.70116
H	1.37787	0.648359	-2.43083
H	2.97376	2.29679	-2.70803
H	3.3033	2.11926	-0.942225
H	2.02756	3.26021	-1.51005
C	475.197	3.08932	0.794858
C	475.019	1.64002	1.03796
O	475.69	1.05198	1.87482
H	475.994	3.4789	1.46437
H	474.252	3.6318	1.00808
H	475.494	3.26688	-0.25999
N	474.098	1.02251	0.293881
C	473.81	-0.384394	0.414993
C	473.144	-0.835941	-0.869961
O	472.712	-0.014403	-1.67619
H	473.578	1.50666	-0.404924
H	474.742	-0.927155	0.510532
C	472.887	-0.667891	1.62065
H	471.932	-0.108993	1.51971
H	472.663	-1.75029	1.71693
H	473.386	-0.331558	2.55547
N	473.065	-2.16124	-1.10094
C	472.458	-2.68395	-2.30288
H	473.427	-2.8099	-0.439625
H	472.488	-3.79586	-2.30702
H	472.996	-2.31549	-3.20658
H	471.394	-2.36152	-2.37835
