44
  This energy is 1.45952e-319 and Call times are: 30267
C	-2.2693	-2.54885	0.69264
C	-1.17573	-1.96383	-0.115482
O	-0.62352	-2.61042	-0.994956
H	-2.45105	-3.59467	0.362349
H	-3.20185	-1.9618	0.556448
H	-1.99021	-2.55473	1.76736
N	-0.830632	-0.707279	0.174955
C	0.214318	-0.00234025	-0.523593
C	0.68207	1.13535	0.363034
O	0.0242035	1.47992	1.34299
H	-1.26837	-0.201004	0.913201
H	1.05284	-0.671263	-0.670185
C	-0.287079	0.550119	-1.87656
H	-1.14773	1.23544	-1.72251
H	0.515062	1.09337	-2.41714
H	-0.627939	-0.29291	-2.51629
N	1.84819	1.73349	0.0493625
C	2.37871	2.81763	0.84269
H	2.36948	1.43547	-0.743528
H	3.34412	3.17649	0.42263
H	2.55434	2.4872	1.89208
H	1.66611	3.67371	0.864963
C	1443.24	-1.64179	2.09615
C	1442.63	-1.41545	0.768269
O	1443.07	-1.96212	-0.233592
H	1444.1	-2.33749	1.98926
H	1442.5	-2.09174	2.78887
H	1443.61	-0.681573	2.51818
N	1441.59	-0.585152	0.731679
C	1440.88	-0.266014	-0.485465
C	1440.14	1.04022	-0.268195
O	1440	1.5009	0.8628
H	1441.25	-0.123281	1.55019
H	1441.6	-0.108147	-1.27709
C	1439.89	-1.3826	-0.869007
H	1439.15	-1.54238	-0.054406
H	1439.34	-1.14016	-1.80583
H	1440.44	-2.33434	-1.02423
N	1439.67	1.6811	-1.35652
C	1438.97	2.93672	-1.2481
H	1439.81	1.29564	-2.26383
H	1438.66	3.30303	-2.25237
H	1439.62	3.71115	-0.775354
H	1438.05	2.82107	-0.621993
