44
  This energy is 4.07061e-320 and Call times are: 2379
C	-1.31992	-3.20104	0.370523
C	-1.07377	-1.82895	0.868493
O	-1.59	-1.4294	1.90308
H	-2.00897	-3.72642	1.06697
H	-0.365181	-3.76523	0.315929
H	-1.78571	-3.16495	-0.636789
N	-0.27004	-1.06395	0.126094
C	0.0641916	0.292462	0.480034
C	0.527457	1.0015	-0.777696
O	0.807743	0.364541	-1.79138
H	0.121134	-1.39127	-0.729931
H	-0.828399	0.794671	0.830948
C	1.17399	0.336368	1.55406
H	2.08797	-0.180307	1.19101
H	1.43368	1.37931	1.82903
H	0.822737	-0.187287	2.46979
N	0.597779	2.34691	-0.746941
C	1.01696	3.10822	-1.90057
H	0.359904	2.84461	0.0806691
H	1.01118	4.19764	-1.67608
H	0.334583	2.92424	-2.76182
H	2.04776	2.81915	-2.20892
C	118.854	2.02419	1.58893
C	120.195	1.40216	1.50855
O	121.08	1.70322	2.29731
H	118.836	2.75145	2.42956
H	118.082	1.247	1.76984
H	118.624	2.56082	0.644521
N	120.377	0.509803	0.532397
C	121.626	-0.179594	0.326633
C	121.651	-0.680571	-1.10432
O	120.625	-0.697703	-1.78256
H	119.657	0.294591	-0.121852
H	122.44	0.524576	0.44307
C	121.783	-1.36348	1.30686
H	120.946	-2.08357	1.18517
H	122.743	-1.89644	1.15127
H	121.761	-0.983448	2.3515
N	122.836	-1.08183	-1.60526
C	122.959	-1.56306	-2.96152
H	123.656	-1.05364	-1.0428
H	124.011	-1.84652	-3.18428
H	122.646	-0.777385	-3.68703
H	122.313	-2.45697	-3.12148
