44
  This energy is 1.49954e-319 and Call times are: 73065
C	0.849822	-0.764902	3.2892
C	0.996544	0.0514636	2.06314
O	1.68703	1.06124	2.05443
H	1.43718	-0.301501	4.11148
H	1.22929	-1.79318	3.11183
H	-0.217357	-0.812199	3.59225
N	0.333408	-0.373221	0.985062
C	0.377568	0.314127	-0.280809
C	-0.840119	-0.105036	-1.0813
O	-1.5131	-1.07582	-0.73995
H	-0.2491	-1.18121	1.01281
H	0.304852	1.37994	-0.105199
C	1.66798	-0.0245587	-1.06006
H	1.7397	-1.11879	-1.23789
H	1.7053	0.503142	-2.03521
H	2.55262	0.286276	-0.462611
N	-1.16483	0.635609	-2.15926
C	-2.31414	0.319436	-2.97492
H	-0.611776	1.42171	-2.41502
H	-2.41195	1.04309	-3.81397
H	-3.24829	0.357077	-2.36895
H	-2.22194	-0.704588	-3.40393
C	3466.66	3.4723	-0.010399
C	3466.94	2.14419	-0.602303
O	3467.47	2.03902	-1.69946
H	3467	4.26518	-0.712439
H	3467.21	3.58515	0.949395
H	3465.57	3.59162	0.168788
N	3466.58	1.08403	0.12235
C	3466.78	-0.272468	-0.319371
C	3465.82	-1.16146	0.447374
O	3465.23	-0.741569	1.44305
H	3466.12	1.18305	1.00178
H	3466.53	-0.342593	-1.36938
C	3468.24	-0.729724	-0.0778574
H	3468.49	-0.655864	1.00023
H	3468.4	-1.77374	-0.416984
H	3468.93	-0.0699207	-0.6439
N	3465.62	-2.41152	-0.0149389
C	3464.72	-3.32533	0.642871
H	3466.1	-2.73028	-0.826396
H	3464.69	-4.30316	0.113286
H	3463.68	-2.90991	0.661129
H	3465.03	-3.50456	1.69524
