44
  This energy is 6.01426e-320 and Call times are: 107757
C	1.37928	-2.7153	-1.68844
C	0.50694	-2.14171	-0.639052
O	-0.233777	-2.85266	0.0260695
H	1.22213	-3.8148	-1.73619
H	2.44532	-2.51464	-1.45159
H	1.13095	-2.27352	-2.67642
N	0.573432	-0.819043	-0.470262
C	-0.213609	-0.115742	0.510943
C	-0.290124	1.33925	0.0909592
O	0.459172	1.78322	-0.776956
H	1.15937	-0.24716	-1.03821
H	-1.2206	-0.513241	0.504918
C	0.410594	-0.229958	1.91964
H	1.44383	0.178125	1.92204
H	-0.192987	0.310335	2.67764
H	0.462132	-1.30055	2.21513
N	-1.21872	2.11361	0.685991
C	-1.37314	3.50786	0.341865
H	-1.82049	1.73396	1.38096
H	-2.18696	3.97292	0.940742
H	-1.62415	3.62059	-0.73773
H	-0.430007	4.06775	0.537335
C	5100.64	-1.12443	-0.496652
C	5101.62	-0.215871	0.138892
O	5101.26	0.730772	0.822297
H	5099.61	-0.786407	-0.247113
H	5100.78	-2.16016	-0.121437
H	5100.77	-1.11141	-1.5999
N	5102.91	-0.486276	-0.0818384
C	5103.98	0.306189	0.468691
C	5105.22	0.0616287	-0.369728
O	5105.27	-0.877646	-1.16175
H	5103.2	-1.24317	-0.664298
H	5103.73	1.35425	0.37916
C	5104.26	-0.0653892	1.94311
H	5104.52	-1.14139	2.03138
H	5105.08	0.54303	2.37018
H	5103.34	0.117121	2.54643
N	5106.25	0.920249	-0.229243
C	5107.47	0.773692	-0.994424
H	5106.19	1.67832	0.411747
H	5108.19	1.57542	-0.735774
H	5107.25	0.832918	-2.08633
H	5107.94	-0.211706	-0.78884
