44
  This energy is 1.0197e-319 and Call times are: 109521
C	2.24547	-2.25424	1.41506
C	1.89329	-0.903331	0.922909
O	2.64944	0.0449918	1.08234
H	3.23841	-2.21623	1.91354
H	2.29625	-2.96915	0.567037
H	1.48843	-2.60404	2.14819
N	0.713881	-0.7848	0.30865
C	0.232301	0.464483	-0.224453
C	-1.27454	0.363186	-0.360092
O	-1.84104	-0.725236	-0.28103
H	0.093977	-1.5588	0.210757
H	0.446433	1.25504	0.483537
C	0.869766	0.773137	-1.59758
H	0.648681	-0.0402108	-2.32126
H	0.50126	1.73447	-2.01088
H	1.97361	0.843642	-1.48491
N	-1.96358	1.50612	-0.546972
C	-3.40225	1.50879	-0.675059
H	-1.48758	2.37775	-0.601061
H	-3.78183	2.54361	-0.824426
H	-3.87896	1.08934	0.240395
H	-3.72059	0.889514	-1.54474
C	5187.48	-0.131718	3.45379
C	5187.23	-0.657194	2.0915
O	5186.65	-1.72165	1.91793
H	5187.07	-0.846207	4.20138
H	5186.97	0.849037	3.58135
H	5188.57	-0.0117912	3.62879
N	5187.68	0.0888675	1.07924
C	5187.52	-0.289285	-0.301957
C	5188.55	0.462528	-1.11513
O	5189.17	1.41073	-0.629079
H	5188.18	0.93989	1.23451
H	5187.73	-1.34716	-0.403618
C	5186.1	0.0420047	-0.813398
H	5185.89	1.12793	-0.707012
H	5185.97	-0.248019	-1.87655
H	5185.35	-0.513917	-0.208888
N	5188.79	0.0396177	-2.37296
C	5189.77	0.686416	-3.21782
H	5188.29	-0.734025	-2.74571
H	5189.81	0.194491	-4.21442
H	5190.78	0.637046	-2.75633
H	5189.51	1.75951	-3.36783
