44
  This energy is 1.36253e-319 and Call times are: 117249
C	-2.10594	-1.19829	2.50106
C	-0.758206	-0.970349	1.93284
O	0.250699	-1.21056	2.58161
H	-2.00648	-1.58688	3.53786
H	-2.65798	-1.94279	1.88967
H	-2.67643	-0.246028	2.52732
N	-0.712976	-0.487765	0.688878
C	0.523529	-0.214484	0.000982438
C	0.228778	0.770393	-1.11364
O	-0.928317	0.997832	-1.46182
H	-1.54207	-0.268707	0.181389
H	1.21056	0.262595	0.688335
C	1.14096	-1.50586	-0.580612
H	0.43323	-1.99304	-1.2848
H	2.09326	-1.29907	-1.11083
H	1.3511	-2.21946	0.24568
N	1.27501	1.39706	-1.68695
C	1.09035	2.35984	-2.74768
H	2.20335	1.2047	-1.38628
H	2.06971	2.76261	-3.08807
H	0.462701	3.21208	-2.39984
H	0.581768	1.89023	-3.62061
C	5550.77	-0.960861	2.0722
C	5551.53	0.0663474	1.32361
O	5551.12	1.21282	1.22515
H	5549.84	-0.508404	2.47422
H	5551.38	-1.34388	2.91893
H	5550.5	-1.80291	1.40051
N	5552.68	-0.331877	0.765758
C	5553.52	0.551865	0.00689924
C	5554.41	-0.30076	-0.882223
O	5554.51	-1.51198	-0.694899
H	5552.99	-1.27581	0.828519
H	5552.91	1.16668	-0.635661
C	5554.39	1.43095	0.933941
H	5555.02	0.797006	1.59219
H	5555.05	2.11274	0.352883
H	5553.73	2.04971	1.58083
N	5555.06	0.313143	-1.89031
C	5555.91	-0.419512	-2.79526
H	5554.96	1.293	-2.02983
H	5556.36	0.26149	-3.55366
H	5555.34	-1.20861	-3.32901
H	5556.74	-0.914801	-2.23909
