44
  This energy is 2.98613e-320 and Call times are: 26025
C	-2.5746	1.18653	2.0223
C	-1.19049	0.698396	1.82956
O	-0.377381	0.725057	2.74315
H	-2.69401	1.54953	3.06625
H	-3.29875	0.364223	1.84275
H	-2.78599	2.0238	1.32427
N	-0.887496	0.239631	0.612969
C	0.417134	-0.268693	0.271828
C	0.563132	-0.20292	-1.23602
O	-0.41632	-0.0132087	-1.95471
H	-1.55027	0.250165	-0.131041
H	1.1706	0.37768	0.703765
C	0.599534	-1.72308	0.760305
H	-0.175467	-2.3833	0.315788
H	1.60308	-2.11755	0.49941
H	0.4891	-1.75794	1.86608
N	1.80132	-0.337454	-1.7506
C	2.03875	-0.276671	-3.17402
H	2.58212	-0.483154	-1.15198
H	3.11991	-0.41071	-3.39843
H	1.71489	0.707053	-3.58469
H	1.46931	-1.07554	-3.70197
C	1237.46	-2.67684	1.60736
C	1238.34	-1.48647	1.61388
O	1238.78	-1.03515	2.65985
H	1237.3	-3.02569	2.65165
H	1237.93	-3.49506	1.02033
H	1236.47	-2.42176	1.16487
N	1238.61	-0.940533	0.425365
C	1239.45	0.220114	0.269801
C	1239.12	0.856439	-1.06701
O	1238.46	0.248511	-1.90773
H	1238.21	-1.30007	-0.416873
H	1239.2	0.936919	1.04375
C	1240.94	-0.157415	0.325934
H	1241.19	-0.893408	-0.468958
H	1241.59	0.73397	0.206629
H	1241.17	-0.623575	1.30951
N	1239.56	2.11178	-1.2859
C	1239.28	2.80264	-2.5244
H	1240.08	2.5896	-0.590316
H	1239.73	3.82187	-2.51294
H	1238.18	2.90171	-2.68447
H	1239.71	2.24356	-3.38884
