44
  This energy is 8.13726e-321 and Call times are: 42825
C	-2.93811	-1.86416	-0.136141
C	-1.93087	-1.07461	0.60768
O	-2.10483	-0.771115	1.77991
H	-3.79667	-2.08836	0.533539
H	-2.49402	-2.82068	-0.483529
H	-3.30583	-1.28829	-1.01141
N	-0.839692	-0.714513	-0.0720494
C	0.228271	0.0548677	0.514751
C	1.00493	0.708565	-0.611623
O	0.848911	0.345683	-1.77601
H	-0.723021	-0.943025	-1.03491
H	-0.198421	0.843711	1.12116
C	1.16593	-0.836918	1.35893
H	1.60138	-1.64549	0.733865
H	1.98931	-0.247654	1.81235
H	0.584801	-1.31086	2.17979
N	1.84885	1.70895	-0.290643
C	2.62144	2.39821	-1.29772
H	1.95584	1.99286	0.656555
H	3.25608	3.18617	-0.835554
H	1.95094	2.88163	-2.0447
H	3.28531	1.6862	-1.83947
C	2033.07	2.42207	2.3818
C	2033.35	1.14875	1.68236
O	2034.39	0.537546	1.87909
H	2033.92	2.67416	3.04701
H	2032.15	2.32352	2.99803
H	2032.93	3.24161	1.64501
N	2032.42	0.718352	0.831528
C	2032.55	-0.502757	0.0776891
C	2031.62	-0.416401	-1.11601
O	2030.74	0.447913	-1.17123
H	2031.58	1.24015	0.658115
H	2033.56	-0.5758	-0.299273
C	2032.19	-1.73623	0.938569
H	2031.16	-1.65768	1.3242
H	2032.3	-2.6782	0.361244
H	2032.88	-1.78749	1.81022
N	2031.8	-1.30297	-2.11477
C	2030.97	-1.28954	-3.29617
H	2032.51	-1.99026	-2.05458
H	2031.27	-2.09619	-3.99942
H	2031.05	-0.312848	-3.82536
H	2029.9	-1.44364	-3.02612
