44
  This energy is 8.82352e-320 and Call times are: 4185
C	-1.67635	2.00059	2.30513
C	-0.699357	0.940389	1.96949
O	0.029745	0.458177	2.82528
H	-1.60187	2.23909	3.38838
H	-2.70779	1.65442	2.08349
H	-1.46111	2.91897	1.71929
N	-0.659795	0.553186	0.69243
C	0.237214	-0.467574	0.212583
C	0.390695	-0.286457	-1.28504
O	-0.379155	0.438219	-1.91274
H	-1.23855	0.97421	-0.000904958
H	1.21062	-0.320743	0.663142
C	-0.301561	-1.88168	0.524254
H	-1.30056	-2.02866	0.0610954
H	0.386775	-2.67007	0.156268
H	-0.410626	-2.00127	1.62423
N	1.40883	-0.928289	-1.89122
C	1.64038	-0.805989	-3.31164
H	2.02532	-1.50448	-1.36473
H	2.52234	-1.40971	-3.61973
H	1.82879	0.256483	-3.58895
H	0.754387	-1.16089	-3.88632
C	208.477	2.78627	1.65311
C	208.654	1.54965	0.858958
O	209.749	1.23484	0.4141
H	209.453	3.31057	1.73882
H	208.112	2.53776	2.67184
H	207.749	3.46076	1.1544
N	207.559	0.813305	0.656302
C	207.571	-0.415869	-0.0958909
C	206.155	-0.691721	-0.561832
O	205.205	-0.0763399	-0.0825517
H	206.667	1.09549	0.999243
H	208.187	-0.283233	-0.976282
C	208.088	-1.5938	0.760102
H	207.454	-1.72662	1.66277
H	208.099	-2.5418	0.18394
H	209.126	-1.37896	1.09615
N	205.984	-1.61422	-1.52912
C	204.673	-1.9347	-2.04399
H	206.766	-2.09631	-1.90923
H	204.74	-2.71731	-2.83154
H	204.193	-1.03197	-2.48709
H	204.012	-2.31216	-1.23008
