44
  This energy is 1.28126e-319 and Call times are: 47361
C	0.687076	3.38741	0.423655
C	1.11585	1.97327	0.33675
O	2.30126	1.67152	0.321286
H	1.58497	4.04186	0.460242
H	0.0866993	3.5493	1.34352
H	0.0804512	3.65892	-0.465861
N	0.142801	1.06154	0.271179
C	0.402022	-0.353348	0.183333
C	-0.835373	-1.01921	-0.386507
O	-1.90333	-0.413025	-0.448473
H	-0.818924	1.32186	0.255237
H	1.21487	-0.519629	-0.512156
C	0.736845	-0.950913	1.56822
H	-0.0988773	-0.777947	2.2794
H	0.937142	-2.04021	1.5042
H	1.64432	-0.454019	1.97533
N	-0.713251	-2.28288	-0.838432
C	-1.83428	-2.99315	-1.4085
H	0.161184	-2.75389	-0.786086
H	-1.53357	-4.01793	-1.71938
H	-2.22581	-2.45634	-2.30281
H	-2.66218	-3.08004	-0.668091
C	2251.2	-1.90646	-0.314087
C	2249.88	-1.63567	0.298969
O	2249.36	-2.43671	1.06476
H	2251.57	-2.89529	0.0334875
H	2251.93	-1.12414	-0.0144921
H	2251.11	-1.92451	-1.4208
N	2249.29	-0.482644	-0.0356158
C	2248.01	-0.0785953	0.478898
C	2247.43	0.959759	-0.465092
O	2248.14	1.49744	-1.31431
H	2249.71	0.148282	-0.683187
H	2247.34	-0.932301	0.473325
C	2248.13	0.508505	1.90265
H	2248.82	1.3837	1.90483
H	2247.15	0.820505	2.30191
H	2248.56	-0.261412	2.58416
N	2246.12	1.25072	-0.351465
C	2245.49	2.21772	-1.21481
H	2245.57	0.799608	0.337366
H	2244.41	2.31832	-0.963933
H	2245.57	1.90769	-2.28158
H	2245.97	3.21734	-1.10681
