44
  This energy is 1.12054e-319 and Call times are: 52821
C	-0.0975934	0.837809	-3.37856
C	-0.765682	0.534712	-2.09287
O	-1.97486	0.666067	-1.96196
H	-0.856527	1.18077	-4.11494
H	0.401522	-0.0717293	-3.77409
H	0.655939	1.64123	-3.2384
N	0.0226459	0.120979	-1.09802
C	-0.480202	-0.212315	0.21075
C	0.674748	-0.126104	1.18947
O	1.83541	-0.0648954	0.7883
H	1.0101	0.0458993	-1.20859
H	-1.21551	0.526293	0.503772
C	-1.09147	-1.63109	0.233963
H	-0.334612	-2.38623	-0.0677983
H	-1.47976	-1.8909	1.2402
H	-1.93554	-1.6815	-0.487947
N	0.379347	-0.097251	2.50397
C	1.41271	-0.00416571	3.5088
H	-0.566526	-0.140591	2.8084
H	0.969565	0.00431326	4.529
H	2.00619	0.929418	3.37671
H	2.11027	-0.86983	3.43662
C	2508.65	1.18977	0.394632
C	2507.57	0.602949	-0.430224
O	2507.7	0.458969	-1.63768
H	2509.51	1.44848	-0.258472
H	2508.98	0.459539	1.16051
H	2508.29	2.11232	0.896836
N	2506.45	0.251381	0.215104
C	2505.32	-0.332465	-0.450173
C	2504.1	-0.119456	0.431203
O	2504.23	0.232885	1.60236
H	2506.35	0.400622	1.19443
H	2505.14	0.193979	-1.38042
C	2505.53	-1.84114	-0.707145
H	2505.71	-2.37803	0.249212
H	2504.66	-2.29384	-1.21942
H	2506.42	-1.98381	-1.35286
N	2502.89	-0.308691	-0.121907
C	2501.67	-0.117829	0.636911
H	2502.81	-0.586834	-1.0733
H	2500.78	-0.323481	0.00735773
H	2501.6	0.929151	1.01156
H	2501.65	-0.801524	1.51617
