44
  This energy is 9.49594e-320 and Call times are: 77139
C	-3.43143	0.572863	0.152362
C	-2.1263	0.662754	-0.540281
O	-2.04906	1.05861	-1.69519
H	-4.23745	0.902454	-0.5387
H	-3.43527	1.2292	1.04792
H	-3.62938	-0.475053	0.461611
N	-1.05528	0.284807	0.161457
C	0.281753	0.315892	-0.375386
C	1.13565	-0.630568	0.44578
O	0.734161	-1.06444	1.52393
H	-1.13455	-0.0633963	1.09173
H	0.261648	-0.056933	-1.39159
C	0.873838	1.74219	-0.328162
H	0.89235	2.12182	0.715704
H	1.90323	1.76976	-0.740916
H	0.238681	2.42599	-0.932422
N	2.33183	-0.99111	-0.0593613
C	3.20788	-1.89724	0.646068
H	2.63577	-0.634796	-0.936794
H	4.1435	-2.06846	0.0693872
H	2.70965	-2.88086	0.805755
H	3.48147	-1.48286	1.64337
C	3656.67	2.7212	2.16019
C	3657.08	2.10903	0.878203
O	3657.53	2.79093	-0.0309234
H	3656.83	3.81941	2.11379
H	3657.26	2.30216	2.99621
H	3655.59	2.52834	2.34473
N	3656.93	0.786794	0.775199
C	3657.29	0.0482265	-0.408994
C	3656.53	-1.26322	-0.388856
O	3655.97	-1.64908	0.63523
H	3656.53	0.246344	1.51218
H	3656.96	0.602616	-1.28097
C	3658.81	-0.220509	-0.464712
H	3659.14	-0.788827	0.431641
H	3659.09	-0.788888	-1.37536
H	3659.35	0.747903	-0.477815
N	3656.47	-1.9715	-1.53397
C	3655.76	-3.22593	-1.61298
H	3656.93	-1.6389	-2.35398
H	3655.83	-3.65533	-2.63652
H	3654.68	-3.08251	-1.36851
H	3656.18	-3.96342	-0.892589
