44
  This energy is 1.5981e-319 and Call times are: 67185
C	-3.25331	-0.550099	1.11331
C	-1.79001	-0.745625	1.22156
O	-1.298	-1.31984	2.18317
H	-3.74939	-0.987403	2.00692
H	-3.6406	-1.05574	0.203834
H	-3.4922	0.533143	1.06368
N	-1.05108	-0.258208	0.222176
C	0.385152	-0.370828	0.185017
C	0.912012	0.696303	-0.754604
O	0.153156	1.29502	-1.51455
H	-1.46135	0.233241	-0.541427
H	0.779929	-0.164332	1.17172
C	0.827335	-1.76997	-0.298713
H	0.420039	-1.97879	-1.31095
H	1.93267	-1.86018	-0.328372
H	0.434119	-2.54275	0.397231
N	2.22964	0.975009	-0.70801
C	2.81905	1.98398	-1.55698
H	2.82604	0.484524	-0.0811377
H	3.91294	2.06373	-1.37178
H	2.35731	2.97921	-1.36316
H	2.66255	1.7341	-2.63134
C	3187.63	3.35006	0.460663
C	3186.74	2.29017	-0.061139
O	3185.66	2.5635	-0.557643
H	3187.15	4.34024	0.32206
H	3188.6	3.34317	-0.0890298
H	3187.82	3.19157	1.54303
N	3187.18	1.03551	0.0476897
C	3186.43	-0.102518	-0.414242
C	3186.95	-1.32987	0.309536
O	3188.01	-1.29235	0.929793
H	3188.05	0.823539	0.480538
H	3185.39	0.0278478	-0.138033
C	3186.57	-0.287685	-1.94172
H	3187.64	-0.420481	-2.22163
H	3185.99	-1.16301	-2.30078
H	3186.19	0.618494	-2.46027
N	3186.19	-2.44677	0.264462
C	3186.6	-3.66012	0.933679
H	3185.34	-2.455	-0.236785
H	3185.85	-4.46634	0.777586
H	3186.71	-3.48779	2.02922
H	3187.58	-4.01393	0.542833
