44
  This energy is 1.42246e-319 and Call times are: 12291
C	2.61773	-0.825149	-2.14307
C	2.10018	-0.241525	-0.885006
O	2.85943	0.129053	-0.000304231
H	3.72837	-0.854632	-2.10464
H	2.30448	-0.205515	-3.00953
H	2.23496	-1.85957	-2.27115
N	0.772696	-0.151639	-0.77508
C	0.119861	0.393736	0.388192
C	-1.30598	-0.121872	0.406919
O	-1.79404	-0.656921	-0.586741
H	0.164001	-0.483822	-1.49068
H	0.615535	0.0226241	1.27626
C	0.125893	1.93857	0.364164
H	-0.382801	2.31586	-0.548521
H	-0.37587	2.36181	1.25852
H	1.17595	2.30367	0.349397
N	-2.00295	0.0088107	1.55285
C	-3.36308	-0.463364	1.66806
H	-1.58796	0.438207	2.34824
H	-3.76398	-0.263077	2.6861
H	-3.41538	-1.5603	1.48034
H	-4.02002	0.0455901	0.92605
C	586.348	0.451951	0.0877194
C	587.684	0.735958	-0.483403
O	587.808	1.40801	-1.498
H	585.569	0.927753	-0.546445
H	586.276	0.864738	1.11594
H	586.169	-0.643502	0.116105
N	588.729	0.215686	0.164675
C	590.09	0.404601	-0.268431
C	590.931	-0.700026	0.341852
O	590.488	-1.39593	1.25378
H	588.613	-0.354381	0.973666
H	590.136	0.295922	-1.34464
C	590.632	1.78527	0.164631
H	590.584	1.89363	1.26918
H	591.68	1.9341	-0.167375
H	590.007	2.58574	-0.287977
N	592.163	-0.90091	-0.165687
C	593.03	-1.93728	0.34393
H	592.5	-0.331879	-0.908388
H	594	-1.94195	-0.201272
H	592.557	-2.93895	0.225946
H	593.238	-1.77887	1.427
