44
  This energy is 8.40257e-320 and Call times are: 102213
C	-3.41819	-0.451568	0.488079
C	-2.04411	-0.25827	1.0036
O	-1.8353	-0.0765301	2.19518
H	-4.13884	-0.393564	1.33256
H	-3.50925	-1.44749	0.00573362
H	-3.66508	0.340293	-0.250125
N	-1.06199	-0.288155	0.099773
C	0.325899	-0.116146	0.447646
C	1.07028	0.310005	-0.802767
O	0.546957	0.209422	-1.91085
H	-1.24759	-0.407935	-0.871895
H	0.410771	0.685525	1.17028
C	0.931643	-1.4227	1.00721
H	0.84228	-2.24315	0.263583
H	2.00018	-1.29375	1.27624
H	0.376916	-1.72483	1.92217
N	2.30856	0.819267	-0.650075
C	3.0882	1.26252	-1.78227
H	2.71185	0.899119	0.255582
H	4.07827	1.64687	-1.45168
H	2.56015	2.07779	-2.32792
H	3.25799	0.423483	-2.49527
C	4841.65	3.16199	1.30403
C	4842.05	1.97161	0.517213
O	4843.08	1.9567	-0.131013
H	4842.42	3.95455	1.18128
H	4841.58	2.9005	2.38029
H	4840.68	3.55115	0.946697
N	4841.21	0.932883	0.553663
C	4841.46	-0.295108	-0.15936
C	4840.13	-1.01053	-0.326356
O	4839.14	-0.664081	0.32018
H	4840.35	0.968021	1.06209
H	4841.83	-0.059322	-1.14786
C	4842.45	-1.19686	0.600943
H	4842.07	-1.43624	1.61483
H	4842.65	-2.1432	0.0546242
H	4843.42	-0.660964	0.717782
N	4840.07	-2.01767	-1.21978
C	4838.85	-2.74865	-1.45487
H	4840.88	-2.27834	-1.73842
H	4839	-3.53806	-2.22301
H	4838.04	-2.06489	-1.81225
H	4838.49	-3.23609	-0.517325
