44
  This energy is 3.29542e-320 and Call times are: 106665
C	0.916994	0.207885	3.35291
C	1.00548	-0.42123	2.01591
O	1.83121	-1.2925	1.7802
H	1.68898	-0.235019	4.01905
H	-0.0854219	0.0275065	3.79501
H	1.09462	1.30113	3.27414
N	0.144812	0.0191287	1.0952
C	0.10839	-0.495645	-0.25035
C	-0.574272	0.537077	-1.12596
O	-1.20218	1.46866	-0.626242
H	-0.503678	0.74988	1.29116
H	1.12284	-0.612823	-0.609831
C	-0.654081	-1.83769	-0.318728
H	-1.69418	-1.71398	0.0514125
H	-0.683899	-2.23696	-1.35336
H	-0.144768	-2.58524	0.327734
N	-0.447713	0.406425	-2.46122
C	-1.05312	1.34855	-3.37339
H	0.0704751	-0.350275	-2.84608
H	-0.837101	1.06904	-4.42812
H	-0.660023	2.37572	-3.19548
H	-2.15848	1.37339	-3.23651
C	5052.74	1.91778	-2.78334
C	5052.46	1.77593	-1.33646
O	5052.63	2.70899	-0.564508
H	5053.11	2.94669	-2.98731
H	5051.81	1.74482	-3.37013
H	5053.51	1.1892	-3.09682
N	5052.02	0.582192	-0.931492
C	5051.7	0.290622	0.444339
C	5051.75	-1.21425	0.62424
O	5051.77	-1.9635	-0.350455
H	5051.91	-0.178681	-1.56559
H	5052.47	0.721905	1.07889
C	5050.31	0.827951	0.828111
H	5049.53	0.383964	0.174734
H	5050.06	0.605291	1.8869
H	5050.29	1.93105	0.690848
N	5051.79	-1.69229	1.88355
C	5051.85	-3.11028	2.152
H	5051.78	-1.0695	2.65895
H	5051.88	-3.30246	3.24731
H	5052.76	-3.55912	1.69673
H	5050.96	-3.62807	1.72509
