44
  This energy is 1.48358e-319 and Call times are: 54207
C	-1.5586	-2.7491	1.46266
C	-1.24282	-1.30362	1.41714
O	-1.78244	-0.51395	2.17985
H	-2.31783	-2.93446	2.25327
H	-0.644251	-3.3332	1.69849
H	-1.96811	-3.08247	0.485873
N	-0.350163	-0.920189	0.501438
C	0.0596968	0.451447	0.335737
C	0.635843	0.600312	-1.05894
O	0.922681	-0.389574	-1.72953
H	0.0607303	-1.56894	-0.133562
H	-0.812376	1.08963	0.401226
C	1.11294	0.855265	1.39154
H	2.00593	0.198117	1.32198
H	1.43062	1.91088	1.26694
H	0.679035	0.74067	2.40877
N	0.7987	1.84932	-1.53796
C	1.32923	2.08841	-2.85992
H	0.553942	2.63731	-0.982636
H	1.38832	3.17939	-3.06854
H	0.680972	1.6181	-3.63439
H	2.35174	1.65689	-2.95707
C	2572.32	1.00862	3.20305
C	2572.61	0.822051	1.76341
O	2573.64	1.25418	1.26416
H	2573.15	1.57361	3.67503
H	2572.23	0.0228228	3.70499
H	2571.38	1.58185	3.33294
N	2571.69	0.167796	1.05305
C	2571.83	-0.0917614	-0.357644
C	2570.45	-0.357546	-0.921201
O	2569.49	-0.577376	-0.174355
H	2570.84	-0.153859	1.46529
H	2572.22	0.795432	-0.842045
C	2572.75	-1.30383	-0.618217
H	2572.35	-2.21208	-0.119305
H	2572.86	-1.50639	-1.70346
H	2573.76	-1.09709	-0.199644
N	2570.3	-0.321598	-2.26031
C	2569.02	-0.55071	-2.88656
H	2571.08	-0.134973	-2.84738
H	2569.1	-0.481011	-3.99341
H	2568.27	0.203533	-2.54424
H	2568.63	-1.56218	-2.62775
