44
  This energy is 8.64269e-320 and Call times are: 33921
C	-0.805368	2.18325	-2.59055
C	-0.604958	1.88504	-1.15454
O	-0.636328	2.77302	-0.31372
H	-0.965741	3.27568	-2.71991
H	-1.69588	1.64154	-2.97312
H	0.0899183	1.87995	-3.17315
N	-0.385095	0.606461	-0.839469
C	-0.17266	0.160445	0.514328
C	0.540343	-1.1766	0.457907
O	0.610389	-1.80769	-0.595014
H	-0.332918	-0.103492	-1.53674
H	0.481719	0.861233	1.01708
C	-1.50937	0.0179876	1.27593
H	-2.1785	-0.701146	0.757062
H	-1.34945	-0.325137	2.31874
H	-2.0224	1.0038	1.30924
N	1.10797	-1.6307	1.59263
C	1.8181	-2.88782	1.6317
H	1.04648	-1.10194	2.43279
H	2.2101	-3.08644	2.65353
H	2.67753	-2.87576	0.922836
H	1.14552	-3.72828	1.34458
C	1611.23	-3.37828	-0.703324
C	1610.8	-2.10469	-0.0870522
O	1609.69	-1.99417	0.422465
H	1610.42	-4.12689	-0.615436
H	1612.13	-3.76682	-0.183234
H	1611.46	-3.22392	-1.77818
N	1611.67	-1.09727	-0.126666
C	1611.39	0.202173	0.430904
C	1612.33	1.20058	-0.226098
O	1613.3	0.81934	-0.8787
H	1612.56	-1.19112	-0.570414
H	1610.38	0.4839	0.177709
C	1611.6	0.21252	1.96238
H	1612.64	-0.0776066	2.2186
H	1611.38	1.21154	2.39498
H	1610.91	-0.52375	2.43166
N	1612.04	2.5099	-0.0857269
C	1612.87	3.53234	-0.685929
H	1611.25	2.7981	0.440261
H	1612.47	4.54486	-0.455223
H	1612.9	3.412	-1.79307
H	1613.91	3.47057	-0.302075
