44
  This energy is 9.35019e-320 and Call times are: 58239
C	1.27882	-3.16236	0.700173
C	0.165118	-2.188	0.661603
O	-0.982907	-2.52937	0.910588
H	0.880645	-4.1648	0.969274
H	2.02792	-2.85722	1.4608
H	1.76737	-3.22498	-0.294985
N	0.485863	-0.933333	0.33709
C	-0.48721	0.126728	0.258174
C	0.092441	1.22768	-0.608515
O	1.28838	1.23912	-0.893885
H	1.4203	-0.673941	0.10799
H	-1.37546	-0.247021	-0.235175
C	-0.831826	0.679387	1.65922
H	0.0817808	1.06135	2.16275
H	-1.58094	1.49569	1.60213
H	-1.25437	-0.136969	2.28465
N	-0.752245	2.17211	-1.06738
C	-0.292807	3.25233	-1.90895
H	-1.71791	2.14143	-0.831199
H	-1.13582	3.9254	-2.18015
H	0.154822	2.85514	-2.84869
H	0.483322	3.85594	-1.38506
C	2758.77	-0.165258	2.15262
C	2760.03	0.46344	1.69319
O	2760.42	1.52167	2.16817
H	2758.3	0.473322	2.9346
H	2758.98	-1.16718	2.58364
H	2758.06	-0.268049	1.30391
N	2760.7	-0.183648	0.73807
C	2761.94	0.302176	0.18916
C	2762.14	-0.35028	-1.1653
O	2761.46	-1.31739	-1.50231
H	2760.36	-1.03011	0.338655
H	2761.86	1.37029	0.0313204
C	2763.13	-0.0262418	1.11582
H	2763.21	-1.12275	1.27614
H	2764.09	0.346564	0.696248
H	2762.97	0.456416	2.105
N	2763.06	0.181276	-1.986
C	2763.31	-0.36564	-3.29938
H	2763.6	0.968354	-1.69779
H	2764.11	0.207759	-3.81899
H	2762.39	-0.325564	-3.92313
H	2763.64	-1.42969	-3.22742
