44
  This energy is 1.2073e-319 and Call times are: 116661
C	1.58761	-2.3777	1.988
C	0.837729	-1.98839	0.772554
O	0.654544	-2.78301	-0.139315
H	1.91692	-3.43528	1.89338
H	0.939499	-2.28199	2.88444
H	2.48281	-1.73197	2.10881
N	0.385661	-0.732875	0.731411
C	-0.360681	-0.206995	-0.383601
C	-0.253908	1.30505	-0.344106
O	0.1654	1.87962	0.658833
H	0.566499	-0.086476	1.46789
H	0.0973411	-0.545154	-1.30444
C	-1.84342	-0.636705	-0.320794
H	-2.31	-0.288741	0.625432
H	-2.42098	-0.23362	-1.17796
H	-1.90796	-1.74629	-0.349276
N	-0.612896	1.98615	-1.4501
C	-0.533656	3.42713	-1.50912
H	-0.942979	1.50255	-2.2541
H	-0.874086	3.79942	-2.50046
H	0.513902	3.76997	-1.34686
H	-1.17367	3.88852	-0.722559
C	5523.73	1.05097	-2.8685
C	5523.9	0.118741	-1.73209
O	5523.08	-0.753549	-1.4965
H	5522.78	0.811587	-3.397
H	5524.57	0.947918	-3.58167
H	5523.68	2.09775	-2.50116
N	5525	0.290475	-0.987672
C	5525.31	-0.537484	0.150675
C	5526.28	0.225741	1.0326
O	5526.85	1.22788	0.613286
H	5525.65	1.02324	-1.17235
H	5524.4	-0.70228	0.721858
C	5525.93	-1.88219	-0.284649
H	5526.86	-1.70939	-0.870942
H	5526.17	-2.52223	0.589416
H	5525.21	-2.43104	-0.931033
N	5526.46	-0.221575	2.2901
C	5527.36	0.447706	3.20565
H	5525.98	-1.03017	2.61301
H	5527.38	-0.072359	4.18873
H	5527.03	1.50067	3.37202
H	5528.39	0.465531	2.7994
