44
  This energy is 8.46829e-321 and Call times are: 80037
C	-1.71194	-1.07374	-2.83592
C	-1.66065	-0.742184	-1.39417
O	-2.67725	-0.717849	-0.714158
H	-2.76616	-1.2671	-3.13104
H	-1.1088	-1.98312	-3.04104
H	-1.31979	-0.226968	-3.4377
N	-0.454506	-0.469496	-0.890954
C	-0.243749	-0.13015	0.493695
C	1.07986	0.602306	0.597628
O	1.87871	0.592654	-0.337027
H	0.362338	-0.464159	-1.46163
H	-1.02265	0.551338	0.811442
C	-0.224235	-1.39177	1.38535
H	0.575538	-2.08899	1.05618
H	-0.0623029	-1.13408	2.4522
H	-1.19882	-1.91992	1.29945
N	1.33352	1.27636	1.73662
C	2.56231	2.0127	1.92121
H	0.6713	1.27797	2.47871
H	2.58408	2.49673	2.92246
H	2.66504	2.80625	1.146
H	3.44271	1.33483	1.84016
C	3789.98	-0.59186	2.77462
C	3791.31	-0.406915	2.14674
O	3792.32	-0.32833	2.82499
H	3790.1	-0.631541	3.87927
H	3789.52	-1.54202	2.42798
H	3789.31	0.256421	2.515
N	3791.33	-0.326354	0.814267
C	3792.54	-0.146966	0.060004
C	3792.17	0.412243	-1.299
O	3791	0.397842	-1.68536
H	3790.49	-0.362586	0.274679
H	3793.16	0.587802	0.559204
C	3793.3	-1.48107	-0.105569
H	3792.67	-2.23275	-0.617434
H	3794.24	-1.34653	-0.685754
H	3793.57	-1.8809	0.896938
N	3793.16	0.940803	-2.05011
C	3792.89	1.5073	-3.35245
H	3794.09	0.949528	-1.71681
H	3793.83	1.88824	-3.81238
H	3792.17	2.35332	-3.27462
H	3792.45	0.741764	-4.03284
