44
  This energy is 1.30325e-319 and Call times are: 97845
C	1.72453	-1.52774	-2.61115
C	1.68778	-0.70698	-1.37981
O	2.71863	-0.359414	-0.820299
H	2.78223	-1.74013	-2.87954
H	1.24381	-0.981272	-3.44966
H	1.19552	-2.48991	-2.44586
N	0.477439	-0.379577	-0.92129
C	0.279445	0.414523	0.264893
C	-1.12666	0.155288	0.769778
O	-1.95451	-0.413095	0.0602437
H	-0.355262	-0.693322	-1.36974
H	0.970001	0.0826727	1.0298
C	0.46987	1.91963	-0.0275378
H	-0.239658	2.25655	-0.813141
H	0.318284	2.53398	0.88371
H	1.50328	2.09613	-0.397744
N	-1.42313	0.549501	2.02385
C	-2.73259	0.334021	2.59399
H	-0.737344	1.00142	2.58483
H	-2.7792	0.729428	3.63261
H	-2.97503	-0.753041	2.62162
H	-3.51434	0.846807	1.9881
C	4635.86	2.51673	-2.20744
C	4635.88	1.10933	-1.74924
O	4636.41	0.234512	-2.41824
H	4636.37	2.59083	-3.19087
H	4636.39	3.16514	-1.47694
H	4634.81	2.86598	-2.3215
N	4635.29	0.856848	-0.580631
C	4635.23	-0.46222	-0.00336195
C	4634.08	-0.48291	0.992898
O	4633.56	0.563741	1.37414
H	4634.83	1.57316	-0.0590071
H	4635	-1.17727	-0.782961
C	4636.55	-0.829258	0.700849
H	4636.79	-0.0932735	1.49956
H	4636.51	-1.84438	1.14633
H	4637.38	-0.809385	-0.0393127
N	4633.65	-1.68451	1.4228
C	4632.56	-1.80296	2.36229
H	4634.08	-2.52032	1.09707
H	4632.35	-2.87138	2.5935
H	4631.63	-1.34962	1.94557
H	4632.8	-1.27847	3.3147
