44
  This energy is 3.76626e-320 and Call times are: 43917
C	2.47457	-1.12039	2.17885
C	1.07562	-0.735753	1.88521
O	0.18782	-0.900298	2.71057
H	2.52988	-1.55153	3.20204
H	3.13501	-0.229281	2.12821
H	2.82379	-1.88088	1.44903
N	0.845459	-0.211441	0.679187
C	-0.462853	0.2113	0.247401
C	-0.463287	0.249963	-1.26843
O	0.591106	0.198362	-1.89885
H	1.57197	-0.109427	0.00486906
H	-1.1914	-0.52689	0.557825
C	-0.819752	1.60349	0.814454
H	-0.0699356	2.3582	0.494605
H	-1.82658	1.93199	0.484059
H	-0.814889	1.56213	1.92549
N	-1.65607	0.320218	-1.89159
C	-1.75537	0.349724	-3.33223
H	-2.49848	0.353874	-1.36391
H	-2.81904	0.410201	-3.65193
H	-1.30779	-0.569062	-3.7758
H	-1.21426	1.23151	-3.74555
C	2085.92	2.66788	-1.54045
C	2085.58	1.87215	-0.341267
O	2086.1	2.09568	0.739997
H	2086.69	3.42568	-1.26946
H	2085.02	3.19018	-1.92626
H	2086.33	2.00737	-2.33247
N	2084.67	0.905707	-0.511993
C	2084.23	0.0482248	0.559646
C	2083.65	-1.20641	-0.0580857
O	2083.38	-1.25001	-1.25701
H	2084.27	0.714433	-1.40424
H	2085.09	-0.245906	1.14964
C	2083.18	0.748632	1.44336
H	2082.3	1.04962	0.834783
H	2082.84	0.0912255	2.26961
H	2083.62	1.66667	1.88901
N	2083.45	-2.26926	0.74793
C	2082.91	-3.51036	0.245899
H	2083.69	-2.21653	1.71392
H	2082.83	-4.26176	1.06183
H	2083.57	-3.93046	-0.552143
H	2081.9	-3.34975	-0.18753
