44
  This energy is 6.53007e-320 and Call times are: 88605
C	-2.82135	1.73081	-1.08186
C	-1.96248	0.525365	-1.06065
O	-2.31829	-0.514358	-1.59811
H	-3.76166	1.50223	-1.62906
H	-2.29887	2.56378	-1.5976
H	-3.07441	2.03889	-0.0455239
N	-0.795319	0.639989	-0.422711
C	0.147509	-0.444784	-0.317011
C	1.06014	-0.155941	0.858959
O	1.09063	0.961339	1.37139
H	-0.529669	1.48366	0.0361879
H	-0.390528	-1.35863	-0.0991363
C	0.979088	-0.595323	-1.61043
H	1.52921	0.344195	-1.8313
H	1.70597	-1.4298	-1.53252
H	0.298959	-0.805451	-2.46449
N	1.81318	-1.1696	1.32954
C	2.70292	-0.991485	2.45329
H	1.76905	-2.06831	0.905751
H	3.23529	-1.93963	2.68749
H	2.13469	-0.675883	3.35814
H	3.46323	-0.207732	2.23229
C	4193.72	-1.40862	-1.72514
C	4195.1	-0.878886	-1.67369
O	4195.85	-0.969848	-2.63689
H	4193.54	-1.86396	-2.72288
H	4192.99	-0.587847	-1.5662
H	4193.58	-2.18539	-0.944409
N	4195.48	-0.309495	-0.525642
C	4196.79	0.251821	-0.322817
C	4197.04	0.321294	1.17095
O	4196.12	0.176467	1.97088
H	4194.87	-0.267546	0.261591
H	4197.53	-0.415284	-0.749796
C	4196.9	1.66104	-0.946377
H	4196.14	2.34262	-0.506562
H	4197.91	2.09612	-0.792165
H	4196.71	1.59671	-2.04043
N	4198.31	0.524252	1.58302
C	4198.64	0.593055	2.98598
H	4199.04	0.63194	0.920272
H	4199.74	0.76706	3.12085
H	4198.38	-0.356944	3.50172
H	4198.09	1.42401	3.4822
