44
  This energy is 5.56021e-320 and Call times are: 120147
C	-1.96471	-0.761569	2.77237
C	-1.46456	0.18785	1.75274
O	-1.93366	1.31316	1.65214
H	-2.7776	-0.27833	3.3568
H	-1.14478	-1.04636	3.46478
H	-2.36739	-1.67287	2.28214
N	-0.488257	-0.255886	0.957565
C	0.101263	0.550694	-0.0810508
C	0.75638	-0.382661	-1.08051
O	0.945101	-1.56608	-0.805319
H	-0.134599	-1.18463	1.03036
H	-0.68396	1.08755	-0.598046
C	1.14698	1.53195	0.494047
H	1.95069	0.977878	1.02431
H	1.60277	2.15467	-0.302973
H	0.654833	2.20929	1.22558
N	1.10016	0.127159	-2.27963
C	1.71824	-0.688888	-3.29856
H	0.932655	1.08562	-2.48585
H	1.92632	-0.0878794	-4.21111
H	1.05204	-1.53597	-3.58117
H	2.68045	-1.11396	-2.93164
C	5686.02	-1.16164	0.810089
C	5686.99	-0.575594	-0.144583
O	5686.7	-0.415305	-1.32192
H	5685.08	-1.4035	0.274565
H	5685.8	-0.437604	1.62182
H	5686.43	-2.09394	1.24982
N	5688.18	-0.243352	0.350611
C	5689.23	0.337165	-0.453553
C	5690.55	0.100956	0.256002
O	5690.57	-0.264583	1.42969
H	5688.42	-0.405809	1.30523
H	5689.27	-0.179412	-1.40411
C	5689	1.85098	-0.66351
H	5688.96	2.37773	0.313682
H	5689.8	2.30113	-1.28243
H	5688.03	2.01068	-1.18304
N	5691.68	0.284743	-0.451548
C	5692.98	0.0722103	0.136957
H	5691.64	0.573822	-1.40229
H	5693.78	0.276603	-0.60355
H	5693.08	-0.979977	0.487668
H	5693.13	0.744653	1.01244
