44
  This energy is 1.38161e-319 and Call times are: 41691
C	-0.0874357	-2.52439	-2.39707
C	0.50117	-1.88934	-1.19646
O	1.37885	-2.44685	-0.551979
H	0.38931	-3.51546	-2.55942
H	0.0892304	-1.88991	-3.29096
H	-1.17936	-2.66944	-2.25707
N	0.0175036	-0.690716	-0.862211
C	0.48941	0.0520578	0.279025
C	-0.581755	1.05677	0.656372
O	-1.50806	1.30669	-0.112609
H	-0.717916	-0.259919	-1.37846
H	0.612894	-0.626227	1.11374
C	1.81526	0.781162	-0.0334548
H	1.68514	1.47567	-0.890683
H	2.18154	1.35396	0.8432
H	2.5913	0.0343844	-0.309566
N	-0.490581	1.64292	1.86638
C	-1.47101	2.60326	2.3166
H	0.262629	1.42206	2.47722
H	-1.22078	2.97245	3.33558
H	-2.48517	2.14323	2.34974
H	-1.51072	3.47725	1.62686
C	1979.03	3.33324	0.999341
C	1978.52	1.94954	1.14493
O	1977.84	1.62493	2.10292
H	1978.69	3.94212	1.86425
H	1978.64	3.78661	0.0639359
H	1980.14	3.33487	0.975392
N	1978.87	1.08912	0.183047
C	1978.45	-0.290882	0.185061
C	1979.4	-1.06512	-0.705888
O	1980.17	-0.477991	-1.46955
H	1979.45	1.35847	-0.577184
H	1978.55	-0.685343	1.18881
C	1977	-0.442858	-0.327389
H	1976.91	-0.0365819	-1.35709
H	1976.68	-1.5042	-0.327005
H	1976.31	0.129777	0.332949
N	1979.39	-2.4094	-0.611892
C	1980.27	-3.22917	-1.41217
H	1978.77	-2.86555	0.0172737
H	1980.11	-4.30781	-1.19233
H	1981.34	-2.98262	-1.20216
H	1980.09	-3.0613	-2.49775
