44
  This energy is 3.03159e-320 and Call times are: 31863
C	-2.74797	1.09275	1.83866
C	-1.30541	1.12804	1.50856
O	-0.564214	1.96753	2.00087
H	-2.98214	1.91424	2.55012
H	-3.00858	0.12258	2.31161
H	-3.35468	1.23002	0.918876
N	-0.871186	0.204128	0.648206
C	0.504821	0.110566	0.230257
C	0.543064	-0.652543	-1.07949
O	-0.438633	-1.28207	-1.46911
H	-1.49045	-0.456094	0.231604
H	0.883775	1.10699	0.0415836
C	1.36696	-0.61033	1.29051
H	0.974993	-1.63198	1.48211
H	2.42709	-0.683968	0.971961
H	1.32967	-0.0421198	2.24544
N	1.67833	-0.59542	-1.80331
C	1.80294	-1.28049	-3.06875
H	2.45935	-0.0747774	-1.47441
H	2.81091	-1.1138	-3.50857
H	1.03971	-0.911915	-3.79186
H	1.65406	-2.37687	-2.93851
C	1517.02	1.0234	0.169548
C	1515.84	0.562034	-0.59185
O	1515.85	0.53414	-1.81483
H	1517.83	1.31376	-0.54117
H	1517.4	0.2086	0.823644
H	1516.76	1.90407	0.791783
N	1514.78	0.189493	0.128371
C	1513.56	-0.282687	-0.468851
C	1512.45	-0.113616	0.549262
O	1512.7	0.115433	1.72935
H	1514.78	0.244375	1.12331
H	1513.32	0.339764	-1.32202
C	1513.67	-1.7651	-0.888896
H	1513.92	-2.40071	-0.0113723
H	1512.73	-2.13186	-1.34926
H	1514.49	-1.87578	-1.63387
N	1511.18	-0.201735	0.108628
C	1510.05	-0.0425297	1.00315
H	1510.99	-0.380547	-0.851428
H	1509.09	-0.151236	0.452259
H	1510.07	0.963768	1.48095
H	1510.08	-0.808949	1.81119
