44
  This energy is 4.3626e-320 and Call times are: 56349
C	-1.03124	-3.2576	-0.671354
C	-0.193476	-2.0719	-0.960263
O	0.697869	-2.11587	-1.79696
H	-0.700301	-4.10548	-1.30966
H	-2.09666	-3.0362	-0.892007
H	-0.927739	-3.54885	0.395139
N	-0.463235	-0.969622	-0.257002
C	0.264659	0.262699	-0.425479
C	0.0730699	1.09226	0.829259
O	-0.797211	0.802001	1.64791
H	-1.17278	-0.954934	0.442471
H	1.32017	0.0386582	-0.513703
C	-0.232992	1.04553	-1.66105
H	-1.31631	1.27311	-1.56753
H	0.325459	1.99489	-1.79382
H	-0.0882747	0.426683	-2.57332
N	0.901805	2.13762	1.02008
C	0.802075	2.97698	2.19128
H	1.60436	2.35196	0.349484
H	1.56866	3.7825	2.16423
H	0.955598	2.37806	3.11809
H	-0.203935	3.45204	2.2499
C	2669.28	2.32362	1.33529
C	2670.6	1.65143	1.30618
O	2671.52	2.04031	2.00743
H	2669.31	3.17203	2.05276
H	2668.49	1.61034	1.66142
H	2669.02	2.71566	0.327495
N	2670.71	0.613504	0.474869
C	2671.93	-0.141415	0.335642
C	2671.89	-0.857708	-1.00006
O	2670.84	-0.944407	-1.63148
H	2669.96	0.324539	-0.112648
H	2672.77	0.544211	0.312959
C	2672.1	-1.16456	1.48193
H	2671.23	-1.86594	1.50269
H	2673.03	-1.74747	1.3779
H	2672.13	-0.627424	2.45491
N	2673.04	-1.37147	-1.47328
C	2673.1	-2.06007	-2.7417
H	2673.88	-1.28473	-0.950762
H	2674.13	-2.4101	-2.954
H	2672.78	-1.38556	-3.56925
H	2672.42	-2.9455	-2.73834
