44
  This energy is 1.89573e-320 and Call times are: 43203
C	0.114058	3.01837	1.73278
C	0.766347	1.81235	1.17491
O	1.98343	1.68951	1.18513
H	0.892859	3.71391	2.11431
H	-0.557959	2.73691	2.57063
H	-0.474078	3.53459	0.945025
N	-0.0439398	0.883483	0.662065
C	0.441426	-0.343897	0.0834576
C	-0.638479	-0.886193	-0.832489
O	-1.78356	-0.440603	-0.786875
H	-1.03213	1.00831	0.633332
H	1.31021	-0.126679	-0.524903
C	0.784057	-1.38307	1.17425
H	-0.109265	-1.60307	1.7969
H	1.15823	-2.32931	0.732199
H	1.57531	-0.973366	1.83923
N	-0.290621	-1.85184	-1.70572
C	-1.24878	-2.4202	-2.62499
H	0.642843	-2.19415	-1.73214
H	-0.771226	-3.19974	-3.25864
H	-1.66679	-1.63292	-3.29335
H	-2.09487	-2.88806	-2.07144
C	2047.24	-1.43779	-0.845673
C	2048.57	-0.888759	-1.21035
O	2048.99	-0.964224	-2.35591
H	2046.77	-1.89064	-1.74552
H	2046.59	-0.628294	-0.465333
H	2047.35	-2.22042	-0.0658778
N	2049.27	-0.319898	-0.224579
C	2050.57	0.258965	-0.423648
C	2051.26	0.324473	0.924354
O	2050.63	0.16253	1.96484
H	2048.92	-0.290576	0.710663
H	2051.15	-0.395429	-1.06025
C	2050.47	1.67274	-1.03878
H	2049.87	2.34125	-0.383463
H	2051.47	2.12133	-1.19354
H	2049.96	1.61127	-2.02521
N	2052.59	0.543327	0.935013
C	2053.34	0.609835	2.17064
H	2053.09	0.664765	0.0820957
H	2054.41	0.798627	1.97039
H	2053.25	-0.346486	2.7352
H	2052.95	1.43035	2.81828
