44
  This energy is 1.44855e-319 and Call times are: 123801
C	1.03118	2.88376	1.65732
C	0.953907	2.03538	0.446747
O	1.35384	2.44039	-0.63608
H	1.4781	3.86584	1.38965
H	1.66769	2.39678	2.42577
H	0.0150979	3.05239	2.07216
N	0.422919	0.820947	0.606621
C	0.280596	-0.118704	-0.476721
C	-0.785962	-1.12295	-0.0853326
O	-1.17829	-1.2023	1.07726
H	0.0740266	0.513517	1.48793
H	-0.0699073	0.407772	-1.35538
C	1.61232	-0.845134	-0.769858
H	1.96934	-1.38362	0.133846
H	1.50634	-1.5693	-1.6036
H	2.38554	-0.0985234	-1.05418
N	-1.2976	-1.90255	-1.05819
C	-2.32539	-2.87901	-0.781851
H	-0.972031	-1.81828	-1.99421
H	-2.61295	-3.42063	-1.70986
H	-3.23462	-2.38595	-0.3678
H	-1.96786	-3.6258	-0.0364282
C	5862.45	-3.25745	0.973333
C	5862.26	-1.79242	1.07625
O	5861.38	-1.31412	1.77079
H	5861.68	-3.76914	1.59447
H	5863.45	-3.54231	1.3406
H	5862.33	-3.58473	-0.081474
N	5863.11	-1.03691	0.369634
C	5863.05	0.403187	0.367891
C	5863.76	0.894391	-0.882029
O	5864.46	0.136045	-1.54595
H	5863.8	-1.43922	-0.215288
H	5862.02	0.71631	0.307257
C	5863.73	0.993054	1.62536
H	5864.79	0.66928	1.68477
H	5863.69	2.10173	1.62731
H	5863.2	0.624756	2.53407
N	5863.56	2.17778	-1.2448
C	5864.18	2.73049	-2.42648
H	5862.98	2.77363	-0.698276
H	5863.9	3.79978	-2.55331
H	5863.86	2.17393	-3.33616
H	5865.29	2.6635	-2.35602
