44
  This energy is 1.19589e-319 and Call times are: 17457
C	1.9475	0.298051	-2.87133
C	1.12748	-0.499424	-1.93175
O	0.825777	-1.65822	-2.18206
H	2.19419	-0.321686	-3.76068
H	2.89194	0.614824	-2.38092
H	1.38479	1.19573	-3.20371
N	0.738348	0.117456	-0.813541
C	-0.0627943	-0.526877	0.196327
C	-0.735192	0.555446	1.01833
O	-0.364745	1.7253	0.940575
H	0.966145	1.0709	-0.634693
H	-0.840858	-1.10399	-0.287026
C	0.799539	-1.42799	1.10819
H	1.59713	-0.832857	1.60192
H	0.185783	-1.92579	1.88683
H	1.28754	-2.21587	0.493971
N	-1.76011	0.190509	1.81354
C	-2.46828	1.15413	2.62355
H	-2.04961	-0.760025	1.85723
H	-3.2753	0.659444	3.20772
H	-2.9303	1.9409	1.9842
H	-1.77396	1.65328	3.33766
C	835.552	-1.44985	1.56545
C	834.724	-1.19052	0.366296
O	835.092	-1.54341	-0.745482
H	836.485	-1.97296	1.26153
H	834.997	-2.09145	2.28205
H	835.821	-0.49239	2.05901
N	833.569	-0.55164	0.569819
C	832.656	-0.228442	-0.497196
C	831.764	0.901614	-0.0209236
O	831.718	1.20717	1.16918
H	833.294	-0.243514	1.47649
H	833.221	0.134178	-1.34634
C	831.799	-1.45107	-0.893385
H	831.221	-1.82089	-0.0197683
H	831.094	-1.20575	-1.71484
H	832.464	-2.2722	-1.23928
N	831.048	1.56584	-0.948889
C	830.18	2.66366	-0.590424
H	831.104	1.30811	-1.90787
H	829.677	3.07767	-1.49183
H	830.761	3.48184	-0.106679
H	829.396	2.32724	0.12574
