44
  This energy is 1.0908e-319 and Call times are: 58827
C	-3.36886	-0.860732	0.1898
C	-2.24593	-0.128346	-0.437761
O	-2.3995	0.491528	-1.48115
H	-4.28058	-0.740385	-0.434818
H	-3.57146	-0.454923	1.20326
H	-3.12583	-1.94147	0.266499
N	-1.07106	-0.190466	0.193264
C	0.113611	0.470024	-0.293696
C	1.31641	-0.211587	0.32914
O	1.18172	-0.976992	1.28195
H	-0.951683	-0.722783	1.02712
H	0.176898	0.333765	-1.36584
C	0.108493	1.97237	0.0669075
H	0.0428097	2.1085	1.16749
H	1.01921	2.48404	-0.306688
H	-0.777958	2.45992	-0.394236
N	2.52522	0.0358344	-0.212677
C	3.72563	-0.577419	0.306073
H	2.61262	0.652704	-0.987961
H	4.617	-0.247616	-0.271807
H	3.65832	-1.68771	0.243177
H	3.87824	-0.300753	1.37441
C	2786.19	0.904723	0.585266
C	2787.62	1.24281	0.414926
O	2787.99	2.40661	0.357468
H	2785.59	1.84219	0.636233
H	2786.04	0.333029	1.5254
H	2785.83	0.299561	-0.275173
N	2788.47	0.213767	0.323204
C	2789.89	0.382597	0.155634
C	2790.44	-0.904402	-0.420815
O	2789.77	-1.93348	-0.427307
H	2788.15	-0.729993	0.34219
H	2790.06	1.17026	-0.565413
C	2790.58	0.705538	1.49957
H	2790.39	-0.104241	2.23713
H	2791.67	0.836312	1.37415
H	2790.16	1.64972	1.91199
N	2791.69	-0.869809	-0.940919
C	2792.3	-2.04346	-1.5225
H	2792.21	-0.0256005	-0.932671
H	2793.32	-1.81311	-1.89322
H	2791.69	-2.41754	-2.37857
H	2792.37	-2.86108	-0.769533
