44
  This energy is 2.12942e-320 and Call times are: 118887
C	-1.96702	1.66026	-2.34531
C	-0.924932	0.672186	-1.9862
O	-0.454617	-0.0841994	-2.82475
H	-2.20527	1.56605	-3.42708
H	-1.60277	2.69002	-2.14594
H	-2.88993	1.47448	-1.75653
N	-0.540315	0.654046	-0.707874
C	0.46356	-0.250175	-0.206428
C	0.277598	-0.367157	1.2939
O	-0.434089	0.42923	1.90308
H	-0.951909	1.25546	-0.0282919
H	0.299988	-1.23055	-0.635588
C	1.88752	0.256238	-0.527381
H	2.05167	1.26248	-0.0861906
H	2.66295	-0.437729	-0.142811
H	2.0106	0.338735	-1.62928
N	0.90026	-1.38289	1.92363
C	0.771819	-1.58067	3.34862
H	1.46608	-2.02108	1.41198
H	1.35924	-2.46621	3.67725
H	-0.294245	-1.74389	3.62809
H	1.14169	-0.688629	3.90417
C	5627.01	-1.63093	-2.16289
C	5627.46	-1.26191	-0.80229
O	5626.79	-1.53939	0.183273
H	5626.03	-2.15269	-2.096
H	5627.75	-2.31057	-2.63945
H	5626.89	-0.720175	-2.78667
N	5628.63	-0.611724	-0.719392
C	5629.2	-0.186852	0.534006
C	5630.18	0.926006	0.242897
O	5630.57	1.14243	-0.9054
H	5629.15	-0.365782	-1.53187
H	5628.41	0.224364	1.15626
C	5629.91	-1.3547	1.25269
H	5630.71	-1.77461	0.611251
H	5630.35	-1.03107	2.21823
H	5629.17	-2.16376	1.45922
N	5630.61	1.67554	1.2807
C	5631.54	2.7645	1.09779
H	5630.28	1.48919	2.20143
H	5631.76	3.25732	2.06937
H	5631.12	3.52943	0.405853
H	5632.49	2.3948	0.662739
