44
  This energy is 1.24623e-319 and Call times are: 11619
C	-1.2143	-1.88414	-2.66489
C	-0.638436	-0.640321	-2.10587
O	-0.28457	0.276211	-2.83474
H	-1.24303	-1.8096	-3.7737
H	-2.24831	-2.03025	-2.28765
H	-0.590209	-2.75704	-2.3794
N	-0.525372	-0.584271	-0.776797
C	0.0153386	0.558999	-0.085861
C	0.473008	0.101153	1.28533
O	0.129845	-0.992722	1.72974
H	-0.790265	-1.34918	-0.195692
H	0.886357	0.914394	-0.621673
C	-1.03682	1.68188	0.0527568
H	-1.92929	1.31365	0.602321
H	-0.623748	2.56378	0.584182
H	-1.3648	2.00763	-0.95841
N	1.2815	0.924298	1.98158
C	1.77692	0.567544	3.29057
H	1.55376	1.80226	1.60173
H	2.42373	1.37472	3.69967
H	2.37587	-0.370603	3.24171
H	0.932857	0.401795	3.99857
C	557.443	3.46389	-0.0102131
C	557.069	2.11832	0.48085
O	556.294	1.97924	1.41635
H	556.923	4.23468	0.599402
H	557.14	3.58128	-1.07201
H	558.539	3.61358	0.0799344
N	557.628	1.08147	-0.147529
C	557.363	-0.2878	0.215133
C	558.504	-1.13801	-0.308654
O	559.301	-0.684902	-1.12829
H	558.281	1.20847	-0.88935
H	557.359	-0.371468	1.29451
C	556.022	-0.7764	-0.375834
H	556.029	-0.688552	-1.48324
H	555.814	-1.83032	-0.0983954
H	555.194	-0.144847	0.0145986
N	558.622	-2.39128	0.172463
C	559.684	-3.26973	-0.259184
H	557.971	-2.73714	0.840595
H	559.609	-4.25649	0.24869
H	560.679	-2.8285	-0.0226199
H	559.633	-3.43685	-1.35949
