44
  This energy is 1.2946e-319 and Call times are: 72435
C	-2.45854	-1.56493	-1.90597
C	-1.96134	-1.00481	-0.629154
O	-2.69477	-0.901417	0.344433
H	-3.53154	-1.83401	-1.79589
H	-1.88479	-2.47736	-2.17264
H	-2.35765	-0.814647	-2.71827
N	-0.683233	-0.619596	-0.608355
C	-0.0555694	-0.0562768	0.560207
C	1.1636	0.721863	0.104827
O	1.60699	0.585686	-1.0339
H	-0.103964	-0.682011	-1.41674
H	-0.738783	0.64425	1.02341
C	0.360268	-1.15722	1.56127
H	1.06062	-1.87449	1.08258
H	0.843753	-0.726929	2.4623
H	-0.541425	-1.72066	1.88627
N	1.72315	1.57721	0.983051
C	2.87946	2.36935	0.634282
H	1.34531	1.67854	1.89749
H	3.19099	3.00831	1.48981
H	2.65526	3.0308	-0.233746
H	3.73598	1.71339	0.356333
C	3439.12	-1.89875	1.05768
C	3438.31	-1.27237	-0.00784069
O	3438.68	-1.27224	-1.17254
H	3440.05	-2.31641	0.612209
H	3438.55	-2.72143	1.54017
H	3439.4	-1.14281	1.82254
N	3437.16	-0.71062	0.376574
C	3436.26	-0.0628152	-0.543978
C	3435.38	0.878988	0.251999
O	3435.32	0.805241	1.47822
H	3436.88	-0.69173	1.33276
H	3436.83	0.534894	-1.23819
C	3435.39	-1.09273	-1.3003
H	3434.8	-1.70462	-0.585067
H	3434.7	-0.597324	-2.01008
H	3436.05	-1.77736	-1.87843
N	3434.67	1.80591	-0.430629
C	3433.82	2.75284	0.243448
H	3434.74	1.85411	-1.42215
H	3433.33	3.43049	-0.489704
H	3434.4	3.37487	0.957675
H	3433.02	2.22394	0.818124
