44
  This energy is 3.54443e-320 and Call times are: 68697
C	-2.48491	-1.61325	1.82996
C	-1.06599	-1.40579	1.46278
O	-0.166263	-1.96763	2.07215
H	-2.54262	-2.3114	2.69317
H	-3.04108	-2.05214	0.975047
H	-2.95124	-0.647329	2.11714
N	-0.832415	-0.57497	0.444182
C	0.49465	-0.272998	-0.0296733
C	0.430832	1.0371	-0.790467
O	-0.650034	1.51453	-1.1305
H	-1.57236	-0.100742	-0.0254254
H	1.14761	-0.127591	0.821547
C	1.03324	-1.39401	-0.946389
H	0.360636	-1.54097	-1.81824
H	2.05495	-1.16478	-1.31292
H	1.07402	-2.34854	-0.377738
N	1.59439	1.66242	-1.05712
C	1.63106	2.92027	-1.76609
H	2.45817	1.26351	-0.767318
H	2.67911	3.27212	-1.88879
H	1.06203	3.70086	-1.21099
H	1.17583	2.81486	-2.77745
C	3258.54	-3.4758	0.157178
C	3259.15	-2.13874	0.336126
O	3260.25	-2.00829	0.867661
H	3259.22	-4.24879	0.57477
H	3258.38	-3.68234	-0.922092
H	3257.57	-3.52775	0.690521
N	3258.44	-1.09898	-0.106657
C	3258.9	0.262881	-0.00381237
C	3257.69	1.17191	-0.102137
O	3256.61	0.737878	-0.491615
H	3257.54	-1.21589	-0.511553
H	3259.35	0.411353	0.972084
C	3259.91	0.601077	-1.12211
H	3259.45	0.447021	-2.12189
H	3260.27	1.64892	-1.04581
H	3260.79	-0.0724139	-1.03984
N	3257.84	2.45754	0.272061
C	3256.74	3.39367	0.223801
H	3258.73	2.78788	0.591196
H	3257.07	4.39977	0.569287
H	3255.91	3.0522	0.876343
H	3256.35	3.4888	-0.815456
