44
  This energy is 5.5029e-320 and Call times are: 107547
C	-0.0684992	0.707387	3.40896
C	0.296936	1.04912	2.01581
O	0.767309	2.14302	1.73542
H	0.149519	1.57483	4.06918
H	0.522579	-0.166017	3.75626
H	-1.15125	0.46981	3.47348
N	0.0788525	0.105373	1.09703
C	0.3832	0.288972	-0.299567
C	-0.439346	-0.70932	-1.09081
O	-1.0013	-1.64708	-0.528102
H	-0.331926	-0.771138	1.33352
H	0.0731856	1.2819	-0.599669
C	1.88792	0.0782157	-0.579792
H	2.2027	-0.941163	-0.270122
H	2.12577	0.218981	-1.65422
H	2.47954	0.814671	0.00652339
N	-0.546844	-0.516539	-2.4202
C	-1.31899	-1.40884	-3.25313
H	-0.090482	0.252331	-2.85587
H	-1.28366	-1.08358	-4.31624
H	-2.38427	-1.427	-2.92741
H	-0.921135	-2.44759	-3.19078
C	5093.4	-3.42162	0.410321
C	5093.84	-2.25764	-0.389919
O	5094.41	-2.40706	-1.46113
H	5093.68	-4.35863	-0.118725
H	5092.3	-3.39825	0.542228
H	5093.89	-3.41091	1.40597
N	5093.59	-1.05256	0.125389
C	5093.96	0.173785	-0.535332
C	5094.01	1.27048	0.510717
O	5093.52	1.09769	1.62542
H	5093.15	-0.944398	1.01273
H	5094.95	0.0664729	-0.945167
C	5092.95	0.5414	-1.64468
H	5091.93	0.650052	-1.22086
H	5093.23	1.4851	-2.15559
H	5092.92	-0.270336	-2.40398
N	5094.62	2.42348	0.179947
C	5094.72	3.5192	1.11516
H	5095.02	2.54132	-0.724768
H	5095.26	4.37825	0.655939
H	5095.28	3.20512	2.02763
H	5093.71	3.86536	1.42976
