44
  This energy is 1.44969e-319 and Call times are: 279
C	-2.91733	0.951485	1.6462
C	-1.97226	-0.0809669	1.16445
O	-2.10404	-1.25559	1.4797
H	-3.6847	0.473708	2.2933
H	-3.42446	1.43712	0.786078
H	-2.3762	1.71976	2.2377
N	-0.978353	0.344174	0.381015
C	0.0192287	-0.540659	-0.165547
C	1.22942	0.294169	-0.536677
O	1.15397	1.52011	-0.59328
H	-0.864918	1.30804	0.155102
H	0.325555	-1.2416	0.600563
C	-0.512274	-1.28793	-1.40901
H	-0.826252	-0.565834	-2.19266
H	0.253278	-1.97023	-1.8323
H	-1.39926	-1.89477	-1.12416
N	2.38584	-0.354194	-0.778166
C	3.59297	0.35817	-1.12681
H	2.42833	-1.3462	-0.720279
H	4.43507	-0.350423	-1.28812
H	3.88036	1.06505	-0.315037
H	3.44604	0.946805	-2.0612
C	22.6904	0.650336	3.40695
C	22.7581	-0.284433	2.26117
O	22.8126	-1.49422	2.43417
H	22.706	0.0705689	4.35537
H	21.7519	1.24212	3.36298
H	23.5619	1.33825	3.39183
N	22.7618	0.267064	1.04535
C	22.8237	-0.511383	-0.165851
C	23.3271	0.391812	-1.27497
O	23.3622	1.61169	-1.125
H	22.7464	1.25526	0.918212
H	23.5463	-1.30707	-0.0361856
C	21.4384	-1.08631	-0.536406
H	20.6994	-0.267357	-0.668017
H	21.4824	-1.68639	-1.46847
H	21.0802	-1.74512	0.284486
N	23.7511	-0.192416	-2.4129
C	24.2581	0.586331	-3.51864
H	23.7213	-1.1816	-2.51225
H	24.5544	-0.0751957	-4.36236
H	25.1496	1.17725	-3.20686
H	23.4836	1.29784	-3.88613
