44
  This energy is 1.33304e-319 and Call times are: 11955
C	-1.48882	3.13493	0.2859
C	-0.312237	2.27001	0.0435001
O	0.75459	2.74191	-0.324848
H	-1.2174	4.19202	0.0743348
H	-1.81287	3.05214	1.34465
H	-2.32581	2.83844	-0.380791
N	-0.486914	0.961568	0.243114
C	0.563579	-0.0057685	0.0493274
C	-0.0834289	-1.36256	-0.150033
O	-1.27066	-1.53819	0.117304
H	-1.36899	0.586204	0.515091
H	1.10325	0.237679	-0.857074
C	1.5211	-0.046705	1.26118
H	0.964048	-0.296066	2.18943
H	2.33127	-0.790409	1.11523
H	1.98765	0.953274	1.39727
N	0.682421	-2.35316	-0.648213
C	0.149632	-3.675	-0.882859
H	1.63918	-2.18924	-0.86496
H	0.934497	-4.34831	-1.29261
H	-0.693047	-3.63545	-1.61057
H	-0.233088	-4.11846	0.0647949
C	572.817	2.70992	-1.95331
C	572.515	1.47624	-1.19275
O	571.362	1.1203	-0.99603
H	571.864	3.19114	-2.26487
H	573.409	2.46532	-2.85998
H	573.388	3.42055	-1.31952
N	573.565	0.789592	-0.736416
C	573.433	-0.430156	0.0195743
C	574.719	-0.640012	0.794371
O	575.728	0.00964144	0.525661
H	574.5	1.10547	-0.878279
H	572.632	-0.313602	0.738041
C	573.167	-1.63892	-0.905086
H	573.99	-1.75515	-1.6413
H	573.064	-2.57975	-0.326215
H	572.222	-1.47238	-1.46785
N	574.707	-1.54304	1.79456
C	575.881	-1.8014	2.59454
H	573.878	-2.05354	2.00117
H	575.67	-2.57693	3.36355
H	576.214	-0.873959	3.11424
H	576.721	-2.15986	1.95588
