44
  This energy is 1.27024e-320 and Call times are: 55173
C	1.37496	-0.0857835	-3.19816
C	0.476661	-0.625408	-2.15267
O	-0.307946	-1.53114	-2.3987
H	1.19159	-0.623929	-4.15349
H	2.43556	-0.22941	-2.90268
H	1.17753	0.996096	-3.35147
N	0.570402	-0.066308	-0.943953
C	-0.236649	-0.48324	0.174825
C	-0.258956	0.65057	1.18141
O	0.535409	1.58496	1.09345
H	1.19296	0.690547	-0.763602
H	-1.2525	-0.642312	-0.164022
C	0.327941	-1.7638	0.829442
H	1.37042	-1.59727	1.17529
H	-0.29118	-2.0877	1.69116
H	0.340136	-2.5864	0.081567
N	-1.19023	0.604468	2.15434
C	-1.29493	1.64551	3.15007
H	-1.82871	-0.156507	2.20436
H	-2.11967	1.42589	3.86338
H	-1.49986	2.62956	2.66957
H	-0.346218	1.73409	3.72737
C	2618.71	-1.29138	0.430852
C	2617.43	-1.19203	-0.31703
O	2617.29	-1.72966	-1.40731
H	2619.43	-1.89176	-0.158895
H	2618.54	-1.79005	1.40851
H	2619.13	-0.279389	0.600634
N	2616.46	-0.484587	0.261045
C	2615.16	-0.298096	-0.34298
C	2614.53	0.92673	0.28581
O	2614.99	1.41742	1.31374
H	2616.59	-0.0270486	1.13612
H	2615.29	-0.0959992	-1.39861
C	2614.26	-1.53351	-0.130163
H	2614.13	-1.73836	0.953856
H	2613.26	-1.39335	-0.594137
H	2614.74	-2.42413	-0.594245
N	2613.46	1.46397	-0.333767
C	2612.8	2.63749	0.185017
H	2613.1	1.05647	-1.16855
H	2611.94	2.9237	-0.463474
H	2613.5	3.49836	0.233498
H	2612.41	2.44884	1.21306
