44
  This energy is 8.59328e-320 and Call times are: 4101
C	-3.06768	1.01231	1.30027
C	-1.86134	0.15488	1.32805
O	-1.6425	-0.598847	2.2664
H	-3.66086	0.841781	2.22489
H	-3.69522	0.761323	0.419346
H	-2.77569	2.08256	1.25285
N	-1.03618	0.258226	0.283642
C	0.177013	-0.510777	0.166916
C	1.08881	0.203154	-0.811947
O	0.656874	1.0996	-1.5342
H	-1.21068	0.897253	-0.460757
H	0.675764	-0.529154	1.12764
C	-0.112097	-1.94614	-0.326294
H	-0.624377	-1.92355	-1.31178
H	0.819876	-2.54108	-0.41715
H	-0.781852	-2.45796	0.398699
N	2.38453	-0.165878	-0.842471
C	3.32934	0.465897	-1.73374
H	2.7163	-0.888554	-0.245059
H	4.34227	0.0229389	-1.61122
H	3.39683	1.55813	-1.52466
H	3.01588	0.336242	-2.79493
C	204.913	-3.0215	-0.250386
C	204.613	-1.65192	-0.725428
O	205.266	-1.13669	-1.62271
H	205.774	-3.42897	-0.823709
H	204.033	-3.68121	-0.405446
H	205.176	-3.00368	0.828322
N	203.605	-1.02105	-0.11856
C	203.194	0.314823	-0.470046
C	202.429	0.891203	0.705056
O	202.037	0.165333	1.61678
H	203.1	-1.4405	0.630922
H	204.075	0.925816	-0.620166
C	202.307	0.315946	-1.73455
H	201.404	-0.312342	-1.57728
H	201.989	1.34301	-2.00809
H	202.879	-0.109664	-2.58775
N	202.217	2.22188	0.720691
C	201.508	2.8613	1.80453
H	202.548	2.79324	-0.0229208
H	201.434	3.95795	1.6336
H	202.033	2.69181	2.77202
H	200.476	2.45076	1.89572
