44
  This energy is 7.32255e-320 and Call times are: 45261
C	-2.99942	-1.03187	1.43696
C	-1.76787	-0.210621	1.44312
O	-1.58879	0.654631	2.28915
H	-3.65587	-0.715745	2.2766
H	-2.74433	-2.10492	1.56463
H	-3.54701	-0.893627	0.480938
N	-0.880584	-0.465114	0.478584
C	0.364447	0.249763	0.353389
C	0.850694	0.092128	-1.07418
O	0.352881	-0.750612	-1.81836
H	-1.05117	-1.15273	-0.222142
H	0.184016	1.30336	0.524979
C	1.42489	-0.290632	1.33856
H	1.60704	-1.37189	1.16016
H	2.38475	0.257701	1.24493
H	1.05622	-0.170508	2.38058
N	1.82614	0.920054	-1.49731
C	2.34405	0.851585	-2.84388
H	2.21112	1.6002	-0.88214
H	3.14104	1.61208	-2.99782
H	1.53428	1.03735	-3.58618
H	2.77557	-0.154976	-3.04835
C	2146.45	-1.74287	-2.38116
C	2146.72	-1.3399	-0.982729
O	2145.95	-1.63221	-0.0796202
H	2145.49	-2.30259	-2.42296
H	2147.27	-2.39806	-2.75497
H	2146.37	-0.845133	-3.02983
N	2147.84	-0.642722	-0.772444
C	2148.24	-0.180464	0.532827
C	2149.21	0.967515	0.343245
O	2149.72	1.18541	-0.754623
H	2148.45	-0.385772	-1.52082
H	2147.37	0.20638	1.05007
C	2148.9	-1.31023	1.35062
H	2149.8	-1.70523	0.816764
H	2149.21	-0.957764	2.35628
H	2148.18	-2.14552	1.48148
N	2149.48	1.7456	1.41127
C	2150.38	2.86871	1.3227
H	2149.05	1.55729	2.2894
H	2150.47	3.38166	2.30581
H	2150.02	3.60788	0.572851
H	2151.4	2.53247	1.01112
