44
  This energy is 6.35862e-320 and Call times are: 33081
C	-3.1551	0.848942	-1.20447
C	-1.80097	0.280312	-1.38934
O	-1.48957	-0.287349	-2.42726
H	-3.76099	0.658848	-2.11695
H	-3.0904	1.9448	-1.03794
H	-3.65517	0.372168	-0.335237
N	-0.955093	0.418179	-0.365688
C	0.39617	-0.0818492	-0.395522
C	0.871205	-0.22639	1.0372
O	0.248078	0.292583	1.96143
H	-1.22995	0.856999	0.485681
H	0.396794	-1.06753	-0.843301
C	1.33177	0.871646	-1.17181
H	1.3282	1.88208	-0.710144
H	2.373	0.489573	-1.19686
H	0.972366	0.970008	-2.21933
N	1.98121	-0.95825	1.2569
C	2.50144	-1.16068	2.58903
H	2.46734	-1.3761	0.496428
H	3.4197	-1.78781	2.5615
H	1.74783	-1.67073	3.2318
H	2.75676	-0.185636	3.06367
C	1568.86	-1.89522	-0.69027
C	1570.19	-1.72023	-0.0545417
O	1570.63	-2.55755	0.717305
H	1568.41	-2.84942	-0.341641
H	1568.97	-1.93088	-1.79483
H	1568.19	-1.05656	-0.411348
N	1570.85	-0.605355	-0.366643
C	1572.15	-0.294316	0.171008
C	1572.36	1.2017	0.0428162
O	1571.63	1.88207	-0.668426
H	1570.46	0.0830308	-0.974099
H	1572.16	-0.539127	1.22551
C	1573.27	-1.05487	-0.57986
H	1573.25	-0.801899	-1.66146
H	1574.27	-0.817798	-0.168322
H	1573.1	-2.14948	-0.47934
N	1573.37	1.75382	0.750534
C	1573.64	3.17196	0.700428
H	1573.95	1.18746	1.32595
H	1574.5	3.43088	1.3487
H	1572.75	3.75247	1.04906
H	1573.87	3.49109	-0.341056
