44
  This energy is 1.34994e-319 and Call times are: 91377
C	-2.38334	2.52813	0.233244
C	-1.80047	1.24342	0.681564
O	-2.21143	0.678595	1.68584
H	-3.18487	2.83433	0.940101
H	-2.82186	2.41616	-0.78065
H	-1.60182	3.31664	0.212611
N	-0.808974	0.749855	-0.0638871
C	-0.142419	-0.49023	0.243882
C	1.20584	-0.479152	-0.449889
O	1.45676	0.349542	-1.32289
H	-0.463517	1.23404	-0.86336
H	0.0368735	-0.538045	1.31048
C	-0.97168	-1.70625	-0.225943
H	-1.15432	-1.65364	-1.32047
H	-0.461407	-2.66276	0.00961284
H	-1.95728	-1.70224	0.288573
N	2.11735	-1.3916	-0.0592654
C	3.432	-1.44919	-0.654712
H	1.89768	-2.04917	0.653878
H	4.03376	-2.26723	-0.200895
H	3.97497	-0.488427	-0.501844
H	3.35924	-1.634	-1.75095
C	4328.7	-3.00456	1.73393
C	4328.18	-1.6255	1.60086
O	4327.37	-1.17805	2.39547
H	4328.23	-3.49113	2.61632
H	4329.8	-2.98527	1.87766
H	4328.46	-3.59522	0.825789
N	4328.65	-0.913035	0.571441
C	4328.23	0.442866	0.310323
C	4328.52	0.744195	-1.148
O	4329.24	0.00223994	-1.8138
H	4329.29	-1.29874	-0.0857844
H	4327.16	0.519953	0.458573
C	4328.98	1.44372	1.21673
H	4330.08	1.36147	1.06256
H	4328.67	2.48871	1.0184
H	4328.77	1.21158	2.28223
N	4327.94	1.83572	-1.68592
C	4328.15	2.19538	-3.06969
H	4327.36	2.41961	-1.13259
H	4327.59	3.12417	-3.32138
H	4327.79	1.38126	-3.74359
H	4329.23	2.36928	-3.27464
