44
  This energy is 9.96926e-320 and Call times are: 71259
C	-2.7597	2.0798	0.429653
C	-1.37939	1.66287	0.764486
O	-0.682431	2.32914	1.51737
H	-2.99251	3.03289	0.952407
H	-3.48366	1.30424	0.757094
H	-2.85715	2.23728	-0.665175
N	-0.946734	0.534377	0.197328
C	0.372016	0.000224464	0.426252
C	0.701579	-0.934831	-0.721048
O	-0.176832	-1.31954	-1.49061
H	-1.51385	0.015963	-0.437148
H	1.08867	0.811435	0.405708
C	0.445605	-0.760121	1.76922
H	-0.291351	-1.5912	1.78713
H	1.45971	-1.1726	1.94873
H	0.201025	-0.0645489	2.60139
N	1.9878	-1.30618	-0.87508
C	2.39769	-2.18436	-1.94605
H	2.68513	-0.978427	-0.246157
H	3.49302	-2.37301	-1.9025
H	2.15874	-1.73398	-2.93666
H	1.87017	-3.1631	-1.8755
C	3379.55	-2.86824	1.78131
C	3379.96	-2.1848	0.534939
O	3380.27	-2.82131	-0.464082
H	3379.58	-3.96843	1.6252
H	3378.51	-2.57488	2.05322
H	3380.24	-2.602	2.61039
N	3379.98	-0.850433	0.570286
C	3380.36	-0.0452004	-0.562859
C	3380.78	1.31899	-0.0468907
O	3380.52	1.66075	1.10537
H	3379.76	-0.344162	1.39907
H	3381.23	-0.493015	-1.03918
C	3379.2	0.098385	-1.56703
H	3378.32	0.557496	-1.07489
H	3379.49	0.717705	-2.44085
H	3378.9	-0.907792	-1.93663
N	3381.46	2.12567	-0.887273
C	3381.9	3.43767	-0.47998
H	3381.66	1.8281	-1.81357
H	3382.44	3.94625	-1.31116
H	3382.59	3.36488	0.390661
H	3381.04	4.07199	-0.181276
