44
  This energy is 1.23961e-319 and Call times are: 65631
C	2.80612	1.4161	-1.49882
C	1.83998	1.31176	-0.382176
O	2.00998	1.92771	0.660989
H	3.63333	2.09872	-1.2062
H	2.30502	1.82501	-2.40132
H	3.23035	0.416956	-1.73268
N	0.790244	0.510757	-0.579176
C	-0.234591	0.306977	0.413303
C	-0.941324	-0.995676	0.0925797
O	-0.786398	-1.54305	-0.997471
H	0.678184	-0.00830402	-1.42236
H	0.232342	0.197571	1.38391
C	-1.24823	1.47298	0.422798
H	-1.72486	1.58281	-0.574636
H	-2.03864	1.31936	1.18596
H	-0.717929	2.42152	0.657747
N	-1.72141	-1.5357	1.04957
C	-2.42413	-2.77985	0.838735
H	-1.82833	-1.08114	1.92774
H	-3.01289	-3.05672	1.74092
H	-1.70687	-3.60428	0.621708
H	-3.12373	-2.69481	-0.024112
C	3113.63	-0.0833979	3.38198
C	3113.37	0.650974	2.12294
O	3113.31	1.87282	2.10356
H	3113.74	0.644021	4.21525
H	3114.56	-0.675516	3.29454
H	3112.78	-0.763433	3.60941
N	3113.2	-0.0923699	1.0272
C	3112.94	0.477064	-0.271139
C	3112.3	-0.595127	-1.13092
O	3112.31	-1.77387	-0.781442
H	3113.22	-1.08806	1.06123
H	3112.22	1.28411	-0.165537
C	3114.24	0.981797	-0.933365
H	3114.97	0.15146	-1.03955
H	3114.04	1.42101	-1.93318
H	3114.7	1.76584	-0.293288
N	3111.7	-0.204838	-2.27204
C	3111.05	-1.15371	-3.14817
H	3111.69	0.754639	-2.53389
H	3110.62	-0.639086	-4.03401
H	3110.23	-1.68445	-2.61464
H	3111.78	-1.91677	-3.50715
