44
  This energy is 2.94908e-320 and Call times are: 8007
C	-1.66533	-2.70025	1.43578
C	-0.68544	-1.59253	1.49878
O	-0.135471	-1.29353	2.54979
H	-1.78189	-3.1455	2.44772
H	-1.3101	-3.48593	0.736246
H	-2.6513	-2.32028	1.09455
N	-0.447264	-0.945754	0.355396
C	0.479945	0.153119	0.257477
C	0.124761	0.953523	-0.980439
O	-0.638629	0.494635	-1.82808
H	-0.923392	-1.17994	-0.488046
H	0.350679	0.800124	1.11582
C	1.93853	-0.348102	0.165654
H	2.06742	-1.01209	-0.715608
H	2.65512	0.495458	0.0902899
H	2.18593	-0.933855	1.0777
N	0.657094	2.1855	-1.10229
C	0.366292	3.02507	-2.24104
H	1.26702	2.54182	-0.402096
H	0.899442	3.99781	-2.15879
H	-0.726799	3.22922	-2.30969
H	0.68497	2.52931	-3.18647
C	384.034	-1.76398	2.42784
C	385.002	-0.719429	2.02422
O	385.465	0.0638762	2.84191
H	383.838	-1.68127	3.519
H	384.446	-2.77195	2.21225
H	383.077	-1.63165	1.87988
N	385.329	-0.682098	0.730377
C	386.257	0.276303	0.186185
C	386	0.379729	-1.30456
O	385.308	-0.456678	-1.8826
H	384.923	-1.30706	0.0690364
H	386.057	1.24673	0.622581
C	387.72	-0.148423	0.444576
H	387.921	-1.14466	-0.00387777
H	388.438	0.587407	0.0269829
H	387.895	-0.22173	1.54003
N	386.536	1.42774	-1.96027
C	386.335	1.61521	-3.3782
H	387.087	2.09779	-1.47339
H	386.857	2.53183	-3.73162
H	385.25	1.71755	-3.61091
H	386.73	0.744373	-3.9498
