44
  This energy is 1.30379e-319 and Call times are: 72477
C	-1.90443	-2.42277	-1.62156
C	-0.616137	-1.91437	-1.09904
O	0.386701	-2.61495	-1.09796
H	-1.77239	-3.4709	-1.96777
H	-2.24201	-1.80141	-2.47759
H	-2.67611	-2.40242	-0.823415
N	-0.618179	-0.664273	-0.630396
C	0.557733	-0.0301607	-0.0900626
C	0.104793	1.11719	0.791796
O	-1.05456	1.52433	0.747459
H	-1.44849	-0.113732	-0.609945
H	1.08327	-0.739278	0.536868
C	1.47995	0.494873	-1.21299
H	0.937429	1.22158	-1.85462
H	2.38645	0.983597	-0.800441
H	1.80385	-0.354947	-1.85255
N	1.00986	1.65315	1.63417
C	0.666282	2.74102	2.51999
H	1.94118	1.30501	1.66031
H	1.54514	3.04291	3.13131
H	-0.154685	2.44087	3.21076
H	0.32207	3.62717	1.9391
C	3439.62	-3.26113	-0.0108903
C	3438.5	-2.2893	-0.0222846
O	3437.35	-2.65598	-0.181441
H	3439.22	-4.28512	-0.169301
H	3440.15	-3.22887	0.966777
H	3440.34	-3.02787	-0.824322
N	3438.83	-1.00609	0.143452
C	3437.86	0.0554204	0.155965
C	3438.58	1.35226	-0.159947
O	3439.81	1.41511	-0.123625
H	3439.78	-0.717012	0.243027
H	3437.14	-0.120457	-0.631395
C	3437.16	0.158147	1.52835
H	3437.9	0.337917	2.33384
H	3436.41	0.974419	1.54142
H	3436.63	-0.798355	1.74856
N	3437.83	2.4174	-0.500489
C	3438.42	3.6904	-0.829328
H	3436.84	2.34449	-0.531096
H	3437.64	4.43955	-1.08019
H	3439.11	3.58975	-1.70455
H	3439.02	4.07873	0.0289487
