44
  This energy is 5.43571e-320 and Call times are: 15021
C	-0.161161	-3.07876	-1.61908
C	0.524401	-2.10456	-0.740352
O	1.54351	-2.40674	-0.134875
H	0.3927	-4.0425	-1.60145
H	-0.189174	-2.69943	-2.66222
H	-1.19782	-3.25341	-1.26163
N	-0.03379	-0.895449	-0.6464
C	0.516445	0.158312	0.168252
C	-0.591495	1.15346	0.453537
O	-1.64286	1.12329	-0.18329
H	-0.880206	-0.670728	-1.12181
H	0.835586	-0.258959	1.11488
C	1.69327	0.862892	-0.542927
H	1.3625	1.28921	-1.51399
H	2.1194	1.67474	0.0816404
H	2.49762	0.123054	-0.747373
N	-0.388097	2.04988	1.43896
C	-1.39122	3.02821	1.78939
H	0.466621	2.05356	1.94757
H	-1.03574	3.67525	2.62138
H	-2.33249	2.52737	2.11251
H	-1.62821	3.67828	0.916217
C	717.566	1.4695	3.06276
C	716.792	1.4163	1.80176
O	715.848	2.16903	1.60673
H	717.138	2.25528	3.72289
H	718.627	1.71682	2.85037
H	717.512	0.491845	3.58643
N	717.18	0.505109	0.906314
C	716.527	0.333001	-0.36669
C	716.854	-1.05802	-0.87392
O	717.754	-1.71925	-0.359325
H	717.932	-0.121956	1.08901
H	715.455	0.386954	-0.22245
C	716.995	1.39436	-1.3872
H	718.095	1.33663	-1.53226
H	716.494	1.26484	-2.36847
H	716.751	2.40884	-1.00342
N	716.111	-1.54455	-1.88749
C	716.342	-2.86385	-2.42813
H	715.382	-0.9968	-2.28575
H	715.631	-3.07971	-3.25574
H	716.209	-3.64017	-1.64019
H	717.379	-2.94972	-2.82562
