44
  This energy is 1.24791e-319 and Call times are: 65673
C	1.83998	1.62275	-2.47129
C	0.71571	0.762105	-2.03943
O	-0.145907	0.402963	-2.83008
H	1.73333	1.85039	-3.55419
H	2.80619	1.10088	-2.30726
H	1.83351	2.57569	-1.90137
N	0.697542	0.412367	-0.751127
C	-0.331069	-0.421173	-0.181918
C	-0.344287	-0.187333	1.31621
O	0.584518	0.398664	1.86917
H	1.38929	0.73533	-0.110725
H	-1.29192	-0.110094	-0.571884
C	-0.0761456	-1.91473	-0.484264
H	0.910685	-2.23032	-0.0834091
H	-0.866393	-2.55937	-0.0475462
H	-0.0676399	-2.07261	-1.58479
N	-1.41539	-0.624032	2.00761
C	-1.52113	-0.435442	3.4357
H	-2.1601	-1.08968	1.54091
H	-2.47271	-0.864754	3.81966
H	-1.49725	0.648603	3.69166
H	-0.674437	-0.933108	3.96165
C	3116.79	0.0445669	-2.85952
C	3115.47	0.150629	-2.18552
O	3114.47	0.491955	-2.80064
H	3116.67	0.321282	-3.93026
H	3117.17	-0.996846	-2.7957
H	3117.52	0.733687	-2.38545
N	3115.45	-0.139268	-0.88253
C	3114.25	-0.082214	-0.0902853
C	3114.65	0.0486288	1.36468
O	3115.81	-0.162233	1.7148
H	3116.28	-0.387908	-0.386333
H	3113.69	0.807507	-0.357855
C	3113.38	-1.34707	-0.288627
H	3113.96	-2.25797	-0.0138439
H	3112.46	-1.30636	0.319844
H	3113.09	-1.4321	-1.35854
N	3113.71	0.423347	2.24702
C	3114	0.585395	3.65117
H	3112.78	0.596309	1.94293
H	3113.09	0.895569	4.2122
H	3114.79	1.36161	3.79956
H	3114.38	-0.369975	4.08701
