44
  This energy is 3.26232e-320 and Call times are: 31947
C	-0.917847	2.37732	-2.37319
C	-0.00573505	1.326	-1.86922
O	0.920653	0.911644	-2.55231
H	-0.610429	2.66841	-3.40111
H	-0.870295	3.27177	-1.71705
H	-1.96058	1.99693	-2.40407
N	-0.256944	0.860758	-0.643333
C	0.541841	-0.161933	-0.0165371
C	-0.29134	-0.797553	1.07938
O	-1.32904	-0.265296	1.4689
H	-1.03221	1.18572	-0.108262
H	0.766368	-0.929576	-0.746184
C	1.842	0.424792	0.577144
H	1.60797	1.21244	1.32478
H	2.45951	-0.360001	1.06042
H	2.44277	0.888418	-0.235428
N	0.135697	-1.96965	1.58912
C	-0.598749	-2.65451	2.62726
H	0.974173	-2.38794	1.25562
H	-0.0860775	-3.5991	2.91393
H	-1.62744	-2.90532	2.28065
H	-0.686698	-2.01393	3.53451
C	1520.92	1.32659	0.0940245
C	1519.45	1.48195	0.0821939
O	1518.92	2.57494	0.253315
H	1521.39	2.31566	0.28011
H	1521.27	0.939044	-0.885236
H	1521.22	0.625666	0.899562
N	1518.73	0.370466	-0.117871
C	1517.29	0.361339	-0.156249
C	1516.83	-1.05459	0.124003
O	1517.62	-1.99524	0.083507
H	1519.17	-0.518734	-0.226964
H	1516.92	0.994333	0.636949
C	1516.76	0.832094	-1.5294
H	1517.15	0.180932	-2.34088
H	1515.66	0.826423	-1.56236
H	1517.11	1.87004	-1.72334
N	1515.53	-1.23602	0.438002
C	1515	-2.54698	0.732054
H	1514.91	-0.461158	0.472561
H	1513.91	-2.48878	0.964768
H	1515.52	-2.99468	1.60821
H	1515.14	-3.23016	-0.137354
