44
  This energy is 1.25888e-320 and Call times are: 1329
C	-3.32526	1.01913	-0.173732
C	-2.22891	0.258046	0.466567
O	-2.39453	-0.31003	1.53725
H	-4.23074	0.970142	0.469357
H	-3.56524	0.58265	-1.16606
H	-3.03074	2.08234	-0.299361
N	-1.06361	0.23554	-0.184539
C	0.0954703	-0.462647	0.311337
C	1.31927	0.131987	-0.357964
O	1.20577	0.863383	-1.3398
H	-0.932782	0.72655	-1.0417
H	0.184103	-0.285801	1.37574
C	0.0101715	-1.97641	0.0140893
H	-0.0813438	-2.15417	-1.07868
H	0.901008	-2.51708	0.394704
H	-0.890993	-2.3998	0.508855
N	2.52373	-0.152944	0.175043
C	3.74361	0.377868	-0.387376
H	2.59421	-0.741047	0.974042
H	4.62763	0.0280376	0.190002
H	3.73209	1.49178	-0.370004
H	3.86374	0.0503	-1.44542
C	72.053	0.672063	3.30859
C	72.3097	0.764629	1.85369
O	73.2167	1.458	1.41425
H	72.7841	1.30948	3.85181
H	72.1675	-0.37786	3.65122
H	71.0263	1.0261	3.5395
N	71.498	0.0595224	1.06228
C	71.6223	0.0479114	-0.373421
C	70.2918	-0.391784	-0.952717
O	69.4321	-0.901639	-0.236586
H	70.7445	-0.478511	1.43061
H	71.8141	1.0561	-0.718158
C	72.7443	-0.909583	-0.833159
H	72.5447	-1.94282	-0.477217
H	72.8429	-0.92084	-1.93812
H	73.7135	-0.577376	-0.401193
N	70.0829	-0.182995	-2.26754
C	68.8419	-0.558115	-2.90439
H	70.7882	0.23752	-2.82875
H	68.8643	-0.306873	-3.98773
H	67.9834	-0.0226223	-2.43804
H	68.6628	-1.65291	-2.80189
