44
  This energy is 2.83841e-320 and Call times are: 55761
C	0.393828	0.998285	3.31277
C	-0.387454	0.932853	2.05718
O	-1.5428	1.3321	2.00954
H	-0.237696	1.4365	4.11589
H	1.29099	1.63716	3.17225
H	0.710467	-0.0206177	3.62022
N	0.23602	0.413143	0.997201
C	-0.392378	0.283161	-0.293166
C	0.362288	-0.774817	-1.07445
O	1.46341	-1.16985	-0.695882
H	1.16767	0.0645905	1.05616
H	-1.40671	-0.0697698	-0.156611
C	-0.378804	1.62271	-1.06293
H	0.663267	1.9822	-1.20066
H	-0.86203	1.52624	-2.05689
H	-0.933723	2.38954	-0.47967
N	-0.22679	-1.27598	-2.178
C	0.411096	-2.29511	-2.97841
H	-1.12132	-0.948422	-2.46394
H	-0.230199	-2.57464	-3.84319
H	0.599776	-3.2103	-2.37172
H	1.38916	-1.93262	-3.36978
C	2641.21	0.827228	2.49215
C	2642	-0.164568	1.72209
O	2642.01	-1.3447	2.04378
H	2640.71	0.316575	3.33924
H	2640.44	1.29522	1.84206
H	2641.88	1.61448	2.89671
N	2642.68	0.303111	0.673745
C	2643.49	-0.538835	-0.171927
C	2644.49	0.345388	-0.889902
O	2644.35	1.5675	-0.900272
H	2642.68	1.27158	0.439228
H	2644.04	-1.22968	0.448309
C	2642.62	-1.30232	-1.19824
H	2642.05	-0.590575	-1.8324
H	2643.24	-1.95169	-1.85093
H	2641.89	-1.94542	-0.659744
N	2645.53	-0.255008	-1.49183
C	2646.54	0.506645	-2.18946
H	2645.63	-1.24471	-1.46615
H	2647.32	-0.16688	-2.61779
H	2647.04	1.22153	-1.49726
H	2646.09	1.09232	-3.02123
