44
  This energy is 8.83883e-321 and Call times are: 1203
C	0.358999	0.0535914	-3.46329
C	0.555314	-0.588694	-2.14415
O	1.00188	-1.72398	-2.05357
H	0.667495	-0.652122	-4.26495
H	0.97684	0.973207	-3.53678
H	-0.710658	0.314865	-3.60652
N	0.214074	0.135132	-1.07551
C	0.347299	-0.352722	0.273966
C	-0.578869	0.46071	1.15702
O	-1.0797	1.50645	0.747826
H	-0.175925	1.04785	-1.16368
H	0.0157093	-1.38268	0.310112
C	1.80347	-0.229487	0.775456
H	2.14062	0.828303	0.736397
H	1.90965	-0.604385	1.81418
H	2.47197	-0.828786	0.119637
N	-0.845993	-0.0156115	2.38899
C	-1.72589	0.684584	3.29547
H	-0.436563	-0.867347	2.69907
H	-1.81692	0.134985	4.25822
H	-2.74335	0.788424	2.85363
H	-1.33685	1.7062	3.51026
C	67.0512	-2.86242	0.711225
C	66.9487	-1.4607	0.246612
O	67.9494	-0.795954	0.0160565
H	68.1233	-3.1422	0.800781
H	66.5617	-3.54341	-0.016424
H	66.5667	-2.97303	1.70421
N	65.7145	-0.972396	0.10277
C	65.4532	0.373474	-0.341304
C	64.0514	0.746036	0.100614
O	63.2673	-0.114674	0.495887
H	64.9077	-1.51464	0.321724
H	66.1432	1.04673	0.151314
C	65.5755	0.492866	-1.87685
H	64.8667	-0.199639	-2.37902
H	65.3751	1.52794	-2.22217
H	66.6065	0.2162	-2.1879
N	63.71	2.04915	0.0639356
C	62.4012	2.49931	0.476851
H	64.361	2.73135	-0.252341
H	62.3137	3.60319	0.37172
H	62.2119	2.23259	1.54187
H	61.6079	2.02391	-0.144364
