44
  This energy is 2.93673e-320 and Call times are: 74577
C	-1.20002	2.31413	-2.30886
C	-0.422478	1.10259	-1.96421
O	0.0573779	0.389968	-2.83507
H	-1.25067	2.41578	-3.41474
H	-0.709297	3.21646	-1.88718
H	-2.23227	2.23357	-1.9077
N	-0.284642	0.836631	-0.663196
C	0.444252	-0.305318	-0.171778
C	-0.0276374	-0.586266	1.2416
O	-0.693	0.243349	1.85874
H	-0.704975	1.40884	0.0359737
H	0.197936	-1.16759	-0.778315
C	1.96754	-0.0472171	-0.181854
H	2.21661	0.838435	0.440802
H	2.53182	-0.924568	0.19579
H	2.30047	0.15843	-1.22253
N	0.289837	-1.77969	1.78099
C	-0.126319	-2.1401	3.11632
H	0.822933	-2.44045	1.26287
H	0.233589	-3.15935	3.37873
H	-1.23737	-2.12892	3.19803
H	0.282028	-1.42098	3.86284
C	3533.57	1.42598	2.88339
C	3534.04	1.52021	1.48459
O	3533.9	2.54875	0.837158
H	3533.1	2.39074	3.17848
H	3534.42	1.21632	3.56354
H	3532.81	0.617499	2.97759
N	3534.62	0.42707	0.979065
C	3535.13	0.364695	-0.366472
C	3535.22	-1.09588	-0.764167
O	3535.13	-1.98417	0.080963
H	3534.7	-0.414082	1.50705
H	3534.43	0.845323	-1.03372
C	3536.52	1.02848	-0.469946
H	3537.24	0.533394	0.216355
H	3536.92	0.982356	-1.50472
H	3536.44	2.09761	-0.174924
N	3535.38	-1.37908	-2.0719
C	3535.46	-2.74109	-2.54551
H	3535.44	-0.646357	-2.74127
H	3535.59	-2.76615	-3.64957
H	3534.53	-3.30225	-2.29143
H	3536.32	-3.26888	-2.07646
