44
  This energy is 1.55211e-319 and Call times are: 30603
C	-2.1605	0.925289	2.56947
C	-0.886009	0.34936	2.08452
O	0.0123176	0.057074	2.86175
H	-2.11973	1.02808	3.67565
H	-3.00768	0.25951	2.30144
H	-2.32265	1.92808	2.12107
N	-0.77722	0.176931	0.765132
C	0.400908	-0.372637	0.143185
C	0.398939	0.0495662	-1.31317
O	-0.612729	0.520069	-1.82988
H	-1.50486	0.446055	0.139789
H	1.27815	0.0578063	0.609268
C	0.426185	-1.9138	0.249508
H	-0.475511	-2.35203	-0.229042
H	1.33209	-2.34024	-0.228253
H	0.426194	-2.21018	1.3211
N	1.54638	-0.0898094	-2.00596
C	1.64242	0.296397	-3.39441
H	2.35628	-0.465955	-1.56801
H	2.66514	0.102791	-3.7866
H	1.41966	1.38113	-3.51679
H	0.915072	-0.277387	-4.01322
C	1454.12	1.95982	0.0718568
C	1455.11	1.12531	-0.647186
O	1454.94	0.806994	-1.81584
H	1453.28	2.1997	-0.610932
H	1454.59	2.90751	0.407527
H	1453.73	1.41155	0.952856
N	1456.18	0.742311	0.0505358
C	1457.23	-0.0712291	-0.511203
C	1457.98	-0.729656	0.634697
O	1457.82	-0.341516	1.79088
H	1456.3	0.983855	1.01053
H	1456.79	-0.856483	-1.10854
C	1458.21	0.774944	-1.36034
H	1458.66	1.57996	-0.744596
H	1459.01	0.151613	-1.79451
H	1457.65	1.25282	-2.19556
N	1458.79	-1.76216	0.340259
C	1459.53	-2.45809	1.36746
H	1458.9	-2.06598	-0.600675
H	1460.14	-3.27407	0.925912
H	1458.84	-2.90648	2.1153
H	1460.21	-1.75839	1.90407
