44
  This energy is 8.48904e-320 and Call times are: 102255
C	-1.85436	-1.15348	-2.71237
C	-0.575556	-0.742245	-2.09048
O	0.487693	-0.881364	-2.67924
H	-1.65312	-1.57712	-3.72028
H	-2.52732	-0.276779	-2.8189
H	-2.35141	-1.92715	-2.09001
N	-0.653013	-0.223334	-0.862843
C	0.503859	0.222955	-0.128471
C	0.139936	0.248967	1.3433
O	-1.03345	0.17015	1.70218
H	-1.52211	-0.14211	-0.382211
H	1.30181	-0.497279	-0.257327
C	0.955283	1.62696	-0.589013
H	0.134061	2.36319	-0.456059
H	1.84595	1.9736	-0.0256935
H	1.2179	1.59479	-1.66889
N	1.14662	0.338855	2.23465
C	0.896895	0.358399	3.65713
H	2.09002	0.394457	1.92459
H	1.85125	0.438355	4.22287
H	0.376547	-0.573182	3.97749
H	0.252996	1.22524	3.93129
C	4843.61	-0.840186	3.32445
C	4842.94	-0.014583	2.29102
O	4842.08	0.79599	2.58955
H	4843.18	-0.591036	4.32176
H	4844.7	-0.634179	3.33546
H	4843.44	-1.9184	3.12094
N	4843.34	-0.211022	1.03087
C	4842.78	0.516272	-0.0837339
C	4843.05	-0.286841	-1.3421
O	4843.85	-1.21932	-1.335
H	4844.02	-0.895012	0.797247
H	4841.71	0.58774	0.040152
C	4843.41	1.92132	-0.206958
H	4844.52	1.8443	-0.333254
H	4842.99	2.48413	-1.06411
H	4843.21	2.4991	0.721467
N	4842.36	0.0453519	-2.45264
C	4842.54	-0.670658	-3.69426
H	4841.71	0.79855	-2.43629
H	4841.89	-0.246842	-4.48985
H	4842.28	-1.74729	-3.56737
H	4843.6	-0.606236	-4.03644
