44
  This energy is 6.09677e-321 and Call times are: 13215
C	0.908093	-2.7356	-1.95397
C	0.353342	-1.37168	-1.80165
O	0.0879203	-0.684092	-2.778
H	1.02352	-2.9665	-3.03528
H	0.222204	-3.48063	-1.49867
H	1.90248	-2.80136	-1.46427
N	0.169084	-0.94273	-0.550884
C	-0.362761	0.360531	-0.241886
C	0.0437115	0.705009	1.17774
O	0.487757	-0.158878	1.93164
H	0.416484	-1.50126	0.236376
H	0.0905916	1.0907	-0.900212
C	-1.90185	0.385967	-0.374837
H	-2.36363	-0.364757	0.301394
H	-2.31466	1.38804	-0.13776
H	-2.18669	0.130855	-1.41883
N	-0.0794402	1.98859	1.56921
C	0.293787	2.41226	2.89864
H	-0.434145	2.67428	0.942113
H	0.11707	3.50281	3.02795
H	1.37234	2.20711	3.08807
H	-0.301419	1.86706	3.66653
C	628.706	-1.59265	-2.28152
C	629.778	-0.625539	-1.95344
O	630.403	-0.051928	-2.83427
H	628.613	-1.67689	-3.3861
H	627.737	-1.24604	-1.8646
H	628.951	-2.59199	-1.86427
N	630.019	-0.425747	-0.655708
C	631.03	0.484579	-0.179871
C	631.384	0.0868314	1.23986
O	630.672	-0.692733	1.87035
H	629.522	-0.920905	0.0520217
H	631.92	0.369768	-0.78537
C	630.531	1.94647	-0.213292
H	629.618	2.06051	0.40836
H	631.307	2.65009	0.152312
H	630.274	2.22519	-1.25842
N	632.512	0.600134	1.77003
C	632.935	0.268856	3.11057
H	633.078	1.22371	1.24124
H	633.884	0.791629	3.36372
H	633.102	-0.828161	3.20998
H	632.161	0.568791	3.85296
