44
  This energy is 1.19164e-319 and Call times are: 11409
C	1.81597	1.52165	-2.55205
C	1.632	0.453646	-1.54372
O	2.38792	-0.506911	-1.49461
H	2.69391	1.27808	-3.18904
H	1.99566	2.49533	-2.04958
H	0.914947	1.59924	-3.19632
N	0.601446	0.598751	-0.707504
C	0.293712	-0.356329	0.32688
C	-1.16124	-0.172896	0.712504
O	-1.78444	0.82592	0.357788
H	-0.0244718	1.37103	-0.776382
H	0.40443	-1.35621	-0.073188
C	1.19983	-0.158703	1.5626
H	1.08424	0.868302	1.97006
H	0.965651	-0.89258	2.36095
H	2.2629	-0.294498	1.26665
N	-1.74461	-1.15004	1.43423
C	-3.12918	-1.06789	1.83719
H	-1.22544	-1.95386	1.70546
H	-3.42188	-1.96627	2.42413
H	-3.79432	-0.999465	0.946037
H	-3.3023	-0.165585	2.46731
C	550.086	2.62256	-0.154894
C	548.944	1.857	-0.703878
O	548.324	2.25794	-1.67933
H	550.233	3.54543	-0.757042
H	551.012	2.01264	-0.200207
H	549.883	2.9092	0.898594
N	548.633	0.72161	-0.0738782
C	547.549	-0.131747	-0.489693
C	547.157	-0.996745	0.692468
O	547.887	-1.08082	1.6789
H	549.128	0.4205	0.73731
H	546.695	0.483147	-0.744665
C	547.959	-1.02023	-1.68531
H	548.836	-1.6492	-1.42048
H	547.127	-1.67846	-2.00815
H	548.245	-0.374741	-2.54426
N	545.978	-1.64617	0.628296
C	545.517	-2.48313	1.71117
H	545.399	-1.55967	-0.175602
H	544.528	-2.9307	1.46823
H	545.412	-1.89047	2.64878
H	546.238	-3.30997	1.90387
