44
  This energy is 9.8576e-320 and Call times are: 16659
C	2.56815	-2.1855	0.86851
C	1.79857	-0.936787	1.06766
O	1.99892	-0.218074	2.03709
H	3.28479	-2.31322	1.70874
H	3.13637	-2.13688	-0.0841666
H	1.88225	-3.05839	0.845315
N	0.881596	-0.65107	0.140353
C	0.0547163	0.527915	0.195956
C	-1.16959	0.279273	-0.663394
O	-1.20481	-0.666059	-1.44885
H	0.707601	-1.25947	-0.629395
H	-0.282334	0.673584	1.21441
C	0.815789	1.77317	-0.311212
H	1.1607	1.62004	-1.35606
H	0.182059	2.68281	-0.269616
H	1.71094	1.94381	0.325766
N	-2.21633	1.11528	-0.516983
C	-3.4289	0.949406	-1.28401
H	-2.17113	1.87013	0.129068
H	-4.17046	1.73609	-1.02233
H	-3.8879	-0.0456632	-1.08301
H	-3.21599	1.01729	-2.37545
C	797.942	0.93317	1.17541
C	796.871	0.969417	0.154573
O	796.939	1.72161	-0.807726
H	798.732	1.66717	0.905026
H	798.394	-0.0802628	1.22046
H	797.531	1.19881	2.17191
N	795.838	0.14665	0.349717
C	794.72	0.0676658	-0.555912
C	793.549	-0.529614	0.200334
O	793.717	-1.07956	1.28708
H	795.78	-0.44031	1.15287
H	794.44	1.06903	-0.8577
C	795.055	-0.801169	-1.78881
H	795.342	-1.82755	-1.47553
H	794.196	-0.863988	-2.4883
H	795.914	-0.353702	-2.33345
N	792.325	-0.414998	-0.351048
C	791.149	-0.942647	0.302031
H	792.208	0.0398536	-1.22783
H	790.24	-0.750743	-0.309368
H	791.007	-0.467429	1.29968
H	791.244	-2.04226	0.453759
