44
  This energy is 2.99947e-320 and Call times are: 125523
C	2.08867	2.63457	0.906985
C	0.754769	2.08685	0.572448
O	-0.255925	2.76554	0.692293
H	1.97732	3.68295	1.25964
H	2.74229	2.62486	0.00948787
H	2.55875	2.03234	1.71277
N	0.723206	0.822843	0.143892
C	-0.498772	0.151206	-0.220115
C	-0.249303	-1.34261	-0.145858
O	0.895	-1.7857	-0.0679307
H	1.55033	0.271028	0.0782796
H	-1.26349	0.393531	0.506907
C	-0.953889	0.54372	-1.64346
H	-0.166757	0.29435	-2.38667
H	-1.89461	0.0284705	-1.92689
H	-1.13217	1.64037	-1.685
N	-1.32334	-2.15652	-0.146421
C	-1.18373	-3.5919	-0.0667132
H	-2.24149	-1.77831	-0.20292
H	-2.18044	-4.08543	-0.0826108
H	-0.662801	-3.88435	0.873686
H	-0.587881	-3.97717	-0.925616
C	5943.98	-2.34794	1.64478
C	5942.66	-1.79918	1.25812
O	5941.62	-2.40021	1.51324
H	5943.83	-3.32454	2.15604
H	5944.49	-1.65144	2.33903
H	5944.61	-2.50358	0.743134
N	5942.67	-0.627751	0.617787
C	5941.46	0.0325742	0.178152
C	5941.84	1.00697	-0.920392
O	5943.02	1.30999	-1.11457
H	5943.52	-0.162078	0.389999
H	5940.8	-0.703139	-0.250531
C	5940.78	0.783253	1.34095
H	5941.47	1.53674	1.77882
H	5939.85	1.29272	1.00595
H	5940.51	0.058681	2.13953
N	5940.85	1.50583	-1.68257
C	5941.11	2.43087	-2.75951
H	5939.9	1.24287	-1.51426
H	5940.17	2.72703	-3.26582
H	5941.79	1.96872	-3.51713
H	5941.61	3.35159	-2.37373
