44
  This energy is 6.36258e-320 and Call times are: 75921
C	1.0525	-1.77584	-2.80441
C	0.791428	-0.505649	-2.09052
O	1.12485	0.569375	-2.56973
H	1.56914	-1.55814	-3.76439
H	0.0960525	-2.29649	-3.0211
H	1.7005	-2.43478	-2.18891
N	0.183857	-0.605251	-0.905908
C	-0.137389	0.540819	-0.093412
C	-0.317258	0.0638388	1.33465
O	-0.435998	-1.13364	1.58718
H	-0.0565789	-1.48886	-0.513021
H	0.699106	1.22795	-0.107816
C	-1.4252	1.23717	-0.587133
H	-2.28117	0.52922	-0.571693
H	-1.67538	2.12016	0.0361773
H	-1.28095	1.58082	-1.63463
N	-0.31956	0.994756	2.30902
C	-0.472937	0.633362	3.699
H	-0.214954	1.95814	2.08502
H	-0.450787	1.53833	4.34537
H	0.348178	-0.0473885	4.02086
H	-1.44149	0.10815	3.86402
C	3601.62	1.17235	-1.8255
C	3600.45	0.288344	-1.66584
O	3600.05	-0.407753	-2.58964
H	3602.02	1.07766	-2.8612
H	3602.42	0.880299	-1.1106
H	3601.34	2.22949	-1.64564
N	3599.85	0.302328	-0.470488
C	3598.7	-0.503092	-0.162204
C	3598	0.122068	1.02903
O	3598.56	0.980042	1.7082
H	3600.17	0.895559	0.265028
H	3598.01	-0.471263	-0.999917
C	3599.1	-1.95985	0.161226
H	3599.8	-1.98874	1.02065
H	3598.21	-2.58282	0.398918
H	3599.61	-2.4061	-0.71875
N	3596.74	-0.280818	1.29761
C	3595.99	0.267276	2.40436
H	3596.3	-0.971073	0.731934
H	3594.98	-0.192204	2.46071
H	3595.87	1.36878	2.28946
H	3596.52	0.0765284	3.36774
