44
  This energy is 1.48323e-319 and Call times are: 36189
C	-2.54889	1.67195	1.68342
C	-2.06245	0.814149	0.579441
O	-2.84244	0.275596	-0.193917
H	-3.65976	1.70707	1.65913
H	-2.15417	2.7034	1.56886
H	-2.22367	1.25853	2.66131
N	-0.739419	0.662202	0.485336
C	-0.11557	-0.141216	-0.535527
C	1.27338	-0.511598	-0.0529553
O	1.77864	0.063423	0.909278
H	-0.115916	1.08264	1.1391
H	-0.678124	-1.05858	-0.654045
C	-0.0263259	0.622162	-1.87583
H	0.550854	1.56305	-1.75045
H	0.453393	0.00637236	-2.66415
H	-1.05005	0.888762	-2.21795
N	1.91688	-1.50232	-0.701327
C	3.23798	-1.93125	-0.305249
H	1.48825	-1.96025	-1.47322
H	3.59719	-2.75469	-0.961121
H	3.23305	-2.29793	0.746782
H	3.96213	-1.08736	-0.373353
C	1722.71	1.30159	-1.16755
C	1721.59	1.28552	-0.206051
O	1721.6	1.98745	0.795747
H	1723.49	2.0109	-0.810547
H	1722.36	1.63083	-2.1667
H	1723.16	0.288786	-1.24998
N	1720.57	0.464986	-0.492849
C	1719.41	0.339125	0.345746
C	1718.75	-0.989715	0.0311239
O	1719.06	-1.6254	-0.973163
H	1720.59	-0.123347	-1.29697
H	1719.72	0.313839	1.38177
C	1718.41	1.49615	0.103648
H	1718.09	1.51955	-0.960311
H	1717.51	1.40242	0.747868
H	1718.91	2.46396	0.336518
N	1717.83	-1.45223	0.900051
C	1717.16	-2.71357	0.689377
H	1717.59	-0.926473	1.71071
H	1716.44	-2.91737	1.51146
H	1717.89	-3.54922	0.653513
H	1716.6	-2.70486	-0.273874
