44
  This energy is 2.19513e-320 and Call times are: 19809
C	-0.451744	1.88812	-2.89086
C	-0.926887	1.36591	-1.58981
O	-1.97713	1.75477	-1.0976
H	-1.17951	2.63586	-3.27439
H	-0.365047	1.06096	-3.62646
H	0.536841	2.37871	-2.76852
N	-0.14648	0.461988	-0.992932
C	-0.474406	-0.137853	0.275723
C	0.807056	-0.676424	0.881557
O	1.82496	-0.78956	0.201192
H	0.721126	0.174897	-1.39014
H	-0.855325	0.628197	0.939154
C	-1.50368	-1.27807	0.109524
H	-1.10993	-2.06186	-0.572199
H	-1.75854	-1.74205	1.08448
H	-2.4373	-0.870845	-0.336198
N	0.791612	-1.00229	2.18906
C	1.96782	-1.51173	2.85478
H	-0.0400107	-0.896807	2.72433
H	1.75343	-1.7221	3.92578
H	2.79993	-0.772743	2.80251
H	2.3136	-2.45557	2.37437
C	946.833	-0.99909	-1.58885
C	945.372	-1.09642	-1.37229
O	944.672	-1.79861	-2.08861
H	947.119	-1.63171	-2.45725
H	947.378	-1.3562	-0.689601
H	947.12	0.0525839	-1.80071
N	944.873	-0.376155	-0.365277
C	943.471	-0.367456	-0.0305088
C	943.189	0.893066	0.763909
O	944.11	1.56106	1.23011
H	945.449	0.214663	0.192776
H	942.891	-0.317106	-0.943577
C	943.082	-1.61392	0.795498
H	943.679	-1.6628	1.73115
H	942.003	-1.61049	1.05485
H	943.294	-2.53053	0.203054
N	941.902	1.26033	0.918173
C	941.539	2.45198	1.64897
H	941.171	0.710316	0.527238
H	940.434	2.58121	1.66609
H	941.99	3.35494	1.17749
H	941.901	2.39397	2.70078
