44
  This energy is 9.53596e-320 and Call times are: 71091
C	-2.83425	-2.02312	-0.0121641
C	-2.03548	-0.905093	0.538457
O	-2.49388	-0.162172	1.39545
H	-3.83618	-2.03075	0.469422
H	-2.3298	-2.99084	0.192505
H	-2.96312	-1.89829	-1.10795
N	-0.80408	-0.756487	0.0445592
C	0.0925771	0.284124	0.480406
C	1.13541	0.484157	-0.602059
O	1.27166	-0.340601	-1.50375
H	-0.452661	-1.35039	-0.674273
H	-0.462183	1.20872	0.577596
C	0.776774	-0.0855948	1.81543
H	1.34443	-1.03493	1.71232
H	1.46777	0.71357	2.15401
H	0.00218625	-0.230584	2.59974
N	1.8849	1.60283	-0.54892
C	2.89434	1.884	-1.54298
H	1.75463	2.26164	0.184728
H	3.40306	2.84882	-1.32488
H	2.43901	1.94942	-2.5577
H	3.66347	1.07821	-1.56099
C	3370.69	2.77354	-1.22785
C	3371.79	2.16313	-0.444599
O	3372.68	2.84807	0.0276139
H	3370.85	3.87192	-1.29001
H	3369.71	2.57975	-0.734486
H	3370.67	2.35396	-2.25578
N	3371.74	0.837509	-0.292954
C	3372.74	0.100198	0.443028
C	3372.68	-1.34451	-0.0138411
O	3371.73	-1.75734	-0.674364
H	3371.02	0.287261	-0.707149
H	3373.72	0.485608	0.19209
C	3372.49	0.186195	1.96565
H	3371.48	-0.209388	2.21947
H	3373.25	-0.380319	2.53539
H	3372.53	1.24951	2.28753
N	3373.71	-2.14478	0.311329
C	3373.75	-3.53161	-0.0904631
H	3374.48	-1.79009	0.840298
H	3374.68	-4.02142	0.273981
H	3373.72	-3.61998	-1.20064
H	3372.88	-4.08492	0.324192
