44
  This energy is 7.04587e-320 and Call times are: 88815
C	1.09266	1.24288	3.0639
C	1.22911	0.33111	1.90577
O	2.22167	-0.370232	1.76638
H	1.99796	1.16162	3.70397
H	0.201274	0.966494	3.66545
H	0.99203	2.29228	2.71523
N	0.219205	0.326336	1.0326
C	0.206378	-0.506969	-0.143101
C	-0.772284	0.0968352	-1.13147
O	-1.56807	0.964798	-0.777631
H	-0.570807	0.923714	1.14194
H	1.18822	-0.487611	-0.598827
C	-0.209096	-1.95534	0.19852
H	-1.21651	-1.97143	0.666472
H	-0.219872	-2.59974	-0.704483
H	0.514946	-2.38593	0.924129
N	-0.720326	-0.336279	-2.40651
C	-1.60502	0.189683	-3.41985
H	-0.0644374	-1.03421	-2.67472
H	-1.40883	-0.293409	-4.40239
H	-1.46158	1.28853	-3.53472
H	-2.6693	0.00723538	-3.14563
C	4204.72	0.273161	3.03765
C	4204.82	-0.221483	1.64616
O	4204	-1.01232	1.1948
H	4203.84	-0.189887	3.52853
H	4204.6	1.37664	3.04339
H	4205.63	0.000279357	3.60849
N	4205.85	0.237714	0.926981
C	4206.08	-0.151155	-0.441162
C	4207.54	0.113625	-0.75991
O	4208.23	0.805093	-0.0140494
H	4206.52	0.859126	1.31524
H	4205.91	-1.21599	-0.537914
C	4205.17	0.637357	-1.41163
H	4205.35	1.72939	-1.30924
H	4205.35	0.340292	-2.46595
H	4204.11	0.435816	-1.16692
N	4208.05	-0.452345	-1.87165
C	4209.43	-0.265861	-2.24918
H	4207.47	-1.01444	-2.45853
H	4209.66	-0.808815	-3.1932
H	4210.11	-0.647953	-1.45343
H	4209.65	0.814689	-2.404
