44
  This energy is 7.06613e-320 and Call times are: 70125
C	2.47983	2.39886	0.471198
C	1.16595	1.80266	0.80205
O	0.513602	2.20003	1.75758
H	2.71776	3.19578	1.20888
H	2.45205	2.84622	-0.544637
H	3.27333	1.62319	0.511589
N	0.746173	0.81484	0.00809671
C	-0.5105	0.136612	0.202025
C	-0.429155	-1.20486	-0.500163
O	0.473521	-1.44158	-1.30077
H	1.30005	0.480454	-0.749757
H	-0.648481	-0.0531676	1.25892
C	-1.68809	0.961671	-0.363368
H	-1.54296	1.1551	-1.44764
H	-2.65727	0.442412	-0.21558
H	-1.73613	1.94233	0.158315
N	-1.36461	-2.1265	-0.197658
C	-1.3604	-3.43579	-0.807504
H	-2.08281	-1.9183	0.458145
H	-2.20968	-4.04763	-0.431164
H	-0.412104	-3.97337	-0.577313
H	-1.45079	-3.3539	-1.91489
C	3326.11	3.46902	-0.098486
C	3326.24	2.19434	0.642587
O	3326.42	2.1817	1.85275
H	3326.21	4.31856	0.611999
H	3325.12	3.52438	-0.591653
H	3326.91	3.5496	-0.86594
N	3326.16	1.07603	-0.0820686
C	3326.27	-0.239595	0.496064
C	3326.65	-1.20414	-0.609329
O	3326.57	-0.871612	-1.79023
H	3326.05	1.10008	-1.07141
H	3327.07	-0.238988	1.22454
C	3324.94	-0.679219	1.14696
H	3324.12	-0.678067	0.396984
H	3325.02	-1.69176	1.59324
H	3324.67	0.0359902	1.95412
N	3327.11	-2.42152	-0.248078
C	3327.51	-3.40159	-1.23095
H	3327.17	-2.66913	0.712951
H	3327.84	-4.3386	-0.736671
H	3328.34	-3.01277	-1.85615
H	3326.65	-3.6495	-1.90693
