44
  This energy is 5.41644e-320 and Call times are: 75543
C	-0.357657	2.1079	2.74863
C	-0.523861	1.80687	1.30885
O	-1.15352	2.55582	0.574615
H	-0.881835	3.05859	2.98798
H	0.719371	2.21971	2.99425
H	-0.79389	1.2924	3.36312
N	0.0426683	0.680755	0.869227
C	-0.03175	0.253137	-0.504976
C	0.234976	-1.23904	-0.543686
O	0.705976	-1.81895	0.432888
H	0.528268	0.0641893	1.48321
H	-1.03752	0.4171	-0.870524
C	0.997308	0.999722	-1.38291
H	2.02794	0.82988	-1.00468
H	0.942618	0.672976	-2.44169
H	0.791857	2.09174	-1.34514
N	-0.082621	-1.90172	-1.67329
C	0.124829	-3.32568	-1.7977
H	-0.469444	-1.41577	-2.45011
H	-0.196465	-3.68373	-2.8006
H	-0.458997	-3.87673	-1.02522
H	1.20126	-3.57932	-1.66303
C	3583.9	1.25783	1.23628
C	3583.05	0.773659	0.124487
O	3583.43	0.851033	-1.03747
H	3584.85	1.66889	0.823347
H	3584.14	0.421401	1.92531
H	3583.38	2.05906	1.79792
N	3581.87	0.260413	0.463281
C	3580.93	-0.251693	-0.505627
C	3579.56	-0.256266	0.132413
O	3579.43	-0.109774	1.34624
H	3581.56	0.229604	1.4111
H	3580.9	0.42126	-1.35306
C	3581.31	-1.67953	-0.956041
H	3581.35	-2.36711	-0.0841205
H	3580.6	-2.07684	-1.70222
H	3582.32	-1.66286	-1.42062
N	3578.49	-0.403856	-0.679657
C	3577.14	-0.408576	-0.163281
H	3578.62	-0.513889	-1.66011
H	3576.41	-0.543317	-0.98654
H	3576.92	0.551566	0.354818
H	3577.01	-1.23674	0.569101
