44
  This energy is 9.56956e-320 and Call times are: 34257
C	-0.44922	1.82068	2.93419
C	0.127745	1.65401	1.58122
O	0.73362	2.56576	1.03522
H	-0.238032	2.84922	3.29938
H	0.00447145	1.08986	3.63625
H	-1.54876	1.66911	2.90286
N	-0.0567328	0.466325	1.00006
C	0.445261	0.152669	-0.313882
C	-0.357636	-1.01529	-0.852824
O	-1.07613	-1.68059	-0.1092
H	-0.577191	-0.258675	1.44327
H	0.274108	0.998829	-0.967176
C	1.94661	-0.209578	-0.270758
H	2.11867	-1.07759	0.400861
H	2.33642	-0.4515	-1.28086
H	2.52359	0.653625	0.126879
N	-0.269961	-1.2786	-2.17153
C	-1.00748	-2.36335	-2.77615
H	0.311415	-0.724226	-2.75796
H	-0.801294	-2.41868	-3.86779
H	-2.1032	-2.22116	-2.63321
H	-0.722707	-3.33701	-2.31566
C	1626.46	0.957059	3.11116
C	1626.57	-0.0077106	1.99357
O	1626.08	-1.12717	2.07565
H	1625.91	0.485456	3.9518
H	1625.91	1.86394	2.78245
H	1627.47	1.24663	3.465
N	1627.23	0.411585	0.908841
C	1627.41	-0.412056	-0.258957
C	1628.59	0.142214	-1.03701
O	1629.04	1.25853	-0.785714
H	1627.64	1.3156	0.865418
H	1627.67	-1.41567	0.0556122
C	1626.15	-0.42412	-1.14632
H	1625.89	0.607118	-1.46668
H	1626.29	-1.0575	-2.04633
H	1625.29	-0.831114	-0.564511
N	1629.13	-0.639601	-1.99123
C	1630.26	-0.200751	-2.77495
H	1628.76	-1.54275	-2.17474
H	1630.56	-0.982913	-3.5075
H	1631.14	0.0149227	-2.11773
H	1630.01	0.729215	-3.33617
