44
  This energy is 8.61156e-321 and Call times are: 7251
C	-2.94193	1.84198	0.279844
C	-1.4883	1.66953	0.499928
O	-0.801972	2.583	0.936982
H	-3.23609	2.87606	0.5627
H	-3.51151	1.12262	0.905083
H	-3.18928	1.67791	-0.79013
N	-0.979357	0.474672	0.190657
C	0.416755	0.154774	0.349926
C	0.7293	-1.02686	-0.547451
O	-0.17517	-1.69338	-1.04697
H	-1.5436	-0.252043	-0.192035
H	1.01094	0.993047	0.00887681
C	0.750781	-0.190344	1.81841
H	0.138959	-1.05029	2.16523
H	1.82502	-0.437022	1.94463
H	0.516314	0.682778	2.46558
N	2.02603	-1.30107	-0.790988
C	2.41909	-2.39937	-1.64271
H	2.7432	-0.74558	-0.383157
H	3.52713	-2.46226	-1.71713
H	2.00578	-2.2681	-2.66896
H	2.03933	-3.36561	-1.23855
C	349.046	3.2058	1.1318
C	348.662	1.80872	0.82864
O	347.562	1.37372	1.13866
H	348.206	3.71282	1.65342
H	349.269	3.75384	0.192179
H	349.94	3.22289	1.79009
N	349.58	1.06223	0.210384
C	349.355	-0.31449	-0.150732
C	350.707	-0.975974	-0.334164
O	351.73	-0.300324	-0.423704
H	350.484	1.41957	-0.0108138
H	348.852	-0.814838	0.667183
C	348.527	-0.426512	-1.45096
H	349.046	0.0884191	-2.2878
H	348.352	-1.48525	-1.73183
H	347.54	0.0627714	-1.30394
N	350.744	-2.32251	-0.372572
C	351.987	-3.03997	-0.532179
H	349.905	-2.85165	-0.291222
H	351.809	-4.13792	-0.541684
H	352.686	-2.80543	0.30311
H	352.484	-2.75698	-1.48816
