44
  This energy is 1.16916e-319 and Call times are: 90663
C	0.543079	-2.04195	-2.76796
C	0.105976	-0.766338	-2.15727
O	-0.18344	0.199897	-2.84945
H	0.555055	-1.93437	-3.87437
H	-0.158634	-2.85759	-2.49382
H	1.56531	-2.30204	-2.42107
N	0.0538295	-0.734552	-0.823613
C	-0.352672	0.434166	-0.08491
C	0.189403	0.305817	1.32538
O	0.625577	-0.768005	1.73586
H	0.320072	-1.51913	-0.269998
H	0.100732	1.3091	-0.533227
C	-1.8912	0.571977	-0.0522177
H	-2.3531	-0.327596	0.407701
H	-2.20764	1.47095	0.515666
H	-2.27598	0.664006	-1.09127
N	0.194202	1.41116	2.09622
C	0.702041	1.38738	3.44815
H	-0.156511	2.27241	1.74341
H	0.618398	2.3924	3.91738
H	1.77375	1.08317	3.45996
H	0.130162	0.661246	4.07014
C	4295.61	0.842988	-3.15402
C	4295.58	1.01638	-1.68437
O	4296.37	1.75284	-1.11481
H	4296.44	1.45858	-3.57651
H	4294.65	1.17275	-3.60168
H	4295.79	-0.222468	-3.40956
N	4294.64	0.324588	-1.02824
C	4294.48	0.389188	0.402517
C	4293.73	-0.853778	0.844344
O	4293.16	-1.56796	0.0234378
H	4294.02	-0.294489	-1.50049
H	4295.46	0.367559	0.867171
C	4293.7	1.65545	0.824955
H	4292.7	1.67474	0.345944
H	4293.58	1.70842	1.92604
H	4294.26	2.55888	0.494508
N	4293.74	-1.15348	2.15817
C	4293.07	-2.32351	2.66986
H	4294.22	-0.566886	2.80579
H	4293.18	-2.39519	3.77342
H	4293.48	-3.24941	2.21137
H	4291.98	-2.28275	2.4368
