44
  This energy is 8.08835e-320 and Call times are: 45555
C	2.6475	-2.06946	-0.91335
C	1.71337	-1.51912	0.0944888
O	1.67654	-1.96519	1.23298
H	3.2377	-2.89309	-0.45601
H	3.34444	-1.27825	-1.26133
H	2.08205	-2.47105	-1.78049
N	0.92108	-0.524449	-0.312036
C	-0.0390666	0.113373	0.552908
C	-1.07961	0.785539	-0.321563
O	-0.881825	0.944558	-1.52465
H	0.940191	-0.189442	-1.2503
H	-0.542378	-0.644715	1.13947
C	0.636648	1.1559	1.47142
H	1.15258	1.93171	0.866413
H	-0.0997839	1.64882	2.13886
H	1.39744	0.651181	2.10593
N	-2.22846	1.17809	0.263292
C	-3.28142	1.81591	-0.492105
H	-2.37251	1.03409	1.23682
H	-4.14255	2.0648	0.166497
H	-3.64389	1.14512	-1.30445
H	-2.91421	2.75782	-0.96023
C	2163.06	-1.27184	3.15109
C	2162.31	-0.355241	2.26407
O	2161.4	0.335833	2.69542
H	2162.65	-1.20416	4.18187
H	2164.13	-0.988944	3.17282
H	2162.96	-2.31812	2.79271
N	2162.68	-0.334455	0.981772
C	2162.05	0.505438	-0.00214534
C	2162.33	-0.0820149	-1.37051
O	2163.2	-0.943063	-1.51662
H	2163.41	-0.923648	0.636686
H	2160.97	0.477738	0.150425
C	2162.57	1.95641	0.0734152
H	2163.67	1.98106	-0.0828699
H	2162.08	2.60588	-0.682746
H	2162.36	2.37493	1.08089
N	2161.59	0.35755	-2.4067
C	2161.78	-0.152968	-3.74398
H	2160.89	1.04965	-2.26682
H	2161.08	0.333356	-4.45579
H	2161.61	-1.25269	-3.77388
H	2162.82	0.0397275	-4.09192
