44
  This energy is 2.20304e-320 and Call times are: 61599
C	1.23861	-1.25171	-3.0042
C	0.368122	-1.35488	-1.81138
O	-0.45329	-2.25498	-1.7037
H	0.99963	-2.08006	-3.70604
H	2.30561	-1.32912	-2.70698
H	1.0682	-0.283243	-3.51993
N	0.528688	-0.41492	-0.877002
C	-0.243901	-0.381619	0.339067
C	-0.189996	1.03131	0.886751
O	0.628262	1.84168	0.455944
H	1.18101	0.329872	-0.989702
H	-1.27725	-0.604724	0.105648
C	0.307792	-1.37763	1.38344
H	1.36826	-1.14625	1.62007
H	-0.284873	-1.35468	2.32099
H	0.263974	-2.40869	0.969729
N	-1.08132	1.36656	1.84024
C	-1.11298	2.69237	2.41244
H	-1.74016	0.698702	2.1706
H	-1.91393	2.77023	3.18034
H	-1.30738	3.45575	1.6246
H	-0.139004	2.93527	2.89571
C	2917.42	-0.398911	0.743109
C	2918.75	0.195588	1.00776
O	2918.9	1.07169	1.84914
H	2916.67	0.0816067	1.40257
H	2917.44	-1.48888	0.953865
H	2917.13	-0.232607	-0.315795
N	2919.77	-0.272665	0.277663
C	2921.12	0.206157	0.420346
C	2921.87	-0.128683	-0.854334
O	2921.4	-0.920719	-1.66973
H	2919.63	-0.965924	-0.425045
H	2921.1	1.2842	0.518398
C	2921.82	-0.442029	1.63503
H	2921.83	-1.548	1.53148
H	2922.86	-0.0754411	1.74792
H	2921.26	-0.190271	2.56219
N	2923.05	0.487822	-1.06602
C	2923.83	0.240568	-2.25702
H	2923.41	1.13093	-0.397585
H	2924.76	0.839749	-2.24553
H	2923.25	0.513252	-3.16884
H	2924.1	-0.836863	-2.33114
