44
  This energy is 1.56994e-319 and Call times are: 54543
C	2.23787	-0.52613	2.61558
C	1.38873	-1.02254	1.50935
O	1.42903	-2.19345	1.15743
H	2.8574	-1.36224	3.00669
H	1.60372	-0.133484	3.43808
H	2.90988	0.279013	2.25076
N	0.592368	-0.124834	0.924294
C	-0.291317	-0.456131	-0.164821
C	-0.625702	0.827017	-0.900317
O	-0.374962	1.9219	-0.400115
H	0.589959	0.83248	1.20084
H	0.230604	-1.10525	-0.856421
C	-1.58532	-1.1287	0.345397
H	-2.11787	-0.460315	1.05516
H	-2.26795	-1.38526	-0.490646
H	-1.32671	-2.06675	0.883286
N	-1.18337	0.719874	-2.12242
C	-1.52508	1.88677	-2.90201
H	-1.37193	-0.175199	-2.51296
H	-1.97392	1.5914	-3.87595
H	-0.61902	2.50216	-3.10593
H	-2.25891	2.52302	-2.35625
C	2587.47	-0.310365	3.46764
C	2586.8	0.0775669	2.2094
O	2585.62	0.429602	2.20359
H	2586.75	-0.226327	4.31185
H	2588.33	0.361728	3.66136
H	2587.83	-1.35979	3.40261
N	2587.53	0.0144943	1.09696
C	2587.01	0.360452	-0.202795
C	2587.89	-0.301887	-1.24569
O	2588.98	-0.776245	-0.937957
H	2588.48	-0.301749	1.11072
H	2586.02	-0.0489813	-0.304969
C	2587	1.89096	-0.413729
H	2588.02	2.30776	-0.30755
H	2586.6	2.16085	-1.41349
H	2586.35	2.36439	0.357084
N	2587.42	-0.368724	-2.50733
C	2588.19	-0.991491	-3.56458
H	2586.54	0.014647	-2.73491
H	2587.63	-0.944582	-4.5283
H	2588.39	-2.06145	-3.32697
H	2589.17	-0.478416	-3.69758
