44
  This energy is 8.89417e-320 and Call times are: 83187
C	0.316261	1.16192	3.26742
C	0.814607	0.391029	2.10614
O	1.93441	-0.101451	2.10731
H	1.10382	1.19542	4.05132
H	-0.589406	0.67682	3.68845
H	0.0702102	2.20031	2.96055
N	-0.0194553	0.273528	1.07033
C	0.322017	-0.446531	-0.130395
C	-0.5822	0.0473669	-1.24291
O	-1.57909	0.721302	-0.990233
H	-0.918141	0.703991	1.06982
H	1.34179	-0.208699	-0.405313
C	0.148125	-1.97006	0.0586778
H	-0.898999	-2.21042	0.3413
H	0.410356	-2.52755	-0.863933
H	0.814846	-2.31919	0.877051
N	-0.240247	-0.260529	-2.50951
C	-1.0343	0.176521	-3.63407
H	0.574182	-0.800862	-2.69384
H	-0.59055	-0.178249	-4.59035
H	-1.09192	1.28869	-3.66576
H	-2.07243	-0.221017	-3.56039
C	3939.27	0.202438	2.15232
C	3939.93	-0.320981	0.936813
O	3939.41	-1.19815	0.26073
H	3938.3	-0.327219	2.3006
H	3939.07	1.28911	2.04157
H	3939.91	0.0335847	3.04193
N	3941.12	0.211663	0.632169
C	3941.89	-0.193522	-0.519094
C	3943.33	0.198071	-0.278308
O	3943.63	0.973112	0.628352
H	3941.55	0.905045	1.20708
H	3941.85	-1.272	-0.605598
C	3941.36	0.47721	-1.80836
H	3941.4	1.58353	-1.7159
H	3941.95	0.167291	-2.69679
H	3940.3	0.183405	-1.97285
N	3944.27	-0.349676	-1.07656
C	3945.67	-0.044973	-0.914255
H	3944.01	-0.980254	-1.8001
H	3946.28	-0.591588	-1.66621
H	3946.02	-0.337848	0.101873
H	3945.85	1.04676	-1.04103
