44
  This energy is 7.95841e-320 and Call times are: 108555
C	2.26145	-1.01414	-2.44611
C	1.16717	-1.29327	-1.48912
O	0.608877	-2.38152	-1.4665
H	2.43761	-1.91366	-3.07516
H	3.19588	-0.770194	-1.89824
H	1.98653	-0.163357	-3.10454
N	0.828385	-0.296223	-0.668456
C	-0.216362	-0.415701	0.316966
C	-0.675966	0.982785	0.680614
O	-0.0128751	1.96639	0.357097
H	1.27108	0.595218	-0.716369
H	-1.0582	-0.93439	-0.123872
C	0.282037	-1.15591	1.57824
H	1.1461	-0.621449	2.02753
H	-0.519955	-1.24979	2.33901
H	0.616926	-2.17846	1.29828
N	-1.84082	1.1044	1.34718
C	-2.36378	2.39661	1.72517
H	-2.36642	0.296794	1.59368
H	-3.32933	2.28707	2.26643
H	-2.53668	3.02922	0.824533
H	-1.64757	2.93125	2.39029
C	5143.99	2.47376	1.27465
C	5142.79	2.04528	0.531091
O	5141.95	2.85735	0.161229
H	5143.97	3.57654	1.41269
H	5144.91	2.20426	0.70684
H	5144.02	1.98722	2.27237
N	5142.67	0.736134	0.29796
C	5141.55	0.167137	-0.412861
C	5141.47	-1.30213	-0.0478138
O	5142.4	-1.86323	0.52221
H	5143.34	0.0814606	0.629816
H	5140.64	0.643314	-0.0747929
C	5141.72	0.326242	-1.94074
H	5142.65	-0.162826	-2.28404
H	5140.86	-0.110673	-2.49112
H	5141.78	1.40681	-2.195
N	5140.33	-1.95667	-0.350655
C	5140.15	-3.35408	-0.0306625
H	5139.58	-1.48322	-0.805578
H	5139.15	-3.71004	-0.361055
H	5140.24	-3.51943	1.06777
H	5140.93	-3.97368	-0.534725
