44
  This energy is 1.23788e-319 and Call times are: 23631
C	1.87125	2.53676	-1.47967
C	1.6929	1.13071	-1.05256
O	2.50363	0.268186	-1.36121
H	2.8008	2.62212	-2.08342
H	1.95727	3.19824	-0.59205
H	1.00897	2.86088	-2.09965
N	0.605175	0.86526	-0.325409
C	0.294779	-0.45433	0.163637
C	-1.19005	-0.501274	0.467487
O	-1.85198	0.53305	0.529524
H	-0.0629082	1.57101	-0.105155
H	0.493308	-1.17539	-0.619135
C	1.10787	-0.789067	1.43405
H	0.902313	-0.0469871	2.23478
H	0.871424	-1.80451	1.81319
H	2.19377	-0.750159	1.19853
N	-1.75413	-1.71243	0.643316
C	-3.16352	-1.85591	0.924752
H	-1.20297	-2.53809	0.582088
H	-3.43468	-2.92871	1.03803
H	-3.77489	-1.42519	0.0989539
H	-3.43234	-1.3249	1.86653
C	1123.42	2.17606	1.11101
C	1124.84	1.78809	0.964878
O	1125.74	2.54825	1.29376
H	1123.36	3.20277	1.53322
H	1122.9	1.47486	1.7976
H	1122.92	2.16496	0.121462
N	1125.07	0.577264	0.453769
C	1126.4	0.0584136	0.251291
C	1126.32	-1.0486	-0.781492
O	1125.23	-1.52956	-1.10022
H	1124.33	-0.0212098	0.162582
H	1127.03	0.842249	-0.156989
C	1127	-0.487341	1.56751
H	1126.36	-1.2908	1.98394
H	1128.02	-0.887498	1.41523
H	1127.06	0.332862	2.31608
N	1127.47	-1.46496	-1.34687
C	1127.49	-2.50564	-2.34831
H	1128.34	-1.0583	-1.08072
H	1128.53	-2.70725	-2.68901
H	1126.88	-2.20851	-3.23364
H	1127.06	-3.45106	-1.93968
