44
  This energy is 7.89122e-320 and Call times are: 95703
C	2.73866	-2.00723	0.772605
C	1.62133	-1.12096	1.16921
O	1.3315	-0.9566	2.34628
H	3.19967	-2.44712	1.68355
H	3.51026	-1.42768	0.223449
H	2.36461	-2.8291	0.126422
N	0.955598	-0.525708	0.176819
C	-0.154628	0.364563	0.404069
C	-0.968842	0.429469	-0.87346
O	-0.513895	-0.0013812	-1.93139
H	1.1828	-0.690483	-0.7793
H	-0.78776	-0.0526747	1.17681
C	0.329265	1.77798	0.79805
H	0.979053	2.20274	0.00340056
H	-0.523065	2.466	0.973917
H	0.92535	1.71663	1.73457
N	-2.20819	0.953363	-0.7989
C	-3.06083	1.04539	-1.9611
H	-2.56102	1.29011	0.0678975
H	-4.03805	1.50606	-1.6964
H	-3.25401	0.0344738	-2.38769
H	-2.58225	1.66792	-2.75141
C	4529.64	-1.15136	-0.44646
C	4530.9	-1.06725	0.333342
O	4530.98	-1.53642	1.46047
H	4528.87	-1.67253	0.158183
H	4529.81	-1.72282	-1.38329
H	4529.28	-0.132695	-0.695946
N	4531.93	-0.451301	-0.258861
C	4533.21	-0.291177	0.372412
C	4533.93	0.854226	-0.315205
O	4533.52	1.29756	-1.38742
H	4531.84	-0.0475892	-1.16598
H	4533.06	-0.0119288	1.40777
C	4534.05	-1.58284	0.270259
H	4534.2	-1.86678	-0.793208
H	4535.04	-1.46308	0.755466
H	4533.52	-2.41447	0.776619
N	4535.01	1.37647	0.301295
C	4535.75	2.47674	-0.272343
H	4535.32	1.00851	1.17199
H	4536.6	2.76169	0.382792
H	4535.09	3.36744	-0.399834
H	4536.15	2.19963	-1.27295
