44
  This energy is 1.3903e-320 and Call times are: 43035
C	1.2432	-0.141058	3.24972
C	0.147597	-0.300683	2.26718
O	-0.925718	-0.79047	2.5906
H	0.910937	-0.529996	4.23673
H	1.50767	0.931974	3.35686
H	2.13786	-0.710968	2.92151
N	0.402043	0.111487	1.0231
C	-0.563706	0.0221289	-0.0428127
C	0.188572	0.0714496	-1.35844
O	1.36691	0.420651	-1.39606
H	1.29041	0.48198	0.765271
H	-1.06344	-0.936537	0.0146147
C	-1.58746	1.17716	0.027415
H	-1.07132	2.15915	-0.0310962
H	-2.33265	1.11133	-0.791812
H	-2.13099	1.13061	0.996207
N	-0.473715	-0.300578	-2.47153
C	0.164502	-0.297141	-3.76724
H	-1.42481	-0.586816	-2.41938
H	-0.544521	-0.633028	-4.55573
H	1.04474	-0.980069	-3.77343
H	0.51963	0.726183	-4.02776
C	2042.82	-2.90733	-1.8456
C	2042.38	-2.2058	-0.616232
O	2041.84	-2.80911	0.297319
H	2042.56	-3.98515	-1.76439
H	2043.92	-2.81133	-1.97382
H	2042.3	-2.47945	-2.73194
N	2042.62	-0.892079	-0.569724
C	2042.25	-0.0732159	0.559065
C	2042.17	1.36484	0.0849016
O	2042.64	1.69429	-1.00459
H	2043.04	-0.406978	-1.33258
H	2041.27	-0.362321	0.90055
C	2043.29	-0.199319	1.70125
H	2044.3	0.0974022	1.34728
H	2043.01	0.429801	2.57206
H	2043.34	-1.25746	2.03885
N	2041.56	2.25466	0.888435
C	2041.42	3.64342	0.514958
H	2041.18	1.96705	1.76307
H	2040.89	4.21393	1.30723
H	2040.85	3.74115	-0.434283
H	2042.42	4.10778	0.36161
