44
  This energy is 1.59801e-319 and Call times are: 124389
C	-0.927457	-2.68464	-2.01462
C	-1.12276	-1.30612	-1.51188
O	-1.96285	-0.566089	-2.00494
H	-1.63265	-2.87315	-2.85309
H	-1.12658	-3.41867	-1.20569
H	0.111944	-2.81409	-2.38317
N	-0.332597	-0.924322	-0.505777
C	-0.403801	0.385884	0.0901398
C	0.913964	0.650742	0.791981
O	1.7092	-0.263251	1.00185
H	0.367836	-1.52655	-0.132077
H	-0.512739	1.12384	-0.694476
C	-1.57118	0.482936	1.09757
H	-1.4566	-0.275953	1.90074
H	-1.629	1.49054	1.55818
H	-2.53055	0.285777	0.57137
N	1.18562	1.92023	1.15336
C	2.42064	2.26947	1.81588
H	0.532354	2.64704	0.968325
H	2.45606	3.35995	2.03233
H	3.29599	2.0103	1.17726
H	2.52005	1.71746	2.77847
C	5889.4	-2.71543	1.22676
C	5890.15	-2.02936	0.14906
O	5890.42	-2.60342	-0.896326
H	5889.17	-3.75678	0.910746
H	5888.44	-2.18475	1.42795
H	5890.01	-2.74615	2.15516
N	5890.5	-0.765765	0.387831
C	5891.24	0.0323617	-0.563732
C	5891.91	1.16157	0.193515
O	5891.58	1.42367	1.3499
H	5890.3	-0.318604	1.25503
H	5892.01	-0.574738	-1.00754
C	5890.3	0.604864	-1.65307
H	5889.5	1.22659	-1.19423
H	5890.86	1.21982	-2.38752
H	5889.81	-0.2322	-2.19968
N	5892.88	1.84567	-0.438417
C	5893.58	2.92925	0.20748
H	5893.13	1.61373	-1.37169
H	5894.35	3.36607	-0.475447
H	5894.1	2.56925	1.12578
H	5892.88	3.73605	0.504592
