44
  This energy is 1.28546e-319 and Call times are: 17793
C	-2.35992	0.034166	2.56042
C	-1.66345	0.677322	1.42354
O	-2.03267	1.75805	0.985141
H	-3.20503	0.679016	2.88571
H	-1.66024	-0.0981037	3.41235
H	-2.76004	-0.955273	2.25406
N	-0.626376	0.0115591	0.910122
C	0.150591	0.508432	-0.197248
C	0.86131	-0.670131	-0.833727
O	0.926279	-1.75264	-0.254252
H	-0.353444	-0.881704	1.25729
H	-0.519429	0.92727	-0.93733
C	1.18052	1.56266	0.266388
H	1.86584	1.12981	1.02606
H	1.7804	1.94747	-0.583819
H	0.647401	2.42015	0.731835
N	1.39477	-0.491369	-2.05826
C	2.0799	-1.55998	-2.74735
H	1.32548	0.390098	-2.51372
H	2.44836	-1.21589	-3.73886
H	1.39675	-2.42521	-2.90831
H	2.95262	-1.91508	-2.15284
C	849.848	-2.93164	-1.55972
C	849.484	-1.49736	-1.59456
O	849.639	-0.829722	-2.60782
H	850.256	-3.23103	-2.54951
H	848.952	-3.54883	-1.33896
H	850.621	-3.11155	-0.782981
N	848.988	-0.983861	-0.466233
C	848.588	0.395186	-0.344844
C	848.582	0.750713	1.1292
O	848.637	-0.127624	1.98788
H	848.894	-1.53094	0.361259
H	849.326	1.02006	-0.831168
C	847.187	0.629859	-0.953192
H	846.432	-0.0132401	-0.452416
H	846.876	1.69073	-0.861555
H	847.204	0.364664	-2.03279
N	848.537	2.05706	1.45698
C	848.54	2.49098	2.83461
H	848.5	2.75308	0.747449
H	848.497	3.60069	2.89746
H	849.464	2.14619	3.35313
H	847.663	2.07449	3.37979
