44
  This energy is 1.45502e-319 and Call times are: 24429
C	-2.57025	1.70714	-1.61419
C	-2.00566	0.48601	-0.996715
O	-2.69223	-0.512022	-0.826284
H	-3.64185	1.53517	-1.85495
H	-2.02575	1.94886	-2.55116
H	-2.49276	2.56278	-0.91075
N	-0.72118	0.542846	-0.637198
C	-0.0311269	-0.564352	-0.0250138
C	1.17999	-0.0137172	0.702466
O	1.56878	1.13441	0.496387
H	-0.180368	1.37149	-0.754709
H	-0.679885	-1.01851	0.713181
C	0.409714	-1.6045	-1.07899
H	1.07459	-1.13505	-1.83509
H	0.941233	-2.45846	-0.611006
H	-0.486346	-1.99932	-1.60562
N	1.79413	-0.818401	1.59203
C	2.94755	-0.376135	2.34049
H	1.46002	-1.7418	1.74995
H	3.30903	-1.18095	3.01788
H	2.69622	0.515853	2.9589
H	3.77862	-0.0966752	1.65316
C	1164.55	3.19694	1.21892
C	1164.52	1.72502	1.37399
O	1165.01	1.18435	2.35714
H	1165.06	3.65021	2.09607
H	1163.51	3.59294	1.16214
H	1165.1	3.47567	0.297272
N	1163.95	1.0341	0.385886
C	1163.85	-0.40348	0.393386
C	1163.64	-0.863671	-1.03685
O	1163.34	-0.0616007	-1.91788
H	1163.58	1.48425	-0.423577
H	1164.79	-0.819932	0.742121
C	1162.68	-0.880617	1.27805
H	1161.72	-0.450981	0.91787
H	1162.6	-1.98708	1.28619
H	1162.84	-0.536157	2.32279
N	1163.83	-2.17133	-1.30521
C	1163.67	-2.69879	-2.64014
H	1164.08	-2.80329	-0.579915
H	1163.86	-3.79418	-2.65605
H	1164.38	-2.20785	-3.34479
H	1162.63	-2.51928	-3.01155
