44
  This energy is 4.78503e-320 and Call times are: 75291
C	-0.476266	3.20862	-1.26651
C	-0.889373	1.79555	-1.11236
O	-1.96932	1.40288	-1.53189
H	-1.28189	3.7723	-1.78527
H	0.452985	3.27178	-1.87093
H	-0.300894	3.66708	-0.270509
N	-0.0253917	0.989573	-0.490819
C	-0.284962	-0.410036	-0.265996
C	0.605401	-0.872242	0.871042
O	1.54355	-0.177503	1.25711
H	0.838691	1.32792	-0.127754
H	-1.31299	-0.530707	0.0512917
C	-0.0030001	-1.24532	-1.53482
H	1.05231	-1.11866	-1.85792
H	-0.201988	-2.32348	-1.36525
H	-0.660578	-0.896211	-2.36057
N	0.31631	-2.05397	1.45065
C	1.10133	-2.56947	2.548
H	-0.451393	-2.59815	1.12858
H	0.707117	-3.55334	2.88542
H	1.07707	-1.86706	3.41245
H	2.16411	-2.70376	2.24199
C	3571.67	1.89708	-0.933199
C	3570.66	0.85003	-1.20268
O	3570.57	0.325644	-2.30428
H	3572.26	2.08445	-1.85671
H	3572.36	1.56551	-0.127973
H	3571.17	2.84099	-0.627395
N	3569.86	0.522732	-0.185488
C	3568.82	-0.47788	-0.29318
C	3567.82	-0.227612	0.81074
O	3568.08	0.528475	1.7438
H	3569.92	0.977845	0.698685
H	3568.31	-0.355912	-1.23975
C	3569.41	-1.90296	-0.166706
H	3569.93	-2.02438	0.805216
H	3568.62	-2.67589	-0.249331
H	3570.15	-2.07337	-0.980228
N	3566.62	-0.844269	0.717356
C	3565.59	-0.656652	1.7152
H	3566.42	-1.44673	-0.0491251
H	3564.69	-1.24865	1.46197
H	3565.3	0.416892	1.78352
H	3565.96	-0.980999	2.71771
