44
  This energy is 4.98364e-320 and Call times are: 75375
C	-2.70136	0.223688	-2.18604
C	-1.43244	-0.397505	-1.74425
O	-1.00627	-1.41301	-2.2768
H	-3.13586	-0.377536	-3.01404
H	-2.51543	1.25584	-2.55061
H	-3.42595	0.253903	-1.3452
N	-0.79457	0.207113	-0.739301
C	0.450707	-0.277608	-0.19971
C	0.607893	0.294446	1.19574
O	-0.105113	1.21961	1.57984
H	-1.16681	1.01734	-0.294428
H	0.399381	-1.35525	-0.109586
C	1.64725	0.140541	-1.08319
H	1.69651	1.24663	-1.17406
H	2.60769	-0.231183	-0.670683
H	1.51957	-0.283743	-2.10291
N	1.53688	-0.261448	1.99822
C	1.74952	0.209293	3.34706
H	2.09906	-1.01402	1.67139
H	2.55627	-0.373133	3.84423
H	0.819004	0.105095	3.95082
H	2.04226	1.28423	3.34666
C	3570.31	-0.531123	-2.26224
C	3571.23	-1.0045	-1.20784
O	3571.11	-2.11787	-0.715188
H	3569.56	-1.32414	-2.47698
H	3570.87	-0.307168	-3.19264
H	3569.77	0.382885	-1.92315
N	3572.19	-0.151108	-0.829305
C	3573.16	-0.467456	0.18442
C	3573.72	0.83767	0.717319
O	3573.52	1.89496	0.120618
H	3572.25	0.764015	-1.2176
H	3572.66	-0.971963	1.00388
C	3574.3	-1.34047	-0.384606
H	3574.81	-0.820162	-1.2255
H	3575.05	-1.58604	0.39335
H	3573.88	-2.29292	-0.772777
N	3574.41	0.795744	1.8722
C	3574.97	1.98995	2.46175
H	3574.55	-0.0685967	2.34375
H	3575.51	1.74875	3.4069
H	3574.17	2.72746	2.69157
H	3575.69	2.472	1.76362
