44
  This energy is 1.27202e-319 and Call times are: 72351
C	-0.190957	-1.14777	3.28212
C	-0.521254	-1.25799	1.84338
O	-1.10101	-2.24014	1.40092
H	-0.54262	-2.06038	3.81065
H	-0.693173	-0.261128	3.7231
H	0.907328	-1.05517	3.4168
N	-0.147245	-0.23669	1.06916
C	-0.398312	-0.19837	-0.349406
C	0.574985	0.7859	-0.968393
O	1.21274	1.56647	-0.264247
H	0.350286	0.544579	1.4366
H	-0.191255	-1.17429	-0.769869
C	-1.85161	0.229939	-0.652062
H	-2.0608	1.23122	-0.218715
H	-2.04839	0.260348	-1.74345
H	-2.5547	-0.498372	-0.192307
N	0.727843	0.755946	-2.30695
C	1.64094	1.64753	-2.98336
H	0.207971	0.112079	-2.85868
H	1.62289	1.47011	-4.08129
H	2.68277	1.49242	-2.62035
H	1.3644	2.71022	-2.79524
C	3434.57	-2.72641	0.0561708
C	3433.36	-2.02942	-0.453682
O	3432.72	-2.48008	-1.39246
H	3434.74	-3.64592	-0.544006
H	3434.42	-3.01316	1.11887
H	3435.46	-2.0677	-0.0298503
N	3433.03	-0.89208	0.161748
C	3431.89	-0.101465	-0.219827
C	3432.1	1.30845	0.294652
O	3432.98	1.54814	1.12184
H	3433.58	-0.520233	0.906463
H	3431.84	-0.0533697	-1.30024
C	3430.58	-0.684793	0.361935
H	3430.64	-0.733324	1.47043
H	3429.7	-0.0785276	0.0699326
H	3430.44	-1.7181	-0.0215438
N	3431.32	2.28289	-0.203071
C	3431.46	3.65708	0.218744
H	3430.62	2.06993	-0.877046
H	3430.72	4.30607	-0.302514
H	3432.48	4.03534	-0.00994956
H	3431.29	3.75015	1.3166
