44
  This energy is 1.36303e-319 and Call times are: 78777
C	0.150035	-3.47771	0.0957485
C	0.229215	-2.15294	0.751425
O	0.329431	-2.05355	1.96657
H	0.190226	-4.27395	0.870501
H	1.00388	-3.6112	-0.601348
H	-0.803305	-3.57054	-0.465917
N	0.179115	-1.08897	-0.0534604
C	0.24499	0.26498	0.43572
C	-0.348437	1.17266	-0.624089
O	-0.545755	0.760809	-1.7657
H	0.0680568	-1.18252	-1.03929
H	-0.370089	0.348961	1.32268
C	1.70109	0.683337	0.738813
H	2.32943	0.595337	-0.173087
H	1.75544	1.7253	1.11582
H	2.12476	0.0101298	1.51563
N	-0.668404	2.43061	-0.261899
C	-1.24932	3.36247	-1.20017
H	-0.507646	2.74282	0.668648
H	-1.43878	4.34434	-0.713056
H	-2.21677	2.97336	-1.59243
H	-0.566752	3.5261	-2.06534
C	3733.71	-1.27009	3.017
C	3734.73	-1.20665	1.94067
O	3735.79	-1.79643	2.04144
H	3734.1	-1.89858	3.84879
H	3732.77	-1.72074	2.63189
H	3733.5	-0.251204	3.40454
N	3734.41	-0.471699	0.871577
C	3735.29	-0.314248	-0.256447
C	3734.88	0.939823	-1.00118
O	3733.8	1.47958	-0.770594
H	3733.55	0.0276544	0.814097
H	3736.3	-0.163579	0.105076
C	3735.23	-1.53759	-1.1978
H	3734.19	-1.68964	-1.56628
H	3735.91	-1.41973	-2.06737
H	3735.53	-2.44981	-0.640074
N	3735.74	1.44678	-1.90175
C	3735.44	2.64428	-2.65002
H	3736.62	0.999435	-2.06896
H	3736.28	2.89903	-3.34007
H	3735.28	3.50625	-1.96306
H	3734.52	2.5058	-3.25475
