44
  This energy is 1.4822e-321 and Call times are: 60843
C	3.40722	-0.638559	0.330479
C	2.12305	-0.121368	0.854531
O	2.01724	0.250219	2.01523
H	4.16793	-0.622196	1.14098
H	3.76191	-0.00312494	-0.508117
H	3.28288	-1.68323	-0.0246884
N	1.10108	-0.0917624	-0.00398506
C	-0.210009	0.38478	0.357671
C	-1.20437	-0.191212	-0.631626
O	-0.820883	-0.711739	-1.67748
H	1.19228	-0.424482	-0.938819
H	-0.464329	0.00448852	1.33888
C	-0.27305	1.92838	0.336607
H	-0.010943	2.31515	-0.671276
H	-1.28116	2.2987	0.614748
H	0.460733	2.33801	1.06456
N	-2.51187	-0.130012	-0.311158
C	-3.53004	-0.66319	-1.18594
H	-2.80168	0.28879	0.543154
H	-4.54169	-0.515494	-0.747778
H	-3.37505	-1.75419	-1.35005
H	-3.50025	-0.157169	-2.17803
C	2887.84	0.535811	1.61998
C	2887.05	0.179812	0.419641
O	2887.58	0.0299195	-0.669245
H	2888.91	0.632883	1.33932
H	2887.74	-0.256271	2.39176
H	2887.48	1.50324	2.03647
N	2885.73	0.040486	0.59552
C	2884.83	-0.303828	-0.476309
C	2883.43	0.126856	-0.0694609
O	2883.18	0.431551	1.09537
H	2885.3	0.193798	1.48158
H	2885.1	0.258995	-1.35977
C	2884.85	-1.82131	-0.765743
H	2884.57	-2.39567	0.142877
H	2884.16	-2.08987	-1.59063
H	2885.88	-2.12435	-1.06149
N	2882.49	0.182955	-1.03135
C	2881.14	0.593399	-0.740008
H	2882.72	-0.0606987	-1.96944
H	2880.51	0.572713	-1.66062
H	2881.12	1.62858	-0.328467
H	2880.68	-0.0849352	0.0127631
