44
  This energy is 1.45586e-319 and Call times are: 6369
C	0.545107	2.25119	-2.60022
C	0.853545	0.995519	-1.87955
O	1.63745	0.17756	-2.34099
H	1.11698	2.27771	-3.55317
H	0.834547	3.12756	-1.98294
H	-0.539842	2.30383	-2.83056
N	0.22765	0.811197	-0.714799
C	0.424487	-0.35998	0.101551
C	-0.770487	-0.489807	1.0259
O	-1.55597	0.444672	1.17286
H	-0.430821	1.4715	-0.36358
H	0.443394	-1.23445	-0.536426
C	1.7263	-0.257721	0.927353
H	1.7038	0.640832	1.5802
H	1.88103	-1.15795	1.55697
H	2.59396	-0.161875	0.238785
N	-0.947611	-1.66726	1.65696
C	-2.06369	-1.88715	2.54701
H	-0.304923	-2.41376	1.51942
H	-2.03347	-2.91591	2.96889
H	-3.02902	-1.75848	2.00588
H	-2.04189	-1.16096	3.39162
C	309.991	2.68315	1.86168
C	310.578	2.11474	0.62731
O	310.71	2.79427	-0.38128
H	309.721	3.74665	1.68378
H	310.726	2.63343	2.69268
H	309.076	2.12181	2.14403
N	310.943	0.831677	0.680583
C	311.529	0.138549	-0.438929
C	311.332	-1.34903	-0.22057
O	310.99	-1.78327	0.877525
H	310.804	0.280722	1.49904
H	310.995	0.412061	-1.34037
C	313.034	0.461109	-0.575389
H	313.578	0.179881	0.351372
H	313.488	-0.0708392	-1.43653
H	313.164	1.55381	-0.733729
N	311.525	-2.16638	-1.27451
C	311.349	-3.59578	-1.16425
H	311.795	-1.79501	-2.15674
H	311.556	-4.09354	-2.13737
H	310.306	-3.84108	-0.859206
H	312.041	-4.01902	-0.40032
