44
  This energy is 2.66054e-320 and Call times are: 19977
C	-1.61063	2.96635	0.856027
C	-0.623477	2.20458	0.0582464
O	-0.0242494	2.72617	-0.872004
H	-1.68265	4.00231	0.459202
H	-1.29182	3.00997	1.9187
H	-2.60939	2.48575	0.789489
N	-0.43504	0.930046	0.408115
C	0.492032	0.0615617	-0.2724
C	0.0841434	-1.37069	0.0131392
O	-0.719694	-1.62906	0.906963
H	-0.950633	0.508443	1.1493
H	0.405582	0.221662	-1.33962
C	1.94238	0.305369	0.201075
H	2.02731	0.140899	1.29645
H	2.65885	-0.361611	-0.321018
H	2.22865	1.35824	-0.0126234
N	0.616311	-2.33807	-0.759502
C	0.277493	-3.72915	-0.569082
H	1.25956	-2.10805	-1.48239
H	0.818607	-4.36934	-1.30025
H	-0.816591	-3.88926	-0.705426
H	0.549881	-4.06298	0.458315
C	951.755	-2.32874	-2.58495
C	951.106	-1.40212	-1.62984
O	949.908	-1.16606	-1.6922
H	950.993	-2.71376	-3.29754
H	952.204	-3.1862	-2.04107
H	952.546	-1.79837	-3.156
N	951.9	-0.843652	-0.71348
C	951.416	0.077846	0.283205
C	952.598	0.885275	0.784206
O	953.75	0.534775	0.534822
H	952.881	-1.02151	-0.691282
H	950.721	0.76563	-0.181482
C	950.745	-0.66666	1.45879
H	951.461	-1.37187	1.93276
H	950.371	0.039913	2.22799
H	949.882	-1.25522	1.07849
N	952.337	2.00416	1.48846
C	953.398	2.84252	1.99568
H	951.398	2.2748	1.6737
H	952.981	3.71274	2.54908
H	954.028	3.22701	1.16105
H	954.056	2.26862	2.68829
