44
  This energy is 8.06809e-321 and Call times are: 61095
C	-0.594157	3.06185	-1.54861
C	0.243472	1.86502	-1.30947
O	1.25376	1.65826	-1.96755
H	-0.151906	3.66066	-2.37426
H	-0.636362	3.68844	-0.632948
H	-1.62278	2.75806	-1.83599
N	-0.16942	1.03448	-0.349224
C	0.539377	-0.170763	-0.000179167
C	-0.432533	-1.0943	0.708142
O	-1.51386	-0.675112	1.11661
H	-1.00995	1.19895	0.160079
H	0.860892	-0.665311	-0.907992
C	1.74724	0.131882	0.914468
H	1.41387	0.639811	1.84452
H	2.29535	-0.79394	1.18503
H	2.45104	0.810147	0.384584
N	-0.0761955	-2.38604	0.851016
C	-0.942438	-3.34134	1.50156
H	0.80004	-2.70747	0.50732
H	-0.471602	-4.34888	1.52206
H	-1.91493	-3.41982	0.963657
H	-1.15228	-3.03088	2.55073
C	2893.52	0.782934	-0.855219
C	2894.51	0.165641	0.0468192
O	2894.19	-0.293482	1.13253
H	2892.51	0.746311	-0.374469
H	2893.47	0.22817	-1.8161
H	2893.78	1.84295	-1.05207
N	2895.78	0.146847	-0.389185
C	2896.86	-0.419596	0.374884
C	2898.15	0.17568	-0.140987
O	2898.18	0.788798	-1.20637
H	2896.03	0.550239	-1.26291
H	2896.75	-0.124243	1.41081
C	2896.89	-1.95888	0.246187
H	2897	-2.25837	-0.817876
H	2897.73	-2.39831	0.833412
H	2895.94	-2.38264	0.626241
N	2899.26	0.0261238	0.618909
C	2900.53	0.569306	0.214399
H	2899.21	-0.467161	1.48134
H	2901.32	0.339921	0.970715
H	2900.47	1.67569	0.0994282
H	2900.85	0.138245	-0.762158
