44
  This energy is 1.28457e-319 and Call times are: 123171
C	1.06415	2.58995	-2.07023
C	0.13498	1.48615	-1.73939
O	-0.876513	1.29153	-2.39931
H	0.675543	3.14555	-2.95123
H	2.06819	2.18429	-2.31551
H	1.14808	3.28988	-1.21233
N	0.46158	0.731148	-0.687873
C	-0.342087	-0.379358	-0.24321
C	0.00946013	-0.658437	1.20516
O	1.01327	-0.164073	1.71486
H	1.27313	0.917849	-0.140647
H	-1.38606	-0.0949407	-0.279386
C	-0.0882919	-1.63743	-1.10342
H	0.983775	-1.92601	-1.06457
H	-0.705631	-2.49438	-0.763846
H	-0.34848	-1.41961	-2.1622
N	-0.826709	-1.44497	1.91098
C	-0.579654	-1.7561	3.29963
H	-1.63768	-1.82971	1.48257
H	-1.37822	-2.41729	3.70258
H	-0.552832	-0.825734	3.91195
H	0.398735	-2.27565	3.41799
C	5831.27	-2.14472	-1.95162
C	5831.43	-0.920979	-1.13483
O	5830.54	-0.0879742	-1.05862
H	5830.27	-2.13443	-2.43298
H	5831.35	-3.04688	-1.30944
H	5832.05	-2.18342	-2.74261
N	5832.6	-0.782084	-0.500727
C	5832.91	0.353767	0.331409
C	5834.42	0.450413	0.449875
O	5835.14	-0.486092	0.106191
H	5833.33	-1.45355	-0.594109
H	5832.56	1.25362	-0.158474
C	5832.27	0.212358	1.73281
H	5832.63	-0.712147	2.23224
H	5832.51	1.08533	2.3761
H	5831.17	0.14132	1.63221
N	5834.93	1.60167	0.921922
C	5836.36	1.78939	1.05847
H	5834.34	2.35056	1.18803
H	5836.59	2.79983	1.46465
H	5836.87	1.687	0.0712416
H	5836.79	1.02905	1.74855
