44
  This energy is 2.96588e-320 and Call times are: 113091
C	3.32551	0.714033	-0.746507
C	2.25292	-0.22739	-0.353457
O	2.46494	-1.42941	-0.271706
H	4.26166	0.145483	-0.936855
H	3.50908	1.44634	0.0676484
H	3.03924	1.2555	-1.67268
N	1.05595	0.308375	-0.103299
C	-0.0857535	-0.47822	0.289895
C	-1.33382	0.326616	-0.0163687
O	-1.26043	1.5266	-0.274206
H	0.888455	1.28572	-0.201673
H	-0.118	-1.37718	-0.312517
C	-0.0358478	-0.829537	1.79362
H	-0.00217194	0.0949744	2.40865
H	-0.91341	-1.43531	2.09973
H	0.883479	-1.41795	2.00517
N	-2.51344	-0.32492	-0.0162897
C	-3.75304	0.356473	-0.308333
H	-2.55123	-1.29762	0.187799
H	-4.61129	-0.349224	-0.256835
H	-3.72577	0.80121	-1.32946
H	-3.93096	1.17892	0.421807
C	5357.87	-2.29371	-0.887306
C	5357.44	-0.939398	-0.470996
O	5358.26	-0.0776678	-0.182122
H	5358.98	-2.34815	-0.872997
H	5357.51	-2.50851	-1.91647
H	5357.46	-3.05543	-0.188935
N	5356.12	-0.721956	-0.425261
C	5355.55	0.544074	-0.039375
C	5354.12	0.296393	0.400597
O	5353.56	-0.771358	0.153923
H	5355.46	-1.44087	-0.63487
H	5356.09	0.929886	0.813204
C	5355.58	1.55368	-1.20856
H	5355.02	1.1544	-2.08173
H	5355.14	2.52965	-0.91482
H	5356.63	1.72563	-1.52231
N	5353.5	1.27613	1.08579
C	5352.14	1.1254	1.55552
H	5353.97	2.13017	1.28169
H	5351.81	2.03934	2.09488
H	5352.06	0.258832	2.25102
H	5351.45	0.949231	0.701996
