44
  This energy is 6.99498e-320 and Call times are: 45135
C	0.155735	-1.29344	3.22938
C	-0.0928555	-1.44325	1.77784
O	-0.295908	-2.54253	1.28101
H	0.12697	-2.29441	3.71217
H	-0.625797	-0.651142	3.68708
H	1.15439	-0.839736	3.40197
N	-0.075935	-0.321314	1.05442
C	-0.30097	-0.305595	-0.368939
C	0.289308	0.977897	-0.91981
O	0.611095	1.89551	-0.167297
H	0.119501	0.564769	1.46624
H	0.233144	-1.13291	-0.81877
C	-1.80791	-0.382744	-0.701058
H	-2.35288	0.467086	-0.237479
H	-1.98476	-0.371009	-1.79621
H	-2.22864	-1.32674	-0.291169
N	0.465888	1.06294	-2.25307
C	1.0321	2.24155	-2.86665
H	0.205781	0.306802	-2.84453
H	1.09416	2.11901	-3.97045
H	2.05818	2.43291	-2.47703
H	0.407061	3.13744	-2.64783
C	2143.36	-3.29471	-0.396472
C	2143.26	-1.89235	-0.861471
O	2143.88	-1.51129	-1.84709
H	2144.04	-3.85968	-1.06575
H	2142.35	-3.77221	-0.421623
H	2143.76	-3.32948	0.638848
N	2142.48	-1.07985	-0.145346
C	2142.29	0.310683	-0.47278
C	2141.81	1.02213	0.776886
O	2141.41	0.384122	1.74837
H	2142.01	-1.39511	0.672545
H	2143.25	0.740546	-0.749234
C	2141.26	0.484851	-1.6125
H	2140.29	0.0421598	-1.32578
H	2141.12	1.55435	-1.86725
H	2141.63	-0.0417733	-2.52173
N	2141.86	2.36873	0.788063
C	2141.44	3.13124	1.93848
H	2142.2	2.86658	-0.00528975
H	2141.55	4.22172	1.75241
H	2142.04	2.86211	2.8342
H	2140.37	2.9272	2.17109
