44
  This energy is 1.22538e-319 and Call times are: 110403
C	-1.90484	2.35332	-1.72035
C	-0.629206	1.89439	-1.12592
O	0.408389	2.52012	-1.2943
H	-1.72655	3.28713	-2.29661
H	-2.6468	2.56063	-0.920757
H	-2.30796	1.57898	-2.40652
N	-0.679639	0.768512	-0.410224
C	0.477972	0.196789	0.230009
C	0.192608	-1.27056	0.484376
O	-0.950532	-1.71385	0.391888
H	-1.52535	0.252214	-0.304635
H	1.31995	0.255425	-0.448008
C	0.796771	0.91445	1.56059
H	-0.0693617	0.852931	2.25351
H	1.68767	0.476829	2.05614
H	1.00276	1.9886	1.3608
N	1.236	-2.06621	0.791399
C	1.06219	-3.47864	1.0384
H	2.15452	-1.68992	0.854431
H	2.03676	-3.95909	1.27637
H	0.631579	-3.98387	0.143664
H	0.370331	-3.64556	1.89552
C	5233.08	-0.0231272	1.4173
C	5232.11	-0.47257	0.396802
O	5232.46	-1.16042	-0.552152
H	5234.09	-0.40289	1.15298
H	5232.8	-0.418194	2.41576
H	5233.11	1.0862	1.45434
N	5230.84	-0.0812854	0.57066
C	5229.78	-0.438753	-0.337127
C	5228.65	0.557365	-0.151076
O	5228.63	1.30751	0.822904
H	5230.57	0.503221	1.33201
H	5230.14	-0.342428	-1.35374
C	5229.27	-1.87317	-0.0709573
H	5228.91	-1.96862	0.973052
H	5228.46	-2.15171	-0.768301
H	5230.11	-2.59311	-0.209341
N	5227.7	0.602238	-1.0988
C	5226.59	1.52676	-1.01233
H	5227.74	-0.00810522	-1.88312
H	5225.91	1.40903	-1.88471
H	5226.96	2.5784	-0.993713
H	5226	1.35002	-0.0828419
