44
  This energy is 6.20546e-321 and Call times are: 112209
C	3.47535	-0.189375	0.110486
C	2.2052	0.00679118	-0.623982
O	2.19988	0.356557	-1.79621
H	4.32892	0.0348693	-0.565522
H	3.55826	-1.24088	0.4573
H	3.52097	0.492793	0.98542
N	1.08235	-0.212658	0.0640645
C	-0.229743	-0.0637762	-0.513067
C	-1.21852	0.126689	0.620635
O	-0.896392	-0.113526	1.78269
H	1.09943	-0.469011	1.02684
H	-0.247759	0.832955	-1.11939
C	-0.617799	-1.3002	-1.35437
H	-0.59764	-2.21843	-0.72941
H	-1.62749	-1.18883	-1.80035
H	0.114782	-1.42947	-2.18066
N	-2.44618	0.586634	0.308699
C	-3.44968	0.810106	1.32321
H	-2.68532	0.78194	-0.636764
H	-4.39196	1.18709	0.867977
H	-3.09569	1.55968	2.06758
H	-3.6766	-0.135585	1.86668
C	5316.65	-1.23002	-0.203363
C	5315.67	-0.119188	-0.255242
O	5316.04	1.04402	-0.341663
H	5317.68	-0.815225	-0.248189
H	5316.5	-1.91248	-1.06616
H	5316.53	-1.79931	0.742713
N	5314.39	-0.46032	-0.19663
C	5313.32	0.507391	-0.236426
C	5312.08	-0.137167	0.360414
O	5312.03	-1.35252	0.53978
H	5314.1	-1.40937	-0.0969697
H	5313.58	1.3503	0.388782
C	5313.03	0.968819	-1.68269
H	5312.76	0.10152	-2.32147
H	5312.21	1.71411	-1.71696
H	5313.94	1.43809	-2.10898
N	5311.06	0.670742	0.703617
C	5309.85	0.147972	1.28954
H	5311.12	1.65247	0.557124
H	5309.13	0.968561	1.49922
H	5310.07	-0.377379	2.24681
H	5309.36	-0.579703	0.600949
