44
  This energy is 2.92882e-320 and Call times are: 119181
C	2.77024	1.22089	1.72086
C	1.34967	0.808272	1.66655
O	0.672114	0.737988	2.68265
H	3.05385	1.42312	2.77657
H	2.92333	2.14478	1.12436
H	3.4192	0.41255	1.32289
N	0.862805	0.516109	0.458259
C	-0.500303	0.100109	0.244463
C	-0.562385	-0.627517	-1.08442
O	0.370231	-0.558983	-1.88277
H	1.43288	0.549113	-0.358353
H	-0.778808	-0.603936	1.0183
C	-1.46226	1.30909	0.233633
H	-1.17323	2.02965	-0.560963
H	-2.51272	0.992337	0.0693858
H	-1.40655	1.83424	1.21203
N	-1.6612	-1.3634	-1.34342
C	-1.80359	-2.10017	-2.57755
H	-2.40201	-1.41197	-0.681554
H	-2.77569	-2.64018	-2.60324
H	-0.984508	-2.8476	-2.68565
H	-1.76119	-1.41247	-3.45302
C	5644.36	3.10821	1.05719
C	5644.22	1.64501	1.22939
O	5644.81	1.05184	2.1204
H	5645.06	3.5024	1.82947
H	5643.38	3.6057	1.17405
H	5644.77	3.33678	0.0518099
N	5643.42	1.02132	0.360918
C	5643.18	-0.399129	0.400365
C	5642.69	-0.826928	-0.969073
O	5642.32	0.00737167	-1.79353
H	5642.96	1.51131	-0.378501
H	5644.11	-0.90908	0.588329
C	5642.13	-0.763123	1.47731
H	5641.17	-0.237729	1.28179
H	5641.94	-1.85614	1.51049
H	5642.5	-0.443534	2.47555
N	5642.69	-2.14459	-1.25143
C	5642.25	-2.64431	-2.53374
H	5643	-2.80347	-0.573444
H	5642.33	-3.75331	-2.57097
H	5642.88	-2.22167	-3.35428
H	5641.19	-2.36018	-2.72478
