44
  This energy is 4.44214e-320 and Call times are: 100659
C	3.14149	0.538285	1.40264
C	2.14834	0.730294	0.321911
O	2.35876	1.50642	-0.599958
H	4.02117	1.1911	1.21329
H	3.4781	-0.519451	1.42939
H	2.69722	0.809407	2.38349
N	1.02275	0.0187797	0.417651
C	-0.0366769	0.0970972	-0.55616
C	-1.31092	-0.39666	0.100916
O	-1.27279	-1.00255	1.17016
H	0.850661	-0.58834	1.18884
H	-0.18773	1.13379	-0.829159
C	0.282397	-0.755807	-1.8043
H	0.437428	-1.81861	-1.52051
H	-0.531228	-0.697651	-2.55624
H	1.21849	-0.384839	-2.27574
N	-2.47774	-0.127868	-0.517364
C	-3.74239	-0.548054	0.0396741
H	-2.4882	0.369934	-1.37836
H	-4.58446	-0.234716	-0.616066
H	-3.89672	-0.098341	1.04724
H	-3.77555	-1.65641	0.147534
C	4765.38	1.28183	-2.8045
C	4765.49	0.308638	-1.69413
O	4764.59	-0.484034	-1.45977
H	4764.4	1.15013	-3.31647
H	4766.2	1.11421	-3.53905
H	4765.45	2.31866	-2.41223
N	4766.61	0.353203	-0.971277
C	4766.86	-0.52944	0.140366
C	4767.92	0.112481	1.01712
O	4768.58	1.06338	0.607831
H	4767.32	1.023	-1.15393
H	4765.95	-0.618821	0.728222
C	4767.34	-1.91759	-0.339927
H	4768.27	-1.82211	-0.943224
H	4767.53	-2.59978	0.513495
H	4766.55	-2.37672	-0.982077
N	4768.08	-0.382387	2.25942
C	4769.06	0.172557	3.16933
H	4767.53	-1.14767	2.57462
H	4769.04	-0.371274	4.13955
H	4768.84	1.24773	3.36723
H	4770.08	0.0985701	2.73992
