44
  This energy is 1.36199e-319 and Call times are: 85035
C	0.107533	1.32113	-3.22012
C	-0.561579	0.540494	-2.15518
O	-1.70677	0.133339	-2.29394
H	-0.589842	1.44677	-4.07671
H	1.01608	0.788363	-3.57158
H	0.392097	2.32419	-2.83823
N	0.149842	0.316907	-1.04782
C	-0.364195	-0.426465	0.0746768
C	0.451473	-0.049429	1.29606
O	1.51382	0.558541	1.17931
H	1.07141	0.678782	-0.935117
H	-1.38797	-0.12529	0.257037
C	-0.278226	-1.94921	-0.172231
H	0.773311	-2.25462	-0.359616
H	-0.673349	-2.52462	0.690071
H	-0.87881	-2.21232	-1.07013
N	-0.0411596	-0.384949	2.50467
C	0.659997	-0.0568561	3.72406
H	-0.906043	-0.870482	2.5786
H	0.0954168	-0.4182	4.61171
H	0.79142	1.04554	3.81723
H	1.66989	-0.527134	3.73548
C	4026.99	0.493352	-1.67122
C	4028.11	0.983783	-0.842525
O	4028.22	2.17112	-0.571458
H	4026.34	1.35236	-1.96558
H	4026.37	-0.23142	-1.0947
H	4027.37	0.00235741	-2.58904
N	4028.98	0.0641312	-0.420642
C	4030.12	0.386843	0.393533
C	4031.13	-0.735914	0.245778
O	4030.81	-1.80817	-0.261911
H	4028.89	-0.895906	-0.672473
H	4030.58	1.29187	0.0144928
C	4029.73	0.554366	1.87783
H	4029.26	-0.375686	2.26325
H	4030.61	0.80305	2.50755
H	4028.99	1.3789	1.97245
N	4032.39	-0.505609	0.669199
C	4033.42	-1.51142	0.558071
H	4032.64	0.371161	1.07073
H	4034.39	-1.13247	0.96224
H	4033.58	-1.79897	-0.507056
H	4033.14	-2.42772	1.12547
