44
  This energy is 5.99302e-321 and Call times are: 73695
C	-1.02193	3.08705	1.24575
C	-0.723962	2.17103	0.121781
O	-0.976537	2.48421	-1.03347
H	-1.48265	4.01769	0.848868
H	-0.0866234	3.35004	1.78321
H	-1.7317	2.60774	1.95246
N	-0.176093	0.996731	0.443082
C	0.170729	0.00109102	-0.539386
C	0.260516	-1.33813	0.166072
O	0.30235	-1.40056	1.39334
H	-0.00198395	0.741484	1.39043
H	-0.62554	-0.0646878	-1.26994
C	1.51534	0.331688	-1.22484
H	2.32985	0.399077	-0.472419
H	1.78534	-0.432855	-1.98204
H	1.43685	1.31544	-1.73692
N	0.270233	-2.4479	-0.598331
C	0.341599	-3.76703	-0.0144032
H	0.22845	-2.37679	-1.58951
H	0.340117	-4.5482	-0.806248
H	-0.528967	-3.94705	0.657126
H	1.27173	-3.88032	0.588256
C	3494.34	2.75509	-1.5667
C	3494.24	1.80648	-0.434819
O	3495.06	1.81794	0.474996
H	3495.23	3.40373	-1.42386
H	3493.44	3.39483	-1.61174
H	3494.45	2.20049	-2.52252
N	3493.22	0.946379	-0.471192
C	3492.99	-0.0362161	0.557369
C	3492.12	-1.13221	-0.0315789
O	3491.54	-0.966252	-1.10163
H	3492.58	0.927753	-1.23248
H	3493.94	-0.480565	0.838483
C	3492.29	0.589217	1.78646
H	3491.32	1.04472	1.49435
H	3492.11	-0.164592	2.58044
H	3492.94	1.3913	2.20787
N	3492.04	-2.29275	0.647725
C	3491.24	-3.39687	0.158204
H	3492.52	-2.41013	1.50831
H	3491.3	-4.26	0.857747
H	3491.61	-3.73108	-0.839561
H	3490.18	-3.09772	0.0517122
