44
  This energy is 1.13428e-319 and Call times are: 11199
C	-3.41394	0.516049	0.452562
C	-2.01713	0.544613	0.941747
O	-1.73585	1.04147	2.02365
H	-4.07585	1.00056	1.20289
H	-3.74609	-0.533047	0.304593
H	-3.49472	1.06793	-0.507564
N	-1.09623	0.00774886	0.137959
C	0.30401	-0.0394738	0.475507
C	1.08784	-0.211919	-0.811006
O	0.521813	-0.536081	-1.85329
H	-1.33398	-0.367754	-0.753897
H	0.59284	0.908148	0.912157
C	0.610149	-1.20351	1.44423
H	0.311994	-2.17405	0.993373
H	1.68743	-1.24269	1.70633
H	0.0290572	-1.06612	2.3821
N	2.41407	0.0237366	-0.77132
C	3.23975	-0.103581	-1.94955
H	2.85239	0.292067	0.0802145
H	4.30126	0.12978	-1.71295
H	2.89673	0.594738	-2.74701
H	3.19035	-1.14049	-2.35397
C	537.89	-2.51281	-2.4091
C	537.339	-1.25202	-1.86341
O	536.536	-0.584537	-2.50079
H	537.464	-2.69324	-3.41963
H	537.623	-3.36457	-1.74886
H	538.995	-2.44298	-2.49284
N	537.771	-0.890922	-0.652854
C	537.326	0.308933	0.00995222
C	538.357	0.670079	1.06129
O	539.219	-0.138658	1.40026
H	538.447	-1.42819	-0.156051
H	537.293	1.11697	-0.709818
C	535.943	0.107738	0.669189
H	535.981	-0.722377	1.40651
H	535.598	1.02974	1.18032
H	535.197	-0.157505	-0.111196
N	538.305	1.90926	1.58829
C	539.253	2.34625	2.58668
H	537.605	2.55164	1.29568
H	539.044	3.39403	2.89578
H	540.293	2.29937	2.18866
H	539.2	1.69672	3.49026
