44
  This energy is 1.34025e-319 and Call times are: 18003
C	2.93102	1.30619	1.35245
C	1.65601	0.565061	1.48008
O	1.3583	-0.00715588	2.51951
H	3.49802	1.22846	2.30551
H	2.73118	2.37744	1.13956
H	3.54418	0.874979	0.533277
N	0.865662	0.555059	0.404156
C	-0.405871	-0.122555	0.374615
C	-0.7659	-0.37457	-1.07663
O	-0.160553	0.195263	-1.98254
H	1.13266	1.00051	-0.446266
H	-0.303119	-1.08484	0.859918
C	-1.50758	0.718752	1.05693
H	-1.60985	1.70552	0.556978
H	-2.48794	0.19987	1.03609
H	-1.23142	0.897403	2.11899
N	-1.7521	-1.25675	-1.3319
C	-2.15545	-1.56911	-2.68317
H	-2.22511	-1.71294	-0.585311
H	-2.98161	-2.31389	-2.68473
H	-1.30139	-1.99185	-3.26032
H	-2.50821	-0.652922	-3.2098
C	858.289	2.95327	1.7728
C	858.079	2.09556	0.584603
O	857.291	2.41456	-0.294995
H	857.635	3.84975	1.69819
H	859.347	3.28342	1.82472
H	858.03	2.39595	2.69764
N	858.789	0.965967	0.536283
C	858.695	0.0296728	-0.555191
C	859.195	-1.31396	-0.0608332
O	859.815	-1.40352	0.99692
H	859.407	0.703053	1.27315
H	857.655	-0.0870375	-0.829868
C	859.532	0.49391	-1.76829
H	860.599	0.613267	-1.48279
H	859.462	-0.224671	-2.61059
H	859.157	1.47965	-2.12016
N	858.915	-2.39893	-0.80944
C	859.339	-3.72111	-0.412251
H	858.405	-2.3067	-1.65865
H	859.015	-4.47913	-1.1589
H	858.903	-3.99355	0.575984
H	860.449	-3.76777	-0.324377
