44
  This energy is 1.34188e-320 and Call times are: 67773
C	2.82389	1.01065	1.76928
C	1.94294	1.06756	0.581051
O	2.1234	1.89565	-0.301093
H	3.59649	1.80627	1.69213
H	3.32899	0.0233906	1.82411
H	2.23087	1.17397	2.69373
N	0.950242	0.176012	0.535596
C	0.0113736	0.106568	-0.555519
C	-1.2279	-0.61224	-0.0587762
O	-1.21067	-1.23568	1.00087
H	0.796014	-0.474538	1.27447
H	-0.280335	1.11149	-0.833198
C	0.610692	-0.642818	-1.76645
H	0.909469	-1.67314	-1.47787
H	-0.109544	-0.697989	-2.60847
H	1.51842	-0.106984	-2.12009
N	-2.34478	-0.522688	-0.807476
C	-3.57564	-1.16434	-0.408138
H	-2.34051	-0.00752428	-1.65825
H	-4.37783	-0.975676	-1.15523
H	-3.91803	-0.777556	0.578983
H	-3.43325	-2.26551	-0.316947
C	3215.13	1.80582	2.88678
C	3214.34	0.797919	2.14745
O	3213.51	0.0978664	2.71934
H	3214.84	1.78139	3.96106
H	3214.93	2.82101	2.48464
H	3216.21	1.58125	2.79721
N	3214.58	0.697727	0.838181
C	3213.89	-0.235739	-0.0147259
C	3214.73	-0.449619	-1.25428
O	3215.67	0.304866	-1.51445
H	3215.27	1.25347	0.389306
H	3213.81	-1.18655	0.496681
C	3212.49	0.292128	-0.410324
H	3212.58	1.26797	-0.934143
H	3211.95	-0.42426	-1.06694
H	3211.88	0.445782	0.506424
N	3214.44	-1.50313	-2.04024
C	3215.19	-1.7927	-3.23466
H	3213.68	-2.10623	-1.80885
H	3214.79	-2.69688	-3.74472
H	3216.26	-1.97497	-2.98554
H	3215.15	-0.937944	-3.9476
