44
  This energy is 1.49702e-321 and Call times are: 67269
C	-0.872892	2.97283	1.58949
C	-1.18917	1.60286	1.12651
O	-2.23736	1.05549	1.43984
H	-1.70639	3.34833	2.22205
H	-0.74814	3.65139	0.71954
H	0.0605593	2.9678	2.19081
N	-0.270235	1.00833	0.362014
C	-0.43429	-0.322965	-0.164843
C	0.940727	-0.858889	-0.513199
O	1.91201	-0.107227	-0.571927
H	0.592527	1.45363	0.137772
H	-0.849037	-0.958353	0.607388
C	-1.33824	-0.324601	-1.41784
H	-0.910128	0.32874	-2.20777
H	-1.4668	-1.34815	-1.82601
H	-2.34201	0.0712334	-1.14968
N	1.05837	-2.18336	-0.732131
C	2.33022	-2.78535	-1.05799
H	0.261856	-2.77606	-0.672882
H	2.22032	-3.88271	-1.20275
H	3.06782	-2.61171	-0.241265
H	2.74362	-2.34761	-1.99536
C	3188.61	-2.36897	1.82257
C	3188.76	-1.45062	0.670579
O	3187.94	-1.44923	-0.242855
H	3187.7	-2.9933	1.68312
H	3188.51	-1.7889	2.76367
H	3189.5	-3.03484	1.89446
N	3189.82	-0.640192	0.687309
C	3190.09	0.308571	-0.361891
C	3191.57	0.658866	-0.298156
O	3192.24	0.360147	0.685089
H	3190.49	-0.671206	1.42287
H	3189.91	-0.161872	-1.31921
C	3189.24	1.58481	-0.205306
H	3189.43	2.06449	0.778136
H	3189.45	2.31743	-1.01164
H	3188.16	1.31458	-0.252537
N	3192.11	1.2853	-1.362
C	3193.51	1.64755	-1.3961
H	3191.55	1.51209	-2.15112
H	3193.76	2.15515	-2.35337
H	3194.15	0.742701	-1.29982
H	3193.75	2.33786	-0.557478
