44
  This energy is 1.32291e-319 and Call times are: 29763
C	2.78489	-0.424186	-2.04708
C	1.88528	0.423288	-1.23242
O	2.15466	1.5945	-1.00398
H	3.66654	0.174453	-2.36361
H	2.2533	-0.786961	-2.95186
H	3.13561	-1.2932	-1.45147
N	0.780994	-0.163092	-0.764364
C	-0.19051	0.531015	0.0426206
C	-0.989554	-0.507378	0.805843
O	-0.93413	-1.69589	0.495699
H	0.587288	-1.12588	-0.933055
H	0.328499	1.14494	0.767742
C	-1.1328	1.39208	-0.827884
H	-1.66311	0.759196	-1.57109
H	-1.88202	1.92804	-0.209667
H	-0.535255	2.14792	-1.38266
N	-1.73874	-0.0820336	1.84209
C	-2.52361	-1.00009	2.63413
H	-1.76478	0.882898	2.0818
H	-3.0704	-0.458468	3.4372
H	-1.86982	-1.76615	3.11051
H	-3.26919	-1.52987	1.99803
C	1417.28	3.32551	-0.992934
C	1416.78	2.27984	-0.0755342
O	1416.19	2.57409	0.957954
H	1417.05	4.32763	-0.57447
H	1416.8	3.22784	-1.98797
H	1418.39	3.23526	-1.10622
N	1417	1.01444	-0.437844
C	1416.57	-0.112097	0.350237
C	1417.41	-1.31015	-0.0506186
O	1418.09	-1.28467	-1.07132
H	1417.51	0.788007	-1.26766
H	1416.77	0.0928475	1.39481
C	1415.07	-0.413695	0.126114
H	1414.87	-0.622826	-0.946631
H	1414.74	-1.28048	0.731549
H	1414.47	0.471946	0.422344
N	1417.39	-2.38577	0.760986
C	1418.17	-3.56788	0.466607
H	1416.83	-2.38426	1.58616
H	1418.02	-4.34216	1.25098
H	1419.25	-3.32322	0.418782
H	1417.87	-4.00056	-0.515215
