44
  This energy is 4.53503e-320 and Call times are: 2547
C	3.19206	-0.166753	1.3817
C	1.81619	0.37814	1.34564
O	1.40462	1.11584	2.23046
H	3.70794	0.198627	2.29615
H	3.76052	0.1703	0.489481
H	3.16387	-1.27655	1.40411
N	1.0616	0.0149253	0.305919
C	-0.296836	0.463332	0.131527
C	-0.991838	-0.508084	-0.802583
O	-0.343995	-1.31956	-1.4611
H	1.39873	-0.609908	-0.393266
H	-0.805945	0.423087	1.08613
C	-0.346737	1.89198	-0.454647
H	0.177039	1.92979	-1.4336
H	-1.39126	2.24043	-0.590078
H	0.166641	2.5937	0.2383
N	-2.33719	-0.461493	-0.864763
C	-3.08564	-1.35562	-1.71713
H	-2.84381	0.197563	-0.318677
H	-4.17719	-1.16023	-1.62998
H	-2.89604	-2.4169	-1.4361
H	-2.78952	-1.22249	-2.78286
C	125.953	-0.924784	-0.853149
C	127.296	-1.23658	-0.315268
O	127.536	-2.3204	0.198975
H	125.283	-1.79754	-0.695645
H	126.016	-0.712107	-1.94107
H	125.526	-0.0441424	-0.328959
N	128.215	-0.273426	-0.419311
C	129.566	-0.427347	0.0572339
C	130.149	0.957606	0.260001
O	129.591	1.94911	-0.205881
H	127.999	0.615772	-0.814036
H	129.546	-0.91986	1.02112
C	130.429	-1.22539	-0.945767
H	130.448	-0.717662	-1.93369
H	131.47	-1.34589	-0.581881
H	129.991	-2.23743	-1.08652
N	131.282	1.0593	0.983433
C	131.903	2.33796	1.23867
H	131.715	0.245896	1.35804
H	132.824	2.2126	1.84916
H	131.206	3.01034	1.78971
H	132.181	2.83766	0.282572
