44
  This energy is 1.35102e-319 and Call times are: 104313
C	-2.85445	-0.427349	1.94823
C	-1.5309	0.185421	1.69536
O	-1.09712	1.07382	2.41583
H	-3.31778	0.0530575	2.83728
H	-2.74151	-1.51423	2.14508
H	-3.51933	-0.277911	1.07156
N	-0.852736	-0.280704	0.644088
C	0.447859	0.215093	0.270637
C	0.675691	-0.127606	-1.18878
O	-0.0501665	-0.935257	-1.76555
H	-1.22954	-0.984405	0.0476351
H	0.452003	1.29404	0.359691
C	1.55969	-0.40953	1.14287
H	1.55214	-1.51649	1.04964
H	2.56244	-0.0298323	0.858078
H	1.38071	-0.152217	2.20959
N	1.68264	0.49937	-1.82828
C	1.9671	0.245644	-3.22143
H	2.25433	1.15499	-1.34604
H	2.83218	0.855432	-3.56355
H	1.0866	0.500076	-3.85487
H	2.20991	-0.829502	-3.38356
C	4943.58	2.05774	-1.11173
C	4942.89	1.2958	-0.0466976
O	4943.39	1.16477	1.06233
H	4944.55	2.43614	-0.722739
H	4942.96	2.92151	-1.42836
H	4943.77	1.40232	-1.98666
N	4941.71	0.763278	-0.368872
C	4940.92	-0.00432911	0.559755
C	4939.96	-0.860944	-0.242702
O	4939.77	-0.643931	-1.43843
H	4941.33	0.852465	-1.28459
H	4941.57	-0.669578	1.11126
C	4940.13	0.91373	1.52294
H	4939.47	1.59531	0.953802
H	4939.52	0.325921	2.23945
H	4940.85	1.53678	2.10398
N	4939.34	-1.87409	0.396276
C	4938.42	-2.74975	-0.28919
H	4939.51	-2.03789	1.36245
H	4938.01	-3.51769	0.406642
H	4938.93	-3.27276	-1.13172
H	4937.56	-2.17075	-0.707391
