44
  This energy is 7.54438e-320 and Call times are: 45345
C	-1.73736	2.94525	-0.658156
C	-1.69429	1.48474	-0.421016
O	-2.72232	0.833889	-0.294325
H	-2.79652	3.28191	-0.684968
H	-1.258	3.18943	-1.62945
H	-1.21037	3.48151	0.158941
N	-0.481541	0.931173	-0.349052
C	-0.277446	-0.477428	-0.123182
C	1.12965	-0.664723	0.409967
O	1.95359	0.245476	0.342943
H	0.348808	1.4768	-0.424839
H	-0.966314	-0.814704	0.640873
C	-0.464832	-1.28875	-1.42463
H	0.242952	-0.939682	-2.20649
H	-0.308547	-2.3738	-1.25426
H	-1.499	-1.14218	-1.80561
N	1.43138	-1.85038	0.974925
C	2.74217	-2.11567	1.52048
H	0.74869	-2.57187	1.02606
H	2.79332	-3.1454	1.93796
H	2.98179	-1.39479	2.33544
H	3.52324	-2.01766	0.732134
C	2149.46	1.67832	1.11842
C	2150.93	1.58428	0.923893
O	2151.66	2.53202	1.17074
H	2149.2	2.69381	1.49103
H	2149.13	0.926702	1.86338
H	2148.94	1.50514	0.155973
N	2151.39	0.420027	0.463384
C	2152.79	0.175854	0.223605
C	2152.9	-0.983626	-0.74722
O	2151.93	-1.69639	-0.989013
H	2150.78	-0.334807	0.238441
H	2153.22	1.04647	-0.252935
C	2153.53	-0.156204	1.53533
H	2153.09	-1.04944	2.02189
H	2154.61	-0.344629	1.35435
H	2153.44	0.700414	2.23837
N	2154.09	-1.18604	-1.34557
C	2154.29	-2.2581	-2.29328
H	2154.86	-0.593961	-1.14206
H	2155.33	-2.26041	-2.67294
H	2153.6	-2.14557	-3.16221
H	2154.08	-3.24508	-1.81793
