44
  This energy is 1.39272e-319 and Call times are: 72645
C	2.58546	0.43566	2.29166
C	2.08981	0.231139	0.911915
O	2.84792	0.283103	-0.0467577
H	3.67921	0.632633	2.26359
H	2.39939	-0.472011	2.90349
H	2.07545	1.30547	2.7567
N	0.782247	-0.00408519	0.780305
C	0.152167	-0.223148	-0.497129
C	-1.32871	0.0631793	-0.341409
O	-1.83491	0.167276	0.774281
H	0.170114	-0.0150575	1.5665
H	0.550767	0.485307	-1.21217
C	0.364278	-1.67278	-0.987731
H	-0.0452034	-2.39694	-0.251503
H	-0.11947	-1.84486	-1.97117
H	1.45298	-1.87032	-1.09663
N	-2.05667	0.219433	-1.46465
C	-3.47139	0.506193	-1.41445
H	-1.62725	0.138505	-2.35812
H	-3.89083	0.597211	-2.44062
H	-3.65965	1.46144	-0.872878
H	-4.0184	-0.305738	-0.882732
C	3446.28	-1.20636	3.26424
C	3446.92	-0.419979	2.19114
O	3447.9	0.286566	2.42376
H	3446.81	-1.02504	4.22441
H	3446.32	-2.28993	3.02661
H	3445.21	-0.898873	3.37592
N	3446.39	-0.523569	0.9729
C	3446.91	0.179948	-0.172343
C	3445.81	0.257169	-1.21133
O	3444.8	-0.438737	-1.11086
H	3445.58	-1.07976	0.80206
H	3447.16	1.19245	0.119615
C	3448.14	-0.537889	-0.760296
H	3447.89	-1.57652	-1.05813
H	3448.55	0.00123763	-1.64219
H	3448.94	-0.589023	0.01086
N	3445.97	1.12722	-2.22799
C	3444.96	1.27806	-3.25757
H	3446.79	1.6867	-2.28781
H	3445.28	2.03936	-4.00466
H	3443.99	1.60094	-2.81679
H	3444.8	0.313014	-3.78891
