44
  This energy is 1.26145e-319 and Call times are: 47277
C	0.758468	-3.23179	-1.05186
C	1.10585	-1.80283	-0.88274
O	2.23099	-1.39173	-1.13082
H	1.65284	-3.78747	-1.40849
H	-0.0547994	-3.34188	-1.79972
H	0.430055	-3.66324	-0.0828711
N	0.130936	-1.00354	-0.443365
C	0.315489	0.409649	-0.229654
C	-0.763379	0.881165	0.725833
O	-1.73589	0.171447	0.975527
H	-0.773307	-1.35573	-0.217001
H	1.27276	0.570974	0.249602
C	0.229712	1.19524	-1.55729
H	-0.753329	1.02693	-2.04659
H	0.371533	2.28371	-1.39639
H	1.02435	0.839707	-2.24887
N	-0.603829	2.08888	1.302
C	-1.57352	2.61552	2.23396
H	0.193609	2.64515	1.0925
H	-1.26508	3.62096	2.59617
H	-1.67729	1.94208	3.11541
H	-2.57306	2.70823	1.75074
C	2245.78	-2.37966	-2.06679
C	2244.64	-1.87508	-1.27396
O	2243.55	-2.43175	-1.30923
H	2245.46	-3.27483	-2.64347
H	2246.62	-2.66508	-1.39383
H	2246.13	-1.59984	-2.77682
N	2244.86	-0.787237	-0.533655
C	2243.85	-0.179024	0.291021
C	2244.26	1.25653	0.552866
O	2245.4	1.63687	0.308136
H	2245.75	-0.325823	-0.535965
H	2242.92	-0.158526	-0.256533
C	2243.68	-0.936097	1.6275
H	2244.64	-0.955782	2.18631
H	2242.9	-0.470514	2.26487
H	2243.38	-1.98653	1.42196
N	2243.33	2.09644	1.03935
C	2243.62	3.48399	1.30846
H	2242.4	1.7713	1.22412
H	2242.73	4.00867	1.7052
H	2243.95	4.0032	0.378564
H	2244.44	3.5721	2.05915
