44
  This energy is 4.89224e-320 and Call times are: 50427
C	-2.16023	-0.0960722	2.72953
C	-0.944808	0.404092	2.0485
O	-0.274107	1.3054	2.53255
H	-2.31385	0.47335	3.67188
H	-2.04553	-1.17284	2.97496
H	-3.04846	0.0415571	2.07757
N	-0.634105	-0.176928	0.887361
C	0.517901	0.200463	0.108076
C	0.283422	-0.252979	-1.31974
O	-0.618996	-1.0439	-1.58792
H	-1.20471	-0.890221	0.489166
H	0.599732	1.27997	0.101138
C	1.80829	-0.441857	0.664355
H	1.72063	-1.54928	0.670671
H	2.69729	-0.15323	0.0667356
H	1.96813	-0.102755	1.71107
N	1.08237	0.258067	-2.27708
C	0.92587	-0.106426	-3.66591
H	1.8024	0.902266	-2.04086
H	1.67748	0.417115	-4.29697
H	-0.0903505	0.166923	-4.03172
H	1.05784	-1.20433	-3.80142
C	2391.18	-1.44028	3.16291
C	2391.05	-0.285296	2.24665
O	2390.56	0.768876	2.62497
H	2390.77	-1.16723	4.15984
H	2392.25	-1.71709	3.27688
H	2390.62	-2.30968	2.76774
N	2391.49	-0.464977	0.99851
C	2391.43	0.565135	-0.00743223
C	2391.5	-0.104902	-1.36561
O	2391.85	-1.28069	-1.4683
H	2391.86	-1.3379	0.694456
H	2390.47	1.06595	0.0598334
C	2392.58	1.57588	0.151032
H	2393.56	1.05862	0.0821804
H	2392.54	2.37052	-0.621859
H	2392.52	2.05892	1.15029
N	2391.16	0.626882	-2.44353
C	2391.19	0.069727	-3.77579
H	2390.87	1.5746	-2.33901
H	2390.87	0.827941	-4.52613
H	2390.5	-0.804464	-3.8512
H	2392.21	-0.274618	-4.03538
