44
  This energy is 1.03146e-319 and Call times are: 122079
C	-2.68751	2.21422	-0.0250158
C	-1.29528	1.85309	-0.374977
O	-0.622293	2.56489	-1.10773
H	-2.95695	3.16834	-0.527938
H	-2.78375	2.34719	1.07311
H	-3.3857	1.4199	-0.363456
N	-0.828712	0.715994	0.146258
C	0.5058	0.232019	-0.102085
C	0.521308	-1.25763	0.180671
O	-0.406122	-1.79233	0.785483
H	-1.39652	0.130053	0.718275
H	0.741003	0.370435	-1.14975
C	1.54074	0.952954	0.790249
H	1.29604	0.80944	1.86433
H	2.5694	0.582811	0.601488
H	1.51869	2.0434	0.574403
N	1.57218	-1.96903	-0.272718
C	1.66738	-3.39463	-0.0610955
H	2.30927	-1.5192	-0.766263
H	2.60416	-3.79657	-0.506229
H	0.80348	-3.91985	-0.529139
H	1.66671	-3.63131	1.02756
C	5782.21	-0.809357	3.23177
C	5781.65	-1.17783	1.91424
O	5781.43	-2.34606	1.62349
H	5782.38	-1.73133	3.82897
H	5781.51	-0.151432	3.7806
H	5783.18	-0.282507	3.09909
N	5781.4	-0.171275	1.0732
C	5780.85	-0.370865	-0.243713
C	5781.18	0.850881	-1.07783
O	5781.59	1.88243	-0.547004
H	5781.61	0.773717	1.31079
H	5781.33	-1.22386	-0.701842
C	5779.32	-0.57572	-0.188795
H	5778.83	0.300907	0.28236
H	5778.89	-0.729843	-1.20111
H	5779.09	-1.4729	0.425989
N	5781.04	0.754309	-2.41398
C	5781.34	1.86215	-3.28942
H	5780.71	-0.0913669	-2.82507
H	5781.15	1.58698	-4.35101
H	5782.41	2.16216	-3.18697
H	5780.71	2.74508	-3.04015
