44
  This energy is 1.34663e-319 and Call times are: 5949
C	2.44641	0.106852	-2.47584
C	1.25163	0.662972	-1.80172
O	0.803772	1.7587	-2.11043
H	2.80961	0.831632	-3.23653
H	2.19043	-0.847533	-2.98225
H	3.2546	-0.072839	-1.73592
N	0.704923	-0.0918599	-0.845842
C	-0.460319	0.313095	-0.100824
C	-0.486921	-0.481209	1.19054
O	0.233155	-1.46703	1.3371
H	1.09638	-0.969849	-0.583479
H	-0.365734	1.35988	0.158749
C	-1.75625	0.064247	-0.904405
H	-1.84976	-1.01048	-1.1696
H	-2.65541	0.375089	-0.333732
H	-1.72387	0.650677	-1.84844
N	-1.30773	-0.0541687	2.17028
C	-1.39119	-0.740067	3.43865
H	-1.8773	0.749901	2.03501
H	-2.12199	-0.237676	4.11005
H	-0.399174	-0.750547	3.94565
H	-1.71613	-1.79584	3.29395
C	290.995	-0.308263	-3.46253
C	290.457	0.151523	-2.16259
O	289.465	0.865764	-2.10564
H	290.37	0.101938	-4.28494
H	290.975	-1.41719	-3.51439
H	292.039	0.0484204	-3.59243
N	291.114	-0.250866	-1.07262
C	290.712	0.11388	0.262226
C	291.913	-0.0508211	1.17248
O	292.908	-0.666753	0.794905
H	291.938	-0.808623	-1.13357
H	290.433	1.15983	0.272104
C	289.544	-0.768135	0.758539
H	289.834	-1.84054	0.746477
H	289.232	-0.489862	1.786
H	288.671	-0.639391	0.0827606
N	291.856	0.518652	2.39248
C	292.957	0.42454	3.32279
H	291.045	1.01904	2.67681
H	292.717	0.954911	4.27067
H	293.877	0.879356	2.8898
H	293.178	-0.640504	3.5632
