44
  This energy is 1.0404e-319 and Call times are: 96753
C	-1.24178	-3.17763	0.697686
C	-0.334587	-2.04319	0.982717
O	0.358822	-2.0255	1.99037
H	-1.16541	-3.92405	1.51798
H	-0.956857	-3.66437	-0.258725
H	-2.29145	-2.82142	0.632464
N	-0.324845	-1.0524	0.0879538
C	0.504961	0.117681	0.226391
C	-0.0944403	1.21768	-0.627979
O	-0.955298	0.962622	-1.46804
H	-0.915913	-1.06497	-0.714179
H	0.476815	0.449112	1.25665
C	1.95746	-0.167213	-0.216554
H	1.98257	-0.507639	-1.27372
H	2.59917	0.731597	-0.111109
H	2.38477	-0.975487	0.416098
N	0.334398	2.47754	-0.416178
C	-0.187949	3.59092	-1.17361
H	1.02654	2.66447	0.273186
H	0.290666	4.54287	-0.854263
H	-1.28819	3.68499	-1.02577
H	0.00335355	3.4501	-2.26208
C	4579.42	0.0832758	0.166304
C	4580.73	-0.531806	0.499125
O	4580.8	-1.46496	1.2864
H	4578.62	-0.431488	0.735175
H	4579.22	-0.0198296	-0.919942
H	4579.43	1.15909	0.441207
N	4581.8	-0.00859687	-0.0998711
C	4583.14	-0.499281	0.122275
C	4584.11	0.598821	-0.267689
O	4583.73	1.57193	-0.916339
H	4581.73	0.770439	-0.71695
H	4583.27	-0.69486	1.17888
C	4583.41	-1.7725	-0.707954
H	4583.28	-1.56845	-1.79134
H	4584.44	-2.15308	-0.539168
H	4582.7	-2.56881	-0.41373
N	4585.39	0.477264	0.140422
C	4586.38	1.47922	-0.17338
H	4585.67	-0.314141	0.670578
H	4587.37	1.19791	0.248131
H	4586.08	2.46768	0.249115
H	4586.48	1.5935	-1.27631
