44
  This energy is 5.12643e-320 and Call times are: 50511
C	-1.56199	0.57387	-3.05892
C	-1.47197	-0.116718	-1.75271
O	-2.36878	-0.851593	-1.36259
H	-2.52452	0.30975	-3.54844
H	-0.725504	0.257913	-3.71716
H	-1.52255	1.67403	-2.91387
N	-0.370198	0.113679	-1.03481
C	-0.13814	-0.485773	0.255009
C	0.887671	0.360026	0.9841
O	1.54858	1.20426	0.382174
H	0.340011	0.737265	-1.35053
H	-1.05647	-0.455242	0.827553
C	0.371792	-1.93768	0.11696
H	1.31363	-1.96537	-0.471497
H	0.55136	-2.40231	1.10825
H	-0.388025	-2.54658	-0.419754
N	1.02884	0.166334	2.3102
C	1.97225	0.933509	3.0897
H	0.47967	-0.516694	2.78043
H	1.94112	0.626376	4.15832
H	1.73807	2.02113	3.03066
H	3.00925	0.782601	2.71149
C	2395.83	2.51831	2.36639
C	2396.27	1.76696	1.17026
O	2397.24	2.1341	0.513902
H	2396.49	3.39809	2.51379
H	2395.89	1.87125	3.26696
H	2394.79	2.87354	2.23097
N	2395.56	0.683158	0.853557
C	2395.87	-0.150237	-0.281204
C	2394.62	-0.928951	-0.639968
O	2393.67	-0.983614	0.13739
H	2394.76	0.4109	1.37931
H	2396.11	0.481436	-1.12488
C	2397.03	-1.12219	0.0324876
H	2396.77	-1.76822	0.898913
H	2397.27	-1.7653	-0.839188
H	2397.94	-0.539483	0.294904
N	2394.58	-1.53473	-1.8432
C	2393.43	-2.28855	-2.2759
H	2395.36	-1.47282	-2.46107
H	2393.59	-2.71078	-3.29172
H	2392.52	-1.63862	-2.30879
H	2393.22	-3.13014	-1.57528
