44
  This energy is 7.55822e-320 and Call times are: 89025
C	-1.40704	3.18357	-0.106069
C	-1.15575	1.85113	-0.699912
O	-1.71388	1.5028	-1.73125
H	-2.14132	3.73312	-0.734318
H	-0.463449	3.76715	-0.0625834
H	-1.82123	3.07423	0.918352
N	-0.299392	1.06255	-0.0463334
C	0.0466661	-0.260842	-0.499871
C	0.587471	-1.03365	0.687366
O	0.903721	-0.453068	1.72406
H	0.12657	1.34661	0.808539
H	-0.850979	-0.762886	-0.837892
C	1.10235	-0.211083	-1.62689
H	2.02163	0.30519	-1.2769
H	1.37099	-1.2284	-1.97856
H	0.694499	0.358634	-2.49016
N	0.685848	-2.37246	0.569438
C	1.17861	-3.19217	1.65177
H	0.418131	-2.82441	-0.275133
H	1.18571	-4.26561	1.36034
H	0.536035	-3.07841	2.55477
H	2.21684	-2.89672	1.92739
C	4215.58	-0.5901	-3.33259
C	4215.3	-0.705292	-1.88346
O	4214.24	-1.15876	-1.47786
H	4214.7	-0.960431	-3.90624
H	4216.47	-1.20008	-3.60073
H	4215.77	0.470667	-3.60372
N	4216.26	-0.284138	-1.05891
C	4216.14	-0.332444	0.376045
C	4217.12	0.660915	0.96248
O	4218.02	1.14601	0.269092
H	4217.11	0.1103	-1.40172
H	4215.14	-0.0119202	0.654093
C	4216.43	-1.75001	0.918239
H	4217.45	-2.07594	0.630599
H	4216.33	-1.79081	2.02283
H	4215.7	-2.4684	0.480281
N	4216.97	1.00427	2.2564
C	4217.85	1.95164	2.89728
H	4216.24	0.606107	2.79887
H	4217.56	2.10033	3.96113
H	4217.81	2.93834	2.3816
H	4218.9	1.59056	2.867
