44
  This energy is 1.19514e-320 and Call times are: 7377
C	-3.09378	-1.59281	-0.132627
C	-1.67329	-1.47308	-0.531454
O	-1.12846	-2.34122	-1.19927
H	-3.50668	-2.54689	-0.526477
H	-3.68083	-0.74779	-0.549917
H	-3.18199	-1.59278	0.974244
N	-1.03157	-0.37781	-0.118003
C	0.352296	-0.119503	-0.426256
C	0.877366	0.877569	0.588332
O	0.105195	1.50523	1.31057
H	-1.47835	0.308163	0.450118
H	0.916025	-1.03627	-0.308664
C	0.514656	0.44227	-1.85635
H	-0.0654871	1.38237	-1.97368
H	1.57903	0.642153	-2.09704
H	0.125317	-0.296885	-2.58998
N	2.21304	1.03046	0.681057
C	2.80472	1.94822	1.62648
H	2.82153	0.508128	0.092722
H	3.91419	1.9321	1.54854
H	2.5226	1.67452	2.66894
H	2.45485	2.98864	1.43597
C	357.974	0.347445	2.69785
C	356.825	-0.30192	2.02729
O	356.29	-1.29176	2.50687
H	358.219	-0.209202	3.62853
H	357.72	1.39555	2.96222
H	358.862	0.339405	2.03046
N	356.42	0.248159	0.880428
C	355.316	-0.269679	0.112639
C	355.463	0.230905	-1.31109
O	356.246	1.13949	-1.58012
H	356.883	1.03707	0.485169
H	355.379	-1.35019	0.0896253
C	353.96	0.185751	0.698532
H	353.899	1.29472	0.721285
H	353.108	-0.211334	0.109825
H	353.865	-0.186229	1.74196
N	354.723	-0.369481	-2.26436
C	354.806	0.0319552	-3.64936
H	354.1	-1.10775	-2.02768
H	354.12	-0.578978	-4.27734
H	355.843	-0.0973427	-4.03478
H	354.525	1.10397	-3.76524
