44
  This energy is 1.19999e-319 and Call times are: 59247
C	0.384141	-2.14096	-2.71935
C	0.361623	-1.878	-1.26279
O	0.433454	-2.79272	-0.453702
H	0.464666	-3.23594	-2.89368
H	1.25722	-1.63772	-3.1855
H	-0.55066	-1.7699	-3.18989
N	0.253564	-0.599872	-0.892559
C	0.218723	-0.18612	0.487449
C	-0.416226	1.18964	0.54548
O	-0.564995	1.85691	-0.476506
H	0.166484	0.133755	-1.56125
H	-0.416156	-0.865089	1.04243
C	1.63749	-0.142609	1.09763
H	2.28631	0.55436	0.525453
H	1.61431	0.175457	2.16021
H	2.09216	-1.156	1.04803
N	-0.827204	1.6382	1.74793
C	-1.45345	2.931	1.89846
H	-0.704422	1.08032	2.56214
H	-1.7177	3.11845	2.96254
H	-2.38519	2.98939	1.29043
H	-0.768449	3.74147	1.5592
C	2808.66	2.45931	-2.3194
C	2808.4	1.18003	-1.62484
O	2807.34	0.581429	-1.7873
H	2807.79	2.72802	-2.94679
H	2809.56	2.35973	-2.97299
H	2808.84	3.2681	-1.57862
N	2809.36	0.729905	-0.817373
C	2809.24	-0.499324	-0.0738995
C	2810.22	-0.437069	1.08262
O	2811.11	0.418026	1.11353
H	2810.2	1.24144	-0.670911
H	2808.25	-0.567378	0.34228
C	2809.55	-1.72514	-0.963263
H	2810.57	-1.65173	-1.3891
H	2809.46	-2.67333	-0.393974
H	2808.83	-1.75872	-1.80728
N	2810.07	-1.33444	2.07683
C	2810.95	-1.34398	3.22417
H	2809.35	-2.01397	2.03688
H	2810.67	-2.15652	3.92902
H	2810.9	-0.373292	3.76829
H	2812.01	-1.50495	2.90972
