44
  This energy is 9.00435e-320 and Call times are: 58113
C	3.3786	0.19166	-0.821271
C	2.22967	0.527646	0.0495302
O	2.3902	1.11843	1.10864
H	4.31717	0.55056	-0.345742
H	3.26586	0.683732	-1.8102
H	3.44426	-0.907908	-0.961209
N	1.02583	0.146123	-0.383563
C	-0.186641	0.40136	0.352367
C	-1.23845	-0.579553	-0.12798
O	-1.06962	-1.22719	-1.15943
H	0.911229	-0.360229	-1.2341
H	-0.00895626	0.205242	1.40215
C	-0.67724	1.85135	0.142693
H	-0.857893	2.04931	-0.935403
H	-1.61058	2.05133	0.708076
H	0.102552	2.56007	0.497355
N	-2.3456	-0.727807	0.625839
C	-3.39543	-1.64742	0.253895
H	-2.46042	-0.199872	1.4609
H	-4.2209	-1.62411	0.999091
H	-3.00366	-2.68884	0.197319
H	-3.81551	-1.38194	-0.743216
C	2753.57	2.32996	1.72657
C	2754.33	1.0616	1.66213
O	2754.55	0.399987	2.66879
H	2753.28	2.52817	2.7799
H	2752.66	2.25853	1.10399
H	2754.2	3.17147	1.36473
N	2754.77	0.693166	0.455831
C	2755.52	-0.514998	0.233041
C	2756.28	-0.359608	-1.07323
O	2756	0.54399	-1.85807
H	2754.62	1.25553	-0.352039
H	2756.25	-0.624653	1.02393
C	2754.6	-1.75086	0.168698
H	2753.85	-1.63472	-0.643279
H	2755.18	-2.6829	-0.00260003
H	2754.05	-1.85292	1.13094
N	2757.27	-1.23019	-1.32688
C	2758.06	-1.15241	-2.53947
H	2757.49	-1.95009	-0.675942
H	2758.82	-1.95548	-2.56402
H	2758.57	-0.168619	-2.61076
H	2757.4	-1.26457	-3.43525
