44
  This energy is 1.19653e-319 and Call times are: 122793
C	-2.27195	-2.60104	-0.446048
C	-0.904712	-2.09755	-0.184584
O	0.0032146	-2.85995	0.11694
H	-2.28835	-3.70477	-0.314246
H	-2.5765	-2.35877	-1.48594
H	-2.99108	-2.14338	0.265536
N	-0.728112	-0.778506	-0.290834
C	0.544141	-0.139692	-0.066964
C	0.28362	1.32155	0.243104
O	-0.817737	1.82345	0.0264513
H	-1.48231	-0.164761	-0.508636
H	1.01181	-0.582324	0.803343
C	1.46181	-0.264968	-1.30362
H	0.978662	0.189531	-2.19475
H	2.44234	0.225714	-1.1346
H	1.64403	-1.34	-1.52099
N	1.29174	2.03575	0.781253
C	1.13251	3.43065	1.1205
H	2.17337	1.60966	0.95566
H	2.07348	3.84111	1.5487
H	0.319435	3.56218	1.87073
H	0.868726	4.0272	0.217325
C	5814.52	-3.3611	0.61039
C	5814.37	-1.92348	0.925667
O	5813.57	-1.54548	1.76976
H	5813.82	-3.95407	1.23828
H	5815.56	-3.68752	0.824663
H	5814.29	-3.54624	-0.459559
N	5815.14	-1.07717	0.237404
C	5815.1	0.3502	0.43199
C	5815.66	1.0059	-0.811234
O	5816.29	0.345433	-1.64236
H	5815.76	-1.39524	-0.468268
H	5814.06	0.663879	0.526409
C	5815.91	0.771317	1.6751
H	5816.97	0.447364	1.57518
H	5815.88	1.86977	1.82796
H	5815.49	0.283471	2.5788
N	5815.45	2.32515	-0.977903
C	5815.94	3.03239	-2.1366
H	5814.94	2.84068	-0.297557
H	5815.66	4.10777	-2.08978
H	5815.51	2.59981	-3.07127
H	5817.05	2.96171	-2.197
