44
  This energy is 1.53956e-319 and Call times are: 60549
C	0.623536	-2.69079	2.12061
C	0.113058	-2.12464	0.851716
O	-0.256165	-2.85019	-0.0613783
H	0.605011	-3.80074	2.0613
H	-0.0148646	-2.36556	2.96884
H	1.66819	-2.35761	2.29564
N	0.0867299	-0.792682	0.764811
C	-0.383239	-0.0948654	-0.405236
C	0.195686	1.30629	-0.375969
O	0.712766	1.75154	0.646875
H	0.417519	-0.212709	1.5045
H	-0.000205855	-0.59066	-1.28816
C	-1.92657	-0.0314033	-0.440297
H	-2.31615	0.477229	0.467244
H	-2.29183	0.505122	-1.34002
H	-2.33836	-1.06396	-0.460318
N	0.140971	2.0291	-1.51199
C	0.677376	3.36833	-1.58208
H	-0.275122	1.64844	-2.33126
H	0.535007	3.79625	-2.59887
H	1.7674	3.36752	-1.35164
H	0.169622	4.03408	-0.847138
C	2871.86	-0.616117	-3.40877
C	2871.35	-0.982907	-2.0652
O	2870.6	-1.93407	-1.90913
H	2871.44	-1.31714	-4.16192
H	2872.96	-0.683349	-3.43506
H	2871.54	0.417732	-3.66536
N	2871.76	-0.218728	-1.05019
C	2871.36	-0.449985	0.314326
C	2871.56	0.841998	1.08329
O	2872.22	1.76302	0.606379
H	2872.36	0.570964	-1.1941
H	2870.31	-0.687356	0.334739
C	2872.19	-1.58378	0.95992
H	2873.27	-1.33728	0.936681
H	2871.88	-1.76457	2.01059
H	2872.04	-2.52431	0.386767
N	2870.97	0.947561	2.28977
C	2871.09	2.14459	3.08879
H	2870.43	0.19386	2.65528
H	2870.54	2.0361	4.04684
H	2870.68	3.02464	2.54336
H	2872.16	2.35296	3.32398
