44
  This energy is 7.01277e-320 and Call times are: 57357
C	3.06298	-1.621	-0.341506
C	2.2432	-0.391189	-0.259473
O	2.76466	0.713825	-0.200203
H	4.14003	-1.34583	-0.330899
H	2.8408	-2.16681	-1.28254
H	2.85194	-2.28042	0.526578
N	0.919022	-0.560858	-0.248274
C	-0.00928885	0.538819	-0.172264
C	-1.33165	-0.00201944	0.335769
O	-1.5468	-1.2123	0.363484
H	0.506814	-1.46786	-0.267654
H	0.353344	1.2559	0.553244
C	-0.203443	1.20741	-1.55154
H	-0.574883	0.468778	-2.29355
H	-0.917526	2.05466	-1.4966
H	0.772528	1.59835	-1.91319
N	-2.24468	0.887836	0.772278
C	-3.52719	0.464921	1.28461
H	-2.04894	1.86269	0.748379
H	-4.13712	1.34309	1.59131
H	-3.39714	-0.198061	2.17049
H	-4.09271	-0.101408	0.509601
C	2718.01	-2.45272	-1.96932
C	2718.42	-1.05162	-1.72341
O	2718.3	-0.197683	-2.59195
H	2717.62	-2.54602	-3.00816
H	2717.2	-2.74653	-1.26106
H	2718.87	-3.1329	-1.84534
N	2718.91	-0.783173	-0.514684
C	2719.36	0.532464	-0.12583
C	2720.31	0.377768	1.04496
O	2720.39	-0.686907	1.65506
H	2719.03	-1.49368	0.174507
H	2719.91	0.973697	-0.944165
C	2718.16	1.43053	0.273237
H	2717.6	0.974556	1.11254
H	2718.5	2.44436	0.573069
H	2717.47	1.53499	-0.592458
N	2721.07	1.43741	1.3729
C	2722.02	1.37927	2.46544
H	2721	2.28796	0.862489
H	2722.55	2.34974	2.57802
H	2722.77	0.582641	2.28791
H	2721.49	1.15204	3.42324
