44
  This energy is 6.84281e-320 and Call times are: 9477
C	-0.178179	0.312858	-3.4636
C	0.540081	0.46479	-2.17821
O	1.71605	0.800328	-2.14654
H	0.516298	0.539894	-4.30146
H	-1.03643	1.01591	-3.50769
H	-0.547561	-0.728336	-3.57503
N	-0.163266	0.210749	-1.07226
C	0.396766	0.315318	0.251473
C	-0.460548	-0.514793	1.18698
O	-1.56738	-0.917584	0.834109
H	-1.11239	-0.0900545	-1.11247
H	1.39057	-0.114109	0.248007
C	0.437551	1.78361	0.730609
H	-0.583527	2.22123	0.732298
H	0.868359	1.86777	1.74948
H	1.0676	2.38133	0.0364109
N	0.0440545	-0.809206	2.40135
C	-0.695135	-1.60392	3.35435
H	0.944628	-0.479968	2.66555
H	-0.113112	-1.73405	4.29327
H	-0.916705	-2.61273	2.93668
H	-1.66356	-1.11454	3.60702
C	452.501	1.02456	-0.436363
C	453.719	0.326219	-0.903626
O	453.71	-0.3473	-1.92479
H	451.665	0.816538	-1.14005
H	452.677	2.12024	-0.401902
H	452.217	0.664176	0.574826
N	454.811	0.470118	-0.149183
C	456.072	-0.147527	-0.473459
C	456.897	-0.21894	0.797275
O	456.573	0.424598	1.79364
H	454.798	0.997666	0.696075
H	455.892	-1.1619	-0.806055
C	456.831	0.655321	-1.55407
H	457.013	1.69564	-1.20983
H	457.802	0.18243	-1.80624
H	456.216	0.70133	-2.47934
N	457.976	-1.02575	0.797715
C	458.814	-1.16661	1.96593
H	458.217	-1.54382	-0.0162209
H	459.65	-1.87222	1.76721
H	458.224	-1.55575	2.82747
H	459.247	-0.183155	2.26
