44
  This energy is 1.36402e-319 and Call times are: 59877
C	2.8607	0.201802	1.9753
C	2.19117	-0.0062302	0.671593
O	2.83728	-0.108089	-0.362169
H	3.96059	0.247066	1.82025
H	2.62901	-0.63874	2.66279
H	2.52247	1.15599	2.43145
N	0.857759	-0.0688084	0.69305
C	0.0653919	-0.267622	-0.494155
C	-1.33933	0.22445	-0.20457
O	-1.69949	0.454878	0.948262
H	0.341421	0.0447326	1.5377
H	0.469223	0.341588	-1.29282
C	0.0324918	-1.75648	-0.905668
H	-0.381707	-2.37864	-0.0837957
H	-0.576655	-1.91311	-1.81955
H	1.0675	-2.10511	-1.1139
N	-2.16246	0.418359	-1.25379
C	-3.51377	0.89633	-1.07584
H	-1.85003	0.23298	-2.17967
H	-4.03045	0.989035	-2.0565
H	-3.51538	1.89551	-0.58301
H	-4.09774	0.195169	-0.436666
C	2839.52	-2.35185	2.568
C	2838.9	-1.72912	1.37764
O	2837.9	-2.21436	0.85674
H	2838.95	-3.26297	2.8471
H	2839.5	-1.64269	3.42223
H	2840.57	-2.64062	2.34532
N	2839.48	-0.624728	0.911181
C	2839	0.0940417	-0.238655
C	2840.14	0.930481	-0.783972
O	2841.16	1.11337	-0.119911
H	2840.31	-0.255696	1.32684
H	2838.71	-0.617208	-1.00467
C	2837.8	1.00154	0.130592
H	2838.09	1.72952	0.91714
H	2837.42	1.55635	-0.752513
H	2836.97	0.377047	0.529831
N	2840	1.44226	-2.02309
C	2841.04	2.24124	-2.62948
H	2839.17	1.27703	-2.54735
H	2840.74	2.57063	-3.64832
H	2841.98	1.65738	-2.71497
H	2841.25	3.14711	-2.01529
