44
  This energy is 7.96977e-320 and Call times are: 102045
C	-2.37519	-1.63269	-1.9542
C	-1.33221	-0.599285	-1.7659
O	-0.930342	0.0724875	-2.70596
H	-2.67313	-1.66301	-3.0248
H	-3.26787	-1.39175	-1.33947
H	-1.98352	-2.6297	-1.66177
N	-0.860079	-0.452343	-0.525788
C	0.155937	0.511303	-0.18531
C	0.804361	0.0663332	1.11114
O	0.284818	-0.80364	1.8076
H	-1.17471	-1.0257	0.226009
H	0.918591	0.504884	-0.95368
C	-0.442956	1.92609	-0.0215567
H	-1.22545	1.92889	0.766997
H	0.336673	2.6706	0.240478
H	-0.915889	2.23994	-0.977581
N	1.97344	0.641677	1.455
C	2.66983	0.273026	2.6655
H	2.38139	1.33868	0.874495
H	3.60972	0.858235	2.77223
H	2.93069	-0.810057	2.65436
H	2.03334	0.465673	3.55934
C	4832.41	0.394574	-3.40872
C	4832.75	0.939183	-2.07546
O	4833.1	2.10416	-1.93809
H	4832.53	1.19183	-4.17368
H	4831.35	0.0448035	-3.42024
H	4833.08	-0.451976	-3.66066
N	4832.66	0.0907995	-1.04828
C	4832.96	0.472815	0.308485
C	4833.27	-0.78947	1.09127
O	4832.99	-1.89617	0.631549
H	4832.41	-0.863602	-1.17715
H	4833.86	1.08597	0.312211
C	4831.78	1.22619	0.95563
H	4830.87	0.59453	0.949531
H	4832.01	1.52195	2.00034
H	4831.57	2.14811	0.372299
N	4833.87	-0.651874	2.29032
C	4834.21	-1.79782	3.10129
H	4834.09	0.251904	2.64182
H	4834.69	-1.47832	4.05059
H	4834.91	-2.46901	2.55786
H	4833.29	-2.38543	3.35306
