44
  This energy is 1.55828e-319 and Call times are: 48411
C	-2.88019	-1.93207	0.312675
C	-2.18787	-0.6242	0.275525
O	-2.81715	0.424846	0.275991
H	-3.97917	-1.76548	0.331564
H	-2.58633	-2.49474	1.22364
H	-2.62237	-2.52747	-0.588416
N	-0.85389	-0.660298	0.235968
C	-0.0406055	0.528771	0.197079
C	1.31833	0.145878	-0.356019
O	1.65154	-1.03444	-0.443552
H	-0.35369	-1.52162	0.206596
H	-0.486827	1.23799	-0.488458
C	0.114023	1.15072	1.60292
H	0.571468	0.420218	2.3038
H	0.739562	2.06657	1.57659
H	-0.888398	1.42574	1.99746
N	2.12995	1.14106	-0.764534
C	3.4375	0.871604	-1.3158
H	1.83927	2.08948	-0.692109
H	3.95132	1.81911	-1.59053
H	3.35596	0.239444	-2.22957
H	4.07165	0.330237	-0.576916
C	2298.56	-2.97706	1.78741
C	2298.7	-2.19112	0.540566
O	2299.22	-2.67065	-0.454807
H	2299	-3.98689	1.63531
H	2297.49	-3.08801	2.05353
H	2299.1	-2.47316	2.61871
N	2298.23	-0.94284	0.571348
C	2298.29	-0.0558719	-0.562853
C	2298.16	1.36568	-0.0497665
O	2297.79	1.58874	1.10009
H	2297.83	-0.553981	1.39732
H	2299.26	-0.152745	-1.03363
C	2297.16	-0.35595	-1.57286
H	2296.16	-0.256299	-1.0864
H	2297.2	0.325103	-2.44751
H	2297.26	-1.40046	-1.94029
N	2298.5	2.36469	-0.889849
C	2298.42	3.7492	-0.48511
H	2298.81	2.16342	-1.81414
H	2298.74	4.41907	-1.31559
H	2299.09	3.93914	0.388946
H	2297.38	4.01797	-0.192609
