44
  This energy is 6.5607e-320 and Call times are: 76005
C	-1.78976	2.98432	0.129319
C	-0.528255	2.22963	-0.0446154
O	0.501336	2.79045	-0.393793
H	-1.61278	4.05556	-0.109367
H	-2.14225	2.90355	1.17911
H	-2.57027	2.58807	-0.553866
N	-0.584642	0.917274	0.19392
C	0.559434	0.050069	0.0679269
C	0.0520865	-1.36825	-0.105873
O	-1.12186	-1.64904	0.128304
H	-1.43618	0.467312	0.449575
H	1.10566	0.316149	-0.828129
C	1.47239	0.139125	1.31118
H	0.908662	-0.133835	2.22869
H	2.35439	-0.527259	1.21743
H	1.83646	1.18312	1.4281
N	0.926134	-2.29545	-0.544442
C	0.530352	-3.66909	-0.750946
H	1.8701	-2.04695	-0.735232
H	1.38994	-4.27606	-1.11144
H	-0.285607	-3.73347	-1.5068
H	0.157823	-4.11776	0.198315
C	3603.66	-3.39726	0.0726142
C	3602.72	-2.27005	0.258312
O	3601.54	-2.46708	0.497176
H	3603.11	-4.35705	0.179808
H	3604.46	-3.35578	0.838923
H	3604.11	-3.35433	-0.939933
N	3603.23	-1.04323	0.144594
C	3602.44	0.152502	0.299061
C	3603.18	1.28773	-0.38698
O	3604.36	1.16349	-0.721853
H	3604.19	-0.896008	-0.079072
H	3601.5	0.017788	-0.209935
C	3602.22	0.489414	1.79006
H	3603.19	0.626296	2.30932
H	3601.61	1.40949	1.91262
H	3601.68	-0.350379	2.28149
N	3602.49	2.41988	-0.632486
C	3603.1	3.54923	-1.29181
H	3601.54	2.49834	-0.360193
H	3602.38	4.38367	-1.40054
H	3603.46	3.26367	-2.30672
H	3603.98	3.91913	-0.707111
