44
  This energy is 4.97425e-320 and Call times are: 113889
C	1.89388	2.82083	-0.763081
C	0.766767	1.89882	-1.02902
O	-0.0674854	2.15073	-1.88754
H	1.81647	3.70006	-1.43896
H	2.86043	2.30752	-0.950483
H	1.86054	3.17265	0.28956
N	0.714724	0.794515	-0.280567
C	-0.321077	-0.197434	-0.42192
C	-0.380561	-0.995711	0.865889
O	0.525356	-0.921425	1.69392
H	1.38397	0.614867	0.435518
H	-1.27341	0.303058	-0.542972
C	-0.0414262	-1.13641	-1.61659
H	0.936602	-1.6477	-1.48946
H	-0.837135	-1.90134	-1.72841
H	0.000917666	-0.539437	-2.55359
N	-1.46666	-1.76571	1.07443
C	-1.61608	-2.55169	2.27697
H	-2.19238	-1.80689	0.395563
H	-2.57382	-3.11714	2.26071
H	-1.61132	-1.89623	3.17785
H	-0.779832	-3.28108	2.37626
C	5395.76	0.438858	-2.52297
C	5394.49	-0.127399	-2.01122
O	5393.72	-0.720338	-2.75179
H	5395.84	0.233434	-3.61253
H	5396.62	-0.0274985	-2.00438
H	5395.78	1.53726	-2.36177
N	5394.24	0.0518561	-0.711667
C	5393.05	-0.441075	-0.067831
C	5392.85	0.356347	1.20542
O	5393.75	1.06228	1.65706
H	5394.87	0.561943	-0.124925
H	5392.2	-0.256659	-0.712235
C	5393.17	-1.94586	0.261278
H	5394.05	-2.13154	0.921963
H	5392.26	-2.32872	0.756976
H	5393.32	-2.5188	-0.679459
N	5391.64	0.278186	1.80444
C	5391.35	1.01156	3.01419
H	5390.92	-0.293027	1.41951
H	5390.31	0.81468	3.3523
H	5391.46	2.10715	2.84623
H	5392.05	0.714136	3.83146
