44
  This energy is 6.59578e-320 and Call times are: 15441
C	3.16869	-0.622096	1.30327
C	1.89277	-1.08034	0.708937
O	1.73139	-2.24745	0.379818
H	3.87226	-1.48029	1.3693
H	2.99333	-0.221847	2.32399
H	3.6241	0.16809	0.669903
N	0.945264	-0.153133	0.551207
C	-0.348421	-0.445574	-0.0124298
C	-0.942169	0.855626	-0.515996
O	-0.456665	1.93662	-0.188005
H	1.09924	0.800344	0.796378
H	-0.220892	-1.10061	-0.864915
C	-1.28606	-1.08737	1.03449
H	-1.41414	-0.413002	1.90795
H	-2.28302	-1.31399	0.603782
H	-0.839329	-2.03903	1.39633
N	-1.99995	0.779614	-1.34745
C	-2.62398	1.96538	-1.88665
H	-2.37386	-0.1048	-1.60676
H	-3.4774	1.69505	-2.54684
H	-1.89285	2.55724	-2.48363
H	-3.00694	2.61539	-1.06689
C	734.442	-2.55941	-0.12174
C	734.816	-1.14393	0.0957874
O	733.964	-0.283008	0.265642
H	733.334	-2.65295	-0.105265
H	734.868	-3.19582	0.682016
H	734.817	-2.90775	-1.10694
N	736.123	-0.86842	0.0891522
C	736.642	0.461163	0.287229
C	738.045	0.503304	-0.285757
O	738.638	-0.534722	-0.573315
H	736.806	-1.57378	-0.0792951
H	736.037	1.16246	-0.273036
C	736.669	0.837309	1.78554
H	737.29	0.115421	2.35741
H	737.068	1.86054	1.94164
H	735.635	0.801555	2.19364
N	738.603	1.71379	-0.485919
C	739.93	1.85248	-1.03831
H	738.104	2.54228	-0.253469
H	740.21	2.92553	-1.12407
H	739.983	1.39421	-2.05239
H	740.681	1.34484	-0.390091
