44
  This energy is 1.02667e-319 and Call times are: 4731
C	1.56301	-0.915139	-2.97416
C	0.459371	-0.268478	-2.22917
O	-0.395925	0.386945	-2.80829
H	1.45609	-0.690186	-4.0576
H	1.52831	-2.01559	-2.83052
H	2.54186	-0.527314	-2.62146
N	0.458904	-0.437527	-0.904865
C	-0.548908	0.129519	-0.0448625
C	0.019517	0.1941	1.3594
O	1.0438	-0.420061	1.65179
H	1.17754	-0.949397	-0.441744
H	-0.753633	1.14363	-0.363818
C	-1.84044	-0.718364	-0.0567385
H	-1.62665	-1.75828	0.270354
H	-2.61862	-0.284491	0.604301
H	-2.24621	-0.75889	-1.09108
N	-0.624787	0.962254	2.25985
C	-0.150467	1.09396	3.61774
H	-1.44806	1.45715	2.00192
H	-0.815831	1.76606	4.20325
H	0.879375	1.51867	3.63471
H	-0.122849	0.101163	4.12249
C	230.83	-0.695103	2.4546
C	231.587	0.254244	1.60826
O	231.313	1.44645	1.59425
H	230.039	-0.143538	3.00792
H	231.509	-1.18046	3.1869
H	230.351	-1.47285	1.8232
N	232.569	-0.264868	0.867577
C	233.394	0.531332	-0.00539173
C	234.009	-0.394021	-1.03732
O	233.978	-1.61379	-0.88551
H	232.763	-1.24221	0.865693
H	232.768	1.24065	-0.531334
C	234.505	1.2618	0.782017
H	235.145	0.531189	1.32089
H	235.142	1.87592	0.112892
H	234.042	1.93552	1.53538
N	234.566	0.168144	-2.12815
C	235.165	-0.634013	-3.16925
H	234.575	1.15683	-2.2361
H	235.569	0.0117053	-3.97971
H	234.413	-1.32544	-3.61415
H	236	-1.2483	-2.76086
