44
  This energy is 6.40309e-320 and Call times are: 21405
C	3.2783	-1.1448	-0.261333
C	1.84415	-1.21012	-0.622104
O	1.44797	-1.95537	-1.50762
H	3.85215	-1.84254	-0.909196
H	3.41982	-1.44081	0.799409
H	3.66446	-0.11469	-0.411988
N	1.02297	-0.412484	0.0647702
C	-0.397911	-0.36403	-0.170986
C	-0.915345	0.954398	0.370539
O	-0.220478	1.6448	1.11374
H	1.36193	0.211425	0.763894
H	-0.578023	-0.374574	-1.23847
C	-1.12278	-1.54219	0.517205
H	-0.935319	-1.52871	1.6121
H	-2.21702	-1.50803	0.337582
H	-0.733991	-2.50208	0.112716
N	-2.14746	1.34594	-0.00970774
C	-2.71858	2.5919	0.445916
H	-2.69136	0.776659	-0.617428
H	-3.73851	2.73401	0.025446
H	-2.08608	3.45286	0.129791
H	-2.79219	2.60734	1.55746
C	1023.03	1.42054	0.569487
C	1021.6	1.52589	0.20112
O	1021.06	2.61527	0.0508073
H	1023.46	2.441	0.67449
H	1023.59	0.875527	-0.219824
H	1023.14	0.884274	1.53578
N	1020.94	0.375162	0.0512684
C	1019.54	0.314983	-0.305766
C	1019.01	-1.04186	0.11475
O	1019.78	-1.94984	0.422691
H	1021.38	-0.505374	0.204987
H	1019	1.06741	0.255284
C	1019.34	0.516707	-1.8243
H	1019.9	-0.256469	-2.39684
H	1018.27	0.471106	-2.10265
H	1019.74	1.51362	-2.11985
N	1017.68	-1.20423	0.158254
C	1017.08	-2.4574	0.558357
H	1017.07	-0.455183	-0.0878203
H	1015.97	-2.3921	0.528015
H	1017.39	-2.72532	1.59525
H	1017.4	-3.2802	-0.120441
