44
  This energy is 7.65999e-320 and Call times are: 45387
C	-0.93456	2.89878	1.68814
C	-1.12894	1.89698	0.615838
O	-2.12569	1.91462	-0.0931501
H	-1.80507	3.58994	1.70724
H	-0.0123608	3.48752	1.49906
H	-0.854813	2.39391	2.67389
N	-0.165897	0.982907	0.476629
C	-0.212309	-0.0555974	-0.52146
C	0.712032	-1.17189	-0.075667
O	1.52304	-0.992165	0.830866
H	0.62727	0.961495	1.07943
H	-1.21661	-0.457591	-0.564531
C	0.223958	0.474566	-1.90555
H	1.25442	0.886823	-1.85758
H	0.189244	-0.322466	-2.67647
H	-0.460228	1.29249	-2.22024
N	0.594764	-2.36436	-0.692323
C	1.42416	-3.48891	-0.326711
H	-0.0724946	-2.49192	-1.41877
H	1.17821	-4.37762	-0.94877
H	1.27222	-3.75752	0.743805
H	2.50173	-3.24632	-0.472217
C	2157.57	-0.0417558	-1.20421
C	2156.3	-0.72014	-0.867455
O	2156.11	-1.89163	-1.16416
H	2158.23	-0.75496	-1.73518
H	2158.07	0.302961	-0.278266
H	2157.37	0.829117	-1.86521
N	2155.38	0.0168966	-0.234508
C	2154.09	-0.502379	0.159274
C	2153.16	0.67327	0.354323
O	2153.59	1.8205	0.425213
H	2155.53	0.978446	-0.024233
H	2153.7	-1.10892	-0.645333
C	2154.2	-1.32364	1.46407
H	2154.6	-0.698531	2.2872
H	2153.21	-1.72509	1.77006
H	2154.89	-2.18104	1.30842
N	2151.84	0.414675	0.424048
C	2150.87	1.47184	0.596888
H	2151.5	-0.519733	0.357411
H	2149.84	1.05771	0.632516
H	2150.92	2.19862	-0.245594
H	2151.06	2.02642	1.54462
