44
  This energy is 1.19406e-319 and Call times are: 110277
C	2.761	-2.11403	-0.184153
C	1.50811	-1.66262	0.462162
O	1.00945	-2.29289	1.38443
H	3.10508	-3.0545	0.298525
H	3.55039	-1.34166	-0.0695729
H	2.58694	-2.30693	-1.26371
N	0.96108	-0.544692	-0.0209087
C	-0.256802	0.0195139	0.503745
C	-0.847221	0.924389	-0.560136
O	-0.179374	1.26956	-1.5331
H	1.36129	-0.0562235	-0.791733
H	-0.964598	-0.779142	0.686085
C	0.00671104	0.822137	1.79737
H	0.733745	1.64021	1.60685
H	-0.928971	1.25783	2.20412
H	0.440163	0.148368	2.56828
N	-2.12853	1.3135	-0.409027
C	-2.77877	2.16531	-1.37742
H	-2.65453	1.0177	0.381584
H	-3.82854	2.37456	-1.075
H	-2.793	1.68041	-2.38037
H	-2.24058	3.13628	-1.47098
C	5222.96	3.05712	1.37468
C	5222.72	1.90701	0.473165
O	5221.66	1.77669	-0.121292
H	5222.05	3.70082	1.39385
H	5223.82	3.65799	1.01108
H	5223.17	2.69946	2.40497
N	5223.72	1.03058	0.355637
C	5223.64	-0.138229	-0.48364
C	5224.67	-1.13477	0.0064065
O	5225.56	-0.790735	0.788884
H	5224.57	1.13239	0.867713
H	5222.66	-0.59086	-0.365006
C	5223.9	0.213969	-1.96487
H	5224.91	0.678715	-2.08284
H	5223.84	-0.683713	-2.61392
H	5223.14	0.945492	-2.31142
N	5224.57	-2.40601	-0.428886
C	5225.5	-3.42657	-0.00659228
H	5223.84	-2.66628	-1.05627
H	5225.25	-4.40443	-0.474159
H	5225.47	-3.55004	1.1003
H	5226.54	-3.15436	-0.297485
