44
  This energy is 2.00591e-320 and Call times are: 118845
C	-0.864577	1.05172	3.20508
C	-0.529543	-0.0102066	2.22975
O	-0.365253	-1.1685	2.58731
H	-0.920006	0.610442	4.22393
H	-1.84734	1.50417	2.95549
H	-0.0823854	1.83979	3.1968
N	-0.413607	0.37026	0.955322
C	-0.0923878	-0.547565	-0.108277
C	0.460168	0.258113	-1.26793
O	0.336809	1.48108	-1.29897
H	-0.521163	1.32211	0.680821
H	0.688669	-1.21723	0.228739
C	-1.33739	-1.34336	-0.559713
H	-2.1369	-0.653251	-0.904179
H	-1.09358	-2.05114	-1.37848
H	-1.73327	-1.92828	0.298948
N	1.10527	-0.411675	-2.24324
C	1.6749	0.272681	-3.3805
H	1.2009	-1.40056	-2.19639
H	2.16095	-0.450637	-4.07174
H	2.4409	1.01161	-3.05114
H	0.886219	0.821186	-3.94468
C	5626.67	-0.745447	-3.36031
C	5627.12	0.166939	-2.28432
O	5627.68	1.22115	-2.54305
H	5626.94	-0.309245	-4.34711
H	5625.57	-0.879764	-3.31391
H	5627.17	-1.73289	-3.25689
N	5626.88	-0.229248	-1.03232
C	5627.26	0.550035	0.120073
C	5627.32	-0.383483	1.31329
O	5626.83	-1.5121	1.25486
H	5626.45	-1.10387	-0.83383
H	5628.25	0.95222	-0.0360507
C	5626.24	1.68512	0.386852
H	5625.22	1.26903	0.545908
H	5626.53	2.28724	1.27342
H	5626.2	2.36124	-0.494946
N	5627.94	0.0614449	2.42267
C	5628.06	-0.761596	3.60355
H	5628.33	0.975252	2.4478
H	5628.6	-0.217954	4.40856
H	5628.62	-1.6977	3.37502
H	5627.06	-1.04571	3.9882
