44
  This energy is 1.50937e-320 and Call times are: 55257
C	-0.0168966	-3.32298	-1.041
C	-0.713969	-2.0919	-0.605391
O	-1.93438	-2.0125	-0.633255
H	-0.768096	-4.07361	-1.36979
H	0.571127	-3.74751	-0.200273
H	0.662197	-3.0983	-1.89029
N	0.0608989	-1.08638	-0.192034
C	-0.470201	0.173962	0.262174
C	0.629934	1.21127	0.148459
O	1.7983	0.871592	-0.0286741
H	1.05509	-1.15294	-0.201536
H	-1.27506	0.474523	-0.39656
C	-0.964946	0.082209	1.72297
H	-0.136898	-0.227006	2.3959
H	-1.37467	1.05091	2.07585
H	-1.76968	-0.681742	1.79312
N	0.275809	2.50915	0.226517
C	1.25317	3.56697	0.117125
H	-0.675881	2.76393	0.362929
H	0.766488	4.563	0.208264
H	1.77429	3.52021	-0.866488
H	2.02107	3.47713	0.919278
C	2616.69	-1.76726	-1.05466
C	2618.15	-1.54183	-1.03092
O	2618.93	-2.34003	-1.54496
H	2616.48	-2.7229	-1.58002
H	2616.18	-0.938744	-1.59344
H	2616.3	-1.82956	-0.0186463
N	2618.57	-0.432657	-0.417408
C	2619.97	-0.075956	-0.312722
C	2620.11	0.897331	0.840789
O	2619.12	1.43932	1.33483
H	2617.94	0.194991	0.0229207
H	2620.54	-0.961951	-0.0701458
C	2620.48	0.567497	-1.61934
H	2619.89	1.47575	-1.86555
H	2621.55	0.84324	-1.54224
H	2620.37	-0.154985	-2.45675
N	2621.35	1.12539	1.31277
C	2621.59	2.02718	2.41626
H	2622.14	0.671647	0.90415
H	2622.67	2.08194	2.65514
H	2621.05	1.68366	3.32676
H	2621.23	3.05308	2.16835
