44
  This energy is 1.41303e-319 and Call times are: 6201
C	-2.62083	1.13262	1.99363
C	-2.10541	0.442341	0.789861
O	-2.85811	-0.152531	0.0308671
H	-3.72283	0.997749	2.05077
H	-2.39403	2.21814	1.93871
H	-2.15846	0.704505	2.9079
N	-0.786779	0.503375	0.590251
C	-0.137137	-0.118159	-0.536021
C	1.32636	-0.303998	-0.185464
O	1.81848	0.270775	0.783702
H	-0.180664	0.966404	1.23147
H	-0.565454	-1.10025	-0.691333
C	-0.272752	0.744949	-1.81029
H	0.167062	1.75197	-1.64722
H	0.226228	0.269232	-2.67948
H	-1.34936	0.874641	-2.05574
N	2.05381	-1.13406	-0.958639
C	3.45198	-1.38179	-0.694195
H	1.63557	-1.59544	-1.73417
H	3.87388	-2.09029	-1.44071
H	3.58817	-1.8201	0.320978
H	4.03505	-0.43367	-0.741954
C	299.843	0.585387	0.715179
C	301.258	1.01581	0.670835
O	301.576	2.17059	0.919385
H	299.203	1.45304	0.987753
H	299.709	-0.212422	1.47575
H	299.527	0.204573	-0.278933
N	302.152	0.0806161	0.34169
C	303.566	0.346392	0.256874
C	304.191	-0.726894	-0.613397
O	303.567	-1.74793	-0.896902
H	301.878	-0.849534	0.113021
H	303.716	1.29837	-0.236355
C	304.224	0.345674	1.65509
H	304.067	-0.63218	2.1585
H	305.312	0.550156	1.59346
H	303.757	1.13536	2.28319
N	305.437	-0.508676	-1.07748
C	306.107	-1.46898	-1.92273
H	305.922	0.327087	-0.842717
H	307.123	-1.1089	-2.19804
H	305.53	-1.63826	-2.86012
H	306.212	-2.4473	-1.40009
