44
  This energy is 8.50682e-320 and Call times are: 89403
C	2.07172	1.8251	2.12205
C	1.68024	0.564071	1.45291
O	2.38189	-0.435314	1.52647
H	3.04289	1.6784	2.64281
H	1.30371	2.11613	2.86923
H	2.1846	2.63696	1.373
N	0.533747	0.586689	0.769229
C	0.0203811	-0.561554	0.0657938
C	-0.956831	-0.0669712	-0.982863
O	-1.37937	1.08734	-0.953624
H	-0.0143532	1.41533	0.69262
H	0.836194	-1.05188	-0.450059
C	-0.685169	-1.54215	1.02899
H	-1.52111	-1.03567	1.557
H	-1.08152	-2.42752	0.490656
H	0.0409198	-1.89621	1.79292
N	-1.32307	-0.928828	-1.95192
C	-2.23973	-0.543076	-2.99935
H	-0.964589	-1.85652	-1.96233
H	-2.41717	-1.39002	-3.69825
H	-1.83125	0.313394	-3.58317
H	-3.21933	-0.231965	-2.5695
C	4236.2	-2.89676	-0.710246
C	4235.31	-1.78241	-1.11571
O	4235.02	-1.60338	-2.28947
H	4236.51	-3.46702	-1.61295
H	4235.66	-3.58067	-0.019772
H	4237.1	-2.50094	-0.206712
N	4234.87	-0.993	-0.135885
C	4234	0.13132	-0.37286
C	4234.11	1.07073	0.811376
O	4234.65	0.702718	1.85374
H	4235.14	-1.13179	0.813057
H	4234.34	0.663313	-1.25081
C	4232.53	-0.319663	-0.547009
H	4232.18	-0.865662	0.355199
H	4231.86	0.543572	-0.729795
H	4232.45	-1.0082	-1.41682
N	4233.63	2.32064	0.6691
C	4233.71	3.2881	1.73857
H	4233.21	2.60158	-0.184751
H	4233.26	4.25551	1.42854
H	4234.77	3.47308	2.02212
H	4233.17	2.92149	2.64159
