44
  This energy is 2.60373e-320 and Call times are: 7881
C	1.80236	-2.07951	2.13385
C	1.67336	-1.28924	0.888836
O	2.62867	-1.12369	0.142869
H	2.84854	-2.44252	2.23171
H	1.11966	-2.95464	2.10395
H	1.55672	-1.44937	3.01449
N	0.468925	-0.771038	0.637505
C	0.187415	0.0204802	-0.533426
C	-1.05004	0.849365	-0.249031
O	-1.76767	0.596531	0.716848
H	-0.293947	-0.888623	1.26769
H	1.00972	0.704205	-0.70199
C	-0.044259	-0.871887	-1.77323
H	-0.888082	-1.57252	-1.5966
H	-0.261131	-0.265624	-2.67667
H	0.868894	-1.47478	-1.97025
N	-1.31699	1.87847	-1.07709
C	-2.46654	2.72998	-0.877979
H	-0.720198	2.07129	-1.84904
H	-2.51403	3.51649	-1.66309
H	-2.41759	3.22994	0.116449
H	-3.4079	2.1356	-0.919613
C	377.65	-2.46401	1.19598
C	377.905	-1.20139	0.46677
O	377.014	-0.637601	-0.153245
H	376.585	-2.75649	1.06236
H	377.851	-2.32774	2.27925
H	378.297	-3.27349	0.79849
N	379.151	-0.726413	0.522035
C	379.554	0.490994	-0.135829
C	381.06	0.451082	-0.309098
O	381.741	-0.373621	0.297583
H	379.876	-1.21026	1.00631
H	379.11	0.520959	-1.12277
C	379.146	1.73503	0.684772
H	379.603	1.7007	1.69689
H	379.455	2.67417	0.181014
H	378.041	1.75201	0.805631
N	381.614	1.33323	-1.16371
C	383.039	1.3617	-1.4017
H	381.046	1.98796	-1.65063
H	383.299	2.15728	-2.13413
H	383.389	0.384543	-1.80627
H	383.591	1.56167	-0.455303
