44
  This energy is 4.45894e-320 and Call times are: 113679
C	-1.09554	2.96626	1.45851
C	-0.0368176	1.97518	1.16173
O	1.13154	2.19136	1.45278
H	-0.639826	3.856	1.94486
H	-1.84871	2.52719	2.14609
H	-1.59465	3.28607	0.519598
N	-0.42967	0.84996	0.560137
C	0.483412	-0.207862	0.20783
C	-0.167648	-1.04314	-0.877377
O	-1.36654	-0.928189	-1.1249
H	-1.38004	0.69817	0.301897
H	1.38317	0.22783	-0.207711
C	0.818333	-1.09205	1.42978
H	-0.107037	-1.53688	1.85397
H	1.5213	-1.90749	1.16207
H	1.29358	-0.46827	2.21793
N	0.61788	-1.8927	-1.56817
C	0.0883359	-2.71968	-2.62735
H	1.58718	-1.96607	-1.35767
H	0.889638	-3.35015	-3.07196
H	-0.351018	-2.09029	-3.43486
H	-0.711452	-3.39116	-2.23922
C	5383.83	3.45071	0.178452
C	5384.07	2.14026	-0.466105
O	5384.65	2.06113	-1.54048
H	5384.24	4.25819	-0.465422
H	5384.33	3.48892	1.16785
H	5382.74	3.61691	0.311022
N	5383.62	1.06645	0.185469
C	5383.78	-0.275807	-0.314232
C	5382.74	-1.15044	0.359506
O	5382.13	-0.749599	1.34593
H	5383.13	1.14623	1.04582
H	5383.58	-0.282032	-1.37743
C	5385.2	-0.818196	-0.0266989
H	5385.41	-0.809777	1.06486
H	5385.33	-1.85148	-0.410279
H	5385.95	-0.168218	-0.52464
N	5382.51	-2.36487	-0.174663
C	5381.53	-3.26182	0.391786
H	5383.01	-2.66819	-0.977362
H	5381.48	-4.21036	-0.187339
H	5380.51	-2.79534	0.381518
H	5381.78	-3.50775	1.44778
