44
  This energy is 1.40532e-319 and Call times are: 123633
C	2.6643	-1.79166	1.34817
C	1.80565	-1.39577	0.209229
O	2.07642	-1.73431	-0.934697
H	3.51999	-2.39307	0.971361
H	2.08424	-2.40476	2.0696
H	3.05781	-0.889751	1.86261
N	0.736469	-0.652198	0.503044
C	-0.192897	-0.190085	-0.496735
C	-0.935645	1.0026	0.073404
O	-0.886797	1.25768	1.27523
H	0.54269	-0.358463	1.4353
H	0.361617	0.150618	-1.3619
C	-1.19295	-1.29989	-0.890883
H	-1.75962	-1.64754	-0.000858581
H	-1.90992	-0.947484	-1.66065
H	-0.636366	-2.16826	-1.30595
N	-1.62702	1.77735	-0.785526
C	-2.35512	2.94079	-0.335563
H	-1.64847	1.55841	-1.75549
H	-2.85925	3.44392	-1.18994
H	-1.66706	3.67293	0.145873
H	-3.13142	2.65442	0.410447
C	5853.13	0.456005	-2.76178
C	5854.35	-0.089956	-2.12594
O	5855.09	-0.855909	-2.72907
H	5853.04	0.0524929	-3.79389
H	5853.19	1.56364	-2.81274
H	5852.23	0.159582	-2.18186
N	5854.59	0.295123	-0.869814
C	5855.73	-0.150658	-0.11881
C	5855.42	0.0334079	1.35447
O	5854.47	0.71618	1.71624
H	5853.96	0.89654	-0.379319
H	5855.88	-1.20888	-0.294633
C	5857	0.646681	-0.500389
H	5856.85	1.73194	-0.319389
H	5857.88	0.305889	0.0759142
H	5857.21	0.504527	-1.5821
N	5856.22	-0.593665	2.24258
C	5856	-0.486096	3.66549
H	5856.99	-1.14747	1.92978
H	5856.76	-1.07101	4.22833
H	5854.99	-0.872815	3.93496
H	5856.06	0.576735	3.99379
