44
  This energy is 1.36446e-319 and Call times are: 66177
C	1.19685	0.319398	-3.25448
C	0.142748	-0.0590597	-2.28658
O	-0.973526	-0.388161	-2.66356
H	0.789181	0.251965	-4.28653
H	2.06353	-0.368819	-3.1648
H	1.53184	1.36144	-3.06775
N	0.479292	-0.0137344	-0.995436
C	-0.437165	-0.353455	0.0635839
C	0.068346	0.288422	1.34096
O	1.20913	0.742295	1.40761
H	1.38306	0.284034	-0.699687
H	-1.4062	0.0750608	-0.158726
C	-0.544999	-1.88404	0.244722
H	0.450998	-2.32044	0.472001
H	-1.24998	-2.14913	1.05928
H	-0.915153	-2.34241	-0.698158
N	-0.782536	0.360581	2.38345
C	-0.393251	0.96514	3.63611
H	-1.70397	-0.0060401	2.30744
H	-1.22969	0.92613	4.3683
H	-0.108451	2.0317	3.48586
H	0.481661	0.432623	4.07444
C	3135.72	-1.40361	-0.80016
C	3136.79	-0.413746	-1.02536
O	3136.78	0.328332	-1.99776
H	3134.97	-1.33401	-1.62579
H	3135.2	-1.19753	0.162311
H	3136.14	-2.43068	-0.781267
N	3137.77	-0.38579	-0.117871
C	3138.89	0.521941	-0.199947
C	3140.01	-0.0484099	0.639046
O	3139.81	-0.964081	1.43271
H	3137.79	-1.01538	0.654317
H	3139.23	0.565674	-1.22578
C	3138.51	1.92993	0.309237
H	3138.15	1.88128	1.36167
H	3139.36	2.63145	0.247294
H	3137.68	2.33618	-0.312749
N	3141.25	0.468924	0.465407
C	3142.38	-0.0189872	1.21152
H	3141.4	1.20469	-0.18688
H	3143.31	0.533869	0.928728
H	3142.55	-1.10246	1.01162
H	3142.22	0.10905	2.306
