44
  This energy is 4.60766e-320 and Call times are: 26613
C	3.05452	1.45604	0.822189
C	2.04338	0.384265	0.963968
O	2.27319	-0.618625	1.6257
H	3.97109	1.17291	1.38395
H	2.66139	2.40966	1.23315
H	3.31732	1.59538	-0.247608
N	0.884442	0.574644	0.329164
C	-0.196246	-0.377747	0.372669
C	-1.09485	-0.117599	-0.820678
O	-0.991362	0.920795	-1.47096
H	0.720194	1.38247	-0.230633
H	0.209844	-1.37577	0.267275
C	-1.00427	-0.252138	1.68356
H	-1.41885	0.773126	1.78879
H	-1.8371	-0.984136	1.72042
H	-0.33454	-0.443754	2.5501
N	-1.98818	-1.07123	-1.15015
C	-2.87731	-0.91649	-2.27784
H	-2.05168	-1.90768	-0.615791
H	-3.53679	-1.80596	-2.38359
H	-2.29759	-0.795834	-3.22157
H	-3.52076	-0.0159892	-2.15039
C	1268.39	0.10607	3.1926
C	1267.37	0.517266	2.20249
O	1266.4	1.1901	2.53287
H	1268.1	0.496595	4.19453
H	1269.38	0.517943	2.9126
H	1268.45	-1.00153	3.24258
N	1267.56	0.109097	0.946279
C	1266.65	0.429358	-0.128357
C	1266.87	-0.580913	-1.23789
O	1267.86	-1.31007	-1.23847
H	1268.34	-0.463126	0.695323
H	1265.64	0.316991	0.223523
C	1266.89	1.86064	-0.658367
H	1267.94	1.97259	-1.01791
H	1266.2	2.11057	-1.48582
H	1266.73	2.59107	0.164114
N	1265.94	-0.662003	-2.20254
C	1266.05	-1.6025	-3.29251
H	1265.14	-0.0682044	-2.18053
H	1265.18	-1.51486	-3.98221
H	1266.09	-2.64731	-2.90755
H	1266.98	-1.41539	-3.87513
