44
  This energy is 2.12399e-320 and Call times are: 80499
C	2.81013	0.502733	-1.99413
C	2.13866	-0.0951137	-0.818155
O	2.70927	-0.916477	-0.113694
H	3.83368	0.079054	-2.0874
H	2.88668	1.60369	-1.87227
H	2.24011	0.272223	-2.91873
N	0.887978	0.307389	-0.581214
C	0.105196	-0.183407	0.524769
C	-1.35722	0.054696	0.202463
O	-1.68453	0.799256	-0.719672
H	0.423863	0.955268	-1.17937
H	0.252713	-1.25227	0.613333
C	0.482172	0.53127	1.84167
H	0.330272	1.62767	1.74707
H	-0.118578	0.155654	2.69537
H	1.55596	0.35013	2.06597
N	-2.27488	-0.593834	0.946306
C	-3.69037	-0.438113	0.704763
H	-1.98984	-1.19762	1.68348
H	-4.28123	-1.05071	1.4209
H	-3.9502	-0.760322	-0.329602
H	-3.99406	0.627459	0.820988
C	3816.56	-0.153251	-2.35911
C	3815.45	0.562774	-1.68037
O	3815.24	1.74724	-1.89866
H	3817.09	0.551079	-3.03189
H	3816.15	-0.991915	-2.96466
H	3817.27	-0.550179	-1.60979
N	3814.72	-0.152422	-0.823331
C	3813.61	0.403971	-0.0875581
C	3813.36	-0.479937	1.11912
O	3813.88	-1.5956	1.1971
H	3814.92	-1.10915	-0.632269
H	3813.89	1.38578	0.275282
C	3812.34	0.482261	-0.960121
H	3812.06	-0.52658	-1.33121
H	3811.49	0.910367	-0.396717
H	3812.54	1.13156	-1.8412
N	3812.59	0.0107516	2.10359
C	3812.3	-0.754201	3.29571
H	3812.19	0.918656	2.02502
H	3811.65	-0.180366	3.9842
H	3813.25	-1.00105	3.83669
H	3811.79	-1.71019	3.03749
