44
  This energy is 1.29663e-319 and Call times are: 116997
C	-3.061	-1.46819	-0.77512
C	-1.66151	-1.12171	-1.11062
O	-1.12637	-1.55845	-2.12026
H	-3.46912	-2.1455	-1.5565
H	-3.68345	-0.549615	-0.735014
H	-3.10255	-1.98563	0.206446
N	-1.0271	-0.319655	-0.252362
C	0.336585	0.105944	-0.442237
C	0.881912	0.537398	0.905244
O	0.127247	0.727249	1.85723
H	-1.4645	0.00603281	0.58163
H	0.9247	-0.73783	-0.78023
C	0.426304	1.27344	-1.45021
H	-0.178706	2.1371	-1.10068
H	1.47498	1.60353	-1.59888
H	0.0227278	0.944995	-2.43276
N	2.21664	0.681638	1.02231
C	2.82733	1.07763	2.26988
H	2.81113	0.516421	0.242245
H	3.93262	1.14278	2.16343
H	2.59537	0.340362	3.0723
H	2.44705	2.07301	2.59515
C	5544.65	-0.609865	-1.08963
C	5543.43	-1.00696	-0.356325
O	5543.31	-2.1298	0.114444
H	5545.36	-1.46858	-1.11956
H	5545.14	0.242753	-0.577326
H	5544.4	-0.317965	-2.13011
N	5542.47	-0.079114	-0.247532
C	5541.23	-0.315431	0.437031
C	5540.22	0.699908	-0.065768
O	5540.58	1.67903	-0.714222
H	5542.57	0.82256	-0.660545
H	5540.86	-1.29984	0.173175
C	5541.39	-0.186219	1.96769
H	5541.77	0.824625	2.23478
H	5540.44	-0.367724	2.49791
H	5542.14	-0.934437	2.32334
N	5538.92	0.476392	0.205246
C	5537.89	1.3823	-0.243135
H	5538.64	-0.325476	0.725293
H	5536.88	1.0268	0.0801686
H	5537.89	1.46141	-1.35443
H	5538.05	2.40167	0.175912
