44
  This energy is 1.4823e-319 and Call times are: 85497
C	-3.34798	0.522301	0.802739
C	-1.91117	0.85359	0.933329
O	-1.54334	1.8374	1.56047
H	-3.95145	1.28778	1.33727
H	-3.55317	-0.473267	1.24946
H	-3.64342	0.514831	-0.267589
N	-1.05474	0.0274932	0.327979
C	0.373317	0.217468	0.36528
C	0.974924	-0.541482	-0.801468
O	0.31056	-1.36873	-1.42286
H	-1.36834	-0.754305	-0.204355
H	0.592373	1.26802	0.222357
C	0.973718	-0.289953	1.69538
H	0.746536	-1.36784	1.83911
H	2.07315	-0.145054	1.72751
H	0.52408	0.272993	2.54217
N	2.24825	-0.259461	-1.14074
C	2.90072	-0.92332	-2.24516
H	2.76692	0.418341	-0.630055
H	3.94403	-0.55631	-2.36369
H	2.3525	-0.734288	-3.19646
H	2.93309	-2.02436	-2.07827
C	4052.29	0.521802	-3.43044
C	4051.91	0.971079	-2.07381
O	4051.55	2.12191	-1.86703
H	4052.2	1.37293	-4.13953
H	4051.63	-0.29976	-3.76565
H	4053.35	0.166614	-3.43133
N	4051.98	0.0573232	-1.10324
C	4051.64	0.343215	0.26704
C	4052.31	-0.69595	1.14223
O	4052.79	-1.7159	0.651047
H	4052.3	-0.869034	-1.27908
H	4052.04	1.31117	0.536028
C	4050.11	0.309407	0.483201
H	4049.7	-0.68479	0.205647
H	4049.84	0.52927	1.53722
H	4049.63	1.07426	-0.164296
N	4052.38	-0.448482	2.46504
C	4053.01	-1.37488	3.37451
H	4051.99	0.386001	2.84233
H	4052.97	-0.994099	4.41862
H	4054.08	-1.52361	3.10209
H	4052.51	-2.36684	3.34057
