44
  This energy is 3.53553e-320 and Call times are: 43833
C	2.16933	0.659263	-2.64301
C	1.65368	0.933744	-1.28288
O	2.21162	1.73362	-0.544359
H	3.08099	1.27022	-2.8204
H	1.40484	0.92553	-3.40293
H	2.43147	-0.41504	-2.74351
N	0.561495	0.259549	-0.915511
C	-0.0578716	0.418816	0.375941
C	-0.899145	-0.813836	0.644392
O	-1.16631	-1.60189	-0.260828
H	0.133103	-0.410904	-1.51543
H	0.714254	0.461493	1.13362
C	-0.941122	1.68558	0.423805
H	-1.73173	1.63877	-0.355211
H	-1.41944	1.81134	1.41687
H	-0.313386	2.58132	0.224462
N	-1.31978	-1.02054	1.90786
C	-2.11559	-2.17322	2.26027
H	-1.08711	-0.37498	2.62782
H	-2.36296	-2.16364	3.34469
H	-1.56454	-3.1149	2.0348
H	-3.06854	-2.18424	1.68326
C	2082.81	-1.9447	1.43817
C	2081.75	-0.913058	1.5246
O	2081.4	-0.447681	2.60264
H	2083.17	-2.18088	2.46059
H	2083.65	-1.57121	0.828691
H	2082.4	-2.87094	0.978827
N	2081.19	-0.532124	0.370478
C	2080.15	0.461717	0.292534
C	2079.42	0.270553	-1.02313
O	2079.9	-0.435177	-1.90963
H	2081.46	-0.939825	-0.498411
H	2079.44	0.289987	1.09067
C	2080.73	1.8913	0.375606
H	2081.46	2.06383	-0.444239
H	2079.94	2.65904	0.316046
H	2081.27	2.01818	1.34329
N	2078.23	0.881788	-1.17185
C	2077.46	0.747577	-2.38528
H	2077.86	1.4429	-0.440093
H	2076.51	1.32563	-2.3145
H	2077.21	-0.320753	-2.573
H	2078.04	1.12441	-3.26126
