44
  This energy is 1.10315e-319 and Call times are: 65043
C	-3.19415	-1.27333	0.549701
C	-1.77907	-1.09286	0.944913
O	-1.37421	-1.46908	2.03626
H	-3.74698	-1.76639	1.37864
H	-3.25991	-1.91217	-0.35605
H	-3.66217	-0.288145	0.34157
N	-0.985275	-0.497342	0.0518245
C	0.414508	-0.252036	0.291116
C	0.860118	0.854928	-0.644459
O	0.15463	1.20055	-1.59032
H	-1.33361	-0.169147	-0.822183
H	0.540928	0.103978	1.30568
C	1.25785	-1.52378	0.0491307
H	1.12527	-1.88666	-0.992435
H	2.33617	-1.33847	0.232632
H	0.920882	-2.32739	0.739648
N	2.03936	1.45414	-0.386921
C	2.53945	2.52576	-1.21622
H	2.59239	1.16497	0.387528
H	3.52369	2.88527	-0.843025
H	1.83019	3.38494	-1.21795
H	2.6676	2.18174	-2.26808
C	3083.17	-2.26866	2.07622
C	3084.38	-1.52466	1.65762
O	3085.4	-1.56494	2.31935
H	3083.38	-2.80687	3.02594
H	3082.88	-3.00914	1.2984
H	3082.32	-1.56609	2.24054
N	3084.27	-0.812671	0.532839
C	3085.36	-0.037048	-0.00234105
C	3084.78	1.01025	-0.930068
O	3083.61	0.932381	-1.3102
H	3083.42	-0.764593	0.0182498
H	3085.86	0.481586	0.8092
C	3086.37	-0.928779	-0.771088
H	3085.85	-1.45985	-1.60249
H	3087.21	-0.334764	-1.18438
H	3086.79	-1.69242	-0.0808333
N	3085.58	2.03223	-1.30005
C	3085.1	3.08234	-2.17136
H	3086.52	2.08124	-0.976045
H	3085.91	3.82879	-2.35994
H	3084.23	3.60973	-1.71484
H	3084.78	2.66325	-3.15068
