44
  This energy is 9.32549e-320 and Call times are: 109143
C	2.27035	-2.63212	0.20869
C	0.887341	-2.10775	0.14944
O	-0.0708724	-2.8611	0.0456074
H	2.24594	-3.7413	0.138034
H	2.74808	-2.34363	1.16857
H	2.86836	-2.23122	-0.636652
N	0.753189	-0.780807	0.209404
C	-0.527632	-0.121828	0.16386
C	-0.297872	1.31389	-0.266431
O	0.832492	1.79773	-0.263599
H	1.54338	-0.176254	0.264587
H	-1.14127	-0.597208	-0.590812
C	-1.22821	-0.158243	1.54044
H	-0.59564	0.329675	2.31239
H	-2.21479	0.348168	1.5089
H	-1.38972	-1.21531	1.84486
N	-1.36944	2.0248	-0.669373
C	-1.24552	3.39539	-1.10791
H	-2.27486	1.61317	-0.671242
H	-2.23766	3.8071	-1.3967
H	-0.566831	3.46627	-1.98859
H	-0.824801	4.03143	-0.295735
C	5173.23	-0.0343562	1.00588
C	5172.01	0.681555	0.582308
O	5171.95	1.90311	0.609315
H	5174	0.705286	1.32569
H	5173.64	-0.630042	0.16154
H	5173.01	-0.708777	1.85843
N	5170.99	-0.0778276	0.180652
C	5169.73	0.472572	-0.260977
C	5168.68	-0.610891	-0.134804
O	5169	-1.78426	0.0403586
H	5171.04	-1.07293	0.190833
H	5169.45	1.28289	0.399772
C	5169.81	0.96402	-1.72335
H	5170.1	0.130367	-2.39835
H	5168.85	1.38857	-2.06656
H	5170.59	1.7565	-1.80266
N	5167.38	-0.236392	-0.199665
C	5166.31	-1.19678	-0.0777685
H	5167.14	0.719038	-0.334703
H	5165.32	-0.694525	-0.159075
H	5166.36	-1.71737	0.90602
H	5166.38	-1.96698	-0.879757
