44
  This energy is 1.00987e-320 and Call times are: 36987
C	0.0359465	-1.76083	3.00405
C	-0.561337	-1.44659	1.68659
O	-1.49339	-2.10243	1.242
H	-0.489736	-2.63471	3.44661
H	-0.0699105	-0.89324	3.68882
H	1.11168	-2.00995	2.88711
N	-0.0235653	-0.421876	1.02092
C	-0.496023	0.00447045	-0.272081
C	0.615192	0.793019	-0.937385
O	1.58306	1.18536	-0.288444
H	0.754433	0.0862259	1.38076
H	-0.689823	-0.86911	-0.881484
C	-1.76533	0.87654	-0.147663
H	-1.56312	1.77148	0.478681
H	-2.13189	1.20642	-1.14144
H	-2.57135	0.28791	0.342228
N	0.511031	1.02531	-2.26071
C	1.5264	1.75704	-2.98167
H	-0.276426	0.693379	-2.7696
H	1.25858	1.84471	-4.0577
H	2.51077	1.2407	-2.90646
H	1.64217	2.78348	-2.56432
C	1751.53	-0.394256	-0.803015
C	1752.93	-0.884193	-0.770611
O	1753.21	-2.02985	-1.09876
H	1750.87	-1.21296	-1.14742
H	1751.45	0.461562	-1.50478
H	1751.22	-0.0742072	0.211854
N	1753.86	-0.0127078	-0.36128
C	1755.26	-0.341446	-0.27646
C	1755.91	0.639291	0.678854
O	1755.32	1.6616	1.02778
H	1753.61	0.908778	-0.0688336
H	1755.36	-1.33212	0.147634
C	1755.94	-0.265839	-1.66154
H	1755.83	0.75162	-2.09398
H	1757.02	-0.518534	-1.59988
H	1755.45	-0.988014	-2.35235
N	1757.14	0.337196	1.14303
C	1757.83	1.20528	2.06575
H	1757.59	-0.498389	0.854375
H	1758.83	0.784961	2.32805
H	1757.24	1.32936	3.00487
H	1757.98	2.21396	1.61781
