44
  This energy is 1.20631e-319 and Call times are: 47067
C	1.51122	-0.628724	3.07361
C	1.48925	0.0172149	1.74188
O	2.33572	0.841409	1.42458
H	2.37044	-0.234777	3.65876
H	1.6249	-1.72775	2.9639
H	0.57136	-0.407552	3.62196
N	0.499305	-0.345818	0.922988
C	0.344971	0.194248	-0.404166
C	-1.09629	-0.0135591	-0.827042
O	-1.83214	-0.77312	-0.199808
H	-0.200995	-0.996672	1.20389
H	0.528273	1.2608	-0.373537
C	1.2974	-0.495393	-1.40636
H	1.10706	-1.58951	-1.43475
H	1.18128	-0.0818354	-2.42923
H	2.34982	-0.336825	-1.08478
N	-1.54037	0.678206	-1.89487
C	-2.90095	0.5536	-2.36336
H	-0.931474	1.29336	-2.38483
H	-3.07154	1.20011	-3.25227
H	-3.61973	0.855353	-1.5674
H	-3.12363	-0.500181	-2.6482
C	2234.92	-1.18073	-3.2166
C	2234.25	-0.256535	-2.27678
O	2233.58	0.681768	-2.6841
H	2234.71	-0.861621	-4.26034
H	2234.54	-2.21478	-3.07344
H	2236.02	-1.16272	-3.05052
N	2234.42	-0.503511	-0.976174
C	2233.83	0.306408	0.0585163
C	2234.62	0.0859571	1.33283
O	2235.41	-0.850326	1.42717
H	2234.99	-1.25378	-0.656834
H	2233.93	1.34999	-0.212717
C	2232.35	-0.063962	0.283605
H	2232.25	-1.13537	0.561043
H	2231.89	0.557877	1.07957
H	2231.78	0.100775	-0.657392
N	2234.44	0.96232	2.34048
C	2235.16	0.839259	3.587
H	2233.8	1.71758	2.24213
H	2234.87	1.65308	4.28873
H	2236.26	0.897443	3.41387
H	2234.94	-0.138039	4.0738
