44
  This energy is 5.17089e-320 and Call times are: 8847
C	-1.57702	-2.7624	1.41713
C	-1.39965	-1.30064	1.26555
O	-2.17107	-0.511713	1.79376
H	-2.47385	-2.96057	2.04346
H	-0.687808	-3.20638	1.91211
H	-1.72116	-3.2357	0.423069
N	-0.364263	-0.90281	0.522542
C	-0.0614321	0.485714	0.28354
C	0.79796	0.567265	-0.963069
O	1.32278	-0.441033	-1.43183
H	0.239956	-1.55567	0.0735145
H	-0.98297	1.01739	0.0831336
C	0.682081	1.11389	1.48341
H	1.62664	0.565603	1.68664
H	0.916668	2.18306	1.30279
H	0.0425876	1.04681	2.39044
N	0.943962	1.77452	-1.54378
C	1.73402	1.94675	-2.74058
H	0.505403	2.57727	-1.15329
H	1.73352	3.01154	-3.06226
H	1.3259	1.32895	-3.57305
H	2.78866	1.63432	-2.5637
C	424.549	-1.84364	2.67617
C	425.255	-1.74773	1.37858
O	425.803	-2.72273	0.883014
H	424.626	-2.88396	3.06038
H	423.476	-1.58675	2.54813
H	425.009	-1.15287	3.41405
N	425.261	-0.547328	0.794325
C	425.906	-0.296765	-0.469841
C	426.171	1.19278	-0.570368
O	425.632	1.98106	0.203659
H	424.836	0.245914	1.22217
H	426.863	-0.802966	-0.48311
C	425.026	-0.760602	-1.65198
H	424.045	-0.239817	-1.63492
H	425.52	-0.569287	-2.62691
H	424.838	-1.85303	-1.56611
N	427.032	1.61183	-1.51919
C	427.355	3.01017	-1.68197
H	427.464	0.957672	-2.13127
H	428.078	3.15236	-2.51511
H	427.808	3.41965	-0.750427
H	426.438	3.60152	-1.90843
