44
  This energy is 1.01708e-319 and Call times are: 16785
C	-1.84622	2.17102	2.00106
C	-0.983815	0.98124	1.82252
O	-0.546557	0.366675	2.78565
H	-1.98589	2.36378	3.08697
H	-2.83947	1.99678	1.53638
H	-1.37196	3.0609	1.53616
N	-0.711984	0.629402	0.563679
C	0.111929	-0.5048	0.229643
C	0.626427	-0.307013	-1.18295
O	0.133454	0.546762	-1.91771
H	-1.05032	1.1554	-0.212071
H	0.968208	-0.524865	0.891803
C	-0.683831	-1.82569	0.325143
H	-1.56191	-1.80141	-0.354927
H	-0.0523807	-2.70108	0.0687202
H	-1.05623	-1.95827	1.36432
N	1.65092	-1.0824	-1.58937
C	2.21447	-0.957099	-2.91334
H	2.04087	-1.76271	-0.977519
H	3.04566	-1.68214	-3.05716
H	2.6138	0.0703904	-3.07472
H	1.44022	-1.15257	-3.6902
C	804.158	-0.921292	0.00350672
C	803.021	-0.145818	0.547471
O	803.137	0.514162	1.57091
H	805.042	-0.789723	0.664804
H	804.415	-0.56102	-1.01496
H	803.9	-2.00028	-0.0405923
N	801.875	-0.2153	-0.134925
C	800.681	0.483516	0.268731
C	799.497	-0.204065	-0.381668
O	799.662	-1.01027	-1.29527
H	801.785	-0.779685	-0.951181
H	800.566	0.392742	1.34138
C	800.73	1.96939	-0.151897
H	800.849	2.05882	-1.2528
H	799.812	2.51049	0.157502
H	801.603	2.46144	0.330156
N	798.269	0.0847397	0.0923673
C	797.083	-0.530283	-0.456807
H	798.157	0.734459	0.83703
H	796.172	-0.162733	0.0647696
H	797.127	-1.63796	-0.345824
H	796.985	-0.295651	-1.54147
