44
  This energy is 7.56513e-320 and Call times are: 57567
C	-2.39749	-2.08747	-1.4215
C	-1.85396	-1.3179	-0.279766
O	-2.48877	-1.1932	0.758485
H	-3.40404	-2.47741	-1.15567
H	-1.73122	-2.94375	-1.65751
H	-2.48953	-1.43403	-2.31452
N	-0.648305	-0.771404	-0.453253
C	0.0118679	0.0050659	0.565615
C	1.05399	0.873232	-0.112253
O	1.39066	0.65892	-1.27525
H	-0.15379	-0.855713	-1.31423
H	-0.711552	0.662378	1.0311
C	0.682011	-0.904093	1.61987
H	1.42306	-1.57755	1.13881
H	1.19115	-0.309447	2.40597
H	-0.0916872	-1.53574	2.1083
N	1.57534	1.89331	0.597421
C	2.56476	2.78002	0.0308658
H	1.28468	2.0547	1.53481
H	2.87028	3.55238	0.770709
H	2.1595	3.29736	-0.868777
H	3.47183	2.21128	-0.277247
C	2726.55	-1.85306	0.0146053
C	2727.65	-1.15482	-0.695806
O	2727.76	-1.2248	-1.91209
H	2725.93	-2.40084	-0.72307
H	2725.91	-1.11898	0.551421
H	2726.97	-2.58061	0.741775
N	2728.5	-0.459179	0.062823
C	2729.61	0.273095	-0.482683
C	2730.62	0.484782	0.630341
O	2730.31	0.287785	1.80401
H	2728.41	-0.433737	1.05543
H	2730.09	-0.328111	-1.24713
C	2729.16	1.63455	-1.05883
H	2728.67	2.24846	-0.272093
H	2730.02	2.20094	-1.47983
H	2728.42	1.4658	-1.87231
N	2731.86	0.872608	0.282804
C	2732.89	1.08733	1.27317
H	2732.1	1.01989	-0.672943
H	2733.84	1.40396	0.790145
H	2733.09	0.152694	1.84793
H	2732.58	1.87881	1.9944
