44
  This energy is 7.42087e-321 and Call times are: 7209
C	-1.68464	0.997951	-2.87962
C	-1.66374	0.623197	-1.44772
O	-2.66383	0.729741	-0.751326
H	-2.69915	1.36442	-3.14858
H	-1.44243	0.116188	-3.50942
H	-0.947478	1.80503	-3.07495
N	-0.501134	0.174042	-0.969214
C	-0.324193	-0.229475	0.402898
C	1.15801	-0.172987	0.717711
O	1.98874	-0.0749349	-0.183459
H	0.314145	0.119359	-1.53953
H	-0.824546	0.482928	1.04648
C	-0.864413	-1.65683	0.643583
H	-0.349416	-2.38499	-0.0187449
H	-0.729894	-1.97065	1.69914
H	-1.95068	-1.68521	0.408308
N	1.52362	-0.211949	2.01417
C	2.91136	-0.151696	2.41007
H	0.835987	-0.284239	2.72914
H	3.00684	-0.199075	3.51726
H	3.37951	0.796059	2.05816
H	3.48233	-1.0022	1.9721
C	347.687	-3.05263	-1.6718
C	347.791	-1.57604	-1.66383
O	348.032	-0.953361	-2.68889
H	347.865	-3.42777	-2.70311
H	346.674	-3.3665	-1.34481
H	348.448	-3.49366	-0.993071
N	347.615	-0.975469	-0.48467
C	347.685	0.454154	-0.317258
C	347.96	0.738837	1.14656
O	347.833	-0.143821	1.99314
H	347.448	-1.49585	0.348585
H	348.522	0.834485	-0.888992
C	346.37	1.13719	-0.753639
H	345.513	0.74419	-0.165564
H	346.421	2.23807	-0.626186
H	346.179	0.920074	-1.8273
N	348.366	1.98073	1.47636
C	348.662	2.34074	2.84339
H	348.469	2.67916	0.77583
H	348.978	3.40519	2.91009
H	349.483	1.70554	3.24779
H	347.766	2.19962	3.49009
