44
  This energy is 4.07752e-320 and Call times are: 38079
C	-2.29583	-2.4633	0.887382
C	-1.57203	-1.66289	-0.125857
O	-1.66634	-1.91769	-1.31862
H	-2.87461	-3.26411	0.377898
H	-2.99863	-1.81735	1.45452
H	-1.57578	-2.93221	1.59066
N	-0.816321	-0.664179	0.336585
C	-0.0531885	0.20247	-0.525608
C	1.04409	0.838097	0.30577
O	1.01398	0.783467	1.53375
H	-0.724727	-0.484965	1.31251
H	0.420632	-0.394556	-1.29446
C	-0.944356	1.29654	-1.15485
H	-1.4294	1.90669	-0.363289
H	-0.359949	1.96554	-1.81945
H	-1.74478	0.818022	-1.76023
N	2.05566	1.44052	-0.349829
C	3.15047	2.06251	0.357773
H	2.06559	1.46794	-1.344
H	3.87994	2.50418	-0.356409
H	3.68545	1.31588	0.988307
H	2.77744	2.87342	1.02446
C	1804.7	0.368299	2.67461
C	1805.05	0.538268	1.24726
O	1804.23	0.943117	0.43606
H	1803.64	0.65272	2.82585
H	1805.34	1.01929	3.30724
H	1804.84	-0.690848	2.97915
N	1806.3	0.221197	0.904281
C	1806.8	0.33366	-0.445294
C	1808.01	-0.564292	-0.573975
O	1808.56	-1.02592	0.424658
H	1806.96	-0.135205	1.56897
H	1806.04	-0.0351928	-1.12756
C	1807.18	1.79224	-0.786073
H	1807.95	2.16767	-0.083807
H	1807.56	1.88246	-1.82457
H	1806.28	2.43997	-0.686921
N	1808.45	-0.851237	-1.81622
C	1809.59	-1.70711	-2.03686
H	1807.99	-0.473688	-2.61187
H	1809.79	-1.82014	-3.12475
H	1809.41	-2.71916	-1.60655
H	1810.5	-1.2817	-1.55335
