44
  This energy is 2.62201e-320 and Call times are: 93477
C	-3.2964	-0.928477	0.630724
C	-1.91064	-0.662716	1.07822
O	-1.61928	-0.65933	2.26632
H	-3.943	-1.09826	1.51895
H	-3.32394	-1.83341	-0.0120485
H	-3.68834	-0.0592346	0.0617361
N	-1.01313	-0.424514	0.119007
C	0.373973	-0.149926	0.397183
C	0.957929	0.564423	-0.806121
O	0.353725	0.589259	-1.87671
H	-1.2689	-0.401276	-0.843791
H	0.436673	0.523966	1.24218
C	1.15994	-1.45056	0.675948
H	1.09294	-2.13986	-0.192672
H	2.22835	-1.24276	0.890676
H	0.721676	-1.96497	1.55881
N	2.14443	1.18402	-0.65019
C	2.77181	1.89952	-1.73676
H	2.6143	1.15853	0.226053
H	3.741	2.33772	-1.41134
H	2.11561	2.72618	-2.09354
H	2.96615	1.21761	-2.59608
C	4426.27	3.08448	1.48976
C	4426.55	2.24407	0.302137
O	4426.49	2.70967	-0.827873
H	4426.03	4.11782	1.16027
H	4427.17	3.11866	2.14774
H	4425.41	2.67568	2.05826
N	4426.84	0.963854	0.537172
C	4427.13	0.0227846	-0.51507
C	4426.91	-1.37292	0.0328568
O	4426.79	-1.56184	1.24193
H	4426.85	0.5896	1.46061
H	4426.43	0.175121	-1.3262
C	4428.59	0.168297	-1.0149
H	4429.3	0.0120677	-0.180101
H	4428.81	-0.554742	-1.82527
H	4428.74	1.19522	-1.41263
N	4426.82	-2.38557	-0.852116
C	4426.6	-3.74636	-0.423746
H	4426.91	-2.21129	-1.82698
H	4426.56	-4.43279	-1.29819
H	4425.63	-3.82958	0.128812
H	4427.41	-4.08576	0.25369
