44
  This energy is 2.28258e-321 and Call times are: 67311
C	-1.56907	-2.18344	2.21286
C	-0.594563	-1.10974	1.91501
O	0.00829917	-0.536109	2.81167
H	-1.62893	-2.33023	3.31319
H	-1.24619	-3.13496	1.74044
H	-2.57421	-1.90458	1.83226
N	-0.421552	-0.806692	0.626374
C	0.491883	0.214406	0.179357
C	0.0663578	0.643843	-1.21124
O	-0.737794	-0.0253616	-1.85725
H	-0.940115	-1.26121	-0.0929621
H	0.403973	1.07475	0.830624
C	1.94684	-0.304755	0.153115
H	2.03327	-1.18776	-0.515423
H	2.65284	0.479006	-0.190483
H	2.24606	-0.61723	1.17731
N	0.58333	1.7895	-1.69724
C	0.227089	2.28348	-3.00692
H	1.2271	2.32061	-1.15622
H	0.7574	3.23652	-3.22539
H	-0.869431	2.46974	-3.07169
H	0.498528	1.54279	-3.79361
C	3191.61	2.5119	-2.27748
C	3191.29	1.68608	-1.08933
O	3190.32	1.92595	-0.390914
H	3190.84	3.31484	-2.37737
H	3191.59	1.8852	-3.19389
H	3192.61	2.97878	-2.16675
N	3192.13	0.681795	-0.827789
C	3191.96	-0.208796	0.292191
C	3193.3	-0.850508	0.586575
O	3194.23	-0.778521	-0.223292
H	3192.94	0.514566	-1.38756
H	3191.68	0.3699	1.16144
C	3190.91	-1.29693	-0.0104759
H	3191.2	-1.88826	-0.903178
H	3190.77	-1.98432	0.84987
H	3189.93	-0.813963	-0.22559
N	3193.45	-1.47809	1.77007
C	3194.7	-2.10783	2.14226
H	3192.7	-1.51934	2.41501
H	3194.62	-2.57096	3.15046
H	3195.52	-1.3613	2.16365
H	3194.97	-2.90339	1.41132
