44
  This energy is 1.05745e-319 and Call times are: 109689
C	-2.61785	-0.0262996	2.29615
C	-1.91776	0.55174	1.12699
O	-2.42123	1.4525	0.469992
H	-3.59875	0.480848	2.42454
H	-2.01354	0.122066	3.21573
H	-2.79216	-1.11172	2.13988
N	-0.723043	0.0324367	0.834841
C	0.0785773	0.489848	-0.27196
C	1.06252	-0.609982	-0.620491
O	1.25237	-1.55045	0.14847
H	-0.336546	-0.72094	1.36018
H	-0.562195	0.642373	-1.13116
C	0.836926	1.78868	0.0816594
H	1.49281	1.62881	0.963915
H	1.45505	2.14375	-0.768419
H	0.105116	2.58607	0.336158
N	1.69823	-0.527433	-1.80584
C	2.6436	-1.53452	-2.22802
H	1.52567	0.237745	-2.41737
H	3.06024	-1.28762	-3.22937
H	2.15302	-2.53294	-2.289
H	3.48819	-1.6084	-1.50525
C	5194.55	-1.23835	2.95921
C	5195.47	-1.338	1.81135
O	5196.32	-2.22058	1.75664
H	5194.77	-2.05138	3.68389
H	5193.5	-1.34406	2.61213
H	5194.67	-0.259301	3.4682
N	5195.34	-0.414803	0.856553
C	5196.17	-0.380575	-0.321261
C	5196.11	1.02314	-0.891695
O	5195.25	1.82051	-0.512795
H	5194.67	0.316437	0.926708
H	5197.19	-0.576915	-0.0350859
C	5195.69	-1.40306	-1.37617
H	5194.64	-1.19911	-1.66698
H	5196.33	-1.37946	-2.28433
H	5195.74	-2.4271	-0.945667
N	5197.04	1.3655	-1.806
C	5197.07	2.68374	-2.39551
H	5197.73	0.708342	-2.09436
H	5197.9	2.76929	-3.12502
H	5197.21	3.46205	-1.61058
H	5196.11	2.8978	-2.92865
