44
  This energy is 1.07025e-319 and Call times are: 10947
C	2.0081	2.80937	0.44848
C	1.3931	1.77279	-0.41087
O	1.4858	1.82481	-1.62955
H	2.51127	3.56614	-0.191812
H	2.76196	2.35009	1.12196
H	1.22842	3.31443	1.05673
N	0.735555	0.795329	0.217286
C	0.0851119	-0.283999	-0.481859
C	-0.95765	-0.878033	0.444969
O	-0.959525	-0.607791	1.64447
H	0.642318	0.77989	1.20926
H	-0.431691	0.116571	-1.34472
C	1.09831	-1.3701	-0.90722
H	1.62715	-1.77838	-0.0196654
H	0.600843	-2.20261	-1.44596
H	1.85739	-0.922047	-1.58485
N	-1.88698	-1.68908	-0.0977575
C	-2.92606	-2.29103	0.704828
H	-1.87283	-1.88988	-1.07178
H	-3.59033	-2.92498	0.0770448
H	-3.54901	-1.50709	1.19332
H	-2.48509	-2.92945	1.5043
C	525.92	-1.90683	-2.91129
C	525.499	-1.70001	-1.5073
O	524.737	-2.48074	-0.953892
H	525.436	-2.82544	-3.30837
H	527.023	-2.02912	-2.96611
H	525.614	-1.04068	-3.5346
N	525.991	-0.6211	-0.8936
C	525.674	-0.285912	0.471624
C	525.948	1.19292	0.664089
O	526.596	1.82554	-0.167717
H	526.588	0.023116	-1.36445
H	524.616	-0.448613	0.637271
C	526.517	-1.11629	1.46514
H	527.601	-0.947503	1.29195
H	526.275	-0.860824	2.51729
H	526.308	-2.19765	1.31318
N	525.439	1.78534	1.76228
C	525.639	3.19183	2.02328
H	524.912	1.25784	2.42
H	525.145	3.48912	2.97479
H	525.212	3.8087	1.19952
H	526.725	3.42652	2.10326
