44
  This energy is 7.15901e-320 and Call times are: 114729
C	-3.1648	0.393653	-1.3983
C	-1.73356	0.0293861	-1.49873
O	-1.27959	-0.477011	-2.51557
H	-3.67923	0.12647	-2.34689
H	-3.27055	1.48564	-1.22739
H	-3.64277	-0.159029	-0.562217
N	-0.981406	0.278653	-0.424261
C	0.427461	-0.0196582	-0.370105
C	0.829319	-0.10757	1.08935
O	0.0816074	0.306512	1.97326
H	-1.36907	0.664686	0.408584
H	0.599024	-0.990437	-0.817575
C	1.26044	1.06699	-1.08598
H	1.08151	2.06169	-0.62482
H	2.34572	0.840335	-1.0463
H	0.955753	1.12227	-2.15381
N	2.01831	-0.672675	1.37738
C	2.47941	-0.810328	2.73922
H	2.60595	-1.00818	0.648436
H	3.47906	-1.29725	2.76861
H	1.76986	-1.43055	3.33345
H	2.56047	0.186811	3.22945
C	5429.97	-0.246493	0.571428
C	5431.13	0.208541	-0.233583
O	5430.97	0.724655	-1.33142
H	5429.03	-0.0430968	0.0128683
H	5429.94	0.298899	1.53806
H	5430.05	-1.33735	0.765077
N	5432.34	0.0179606	0.302476
C	5433.56	0.407832	-0.35942
C	5434.69	-0.394877	0.245153
O	5434.53	-1.01442	1.29544
H	5432.45	-0.430084	1.18482
H	5433.49	0.14351	-1.40706
C	5433.83	1.91982	-0.193839
H	5433.9	2.18761	0.882111
H	5434.77	2.22345	-0.702423
H	5432.99	2.49669	-0.639614
N	5435.86	-0.419642	-0.420336
C	5437	-1.16669	0.0728345
H	5435.97	0.082455	-1.27238
H	5437.87	-1.06068	-0.612956
H	5436.75	-2.24916	0.157517
H	5437.3	-0.802184	1.08125
