44
  This energy is 1.60003e-319 and Call times are: 6915
C	-0.00530217	-2.32011	-2.59677
C	0.163999	-1.96378	-1.17003
O	0.323389	-2.82626	-0.317263
H	0.0332791	-3.42572	-2.70628
H	0.80921	-1.87036	-3.20267
H	-0.986266	-1.95614	-2.96849
N	0.126436	-0.662188	-0.875399
C	0.276285	-0.160022	0.467062
C	-0.322144	1.23246	0.513131
O	-0.589435	1.8364	-0.524
H	-0.0331602	0.0290335	-1.57517
H	-0.293653	-0.785492	1.14236
C	1.76222	-0.113869	0.887769
H	2.34408	0.528097	0.192475
H	1.88121	0.272181	1.92101
H	2.18921	-1.13968	0.848711
N	-0.567468	1.76761	1.72533
C	-1.14682	3.08304	1.86738
H	-0.35075	1.26014	2.55282
H	-1.26892	3.34506	2.94148
H	-2.14779	3.12619	1.38012
H	-0.497204	3.85225	1.3904
C	336.128	2.05314	-2.60033
C	336.667	1.85488	-1.23593
O	337.047	2.80243	-0.562237
H	336.151	3.13607	-2.85054
H	335.079	1.69441	-2.65309
H	336.745	1.50023	-3.33968
N	336.717	0.595653	-0.795195
C	337.215	0.243601	0.510416
C	337.611	-1.21974	0.478937
O	337.256	-1.94726	-0.446568
H	336.431	-0.17046	-1.36466
H	338.107	0.821632	0.714067
C	336.148	0.481931	1.60258
H	335.234	-0.112051	1.39017
H	336.529	0.212018	2.60917
H	335.866	1.5572	1.61463
N	338.379	-1.68122	1.48547
C	338.815	-3.05739	1.53354
H	338.662	-1.07503	2.22152
H	339.435	-3.24205	2.43822
H	339.423	-3.30852	0.634442
H	337.94	-3.74617	1.56178
