44
  This energy is 1.15878e-319 and Call times are: 77979
C	0.438873	-3.42827	-0.424798
C	-0.409207	-2.21503	-0.422487
O	-1.56793	-2.25249	-0.812947
H	-0.146625	-4.2849	-0.823849
H	0.767034	-3.66762	0.608567
H	1.33006	-3.27122	-1.06827
N	0.16255	-1.09269	0.020026
C	-0.534108	0.167297	0.0826322
C	0.503697	1.27231	0.116349
O	1.68527	1.01827	0.34256
H	1.11617	-1.06881	0.308065
H	-1.11794	0.291806	-0.820532
C	-1.43781	0.248857	1.33315
H	-0.835729	0.120056	2.25783
H	-1.97584	1.21771	1.38439
H	-2.19284	-0.56648	1.29707
N	0.0864057	2.52954	-0.131149
C	1.00497	3.64418	-0.132109
H	-0.872745	2.71373	-0.319128
H	0.4705	4.59401	-0.354371
H	1.79741	3.49956	-0.901762
H	1.50161	3.7451	0.860035
C	3698.03	0.97439	-3.14665
C	3697.07	1.06463	-2.02231
O	3696.2	1.92474	-1.99997
H	3697.81	1.77939	-3.88145
H	3697.93	-0.00943511	-3.65248
H	3699.07	1.09972	-2.77508
N	3697.22	0.166009	-1.0457
C	3696.36	0.126046	0.113226
C	3697.09	-0.621226	1.20919
O	3698.1	-1.28119	0.954742
H	3697.95	-0.51141	-1.06136
H	3696.19	1.13731	0.460893
C	3695.02	-0.574884	-0.201188
H	3695.2	-1.61185	-0.558214
H	3694.36	-0.607263	0.688972
H	3694.49	-0.0185639	-1.00622
N	3696.62	-0.515941	2.46529
C	3697.26	-1.18262	3.57492
H	3695.81	0.0286997	2.65195
H	3696.72	-0.97541	4.52405
H	3698.31	-0.833827	3.68848
H	3697.28	-2.28493	3.41436
