44
  This energy is 1.73664e-320 and Call times are: 93099
C	-3.40898	0.15779	0.692898
C	-2.17911	-0.602366	0.375399
O	-2.16951	-1.82553	0.391985
H	-4.2294	-0.553696	0.930723
H	-3.71144	0.777026	-0.177666
H	-3.23697	0.814687	1.57145
N	-1.09551	0.119401	0.0800872
C	0.174378	-0.476491	-0.250272
C	1.25259	0.562922	-0.0129618
O	0.960423	1.74655	0.146711
H	-1.10853	1.11561	0.0984101
H	0.360799	-1.30347	0.423096
C	0.207815	-0.950561	-1.72039
H	0.0155339	-0.0998082	-2.40841
H	1.18416	-1.41004	-1.97809
H	-0.587372	-1.71073	-1.88155
N	2.53038	0.137826	0.0374466
C	3.62273	1.05356	0.270627
H	2.7458	-0.825155	-0.087042
H	4.5949	0.513076	0.274848
H	3.50265	1.5665	1.25232
H	3.65845	1.83334	-0.524265
C	4409.59	-1.70945	2.9546
C	4408.74	-1.44258	1.77336
O	4407.77	-2.1454	1.52
H	4409.2	-2.59822	3.4959
H	4409.58	-0.836483	3.64059
H	4410.63	-1.91331	2.63598
N	4409.09	-0.406163	1.00966
C	4408.36	-0.0214789	-0.172254
C	4409.29	0.804008	-1.0435
O	4410.34	1.24844	-0.594476
H	4409.9	0.141017	1.21038
H	4408.1	-0.912281	-0.726937
C	4407.1	0.796352	0.186143
H	4407.38	1.70913	0.75569
H	4406.54	1.09406	-0.721609
H	4406.43	0.181063	0.825404
N	4408.92	1.01041	-2.32417
C	4409.75	1.77407	-3.23131
H	4408.07	0.636414	-2.67067
H	4409.28	1.83282	-4.23689
H	4410.75	1.30236	-3.3419
H	4409.89	2.81111	-2.85133
