44
  This energy is 8.15208e-320 and Call times are: 16029
C	1.57887	-3.08465	-0.343835
C	0.396645	-2.20484	-0.483389
O	-0.611595	-2.58705	-1.0612
H	1.37053	-4.06033	-0.834247
H	1.7992	-3.26195	0.729871
H	2.46199	-2.61929	-0.830135
N	0.49988	-0.984212	0.0474367
C	-0.565506	-0.0153133	-0.00749452
C	0.0429292	1.35833	0.197796
O	1.19213	1.48045	0.617619
H	1.33715	-0.674469	0.490131
H	-1.00817	-0.0347183	-0.995291
C	-1.63277	-0.290838	1.07516
H	-1.17509	-0.270851	2.08721
H	-2.45466	0.453278	1.03559
H	-2.06994	-1.30039	0.914427
N	-0.711806	2.42961	-0.116427
C	-0.212323	3.77639	0.0348237
H	-1.63691	2.30985	-0.461498
H	-0.981634	4.51811	-0.273834
H	0.695475	3.93147	-0.59215
H	0.0624196	3.9769	1.09572
C	766.836	2.28132	-1.66675
C	766.232	0.937284	-1.52432
O	766.363	0.0892948	-2.39621
H	767.37	2.34277	-2.63976
H	767.561	2.46369	-0.846332
H	766.045	3.06077	-1.64083
N	765.54	0.713441	-0.404417
C	764.896	-0.544092	-0.122046
C	763.816	-0.292125	0.912188
O	763.781	0.764587	1.53986
H	765.416	1.42196	0.285164
H	764.412	-0.901467	-1.02227
C	765.905	-1.58739	0.407057
H	766.4	-1.21724	1.33023
H	765.412	-2.55691	0.625357
H	766.691	-1.7622	-0.359183
N	762.892	-1.25501	1.09821
C	761.819	-1.09866	2.05297
H	762.933	-2.10012	0.575405
H	761.165	-1.99834	2.06055
H	761.193	-0.212546	1.79922
H	762.225	-0.951747	3.07988
