44
  This energy is 6.37295e-320 and Call times are: 82179
C	1.44927	-3.13732	0.427722
C	0.448675	-2.23926	-0.191553
O	-0.283183	-2.63153	-1.08989
H	1.39716	-4.13584	-0.0581868
H	1.23966	-3.25388	1.51183
H	2.47087	-2.72416	0.2914
N	0.399504	-0.991307	0.280197
C	-0.520904	-0.00201278	-0.220777
C	0.0270472	1.36645	0.134617
O	0.937044	1.4861	0.952798
H	1.02092	-0.675467	0.992249
H	-0.558346	-0.07108	-1.30055
C	-1.92926	-0.184781	0.387694
H	-1.88706	-0.114014	1.49554
H	-2.64052	0.575247	0.00397376
H	-2.319	-1.19137	0.121188
N	-0.503493	2.43449	-0.492924
C	-0.0371383	3.77549	-0.227531
H	-1.23433	2.31633	-1.15711
H	-0.598304	4.51537	-0.839826
H	1.04622	3.86982	-0.469749
H	-0.174334	4.03381	0.84747
C	3896.76	-0.911878	1.92217
C	3896.16	-0.325972	0.702233
O	3896.85	0.231823	-0.137851
H	3897.86	-0.743351	1.90862
H	3896.56	-2.00426	1.95788
H	3896.33	-0.430561	2.82747
N	3894.83	-0.437212	0.580555
C	3894.1	0.0822047	-0.549865
C	3892.66	0.253502	-0.13336
O	3892.23	-0.261777	0.900219
H	3894.28	-0.868232	1.2858
H	3894.49	1.06151	-0.79864
C	3894.2	-0.868038	-1.76445
H	3893.8	-1.87194	-1.50552
H	3893.64	-0.471052	-2.63669
H	3895.26	-0.986142	-2.05896
N	3891.86	1.0046	-0.922805
C	3890.47	1.23305	-0.600104
H	3892.23	1.41902	-1.75133
H	3889.99	1.87319	-1.37112
H	3890.38	1.74078	0.38696
H	3889.92	0.268521	-0.547467
