44
  This energy is 1.28398e-319 and Call times are: 72393
C	2.94078	1.24449	-1.38896
C	1.60034	0.629224	-1.51502
O	1.07813	0.469368	-2.60966
H	3.32121	1.50648	-2.40014
H	3.64608	0.530877	-0.913439
H	2.88171	2.16884	-0.776563
N	1.00306	0.27046	-0.376204
C	-0.301624	-0.340329	-0.33658
C	-0.871264	-0.132662	1.05325
O	-0.151706	0.238904	1.97845
H	1.42643	0.432578	0.511159
H	-0.950284	0.169586	-1.03751
C	-0.226346	-1.84928	-0.659884
H	0.440435	-2.36917	0.060694
H	-1.22924	-2.32269	-0.630395
H	0.193588	-1.98798	-1.67996
N	-2.19008	-0.348427	1.22694
C	-2.82298	-0.164702	2.51219
H	-2.75689	-0.641871	0.464144
H	-3.90989	-0.393168	2.45154
H	-2.70479	0.886567	2.86162
H	-2.36563	-0.835577	3.27503
C	3433.83	-1.93524	2.83899
C	3434.73	-1.16798	1.94422
O	3435.89	-0.948107	2.2509
H	3434.39	-2.22814	3.75446
H	3433.48	-2.85335	2.32695
H	3432.96	-1.31344	3.13329
N	3434.19	-0.732152	0.801381
C	3434.94	0.0271691	-0.170924
C	3433.95	0.776369	-1.03751
O	3432.75	0.487195	-1.01754
H	3433.24	-0.892792	0.576279
H	3435.54	0.761355	0.344976
C	3435.82	-0.891168	-1.04622
H	3435.2	-1.64354	-1.57349
H	3436.4	-0.309716	-1.79588
H	3436.54	-1.43515	-0.399563
N	3434.42	1.77725	-1.80675
C	3433.54	2.55388	-2.6555
H	3435.39	2.00065	-1.80359
H	3434.12	3.32747	-3.20956
H	3432.76	3.0662	-2.05016
H	3433.03	1.8989	-3.39759
