44
  This energy is 9.55869e-320 and Call times are: 83439
C	0.808598	3.27436	0.866515
C	0.747337	1.826	1.16599
O	1.26906	1.36548	2.17208
H	1.37854	3.7915	1.66876
H	-0.216127	3.69959	0.822465
H	1.32061	3.4433	-0.104178
N	0.102026	1.064	0.279819
C	-0.0419201	-0.361707	0.43301
C	-0.335486	-0.949835	-0.933432
O	-0.660584	-0.225987	-1.87268
H	-0.293648	1.44693	-0.550687
H	0.898469	-0.77566	0.774163
C	-1.18116	-0.709531	1.41701
H	-2.14428	-0.282763	1.06431
H	-1.29464	-1.80653	1.53742
H	-0.954745	-0.272078	2.41377
N	-0.205472	-2.28297	-1.08123
C	-0.452502	-2.93038	-2.34852
H	0.0655431	-2.85077	-0.310913
H	-0.294502	-4.02837	-2.26658
H	0.233824	-2.53505	-3.13204
H	-1.49954	-2.75081	-2.68414
C	3953.72	-3.02386	1.70436
C	3953.83	-1.54798	1.68174
O	3953.72	-0.889197	2.70614
H	3953.52	-3.3614	2.74514
H	3954.67	-3.48454	1.34998
H	3952.88	-3.35447	1.05489
N	3954.06	-0.988417	0.490479
C	3954.19	0.434933	0.308027
C	3953.91	0.745651	-1.14993
O	3953.88	-0.152355	-1.98927
H	3954.12	-1.53377	-0.341176
H	3953.44	0.937447	0.900752
C	3955.6	0.922227	0.695168
H	3956.37	0.40419	0.0856556
H	3955.71	2.01779	0.556027
H	3955.8	0.687705	1.76497
N	3953.68	2.03097	-1.48201
C	3953.4	2.42009	-2.84347
H	3953.7	2.74223	-0.78713
H	3953.24	3.51868	-2.91326
H	3952.48	1.90833	-3.21453
H	3954.24	2.14505	-3.51586
