44
  This energy is 9.06709e-320 and Call times are: 76971
C	-0.343956	-0.48657	-3.4309
C	-0.793036	-0.692783	-2.03555
O	-1.85704	-1.24349	-1.78833
H	-1.10954	-0.893008	-4.12699
H	0.616983	-1.0147	-3.60553
H	-0.212185	0.596998	-3.63452
N	0.0205088	-0.241638	-1.07796
C	-0.278738	-0.368948	0.325991
C	0.540874	0.665394	1.07272
O	1.47116	1.24898	0.519713
H	0.870874	0.231316	-1.29274
H	-1.3243	-0.137657	0.485281
C	0.0528937	-1.78569	0.845595
H	1.12612	-2.01992	0.679991
H	-0.176468	-1.88723	1.92627
H	-0.553013	-2.53416	0.289889
N	0.197823	0.932788	2.34819
C	0.913282	1.91104	3.13389
H	-0.56263	0.455057	2.77565
H	0.482046	1.98572	4.15649
H	0.8576	2.91582	2.65581
H	1.98781	1.63157	3.22596
C	3647.09	0.181032	2.97176
C	3648.36	0.292059	2.20719
O	3649.38	0.724919	2.72792
H	3647.26	0.545911	4.00878
H	3646.76	-0.878032	3.01194
H	3646.3	0.797535	2.49567
N	3648.31	-0.0981635	0.931167
C	3649.46	-0.0501965	0.0599194
C	3648.96	-0.052471	-1.37106
O	3647.79	-0.341612	-1.62761
H	3647.47	-0.421651	0.510418
H	3649.99	0.881662	0.222438
C	3650.4	-1.25579	0.296445
H	3649.85	-2.2101	0.12951
H	3651.28	-1.22191	-0.372678
H	3650.76	-1.24337	1.34845
N	3649.83	0.293411	-2.3393
C	3649.44	0.331078	-3.72924
H	3650.77	0.531015	-2.11073
H	3650.3	0.636269	-4.3704
H	3648.61	1.0575	-3.88428
H	3649.09	-0.671235	-4.06623
