44
  This energy is 1.28027e-319 and Call times are: 5697
C	-1.13205	-3.27545	0.340573
C	-1.15125	-1.95446	-0.327123
O	-1.79935	-1.77125	-1.34835
H	-1.7632	-3.98705	-0.234877
H	-1.53611	-3.18911	1.37116
H	-0.0943107	-3.66824	0.382434
N	-0.423214	-0.991348	0.242737
C	-0.342136	0.345565	-0.289162
C	0.916975	0.989201	0.258205
O	1.52327	0.482748	1.20041
H	0.123645	-1.16097	1.05828
H	-0.242083	0.290458	-1.36574
C	-1.58018	1.18281	0.102489
H	-1.68016	1.23671	1.20758
H	-1.52108	2.21275	-0.305573
H	-2.4959	0.700209	-0.303339
N	1.35298	2.11618	-0.338293
C	2.54914	2.79248	0.106685
H	0.852348	2.50652	-1.10396
H	2.73986	3.69957	-0.508181
H	3.43408	2.12068	0.0241102
H	2.451	3.10488	1.17156
C	282.24	1.1886	-1.21398
C	281.157	1.17551	-0.204974
O	281.258	1.80257	0.840452
H	283.077	1.82047	-0.845867
H	281.866	1.60938	-2.17106
H	282.616	0.157984	-1.38549
N	280.08	0.442771	-0.499826
C	278.945	0.331577	0.38107
C	278.187	-0.927526	0.00767205
O	278.417	-1.50917	-1.05088
H	280.022	-0.0869207	-1.3418
H	279.299	0.213419	1.39747
C	278.02	1.56319	0.264146
H	277.659	1.68179	-0.77996
H	277.145	1.48091	0.941209
H	278.587	2.47899	0.539112
N	277.275	-1.39143	0.884669
C	276.514	-2.58991	0.620017
H	277.109	-0.9105	1.73915
H	275.816	-2.8055	1.45871
H	277.191	-3.46563	0.493655
H	275.916	-2.47787	-0.313617
