44
  This energy is 7.44853e-320 and Call times are: 63615
C	-3.02899	1.53292	-0.775557
C	-1.89836	1.27578	0.144633
O	-1.78202	1.8961	1.19257
H	-3.67344	2.33308	-0.350956
H	-3.63613	0.611972	-0.90234
H	-2.64955	1.86428	-1.76509
N	-1.02316	0.342838	-0.237485
C	0.127702	-0.0189399	0.550836
C	1.13576	-0.677027	-0.371111
O	0.809436	-1.04777	-1.49712
H	-1.11302	-0.134984	-1.10728
H	0.581332	0.881547	0.945068
C	-0.255065	-0.98407	1.69501
H	-0.720754	-1.90647	1.28706
H	0.628742	-1.26456	2.3041
H	-0.994766	-0.490695	2.36252
N	2.39745	-0.817873	0.0808713
C	3.42795	-1.422	-0.731089
H	2.6435	-0.504986	0.992352
H	4.39545	-1.44859	-0.182923
H	3.57454	-0.845318	-1.673
H	3.15119	-2.46585	-1.00489
C	3015.62	2.81848	-1.67256
C	3015.98	2.09813	-0.430992
O	3016	2.66854	0.651148
H	3015.4	3.87889	-1.42879
H	3014.73	2.35558	-2.13609
H	3016.47	2.78882	-2.39238
N	3016.3	0.807809	-0.564559
C	3016.67	-0.0252218	0.550785
C	3017.44	-1.21323	0.00808512
O	3017.44	-1.47056	-1.19423
H	3016.32	0.361881	-1.45553
H	3017.34	0.530849	1.19813
C	3015.43	-0.509259	1.33123
H	3014.75	-1.07876	0.663954
H	3015.71	-1.15082	2.19081
H	3014.87	0.370323	1.72252
N	3018.15	-1.95576	0.885469
C	3018.92	-3.09871	0.458846
H	3018.15	-1.72708	1.85342
H	3019.42	-3.57827	1.3265
H	3019.7	-2.79326	-0.275308
H	3018.27	-3.85655	-0.0287926
