44
  This energy is 2.66993e-320 and Call times are: 13971
C	-1.95081	2.87373	0.249257
C	-0.896994	2.06896	-0.408782
O	-0.394658	2.42705	-1.46516
H	-2.16485	3.77344	-0.367641
H	-1.61119	3.19996	1.25477
H	-2.88178	2.27691	0.349506
N	-0.538471	0.941655	0.21009
C	0.472566	0.0540069	-0.306352
C	0.258131	-1.31056	0.319124
O	-0.481552	-1.44698	1.2918
H	-0.975774	0.646051	1.05526
H	0.337283	-0.0492855	-1.37551
C	1.89253	0.569683	0.0175383
H	2.02763	0.675113	1.11515
H	2.67346	-0.111364	-0.378818
H	2.0366	1.57032	-0.445189
N	0.887678	-2.36147	-0.242357
C	0.733888	-3.70025	0.27743
H	1.47642	-2.23162	-1.0334
H	1.33182	-4.42456	-0.31848
H	-0.334262	-4.01501	0.242406
H	1.07454	-3.75211	1.33689
C	670.116	-0.625502	0.859359
C	668.968	0.292128	0.683288
O	669.03	1.45945	1.04384
H	670.953	-0.078119	1.34578
H	670.459	-1.00283	-0.12697
H	669.826	-1.48303	1.50223
N	667.875	-0.227366	0.120359
C	666.678	0.539868	-0.117226
C	665.522	-0.43144	-0.259901
O	665.727	-1.63308	-0.420685
H	667.826	-1.18732	-0.142473
H	666.481	1.16098	0.747306
C	666.807	1.40293	-1.3922
H	667.01	0.762626	-2.27705
H	665.888	1.99512	-1.57803
H	667.658	2.10931	-1.27553
N	664.273	0.0676639	-0.181988
C	663.111	-0.782917	-0.294694
H	664.128	1.04195	-0.0444165
H	662.177	-0.185926	-0.20678
H	663.11	-1.55537	0.50815
H	663.101	-1.30681	-1.27787
