44
  This energy is 1.10572e-319 and Call times are: 46689
C	-1.98076	1.70331	2.30249
C	-1.56246	0.462867	1.61146
O	-1.99151	-0.629299	1.95726
H	-2.68848	1.44716	3.12065
H	-2.48823	2.38616	1.58905
H	-1.09719	2.21515	2.73869
N	-0.695989	0.607465	0.606125
C	-0.196695	-0.505263	-0.161579
C	1.09728	-0.0719204	-0.822701
O	1.41339	1.11548	-0.867426
H	-0.331421	1.49959	0.352852
H	0.0348523	-1.32124	0.511207
C	-1.2166	-0.952566	-1.23248
H	-1.45238	-0.11287	-1.92055
H	-0.835403	-1.80929	-1.82534
H	-2.16037	-1.26636	-0.735501
N	1.89013	-1.03367	-1.33498
C	3.14674	-0.716814	-1.97272
H	1.62015	-1.98949	-1.28253
H	3.65063	-1.64183	-2.33006
H	3.82914	-0.198785	-1.26052
H	2.98555	-0.0452054	-2.84687
C	2214.71	2.90459	1.08025
C	2215.93	2.14415	0.719439
O	2217.02	2.69328	0.648442
H	2214.98	3.97047	1.24664
H	2214.27	2.49611	2.01238
H	2213.97	2.84563	0.25942
N	2215.76	0.84224	0.474067
C	2216.85	-0.0289413	0.111729
C	2216.27	-1.24408	-0.580762
O	2215.06	-1.47854	-0.5258
H	2214.87	0.412561	0.506765
H	2217.49	0.480799	-0.600641
C	2217.66	-0.464007	1.3538
H	2217.01	-0.986015	2.0828
H	2218.5	-1.13478	1.07838
H	2218.09	0.435143	1.85274
N	2217.11	-2.03719	-1.27092
C	2216.64	-3.20962	-1.97201
H	2218.08	-1.8266	-1.30938
H	2217.49	-3.72992	-2.47661
H	2215.89	-2.93042	-2.74503
H	2216.16	-3.92434	-1.26517
