44
  This energy is 1.09455e-319 and Call times are: 65001
C	1.93782	-0.970349	2.72569
C	0.744579	-1.11102	1.86106
O	-0.0313833	-2.0463	2.00117
H	1.97085	-1.81605	3.4465
H	1.88931	-0.0168124	3.29247
H	2.86132	-0.987113	2.10941
N	0.57372	-0.170894	0.928678
C	-0.539032	-0.17136	0.012922
C	-0.157046	0.676363	-1.18486
O	0.823356	1.41727	-1.1436
H	1.22858	0.569998	0.805482
H	-0.704943	-1.18177	-0.338681
C	-1.81477	0.392376	0.677611
H	-1.64082	1.4288	1.03774
H	-2.67357	0.393316	-0.0246973
H	-2.08335	-0.236607	1.55419
N	-0.915381	0.569461	-2.29369
C	-0.620989	1.32878	-3.48657
H	-1.70043	-0.0410076	-2.3097
H	-1.35913	1.10425	-4.2878
H	0.396302	1.08226	-3.86813
H	-0.654789	2.42205	-3.27493
C	3084.97	-2.56486	-0.910026
C	3084.02	-1.93884	0.0359701
O	3083.64	-2.53095	1.0374
H	3085.23	-3.58416	-0.549777
H	3085.9	-1.95995	-0.975264
H	3084.51	-2.64578	-1.91759
N	3083.6	-0.70839	-0.270354
C	3082.68	0.0304455	0.551842
C	3082.04	1.10102	-0.311568
O	3082.51	1.38622	-1.41067
H	3083.9	-0.248037	-1.10417
H	3081.89	-0.636176	0.883982
C	3083.39	0.677747	1.75931
H	3084.2	1.36047	1.41497
H	3082.68	1.24731	2.3946
H	3083.86	-0.116766	2.38314
N	3080.93	1.70619	0.160194
C	3080.25	2.72891	-0.597219
H	3080.56	1.45637	1.04881
H	3079.36	3.10466	-0.0402889
H	3079.9	2.327	-1.57697
H	3080.93	3.58923	-0.797386
