44
  This energy is 1.56362e-319 and Call times are: 30645
C	2.61856	-2.14754	0.810765
C	2.03873	-1.04681	0.00865114
O	2.72461	-0.407304	-0.776905
H	3.69953	-2.24681	0.570937
H	2.10827	-3.10444	0.572505
H	2.50926	-1.93047	1.89422
N	0.741284	-0.795166	0.197513
C	0.035575	0.243637	-0.509375
C	-1.20553	0.590596	0.289696
O	-1.59344	-0.141746	1.19801
H	0.200118	-1.30407	0.861664
H	0.658866	1.12793	-0.549446
C	-0.358704	-0.211992	-1.93207
H	-0.99752	-1.11975	-1.88726
H	-0.902141	0.58555	-2.47923
H	0.559025	-0.46435	-2.50673
N	-1.84773	1.73459	-0.0182965
C	-3.03129	2.15266	0.696244
H	-1.51404	2.31734	-0.751985
H	-3.41301	3.11713	0.294565
H	-2.80904	2.28762	1.77959
H	-3.83758	1.38968	0.601651
C	1460.21	2.05449	2.53638
C	1460.04	1.7168	1.10553
O	1460.39	2.49185	0.226013
H	1460.67	3.06236	2.62282
H	1460.88	1.31224	3.02719
H	1459.23	2.06471	3.04894
N	1459.48	0.533843	0.838631
C	1459.25	0.064657	-0.503876
C	1458.18	-1.00505	-0.4438
O	1457.85	-1.50739	0.629649
H	1459.17	-0.07617	1.56419
H	1458.87	0.882344	-1.1007
C	1460.54	-0.51104	-1.13047
H	1460.93	-1.34923	-0.515302
H	1460.36	-0.873091	-2.16427
H	1461.32	0.281916	-1.16769
N	1457.59	-1.36387	-1.60081
C	1456.55	-2.36535	-1.63958
H	1457.86	-0.940567	-2.45814
H	1456.19	-2.52154	-2.68145
H	1455.68	-2.05441	-1.01461
H	1456.92	-3.33819	-1.24822
