44
  This energy is 1.50567e-319 and Call times are: 30435
C	3.05556	0.21891	-1.65583
C	2.14417	-0.429204	-0.686028
O	2.4411	-1.48726	-0.148581
H	3.96656	-0.406364	-1.77817
H	3.35535	1.22248	-1.28735
H	2.55517	0.321763	-2.64173
N	0.992361	0.200419	-0.442555
C	0.00402244	-0.305503	0.476171
C	-1.32683	0.3312	0.125921
O	-1.38036	1.30297	-0.625494
H	0.749244	1.04692	-0.90868
H	-0.0948326	-1.3741	0.333304
C	0.378831	0.0178215	1.93976
H	0.480085	1.11484	2.08261
H	-0.379989	-0.370448	2.64984
H	1.35602	-0.453175	2.1835
N	-2.44009	-0.219395	0.648899
C	-3.75227	0.311568	0.361756
H	-2.37647	-1.00991	1.24912
H	-4.53771	-0.276378	0.885823
H	-3.95956	0.276326	-0.732332
H	-3.82829	1.37237	0.693559
C	1452.28	1.0117	0.570228
C	1450.96	0.566225	1.05173
O	1450.77	0.305997	2.23184
H	1452.99	1.04583	1.426
H	1452.21	2.02619	0.125292
H	1452.67	0.302654	-0.190588
N	1450	0.461864	0.13057
C	1448.65	0.0413881	0.445044
C	1448.01	-0.457937	-0.833925
O	1448.52	-0.226897	-1.92735
H	1450.17	0.648716	-0.832452
H	1448.7	-0.789983	1.13706
C	1447.82	1.20245	1.03859
H	1447.78	2.05389	0.326344
H	1446.79	0.882107	1.28202
H	1448.31	1.56	1.9743
N	1446.88	-1.17733	-0.723494
C	1446.2	-1.70405	-1.88563
H	1446.48	-1.35966	0.170744
H	1445.29	-2.26474	-1.5882
H	1446.87	-2.39532	-2.4494
H	1445.9	-0.879909	-2.57167
