44
  This energy is 1.5274e-319 and Call times are: 18717
C	3.24817	0.510451	-1.1467
C	1.87531	0.989645	-0.869563
O	1.58177	2.17128	-0.988203
H	3.88419	1.3715	-1.44662
H	3.23498	-0.231436	-1.97269
H	3.68143	0.0431188	-0.2374
N	0.991992	0.0666568	-0.481986
C	-0.381431	0.378647	-0.176703
C	-0.92881	-0.733494	0.696656
O	-0.321726	-1.79613	0.815342
H	1.2507	-0.887995	-0.360974
H	-0.41456	1.29519	0.398563
C	-1.22773	0.509666	-1.46267
H	-1.19097	-0.432117	-2.05073
H	-2.28578	0.750015	-1.23125
H	-0.815863	1.32672	-2.09428
N	-2.08551	-0.504217	1.34894
C	-2.67647	-1.50013	2.21214
H	-2.55801	0.364853	1.24552
H	-3.62493	-1.12383	2.65496
H	-1.9817	-1.76231	3.04268
H	-2.90045	-2.43101	1.64251
C	890.803	-1.66892	2.31323
C	892.12	-1.19088	1.83614
O	893.121	-1.29928	2.53014
H	890.914	-2.09484	3.33402
H	890.413	-2.4575	1.6354
H	890.081	-0.826172	2.35234
N	892.145	-0.636789	0.621764
C	893.351	-0.125454	0.0210652
C	892.952	0.86013	-1.0598
O	891.792	0.914411	-1.46333
H	891.317	-0.527843	0.0780805
H	893.914	0.417539	0.769551
C	894.203	-1.26258	-0.585478
H	893.623	-1.81795	-1.35245
H	895.133	-0.872375	-1.04872
H	894.489	-1.97833	0.216103
N	893.906	1.68171	-1.5402
C	893.616	2.66048	-2.56199
H	894.837	1.6272	-1.19567
H	894.53	3.23723	-2.82488
H	892.838	3.3769	-2.2104
H	893.236	2.16476	-3.48477
