44
  This energy is 3.44364e-321 and Call times are: 67353
C	-3.30985	1.07726	-0.102719
C	-2.03281	0.861826	0.614199
O	-1.86507	1.28654	1.74909
H	-4.00307	1.6543	0.547155
H	-3.77843	0.101779	-0.351091
H	-3.13241	1.65032	-1.0371
N	-1.08735	0.19036	-0.0473127
C	0.206791	-0.097889	0.517439
C	1.16197	-0.379271	-0.626105
O	0.739042	-0.586379	-1.76192
H	-1.22577	-0.125166	-0.98231
H	0.56689	0.780225	1.03832
C	0.14672	-1.31241	1.47057
H	-0.223732	-2.21131	0.933108
H	1.1415	-1.53703	1.90731
H	-0.557102	-1.09414	2.30311
N	2.48187	-0.37143	-0.354415
C	3.46639	-0.617149	-1.38229
H	2.80454	-0.194712	0.569645
H	4.4948	-0.570092	-0.961084
H	3.38496	0.141842	-2.19379
H	3.3187	-1.62418	-1.83534
C	3195.98	-2.8456	-1.24184
C	3195	-2.18452	-0.348866
O	3194.21	-2.83819	0.317641
H	3195.84	-3.94748	-1.18292
H	3197.01	-2.59323	-0.929082
H	3195.82	-2.51969	-2.29141
N	3195.03	-0.850089	-0.321125
C	3194.14	-0.0652858	0.498151
C	3194.08	1.33335	-0.0847087
O	3194.9	1.7	-0.921685
H	3195.66	-0.328095	-0.890772
H	3193.14	-0.486805	0.441005
C	3194.63	-0.0105407	1.9634
H	3195.65	0.421779	2.01826
H	3193.94	0.592846	2.59704
H	3194.67	-1.04126	2.37843
N	3193.09	2.14341	0.331307
C	3192.95	3.48788	-0.177155
H	3192.43	1.82578	1.00399
H	3192.07	3.99391	0.287517
H	3192.8	3.4768	-1.28142
H	3193.86	4.08962	0.0435492
