44
  This energy is 6.70398e-320 and Call times are: 33207
C	3.47607	0.0155923	0.20696
C	2.15742	0.658051	0.405985
O	2.05563	1.72243	1.00032
H	4.26515	0.644365	0.673706
H	3.69229	-0.0861806	-0.877343
H	3.48856	-0.988036	0.681849
N	1.10111	0.0101966	-0.0908668
C	-0.246179	0.508876	0.0229714
C	-1.19305	-0.661513	-0.158292
O	-0.789476	-1.73299	-0.606509
H	1.19389	-0.870584	-0.547542
H	-0.39354	0.899558	1.02183
C	-0.535305	1.59523	-1.03691
H	-0.382511	1.19123	-2.06041
H	-1.57182	1.98151	-0.952
H	0.165584	2.44642	-0.894127
N	-2.47807	-0.488628	0.208919
C	-3.44908	-1.55056	0.0839195
H	-2.78363	0.383707	0.576201
H	-4.44866	-1.21287	0.436143
H	-3.14443	-2.43476	0.689405
H	-3.54249	-1.87479	-0.977838
C	1577.09	-2.02013	-2.7707
C	1576.83	-1.62063	-1.36921
O	1575.91	-2.1126	-0.73148
H	1576.34	-2.77845	-3.08163
H	1578.11	-2.46151	-2.8609
H	1577.01	-1.13873	-3.44123
N	1577.65	-0.699214	-0.854088
C	1577.52	-0.209595	0.49546
C	1578.22	1.13331	0.571023
O	1578.98	1.50145	-0.329044
H	1578.38	-0.284754	-1.39318
H	1576.48	-0.047151	0.71461
C	1578.15	-1.19231	1.51088
H	1579.22	-1.35719	1.28271
H	1578.05	-0.818458	2.55105
H	1577.63	-2.17241	1.44479
N	1577.97	1.90939	1.64383
C	1578.59	3.20889	1.79584
H	1577.36	1.59673	2.35808
H	1578.26	3.69037	2.74284
H	1578.31	3.87591	0.948084
H	1579.7	3.12066	1.81523
