44
  This energy is 9.21037e-320 and Call times are: 109101
C	0.068276	3.29536	1.12342
C	0.0190532	1.8367	1.37058
O	0.109653	1.38365	2.50329
H	0.199017	3.82756	2.09065
H	-0.877264	3.63547	0.651089
H	0.922827	3.54245	0.45887
N	-0.122214	1.05755	0.29571
C	-0.186742	-0.379916	0.375337
C	0.175447	-0.938727	-0.986936
O	0.210367	-0.209641	-1.9764
H	-0.165652	1.43721	-0.624567
H	0.556868	-0.72693	1.08152
C	-1.59698	-0.857691	0.787727
H	-2.35743	-0.499367	0.0614766
H	-1.65015	-1.96406	0.850146
H	-1.85087	-0.440639	1.78661
N	0.47626	-2.25	-1.06485
C	0.844234	-2.86771	-2.31753
H	0.44923	-2.82184	-0.25152
H	1.05245	-3.9511	-2.17555
H	1.75699	-2.3877	-2.7391
H	0.023334	-2.76316	-3.06343
C	5166.91	3.32352	0.321828
C	5167.64	2.24345	-0.386138
O	5168.15	2.43891	-1.47651
H	5166.94	4.24803	-0.29503
H	5167.4	3.53074	1.29965
H	5165.85	3.03071	0.487683
N	5167.68	1.05864	0.227511
C	5168.35	-0.0882376	-0.33524
C	5167.78	-1.32893	0.323453
O	5167.09	-1.24186	1.34119
H	5167.23	0.9041	1.10218
H	5168.12	-0.143297	-1.39248
C	5169.87	-0.0198061	-0.106148
H	5170.1	0.0372598	0.979463
H	5170.39	-0.901299	-0.53835
H	5170.28	0.893933	-0.592427
N	5168.03	-2.51792	-0.258562
C	5167.52	-3.75175	0.29057
H	5168.58	-2.56688	-1.08578
H	5167.83	-4.61943	-0.329024
H	5166.4	-3.73402	0.325297
H	5167.89	-3.90593	1.32812
