44
  This energy is 3.40312e-320 and Call times are: 20271
C	0.998674	-2.80331	-1.80838
C	1.29591	-1.54098	-1.09467
O	2.44863	-1.18953	-0.884423
H	1.95269	-3.30815	-2.07455
H	0.431963	-2.59202	-2.73952
H	0.40336	-3.47924	-1.15902
N	0.243231	-0.823536	-0.695291
C	0.371557	0.426532	0.0101814
C	-0.931066	0.684185	0.74232
O	-1.94063	0.0345691	0.476588
H	-0.691077	-1.135	-0.846932
H	1.15344	0.332643	0.753093
C	0.67553	1.59075	-0.959002
H	-0.128244	1.68378	-1.72019
H	0.775116	2.55477	-0.419079
H	1.63143	1.3894	-1.48992
N	-0.932052	1.62983	1.7024
C	-2.12284	1.93581	2.46042
H	-0.103103	2.13971	1.90758
H	-1.92182	2.74181	3.20015
H	-2.48002	1.03568	3.01125
H	-2.94185	2.27527	1.78575
C	963.252	-2.2259	0.39715
C	964.451	-1.52469	0.909202
O	964.781	-1.61162	2.08392
H	962.768	-2.78188	1.22944
H	963.54	-2.94665	-0.39673
H	962.526	-1.49308	-0.0149754
N	965.136	-0.797403	0.0236714
C	966.323	-0.0587677	0.370725
C	966.523	1.0201	-0.675806
O	965.9	0.991331	-1.73541
H	964.84	-0.711036	-0.924004
H	966.167	0.431756	1.32309
C	967.562	-0.980203	0.427527
H	967.719	-1.48231	-0.550901
H	968.479	-0.414705	0.694641
H	967.403	-1.76677	1.19692
N	967.387	2.01446	-0.391202
C	967.633	3.09125	-1.32191
H	967.877	2.02377	0.474695
H	968.375	3.80815	-0.906655
H	966.692	3.64688	-1.53749
H	968.029	2.69549	-2.28525
