44
  This energy is 6.0192e-320 and Call times are: 101289
C	2.8207	1.54508	1.3351
C	1.35934	1.31237	1.297
O	0.621896	1.77939	2.15407
H	3.07087	2.16492	2.2234
H	3.14667	2.08155	0.419257
H	3.36068	0.577602	1.40833
N	0.90367	0.567082	0.287404
C	-0.492387	0.253702	0.115228
C	-0.588357	-0.979206	-0.762249
O	0.387999	-1.3788	-1.39383
H	1.51796	0.168066	-0.388151
H	-0.918757	0.00556713	1.07892
C	-1.25673	1.42887	-0.534297
H	-0.816277	1.68121	-1.52245
H	-2.33203	1.19099	-0.668189
H	-1.17781	2.32611	0.117532
N	-1.76979	-1.62609	-0.804319
C	-1.95181	-2.81584	-1.60278
H	-2.54603	-1.29109	-0.280447
H	-2.99174	-3.19866	-1.50663
H	-1.25132	-3.6186	-1.27701
H	-1.75507	-2.60141	-2.67818
C	4799.35	0.517771	-2.52082
C	4798.43	1.02025	-1.47422
O	4798.41	2.20254	-1.16045
H	4799.96	1.3615	-2.90956
H	4798.77	0.0775634	-3.35925
H	4800.02	-0.251902	-2.09705
N	4797.63	0.115192	-0.898322
C	4796.69	0.451006	0.135097
C	4796.36	-0.81851	0.896459
O	4796.67	-1.91971	0.446147
H	4797.68	-0.850033	-1.14222
H	4797.15	1.13939	0.828787
C	4795.4	1.06241	-0.45935
H	4794.92	0.353841	-1.17103
H	4794.67	1.32229	0.333656
H	4795.65	1.99097	-1.01547
N	4795.74	-0.691236	2.08592
C	4795.4	-1.84346	2.88703
H	4795.5	0.208974	2.4365
H	4794.89	-1.53243	3.82766
H	4796.31	-2.42079	3.15506
H	4794.71	-2.52152	2.32826
