44
  This energy is 1.51377e-319 and Call times are: 104985
C	-1.8584	-2.60416	1.37506
C	-0.76256	-1.61116	1.44047
O	-0.121594	-1.44332	2.46882
H	-1.96162	-3.10286	2.36325
H	-1.63265	-3.37296	0.606419
H	-2.81619	-2.10141	1.12442
N	-0.524756	-0.916176	0.325661
C	0.508224	0.0844937	0.233788
C	0.168153	1.00003	-0.92612
O	-0.689703	0.681844	-1.7475
H	-1.07302	-1.04154	-0.496912
H	0.501225	0.681374	1.13698
C	1.89599	-0.558158	0.0141734
H	1.8994	-1.17029	-0.912866
H	2.69372	0.209528	-0.0568701
H	2.13279	-1.22728	0.869943
N	0.822229	2.17544	-1.00728
C	0.556214	3.11638	-2.07032
H	1.50789	2.41785	-0.328797
H	1.19531	4.02056	-1.96422
H	-0.510557	3.43723	-2.05318
H	0.762305	2.65583	-3.0636
C	4975.23	-0.893113	2.51991
C	4974.64	0.101864	1.59619
O	4974.93	1.28768	1.67453
H	4975.92	-0.3768	3.22742
H	4975.81	-1.65008	1.94877
H	4974.43	-1.39941	3.09934
N	4973.78	-0.367599	0.689596
C	4973.13	0.476882	-0.277114
C	4971.89	-0.247695	-0.764613
O	4971.73	-1.44486	-0.534173
H	4973.53	-1.33145	0.654741
H	4972.8	1.38736	0.212057
C	4974.06	0.796346	-1.46774
H	4974.39	-0.139952	-1.96684
H	4973.56	1.44654	-2.21393
H	4974.96	1.32591	-1.09728
N	4970.97	0.471589	-1.43525
C	4969.75	-0.13054	-1.92715
H	4971.11	1.44083	-1.60548
H	4969.12	0.623043	-2.45273
H	4969.15	-0.556834	-1.08707
H	4969.98	-0.954757	-2.64067
