44
  This energy is 1.28926e-319 and Call times are: 35475
C	0.293144	2.81182	-2.03319
C	0.526074	2.09805	-0.757466
O	1.22641	2.5835	0.120235
H	0.842785	3.77803	-2.01912
H	-0.790182	3.01656	-2.16475
H	0.659953	2.20205	-2.88559
N	-0.0620969	0.906478	-0.628685
C	0.0703097	0.0931449	0.553595
C	-0.256405	-1.33797	0.17358
O	-0.804785	-1.59463	-0.896577
H	-0.606488	0.508839	-1.36248
H	1.10079	0.118534	0.884547
C	-0.876187	0.574063	1.67608
H	-1.93243	0.547372	1.33294
H	-0.776698	-0.0499218	2.58796
H	-0.627382	1.62392	1.94451
N	0.0951449	-2.3101	1.03809
C	-0.164818	-3.70256	0.755864
H	0.544528	-2.08267	1.89574
H	0.196214	-4.34649	1.58788
H	0.351597	-4.01681	-0.17998
H	-1.25678	-3.87964	0.623782
C	1684.43	-3.04732	1.10577
C	1684.29	-1.77274	0.365066
O	1683.31	-1.54432	-0.328205
H	1683.54	-3.6832	0.906725
H	1684.49	-2.85088	2.19667
H	1685.34	-3.58919	0.773572
N	1685.3	-0.90335	0.493992
C	1685.31	0.378523	-0.164368
C	1686.75	0.851483	-0.232975
O	1687.63	0.30632	0.438976
H	1686.11	-1.11318	1.03847
H	1684.96	0.256391	-1.17986
C	1684.45	1.41058	0.59564
H	1684.82	1.5329	1.63722
H	1684.46	2.3987	0.0913381
H	1683.4	1.05191	0.64001
N	1687.04	1.86953	-1.06892
C	1688.38	2.37919	-1.20935
H	1686.32	2.29278	-1.60958
H	1688.41	3.21611	-1.94147
H	1689.07	1.57873	-1.56489
H	1688.76	2.75452	-0.23247
