44
  This energy is 1.5989e-319 and Call times are: 36609
C	2.54777	2.01013	-1.26269
C	1.7794	0.74515	-1.23725
O	1.96767	-0.126255	-2.07493
H	3.2514	1.99521	-2.12324
H	3.13024	2.12288	-0.32417
H	1.85942	2.87398	-1.37621
N	0.87727	0.618826	-0.261256
C	0.0535275	-0.553316	-0.105183
C	-1.15867	-0.164551	0.718633
O	-1.18531	0.899414	1.33434
H	0.712749	1.34792	0.397755
H	-0.298156	-0.868483	-1.07938
C	0.826142	-1.69495	0.592564
H	1.18605	-1.36798	1.5914
H	0.194853	-2.59908	0.714201
H	1.71227	-1.96966	-0.0201844
N	-2.20472	-1.01404	0.730861
C	-3.40629	-0.722388	1.47742
H	-2.16666	-1.86679	0.220362
H	-4.14907	-1.54242	1.36309
H	-3.87149	0.224352	1.11893
H	-3.17695	-0.60554	2.56136
C	1741.42	2.66093	1.44191
C	1740.21	2.07676	0.823653
O	1739.16	2.69993	0.781469
H	1741.19	3.67789	1.8237
H	1742.24	2.73946	0.69007
H	1741.76	2.02901	2.28923
N	1740.33	0.843395	0.327687
C	1739.24	0.142673	-0.304467
C	1739.56	-1.34004	-0.265994
O	1740.69	-1.73529	0.00899656
H	1741.19	0.334881	0.394199
H	1738.34	0.302177	0.271676
C	1739.05	0.606649	-1.76523
H	1739.98	0.442192	-2.35324
H	1738.21	0.0692132	-2.25493
H	1738.82	1.69452	-1.77982
N	1738.55	-2.19972	-0.521291
C	1738.76	-3.62949	-0.495674
H	1737.64	-1.86037	-0.734774
H	1737.81	-4.16532	-0.733115
H	1739.1	-3.95913	0.510583
H	1739.53	-3.93045	-1.24184
