44
  This energy is 9.71827e-320 and Call times are: 4521
C	2.98329	1.65969	-0.686676
C	1.63198	1.60679	-0.0846976
O	1.22441	2.5081	0.635038
H	3.49129	2.5955	-0.367217
H	2.90919	1.65122	-1.79449
H	3.58662	0.790365	-0.350213
N	0.898868	0.527353	-0.367065
C	-0.434513	0.332576	0.143801
C	-0.747563	-1.14953	0.075942
O	-0.0412844	-1.91172	-0.581376
H	1.25318	-0.213769	-0.931104
H	-0.458634	0.626509	1.18548
C	-1.4727	1.13284	-0.674032
H	-1.44478	0.829261	-1.74229
H	-2.50046	0.985257	-0.283262
H	-1.23162	2.21673	-0.617291
N	-1.80824	-1.59709	0.776412
C	-2.17564	-2.99393	0.781281
H	-2.36318	-0.965642	1.30797
H	-3.07523	-3.16174	1.4136
H	-1.34405	-3.6175	1.18237
H	-2.40268	-3.34425	-0.251631
C	224.035	3.00438	1.54987
C	223.272	1.73736	1.49288
O	222.577	1.37476	2.43208
H	223.86	3.49465	2.53217
H	223.701	3.68894	0.74205
H	225.121	2.80247	1.43726
N	223.392	1.0226	0.371701
C	222.711	-0.23099	0.16718
C	223.449	-0.99011	-0.918521
O	224.279	-0.424752	-1.62748
H	223.984	1.31435	-0.374735
H	222.771	-0.816096	1.07613
C	221.239	-0.0106061	-0.24547
H	221.181	0.590543	-1.17791
H	220.712	-0.973831	-0.403616
H	220.71	0.547436	0.557527
N	223.177	-2.30234	-1.05921
C	223.839	-3.10873	-2.05802
H	222.507	-2.74319	-0.471027
H	223.478	-4.16012	-2.01694
H	224.941	-3.10971	-1.89487
H	223.641	-2.70985	-3.07934
