44
  This energy is 3.09335e-320 and Call times are: 106581
C	-1.37472	3.19895	0.0543468
C	-1.40112	1.76454	0.419004
O	-2.24022	1.32384	1.19242
H	-2.19361	3.72868	0.587899
H	-1.52243	3.31836	-1.03961
H	-0.403643	3.65069	0.347397
N	-0.462364	0.994275	-0.135789
C	-0.359153	-0.419944	0.121422
C	1.0537	-0.853344	-0.218053
O	1.79924	-0.117696	-0.862127
H	0.233552	1.37062	-0.741599
H	-0.512699	-0.597484	1.17829
C	-1.37731	-1.22063	-0.720819
H	-1.21736	-1.03564	-1.80447
H	-1.30066	-2.30994	-0.525108
H	-2.40818	-0.893014	-0.463684
N	1.4629	-2.05683	0.229364
C	2.79515	-2.54821	-0.0349271
H	0.847066	-2.63443	0.755058
H	2.93886	-3.55581	0.413779
H	3.55974	-1.86102	0.394513
H	2.97589	-2.62367	-1.13166
C	5045.92	1.64679	-2.3428
C	5046.22	1.22886	-0.95452
O	5045.56	1.65108	-0.0119144
H	5045.06	2.35769	-2.33652
H	5045.65	0.763467	-2.95814
H	5046.8	2.15039	-2.78943
N	5047.24	0.379751	-0.796901
C	5047.65	-0.11746	0.49185
C	5049.08	-0.599289	0.370336
O	5049.6	-0.761999	-0.733327
H	5047.78	0.0657533	-1.56986
H	5047.63	0.697727	1.20414
C	5046.74	-1.27229	0.965527
H	5046.75	-2.10658	0.232156
H	5047.05	-1.65741	1.95762
H	5045.69	-0.906808	1.04939
N	5049.76	-0.818785	1.5102
C	5051.14	-1.26726	1.49277
H	5049.33	-0.674505	2.39354
H	5051.52	-1.39166	2.52843
H	5051.78	-0.530901	0.963446
H	5051.22	-2.24507	0.966058
