44
  This energy is 1.22681e-319 and Call times are: 47151
C	0.646501	-0.479705	-3.38793
C	0.444752	-0.996232	-2.01545
O	0.371851	-2.1975	-1.79603
H	0.703254	-1.33388	-4.09717
H	1.59332	0.0975336	-3.44412
H	-0.202405	0.173893	-3.67967
N	0.342772	-0.0828327	-1.04711
C	0.145133	-0.430285	0.337459
C	-0.433843	0.780285	1.04354
O	-0.419667	1.8869	0.507786
H	0.374636	0.893754	-1.24256
H	-0.584701	-1.22751	0.399448
C	1.47251	-0.851271	1.00676
H	2.21915	-0.031341	0.940753
H	1.32392	-1.11962	2.07291
H	1.88696	-1.73814	0.479656
N	-0.979387	0.592068	2.2613
C	-1.56531	1.68371	3.00372
H	-0.987561	-0.312434	2.67488
H	-1.95834	1.32801	3.9816
H	-2.40628	2.14022	2.43311
H	-0.808531	2.47793	3.19787
C	2236.91	-3.14912	0.538334
C	2236.9	-1.6764	0.686582
O	2235.93	-1.1009	1.16566
H	2235.95	-3.56786	0.912024
H	2237.75	-3.58259	1.12794
H	2237.04	-3.42485	-0.530499
N	2237.98	-1.02444	0.265586
C	2238.11	0.408562	0.344087
C	2239.17	0.83498	-0.653965
O	2239.92	0.00666416	-1.16746
H	2238.75	-1.50207	-0.149682
H	2237.18	0.864284	0.0458391
C	2238.51	0.859859	1.76696
H	2239.47	0.389954	2.06998
H	2238.61	1.96275	1.83098
H	2237.73	0.540492	2.48872
N	2239.24	2.14324	-0.969253
C	2240.21	2.64015	-1.91855
H	2238.62	2.79691	-0.548291
H	2240.11	3.74122	-2.04149
H	2240.07	2.16191	-2.91433
H	2241.25	2.41728	-1.57586
