44
  This energy is 1.4066e-319 and Call times are: 18255
C	2.76387	1.93503	0.86188
C	1.32677	1.59707	0.970235
O	0.609018	2.14352	1.79651
H	3.01802	2.70637	1.62102
H	2.987	2.33793	-0.148417
H	3.38427	1.0325	1.04488
N	0.870794	0.668192	0.12665
C	-0.503189	0.233745	0.110684
C	-0.553418	-1.12847	-0.553455
O	0.410649	-1.55528	-1.1861
H	1.4719	0.209382	-0.522272
H	-0.846653	0.115341	1.13053
C	-1.39983	1.23175	-0.655557
H	-1.04424	1.35134	-1.7012
H	-2.45849	0.900367	-0.669659
H	-1.35342	2.22588	-0.159864
N	-1.67862	-1.85507	-0.405198
C	-1.813	-3.16808	-0.991823
H	-2.44514	-1.49518	0.116485
H	-2.81026	-3.60246	-0.759343
H	-1.03047	-3.85635	-0.597903
H	-1.70221	-3.11705	-2.09921
C	873.791	1.63704	-0.708701
C	872.898	0.898645	0.212346
O	873.285	0.537087	1.31488
H	874.785	1.76832	-0.229442
H	873.365	2.63767	-0.933775
H	873.919	1.06931	-1.65423
N	871.663	0.650223	-0.230903
C	870.68	-0.0572723	0.549863
C	869.635	-0.604879	-0.402521
O	869.575	-0.209788	-1.56537
H	871.368	0.924495	-1.14248
H	871.156	-0.899648	1.03549
C	870.015	0.870157	1.59169
H	869.528	1.73359	1.09011
H	869.258	0.328551	2.19472
H	870.791	1.26563	2.28253
N	868.795	-1.54932	0.0662451
C	867.776	-2.13734	-0.771178
H	868.864	-1.861	1.00825
H	867.188	-2.89173	-0.203643
H	868.234	-2.64121	-1.65284
H	867.076	-1.35583	-1.1455
