44
  This energy is 2.97428e-321 and Call times are: 48705
C	3.13636	0.848387	-1.25285
C	2.23503	0.488571	-0.135114
O	2.67334	0.271523	0.986165
H	4.18585	0.867748	-0.886731
H	2.87474	1.85284	-1.64712
H	3.05378	0.0987334	-2.06781
N	0.933916	0.410909	-0.423977
C	-0.0657402	0.0722642	0.557264
C	-1.29282	-0.426588	-0.180745
O	-1.41118	-0.253701	-1.39233
H	0.592428	0.561499	-1.34791
H	0.303252	-0.74097	1.16928
C	-0.431299	1.29223	1.432
H	-0.808838	2.12486	0.800875
H	-1.20068	1.03495	2.18873
H	0.476153	1.64882	1.96634
N	-2.22946	-1.08043	0.534233
C	-3.42564	-1.60162	-0.085207
H	-2.11198	-1.2165	1.51245
H	-4.07178	-2.10381	0.668149
H	-3.16761	-2.34313	-0.875663
H	-4.01205	-0.781545	-0.559313
C	2310.79	1.71511	-2.69196
C	2309.68	0.983	-2.05177
O	2308.58	0.910117	-2.58638
H	2310.44	2.14283	-3.65751
H	2311.64	1.02504	-2.8887
H	2311.13	2.54219	-2.03486
N	2309.94	0.420647	-0.869328
C	2308.95	-0.324446	-0.124424
C	2309.39	-0.357358	1.32601
O	2310.54	-0.0332154	1.64309
H	2310.83	0.511815	-0.430588
H	2308.01	0.199527	-0.168741
C	2308.81	-1.76327	-0.668097
H	2309.78	-2.29768	-0.621784
H	2308.05	-2.33974	-0.0968851
H	2308.49	-1.7254	-1.73154
N	2308.49	-0.731512	2.24745
C	2308.81	-0.781347	3.65373
H	2307.56	-0.983245	1.97163
H	2307.93	-1.11361	4.24934
H	2309.12	0.223206	4.02049
H	2309.65	-1.49216	3.83822
