44
  This energy is 1.2193e-319 and Call times are: 17541
C	-1.26673	-3.16251	0.721159
C	-0.915736	-2.08778	-0.234334
O	-0.982884	-2.26861	-1.44234
H	-1.56504	-4.07267	0.156829
H	-2.11532	-2.84271	1.36182
H	-0.392562	-3.40664	1.36082
N	-0.521383	-0.927962	0.296395
C	-0.147752	0.21088	-0.503772
C	0.711147	1.1206	0.352934
O	0.768885	0.96635	1.57142
H	-0.442927	-0.802436	1.2818
H	0.458193	-0.1267	-1.335
C	-1.39148	0.975593	-1.00921
H	-2.01118	1.31988	-0.153899
H	-1.10741	1.85302	-1.62581
H	-2.01289	0.298008	-1.6344
N	1.41932	2.08206	-0.271629
C	2.27375	2.98752	0.460681
H	1.36473	2.18624	-1.25925
H	2.76871	3.70587	-0.229415
H	3.06486	2.42526	1.00772
H	1.68392	3.56767	1.20681
C	835.012	-2.74245	-1.18732
C	835.089	-1.45225	-0.465741
O	834.078	-0.882265	-0.0795175
H	833.947	-3.04058	-1.29415
H	835.551	-3.53063	-0.620243
H	835.461	-2.64307	-2.19823
N	836.312	-0.953779	-0.27087
C	836.549	0.291589	0.414695
C	837.92	0.794669	0.00736333
O	838.714	0.0556436	-0.571037
H	837.127	-1.4132	-0.615906
H	835.819	1.01972	0.083159
C	836.483	0.111079	1.94773
H	837.232	-0.637042	2.28433
H	836.664	1.06811	2.47872
H	835.474	-0.258862	2.2331
N	838.222	2.07888	0.282527
C	839.499	2.649	-0.0784426
H	837.563	2.66293	0.74485
H	839.556	3.71506	0.23383
H	839.655	2.59777	-1.18042
H	840.33	2.09433	0.413879
