44
  This energy is 1.00735e-319 and Call times are: 115905
C	0.245307	1.6565	-3.05319
C	0.503332	0.487925	-2.18195
O	0.986583	-0.541964	-2.63172
H	0.548895	1.41248	-4.09442
H	0.832478	2.53154	-2.70341
H	-0.835798	1.90963	-3.044
N	0.175099	0.623762	-0.895022
C	0.366423	-0.424447	0.0752782
C	-0.554855	-0.148057	1.2475
O	-1.0999	0.94681	1.3741
H	-0.244855	1.45753	-0.546586
H	0.0673431	-1.36825	-0.362741
C	1.83364	-0.485405	0.555555
H	2.13735	0.484651	1.00374
H	1.98451	-1.29154	1.30265
H	2.49838	-0.687206	-0.312514
N	-0.767628	-1.14861	2.12478
C	-1.63851	-0.981497	3.26487
H	-0.322941	-2.02962	2.00105
H	-1.68184	-1.9158	3.86691
H	-2.67237	-0.728373	2.93577
H	-1.2737	-0.158203	3.92083
C	5491.67	1.1667	2.37304
C	5491	0.066647	1.64226
O	5491.36	-1.09405	1.77687
H	5492.49	0.748343	2.99709
H	5490.94	1.68411	3.03405
H	5492.1	1.89633	1.65568
N	5489.99	0.415567	0.834474
C	5489.25	-0.541324	0.0578845
C	5488.58	0.202306	-1.08526
O	5488.52	1.43025	-1.08364
H	5489.73	1.36776	0.71114
H	5489.93	-1.25935	-0.371395
C	5488.18	-1.25344	0.918399
H	5487.48	-0.51383	1.35777
H	5487.6	-1.99104	0.323575
H	5488.68	-1.7934	1.75286
N	5488.09	-0.528934	-2.10421
C	5487.45	0.0928687	-3.24122
H	5488.16	-1.52117	-2.09038
H	5487.11	-0.675394	-3.97027
H	5488.16	0.780529	-3.7604
H	5486.57	0.686662	-2.91893
