44
  This energy is 8.53745e-320 and Call times are: 115275
C	-0.0554731	-0.999131	-3.33538
C	0.484476	-0.171253	-2.23344
O	1.46969	0.535171	-2.39721
H	0.570553	-0.856231	-4.24287
H	-1.09811	-0.69538	-3.56661
H	-0.0377534	-2.07257	-3.05191
N	-0.157541	-0.247011	-1.06535
C	0.247917	0.498778	0.0992242
C	-0.330181	-0.191665	1.3192
O	-1.20725	-1.04536	1.20173
H	-0.941496	-0.848442	-0.936392
H	1.32682	0.463443	0.181635
C	-0.247418	1.96069	0.0315479
H	-1.35458	1.99321	-0.0536212
H	0.0631704	2.53784	0.926651
H	0.182087	2.45501	-0.866962
N	0.166992	0.148974	2.52451
C	-0.313627	-0.464028	3.74082
H	0.881548	0.836885	2.59814
H	0.217199	-0.0499193	4.62625
H	-0.149123	-1.56567	3.71715
H	-1.40503	-0.280595	3.86877
C	5462.53	-0.605265	-1.40611
C	5461.45	0.31311	-0.98106
O	5461.6	1.52642	-1.00944
H	5463.41	-0.0107097	-1.71574
H	5462.19	-1.2212	-2.26599
H	5462.82	-1.27107	-0.565863
N	5460.31	-0.256826	-0.56525
C	5459.17	0.50414	-0.121095
C	5458.31	-0.403059	0.737414
O	5458.49	-1.6192	0.743917
H	5460.21	-1.24694	-0.519241
H	5459.52	1.31975	0.502952
C	5458.35	1.03805	-1.31664
H	5458	0.198738	-1.95508
H	5457.47	1.62459	-0.978219
H	5458.99	1.7002	-1.93827
N	5457.37	0.174063	1.50269
C	5456.51	-0.608596	2.36123
H	5457.24	1.16052	1.48889
H	5455.79	0.0471024	2.90727
H	5457.11	-1.1719	3.11052
H	5455.92	-1.34506	1.76522
