44
  This energy is 5.8863e-320 and Call times are: 69663
C	-0.752585	-3.21327	1.11114
C	0.213074	-2.1306	0.816965
O	1.39139	-2.23175	1.12975
H	-0.226258	-4.04404	1.62947
H	-1.19294	-3.59983	0.168022
H	-1.56297	-2.83509	1.76933
N	-0.275933	-1.05035	0.203544
C	0.539265	0.0846361	-0.148717
C	-0.377502	1.27907	-0.32786
O	-1.59427	1.12908	-0.42172
H	-1.24349	-0.967697	-0.0199272
H	1.20965	0.304743	0.672388
C	1.33362	-0.175011	-1.44822
H	0.642838	-0.401141	-2.28833
H	1.96251	0.696868	-1.72228
H	2.00042	-1.05298	-1.30437
N	0.187763	2.50202	-0.357607
C	-0.606837	3.69817	-0.512568
H	1.17358	2.60309	-0.272875
H	0.0404945	4.60272	-0.515016
H	-1.33957	3.79383	0.32121
H	-1.17527	3.67111	-1.47034
C	3305.65	-0.976754	3.09995
C	3305.18	-1.2848	1.73177
O	3305.27	-2.4141	1.27028
H	3306.07	-1.89857	3.5604
H	3304.81	-0.613414	3.72405
H	3306.44	-0.201475	3.06468
N	3304.66	-0.267213	1.0408
C	3304.15	-0.410258	-0.301971
C	3304.14	0.963775	-0.943122
O	3304.27	1.97751	-0.260149
H	3304.62	0.654512	1.41713
H	3304.84	-1.03095	-0.869133
C	3302.73	-1.014	-0.308254
H	3302.03	-0.37508	0.275035
H	3302.34	-1.12565	-1.34062
H	3302.76	-2.01975	0.165082
N	3304	1.0275	-2.28182
C	3303.99	2.29131	-2.98096
H	3303.9	0.195501	-2.81771
H	3303.86	2.13435	-4.07478
H	3304.94	2.84205	-2.81454
H	3303.15	2.93226	-2.61905
