44
  This energy is 1.08531e-319 and Call times are: 83943
C	-2.32971	2.58337	-0.157505
C	-1.31846	1.70261	-0.784279
O	-1.13038	1.7156	-1.99298
H	-2.82981	3.18727	-0.945581
H	-1.84288	3.27	0.566616
H	-3.09486	1.97419	0.368231
N	-0.638722	0.900743	0.0387232
C	0.377095	-0.011973	-0.421596
C	0.550747	-1.08668	0.63391
O	0.0771882	-0.944439	1.75967
H	-0.821538	0.878529	1.01802
H	0.0327512	-0.493668	-1.32795
C	1.71833	0.715345	-0.664923
H	2.06832	1.20893	0.266739
H	2.50269	0.0155158	-1.01959
H	1.57747	1.50077	-1.43914
N	1.21977	-2.20322	0.284993
C	1.424	-3.28502	1.21997
H	1.58923	-2.30247	-0.633092
H	1.997	-4.11195	0.745511
H	0.447486	-3.6912	1.57022
H	1.99094	-2.93208	2.11171
C	3980.89	-1.59345	1.11506
C	3979.51	-1.10501	1.32644
O	3978.89	-1.37776	2.34616
H	3981.2	-2.20263	1.991
H	3981.59	-0.73573	1.00716
H	3980.94	-2.22485	0.202905
N	3978.98	-0.364309	0.346799
C	3977.65	0.182563	0.406835
C	3977.21	0.491821	-1.0106
O	3978.02	0.510335	-1.93218
H	3979.49	-0.17339	-0.491801
H	3976.98	-0.568515	0.803671
C	3977.61	1.46436	1.26836
H	3978.3	2.23248	0.85881
H	3976.58	1.88799	1.31685
H	3977.93	1.2247	2.30384
N	3975.9	0.721672	-1.22126
C	3975.39	1.01256	-2.53939
H	3975.26	0.695142	-0.4636
H	3974.29	1.17316	-2.50593
H	3975.6	0.170276	-3.2377
H	3975.86	1.93095	-2.95303
