44
  This energy is 1.53536e-319 and Call times are: 79449
C	1.90062	1.92776	2.19032
C	1.32429	1.66491	0.852428
O	1.41338	2.48859	-0.047632
H	2.37389	2.93367	2.19519
H	2.67224	1.16644	2.43078
H	1.10314	1.90203	2.96252
N	0.705126	0.492869	0.693311
C	0.0952048	0.0934992	-0.549801
C	-0.923067	-0.987369	-0.243068
O	-0.933646	-1.54883	0.850771
H	0.613823	-0.157471	1.44275
H	-0.437539	0.938253	-0.967711
C	1.14833	-0.436684	-1.54827
H	1.69343	-1.30282	-1.11606
H	0.682122	-0.74494	-2.5066
H	1.88899	0.364008	-1.76381
N	-1.82165	-1.28954	-1.2008
C	-2.83611	-2.29675	-0.994423
H	-1.80115	-0.818949	-2.07678
H	-3.47665	-2.40062	-1.89784
H	-3.48772	-2.02712	-0.131903
H	-2.37019	-3.2856	-0.779272
C	3769.03	1.40774	2.37199
C	3767.68	1.19406	1.79408
O	3766.68	1.60134	2.36185
H	3768.93	1.95457	3.33508
H	3769.65	2.00978	1.67777
H	3769.52	0.431869	2.56075
N	3767.63	0.533685	0.634846
C	3766.39	0.24923	-0.0504372
C	3766.64	-0.911261	-0.99452
O	3767.79	-1.27121	-1.26163
H	3768.45	0.18151	0.196838
H	3765.66	-0.0679798	0.674073
C	3765.89	1.47897	-0.840126
H	3766.65	1.80211	-1.58201
H	3764.94	1.26346	-1.36888
H	3765.72	2.32239	-0.13749
N	3765.57	-1.5405	-1.50696
C	3765.7	-2.66315	-2.40518
H	3764.65	-1.23874	-1.27306
H	3764.71	-3.04128	-2.71822
H	3766.26	-3.49597	-1.91137
H	3766.27	-2.36851	-3.31862
