44
  This energy is 2.79147e-321 and Call times are: 86085
C	3.17863	0.919483	1.08488
C	2.27842	0.153885	0.193433
O	2.71883	-0.488794	-0.749701
H	4.22813	0.798633	0.73874
H	3.09788	0.541947	2.12592
H	2.91437	1.99771	1.06149
N	0.974711	0.212436	0.474986
C	-0.0241991	-0.478852	-0.300338
C	-1.35796	0.198271	-0.0516792
O	-1.4976	0.98886	0.87961
H	0.625641	0.763017	1.22861
H	0.209007	-0.369934	-1.35192
C	-0.105355	-1.97164	0.0896798
H	-0.344089	-2.07969	1.16924
H	-0.873439	-2.50696	-0.505515
H	0.878066	-2.45593	-0.0960298
N	-2.3686	-0.08186	-0.897924
C	-3.67081	0.524424	-0.746727
H	-2.23369	-0.718865	-1.64976
H	-4.36564	0.166197	-1.53801
H	-3.59855	1.63379	-0.819741
H	-4.10927	0.271575	0.245744
C	4078.79	-2.34688	0.941204
C	4078.29	-1.29159	0.0322376
O	4078.99	-0.851211	-0.871232
H	4079.83	-2.61459	0.654752
H	4078.16	-3.25236	0.864907
H	4078.79	-1.98142	1.98972
N	4077.05	-0.852568	0.260177
C	4076.43	0.170186	-0.538905
C	4075.3	0.773328	0.276375
O	4074.89	0.218794	1.29656
H	4076.51	-1.19864	1.01746
H	4077.15	0.954252	-0.734605
C	4075.88	-0.408031	-1.86139
H	4075.14	-1.21256	-1.65692
H	4075.39	0.376834	-2.47918
H	4076.71	-0.847829	-2.44878
N	4074.78	1.94209	-0.146122
C	4073.71	2.59698	0.572573
H	4075.12	2.37873	-0.970164
H	4073.42	3.54364	0.0666478
H	4074.03	2.83886	1.61287
H	4072.81	1.93871	0.629247
