44
  This energy is 1.40912e-319 and Call times are: 117417
C	-0.757414	3.2704	-0.925697
C	-0.774183	2.15651	0.0490682
O	-1.16079	2.32644	1.19718
H	-1.12723	4.19557	-0.432588
H	-1.4165	3.03452	-1.78755
H	0.277105	3.4457	-1.289
N	-0.341852	0.973829	-0.394459
C	-0.298791	-0.203841	0.43504
C	0.689064	-1.17366	-0.183691
O	1.09647	-1.00887	-1.33204
H	-0.00206131	0.855037	-1.32363
H	0.0763788	0.0684217	1.4134
C	-1.69131	-0.863601	0.547887
H	-2.07346	-1.14102	-0.457652
H	-1.66179	-1.77062	1.18603
H	-2.40596	-0.142679	1.00142
N	1.11547	-2.20155	0.576329
C	2.0647	-3.16839	0.0759691
H	0.779475	-2.31367	1.50572
H	2.28831	-3.93635	0.84894
H	3.01943	-2.67019	-0.209575
H	1.66177	-3.6848	-0.825215
C	5564.22	1.99509	-0.447462
C	5563.58	0.700376	-0.123155
O	5564.24	-0.314568	0.0270344
H	5565.32	1.85234	-0.522836
H	5564.01	2.73729	0.350629
H	5563.84	2.37763	-1.41809
N	5562.25	0.707904	-0.012364
C	5561.48	-0.472955	0.299142
C	5560.06	-0.238374	-0.159172
O	5559.67	0.890124	-0.456618
H	5561.71	1.53519	-0.165731
H	5561.88	-1.30724	-0.266965
C	5561.51	-0.778097	1.81348
H	5561.11	0.0801199	2.39125
H	5560.92	-1.68683	2.05682
H	5562.56	-0.946804	2.13693
N	5559.24	-1.30992	-0.247709
C	5557.87	-1.18495	-0.6861
H	5559.58	-2.21592	-0.00937336
H	5557.37	-2.17672	-0.69006
H	5557.83	-0.7644	-1.71676
H	5557.31	-0.505674	-0.0103512
