44
  This energy is 7.64715e-320 and Call times are: 21867
C	0.974176	-1.53884	2.96801
C	0.726492	-1.56459	1.50884
O	1.03542	-2.53553	0.831845
H	1.45731	-2.4917	3.27541
H	0.0153301	-1.42869	3.51692
H	1.64725	-0.694618	3.22726
N	0.158896	-0.475933	0.9844
C	-0.144698	-0.351683	-0.41889
C	-0.273837	1.1249	-0.738679
O	-0.374654	1.95652	0.161363
H	-0.0614565	0.320189	1.54169
H	0.685353	-0.741504	-0.994327
C	-1.45353	-1.08965	-0.778732
H	-2.30284	-0.68769	-0.186103
H	-1.6902	-0.996137	-1.85856
H	-1.34645	-2.16996	-0.538695
N	-0.251642	1.48772	-2.03632
C	-0.356476	2.87176	-2.43584
H	-0.162144	0.800467	-2.74969
H	-0.320389	2.96509	-3.54365
H	0.480165	3.46911	-2.00637
H	-1.31487	3.31273	-2.07778
C	1042.56	2.0361	-2.74653
C	1042.39	1.82953	-1.29093
O	1042.63	2.72237	-0.49176
H	1042.93	3.06835	-2.92969
H	1041.59	1.90407	-3.26938
H	1043.3	1.31257	-3.15098
N	1041.96	0.624096	-0.909818
C	1041.74	0.271855	0.470765
C	1041.78	-1.24038	0.576657
O	1041.71	-1.94267	-0.430518
H	1041.79	-0.104199	-1.5685
H	1042.56	0.661883	1.0654
C	1040.39	0.809622	0.982958
H	1039.55	0.40804	0.370278
H	1040.22	0.540314	2.04573
H	1040.38	1.91819	0.899012
N	1041.9	-1.77823	1.80586
C	1041.96	-3.20805	2.00315
H	1041.96	-1.19291	2.60788
H	1042.06	-3.45238	3.08341
H	1042.82	-3.64733	1.46026
H	1041.03	-3.69261	1.62076
