44
  This energy is 6.65161e-320 and Call times are: 51099
C	-0.764814	0.26975	-3.38651
C	-1.16232	0.236247	-1.961
O	-2.31141	0.479193	-1.61887
H	-1.6459	0.542356	-4.00718
H	-0.39622	-0.728185	-3.70444
H	0.0332836	1.02556	-3.54376
N	-0.201562	-0.0652281	-1.0844
C	-0.433999	-0.137164	0.336033
C	0.901921	0.0222933	1.03541
O	1.95514	-0.0725464	0.408068
H	0.737376	-0.232588	-1.37305
H	-1.06167	0.693668	0.632381
C	-1.08397	-1.48165	0.732271
H	-0.437725	-2.33182	0.426177
H	-1.26447	-1.54033	1.82532
H	-2.06117	-1.5869	0.212509
N	0.888066	0.291564	2.35575
C	2.11088	0.471374	3.10313
H	0.0253332	0.371546	2.84414
H	1.89055	0.68296	4.17268
H	2.70115	1.3221	2.69195
H	2.7425	-0.444807	3.04977
C	2424.17	2.90923	1.75211
C	2424.48	1.88319	0.73178
O	2425.44	2.00954	-0.0204869
H	2424.91	3.73298	1.68393
H	2424.22	2.465	2.76856
H	2423.16	3.32553	1.57862
N	2423.66	0.829843	0.680357
C	2423.84	-0.250155	-0.257834
C	2422.51	-0.964343	-0.39788
O	2421.6	-0.762457	0.404657
H	2422.87	0.752596	1.2792
H	2424.09	0.162236	-1.2257
C	2424.92	-1.2397	0.218633
H	2424.66	-1.66034	1.21211
H	2425.06	-2.07247	-0.501524
H	2425.89	-0.704072	0.318409
N	2422.36	-1.80472	-1.44037
C	2421.12	-2.51959	-1.66121
H	2423.1	-1.94924	-2.08294
H	2421.19	-3.16086	-2.56711
H	2420.27	-1.80818	-1.80285
H	2420.88	-3.17049	-0.789147
