44
  This energy is 1.35473e-320 and Call times are: 55215
C	-2.19442	1.51747	2.23784
C	-1.83757	0.428542	1.30077
O	-2.54219	-0.565057	1.18784
H	-3.13835	1.25524	2.76328
H	-2.34442	2.4668	1.68188
H	-1.38981	1.65362	2.99084
N	-0.71237	0.593076	0.601326
C	-0.23392	-0.378479	-0.34946
C	1.25082	-0.143598	-0.548511
O	1.78225	0.89165	-0.151425
H	-0.131732	1.3936	0.723616
H	-0.357062	-1.3697	0.0681327
C	-0.976491	-0.257868	-1.69896
H	-0.848612	0.760431	-2.1242
H	-0.610651	-1.00461	-2.43334
H	-2.06312	-0.430823	-1.5394
N	1.96199	-1.11575	-1.1528
C	3.38327	-0.985601	-1.37459
H	1.51497	-1.94923	-1.46056
H	3.7857	-1.88768	-1.88601
H	3.92209	-0.861422	-0.40738
H	3.60234	-0.0960396	-2.00852
C	2618.92	0.219306	3.17115
C	2619.02	-0.0410971	1.71709
O	2620.1	-0.224212	1.17694
H	2619.94	0.218512	3.61214
H	2618.32	-0.571824	3.66264
H	2618.45	1.2091	3.35287
N	2617.87	-0.0574459	1.04082
C	2617.8	-0.297785	-0.378425
C	2616.48	0.257171	-0.881077
O	2615.59	0.565832	-0.0941737
H	2616.99	0.12203	1.48724
H	2618.59	0.250314	-0.867378
C	2617.9	-1.80599	-0.698993
H	2617.08	-2.36532	-0.195265
H	2617.84	-1.9946	-1.79097
H	2618.87	-2.20069	-0.324702
N	2616.33	0.417686	-2.21128
C	2615.12	0.950324	-2.78071
H	2617.07	0.168696	-2.83116
H	2615.19	1.00352	-3.8892
H	2614.92	1.97581	-2.39333
H	2614.25	0.307319	-2.51884
