44
  This energy is 1.04327e-319 and Call times are: 64791
C	2.04147	0.870271	2.6835
C	1.19833	1.22686	1.52024
O	0.917832	2.39223	1.27586
H	2.32514	1.79637	3.22915
H	2.9651	0.356426	2.34335
H	1.48089	0.204358	3.37288
N	0.7645	0.212066	0.769007
C	-0.0638321	0.399747	-0.39524
C	-0.775584	-0.90926	-0.67657
O	-0.415259	-1.95058	-0.131001
H	0.975791	-0.735083	0.995281
H	-0.818634	1.14361	-0.17384
C	0.776353	0.82181	-1.62124
H	1.55012	0.0567805	-1.84514
H	0.141641	0.967328	-2.51943
H	1.29354	1.78129	-1.402
N	-1.82319	-0.881654	-1.52378
C	-2.569	-2.07682	-1.84242
H	-2.1038	-0.0277622	-1.94964
H	-3.39022	-1.84902	-2.55723
H	-3.01725	-2.51717	-0.922417
H	-1.90496	-2.84321	-2.30381
C	3074.81	1.41385	2.4691
C	3074.34	1.3146	1.06653
O	3074.71	2.11951	0.221193
H	3075.48	2.29147	2.57203
H	3075.37	0.496792	2.75382
H	3073.94	1.54529	3.15001
N	3073.51	0.310429	0.786989
C	3072.98	0.0831467	-0.531494
C	3071.72	-0.755587	-0.386473
O	3071.46	-1.32637	0.672131
H	3073.2	-0.321405	1.49073
H	3072.69	1.03346	-0.963096
C	3074	-0.641261	-1.43635
H	3074.29	-1.61546	-0.99025
H	3073.59	-0.817714	-2.45238
H	3074.91	-0.017221	-1.53363
N	3070.89	-0.831527	-1.4476
C	3069.67	-1.59691	-1.39835
H	3071.11	-0.356609	-2.29309
H	3069.13	-1.53712	-2.36867
H	3069	-1.21136	-0.598192
H	3069.88	-2.66846	-1.18208
