44
  This energy is 8.32007e-321 and Call times are: 73779
C	-1.39355	-1.47633	2.82924
C	-1.41672	-1.15173	1.38518
O	-2.26373	-1.62945	0.642987
H	-2.22261	-2.17978	3.06091
H	-1.52705	-0.552889	3.43112
H	-0.429128	-1.95636	3.09833
N	-0.466135	-0.322224	0.948521
C	-0.35837	0.087122	-0.429031
C	1.06142	0.565205	-0.663304
O	1.81143	0.795466	0.283422
H	0.235793	0.0373014	1.5576
H	-0.525251	-0.772512	-1.06563
C	-1.36041	1.21544	-0.760588
H	-1.1868	2.09549	-0.105229
H	-1.28022	1.53293	-1.82056
H	-2.39653	0.85304	-0.583772
N	1.47135	0.705079	-1.93939
C	2.80984	1.14356	-2.25931
H	0.851728	0.506911	-2.69174
H	2.95318	1.19752	-3.36103
H	3.5646	0.438384	-1.84181
H	3.0059	2.15286	-1.83029
C	3494.36	-1.18854	2.06538
C	3495.76	-1.19825	1.5878
O	3496.62	-1.86841	2.14989
H	3494.27	-1.84835	2.95565
H	3493.68	-1.56433	1.27029
H	3494.06	-0.158171	2.35015
N	3496.03	-0.436703	0.524887
C	3497.35	-0.3424	-0.0557591
C	3497.41	0.942953	-0.857613
O	3496.39	1.56282	-1.13489
H	3495.33	0.127289	0.0936061
H	3498.08	-0.271001	0.739379
C	3497.65	-1.55297	-0.967526
H	3496.89	-1.6236	-1.78173
H	3498.66	-1.48363	-1.41615
H	3497.6	-2.48827	-0.368588
N	3498.63	1.38613	-1.2317
C	3498.79	2.60661	-1.98734
H	3499.45	0.874048	-0.991465
H	3499.86	2.79974	-2.1994
H	3498.38	3.47548	-1.42119
H	3498.24	2.54199	-2.95804
