44
  This energy is 1.26975e-319 and Call times are: 47319
C	1.53262	-2.60047	1.7363
C	1.23689	-1.86747	0.484721
O	1.79441	-2.15731	-0.564878
H	2.29619	-3.38229	1.53239
H	0.612256	-3.08857	2.12038
H	1.92864	-1.9029	2.50409
N	0.341597	-0.881023	0.572637
C	-0.050311	-0.0780873	-0.558085
C	-0.636738	1.21644	-0.0293759
O	-0.943512	1.32967	1.15591
H	-0.0840781	-0.635503	1.4395
H	0.83124	0.171518	-1.13483
C	-1.08827	-0.811891	-1.43632
H	-1.99104	-1.06704	-0.841324
H	-1.39211	-0.196513	-2.30797
H	-0.64695	-1.75894	-1.81643
N	-0.78621	2.23573	-0.898116
C	-1.3251	3.50978	-0.482691
H	-0.525392	2.12674	-1.8517
H	-1.37063	4.21612	-1.34075
H	-0.6905	3.96441	0.312194
H	-2.35443	3.38694	-0.0745646
C	2244.99	-0.155263	-3.22135
C	2245.34	-0.782063	-1.92681
O	2245	-1.92813	-1.66661
H	2244.4	-0.877488	-3.83347
H	2245.91	0.122027	-3.7739
H	2244.37	0.752649	-3.05283
N	2246.03	-0.0278812	-1.07116
C	2246.44	-0.497759	0.226736
C	2246.72	0.714449	1.09487
O	2246.83	1.83367	0.596678
H	2246.28	0.914289	-1.2832
H	2245.63	-1.04727	0.678825
C	2247.71	-1.37979	0.128443
H	2248.54	-0.813149	-0.3364
H	2248.03	-1.74342	1.12603
H	2247.49	-2.26361	-0.510973
N	2246.82	0.520743	2.4245
C	2247.07	1.61731	3.33078
H	2246.73	-0.391556	2.8091
H	2247.13	1.25519	4.38119
H	2246.26	2.37665	3.26202
H	2248.04	2.11927	3.08431
