44
  This energy is 4.18078e-320 and Call times are: 38121
C	-1.20719	1.79499	2.72889
C	-0.116486	1.10392	2.00502
O	1.0382	1.15119	2.40622
H	-0.786726	2.31526	3.6168
H	-1.96635	1.05973	3.0693
H	-1.69006	2.54528	2.06794
N	-0.465225	0.440676	0.900096
C	0.483044	-0.280659	0.0893628
C	-0.118705	-0.449827	-1.29213
O	-1.3134	-0.234971	-1.488
H	-1.40454	0.433887	0.567556
H	1.38183	0.313984	-0.0139026
C	0.808872	-1.66211	0.699723
H	-0.115492	-2.26925	0.804864
H	1.53887	-2.22015	0.0780523
H	1.24787	-1.52449	1.71189
N	0.70548	-0.820306	-2.29186
C	0.224293	-0.994592	-3.64252
H	1.67062	-0.982508	-2.1146
H	1.0524	-1.30239	-4.31835
H	-0.210052	-0.0448129	-4.03047
H	-0.567912	-1.77703	-3.67965
C	1811.46	2.05723	-1.16272
C	1810.03	1.77294	-0.917239
O	1809.17	2.62759	-1.10255
H	1811.57	3.10797	-1.50809
H	1811.85	1.37738	-1.94609
H	1812.04	1.92236	-0.227358
N	1809.73	0.545827	-0.481697
C	1808.38	0.119442	-0.198792
C	1808.46	-1.07411	0.733423
O	1809.52	-1.6654	0.91317
H	1810.44	-0.132385	-0.306792
H	1807.87	0.913344	0.324358
C	1807.63	-0.263667	-1.49284
H	1808.17	-1.07789	-2.02734
H	1806.59	-0.592314	-1.27865
H	1807.58	0.618674	-2.16767
N	1807.33	-1.44365	1.36811
C	1807.31	-2.56064	2.28356
H	1806.48	-0.948	1.21484
H	1806.29	-2.70674	2.70159
H	1808.01	-2.38885	3.1297
H	1807.61	-3.499	1.76599
