44
  This energy is 9.69604e-320 and Call times are: 10569
C	-0.836924	-0.535802	-3.33745
C	-0.340773	-1.01338	-2.02713
O	-0.134309	-2.20189	-1.8239
H	-0.971905	-1.40452	-4.01788
H	-0.105385	0.165609	-3.79099
H	-1.81322	-0.0217087	-3.21293
N	-0.14134	-0.0808038	-1.09284
C	0.339076	-0.390035	0.23019
C	-0.0428135	0.757675	1.14461
O	-0.425842	1.83012	0.680947
H	-0.340967	0.880802	-1.26136
H	-0.165257	-1.27829	0.588977
C	1.87109	-0.589887	0.239878
H	2.38528	0.323	-0.129403
H	2.24434	-0.82829	1.25704
H	2.13796	-1.43251	-0.434597
N	0.0326929	0.549572	2.47389
C	-0.322123	1.58031	3.42144
H	0.338162	-0.327612	2.82952
H	-0.191671	1.21721	4.4647
H	-1.3845	1.88806	3.28773
H	0.318505	2.48088	3.28086
C	504.417	-0.663793	0.493435
C	505.636	-0.669076	-0.347288
O	505.647	-1.21514	-1.44191
H	503.606	-1.21314	-0.0319789
H	504.084	0.379221	0.677624
H	504.62	-1.1637	1.46403
N	506.708	-0.0551292	0.158529
C	507.966	0.0238077	-0.540422
C	509.051	0.29617	0.482852
O	508.764	0.657393	1.62258
H	506.695	0.360793	1.06394
H	508.176	-0.935666	-0.995633
C	507.948	1.14218	-1.60627
H	507.731	2.12498	-1.13592
H	508.915	1.20563	-2.14646
H	507.148	0.931626	-2.34915
N	510.33	0.10683	0.102957
C	511.429	0.329627	1.01284
H	510.541	-0.192643	-0.821627
H	512.401	0.121984	0.513475
H	511.344	-0.334976	1.90288
H	511.437	1.38506	1.36947
