44
  This energy is 1.33931e-319 and Call times are: 123381
C	-0.452752	1.08163	3.2789
C	-0.740904	0.152242	2.16338
O	-1.42132	-0.849854	2.33465
H	-0.934165	0.702526	4.20647
H	-0.857	2.09025	3.05066
H	0.642818	1.15184	3.44546
N	-0.214788	0.467848	0.977643
C	-0.406691	-0.337511	-0.201932
C	0.703354	-0.00385593	-1.17954
O	1.40662	0.991432	-1.01629
H	0.36194	1.27152	0.857516
H	-0.306952	-1.38194	0.0650569
C	-1.78347	-0.067966	-0.849197
H	-1.88265	1.00454	-1.12123
H	-1.93458	-0.686565	-1.75764
H	-2.58795	-0.315124	-0.122654
N	0.900559	-0.846292	-2.21269
C	1.94152	-0.616226	-3.18719
H	0.325519	-1.65021	-2.32351
H	1.94209	-1.41757	-3.95862
H	2.94196	-0.60076	-2.69717
H	1.79222	0.362416	-3.69822
C	5843.54	-1.80774	-2.95651
C	5842.85	-0.800264	-2.11931
O	5841.96	-0.102058	-2.5773
H	5843.12	-1.78486	-3.98347
H	5843.4	-2.82281	-2.53036
H	5844.63	-1.58144	-3.01178
N	5843.27	-0.698336	-0.853713
C	5842.69	0.234976	0.0826424
C	5843.7	0.451435	1.19864
O	5844.66	-0.301362	1.33297
H	5844.01	-1.25256	-0.500562
H	5842.54	1.18513	-0.414341
C	5841.36	-0.294587	0.660644
H	5841.52	-1.26975	1.16918
H	5840.92	0.421678	1.38189
H	5840.63	-0.450123	-0.166886
N	5843.5	1.50532	2.01623
C	5844.41	1.79728	3.09912
H	5842.72	2.10703	1.88678
H	5844.08	2.7014	3.65692
H	5845.44	1.98091	2.70995
H	5844.46	0.943206	3.81282
