44
  This energy is 1.59455e-319 and Call times are: 60759
C	-2.38265	-1.46555	-2.07395
C	-1.90392	-1.03939	-0.73963
O	-2.62929	-1.10483	0.243249
H	-3.43548	-1.81312	-1.99266
H	-1.75739	-2.29962	-2.45631
H	-2.33902	-0.614721	-2.78609
N	-0.651816	-0.580319	-0.67762
C	-0.0445231	-0.129272	0.548993
C	1.11821	0.774714	0.1883
O	1.55392	0.810127	-0.96093
H	-0.0806304	-0.50465	-1.49061
H	-0.763358	0.463533	1.10029
C	0.451657	-1.31846	1.40149
H	1.18842	-1.92484	0.832628
H	0.919686	-0.974734	2.34678
H	-0.409199	-1.97363	1.65806
N	1.63566	1.54695	1.16395
C	2.73623	2.44752	0.911125
H	1.26453	1.5092	2.08594
H	3.01918	2.99276	1.83843
H	2.46016	3.19693	0.134332
H	3.62775	1.88655	0.548253
C	2880.97	2.52408	2.34043
C	2880.88	1.11284	1.90414
O	2880.5	0.237784	2.67156
H	2880.67	2.60063	3.40644
H	2880.3	3.16077	1.72714
H	2882.02	2.88559	2.23963
N	2881.23	0.857308	0.641486
C	2881.19	-0.465686	0.0715152
C	2882.11	-0.4821	-1.13391
O	2882.53	0.566991	-1.61803
H	2881.56	1.57425	0.0347829
H	2881.58	-1.17183	0.793105
C	2879.75	-0.85279	-0.349939
H	2879.35	-0.125909	-1.08973
H	2879.72	-1.87098	-0.78908
H	2879.09	-0.83588	0.541631
N	2882.46	-1.6824	-1.63503
C	2883.34	-1.79667	-2.77376
H	2882.11	-2.52014	-1.22478
H	2883.51	-2.86465	-3.03536
H	2884.33	-1.32992	-2.55471
H	2882.9	-1.28262	-3.66098
