44
  This energy is 7.43322e-320 and Call times are: 82599
C	2.55216	-2.35555	0.252963
C	1.47376	-1.68109	-0.504247
O	1.3015	-1.90461	-1.69456
H	3.11308	-3.03069	-0.429248
H	2.12012	-2.95802	1.07952
H	3.25393	-1.60376	0.671622
N	0.71591	-0.821866	0.181141
C	-0.371793	-0.0896984	-0.416907
C	-0.652578	1.12042	0.452578
O	-0.181204	1.20368	1.58514
H	0.884754	-0.626539	1.14357
H	-0.0613194	0.269307	-1.38994
C	-1.64005	-0.96402	-0.536114
H	-1.95538	-1.33116	0.46383
H	-2.47949	-0.403394	-0.996349
H	-1.42091	-1.84761	-1.17438
N	-1.41432	2.10193	-0.0693266
C	-1.72481	3.29695	0.680149
H	-1.78058	2.01907	-0.990318
H	-2.36367	3.98226	0.0806146
H	-0.792432	3.84003	0.957616
H	-2.26827	3.04219	1.61872
C	3911.35	0.534388	-2.19982
C	3912.53	1.01295	-1.43384
O	3912.97	2.14214	-1.59425
H	3911.01	1.33997	-2.88343
H	3910.53	0.270662	-1.50778
H	3911.63	-0.356131	-2.80362
N	3913.07	0.146326	-0.574147
C	3914.21	0.465598	0.242226
C	3914.85	-0.838135	0.673986
O	3914.26	-1.90616	0.541967
H	3912.72	-0.780591	-0.473719
H	3914.93	1.00492	-0.358398
C	3913.8	1.29334	1.48171
H	3913.06	0.737375	2.09526
H	3914.68	1.54105	2.11244
H	3913.33	2.24517	1.15199
N	3916.1	-0.782061	1.18308
C	3916.8	-1.97341	1.60993
H	3916.57	0.0910797	1.27521
H	3917.81	-1.71994	2.00031
H	3916.92	-2.68366	0.760098
H	3916.23	-2.49269	2.41595
