44
  This energy is 1.26431e-320 and Call times are: 73947
C	2.00794	1.74151	-2.24976
C	1.82235	0.737781	-1.17772
O	2.73896	0.00544666	-0.831294
H	3.05007	1.68197	-2.63224
H	1.82866	2.76283	-1.85281
H	1.30599	1.54205	-3.08668
N	0.608651	0.678236	-0.624774
C	0.27443	-0.2459	0.429312
C	-1.23308	-0.408355	0.445874
O	-1.95623	0.372223	-0.170221
H	-0.137941	1.26031	-0.935788
H	0.706862	-1.21173	0.200719
C	0.769007	0.263328	1.80161
H	0.323963	1.25463	2.03263
H	0.513447	-0.445939	2.61549
H	1.87447	0.37929	1.77605
N	-1.74239	-1.44608	1.13849
C	-3.16509	-1.68724	1.20119
H	-1.14022	-2.07086	1.62459
H	-3.38484	-2.58535	1.81954
H	-3.58066	-1.85389	0.181006
H	-3.69226	-0.814613	1.65042
C	3506.96	0.431676	2.77126
C	3506	-0.360859	1.98025
O	3505.72	-1.51263	2.28723
H	3507.35	-0.188706	3.60996
H	3506.47	1.33378	3.18881
H	3507.82	0.741006	2.13253
N	3505.45	0.248497	0.92311
C	3504.5	-0.392089	0.0575869
C	3504.5	0.34559	-1.2672
O	3505.04	1.446	-1.37281
H	3505.71	1.17718	0.666463
H	3504.82	-1.4086	-0.131268
C	3503.08	-0.372052	0.673855
H	3502.75	0.672254	0.866917
H	3502.34	-0.86463	0.0100653
H	3503.09	-0.914513	1.64429
N	3503.91	-0.257695	-2.31982
C	3503.88	0.363428	-3.62333
H	3503.49	-1.1514	-2.21583
H	3503.35	-0.287887	-4.35502
H	3504.91	0.548363	-3.99875
H	3503.35	1.3416	-3.57825
