44
  This energy is 1.31318e-319 and Call times are: 11871
C	-1.83655	1.46039	2.57303
C	-1.74716	0.780532	1.26116
O	-2.75231	0.406063	0.672991
H	-2.90384	1.53902	2.87398
H	-1.40628	2.48168	2.50475
H	-1.28771	0.87915	3.34366
N	-0.519148	0.598764	0.769916
C	-0.270714	-0.0462328	-0.494635
C	1.16253	-0.541241	-0.491537
O	1.96007	-0.152255	0.359614
H	0.293393	0.882288	1.27224
H	-0.916994	-0.910406	-0.581812
C	-0.494766	0.925057	-1.67511
H	0.169337	1.81074	-1.58214
H	-0.304484	0.431609	-2.65034
H	-1.54791	1.28136	-1.66551
N	1.51781	-1.43328	-1.43707
C	2.85734	-1.96921	-1.50507
H	0.856001	-1.74119	-2.11267
H	2.95206	-2.68492	-2.35126
H	3.11453	-2.5048	-0.562599
H	3.60055	-1.15233	-1.65179
C	566.872	0.189743	-1.8758
C	567.869	-0.574451	-1.09201
O	567.682	-1.7491	-0.805733
H	566.009	-0.468636	-2.11334
H	567.324	0.546215	-2.82528
H	566.51	1.06033	-1.28948
N	568.964	0.0898939	-0.717356
C	570.023	-0.517592	0.0487406
C	570.807	0.592209	0.72173
O	570.664	1.76296	0.374419
H	569.091	1.0547	-0.931851
H	569.587	-1.13088	0.827033
C	570.957	-1.35806	-0.850353
H	571.402	-0.725935	-1.64807
H	571.773	-1.82738	-0.263634
H	570.371	-2.16674	-1.33842
N	571.643	0.2494	1.72147
C	572.422	1.23947	2.42833
H	571.74	-0.702624	1.99262
H	573.048	0.760417	3.21272
H	571.756	1.98593	2.919
H	573.094	1.7848	1.72707
