44
  This energy is 3.85569e-320 and Call times are: 119517
C	0.726646	3.14057	1.31718
C	0.807352	2.13175	0.236908
O	1.28986	2.40882	-0.852547
H	1.14952	4.10236	0.953871
H	1.30881	2.80285	2.20027
H	-0.331625	3.30185	1.61213
N	0.322475	0.920359	0.519376
C	0.330632	-0.165304	-0.428304
C	-0.719129	-1.16998	0.00512482
O	-1.21744	-1.1137	1.12778
H	-0.0945563	0.715379	1.40085
H	0.0415455	0.213893	-1.40027
C	1.71781	-0.842225	-0.496259
H	2.01155	-1.22948	0.502674
H	1.72767	-1.67854	-1.22514
H	2.47803	-0.0955878	-0.813684
N	-1.09649	-2.10488	-0.889062
C	-2.09795	-3.09542	-0.569562
H	-0.686632	-2.12944	-1.79496
H	-2.26832	-3.7752	-1.43335
H	-3.06553	-2.60693	-0.311849
H	-1.77843	-3.71021	0.302859
C	5657.59	2.57053	1.71416
C	5657.6	1.47646	0.717075
O	5656.57	1.11553	0.166941
H	5656.55	2.94432	1.84212
H	5658.24	3.40723	1.36846
H	5657.97	2.19926	2.6925
N	5658.78	0.912428	0.463752
C	5658.95	-0.162727	-0.481208
C	5660.24	-0.882847	-0.144097
O	5661.06	-0.379514	0.622841
H	5659.61	1.19579	0.939915
H	5658.14	-0.868333	-0.358553
C	5659	0.366195	-1.93202
H	5659.83	1.09029	-2.05413
H	5659.13	-0.45907	-2.66224
H	5658.05	0.892586	-2.16618
N	5660.44	-2.09531	-0.696451
C	5661.64	-2.86021	-0.423911
H	5659.77	-2.48871	-1.30895
H	5661.62	-3.82788	-0.972088
H	5661.73	-3.07623	0.665495
H	5662.55	-2.29664	-0.738729
