44
  This energy is 1.98911e-320 and Call times are: 112713
C	-3.12	1.5262	-0.249825
C	-2.20077	0.394043	-0.503641
O	-2.60733	-0.655799	-0.982213
H	-4.15029	1.23754	-0.551561
H	-2.80752	2.41264	-0.840935
H	-3.12075	1.78406	0.830202
N	-0.920455	0.585009	-0.177001
C	0.0927525	-0.422467	-0.3647
C	1.25294	-0.0933702	0.55448
O	1.33394	1.00813	1.09483
H	-0.606966	1.43439	0.239177
H	-0.305192	-1.38251	-0.0613195
C	0.574254	-0.469463	-1.83203
H	0.981255	0.517212	-2.14015
H	1.35435	-1.24425	-1.98012
H	-0.285018	-0.710224	-2.49523
N	2.17147	-1.05542	0.770749
C	3.3041	-0.83706	1.64002
H	2.08445	-1.94271	0.329857
H	3.94475	-1.74515	1.68678
H	2.96533	-0.593571	2.67307
H	3.9248	0.0114201	1.27124
C	5337.93	0.6905	3.37227
C	5338.37	0.689594	1.95944
O	5339.41	1.24122	1.6209
H	5338.66	1.24957	3.98749
H	5337.86	-0.350531	3.7521
H	5336.94	1.18359	3.46334
N	5337.57	0.0637637	1.08958
C	5337.87	-0.0224362	-0.318333
C	5336.57	-0.3095	-1.04964
O	5335.57	-0.674136	-0.435216
H	5336.71	-0.356727	1.37313
H	5338.23	0.937529	-0.660688
C	5338.9	-1.13506	-0.60962
H	5338.52	-2.11838	-0.256524
H	5339.13	-1.20408	-1.69278
H	5339.84	-0.913731	-0.0673105
N	5336.55	-0.129277	-2.38501
C	5335.36	-0.36631	-3.16368
H	5337.37	0.173151	-2.86304
H	5335.55	-0.164505	-4.2414
H	5334.53	0.294381	-2.82235
H	5335.02	-1.4236	-3.05786
