44
  This energy is 1.37069e-319 and Call times are: 123507
C	1.17037	1.76682	2.7631
C	1.37554	0.833417	1.63267
O	2.4934	0.434087	1.33699
H	2.15253	2.00314	3.22717
H	0.513773	1.30222	3.52851
H	0.70732	2.7093	2.40219
N	0.281606	0.464702	0.962056
C	0.32023	-0.437819	-0.160793
C	-0.943467	-0.226813	-0.971832
O	-1.88979	0.40643	-0.507819
H	-0.619977	0.819782	1.19444
H	1.1622	-0.180024	-0.790634
C	0.414619	-1.90865	0.302739
H	-0.450336	-2.16953	0.949201
H	0.444708	-2.60627	-0.559348
H	1.34383	-2.04985	0.896682
N	-0.97879	-0.737604	-2.21837
C	-2.13524	-0.576365	-3.06855
H	-0.200083	-1.24081	-2.57841
H	-1.9714	-1.0681	-4.05273
H	-2.34439	0.503333	-3.24673
H	-3.03674	-1.02927	-2.59596
C	5847.94	0.522238	3.2045
C	5848.39	1.02117	1.88522
O	5848.25	2.19577	1.57265
H	5847.49	1.36044	3.78095
H	5848.8	0.11552	3.77354
H	5847.18	-0.272803	3.0733
N	5848.94	0.121551	1.06747
C	5849.43	0.454881	-0.247869
C	5849.49	-0.824223	-1.05989
O	5849.4	-1.92144	-0.511966
H	5849.02	-0.838384	1.32239
H	5848.72	1.1157	-0.728092
C	5850.83	1.10995	-0.182352
H	5851.55	0.429595	0.31147
H	5851.2	1.36803	-1.19343
H	5850.77	2.04518	0.416079
N	5849.62	-0.710589	-2.39627
C	5849.67	-1.87309	-3.25167
H	5849.68	0.186377	-2.82149
H	5849.79	-1.57262	-4.31684
H	5848.74	-2.47771	-3.15343
H	5850.54	-2.52167	-2.97822
