44
  This energy is 7.12986e-320 and Call times are: 63489
C	2.38025	-0.854173	2.39393
C	1.75557	-1.02069	1.0623
O	2.2531	-1.75195	0.217196
H	3.3049	-1.46918	2.44535
H	1.68127	-1.18906	3.18898
H	2.64706	0.210614	2.56122
N	0.635274	-0.328714	0.842126
C	-0.087438	-0.387016	-0.403312
C	-0.950953	0.855693	-0.499508
O	-1.14501	1.56417	0.486511
H	0.255811	0.286167	1.52832
H	0.620107	-0.360125	-1.22229
C	-0.968476	-1.65368	-0.483636
H	-1.6927	-1.67838	0.358386
H	-1.52624	-1.70181	-1.44142
H	-0.324284	-2.55693	-0.410832
N	-1.47422	1.16165	-1.70308
C	-2.29911	2.33198	-1.89299
H	-1.29972	0.57963	-2.4905
H	-2.63448	2.40928	-2.95072
H	-1.73379	3.257	-1.63608
H	-3.20159	2.28672	-1.24134
C	3010.1	1.15004	3.21232
C	3010.06	1.29676	1.73991
O	3009.44	2.20717	1.21212
H	3009.5	1.95923	3.67902
H	3011.15	1.22649	3.57534
H	3009.68	0.168213	3.51123
N	3010.73	0.383683	1.03403
C	3010.79	0.393794	-0.406039
C	3011.16	-1.00259	-0.868279
O	3011.59	-1.83293	-0.0736789
H	3011.21	-0.370097	1.47466
H	3009.8	0.619304	-0.793517
C	3011.83	1.41544	-0.922876
H	3012.84	1.1815	-0.522905
H	3011.87	1.42593	-2.03136
H	3011.54	2.43404	-0.57655
N	3010.97	-1.30103	-2.16861
C	3011.28	-2.60881	-2.69697
H	3010.6	-0.617588	-2.79435
H	3011.05	-2.65637	-3.78563
H	3010.68	-3.39357	-2.18163
H	3012.36	-2.8461	-2.54938
