44
  This energy is 1.0405e-320 and Call times are: 99483
C	3.31431	1.06201	0.116754
C	1.94049	1.14149	-0.428703
O	1.61757	2.03258	-1.20213
H	3.91801	1.90502	-0.284182
H	3.7902	0.104717	-0.183132
H	3.29097	1.13171	1.2247
N	1.08678	0.19766	-0.0253198
C	-0.283274	0.14175	-0.468775
C	-1.0658	-0.678581	0.538176
O	-0.485048	-1.36528	1.37663
H	1.3539	-0.505985	0.627726
H	-0.694548	1.14321	-0.467859
C	-0.394581	-0.493466	-1.87278
H	0.028865	-1.5205	-1.87026
H	-1.44817	-0.537934	-2.21736
H	0.183777	0.116055	-2.60088
N	-2.41074	-0.608086	0.491721
C	-3.23847	-1.34493	1.41806
H	-2.86185	-0.0411223	-0.189665
H	-4.31632	-1.15726	1.21737
H	-3.01941	-1.04178	2.46752
H	-3.05042	-2.43936	1.32843
C	4709.73	-0.221712	-3.23589
C	4710.86	-0.100393	-2.28537
O	4712.02	-0.162515	-2.66915
H	4710.13	-0.372655	-4.26241
H	4709.12	0.703535	-3.2214
H	4709.1	-1.09098	-2.96619
N	4710.54	0.072435	-1.00138
C	4711.52	0.207067	0.0407665
C	4710.86	-0.13527	1.35937
O	4709.63	-0.211101	1.44432
H	4709.59	0.0922098	-0.697396
H	4712.31	-0.514836	-0.126354
C	4712.1	1.64113	0.0913508
H	4711.29	2.37919	0.262257
H	4712.86	1.74826	0.892605
H	4712.58	1.88012	-0.880685
N	4711.66	-0.372553	2.41934
C	4711.11	-0.717194	3.71219
H	4712.65	-0.313225	2.32863
H	4711.93	-0.871805	4.45323
H	4710.51	-1.65452	3.64924
H	4710.45	0.093445	4.08723
