44
  This energy is 1.41757e-319 and Call times are: 98307
C	2.59813	1.13658	-2.0209
C	2.01505	0.844359	-0.692053
O	2.68738	0.92977	0.326363
H	3.66798	1.41336	-1.89973
H	2.05975	1.98281	-2.4972
H	2.5303	0.241187	-2.67406
N	0.73042	0.481318	-0.674998
C	0.0234671	0.165605	0.540473
C	-1.18213	-0.67732	0.172717
O	-1.55455	-0.765646	-0.995759
H	0.201358	0.387192	-1.51415
H	0.663768	-0.434909	1.17409
C	-0.428477	1.44628	1.27718
H	-1.08463	2.06028	0.624052
H	-0.973018	1.20682	2.21362
H	0.463636	2.05554	1.54001
N	-1.80985	-1.33731	1.16589
C	-2.9593	-2.17336	0.909101
H	-1.48888	-1.25868	2.10399
H	-3.33376	-2.62775	1.8528
H	-2.6976	-2.99535	0.204058
H	-3.78443	-1.57844	0.45478
C	4654.78	2.73108	-0.394363
C	4655.9	2.04595	0.274863
O	4656.6	2.6288	1.0928
H	4654.72	3.78047	-0.0322607
H	4653.82	2.21514	-0.158879
H	4654.93	2.7385	-1.49394
N	4656.11	0.773018	-0.0691288
C	4657.17	-0.0255208	0.495369
C	4657.44	-1.17663	-0.453447
O	4656.65	-1.4481	-1.35522
H	4655.56	0.318137	-0.758237
H	4658.07	0.573219	0.552628
C	4656.79	-0.566542	1.89011
H	4655.86	-1.17975	1.8278
H	4657.6	-1.18173	2.32774
H	4656.59	0.286356	2.57539
N	4658.59	-1.8698	-0.283866
C	4658.94	-2.97439	-1.14658
H	4659.22	-1.63014	0.447277
H	4659.91	-3.41583	-0.845189
H	4659.02	-2.63603	-2.20501
H	4658.16	-3.77211	-1.09722
