44
  This energy is 1.99504e-320 and Call times are: 1581
C	-2.387	-2.43125	-0.719282
C	-1.95027	-1.01907	-0.640522
O	-2.64819	-0.115671	-1.08014
H	-3.37874	-2.48166	-1.21905
H	-2.47616	-2.86156	0.300378
H	-1.65706	-3.02546	-1.30839
N	-0.762183	-0.796523	-0.0736902
C	-0.202236	0.522948	0.0755835
C	1.29642	0.375716	0.253288
O	1.7951	-0.719942	0.503672
H	-0.189997	-1.54347	0.254337
H	-0.372045	1.08239	-0.835603
C	-0.811513	1.25847	1.29004
H	-0.636059	0.681459	2.22299
H	-0.38268	2.27484	1.40782
H	-1.90967	1.35889	1.14822
N	2.05489	1.47972	0.105278
C	3.49179	1.43355	0.244456
H	1.63319	2.35577	-0.104324
H	3.93458	2.44194	0.0885123
H	3.9366	0.736214	-0.501946
H	3.77701	1.07871	1.26127
C	81.9303	2.16438	2.41441
C	82.0108	1.67221	1.02067
O	81.2555	2.09461	0.156059
H	81.1145	2.91566	2.49207
H	82.8885	2.64283	2.70713
H	81.7112	1.32327	3.10541
N	82.9412	0.747926	0.771002
C	83.1414	0.173326	-0.535362
C	83.8628	-1.14848	-0.357392
O	84.3913	-1.4368	0.714706
H	83.5311	0.390665	1.49025
H	82.1764	-0.0357536	-0.979426
C	83.9684	1.11203	-1.44204
H	84.9574	1.32495	-0.983143
H	84.1243	0.672725	-2.44876
H	83.4298	2.07708	-1.56356
N	83.8821	-1.99604	-1.4049
C	84.5348	-3.28203	-1.32442
H	83.4426	-1.74743	-2.26175
H	84.443	-3.83058	-2.2877
H	84.078	-3.90486	-0.521505
H	85.6175	-3.15949	-1.09244
