44
  This energy is 8.04536e-320 and Call times are: 3891
C	2.76451	2.11428	0.115933
C	2.11361	0.842915	-0.272865
O	2.6871	0.0308152	-0.985678
H	3.77684	2.16332	-0.340845
H	2.86547	2.17031	1.22024
H	2.16544	2.97696	-0.244421
N	0.877736	0.643356	0.190985
C	0.115756	-0.544579	-0.100604
C	-1.34997	-0.223167	0.117536
O	-1.68763	0.797354	0.714488
H	0.410211	1.32553	0.746856
H	0.245026	-0.797944	-1.14519
C	0.541764	-1.7223	0.804167
H	0.40848	-1.45871	1.87509
H	-0.0428692	-2.63866	0.582193
H	1.61753	-1.94709	0.635812
N	-2.25955	-1.08182	-0.383833
C	-3.67777	-0.852083	-0.235351
H	-1.9664	-1.89846	-0.870048
H	-4.26079	-1.66999	-0.713227
H	-3.97154	0.111717	-0.71078
H	-3.95767	-0.805064	0.841972
C	196.366	-1.31605	-0.608246
C	195.392	-0.201974	-0.638179
O	195.735	0.93025	-0.949268
H	197.37	-0.933594	-0.893309
H	196.065	-2.10674	-1.32737
H	196.423	-1.74788	0.413162
N	194.135	-0.504013	-0.303654
C	193.075	0.471919	-0.285911
C	191.969	-0.0581274	0.605398
O	191.955	-1.23613	0.957481
H	193.874	-1.4241	-0.0239356
H	193.446	1.38652	0.158944
C	192.531	0.737199	-1.70739
H	192.152	-0.203287	-2.16104
H	191.714	1.4883	-1.6974
H	193.351	1.12394	-2.3507
N	191.022	0.810987	1.0104
C	189.936	0.399551	1.86998
H	191.054	1.76185	0.720481
H	189.262	1.25646	2.08933
H	190.328	0.00547916	2.83576
H	189.336	-0.404828	1.38696
