44
  This energy is 2.54296e-320 and Call times are: 1791
C	-0.864701	2.43074	-2.33879
C	-1.21864	1.3336	-1.41023
O	-2.38659	1.05397	-1.17744
H	-1.79571	2.89687	-2.7284
H	-0.276671	2.03419	-3.19307
H	-0.270156	3.20426	-1.80857
N	-0.199025	0.68186	-0.846321
C	-0.383598	-0.40854	0.0776862
C	0.888813	-0.55135	0.889975
O	1.9238	0.0135945	0.541454
H	0.747817	0.938178	-1.02161
H	-1.18432	-0.158176	0.761961
C	-0.691307	-1.72846	-0.664095
H	0.131859	-1.98194	-1.36571
H	-0.834146	-2.57012	0.0444127
H	-1.62487	-1.61041	-1.25626
N	0.83445	-1.29749	2.01083
C	1.99298	-1.48036	2.85377
H	-0.0143232	-1.74075	2.27979
H	1.74731	-2.12676	3.72501
H	2.35887	-0.500192	3.23672
H	2.82183	-1.95964	2.28414
C	95.0265	2.9423	0.364503
C	94.8308	1.49409	0.600333
O	95.7036	0.814717	1.12298
H	96.036	3.23962	0.722695
H	94.2621	3.52683	0.918436
H	94.9492	3.16747	-0.720057
N	93.6622	0.9819	0.207468
C	93.3246	-0.409693	0.369741
C	92.2169	-0.737962	-0.612261
O	91.5961	0.157536	-1.18202
H	92.9707	1.53987	-0.243579
H	94.1848	-1.01315	0.109022
C	92.8622	-0.711778	1.81267
H	91.98	-0.0905114	2.07705
H	92.6017	-1.78246	1.94116
H	93.682	-0.46603	2.52235
N	91.9573	-2.03881	-0.849851
C	90.9286	-2.44683	-1.77804
H	92.4755	-2.74869	-0.384216
H	90.8671	-3.55602	-1.83417
H	91.143	-2.0556	-2.79894
H	89.9349	-2.05609	-1.46016
