44
  This energy is 1.26876e-319 and Call times are: 5655
C	1.08728	-2.41945	-2.25615
C	1.31326	-1.20472	-1.44094
O	2.425	-0.702756	-1.34851
H	2.04977	-2.74182	-2.70952
H	0.361279	-2.20541	-3.06852
H	0.697088	-3.24095	-1.6191
N	0.245265	-0.701989	-0.817227
C	0.306379	0.475488	0.0114117
C	-0.891987	0.454264	0.940231
O	-1.83103	-0.313114	0.737339
H	-0.649298	-1.13688	-0.876942
H	1.198	0.428946	0.62372
C	0.295294	1.76421	-0.840755
H	-0.620424	1.80838	-1.46815
H	0.342404	2.67276	-0.205864
H	1.17735	1.76708	-1.5176
N	-0.876555	1.28696	1.99965
C	-1.96818	1.32787	2.94456
H	-0.10426	1.89525	2.15058
H	-1.7695	2.07663	3.74277
H	-2.1095	0.332627	3.42494
H	-2.91955	1.60319	2.43438
C	279.179	-0.135828	-2.86229
C	279.004	-0.226451	-1.39515
O	279.918	-0.597571	-0.671162
H	280.21	-0.452771	-3.1297
H	279.025	0.909969	-3.20201
H	278.454	-0.801608	-3.37599
N	277.803	0.111261	-0.918847
C	277.481	0.0747945	0.485279
C	275.972	0.000814762	0.615095
O	275.246	0.232919	-0.349691
H	277.058	0.384102	-1.52168
H	277.893	-0.828236	0.91755
C	278.017	1.32512	1.21804
H	277.593	2.24971	0.771594
H	277.77	1.3002	2.29946
H	279.123	1.36841	1.11449
N	275.464	-0.3479	1.81359
C	274.04	-0.455738	2.02822
H	276.068	-0.538764	2.58016
H	273.822	-0.75156	3.07804
H	273.597	-1.2202	1.34943
H	273.537	0.517781	1.82647
