44
  This energy is 1.89128e-320 and Call times are: 13677
C	-2.05166	2.66086	-0.91468
C	-0.915334	2.09549	-0.152893
O	-0.160977	2.81621	0.485867
H	-2.06033	3.76608	-0.795196
H	-3.01015	2.25062	-0.532795
H	-1.94897	2.41673	-1.99301
N	-0.763631	0.770335	-0.210369
C	0.294115	0.074118	0.477588
C	0.484149	-1.26972	-0.198593
O	-0.356145	-1.70198	-0.985288
H	-1.36747	0.197084	-0.757817
H	1.2147	0.632467	0.364287
C	-0.0432368	-0.126068	1.97199
H	-0.988549	-0.698635	2.08454
H	0.769185	-0.661711	2.50475
H	-0.181174	0.865526	2.45558
N	1.61119	-1.9548	0.0779116
C	1.88367	-3.23738	-0.527837
H	2.28244	-1.58484	0.711774
H	2.85758	-3.64091	-0.172982
H	1.92519	-3.14691	-1.63749
H	1.08554	-3.97095	-0.270871
C	654.484	-1.45404	2.67866
C	654.47	-0.69652	1.40699
O	655.489	-0.18844	0.961594
H	655.515	-1.45159	3.09577
H	654.171	-2.50438	2.50192
H	653.798	-0.982327	3.41322
N	653.29	-0.598627	0.788612
C	653.117	0.105884	-0.456534
C	651.649	0.461113	-0.590213
O	650.807	-0.0598787	0.139087
H	652.461	-0.992153	1.17641
H	653.677	1.03149	-0.418125
C	653.567	-0.755632	-1.65767
H	652.99	-1.70469	-1.69364
H	653.434	-0.216134	-2.61802
H	654.643	-1.0101	-1.54724
N	651.31	1.37871	-1.517
C	649.938	1.78841	-1.70798
H	652.006	1.79414	-2.09261
H	649.863	2.54876	-2.51642
H	649.526	2.23057	-0.771996
H	649.302	0.916758	-1.98677
