44
  This energy is 7.83193e-320 and Call times are: 15903
C	-2.09233	2.71365	0.620006
C	-0.798727	2.00828	0.762331
O	0.163989	2.55203	1.28579
H	-2.00057	3.7379	1.04231
H	-2.88799	2.16823	1.16979
H	-2.37053	2.79056	-0.452202
N	-0.747064	0.762359	0.285494
C	0.440784	-0.0510016	0.350992
C	0.320029	-1.13747	-0.699833
O	-0.757503	-1.36692	-1.24583
H	-1.52961	0.340867	-0.164956
H	1.29888	0.558307	0.0970575
C	0.613741	-0.682348	1.75049
H	-0.268633	-1.3062	2.00806
H	1.5275	-1.30917	1.80447
H	0.699846	0.123802	2.51132
N	1.43569	-1.82022	-1.02414
C	1.41942	-2.8642	-2.02214
H	2.2996	-1.61485	-0.576138
H	2.43256	-3.30657	-2.14503
H	1.09129	-2.46075	-3.00743
H	0.715179	-3.67647	-1.72982
C	760.491	2.20305	-2.10086
C	760.097	1.73229	-0.753713
O	760.586	2.2225	0.255199
H	761.251	3.00809	-2.00112
H	759.607	2.60768	-2.63788
H	760.928	1.36674	-2.68622
N	759.195	0.749847	-0.70911
C	758.712	0.18687	0.526785
C	758.143	-1.18531	0.222934
O	757.917	-1.52972	-0.935612
H	758.826	0.338892	-1.53869
H	759.548	0.0541717	1.20251
C	757.628	1.0819	1.16741
H	756.773	1.21647	0.471247
H	757.255	0.651432	2.11931
H	758.057	2.08441	1.38404
N	757.918	-2.01264	1.26245
C	757.388	-3.34247	1.06872
H	758.113	-1.71804	2.192
H	757.272	-3.86534	2.04358
H	758.069	-3.94649	0.425997
H	756.392	-3.30041	0.572339
