44
  This energy is 2.23367e-320 and Call times are: 118929
C	-0.900175	-1.23743	3.12803
C	-1.23027	-0.574816	1.84616
O	-2.38898	-0.326482	1.54247
H	-1.83853	-1.44271	3.68769
H	-0.251619	-0.578845	3.74323
H	-0.377068	-2.1984	2.93871
N	-0.200478	-0.27498	1.05119
C	-0.361878	0.371021	-0.22688
C	0.87865	0.0883519	-1.05176
O	1.89312	-0.365784	-0.525987
H	0.736506	-0.508736	1.29686
H	-1.20619	-0.071075	-0.740464
C	-0.557033	1.89522	-0.0660852
H	0.310624	2.3454	0.461759
H	-0.68177	2.39575	-1.04827
H	-1.46817	2.08895	0.540916
N	0.817812	0.331868	-2.37577
C	1.94576	0.0819741	-3.24264
H	-0.0145582	0.69262	-2.78351
H	1.69955	0.346784	-4.29455
H	2.23529	-0.993378	-3.21053
H	2.82646	0.686255	-2.92581
C	5634.64	0.250524	-0.482668
C	5633.42	0.46664	0.327629
O	5633.49	0.876981	1.47798
H	5635.53	0.509237	0.124281
H	5634.62	0.896648	-1.38539
H	5634.71	-0.813633	-0.791708
N	5632.26	0.184307	-0.264316
C	5630.99	0.343618	0.394851
C	5629.97	-0.525851	-0.326911
O	5630.23	-1.00355	-1.4306
H	5632.22	-0.177018	-1.19203
H	5631.07	-0.0215027	1.41073
C	5630.52	1.81832	0.379698
H	5630.44	2.18985	-0.663983
H	5629.55	1.94459	0.886573
H	5631.27	2.4449	0.910382
N	5628.8	-0.769792	0.293986
C	5627.78	-1.59615	-0.311155
H	5628.62	-0.37994	1.19002
H	5626.9	-1.67522	0.353408
H	5628.17	-2.623	-0.500512
H	5627.46	-1.16597	-1.28516
