44
  This energy is 1.23012e-319 and Call times are: 53241
C	2.57879	-1.61378	1.6946
C	1.78025	-1.36335	0.473614
O	2.10314	-1.84548	-0.603318
H	3.44613	-2.26086	1.4399
H	1.95864	-2.12835	2.45845
H	2.95521	-0.65497	2.10925
N	0.705029	-0.585168	0.617508
C	-0.170282	-0.251134	-0.477518
C	-0.928719	1.00666	-0.100736
O	-0.935984	1.41239	1.05994
H	0.4689	-0.174641	1.49423
H	0.428791	-0.024951	-1.35046
C	-1.16029	-1.39898	-0.776576
H	-1.77278	-1.62886	0.121275
H	-1.83568	-1.14516	-1.61932
H	-0.592307	-2.3148	-1.05009
N	-1.57027	1.66798	-1.08414
C	-2.3085	2.88143	-0.821977
H	-1.54657	1.3275	-2.01835
H	-2.76578	3.27334	-1.75715
H	-1.63786	3.66675	-0.403935
H	-3.12279	2.69466	-0.0849338
C	2527.51	1.69962	2.188
C	2526.53	0.631715	1.89231
O	2526.26	-0.22598	2.72154
H	2527.91	1.55852	3.21654
H	2527.02	2.6953	2.12454
H	2528.35	1.6546	1.46731
N	2525.97	0.658935	0.680114
C	2525	-0.312036	0.245611
C	2524.98	-0.306384	-1.27059
O	2525.52	0.601431	-1.90245
H	2526.22	1.34582	0.00304786
H	2525.31	-1.29592	0.567005
C	2523.59	0.0152141	0.795434
H	2523.27	1.0255	0.464361
H	2522.84	-0.730537	0.462908
H	2523.62	0.00912439	1.9069
N	2524.37	-1.33823	-1.89215
C	2524.32	-1.42401	-3.33285
H	2523.95	-2.06682	-1.36321
H	2523.78	-2.34334	-3.65111
H	2525.34	-1.45221	-3.76547
H	2523.79	-0.541396	-3.75859
