44
  This energy is 1.25216e-319 and Call times are: 72267
C	0.837678	3.37268	0.222454
C	0.270143	2.21803	-0.509594
O	-0.302569	2.36737	-1.5802
H	0.641794	4.30404	-0.352041
H	1.93451	3.24821	0.342026
H	0.364784	3.4615	1.22317
N	0.414761	1.02199	0.0656826
C	-0.0833516	-0.194658	-0.524641
C	-0.219521	-1.22603	0.578518
O	0.303419	-1.04485	1.67649
H	0.857695	0.917044	0.952098
H	-1.0714	-0.0114619	-0.927461
C	0.867419	-0.716221	-1.62515
H	1.88029	-0.902461	-1.20859
H	0.486812	-1.65285	-2.08192
H	0.959643	0.0488101	-2.42663
N	-0.948501	-2.32879	0.316747
C	-1.14303	-3.35934	1.30988
H	-1.36966	-2.45369	-0.575586
H	-1.76889	-4.18413	0.903337
H	-1.6508	-2.94561	2.21112
H	-0.165076	-3.78627	1.63006
C	3429.21	-3.38639	0.00309564
C	3428.32	-2.26141	-0.36367
O	3427.36	-2.42818	-1.10706
H	3428.86	-4.313	-0.499083
H	3429.2	-3.54453	1.10198
H	3430.25	-3.17474	-0.324052
N	3428.63	-1.0699	0.154817
C	3427.86	0.118917	-0.109243
C	3428.74	1.31884	0.177597
O	3429.79	1.19029	0.795814
H	3429.43	-0.941111	0.735771
H	3427.6	0.144422	-1.16023
C	3426.59	0.171706	0.767638
H	3426.86	0.144692	1.84518
H	3425.99	1.08575	0.566754
H	3425.95	-0.713155	0.548941
N	3428.33	2.51724	-0.28719
C	3429.11	3.71366	-0.072685
H	3427.48	2.59948	-0.791459
H	3428.61	4.59634	-0.528648
H	3430.13	3.60997	-0.528075
H	3429.24	3.90808	1.01657
