44
  This energy is 9.48804e-320 and Call times are: 4437
C	-0.363355	2.73488	2.12475
C	-0.928613	1.66139	1.27662
O	-2.13203	1.4432	1.25084
H	-1.18629	3.23789	2.67757
H	0.157779	3.48592	1.49453
H	0.352752	2.30683	2.85749
N	-0.0556669	0.952695	0.556845
C	-0.453129	-0.123334	-0.315515
C	0.756779	-1.00796	-0.545274
O	1.88373	-0.62383	-0.238265
H	0.925098	1.12106	0.608704
H	-1.20695	-0.719854	0.182465
C	-0.983251	0.412536	-1.66419
H	-0.207618	1.02458	-2.17204
H	-1.29032	-0.413363	-2.33827
H	-1.8686	1.05995	-1.48211
N	0.546626	-2.22948	-1.07417
C	1.63671	-3.14527	-1.31754
H	-0.373596	-2.52469	-1.30929
H	1.26127	-4.09559	-1.75704
H	2.16849	-3.38422	-0.368135
H	2.37428	-2.69962	-2.02364
C	221.84	1.85632	-1.30857
C	220.406	1.49149	-1.25424
O	219.569	2.11918	-1.88833
H	221.97	2.73618	-1.97549
H	222.435	1.00963	-1.71054
H	222.207	2.11715	-0.293716
N	220.087	0.453918	-0.47695
C	218.735	-0.0203643	-0.322055
C	218.665	-0.813577	0.968324
O	219.691	-1.17089	1.54344
H	220.774	-0.0310766	0.0574174
H	218.073	0.83038	-0.221807
C	218.31	-0.906334	-1.51421
H	218.992	-1.77776	-1.61455
H	217.269	-1.27311	-1.39824
H	218.367	-0.314097	-2.45344
N	217.443	-1.08955	1.46647
C	217.278	-1.82915	2.69608
H	216.625	-0.785521	0.990046
H	216.2	-1.95506	2.93746
H	217.767	-1.29644	3.54364
H	217.739	-2.83994	2.61169
