44
  This energy is 4.04146e-321 and Call times are: 92595
C	-1.82254	1.05372	-2.77383
C	-1.73959	0.588902	-1.37088
O	-2.72785	0.57385	-0.650035
H	-2.86758	1.35926	-2.99833
H	-1.53078	0.235811	-3.46572
H	-1.15214	1.92523	-2.92869
N	-0.535747	0.198603	-0.945693
C	-0.296535	-0.279143	0.392726
C	1.18452	-0.131484	0.682384
O	1.98385	0.0877167	-0.22583
H	0.267437	0.243055	-1.53379
H	-0.832763	0.34985	1.09194
C	-0.723507	-1.75591	0.547568
H	-0.17196	-2.39825	-0.171677
H	-0.540826	-2.12693	1.57701
H	-1.81001	-1.85087	0.33161
N	1.58298	-0.227298	1.96615
C	2.97152	-0.0883279	2.33874
H	0.919938	-0.397889	2.68761
H	3.09677	-0.200569	3.43827
H	3.35954	0.91305	2.04221
H	3.59332	-0.862825	1.83406
C	4386.72	2.45376	-1.66835
C	4386.62	1.1382	-0.997379
O	4387.56	0.351563	-1.00247
H	4387.73	2.55251	-2.13291
H	4386.59	3.27147	-0.929717
H	4385.95	2.53972	-2.46134
N	4385.46	0.86517	-0.400345
C	4385.21	-0.372754	0.293647
C	4383.71	-0.563885	0.378105
O	4382.94	0.365213	0.131709
H	4384.69	1.5023	-0.428149
H	4385.61	-1.19088	-0.289431
C	4385.82	-0.357099	1.7113
H	4385.41	0.483825	2.30649
H	4385.63	-1.30886	2.24841
H	4386.92	-0.215288	1.63573
N	4383.25	-1.78764	0.709494
C	4381.84	-2.06667	0.802869
H	4383.89	-2.52835	0.898207
H	4381.66	-3.12747	1.08901
H	4381.33	-1.88049	-0.173882
H	4381.36	-1.41414	1.56787
