44
  This energy is 2.94018e-320 and Call times are: 93603
C	3.15566	-1.4536	-0.234466
C	1.81963	-1.33697	0.39213
O	1.4465	-2.13634	1.23964
H	3.68274	-2.33738	0.186211
H	3.75684	-0.543729	-0.0257727
H	3.05351	-1.585	-1.3323
N	1.05617	-0.323656	-0.0234367
C	-0.267082	-0.0792713	0.492413
C	-1.01287	0.767701	-0.520342
O	-0.411859	1.33002	-1.43381
H	1.36012	0.303641	-0.735512
H	-0.790124	-1.02303	0.580799
C	-0.214315	0.646058	1.85558
H	0.323516	1.61352	1.7614
H	-1.23152	0.835662	2.25573
H	0.335488	0.0159275	2.58825
N	-2.35123	0.860487	-0.39309
C	-3.14628	1.63482	-1.31748
H	-2.82001	0.392208	0.348659
H	-4.22347	1.58877	-1.04402
H	-3.03128	1.24664	-2.35542
H	-2.82812	2.70248	-1.31093
C	4432.84	2.5217	2.40082
C	4433.43	1.87849	1.20231
O	4434.32	2.42178	0.563476
H	4433.34	3.50413	2.56738
H	4433	1.88284	3.29457
H	4431.75	2.68582	2.25522
N	4432.92	0.688937	0.863455
C	4433.39	-0.0600633	-0.276488
C	4432.3	-1.04551	-0.661257
O	4431.37	-1.28062	0.102331
H	4432.18	0.270092	1.37503
H	4433.53	0.617315	-1.10939
C	4434.7	-0.812468	0.0418577
H	4434.55	-1.50599	0.897206
H	4435.06	-1.39011	-0.833787
H	4435.49	-0.0796531	0.323378
N	4432.39	-1.63123	-1.87174
C	4431.4	-2.57376	-2.32882
H	4433.15	-1.42244	-2.47817
H	4431.65	-2.9456	-3.34707
H	4430.39	-2.09622	-2.36662
H	4431.34	-3.44803	-1.64078
