44
  This energy is 1.25458e-319 and Call times are: 35349
C	2.36274	-2.53552	-0.338705
C	1.69102	-1.47944	0.451673
O	1.92449	-1.33666	1.64398
H	3.04603	-3.11095	0.323007
H	2.9562	-2.08018	-1.15924
H	1.60988	-3.22938	-0.768487
N	0.822895	-0.707796	-0.206571
C	0.0920149	0.361407	0.425448
C	-1.12684	0.659441	-0.425903
O	-1.21842	0.216738	-1.56935
H	0.619639	-0.852847	-1.17124
H	-0.257147	0.0248291	1.39337
C	0.96261	1.62967	0.569256
H	1.31965	1.97182	-0.425515
H	0.402965	2.45489	1.05567
H	1.85266	1.39786	1.19392
N	-2.10651	1.40374	0.123882
C	-3.30931	1.72847	-0.606878
H	-2.01683	1.74675	1.05315
H	-3.99164	2.34913	0.0147668
H	-3.85134	0.801317	-0.90324
H	-3.06495	2.29667	-1.53349
C	1678.14	2.90737	1.12029
C	1678.23	1.4333	1.01128
O	1677.46	0.710329	1.6364
H	1677.33	3.1797	1.82555
H	1677.92	3.353	0.127423
H	1679.1	3.31562	1.50402
N	1679.17	0.948986	0.204894
C	1679.37	-0.462506	-0.00449551
C	1680.79	-0.660114	-0.518147
O	1681.45	0.294339	-0.923454
H	1679.81	1.54765	-0.276355
H	1679.3	-0.974078	0.94637
C	1678.36	-1.03199	-1.01756
H	1678.44	-0.504468	-1.99169
H	1678.51	-2.11866	-1.18102
H	1677.33	-0.879993	-0.630223
N	1681.29	-1.90899	-0.492179
C	1682.63	-2.19113	-0.949907
H	1680.74	-2.66695	-0.153833
H	1682.86	-3.27492	-0.850292
H	1683.38	-1.61838	-0.354232
H	1682.75	-1.90444	-2.01993
