44
  This energy is 1.11861e-319 and Call times are: 40725
C	2.78002	-0.154863	2.09133
C	2.01831	-0.602062	0.903462
O	2.50761	-1.37702	0.0932065
H	3.7879	-0.623795	2.07926
H	2.25332	-0.458923	3.02028
H	2.89713	0.94924	2.07767
N	0.784584	-0.109596	0.770207
C	-0.0785579	-0.451246	-0.332104
C	-1.13049	0.634038	-0.453891
O	-1.30053	1.44901	0.450948
H	0.407994	0.543661	1.42164
H	0.501433	-0.451244	-1.24626
C	-0.753884	-1.82354	-0.113359
H	-1.3475	-1.82022	0.825646
H	-1.41909	-2.08978	-0.960349
H	0.0272897	-2.60969	-0.0245446
N	-1.84972	0.682505	-1.59247
C	-2.86495	1.68814	-1.80269
H	-1.69228	0.0184233	-2.31596
H	-3.34527	1.56002	-2.79774
H	-2.42196	2.70934	-1.75624
H	-3.65503	1.61861	-1.02032
C	1934.47	3.01705	-0.742053
C	1933.41	2.23311	-0.0728086
O	1932.64	2.75776	0.722056
H	1934.43	4.07155	-0.39315
H	1934.33	2.996	-1.8427
H	1935.47	2.59978	-0.492797
N	1933.35	0.935794	-0.381528
C	1932.37	0.0439452	0.187187
C	1932.89	-1.37256	0.0448352
O	1933.84	-1.62101	-0.695269
H	1934	0.514028	-1.00847
H	1932.27	0.254593	1.24482
C	1931	0.180816	-0.522742
H	1931.1	-0.0353084	-1.60766
H	1930.25	-0.504397	-0.0872152
H	1930.63	1.22308	-0.412199
N	1932.29	-2.33568	0.772265
C	1932.73	-3.71114	0.710581
H	1931.53	-2.11334	1.37083
H	1932.11	-4.35026	1.37871
H	1933.79	-3.80013	1.02717
H	1932.64	-4.10436	-0.32831
