44
  This energy is 1.31169e-319 and Call times are: 5823
C	-0.356972	3.24724	-1.20588
C	-0.855084	2.07918	-0.445139
O	-1.87934	2.14769	0.220223
H	-1.04287	4.1078	-1.04832
H	-0.320676	3.01047	-2.29006
H	0.658399	3.52799	-0.854961
N	-0.124526	0.96456	-0.524328
C	-0.48021	-0.253332	0.159086
C	0.77136	-1.10027	0.283629
O	1.77812	-0.834068	-0.370135
H	0.723588	0.929948	-1.04629
H	-0.814045	-0.0105678	1.15993
C	-1.57326	-1.03026	-0.608204
H	-1.22771	-1.2771	-1.63474
H	-1.84962	-1.96851	-0.0846629
H	-2.48428	-0.398697	-0.693704
N	0.743371	-2.13365	1.14812
C	1.89178	-2.98788	1.34207
H	-0.0784955	-2.32847	1.6733
H	1.67065	-3.78003	2.09097
H	2.76423	-2.39709	1.70405
H	2.18128	-3.48045	0.385643
C	287.48	-0.370618	-2.60583
C	286.704	-0.913666	-1.46838
O	286.695	-2.11214	-1.22328
H	287.991	-1.20508	-3.1335
H	288.246	0.345246	-2.23947
H	286.804	0.145211	-3.31945
N	286.019	-0.027939	-0.741067
C	285.218	-0.403301	0.396386
C	284.21	0.703136	0.642173
O	284.336	1.79945	0.0998302
H	286.011	0.942193	-0.96847
H	284.666	-1.30323	0.156385
C	286.09	-0.616256	1.65351
H	286.656	0.308691	1.89646
H	285.476	-0.905533	2.53118
H	286.825	-1.42832	1.46018
N	283.17	0.431893	1.45402
C	282.155	1.41971	1.73696
H	283.082	-0.463636	1.87775
H	281.385	1.00667	2.42584
H	281.648	1.74234	0.798614
H	282.605	2.32048	2.21357
