44
  This energy is 1.10187e-319 and Call times are: 11073
C	-1.06846	1.80022	2.78276
C	-1.31836	1.16308	1.4702
O	-2.44988	1.07943	1.01287
H	-2.0341	2.14137	3.21521
H	-0.399332	2.67784	2.6608
H	-0.600145	1.07258	3.47858
N	-0.248586	0.687068	0.828821
C	-0.331322	0.0410967	-0.456754
C	0.913669	-0.806277	-0.63337
O	1.88193	-0.663632	0.11091
H	0.664386	0.735287	1.22517
H	-1.18545	-0.624119	-0.46196
C	-0.436871	1.07498	-1.60002
H	0.44062	1.75619	-1.59131
H	-0.500903	0.580984	-2.5913
H	-1.35217	1.69007	-1.45847
N	0.907823	-1.72867	-1.6158
C	2.04378	-2.58912	-1.85118
H	0.111925	-1.83366	-2.20296
H	1.84613	-3.2773	-2.7024
H	2.26536	-3.20307	-0.948295
H	2.95014	-1.98697	-2.09017
C	529.351	0.227791	2.46467
C	529.782	0.278633	1.04951
O	528.966	0.378916	0.143043
H	528.242	0.287214	2.51306
H	529.781	1.08308	3.02675
H	529.68	-0.724306	2.93138
N	531.096	0.203271	0.82696
C	531.668	0.239844	-0.495175
C	533.052	-0.375706	-0.421125
O	533.598	-0.565954	0.663957
H	531.748	0.0924537	1.57221
H	531.069	-0.375269	-1.15487
C	531.758	1.68682	-1.02928
H	532.373	2.31523	-0.349768
H	532.198	1.71862	-2.04718
H	530.738	2.12688	-1.07763
N	533.645	-0.722978	-1.58057
C	534.957	-1.32633	-1.60759
H	533.183	-0.567458	-2.44792
H	535.271	-1.53673	-2.65353
H	534.96	-2.2856	-1.04099
H	535.71	-0.649228	-1.14415
