44
  This energy is 1.49124e-319 and Call times are: 73023
C	2.92996	-1.67454	-0.858698
C	1.60141	-1.11769	-1.1994
O	1.20429	-1.09141	-2.35616
H	3.43329	-2.01876	-1.78824
H	2.81761	-2.53817	-0.169971
H	3.55882	-0.896844	-0.37634
N	0.876793	-0.647372	-0.181512
C	-0.434672	-0.075472	-0.354191
C	-0.725469	0.795957	0.852161
O	-0.0299866	0.721892	1.86342
H	1.22345	-0.647838	0.752705
H	-0.427461	0.563932	-1.2278
C	-1.51364	-1.17307	-0.489192
H	-1.51781	-1.82758	0.408422
H	-2.52465	-0.736185	-0.622448
H	-1.2886	-1.80522	-1.3757
N	-1.75369	1.66255	0.764013
C	-2.09768	2.54071	1.85795
H	-2.30016	1.71255	-0.0655075
H	-2.9719	3.1753	1.59284
H	-1.24253	3.2093	2.10886
H	-2.35463	1.95236	2.76843
C	3462.01	-2.50835	0.369477
C	3462.48	-1.11917	0.570384
O	3461.74	-0.261544	1.03235
H	3460.95	-2.58689	0.690326
H	3462.62	-3.21039	0.974752
H	3462.09	-2.78579	-0.703226
N	3463.74	-0.862834	0.215676
C	3464.35	0.440099	0.351261
C	3465.53	0.50565	-0.588955
O	3465.98	-0.515818	-1.10289
H	3464.33	-1.56304	-0.186644
H	3463.63	1.19081	0.0338582
C	3464.8	0.700254	1.80395
H	3465.53	-0.0721002	2.12654
H	3465.27	1.7027	1.91193
H	3463.92	0.648336	2.48281
N	3466.05	1.71972	-0.853456
C	3467.18	1.88106	-1.74591
H	3465.67	2.53514	-0.433274
H	3467.46	2.95337	-1.83244
H	3466.93	1.50087	-2.76328
H	3468.06	1.3146	-1.37177
