44
  This energy is 1.10048e-319 and Call times are: 97005
C	1.13999	-3.05635	-1.21873
C	1.32742	-1.61477	-0.939556
O	2.4131	-1.07495	-1.10202
H	2.10281	-3.49181	-1.564
H	0.376983	-3.19613	-2.01315
H	0.815803	-3.58564	-0.298022
N	0.2553	-0.951549	-0.500179
C	0.28064	0.454679	-0.185999
C	-0.88336	0.745992	0.741082
O	-1.7861	-0.0747465	0.893663
H	-0.616134	-1.40892	-0.34413
H	1.19331	0.678735	0.351497
C	0.172145	1.31829	-1.46253
H	-0.764951	1.08538	-2.01182
H	0.191502	2.40163	-1.22425
H	1.02981	1.0947	-2.13377
N	-0.877452	1.92045	1.40185
C	-1.93772	2.27922	2.3147
H	-0.134317	2.56828	1.27033
H	-1.75311	3.28306	2.75681
H	-2.00941	1.53879	3.14407
H	-2.91891	2.30324	1.78755
C	4596.11	0.67386	-3.19439
C	4595.04	0.708636	-2.17506
O	4593.99	1.30907	-2.37817
H	4595.79	1.25757	-4.08468
H	4596.31	-0.373528	-3.50418
H	4597.04	1.122	-2.78642
N	4595.28	0.0586302	-1.03478
C	4594.34	0.00172824	0.0505547
C	4595.1	-0.333388	1.31718
O	4596.26	-0.748581	1.26319
H	4596.15	-0.402274	-0.869888
H	4593.89	0.980659	0.182753
C	4593.25	-1.06121	-0.209387
H	4593.7	-2.06413	-0.345203
H	4592.52	-1.10756	0.624303
H	4592.69	-0.804981	-1.14043
N	4594.47	-0.138688	2.49441
C	4595.13	-0.418733	3.75251
H	4593.54	0.204785	2.5174
H	4594.45	-0.196476	4.60518
H	4596.04	0.200999	3.86535
H	4595.42	-1.49083	3.8111
