44
  This energy is 5.03996e-320 and Call times are: 26781
C	1.22415	2.15651	2.4448
C	1.22029	1.62173	1.06451
O	1.89002	2.14182	0.182772
H	1.89273	3.04337	2.49321
H	1.59699	1.38638	3.15241
H	0.198442	2.46316	2.73946
N	0.447202	0.555937	0.843651
C	0.338944	-0.0773183	-0.446347
C	-0.954164	-0.868874	-0.469743
O	-1.56986	-1.09792	0.569624
H	-0.116178	0.159114	1.56342
H	0.270131	0.687765	-1.20923
C	1.53904	-1.01213	-0.716557
H	1.60704	-1.79538	0.0683081
H	1.45895	-1.50126	-1.70909
H	2.48015	-0.420511	-0.695589
N	-1.40872	-1.28836	-1.667
C	-2.63715	-2.03829	-1.78836
H	-0.899786	-1.08681	-2.49742
H	-2.83925	-2.29246	-2.85222
H	-3.49807	-1.44766	-1.39949
H	-2.57797	-2.98645	-1.2064
C	1275.62	-3.42339	0.133609
C	1274.71	-2.27275	-0.0304384
O	1273.54	-2.43552	-0.360264
H	1275.08	-4.36421	-0.0924034
H	1276	-3.46786	1.17771
H	1276.48	-3.33098	-0.56384
N	1275.23	-1.06377	0.19475
C	1274.46	0.150893	0.0759711
C	1275.43	1.29812	-0.118239
O	1276.63	1.14746	0.0973254
H	1276.19	-0.942265	0.434537
H	1273.84	0.0909977	-0.810021
C	1273.59	0.39499	1.33227
H	1274.23	0.455232	2.23941
H	1273	1.32939	1.24409
H	1272.89	-0.452822	1.46409
N	1274.93	2.47231	-0.55378
C	1275.79	3.61697	-0.778752
H	1273.96	2.57219	-0.729386
H	1275.19	4.48676	-1.13336
H	1276.56	3.38606	-1.54616
H	1276.31	3.90924	0.161043
