44
  This energy is 7.3102e-320 and Call times are: 51351
C	2.6745	0.857017	2.05881
C	2.04792	0.731252	0.723602
O	2.59554	1.17463	-0.276407
H	3.64391	1.39225	1.96066
H	2.86149	-0.148954	2.48995
H	2.01302	1.43339	2.73939
N	0.862714	0.11826	0.680104
C	0.129854	-0.0801917	-0.544788
C	-1.32569	-0.306964	-0.18534
O	-1.65645	-0.549965	0.973704
H	0.413409	-0.212738	1.50563
H	0.18516	0.823573	-1.13827
C	0.675857	-1.28878	-1.33745
H	0.618244	-2.21409	-0.725401
H	0.113911	-1.44435	-2.28127
H	1.74302	-1.11085	-1.59365
N	-2.23611	-0.210501	-1.17419
C	-3.64613	-0.398888	-0.924136
H	-1.94927	-0.00600457	-2.10432
H	-4.23114	-0.281283	-1.86285
H	-4.01702	0.346959	-0.184273
H	-3.84024	-1.41684	-0.515141
C	2434.48	0.218753	3.35209
C	2434.39	-0.415164	2.0173
O	2433.77	-1.45234	1.84957
H	2433.92	-0.395399	4.08807
H	2434.04	1.23721	3.32166
H	2435.54	0.28502	3.67554
N	2435.04	0.203065	1.02382
C	2435.04	-0.291433	-0.329789
C	2436.24	0.313798	-1.04081
O	2436.85	1.26236	-0.550091
H	2435.57	1.03173	1.17905
H	2435.18	-1.36515	-0.311445
C	2433.74	0.0801524	-1.07106
H	2433.6	1.18232	-1.08742
H	2433.74	-0.299209	-2.11359
H	2432.87	-0.368123	-0.539711
N	2436.62	-0.238817	-2.21059
C	2437.75	0.262858	-2.95282
H	2436.11	-1.01045	-2.58767
H	2437.9	-0.321895	-3.88738
H	2438.68	0.192574	-2.34433
H	2437.6	1.33153	-3.22823
