44
  This energy is 1.58674e-319 and Call times are: 30729
C	0.728841	2.90415	-1.77788
C	-0.209728	2.03503	-1.03295
O	-1.33676	2.41738	-0.749904
H	0.236549	3.87756	-1.99228
H	1.01264	2.42565	-2.73878
H	1.64177	3.08854	-1.17331
N	0.245625	0.828074	-0.689031
C	-0.549473	-0.129489	0.0374115
C	0.395334	-1.11773	0.69312
O	1.57756	-1.17313	0.359792
H	1.17569	0.539277	-0.900023
H	-1.08651	0.384158	0.824702
C	-1.5295	-0.872038	-0.898152
H	-0.975251	-1.39731	-1.70501
H	-2.1434	-1.61002	-0.342011
H	-2.2153	-0.137042	-1.37314
N	-0.103094	-1.91025	1.66239
C	0.724361	-2.87309	2.3512
H	-1.0608	-1.84535	1.92282
H	0.131739	-3.42873	3.111
H	1.56999	-2.36521	2.86909
H	1.15178	-3.60943	1.63267
C	1462.83	3.44585	0.472938
C	1463.58	2.21412	0.130491
O	1464.72	2.26611	-0.291027
H	1463.47	4.33132	0.275869
H	1462.55	3.43717	1.54729
H	1461.91	3.52253	-0.147489
N	1462.93	1.06035	0.302028
C	1463.52	-0.220895	0.0130863
C	1462.4	-1.22024	-0.184666
O	1461.25	-0.94765	0.152539
H	1461.98	1.03274	0.618487
H	1464.07	-0.153072	-0.91829
C	1464.45	-0.683177	1.15966
H	1463.88	-0.751024	2.11375
H	1464.91	-1.66933	0.940372
H	1465.27	0.0578169	1.29524
N	1462.7	-2.3997	-0.75978
C	1461.7	-3.40809	-0.998982
H	1463.64	-2.59863	-1.03217
H	1462.15	-4.306	-1.4777
H	1460.9	-3.01548	-1.66997
H	1461.22	-3.72225	-0.0423865
