44
  This energy is 1.41985e-319 and Call times are: 111201
C	1.79067	-1.17269	2.74671
C	0.691097	-1.29122	1.7628
O	-0.00176551	-2.29784	1.70673
H	1.8443	-2.10392	3.35153
H	1.60582	-0.313581	3.42537
H	2.75907	-1.02798	2.22305
N	0.509156	-0.249066	0.948435
C	-0.519636	-0.215512	-0.0601731
C	-0.122561	0.817717	-1.09652
O	0.776636	1.62443	-0.867424
H	1.09887	0.553348	0.984578
H	-0.559787	-1.17812	-0.553986
C	-1.89321	0.143843	0.549141
H	-1.84824	1.13162	1.0555
H	-2.6877	0.170409	-0.224718
H	-2.17211	-0.61988	1.30749
N	-0.77381	0.802123	-2.27619
C	-0.455679	1.74017	-3.3274
H	-1.49361	0.136832	-2.44505
H	-1.10101	1.5678	-4.21683
H	0.608239	1.63356	-3.64037
H	-0.610019	2.78731	-2.97976
C	5269.86	-1.42821	-2.49988
C	5268.8	-1.5117	-1.46856
O	5268.11	-2.51609	-1.34802
H	5269.88	-2.37569	-3.08094
H	5270.85	-1.27736	-2.0205
H	5269.65	-0.586045	-3.1934
N	5268.64	-0.436299	-0.693578
C	5267.65	-0.366554	0.353482
C	5267.4	1.09714	0.654894
O	5268.16	1.9681	0.235172
H	5269.19	0.386743	-0.820791
H	5266.73	-0.795567	-0.00736849
C	5268.13	-1.09534	1.62863
H	5269.08	-0.653119	1.9957
H	5267.37	-1.04371	2.43683
H	5268.32	-2.16619	1.39429
N	5266.3	1.4038	1.37594
C	5265.97	2.7712	1.7017
H	5265.69	0.685218	1.70045
H	5265.03	2.81651	2.30114
H	5265.82	3.37106	0.774634
H	5266.79	3.24436	2.29201
