44
  This energy is 1.08111e-319 and Call times are: 4941
C	1.44772	2.16579	-2.31076
C	0.283324	1.43031	-1.76812
O	-0.844315	1.62262	-2.20164
H	1.10432	2.86074	-3.10761
H	2.18072	1.45428	-2.74584
H	1.93719	2.7547	-1.50668
N	0.535784	0.561315	-0.786552
C	-0.49285	-0.228469	-0.158076
C	0.0254346	-0.677439	1.19435
O	1.21854	-0.578682	1.47468
H	1.45457	0.434886	-0.422149
H	-1.36065	0.395827	0.012938
C	-0.864143	-1.45644	-1.0191
H	0.0285558	-2.09433	-1.19314
H	-1.65603	-2.06669	-0.538181
H	-1.24122	-1.11418	-2.00744
N	-0.869464	-1.16403	2.07661
C	-0.470064	-1.60475	3.39283
H	-1.83168	-1.22929	1.83348
H	-1.34842	-1.97239	3.96779
H	-0.00343282	-0.768586	3.96233
H	0.273509	-2.43132	3.32176
C	240.693	-1.33033	2.01787
C	241.632	-1.42261	0.876994
O	241.771	-2.46694	0.25531
H	240.203	-2.31624	2.17067
H	239.912	-0.568898	1.81012
H	241.241	-1.05428	2.94325
N	242.311	-0.313314	0.576981
C	243.26	-0.246727	-0.505547
C	244.188	0.922913	-0.24047
O	243.91	1.76574	0.61043
H	242.211	0.522977	1.10933
H	243.859	-1.14857	-0.504378
C	242.55	-0.0640006	-1.86555
H	241.936	0.861751	-1.86301
H	243.278	-0.0124926	-2.7013
H	241.873	-0.926577	-2.04735
N	245.33	0.988844	-0.952909
C	246.28	2.05977	-0.760517
H	245.541	0.293209	-1.63186
H	247.152	1.9385	-1.43996
H	246.652	2.07068	0.289443
H	245.807	3.04672	-0.969438
