44
  This energy is 3.6383e-320 and Call times are: 20355
C	-1.90506	-2.90479	0.243121
C	-0.74391	-2.14965	-0.279101
O	0.135467	-2.70643	-0.921902
H	-1.80581	-3.97466	-0.0421531
H	-2.8469	-2.50404	-0.18717
H	-1.94373	-2.83015	1.35032
N	-0.713486	-0.843639	-0.0038457
C	0.350472	0.0232543	-0.443527
C	0.348708	1.25116	0.446121
O	-0.607462	1.4944	1.17988
H	-1.42109	-0.407348	0.545593
H	1.29723	-0.482882	-0.303714
C	0.164866	0.437034	-1.9205
H	-0.807673	0.955391	-2.06047
H	0.982465	1.10445	-2.26235
H	0.16673	-0.471323	-2.56162
N	1.43665	2.04586	0.416842
C	1.52957	3.23025	1.23827
H	2.20317	1.82813	-0.17836
H	2.49866	3.74993	1.07079
H	1.45549	2.96626	2.31812
H	0.704979	3.94019	0.999063
C	970.06	-3.29695	1.1094
C	970.076	-1.83778	1.35786
O	970.073	-1.38989	2.49623
H	970.039	-3.83492	2.08203
H	970.97	-3.60033	0.5506
H	969.158	-3.57551	0.525
N	970.089	-1.05251	0.278243
C	970.106	0.386273	0.358382
C	969.599	0.932597	-0.962208
O	969.501	0.203926	-1.94771
H	970.062	-1.42912	-0.643913
H	969.418	0.70393	1.13152
C	971.529	0.916752	0.641724
H	972.233	0.588458	-0.152995
H	971.546	2.02427	0.70421
H	971.889	0.508418	1.61108
N	969.243	2.2316	-1.00598
C	968.739	2.83642	-2.21663
H	969.323	2.80305	-0.195882
H	968.504	3.91095	-2.05102
H	967.81	2.32262	-2.55482
H	969.491	2.76404	-3.03528
