44
  This energy is 1.00468e-319 and Call times are: 46311
C	1.37776	3.16196	0.479511
C	1.48828	1.68635	0.439943
O	2.573	1.13028	0.543255
H	2.39073	3.60295	0.603138
H	0.742648	3.47523	1.33468
H	0.934992	3.53824	-0.466699
N	0.348084	1.01034	0.280793
C	0.294016	-0.428619	0.223445
C	-0.999595	-0.819201	-0.464491
O	-1.89532	0.00586472	-0.634106
H	-0.525765	1.47589	0.168581
H	1.11273	-0.787426	-0.387329
C	0.353025	-1.05049	1.63656
H	-0.487906	-0.679729	2.26065
H	0.31176	-2.15839	1.59607
H	1.30467	-0.755969	2.1303
N	-1.1181	-2.08958	-0.898196
C	-2.30863	-2.54913	-1.57467
H	-0.379212	-2.7404	-0.757793
H	-2.21439	-3.62245	-1.851
H	-2.48335	-1.96172	-2.50508
H	-3.20246	-2.43273	-0.919916
C	2201.4	1.51035	-0.461938
C	2200.37	0.903346	0.403483
O	2200.58	0.684166	1.58784
H	2202.32	1.69514	0.138022
H	2201.04	2.47666	-0.871908
H	2201.65	0.824535	-1.29871
N	2199.2	0.608774	-0.181691
C	2198.1	0.0149706	0.528945
C	2197.19	-0.643293	-0.489951
O	2197.31	-0.401008	-1.68939
H	2199.05	0.765345	-1.15398
H	2198.48	-0.761178	1.18197
C	2197.32	1.07376	1.33583
H	2196.93	1.86881	0.662899
H	2196.46	0.619911	1.88436
H	2197.99	1.54938	2.07779
N	2196.27	-1.51333	-0.0342138
C	2195.37	-2.19702	-0.931431
H	2196.19	-1.70144	0.939404
H	2194.68	-2.86768	-0.36589
H	2195.93	-2.81367	-1.66513
H	2194.75	-1.46527	-1.50058
