44
  This energy is 1.43437e-319 and Call times are: 12333
C	-2.42723	-2.00637	1.48633
C	-1.96632	-0.71076	0.938454
O	-2.73706	0.229854	0.805398
H	-3.51275	-1.94214	1.71735
H	-1.87482	-2.24543	2.41935
H	-2.26512	-2.8156	0.743491
N	-0.677604	-0.635675	0.597974
C	-0.0816531	0.557427	0.0519167
C	1.18256	0.153149	-0.681278
O	1.66967	-0.964922	-0.524866
H	-0.0664988	-1.41803	0.684001
H	-0.759276	0.988672	-0.673981
C	0.251732	1.57858	1.16242
H	0.946551	1.13266	1.90572
H	0.710622	2.49853	0.745418
H	-0.682343	1.86576	1.69268
N	1.73327	1.05243	-1.52033
C	2.93061	0.751905	-2.27016
H	1.32007	1.94937	-1.63867
H	3.22708	1.61837	-2.9015
H	2.76743	-0.126833	-2.93531
H	3.77483	0.513123	-1.58353
C	591.7	1.34456	-3.21065
C	592.28	0.432639	-2.19889
O	593.131	-0.391454	-2.50378
H	592.156	1.13101	-4.20174
H	591.91	2.40047	-2.93869
H	590.602	1.19177	-3.27971
N	591.818	0.559545	-0.952566
C	592.285	-0.255443	0.140504
C	591.231	-0.22182	1.22993
O	590.326	0.610569	1.20385
H	591.104	1.21493	-0.722592
H	592.375	-1.27978	-0.19803
C	593.634	0.259769	0.690329
H	593.537	1.31108	1.03611
H	593.996	-0.365585	1.53201
H	594.397	0.231249	-0.117554
N	591.312	-1.14642	2.20694
C	590.346	-1.19912	3.27945
H	592.047	-1.81604	2.20652
H	590.584	-2.02668	3.98332
H	589.32	-1.36614	2.87687
H	590.341	-0.242936	3.85118
