44
  This energy is 1.55008e-319 and Call times are: 66975
C	-0.842023	-0.109779	-3.37714
C	-0.740075	-0.736706	-2.04006
O	-1.21418	-1.84322	-1.82245
H	-1.39186	-0.791739	-4.06159
H	0.171451	0.0746921	-3.79146
H	-1.39345	0.851533	-3.30822
N	-0.1131	-0.0273359	-1.09876
C	0.0655049	-0.503451	0.249667
C	0.319484	0.69859	1.13839
O	0.594281	1.7936	0.651296
H	0.243235	0.885271	-1.28072
H	-0.852787	-0.970419	0.582465
C	1.24773	-1.49362	0.34462
H	2.18803	-1.0115	0.00182122
H	1.38797	-1.86231	1.38153
H	1.05003	-2.36898	-0.311733
N	0.211194	0.525194	2.47039
C	0.423609	1.61513	3.39401
H	-0.01909	-0.36701	2.84478
H	0.291194	1.27238	4.44389
H	-0.299557	2.44035	3.2009
H	1.45343	2.02635	3.28659
C	3179.17	2.2312	-1.23785
C	3178.72	1.22139	-0.2521
O	3179.49	0.78269	0.595406
H	3180.24	2.46963	-1.05946
H	3178.57	3.16081	-1.13107
H	3179.06	1.83574	-2.26923
N	3177.45	0.820694	-0.347915
C	3176.87	-0.155317	0.53922
C	3175.65	-0.741048	-0.146338
O	3175.17	-0.202207	-1.14126
H	3176.85	1.16406	-1.06104
H	3177.58	-0.958707	0.691398
C	3176.47	0.480433	1.88838
H	3175.74	1.30465	1.7285
H	3176.02	-0.268352	2.57393
H	3177.37	0.906852	2.37997
N	3175.14	-1.87762	0.360882
C	3173.98	-2.51436	-0.232478
H	3175.54	-2.30228	1.16236
H	3173.71	-3.43486	0.328986
H	3174.19	-2.79755	-1.28966
H	3173.11	-1.82627	-0.225623
