44
  This energy is 1.11585e-319 and Call times are: 34845
C	1.70614	-2.66514	-1.45336
C	0.742428	-2.11595	-0.473122
O	0.0525995	-2.85361	0.217168
H	1.66189	-3.77569	-1.4293
H	2.73719	-2.34101	-1.199
H	1.45153	-2.31739	-2.47668
N	0.66968	-0.785193	-0.394719
C	-0.219704	-0.103026	0.51108
C	-0.426102	1.30551	-0.0111031
O	0.306534	1.76566	-0.884794
H	1.21596	-0.195018	-0.983115
H	-1.18085	-0.601215	0.502347
C	0.360202	-0.0593139	1.94248
H	1.34652	0.451832	1.94766
H	-0.322162	0.465129	2.64257
H	0.507838	-1.09711	2.31307
N	-1.44906	2.01818	0.500429
C	-1.72962	3.36344	0.0557588
H	-2.03505	1.62557	1.20164
H	-2.60759	3.78114	0.596076
H	-1.95052	3.37827	-1.03613
H	-0.85527	4.02878	0.240185
C	1655.34	-2.9402	1.83015
C	1655.35	-1.46348	1.7285
O	1655.01	-0.761548	2.67256
H	1654.99	-3.23564	2.84272
H	1656.36	-3.34335	1.67256
H	1654.65	-3.37027	1.07167
N	1655.74	-0.952991	0.557794
C	1655.8	0.464492	0.306065
C	1655.76	0.673404	-1.19525
O	1655.94	-0.268109	-1.96593
H	1655.98	-1.53574	-0.213111
H	1654.93	0.937259	0.727778
C	1657.09	1.0818	0.893756
H	1657.99	0.59402	0.45946
H	1657.14	2.17319	0.701854
H	1657.11	0.92105	1.99374
N	1655.51	1.91673	-1.64662
C	1655.44	2.2083	-3.05952
H	1655.36	2.6639	-1.00699
H	1655.22	3.28554	-3.22834
H	1654.63	1.60663	-3.54566
H	1656.4	1.96483	-3.55933
