44
  This energy is 3.15461e-320 and Call times are: 37743
C	2.25674	0.029341	-2.65187
C	1.81481	0.48251	-1.31376
O	2.53388	1.18166	-0.613306
H	3.27885	0.417948	-2.85221
H	1.56698	0.412985	-3.43281
H	2.27975	-1.08007	-2.69209
N	0.603042	0.081669	-0.922211
C	0.0347953	0.441238	0.3524
C	-1.05316	-0.563662	0.677622
O	-1.48605	-1.32329	-0.186904
H	0.0386846	-0.511816	-1.48985
H	0.798943	0.356973	1.11467
C	-0.552954	1.86981	0.323346
H	-1.33607	1.95289	-0.460198
H	-0.991199	2.14996	1.30326
H	0.253644	2.59627	0.0829252
N	-1.50672	-0.605373	1.94591
C	-2.53285	-1.53758	2.35116
H	-1.13866	0.012741	2.63271
H	-2.77067	-1.4157	3.4309
H	-2.19924	-2.58704	2.18206
H	-3.4664	-1.3735	1.76573
C	1794.11	-1.30559	0.348031
C	1792.77	-1.29868	-0.277456
O	1792.51	-2.02112	-1.23055
H	1794.76	-2.02935	-0.188205
H	1794.03	-1.6109	1.41285
H	1794.57	-0.295556	0.285093
N	1791.87	-0.462952	0.251628
C	1790.52	-0.343387	-0.247247
C	1789.98	0.997764	0.202545
O	1790.55	1.65094	1.07156
H	1792.1	0.141606	1.00946
H	1790.55	-0.342311	-1.32959
C	1789.63	-1.4858	0.277921
H	1789.6	-1.48437	1.3886
H	1788.59	-1.39688	-0.104405
H	1790.04	-2.4628	-0.0573206
N	1788.86	1.45097	-0.398565
C	1788.27	2.72263	-0.0441072
H	1788.41	0.910931	-1.10464
H	1787.36	2.91627	-0.647654
H	1789	3.55189	-0.225082
H	1787.99	2.73894	1.03371
