44
  This energy is 1.2115e-319 and Call times are: 59289
C	1.28237	2.42737	-2.14232
C	0.761047	1.99809	-0.825074
O	0.789198	2.74777	0.141201
H	1.66922	3.46658	-2.06329
H	0.47213	2.40229	-2.90107
H	2.1094	1.75941	-2.46294
N	0.271011	0.758109	-0.756721
C	-0.271855	0.197881	0.455
C	-0.240236	-1.31253	0.324955
O	-0.0445616	-1.84559	-0.765636
H	0.280331	0.146918	-1.54367
H	0.367097	0.469975	1.28553
C	-1.71943	0.679976	0.698345
H	-2.37203	0.399763	-0.155889
H	-2.14044	0.250612	1.63064
H	-1.72918	1.78792	0.790633
N	-0.41163	-2.04019	1.44617
C	-0.385206	-3.4841	1.42131
H	-0.561557	-1.59012	2.32035
H	-0.546797	-3.89798	2.44103
H	0.596527	-3.85265	1.045
H	-1.18248	-3.88035	0.75159
C	2813.11	2.15993	-2.205
C	2811.91	1.72355	-1.4526
O	2810.9	2.40166	-1.43546
H	2812.9	3.1378	-2.69125
H	2813.36	1.41506	-2.98899
H	2813.98	2.27721	-1.51628
N	2812.01	0.563983	-0.798615
C	2810.93	0.00786221	-0.0232082
C	2811.53	-0.97845	0.963231
O	2812.69	-1.37163	0.838348
H	2812.86	0.0350527	-0.796499
H	2810.47	0.800391	0.546128
C	2809.9	-0.701499	-0.926214
H	2810.39	-1.5135	-1.50933
H	2809.07	-1.13074	-0.332385
H	2809.47	0.0313647	-1.64496
N	2810.75	-1.38597	1.9854
C	2811.24	-2.31443	2.98011
H	2809.82	-1.05082	2.07314
H	2810.45	-2.52726	3.73609
H	2812.12	-1.89715	3.50744
H	2811.54	-3.27688	2.50619
