44
  This energy is 3.0889e-320 and Call times are: 20145
C	-2.74913	0.658049	2.03356
C	-1.96869	0.864838	0.792853
O	-2.41274	1.53457	-0.129521
H	-3.72469	1.18381	1.94573
H	-2.19725	1.06795	2.90547
H	-2.93738	-0.424807	2.19145
N	-0.770322	0.278635	0.741464
C	0.105142	0.388095	-0.398014
C	1.08391	-0.76888	-0.346406
O	1.20747	-1.44264	0.674678
H	-0.432027	-0.288498	1.48769
H	-0.480186	0.283671	-1.30276
C	0.869212	1.73096	-0.393379
H	1.4681	1.83508	0.536467
H	1.54412	1.81861	-1.2695
H	0.141083	2.57037	-0.43023
N	1.79031	-1.04026	-1.46146
C	2.73696	-2.13008	-1.50971
H	1.67089	-0.487879	-2.2799
H	3.2174	-2.1896	-2.51115
H	2.22932	-3.10073	-1.30629
H	3.53548	-1.99124	-0.745336
C	957.816	-0.399236	-2.76118
C	959.156	-0.392306	-2.13184
O	960.146	-0.759503	-2.74871
H	957.902	-0.778152	-3.80281
H	957.4	0.629802	-2.78616
H	957.13	-1.06165	-2.19295
N	959.214	0.0276896	-0.865916
C	960.445	0.0914561	-0.119507
C	960.096	0.0937585	1.35603
O	958.942	0.299196	1.72855
H	958.396	0.29666	-0.364866
H	961.024	-0.801241	-0.319043
C	961.254	1.35864	-0.47593
H	960.657	2.27252	-0.27063
H	962.203	1.41082	0.0969033
H	961.503	1.34553	-1.55952
N	961.087	-0.157972	2.23349
C	960.847	-0.188088	3.65732
H	962.013	-0.328868	1.91191
H	961.786	-0.409227	4.2104
H	960.097	-0.971706	3.91252
H	960.454	0.79304	4.01048
