44
  This energy is 9.89218e-320 and Call times are: 109395
C	3.30951	0.426543	0.995662
C	2.29029	0.0803841	-0.0204929
O	2.60225	-0.121865	-1.18594
H	4.31057	0.464498	0.513684
H	3.32585	-0.340815	1.79798
H	3.08619	1.41977	1.43903
N	1.02735	0.00961128	0.406522
C	-0.0746517	-0.316405	-0.463036
C	-1.34701	0.191476	0.18688
O	-1.3557	0.536136	1.36712
H	0.782334	0.205109	1.3524
H	0.0489577	0.210821	-1.40049
C	-0.171411	-1.83986	-0.70146
H	-0.297491	-2.37766	0.262378
H	-1.01881	-2.09438	-1.37072
H	0.767066	-2.19969	-1.17678
N	-2.45233	0.270014	-0.58
C	-3.70649	0.752839	-0.0507215
H	-2.42324	-0.0069206	-1.53483
H	-4.4952	0.740215	-0.834965
H	-3.59956	1.79729	0.32201
H	-4.04591	0.116326	0.798293
C	5185.03	-1.52713	-0.124496
C	5184.14	-0.41351	0.274855
O	5184.54	0.487048	0.999682
H	5186.03	-1.38135	0.337137
H	5185.14	-1.54904	-1.2288
H	5184.61	-2.49509	0.223065
N	5182.89	-0.455648	-0.193383
C	5181.91	0.555473	0.107247
C	5180.53	-0.0455794	-0.122301
O	5180.4	-1.10542	-0.732318
H	5182.57	-1.20984	-0.759273
H	5181.98	0.816867	1.15526
C	5182.09	1.8047	-0.78213
H	5182.02	1.5328	-1.8566
H	5181.34	2.58532	-0.553166
H	5183.1	2.23486	-0.605526
N	5179.47	0.611174	0.383655
C	5178.13	0.108515	0.22503
H	5179.6	1.46369	0.880447
H	5177.39	0.789891	0.708796
H	5178.03	-0.89985	0.688176
H	5177.86	0.020148	-0.854234
