44
  This energy is 1.16822e-319 and Call times are: 11325
C	2.79017	2.03175	-0.461601
C	2.11885	0.860981	0.146548
O	2.7473	0.0414753	0.802263
H	3.8751	1.99879	-0.221393
H	2.36082	2.97212	-0.0564058
H	2.66563	2.01417	-1.56483
N	0.805387	0.753436	-0.0669979
C	0.0140005	-0.329768	0.459505
C	-1.24987	-0.430493	-0.372191
O	-1.57337	0.476712	-1.13649
H	0.31	1.41191	-0.627298
H	0.561377	-1.25609	0.339586
C	-0.34419	-0.0948908	1.94397
H	-0.905072	0.856558	2.06344
H	-0.95341	-0.927153	2.35259
H	0.590061	-0.0217429	2.54228
N	-1.98582	-1.55353	-0.257462
C	-3.19847	-1.74335	-1.0188
H	-1.7035	-2.27936	0.36117
H	-3.66011	-2.72776	-0.784104
H	-2.98577	-1.70768	-2.11183
H	-3.93862	-0.944212	-0.78484
C	546.435	-2.02891	-1.03231
C	545.701	-0.743316	-1.04136
O	546.16	0.243036	-1.60077
H	547.394	-1.90819	-1.58106
H	545.833	-2.81686	-1.5311
H	546.655	-2.33714	0.0116122
N	544.528	-0.725894	-0.405292
C	543.698	0.449998	-0.327472
C	542.76	0.28086	0.851343
O	542.617	-0.8158	1.38866
H	544.178	-1.52805	0.0714863
H	544.325	1.31007	-0.128233
C	542.888	0.653636	-1.62699
H	542.247	-0.230822	-1.8287
H	542.248	1.55829	-1.57053
H	543.587	0.77509	-2.48306
N	542.111	1.3753	1.29624
C	541.207	1.31282	2.42045
H	542.246	2.2552	0.852516
H	540.772	2.31461	2.63131
H	541.739	0.962541	3.33424
H	540.372	0.60436	2.21434
