44
  This energy is 4.35914e-320 and Call times are: 100617
C	-2.67751	-1.7493	1.37732
C	-1.76104	-0.587335	1.34391
O	-1.94238	0.382316	2.06737
H	-3.48283	-1.56066	2.12012
H	-2.12354	-2.6651	1.6727
H	-3.13829	-1.90233	0.37872
N	-0.742772	-0.659766	0.48353
C	0.232465	0.390994	0.336409
C	0.889847	0.229872	-1.02047
O	0.751851	-0.807063	-1.66666
H	-0.622475	-1.44254	-0.121223
H	-0.276129	1.34669	0.344113
C	1.29798	0.329945	1.45358
H	1.81731	-0.652045	1.44321
H	2.0504	1.13773	1.34341
H	0.803593	0.447997	2.44241
N	1.60655	1.26772	-1.49503
C	2.2584	1.20996	-2.78264
H	1.7005	2.101	-0.960185
H	2.79845	2.15936	-2.99294
H	1.51257	1.04399	-3.59347
H	2.99395	0.373791	-2.81368
C	4762.16	1.28646	1.55239
C	4763.27	0.313006	1.4739
O	4763.49	-0.477017	2.38293
H	4761.63	1.15762	2.51929
H	4761.44	1.11644	0.721416
H	4762.55	2.32312	1.49439
N	4764.02	0.354313	0.36833
C	4765.14	-0.529019	0.146284
C	4766.04	0.109834	-0.893711
O	4765.64	1.05878	-1.56869
H	4763.85	1.02201	-0.35226
H	4765.71	-0.615734	1.06392
C	4764.67	-1.91858	-0.339085
H	4764.08	-1.82584	-1.28027
H	4765.52	-2.6013	-0.510892
H	4764.01	-2.37544	0.430941
N	4767.28	-0.385479	-1.03173
C	4768.21	0.166639	-1.98801
H	4767.59	-1.14914	-0.471162
H	4769.18	-0.377119	-1.95181
H	4768.41	1.24244	-1.77219
H	4767.81	0.0896398	-3.02228
