44
  This energy is 1.1739e-320 and Call times are: 92889
C	1.43303	2.94878	1.17358
C	1.50669	1.67374	0.425203
O	2.4926	1.38655	-0.239616
H	2.36843	3.5263	1.00817
H	1.32155	2.74879	2.26004
H	0.570834	3.55177	0.818664
N	0.443456	0.871313	0.514746
C	0.366401	-0.401885	-0.155968
C	-1.09764	-0.778747	-0.27345
O	-1.95433	-0.182442	0.376427
H	-0.365526	1.12966	1.03604
H	0.760223	-0.295691	-1.15881
C	1.13549	-1.49409	0.620374
H	0.729324	-1.59991	1.64894
H	1.07834	-2.4757	0.106619
H	2.20624	-1.20562	0.700582
N	-1.42147	-1.7696	-1.12747
C	-2.791	-2.18878	-1.31416
H	-0.714512	-2.23513	-1.6497
H	-2.85143	-3.01646	-2.05479
H	-3.41418	-1.34215	-1.68309
H	-3.22735	-2.54553	-0.353167
C	4395.53	-0.433512	-0.784162
C	4396.67	-0.478084	0.170807
O	4396.48	-0.700526	1.35946
H	4394.58	-0.619695	-0.237781
H	4395.66	-1.21511	-1.56267
H	4395.48	0.564491	-1.26799
N	4397.88	-0.257702	-0.337311
C	4399.08	-0.268841	0.465384
C	4400.15	0.505139	-0.281261
O	4400	0.791222	-1.46831
H	4398.01	-0.0487711	-1.30232
H	4398.88	0.251758	1.39446
C	4399.56	-1.71154	0.737755
H	4399.76	-2.2429	-0.217515
H	4400.48	-1.72379	1.35571
H	4398.77	-2.26827	1.28403
N	4401.24	0.882494	0.407912
C	4402.31	1.63288	-0.216521
H	4401.34	0.647524	1.36966
H	4403.12	1.84565	0.513509
H	4401.92	2.60322	-0.609281
H	4402.74	1.0626	-1.06881
