44
  This energy is 1.01066e-319 and Call times are: 83649
C	3.30406	0.824606	-0.727547
C	1.84729	1.05702	-0.850025
O	1.41054	2.05299	-1.41018
H	3.85168	1.66876	-1.20019
H	3.58548	-0.118724	-1.24112
H	3.59328	0.762922	0.342731
N	1.05155	0.128797	-0.313765
C	-0.38647	0.214652	-0.353062
C	-0.93623	-0.667838	0.750665
O	-0.215437	-1.4857	1.31934
H	1.41967	-0.663508	0.165481
H	-0.684127	1.23326	-0.138792
C	-0.939906	-0.23994	-1.72207
H	-0.6321	-1.28508	-1.93898
H	-2.04689	-0.17495	-1.75582
H	-0.528839	0.413567	-2.52213
N	-2.22892	-0.505749	1.09515
C	-2.83615	-1.29298	2.14287
H	-2.7939	0.166382	0.627941
H	-3.90459	-1.01362	2.27566
H	-2.30888	-1.13202	3.11102
H	-2.78532	-2.37872	1.8984
C	3967	1.74555	-0.291035
C	3966.17	0.67305	0.303118
O	3966.66	-0.1647	1.04878
H	3968.05	1.62748	0.0490652
H	3966.63	2.74047	0.0317614
H	3966.97	1.6822	-1.39924
N	3964.88	0.673349	-0.025359
C	3963.94	-0.305469	0.472734
C	3962.75	-0.33484	-0.466429
O	3962.58	0.557048	-1.29591
H	3964.5	1.34389	-0.656882
H	3964.41	-1.28229	0.443972
C	3963.48	0.0372121	1.9064
H	3963	1.04022	1.93237
H	3962.76	-0.714529	2.29306
H	3964.36	0.05677	2.58428
N	3961.91	-1.37958	-0.371152
C	3960.75	-1.49853	-1.23174
H	3962.06	-2.0949	0.301744
H	3960.18	-2.42389	-0.997935
H	3961.06	-1.53877	-2.30112
H	3960.07	-0.624943	-1.10173
