44
  This energy is 6.47226e-321 and Call times are: 36861
C	1.46775	-2.03583	-2.41397
C	1.46706	-0.832993	-1.55119
O	2.44706	-0.104166	-1.48123
H	2.45261	-2.12265	-2.92227
H	0.671885	-1.9548	-3.18394
H	1.29786	-2.94636	-1.80158
N	0.349062	-0.599831	-0.859745
C	0.196383	0.530148	0.0215408
C	-0.919649	0.212307	0.997598
O	-1.67951	-0.733391	0.797348
H	-0.432037	-1.21705	-0.902906
H	1.10719	0.656252	0.593024
C	-0.137117	1.81679	-0.766142
H	-1.07168	1.68368	-1.35179
H	-0.255202	2.68886	-0.0906166
H	0.687442	2.03804	-1.47839
N	-1.03039	0.987332	2.09445
C	-2.05498	0.752782	3.0851
H	-0.40134	1.74345	2.24213
H	-1.98232	1.49593	3.90954
H	-1.95268	-0.266836	3.52231
H	-3.06831	0.832822	2.62909
C	1748.49	-1.72659	2.99584
C	1749.34	-1.15862	1.92762
O	1750.56	-1.14711	2.03049
H	1749.13	-2.09316	3.82433
H	1747.89	-2.57675	2.59954
H	1747.8	-0.948881	3.39164
N	1748.71	-0.661618	0.863389
C	1749.4	-0.0759439	-0.256576
C	1748.42	0.819737	-0.992183
O	1747.21	0.754105	-0.76431
H	1747.71	-0.650505	0.804438
H	1750.2	0.548222	0.113757
C	1749.95	-1.16173	-1.21015
H	1749.12	-1.80062	-1.58765
H	1750.48	-0.714224	-2.07355
H	1750.66	-1.81184	-0.659037
N	1748.92	1.69785	-1.88147
C	1748.07	2.59901	-2.62036
H	1749.9	1.74062	-2.04661
H	1748.67	3.24015	-3.30179
H	1747.5	3.26075	-1.92631
H	1747.34	2.02973	-3.23314
