44
  This energy is 1.51219e-319 and Call times are: 12627
C	3.32125	-1.00747	-0.283624
C	2.23205	-0.298836	0.425383
O	2.40785	0.180395	1.5371
H	4.23212	-1.01229	0.353681
H	3.5541	-0.492498	-1.23935
H	3.02315	-2.05651	-0.492427
N	1.06148	-0.221667	-0.21194
C	-0.0917866	0.436084	0.348559
C	-1.32249	-0.100284	-0.356365
O	-1.21884	-0.749976	-1.39511
H	0.922411	-0.641435	-1.10491
H	-0.172068	0.17379	1.39586
C	-0.00529666	1.9688	0.174121
H	0.0776355	2.2343	-0.901401
H	-0.891661	2.47841	0.604733
H	0.900932	2.34917	0.693939
N	-2.52182	0.142641	0.20807
C	-3.74757	-0.338776	-0.385192
H	-2.5843	0.66424	1.05262
H	-4.62596	-0.0353133	0.226025
H	-3.73859	-1.45046	-0.458148
H	-3.87563	0.0735916	-1.41219
C	607.191	-1.7531	2.66769
C	607.26	-0.713869	1.61579
O	608.2	0.0675938	1.559
H	608.083	-1.66861	3.32619
H	607.179	-2.76335	2.20717
H	606.277	-1.61619	3.28204
N	606.245	-0.679135	0.749382
C	606.17	0.274057	-0.328865
C	604.72	0.377779	-0.758893
O	603.894	-0.455432	-0.390817
H	605.471	-1.30244	0.823753
H	606.474	1.24581	0.0387133
C	607.049	-0.158072	-1.52386
H	606.734	-1.15565	-1.89801
H	606.993	0.573734	-2.35583
H	608.108	-0.231526	-1.19555
N	604.371	1.42253	-1.53542
C	603.011	1.61006	-1.98391
H	605.052	2.09006	-1.8168
H	602.927	2.52371	-2.61271
H	602.322	1.71786	-1.11497
H	602.672	0.736787	-2.58696
