44
  This energy is 1.18299e-319 and Call times are: 84321
C	1.70787	1.60307	2.57671
C	1.57289	1.19744	1.15952
O	2.34357	1.61463	0.306006
H	2.56739	2.30069	2.6788
H	1.89043	0.712286	3.21389
H	0.784805	2.11781	2.91721
N	0.568903	0.36505	0.874008
C	0.309501	-0.118671	-0.45849
C	-1.1342	-0.578943	-0.51424
O	-1.78302	-0.739689	0.517763
H	-0.0698611	0.0552818	1.57327
H	0.420958	0.700105	-1.15796
C	1.25352	-1.28483	-0.827277
H	1.13706	-2.12279	-0.107287
H	1.0566	-1.6596	-1.85273
H	2.30792	-0.935126	-0.78157
N	-1.67919	-0.781569	-1.72994
C	-3.05055	-1.20885	-1.88156
H	-1.1399	-0.639171	-2.55342
H	-3.31069	-1.32157	-2.95713
H	-3.74601	-0.465478	-1.42881
H	-3.21529	-2.18807	-1.3764
C	3999.23	-0.843882	0.978277
C	3998.21	0.151449	0.588102
O	3998.44	1.3517	0.655899
H	4000.15	-0.31422	1.31639
H	3999.49	-1.48881	0.111598
H	3998.86	-1.47556	1.80983
N	3997.04	-0.334978	0.169535
C	3995.95	0.507574	-0.243906
C	3994.67	-0.304437	-0.145407
O	3994.71	-1.52602	-0.0116033
H	3996.86	-1.31434	0.146451
H	3995.86	1.33812	0.445403
C	3996.14	1.01524	-1.68986
H	3996.23	0.160603	-2.39425
H	3995.3	1.66443	-2.01136
H	3997.08	1.60748	-1.74898
N	3993.5	0.362841	-0.187823
C	3992.23	-0.325071	-0.0893894
H	3993.49	1.35218	-0.289359
H	3991.39	0.396191	-0.146382
H	3992.16	-0.875801	0.876261
H	3992.12	-1.06255	-0.916889
