44
  This energy is 1.44855e-319 and Call times are: 54081
C	1.94417	-0.971595	2.72072
C	0.641332	-0.853254	2.02804
O	-0.366576	-1.37669	2.48261
H	1.81665	-1.58173	3.64123
H	2.31891	0.0341032	3.00527
H	2.68535	-1.46856	2.05995
N	0.636011	-0.155149	0.890068
C	-0.55417	0.0480711	0.103304
C	-0.125359	0.398012	-1.3084
O	1.03816	0.711937	-1.55233
H	1.46948	0.241856	0.515022
H	-1.1088	-0.880586	0.0579468
C	-1.42903	1.17909	0.688567
H	-0.856725	2.13014	0.734279
H	-2.34637	1.33811	0.0852672
H	-1.73558	0.911192	1.72317
N	-1.0571	0.330306	-2.27962
C	-0.738203	0.63415	-3.65518
H	-1.99158	0.0673194	-2.06323
H	-1.63697	0.522942	-4.30102
H	0.0536295	-0.0511218	-4.0355
H	-0.365036	1.67954	-3.75048
C	2563.37	-0.562804	-2.7727
C	2564.7	-0.344662	-2.15382
O	2565.73	-0.452309	-2.80763
H	2563.5	-0.824712	-3.84484
H	2562.76	0.361114	-2.70191
H	2562.84	-1.39552	-2.26234
N	2564.7	-0.0336577	-0.855502
C	2565.91	0.208131	-0.114205
C	2565.61	0.0120537	1.35768
O	2564.44	-0.0492833	1.75456
H	2563.86	0.0224677	-0.32701
H	2566.65	-0.530718	-0.397293
C	2566.45	1.63702	-0.359734
H	2565.69	2.39243	-0.0688756
H	2567.38	1.8265	0.209444
H	2566.67	1.76829	-1.44163
N	2566.65	-0.113245	2.20249
C	2566.45	-0.314868	3.61927
H	2567.58	-0.067984	1.86091
H	2567.43	-0.392292	4.14412
H	2565.88	-1.25112	3.80733
H	2565.88	0.534033	4.06216
