44
  This energy is 1.40987e-319 and Call times are: 91629
C	1.999	-1.72296	-2.2719
C	1.37256	-1.57711	-0.938668
O	1.43897	-2.47201	-0.107261
H	2.48353	-2.72099	-2.34284
H	2.76998	-0.937851	-2.42029
H	1.22921	-1.63978	-3.06779
N	0.734861	-0.427588	-0.705656
C	0.0766707	-0.138096	0.543266
C	-0.942274	0.955974	0.290283
O	-0.920368	1.60634	-0.752969
H	0.662856	0.282035	-1.40149
H	-0.460952	-1.01911	0.870155
C	1.08758	0.316017	1.61982
H	1.63781	1.21962	1.28091
H	0.584147	0.539599	2.58281
H	1.82916	-0.493598	1.79509
N	-1.87768	1.16992	1.23645
C	-2.89554	2.18228	1.07746
H	-1.88297	0.628305	2.07063
H	-3.56891	2.2053	1.9625
H	-3.513	1.97986	0.172464
H	-2.43354	3.18946	0.962
C	4342.24	-1.23568	-2.68283
C	4342.13	-0.448849	-1.4342
O	4343.12	0.0248281	-0.892444
H	4343.31	-1.29879	-2.98082
H	4341.67	-0.744595	-3.49807
H	4341.85	-2.26313	-2.52493
N	4340.9	-0.295685	-0.940136
C	4340.63	0.443772	0.266669
C	4339.28	-0.0114596	0.799593
O	4338.52	-0.673923	0.0984451
H	4340.1	-0.711055	-1.37493
H	4341.38	0.194886	1.00777
C	4340.61	1.96565	0.00105351
H	4339.84	2.21735	-0.760174
H	4340.4	2.53805	0.92822
H	4341.6	2.28632	-0.390051
N	4338.97	0.317364	2.06831
C	4337.72	-0.0826157	2.66505
H	4339.6	0.847863	2.62196
H	4337.65	0.284829	3.71247
H	4337.62	-1.19276	2.67592
H	4336.86	0.330469	2.08883
