44
  This energy is 5.39421e-320 and Call times are: 21027
C	0.875101	-0.980691	3.22468
C	-0.115523	-0.821721	2.13629
O	-1.24406	-1.28324	2.23575
H	0.416307	-1.55642	4.05769
H	1.18829	0.0142443	3.60526
H	1.76537	-1.53155	2.85464
N	0.295123	-0.158378	1.05291
C	-0.553559	0.0772192	-0.0877294
C	0.337834	0.364301	-1.28031
O	1.53162	0.615574	-1.12676
H	1.22611	0.187509	0.971904
H	-1.11135	-0.825178	-0.303647
C	-1.51016	1.26519	0.158722
H	-0.934623	2.18913	0.380583
H	-2.16519	1.44926	-0.717538
H	-2.1568	1.04302	1.03544
N	-0.220983	0.311703	-2.50544
C	0.552396	0.559022	-3.69997
H	-1.18715	0.0996612	-2.60933
H	-0.0857233	0.471134	-4.6068
H	1.38704	-0.173875	-3.78638
H	0.99233	1.58234	-3.67855
C	1000.3	-1.44642	2.73537
C	1001.06	-1.54703	1.46476
O	1001.47	-2.6246	1.05644
H	1000.21	-2.45724	3.18888
H	999.285	-1.0435	2.54652
H	1000.84	-0.781134	3.44555
N	1001.26	-0.404688	0.804943
C	1001.98	-0.341384	-0.444865
C	1002.46	1.08186	-0.630306
O	1002.02	1.99352	0.0680631
H	1000.95	0.470659	1.1626
H	1002.85	-0.983073	-0.385609
C	1001.07	-0.751815	-1.63013
H	1000.18	-0.0918935	-1.68755
H	1001.62	-0.70434	-2.59401
H	1000.72	-1.79573	-1.48174
N	1003.41	1.30167	-1.56764
C	1003.94	2.62207	-1.80686
H	1003.76	0.549584	-2.11767
H	1004.7	2.59711	-2.61666
H	1004.42	3.0243	-0.885664
H	1003.13	3.325	-2.10896
