44
  This energy is 5.56812e-321 and Call times are: 1077
C	3.29735	0.185543	1.10417
C	2.25431	0.405536	0.0770979
O	2.49897	1.02156	-0.95108
H	4.24619	0.65978	0.771495
H	3.47002	-0.901899	1.24726
H	2.98707	0.640275	2.06848
N	1.04626	-0.0975125	0.341525
C	-0.0699821	0.0346302	-0.560349
C	-1.34211	-0.163982	0.240573
O	-1.30328	-0.635945	1.37529
H	0.851878	-0.572198	1.19582
H	-0.0847357	1.04197	-0.956735
C	0.00507876	-1.0016	-1.7039
H	0.0207171	-2.03387	-1.29367
H	-0.852837	-0.90255	-2.40028
H	0.941863	-0.846274	-2.28222
N	-2.50398	0.214606	-0.327532
C	-3.76421	0.0745546	0.364112
H	-2.5138	0.601076	-1.24393
H	-4.60286	0.439657	-0.268836
H	-3.75952	0.660409	1.31174
H	-3.95617	-0.992842	0.619058
C	59.5659	3.42875	0.485658
C	59.1705	2.08232	0.956761
O	58.8411	1.89034	2.11915
H	59.5097	4.14568	1.33343
H	58.8806	3.76914	-0.318855
H	60.607	3.40901	0.100117
N	59.201	1.10381	0.0490407
C	58.8438	-0.25824	0.355688
C	59.4718	-1.15256	-0.69554
O	59.9299	-0.677311	-1.73287
H	59.4991	1.26716	-0.887648
H	59.2707	-0.526815	1.31366
C	57.3106	-0.448498	0.367974
H	56.8758	-0.171432	-0.616083
H	57.032	-1.49612	0.603911
H	56.8625	0.212844	1.14127
N	59.5269	-2.47449	-0.439652
C	60.1173	-3.40156	-1.37672
H	59.1571	-2.83883	0.408718
H	60.0653	-4.44186	-0.98645
H	61.187	-3.14858	-1.55859
H	59.5833	-3.36642	-2.35383
