44
  This energy is 1.18813e-319 and Call times are: 40977
C	2.38115	-2.45461	0.656604
C	1.83238	-1.36451	-0.181091
O	2.45069	-0.935405	-1.14549
H	3.37487	-2.75734	0.260692
H	1.70251	-3.33311	0.633998
H	2.50214	-2.10825	1.70462
N	0.641054	-0.881813	0.179607
C	-0.0219686	0.178668	-0.53636
C	-1.03439	0.810414	0.399132
O	-1.35418	0.25379	1.44781
H	0.160588	-1.2199	0.984459
H	0.705745	0.937546	-0.794453
C	-0.728804	-0.353882	-1.80281
H	-1.47418	-1.13267	-1.53444
H	-1.24023	0.460102	-2.35657
H	0.0233609	-0.81518	-2.47927
N	-1.54826	2.00593	0.0488677
C	-2.50963	2.6888	0.882908
H	-1.27143	2.44352	-0.800316
H	-2.81318	3.655	0.422941
H	-2.07809	2.89949	1.88821
H	-3.42203	2.06496	1.02269
C	1943.67	-0.0486674	-3.25791
C	1944.47	0.572017	-2.17721
O	1945.18	1.5419	-2.39487
H	1943.85	0.499353	-4.20835
H	1942.59	0.00282447	-3.0121
H	1943.97	-1.10976	-3.39311
N	1944.37	0.0120583	-0.969402
C	1945.09	0.502849	0.181374
C	1945.16	-0.620317	1.19731
O	1944.46	-1.62103	1.08112
H	1943.81	-0.795611	-0.811233
H	1946.1	0.748787	-0.112297
C	1944.38	1.73186	0.799022
H	1943.34	1.47619	1.09854
H	1944.93	2.11242	1.68525
H	1944.33	2.54702	0.0445608
N	1946.04	-0.48868	2.21112
C	1946.19	-1.51226	3.21918
H	1946.6	0.325477	2.28376
H	1946.96	-1.21823	3.96736
H	1946.5	-2.47666	2.75667
H	1945.22	-1.68108	3.75352
