44
  This energy is 1.0494e-320 and Call times are: 124809
C	-1.74265	-0.657583	-2.94226
C	-0.833794	0.179563	-2.12717
O	-0.255229	1.14213	-2.61216
H	-1.77242	-0.263145	-3.9812
H	-2.76874	-0.632371	-2.51879
H	-1.37868	-1.70634	-2.96628
N	-0.682354	-0.179545	-0.850271
C	0.167623	0.536138	0.067426
C	0.508835	-0.398328	1.2118
O	-0.114354	-1.44557	1.37536
H	-1.13653	-0.982968	-0.474537
H	1.09177	0.791705	-0.435283
C	-0.529735	1.80473	0.607311
H	-1.47776	1.53895	1.12183
H	0.12202	2.35828	1.31412
H	-0.775505	2.48042	-0.240742
N	1.52763	-0.0488342	2.02168
C	1.9318	-0.882022	3.13011
H	2.02429	0.799167	1.86853
H	2.78493	-0.422895	3.67657
H	2.24669	-1.88846	2.77072
H	1.08956	-1.01912	3.84636
C	5909.76	-2.86023	0.921751
C	5908.52	-2.17609	0.500527
O	5907.51	-2.81062	0.224936
H	5909.59	-3.95913	0.924072
H	5910.05	-2.5383	1.9452
H	5910.58	-2.62433	0.21652
N	5908.57	-0.843547	0.435249
C	5907.44	-0.0379108	0.0422212
C	5907.96	1.30718	-0.419462
O	5909.12	1.64403	-0.182364
H	5909.4	-0.339832	0.634166
H	5906.95	-0.506666	-0.801657
C	5906.45	0.152317	1.21281
H	5906.95	0.632828	2.07705
H	5905.58	0.772066	0.913585
H	5906.07	-0.840225	1.54254
N	5907.12	2.10194	-1.11286
C	5907.54	3.39512	-1.6031
H	5906.19	1.8084	-1.30072
H	5906.71	3.89615	-2.14641
H	5908.4	3.29163	-2.30068
H	5907.86	4.05232	-0.760294
