44
  This energy is 1.54909e-319 and Call times are: 42321
C	0.946846	-1.394	3.04736
C	-0.00198114	-0.634679	2.20215
O	-1.10499	-0.312645	2.62188
H	0.480711	-1.59059	4.03727
H	1.87784	-0.808157	3.19855
H	1.19482	-2.3643	2.56781
N	0.412464	-0.332876	0.969469
C	-0.397267	0.401665	0.0305256
C	0.128605	0.114825	-1.36246
O	1.22408	-0.419949	-1.52304
H	1.30196	-0.626129	0.629262
H	-1.41443	0.0342653	0.0802484
C	-0.350059	1.91972	0.314061
H	0.694951	2.29315	0.262902
H	-0.972596	2.48831	-0.407
H	-0.736697	2.11649	1.33775
N	-0.655405	0.446409	-2.40716
C	-0.243145	0.200288	-3.76938
H	-1.54169	0.871826	-2.25632
H	-1.02272	0.544192	-4.48439
H	-0.0693125	-0.887363	-3.93682
H	0.704295	0.740404	-3.997
C	2008.82	-0.736432	3.4026
C	2009.13	-1.09403	2.00028
O	2009.74	-2.11993	1.72927
H	2009.23	-1.51928	4.07987
H	2007.72	-0.671261	3.54592
H	2009.29	0.23832	3.66129
N	2008.72	-0.23693	1.06397
C	2008.95	-0.447126	-0.34346
C	2008.83	0.895523	-1.03915
O	2008.35	1.86454	-0.460515
H	2008.25	0.609909	1.29945
H	2009.96	-0.808373	-0.486423
C	2007.92	-1.44	-0.936744
H	2006.89	-1.0666	-0.787739
H	2008.09	-1.60425	-2.02029
H	2008.01	-2.4191	-0.417945
N	2009.31	0.988756	-2.29775
C	2009.25	2.22975	-3.03483
H	2009.71	0.195057	-2.74622
H	2009.69	2.10285	-4.05048
H	2009.83	3.02598	-2.50536
H	2008.2	2.57641	-3.14549
