44
  This energy is 8.83192e-320 and Call times are: 76887
C	-2.10222	-0.841912	-2.64537
C	-0.977731	-0.0689094	-2.07162
O	-0.272623	0.639885	-2.77655
H	-2.15205	-0.659624	-3.74088
H	-3.06048	-0.522923	-2.18406
H	-1.95036	-1.9275	-2.4682
N	-0.780131	-0.196234	-0.757423
C	0.273032	0.492457	-0.0550139
C	0.533177	-0.251591	1.24035
O	-0.26166	-1.09484	1.65143
H	-1.34329	-0.799444	-0.198918
H	1.17828	0.448378	-0.64718
C	-0.114366	1.95818	0.242798
H	-1.0438	1.99971	0.849869
H	0.694399	2.49145	0.783451
H	-0.303453	2.49198	-0.713995
N	1.6709	0.0300745	1.90537
C	2.00867	-0.636893	3.14119
H	2.30481	0.710519	1.55269
H	2.98113	-0.267044	3.5346
H	2.08955	-1.73697	2.98455
H	1.22604	-0.454652	3.91284
C	3643.49	-1.72382	2.67724
C	3644.13	-0.523236	2.09452
O	3644.23	0.513792	2.73549
H	3643.15	-1.49459	3.71128
H	3644.22	-2.56429	2.71393
H	3642.61	-2.02135	2.06929
N	3644.58	-0.63904	0.842349
C	3645.23	0.441131	0.140384
C	3645.12	0.157298	-1.34572
O	3644.8	-0.955615	-1.75223
H	3644.46	-1.48019	0.320523
H	3644.69	1.35995	0.337031
C	3646.71	0.57553	0.556179
H	3647.26	-0.369058	0.353685
H	3647.21	1.40643	0.0176677
H	3646.77	0.782119	1.64697
N	3645.39	1.17065	-2.19479
C	3645.3	0.997218	-3.62634
H	3645.64	2.06586	-1.84612
H	3645.56	1.94427	-4.15233
H	3644.27	0.692841	-3.92677
H	3646.01	0.207167	-3.96785
