44
  This energy is 1.5781e-319 and Call times are: 12879
C	1.18226	3.18455	0.766169
C	1.1598	1.7193	0.975283
O	1.95822	1.17511	1.72554
H	2.00178	3.62942	1.37144
H	0.216996	3.6313	1.08476
H	1.36049	3.41571	-0.305158
N	0.231622	1.038	0.299501
C	0.0847528	-0.392163	0.398889
C	-0.658375	-0.870939	-0.833091
O	-1.23818	-0.0729331	-1.56715
H	-0.394235	1.48933	-0.331008
H	1.06657	-0.848247	0.388762
C	-0.689851	-0.790744	1.67491
H	-1.69634	-0.320589	1.68235
H	-0.804613	-1.89131	1.75466
H	-0.135812	-0.433316	2.57014
N	-0.639351	-2.19155	-1.10071
C	-1.30899	-2.73773	-2.25806
H	-0.158587	-2.82033	-0.498436
H	-1.17949	-3.84157	-2.30283
H	-0.896013	-2.29812	-3.19478
H	-2.39977	-2.51371	-2.2232
C	617.961	3.17154	-1.42878
C	618.015	1.69549	-1.52691
O	618.077	1.13558	-2.61279
H	617.981	3.60852	-2.4508
H	618.837	3.54904	-0.859752
H	617.026	3.48787	-0.920478
N	617.985	1.02307	-0.373946
C	618.03	-0.415784	-0.306863
C	617.466	-0.837511	1.03592
O	617.306	-0.0158388	1.93648
H	617.905	1.4897	0.502842
H	617.388	-0.824228	-1.07655
C	619.475	-0.941253	-0.464987
H	620.131	-0.51973	0.325816
H	619.513	-2.04882	-0.413968
H	619.877	-0.624668	-1.45195
N	617.13	-2.13291	1.19369
C	616.574	-2.62383	2.43327
H	617.261	-2.78097	0.4506
H	616.366	-3.71437	2.36615
H	615.621	-2.09879	2.67177
H	617.283	-2.45341	3.27618
