44
  This energy is 6.92087e-320 and Call times are: 57315
C	0.00212682	0.383606	3.46106
C	-0.697481	0.14757	2.17808
O	-1.88382	-0.149593	2.14985
H	-0.711885	0.238964	4.30078
H	0.394298	1.42172	3.49762
H	0.842486	-0.332943	3.57638
N	0.0373891	0.271428	1.07039
C	-0.501539	0.0731646	-0.251381
C	0.654752	-0.223873	-1.18626
O	1.81518	-0.0173226	-0.836168
H	1.00988	0.48539	1.10799
H	-1.1478	-0.795348	-0.241234
C	-1.27112	1.32135	-0.738113
H	-0.605322	2.2106	-0.746648
H	-1.68755	1.17205	-1.7555
H	-2.11472	1.529	-0.0443093
N	0.363331	-0.739291	-2.3968
C	1.39959	-1.06481	-3.34884
H	-0.581581	-0.905889	-2.65875
H	0.959352	-1.47474	-4.28447
H	2.0961	-1.82508	-2.92681
H	1.99362	-0.158747	-3.60839
C	2718.56	0.69529	-3.24176
C	2718.07	-0.240024	-2.20698
O	2717.76	-1.38858	-2.48973
H	2718.58	0.178927	-4.22612
H	2719.59	1.02918	-2.99412
H	2717.9	1.57927	-3.31059
N	2717.98	0.242556	-0.965435
C	2717.52	-0.545853	0.147987
C	2717.05	0.407118	1.23305
O	2717.34	1.60174	1.18455
H	2718.21	1.18868	-0.75319
H	2716.66	-1.12762	-0.166016
C	2718.63	-1.4664	0.689677
H	2719.51	-0.866364	1.01027
H	2718.28	-2.07501	1.54698
H	2718.96	-2.15875	-0.114945
N	2716.3	-0.0991879	2.23184
C	2715.81	0.734538	3.3023
H	2716.08	-1.06726	2.24949
H	2715.21	0.133801	4.02623
H	2715.16	1.54366	2.9006
H	2716.65	1.21175	3.85131
