44
  This energy is 1.23615e-319 and Call times are: 122961
C	-1.20964	-0.732801	-3.18212
C	-0.686444	0.218247	-2.17565
O	-0.418914	1.37353	-2.47607
H	-1.28913	-0.220185	-4.16537
H	-2.21635	-1.09222	-2.88184
H	-0.522976	-1.59954	-3.28316
N	-0.521454	-0.257886	-0.939353
C	-0.0217821	0.545753	0.147533
C	0.51944	-0.391545	1.20951
O	0.261313	-1.5933	1.17792
H	-0.71551	-1.20891	-0.713914
H	0.803208	1.14833	-0.210746
C	-1.1326	1.43906	0.743518
H	-1.97764	0.817699	1.10948
H	-0.751241	2.05931	1.58056
H	-1.52151	2.1201	-0.0445658
N	1.30558	0.13705	2.16793
C	1.8758	-0.680246	3.21342
H	1.50863	1.1107	2.17215
H	2.48963	-0.0621444	3.9051
H	2.5273	-1.47364	2.78063
H	1.07353	-1.17721	3.80552
C	5825.49	2.43531	-0.964809
C	5824.11	1.97505	-0.725989
O	5823.16	2.74997	-0.793316
H	5825.49	3.52449	-1.18727
H	5825.93	1.89499	-1.82987
H	5826.12	2.25705	-0.06328
N	5823.95	0.682029	-0.430978
C	5822.67	0.0860867	-0.173262
C	5822.9	-1.19132	0.611545
O	5824.02	-1.68349	0.700007
H	5824.73	0.0670811	-0.350484
H	5822.09	0.755894	0.449127
C	5821.92	-0.224312	-1.48809
H	5822.52	-0.911157	-2.12445
H	5820.93	-0.683138	-1.2933
H	5821.76	0.719272	-2.05421
N	5821.83	-1.74825	1.22091
C	5821.95	-2.95835	1.99992
H	5820.93	-1.33089	1.14335
H	5820.97	-3.25826	2.41809
H	5822.66	-2.8107	2.84627
H	5822.34	-3.79404	1.37042
