44
  This energy is 8.7084e-320 and Call times are: 4143
C	2.60341	-2.1282	-0.905057
C	1.16901	-1.76332	-0.881137
O	0.343446	-2.4007	-1.52041
H	2.74718	-3.00962	-1.56709
H	2.94949	-2.38679	0.117773
H	3.20713	-1.28246	-1.29644
N	0.838133	-0.707313	-0.134327
C	-0.516357	-0.230971	-0.0107058
C	-0.46222	1.2143	0.444812
O	0.581014	1.69724	0.881002
H	1.524	-0.178627	0.358639
H	-0.986809	-0.251205	-0.985559
C	-1.32008	-1.07732	1.00164
H	-0.834286	-1.05489	2.00045
H	-2.36353	-0.713355	1.09915
H	-1.35133	-2.13398	0.65718
N	-1.58727	1.94759	0.332739
C	-1.62723	3.33564	0.730092
H	-2.41942	1.54058	-0.02934
H	-2.6402	3.76358	0.56273
H	-0.892829	3.93359	0.143275
H	-1.3753	3.44276	1.81002
C	201.849	-0.0982143	0.940212
C	203.292	-0.203084	1.25266
O	203.683	-0.31527	2.40641
H	201.265	-0.133033	1.88555
H	201.535	-0.943901	0.292726
H	201.638	0.861231	0.422605
N	204.128	-0.162148	0.212868
C	205.559	-0.252721	0.356799
C	206.191	0.336023	-0.889572
O	205.517	0.54939	-1.89535
H	203.799	-0.0411879	-0.719854
H	205.867	0.353343	1.19937
C	206.014	-1.71755	0.541912
H	205.696	-2.33659	-0.323928
H	207.116	-1.79091	0.653193
H	205.544	-2.13766	1.45745
N	207.504	0.633782	-0.843581
C	208.189	1.2086	-1.97804
H	208.031	0.460297	-0.0180216
H	209.263	1.37898	-1.74418
H	207.732	2.18518	-2.25905
H	208.125	0.531125	-2.86017
