44
  This energy is 1.56851e-319 and Call times are: 85833
C	-2.32653	1.84051	1.82371
C	-1.31067	1.72239	0.753526
O	-1.11249	2.63708	-0.0342339
H	-2.8196	2.83443	1.75398
H	-1.84529	1.74722	2.81997
H	-3.09646	1.04857	1.70985
N	-0.638402	0.570266	0.6986
C	0.380599	0.306045	-0.285601
C	0.544675	-1.19745	-0.394297
O	0.0618157	-1.94541	0.453778
H	-0.829417	-0.178339	1.32792
H	0.0435161	0.670556	-1.24767
C	1.72433	0.960147	0.1064
H	2.06685	0.584454	1.09415
H	2.51115	0.758806	-0.649348
H	1.59048	2.06116	0.183906
N	1.21583	-1.67761	-1.45966
C	1.41148	-3.09552	-1.65315
H	1.59288	-1.05646	-2.1388
H	1.98785	-3.28948	-2.58451
H	0.431789	-3.62021	-1.7316
H	1.97118	-3.53562	-0.79628
C	4065.37	-2.23884	0.435552
C	4066.81	-1.9308	0.341103
O	4067.66	-2.78164	0.582225
H	4065.24	-3.29791	0.747494
H	4064.88	-2.09235	-0.551116
H	4064.89	-1.5806	1.18786
N	4067.13	-0.683454	-0.0125012
C	4068.49	-0.232877	-0.147154
C	4068.5	1.27942	-0.0368203
O	4067.45	1.91792	-0.115625
H	4066.43	0.00856307	-0.177986
H	4069.08	-0.624185	0.676819
C	4069.1	-0.668267	-1.50035
H	4068.5	-0.265661	-2.34342
H	4070.15	-0.323097	-1.60726
H	4069.09	-1.77791	-1.5693
N	4069.68	1.88819	0.171255
C	4069.78	3.32327	0.301103
H	4070.52	1.35344	0.239278
H	4070.84	3.63106	0.465723
H	4069.17	3.68284	1.16254
H	4069.41	3.82799	-0.619406
