44
  This energy is 1.08423e-319 and Call times are: 77685
C	-2.63488	-2.19125	-0.61805
C	-2.05361	-0.830207	-0.588007
O	-2.66042	0.127064	-1.04834
H	-3.63323	-2.15357	-1.10563
H	-2.75413	-2.57921	0.415432
H	-1.97829	-2.87531	-1.19588
N	-0.841298	-0.71509	-0.0408193
C	-0.146102	0.543123	0.0613108
C	1.33162	0.246758	0.2279
O	1.71783	-0.886676	0.507184
H	-0.344903	-1.50714	0.304405
H	-0.269603	1.08957	-0.865091
C	-0.659589	1.37393	1.25848
H	-0.531991	0.81009	2.20712
H	-0.126524	2.34345	1.33996
H	-1.74333	1.58332	1.12504
N	2.19796	1.26126	0.0375705
C	3.62417	1.07062	0.16314
H	1.86618	2.16962	-0.194895
H	4.16657	2.02256	-0.0288413
H	3.98439	0.308863	-0.565704
H	3.88502	0.718791	1.18752
C	3681.22	2.96133	-0.737561
C	3681.76	1.97476	0.226878
O	3681.75	2.19579	1.43001
H	3680.86	3.85287	-0.184674
H	3680.38	2.51896	-1.30804
H	3682.02	3.27924	-1.44297
N	3682.25	0.848032	-0.290776
C	3682.81	-0.205874	0.519364
C	3683.72	-1.04365	-0.363229
O	3683.68	-0.933683	-1.58725
H	3682.28	0.692307	-1.27454
H	3683.42	0.233679	1.29579
C	3681.7	-1.0889	1.13331
H	3681.07	-1.5377	0.33403
H	3682.13	-1.90133	1.75785
H	3681.05	-0.463298	1.77658
N	3684.57	-1.88976	0.24317
C	3685.48	-2.71874	-0.51522
H	3684.59	-1.95911	1.23512
H	3686.1	-3.34574	0.162988
H	3686.16	-2.09103	-1.13315
H	3684.92	-3.39364	-1.19986
