44
  This energy is 8.78844e-320 and Call times are: 70797
C	2.89916	0.428541	-1.88078
C	1.8115	0.957057	-1.02705
O	1.82688	2.1127	-0.626107
H	3.65354	1.22718	-2.05092
H	2.49225	0.103783	-2.86148
H	3.39308	-0.432135	-1.38255
N	0.830277	0.104907	-0.721414
C	-0.296187	0.471727	0.0991654
C	-0.899727	-0.801998	0.658271
O	-0.590343	-1.89917	0.197492
H	0.843929	-0.842422	-1.03015
H	0.0551397	1.06365	0.934795
C	-1.35519	1.24896	-0.714179
H	-1.71293	0.639066	-1.57101
H	-2.22388	1.5331	-0.0853423
H	-0.900336	2.17911	-1.11925
N	-1.76403	-0.685651	1.68562
C	-2.37943	-1.84405	2.29024
H	-1.99615	0.210575	2.04912
H	-3.05929	-1.54165	3.11704
H	-1.60482	-2.52843	2.70599
H	-2.97336	-2.41147	1.5376
C	3361.86	0.250038	0.301175
C	3360.62	-0.541606	0.109308
O	3360.67	-1.73303	-0.16401
H	3362.74	-0.406947	0.150519
H	3361.89	0.665537	1.33032
H	3361.9	1.08112	-0.434094
N	3359.47	0.117175	0.24515
C	3358.19	-0.516105	0.0888396
C	3357.17	0.566118	-0.208304
O	3357.44	1.75211	-0.0326986
H	3359.45	1.09422	0.439235
H	3358.22	-1.17823	-0.766956
C	3357.78	-1.29115	1.36294
H	3357.75	-0.609004	2.23904
H	3356.79	-1.78013	1.24596
H	3358.54	-2.08009	1.57039
N	3355.97	0.180737	-0.689067
C	3354.94	1.14146	-1.01194
H	3355.77	-0.78335	-0.831017
H	3354.03	0.628916	-1.3909
H	3355.29	1.8494	-1.7954
H	3354.66	1.73499	-0.111673
