44
  This energy is 1.58837e-319 and Call times are: 85917
C	2.87931	0.923924	1.72687
C	1.70569	0.0435377	1.53004
O	1.55941	-0.97345	2.194
H	3.52986	0.496756	2.5207
H	2.54945	1.93708	2.03916
H	3.4634	0.999481	0.785547
N	0.832793	0.419707	0.59254
C	-0.357422	-0.332687	0.285755
C	-0.809975	0.0589031	-1.10748
O	-0.347374	1.05395	-1.6622
H	0.978092	1.2349	0.0382071
H	-0.112312	-1.38705	0.267792
C	-1.4807	-0.0500891	1.30826
H	-1.72917	1.03255	1.32455
H	-2.39858	-0.627939	1.07509
H	-1.13633	-0.34006	2.32485
N	-1.71483	-0.73262	-1.71635
C	-2.19544	-0.44547	-3.04779
H	-2.07187	-1.5374	-1.25365
H	-2.9349	-1.21036	-3.37243
H	-1.35313	-0.440636	-3.77699
H	-2.68684	0.553822	-3.0813
C	4073.56	2.5566	1.77272
C	4072.57	1.46108	1.66966
O	4071.94	1.08871	2.6465
H	4073.6	2.91989	2.82269
H	4073.27	3.39931	1.11118
H	4074.57	2.19071	1.48248
N	4072.42	0.908836	0.463473
C	4071.5	-0.166038	0.205422
C	4071.95	-0.87232	-1.05941
O	4072.78	-0.359391	-1.80449
H	4072.97	1.20144	-0.318122
H	4071.55	-0.879754	1.01764
C	4070.06	0.361076	0.0371535
H	4070	1.0935	-0.796474
H	4069.34	-0.463978	-0.16152
H	4069.74	0.877298	0.969858
N	4071.42	-2.08351	-1.32018
C	4071.79	-2.83567	-2.4947
H	4070.75	-2.48483	-0.701251
H	4071.25	-3.80435	-2.53229
H	4072.89	-3.04905	-2.49167
H	4071.56	-2.2633	-3.42053
