44
  This energy is 7.87788e-320 and Call times are: 63783
C	-0.940513	-1.65498	-2.91592
C	-0.212569	-1.59874	-1.62824
O	0.346117	-2.58757	-1.17374
H	-0.878611	-2.68557	-3.32812
H	-0.486646	-0.94926	-3.64311
H	-2.00859	-1.39232	-2.76372
N	-0.20886	-0.420692	-1.0001
C	0.456527	-0.209189	0.260597
C	-0.157816	1.01446	0.91214
O	-0.874452	1.77722	0.266807
H	-0.692301	0.369917	-1.36637
H	0.264795	-1.05683	0.906213
C	1.97534	-0.00202731	0.0672174
H	2.1684	0.867915	-0.596142
H	2.49081	0.160959	1.03599
H	2.41322	-0.904722	-0.411895
N	0.092965	1.21838	2.22039
C	-0.458784	2.35015	2.9281
H	0.669561	0.585804	2.72697
H	-0.136325	2.34355	3.99263
H	-1.57227	2.32687	2.89904
H	-0.121239	3.30571	2.46533
C	3023.15	-2.68097	-1.48536
C	3024.37	-2.041	-0.949365
O	3025.41	-2.66774	-0.836206
H	3023.37	-3.74366	-1.72826
H	3022.82	-2.16154	-2.40955
H	3022.33	-2.64449	-0.730631
N	3024.26	-0.757925	-0.596713
C	3025.36	0.000756813	-0.0598556
C	3024.79	1.18659	0.691323
O	3023.61	1.50711	0.554176
H	3023.4	-0.266473	-0.666499
H	3025.9	-0.612878	0.653516
C	3026.31	0.488338	-1.17983
H	3025.76	1.11699	-1.91024
H	3027.16	1.07274	-0.769927
H	3026.72	-0.389596	-1.72323
N	3025.61	1.85534	1.52442
C	3025.15	2.98997	2.29022
H	3026.56	1.57609	1.62708
H	3025.97	3.40415	2.91346
H	3024.31	2.69518	2.96483
H	3024.78	3.79611	1.61537
