44
  This energy is 7.6931e-320 and Call times are: 95619
C	2.21419	1.03746	-2.47935
C	1.41514	1.29006	-1.25914
O	1.52754	2.33597	-0.634694
H	2.87207	1.91194	-2.67512
H	1.54368	0.889735	-3.35195
H	2.84682	0.135207	-2.34276
N	0.580924	0.317323	-0.884667
C	-0.262171	0.415921	0.279934
C	-0.653961	-0.989805	0.691847
O	-0.474366	-1.94032	-0.0671661
H	0.519723	-0.542046	-1.38534
H	0.308195	0.849589	1.09153
C	-1.52587	1.25624	-0.00999027
H	-2.10827	0.808882	-0.843537
H	-2.17721	1.33431	0.884681
H	-1.22532	2.28325	-0.311768
N	-1.18165	-1.15698	1.9205
C	-1.57342	-2.46054	2.40365
H	-1.31243	-0.376251	2.52266
H	-1.98661	-2.3902	3.43398
H	-0.699551	-3.15135	2.42289
H	-2.35186	-2.90685	1.74333
C	4528	3.3159	-0.564608
C	4528.22	2.16307	0.33677
O	4528.17	2.29077	1.5522
H	4527.8	4.22492	0.0438708
H	4527.12	3.12484	-1.22078
H	4528.9	3.49183	-1.19092
N	4528.49	0.993873	-0.250439
C	4528.73	-0.2175	0.492644
C	4529.48	-1.17442	-0.407514
O	4529.57	-0.967991	-1.61685
H	4528.56	0.908872	-1.2408
H	4529.36	0.00898972	1.33989
C	4527.4	-0.86219	0.958945
H	4526.75	-1.09262	0.0873095
H	4527.58	-1.79508	1.53156
H	4526.86	-0.150859	1.61653
N	4530.08	-2.23855	0.169141
C	4530.83	-3.19685	-0.606566
H	4530	-2.3843	1.15037
H	4531.24	-3.99905	0.0474432
H	4531.68	-2.70044	-1.12469
H	4530.18	-3.67007	-1.3808
