44
  This energy is 8.20742e-320 and Call times are: 45597
C	-0.494342	-1.84139	2.91394
C	-0.325494	-1.74772	1.44631
O	-0.212839	-2.75216	0.757175
H	-0.488991	-2.91104	3.21673
H	-1.46074	-1.3868	3.21763
H	0.338245	-1.31781	3.4293
N	-0.298156	-0.516894	0.929906
C	-0.140696	-0.264162	-0.480115
C	0.361119	1.15713	-0.645507
O	0.323217	1.95037	0.293197
H	-0.361718	0.29422	1.50522
H	0.617706	-0.928716	-0.874157
C	-1.47506	-0.447901	-1.23696
H	-2.25101	0.234875	-0.82972
H	-1.35738	-0.254212	-2.32297
H	-1.83262	-1.49261	-1.107
N	0.866011	1.50615	-1.8452
C	1.37814	2.8339	-2.09218
H	0.894529	0.847778	-2.59016
H	1.74684	2.925	-3.13765
H	2.2216	3.06437	-1.40175
H	0.582991	3.59781	-1.93291
C	2165.84	2.04726	-2.35697
C	2165.22	0.766163	-1.95429
O	2164.99	-0.112921	-2.77457
H	2166.03	2.03538	-3.45239
H	2166.81	2.18639	-1.82706
H	2165.17	2.894	-2.11839
N	2164.92	0.634148	-0.660407
C	2164.31	-0.553468	-0.116931
C	2163.65	-0.179606	1.19626
O	2163.9	0.892318	1.74341
H	2165.08	1.3689	-0.00708818
H	2163.53	-0.890376	-0.791164
C	2165.36	-1.66759	0.112
H	2166.15	-1.31834	0.803606
H	2164.89	-2.58355	0.530278
H	2165.83	-1.93156	-0.857134
N	2162.77	-1.05166	1.72341
C	2162.08	-0.775759	2.96429
H	2162.57	-1.91066	1.26184
H	2161.4	-1.61352	3.23193
H	2161.48	0.155217	2.87964
H	2162.81	-0.638207	3.79463
