44
  This energy is 5.30132e-320 and Call times are: 75501
C	2.30556	-0.675998	2.52063
C	1.63013	-1.01787	1.24857
O	2.0035	-1.96364	0.568419
H	3.1407	-1.38847	2.69606
H	1.58879	-0.747428	3.36559
H	2.71654	0.35433	2.47103
N	0.607104	-0.237697	0.892035
C	-0.148752	-0.444032	-0.317483
C	-0.840569	0.860342	-0.662787
O	-0.912707	1.77076	0.160481
H	0.331053	0.547391	1.44009
H	0.534705	-0.677435	-1.12401
C	-1.19299	-1.56932	-0.14315
H	-1.89209	-1.32693	0.685479
H	-1.77667	-1.73093	-1.07265
H	-0.673678	-2.51907	0.110684
N	-1.34906	0.988692	-1.90414
C	-2.0147	2.1989	-2.32664
H	-1.27428	0.243227	-2.5583
H	-2.36386	2.10882	-3.37889
H	-1.32436	3.0708	-2.25988
H	-2.89805	2.40767	-1.68067
C	3577.47	1.21726	2.93476
C	3578.65	0.880629	2.1011
O	3579.78	1.18537	2.45138
H	3577.81	1.75617	3.84638
H	3576.94	0.290742	3.24084
H	3576.78	1.87095	2.36839
N	3578.4	0.238595	0.957195
C	3579.44	-0.156305	0.0409009
C	3578.81	-0.363832	-1.32112
O	3577.59	-0.441616	-1.44125
H	3577.47	0.0217227	0.66902
H	3580.16	0.651275	-0.0486105
C	3580.14	-1.45449	0.506255
H	3579.4	-2.2807	0.597663
H	3580.94	-1.76133	-0.196943
H	3580.6	-1.28972	1.5055
N	3579.63	-0.43678	-2.3875
C	3579.12	-0.621333	-3.72487
H	3580.61	-0.364443	-2.27049
H	3579.95	-0.657887	-4.46349
H	3578.44	0.215891	-4.00361
H	3578.54	-1.57245	-3.79716
