44
  This energy is 9.52064e-320 and Call times are: 109227
C	3.46474	0.046756	-0.345698
C	2.09954	0.0413169	-0.91789
O	1.91594	0.193936	-2.11768
H	4.20366	0.210001	-1.16008
H	3.67839	-0.926816	0.14352
H	3.56441	0.864152	0.399201
N	1.09561	-0.131913	-0.0550551
C	-0.287072	-0.160811	-0.460235
C	-1.13588	0.150655	0.757034
O	-0.649576	0.123856	1.88602
H	1.2564	-0.226035	0.923835
H	-0.456727	0.622	-1.18859
C	-0.674759	-1.53965	-1.03955
H	-0.498824	-2.34045	-0.289967
H	-1.73875	-1.56534	-1.35268
H	-0.0451251	-1.75652	-1.92988
N	-2.42726	0.476577	0.551813
C	-3.30855	0.800166	1.64945
H	-2.80024	0.499667	-0.369919
H	-4.3292	1.03867	1.27713
H	-2.92634	1.6817	2.21342
H	-3.3849	-0.0562828	2.35786
C	5174.25	-3.39447	0.691996
C	5173.46	-2.14545	0.674481
O	5172.27	-2.1489	0.955757
H	5173.6	-4.24373	0.979255
H	5175.08	-3.31288	1.43056
H	5174.68	-3.59275	-0.314926
N	5174.11	-1.0324	0.331827
C	5173.48	0.25915	0.269664
C	5174.32	1.1515	-0.620438
O	5175.46	0.824897	-0.936702
H	5175.07	-1.04731	0.0765997
H	5172.5	0.151085	-0.197578
C	5173.34	0.887058	1.67471
H	5174.34	0.995851	2.15141
H	5172.85	1.88156	1.63052
H	5172.72	0.223326	2.31732
N	5173.76	2.29575	-1.06481
C	5174.49	3.20214	-1.92652
H	5172.83	2.53891	-0.803514
H	5173.86	4.08566	-2.18119
H	5174.78	2.69447	-2.87433
H	5175.41	3.56238	-1.42768
