44
  This energy is 2.8804e-321 and Call times are: 124515
C	3.0123	0.905096	1.49432
C	1.63705	0.361737	1.56254
O	1.20158	-0.129724	2.59468
H	3.50831	0.774087	2.48056
H	2.98429	1.98719	1.2471
H	3.59952	0.364906	0.722108
N	0.914315	0.434856	0.442415
C	-0.4395	-0.0508885	0.352614
C	-0.752187	-0.290979	-1.11156
O	-0.0206073	0.157297	-1.99229
H	1.29039	0.811081	-0.400174
H	-0.506349	-1.00296	0.863659
C	-1.44133	0.961915	0.950677
H	-1.3696	1.93768	0.424516
H	-2.48471	0.590985	0.8833
H	-1.20082	1.13006	2.02307
N	-1.84188	-1.02732	-1.40547
C	-2.21173	-1.31779	-2.77112
H	-2.41726	-1.38724	-0.678405
H	-3.13713	-1.934	-2.80534
H	-1.39868	-1.87747	-3.2878
H	-2.3963	-0.376119	-3.33714
C	5895.15	-1.54628	-2.90103
C	5894.06	-1.01173	-2.05558
O	5892.91	-0.940549	-2.47392
H	5894.74	-1.83031	-3.89434
H	5895.59	-2.44527	-2.4263
H	5895.93	-0.775314	-3.04415
N	5894.4	-0.612428	-0.828403
C	5893.45	-0.0705441	0.110291
C	5894.22	0.732463	1.1408
O	5895.44	0.629187	1.2337
H	5895.34	-0.64845	-0.509566
H	5892.79	0.610567	-0.411064
C	5892.64	-1.19068	0.804091
H	5893.32	-1.88796	1.3374
H	5891.91	-0.77692	1.52744
H	5892.08	-1.77223	0.0384399
N	5893.52	1.57256	1.9286
C	5894.17	2.38624	2.92999
H	5892.53	1.64722	1.8332
H	5893.42	3.00771	3.47476
H	5894.92	3.066	2.46001
H	5894.7	1.74716	3.67094
