44
  This energy is 1.46737e-320 and Call times are: 1413
C	0.0180633	2.12273	2.7604
C	-0.201952	1.86266	1.31986
O	-0.696183	2.71256	0.591914
H	-0.334506	3.1479	3.00657
H	1.09909	2.04681	3.00212
H	-0.549599	1.39074	3.37268
N	0.161604	0.65852	0.872375
C	0.0105116	0.257628	-0.503592
C	0.017214	-1.25795	-0.550728
O	0.384912	-1.91545	0.421034
H	0.536228	-0.0355879	1.48131
H	-0.953398	0.59368	-0.864176
C	1.14954	0.821519	-1.38209
H	2.13698	0.47534	-1.00895
H	1.0362	0.514871	-2.44223
H	1.13456	1.93237	-1.33811
N	-0.412981	-1.85006	-1.68225
C	-0.453251	-3.28779	-1.81451
H	-0.713223	-1.30068	-2.45508
H	-0.834431	-3.57987	-2.81782
H	-1.12045	-3.73482	-1.04234
H	0.564152	-3.72303	-1.68553
C	77.4689	0.871854	2.49362
C	77.1528	0.326303	1.15435
O	78.0395	0.0541478	0.356777
H	78.5709	0.974328	2.5977
H	77.0955	0.186827	3.28365
H	77.0015	1.8711	2.62008
N	75.8586	0.157928	0.87298
C	75.3942	-0.36336	-0.38774
C	73.9489	0.0603101	-0.563082
O	73.3056	0.507704	0.384476
H	75.1445	0.410734	1.5203
H	75.9683	0.0868744	-1.18759
C	75.5058	-1.90363	-0.434953
H	74.9162	-2.36221	0.387359
H	75.1492	-2.30833	-1.4044
H	76.5691	-2.20113	-0.304177
N	73.4095	-0.0515329	-1.79295
C	72.0442	0.338356	-2.05757
H	73.9486	-0.409205	-2.54839
H	71.787	0.169057	-3.12642
H	71.8921	1.41774	-1.82723
H	71.3381	-0.251518	-1.42928
