44
  This energy is 3.49749e-320 and Call times are: 100281
C	0.887521	0.840729	3.26062
C	-0.0407547	0.235284	2.27932
O	-1.02197	-0.397782	2.64393
H	0.535726	0.610196	4.28967
H	0.917313	1.94288	3.12952
H	1.90875	0.425326	3.12841
N	0.258389	0.415326	0.990728
C	-0.548616	-0.112593	-0.0801935
C	0.31599	-0.183249	-1.32386
O	1.39687	0.400875	-1.37201
H	1.07649	0.908236	0.706669
H	-0.848261	-1.12241	0.169914
C	-1.78548	0.77529	-0.34277
H	-1.47445	1.81068	-0.598406
H	-2.40916	0.371601	-1.16669
H	-2.40994	0.819888	0.576039
N	-0.133558	-0.923244	-2.35648
C	0.627091	-1.05842	-3.57686
H	-1.00747	-1.39419	-2.29545
H	0.0896879	-1.70438	-4.30568
H	1.62223	-1.5151	-3.371
H	0.794883	-0.0627976	-4.04777
C	4746.04	1.76329	-0.515196
C	4747.52	1.65103	-0.571046
O	4748.2	2.51189	-1.11256
H	4745.72	2.69856	-1.02589
H	4745.7	1.79717	0.540801
H	4745.57	0.897295	-1.02755
N	4748.05	0.564938	-0.0073093
C	4749.47	0.315082	0.0186485
C	4749.68	-1.17081	0.238438
O	4748.75	-1.88738	0.607363
H	4747.48	-0.143528	0.405068
H	4749.89	0.566419	-0.947338
C	4750.16	1.11996	1.14107
H	4749.73	0.860143	2.13058
H	4751.25	0.930034	1.1638
H	4750	2.20664	0.969229
N	4750.9	-1.6736	-0.00585957
C	4751.19	-3.07866	0.164255
H	4751.64	-1.07864	-0.310625
H	4752.25	-3.29508	-0.0842292
H	4750.54	-3.69579	-0.499528
H	4751.01	-3.39324	1.21685
