44
  This energy is 7.28253e-321 and Call times are: 105657
C	-0.617781	3.27841	-0.998241
C	0.306305	2.16362	-0.690819
O	1.50568	2.25665	-0.912932
H	-0.0418438	4.1231	-1.43488
H	-1.119	3.6267	-0.0707222
H	-1.38436	2.94928	-1.73103
N	-0.243359	1.06437	-0.169395
C	0.525621	-0.102544	0.182468
C	-0.420996	-1.28593	0.234889
O	-1.63877	-1.11663	0.24887
H	-1.22578	0.990023	-0.0202275
H	1.2501	-0.295187	-0.598618
C	1.2278	0.0769483	1.54696
H	0.481698	0.275074	2.34583
H	1.82092	-0.819681	1.82089
H	1.91744	0.947534	1.4958
N	0.120692	-2.51983	0.24314
C	-0.702371	-3.70616	0.28013
H	1.10829	-2.63615	0.224193
H	-0.0716936	-4.6224	0.283164
H	-1.3742	-3.74607	-0.607731
H	-1.33822	-3.71505	1.19489
C	5006.14	-0.978323	-2.47678
C	5005.28	0.0335797	-1.83147
O	5005.29	1.20188	-2.19394
H	5006.75	-0.490655	-3.27199
H	5005.52	-1.77656	-2.93578
H	5006.83	-1.42813	-1.72848
N	5004.5	-0.400503	-0.83992
C	5003.6	0.464216	-0.116348
C	5003.29	-0.195806	1.2125
O	5003.56	-1.37784	1.40776
H	5004.51	-1.34881	-0.534485
H	5004.1	1.39965	0.0914821
C	5002.29	0.709935	-0.907419
H	5001.78	-0.251838	-1.11949
H	5001.6	1.3755	-0.353209
H	5002.54	1.19263	-1.87913
N	5002.72	0.564129	2.16962
C	5002.4	0.0249775	3.47014
H	5002.51	1.52053	1.99465
H	5001.93	0.804612	4.11562
H	5003.31	-0.352509	3.97757
H	5001.68	-0.822723	3.37735
