44
  This energy is 1.15769e-319 and Call times are: 71889
C	-0.157377	3.20464	-1.35339
C	0.602395	2.00933	-0.923051
O	1.79981	1.90513	-1.15073
H	0.527295	3.90564	-1.87844
H	-0.591794	3.71995	-0.471037
H	-0.972466	2.91068	-2.04778
N	-0.0914367	1.06339	-0.285749
C	0.507977	-0.156171	0.194055
C	-0.596798	-1.17919	0.373318
O	-1.77775	-0.836971	0.365307
H	-1.07241	1.147	-0.132028
H	1.18742	-0.534357	-0.559206
C	1.24622	0.0685888	1.53256
H	0.546378	0.457197	2.30284
H	1.70907	-0.868424	1.90479
H	2.05212	0.820792	1.38814
N	-0.236342	-2.46956	0.518305
C	-1.21945	-3.51483	0.682893
H	0.724282	-2.72729	0.514938
H	-0.725739	-4.506	0.788106
H	-1.90158	-3.55471	-0.19708
H	-1.83816	-3.33301	1.59137
C	3413.3	1.46281	-1.25844
C	3412.36	0.321773	-1.13718
O	3412.5	-0.683199	-1.82126
H	3414.06	1.23016	-2.03068
H	3413.81	1.64336	-0.289335
H	3412.75	2.37822	-1.56203
N	3411.37	0.458119	-0.252225
C	3410.39	-0.56518	-0.0210019
C	3409.17	0.091704	0.610164
O	3409.24	1.23173	1.06565
H	3411.26	1.29348	0.278179
H	3410.08	-0.978312	-0.973076
C	3410.93	-1.67482	0.905356
H	3411.25	-1.2474	1.8809
H	3410.17	-2.46447	1.08537
H	3411.82	-2.14731	0.432276
N	3408.02	-0.609399	0.631709
C	3406.81	-0.0607831	1.20142
H	3407.99	-1.52776	0.251626
H	3405.98	-0.789904	1.12576
H	3406.52	0.871006	0.668241
H	3406.96	0.189739	2.27645
