44
  This energy is 5.75784e-320 and Call times are: 50763
C	-1.39736	-1.31232	2.90712
C	-0.631668	-0.270488	2.18635
O	-0.300308	0.768352	2.74088
H	-1.58891	-0.97307	3.94831
H	-0.818737	-2.25944	2.93849
H	-2.37025	-1.49043	2.40243
N	-0.334834	-0.528699	0.910586
C	0.404851	0.387148	0.0793701
C	0.111958	0.0431326	-1.36808
O	-0.431724	-1.01924	-1.66407
H	-0.635608	-1.36597	0.461761
H	0.045617	1.39275	0.257649
C	1.92287	0.292894	0.351148
H	2.28791	-0.740203	0.167923
H	2.49541	0.996882	-0.287105
H	2.12409	0.545994	1.41491
N	0.448352	0.949892	-2.3065
C	0.197122	0.714392	-3.70921
H	0.881005	1.80681	-2.04624
H	0.546245	1.57513	-4.32116
H	-0.892103	0.57143	-3.89466
H	0.72938	-0.200976	-4.05559
C	2404.11	1.03852	-0.475695
C	2405.3	0.246384	-0.873997
O	2405.23	-0.569201	-1.78373
H	2403.25	0.752215	-1.11354
H	2404.31	2.12221	-0.609062
H	2403.86	0.838267	0.586268
N	2406.42	0.469773	-0.184831
C	2407.65	-0.222741	-0.455069
C	2408.52	-0.129225	0.784914
O	2408.25	0.662109	1.68535
H	2406.45	1.11581	0.573276
H	2407.44	-1.26968	-0.628288
C	2408.39	0.391977	-1.66633
H	2408.61	1.46621	-1.48551
H	2409.34	-0.138967	-1.87728
H	2407.74	0.318358	-2.56785
N	2409.58	-0.956205	0.869466
C	2410.46	-0.946767	2.01792
H	2409.78	-1.59447	0.133518
H	2411.27	-1.69632	1.89853
H	2409.89	-1.18913	2.9461
H	2410.92	0.0570845	2.14943
