44
  This energy is 4.58592e-320 and Call times are: 87807
C	0.0102051	0.993127	3.33762
C	0.424229	0.0773043	2.25086
O	1.25078	-0.803138	2.44612
H	0.563368	0.734484	4.26659
H	-1.07902	0.89283	3.52827
H	0.241746	2.04357	3.06211
N	-0.147601	0.272932	1.06044
C	0.152377	-0.536804	-0.0933264
C	-0.238242	0.25019	-1.32916
O	-0.941288	1.25484	-1.23843
H	-0.797905	1.01212	0.906676
H	1.22072	-0.706857	-0.135703
C	-0.613359	-1.87814	-0.053628
H	-1.709	-1.69996	-0.00951775
H	-0.384568	-2.50417	-0.940487
H	-0.319311	-2.44454	0.856799
N	0.230072	-0.179178	-2.51758
C	-0.0797275	0.51329	-3.74668
H	0.803468	-0.990205	-2.56939
H	0.395702	0.0055563	-4.61468
H	0.289684	1.56372	-3.70967
H	-1.18055	0.540205	-3.91596
C	4156.88	0.588054	3.07618
C	4157.08	-0.231334	1.86038
O	4156.58	-1.34077	1.75332
H	4156.24	0.0277433	3.79393
H	4156.37	1.54138	2.81462
H	4157.85	0.807662	3.55813
N	4157.84	0.305323	0.904639
C	4158.13	-0.369625	-0.335298
C	4159.39	0.250485	-0.921691
O	4159.82	1.31588	-0.489297
H	4158.27	1.19782	1.01595
H	4158.35	-1.41037	-0.127735
C	4156.96	-0.241337	-1.33277
H	4156.74	0.827634	-1.54294
H	4157.18	-0.760052	-2.28855
H	4156.05	-0.698201	-0.890969
N	4160.01	-0.417926	-1.91171
C	4161.22	0.089482	-2.52273
H	4159.65	-1.28213	-2.24292
H	4161.58	-0.601414	-3.31707
H	4162.02	0.20098	-1.76373
H	4161.03	1.08787	-2.98233
