44
  This energy is 1.45275e-319 and Call times are: 18423
C	3.2626	1.00944	0.680157
C	1.80626	1.26741	0.619198
O	1.32778	2.3012	1.06513
H	3.76731	1.86794	1.17421
H	3.67359	0.892252	-0.344624
H	3.46403	0.0882209	1.26645
N	1.05784	0.313141	0.0609864
C	-0.373313	0.419169	-0.0708655
C	-0.930364	-0.98065	-0.242447
O	-0.187479	-1.92534	-0.502298
H	1.45612	-0.537295	-0.272286
H	-0.781928	0.825762	0.845535
C	-0.763191	1.29805	-1.28028
H	-0.341807	0.878405	-2.2186
H	-1.86448	1.38193	-1.38465
H	-0.348229	2.32036	-1.14303
N	-2.25718	-1.14988	-0.0783838
C	-2.87535	-2.44855	-0.210648
H	-2.84054	-0.374111	0.138669
H	-3.97262	-2.38085	-0.0413326
H	-2.44985	-3.16351	0.530319
H	-2.70274	-2.86408	-1.22983
C	881.499	0.722088	2.07894
C	880.339	-0.113456	1.6946
O	880.11	-1.17495	2.25778
H	882.057	0.220282	2.89874
H	881.153	1.71546	2.43501
H	882.178	0.856551	1.21099
N	879.573	0.353668	0.705636
C	878.41	-0.345449	0.220659
C	878.11	0.162536	-1.17615
O	878.642	1.18652	-1.6005
H	879.787	1.2056	0.235118
H	878.64	-1.40062	0.144574
C	877.191	-0.116838	1.14243
H	876.959	0.966729	1.21875
H	876.294	-0.653873	0.772002
H	877.424	-0.49205	2.16275
N	877.261	-0.558839	-1.93469
C	876.925	-0.159074	-3.28134
H	876.846	-1.38849	-1.5758
H	876.212	-0.879576	-3.73905
H	877.838	-0.117349	-3.9182
H	876.455	0.850804	-3.28575
