44
  This energy is 3.17981e-320 and Call times are: 61977
C	-0.322191	3.3974	-0.692794
C	0.171759	2.2808	0.144109
O	0.932831	2.48091	1.08071
H	0.111637	4.35235	-0.32437
H	-1.42922	3.45919	-0.633651
H	-0.0165659	3.24795	-1.74977
N	-0.253937	1.05917	-0.185691
C	0.138842	-0.126134	0.533761
C	-0.0766179	-1.31785	-0.378723
O	-0.741885	-1.20995	-1.40712
H	-0.850725	0.905947	-0.968828
H	1.19695	-0.0686999	0.755518
C	-0.683052	-0.294923	1.83111
H	-1.76811	-0.352827	1.59998
H	-0.383069	-1.20656	2.38763
H	-0.517516	0.58493	2.49035
N	0.503402	-2.48371	-0.0318042
C	0.363385	-3.66888	-0.845405
H	1.04385	-2.54897	0.800595
H	0.911153	-4.52417	-0.391885
H	0.770797	-3.49414	-1.86752
H	-0.709311	-3.95269	-0.945172
C	2937.34	2.59934	-1.79692
C	2937.93	2.04581	-0.559615
O	2938.16	2.76016	0.406776
H	2937.17	3.69079	-1.66773
H	2936.36	2.10896	-2.00569
H	2938.02	2.43984	-2.65585
N	2938.2	0.738983	-0.566051
C	2938.78	0.0560252	0.56277
C	2939.42	-1.2226	0.0560646
O	2939.18	-1.64392	-1.07245
H	2938.04	0.173416	-1.3699
H	2939.57	0.672365	0.981452
C	2937.72	-0.270229	1.63152
H	2936.91	-0.902074	1.19843
H	2938.16	-0.795998	2.50218
H	2937.26	0.674486	1.99373
N	2940.28	-1.86087	0.87656
C	2940.95	-3.0789	0.475471
H	2940.47	-1.50014	1.78336
H	2941.61	-3.45113	1.28768
H	2941.57	-2.90642	-0.432728
H	2940.2	-3.87315	0.238465
