44
  This energy is 1.12252e-320 and Call times are: 31191
C	2.08299	2.35933	-1.49026
C	1.25511	1.13351	-1.54667
O	1.0274	0.572361	-2.60957
H	2.40922	2.62981	-2.51801
H	2.98182	2.18536	-0.862041
H	1.49383	3.2001	-1.06724
N	0.774517	0.68846	-0.383338
C	-0.0462341	-0.491298	-0.276724
C	-0.817086	-0.406392	1.02628
O	-0.503548	0.410584	1.89004
H	0.942958	1.17091	0.472117
H	-0.766161	-0.493327	-1.08529
C	0.810351	-1.77684	-0.30445
H	1.54826	-1.77113	0.525957
H	0.181516	-2.68714	-0.222707
H	1.37089	-1.8266	-1.26334
N	-1.86366	-1.23961	1.18885
C	-2.66343	-1.2225	2.39146
H	-2.10589	-1.88871	0.475249
H	-3.47456	-1.98154	2.33512
H	-3.12978	-0.221501	2.53894
H	-2.03556	-1.44579	3.28427
C	1479.6	0.671104	2.69503
C	1480.51	1.11012	1.61321
O	1480.66	2.29643	1.35443
H	1479.13	1.56263	3.16297
H	1480.17	0.115955	3.47097
H	1478.8	0.0177178	2.28284
N	1481.14	0.144839	0.943447
C	1482.06	0.414484	-0.134898
C	1482.17	-0.842741	-0.974908
O	1481.75	-1.9189	-0.556295
H	1480.99	-0.81921	1.14453
H	1481.65	1.19313	-0.762752
C	1483.45	0.824789	0.39883
H	1483.87	0.0240113	1.04306
H	1484.16	1.03329	-0.428861
H	1483.35	1.74617	1.01342
N	1482.73	-0.729911	-2.1964
C	1482.87	-1.87046	-3.07147
H	1483.06	0.151051	-2.51996
H	1483.36	-1.57476	-4.02867
H	1481.88	-2.31213	-3.3036
H	1483.5	-2.65917	-2.59243
