44
  This energy is 8.82006e-320 and Call times are: 89529
C	-2.10358	-1.43551	2.37495
C	-1.19173	-0.360091	1.92417
O	-1.04134	0.659383	2.58338
H	-2.57463	-1.13835	3.33707
H	-1.53717	-2.37812	2.5282
H	-2.9012	-1.60236	1.62069
N	-0.557657	-0.566308	0.767539
C	0.361236	0.387261	0.19906
C	0.475271	0.0968637	-1.28482
O	0.05128	-0.957923	-1.75332
H	-0.710816	-1.38819	0.22533
H	-0.0514477	1.38211	0.308781
C	1.75154	0.295637	0.866718
H	2.17167	-0.726442	0.752846
H	2.46151	1.02863	0.431469
H	1.65422	0.509211	1.95348
N	1.03486	1.04202	-2.06555
C	1.17494	0.858689	-3.49136
H	1.3654	1.89195	-1.66855
H	1.65977	1.74537	-3.9561
H	0.178716	0.713635	-3.96857
H	1.7978	-0.0380196	-3.71304
C	4243.63	1.08555	-0.721851
C	4242.67	0.0310238	-0.32711
O	4243.02	-1.13721	-0.226851
H	4244.63	0.627075	-0.894801
H	4243.72	1.84416	0.0841249
H	4243.29	1.57874	-1.6582
N	4241.41	0.427432	-0.0965989
C	4240.37	-0.481334	0.295469
C	4239.04	0.169539	-0.0345437
O	4238.97	1.36668	-0.307896
H	4241.14	1.37748	-0.209966
H	4240.45	-1.38532	-0.29497
C	4240.44	-0.805964	1.80427
H	4240.36	0.123715	2.40699
H	4239.63	-1.50559	2.10952
H	4241.42	-1.28117	2.03325
N	4237.94	-0.614322	-0.0377597
C	4236.63	-0.0848937	-0.351789
H	4238.01	-1.58226	0.17913
H	4235.86	-0.884652	-0.299547
H	4236.62	0.347405	-1.37853
H	4236.35	0.7203	0.365235
