44
  This energy is 1.45063e-319 and Call times are: 104733
C	0.221864	2.57197	2.33707
C	-0.534043	1.50411	1.64461
O	-1.65867	1.18799	2.00761
H	-0.391236	2.97284	3.17329
H	0.450781	3.39794	1.63124
H	1.16927	2.16493	2.74901
N	0.0812051	0.91211	0.618275
C	-0.525432	-0.142912	-0.153572
C	0.583686	-0.909209	-0.84775
O	1.72274	-0.450082	-0.907733
H	1.00885	1.15861	0.35062
H	-1.02697	-0.82718	0.518968
C	-1.51512	0.421351	-1.19724
H	-0.997417	1.12344	-1.88512
H	-1.98415	-0.38834	-1.79322
H	-2.32196	0.981392	-0.676177
N	0.278687	-2.11254	-1.37214
C	1.27262	-2.91907	-2.04129
H	-0.647197	-2.46994	-1.30705
H	0.826953	-3.87138	-2.40425
H	2.10984	-3.16547	-1.34876
H	1.69682	-2.37464	-2.91584
C	4963.33	1.64207	1.99813
C	4962.6	1.47143	0.721592
O	4962.71	2.2879	-0.182922
H	4963.93	2.5791	1.95759
H	4964.02	0.785483	2.16366
H	4962.61	1.70906	2.84315
N	4961.83	0.390179	0.622575
C	4961.05	0.0872764	-0.556397
C	4959.94	-0.85823	-0.153497
O	4959.96	-1.42706	0.93637
H	4961.72	-0.252268	1.37736
H	4960.6	0.998244	-0.921438
C	4961.93	-0.560931	-1.65108
H	4962.4	-1.49485	-1.27299
H	4961.34	-0.795325	-2.56035
H	4962.74	0.141091	-1.9366
N	4958.92	-1.03133	-1.02076
C	4957.81	-1.90305	-0.718133
H	4958.92	-0.556545	-1.89472
H	4957.08	-1.91314	-1.55606
H	4957.28	-1.5629	0.202796
H	4958.16	-2.94589	-0.548511
