44
  This energy is 1.4609e-319 and Call times are: 321
C	1.57519	1.22217	-2.85503
C	1.16436	1.35145	-1.4388
O	1.55663	2.28236	-0.748843
H	2.25144	2.06393	-3.11959
H	0.684016	1.25566	-3.51647
H	2.11523	0.264603	-3.01114
N	0.355916	0.3997	-0.966626
C	-0.129297	0.388624	0.390309
C	-0.553202	-1.02896	0.72197
O	-0.691096	-1.86792	-0.166269
H	0.0667427	-0.369349	-1.53043
H	0.682061	0.653663	1.05629
C	-1.32124	1.35522	0.569377
H	-2.15152	1.08083	-0.115799
H	-1.69723	1.34929	1.61311
H	-0.998069	2.38994	0.322269
N	-0.749464	-1.33533	2.01951
C	-1.14281	-2.66266	2.43139
H	-0.625852	-0.644353	2.72415
H	-1.25555	-2.71417	3.53678
H	-0.37929	-3.41256	2.12165
H	-2.11441	-2.94682	1.96615
C	24.8118	-3.44783	-0.450769
C	25.5519	-2.22321	-0.0714389
O	26.668	-2.28692	0.425239
H	25.4271	-4.34014	-0.203494
H	24.603	-3.4463	-1.54129
H	23.8543	-3.50525	0.10852
N	24.9321	-1.06229	-0.2962
C	25.5236	0.213431	0.0191907
C	24.4047	1.2304	0.133126
O	23.2749	0.970494	-0.276608
H	24.011	-1.02471	-0.674462
H	26.0079	0.147546	0.985235
C	26.5304	0.65084	-1.06809
H	26.0304	0.716757	-2.05794
H	26.9878	1.63268	-0.828311
H	27.3443	-0.102896	-1.14254
N	24.6902	2.41131	0.71614
C	23.6855	3.43611	0.879065
H	25.6088	2.59991	1.04772
H	24.1155	4.33253	1.37793
H	22.8394	3.06166	1.49965
H	23.2773	3.74705	-0.109779
