44
  This energy is 8.18864e-320 and Call times are: 89277
C	-3.16348	1.29566	0.663176
C	-1.6981	1.26893	0.870958
O	-1.1393	2.12237	1.54614
H	-3.59372	2.17273	1.19375
H	-3.62413	0.369752	1.06729
H	-3.39517	1.38134	-0.419378
N	-1.03336	0.273649	0.279435
C	0.394662	0.113788	0.389077
C	0.858056	-0.743569	-0.772578
O	0.0488984	-1.37387	-1.45068
H	-1.49628	-0.398731	-0.29201
H	0.865858	1.08351	0.290702
C	0.785154	-0.55021	1.72838
H	0.299498	-1.54453	1.8263
H	1.88405	-0.674671	1.81616
H	0.439123	0.0869278	2.57127
N	2.17797	-0.769197	-1.04308
C	2.71012	-1.54778	-2.13707
H	2.81598	-0.246615	-0.487128
H	3.81569	-1.44012	-2.19508
H	2.27406	-1.21305	-3.10611
H	2.46936	-2.62746	-2.00474
C	4230.06	-0.782149	-2.95858
C	4228.94	-0.162206	-2.22202
O	4228.11	0.529654	-2.7978
H	4230	-0.502694	-4.03255
H	4230.01	-1.88796	-2.87136
H	4231.03	-0.422107	-2.55233
N	4228.89	-0.396695	-0.908657
C	4227.85	0.137072	-0.0578614
C	4228.37	0.126254	1.36723
O	4229.38	-0.511872	1.66489
H	4229.58	-0.938067	-0.446362
H	4227.67	1.16775	-0.332893
C	4226.56	-0.696207	-0.158026
H	4226.75	-1.75315	0.124163
H	4225.76	-0.287874	0.495712
H	4226.19	-0.681334	-1.20689
N	4227.7	0.855228	2.28138
C	4228.13	0.914691	3.66017
H	4226.89	1.37052	2.01931
H	4227.45	1.56356	4.25444
H	4229.16	1.32771	3.73498
H	4228.13	-0.102139	4.11541
