44
  This energy is 1.57696e-319 and Call times are: 6831
C	-0.387992	3.11043	1.51685
C	-0.199656	1.64374	1.58447
O	0.0134733	1.08184	2.64999
H	-0.295199	3.5401	2.53794
H	-1.39605	3.34866	1.11699
H	0.385642	3.56606	0.863522
N	-0.269826	0.982858	0.426598
C	-0.10782	-0.445937	0.331063
C	0.271197	-0.77725	-1.09926
O	0.146128	0.0585219	-1.99238
H	-0.414997	1.45553	-0.438527
H	0.713127	-0.750324	0.967827
C	-1.40621	-1.18663	0.721789
H	-2.24647	-0.871491	0.0669892
H	-1.28493	-2.28701	0.649483
H	-1.67372	-0.934675	1.77113
N	0.766785	-2.00587	-1.34602
C	1.16581	-2.40679	-2.67501
H	0.867003	-2.66567	-0.608561
H	1.54528	-3.45237	-2.67304
H	1.97246	-1.74192	-3.06037
H	0.304129	-2.34776	-3.37872
C	336.371	-1.43948	0.0397255
C	335.321	-0.620523	-0.607406
O	335.547	-0.00248931	-1.63866
H	337.309	-1.36872	-0.552385
H	336.053	-2.50252	0.0843793
H	336.566	-1.0688	1.06805
N	334.132	-0.593923	-0.00127598
C	333.012	0.157006	-0.509909
C	332.047	0.388902	0.636676
O	332.156	-0.241277	1.68687
H	333.969	-1.07831	0.854132
H	333.361	1.1248	-0.846844
C	332.303	-0.597687	-1.65653
H	331.946	-1.59035	-1.30758
H	331.44	-0.0222167	-2.0506
H	333.02	-0.762383	-2.48964
N	331.088	1.32061	0.468052
C	330.132	1.61812	1.50914
H	331.021	1.82502	-0.386532
H	329.425	2.41038	1.17876
H	330.651	1.97285	2.42911
H	329.543	0.710028	1.77323
