44
  This energy is 5.95695e-320 and Call times are: 75753
C	-1.69491	3.03575	-0.194052
C	-0.739379	2.04176	-0.732706
O	-0.253551	2.17114	-1.84793
H	-1.85941	3.83417	-0.949906
H	-1.28801	3.49521	0.731233
H	-2.66699	2.54898	0.031936
N	-0.44971	1.00744	0.0601712
C	0.462266	-0.0403067	-0.323686
C	0.162121	-1.25578	0.531746
O	-0.545222	-1.16065	1.53297
H	-0.874406	0.898109	0.954942
H	0.274591	-0.309665	-1.35533
C	1.93218	0.394934	-0.131226
H	2.12104	0.671194	0.928079
H	2.63708	-0.409432	-0.425995
H	2.13899	1.28673	-0.762165
N	0.678891	-2.43767	0.141758
C	0.436865	-3.65099	0.887055
H	1.24295	-2.49535	-0.675401
H	0.947686	-4.51522	0.408086
H	-0.654149	-3.87147	0.935214
H	0.815817	-3.55374	1.93018
C	3593.1	2.70028	0.026394
C	3591.86	2.03145	-0.442634
O	3591.05	2.62428	-1.13339
H	3593.11	3.74872	-0.343045
H	3593.99	2.17068	-0.364454
H	3593.13	2.70989	1.13627
N	3591.7	0.761639	-0.0654526
C	3590.55	-0.0215997	-0.442715
C	3590.42	-1.1687	0.540992
O	3591.35	-1.45151	1.29822
H	3592.36	0.298779	0.521545
H	3589.66	0.590011	-0.34978
C	3590.69	-0.568086	-1.88114
H	3591.6	-1.19451	-1.97309
H	3589.8	-1.17152	-2.17492
H	3590.78	0.281897	-2.5919
N	3589.26	-1.84537	0.566984
C	3589.04	-2.94486	1.47861
H	3588.52	-1.59667	-0.0488007
H	3588.02	-3.37223	1.34596
H	3589.15	-2.60539	2.53475
H	3589.79	-3.75364	1.30182
