44
  This energy is 7.00832e-320 and Call times are: 27495
C	-1.37749	1.1054	3.00112
C	-0.572455	0.144001	2.21447
O	0.060728	-0.747923	2.76223
H	-1.28214	0.865909	4.08252
H	-2.44696	1.03651	2.71075
H	-1.01393	2.14033	2.8288
N	-0.575529	0.312081	0.890042
C	0.158663	-0.542999	-0.00808289
C	0.359525	0.210277	-1.30865
O	-0.279451	1.2332	-1.54774
H	-1.07201	1.06026	0.457984
H	1.13661	-0.738713	0.413104
C	-0.597625	-1.8644	-0.270827
H	-1.6007	-1.65989	-0.702265
H	-0.0350233	-2.52524	-0.961875
H	-0.739447	-2.40611	0.689684
N	1.27402	-0.269769	-2.17424
C	1.54176	0.387445	-3.43224
H	1.786	-1.09495	-1.95936
H	2.32346	-0.160182	-4.00347
H	1.89685	1.42983	-3.26318
H	0.619581	0.433694	-4.05564
C	1306	-0.292231	1.75123
C	1307.39	-0.723968	1.46197
O	1307.95	-1.56635	2.15221
H	1305.63	-0.839529	2.64253
H	1305.35	-0.51705	0.886425
H	1305.98	0.797763	1.96149
N	1307.99	-0.141056	0.420027
C	1309.33	-0.456281	0.0141507
C	1309.86	0.703204	-0.81256
O	1309.09	1.5639	-1.24125
H	1307.53	0.56496	-0.116783
H	1309.96	-0.537968	0.895624
C	1309.38	-1.76123	-0.811649
H	1308.74	-1.67418	-1.71482
H	1310.42	-2.007	-1.12567
H	1309	-2.60262	-0.195367
N	1311.18	0.763769	-1.03779
C	1311.77	1.83755	-1.8041
H	1311.79	0.0614834	-0.676329
H	1312.87	1.70894	-1.87946
H	1311.56	2.82154	-1.32395
H	1311.35	1.86144	-2.83506
