44
  This energy is 6.70151e-320 and Call times are: 63321
C	0.201216	1.27427	3.23448
C	0.34844	1.41558	1.76834
O	0.602351	2.49872	1.25959
H	0.349523	2.26537	3.71571
H	0.960206	0.566221	3.62871
H	-0.815089	0.902476	3.48315
N	0.183353	0.305012	1.04602
C	0.295717	0.283039	-0.390548
C	-0.439038	-0.943026	-0.896649
O	-0.776216	-1.83756	-0.12338
H	-0.051999	-0.565555	1.46988
H	-0.201592	1.15514	-0.795759
C	1.77372	0.239276	-0.838553
H	2.28103	-0.656273	-0.420528
H	1.86388	0.222424	-1.94416
H	2.30116	1.14209	-0.460564
N	-0.724473	-1.00195	-2.21235
C	-1.43153	-2.12492	-2.78261
H	-0.44944	-0.26465	-2.82061
H	-1.56835	-1.9883	-3.87799
H	-2.4367	-2.23487	-2.31487
H	-0.867359	-3.07085	-2.61492
C	3005.16	0.408584	-2.52838
C	3003.89	-0.145129	-2.01225
O	3003.11	-0.735085	-2.74902
H	3005.24	0.197686	-3.61713
H	3006.02	-0.0624356	-2.009
H	3005.19	1.50748	-2.37209
N	3003.64	0.0418814	-0.713135
C	3002.45	-0.438546	-0.065356
C	3002.25	0.366146	1.20463
O	3003.16	1.06678	1.65181
H	3004.27	0.549511	-0.129588
H	3001.6	-0.250124	-0.709317
C	3002.56	-1.94278	0.270261
H	3003.43	-2.13258	0.930474
H	3001.64	-2.31602	0.769007
H	3002.7	-2.52108	-0.668142
N	3001.05	0.30038	1.80578
C	3000.76	1.04143	3.01268
H	3000.32	-0.266717	1.42445
H	2999.72	0.854481	3.35321
H	3000.88	2.13533	2.83969
H	3001.46	0.742024	3.83024
