44
  This energy is 1.59514e-319 and Call times are: 42489
C	-2.93622	0.533151	-1.79457
C	-1.56811	-0.0184401	-1.67123
O	-1.10001	-0.747956	-2.53447
H	-3.39488	0.169816	-2.73981
H	-2.90091	1.64271	-1.81559
H	-3.56196	0.199666	-0.94006
N	-0.889135	0.319884	-0.57264
C	0.452232	-0.137381	-0.310966
C	0.702986	-0.0171504	1.17964
O	-0.0556511	0.635464	1.89406
H	-1.29222	0.891308	0.137241
H	0.524172	-1.18531	-0.573157
C	1.49279	0.694445	-1.09354
H	1.41574	1.76906	-0.822639
H	2.5267	0.344917	-0.894477
H	1.29753	0.598977	-2.18391
N	1.76844	-0.666535	1.68866
C	2.07941	-0.619389	3.09836
H	2.36635	-1.19528	1.09523
H	2.99288	-1.21423	3.31966
H	1.23784	-1.03243	3.70036
H	2.25632	0.430328	3.42696
C	2015.25	0.223524	-3.05652
C	2016.48	0.0643414	-2.25183
O	2017.55	-0.201602	-2.78039
H	2015.48	0.0581443	-4.12971
H	2014.84	1.24878	-2.93284
H	2014.48	-0.518261	-2.73929
N	2016.35	0.220797	-0.932279
C	2017.46	0.0971255	-0.0184219
C	2016.89	-0.185185	1.36077
O	2015.7	-0.023919	1.59637
H	2015.47	0.40854	-0.510864
H	2018.06	-0.754586	-0.308463
C	2018.31	1.38517	0.00947924
H	2017.69	2.25703	0.306754
H	2019.16	1.29332	0.712029
H	2018.72	1.58155	-1.00682
N	2017.74	-0.636858	2.30311
C	2017.3	-0.943833	3.64137
H	2018.71	-0.76765	2.09088
H	2018.14	-1.29913	4.26819
H	2016.52	-1.73984	3.62175
H	2016.86	-0.0418303	4.12511
