44
  This energy is 1.9985e-320 and Call times are: 37323
C	0.305853	-0.785071	3.37879
C	0.861546	-0.684028	2.01051
O	2.05001	-0.877467	1.79458
H	1.12219	-1.04073	4.08879
H	-0.468048	-1.5802	3.41966
H	-0.143784	0.183885	3.68194
N	-0.0010948	-0.367417	1.04202
C	0.388921	-0.232544	-0.338749
C	-0.658565	0.611513	-1.03845
O	-1.74335	0.836626	-0.50515
H	-0.961263	-0.183689	1.23504
H	1.32899	0.302152	-0.388225
C	0.507212	-1.61072	-1.02704
H	-0.45875	-2.1568	-0.973844
H	0.807513	-1.51056	-2.09032
H	1.27672	-2.21976	-0.504464
N	-0.347174	1.11862	-2.24753
C	-1.27699	1.94347	-2.98323
H	0.53859	0.930951	-2.65915
H	-0.837544	2.26121	-3.95441
H	-1.53772	2.85684	-2.40098
H	-2.21877	1.38547	-3.19026
C	1769.85	-3.31077	-0.241026
C	1769.69	-1.92782	0.26228
O	1768.68	-1.58805	0.871234
H	1768.95	-3.90384	0.0230151
H	1770.74	-3.78615	0.221576
H	1769.96	-3.30533	-1.34531
N	1770.69	-1.08528	0.00877812
C	1770.68	0.291603	0.434152
C	1771.67	1.05362	-0.433888
O	1772.48	0.455953	-1.13705
H	1771.49	-1.36639	-0.51361
H	1769.7	0.70749	0.259933
C	1771.08	0.423005	1.92252
H	1772.09	-0.00522699	2.09781
H	1771.07	1.4819	2.2534
H	1770.35	-0.140444	2.54765
N	1771.6	2.39946	-0.420597
C	1772.49	3.20839	-1.22378
H	1770.93	2.86436	0.149681
H	1772.28	4.29026	-1.07385
H	1772.36	2.97353	-2.30558
H	1773.55	3.01671	-0.950043
