44
  This energy is 2.39029e-320 and Call times are: 49461
C	0.618294	0.326874	3.4113
C	0.715264	0.817425	2.01805
O	1.15442	1.93167	1.76888
H	0.986588	1.1142	4.10437
H	1.23938	-0.584432	3.54013
H	-0.437722	0.0926134	3.6621
N	0.294238	-0.017163	1.06486
C	0.325926	0.317118	-0.336594
C	-0.664473	-0.580761	-1.05225
O	-1.13373	-1.57027	-0.493229
H	-0.0885591	-0.911001	1.28271
H	-0.00684473	1.33966	-0.462033
C	1.74021	0.126145	-0.928582
H	2.07873	-0.923788	-0.79758
H	1.76822	0.382804	-2.00753
H	2.45646	0.788362	-0.395107
N	-1.02318	-0.241365	-2.3061
C	-1.96913	-1.02971	-3.06099
H	-0.637718	0.567129	-2.73853
H	-2.13195	-0.589265	-4.06933
H	-2.95056	-1.07493	-2.53565
H	-1.59793	-2.07226	-3.18945
C	2342.19	-1.31217	0.346881
C	2343.44	-0.759172	0.917659
O	2343.53	-0.505869	2.1109
H	2341.44	-1.42613	1.15542
H	2342.39	-2.30706	-0.106229
H	2341.79	-0.626186	-0.427308
N	2344.44	-0.551482	0.060828
C	2345.72	-0.0187959	0.465547
C	2346.39	0.560751	-0.763059
O	2345.97	0.305971	-1.88988
H	2344.35	-0.734569	-0.913822
H	2345.56	0.791688	1.16464
C	2346.61	-1.11234	1.09453
H	2346.78	-1.94254	0.374875
H	2347.6	-0.705556	1.40743
H	2346.11	-1.52965	1.99275
N	2347.45	1.37645	-0.571053
C	2348.15	1.984	-1.68058
H	2347.77	1.57608	0.348882
H	2348.99	2.6183	-1.31814
H	2347.46	2.62356	-2.27605
H	2348.56	1.20362	-2.35728
