44
  This energy is 5.12148e-320 and Call times are: 14895
C	2.5007	2.08841	1.22931
C	1.86571	1.3244	0.13191
O	2.26474	1.42227	-1.02034
H	3.32573	2.70825	0.815812
H	2.91876	1.39322	1.98744
H	1.75622	2.7564	1.71148
N	0.841725	0.538135	0.471923
C	0.123164	-0.266469	-0.483645
C	-1.23311	-0.594497	0.109791
O	-1.45818	-0.408757	1.30423
H	0.507388	0.489278	1.40935
H	-0.0425876	0.316634	-1.38063
C	0.888447	-1.56799	-0.811533
H	1.05736	-2.1634	0.110999
H	0.338029	-2.18983	-1.54714
H	1.88057	-1.31407	-1.24439
N	-2.18	-1.0726	-0.721358
C	-3.50444	-1.40166	-0.248332
H	-1.98057	-1.20919	-1.68614
H	-4.13666	-1.78061	-1.08137
H	-4.00017	-0.504185	0.1876
H	-3.45627	-2.18683	0.540568
C	708.91	-1.80603	2.30042
C	709.568	-0.559018	1.84993
O	709.407	0.494029	2.45135
H	708.298	-1.59277	3.20388
H	709.673	-2.57089	2.5556
H	708.246	-2.19878	1.50154
N	710.332	-0.652431	0.75909
C	711.037	0.4732	0.199855
C	711.348	0.154809	-1.2497
O	711.237	-0.99186	-1.6793
H	710.432	-1.50977	0.261159
H	710.387	1.33839	0.21437
C	712.344	0.759052	0.973058
H	713.009	-0.130825	0.956718
H	712.889	1.62528	0.545175
H	712.103	0.989673	2.03361
N	711.727	1.17376	-2.0462
C	712.031	0.968005	-3.44295
H	711.804	2.09583	-1.68147
H	712.324	1.9258	-3.92674
H	711.146	0.559326	-3.98221
H	712.871	0.244984	-3.55966
