44
  This energy is 1.17163e-319 and Call times are: 97299
C	-2.16744	-1.87512	1.97795
C	-1.35236	-0.665316	1.7265
O	-1.40946	0.302237	2.47287
H	-2.78086	-1.7212	2.89221
H	-1.50834	-2.75537	2.13143
H	-2.84448	-2.066	1.11881
N	-0.567192	-0.693083	0.647095
C	0.283881	0.407432	0.271105
C	0.605394	0.26497	-1.20388
O	0.375226	-0.786221	-1.79873
H	-0.551354	-1.47586	0.0306989
H	-0.260944	1.33391	0.401019
C	1.5875	0.419165	1.10029
H	2.14357	-0.533017	0.9652
H	2.24509	1.26538	0.813445
H	1.33832	0.52278	2.17886
N	1.12823	1.33423	-1.8358
C	1.45515	1.29556	-3.24215
H	1.30049	2.17824	-1.3386
H	1.87496	2.27027	-3.57523
H	0.547475	1.0786	-3.85067
H	2.20767	0.500521	-3.44905
C	4610.83	2.43872	1.56512
C	4610.67	1.329	0.599075
O	4611.56	1.03161	-0.179406
H	4611.84	2.89552	1.43388
H	4610.74	2.05747	2.60418
H	4610.06	3.21564	1.38963
N	4609.5	0.686312	0.625752
C	4609.19	-0.41434	-0.252271
C	4607.68	-0.546861	-0.322658
O	4606.96	0.0349883	0.486122
H	4608.77	0.956903	1.24479
H	4609.55	-0.180687	-1.24747
C	4609.82	-1.73192	0.257066
H	4609.45	-1.96823	1.2785
H	4609.58	-2.58145	-0.416756
H	4610.92	-1.62145	0.305216
N	4607.17	-1.30322	-1.31163
C	4605.74	-1.47759	-1.46464
H	4607.77	-1.7602	-1.96055
H	4605.52	-2.13468	-2.33352
H	4605.24	-0.495878	-1.62892
H	4605.3	-1.94074	-0.551706
