44
  This energy is 8.79931e-321 and Call times are: 31107
C	2.80048	0.982217	-1.82173
C	1.44565	1.23355	-1.28091
O	0.918953	2.33321	-1.38009
H	3.19166	1.91598	-2.281
H	2.76156	0.189034	-2.59772
H	3.48591	0.668112	-1.00658
N	0.845643	0.202385	-0.681712
C	-0.472876	0.291618	-0.106931
C	-0.617509	-0.829686	0.903513
O	0.188595	-1.75769	0.932377
H	1.29693	-0.68036	-0.581531
H	-0.561156	1.22915	0.427209
C	-1.56797	0.174804	-1.19056
H	-1.47403	-0.787846	-1.737
H	-2.58446	0.243262	-0.751441
H	-1.45035	1.00105	-1.92515
N	-1.64289	-0.75746	1.77494
C	-1.85318	-1.77305	2.78019
H	-2.28033	0.0052201	1.74009
H	-2.74747	-1.53596	3.39766
H	-0.970209	-1.84601	3.45568
H	-2.00841	-2.7692	2.30609
C	1478.52	0.14198	-3.38112
C	1478.89	0.000461983	-1.9558
O	1480.04	-0.285998	-1.62695
H	1479.41	-0.0558775	-4.01579
H	1478.16	1.17237	-3.58121
H	1477.72	-0.586515	-3.64233
N	1477.92	0.19608	-1.06493
C	1478.13	0.0938544	0.357322
C	1476.78	-0.145259	1.01002
O	1475.74	0.0286029	0.381664
H	1476.99	0.400335	-1.34646
H	1478.75	-0.768876	0.560594
C	1478.77	1.37803	0.924933
H	1478.13	2.2612	0.714038
H	1478.94	1.30266	2.01981
H	1479.76	1.54263	0.437987
N	1476.77	-0.57327	2.28781
C	1475.54	-0.83879	2.98753
H	1477.63	-0.714863	2.77695
H	1475.74	-1.17968	4.02684
H	1474.95	-1.63125	2.46619
H	1474.91	0.0790932	3.03573
