44
  This energy is 1.06511e-319 and Call times are: 83859
C	3.13379	1.33994	-0.714179
C	1.90016	1.27726	0.101561
O	1.79418	1.91783	1.13835
H	3.86446	2.01907	-0.223497
H	2.90312	1.73178	-1.72713
H	3.58575	0.329604	-0.803088
N	0.927132	0.485181	-0.354724
C	-0.331421	0.320645	0.327771
C	-0.950671	-0.980562	-0.144065
O	-0.517905	-1.55804	-1.13959
H	1.03677	-0.0540987	-1.18544
H	-0.146165	0.230401	1.3906
C	-1.28692	1.49964	0.0377508
H	-1.47426	1.58973	-1.05353
H	-2.25691	1.37622	0.561848
H	-0.821294	2.44696	0.386923
N	-1.97062	-1.48531	0.577686
C	-2.61453	-2.72525	0.211443
H	-2.30178	-1.00674	1.38424
H	-3.43035	-2.97088	0.92653
H	-1.88161	-3.56433	0.214228
H	-3.05334	-2.65351	-0.810065
C	3970.55	0.409914	0.188723
C	3971.75	-0.311626	-0.289244
O	3971.65	-1.37491	-0.886368
H	3969.64	-0.170879	-0.080553
H	3970.49	1.41128	-0.287257
H	3970.58	0.527169	1.29225
N	3972.93	0.25877	-0.0266957
C	3974.18	-0.322233	-0.427712
C	3975.27	0.269241	0.447977
O	3975.05	1.26462	1.13586
H	3972.99	1.11053	0.486078
H	3974.15	-1.38815	-0.240576
C	3974.48	-0.036809	-1.91576
H	3974.51	1.0576	-2.10433
H	3975.45	-0.482896	-2.22791
H	3973.68	-0.4741	-2.54655
N	3976.47	-0.347265	0.458763
C	3977.56	0.137132	1.27098
H	3976.62	-1.15572	-0.0994089
H	3978.46	-0.502663	1.14132
H	3977.28	0.133017	2.34918
H	3977.83	1.18088	0.987837
