44
  This energy is 1.04752e-319 and Call times are: 10863
C	1.262	-3.2123	-0.463246
C	0.909294	-2.06477	0.402762
O	0.970345	-2.14986	1.62158
H	1.55534	-4.07575	0.172574
H	2.11438	-2.94591	-1.12302
H	0.390198	-3.50425	-1.08589
N	0.520386	-0.94959	-0.219725
C	0.145939	0.249652	0.486275
C	-0.706627	1.0908	-0.443691
O	-0.759075	0.841013	-1.64647
H	0.446849	-0.902041	-1.21233
H	-0.464738	-0.0199643	1.3386
C	1.38925	1.04915	0.935829
H	2.01381	1.32352	0.0590404
H	1.10454	1.97312	1.4799
H	2.006	0.421658	1.61554
N	-1.41525	2.10009	0.0996257
C	-2.26393	2.9468	-0.705975
H	-1.365	2.28176	1.0762
H	-2.76027	3.71844	-0.0771157
H	-3.05392	2.34486	-1.21078
H	-1.66915	3.46498	-1.49268
C	519.257	0.836356	2.22706
C	519.802	0.0145154	1.1233
O	519.199	-0.963602	0.704859
H	518.286	0.408168	2.5587
H	519.091	1.87857	1.88206
H	519.961	0.839337	3.08602
N	520.98	0.397978	0.624332
C	521.638	-0.299957	-0.451366
C	523.111	0.0562458	-0.405904
O	523.509	0.999671	0.274885
H	521.476	1.17952	0.993342
H	521.552	-1.36605	-0.283623
C	521.039	0.0875757	-1.82216
H	521.129	1.18199	-1.99067
H	521.543	-0.448135	-2.65266
H	519.96	-0.177345	-1.84223
N	523.961	-0.70936	-1.11762
C	525.383	-0.453159	-1.12539
H	523.621	-1.47273	-1.65658
H	525.911	-1.1892	-1.77032
H	525.801	-0.525939	-0.0952187
H	525.596	0.569399	-1.51294
