44
  This energy is 9.18715e-320 and Call times are: 52065
C	2.62647	2.28636	-0.0174921
C	1.82816	1.21613	-0.656634
O	2.01769	0.895786	-1.82194
H	3.3518	2.69372	-0.754935
H	3.18673	1.87929	0.850398
H	1.96184	3.1076	0.324235
N	0.898113	0.635003	0.104726
C	0.0432234	-0.421252	-0.375187
C	-1.1806	-0.472506	0.518605
O	-1.19827	0.121726	1.5949
H	0.733632	0.924855	1.0438
H	-0.290208	-0.176835	-1.37577
C	0.770271	-1.78443	-0.359149
H	1.11156	-2.03172	0.668707
H	0.114921	-2.59996	-0.728218
H	1.66539	-1.73342	-1.01664
N	-2.24631	-1.17088	0.0798089
C	-3.45978	-1.26578	0.857414
H	-2.215	-1.63893	-0.797221
H	-4.21841	-1.88388	0.32855
H	-3.89305	-0.254753	1.03443
H	-3.25614	-1.73246	1.84833
C	2468.25	2.5821	2.03499
C	2468.87	1.24888	1.84621
O	2469.33	0.625113	2.79231
H	2468.3	2.8616	3.10972
H	2467.19	2.56043	1.72025
H	2468.8	3.3434	1.43892
N	2468.89	0.779153	0.596783
C	2469.46	-0.501947	0.254742
C	2469.79	-0.484473	-1.22451
O	2469.35	0.397894	-1.95789
H	2468.54	1.30954	-0.169674
H	2470.38	-0.634784	0.798796
C	2468.47	-1.65133	0.564139
H	2467.52	-1.51153	0.0048831
H	2468.9	-2.63921	0.302102
H	2468.24	-1.65258	1.65047
N	2470.6	-1.45336	-1.69444
C	2470.98	-1.51051	-3.08645
H	2470.95	-2.15435	-1.08364
H	2471.65	-2.37964	-3.27598
H	2471.52	-0.582436	-3.38448
H	2470.08	-1.61088	-3.73637
