44
  This energy is 1.53753e-319 and Call times are: 42279
C	-3.0139	1.70705	0.358497
C	-1.96251	1.08349	-0.476345
O	-2.1037	0.96264	-1.68546
H	-3.86927	2.00167	-0.28757
H	-2.61539	2.61275	0.862216
H	-3.37273	0.986684	1.12351
N	-0.869365	0.661964	0.163741
C	0.239151	0.0357888	-0.511481
C	1.02243	-0.757862	0.516054
O	0.831668	-0.589624	1.71902
H	-0.778736	0.73974	1.15302
H	-0.144379	-0.662883	-1.24417
C	1.15389	1.08447	-1.18278
H	1.54504	1.79999	-0.428373
H	2.00839	0.605717	-1.70375
H	0.568051	1.65986	-1.93236
N	1.91201	-1.66242	0.0617156
C	2.69473	-2.47247	0.965788
H	2.04682	-1.78889	-0.915558
H	3.36897	-3.15301	0.400533
H	2.03184	-3.09277	1.61158
H	3.31947	-1.83045	1.62813
C	2005.5	-1.55052	2.78774
C	2005.99	-0.348343	2.07463
O	2005.83	0.771254	2.54204
H	2005.01	-1.24116	3.73523
H	2006.35	-2.22378	3.02752
H	2004.77	-2.09506	2.16079
N	2006.6	-0.558423	0.904084
C	2007.12	0.510485	0.0942245
C	2007.25	-0.00104227	-1.3276
O	2007.17	-1.20326	-1.57261
H	2006.69	-1.47297	0.520157
H	2006.42	1.32931	0.0874462
C	2008.5	0.98272	0.613336
H	2009.23	0.140069	0.619591
H	2008.91	1.80583	-0.00788473
H	2008.4	1.35388	1.65601
N	2007.43	0.90853	-2.30543
C	2007.55	0.515694	-3.69023
H	2007.49	1.87742	-2.08769
H	2007.7	1.40636	-4.34058
H	2006.63	-0.0187934	-4.02732
H	2008.42	-0.167058	-3.83178
