44
  This energy is 6.93816e-320 and Call times are: 33291
C	-1.77841	-2.25669	-1.96743
C	-1.56189	-0.900609	-1.41482
O	-2.2258	0.052383	-1.79891
H	-2.58559	-2.21763	-2.73084
H	-2.08157	-2.95519	-1.15934
H	-0.848091	-2.62785	-2.4467
N	-0.607005	-0.782945	-0.48923
C	-0.279874	0.470948	0.141298
C	1.12275	0.356567	0.705918
O	1.6714	-0.738949	0.809159
H	-0.0532427	-1.56138	-0.205817
H	-0.269494	1.25042	-0.609965
C	-1.28016	0.8116	1.26846
H	-1.28874	0.00956157	2.03708
H	-1.0313	1.77656	1.756
H	-2.3039	0.891445	0.842151
N	1.74641	1.49557	1.0661
C	3.0875	1.48569	1.60235
H	1.28829	2.37293	0.968163
H	3.42392	2.51911	1.83923
H	3.80065	1.04442	0.868904
H	3.13308	0.87938	2.53588
C	1582.94	2.73961	1.7535
C	1583.11	1.61591	0.804774
O	1584.15	1.47553	0.168003
H	1583.86	3.3627	1.75213
H	1582.77	2.35156	2.77987
H	1582.08	3.37085	1.45012
N	1582.08	0.780983	0.684587
C	1582.09	-0.358522	-0.197555
C	1580.65	-0.749724	-0.475261
O	1579.73	-0.298861	0.208301
H	1581.23	0.922698	1.18715
H	1582.54	-0.0694719	-1.1389
C	1582.85	-1.54692	0.430237
H	1582.39	-1.8404	1.3961
H	1582.86	-2.42598	-0.246432
H	1583.9	-1.24718	0.62992
N	1580.42	-1.58635	-1.5058
C	1579.08	-2.00462	-1.85247
H	1581.17	-1.93471	-2.05154
H	1579.1	-2.69295	-2.72606
H	1578.45	-1.12449	-2.112
H	1578.6	-2.53428	-0.99794
