44
  This energy is 1.82755e-320 and Call times are: 55383
C	-0.0695999	3.3053	-1.09375
C	0.41709	1.91095	-1.19441
O	1.11149	1.54967	-2.13451
H	0.291563	3.88461	-1.97115
H	0.316246	3.7792	-0.166734
H	-1.17978	3.3235	-1.08334
N	0.0514584	1.08294	-0.213041
C	0.446413	-0.302373	-0.171387
C	-0.527062	-1.0375	0.729261
O	-1.29144	-0.418215	1.46685
H	-0.538591	1.38195	0.532192
H	0.357762	-0.723549	-1.16478
C	1.88754	-0.460602	0.362681
H	1.97507	-0.0268714	1.38167
H	2.19492	-1.52605	0.395926
H	2.59072	0.0833093	-0.305033
N	-0.535995	-2.38389	0.673051
C	-1.43685	-3.16812	1.48522
H	0.085325	-2.86643	0.0644837
H	-1.29057	-4.2547	1.29761
H	-2.49658	-2.91234	1.25546
H	-1.26137	-2.97242	2.56785
C	2627.58	2.7297	0.577508
C	2627.31	1.27438	0.584215
O	2628.2	0.467563	0.833421
H	2628.66	2.90514	0.816177
H	2626.96	3.23875	1.34023
H	2627.36	3.15531	-0.424316
N	2626.06	0.902369	0.299658
C	2625.65	-0.476728	0.267506
C	2624.38	-0.56218	-0.566893
O	2623.76	0.452977	-0.864308
H	2625.36	1.56779	0.0697605
H	2626.41	-1.06339	-0.228996
C	2625.38	-1.01741	1.69028
H	2624.6	-0.412861	2.19697
H	2625.06	-2.07912	1.6692
H	2626.31	-0.948258	2.2917
N	2623.99	-1.78205	-0.984082
C	2622.81	-1.95967	-1.79281
H	2624.51	-2.59067	-0.738912
H	2622.65	-3.03485	-2.0318
H	2622.9	-1.39732	-2.75032
H	2621.9	-1.58574	-1.25671
