44
  This energy is 9.74248e-320 and Call times are: 16617
C	1.95155	-0.19511	-2.87741
C	1.10884	0.562668	-1.92515
O	0.987094	1.77654	-2.01557
H	2.40479	0.50961	-3.60803
H	1.33486	-0.936244	-3.42808
H	2.76435	-0.721687	-2.33425
N	0.503716	-0.149768	-0.971927
C	-0.348141	0.445167	0.0266824
C	-0.427528	-0.510916	1.20092
O	-0.0406476	-1.67299	1.09262
H	0.634081	-1.13436	-0.891215
H	0.109028	1.36122	0.378692
C	-1.76243	0.719612	-0.531517
H	-2.22822	-0.222168	-0.892352
H	-2.42092	1.17785	0.234764
H	-1.69046	1.42023	-1.39181
N	-0.914155	-0.0339699	2.36356
C	-1.0162	-0.867585	3.53865
H	-1.21545	0.911343	2.4331
H	-1.44143	-0.294313	4.39176
H	-0.013163	-1.24909	3.83802
H	-1.67469	-1.74456	3.34248
C	791.272	0.904006	2.99546
C	791.245	0.70599	1.52873
O	790.203	0.805546	0.895522
H	790.244	1.13115	3.35382
H	791.939	1.7529	3.25505
H	791.633	-0.0169902	3.49975
N	792.411	0.410419	0.949339
C	792.546	0.189879	-0.468435
C	793.815	-0.60687	-0.697574
O	794.649	-0.731872	0.197387
H	793.248	0.303421	1.48002
H	791.714	-0.411591	-0.811515
C	792.61	1.52582	-1.2419
H	793.465	2.14062	-0.886957
H	792.714	1.35967	-2.33391
H	791.675	2.1005	-1.06487
N	793.981	-1.18554	-1.90325
C	795.153	-1.97299	-2.20874
H	793.292	-1.07861	-2.61202
H	795.105	-2.36191	-3.24974
H	795.236	-2.84012	-1.51412
H	796.077	-1.35905	-2.10601
