44
  This energy is 1.17736e-320 and Call times are: 13425
C	3.19263	-1.31674	0.446593
C	1.81266	-1.39992	-0.0825303
O	1.47443	-2.3098	-0.826984
H	3.7888	-2.16858	0.0531428
H	3.18086	-1.36829	1.55566
H	3.66894	-0.366304	0.126064
N	0.974232	-0.431165	0.29287
C	-0.399584	-0.375687	-0.138849
C	-0.881312	1.053	0.0224545
O	-0.234037	1.86391	0.682222
H	1.26978	0.320601	0.876336
H	-0.447697	-0.622125	-1.19195
C	-1.28793	-1.33236	0.687427
H	-1.23568	-1.07712	1.76735
H	-2.34638	-1.29227	0.357522
H	-0.923998	-2.37539	0.561752
N	-2.02539	1.40083	-0.598919
C	-2.55503	2.74176	-0.511869
H	-2.53097	0.732074	-1.13407
H	-3.50249	2.82851	-1.08811
H	-1.82704	3.47907	-0.921313
H	-2.76308	3.01415	0.548177
C	639.745	-3.11389	1.14733
C	640.268	-1.74904	1.38193
O	640.383	-1.30205	2.51477
H	639.501	-3.5866	2.12351
H	640.508	-3.73212	0.629402
H	638.823	-3.06994	0.529127
N	640.595	-1.04447	0.296078
C	641.117	0.297098	0.362734
C	640.882	0.955644	-0.982859
O	640.567	0.285393	-1.96437
H	640.468	-1.40902	-0.622672
H	640.559	0.855357	1.1038
C	642.625	0.297776	0.699082
H	643.194	-0.276355	-0.0628092
H	643.03	1.32921	0.751336
H	642.783	-0.188311	1.68638
N	641.01	2.29525	-1.05396
C	640.795	3.01038	-2.2902
H	641.259	2.82068	-0.246907
H	640.949	4.1023	-2.14494
H	639.757	2.84957	-2.66121
H	641.501	2.65784	-3.07651
