44
  This energy is 1.50117e-319 and Call times are: 24597
C	1.47254	2.97992	-1.03819
C	0.587366	2.21116	-0.134492
O	0.08709	2.73072	0.853575
H	1.57521	4.01865	-0.655619
H	1.03922	3.01447	-2.05989
H	2.4782	2.51097	-1.0792
N	0.376926	0.932791	-0.456761
C	-0.460071	0.0573986	0.324234
C	-0.0689083	-1.3716	0.00143586
O	0.635612	-1.62546	-0.973774
H	0.813518	0.513236	-1.24815
H	-0.259604	0.223948	1.37502
C	-1.95618	0.28237	0.0109431
H	-2.15816	0.111324	-1.06797
H	-2.60351	-0.389969	0.610698
H	-2.22983	1.33302	0.250528
N	-0.502168	-2.34094	0.831288
C	-0.169768	-3.72908	0.610418
H	-1.06538	-2.1145	1.61916
H	-0.620303	-4.37157	1.39875
H	0.934471	-3.87611	0.627155
H	-0.548656	-4.07123	-0.37981
C	1173.5	2.05779	2.30759
C	1172.96	0.744968	1.89028
O	1173.15	-0.25941	2.56307
H	1174.06	1.93797	3.26059
H	1172.67	2.78062	2.46555
H	1174.19	2.45095	1.53212
N	1172.27	0.724439	0.747796
C	1171.68	-0.476763	0.211801
C	1171.45	-0.26153	-1.27158
O	1171.52	0.864569	-1.76089
H	1172.15	1.54387	0.193845
H	1172.38	-1.29244	0.321058
C	1170.35	-0.809618	0.912891
H	1169.63	0.0295585	0.799401
H	1169.89	-1.73406	0.502702
H	1170.53	-0.963815	1.99896
N	1171.2	-1.34689	-2.02877
C	1170.98	-1.24051	-3.4524
H	1171.16	-2.2505	-1.61529
H	1170.78	-2.24168	-3.89614
H	1171.87	-0.801703	-3.95565
H	1170.1	-0.585243	-3.66738
