44
  This energy is 1.4696e-319 and Call times are: 363
C	2.84243	1.71599	-1.0498
C	1.38603	1.45612	-1.10042
O	0.637686	2.17354	-1.74988
H	3.07664	2.61457	-1.66101
H	3.40043	0.847654	-1.459
H	3.16229	1.90029	-0.00258025
N	0.945731	0.409175	-0.398713
C	-0.443606	0.029454	-0.349904
C	-0.651972	-0.816899	0.890865
O	0.307879	-1.27619	1.50696
H	1.56144	-0.150253	0.149816
H	-1.04861	0.921135	-0.24526
C	-0.854249	-0.764821	-1.60991
H	-0.231148	-1.67856	-1.71454
H	-1.92349	-1.05865	-1.57567
H	-0.695781	-0.13439	-2.5119
N	-1.91896	-1.0251	1.29999
C	-2.21381	-1.80815	2.47731
H	-2.68186	-0.638971	0.79194
H	-3.31165	-1.86522	2.64685
H	-1.74304	-1.35406	3.37922
H	-1.82144	-2.84511	2.36811
C	23.849	0.840442	1.22102
C	24.9439	0.984556	0.235317
O	24.8025	1.6635	-0.772417
H	22.9645	1.41795	0.874551
H	24.1696	1.2326	2.20906
H	23.5634	-0.227775	1.32263
N	26.0765	0.332238	0.507486
C	27.2301	0.375491	-0.355199
C	28.0911	-0.832918	-0.0427402
O	27.8976	-1.49663	0.97406
H	26.1693	-0.241147	1.31715
H	26.9036	0.289644	-1.38385
C	28.0408	1.67395	-0.145692
H	28.3735	1.75913	0.910776
H	28.9296	1.71059	-0.808514
H	27.3986	2.55168	-0.376653
N	29.0536	-1.16015	-0.927263
C	29.9144	-2.30128	-0.719619
H	29.1898	-0.614713	-1.74774
H	30.6414	-2.40274	-1.55536
H	29.3159	-3.23911	-0.659896
H	30.4855	-2.19504	0.231032
