44
  This energy is 9.87983e-320 and Call times are: 52317
C	-1.94762	-2.51181	-1.42257
C	-1.70661	-1.47915	-0.389741
O	-2.57195	-1.18298	0.422638
H	-2.98006	-2.90871	-1.31121
H	-1.22653	-3.34766	-1.30344
H	-1.83905	-2.07202	-2.43635
N	-0.505975	-0.895501	-0.403573
C	-0.12268	0.126241	0.53768
C	1.03193	0.903954	-0.0633803
O	1.63917	0.472114	-1.04144
H	0.180229	-1.12483	-1.08875
H	-0.949506	0.812918	0.667702
C	0.297392	-0.486112	1.89255
H	1.14537	-1.19055	1.75538
H	0.593005	0.297869	2.61972
H	-0.556574	-1.05409	2.32184
N	1.34857	2.08706	0.498749
C	2.42521	2.90269	-0.0128964
H	0.840626	2.42267	1.28526
H	2.53029	3.83509	0.584464
H	2.234	3.18557	-1.0734
H	3.39124	2.34925	0.0280003
C	2481.74	-3.31803	0.999619
C	2481.03	-2.02175	1.01323
O	2479.94	-1.90543	1.55853
H	2481.13	-4.07978	1.53109
H	2482.72	-3.22039	1.51357
H	2481.91	-3.65412	-0.04597
N	2481.63	-1.00404	0.397276
C	2481.06	0.31772	0.326356
C	2481.71	1.0438	-0.835119
O	2482.73	0.600135	-1.36306
H	2482.51	-1.11866	-0.0684319
H	2480.01	0.233796	0.111048
C	2481.29	1.10065	1.63828
H	2482.38	1.18428	1.85646
H	2480.86	2.11879	1.58716
H	2480.81	0.557878	2.48147
N	2481.13	2.17265	-1.27566
C	2481.67	2.92476	-2.38378
H	2480.3	2.51158	-0.839795
H	2481.04	3.82065	-2.59339
H	2481.7	2.29819	-3.30436
H	2482.7	3.26522	-2.15898
