44
  This energy is 5.92829e-320 and Call times are: 88353
C	0.623215	-3.1846	1.26335
C	1.06106	-1.81468	0.912911
O	2.1724	-1.40733	1.22193
H	1.43828	-3.70064	1.81583
H	0.393172	-3.76012	0.342118
H	-0.279321	-3.14469	1.90894
N	0.178481	-1.06047	0.253677
C	0.458423	0.292487	-0.156164
C	-0.866486	0.9939	-0.383922
O	-1.91224	0.351975	-0.462403
H	-0.734338	-1.39382	0.0332819
H	0.968168	0.805792	0.649287
C	1.30573	0.325078	-1.44773
H	0.780114	-0.202965	-2.27175
H	1.52324	1.36534	-1.76603
H	2.273	-0.192858	-1.26811
N	-0.854615	2.33843	-0.473943
C	-2.06922	3.09281	-0.678463
H	0.000958684	2.84029	-0.400737
H	-1.85181	4.18259	-0.727088
H	-2.78691	2.91545	0.155027
H	-2.56382	2.79106	-1.63004
C	4184.68	-2.03301	-2.81299
C	4185.26	-1.37602	-1.61851
O	4186.4	-1.6234	-1.24894
H	4185.43	-2.7302	-3.24664
H	4184.42	-1.27236	-3.57645
H	4183.78	-2.60919	-2.53259
N	4184.47	-0.513996	-0.975656
C	4184.89	0.2032	0.201913
C	4183.64	0.653627	0.941047
O	4182.54	0.617273	0.396696
H	4183.53	-0.342868	-1.26971
H	4185.43	-0.472759	0.851364
C	4185.76	1.42513	-0.16429
H	4185.2	2.11614	-0.831145
H	4186.08	1.97956	0.740122
H	4186.67	1.08193	-0.706237
N	4183.79	1.07069	2.2142
C	4182.66	1.50684	3.00025
H	4184.69	1.08598	2.6393
H	4182.98	1.81229	4.01951
H	4181.91	0.687287	3.10123
H	4182.15	2.37563	2.51711
