44
  This energy is 1.27424e-319 and Call times are: 84699
C	-0.279686	-2.65194	2.23945
C	-0.06258	-2.11661	0.87655
O	0.266881	-2.8495	-0.0458496
H	-0.0899185	-3.74731	2.23834
H	-1.32687	-2.46899	2.56001
H	0.416056	-2.16737	2.95645
N	-0.240194	-0.802689	0.720278
C	-0.0665136	-0.135526	-0.545248
C	0.169725	1.3363	-0.26746
O	-0.0588303	1.81089	0.843555
H	-0.480224	-0.211704	1.48582
H	0.81976	-0.525222	-1.02974
C	-1.30656	-0.313135	-1.44961
H	-2.21405	0.0870997	-0.949224
H	-1.17613	0.199212	-2.42494
H	-1.46951	-1.39552	-1.64466
N	0.656656	2.09166	-1.27162
C	0.924216	3.50016	-1.09641
H	0.841867	1.68752	-2.16134
H	1.31817	3.94552	-2.03647
H	1.67688	3.65984	-0.290651
H	-0.00557424	4.04462	-0.813154
C	4016.74	0.414294	2.11153
C	4015.4	-0.135673	1.81203
O	4014.86	-0.932453	2.56705
H	4017.11	-0.0172637	3.06733
H	4016.68	1.51871	2.21279
H	4017.45	0.15165	1.3004
N	4014.82	0.281182	0.680375
C	4013.52	-0.163947	0.253395
C	4013.42	0.0684837	-1.24133
O	4014.23	0.779192	-1.82575
H	4015.29	0.908131	0.0591282
H	4013.44	-1.22937	0.427181
C	4012.4	0.598203	0.989783
H	4012.48	1.69093	0.809876
H	4011.39	0.257818	0.663503
H	4012.49	0.420765	2.08377
N	4012.42	-0.547319	-1.90095
C	4012.24	-0.394376	-3.32689
H	4011.77	-1.12414	-1.4113
H	4011.37	-0.97681	-3.68186
H	4013.15	-0.75421	-3.87213
H	4012.08	0.676196	-3.59106
