44
  This energy is 1.08773e-319 and Call times are: 103221
C	0.568877	-2.33115	2.52354
C	1.00501	-1.5736	1.32892
O	2.15982	-1.63219	0.929577
H	1.43272	-2.89699	2.9352
H	-0.233084	-3.04862	2.24983
H	0.191609	-1.63479	3.30181
N	0.0748978	-0.828737	0.726903
C	0.346579	-0.0362705	-0.445707
C	-0.720082	1.03732	-0.539883
O	-1.74216	0.969316	0.140231
H	-0.855207	-0.766486	1.07899
H	1.30149	0.458709	-0.322379
C	0.341713	-0.903619	-1.7243
H	-0.639146	-1.41046	-1.84736
H	0.550724	-0.296595	-2.62907
H	1.12655	-1.68685	-1.64233
N	-0.494792	2.07078	-1.37487
C	-1.44841	3.14565	-1.52132
H	0.341719	2.11133	-1.91138
H	-1.08306	3.89834	-2.25428
H	-1.61544	3.65823	-0.546329
H	-2.42882	2.75535	-1.8786
C	4891.04	-2.75963	-0.586481
C	4889.74	-2.15796	-0.231394
O	4888.73	-2.84747	-0.115282
H	4890.92	-3.85661	-0.716785
H	4891.78	-2.57539	0.221661
H	4891.42	-2.32525	-1.53668
N	4889.72	-0.834784	-0.0542861
C	4888.53	-0.105779	0.294329
C	4888.74	1.34525	-0.0920355
O	4889.86	1.76528	-0.369091
H	4890.54	-0.280356	-0.180295
H	4887.7	-0.48512	-0.291278
C	4888.22	-0.214424	1.80519
H	4889.08	0.174982	2.40297
H	4887.31	0.345647	2.07704
H	4888.07	-1.28218	2.07567
N	4887.65	2.14325	-0.140537
C	4887.76	3.53584	-0.509852
H	4886.75	1.7828	0.0802658
H	4886.76	4.02259	-0.489255
H	4888.18	3.64021	-1.53667
H	4888.43	4.08095	0.193858
