44
  This energy is 1.37276e-319 and Call times are: 66219
C	-2.92559	-0.27355	-1.86874
C	-1.53069	-0.66825	-1.56931
O	-1.00413	-1.6131	-2.14071
H	-3.34354	-0.957537	-2.63903
H	-2.9539	0.765979	-2.25785
H	-3.54803	-0.341756	-0.951758
N	-0.894467	0.0565855	-0.646165
C	0.465531	-0.20501	-0.247667
C	0.679066	0.418643	1.11787
O	-0.130079	1.22394	1.57462
H	-1.34395	0.805651	-0.166791
H	0.603008	-1.27406	-0.146179
C	1.47184	0.381465	-1.26281
H	1.32755	1.47822	-1.36496
H	2.52	0.181711	-0.959104
H	1.30426	-0.0825344	-2.25919
N	1.7698	0.041549	1.81365
C	2.04927	0.573211	3.1272
H	2.40895	-0.616774	1.42982
H	2.99091	0.142593	3.53355
H	1.22104	0.333062	3.83261
H	2.15874	1.6812	3.08766
C	3138.39	-2.46039	0.53339
C	3138.85	-1.05346	0.587047
O	3138.08	-0.150378	0.891303
H	3137.31	-2.50619	0.795531
H	3138.97	-3.07647	1.25845
H	3138.53	-2.86938	-0.489509
N	3140.13	-0.833989	0.281388
C	3140.72	0.480185	0.289227
C	3141.97	0.43651	-0.576789
O	3142.45	-0.637808	-0.929708
H	3140.74	-1.57461	0.00681753
H	3140.03	1.17983	-0.163134
C	3141.09	0.923635	1.72321
H	3141.8	0.20331	2.18452
H	3141.55	1.93519	1.73291
H	3140.17	0.950456	2.34776
N	3142.5	1.61183	-0.958837
C	3143.68	1.66868	-1.7935
H	3142.1	2.47051	-0.668746
H	3143.97	2.72384	-1.99627
H	3143.5	1.16224	-2.7685
H	3144.54	1.16025	-1.29755
