44
  This energy is 4.62841e-320 and Call times are: 62523
C	0.7031	0.274272	-3.39949
C	0.0197176	0.736054	-2.17029
O	-0.614133	1.78222	-2.15396
H	0.53565	1.01361	-4.21263
H	0.295503	-0.708299	-3.71768
H	1.79457	0.180216	-3.21842
N	0.141396	-0.0456279	-1.09486
C	-0.466268	0.269532	0.173302
C	0.275453	-0.49948	1.24927
O	1.0405	-1.41536	0.953142
H	0.684685	-0.880761	-1.11291
H	-0.334873	1.32529	0.373735
C	-1.96458	-0.107225	0.188197
H	-2.09576	-1.19084	-0.0184306
H	-2.43563	0.134254	1.16318
H	-2.49646	0.461827	-0.605171
N	0.081132	-0.127662	2.52989
C	0.753716	-0.794129	3.62059
H	-0.536495	0.620625	2.74861
H	0.461958	-0.345197	4.59558
H	1.85915	-0.707931	3.51186
H	0.492172	-1.87689	3.64078
C	2967.61	-0.199972	-2.04405
C	2966.94	0.205646	-0.787877
O	2967.58	0.662214	0.150493
H	2968.71	-0.0229742	-1.95086
H	2967.22	0.397125	-2.89532
H	2967.44	-1.27905	-2.23959
N	2965.62	0.0390348	-0.741212
C	2964.83	0.38706	0.411754
C	2963.53	-0.386742	0.334135
O	2963.19	-0.947764	-0.706898
H	2965.11	-0.361059	-1.50146
H	2965.35	0.06667	1.30544
C	2964.54	1.90458	0.460352
H	2964.01	2.22997	-0.458266
H	2963.93	2.17605	1.34698
H	2965.5	2.46017	0.515859
N	2962.77	-0.452722	1.44817
C	2961.52	-1.17697	1.47216
H	2963.06	0.00199904	2.28276
H	2961.05	-1.11213	2.47686
H	2961.68	-2.25215	1.23093
H	2960.81	-0.75971	0.722465
