44
  This energy is 1.46654e-319 and Call times are: 24471
C	3.36198	-0.310871	-0.852386
C	2.2838	0.188824	0.0302407
O	2.54003	0.744223	1.08966
H	4.34777	-0.0981942	-0.384564
H	3.31523	0.197	-1.83864
H	3.26157	-1.40728	-0.996423
N	1.03273	-0.00683468	-0.392724
C	-0.121534	0.423111	0.355378
C	-1.31216	-0.387692	-0.11817
O	-1.25098	-1.04858	-1.15321
H	0.836338	-0.486551	-1.24375
H	0.0341456	0.197911	1.40281
C	-0.392069	1.93101	0.154929
H	-0.550659	2.1586	-0.920788
H	-1.28009	2.26544	0.729693
H	0.487859	2.51382	0.504491
N	-2.42234	-0.372512	0.64555
C	-3.6009	-1.12349	0.280576
H	-2.44971	0.162847	1.48333
H	-4.40703	-0.980659	1.03357
H	-3.36945	-2.21144	0.217014
H	-3.98543	-0.793773	-0.711695
C	1165.05	-1.91458	-2.78267
C	1164.83	-1.47351	-1.38806
O	1163.83	-1.8146	-0.771947
H	1164.2	-2.54924	-3.11071
H	1165.99	-2.50772	-2.84842
H	1165.13	-1.03434	-3.45563
N	1165.76	-0.687021	-0.854448
C	1165.68	-0.17783	0.491338
C	1166.58	1.04123	0.58239
O	1167.4	1.28478	-0.299878
H	1166.56	-0.392381	-1.37645
H	1164.67	0.145376	0.685444
C	1166.12	-1.24066	1.52209
H	1167.17	-1.57047	1.3196
H	1166.06	-0.851945	2.5594
H	1165.46	-2.12891	1.44446
N	1166.43	1.85147	1.64832
C	1167.23	3.0416	1.81374
H	1165.75	1.64108	2.34798
H	1166.96	3.57242	2.75226
H	1167.08	3.73985	0.959072
H	1168.31	2.78311	1.85953
