44
  This energy is 3.71241e-320 and Call times are: 113385
C	2.46963	2.2383	-1.0085
C	1.52959	1.70665	0.00385967
O	1.5503	2.10858	1.15907
H	3.13056	2.99584	-0.533989
H	1.90803	2.71966	-1.83658
H	3.0976	1.41817	-1.41591
N	0.674443	0.770722	-0.414628
C	-0.300183	0.158492	0.452612
C	-0.71283	-1.16163	-0.168864
O	-0.42955	-1.42247	-1.33657
H	0.686923	0.430698	-1.3512
H	0.164124	-0.0578302	1.40639
C	-1.53589	1.06683	0.639855
H	-2.00935	1.28729	-0.34063
H	-2.28829	0.598522	1.30721
H	-1.22011	2.03096	1.0947
N	-1.3771	-2.03845	0.60956
C	-1.7998	-3.32514	0.10764
H	-1.59067	-1.81171	1.55413
H	-2.33137	-3.90011	0.897637
H	-0.922259	-3.92266	-0.230217
H	-2.48814	-3.20193	-0.759648
C	5367.68	-2.71457	1.34059
C	5368.1	-1.29705	1.3754
O	5367.65	-0.521032	2.20544
H	5366.93	-2.89404	2.14459
H	5368.55	-3.37999	1.50603
H	5367.22	-2.95116	0.359968
N	5369	-0.922302	0.454397
C	5369.5	0.422586	0.361292
C	5370.05	0.619283	-1.04092
O	5370.24	-0.343029	-1.78269
H	5369.34	-1.55685	-0.234731
H	5368.69	1.11879	0.498285
C	5370.62	0.675692	1.40211
H	5371.46	-0.0406858	1.2591
H	5371.01	1.71036	1.33328
H	5370.21	0.527268	2.42493
N	5370.29	1.88135	-1.44543
C	5370.8	2.16647	-2.76775
H	5370.13	2.64722	-0.832898
H	5370.93	3.26129	-2.90886
H	5370.09	1.79824	-3.54672
H	5371.78	1.66667	-2.92864
