44
  This energy is 1.07741e-319 and Call times are: 52653
C	2.82285	-0.334499	2.01141
C	1.83175	-0.881969	1.05788
O	1.96897	-1.99684	0.573392
H	3.6341	-1.07877	2.16569
H	2.33826	-0.123548	2.98788
H	3.26519	0.601038	1.60886
N	0.797278	-0.0926099	0.759324
C	-0.248266	-0.485308	-0.15142
C	-0.930532	0.774309	-0.648526
O	-0.742705	1.8533	-0.0896608
H	0.711968	0.82506	1.13819
H	0.196737	-0.977785	-1.0067
C	-1.27658	-1.40988	0.537684
H	-1.73064	-0.901756	1.41504
H	-2.08296	-1.71427	-0.160796
H	-0.764135	-2.32829	0.89833
N	-1.7263	0.668604	-1.73092
C	-2.40791	1.81629	-2.28265
H	-1.85991	-0.212081	-2.17339
H	-3.01446	1.52514	-3.16841
H	-1.67526	2.59344	-2.59969
H	-3.08776	2.27089	-1.52612
C	2500.14	-0.261928	-2.13208
C	2499.23	0.528127	-1.26977
O	2499.47	1.70196	-1.01524
H	2500.99	0.37814	-2.45482
H	2499.6	-0.619492	-3.03232
H	2500.54	-1.13313	-1.57112
N	2498.16	-0.112297	-0.789314
C	2497.19	0.522049	0.0628544
C	2496.45	-0.566473	0.817177
O	2496.54	-1.74304	0.471826
H	2498	-1.07671	-0.980211
H	2497.71	1.13496	0.791091
C	2496.19	1.37049	-0.757191
H	2495.67	0.738718	-1.50373
H	2495.44	1.86048	-0.104106
H	2496.75	2.16341	-1.30592
N	2495.72	-0.198499	1.88481
C	2494.99	-1.16707	2.67099
H	2495.66	0.757784	2.1526
H	2494.45	-0.668866	3.50353
H	2495.68	-1.92068	3.10764
H	2494.25	-1.70696	2.04016
