44
  This energy is 6.19756e-320 and Call times are: 27201
C	-1.97656	2.00897	-2.04533
C	-0.676501	1.65741	-1.43096
O	0.35317	2.23177	-1.75712
H	-1.82298	2.81771	-2.79246
H	-2.68277	2.36786	-1.26733
H	-2.40977	1.12409	-2.55746
N	-0.696389	0.684753	-0.516681
C	0.487688	0.231927	0.168694
C	0.212726	-1.15995	0.703765
O	-0.933656	-1.60266	0.744402
H	-1.53702	0.204543	-0.280744
H	1.2993	0.156055	-0.543765
C	0.864748	1.18169	1.32753
H	0.0296497	1.25771	2.05619
H	1.77614	0.836055	1.85732
H	1.06253	2.1981	0.922624
N	1.268	-1.89376	1.10864
C	1.10419	-3.23403	1.62149
H	2.18864	-1.52039	1.06117
H	2.08791	-3.67038	1.90285
H	0.634603	-3.89305	0.855708
H	0.450307	-3.23256	2.52349
C	1293.14	2.93107	-0.259753
C	1293.93	1.9563	0.525505
O	1294.23	2.18061	1.68853
H	1292.92	3.81802	0.372534
H	1292.18	2.47317	-0.585775
H	1293.71	3.26004	-1.15121
N	1294.29	0.8364	-0.107003
C	1295.06	-0.20581	0.524051
C	1295.71	-1.03109	-0.568859
O	1295.34	-0.925334	-1.73823
H	1294.06	0.678334	-1.06348
H	1295.85	0.246064	1.10992
C	1294.16	-1.10526	1.40973
H	1293.35	-1.56667	0.805639
H	1294.75	-1.90873	1.89728
H	1293.69	-0.488711	2.20554
N	1296.71	-1.86118	-0.213515
C	1297.39	-2.67726	-1.18749
H	1296.99	-1.92729	0.73689
H	1298.18	-3.29196	-0.699751
H	1297.88	-2.04016	-1.96372
H	1296.68	-3.36336	-1.69863
