44
  This energy is 4.30084e-320 and Call times are: 2463
C	-0.246278	-0.130061	-3.4711
C	0.531756	-0.238414	-2.21646
O	1.6887	-0.635839	-2.22194
H	0.384702	-0.461325	-4.32433
H	-0.555004	0.923009	-3.64008
H	-1.14825	-0.775582	-3.41923
N	-0.100322	0.113633	-1.09445
C	0.524201	0.0629254	0.203326
C	-0.57431	0.0137457	1.2474
O	-1.73842	0.2723	0.947691
H	-1.05226	0.408109	-1.09968
H	1.09536	-0.853281	0.283392
C	1.4283	1.29307	0.440939
H	0.83928	2.23126	0.357405
H	1.91087	1.25715	1.43924
H	2.22808	1.31831	-0.33098
N	-0.230152	-0.342935	2.50053
C	-1.21034	-0.428664	3.55791
H	0.716047	-0.555298	2.72154
H	-0.731658	-0.735467	4.51394
H	-1.9973	-1.17547	3.30452
H	-1.70675	0.556342	3.71453
C	127.831	-1.60258	1.62329
C	126.578	-1.6294	0.836175
O	126.137	-2.67723	0.384367
H	128.24	-2.63351	1.69726
H	127.632	-1.22071	2.6467
H	128.582	-0.952666	1.12605
N	125.971	-0.455398	0.647704
C	124.744	-0.320417	-0.0961342
C	124.629	1.12238	-0.548349
O	125.352	1.99169	-0.0653862
H	126.355	0.395259	0.996131
H	124.8	-0.939499	-0.982518
C	123.519	-0.706346	0.763568
H	123.465	-0.0697397	1.67238
H	122.573	-0.603701	0.193838
H	123.616	-1.76495	1.08947
N	123.727	1.40707	-1.50783
C	123.556	2.75065	-2.00955
H	123.156	0.688444	-1.89115
H	122.766	2.78055	-2.79226
H	124.505	3.12758	-2.45481
H	123.261	3.44264	-1.1876
