44
  This energy is 1.65018e-321 and Call times are: 6957
C	2.97091	-1.46482	1.07431
C	1.51155	-1.5093	0.830371
O	0.879934	-2.54887	0.960192
H	3.32609	-2.47793	1.36294
H	3.19974	-0.755764	1.89754
H	3.50345	-1.14605	0.153586
N	0.937095	-0.362649	0.459501
C	-0.473285	-0.247375	0.186799
C	-0.681756	0.980517	-0.678105
O	0.213202	1.81252	-0.814663
H	1.46738	0.470838	0.328972
H	-0.792937	-1.10995	-0.384051
C	-1.29025	-0.122632	1.49222
H	-0.959273	0.762889	2.07567
H	-2.37668	-0.0338405	1.2859
H	-1.12805	-1.02761	2.11739
N	-1.86859	1.1108	-1.30297
C	-2.15325	2.24085	-2.15628
H	-2.57749	0.423132	-1.18548
H	-3.18077	2.16776	-2.57592
H	-1.43103	2.28523	-3.00344
H	-2.07462	3.19423	-1.58526
C	335.51	-3.46455	-0.197524
C	334.916	-2.10944	-0.148023
O	333.717	-1.93754	-0.318892
H	334.711	-4.20807	-0.408813
H	335.982	-3.71129	0.776754
H	336.274	-3.51894	-1.002
N	335.759	-1.10086	0.0852539
C	335.332	0.273226	0.162533
C	336.542	1.15234	-0.0870902
O	337.678	0.682213	-0.0559611
H	336.739	-1.25082	0.193845
H	334.618	0.464498	-0.628197
C	334.718	0.594408	1.54335
H	335.453	0.396429	2.35225
H	334.387	1.65161	1.60623
H	333.833	-0.0569199	1.71463
N	336.323	2.45298	-0.363686
C	337.413	3.36325	-0.62667
H	335.397	2.81281	-0.391305
H	337.03	4.3873	-0.830765
H	338.002	3.02657	-1.51082
H	338.102	3.41437	0.247362
