44
  This energy is 1.13719e-319 and Call times are: 110025
C	-0.984367	-1.26044	3.09329
C	-0.729164	-1.42053	1.644
O	-0.780437	-2.52012	1.11036
H	-1.20182	-2.25495	3.53998
H	-1.85761	-0.594432	3.2567
H	-0.0920268	-0.828992	3.59381
N	-0.437936	-0.307528	0.966665
C	-0.165777	-0.302392	-0.448514
C	0.610206	0.960257	-0.769146
O	0.681492	1.87826	0.0457321
H	-0.370593	0.578168	1.41827
H	0.467272	-1.14732	-0.688145
C	-1.47188	-0.34699	-1.27266
H	-2.11922	0.52086	-1.02385
H	-1.26597	-0.343308	-2.36279
H	-2.0316	-1.27592	-1.02784
N	1.23121	1.02605	-1.96331
C	2.00309	2.18372	-2.35084
H	1.1675	0.269785	-2.60615
H	2.43301	2.04733	-3.36761
H	2.84057	2.3547	-1.63626
H	1.3648	3.09679	-2.35954
C	5208.85	1.29184	1.06591
C	5210.32	1.19771	1.15188
O	5210.96	1.94375	1.88005
H	5208.49	2.10749	1.73241
H	5208.38	0.336106	1.3888
H	5208.54	1.51883	0.0238366
N	5210.9	0.265779	0.391987
C	5212.33	0.05296	0.367528
C	5212.67	-0.665139	-0.923512
O	5211.79	-1.18241	-1.60735
H	5210.37	-0.316402	-0.218981
H	5212.83	1.0136	0.351628
C	5212.79	-0.784204	1.58013
H	5212.28	-1.76876	1.59371
H	5213.89	-0.949832	1.5645
H	5212.53	-0.247958	2.51952
N	5213.96	-0.694203	-1.29902
C	5214.38	-1.3446	-2.51892
H	5214.66	-0.263617	-0.735625
H	5215.48	-1.26197	-2.65087
H	5213.89	-0.879007	-3.40196
H	5214.11	-2.42507	-2.50119
