44
  This energy is 1.42553e-319 and Call times are: 123717
C	-1.82759	2.62961	1.36791
C	-0.612005	2.08803	0.719657
O	0.285466	2.82767	0.340238
H	-1.75335	3.73759	1.42014
H	-1.92344	2.22693	2.39819
H	-2.72899	2.35714	0.779534
N	-0.559533	0.762249	0.571579
C	0.557498	0.0876644	-0.0399818
C	0.0802097	-1.27316	-0.508591
O	-0.995323	-1.72865	-0.124416
H	-1.31003	0.172876	0.858504
H	0.869969	0.645451	-0.913657
C	1.72972	-0.0736096	0.9535
H	1.40548	-0.645701	1.84887
H	2.59156	-0.59252	0.485812
H	2.06936	0.930115	1.29014
N	0.864656	-1.94737	-1.37235
C	0.486445	-3.24484	-1.88198
H	1.72801	-1.55871	-1.67697
H	1.26228	-3.63596	-2.5765
H	-0.4794	-3.18385	-2.43394
H	0.362357	-3.97361	-1.0485
C	5855.75	0.432555	-0.132034
C	5857.01	-0.144713	-0.651371
O	5857	-0.974244	-1.55043
H	5854.89	-0.0131959	-0.67718
H	5855.74	1.53227	-0.28488
H	5855.64	0.209288	0.950504
N	5858.14	0.285436	-0.0818266
C	5859.44	-0.182819	-0.478821
C	5860.4	0.0844999	0.664755
O	5860.08	0.830943	1.58916
H	5858.13	0.939831	0.669589
H	5859.4	-1.25408	-0.629565
C	5859.93	0.530663	-1.75939
H	5859.97	1.62952	-1.60142
H	5860.93	0.172371	-2.06796
H	5859.22	0.328006	-2.58921
N	5861.59	-0.540508	0.638567
C	5862.57	-0.356119	1.69021
H	5861.83	-1.14629	-0.114583
H	5863.48	-0.952274	1.48684
H	5862.15	-0.678213	2.67189
H	5862.86	0.716245	1.77352
