44
  This energy is 1.27385e-319 and Call times are: 97719
C	2.62785	-1.78482	-1.42652
C	2.10767	-0.72364	-0.535165
O	2.85306	-0.0998003	0.207606
H	3.72559	-1.88192	-1.28022
H	2.42831	-1.52514	-2.48745
H	2.14605	-2.75615	-1.18712
N	0.792977	-0.49724	-0.587149
C	0.139525	0.502553	0.219228
C	-1.3315	0.144531	0.303717
O	-1.819	-0.69326	-0.452779
H	0.192051	-1.03208	-1.17517
H	0.545148	0.465801	1.22232
C	0.308944	1.91336	-0.38742
H	-0.107639	1.94731	-1.4167
H	-0.192882	2.68565	0.23107
H	1.3908	2.16321	-0.445004
N	-2.07137	0.759683	1.24721
C	-3.47776	0.473773	1.41002
H	-1.65688	1.42946	1.85452
H	-3.90946	1.08102	2.23594
H	-3.63476	-0.603275	1.64785
H	-4.03689	0.705896	0.474785
C	4629.55	-0.999675	3.27097
C	4628.71	-0.999933	2.05354
O	4627.74	-1.73231	1.95918
H	4629.15	-1.73818	3.99711
H	4629.55	0.00647939	3.74047
H	4630.6	-1.28098	3.01499
N	4629.08	-0.167846	1.07697
C	4628.36	-0.0547392	-0.166962
C	4629.3	0.541814	-1.19594
O	4630.36	1.06621	-0.851657
H	4629.89	0.402599	1.15423
H	4628.09	-1.04564	-0.506671
C	4627.11	0.835619	-0.0134471
H	4627.39	1.85119	0.335822
H	4626.55	0.924727	-0.969379
H	4626.43	0.388458	0.743806
N	4628.95	0.455249	-2.49275
C	4629.78	0.984452	-3.5434
H	4628.09	0.020759	-2.75167
H	4629.32	0.817712	-4.53959
H	4630.78	0.490028	-3.53624
H	4629.94	2.07922	-3.40798
