44
  This energy is 1.43818e-319 and Call times are: 237
C	-0.896802	-2.15577	2.58351
C	-0.322353	-1.89767	1.24389
O	0.22573	-2.7878	0.608464
H	-0.730226	-3.2207	2.85561
H	-1.98844	-1.95302	2.5772
H	-0.405602	-1.51005	3.34162
N	-0.43265	-0.650031	0.781714
C	0.0764347	-0.244985	-0.504209
C	0.254337	1.2607	-0.48165
O	-0.249707	1.93992	0.41078
H	-0.855558	0.0731261	1.32128
H	1.05252	-0.68936	-0.652083
C	-0.886268	-0.649199	-1.64304
H	-1.88683	-0.192137	-1.48782
H	-0.497259	-0.338959	-2.6346
H	-1.00911	-1.7542	-1.64812
N	0.998664	1.81689	-1.45768
C	1.23267	3.24117	-1.51088
H	1.40404	1.24948	-2.16687
H	1.86573	3.50322	-2.38713
H	1.75057	3.58898	-0.587817
H	0.269636	3.79482	-1.59588
C	23.475	-2.42254	-0.363131
C	22.9194	-1.07812	-0.637103
O	23.5745	-0.231618	-1.22936
H	24.5097	-2.48133	-0.765473
H	22.8537	-3.20064	-0.854372
H	23.5037	-2.60924	0.731063
N	21.6795	-0.848305	-0.198804
C	21.0036	0.41012	-0.389712
C	19.894	0.503874	0.63945
O	19.5382	-0.488431	1.27234
H	21.1669	-1.53635	0.307982
H	21.7	1.21631	-0.196944
C	20.4175	0.523304	-1.81475
H	19.704	-0.305659	-2.00937
H	19.8965	1.49116	-1.96521
H	21.2401	0.45199	-2.55927
N	19.3338	1.71192	0.846416
C	18.2788	1.8997	1.81485
H	19.6405	2.50425	0.329345
H	17.9493	2.96189	1.83647
H	18.6279	1.62019	2.83527
H	17.3983	1.26443	1.56508
