44
  This energy is 6.38036e-320 and Call times are: 114435
C	1.64559	-0.445111	3.03645
C	0.98	-0.977911	1.82636
O	0.980527	-2.17613	1.57988
H	2.10197	-1.28476	3.60441
H	0.905212	0.0675565	3.68594
H	2.44427	0.271174	2.75012
N	0.392982	-0.0820277	1.02939
C	-0.294741	-0.446744	-0.183397
C	-0.366844	0.783958	-1.06624
O	-0.117713	1.89899	-0.611848
H	0.424534	0.894339	1.22598
H	0.288014	-1.19372	-0.707324
C	-1.71717	-0.972159	0.112816
H	-2.31203	-0.203594	0.650936
H	-2.24948	-1.25404	-0.818829
H	-1.65066	-1.87289	0.761198
N	-0.690422	0.605524	-2.36218
C	-0.77182	1.71725	-3.28067
H	-0.881512	-0.305531	-2.71246
H	-1.05293	1.36687	-4.29824
H	0.20816	2.24278	-3.34924
H	-1.53533	2.45354	-2.93992
C	5420.7	-1.69466	2.75161
C	5420.75	-0.602447	1.7537
O	5421.57	0.295209	1.83893
H	5421.49	-1.53024	3.51563
H	5420.87	-2.67302	2.25703
H	5419.71	-1.70833	3.25545
N	5419.84	-0.653962	0.772791
C	5419.77	0.335915	-0.271711
C	5418.37	0.274286	-0.869826
O	5417.63	-0.676048	-0.634385
H	5419.16	-1.3746	0.73069
H	5419.89	1.31851	0.164598
C	5420.83	0.0824984	-1.3665
H	5420.69	-0.926647	-1.81149
H	5420.77	0.842977	-2.17226
H	5421.84	0.129108	-0.915405
N	5417.98	1.30414	-1.64477
C	5416.67	1.33806	-2.24729
H	5418.59	2.06735	-1.8176
H	5416.53	2.26445	-2.84846
H	5415.88	1.3115	-1.46464
H	5416.52	0.460677	-2.91783
