44
  This energy is 1.5232e-319 and Call times are: 124095
C	2.25436	0.840091	-2.51759
C	0.972966	0.257983	-2.05891
O	0.11888	-0.100198	-2.85812
H	2.26241	0.880981	-3.6285
H	3.10396	0.212721	-2.17494
H	2.37144	1.8699	-2.11918
N	0.807353	0.155297	-0.73815
C	-0.384782	-0.390433	-0.139971
C	-0.460409	0.110855	1.28909
O	0.514651	0.635653	1.82358
H	1.49857	0.477505	-0.0967973
H	-1.24958	-0.00961452	-0.668342
C	-0.368097	-1.93523	-0.160911
H	0.520727	-2.3225	0.38143
H	-1.28466	-2.35874	0.298791
H	-0.311356	-2.28979	-1.21315
N	-1.63503	-0.0207464	1.93636
C	-1.80452	0.438289	3.29531
H	-2.41452	-0.441691	1.48421
H	-2.83936	0.239393	3.65138
H	-1.61378	1.53363	3.36668
H	-1.09305	-0.0812123	3.97729
C	5878.59	0.14537	3.19132
C	5877.48	-0.183319	2.26762
O	5876.48	-0.780669	2.659
H	5878.34	-0.236766	4.20677
H	5878.73	1.24556	3.24526
H	5879.53	-0.329802	2.84365
N	5877.63	0.201693	0.998306
C	5876.64	-0.0457093	-0.0173255
C	5877.32	0.0343174	-1.36748
O	5878.45	0.516765	-1.47314
H	5878.46	0.661911	0.685528
H	5876.26	-1.05279	0.099615
C	5875.49	0.983837	0.0566551
H	5875.88	2.01593	-0.0630151
H	5874.72	0.796166	-0.723897
H	5874.99	0.915973	1.05077
N	5876.66	-0.460159	-2.43362
C	5877.24	-0.438117	-3.75683
H	5875.75	-0.852973	-2.32642
H	5876.54	-0.88819	-4.49815
H	5878.2	-1.01322	-3.77811
H	5877.46	0.607476	-4.07222
