44
  This energy is 7.57897e-321 and Call times are: 54963
C	-0.541649	-0.70487	3.36688
C	0.293206	-0.172785	2.26638
O	1.3373	0.422172	2.49528
H	-0.0633835	-0.462743	4.34079
H	-0.635655	-1.80755	3.27702
H	-1.5517	-0.244529	3.3382
N	-0.160535	-0.374341	1.02708
C	0.540163	0.0836743	-0.145978
C	-0.458282	0.160989	-1.28456
O	-1.56253	-0.371391	-1.18951
H	-1.02719	-0.83497	0.854867
H	0.911561	1.08448	0.0343635
C	1.69746	-0.869923	-0.518058
H	1.31298	-1.89586	-0.701732
H	2.23922	-0.520145	-1.42079
H	2.42124	-0.918761	0.324495
N	-0.0983767	0.849084	-2.38592
C	-0.98809	0.986457	-3.5154
H	0.796918	1.27882	-2.44078
H	-0.51012	1.58497	-4.32198
H	-1.93136	1.49626	-3.21276
H	-1.25352	-0.0127553	-3.93049
C	2607.68	-2.69415	-0.342577
C	2607.4	-1.24076	-0.32514
O	2608.31	-0.421056	-0.379197
H	2608.78	-2.8557	-0.401845
H	2607.2	-3.16591	-1.22527
H	2607.3	-3.1692	0.584841
N	2606.12	-0.885454	-0.241892
C	2605.68	0.489636	-0.215063
C	2604.3	0.531494	0.393075
O	2603.64	-0.498226	0.528853
H	2605.39	-1.56266	-0.169075
H	2606.34	1.05233	0.43288
C	2605.66	1.09961	-1.6344
H	2604.98	0.51952	-2.29663
H	2605.33	2.15841	-1.61738
H	2606.68	1.06193	-2.06932
N	2603.83	1.72854	0.795294
C	2602.52	1.86385	1.39634
H	2604.38	2.54922	0.683372
H	2602.31	2.92563	1.65692
H	2602.45	1.25497	2.32676
H	2601.73	1.51535	0.69574
