44
  This energy is 5.61753e-320 and Call times are: 88227
C	-0.985567	-2.68773	-1.98265
C	-0.11782	-2.08388	-0.946515
O	0.67401	-2.76461	-0.309256
H	-0.783686	-3.77942	-2.04021
H	-0.7746	-2.23062	-2.97228
H	-2.05442	-2.533	-1.72466
N	-0.255381	-0.770628	-0.749477
C	0.518386	-0.0408638	0.222921
C	-0.225975	1.24056	0.544036
O	-1.15366	1.62351	-0.166304
H	-0.92461	-0.232271	-1.25469
H	0.578642	-0.62329	1.13354
C	1.93081	0.284954	-0.311876
H	1.86526	0.881943	-1.24645
H	2.52936	0.846711	0.434415
H	2.46523	-0.661862	-0.544435
N	0.152213	1.92488	1.64162
C	-0.506342	3.1494	2.03281
H	0.900534	1.59483	2.20758
H	-0.0505918	3.56224	2.95969
H	-1.58891	2.96928	2.22475
H	-0.421113	3.91576	1.2287
C	4181.53	-1.50843	0.165833
C	4180.22	-1.15916	0.761076
O	4179.88	-1.61475	1.84275
H	4182.07	-2.20641	0.844067
H	4182.15	-0.593885	0.0308221
H	4181.39	-2.00368	-0.817179
N	4179.45	-0.333031	0.0516852
C	4178.15	0.0983736	0.498888
C	4177.37	0.564487	-0.71543
O	4177.94	0.770288	-1.78615
H	4179.73	0.00826575	-0.841686
H	4177.63	-0.748433	0.921834
C	4178.26	1.24326	1.53039
H	4178.8	2.11008	1.0934
H	4177.26	1.57775	1.87695
H	4178.84	0.889498	2.41445
N	4176.04	0.721385	-0.581083
C	4175.22	1.15026	-1.68591
H	4175.6	0.542921	0.291668
H	4174.15	1.22128	-1.37593
H	4175.29	0.429734	-2.53265
H	4175.54	2.1499	-2.05481
