44
  This energy is 3.56666e-320 and Call times are: 26235
C	2.38124	0.676326	2.44916
C	1.93889	-0.0228103	1.22167
O	2.71581	-0.704212	0.566996
H	3.46056	0.47173	2.61965
H	1.8039	0.313275	3.32535
H	2.23604	1.77168	2.33932
N	0.659748	0.139049	0.875329
C	0.0820272	-0.477529	-0.292103
C	-1.16387	0.303124	-0.662985
O	-1.65843	1.10847	0.123565
H	0.0441409	0.720236	1.40086
H	0.779733	-0.394225	-1.11572
C	-0.277021	-1.95678	-0.027521
H	-0.992418	-2.03861	0.818428
H	-0.721962	-2.43464	-0.924437
H	0.643788	-2.51748	0.244287
N	-1.68965	0.0968788	-1.88651
C	-2.86794	0.803793	-2.33158
H	-1.27067	-0.55377	-2.51129
H	-3.14509	0.495455	-3.36375
H	-2.69021	1.90364	-2.33017
H	-3.73055	0.592593	-1.65892
C	1251.75	-0.634694	-2.04478
C	1250.32	-0.28419	-1.8509
O	1249.62	0.0509151	-2.79431
H	1252.01	-0.529543	-3.12026
H	1251.93	-1.68438	-1.73185
H	1252.39	0.0451199	-1.45005
N	1249.86	-0.349741	-0.600023
C	1248.5	-0.0390502	-0.253127
C	1248.45	0.289299	1.22665
O	1249.41	0.0218711	1.95658
H	1250.45	-0.595951	0.16421
H	1248.19	0.84605	-0.795145
C	1247.55	-1.22396	-0.560792
H	1247.87	-2.13045	-0.00363421
H	1246.5	-0.988062	-0.295018
H	1247.59	-1.45534	-1.64753
N	1247.35	0.900361	1.70092
C	1247.23	1.26208	3.09377
H	1246.59	1.11485	1.09287
H	1246.25	1.75256	3.28709
H	1248.04	1.96759	3.38996
H	1247.3	0.359341	3.74241
