44
  This energy is 1.29455e-319 and Call times are: 97803
C	0.893729	3.35333	0.287273
C	-0.0191551	2.28482	-0.177613
O	-1.09979	2.55238	-0.684694
H	0.425375	4.34393	0.0996046
H	1.85624	3.30075	-0.26376
H	1.08505	3.24668	1.37583
N	0.401389	1.02939	-0.00609519
C	-0.374681	-0.116632	-0.407551
C	0.123993	-1.31487	0.376535
O	1.18761	-1.26532	0.991425
H	1.27101	0.82375	0.434815
H	-1.40983	0.0466808	-0.135754
C	-0.243121	-0.381859	-1.92395
H	0.820148	-0.548304	-2.1994
H	-0.839564	-1.26353	-2.23649
H	-0.610531	0.503616	-2.48706
N	-0.649043	-2.4186	0.390313
C	-0.261365	-3.6036	1.11947
H	-1.50978	-2.43655	-0.107718
H	-1.02673	-4.40279	1.00654
H	-0.148001	-3.37771	2.20454
H	0.712129	-3.99481	0.744717
C	4634.1	3.12962	-0.940336
C	4633.17	1.9937	-1.09823
O	4632.22	2.0546	-1.87465
H	4633.79	3.9614	-1.60669
H	4635.13	2.81866	-1.21742
H	4634.1	3.48837	0.110469
N	4633.41	0.916828	-0.347262
C	4632.59	-0.266637	-0.389663
C	4632.81	-1.03461	0.898712
O	4633.76	-0.762229	1.63775
H	4634.16	0.89049	0.30282
H	4631.55	0.0285053	-0.420988
C	4632.94	-1.15335	-1.60454
H	4634.01	-1.45374	-1.56958
H	4632.31	-2.06541	-1.64033
H	4632.78	-0.578951	-2.54188
N	4631.93	-2.00394	1.2092
C	4632.05	-2.77974	2.42113
H	4631.17	-2.20449	0.60167
H	4631.23	-3.52732	2.49556
H	4632.01	-2.11901	3.31701
H	4633.02	-3.32291	2.44191
