44
  This energy is 5.94015e-320 and Call times are: 82011
C	-0.51167	-3.1374	1.42163
C	0.350993	-1.97691	1.10496
O	1.4812	-1.88497	1.56394
H	0.0350141	-3.82686	2.10107
H	-0.774994	-3.68348	0.491429
H	-1.4407	-2.79754	1.92596
N	-0.175576	-1.04765	0.303981
C	0.540557	0.137837	-0.094265
C	-0.477895	1.17224	-0.532457
O	-1.64553	0.852792	-0.747896
H	-1.108	-1.11975	-0.0400027
H	1.06593	0.536604	0.764247
C	1.52483	-0.160292	-1.24728
H	0.982598	-0.56985	-2.12612
H	2.07803	0.750341	-1.5563
H	2.26487	-0.920177	-0.914032
N	-0.0607506	2.44788	-0.653765
C	-0.96236	3.50289	-1.05407
H	0.886504	2.68755	-0.468019
H	-0.430781	4.47899	-1.09771
H	-1.80514	3.5948	-0.33121
H	-1.3919	3.29218	-2.06019
C	3887.87	-2.27163	1.86053
C	3886.71	-1.93043	1.01232
O	3885.94	-2.79651	0.607805
H	3887.9	-3.37103	2.02334
H	3887.79	-1.76446	2.84484
H	3888.81	-1.95967	1.36169
N	3886.55	-0.63853	0.715664
C	3885.46	-0.151467	-0.0986543
C	3885.87	1.20242	-0.649968
O	3886.83	1.80726	-0.187909
H	3887.19	0.053983	1.02716
H	3885.33	-0.820833	-0.938338
C	3884.16	-0.0252204	0.719231
H	3884.3	0.661655	1.58021
H	3883.32	0.349422	0.0952177
H	3883.88	-1.02333	1.11852
N	3885.14	1.7014	-1.672
C	3885.46	2.97786	-2.26911
H	3884.37	1.19346	-2.03669
H	3884.75	3.21383	-3.09237
H	3886.49	2.9704	-2.68783
H	3885.4	3.79198	-1.5109
