44
  This energy is 4.74945e-320 and Call times are: 119853
C	-2.76713	-1.86321	-0.998786
C	-1.70999	-0.860513	-1.26006
O	-1.54129	-0.396169	-2.37918
H	-3.30871	-2.08097	-1.9449
H	-3.4902	-1.47129	-0.252868
H	-2.3168	-2.80393	-0.617748
N	-0.959309	-0.504235	-0.215118
C	0.107503	0.459837	-0.311577
C	1.04328	0.23808	0.860762
O	0.703026	-0.461277	1.81311
H	-1.08763	-0.91133	0.685295
H	0.667837	0.274938	-1.21927
C	-0.437186	1.90552	-0.29049
H	-1.01204	2.09155	0.641736
H	0.381598	2.6504	-0.364749
H	-1.12215	2.05479	-1.15344
N	2.25997	0.814966	0.80721
C	3.22207	0.649781	1.87176
H	2.51922	1.37142	0.024657
H	4.16018	1.202	1.64316
H	3.47388	-0.426632	2.0102
H	2.81374	1.03535	2.83393
C	5672.62	-2.08757	-1.06471
C	5673.87	-1.3288	-1.31165
O	5674.48	-1.43517	-2.36878
H	5672.39	-2.71238	-1.95445
H	5671.78	-1.38874	-0.886327
H	5672.75	-2.75036	-0.182437
N	5674.29	-0.537487	-0.321229
C	5675.48	0.263021	-0.412246
C	5675.93	0.598675	0.998077
O	5675.18	0.421215	1.95355
H	5673.8	-0.481689	0.546317
H	5676.27	-0.325335	-0.872795
C	5675.23	1.56024	-1.21287
H	5674.43	2.16107	-0.738007
H	5676.15	2.17893	-1.28502
H	5674.91	1.30076	-2.24363
N	5677.18	1.07413	1.16301
C	5677.69	1.40996	2.47024
H	5677.78	1.20399	0.378036
H	5678.74	1.78536	2.39731
H	5677.69	0.516697	3.13604
H	5677.07	2.20002	2.94715
