44
  This energy is 1.20819e-319 and Call times are: 65505
C	-3.32016	-0.939396	-0.469287
C	-2.18609	-0.558072	0.402319
O	-2.34627	-0.361764	1.59911
H	-4.24888	-0.994102	0.139268
H	-3.1325	-1.93268	-0.928617
H	-3.45909	-0.18259	-1.26984
N	-0.996346	-0.437619	-0.191278
C	0.200679	-0.0735244	0.523841
C	1.19768	0.468283	-0.481976
O	1.02442	0.306556	-1.68848
H	-0.884271	-0.571755	-1.17229
H	-0.0328588	0.723934	1.21781
C	0.802424	-1.28661	1.26777
H	1.0402	-2.10307	0.552938
H	1.72417	-1.00975	1.81959
H	0.0619947	-1.67491	2.00067
N	2.25998	1.14704	-0.00572159
C	3.25504	1.70947	-0.888725
H	2.37872	1.27341	0.973648
H	4.04931	2.22725	-0.307095
H	2.79193	2.44724	-1.58333
H	3.73302	0.911209	-1.50151
C	3107.73	0.974871	-3.21109
C	3106.88	0.195601	-2.28199
O	3105.91	-0.435664	-2.68681
H	3107.33	0.874704	-4.24416
H	3108.77	0.59247	-3.18907
H	3107.72	2.04806	-2.92618
N	3107.23	0.228964	-0.993006
C	3106.5	-0.478227	0.0302528
C	3106.82	0.173146	1.36227
O	3107.76	0.957929	1.47006
H	3108	0.77047	-0.671688
H	3105.44	-0.361526	-0.148432
C	3106.89	-1.97354	0.0644496
H	3107.98	-2.08957	0.247281
H	3106.33	-2.52109	0.851138
H	3106.65	-2.43885	-0.917294
N	3106.02	-0.122945	2.40833
C	3106.24	0.45851	3.71238
H	3105.26	-0.754851	2.2992
H	3105.48	0.0900293	4.4389
H	3106.17	1.56926	3.66427
H	3107.25	0.194281	4.09631
