44
  This energy is 1.52666e-321 and Call times are: 48621
C	-0.165961	2.73018	-2.15515
C	0.1053	2.13463	-0.827398
O	0.595273	2.79874	0.0755836
H	0.14771	3.7967	-2.15033
H	-1.251	2.67578	-2.38439
H	0.404901	2.19121	-2.94037
N	-0.207827	0.845131	-0.680708
C	-0.00310173	0.126341	0.551467
C	0.037653	-1.35408	0.226002
O	-0.339117	-1.76757	-0.868941
H	-0.579437	0.307346	-1.43279
H	0.960618	0.399485	0.96221
C	-1.13165	0.416375	1.56605
H	-2.11896	0.135613	1.14117
H	-0.977056	-0.135387	2.51601
H	-1.15175	1.50413	1.79524
N	0.519641	-2.18822	1.16829
C	0.607534	-3.61225	0.943373
H	0.826287	-1.83343	2.0454
H	1.02757	-4.12616	1.83597
H	1.26435	-3.83239	0.0708059
H	-0.399616	-4.04002	0.733988
C	2301.98	0.661773	0.0122917
C	2303.17	-0.0432561	-0.520873
O	2303.05	-0.941152	-1.34383
H	2301.06	0.234352	-0.446819
H	2302.04	1.74313	-0.233671
H	2301.92	0.536043	1.11404
N	2304.35	0.351826	-0.0501815
C	2305.6	-0.237855	-0.473256
C	2306.64	0.0543108	0.591382
O	2306.43	0.894441	1.46364
H	2304.43	1.06464	0.641753
H	2305.48	-1.31229	-0.529152
C	2306.06	0.33213	-1.8341
H	2306.18	1.43464	-1.77335
H	2307.02	-0.119884	-2.16292
H	2305.29	0.112595	-2.60507
N	2307.78	-0.653048	0.556454
C	2308.83	-0.45182	1.53603
H	2307.93	-1.33354	-0.153196
H	2309.69	-1.12558	1.33683
H	2308.45	-0.662221	2.5622
H	2309.19	0.60071	1.51172
