44
  This energy is 1.33012e-319 and Call times are: 91293
C	-2.0567	2.74926	0.581085
C	-1.77208	1.29839	0.652868
O	-2.51351	0.537589	1.25947
H	-2.98859	2.96912	1.14598
H	-2.19536	3.06009	-0.475788
H	-1.22033	3.32612	1.02902
N	-0.668966	0.878898	0.0287405
C	-0.25946	-0.502677	0.00913671
C	1.22385	-0.544578	-0.30275
O	1.80435	0.450815	-0.731757
H	-0.0575205	1.51278	-0.437381
H	-0.400195	-0.925416	0.995828
C	-1.04757	-1.30802	-1.04795
H	-0.901479	-0.871209	-2.05887
H	-0.734853	-2.37229	-1.06561
H	-2.13267	-1.26854	-0.808909
N	1.87874	-1.69953	-0.07206
C	3.29429	-1.82963	-0.327892
H	1.39268	-2.49173	0.282049
H	3.64667	-2.85443	-0.0771367
H	3.87284	-1.10048	0.284378
H	3.5193	-1.63428	-1.40138
C	4323.07	2.76166	1.65228
C	4323.94	1.56229	1.61142
O	4324.7	1.3001	2.53263
H	4323.25	3.31366	2.60007
H	4322	2.46317	1.60903
H	4323.3	3.43063	0.79682
N	4323.84	0.799104	0.520131
C	4324.62	-0.39972	0.334732
C	4324.66	-0.703436	-1.15029
O	4323.9	-0.137663	-1.92904
H	4323.24	1.03913	-0.236398
H	4325.64	-0.214068	0.660763
C	4324.01	-1.59183	1.10406
H	4322.97	-1.77907	0.76758
H	4324.6	-2.51651	0.963611
H	4323.98	-1.35638	2.19037
N	4325.58	-1.59379	-1.58111
C	4325.7	-1.93683	-2.97893
H	4326.19	-2.03562	-0.936208
H	4326.5	-2.68654	-3.13145
H	4325.94	-1.03397	-3.58562
H	4324.74	-2.36592	-3.36229
