44
  This energy is 4.69955e-320 and Call times are: 20775
C	2.99229	-1.70338	0.520396
C	1.62841	-1.31009	0.940341
O	1.10301	-1.80564	1.9277
H	3.38564	-2.4708	1.22197
H	3.66693	-0.821672	0.537218
H	2.96906	-2.13115	-0.504011
N	1.01415	-0.398863	0.182247
C	-0.314263	0.0842703	0.462844
C	-0.878651	0.666369	-0.818508
O	-0.147066	0.898775	-1.77903
H	1.44142	-0.0241428	-0.636264
H	-0.939949	-0.752035	0.747772
C	-0.29922	1.15871	1.57301
H	0.344117	2.01487	1.27769
H	-1.32051	1.53278	1.79168
H	0.117412	0.720158	2.50588
N	-2.20556	0.895963	-0.869474
C	-2.83386	1.43744	-2.05194
H	-2.78178	0.694579	-0.0842058
H	-3.92895	1.55513	-1.89651
H	-2.67416	0.764064	-2.92504
H	-2.40599	2.43509	-2.30256
C	989.124	2.93743	1.70171
C	989.464	1.4969	1.67979
O	989.693	0.885212	2.71415
H	989.13	3.30027	2.75251
H	988.113	3.09849	1.2717
H	989.871	3.5159	1.11748
N	989.511	0.91679	0.47826
C	989.827	-0.477196	0.295029
C	990.296	-0.66457	-1.13484
O	990.118	0.21557	-1.97491
H	989.351	1.43263	-0.359156
H	990.65	-0.740108	0.947916
C	988.6	-1.37378	0.573764
H	987.758	-1.1009	-0.0972886
H	988.84	-2.4478	0.433751
H	988.266	-1.2264	1.62386
N	990.928	-1.81477	-1.43969
C	991.42	-2.07639	-2.77229
H	991.068	-2.51177	-0.744152
H	991.908	-3.07475	-2.82244
H	992.166	-1.30609	-3.07389
H	990.586	-2.0563	-3.51023
