44
  This energy is 2.08249e-320 and Call times are: 1623
C	2.0586	-2.17658	1.77505
C	1.24781	-0.9421	1.67563
O	1.03348	-0.245272	2.65796
H	2.38662	-2.31675	2.82796
H	2.95634	-2.09794	1.12644
H	1.45578	-3.05647	1.46625
N	0.767107	-0.644152	0.466281
C	-0.0380517	0.523513	0.211124
C	-0.816959	0.282088	-1.06726
O	-0.519215	-0.643916	-1.81938
H	0.924372	-1.23533	-0.3203
H	-0.753542	0.640119	1.01521
C	0.836108	1.78958	0.0695586
H	1.56941	1.66625	-0.755775
H	0.219306	2.69056	-0.126822
H	1.4024	1.95473	1.01199
N	-1.85294	1.10213	-1.33235
C	-2.6593	0.941302	-2.51983
H	-2.08247	1.84128	-0.70769
H	-3.4597	1.71271	-2.5591
H	-3.14003	-0.0636383	-2.53515
H	-2.03324	1.03854	-3.43622
C	85.767	1.68185	2.996
C	86.0539	1.44137	1.56386
O	86.812	2.17072	0.939458
H	86.3274	2.57928	3.3372
H	86.0852	0.807595	3.60199
H	84.6808	1.85846	3.14448
N	85.4383	0.397994	1.00281
C	85.6169	0.0364532	-0.380746
C	84.4307	-0.811179	-0.797654
O	83.67	-1.28511	0.0440669
H	84.8004	-0.171309	1.51463
H	85.6067	0.935677	-0.983544
C	86.931	-0.748172	-0.591984
H	86.9384	-1.66969	0.0283951
H	87.0717	-1.028	-1.65625
H	87.7921	-0.116904	-0.281817
N	84.233	-1.00402	-2.11664
C	83.1232	-1.787	-2.60783
H	84.8557	-0.606194	-2.78242
H	83.1337	-1.83016	-3.71926
H	82.1546	-1.34215	-2.28357
H	83.1731	-2.82868	-2.21592
