44
  This energy is 8.17629e-320 and Call times are: 121155
C	-0.357468	1.81054	-2.95302
C	-0.566803	1.63956	-1.49763
O	-1.03612	2.54041	-0.815942
H	-0.680003	2.83123	-3.25305
H	-0.956687	1.06433	-3.51598
H	0.717241	1.68534	-3.20255
N	-0.211196	0.460628	-0.981846
C	-0.354351	0.144216	0.416803
C	0.587888	-1.0006	0.734309
O	1.10969	-1.65377	-0.167315
H	0.197086	-0.25485	-1.5425
H	-0.0435406	0.998689	1.00446
C	-1.80781	-0.253868	0.757557
H	-2.12362	-1.13033	0.152421
H	-1.92161	-0.498002	1.83377
H	-2.48815	0.592626	0.519377
N	0.845246	-1.25681	2.03205
C	1.73894	-2.31954	2.42966
H	0.418739	-0.712367	2.74682
H	1.81879	-2.37222	3.53786
H	2.75834	-2.15237	2.01238
H	1.3705	-3.30285	2.05745
C	5735.77	-3.15864	-0.339413
C	5736.21	-2.00964	0.485181
O	5735.95	-1.95277	1.67921
H	5735.21	-3.87556	0.298003
H	5736.66	-3.67673	-0.771671
H	5735.11	-2.8111	-1.1596
N	5736.89	-1.05059	-0.147204
C	5737.38	0.128467	0.519737
C	5737.62	1.19449	-0.532391
O	5737.64	0.905246	-1.72732
H	5737.07	-1.09458	-1.12625
H	5736.62	0.495425	1.19413
C	5738.69	-0.163136	1.28436
H	5739.47	-0.540038	0.589618
H	5739.07	0.742563	1.7992
H	5738.51	-0.946345	2.05121
N	5737.79	2.46346	-0.110274
C	5738	3.54668	-1.04032
H	5737.76	2.67837	0.860507
H	5738.12	4.51197	-0.499719
H	5737.15	3.63936	-1.74437
H	5738.93	3.36915	-1.64086
