44
  This energy is 1.46085e-319 and Call times are: 66597
C	1.05237	3.31178	0.22535
C	1.32421	1.85668	0.226991
O	2.46958	1.42718	0.239473
H	2.01634	3.8655	0.230043
H	0.471734	3.59351	1.12885
H	0.480537	3.59341	-0.683843
N	0.257479	1.05412	0.20818
C	0.360698	-0.383299	0.207523
C	-0.941084	-0.943639	-0.33157
O	-1.9363	-0.229562	-0.438632
H	-0.670017	1.41624	0.168687
H	1.15168	-0.678955	-0.469983
C	0.625899	-0.92885	1.62849
H	-0.187113	-0.623117	2.32107
H	0.706085	-2.03535	1.63159
H	1.58155	-0.510066	2.01255
N	-0.957007	-2.23811	-0.705845
C	-2.14798	-2.85521	-1.24154
H	-0.139361	-2.79757	-0.618098
H	-1.96051	-3.92358	-1.48788
H	-2.47701	-2.33406	-2.16965
H	-2.98165	-2.80639	-0.504132
C	3155.32	-0.0426265	-0.188609
C	3156.62	0.667925	-0.238688
O	3156.69	1.84266	-0.573663
H	3154.51	0.652118	-0.496801
H	3155.12	-0.396379	0.84412
H	3155.34	-0.910818	-0.880741
N	3157.7	-0.0441918	0.093724
C	3159.03	0.507834	0.0935533
C	3160.01	-0.643776	-0.000636915
O	3159.64	-1.8011	0.191289
H	3157.64	-1.00851	0.336738
H	3159.16	1.12105	-0.789642
C	3159.3	1.33099	1.37333
H	3159.17	0.699003	2.27747
H	3160.32	1.75762	1.3764
H	3158.57	2.17065	1.4312
N	3161.29	-0.352632	-0.321907
C	3162.29	-1.3851	-0.446084
H	3161.57	0.589447	-0.480407
H	3163.28	-0.945679	-0.714253
H	3162.01	-2.11604	-1.2372
H	3162.4	-1.94077	0.512914
