44
  This energy is 1.36757e-320 and Call times are: 37113
C	1.68244	-2.48538	1.7659
C	0.45763	-1.93086	1.14658
O	-0.568463	-2.59266	1.07143
H	1.48454	-3.52593	2.10347
H	1.97826	-1.87301	2.64357
H	2.51222	-2.49855	1.02817
N	0.542986	-0.684158	0.67668
C	-0.563676	-0.00839806	0.0478123
C	-0.00188142	1.11633	-0.799902
O	1.16564	1.47915	-0.669159
H	1.39303	-0.165812	0.717691
H	-1.06739	-0.70013	-0.615402
C	-1.54694	0.557155	1.09684
H	-1.02673	1.26589	1.77595
H	-2.40036	1.078	0.616026
H	-1.95049	-0.276419	1.71202
N	-0.819709	1.68213	-1.70931
C	-0.368867	2.75157	-2.56909
H	-1.7591	1.36965	-1.80484
H	-1.18696	3.08367	-3.24561
H	0.489623	2.41681	-3.19532
H	-0.0355542	3.6269	-1.96585
C	1757.84	-1.25186	-1.10062
C	1758.68	-0.549565	-0.100003
O	1758.17	-0.00794539	0.874921
H	1756.77	-1.1784	-0.803902
H	1758.13	-2.32356	-1.15267
H	1757.97	-0.786484	-2.10059
N	1759.99	-0.539009	-0.327521
C	1760.93	0.103222	0.555251
C	1762.2	0.375599	-0.23235
O	1762.39	-0.157841	-1.32404
H	1760.39	-0.958789	-1.1406
H	1760.53	1.05756	0.867055
C	1761.25	-0.782789	1.78077
H	1761.66	-1.76127	1.45724
H	1761.97	-0.291226	2.46267
H	1760.31	-0.975991	2.34858
N	1763.09	1.23502	0.297244
C	1764.32	1.56438	-0.386234
H	1762.92	1.66194	1.17855
H	1764.92	2.28562	0.210572
H	1764.11	2.02294	-1.37896
H	1764.94	0.649984	-0.553069
