44
  This energy is 6.95348e-320 and Call times are: 3471
C	1.6051	2.81447	1.27613
C	0.989783	2.06079	0.160536
O	0.817196	2.57934	-0.933911
H	1.84224	3.8459	0.935854
H	2.54388	2.31852	1.60102
H	0.901776	2.87164	2.13346
N	0.634636	0.800484	0.42103
C	0.0250112	-0.0589251	-0.562129
C	-0.698437	-1.16954	0.174348
O	-0.491244	-1.37011	1.36962
H	0.753838	0.398722	1.32508
H	-0.715307	0.506851	-1.1134
C	1.08068	-0.655976	-1.51932
H	1.83895	-1.23517	-0.950398
H	0.614663	-1.31811	-2.27773
H	1.60432	0.167682	-2.0518
N	-1.58575	-1.90683	-0.52212
C	-2.33036	-2.97779	0.0982013
H	-1.74464	-1.72435	-1.48684
H	-3.00636	-3.46494	-0.638653
H	-2.94978	-2.58992	0.939098
H	-1.64025	-3.7515	0.506009
C	173.973	-1.80185	-2.8778
C	173.048	-1.43121	-1.78347
O	171.889	-1.82288	-1.77513
H	173.436	-2.43954	-3.61299
H	174.837	-2.37015	-2.47263
H	174.341	-0.889914	-3.39387
N	173.548	-0.649511	-0.8235
C	172.771	-0.205267	0.306164
C	173.443	1.02806	0.877585
O	174.588	1.33066	0.546228
H	174.485	-0.313179	-0.856711
H	171.786	0.0857381	-0.0365747
C	172.671	-1.30463	1.38712
H	173.683	-1.60125	1.73599
H	172.073	-0.965942	2.25833
H	172.178	-2.20299	0.955707
N	172.733	1.78432	1.73832
C	173.287	2.98317	2.32393
H	171.806	1.52659	1.98846
H	172.551	3.46358	3.00562
H	173.561	3.71674	1.53169
H	174.205	2.74717	2.90927
