44
  This energy is 1.0158e-320 and Call times are: 118509
C	0.704649	-2.95547	1.7014
C	0.161327	-2.22243	0.535789
O	-0.214548	-2.81605	-0.465623
H	0.701624	-4.04563	1.48366
H	0.0779499	-2.76643	2.59825
H	1.74738	-2.63247	1.90471
N	0.113361	-0.892437	0.641489
C	-0.38953	-0.0425553	-0.408097
C	0.168783	1.34992	-0.18778
O	0.698792	1.65305	0.879474
H	0.449645	-0.418702	1.45107
H	-0.0162343	-0.399903	-1.35943
C	-1.93402	-0.00190712	-0.407493
H	-2.31359	0.364502	0.570153
H	-2.3246	0.651483	-1.21453
H	-2.3306	-1.02803	-0.568573
N	0.0813044	2.22697	-1.20716
C	0.59612	3.57166	-1.09332
H	-0.344784	1.96037	-2.06542
H	0.427737	4.13828	-2.03556
H	1.69028	3.55703	-0.883914
H	0.0927332	4.11619	-0.261894
C	5610.38	3.12126	-1.31029
C	5610.84	1.72313	-1.46826
O	5611	1.22969	-2.57685
H	5610.22	3.57028	-2.31428
H	5611.15	3.7169	-0.769499
H	5609.43	3.14845	-0.745927
N	5611.07	1.04236	-0.342253
C	5611.52	-0.32638	-0.33348
C	5611.17	-0.9222	1.0173
O	5610.84	-0.200969	1.9558
H	5610.91	1.44629	0.55487
H	5610.98	-0.881114	-1.08689
C	5613.04	-0.418732	-0.580813
H	5613.6	0.152004	0.193509
H	5613.39	-1.47129	-0.574851
H	5613.28	0.0220365	-1.5728
N	5611.22	-2.26321	1.1404
C	5610.9	-2.92047	2.38507
H	5611.49	-2.83007	0.367247
H	5611	-4.02358	2.28558
H	5609.85	-2.6918	2.68914
H	5611.58	-2.57719	3.19915
