44
  This energy is 1.55087e-319 and Call times are: 18801
C	3.23996	0.0455488	-1.27543
C	1.77106	0.00699877	-1.45451
O	1.2665	0.101779	-2.56488
H	3.72753	0.173262	-2.2663
H	3.59484	-0.902796	-0.819886
H	3.52384	0.897758	-0.622671
N	1.04175	-0.129557	-0.344633
C	-0.398295	-0.183702	-0.357354
C	-0.890528	0.181368	1.02961
O	-0.115986	0.210241	1.98412
H	1.46347	-0.176476	0.556971
H	-0.772405	0.56296	-1.04627
C	-0.904881	-1.59014	-0.747765
H	-0.518663	-2.35374	-0.0393361
H	-2.01331	-1.63532	-0.75869
H	-0.536571	-1.84619	-1.76508
N	-2.19456	0.491519	1.16857
C	-2.75068	0.862886	2.4488
H	-2.80378	0.469262	0.382701
H	-3.83797	1.07899	2.35746
H	-2.24502	1.77182	2.84803
H	-2.61747	0.0406439	3.18864
C	898.124	-2.82289	-1.55037
C	898.276	-1.57639	-0.766589
O	899.353	-1.26572	-0.274813
H	899.098	-3.35793	-1.58206
H	897.81	-2.586	-2.58875
H	897.367	-3.48275	-1.0771
N	897.181	-0.826442	-0.626765
C	897.171	0.413598	0.107421
C	895.737	0.710183	0.501578
O	894.804	0.0970646	-0.0133817
H	896.303	-1.10496	-1.00757
H	897.743	0.288053	1.01788
C	897.74	1.57357	-0.739943
H	897.151	1.69913	-1.6735
H	897.734	2.52987	-0.177596
H	898.79	1.34361	-1.02322
N	895.53	1.6486	1.44626
C	894.199	1.9895	1.89366
H	896.298	2.12861	1.85612
H	894.238	2.78304	2.67217
H	893.69	1.09818	2.32644
H	893.582	2.36125	1.04396
