44
  This energy is 9.26571e-320 and Call times are: 77055
C	3.37804	-0.467361	0.704674
C	2.24664	-0.380083	-0.245867
O	2.43376	-0.391908	-1.45473
H	4.33123	-0.531551	0.136192
H	3.27606	-1.37317	1.33866
H	3.40529	0.43489	1.35132
N	1.02783	-0.283014	0.29028
C	-0.170662	-0.190547	-0.504632
C	-1.25827	0.415297	0.360985
O	-1.118	0.499191	1.57964
H	0.890779	-0.245063	1.27654
H	0.00670036	0.485673	-1.33128
C	-0.61279	-1.57864	-1.01926
H	-0.79323	-2.27002	-0.168646
H	-1.53526	-1.51107	-1.63185
H	0.192901	-2.01221	-1.65094
N	-2.36516	0.873956	-0.2558
C	-3.44803	1.47747	0.48538
H	-2.45675	0.803457	-1.24366
H	-4.26761	1.78878	-0.199187
H	-3.09237	2.37704	1.03813
H	-3.86495	0.758711	1.2275
C	3654.37	-1.55506	2.74573
C	3654.35	-1.19866	1.30919
O	3655.3	-1.44758	0.58039
H	3655.34	-2.03955	2.98842
H	3653.55	-2.26343	2.9774
H	3654.26	-0.642547	3.36843
N	3653.25	-0.592213	0.866302
C	3653.07	-0.184811	-0.505394
C	3652.01	0.889287	-0.542384
O	3651.28	1.08739	0.430153
H	3652.49	-0.368706	1.47622
H	3654	0.257584	-0.858816
C	3652.66	-1.37609	-1.39874
H	3651.72	-1.82796	-1.03292
H	3652.53	-1.06594	-2.45563
H	3653.45	-2.15639	-1.3621
N	3651.9	1.62599	-1.66564
C	3650.92	2.6787	-1.78781
H	3652.5	1.4551	-2.43919
H	3650.98	3.16602	-2.78537
H	3651.08	3.45655	-1.00618
H	3649.89	2.27199	-1.66583
