44
  This energy is 7.22522e-320 and Call times are: 45219
C	0.128035	-3.12155	1.53807
C	0.130661	-2.26391	0.331563
O	0.347675	-2.73275	-0.777307
H	0.350283	-4.17027	1.24369
H	-0.867712	-3.08925	2.02824
H	0.903586	-2.77724	2.25425
N	-0.109025	-0.965133	0.526721
C	-0.139586	-0.00578476	-0.548242
C	0.0872657	1.3697	0.0482544
O	0.00525726	1.54993	1.26177
H	-0.255544	-0.590575	1.43841
H	0.680063	-0.209912	-1.22543
C	-1.4901	-0.043679	-1.29776
H	-2.3288	0.165485	-0.59994
H	-1.51699	0.693685	-2.12622
H	-1.64495	-1.05671	-1.72897
N	0.401204	2.37277	-0.795134
C	0.646354	3.71339	-0.316799
H	0.469796	2.20526	-1.77313
H	0.887319	4.3947	-1.16238
H	1.50121	3.72547	0.397565
H	-0.250061	4.11258	0.210718
C	2149.2	1.83405	-0.609031
C	2147.9	1.27027	-1.0414
O	2147.41	1.5581	-2.12719
H	2149.59	2.50896	-1.40185
H	2149.93	1.01819	-0.439122
H	2149.07	2.4164	0.327641
N	2147.29	0.445083	-0.182833
C	2146.03	-0.182025	-0.461064
C	2145.41	-0.595928	0.861536
O	2146.09	-0.612521	1.89025
H	2147.69	0.24131	0.710829
H	2145.37	0.545001	-0.917559
C	2146.2	-1.41497	-1.37626
H	2146.88	-2.15846	-0.905182
H	2145.22	-1.90016	-1.59263
H	2146.65	-1.09865	-2.34123
N	2144.1	-0.920591	0.868088
C	2143.43	-1.31544	2.08273
H	2143.57	-0.894063	0.0265376
H	2142.36	-1.54423	1.88191
H	2143.48	-0.500826	2.84126
H	2143.91	-2.22262	2.51987
