44
  This energy is 2.6808e-320 and Call times are: 125397
C	3.37149	0.866697	0.0896852
C	1.99899	0.919014	0.641693
O	1.77157	1.44463	1.72267
H	4.07285	1.35214	0.802632
H	3.41461	1.40571	-0.880068
H	3.68404	-0.188234	-0.0599048
N	1.03989	0.359818	-0.0997921
C	-0.343451	0.33195	0.303212
C	-1.02917	-0.783422	-0.461627
O	-0.485129	-1.30701	-1.43205
H	1.24235	-0.0909676	-0.96509
H	-0.398121	0.0900946	1.35706
C	-1.04054	1.68034	0.0150801
H	-0.981995	1.92567	-1.06682
H	-2.10583	1.66241	0.324321
H	-0.528182	2.48923	0.580177
N	-2.23803	-1.18903	-0.0255943
C	-2.96089	-2.25242	-0.683517
H	-2.65845	-0.757619	0.765842
H	-3.93406	-2.43793	-0.177771
H	-2.37121	-3.19752	-0.666324
H	-3.16282	-1.99078	-1.74745
C	5937.82	-2.02064	2.17131
C	5937.69	-1.25808	0.910192
O	5938.64	-1.10174	0.157476
H	5938.87	-2.37406	2.27318
H	5937.15	-2.90103	2.16252
H	5937.58	-1.37359	3.03917
N	5936.48	-0.753906	0.652139
C	5936.19	0.0104101	-0.534403
C	5934.94	0.836395	-0.263365
O	5934.23	0.599171	0.710229
H	5935.72	-0.863406	1.2874
H	5937	0.696185	-0.720432
C	5935.96	-0.90985	-1.75406
H	5935.12	-1.6125	-1.55953
H	5935.73	-0.324572	-2.66945
H	5936.87	-1.51033	-1.94141
N	5934.67	1.84566	-1.11224
C	5933.51	2.69307	-0.927255
H	5935.26	2.02617	-1.89023
H	5933.46	3.46227	-1.72879
H	5933.56	3.21448	0.0561014
H	5932.57	2.09128	-0.952859
