44
  This energy is 9.60612e-320 and Call times are: 96417
C	1.59065	0.688785	3.02019
C	0.439856	0.812341	2.09736
O	-0.601041	1.34799	2.45248
H	1.32358	1.13606	4.00227
H	2.47079	1.22584	2.60818
H	1.84779	-0.380911	3.17045
N	0.604059	0.304952	0.873453
C	-0.424069	0.349162	-0.135422
C	-0.119648	-0.727936	-1.15837
O	0.979597	-1.27826	-1.18356
H	1.44651	-0.154893	0.605577
H	-1.37585	0.109374	0.321403
C	-0.480108	1.73253	-0.821187
H	0.498119	1.97562	-1.2882
H	-1.2708	1.7701	-1.59848
H	-0.702604	2.51286	-0.0611011
N	-1.10065	-1.07012	-2.01659
C	-0.906342	-2.09348	-3.01717
H	-1.98567	-0.618128	-1.97557
H	-1.82754	-2.22829	-3.62584
H	-0.656536	-3.0682	-2.53888
H	-0.0706683	-1.82048	-3.7015
C	4569.69	1.92629	0.810835
C	4568.37	1.33245	1.14545
O	4567.91	1.40777	2.27711
H	4570.12	2.39763	1.72013
H	4569.57	2.70257	0.0260469
H	4570.38	1.13936	0.449006
N	4567.73	0.71347	0.151551
C	4566.44	0.0875857	0.321887
C	4566.27	-0.924347	-0.793384
O	4567.01	-0.919055	-1.77126
H	4568.13	0.633565	-0.75882
H	4566.44	-0.452397	1.26021
C	4565.3	1.12816	0.2814
H	4565.31	1.68072	-0.682275
H	4564.31	0.649638	0.412406
H	4565.44	1.86428	1.10244
N	4565.28	-1.8352	-0.660423
C	4565.05	-2.84481	-1.66597
H	4564.69	-1.82745	0.141696
H	4564.19	-3.4973	-1.37548
H	4565.95	-3.48524	-1.79903
H	4564.81	-2.37412	-2.64751
