44
  This energy is 1.13699e-319 and Call times are: 23253
C	-3.19267	0.992785	0.97333
C	-1.89785	0.327703	1.24222
O	-1.61721	-0.0817554	2.36029
H	-3.78442	1.03822	1.91335
H	-3.76663	0.420145	0.214731
H	-3.02294	2.02651	0.605165
N	-1.06521	0.209679	0.205317
C	0.229811	-0.413872	0.309812
C	1.07767	0.0762138	-0.847856
O	0.564059	0.66071	-1.79991
H	-1.29339	0.573339	-0.693918
H	0.704517	-0.0875608	1.22646
C	0.117177	-1.9543	0.271058
H	-0.370859	-2.28555	-0.670329
H	1.11252	-2.43764	0.35145
H	-0.507181	-2.30058	1.12336
N	2.40724	-0.133125	-0.781474
C	3.29514	0.309012	-1.83139
H	2.8046	-0.601699	0.000685477
H	4.34859	0.0425953	-1.59368
H	3.23331	1.41409	-1.9588
H	3.02365	-0.166132	-2.80181
C	1108.61	-0.596659	-3.35557
C	1109.03	-0.444752	-1.94321
O	1110.18	-0.686805	-1.59223
H	1109.48	-0.948325	-3.95788
H	1108.27	0.377959	-3.75924
H	1107.79	-1.34164	-3.43513
N	1108.09	-0.0389553	-1.08785
C	1108.34	0.15524	0.317659
C	1107.01	0.0962963	1.04237
O	1105.95	0.162419	0.419882
H	1107.15	0.12699	-1.38086
H	1108.95	-0.66203	0.68195
C	1109.03	1.51196	0.58311
H	1108.4	2.34811	0.207546
H	1109.23	1.66466	1.66436
H	1110	1.543	0.0458862
N	1107.03	-0.0523194	2.38153
C	1105.82	-0.130244	3.15474
H	1107.9	-0.11108	2.86627
H	1106.05	-0.249808	4.23679
H	1105.2	-0.998411	2.82883
H	1105.21	0.794149	3.02468
