44
  This energy is 1.35226e-319 and Call times are: 84993
C	1.01537	-3.32597	-0.181899
C	0.952931	-2.02025	0.512657
O	1.36918	-1.89128	1.65572
H	1.46864	-4.08136	0.496177
H	1.63968	-3.24339	-1.09636
H	-0.00600627	-3.66041	-0.460963
N	0.416504	-1.00854	-0.173682
C	0.286977	0.321014	0.36699
C	-0.78767	1.04251	-0.422832
O	-1.19658	0.587119	-1.48925
H	0.0543924	-1.13321	-1.09361
H	-0.0496879	0.252112	1.39363
C	1.62076	1.09599	0.280088
H	1.96356	1.1642	-0.774404
H	1.52462	2.1201	0.695683
H	2.39991	0.556648	0.861629
N	-1.28761	2.18079	0.0971331
C	-2.32179	2.92959	-0.578105
H	-0.948638	2.52923	0.964845
H	-2.59767	3.83457	0.00683614
H	-3.23545	2.30598	-0.710679
H	-1.9768	3.25525	-1.58613
C	4025.33	-1.78295	-1.34073
C	4026.76	-1.40553	-1.3162
O	4027.57	-1.97211	-2.03017
H	4025.18	-2.61047	-2.06793
H	4024.71	-0.915341	-1.65167
H	4025	-2.12563	-0.335108
N	4027.1	-0.426921	-0.474465
C	4028.45	0.0508669	-0.337991
C	4028.57	0.743305	1.00598
O	4027.56	1.0425	1.64793
H	4026.43	0.00693177	0.123091
H	4029.12	-0.796745	-0.33063
C	4028.82	1.03114	-1.47422
H	4028.13	1.89913	-1.47928
H	4029.86	1.40085	-1.37229
H	4028.73	0.512223	-2.45338
N	4029.81	0.995361	1.47433
C	4030.01	1.6402	2.7498
H	4030.61	0.7391	0.943199
H	4031.1	1.76061	2.95652
H	4029.57	1.03782	3.57265
H	4029.54	2.64866	2.76251
