44
  This energy is 8.04289e-320 and Call times are: 70503
C	1.10354	3.25189	0.577525
C	0.402534	2.24253	-0.247687
O	-0.227588	2.56753	-1.24459
H	0.94071	4.26098	0.140401
H	2.19334	3.04025	0.596868
H	0.706757	3.24113	1.61453
N	0.494385	0.974908	0.161058
C	-0.132766	-0.118829	-0.536973
C	-0.272479	-1.27349	0.435894
O	0.334974	-1.27176	1.50493
H	0.986427	0.726401	0.991163
H	-1.12885	0.180488	-0.837458
C	0.700022	-0.554989	-1.76308
H	1.72149	-0.860754	-1.45128
H	0.219905	-1.39689	-2.30296
H	0.796042	0.299892	-2.46743
N	-1.09871	-2.28191	0.0946622
C	-1.30378	-3.41757	0.963223
H	-1.58688	-2.26146	-0.771654
H	-2.01607	-4.13904	0.505648
H	-1.71733	-3.09165	1.94506
H	-0.34172	-3.9466	1.15229
C	3341.43	-1.26066	-1.31863
C	3342.25	-0.147591	-0.788675
O	3341.85	1.00699	-0.824157
H	3340.48	-0.855673	-1.71864
H	3341.21	-1.98645	-0.509958
H	3341.98	-1.77871	-2.13777
N	3343.44	-0.476567	-0.282558
C	3344.35	0.494816	0.270375
C	3345.74	-0.109263	0.257886
O	3345.91	-1.31316	0.066477
H	3343.77	-1.41714	-0.285896
H	3344.37	1.36759	-0.370035
C	3343.96	0.881592	1.71221
H	3343.94	-0.016213	2.36631
H	3344.65	1.62951	2.14094
H	3342.93	1.32174	1.70792
N	3346.79	0.722351	0.441318
C	3348.15	0.239159	0.43342
H	3346.64	1.69459	0.587533
H	3348.86	1.07441	0.602767
H	3348.39	-0.23668	-0.544387
H	3348.3	-0.520394	1.23412
