44
  This energy is 1.18423e-319 and Call times are: 29259
C	-1.87763	0.0151642	2.93264
C	-1.53915	0.565875	1.60097
O	-2.22033	1.44257	1.08726
H	-2.79296	0.516542	3.3156
H	-1.04464	0.195619	3.64425
H	-2.06993	-1.0759	2.85815
N	-0.463635	0.0496461	1.00169
C	-0.00827208	0.482534	-0.295261
C	0.85902	-0.617561	-0.875634
O	1.27064	-1.53368	-0.166323
H	0.0661526	-0.684626	1.41775
H	-0.864669	0.604227	-0.946298
C	0.796159	1.79809	-0.198748
H	1.67359	1.66986	0.470421
H	1.14818	2.13434	-1.19564
H	0.150149	2.59555	0.228887
N	1.13961	-0.563185	-2.19257
C	1.94785	-1.57306	-2.83528
H	0.791237	0.182415	-2.75109
H	2.06621	-1.35118	-3.9188
H	1.47667	-2.5774	-2.73262
H	2.96087	-1.61816	-2.37383
C	1394.52	2.66403	-1.64735
C	1394.26	1.86574	-0.428537
O	1394.87	2.0819	0.611486
H	1395.31	3.41615	-1.43134
H	1393.6	3.19324	-1.96357
H	1394.87	2.00414	-2.46996
N	1393.34	0.905437	-0.535039
C	1392.97	0.0464541	0.563272
C	1392.34	-1.20222	-0.0136289
O	1391.98	-1.23954	-1.18944
H	1392.87	0.720044	-1.39582
H	1393.87	-0.255128	1.087
C	1391.99	0.74976	1.52523
H	1391.07	1.05839	0.984513
H	1391.71	0.0912068	2.37217
H	1392.47	1.66339	1.94009
N	1392.2	-2.26703	0.800711
C	1391.61	-3.50288	0.335973
H	1392.5	-2.21944	1.74712
H	1391.59	-4.25694	1.15323
H	1392.2	-3.9238	-0.509784
H	1390.57	-3.3345	-0.0205954
