44
  This energy is 1.10854e-319 and Call times are: 103305
C	-2.06758	1.44267	2.40207
C	-1.13635	0.383269	1.95298
O	-0.72437	-0.467568	2.72941
H	-2.27934	1.31049	3.48538
H	-3.02211	1.37699	1.83872
H	-1.61362	2.44363	2.24412
N	-0.774681	0.417198	0.668295
C	0.124276	-0.545566	0.0836675
C	0.708529	0.0666114	-1.17456
O	0.21555	1.07897	-1.66845
H	-1.09429	1.13263	0.0527134
H	0.940851	-0.72712	0.770921
C	-0.606783	-1.86344	-0.256748
H	-1.44428	-1.67341	-0.961448
H	0.082519	-2.60705	-0.706951
H	-1.03118	-2.30122	0.672973
N	1.79322	-0.525323	-1.7122
C	2.42498	-0.00639776	-2.9029
H	2.18166	-1.33966	-1.29364
H	3.29922	-0.631928	-3.18868
H	2.77966	1.0366	-2.73674
H	1.70788	0.00449101	-3.75544
C	4894.66	0.930703	-2.91359
C	4893.48	0.956676	-2.02653
O	4892.53	1.69108	-2.26106
H	4894.52	1.6539	-3.74488
H	4894.8	-0.0850774	-3.34087
H	4895.57	1.2171	-2.34545
N	4893.51	0.14518	-0.966983
C	4892.44	0.0583422	-0.0134325
C	4893	-0.516692	1.27242
O	4894.11	-1.04842	1.29195
H	4894.31	-0.426931	-0.770831
H	4892.08	1.05621	0.202228
C	4891.29	-0.834777	-0.539022
H	4891.66	-1.85751	-0.759873
H	4890.46	-0.903697	0.192681
H	4890.89	-0.403458	-1.48171
N	4892.25	-0.402868	2.38723
C	4892.71	-0.91009	3.65977
H	4891.36	0.0371371	2.35236
H	4891.95	-0.722393	4.45313
H	4893.66	-0.416135	3.95997
H	4892.89	-2.0075	3.60255
