44
  This energy is 5.5118e-320 and Call times are: 2925
C	1.94451	-2.55896	-1.34043
C	0.634177	-1.97254	-0.979386
O	-0.412859	-2.50786	-1.3165
H	1.78152	-3.48844	-1.92811
H	2.51728	-2.80974	-0.422897
H	2.52817	-1.84233	-1.95585
N	0.665714	-0.836691	-0.278524
C	-0.526218	-0.14723	0.146645
C	-0.154208	1.29527	0.429579
O	1.02394	1.63251	0.529938
H	1.52508	-0.394965	-0.0350084
H	-1.24233	-0.149066	-0.665303
C	-1.13156	-0.797508	1.41069
H	-0.394029	-0.794546	2.24144
H	-2.04958	-0.269189	1.74071
H	-1.39872	-1.85409	1.19069
N	-1.15674	2.18853	0.543607
C	-0.89798	3.58607	0.800738
H	-2.10332	1.89724	0.452084
H	-1.85031	4.15751	0.862161
H	-0.276687	4.02667	-0.0123463
H	-0.349645	3.7139	1.76207
C	148.784	2.97627	0.870677
C	147.693	2.22861	0.20646
O	146.733	2.81002	-0.280958
H	148.557	4.06408	0.83732
H	149.747	2.79361	0.347764
H	148.874	2.66031	1.93132
N	147.816	0.899577	0.178181
C	146.837	0.0364797	-0.432381
C	147.008	-1.35099	0.154913
O	148.013	-1.64052	0.801089
H	148.588	0.435865	0.604408
H	145.847	0.385678	-0.16831
C	147.008	-0.0114277	-1.96713
H	148.025	-0.369442	-2.23448
H	146.256	-0.674997	-2.44048
H	146.882	1.01109	-2.38502
N	146.013	-2.23898	-0.0392878
C	146.083	-3.57998	0.49276
H	145.205	-1.98332	-0.558928
H	145.17	-4.15715	0.224843
H	146.17	-3.55803	1.60323
H	146.97	-4.11821	0.0872656
