44
  This energy is 6.1022e-320 and Call times are: 101331
C	-2.16329	-2.49165	-1.11265
C	-1.9059	-1.14193	-0.562003
O	-2.81024	-0.32822	-0.433382
H	-3.24239	-2.58679	-1.36237
H	-1.898	-3.26732	-0.363807
H	-1.56567	-2.64916	-2.03514
N	-0.643035	-0.869852	-0.225093
C	-0.236544	0.399151	0.323748
C	1.25541	0.548131	0.0976469
O	1.94042	-0.417536	-0.234141
H	0.0898062	-1.53104	-0.361851
H	-0.732564	1.19291	-0.220289
C	-0.556686	0.487896	1.83264
H	-0.0467751	-0.328261	2.38761
H	-0.245122	1.46381	2.25842
H	-1.65234	0.376142	1.98498
N	1.79162	1.77477	0.252032
C	3.20097	2.01472	0.0462479
H	1.21939	2.54496	0.513941
H	3.44757	3.08488	0.222871
H	3.49568	1.75458	-0.996207
H	3.81101	1.39473	0.742411
C	4799.52	3.25458	-1.12249
C	4798.69	2.0393	-0.997928
O	4797.52	2.03111	-1.3736
H	4798.92	4.07027	-1.57708
H	4800.4	3.05086	-1.77261
H	4799.87	3.58221	-0.121235
N	4799.27	0.970375	-0.452633
C	4798.59	-0.28442	-0.265195
C	4799.33	-1.06251	0.805588
O	4800.45	-0.721593	1.1663
H	4800.21	0.998415	-0.123849
H	4797.59	-0.0891738	0.10154
C	4798.54	-1.09991	-1.57659
H	4799.57	-1.29783	-1.95035
H	4798.01	-2.06663	-1.43586
H	4798	-0.518623	-2.35315
N	4798.7	-2.11976	1.35653
C	4799.32	-2.91292	2.39136
H	4797.79	-2.37539	1.0561
H	4798.65	-3.73707	2.71335
H	4799.56	-2.28424	3.28074
H	4800.27	-3.36123	2.0248
