44
  This energy is 4.28454e-320 and Call times are: 119685
C	1.35542	-1.47886	2.84639
C	0.617291	-0.386685	2.17296
O	0.0802953	0.504446	2.8164
H	1.31089	-1.32817	3.94692
H	2.41854	-1.47638	2.52609
H	0.897483	-2.45973	2.59912
N	0.569661	-0.437236	0.839711
C	-0.110322	0.553174	0.0437587
C	-0.411977	-0.0628164	-1.30857
O	0.127595	-1.11161	-1.65602
H	0.986345	-1.1842	0.32848
H	-1.05543	0.793966	0.513722
C	0.752149	1.82305	-0.131365
H	1.72122	1.57228	-0.613157
H	0.231505	2.5878	-0.743629
H	0.96715	2.26404	0.866358
N	-1.30368	0.567945	-2.09788
C	-1.66231	0.0492654	-3.39731
H	-1.7349	1.41177	-1.7958
H	-2.40786	0.709845	-3.89233
H	-2.10323	-0.969761	-3.30557
H	-0.765025	-0.0206321	-4.05395
C	5664.02	-1.31457	0.549591
C	5665.16	-0.984094	-0.340283
O	5665.18	-1.35715	-1.50515
H	5663.28	-1.91755	-0.0139842
H	5663.53	-0.38412	0.908217
H	5664.38	-1.90464	1.4206
N	5666.15	-0.269293	0.201181
C	5667.32	0.129862	-0.537736
C	5668.42	0.440237	0.461147
O	5668.16	0.578058	1.65552
H	5666.13	0.00377309	1.15939
H	5667.65	-0.702109	-1.14498
C	5667.03	1.36842	-1.41649
H	5666.69	2.21981	-0.790407
H	5667.93	1.67837	-1.98694
H	5666.23	1.12848	-2.14305
N	5669.68	0.536189	-0.0052497
C	5670.79	0.81702	0.873411
H	5669.87	0.414333	-0.974113
H	5671.74	0.858032	0.301261
H	5670.88	0.0271969	1.65361
H	5670.65	1.79502	1.38754
