44
  This energy is 3.57704e-320 and Call times are: 74829
C	1.21065	-3.24746	-0.338353
C	0.124529	-2.24646	-0.436125
O	-0.952899	-2.52949	-0.941636
H	0.86786	-4.20613	-0.784781
H	1.47615	-3.42119	0.72567
H	2.1074	-2.8945	-0.889896
N	0.392102	-1.03182	0.0490657
C	-0.56321	0.0469203	0.0260902
C	0.202166	1.34983	0.152091
O	1.3815	1.35496	0.499905
H	1.28371	-0.805316	0.432046
H	-1.06537	0.0518446	-0.933014
C	-1.58534	-0.0822814	1.17747
H	-1.06672	-0.0876796	2.15987
H	-2.3225	0.746662	1.16265
H	-2.13853	-1.04119	1.07445
N	-0.449787	2.4896	-0.151002
C	0.201245	3.77648	-0.071702
H	-1.40191	2.46397	-0.437415
H	-0.500588	4.59055	-0.358015
H	1.08015	3.81492	-0.755285
H	0.560949	3.97182	0.964461
C	3545.05	-2.36864	-1.76033
C	3545.23	-1.00966	-1.20118
O	3544.44	-0.112964	-1.45333
H	3544.14	-2.38746	-2.39652
H	3544.93	-3.10729	-0.939948
H	3545.93	-2.64508	-2.38168
N	3546.3	-0.824673	-0.420996
C	3546.6	0.440982	0.195788
C	3548.08	0.442291	0.546337
O	3548.73	-0.601198	0.532892
H	3546.95	-1.5555	-0.246685
H	3546.44	1.23279	-0.523174
C	3545.76	0.668053	1.46697
H	3545.93	-0.146407	2.2021
H	3545.99	1.64176	1.94433
H	3544.68	0.663753	1.19694
N	3548.65	1.62553	0.848912
C	3550.05	1.72592	1.18377
H	3548.11	2.45985	0.84732
H	3550.33	2.78059	1.40276
H	3550.68	1.3651	0.340391
H	3550.29	1.108	2.08047
