44
  This energy is 8.94951e-320 and Call times are: 121491
C	-0.505276	-3.42404	-0.383136
C	-0.091692	-2.25117	0.41969
O	0.180034	-2.36159	1.60732
H	-0.519111	-4.32673	0.265562
H	0.211242	-3.5902	-1.21489
H	-1.52261	-3.26426	-0.79841
N	-0.040272	-1.08161	-0.22206
C	0.344662	0.147959	0.42356
C	-0.195111	1.29782	-0.404514
O	-0.61157	1.10926	-1.54593
H	-0.292144	-0.99953	-1.18266
H	-0.124657	0.195625	1.398
C	1.8804	0.259757	0.550576
H	2.35867	0.209824	-0.450862
H	2.18026	1.20529	1.0474
H	2.26353	-0.588824	1.15825
N	-0.22025	2.51951	0.163673
C	-0.727705	3.67176	-0.544142
H	0.114653	2.65036	1.09101
H	-0.662546	4.5831	0.0902586
H	-1.79366	3.51919	-0.829988
H	-0.142675	3.8501	-1.47533
C	5750.8	2.45792	0.549798
C	5751.92	1.89091	-0.221745
O	5752.28	2.38663	-1.28289
H	5750.38	3.33413	0.00497772
H	5751.14	2.78899	1.55062
H	5749.99	1.69851	0.670331
N	5752.52	0.817122	0.301786
C	5753.63	0.153836	-0.331234
C	5753.71	-1.2568	0.219741
O	5753.08	-1.57342	1.22618
H	5752.2	0.405169	1.15241
H	5753.44	0.0818634	-1.39425
C	5754.96	0.900452	-0.0648505
H	5755.15	0.973058	1.02664
H	5755.82	0.392494	-0.550975
H	5754.89	1.9327	-0.472109
N	5754.47	-2.14707	-0.444579
C	5754.59	-3.5161	-0.001046
H	5754.97	-1.87331	-1.26111
H	5755.27	-4.08953	-0.677244
H	5753.6	-4.01639	0.0109529
H	5755.01	-3.55895	1.02979
