44
  This energy is 9.43418e-320 and Call times are: 121701
C	-1.48895	-2.0978	-2.347
C	-0.951928	-0.782132	-1.93246
O	-0.839316	0.135865	-2.73315
H	-1.73309	-2.06977	-3.43119
H	-2.41257	-2.33095	-1.77659
H	-0.734344	-2.89267	-2.16896
N	-0.597742	-0.663358	-0.650741
C	-0.0597395	0.553987	-0.0980637
C	0.69276	0.197627	1.16921
O	0.55576	-0.906733	1.69214
H	-0.667109	-1.42753	-0.0150006
H	0.652997	0.972883	-0.797068
C	-1.17893	1.57149	0.216948
H	-1.90868	1.13824	0.933793
H	-0.768142	2.51006	0.64252
H	-1.72331	1.82341	-0.719176
N	1.52683	1.12345	1.68223
C	2.29392	0.868922	2.8793
H	1.62935	2.00861	1.2404
H	2.91782	1.75162	3.14166
H	2.968	-0.00635944	2.73528
H	1.61997	0.64798	3.73846
C	5763.36	3.02761	-1.7129
C	5762.68	2.08405	-0.798357
O	5761.67	2.4098	-0.192175
H	5762.81	3.99439	-1.71889
H	5763.38	2.61684	-2.74433
H	5764.4	3.20741	-1.37122
N	5763.23	0.875347	-0.673469
C	5762.68	-0.150397	0.17809
C	5763.79	-1.1424	0.482277
O	5764.84	-1.13709	-0.165603
H	5764.07	0.631858	-1.15027
H	5762.38	0.296945	1.11481
C	5761.5	-0.869798	-0.499724
H	5761.82	-1.32698	-1.4607
H	5761.07	-1.66014	0.153302
H	5760.69	-0.132168	-0.718418
N	5763.59	-2.00758	1.49632
C	5764.59	-2.98025	1.86615
H	5762.74	-1.99134	2.01328
H	5764.24	-3.59999	2.72081
H	5765.54	-2.47494	2.1646
H	5764.82	-3.65763	1.0107
