44
  This energy is 4.97722e-320 and Call times are: 44379
C	-3.08179	-1.27041	-1.00736
C	-2.04321	-0.215663	-1.01543
O	-2.126	0.747859	-1.76461
H	-3.86377	-1.0216	-1.75733
H	-3.55352	-1.33514	-0.00431363
H	-2.63279	-2.25185	-1.26836
N	-1.02258	-0.381952	-0.17102
C	0.0640247	0.558544	-0.0633764
C	1.24508	-0.16298	0.556104
O	1.09964	-1.25741	1.09732
H	-0.95175	-1.18589	0.413451
H	0.355785	0.874331	-1.05697
C	-0.329208	1.77557	0.80342
H	-0.628594	1.44792	1.82182
H	0.50514	2.50182	0.888266
H	-1.19608	2.29475	0.339602
N	2.45324	0.427854	0.470934
C	3.63705	-0.190049	1.02137
H	2.55157	1.31027	0.0227103
H	4.53012	0.451099	0.852267
H	3.82114	-1.18017	0.544898
H	3.52304	-0.350455	2.11793
C	2108.8	2.28465	-0.799269
C	2107.89	1.63866	0.172651
O	2107.98	1.86436	1.3715
H	2109.52	2.9426	-0.254632
H	2108.22	2.90056	-1.51726
H	2109.38	1.51463	-1.35479
N	2106.98	0.802146	-0.332479
C	2106.03	0.0990627	0.486127
C	2105.54	-1.10101	-0.299055
O	2105.75	-1.19489	-1.50566
H	2106.94	0.60425	-1.30804
H	2106.53	-0.270429	1.37218
C	2104.84	1.00785	0.869129
H	2104.33	1.38566	-0.0422124
H	2104.1	0.469667	1.49959
H	2105.21	1.8837	1.44276
N	2104.88	-2.06219	0.376745
C	2104.38	-3.24659	-0.284915
H	2104.72	-1.97117	1.35426
H	2103.86	-3.91524	0.439455
H	2105.22	-3.81464	-0.752347
H	2103.66	-2.97493	-1.08732
