44
  This energy is 2.16994e-320 and Call times are: 99777
C	-1.11774	-3.09534	-1.13828
C	-0.222177	-2.26031	-0.306468
O	0.532812	-2.76511	0.513082
H	-0.971641	-4.16546	-0.874927
H	-0.882005	-2.95463	-2.21413
H	-2.17777	-2.82122	-0.953528
N	-0.292992	-0.941147	-0.499201
C	0.515236	0.000363467	0.233707
C	-0.163431	1.35427	0.158975
O	-1.06914	1.55979	-0.646803
H	-0.933028	-0.54021	-1.14923
H	0.544129	-0.296098	1.27455
C	1.94337	0.0890673	-0.349109
H	1.90997	0.392782	-1.41717
H	2.56844	0.813033	0.212971
H	2.42926	-0.909192	-0.289642
N	0.247197	2.30762	1.01834
C	-0.348798	3.62324	1.02853
H	0.976728	2.11959	1.6677
H	0.125759	4.26394	1.80414
H	-1.43948	3.55878	1.2465
H	-0.223211	4.11933	0.0389356
C	4726.9	-2.90836	0.225756
C	4726.63	-1.49842	0.586855
O	4727.28	-0.931289	1.45283
H	4727.73	-3.29564	0.853942
H	4727.2	-2.9802	-0.842703
H	4726	-3.52879	0.40318
N	4725.64	-0.895037	-0.0772904
C	4725.26	0.474214	0.161846
C	4723.85	0.658891	-0.343608
O	4723.32	-0.184462	-1.06923
H	4725.1	-1.3767	-0.760081
H	4725.26	0.656828	1.22895
C	4726.21	1.4563	-0.556345
H	4726.22	1.26571	-1.65078
H	4725.92	2.51152	-0.374201
H	4727.25	1.31017	-0.178139
N	4723.18	1.76356	0.0488105
C	4721.82	2.0181	-0.372619
H	4723.62	2.43071	0.641998
H	4721.45	2.97654	0.0530449
H	4721.15	1.1997	-0.0346614
H	4721.76	2.08046	-1.48324
