44
  This energy is 1.75838e-320 and Call times are: 31401
C	2.49224	2.30272	0.782525
C	1.07629	1.95269	0.530008
O	0.18114	2.76589	0.714174
H	2.55226	3.35223	1.14419
H	3.08183	2.21105	-0.153847
H	2.92062	1.63099	1.55597
N	0.839888	0.710783	0.100889
C	-0.484833	0.222621	-0.18832
C	-0.445396	-1.2922	-0.133655
O	0.627213	-1.8933	-0.128104
H	1.57494	0.048489	-0.0174157
H	-1.16166	0.562185	0.585421
C	-0.965861	0.691686	-1.57962
H	-0.268874	0.342167	-2.37092
H	-1.98562	0.317701	-1.80545
H	-0.989215	1.80292	-1.60709
N	-1.6219	-1.94624	-0.0696846
C	-1.68239	-3.38777	-0.00260392
H	-2.47894	-1.44155	-0.0680634
H	-2.73805	-3.7354	0.0421084
H	-1.15167	-3.76156	0.902857
H	-1.20071	-3.84348	-0.897865
C	1494.7	-1.13429	1.34722
C	1493.23	-1.1774	1.23674
O	1492.58	-2.05155	1.79261
H	1495.05	-1.98495	1.97351
H	1495.02	-0.183736	1.82327
H	1495.17	-1.2174	0.340892
N	1492.66	-0.220607	0.498666
C	1491.24	-0.12973	0.297845
C	1490.99	0.694479	-0.951564
O	1491.9	1.35796	-1.4527
H	1493.2	0.468873	0.0269809
H	1490.84	-1.12207	0.118988
C	1490.54	0.525335	1.51039
H	1490.95	1.54293	1.69144
H	1489.44	0.596737	1.35916
H	1490.72	-0.0872542	2.41933
N	1489.76	0.653459	-1.49814
C	1489.44	1.39619	-2.69468
H	1489.05	0.104923	-1.08173
H	1488.38	1.23424	-2.98547
H	1490.09	1.07523	-3.54191
H	1489.6	2.48737	-2.5339
