44
  This energy is 7.01474e-320 and Call times are: 63447
C	0.928328	0.965262	-3.21444
C	0.729126	1.25177	-1.77588
O	1.0922	2.31225	-1.28593
H	1.43287	1.83148	-3.69502
H	-0.0509748	0.799206	-3.71063
H	1.56399	0.0636487	-3.34081
N	0.142715	0.292575	-1.05586
C	-0.119173	0.423962	0.355163
C	-0.287233	-0.969263	0.929547
O	-0.444991	-1.9391	0.190384
H	-0.122138	-0.578608	-1.46061
H	0.7417	0.874837	0.832325
C	-1.39019	1.26288	0.615639
H	-2.27127	0.797832	0.124163
H	-1.5947	1.36616	1.70113
H	-1.25485	2.28066	0.189099
N	-0.235102	-1.10349	2.26942
C	-0.373199	-2.39282	2.90561
H	-0.0995415	-0.307493	2.85016
H	-0.304327	-2.29505	4.01148
H	0.428596	-3.0871	2.56454
H	-1.35694	-2.85159	2.65469
C	3006.32	2.43704	0.192616
C	3007.64	1.9612	-0.266337
O	3008.32	2.61991	-1.04707
H	3006.1	3.4158	-0.284497
H	3006.32	2.5667	1.29534
H	3005.53	1.70909	-0.0928615
N	3008.05	0.783023	0.213006
C	3009.31	0.18873	-0.140541
C	3009.22	-1.29952	0.135139
O	3008.3	-1.75865	0.808816
H	3007.48	0.242283	0.825698
H	3009.48	0.316993	-1.20291
C	3010.47	0.809057	0.670556
H	3010.3	0.676266	1.75999
H	3011.45	0.353842	0.400704
H	3010.53	1.89949	0.460754
N	3010.17	-2.09396	-0.40141
C	3010.16	-3.52453	-0.202661
H	3010.9	-1.70415	-0.949564
H	3011.02	-4.00094	-0.721022
H	3009.22	-3.96884	-0.603485
H	3010.22	-3.77125	0.88191
