44
  This energy is 1.24643e-319 and Call times are: 59415
C	-1.19586	2.41156	2.20917
C	-0.675965	2.00315	0.884741
O	-0.65315	2.78629	-0.054765
H	-1.53076	3.47054	2.16165
H	-0.399398	2.32068	2.97742
H	-2.059	1.77412	2.49483
N	-0.24549	0.743812	0.779283
C	0.287985	0.199983	-0.444025
C	0.181384	-1.31067	-0.367807
O	-0.0563803	-1.87094	0.700553
H	-0.296307	0.106947	1.54398
H	-0.324374	0.531544	-1.27298
C	1.76071	0.618897	-0.65066
H	2.38595	0.277745	0.201875
H	2.17457	0.201985	-1.59177
H	1.82544	1.72757	-0.703648
N	0.334393	-2.00661	-1.51159
C	0.237794	-3.4475	-1.53806
H	0.51917	-1.53443	-2.36724
H	0.394647	-3.83326	-2.56949
H	-0.766215	-3.78044	-1.18827
H	1.00471	-3.90516	-0.872058
C	2820.14	-0.354586	-2.24484
C	2818.74	-0.595689	-1.83539
O	2817.94	-1.12135	-2.59712
H	2820.28	-0.712237	-3.28742
H	2820.83	-0.905912	-1.57615
H	2820.37	0.730847	-2.202
N	2818.4	-0.204075	-0.603453
C	2817.08	-0.371332	-0.062134
C	2816.91	0.610065	1.0822
O	2817.89	1.1835	1.56244
H	2819.06	0.249432	-0.00289319
H	2816.35	-0.113341	-0.822728
C	2816.85	-1.81512	0.440134
H	2817.6	-2.07669	1.21981
H	2815.83	-1.94743	0.857455
H	2816.98	-2.52434	-0.407165
N	2815.67	0.842963	1.53281
C	2815.41	1.7702	2.61082
H	2814.89	0.3744	1.1263
H	2814.32	1.82225	2.83708
H	2815.76	2.79243	2.34053
H	2815.95	1.45434	3.53516
