44
  This energy is 3.74057e-320 and Call times are: 119475
C	2.27155	-1.67577	-2.03912
C	1.12505	-1.66443	-1.10283
O	0.488945	-2.68293	-0.86937
H	2.40538	-2.70263	-2.44347
H	3.20014	-1.37387	-1.51054
H	2.08368	-0.978885	-2.88292
N	0.829062	-0.48961	-0.541978
C	-0.257555	-0.319718	0.389272
C	-0.627871	1.15055	0.409942
O	0.116309	1.99327	-0.0878995
H	1.33664	0.339019	-0.762605
H	-1.11776	-0.870577	0.0305566
C	0.138615	-0.787784	1.8074
H	1.02179	-0.221077	2.17202
H	-0.695836	-0.658503	2.52695
H	0.408746	-1.8659	1.77853
N	-1.80487	1.49088	0.97106
C	-2.24656	2.86496	1.02588
H	-2.39639	0.793489	1.36218
H	-3.23698	2.93997	1.52655
H	-2.33953	3.28898	-0.000181998
H	-1.51876	3.48946	1.59289
C	5656.15	2.66636	-1.98031
C	5656.18	1.2248	-1.64483
O	5655.46	0.427683	-2.22886
H	5655.41	2.84354	-2.78786
H	5657.15	2.99295	-2.33458
H	5655.86	3.26226	-1.089
N	5657.02	0.855081	-0.675413
C	5657.15	-0.511233	-0.237706
C	5657.75	-0.496922	1.15502
O	5658.26	0.525703	1.60969
H	5657.58	1.51824	-0.187202
H	5656.17	-0.957702	-0.167796
C	5658.05	-1.32189	-1.1957
H	5659.06	-0.860706	-1.26558
H	5658.16	-2.37445	-0.861714
H	5657.6	-1.32376	-2.21264
N	5657.69	-1.63339	1.87609
C	5658.22	-1.7106	3.21611
H	5657.26	-2.44833	1.49317
H	5658.07	-2.72763	3.64097
H	5657.71	-0.974455	3.8829
H	5659.31	-1.4868	3.21822
