44
  This energy is 1.14065e-319 and Call times are: 46815
C	3.09252	-0.649169	1.46323
C	2.22447	0.115026	0.539268
O	2.63773	1.11079	-0.0387947
H	4.09164	-0.164357	1.51396
H	3.21651	-1.69049	1.09839
H	2.64851	-0.664764	2.48085
N	0.97907	-0.339874	0.383027
C	0.017528	0.295732	-0.481999
C	-1.3665	-0.132431	-0.0343492
O	-1.51274	-1.07635	0.739899
H	0.645341	-1.13528	0.881917
H	0.086551	1.36883	-0.356421
C	0.243441	-0.097303	-1.95902
H	0.172605	-1.19887	-2.08412
H	-0.49514	0.390479	-2.62786
H	1.26107	0.220695	-2.27438
N	-2.41868	0.570666	-0.49757
C	-3.77288	0.243535	-0.116368
H	-2.27917	1.33568	-1.11767
H	-4.49611	0.934976	-0.602263
H	-3.90018	0.322382	0.987632
H	-4.02579	-0.79824	-0.419544
C	2223.74	3.01636	-0.973267
C	2223.67	1.83702	-0.0817497
O	2224.53	1.62874	0.764756
H	2224.66	3.60168	-0.732403
H	2222.85	3.66357	-0.826751
H	2223.79	2.69189	-2.034
N	2222.62	1.02361	-0.260401
C	2222.41	-0.163331	0.529467
C	2221.49	-1.08323	-0.247815
O	2220.87	-0.669428	-1.22188
H	2221.95	1.18844	-0.972848
H	2223.36	-0.674547	0.654792
C	2221.79	0.177121	1.90163
H	2220.82	0.702071	1.76933
H	2221.63	-0.734537	2.51246
H	2222.48	0.852357	2.46062
N	2221.41	-2.36629	0.154831
C	2220.56	-3.31786	-0.53132
H	2221.93	-2.68367	0.941052
H	2220.63	-4.31811	-0.0488095
H	2220.87	-3.42219	-1.59594
H	2219.5	-2.98582	-0.513517
