44
  This energy is 1.48126e-319 and Call times are: 66681
C	-2.30944	-1.41832	2.18655
C	-1.17194	-0.515154	1.90092
O	-0.743503	0.251334	2.75264
H	-2.6537	-1.25635	3.23111
H	-1.99543	-2.47712	2.07178
H	-3.15068	-1.20541	1.49378
N	-0.654246	-0.583829	0.672242
C	0.454787	0.231068	0.244671
C	0.436344	0.285069	-1.27058
O	-0.258438	-0.495126	-1.91897
H	-1.03089	-1.19159	-0.0218047
H	0.312361	1.23964	0.611518
C	1.80012	-0.345522	0.739393
H	1.94267	-1.3805	0.361759
H	2.65619	0.279598	0.412059
H	1.8005	-0.380944	1.85065
N	1.18809	1.22825	-1.87165
C	1.22413	1.36297	-3.30927
H	1.73792	1.8549	-1.32922
H	1.90049	2.1934	-3.60957
H	0.206722	1.57748	-3.7094
H	1.59046	0.423539	-3.78303
C	3160.94	-0.36116	2.92247
C	3161.37	-0.828907	1.58374
O	3161.03	-1.92835	1.16297
H	3160.33	-1.14923	3.40894
H	3160.33	0.563098	2.82969
H	3161.83	-0.156466	3.55606
N	3162.13	0.00888824	0.877023
C	3162.62	-0.30413	-0.441309
C	3163.82	0.579555	-0.713014
O	3164.06	1.54907	0.00338858
H	3162.42	0.889838	1.24265
H	3162.96	-1.33258	-0.455979
C	3161.53	-0.0700442	-1.51578
H	3161.19	0.985841	-1.49749
H	3161.91	-0.310245	-2.53207
H	3160.66	-0.722222	-1.30482
N	3164.62	0.249732	-1.74833
C	3165.79	1.02559	-2.07554
H	3164.41	-0.542727	-2.31189
H	3166.31	0.595978	-2.95901
H	3166.5	1.03915	-1.21974
H	3165.51	2.07865	-2.31013
