44
  This energy is 1.55631e-321 and Call times are: 909
C	-2.48564	2.28968	-0.839689
C	-1.5813	1.16773	-1.17822
O	-1.67285	0.582295	-2.24844
H	-3.19335	2.4575	-1.68044
H	-1.89868	3.21739	-0.673452
H	-3.06596	2.05067	0.0763118
N	-0.676881	0.835508	-0.254088
C	0.271848	-0.23361	-0.437735
C	0.756971	-0.666444	0.932136
O	0.541217	0.0278559	1.92372
H	-0.631425	1.3011	0.62574
H	-0.232738	-1.07799	-0.889942
C	1.46709	0.218032	-1.30638
H	1.98202	1.08482	-0.839867
H	2.19947	-0.602819	-1.44991
H	1.09835	0.533662	-2.30666
N	1.40877	-1.84252	1.02163
C	1.89685	-2.34162	2.28609
H	1.56725	-2.39332	0.208777
H	2.40601	-3.32143	2.152
H	1.05684	-2.47866	3.00502
H	2.62368	-1.62742	2.73643
C	52.616	3.16883	-0.282385
C	51.4857	2.27333	0.0518718
O	50.4688	2.70678	0.575956
H	52.3641	4.20773	0.0227797
H	52.807	3.15187	-1.37602
H	53.5315	2.8476	0.257509
N	51.6451	0.981339	-0.244308
C	50.6347	-0.0116518	0.0202346
C	51.3126	-1.36746	0.0582553
O	52.459	-1.5091	-0.363183
H	52.4897	0.635872	-0.644486
H	50.2095	0.171071	0.998954
C	49.5348	0.00211784	-1.06471
H	49.9746	-0.184988	-2.06755
H	48.7551	-0.761176	-0.864009
H	49.0467	1.00091	-1.08325
N	50.6226	-2.39672	0.587902
C	51.1913	-3.72143	0.677006
H	49.6988	-2.26032	0.930139
H	50.4688	-4.42918	1.14004
H	52.1173	-3.71062	1.2964
H	51.4573	-4.10388	-0.334999
