44
  This energy is 1.49149e-319 and Call times are: 123969
C	2.46798	-2.25588	-0.972739
C	1.9453	-1.20991	-0.0650168
O	2.53475	-0.914378	0.965376
H	3.40864	-2.67179	-0.550786
H	2.6832	-1.82249	-1.97208
H	1.72747	-3.07659	-1.07778
N	0.804302	-0.622073	-0.432349
C	0.172325	0.412952	0.346211
C	-1.28897	0.47077	-0.0544279
O	-1.68546	-0.0986346	-1.06952
H	0.318392	-0.892049	-1.25936
H	0.215812	0.141705	1.3934
C	0.843008	1.78439	0.108603
H	0.79719	2.05923	-0.966794
H	0.35894	2.58361	0.706684
H	1.91319	1.72849	0.404805
N	-2.13174	1.14656	0.751206
C	-3.54228	1.24546	0.456628
H	-1.7928	1.59458	1.57196
H	-4.06578	1.84244	1.23561
H	-4.00759	0.233874	0.418724
H	-3.70428	1.73718	-0.529853
C	5870.82	3.33825	-0.915945
C	5871.14	2.28981	0.0777032
O	5871.59	2.57855	1.17893
H	5871.06	4.33627	-0.48689
H	5869.74	3.30318	-1.17125
H	5871.42	3.19152	-1.8372
N	5870.93	1.02785	-0.299357
C	5871.19	-0.100714	0.556668
C	5871.34	-1.32803	-0.321938
O	5870.98	-1.30375	-1.49911
H	5870.59	0.803967	-1.20977
H	5872.14	0.0553685	1.06205
C	5870.05	-0.310912	1.57944
H	5869.09	-0.470068	1.05757
H	5870.25	-1.17902	2.24028
H	5869.96	0.595456	2.21607
N	5871.88	-2.42946	0.228163
C	5872.07	-3.64125	-0.534856
H	5872.17	-2.42696	1.18048
H	5872.54	-4.43375	0.0937067
H	5872.74	-3.45531	-1.40968
H	5871.1	-4.02116	-0.916549
