44
  This energy is 8.51819e-320 and Call times are: 76761
C	2.55963	-0.898218	2.18349
C	1.24375	-0.280333	1.90442
O	0.52044	0.104871	2.81268
H	2.72188	-0.936146	3.28262
H	3.37043	-0.296856	1.72111
H	2.59046	-1.93214	1.77975
N	0.897949	-0.176644	0.619102
C	-0.350145	0.401879	0.189682
C	-0.639225	-0.101081	-1.21128
O	0.236122	-0.655597	-1.87318
H	1.48317	-0.520693	-0.110334
H	-1.14298	0.0479365	0.836371
C	-0.286745	1.94559	0.197409
H	0.528102	2.30523	-0.466515
H	-1.24619	2.39431	-0.132573
H	-0.0732598	2.30136	1.22891
N	-1.88863	0.0628412	-1.68889
C	-2.2596	-0.394947	-3.0076
H	-2.58489	0.507614	-1.13514
H	-3.32801	-0.167	-3.21689
H	-2.11197	-1.49558	-3.09736
H	-1.63607	0.101646	-3.78592
C	3636.58	2.59314	0.202823
C	3637.06	1.24121	0.57297
O	3636.5	0.587727	1.44016
H	3635.7	2.85533	0.826115
H	3636.29	2.61475	-0.866958
H	3637.38	3.3424	0.37949
N	3638.13	0.788604	-0.0845279
C	3638.71	-0.507246	0.163771
C	3640.14	-0.480967	-0.336117
O	3640.54	0.427223	-1.06498
H	3638.6	1.34228	-0.76839
H	3638.74	-0.681455	1.23193
C	3637.92	-1.62423	-0.5517
H	3637.89	-1.442	-1.64723
H	3638.36	-2.62337	-0.362506
H	3636.87	-1.63223	-0.177625
N	3640.96	-1.47199	0.0648182
C	3642.34	-1.52327	-0.35083
H	3640.63	-2.19397	0.660488
H	3642.85	-2.41339	0.0815713
H	3642.89	-0.611352	-0.0155039
H	3642.42	-1.58159	-1.46087
