44
  This energy is 7.97076e-320 and Call times are: 76551
C	-0.295165	-0.855814	3.36253
C	-0.813359	-0.827877	1.9762
O	-1.83184	-1.43204	1.66932
H	-0.961628	-1.48554	3.99112
H	-0.270538	0.171717	3.78252
H	0.728073	-1.28665	3.38018
N	-0.107177	-0.117756	1.09337
C	-0.48451	0.00455637	-0.29209
C	0.749495	0.40398	-1.07754
O	1.75768	0.80838	-0.501464
H	0.736804	0.346101	1.34923
H	-0.806986	-0.962861	-0.655665
C	-1.59851	1.05837	-0.48075
H	-1.26456	2.04945	-0.106107
H	-1.89156	1.15499	-1.54638
H	-2.49639	0.754832	0.100468
N	0.704809	0.278131	-2.4185
C	1.83595	0.622792	-3.2479
H	-0.117793	-0.05775	-2.86542
H	1.60259	0.451929	-4.32196
H	2.72296	0.00448844	-2.9793
H	2.10905	1.69462	-3.11455
C	3627.55	-1.05726	3.03101
C	3627.69	-1.16588	1.56174
O	3627.2	-2.09877	0.944931
H	3626.96	-1.92214	3.40742
H	3627.02	-0.118877	3.29506
H	3628.55	-1.06441	3.51504
N	3628.39	-0.199922	0.961289
C	3628.62	-0.16763	-0.461652
C	3629.83	0.708945	-0.721591
O	3630.28	1.44117	0.159416
H	3628.82	0.539107	1.47836
H	3628.86	-1.16701	-0.802816
C	3627.39	0.38761	-1.21399
H	3627.15	1.41271	-0.861053
H	3627.56	0.413712	-2.3099
H	3626.51	-0.262567	-1.01446
N	3630.4	0.637368	-1.93878
C	3631.57	1.42609	-2.27352
H	3630.03	0.0334015	-2.63596
H	3631.89	1.22856	-3.31997
H	3632.41	1.18231	-1.59441
H	3631.34	2.51354	-2.17374
