44
  This energy is 1.8567e-320 and Call times are: 61473
C	2.85913	0.829399	-1.80654
C	2.14487	0.00316866	-0.807352
O	2.66905	-0.985478	-0.313072
H	3.86495	0.393706	-1.99194
H	2.98079	1.8664	-1.42885
H	2.29394	0.848299	-2.76213
N	0.909063	0.394828	-0.488384
C	0.0892473	-0.306005	0.467422
C	-1.35657	0.0668315	0.203161
O	-1.63766	1.02101	-0.519584
H	0.482234	1.18526	-0.919622
H	0.189584	-1.37133	0.30286
C	0.476294	0.0618654	1.91724
H	0.372848	1.15555	2.08238
H	-0.152907	-0.476125	2.65579
H	1.53782	-0.215119	2.09778
N	-2.31235	-0.696081	0.76925
C	-3.71604	-0.424313	0.564339
H	-2.06464	-1.46825	1.34513
H	-4.34339	-1.16058	1.11351
H	-3.9736	-0.482688	-0.518018
H	-3.97565	0.596802	0.926424
C	2915.65	-1.59535	2.97563
C	2915.8	-0.486478	2.00566
O	2916.48	0.492587	2.26169
H	2916.24	-1.36116	3.89089
H	2916.04	-2.54036	2.53598
H	2914.59	-1.72347	3.25496
N	2915.13	-0.616674	0.853542
C	2915.18	0.377753	-0.18866
C	2913.96	0.17864	-1.07181
O	2913.29	-0.849665	-0.996566
H	2914.55	-1.40561	0.668707
H	2915.1	1.36039	0.259338
C	2916.47	0.258449	-1.02835
H	2916.54	-0.751052	-1.48592
H	2916.5	1.02278	-1.83166
H	2917.35	0.405043	-0.36974
N	2913.63	1.17427	-1.919
C	2912.48	1.07874	-2.78983
H	2914.18	2.00158	-1.96
H	2912.38	1.99623	-3.41066
H	2911.55	0.953847	-2.1958
H	2912.58	0.202722	-3.47149
