44
  This energy is 6.51771e-320 and Call times are: 69915
C	-2.01995	-0.772477	2.72932
C	-1.83833	-0.334988	1.32689
O	-2.79643	-0.191449	0.579936
H	-3.10233	-0.930921	2.92739
H	-1.63724	0.00379755	3.42484
H	-1.4789	-1.72587	2.90609
N	-0.581967	-0.115883	0.932034
C	-0.24549	0.313657	-0.401797
C	1.20854	-0.0367982	-0.65124
O	1.94688	-0.355279	0.27895
H	0.192257	-0.264441	1.5415
H	-0.844345	-0.242221	-1.11204
C	-0.462912	1.83348	-0.574949
H	0.152418	2.40066	0.155661
H	-0.204921	2.16757	-1.60091
H	-1.5315	2.07737	-0.388431
N	1.64922	-0.0068543	-1.92439
C	3.01494	-0.336789	-2.25924
H	1.03441	0.24646	-2.66404
H	3.18256	-0.251817	-3.35556
H	3.25498	-1.37919	-1.94774
H	3.72339	0.349954	-1.74187
C	3316.64	0.736059	3.39497
C	3317.15	0.0928587	2.16303
O	3318.25	-0.444556	2.13814
H	3317.4	0.63834	4.20134
H	3315.7	0.242939	3.72361
H	3316.45	1.81408	3.21215
N	3316.35	0.140328	1.09491
C	3316.71	-0.440753	-0.174762
C	3315.87	0.225387	-1.24506
O	3314.89	0.906085	-0.94196
H	3315.47	0.606498	1.11969
H	3317.75	-0.215759	-0.385696
C	3316.47	-1.96688	-0.182377
H	3315.4	-2.19414	0.0350206
H	3316.74	-2.41755	-1.15849
H	3317.09	-2.44291	0.606751
N	3316.24	0.0610235	-2.52873
C	3315.51	0.667465	-3.61458
H	3317.04	-0.487642	-2.75316
H	3315.97	0.413987	-4.59314
H	3315.49	1.77653	-3.50937
H	3314.45	0.309698	-3.62368
