44
  This energy is 1.50818e-319 and Call times are: 60423
C	-1.62721	-3.04428	0.458974
C	-1.40206	-1.62327	0.807172
O	-2.1258	-1.04554	1.60649
H	-2.50877	-3.42453	1.01944
H	-0.738377	-3.65074	0.732827
H	-1.8223	-3.1455	-0.629437
N	-0.378829	-1.01866	0.199051
C	-0.0340143	0.360632	0.434597
C	0.784753	0.844422	-0.746421
O	1.25625	0.0458249	-1.55374
H	0.185571	-1.49191	-0.472083
H	-0.9419	0.949406	0.468696
C	0.772354	0.523415	1.74242
H	1.70273	-0.0824483	1.70428
H	1.03938	1.58428	1.92692
H	0.162154	0.16446	2.59971
N	0.954686	2.17389	-0.886576
C	1.7092	2.72738	-1.98682
H	0.559196	2.80424	-0.22667
H	1.73646	3.83769	-1.9258
H	1.25072	2.44108	-2.96102
H	2.7572	2.34961	-1.97418
C	2862.08	-0.495282	0.430245
C	2863.49	-0.723456	0.825633
O	2863.77	-1.32084	1.85612
H	2861.41	-0.933783	1.19882
H	2861.87	-0.980346	-0.546967
H	2861.88	0.593383	0.352644
N	2864.42	-0.238635	0.00289411
C	2865.83	-0.381411	0.251861
C	2866.56	0.686673	-0.544692
O	2865.98	1.31156	-1.43057
H	2864.18	0.271621	-0.818699
H	2866.03	-0.196592	1.30103
C	2866.34	-1.7831	-0.157849
H	2866.14	-1.96963	-1.23457
H	2867.42	-1.89649	0.0326566
H	2865.8	-2.55652	0.431837
N	2867.84	0.936517	-0.23061
C	2868.61	1.94392	-0.926853
H	2868.29	0.425073	0.494289
H	2869.65	1.99779	-0.525204
H	2868.14	2.9461	-0.812081
H	2868.67	1.71181	-2.01498
