44
  This energy is 1.6027e-319 and Call times are: 118131
C	-0.429271	-2.71228	2.14135
C	-0.621385	-2.04145	0.83587
O	-1.1074	-2.6369	-0.115824
H	-0.780232	-3.76462	2.0687
H	-1.01429	-2.19192	2.92862
H	0.646033	-2.71034	2.41823
N	-0.231448	-0.766802	0.761084
C	-0.354216	0.0189148	-0.44075
C	0.619531	1.17704	-0.341746
O	1.14979	1.46258	0.730229
H	0.18991	-0.301511	1.53497
H	-0.0600321	-0.586628	-1.2886
C	-1.79405	0.549371	-0.621367
H	-2.09282	1.1696	0.250505
H	-1.89214	1.15467	-1.5459
H	-2.49772	-0.308585	-0.691381
N	0.894716	1.86055	-1.47006
C	1.81856	2.97081	-1.47464
H	0.460835	1.60956	-2.32912
H	1.90947	3.40252	-2.49572
H	2.82967	2.64194	-1.14188
H	1.47193	3.77343	-0.784115
C	5597.29	2.67179	-1.18318
C	5596.49	1.45015	-1.40243
O	5596.17	1.09288	-2.52968
H	5597.52	3.14363	-2.16407
H	5598.25	2.41406	-0.679747
H	5596.73	3.39558	-0.55754
N	5596.12	0.775815	-0.309226
C	5595.34	-0.431272	-0.36087
C	5594.69	-0.622425	0.99559
O	5595.06	0.0266774	1.96988
H	5596.36	1.09307	0.605213
H	5594.55	-0.305683	-1.08979
C	5596.21	-1.65687	-0.708454
H	5597.02	-1.78235	0.0409851
H	5595.61	-2.58801	-0.749195
H	5596.68	-1.50396	-1.70366
N	5593.68	-1.50814	1.08461
C	5592.99	-1.74782	2.33239
H	5593.38	-2.01843	0.283203
H	5592.19	-2.51086	2.20138
H	5592.52	-0.810197	2.70885
H	5593.7	-2.11375	3.10834
