44
  This energy is 5.02366e-320 and Call times are: 69327
C	-2.72992	1.36618	1.67548
C	-1.99973	0.214928	1.09872
O	-2.38976	-0.931766	1.27038
H	-3.61087	0.995291	2.24314
H	-3.08164	2.04034	0.866397
H	-2.06931	1.93144	2.36615
N	-0.901928	0.501285	0.395022
C	-0.0863958	-0.510771	-0.227455
C	1.28838	0.0818233	-0.468418
O	1.47419	1.29421	-0.38229
H	-0.578301	1.4375	0.286825
H	0.0287097	-1.34072	0.458119
C	-0.701484	-0.986146	-1.56267
H	-0.818778	-0.132099	-2.26336
H	-0.0761356	-1.76556	-2.04458
H	-1.70867	-1.41701	-1.37272
N	2.29372	-0.768101	-0.756375
C	3.63877	-0.296201	-0.989484
H	2.12465	-1.7465	-0.81452
H	4.32062	-1.14624	-1.21255
H	4.02799	0.239497	-0.093506
H	3.664	0.409151	-1.85147
C	3285.18	0.157484	1.31603
C	3286.25	0.671574	0.434797
O	3286.04	1.57872	-0.357797
H	3284.24	0.714327	1.11311
H	3285.46	0.299665	2.38126
H	3285.01	-0.921874	1.12018
N	3287.45	0.088184	0.552816
C	3288.59	0.478504	-0.235358
C	3289.57	-0.675828	-0.234748
O	3289.45	-1.60472	0.561625
H	3287.6	-0.669476	1.1816
H	3288.27	0.640043	-1.25785
C	3289.26	1.74781	0.335935
H	3289.58	1.57879	1.38521
H	3290.14	2.05123	-0.268658
H	3288.53	2.58565	0.331183
N	3290.56	-0.653805	-1.1483
C	3291.54	-1.71552	-1.23063
H	3290.64	0.103173	-1.7888
H	3292.27	-1.51423	-2.0431
H	3291.04	-2.69039	-1.44035
H	3292.1	-1.81178	-0.2712
