44
  This energy is 1.82903e-320 and Call times are: 25605
C	-3.26393	-0.580619	1.06571
C	-1.83586	-0.960554	0.979428
O	-1.39512	-1.91163	1.61007
H	-3.78673	-1.27264	1.76116
H	-3.73943	-0.650057	0.0647635
H	-3.36163	0.456602	1.44986
N	-1.06889	-0.208138	0.186964
C	0.338944	-0.452994	0.000212541
C	0.97262	0.83029	-0.50066
O	0.276366	1.75484	-0.915706
H	-1.43367	0.581712	-0.298844
H	0.785279	-0.688196	0.958095
C	0.581878	-1.59545	-1.01117
H	0.122102	-1.35114	-1.99252
H	1.66487	-1.78672	-1.15722
H	0.111858	-2.52948	-0.633276
N	2.31606	0.924341	-0.452435
C	3.00678	2.11252	-0.89662
H	2.86152	0.168001	-0.106518
H	4.10663	1.9951	-0.779143
H	2.68376	2.99925	-0.304487
H	2.78847	2.31598	-1.96999
C	1218.69	3.41191	0.6254
C	1218.17	2.02679	0.680227
O	1217.14	1.76069	1.28508
H	1218.02	4.08092	1.19999
H	1218.74	3.76279	-0.427126
H	1219.71	3.4581	1.07238
N	1218.89	1.09877	0.043013
C	1218.52	-0.291742	0.00615349
C	1219.76	-1.10198	-0.318102
O	1220.77	-0.554025	-0.741705
H	1219.74	1.32328	-0.421602
H	1218.18	-0.590314	0.989629
C	1217.42	-0.549905	-1.05261
H	1217.77	-0.24186	-2.06022
H	1217.13	-1.61959	-1.08355
H	1216.52	0.0501868	-0.80444
N	1219.71	-2.43163	-0.10438
C	1220.84	-3.28209	-0.372929
H	1218.88	-2.85527	0.245622
H	1220.61	-4.34244	-0.135388
H	1221.72	-2.97307	0.241984
H	1221.14	-3.22016	-1.44618
