44
  This energy is 1.41248e-319 and Call times are: 30099
C	1.28221	0.279878	3.22548
C	1.15005	-0.432423	1.93461
O	1.83006	-1.4178	1.68337
H	2.05773	-0.221853	3.84411
H	0.31695	0.260206	3.77385
H	1.58701	1.33341	3.05198
N	0.260051	0.0636843	1.07197
C	0.0181962	-0.519412	-0.223535
C	-0.6168	0.541823	-1.10092
O	-1.06639	1.57605	-0.610943
H	-0.266998	0.884192	1.27672
H	0.966473	-0.790926	-0.669768
C	-0.910321	-1.75013	-0.121979
H	-1.88196	-1.46813	0.336841
H	-1.09851	-2.20165	-1.11771
H	-0.434392	-2.51959	0.524213
N	-0.648371	0.317772	-2.42938
C	-1.22241	1.27699	-3.34402
H	-0.272932	-0.522158	-2.80726
H	-1.1551	0.910164	-4.39195
H	-0.686489	2.25155	-3.27873
H	-2.29534	1.45619	-3.10341
C	1436.28	0.531829	-1.04159
C	1435.1	0.891359	-0.224176
O	1435.16	1.76531	0.629405
H	1437.14	1.15985	-0.734503
H	1436.07	0.711052	-2.11698
H	1436.54	-0.536855	-0.889225
N	1433.98	0.208436	-0.468694
C	1432.75	0.444139	0.244033
C	1431.88	-0.793771	0.103615
O	1432.15	-1.65828	-0.727835
H	1433.95	-0.521223	-1.14658
H	1432.97	0.572845	1.29584
C	1432	1.67811	-0.312361
H	1431.78	1.54298	-1.39173
H	1431.06	1.86256	0.234276
H	1432.65	2.57794	-0.204764
N	1430.83	-0.917697	0.934079
C	1429.96	-2.06782	0.881667
H	1430.63	-0.210667	1.60497
H	1429.15	-1.98376	1.64173
H	1430.53	-3.00354	1.07954
H	1429.49	-2.15761	-0.123422
