44
  This energy is 3.41054e-320 and Call times are: 106707
C	-3.42719	-0.518606	-0.334029
C	-2.03973	-0.622251	-0.83942
O	-1.78351	-1.24429	-1.86114
H	-4.10789	-1.07741	-1.01244
H	-3.74453	0.544945	-0.302816
H	-3.49721	-0.954973	0.68461
N	-1.09852	-0.00878935	-0.118193
C	0.295931	-0.0197236	-0.481792
C	1.10448	0.28929	0.763198
O	0.560878	0.739078	1.77018
H	-1.31601	0.470212	0.728088
H	0.56599	-1.01518	-0.810727
C	0.598179	1.02062	-1.58336
H	0.319314	2.04061	-1.24281
H	1.67101	1.01476	-1.86582
H	-0.00106634	0.783878	-2.48945
N	2.42699	0.0327311	0.729312
C	3.27492	0.283873	1.87129
H	2.84695	-0.337884	-0.0925823
H	4.32929	0.0104668	1.6459
H	2.93813	-0.31315	2.74957
H	3.2447	1.36107	2.15398
C	5050.67	1.23234	0.403119
C	5051.99	0.852944	0.942896
O	5052.3	1.09431	2.10324
H	5050.08	1.73674	1.19892
H	5050.12	0.327904	0.0670395
H	5050.79	1.93032	-0.452016
N	5052.83	0.245373	0.095438
C	5054.15	-0.183891	0.473174
C	5054.97	-0.334325	-0.793167
O	5054.43	-0.34885	-1.89609
H	5052.58	0.0804832	-0.855533
H	5054.61	0.588507	1.07471
C	5054.11	-1.52361	1.24166
H	5053.63	-2.31357	0.621896
H	5055.13	-1.85698	1.53416
H	5053.5	-1.40045	2.16643
N	5056.31	-0.428381	-0.663669
C	5057.17	-0.562312	-1.81414
H	5056.73	-0.407456	0.237075
H	5058.24	-0.6266	-1.50118
H	5057.06	0.312816	-2.49425
H	5056.92	-1.48203	-2.38994
