44
  This energy is 1.52222e-319 and Call times are: 6621
C	0.380181	-1.75882	2.9813
C	0.804737	-0.71252	2.02411
O	1.69658	0.07661	2.30407
H	0.982203	-1.67148	3.91178
H	0.540477	-2.76623	2.54283
H	-0.693526	-1.63292	3.23477
N	0.159208	-0.68031	0.85594
C	0.459351	0.278996	-0.176762
C	-0.747783	0.374055	-1.08947
O	-1.64241	-0.467881	-1.03825
H	-0.585359	-1.31011	0.651214
H	0.605637	1.25078	0.277456
C	1.70662	-0.138754	-0.987271
H	1.55336	-1.1364	-1.4513
H	1.94065	0.59779	-1.78321
H	2.58361	-0.205967	-0.307188
N	-0.810686	1.42089	-1.93574
C	-1.92764	1.60057	-2.83369
H	-0.0801321	2.09547	-1.95715
H	-1.79392	2.51745	-3.44908
H	-2.87926	1.69754	-2.26252
H	-2.02434	0.728464	-3.52017
C	321.561	-2.4844	-1.80796
C	321.581	-1.42515	-0.774126
O	320.553	-1.06651	-0.216603
H	320.517	-2.83676	-1.95322
H	322.189	-3.34267	-1.48813
H	321.944	-2.08611	-2.7714
N	322.772	-0.889269	-0.496447
C	322.951	0.150266	0.485363
C	324.255	0.860463	0.178761
O	325.07	0.370342	-0.601242
H	323.598	-1.16962	-0.978303
H	322.151	0.872677	0.383228
C	322.985	-0.428452	1.91751
H	323.807	-1.16967	2.01856
H	323.123	0.369302	2.67601
H	322.025	-0.947057	2.12934
N	324.474	2.05	0.773035
C	325.682	2.80431	0.532062
H	323.8	2.43325	1.39557
H	325.676	3.75295	1.11283
H	325.779	3.05582	-0.54894
H	326.579	2.21575	0.831519
