44
  This energy is 5.32257e-320 and Call times are: 44505
C	1.5949	-1.51399	2.70004
C	0.614831	-1.53088	1.59082
O	0.0185206	-2.55553	1.28916
H	1.66509	-2.53093	3.14364
H	1.27037	-0.800525	3.48647
H	2.59581	-1.21689	2.32209
N	0.429379	-0.376815	0.945752
C	-0.490827	-0.235328	-0.154262
C	-0.0790328	0.986705	-0.951945
O	0.721079	1.7983	-0.490456
H	0.942669	0.443916	1.18212
H	-0.399391	-1.09751	-0.802615
C	-1.94454	-0.0787475	0.345048
H	-2.03459	0.806282	1.01043
H	-2.65574	0.0302778	-0.499394
H	-2.23366	-0.979729	0.928818
N	-0.603486	1.13453	-2.18446
C	-0.260418	2.26047	-3.02157
H	-1.2438	0.463148	-2.54289
H	-0.795271	2.204	-3.99522
H	0.834962	2.28016	-3.22405
H	-0.536923	3.21845	-2.52458
C	2109.18	-1.27607	-0.887194
C	2110.09	-0.617748	0.0765007
O	2109.68	-0.164095	1.13297
H	2108.15	-1.26081	-0.483275
H	2109.49	-2.33087	-1.04566
H	2109.2	-0.737038	-1.85784
N	2111.38	-0.545605	-0.276537
C	2112.39	0.064833	0.55544
C	2113.56	0.435873	-0.329451
O	2113.65	-0.0122568	-1.47063
H	2111.7	-0.892976	-1.15287
H	2111.99	0.98016	0.974685
C	2112.85	-0.894063	1.67568
H	2113.25	-1.83229	1.24206
H	2113.62	-0.42714	2.31827
H	2111.98	-1.1592	2.31608
N	2114.48	1.28612	0.17268
C	2115.62	1.7053	-0.600993
H	2114.38	1.64342	1.0958
H	2116.26	2.40293	-0.0139311
H	2115.3	2.22519	-1.53173
H	2116.24	0.826791	-0.893757
