44
  This energy is 1.0074e-320 and Call times are: 67647
C	-1.55306	0.278602	3.10428
C	-1.34368	-0.409961	1.81074
O	-1.8595	-1.49516	1.58105
H	-2.20616	-0.346254	3.75148
H	-2.0441	1.26076	2.93978
H	-0.580618	0.433213	3.61751
N	-0.563532	0.214973	0.925754
C	-0.266713	-0.328528	-0.375527
C	1.00095	0.333869	-0.879011
O	1.44377	1.3417	-0.331274
H	-0.125528	1.08501	1.13583
H	-0.0674555	-1.3881	-0.277198
C	-1.42566	-0.0800581	-1.3666
H	-1.62783	1.0079	-1.46456
H	-1.20048	-0.497411	-2.36954
H	-2.34861	-0.569257	-0.985814
N	1.62896	-0.233954	-1.92743
C	2.84866	0.319605	-2.46788
H	1.25868	-1.0534	-2.35243
H	3.20935	-0.287862	-3.32703
H	3.64842	0.339557	-1.69249
H	2.68398	1.36335	-2.82095
C	3209.41	2.90171	1.63653
C	3209.24	1.43273	1.57884
O	3209.7	0.707137	2.45098
H	3210	3.16756	2.54603
H	3208.42	3.40206	1.68391
H	3209.97	3.25771	0.740795
N	3208.57	0.955584	0.528212
C	3208.32	-0.450258	0.333006
C	3208.03	-0.671363	-1.13798
O	3207.78	0.278232	-1.87974
H	3208.23	1.55457	-0.19064
H	3209.22	-1.00412	0.575746
C	3207.13	-0.934781	1.19141
H	3206.21	-0.364023	0.940271
H	3206.93	-2.01689	1.04364
H	3207.36	-0.766258	2.26659
N	3208.06	-1.9367	-1.59995
C	3207.81	-2.2424	-2.98838
H	3208.27	-2.6908	-0.985345
H	3207.89	-3.337	-3.17056
H	3208.55	-1.72514	-3.64604
H	3206.79	-1.90863	-3.28326
