44
  This energy is 1.55379e-319 and Call times are: 105153
C	0.998662	1.5522	-2.95288
C	1.00108	1.43827	-1.477
O	1.73633	2.134	-0.790071
H	1.73858	2.32173	-3.26306
H	-0.0073339	1.85582	-3.3115
H	1.27678	0.580362	-3.41235
N	0.167615	0.538075	-0.95036
C	0.0562924	0.312037	0.468563
C	-0.543354	-1.06525	0.675308
O	-1.0708	-1.66773	-0.257782
H	-0.405227	-0.043139	-1.52218
H	1.0479	0.307667	0.903028
C	-0.830285	1.38388	1.14105
H	-1.8466	1.38606	0.692479
H	-0.918013	1.21293	2.23369
H	-0.380884	2.38822	0.9814
N	-0.456101	-1.60666	1.90627
C	-0.988098	-2.91821	2.19435
H	-0.019137	-1.10623	2.64646
H	-0.820258	-3.18505	3.26106
H	-0.496647	-3.68987	1.55853
H	-2.08329	-2.95112	1.99274
C	4982.76	0.058832	-3.00634
C	4981.6	0.44378	-2.16707
O	4980.77	1.25215	-2.56374
H	4982.71	0.613521	-3.96877
H	4982.73	-1.03079	-3.21806
H	4983.71	0.311386	-2.48873
N	4981.52	-0.133054	-0.965672
C	4980.45	0.139696	-0.0364189
C	4980.93	-0.243235	1.34996
O	4981.95	-0.923101	1.49862
H	4982.22	-0.768025	-0.642419
H	4980.25	1.20364	-0.032972
C	4979.18	-0.655232	-0.395367
H	4979.39	-1.74627	-0.398636
H	4978.35	-0.44745	0.318057
H	4978.84	-0.366553	-1.41351
N	4980.22	0.205956	2.40361
C	4980.61	-0.0982194	3.7612
H	4979.41	0.760808	2.2628
H	4979.9	0.358904	4.48501
H	4981.63	0.29466	3.97558
H	4980.62	-1.19949	3.92929
