44
  This energy is 9.80127e-320 and Call times are: 4563
C	1.47873	0.592421	3.09654
C	1.37661	-0.159162	1.82536
O	2.21186	-0.998386	1.51786
H	2.38838	0.264497	3.64504
H	0.587543	0.396818	3.72927
H	1.55503	1.68122	2.89249
N	0.334965	0.135789	1.04411
C	0.0999951	-0.510546	-0.222331
C	-0.804508	0.387924	-1.04322
O	-1.40345	1.32497	-0.518784
H	-0.322651	0.842133	1.29221
H	1.04051	-0.601633	-0.750734
C	-0.557113	-1.89605	-0.0333935
H	-1.5214	-1.79897	0.5096
H	-0.739301	-2.39657	-1.00657
H	0.11474	-2.54427	0.570408
N	-0.907257	0.133923	-2.36266
C	-1.73549	0.943426	-3.22575
H	-0.409013	-0.624652	-2.76954
H	-1.68925	0.574614	-4.27412
H	-1.39716	2.00484	-3.21238
H	-2.7976	0.915369	-2.89063
C	226.858	-1.7458	2.51581
C	226.772	-1.22266	1.13372
O	227.722	-1.30252	0.367096
H	227.87	-2.17366	2.68446
H	226.101	-2.54272	2.6709
H	226.688	-0.927104	3.24633
N	225.613	-0.661168	0.783039
C	225.377	-0.107657	-0.526464
C	224.224	0.870586	-0.417902
O	223.507	0.889562	0.581368
H	224.856	-0.576005	1.42591
H	226.252	0.449028	-0.836091
C	225.041	-1.21314	-1.55229
H	224.143	-1.78267	-1.23119
H	224.859	-0.790428	-2.56172
H	225.894	-1.92381	-1.62166
N	224.03	1.72533	-1.44166
C	222.965	2.69998	-1.42146
H	224.625	1.69906	-2.23842
H	222.97	3.3075	-2.3532
H	223.079	3.38884	-0.553291
H	221.974	2.19747	-1.33572
