44
  This energy is 2.45896e-320 and Call times are: 37491
C	-2.77644	0.89984	-1.89942
C	-2.15951	0.419659	-0.642428
O	-2.82362	0.281308	0.375567
H	-3.8578	1.09228	-1.72769
H	-2.66989	0.13291	-2.69521
H	-2.2913	1.843	-2.2281
N	-0.851372	0.156622	-0.686614
C	-0.11051	-0.317857	0.454798
C	1.35586	-0.0130316	0.217974
O	1.75832	0.310955	-0.897772
H	-0.315534	0.301123	-1.51422
H	-0.423762	0.23417	1.33185
C	-0.310605	-1.83553	0.663981
H	0.0111291	-2.39873	-0.237909
H	0.258353	-2.20416	1.54215
H	-1.38884	-2.04581	0.835238
N	2.18875	-0.0893158	1.2746
C	3.5991	0.195022	1.14712
H	1.84258	-0.346273	2.17091
H	4.11432	0.0758103	2.12568
H	3.7589	1.23878	0.791759
H	4.07467	-0.495937	0.413911
C	1776.7	-0.684918	-2.61482
C	1777.1	-0.764711	-1.18962
O	1776.33	-1.21735	-0.347951
H	1775.67	-1.07839	-2.73427
H	1777.4	-1.29334	-3.23611
H	1776.73	0.37007	-2.96026
N	1778.32	-0.313069	-0.883537
C	1778.84	-0.324914	0.459073
C	1779.96	0.692681	0.530679
O	1780.44	1.1678	-0.494862
H	1778.92	0.080207	-1.57365
H	1778.06	-0.00658899	1.14252
C	1779.37	-1.72501	0.84489
H	1780.16	-2.04873	0.141312
H	1779.77	-1.73772	1.87815
H	1778.53	-2.46142	0.787349
N	1780.39	1.06837	1.75268
C	1781.44	2.04045	1.91915
H	1779.98	0.677687	2.57063
H	1781.65	2.21425	2.99795
H	1781.16	3.01286	1.45607
H	1782.38	1.68862	1.43326
