44
  This energy is 1.34262e-319 and Call times are: 78693
C	-1.90039	-2.61412	1.29655
C	-0.723323	-1.71729	1.33418
O	0.0461174	-1.72301	2.28519
H	-1.92911	-3.22168	2.22709
H	-1.83337	-3.29689	0.423537
H	-2.83431	-2.01744	1.22793
N	-0.559488	-0.909474	0.283961
C	0.537547	0.0187318	0.17544
C	0.143283	1.09158	-0.820951
O	-0.829307	0.938543	-1.55749
H	-1.20938	-0.893556	-0.471239
H	0.688021	0.499232	1.13385
C	1.82957	-0.689361	-0.289736
H	1.67144	-1.18178	-1.27291
H	2.67633	0.0224272	-0.37421
H	2.10706	-1.47361	0.447899
N	0.881701	2.21845	-0.851081
C	0.574271	3.29927	-1.75854
H	1.66062	2.32628	-0.242077
H	1.29661	4.13574	-1.63289
H	-0.451597	3.69079	-1.57
H	0.621875	2.95059	-2.81558
C	3733.27	2.17329	-1.34346
C	3731.89	1.86539	-0.888669
O	3731.04	2.73767	-0.824396
H	3733.34	3.25691	-1.58031
H	3733.51	1.58861	-2.25609
H	3734	1.92897	-0.544482
N	3731.65	0.596495	-0.552229
C	3730.36	0.142929	-0.0917081
C	3730.57	-1.15138	0.670616
O	3731.63	-1.76189	0.595231
H	3732.36	-0.0990172	-0.581159
H	3729.96	0.871501	0.600408
C	3729.39	-0.0849929	-1.27169
H	3729.81	-0.832461	-1.98009
H	3728.4	-0.43414	-0.920637
H	3729.25	0.870143	-1.82268
N	3729.55	-1.58999	1.44427
C	3729.67	-2.80609	2.21567
H	3728.7	-1.07801	1.49759
H	3728.73	-2.99775	2.78406
H	3730.51	-2.7357	2.94157
H	3729.86	-3.67832	1.54928
