44
  This energy is 3.9298e-320 and Call times are: 8385
C	2.073	-1.07445	-2.58348
C	1.68732	-0.0890978	-1.54833
O	2.39863	0.873356	-1.29492
H	3.04984	-0.780017	-3.025
H	1.30874	-1.10267	-3.38843
H	2.17211	-2.08437	-2.13272
N	0.534906	-0.316057	-0.913666
C	0.0260456	0.552857	0.117293
C	-0.964499	-0.239852	0.947757
O	-1.39726	-1.3194	0.548847
H	-0.0213387	-1.11945	-1.10882
H	0.841871	0.843301	0.767019
C	-0.662347	1.79781	-0.485473
H	-1.49834	1.49617	-1.15199
H	-1.05519	2.4691	0.305613
H	0.0733962	2.36921	-1.09237
N	-1.33111	0.27115	2.13959
C	-2.2601	-0.418739	3.004
H	-0.964304	1.14273	2.44789
H	-2.43576	0.162344	3.93606
H	-1.8644	-1.42146	3.28546
H	-3.2388	-0.565015	2.49221
C	405.85	2.69805	0.802536
C	404.656	1.8551	1.03816
O	403.954	2.01467	2.02737
H	405.958	3.42366	1.63782
H	405.74	3.25937	-0.149136
H	406.762	2.06602	0.755444
N	404.4	0.919717	0.12059
C	403.276	0.0233477	0.21082
C	403.573	-1.18634	-0.653608
O	404.496	-1.16684	-1.46559
H	404.996	0.780411	-0.665917
H	403.179	-0.318762	1.23346
C	401.973	0.706304	-0.261745
H	402.075	1.05663	-1.31099
H	401.105	0.0189489	-0.193439
H	401.766	1.59146	0.378624
N	402.807	-2.28119	-0.482067
C	403.024	-3.48388	-1.25187
H	402.069	-2.27965	0.185133
H	402.291	-4.27076	-0.966918
H	404.05	-3.88135	-1.07864
H	402.912	-3.27879	-2.34122
