44
  This energy is 1.45739e-319 and Call times are: 12417
C	0.174725	3.05702	1.65838
C	0.655447	2.10251	0.634168
O	1.50931	2.42539	-0.180174
H	0.700446	4.02821	1.53085
H	0.385684	2.66508	2.67558
H	-0.917493	3.22201	1.54532
N	0.102988	0.887231	0.650397
C	0.467067	-0.149402	-0.282161
C	-0.66626	-1.15583	-0.325858
O	-1.54796	-1.14723	0.531088
H	-0.612628	0.64563	1.30036
H	0.561065	0.283231	-1.27012
C	1.78081	-0.846533	0.136418
H	1.68106	-1.28866	1.15066
H	2.06415	-1.6452	-0.579564
H	2.60281	-0.0984767	0.165793
N	-0.68013	-2.03777	-1.34468
C	-1.72613	-3.02521	-1.47513
H	0.0384894	-2.02403	-2.03216
H	-1.55994	-3.65759	-2.37498
H	-2.72107	-2.53322	-1.57142
H	-1.75417	-3.68864	-0.580561
C	599.207	0.446246	0.566773
C	597.843	0.978617	0.346242
O	597.606	2.17404	0.452231
H	599.89	1.28324	0.828635
H	599.579	-0.0461927	-0.356103
H	599.201	-0.287334	1.4003
N	596.901	0.0854244	0.0350064
C	595.528	0.450123	-0.208995
C	594.675	-0.788055	-0.0126422
O	595.19	-1.90271	0.0506261
H	597.101	-0.889287	-0.0197594
H	595.222	1.18097	0.52863
C	595.339	1.00431	-1.63875
H	595.655	0.252244	-2.3929
H	594.283	1.28626	-1.82995
H	595.97	1.91029	-1.77022
N	593.344	-0.617069	0.110718
C	592.454	-1.73649	0.312433
H	592.947	0.293668	0.06391
H	591.399	-1.39151	0.388085
H	592.713	-2.28042	1.24964
H	592.528	-2.45525	-0.535562
