44
  This energy is 8.63874e-320 and Call times are: 51855
C	2.50157	-2.21973	-0.970094
C	1.78131	-1.44061	0.0620968
O	2.02411	-1.59036	1.25168
H	3.22731	-2.9015	-0.475781
H	3.05486	-1.53657	-1.64832
H	1.78414	-2.82642	-1.56184
N	0.85965	-0.581425	-0.379143
C	0.077171	0.246861	0.503182
C	-1.16982	0.676418	-0.24497
O	-1.25271	0.532778	-1.4633
H	0.650598	-0.489652	-1.3491
H	-0.236968	-0.34416	1.35411
C	0.874183	1.48767	0.963926
H	1.19545	2.09134	0.0884367
H	0.274686	2.12756	1.64357
H	1.78566	1.15954	1.50954
N	-2.18288	1.19677	0.47541
C	-3.41357	1.62255	-0.149322
H	-2.09931	1.29823	1.46129
H	-4.12152	2.02331	0.609267
H	-3.90489	0.769571	-0.671117
H	-3.21696	2.42044	-0.901591
C	2461.13	-0.854311	2.89716
C	2460.83	0.0764821	1.78539
O	2461.31	1.20245	1.75791
H	2461.81	-0.353191	3.62491
H	2461.64	-1.76508	2.50926
H	2460.19	-1.14312	3.41652
N	2460.02	-0.380426	0.831731
C	2459.64	0.407085	-0.312997
C	2458.36	-0.180796	-0.87667
O	2457.97	-1.29357	-0.526173
H	2459.61	-1.28926	0.88035
H	2459.42	1.41693	0.0112877
C	2460.74	0.405411	-1.39179
H	2460.96	-0.632171	-1.7217
H	2460.45	1.01098	-2.27457
H	2461.68	0.837304	-0.966081
N	2457.66	0.56772	-1.75238
C	2456.42	0.0954827	-2.33223
H	2457.99	1.46868	-2.018
H	2456	0.853126	-3.02846
H	2455.67	-0.109314	-1.53777
H	2456.59	-0.848005	-2.90044
