44
  This energy is 6.08244e-320 and Call times are: 27159
C	2.19581	-2.34488	1.34391
C	1.61221	-1.61717	0.194538
O	2.07481	-1.73796	-0.931475
H	3.0582	-2.95294	0.994058
H	1.43824	-3.0209	1.79326
H	2.55102	-1.62586	2.11188
N	0.568825	-0.827835	0.460359
C	-0.10596	-0.056558	-0.552866
C	-0.848916	1.07075	0.137377
O	-1.01721	1.05961	1.35532
H	0.21952	-0.715353	1.38679
H	0.633206	0.388531	-1.20678
C	-1.09413	-0.928917	-1.35886
H	-1.85062	-1.3845	-0.684845
H	-1.61533	-0.338205	-2.14
H	-0.537763	-1.75161	-1.85863
N	-1.29393	2.08681	-0.627854
C	-2.00126	3.20923	-0.0568562
H	-1.14157	2.08094	-1.6107
H	-2.28582	3.93812	-0.847423
H	-1.36523	3.73474	0.691832
H	-2.9294	2.86882	0.456809
C	1292	-0.421057	-3.30955
C	1293.05	-0.303107	-2.2711
O	1294.23	-0.495155	-2.53725
H	1292.47	-0.699776	-4.2771
H	1291.47	0.548285	-3.4327
H	1291.27	-1.2065	-3.02693
N	1292.64	0.015274	-1.04284
C	1293.54	0.166599	0.071967
C	1292.73	0.00500309	1.34666
O	1291.5	0.0373198	1.32227
H	1291.67	0.140632	-0.832316
H	1294.27	-0.62961	0.0427326
C	1294.23	1.54771	0.0523587
H	1293.47	2.3622	0.0817712
H	1294.92	1.66752	0.909311
H	1294.81	1.65413	-0.886804
N	1293.41	-0.195686	2.49347
C	1292.73	-0.371896	3.75428
H	1294.4	-0.225756	2.49141
H	1293.46	-0.521947	4.57927
H	1292.05	-1.25916	3.71632
H	1292.11	0.521863	3.9937
