44
  This energy is 4.4288e-320 and Call times are: 69075
C	-0.814645	0.150687	3.38227
C	0.120834	0.376257	2.25746
O	1.17181	0.980751	2.42033
H	-0.397272	0.609647	4.30478
H	-0.952245	-0.937767	3.55302
H	-1.7979	0.617178	3.16193
N	-0.251115	-0.108624	1.07049
C	0.552542	0.0310755	-0.117556
C	-0.356634	-0.144271	-1.31834
O	-1.48805	-0.607625	-1.18781
H	-1.12325	-0.573853	0.944507
H	0.955339	1.03532	-0.153806
C	1.68884	-1.01516	-0.154248
H	1.27209	-2.04424	-0.116235
H	2.3097	-0.910329	-1.06766
H	2.347	-0.876878	0.731101
N	0.112824	0.245115	-2.52
C	-0.685927	0.127292	-3.71763
H	1.02845	0.624347	-2.60391
H	-0.124184	0.498397	-4.60305
H	-1.62426	0.720586	-3.62399
H	-0.966146	-0.935399	-3.90023
C	3274.75	-2.5943	-1.63501
C	3275.31	-1.22535	-1.60238
O	3275.36	-0.538514	-2.61336
H	3274.43	-2.83435	-2.67151
H	3273.87	-2.66299	-0.960295
H	3275.52	-3.33114	-1.31761
N	3275.76	-0.795522	-0.419738
C	3276.33	0.512754	-0.229181
C	3277.18	0.472746	1.03023
O	3277.08	-0.46356	1.82143
H	3275.74	-1.37534	0.390388
H	3276.99	0.73242	-1.0596
C	3275.24	1.59408	-0.100388
H	3274.56	1.36525	0.752058
H	3275.67	2.60269	0.0462929
H	3274.62	1.6125	-1.02868
N	3278.04	1.48424	1.23448
C	3278.89	1.52504	2.39956
H	3278.11	2.22914	0.57892
H	3279.53	2.43543	2.38751
H	3279.56	0.63111	2.43185
H	3278.29	1.53645	3.33228
