44
  This energy is 8.66196e-320 and Call times are: 121365
C	-0.234951	-0.758919	3.39042
C	-0.288344	0.200814	2.26469
O	-0.657203	1.3548	2.43425
H	-0.574787	-0.253463	4.32042
H	0.804969	-1.11941	3.53682
H	-0.900708	-1.62416	3.18778
N	0.0798937	-0.266115	1.06939
C	0.0815613	0.546703	-0.120629
C	0.03517	-0.381409	-1.31883
O	0.256384	-1.58416	-1.19125
H	0.350612	-1.21615	0.938697
H	-0.817674	1.14936	-0.136356
C	1.33983	1.44065	-0.189461
H	2.26049	0.819188	-0.172451
H	1.34425	2.06795	-1.10447
H	1.36271	2.11491	0.694277
N	-0.277084	0.15638	-2.51436
C	-0.35671	-0.651757	-3.70883
H	-0.459738	1.13067	-2.59578
H	-0.624282	-0.02688	-4.58927
H	-1.12956	-1.4461	-3.59495
H	0.619859	-1.14709	-3.9141
C	5748.01	3.11591	-1.32895
C	5747.07	1.98291	-1.14202
O	5745.92	2.04137	-1.54431
H	5747.48	3.94332	-1.8526
H	5748.88	2.79791	-1.94226
H	5748.36	3.48375	-0.344196
N	5747.56	0.91148	-0.511063
C	5746.77	-0.268581	-0.255034
C	5747.43	-1.02639	0.883928
O	5748.57	-0.751912	1.24765
H	5748.49	0.887346	-0.162309
H	5745.79	0.0309851	0.073231
C	5746.68	-1.16734	-1.50851
H	5747.7	-1.47226	-1.84294
H	5746.08	-2.07681	-1.31492
H	5746.2	-0.600319	-2.33585
N	5746.7	-1.989	1.49037
C	5747.24	-2.75486	2.59164
H	5745.78	-2.19135	1.18608
H	5746.49	-3.49805	2.95271
H	5747.51	-2.08622	3.44146
H	5748.16	-3.30222	2.27966
