44
  This energy is 9.73606e-320 and Call times are: 115779
C	2.11018	-2.25717	-1.60575
C	0.822988	-1.53558	-1.48896
O	-0.0245821	-1.6076	-2.36812
H	2.13411	-2.81204	-2.56877
H	2.22003	-2.98111	-0.77109
H	2.95572	-1.53776	-1.58436
N	0.649648	-0.807225	-0.3836
C	-0.549158	-0.0498289	-0.126609
C	-0.213602	1.02218	0.891935
O	0.83584	0.975673	1.53095
H	1.35948	-0.733272	0.311819
H	-0.853773	0.447084	-1.03895
C	-1.68221	-0.954213	0.40762
H	-1.36608	-1.46293	1.34324
H	-2.60681	-0.374246	0.60642
H	-1.9178	-1.73591	-0.347091
N	-1.09343	2.03042	1.05121
C	-0.852972	3.102	1.98933
H	-1.93368	2.05397	0.519566
H	-1.6918	3.83236	1.97552
H	0.0871239	3.64315	1.73512
H	-0.752454	2.70292	3.02461
C	5483.92	-1.09822	-3.26392
C	5483.37	-1.28034	-1.90056
O	5482.64	-2.22337	-1.63347
H	5483.55	-1.91635	-3.92
H	5485.03	-1.1307	-3.23842
H	5483.59	-0.124665	-3.68257
N	5483.71	-0.361631	-0.995474
C	5483.26	-0.403283	0.37223
C	5483.39	0.993702	0.947888
O	5484.04	1.85658	0.364729
H	5484.29	0.418013	-1.2327
H	5482.21	-0.671006	0.388042
C	5484.09	-1.40086	1.2094
H	5485.17	-1.12361	1.19044
H	5483.75	-1.43554	2.26301
H	5483.99	-2.42009	0.776798
N	5482.75	1.2553	2.10237
C	5482.8	2.56029	2.71901
H	5482.22	0.545681	2.55528
H	5482.21	2.575	3.66109
H	5482.39	3.33598	2.03406
H	5483.85	2.83738	2.96058
