44
  This energy is 1.22084e-319 and Call times are: 72141
C	-0.111688	-0.733503	3.4023
C	0.520231	-0.0867789	2.23028
O	1.46642	0.677155	2.36307
H	0.404833	-0.400217	4.32857
H	-0.0276777	-1.83769	3.32148
H	-1.18293	-0.448258	3.46567
N	-0.00282006	-0.38005	1.03748
C	0.503251	0.170196	-0.194575
C	-0.592191	0.0627197	-1.2375
O	-1.57882	-0.644568	-1.04222
H	-0.792169	-0.981136	0.944956
H	0.716747	1.22152	-0.0489166
C	1.76555	-0.582991	-0.670405
H	1.54312	-1.66132	-0.818189
H	2.15794	-0.161777	-1.61877
H	2.55999	-0.49771	0.102733
N	-0.452755	0.784163	-2.36714
C	-1.45067	0.754143	-3.4109
H	0.34949	1.35607	-2.50335
H	-1.15387	1.41144	-4.25773
H	-2.43487	1.10435	-3.02368
H	-1.58146	-0.281562	-3.79999
C	3421.67	0.0956054	3.40247
C	3422	-0.642019	2.16292
O	3422.24	-1.84093	2.18592
H	3421.69	-0.605592	4.2648
H	3420.65	0.535123	3.32498
H	3422.41	0.904964	3.57661
N	3422.02	0.0731757	1.03587
C	3422.33	-0.503114	-0.248917
C	3422.77	0.617694	-1.16793
O	3422.59	1.79371	-0.861041
H	3421.85	1.05496	1.03445
H	3423.16	-1.18769	-0.138102
C	3421.1	-1.22586	-0.848498
H	3420.25	-0.520801	-0.960185
H	3421.34	-1.67089	-1.83773
H	3420.79	-2.04372	-0.1654
N	3423.4	0.276672	-2.31365
C	3423.87	1.27594	-3.24472
H	3423.54	-0.68035	-2.54071
H	3424.35	0.797106	-4.12535
H	3424.61	1.94639	-2.75856
H	3423.02	1.90456	-3.60654
