44
  This energy is 3.83247e-320 and Call times are: 50007
C	-0.54277	2.34531	-2.51616
C	-0.766307	1.83053	-1.1464
O	-1.38765	2.48308	-0.318989
H	-1.0085	3.35023	-2.61141
H	-1.00408	1.66339	-3.26115
H	0.545329	2.43272	-2.71949
N	-0.250081	0.630193	-0.872421
C	-0.384351	-0.00301385	0.415154
C	0.711989	-1.04312	0.53944
O	1.35381	-1.40081	-0.446443
H	0.279073	0.121228	-1.54613
H	-0.22521	0.736788	1.18939
C	-1.76931	-0.66953	0.572522
H	-1.92951	-1.42743	-0.223747
H	-1.87613	-1.15792	1.5629
H	-2.56369	0.102626	0.47831
N	0.967127	-1.53889	1.76628
C	2.00061	-2.52431	1.98314
H	0.441563	-1.23145	2.55272
H	2.05489	-2.80734	3.05748
H	2.99434	-2.12577	1.67506
H	1.79788	-3.44403	1.38799
C	2373.11	-1.85464	-2.40097
C	2372.78	-1.53662	-0.993264
O	2373.18	-2.23759	-0.075415
H	2373.73	-2.77591	-2.43373
H	2373.68	-1.01954	-2.85832
H	2372.18	-2.02767	-2.98207
N	2372.02	-0.456624	-0.791065
C	2371.62	-0.0193358	0.521549
C	2370.4	0.863227	0.363338
O	2370.07	1.29694	-0.740752
H	2371.68	0.0896378	-1.54898
H	2371.33	-0.882858	1.10613
C	2372.75	0.761809	1.22649
H	2373.05	1.64662	0.623742
H	2372.44	1.09987	2.23752
H	2373.64	0.104786	1.33527
N	2369.67	1.13249	1.46777
C	2368.49	1.95389	1.41189
H	2369.95	0.766291	2.35092
H	2368.03	2.05974	2.42228
H	2367.73	1.50184	0.733147
H	2368.73	2.97113	1.0285
