44
  This energy is 6.65062e-320 and Call times are: 101541
C	1.91375	1.33923	2.58266
C	1.0019	1.48817	1.42613
O	0.524998	2.57577	1.13259
H	2.0473	2.32713	3.07468
H	2.90441	0.969775	2.24368
H	1.48565	0.626236	3.31841
N	0.73159	0.377025	0.737177
C	-0.137257	0.362089	-0.412479
C	-0.623556	-1.06042	-0.610505
O	-0.0834428	-1.9967	-0.0244244
H	1.10325	-0.508252	1.0038
H	-1.00236	0.979966	-0.207775
C	0.597815	0.853483	-1.67949
H	1.48512	0.217803	-1.88616
H	-0.0683387	0.843398	-2.56657
H	0.950052	1.89609	-1.52121
N	-1.6759	-1.25291	-1.42997
C	-2.21559	-2.57099	-1.66991
H	-2.10376	-0.481537	-1.88948
H	-3.07611	-2.52158	-2.37298
H	-2.56678	-3.03101	-0.717921
H	-1.44045	-3.23885	-2.11073
C	4810.16	0.310702	3.26752
C	4810.38	0.303537	1.80342
O	4811.46	0.616379	1.32336
H	4811.1	0.63543	3.77633
H	4809.9	-0.708262	3.61975
H	4809.35	1.01638	3.52956
N	4809.34	-0.0544688	1.05031
C	4809.4	-0.110034	-0.388586
C	4807.98	-0.0310244	-0.91506
O	4807.02	-0.190631	-0.162584
H	4808.45	-0.279013	1.45188
H	4809.93	0.757849	-0.753111
C	4810.07	-1.41194	-0.874666
H	4809.52	-2.30027	-0.498339
H	4810.12	-1.45792	-1.98216
H	4811.11	-1.45838	-0.48134
N	4807.81	0.240552	-2.2244
C	4806.49	0.346823	-2.81238
H	4808.6	0.373545	-2.81547
H	4806.57	0.572998	-3.89906
H	4805.91	1.15949	-2.32335
H	4805.93	-0.60613	-2.68922
