44
  This energy is 1.35586e-319 and Call times are: 35727
C	3.23131	-0.926344	0.909216
C	2.05025	-0.0413055	1.02327
O	1.99	0.825255	1.88463
H	3.96684	-0.660929	1.69941
H	3.70999	-0.799349	-0.0845416
H	2.92928	-1.98672	1.04088
N	1.06684	-0.248555	0.144449
C	-0.144802	0.531508	0.128915
C	-1.20668	-0.271582	-0.596833
O	-0.902108	-1.2592	-1.26293
H	1.11527	-0.976805	-0.533964
H	-0.481948	0.678145	1.1472
C	0.0693051	1.8892	-0.576738
H	0.415785	1.73505	-1.62091
H	-0.861647	2.49246	-0.590348
H	0.85019	2.46733	-0.0362425
N	-2.48818	0.124036	-0.465604
C	-3.56804	-0.586134	-1.11039
H	-2.71505	0.921614	0.0836098
H	-4.54535	-0.105941	-0.883405
H	-3.60727	-1.64316	-0.76055
H	-3.4291	-0.593232	-2.21575
C	1699.06	-1.23381	-2.9578
C	1697.94	-0.65478	-2.18294
O	1696.91	-0.307823	-2.73249
H	1698.78	-1.2716	-4.03346
H	1699.28	-2.26456	-2.60607
H	1699.97	-0.606475	-2.84349
N	1698.13	-0.531014	-0.867332
C	1697.13	0.0140365	0.0188591
C	1697.84	0.483294	1.27816
O	1699	0.144929	1.51531
H	1698.99	-0.790361	-0.435636
H	1696.68	0.880301	-0.448746
C	1696.06	-1.03818	0.370864
H	1696.53	-1.92577	0.849778
H	1695.29	-0.621775	1.05296
H	1695.55	-1.3747	-0.560063
N	1697.15	1.29651	2.10831
C	1697.75	1.8029	3.32488
H	1696.22	1.56473	1.89523
H	1697.03	2.45213	3.87114
H	1698.66	2.40245	3.09876
H	1698.04	0.964781	3.99656
