44
  This energy is 1.44801e-319 and Call times are: 30225
C	-1.582	0.309086	-3.08672
C	-1.56196	-0.126928	-1.67227
O	-2.5673	-0.566849	-1.13166
H	-2.60464	0.169337	-3.49968
H	-0.867617	-0.295953	-3.68372
H	-1.30829	1.38268	-3.16034
N	-0.397226	-0.00633833	-1.03101
C	-0.220577	-0.388366	0.347282
C	0.997519	0.340551	0.880348
O	1.78288	0.895881	0.114423
H	0.407128	0.380675	-1.47392
H	-1.07867	-0.0556055	0.917391
C	-0.0297884	-1.91512	0.487789
H	0.850945	-2.25316	-0.0988538
H	0.106358	-2.21274	1.54782
H	-0.928215	-2.43755	0.0927667
N	1.17115	0.373753	2.21629
C	2.29541	1.05434	2.81548
H	0.520652	-0.0756007	2.81976
H	2.26263	0.967198	3.92389
H	2.2876	2.13598	2.54858
H	3.25568	0.617339	2.45758
C	1438.63	2.76811	2.07978
C	1438.17	1.46202	1.5566
O	1437.21	0.883285	2.05286
H	1437.98	3.06836	2.93516
H	1438.56	3.54344	1.28807
H	1439.68	2.69159	2.43007
N	1438.86	0.959535	0.528539
C	1438.53	-0.300897	-0.0890178
C	1439.76	-0.794409	-0.821216
O	1440.71	-0.0423956	-1.03042
H	1439.65	1.42676	0.151887
H	1438.3	-1.02153	0.68437
C	1437.35	-0.154943	-1.07487
H	1437.59	0.585565	-1.86654
H	1437.09	-1.12365	-1.55206
H	1436.45	0.208281	-0.526497
N	1439.78	-2.08442	-1.21033
C	1440.92	-2.64602	-1.9031
H	1439.01	-2.67886	-1.02542
H	1440.74	-3.71882	-2.13951
H	1441.84	-2.56998	-1.27731
H	1441.11	-2.10241	-2.85751
