44
  This energy is 1.54974e-319 and Call times are: 54459
C	0.325911	1.3098	-3.21004
C	0.602209	0.268474	-2.1949
O	1.17345	-0.771012	-2.4943
H	0.705557	0.969556	-4.19795
H	0.836605	2.25672	-2.93555
H	-0.767238	1.48868	-3.2873
N	0.189917	0.527879	-0.951881
C	0.386486	-0.387338	0.143822
C	-0.6184	-0.0417946	1.22551
O	-1.23584	1.02102	1.19356
H	-0.30023	1.36568	-0.726547
H	0.172304	-1.39302	-0.194998
C	1.82334	-0.293772	0.704025
H	2.03991	0.739406	1.05008
H	1.97818	-0.997279	1.54775
H	2.54988	-0.547992	-0.0982553
N	-0.821794	-0.947707	2.20221
C	-1.76788	-0.710734	3.26755
H	-0.31756	-1.80501	2.20657
H	-1.79003	-1.57096	3.97238
H	-2.79372	-0.567288	2.85729
H	-1.49388	0.204833	3.84013
C	2583.6	-0.420917	3.45085
C	2582.82	-0.268577	2.20148
O	2581.61	-0.401502	2.19419
H	2582.91	-0.663694	4.28726
H	2584.13	0.524309	3.68737
H	2584.34	-1.24366	3.34393
N	2583.52	0.0127853	1.09832
C	2582.9	0.190477	-0.192054
C	2583.97	-0.0264692	-1.25058
O	2585.16	-0.0513772	-0.948395
H	2584.51	0.0898305	1.11181
H	2582.14	-0.570059	-0.327296
C	2582.29	1.60263	-0.334051
H	2583.07	2.38039	-0.194072
H	2581.82	1.74279	-1.32643
H	2581.52	1.74947	0.447643
N	2583.56	-0.211211	-2.52075
C	2584.5	-0.436807	-3.59358
H	2582.59	-0.194678	-2.74398
H	2583.97	-0.564019	-4.56229
H	2585.1	-1.35397	-3.40144
H	2585.2	0.423484	-3.68883
