44
  This energy is 1.36599e-319 and Call times are: 98097
C	2.21799	1.6142	-2.14499
C	0.845558	1.292	-1.69354
O	-0.127707	1.85288	-2.17797
H	2.17134	2.39891	-2.93106
H	2.70365	0.709916	-2.56835
H	2.82186	1.99353	-1.29388
N	0.73799	0.36924	-0.734735
C	-0.529562	-0.050558	-0.192601
C	-0.272289	-0.671422	1.16665
O	0.867487	-0.975991	1.51304
H	1.54019	-0.0593955	-0.327695
H	-1.15434	0.820892	-0.0432449
C	-1.22746	-1.07101	-1.11928
H	-0.583471	-1.96343	-1.27088
H	-2.20383	-1.39625	-0.704913
H	-1.40926	-0.604479	-2.11197
N	-1.33044	-0.853903	1.98091
C	-1.1803	-1.42717	3.29811
H	-2.24388	-0.594352	1.68511
H	-2.16473	-1.49675	3.81124
H	-0.502431	-0.802286	3.92361
H	-0.745082	-2.45072	3.23404
C	4650.34	0.296278	-0.424667
C	4648.95	0.592829	-0.831764
O	4648.71	1.397	-1.72151
H	4651.04	0.906487	-1.0364
H	4650.57	-0.778845	-0.586635
H	4650.49	0.547089	0.646956
N	4647.99	-0.0578248	-0.173116
C	4646.59	0.124199	-0.455538
C	4645.81	-0.326429	0.762243
O	4646.35	-0.981506	1.65075
H	4648.2	-0.688739	0.569567
H	4646.39	1.17909	-0.600534
C	4646.15	-0.687665	-1.69642
H	4646.36	-1.76931	-1.54452
H	4645.08	-0.549674	-1.91681
H	4646.74	-0.348914	-2.58133
N	4644.51	0.0354462	0.841338
C	4643.69	-0.337795	1.96933
H	4644.09	0.571687	0.115468
H	4642.65	0.051935	1.84841
H	4644.11	0.0736037	2.91517
H	4643.64	-1.44628	2.06797
