44
  This energy is 1.27568e-320 and Call times are: 105867
C	-2.71405	0.725969	2.05743
C	-1.94873	0.900477	0.802427
O	-2.39866	1.55671	-0.126773
H	-3.68536	1.26002	1.97258
H	-2.14608	1.147	2.91357
H	-2.91104	-0.351598	2.23906
N	-0.757172	0.300983	0.746259
C	0.103564	0.379168	-0.406932
C	1.0712	-0.786678	-0.345969
O	1.20201	-1.44169	0.686347
H	-0.414374	-0.255008	1.49879
H	-0.495206	0.263245	-1.30142
C	0.881161	1.71387	-0.438986
H	1.49383	1.82984	0.48042
H	1.54478	1.77745	-1.32574
H	0.161116	2.55992	-0.482381
N	1.75939	-1.08701	-1.46498
C	2.69422	-2.18733	-1.50473
H	1.63429	-0.549444	-2.29239
H	3.16018	-2.27129	-2.51125
H	2.17964	-3.14852	-1.27546
H	3.50456	-2.04194	-0.75414
C	5010.79	-0.755441	-1.37082
C	5011.96	-1.09785	-0.531884
O	5011.97	-2.10647	0.160287
H	5010	-1.5311	-1.23951
H	5011.08	-0.719115	-2.44095
H	5010.38	0.229546	-1.06765
N	5012.99	-0.246864	-0.572413
C	5014.2	-0.444032	0.187649
C	5014.89	0.898825	0.319505
O	5014.55	1.8521	-0.378942
H	5012.96	0.586493	-1.11785
H	5013.93	-0.7786	1.18355
C	5015.13	-1.45974	-0.501363
H	5015.4	-1.11371	-1.52305
H	5016.07	-1.61404	0.0813049
H	5014.62	-2.43881	-0.593026
N	5015.87	1.01049	1.23993
C	5016.57	2.25344	1.44467
H	5016.12	0.2295	1.80037
H	5017.34	2.14287	2.2425
H	5015.87	3.06133	1.74629
H	5017.08	2.57362	0.50821
