44
  This energy is 1.21486e-319 and Call times are: 23547
C	-2.8927	1.54508	-1.17096
C	-1.44352	1.55336	-0.869266
O	-0.73283	2.49067	-1.20521
H	-3.1594	2.47569	-1.71749
H	-3.47927	1.50075	-0.22926
H	-3.14662	0.670157	-1.80577
N	-0.966329	0.487285	-0.22263
C	0.421405	0.350179	0.140997
C	0.70128	-1.12335	0.363769
O	-0.22124	-1.92848	0.475808
H	-1.55003	-0.283058	0.019863
H	1.03629	0.680332	-0.686647
C	0.749718	1.15258	1.41986
H	0.116661	0.811758	2.26673
H	1.81751	1.04934	1.7026
H	0.539357	2.23007	1.24407
N	1.98993	-1.51462	0.411484
C	2.35255	-2.89885	0.607949
H	2.72214	-0.848951	0.311558
H	3.45843	-3.01782	0.619615
H	1.94046	-3.53287	-0.210243
H	1.94887	-3.27751	1.57482
C	1120.33	2.9114	-1.0846
C	1121.53	2.07406	-0.903875
O	1122.61	2.39939	-1.39061
H	1120.59	3.80034	-1.70015
H	1119.95	3.25464	-0.098856
H	1119.53	2.33293	-1.60373
N	1121.38	0.955212	-0.192268
C	1122.46	0.0389738	0.0697336
C	1121.86	-1.30714	0.418858
O	1120.66	-1.40878	0.687244
H	1120.49	0.686416	0.174409
H	1123.04	-0.0863372	-0.834509
C	1123.35	0.537688	1.22879
H	1122.75	0.665787	2.15467
H	1124.19	-0.165386	1.43309
H	1123.79	1.52493	0.961186
N	1122.67	-2.38112	0.401733
C	1122.18	-3.70491	0.708917
H	1123.63	-2.27935	0.175079
H	1123	-4.45266	0.642978
H	1121.38	-4.00218	-0.00388171
H	1121.76	-3.7384	1.73903
