44
  This energy is 1.36797e-319 and Call times are: 12081
C	-2.9138	-1.875	0.346771
C	-1.55131	-1.67546	-0.196374
O	-0.977576	-2.56596	-0.808202
H	-3.25773	-2.90455	0.106758
H	-3.61734	-1.14604	-0.107625
H	-2.9091	-1.74558	1.44957
N	-0.993467	-0.482911	0.0249726
C	0.326005	-0.138582	-0.441138
C	0.82837	1.02089	0.397009
O	0.0585568	1.65963	1.11201
H	-1.45958	0.224252	0.549944
H	0.988854	-0.977802	-0.272569
C	0.310113	0.253716	-1.93545
H	-0.371383	1.11451	-2.10489
H	1.32453	0.519298	-2.29766
H	-0.0608518	-0.60354	-2.53848
N	2.1443	1.30645	0.344119
C	2.71509	2.3851	1.1167
H	2.75218	0.773339	-0.235102
H	3.80997	2.46166	0.936088
H	2.55037	2.21823	2.20586
H	2.24542	3.35712	0.841442
C	577.195	0.352583	-2.28423
C	578.259	-0.447398	-1.6364
O	578.374	-1.64488	-1.85849
H	576.587	-0.307679	-2.93981
H	577.645	1.15748	-2.90288
H	576.534	0.803889	-1.51521
N	579.07	0.208342	-0.802366
C	580.151	-0.432793	-0.0979388
C	580.503	0.428692	1.09929
O	580.083	1.58072	1.18988
H	578.947	1.17789	-0.607373
H	579.81	-1.39021	0.274689
C	581.388	-0.60966	-1.0069
H	581.735	0.3744	-1.38794
H	582.222	-1.10317	-0.467688
H	581.117	-1.24148	-1.88067
N	581.269	-0.121424	2.06172
C	581.645	0.618831	3.24364
H	581.593	-1.05757	1.97339
H	582.277	-0.00476359	3.91384
H	580.741	0.938114	3.81124
H	582.22	1.53226	2.96885
