44
  This energy is 1.49129e-319 and Call times are: 111495
C	2.92745	1.27117	-1.39294
C	1.52284	1.42407	-0.951466
O	0.978272	2.51945	-0.942523
H	3.3338	2.2664	-1.67625
H	2.98041	0.597387	-2.27386
H	3.54401	0.852257	-0.569948
N	0.898463	0.309555	-0.563687
C	-0.46878	0.297645	-0.10835
C	-0.674841	-0.95914	0.714613
O	0.149703	-1.87084	0.686965
H	1.3621	-0.572336	-0.547927
H	-0.630198	1.14736	0.542803
C	-1.45726	0.323321	-1.29552
H	-1.28842	-0.549402	-1.96182
H	-2.51095	0.314383	-0.948472
H	-1.29534	1.24812	-1.89107
N	-1.7768	-1.02664	1.48736
C	-2.05056	-2.17895	2.31405
H	-2.4285	-0.275427	1.50146
H	-3.0033	-2.04504	2.87225
H	-1.23107	-2.33653	3.05219
H	-2.13546	-3.09854	1.69089
C	5284.56	-0.934299	-2.03922
C	5283.67	0.0899577	-1.4529
O	5283.88	1.28343	-1.61752
H	5285.38	-0.43098	-2.59517
H	5284	-1.5796	-2.74242
H	5285.01	-1.56176	-1.23663
N	5282.64	-0.363	-0.738785
C	5281.68	0.510506	-0.106827
C	5281	-0.268775	1.00081
O	5281.11	-1.49191	1.06665
H	5282.49	-1.33712	-0.587629
H	5282.21	1.33813	0.350015
C	5280.63	1.02298	-1.1192
H	5280.09	0.171315	-1.58645
H	5279.89	1.69598	-0.635954
H	5281.14	1.59105	-1.92603
N	5280.3	0.428913	1.91439
C	5279.62	-0.226588	3.01129
H	5280.23	1.41891	1.84792
H	5279.1	0.51673	3.65151
H	5280.35	-0.781942	3.64442
H	5278.87	-0.955117	2.63162
