44
  This energy is 1.03793e-319 and Call times are: 4773
C	-2.80508	-0.400442	2.02418
C	-1.45784	-0.812998	1.57036
O	-0.838636	-1.69587	2.14795
H	-3.09299	-1.00154	2.91393
H	-3.54942	-0.572098	1.21838
H	-2.80293	0.674594	2.3021
N	-0.965362	-0.16701	0.510869
C	0.331296	-0.456139	-0.0476206
C	0.772737	0.752103	-0.850441
O	-0.0280081	1.63712	-1.14605
H	-1.46741	0.570394	0.0668828
H	1.03988	-0.591451	0.759639
C	0.28774	-1.70797	-0.952134
H	-0.440654	-1.56598	-1.77881
H	1.28456	-1.93354	-1.3837
H	-0.0381127	-2.58574	-0.352573
N	2.07078	0.826967	-1.20466
C	2.58471	1.94599	-1.95955
H	2.70461	0.10411	-0.949776
H	3.67299	1.82275	-2.15375
H	2.4339	2.89859	-1.40183
H	2.06129	2.03287	-2.93917
C	237.852	2.18107	-0.578215
C	236.741	1.32715	-1.05583
O	236.406	1.3252	-2.2322
H	238.263	2.7616	-1.43277
H	238.661	1.55254	-0.149244
H	237.486	2.88937	0.19441
N	236.134	0.574911	-0.135403
C	235.037	-0.307149	-0.446438
C	234.28	-0.580478	0.838622
O	234.769	-0.292691	1.92953
H	236.397	0.607169	0.825009
H	234.362	0.197323	-1.12537
C	235.539	-1.63347	-1.05985
H	236.233	-2.14803	-0.360994
H	234.697	-2.31494	-1.30069
H	236.093	-1.41951	-1.99986
N	233.052	-1.12614	0.736725
C	232.253	-1.41086	1.90531
H	232.671	-1.34523	-0.155495
H	231.277	-1.85851	1.61449
H	232.053	-0.478379	2.48129
H	232.78	-2.12569	2.57778
