44
  This energy is 1.4027e-319 and Call times are: 104523
C	0.932874	2.90859	-1.67211
C	-0.094201	1.96732	-1.17179
O	-1.28576	2.23491	-1.24298
H	0.433763	3.81622	-2.07579
H	1.52483	2.43355	-2.48251
H	1.61169	3.20895	-0.846318
N	0.354417	0.827707	-0.640384
C	-0.522274	-0.186603	-0.111786
C	0.282552	-1.04647	0.843259
O	1.51043	-0.984803	0.86206
H	1.32872	0.634156	-0.561641
H	-1.30896	0.2907	0.458642
C	-1.1173	-1.05918	-1.23947
H	-0.307493	-1.54679	-1.82305
H	-1.79295	-1.84113	-0.835965
H	-1.70343	-0.417444	-1.93285
N	-0.396777	-1.85727	1.6782
C	0.284291	-2.70347	2.63018
H	-1.39058	-1.88763	1.65257
H	-0.446842	-3.29557	3.22357
H	0.893467	-2.09163	3.3343
H	0.967669	-3.41171	2.10809
C	4954.13	-1.31121	-0.795511
C	4952.86	-0.638115	-1.17238
O	4952.7	-0.181661	-2.29559
H	4954.82	-1.30317	-1.66415
H	4953.93	-2.36404	-0.50466
H	4954.61	-0.778314	0.0524102
N	4951.93	-0.556065	-0.222423
C	4950.65	0.0692122	-0.437517
C	4950.08	0.445666	0.917036
O	4950.57	-0.008885	1.9509
H	4952.08	-0.905986	0.69747
H	4950.79	0.983402	-0.999103
C	4949.68	-0.878051	-1.17641
H	4949.53	-1.81515	-0.597841
H	4948.69	-0.39969	-1.3438
H	4950.1	-1.14729	-2.16654
N	4949.04	1.30777	0.942952
C	4948.45	1.73281	2.18691
H	4948.67	1.67007	0.0958459
H	4947.61	2.4402	1.99889
H	4949.2	2.24362	2.83049
H	4948.05	0.858343	2.75003
