44
  This energy is 5.6615e-320 and Call times are: 32829
C	-3.24687	-1.1471	-0.517795
C	-2.07137	-0.341921	-0.919145
O	-2.03223	0.223436	-2.00327
H	-3.99987	-1.13058	-1.33547
H	-3.70475	-0.723983	0.400973
H	-2.94428	-2.19865	-0.329063
N	-1.06886	-0.277034	-0.039865
C	0.140313	0.467165	-0.286629
C	1.21995	-0.0824408	0.625269
O	0.932789	-0.821407	1.56511
H	-1.10052	-0.765908	0.827854
H	0.455284	0.297928	-1.3085
C	-0.0631521	1.97538	-0.0201371
H	-0.386881	2.14531	1.02888
H	0.865924	2.5514	-0.20932
H	-0.857203	2.36562	-0.693439
N	2.4971	0.250702	0.353404
C	3.59269	-0.234874	1.15967
H	2.70967	0.844128	-0.415942
H	4.56341	0.150947	0.777437
H	3.6279	-1.34833	1.14506
H	3.47728	0.0930385	2.21813
C	1561.67	-2.85971	0.273482
C	1560.44	-2.08729	0.584512
O	1559.51	-2.59871	1.18456
H	1561.56	-3.89651	0.658582
H	1562.55	-2.39016	0.757495
H	1561.83	-2.89947	-0.824754
N	1560.42	-0.818315	0.170255
C	1559.3	0.059371	0.39826
C	1559.38	1.18775	-0.611553
O	1560.41	1.38017	-1.25991
H	1561.18	-0.421795	-0.343164
H	1558.39	-0.484922	0.212064
C	1559.32	0.629428	1.8342
H	1560.26	1.18661	2.02202
H	1558.46	1.30555	2.01321
H	1559.26	-0.207085	2.56434
N	1558.28	1.95034	-0.784129
C	1558.26	3.03989	-1.73207
H	1557.46	1.77422	-0.255056
H	1557.27	3.54676	-1.726
H	1558.46	2.6673	-2.76344
H	1559.04	3.7937	-1.48243
