44
  This energy is 1.46377e-319 and Call times are: 18465
C	1.10687	2.85784	-1.6534
C	0.670195	2.14914	-0.429361
O	0.736887	2.68375	0.668925
H	1.47523	3.87044	-1.37987
H	0.255738	2.96344	-2.35855
H	1.92856	2.29783	-2.14751
N	0.21148	0.906409	-0.5954
C	-0.249862	0.0907207	0.499426
C	-0.193306	-1.35847	0.0568288
O	-0.0482527	-1.64828	-1.12926
H	0.189366	0.471436	-1.49164
H	0.429064	0.206274	1.33476
C	-1.69135	0.464645	0.911006
H	-2.38507	0.345598	0.0515248
H	-2.04967	-0.161416	1.75388
H	-1.7196	1.52876	1.23195
N	-0.285389	-2.30708	1.00954
C	-0.229493	-3.71311	0.683774
H	-0.39524	-2.05226	1.96465
H	-0.324252	-4.3336	1.60207
H	0.737053	-3.96378	0.189614
H	-1.0547	-3.98844	-0.0122227
C	883.651	1.35166	1.47328
C	882.988	0.406206	0.547066
O	883.639	-0.286092	-0.223189
H	884.751	1.30217	1.32319
H	883.419	1.08247	2.52527
H	883.307	2.38832	1.27303
N	881.655	0.361101	0.599628
C	880.869	-0.508429	-0.238501
C	879.461	0.0515267	-0.299765
O	879.095	0.919587	0.490318
H	881.134	0.951209	1.21099
H	881.274	-0.490406	-1.2423
C	880.843	-1.9508	0.314702
H	880.427	-1.96551	1.34485
H	880.239	-2.62303	-0.328338
H	881.88	-2.34912	0.355704
N	878.642	-0.420279	-1.26019
C	877.288	0.0623315	-1.40281
H	878.959	-1.11757	-1.89451
H	876.775	-0.448451	-2.24754
H	877.28	1.15886	-1.5998
H	876.704	-0.125407	-0.47296
