44
  This energy is 1.60868e-320 and Call times are: 105993
C	-0.709301	-2.10722	2.68005
C	-0.299717	-1.8801	1.27582
O	0.0887582	-2.80298	0.573066
H	-0.590733	-3.1845	2.92756
H	-1.77317	-1.82152	2.81923
H	-0.0733951	-1.50876	3.36592
N	-0.373827	-0.623011	0.832414
C	-0.0103588	-0.244935	-0.509889
C	0.284616	1.24242	-0.51129
O	-0.0424771	1.94902	0.440316
H	-0.664234	0.124807	1.42349
H	0.900202	-0.761124	-0.78648
C	-1.14411	-0.562646	-1.51028
H	-2.0769	-0.0320114	-1.22315
H	-0.867505	-0.272924	-2.54485
H	-1.35144	-1.65491	-1.49891
N	0.933365	1.75002	-1.57781
C	1.26743	3.15271	-1.66177
H	1.19594	1.16057	-2.33467
H	1.79679	3.37453	-2.61457
H	1.92864	3.45041	-0.815952
H	0.347263	3.77924	-1.61772
C	5017.35	-2.22895	-0.798525
C	5018.55	-1.44937	-1.15631
O	5019.11	-1.60375	-2.23499
H	5017.09	-2.91566	-1.63478
H	5016.49	-1.5465	-0.619874
H	5017.54	-2.83045	0.115298
N	5018.99	-0.584465	-0.23968
C	5020.15	0.245021	-0.441922
C	5020.66	0.68277	0.919986
O	5019.96	0.543075	1.92248
H	5018.55	-0.488862	0.646942
H	5020.93	-0.346948	-0.90547
C	5019.82	1.48062	-1.30681
H	5019.02	2.08528	-0.828648
H	5020.71	2.12142	-1.46463
H	5019.45	1.14651	-2.30124
N	5021.9	1.20591	0.990026
C	5022.46	1.63945	2.24553
H	5022.45	1.3041	0.168547
H	5023.49	2.04141	2.09534
H	5022.52	0.790369	2.96452
H	5021.84	2.43856	2.70466
