44
  This energy is 1.58896e-319 and Call times are: 73401
C	0.935524	2.71112	1.97504
C	0.635353	1.27258	1.79699
O	0.831636	0.469167	2.69838
H	1.34145	2.87793	2.99643
H	0.0103872	3.31289	1.85332
H	1.69055	3.03974	1.23012
N	0.149946	0.910938	0.607051
C	-0.190408	-0.451398	0.28297
C	-0.197297	-0.583183	-1.2276
O	-0.191136	0.414885	-1.94569
H	0.0218795	1.57035	-0.128962
H	0.580432	-1.10751	0.666886
C	-1.57219	-0.837588	0.856256
H	-2.3605	-0.162066	0.460854
H	-1.83732	-1.88601	0.60869
H	-1.5544	-0.735731	1.96326
N	-0.188198	-1.82678	-1.74662
C	-0.18203	-2.04999	-3.17362
H	-0.186066	-2.62171	-1.14886
H	-0.17668	-3.13873	-3.40133
H	0.719566	-1.5901	-3.63931
H	-1.08366	-1.59729	-3.64617
C	3483.45	1.97409	-2.6701
C	3482.39	1.26939	-1.90812
O	3481.21	1.40083	-2.1949
H	3482.98	2.58761	-3.4686
H	3484.14	1.23977	-3.13972
H	3484.03	2.6423	-1.99666
N	3482.8	0.497609	-0.89956
C	3481.9	-0.250893	-0.0671576
C	3482.61	-0.565971	1.23348
O	3483.83	-0.420249	1.33466
H	3483.77	0.421655	-0.657508
H	3481.04	0.3702	0.168428
C	3481.45	-1.55839	-0.757624
H	3482.33	-2.19285	-0.998491
H	3480.75	-2.13712	-0.119482
H	3480.93	-1.31401	-1.70959
N	3481.86	-0.98714	2.27112
C	3482.45	-1.29947	3.55194
H	3480.88	-1.09188	2.17144
H	3481.67	-1.6297	4.2738
H	3482.97	-0.406725	3.97566
H	3483.2	-2.11522	3.44991
