44
  This energy is 2.42537e-320 and Call times are: 19893
C	3.4638	-0.188702	-0.30434
C	2.19183	0.566668	-0.356474
O	2.18276	1.78048	-0.50839
H	4.31518	0.517583	-0.414662
H	3.5026	-0.930045	-1.13001
H	3.55705	-0.714774	0.669054
N	1.07195	-0.147829	-0.223309
C	-0.241413	0.444628	-0.253206
C	-1.20013	-0.513028	0.427238
O	-0.869614	-1.67441	0.659167
H	1.09357	-1.13233	-0.0709255
H	-0.227289	1.36091	0.323252
C	-0.702448	0.717714	-1.70234
H	-0.715131	-0.224291	-2.29105
H	-1.7133	1.17404	-1.72902
H	0.00865877	1.41951	-2.19015
N	-2.40975	-0.0382339	0.784138
C	-3.38367	-0.873456	1.44752
H	-2.65575	0.906554	0.594151
H	-4.31472	-0.301862	1.65648
H	-2.98152	-1.25387	2.41437
H	-3.64584	-1.75114	0.813392
C	947.156	-0.24038	3.3934
C	947.696	-0.805202	2.13593
O	948.279	-1.88037	2.1245
H	947.382	-0.932628	4.23348
H	946.056	-0.116183	3.31585
H	947.625	0.74406	3.60305
N	947.514	-0.0761614	1.03239
C	947.981	-0.492926	-0.265572
C	948.081	0.739923	-1.14267
O	947.557	1.79837	-0.801505
H	947.062	0.811839	1.05953
H	948.976	-0.906763	-0.164968
C	947.023	-1.52299	-0.90436
H	946.003	-1.09538	-1.00546
H	947.38	-1.84615	-1.90383
H	946.957	-2.42073	-0.251748
N	948.781	0.635759	-2.28991
C	948.94	1.76005	-3.18255
H	949.204	-0.227491	-2.54493
H	949.545	1.47412	-4.07112
H	949.453	2.60269	-2.66537
H	947.948	2.1248	-3.53597
