44
  This energy is 6.17533e-320 and Call times are: 3177
C	-2.13047	0.44622	2.71811
C	-1.33018	0.975607	1.59095
O	-1.39071	2.15481	1.27111
H	-2.73739	1.26843	3.15569
H	-1.46098	0.0365791	3.50347
H	-2.81303	-0.353372	2.36075
N	-0.554287	0.097795	0.950791
C	0.282028	0.461893	-0.164931
C	0.592014	-0.80015	-0.946209
O	0.367501	-1.90885	-0.46433
H	-0.535781	-0.866204	1.20238
H	-0.271179	1.12526	-0.817598
C	1.5927	1.12896	0.308653
H	2.15737	0.445931	0.978529
H	2.23895	1.41072	-0.547934
H	1.35195	2.05149	0.880593
N	1.0982	-0.658687	-2.18708
C	1.41312	-1.80335	-3.00973
H	1.26609	0.247122	-2.56199
H	1.81989	-1.48068	-3.99343
H	0.50242	-2.41874	-3.19188
H	2.17196	-2.44889	-2.51112
C	158.172	-1.66532	2.88035
C	159.171	-0.888321	2.11243
O	160.196	-0.479792	2.6401
H	158.521	-1.77576	3.93015
H	158.048	-2.67476	2.43489
H	157.195	-1.13859	2.87985
N	158.885	-0.659352	0.828685
C	159.758	0.0807507	-0.0468862
C	158.93	0.586857	-1.21187
O	157.803	0.142305	-1.422
H	158.033	-0.972477	0.417956
H	160.14	0.943247	0.48422
C	160.917	-0.801327	-0.562512
H	160.521	-1.68555	-1.10628
H	161.591	-0.234532	-1.23686
H	161.515	-1.16669	0.30045
N	159.465	1.55035	-1.98733
C	158.745	2.10176	-3.11182
H	160.375	1.90211	-1.79667
H	159.353	2.87966	-3.62436
H	157.79	2.56749	-2.77699
H	158.501	1.3048	-3.85077
