44
  This energy is 1.47207e-319 and Call times are: 54165
C	-0.630499	2.80924	-1.95876
C	-0.859158	1.98854	-0.748239
O	-1.55098	2.39948	0.173181
H	-1.16368	3.77879	-1.85127
H	-1.0185	2.28338	-2.85639
H	0.454365	3.00799	-2.08727
N	-0.267233	0.792162	-0.722405
C	-0.395876	-0.119784	0.386033
C	0.767603	-1.09046	0.328203
O	1.46369	-1.1779	-0.681575
H	0.317639	0.480776	-1.46665
H	-0.314171	0.43689	1.31097
C	-1.73388	-0.890192	0.328229
H	-1.81466	-1.45961	-0.622219
H	-1.83626	-1.59317	1.18035
H	-2.5781	-0.167924	0.370168
N	1.01925	-1.8307	1.4258
C	2.11327	-2.77281	1.46733
H	0.448853	-1.7403	2.23556
H	2.15421	-3.28466	2.45403
H	3.08507	-2.25396	1.30108
H	1.9954	-3.54722	0.675136
C	2570.05	3.22645	1.13711
C	2570.02	1.75901	1.32983
O	2570.51	1.2432	2.32691
H	2570.56	3.70151	2.00277
H	2569.02	3.62195	1.06938
H	2570.6	3.48089	0.209075
N	2569.45	1.0436	0.3593
C	2569.35	-0.393213	0.403556
C	2569.14	-0.889691	-1.01459
O	2568.84	-0.110144	-1.91612
H	2569.08	1.47324	-0.461728
H	2570.28	-0.801571	0.763601
C	2568.17	-0.846296	1.29921
H	2567.22	-0.425029	0.92737
H	2568.09	-1.95211	1.33564
H	2568.34	-0.475345	2.33492
N	2569.33	-2.20399	-1.24919
C	2569.17	-2.76531	-2.5703
H	2569.58	-2.81742	-0.507743
H	2569.36	-3.86095	-2.55798
H	2569.88	-2.29334	-3.28673
H	2568.13	-2.5943	-2.94702
