44
  This energy is 9.53547e-320 and Call times are: 89823
C	-0.904583	-2.19731	2.54552
C	-1.1909	-1.05359	1.65046
O	-2.3017	-0.542543	1.6127
H	-1.82584	-2.46297	3.10817
H	-0.107128	-1.92655	3.26911
H	-0.580415	-3.07715	1.95075
N	-0.178053	-0.624735	0.89376
C	-0.301708	0.477901	-0.0258767
C	0.808896	0.356334	-1.05107
O	1.75504	-0.406648	-0.865349
H	0.714158	-1.06808	0.912301
H	-1.24473	0.394047	-0.551
C	-0.202673	1.83483	0.706286
H	0.76567	1.91721	1.24447
H	-0.297641	2.68602	0.00114132
H	-1.02085	1.91102	1.45523
N	0.706947	1.09488	-2.17364
C	1.71039	1.03564	-3.21083
H	-0.069988	1.70101	-2.30858
H	1.44842	1.71618	-4.05077
H	1.79901	0.000463682	-3.61308
H	2.70596	1.33758	-2.81227
C	4251.23	-0.497796	-1.3445
C	4252.7	-0.445536	-1.47152
O	4253.26	-0.796191	-2.50162
H	4250.79	-0.890781	-2.28847
H	4250.82	0.519372	-1.15795
H	4250.94	-1.16901	-0.508385
N	4253.37	-0.00414187	-0.405565
C	4254.81	0.103914	-0.376828
C	4255.25	0.120374	1.07505
O	4254.43	0.301168	1.97556
H	4252.91	0.251044	0.438018
H	4255.24	-0.776238	-0.839332
C	4255.29	1.38619	-1.09132
H	4254.85	2.28714	-0.61471
H	4256.4	1.47247	-1.07118
H	4254.96	1.36249	-2.15356
N	4256.55	-0.0911713	1.33754
C	4257.06	-0.105068	2.69028
H	4257.2	-0.242653	0.595434
H	4258.15	-0.292545	2.69809
H	4256.56	-0.904057	3.28728
H	4256.86	0.870839	3.19201
