44
  This energy is 7.7425e-320 and Call times are: 101961
C	0.05218	3.41715	0.668205
C	0.00444044	2.00511	1.10987
O	0.0874946	1.70959	2.29405
H	0.174362	4.0756	1.55555
H	-0.890533	3.68719	0.147444
H	0.911173	3.575	-0.0174766
N	-0.126884	1.0874	0.149179
C	-0.188707	-0.326327	0.421886
C	0.185081	-1.0629	-0.849721
O	0.225822	-0.474094	-1.92837
H	-0.164219	1.33908	-0.814254
H	0.550326	-0.572272	1.17383
C	-1.60093	-0.748648	0.884901
H	-2.35668	-0.494263	0.11143
H	-1.65203	-1.8366	1.09589
H	-1.86334	-0.201284	1.8164
N	0.48949	-2.37167	-0.747531
C	0.868368	-3.15177	-1.90255
H	0.457612	-2.82845	0.135404
H	1.07799	-4.20535	-1.61396
H	1.78318	-2.73012	-2.37854
H	0.0529067	-3.15169	-2.66163
C	4828.69	-3.22752	1.26895
C	4828.37	-1.78187	1.29538
O	4827.52	-1.33399	2.05565
H	4828.05	-3.75736	2.00823
H	4829.75	-3.3902	1.53368
H	4828.49	-3.64442	0.258937
N	4829.05	-1.00956	0.446198
C	4828.85	0.415174	0.355224
C	4829.36	0.870361	-0.998383
O	4830.06	0.130232	-1.68841
H	4829.72	-1.39055	-0.188595
H	4827.79	0.627216	0.395533
C	4829.6	1.15957	1.48284
H	4830.69	0.939264	1.43892
H	4829.45	2.25682	1.41586
H	4829.22	0.816412	2.46911
N	4829	2.09896	-1.42041
C	4829.43	2.61284	-2.70064
H	4828.43	2.68006	-0.850575
H	4829.04	3.6393	-2.86462
H	4829.07	1.96062	-3.52733
H	4830.54	2.65277	-2.75636
