44
  This energy is 1.50122e-319 and Call times are: 92007
C	2.98205	1.76635	0.336932
C	2.04304	0.935744	-0.45019
O	2.23287	0.720822	-1.63942
H	3.80379	2.11822	-0.323969
H	3.41796	1.16988	1.1658
H	2.45414	2.64918	0.755119
N	0.988496	0.447973	0.207364
C	-0.0118025	-0.376902	-0.421773
C	-1.26968	-0.309252	0.422271
O	-1.23826	0.152666	1.56134
H	0.829494	0.654248	1.16919
H	-0.246248	0.0350525	-1.39512
C	0.464888	-1.84109	-0.548433
H	0.705169	-2.26035	0.451868
H	-0.302884	-2.47898	-1.03259
H	1.38746	-1.87692	-1.16788
N	-2.41704	-0.751292	-0.129232
C	-3.66643	-0.71499	0.594572
H	-2.42319	-1.11492	-1.05496
H	-4.49325	-1.12333	-0.0274282
H	-3.92538	0.330577	0.879133
H	-3.59785	-1.31984	1.52765
C	4356.45	2.67105	-1.0966
C	4357.34	2.02775	-0.0978416
O	4357.74	2.64504	0.876159
H	4356.27	3.72664	-0.799554
H	4355.48	2.13833	-1.14651
H	4356.93	2.65735	-2.0976
N	4357.66	0.752646	-0.325972
C	4358.51	-0.00799691	0.555016
C	4359.07	-1.17347	-0.233728
O	4358.6	-1.48358	-1.32437
H	4357.34	0.26945	-1.13834
H	4359.34	0.612787	0.864981
C	4357.73	-0.526405	1.78227
H	4356.87	-1.16233	1.46062
H	4358.38	-1.1124	2.4628
H	4357.32	0.336827	2.3509
N	4360.12	-1.8357	0.293645
C	4360.73	-2.95095	-0.39108
H	4360.5	-1.56498	1.17412
H	4361.58	-3.36254	0.203928
H	4361.13	-2.63468	-1.38468
H	4359.99	-3.7653	-0.556255
