44
  This energy is 1.17019e-319 and Call times are: 5277
C	2.78717	-1.06468	-1.79562
C	1.55262	-1.33766	-1.02583
O	1.10049	-2.47083	-0.936432
H	3.16539	-2.01455	-2.23216
H	3.56723	-0.639656	-1.12952
H	2.57504	-0.350231	-2.61872
N	0.968626	-0.284894	-0.448779
C	-0.237542	-0.391119	0.332697
C	-0.883611	0.979828	0.381052
O	-0.25958	1.98135	0.0355388
H	1.3306	0.637602	-0.55323
H	-0.924221	-1.06083	-0.169327
C	0.0619129	-0.888111	1.76463
H	0.767171	-0.199109	2.2765
H	-0.864665	-0.971192	2.36906
H	0.535991	-1.89259	1.71542
N	-2.16455	1.05302	0.793154
C	-2.86583	2.31392	0.860376
H	-2.6547	0.230317	1.06177
H	-3.90658	2.16616	1.22405
H	-2.91041	2.79274	-0.144604
H	-2.3481	3.01513	1.55424
C	260.223	-1.44408	-2.99909
C	259.891	-1.53095	-1.55904
O	259.834	-2.61083	-0.98713
H	260.383	-2.46791	-3.40144
H	261.151	-0.851911	-3.14292
H	259.39	-0.96571	-3.55565
N	259.656	-0.374988	-0.933912
C	259.322	-0.297201	0.465749
C	258.631	1.03106	0.706717
O	258.667	1.9211	-0.140851
H	259.677	0.49598	-1.41755
H	258.616	-1.08285	0.703081
C	260.582	-0.409143	1.35215
H	261.305	0.397942	1.10557
H	260.329	-0.349777	2.43051
H	261.08	-1.38584	1.16542
N	257.964	1.18728	1.86711
C	257.267	2.41309	2.17856
H	257.941	0.452628	2.53716
H	256.782	2.34697	3.17771
H	256.478	2.61989	1.41962
H	257.972	3.27543	2.18712
