44
  This energy is 8.81858e-320 and Call times are: 115401
C	-3.21941	-0.15359	1.31831
C	-1.99983	-0.799731	0.783217
O	-1.86449	-2.01525	0.809592
H	-3.90573	-0.934173	1.71267
H	-3.73887	0.408519	0.513938
H	-2.95419	0.541509	2.14259
N	-1.06795	0.0149459	0.282939
C	0.171858	-0.464259	-0.27389
C	1.16542	0.681012	-0.253095
O	0.79057	1.83482	-0.0529746
H	-1.17735	1.00533	0.293698
H	0.562149	-1.24988	0.360576
C	-0.0207311	-0.974326	-1.71952
H	-0.421858	-0.166039	-2.36751
H	0.931939	-1.34419	-2.15126
H	-0.751558	-1.8122	-1.72131
N	2.46648	0.383287	-0.439073
C	3.48552	1.40677	-0.423784
H	2.75067	-0.557439	-0.592385
H	4.49086	0.963326	-0.596693
H	3.49884	1.93327	0.557977
H	3.29454	2.1635	-1.21881
C	5463.45	-2.04901	2.03025
C	5464.35	-1.83994	0.87457
O	5464.79	-2.78596	0.232886
H	5463.28	-3.13871	2.17292
H	5462.47	-1.55606	1.84701
H	5463.91	-1.63187	2.95232
N	5464.66	-0.573765	0.584156
C	5465.52	-0.210847	-0.510575
C	5466.06	1.18081	-0.238561
O	5465.56	1.89	0.630775
H	5464.32	0.18662	1.13236
H	5466.37	-0.890019	-0.533692
C	5464.76	-0.23411	-1.85685
H	5463.9	0.463249	-1.82939
H	5465.43	0.0447019	-2.70196
H	5464.38	-1.25856	-2.04387
N	5467.11	1.59678	-0.966081
C	5467.7	2.90187	-0.768767
H	5467.51	1.00541	-1.65998
H	5468.56	3.05763	-1.46268
H	5468.07	3.01173	0.275764
H	5466.95	3.70279	-0.953683
