44
  This energy is 9.5493e-320 and Call times are: 121743
C	2.31996	-1.33015	-2.23039
C	1.91343	-0.330271	-1.21738
O	2.7137	0.481182	-0.772853
H	3.39845	-1.19753	-2.46517
H	1.73014	-1.19339	-3.16111
H	2.1608	-2.35733	-1.83986
N	0.639431	-0.372438	-0.8205
C	0.0951108	0.534885	0.157921
C	-1.15433	-0.0994779	0.737327
O	-1.6769	-1.07015	0.192759
H	0.0045616	-1.05702	-1.16867
H	0.808329	0.652519	0.963871
C	-0.247313	1.90309	-0.472858
H	-0.978698	1.77863	-1.29972
H	-0.66653	2.6042	0.277793
H	0.675922	2.3568	-0.89467
N	-1.65166	0.424806	1.87478
C	-2.83089	-0.120561	2.50578
H	-1.21028	1.20589	2.3041
H	-3.08211	0.448257	3.42806
H	-2.66958	-1.18704	2.78479
H	-3.70396	-0.072561	1.8154
C	5762.49	2.04417	-0.778295
C	5763.34	1.32108	0.196681
O	5763.18	1.46274	1.40118
H	5761.76	2.68026	-0.230716
H	5761.93	1.32156	-1.41061
H	5763.12	2.69254	-1.42468
N	5764.28	0.521178	-0.312772
C	5765.18	-0.247931	0.508075
C	5766.39	-0.599905	-0.333228
O	5766.37	-0.459503	-1.55458
H	5764.42	0.436657	-1.29579
H	5765.52	0.368246	1.33119
C	5764.5	-1.53515	1.03112
H	5764.16	-2.16458	0.184091
H	5765.19	-2.12966	1.66366
H	5763.62	-1.26377	1.6448
N	5767.49	-1.04774	0.307826
C	5768.69	-1.39617	-0.409175
H	5767.49	-1.14769	1.29739
H	5769.48	-1.74441	0.293286
H	5769.08	-0.5164	-0.968825
H	5768.49	-2.21037	-1.14262
