44
  This energy is 5.90408e-320 and Call times are: 101247
C	-2.83667	1.41945	1.43688
C	-2.18319	0.538098	0.4432
O	-2.8417	-0.192924	-0.283759
H	-3.93812	1.2781	1.38504
H	-2.60016	2.48231	1.21961
H	-2.48954	1.16565	2.46061
N	-0.849867	0.5855	0.394611
C	-0.0721661	-0.212361	-0.519405
C	1.33769	-0.30935	0.0302608
O	1.71215	0.434245	0.935071
H	-0.323283	1.16367	1.01216
H	-0.482981	-1.21355	-0.549767
C	-0.0497044	0.412221	-1.93238
H	0.3717	1.43951	-1.89744
H	0.54814	-0.199676	-2.63874
H	-1.08838	0.478836	-2.32335
N	2.14925	-1.24945	-0.492807
C	3.50435	-1.42352	-0.0242099
H	1.82534	-1.8463	-1.2195
H	4.00989	-2.24443	-0.578996
H	3.51549	-1.67521	1.06104
H	4.09307	-0.488669	-0.167878
C	4791.72	-0.37823	-1.09503
C	4792.75	0.303958	-0.279044
O	4792.49	1.32624	0.340838
H	4790.76	0.188463	-1.03105
H	4791.55	-1.40836	-0.716197
H	4792.04	-0.422972	-2.15709
N	4793.96	-0.254238	-0.266723
C	4795.06	0.292477	0.480195
C	4796.35	-0.24601	-0.123394
O	4796.32	-1.19289	-0.907424
H	4794.16	-1.07084	-0.799187
H	4795.07	1.36852	0.361239
C	4794.98	-0.0916461	1.97422
H	4794.97	-1.19621	2.09255
H	4795.83	0.327825	2.55231
H	4794.03	0.307563	2.40433
N	4797.5	0.36348	0.213803
C	4798.77	-0.0723517	-0.320544
H	4797.5	1.1327	0.844299
H	4799.6	0.55274	0.0771814
H	4798.77	0.00404581	-1.43202
H	4798.97	-1.13385	-0.0464767
