44
  This energy is 1.12736e-319 and Call times are: 34887
C	1.46874	-2.95703	1.10676
C	0.49496	-2.22148	0.268949
O	-0.172851	-2.79793	-0.578536
H	1.46291	-4.03098	0.819601
H	1.1934	-2.87025	2.1789
H	2.49025	-2.54959	0.953636
N	0.396679	-0.90826	0.488378
C	-0.505933	-0.0584129	-0.246387
C	-0.0029381	1.36724	-0.12914
O	0.851951	1.66579	0.702646
H	0.967168	-0.445389	1.1616
H	-0.474482	-0.333287	-1.29306
C	-1.94664	-0.160293	0.302346
H	-1.97512	0.121738	1.37648
H	-2.64429	0.492711	-0.261252
H	-2.30302	-1.20956	0.211894
N	-0.509798	2.28091	-0.980199
C	-0.0821507	3.66019	-0.950616
H	-1.19558	2.01813	-1.65093
H	-0.615369	4.25393	-1.72547
H	1.01265	3.73628	-1.1426
H	-0.290551	4.11507	0.0447923
C	1657.35	-2.72249	-2.14257
C	1658.11	-1.94715	-1.13718
O	1659.14	-2.38547	-0.649675
H	1657.87	-3.68899	-2.32911
H	1657.29	-2.1572	-3.09633
H	1656.32	-2.92916	-1.77053
N	1657.6	-0.759952	-0.796154
C	1658.23	0.109346	0.167718
C	1657.17	1.06739	0.685676
O	1656.09	1.1859	0.108476
H	1656.75	-0.426741	-1.17887
H	1658.57	-0.484094	1.00494
C	1659.4	0.897565	-0.462258
H	1659.04	1.50473	-1.32123
H	1659.88	1.5678	0.277216
H	1660.16	0.184478	-0.838835
N	1657.46	1.76095	1.80626
C	1656.51	2.6874	2.37977
H	1658.33	1.6458	2.26275
H	1656.92	3.15966	3.2965
H	1655.56	2.16374	2.6538
H	1656.26	3.49363	1.6529
