44
  This energy is 1.02025e-319 and Call times are: 122037
C	-0.755168	3.39691	-0.129949
C	-0.521015	2.08964	-0.783738
O	-0.719823	1.93657	-1.98104
H	-1.11909	4.12587	-0.886283
H	0.189453	3.77852	0.311507
H	-1.52068	3.29435	0.667809
N	-0.0914924	1.1011	0.00407764
C	0.181007	-0.226526	-0.485808
C	0.131377	-1.17778	0.693974
O	0.142286	-0.750498	1.84686
H	0.0388227	1.23061	0.983455
H	-0.602927	-0.515289	-1.17438
C	1.56419	-0.300663	-1.17022
H	2.36599	-0.00314807	-0.461189
H	1.77716	-1.32152	-1.54873
H	1.58806	0.401508	-2.03192
N	0.053251	-2.49703	0.430384
C	-0.0103786	-3.47678	1.48973
H	0.0384058	-2.82258	-0.509312
H	-0.0685024	-4.50559	1.0709
H	-0.90738	-3.30718	2.12838
H	0.892737	-3.41294	2.13895
C	5782.45	0.943342	0.809456
C	5781.09	1.25781	0.335749
O	5780.73	2.41382	0.151625
H	5783.02	1.88942	0.951679
H	5782.98	0.316701	0.0612712
H	5782.41	0.40263	1.77822
N	5780.28	0.217073	0.130773
C	5778.92	0.362728	-0.329909
C	5778.16	-0.897779	0.0424685
O	5778.76	-1.90824	0.402246
H	5780.57	-0.718213	0.312274
H	5778.46	1.19022	0.193241
C	5778.86	0.583254	-1.85814
H	5779.34	-0.267185	-2.39167
H	5777.82	0.695951	-2.2162
H	5779.42	1.50888	-2.11805
N	5776.82	-0.85944	-0.0150264
C	5776.01	-2.00775	0.332621
H	5776.35	-0.0300677	-0.301736
H	5774.93	-1.77843	0.219695
H	5776.2	-2.31227	1.38813
H	5776.26	-2.87313	-0.324629
