44
  This energy is 1.16599e-319 and Call times are: 71931
C	0.528266	-0.386577	3.42018
C	0.610151	-0.879067	2.02664
O	1.20224	-1.91464	1.7555
H	1.07187	-1.08774	4.09006
H	-0.532228	-0.329572	3.7441
H	0.993034	0.61878	3.49888
N	0.0116407	-0.130686	1.09708
C	0.00473515	-0.478808	-0.301343
C	-0.274216	0.783214	-1.09426
O	-0.692932	1.79608	-0.536942
H	-0.442542	0.726008	1.32671
H	0.989193	-0.832053	-0.580869
C	-1.06736	-1.54778	-0.609609
H	-2.07596	-1.18235	-0.321005
H	-1.0753	-1.81827	-1.68551
H	-0.85244	-2.46672	-0.0218066
N	-0.0260712	0.757071	-2.41855
C	-0.250244	1.91497	-3.25234
H	0.319314	-0.0699862	-2.84973
H	0.0109382	1.69394	-4.31072
H	0.37272	2.77261	-2.90938
H	-1.31902	2.22693	-3.21266
C	3413.67	3.05057	1.09792
C	3413.11	1.70513	1.35659
O	3413.06	1.24669	2.48978
H	3414.01	3.49843	2.05768
H	3412.9	3.70726	0.647689
H	3414.54	2.97777	0.409861
N	3412.67	1.03065	0.29126
C	3412.1	-0.289094	0.382702
C	3412.2	-0.936903	-0.984451
O	3412.47	-0.265858	-1.97963
H	3412.74	1.40315	-0.63026
H	3412.69	-0.880696	1.07195
C	3410.62	-0.232565	0.834629
H	3410.02	0.375667	0.125675
H	3410.18	-1.24708	0.906232
H	3410.56	0.245085	1.83673
N	3412.01	-2.2689	-1.06079
C	3412.1	-2.97407	-2.31812
H	3411.8	-2.79544	-0.243007
H	3411.91	-4.06071	-2.17388
H	3413.11	-2.85075	-2.76644
H	3411.35	-2.58121	-3.04337
