44
  This energy is 5.10567e-320 and Call times are: 100911
C	2.92107	-1.15914	-1.49995
C	2.21266	-0.340415	-0.490474
O	2.82472	0.242119	0.394134
H	4.01292	-1.1345	-1.29229
H	2.73957	-0.753363	-2.51741
H	2.57016	-2.21161	-1.45404
N	0.883367	-0.28306	-0.600285
C	0.0560698	0.472475	0.306122
C	-1.35194	-0.0846045	0.226109
O	-1.67809	-0.840011	-0.687575
H	0.39391	-0.785679	-1.30792
H	0.412686	0.321269	1.31708
C	0.0541765	1.97501	-0.0537194
H	-0.311582	2.12644	-1.0917
H	-0.58175	2.55974	0.642318
H	1.09136	2.3708	0.0074594
N	-2.2171	0.260752	1.19988
C	-3.57527	-0.230549	1.21315
H	-1.932	0.867497	1.9346
H	-4.12879	0.167292	2.09212
H	-3.59002	-1.3434	1.26405
H	-4.11464	0.0799841	0.289122
C	4781.23	2.47059	-1.03104
C	4780.23	1.93147	-0.0776615
O	4780.01	2.49064	0.98716
H	4781.68	3.39187	-0.605876
H	4780.74	2.72349	-1.99446
H	4782.03	1.72392	-1.20988
N	4779.61	0.810287	-0.444106
C	4778.61	0.165999	0.376282
C	4778.51	-1.28067	-0.0661978
O	4779.01	-1.65085	-1.1265
H	4779.82	0.348283	-1.30117
H	4778.95	0.172071	1.40563
C	4777.24	0.860759	0.244997
H	4776.9	0.85332	-0.812341
H	4776.47	0.367284	0.875509
H	4777.33	1.91997	0.570999
N	4777.87	-2.14089	0.752384
C	4777.73	-3.53979	0.419851
H	4777.48	-1.82339	1.60951
H	4777.18	-4.08103	1.21712
H	4778.74	-4.01594	0.304968
H	4777.18	-3.66358	-0.539112
