44
  This energy is 9.51373e-320 and Call times are: 40095
C	-1.1823	1.0462	-3.10383
C	-0.132929	0.993151	-2.06114
O	0.984503	1.4475	-2.26462
H	-0.770259	1.5314	-4.01524
H	-2.05033	1.63727	-2.74329
H	-1.51663	0.0195815	-3.36313
N	-0.474996	0.421645	-0.9041
C	0.436389	0.295925	0.205134
C	-0.0737463	-0.813744	1.10382
O	-1.21417	-1.25437	0.972995
H	-1.37962	0.0291259	-0.760855
H	1.40698	-0.0039391	-0.169186
C	0.541289	1.61696	0.999467
H	-0.456295	1.92199	1.38144
H	1.24236	1.52373	1.85421
H	0.914878	2.422	0.329768
N	0.772714	-1.30817	2.0285
C	0.378859	-2.37372	2.92051
H	1.69395	-0.943145	2.11396
H	1.21206	-2.63932	3.60787
H	0.0962091	-3.28429	2.34413
H	-0.49869	-2.06781	3.53492
C	1902.35	2.76214	2.04701
C	1902.73	1.34651	1.8467
O	1903.17	0.674028	2.76865
H	1902.53	3.04759	3.10476
H	1901.27	2.9015	1.82401
H	1902.95	3.41929	1.38465
N	1902.57	0.858307	0.614077
C	1902.9	-0.500483	0.263823
C	1903.1	-0.559115	-1.2381
O	1902.74	0.369319	-1.95744
H	1902.24	1.42459	-0.135324
H	1903.84	-0.767199	0.731457
C	1901.78	-1.47717	0.689238
H	1900.82	-1.20022	0.208207
H	1902.03	-2.52434	0.421177
H	1901.64	-1.42387	1.79122
N	1903.71	-1.64991	-1.74574
C	1903.95	-1.78835	-3.16263
H	1904	-2.38736	-1.14638
H	1904.46	-2.75388	-3.38194
H	1904.6	-0.960646	-3.53256
H	1902.99	-1.75793	-3.73108
