44
  This energy is 8.54882e-320 and Call times are: 83061
C	2.38146	-1.57666	1.99222
C	1.36307	-0.526561	1.76552
O	1.00629	0.21457	2.67102
H	2.70784	-1.54853	3.05455
H	3.26325	-1.40145	1.34063
H	1.95406	-2.57797	1.77394
N	0.861228	-0.443808	0.531154
C	-0.136364	0.526341	0.156388
C	-0.832525	0.0203167	-1.09203
O	-0.356995	-0.906738	-1.74492
H	1.1388	-1.07235	-0.190528
H	-0.877414	0.590867	0.942997
C	0.497233	1.90962	-0.112338
H	1.25745	1.83963	-0.919365
H	-0.268137	2.65906	-0.401005
H	1.00497	2.26868	0.809305
N	-1.99404	0.607441	-1.44154
C	-2.73362	0.184375	-2.60783
H	-2.36612	1.35135	-0.896203
H	-3.65931	0.789416	-2.7273
H	-3.02436	-0.887634	-2.52114
H	-2.11687	0.301499	-3.5282
C	3935.51	3.2076	-1.26281
C	3935.92	1.79576	-1.42183
O	3936.21	1.33971	-2.52106
H	3935.5	3.70369	-2.25767
H	3936.22	3.74254	-0.597089
H	3934.49	3.25974	-0.831524
N	3935.96	1.06036	-0.308293
C	3936.35	-0.328338	-0.302112
C	3935.8	-0.959509	0.96092
O	3935.37	-0.260538	1.87836
H	3935.7	1.43563	0.5771
H	3935.89	-0.824938	-1.14674
C	3937.88	-0.48624	-0.3464
H	3938.35	0.0249533	0.521144
H	3938.18	-1.55431	-0.341913
H	3938.28	-0.0188442	-1.27562
N	3935.77	-2.3052	1.02767
C	3935.25	-2.99455	2.18577
H	3936.11	-2.8533	0.271845
H	3935.32	-4.09656	2.05018
H	3934.18	-2.72646	2.35643
H	3935.83	-2.71804	3.09872
