44
  This energy is 1.30759e-319 and Call times are: 123255
C	-2.34403	-2.34115	1.07269
C	-0.978651	-1.76939	1.0788
O	-0.128376	-2.17059	1.86146
H	-2.41737	-3.12527	1.85732
H	-2.56248	-2.79939	0.0852078
H	-3.09196	-1.54857	1.28564
N	-0.738231	-0.79882	0.194177
C	0.541019	-0.145254	0.0792911
C	0.322113	1.19037	-0.6044
O	-0.738222	1.43782	-1.17562
H	-1.44773	-0.460631	-0.418344
H	0.925556	0.052402	1.07183
C	1.53878	-1.00068	-0.733015
H	1.14082	-1.20211	-1.75045
H	2.52488	-0.500459	-0.823286
H	1.68964	-1.97673	-0.222417
N	1.31887	2.09515	-0.542364
C	1.19594	3.39793	-1.1538
H	2.16654	1.87861	-0.0692978
H	2.12057	3.99556	-0.995252
H	0.337568	3.95768	-0.716643
H	1.02356	3.3028	-2.25035
C	5837.44	-1.34021	-3.20536
C	5837.33	-1.48996	-1.73633
O	5837.17	-2.58801	-1.22239
H	5837.34	-2.33845	-3.68427
H	5838.42	-0.908483	-3.47729
H	5836.63	-0.678711	-3.58079
N	5837.42	-0.367982	-1.0182
C	5837.34	-0.352291	0.420494
C	5836.96	1.05053	0.849997
O	5837.02	1.98941	0.0585344
H	5837.52	0.523893	-1.45032
H	5836.55	-1.02041	0.735011
C	5838.68	-0.756595	1.06516
H	5839.49	-0.0695141	0.739832
H	5838.62	-0.745711	2.1729
H	5838.95	-1.78549	0.741787
N	5836.53	1.22138	2.11599
C	5836.13	2.51892	2.61047
H	5836.48	0.447827	2.73913
H	5835.81	2.45352	3.67393
H	5835.28	2.92345	2.01367
H	5836.97	3.24154	2.54194
