44
  This energy is 1.12874e-319 and Call times are: 46773
C	-0.74991	1.18143	3.18873
C	-1.02741	0.309607	2.02506
O	-1.89913	-0.54745	2.07041
H	-1.43126	0.907779	4.02344
H	-0.920766	2.24494	2.91934
H	0.300355	1.04952	3.52413
N	-0.274235	0.509848	0.941091
C	-0.425505	-0.258574	-0.26865
C	0.865322	-0.146411	-1.05632
O	1.70594	0.703274	-0.767824
H	0.45232	1.19164	0.926553
H	-0.562796	-1.30054	-0.00878713
C	-1.61127	0.25413	-1.11613
H	-1.46748	1.32353	-1.38037
H	-1.73069	-0.335435	-2.04829
H	-2.55056	0.167778	-0.527555
N	1.06206	-1.0217	-2.06189
C	2.26627	-0.998516	-2.8591
H	0.373018	-1.70649	-2.27521
H	2.23905	-1.79427	-3.63581
H	3.16381	-1.16319	-2.21993
H	2.38128	-0.0146212	-3.3689
C	2221.77	-2.15679	-2.30257
C	2220.72	-1.19354	-1.91075
O	2219.9	-0.784903	-2.72383
H	2221.67	-2.39368	-3.38387
H	2221.67	-3.09504	-1.71782
H	2222.78	-1.71882	-2.12443
N	2220.72	-0.79971	-0.635111
C	2219.76	0.132858	-0.103996
C	2220.34	0.737034	1.15794
O	2221.33	0.236976	1.69586
H	2221.41	-1.11748	0.0106438
H	2219.62	0.934927	-0.816914
C	2218.42	-0.562983	0.212728
H	2218.57	-1.38568	0.943871
H	2217.67	0.152247	0.621726
H	2218	-1.0024	-0.719459
N	2219.76	1.84669	1.6492
C	2220.25	2.49846	2.83953
H	2218.97	2.24028	1.19545
H	2219.64	3.39197	3.08334
H	2221.31	2.82804	2.69764
H	2220.22	1.80344	3.7097
