44
  This energy is 1.38225e-319 and Call times are: 123549
C	-1.36113	2.52038	-1.98019
C	-0.274191	1.57361	-1.64344
O	0.69041	1.42939	-2.38184
H	-1.13288	3.0113	-2.95115
H	-1.44626	3.30026	-1.19447
H	-2.32648	1.979	-2.06935
N	-0.412984	0.892553	-0.503584
C	0.560627	-0.0640061	-0.0410848
C	-0.126815	-0.989312	0.94404
O	-1.22828	-0.704545	1.41044
H	-1.21754	0.997545	0.0748668
H	0.890973	-0.663443	-0.879906
C	1.75982	0.636475	0.635946
H	1.41725	1.25107	1.49561
H	2.51149	-0.0971501	0.993118
H	2.25405	1.31223	-0.0956584
N	0.502213	-2.13625	1.26785
C	-0.08119	-3.08416	2.18834
H	1.38977	-2.35203	0.874261
H	0.588677	-3.9613	2.32667
H	-1.06235	-3.44914	1.8071
H	-0.251214	-2.61238	3.18317
C	5850.97	1.54176	3.11378
C	5851.27	1.57294	1.66523
O	5851.52	2.62512	1.09412
H	5851.01	2.57586	3.51983
H	5851.72	0.916675	3.64751
H	5849.95	1.12858	3.28336
N	5851.25	0.39946	1.02903
C	5851.52	0.268431	-0.379732
C	5850.92	-1.03801	-0.852884
O	5850.54	-1.88638	-0.0452056
H	5851.01	-0.446962	1.49951
H	5851.03	1.07215	-0.91055
C	5853.04	0.28092	-0.660889
H	5853.55	-0.544468	-0.114261
H	5853.26	0.180366	-1.74471
H	5853.47	1.24251	-0.308674
N	5850.78	-1.22086	-2.18143
C	5850.2	-2.42821	-2.72415
H	5851.08	-0.519442	-2.81864
H	5850.18	-2.38944	-3.83561
H	5849.16	-2.5625	-2.35926
H	5850.8	-3.32041	-2.41495
