44
  This energy is 4.07357e-320 and Call times are: 62313
C	-2.10986	1.7601	-2.13931
C	-0.978617	1.69904	-1.18655
O	-0.267499	2.67394	-0.985638
H	-2.15828	2.77638	-2.58731
H	-3.06525	1.55372	-1.61256
H	-1.9674	1.01592	-2.951
N	-0.781923	0.529358	-0.573741
C	0.277285	0.3148	0.379607
C	0.53117	-1.17762	0.465934
O	-0.270887	-1.98013	-0.00789426
H	-1.3502	-0.26586	-0.767706
H	1.18202	0.781614	0.0113529
C	-0.0973384	0.871353	1.77138
H	-1.02629	0.390786	2.14585
H	0.716106	0.707953	2.50784
H	-0.281938	1.96504	1.69439
N	1.6714	-1.58452	1.05781
C	2.00356	-2.98524	1.17537
H	2.31113	-0.91939	1.42872
H	2.97926	-3.1159	1.69325
H	2.07487	-3.45791	0.169018
H	1.22266	-3.52695	1.75669
C	2952.31	-2.06751	-1.28532
C	2952.83	-0.73315	-0.906099
O	2952.21	0.285941	-1.17962
H	2951.34	-1.94835	-1.82174
H	2952.14	-2.68533	-0.377915
H	2953.03	-2.58139	-1.95473
N	2954	-0.711036	-0.26186
C	2954.63	0.510092	0.172221
C	2956.1	0.226867	0.372465
O	2956.52	-0.928588	0.414435
H	2954.5	-1.54623	-0.070585
H	2954.54	1.25046	-0.612602
C	2954	1.02899	1.48671
H	2954.09	0.26672	2.28948
H	2954.48	1.96922	1.82371
H	2952.92	1.23154	1.32711
N	2956.93	1.28293	0.479456
C	2958.36	1.11045	0.660137
H	2956.58	2.21026	0.435836
H	2958.87	2.09653	0.728193
H	2958.79	0.546916	-0.194745
H	2958.57	0.541009	1.59406
