44
  This energy is 2.6724e-320 and Call times are: 80709
C	-0.222478	2.67974	2.2126
C	0.563639	1.7315	1.39159
O	1.77305	1.86031	1.26036
H	0.456778	3.45398	2.63097
H	-0.715011	2.14308	3.05059
H	-0.994182	3.17787	1.58867
N	-0.120152	0.745077	0.806986
C	0.504654	-0.254839	-0.0216349
C	-0.566232	-0.861577	-0.907247
O	-1.75813	-0.671988	-0.672152
H	-1.10945	0.667853	0.897883
H	1.23078	0.225212	-0.665352
C	1.17402	-1.35484	0.83221
H	0.42639	-1.84477	1.49186
H	1.65622	-2.12633	0.197331
H	1.95557	-0.897398	1.47724
N	-0.162493	-1.59191	-1.96537
C	-1.11041	-2.19843	-2.87077
H	0.806662	-1.72785	-2.14282
H	-0.583557	-2.75853	-3.67448
H	-1.75113	-1.42143	-3.34722
H	-1.77507	-2.90791	-2.32667
C	3823.8	2.22568	2.67084
C	3823.49	1.83337	1.27773
O	3822.72	2.49159	0.591997
H	3823.24	3.14688	2.92806
H	3824.89	2.43034	2.77747
H	3823.51	1.4157	3.37127
N	3824.09	0.729459	0.824923
C	3823.89	0.22154	-0.508514
C	3824.27	-1.24666	-0.510192
O	3824.9	-1.73479	0.427343
H	3824.69	0.185689	1.4029
H	3822.84	0.290047	-0.75557
C	3824.74	0.992042	-1.5394
H	3825.82	0.920227	-1.28254
H	3824.59	0.60361	-2.56723
H	3824.46	2.06628	-1.52756
N	3823.87	-1.99297	-1.56048
C	3824.18	-3.40241	-1.64305
H	3823.36	-1.58104	-2.30591
H	3823.77	-3.83861	-2.58142
H	3823.74	-3.95118	-0.780222
H	3825.28	-3.56786	-1.62936
