44
  This energy is 1.41402e-319 and Call times are: 123675
C	1.20261	-2.702	1.83822
C	1.17143	-1.87199	0.612938
O	1.96737	-2.05769	-0.297281
H	2.02553	-3.44508	1.75764
H	0.240468	-3.24297	1.95844
H	1.38101	-2.06333	2.72885
N	0.238316	-0.918326	0.566291
C	0.0828134	-0.0312908	-0.558793
C	-0.664656	1.19895	-0.0823184
O	-1.24042	1.20313	1.0041
H	-0.385497	-0.758013	1.32662
H	1.06181	0.287662	-0.893332
C	-0.692737	-0.711935	-1.70873
H	-1.69632	-1.03848	-1.36187
H	-0.814138	-0.0317539	-2.57671
H	-0.135485	-1.61223	-2.04797
N	-0.654023	2.28489	-0.88021
C	-1.32834	3.50555	-0.504077
H	-0.176419	2.26404	-1.75239
H	-1.20564	4.28133	-1.2917
H	-0.913757	3.90561	0.449504
H	-2.41767	3.32374	-0.357571
C	5855.96	-1.42386	-2.92606
C	5855.83	-0.521494	-1.76011
O	5854.88	0.240418	-1.65463
H	5855.1	-1.26592	-3.61219
H	5855.96	-2.4827	-2.5919
H	5856.9	-1.20635	-3.47372
N	5856.8	-0.585633	-0.847329
C	5856.81	0.229153	0.341296
C	5858.24	0.289934	0.851147
O	5859.09	-0.486107	0.425214
H	5857.58	-1.18961	-0.959088
H	5856.51	1.23633	0.0802927
C	5855.88	-0.352066	1.4304
H	5856.19	-1.38561	1.69527
H	5855.89	0.272956	2.34696
H	5854.84	-0.392437	1.04417
N	5858.54	1.23443	1.76517
C	5859.87	1.37548	2.29912
H	5857.83	1.85766	2.09205
H	5859.91	2.20601	3.03782
H	5860.6	1.5936	1.48449
H	5860.19	0.437505	2.80724
