44
  This energy is 9.66985e-320 and Call times are: 28461
C	-1.92427	-2.04923	-2.05523
C	-1.75465	-1.20248	-0.852961
O	-2.70664	-0.920856	-0.138189
H	-2.9941	-2.33422	-2.15578
H	-1.31377	-2.972	-1.96248
H	-1.61415	-1.49095	-2.96357
N	-0.517459	-0.766735	-0.604281
C	-0.194445	0.0651538	0.527289
C	1.10963	0.777307	0.224843
O	1.82161	0.414994	-0.709842
H	0.24452	-0.979024	-1.2103
H	-0.962722	0.819537	0.640117
C	-0.0558792	-0.771202	1.81896
H	0.732647	-1.54455	1.69948
H	0.192665	-0.133745	2.69226
H	-1.01727	-1.28873	2.02884
N	1.44293	1.82746	1.00078
C	2.6597	2.57382	0.780311
H	0.849989	2.10964	1.7478
H	2.75577	3.39726	1.52191
H	2.66786	3.01916	-0.240892
H	3.55007	1.91092	0.875003
C	1351.59	-0.579401	-0.384945
C	1352.81	0.219702	-0.634401
O	1352.8	1.16205	-1.41439
H	1350.75	-0.179679	-1.00285
H	1351.3	-0.517683	0.686303
H	1351.76	-1.64091	-0.660146
N	1353.91	-0.15028	0.0304154
C	1355.17	0.529207	-0.106687
C	1356.26	-0.42225	0.342547
O	1355.99	-1.44617	0.965096
H	1353.91	-0.937775	0.640975
H	1355.34	0.752218	-1.1527
C	1355.21	1.82065	0.740532
H	1355.03	1.58827	1.81296
H	1356.18	2.34643	0.63717
H	1354.4	2.50867	0.402445
N	1357.53	-0.114538	0.0158427
C	1358.64	-0.966986	0.390518
H	1357.73	0.714962	-0.494509
H	1359.6	-0.542401	0.032438
H	1358.52	-1.98294	-0.0504957
H	1358.69	-1.07559	1.49795
