44
  This energy is 1.26669e-319 and Call times are: 91041
C	2.83307	1.77357	0.976893
C	1.36546	1.63827	0.838986
O	0.60531	2.4595	1.3332
H	3.06372	2.68441	1.57106
H	3.30422	1.8686	-0.0240072
H	3.25176	0.887902	1.49961
N	0.929296	0.576698	0.156939
C	-0.469751	0.309163	-0.0619653
C	-0.617533	-1.16554	-0.382374
O	0.364584	-1.84854	-0.666602
H	1.55766	-0.100844	-0.215929
H	-1.01259	0.502657	0.854526
C	-1.03125	1.1634	-1.22046
H	-0.47164	0.962893	-2.15894
H	-2.10834	0.960008	-1.39162
H	-0.916012	2.24143	-0.974035
N	-1.85424	-1.69745	-0.322052
C	-2.08996	-3.0952	-0.599358
H	-2.63524	-1.1298	-0.083206
H	-3.17058	-3.33915	-0.499363
H	-1.51856	-3.73804	0.108808
H	-1.76715	-3.35042	-1.63466
C	4313.57	-0.864525	3.1637
C	4312.55	-0.26837	2.271
O	4311.47	0.0993635	2.70449
H	4313.17	-0.905313	4.20066
H	4314.49	-0.246641	3.15742
H	4313.81	-1.89563	2.83158
N	4312.88	-0.164084	0.9814
C	4311.99	0.394685	-0.00870458
C	4312.44	-0.105979	-1.36862
O	4313.54	-0.641612	-1.51213
H	4313.75	-0.494021	0.63553
H	4310.99	0.0235367	0.165872
C	4312.02	1.93921	0.0228735
H	4313.05	2.31653	-0.155909
H	4311.34	2.37274	-0.738156
H	4311.69	2.2933	1.02453
N	4311.59	0.0384851	-2.39962
C	4311.92	-0.41888	-3.72838
H	4310.7	0.468095	-2.26174
H	4311.09	-0.20862	-4.437
H	4312.11	-1.51627	-3.72941
H	4312.84	0.0926111	-4.10142
