44
  This energy is 1.56683e-319 and Call times are: 79575
C	2.59564	0.203325	2.31245
C	1.46938	-0.519841	1.68018
O	1.23814	-1.6904	1.95001
H	3.12968	-0.482515	3.00548
H	2.2163	1.07306	2.88907
H	3.30749	0.556482	1.53689
N	0.736212	0.172875	0.805549
C	-0.391821	-0.393075	0.109797
C	-0.644032	0.44527	-1.12827
O	-0.115135	1.54748	-1.25953
H	0.952483	1.11723	0.57242
H	-0.13804	-1.39365	-0.216566
C	-1.65183	-0.41292	1.00371
H	-1.90894	0.615067	1.33727
H	-2.52227	-0.848224	0.47114
H	-1.45376	-1.02919	1.90766
N	-1.44619	-0.0710677	-2.08007
C	-1.73414	0.64964	-3.29821
H	-1.85903	-0.967725	-1.95841
H	-2.4134	0.0601473	-3.95269
H	-0.796422	0.857309	-3.86284
H	-2.22388	1.62436	-3.07182
C	3771.13	-0.27358	2.98859
C	3772.37	-0.425904	2.18858
O	3773.43	-0.736302	2.71483
H	3771.36	-0.475119	4.05795
H	3770.36	-0.994427	2.64306
H	3770.74	0.760687	2.89339
N	3772.26	-0.200892	0.8773
C	3773.37	-0.309765	-0.0312639
C	3773.04	0.489926	-1.27549
O	3771.89	0.873043	-1.48675
H	3771.4	0.0797942	0.464903
H	3774.24	0.141062	0.425194
C	3773.65	-1.78267	-0.405344
H	3772.75	-2.24226	-0.872746
H	3774.51	-1.87015	-1.1047
H	3773.89	-2.35795	0.514712
N	3774.05	0.780071	-2.12148
C	3773.83	1.54671	-3.32548
H	3774.97	0.467127	-1.92929
H	3774.78	1.67773	-3.88824
H	3773.42	2.55561	-3.08024
H	3773.09	1.03341	-3.98939
