44
  This energy is 1.42879e-319 and Call times are: 98349
C	-1.24997	2.28403	-2.31233
C	-0.12871	1.66213	-1.5726
O	1.03371	1.93094	-1.8428
H	-0.843343	2.96898	-3.08781
H	-1.88988	2.86749	-1.61741
H	-1.86175	1.50168	-2.80892
N	-0.459952	0.79783	-0.610502
C	0.518648	0.11295	0.19579
C	-0.141351	-1.11967	0.78256
O	-1.36323	-1.25344	0.751585
H	-1.40986	0.565195	-0.419468
H	1.32884	-0.219272	-0.44084
C	1.04991	1.02077	1.32749
H	0.216047	1.3603	1.97827
H	1.80374	0.496587	1.95018
H	1.52991	1.92057	0.884655
N	0.659297	-2.06406	1.31462
C	0.121233	-3.27671	1.88572
H	1.64616	-1.94054	1.32375
H	0.937928	-3.92538	2.27234
H	-0.450383	-3.8511	1.12115
H	-0.568786	-3.0419	2.72829
C	4655.66	-0.0899021	1.28086
C	4657.04	-0.630295	1.17703
O	4657.42	-1.54054	1.90155
H	4655.11	-0.632081	2.08163
H	4655.12	-0.227524	0.319852
H	4655.69	0.990515	1.53511
N	4657.83	-0.0667439	0.261166
C	4659.19	-0.483771	0.0416651
C	4659.92	0.65326	-0.646088
O	4659.3	1.5911	-1.14176
H	4657.52	0.693644	-0.30301
H	4659.67	-0.648776	0.999814
C	4659.25	-1.75946	-0.827573
H	4658.76	-1.58685	-1.8095
H	4660.3	-2.08342	-0.998422
H	4658.72	-2.58448	-0.313367
N	4661.27	0.605984	-0.672547
C	4662.05	1.64982	-1.29477
H	4661.75	-0.157835	-0.259609
H	4663.14	1.42868	-1.2146
H	4661.85	2.63129	-0.80497
H	4661.79	1.74481	-2.37394
