44
  This energy is 1.59099e-319 and Call times are: 118089
C	-1.11867	-3.2953	0.125308
C	-0.250894	-2.2358	-0.436509
O	0.636389	-2.50238	-1.23536
H	-0.812127	-4.27982	-0.29016
H	-2.17857	-3.10529	-0.145477
H	-1.01956	-3.32515	1.23085
N	-0.48938	-0.990434	-0.0187254
C	0.270159	0.146053	-0.475152
C	0.10435	1.25682	0.543643
O	-0.770726	1.19415	1.40512
H	-1.19613	-0.789937	0.654511
H	1.31913	-0.120265	-0.503647
C	-0.210548	0.622841	-1.86393
H	-1.28721	0.894599	-1.83123
H	0.372273	1.49772	-2.21845
H	-0.084989	-0.200138	-2.60088
N	0.960889	2.2953	0.481175
C	0.886906	3.39315	1.41682
H	1.66676	2.32418	-0.218925
H	1.67433	4.14829	1.20008
H	1.02749	3.02991	2.46063
H	-0.106071	3.89469	1.35659
C	5595.8	2.52531	-0.0904912
C	5595.41	1.1066	0.0711176
O	5596.25	0.225014	0.162358
H	5596.9	2.60065	-0.115024
H	5595.41	3.12665	0.761024
H	5595.39	2.92901	-1.04069
N	5594.1	0.852135	0.104544
C	5593.56	-0.477549	0.257018
C	5592.14	-0.468716	-0.259028
O	5591.55	0.591667	-0.469543
H	5593.42	1.57568	-4.75543e-05
H	5594.13	-1.15883	-0.362144
C	5593.59	-0.928817	1.73442
H	5593	-0.227315	2.36685
H	5593.18	-1.95231	1.8554
H	5594.64	-0.929907	2.10085
N	5591.55	-1.65866	-0.496423
C	5590.2	-1.74847	-0.99988
H	5592.04	-2.50555	-0.326522
H	5589.9	-2.8113	-1.12766
H	5590.11	-1.23853	-1.98668
H	5589.48	-1.26278	-0.296664
