44
  This energy is 1.40107e-319 and Call times are: 6159
C	2.34848	0.452284	-2.53105
C	1.2296	0.937077	-1.69182
O	0.859705	2.10204	-1.74223
H	2.73886	1.29337	-3.14428
H	1.99691	-0.353738	-3.20895
H	3.16786	0.0644049	-1.88988
N	0.661656	0.0385873	-0.884039
C	-0.437202	0.358986	-0.00843414
C	-0.477205	-0.685261	1.09029
O	0.166336	-1.72816	0.990036
H	0.991099	-0.900332	-0.830798
H	-0.248576	1.31841	0.456327
C	-1.77936	0.376818	-0.773547
H	-1.96938	-0.608752	-1.24964
H	-2.6276	0.623341	-0.102348
H	-1.73677	1.14491	-1.57627
N	-1.22207	-0.417006	2.1808
C	-1.31086	-1.3467	3.2826
H	-1.72989	0.435675	2.24622
H	-1.97206	-0.946471	4.08253
H	-0.303869	-1.53357	3.72111
H	-1.72516	-2.32279	2.94086
C	300.459	2.98946	1.62485
C	300.564	1.51317	1.59959
O	300.408	0.850337	2.61574
H	300.237	3.32415	2.66149
H	299.64	3.32599	0.955469
H	301.416	3.44732	1.29638
N	300.843	0.958708	0.417531
C	300.977	-0.46438	0.233784
C	301.779	-0.697402	-1.0315
O	301.974	0.217377	-1.82961
H	300.997	1.51141	-0.397117
H	301.541	-0.874528	1.06155
C	299.596	-1.14918	0.121072
H	299.02	-0.72555	-0.728693
H	299.696	-2.24504	-0.0203328
H	299.018	-0.970071	1.05353
N	302.284	-1.93042	-1.23329
C	303.071	-2.24254	-2.40366
H	302.121	-2.65544	-0.572181
H	303.393	-3.30707	-2.38848
H	303.981	-1.6015	-2.44762
H	302.481	-2.06802	-3.33218
