44
  This energy is 9.88774e-320 and Call times are: 96543
C	3.47882	0.0216807	0.153208
C	2.19139	0.609215	-0.281003
O	2.14676	1.70596	-0.821058
H	4.30411	0.726256	-0.0883059
H	3.65917	-0.937814	-0.375624
H	3.4679	-0.156969	1.24907
N	1.09758	-0.11884	-0.0446071
C	-0.226299	0.31843	-0.409241
C	-1.22097	-0.451079	0.437947
O	-0.870861	-1.4453	1.07101
H	1.14409	-0.997881	0.422361
H	-0.329634	1.36824	-0.165752
C	-0.505807	0.07523	-1.90919
H	-0.398264	-1.00265	-2.15562
H	-1.52429	0.41093	-2.19339
H	0.23015	0.643326	-2.51893
N	-2.48733	0.00718441	0.486191
C	-3.50042	-0.653478	1.27571
H	-2.74931	0.817533	-0.0275505
H	-4.47598	-0.12708	1.18379
H	-3.21123	-0.670242	2.35151
H	-3.63696	-1.70647	0.938461
C	4573.16	3.02118	-1.71176
C	4572.99	2.24241	-0.464902
O	4572.99	2.79122	0.62839
H	4573.28	4.09703	-1.45905
H	4572.27	2.90294	-2.36369
H	4574.07	2.67622	-2.25601
N	4572.84	0.922637	-0.605301
C	4572.67	0.0324098	0.513864
C	4573.05	-1.36307	0.0657012
O	4573.2	-1.62335	-1.12759
H	4572.88	0.484058	-1.49943
H	4573.34	0.323829	1.30665
C	4571.2	0.0421927	1.013
H	4570.51	-0.256597	0.197001
H	4571.06	-0.642092	1.87481
H	4570.93	1.07011	1.33723
N	4573.26	-2.29225	1.02031
C	4573.64	-3.64456	0.688895
H	4573.14	-2.06016	1.98085
H	4573.76	-4.25704	1.60999
H	4574.61	-3.65394	0.13643
H	4572.87	-4.12522	0.0437472
