44
  This energy is 1.31619e-319 and Call times are: 47487
C	-0.902358	-2.63842	-2.08582
C	-1.2058	-1.36936	-1.3868
O	-2.25024	-0.767126	-1.59403
H	-1.74078	-2.88979	-2.77118
H	-0.78084	-3.46094	-1.34994
H	0.0293898	-2.53449	-2.68079
N	-0.279727	-0.926387	-0.533257
C	-0.43109	0.29213	0.221153
C	0.949366	0.747389	0.652798
O	1.91446	-0.0103495	0.573681
H	0.579896	-1.41099	-0.394887
H	-0.842677	1.05714	-0.424929
C	-1.33143	0.079418	1.4586
H	-0.906579	-0.706497	2.11887
H	-1.45022	1.01573	2.04168
H	-2.33924	-0.25501	1.12904
N	1.07876	2.0114	1.10172
C	2.35654	2.53646	1.52333
H	0.287087	2.61142	1.15149
H	2.25628	3.59181	1.8601
H	3.09033	2.50411	0.685623
H	2.76892	1.93682	2.36687
C	2257.13	1.87339	-0.777212
C	2255.69	1.76367	-0.463448
O	2255	2.76046	-0.280334
H	2257.42	2.94623	-0.799377
H	2257.34	1.42344	-1.77014
H	2257.73	1.35423	-0.00130687
N	2255.19	0.527305	-0.387904
C	2253.81	0.259166	-0.0915914
C	2253.71	-1.16452	0.420691
O	2254.64	-1.94754	0.287655
H	2255.76	-0.277471	-0.510371
H	2253.48	0.918376	0.703875
C	2252.92	0.436592	-1.3436
H	2253.25	-0.240674	-2.15788
H	2251.85	0.231041	-1.11895
H	2253	1.48313	-1.70975
N	2252.57	-1.52716	1.04155
C	2252.39	-2.85821	1.57244
H	2251.82	-0.8769	1.14565
H	2251.38	-2.96108	2.04309
H	2253.16	-3.0824	2.34247
H	2252.47	-3.61925	0.763522
