44
  This energy is 1.47997e-319 and Call times are: 123927
C	-2.64985	-2.16699	0.639218
C	-1.57787	-1.64499	-0.238036
O	-1.30587	-2.19145	-1.29818
H	-3.09782	-3.0715	0.173335
H	-3.44263	-1.40099	0.771798
H	-2.23293	-2.44247	1.6308
N	-0.931862	-0.560317	0.196167
C	0.13427	0.0638294	-0.54588
C	0.955409	0.890555	0.424426
O	0.529727	1.14604	1.54931
H	-1.14315	-0.141499	1.0753
H	0.779371	-0.706025	-0.949912
C	-0.417451	0.962617	-1.67499
H	-1.07935	1.75085	-1.25704
H	0.400806	1.44465	-2.24847
H	-1.01798	0.345445	-2.37828
N	2.16866	1.31144	0.0159317
C	3.02597	2.09387	0.875589
H	2.49829	1.0883	-0.895542
H	3.97869	2.34376	0.358748
H	3.26905	1.53084	1.80572
H	2.52595	3.04533	1.16866
C	5865.74	0.0669245	0.356193
C	5867.1	0.0598204	0.924104
O	5867.29	0.222166	2.1219
H	5865	0.241031	1.17142
H	5865.52	-0.909881	-0.123679
H	5865.64	0.878164	-0.39562
N	5868.1	-0.126009	0.0596798
C	5869.49	-0.158139	0.460738
C	5870.33	0.138325	-0.761921
O	5869.84	0.103917	-1.88909
H	5867.94	-0.228014	-0.917823
H	5869.66	0.630255	1.18157
C	5869.87	-1.53369	1.05106
H	5869.69	-2.34022	0.309175
H	5870.94	-1.56185	1.36105
H	5869.24	-1.73954	1.94525
N	5871.63	0.459675	-0.563677
C	5872.51	0.769163	-1.66692
H	5872	0.489097	0.356632
H	5873.53	1.00592	-1.29995
H	5872.13	1.64753	-2.23749
H	5872.58	-0.0939019	-2.36793
