44
  This energy is 1.3983e-319 and Call times are: 91587
C	2.63622	-0.725932	2.15626
C	1.36372	-1.0832	1.48972
O	0.890298	-2.20665	1.59094
H	3.02584	-1.61199	2.70304
H	2.47019	0.0989468	2.88071
H	3.38769	-0.409754	1.40242
N	0.776639	-0.119106	0.776819
C	-0.465017	-0.314155	0.0717846
C	-0.560474	0.747898	-1.00626
O	0.192056	1.72026	-0.999104
H	1.18717	0.783479	0.678145
H	-0.443534	-1.27928	-0.418262
C	-1.67575	-0.212689	1.02621
H	-1.69433	0.778393	1.52774
H	-2.63345	-0.362537	0.486632
H	-1.59338	-0.995082	1.81185
N	-1.47996	0.573517	-1.97586
C	-1.63537	1.52647	-3.05007
H	-2.07477	-0.223588	-1.96804
H	-2.44323	1.20746	-3.74494
H	-0.689763	1.62059	-3.63162
H	-1.89527	2.5326	-2.64841
C	4337.73	-1.11428	-3.23067
C	4337.88	-1.35108	-1.77728
O	4337.59	-2.43066	-1.27905
H	4337.33	-2.0338	-3.71336
H	4338.71	-0.867194	-3.68224
H	4337.02	-0.279184	-3.41087
N	4338.34	-0.326393	-1.05385
C	4338.54	-0.403476	0.371202
C	4338.55	1.01092	0.917694
O	4338.65	1.97585	0.162855
H	4338.54	0.557295	-1.46704
H	4337.7	-0.92332	0.816791
C	4339.87	-1.11369	0.714901
H	4340.73	-0.578142	0.255651
H	4340.03	-1.1749	1.81139
H	4339.85	-2.14827	0.308129
N	4338.42	1.16724	2.24957
C	4338.4	2.47668	2.85893
H	4338.32	0.374169	2.84291
H	4338.28	2.39569	3.96221
H	4337.56	3.08537	2.46145
H	4339.35	3.0206	2.64506
