44
  This energy is 6.49943e-320 and Call times are: 95115
C	0.150405	0.196986	3.47343
C	0.731436	-0.178042	2.16463
O	1.88307	-0.580984	2.07593
H	0.9136	0.0531455	4.26886
H	-0.728737	-0.442552	3.69908
H	-0.161144	1.26271	3.46277
N	-0.0658104	-0.045405	1.102
C	0.356168	-0.370126	-0.237145
C	-0.552629	0.364865	-1.20312
O	-1.60101	0.87632	-0.814365
H	-0.992563	0.31154	1.18358
H	1.36301	-0.00184677	-0.387832
C	0.286477	-1.89182	-0.49545
H	-0.747659	-2.26639	-0.339315
H	0.610868	-2.14537	-1.52562
H	0.955553	-2.41882	0.219216
N	-0.157855	0.453173	-2.48856
C	-0.952454	1.14397	-3.4773
H	0.697356	0.0388192	-2.78209
H	-0.460646	1.105	-4.47422
H	-1.08829	2.21314	-3.19506
H	-1.96117	0.679325	-3.56547
C	4502.24	-0.428849	-2.2029
C	4503.68	-0.235042	-1.92473
O	4504.51	-0.301311	-2.81957
H	4502.1	-0.632909	-3.28662
H	4501.67	0.486035	-1.93282
H	4501.85	-1.29077	-1.62135
N	4504.01	0.00700561	-0.654305
C	4505.37	0.217214	-0.227806
C	4505.44	-0.058301	1.26167
O	4504.41	-0.148082	1.93265
H	4503.33	0.0296526	0.0703096
H	4506.01	-0.500824	-0.725189
C	4505.84	1.66052	-0.523289
H	4505.18	2.39454	-0.0120475
H	4506.88	1.82577	-0.19628
H	4505.78	1.85016	-1.61736
N	4506.66	-0.221231	1.81127
C	4506.82	-0.498647	3.21929
H	4507.48	-0.151916	1.25019
H	4507.9	-0.597299	3.47826
H	4506.31	-1.44724	3.49517
H	4506.39	0.321955	3.83464
