44
  This energy is 4.39076e-320 and Call times are: 62439
C	-0.545498	-0.305715	-3.42565
C	0.308141	0.051873	-2.27039
O	1.48424	0.352404	-2.42195
H	0.0574389	-0.252842	-4.35814
H	-1.39596	0.403464	-3.50694
H	-0.935816	-1.33857	-3.30812
N	-0.275132	0.0205972	-1.0699
C	0.42481	0.343178	0.147826
C	-0.335983	-0.280492	1.30172
O	-1.47853	-0.706606	1.14412
H	-1.22625	-0.254074	-0.95648
H	1.40786	-0.109442	0.119084
C	0.532477	1.87156	0.346753
H	-0.477786	2.33273	0.375101
H	1.07101	2.12347	1.28339
H	1.09075	2.31657	-0.505565
N	0.292851	-0.368175	2.49037
C	-0.348251	-0.957433	3.64273
H	1.22005	-0.0240768	2.59591
H	0.329747	-0.935072	4.52424
H	-0.624138	-2.01756	3.43958
H	-1.27868	-0.402097	3.90173
C	2960.55	2.78932	2.06953
C	2959.99	1.55408	1.47645
O	2958.92	1.10221	1.85198
H	2959.86	3.16828	2.85159
H	2960.67	3.56858	1.28779
H	2961.53	2.5778	2.53494
N	2960.72	0.969169	0.52453
C	2960.31	-0.237756	-0.146516
C	2961.54	-0.884303	-0.742826
O	2962.6	-0.260236	-0.831089
H	2961.61	1.33096	0.247802
H	2959.9	-0.923717	0.583635
C	2959.28	0.0604045	-1.25685
H	2959.7	0.764928	-2.0038
H	2958.96	-0.866759	-1.77549
H	2958.38	0.534847	-0.807322
N	2961.44	-2.16569	-1.14811
C	2962.57	-2.86742	-1.71726
H	2960.58	-2.65585	-1.06171
H	2962.29	-3.90849	-1.98939
H	2963.41	-2.91113	-0.990586
H	2962.93	-2.35062	-2.63549
