44
  This energy is 3.996e-320 and Call times are: 14475
C	1.15783	0.404025	3.25919
C	1.29777	-0.127265	1.88465
O	2.32752	-0.678799	1.52147
H	2.09752	0.216574	3.82284
H	0.318626	-0.101896	3.7813
H	0.968639	1.49777	3.22949
N	0.248002	0.0358835	1.07611
C	0.23297	-0.427322	-0.288458
C	-0.832866	0.352529	-1.03348
O	-1.66713	1.018	-0.42276
H	-0.57436	0.512737	1.37489
H	1.18712	-0.201219	-0.747318
C	-0.0652873	-1.94134	-0.365287
H	-1.04452	-2.16983	0.106948
H	-0.0774555	-2.30136	-1.41458
H	0.721869	-2.50129	0.185156
N	-0.815568	0.305078	-2.38013
C	-1.78373	1.02512	-3.17409
H	-0.127974	-0.233391	-2.85605
H	-1.60464	0.858294	-4.25915
H	-1.72136	2.11911	-2.97272
H	-2.81802	0.688197	-2.93349
C	694.031	-0.0679711	-1.29595
C	692.599	-0.435272	-1.35208
O	692.128	-1.00038	-2.32981
H	694.528	-0.379895	-2.24049
H	694.525	-0.581463	-0.44411
H	694.141	1.03074	-1.17835
N	691.861	-0.110829	-0.287551
C	690.453	-0.402414	-0.193992
C	689.853	0.526204	0.84367
O	690.574	1.16205	1.61023
H	692.25	0.375463	0.490555
H	689.984	-0.180869	-1.14423
C	690.209	-1.87466	0.205957
H	690.692	-2.09867	1.1809
H	689.125	-2.10264	0.278761
H	690.654	-2.54466	-0.561454
N	688.511	0.642323	0.876948
C	687.851	1.51168	1.82287
H	687.945	0.124836	0.24353
H	686.747	1.46775	1.69347
H	688.178	2.56707	1.68146
H	688.093	1.21187	2.86802
