44
  This energy is 5.2865e-321 and Call times are: 105573
C	-2.12424	2.75757	0.0977498
C	-1.86885	1.30583	0.233512
O	-2.73127	0.548766	0.657269
H	-3.15895	2.98175	0.436818
H	-2.01886	3.06696	-0.963379
H	-1.40875	3.33228	0.722828
N	-0.654713	0.881308	-0.124295
C	-0.25673	-0.501739	-0.0493444
C	1.2585	-0.549452	-0.0173198
O	1.92488	0.443099	-0.304753
H	0.0488135	1.51217	-0.440521
H	-0.618791	-0.92218	0.880287
C	-0.788198	-1.30621	-1.25661
H	-0.415379	-0.871765	-2.20865
H	-0.483705	-2.37161	-1.20199
H	-1.89908	-1.26247	-1.26945
N	1.83971	-1.70629	0.356753
C	3.27593	-1.84186	0.428127
H	1.28307	-2.49612	0.592414
H	3.55844	-2.86744	0.753137
H	3.70366	-1.11365	1.15476
H	3.73884	-1.64926	-0.566755
C	4996.99	1.54356	-1.11901
C	4997.86	1.04733	-0.033674
O	4997.61	1.27713	1.14036
H	4996.14	2.11509	-0.676892
H	4996.58	0.690803	-1.70097
H	4997.56	2.21285	-1.7962
N	4998.94	0.348865	-0.410523
C	4999.88	-0.199387	0.529105
C	5001.18	-0.448361	-0.209773
O	5001.22	-0.42839	-1.43857
H	4999.15	0.193239	-1.37143
H	5000.08	0.534618	1.30058
C	4999.36	-1.51636	1.14698
H	4999.16	-2.26687	0.352704
H	5000.09	-1.94115	1.87107
H	4998.41	-1.32075	1.6843
N	5002.29	-0.668467	0.528122
C	5003.57	-0.90324	-0.0879825
H	5002.24	-0.673599	1.52143
H	5004.36	-1.06456	0.685215
H	5003.87	-0.0323541	-0.714598
H	5003.54	-1.8036	-0.743101
