44
  This energy is 7.46237e-320 and Call times are: 120861
C	0.819314	0.132634	-3.3819
C	-0.15211	-0.0797486	-2.28535
O	-1.34347	-0.233509	-2.51665
H	0.281533	0.128817	-4.35486
H	1.57538	-0.680487	-3.38604
H	1.32966	1.11086	-3.25717
N	0.344636	-0.0869176	-1.04617
C	-0.474637	-0.282173	0.123228
C	0.276971	0.274205	1.31686
O	1.47296	0.547566	1.23488
H	1.3128	0.0685198	-0.868883
H	-1.38705	0.290067	0.0131609
C	-0.791136	-1.7781	0.344912
H	0.147131	-2.36228	0.456759
H	-1.42194	-1.93202	1.24445
H	-1.34065	-2.17401	-0.536811
N	-0.417298	0.475885	2.4541
C	0.211599	1.01323	3.63813
H	-1.38607	0.255072	2.49832
H	-0.52386	1.10292	4.46778
H	0.63475	2.02347	3.43416
H	1.04262	0.352624	3.97603
C	5720.16	-1.47425	0.857309
C	5721.13	-0.353709	0.91637
O	5720.83	0.707866	1.44802
H	5719.21	-1.16603	1.34425
H	5720.57	-2.35851	1.39136
H	5719.96	-1.74463	-0.19926
N	5722.32	-0.568452	0.356286
C	5723.37	0.425189	0.334454
C	5724.33	0.0673105	-0.782709
O	5724.29	-1.04154	-1.3127
H	5722.54	-1.42743	-0.0993884
H	5722.93	1.38773	0.0980076
C	5724.12	0.48176	1.68342
H	5724.56	-0.507494	1.92319
H	5724.92	1.24594	1.67013
H	5723.4	0.743634	2.49361
N	5725.2	1.01231	-1.18262
C	5726.14	0.766154	-2.24716
H	5725.21	1.90592	-0.746051
H	5726.78	1.66352	-2.42731
H	5725.61	0.515959	-3.19388
H	5726.81	-0.0875644	-1.99023
