44
  This energy is 9.21284e-320 and Call times are: 83313
C	1.89735	2.63413	1.25997
C	1.7789	1.29168	0.647601
O	2.76729	0.683396	0.260875
H	2.96727	2.93533	1.28054
H	1.50915	2.61579	2.30006
H	1.32598	3.37787	0.665548
N	0.543985	0.795986	0.539713
C	0.268095	-0.497073	-0.0336212
C	-1.1842	-0.513283	-0.469311
O	-1.96429	0.357764	-0.0890995
H	-0.255769	1.31363	0.831903
H	0.878397	-0.62717	-0.918313
C	0.530495	-1.63066	0.982859
H	-0.0967297	-1.49371	1.88947
H	0.319201	-2.6277	0.544616
H	1.59734	-1.60725	1.29502
N	-1.57663	-1.49912	-1.30004
C	-2.93702	-1.58857	-1.77701
H	-0.928646	-2.19056	-1.60216
H	-3.06179	-2.46757	-2.44712
H	-3.21494	-0.671888	-2.34595
H	-3.64634	-1.69407	-0.924419
C	3949.86	1.79407	2.33304
C	3949.08	0.603092	1.92898
O	3949.01	-0.382909	2.64984
H	3950.33	1.60896	3.32569
H	3949.2	2.6802	2.40735
H	3950.66	1.99537	1.59223
N	3948.47	0.668674	0.743749
C	3947.67	-0.409522	0.214013
C	3947.58	-0.226747	-1.28849
O	3947.91	0.834882	-1.81374
H	3948.56	1.46622	0.152767
H	3948.18	-1.34696	0.401107
C	3946.26	-0.421587	0.834539
H	3945.74	0.54184	0.641288
H	3945.64	-1.25065	0.428963
H	3946.34	-0.554893	1.93539
N	3947.15	-1.27248	-2.02032
C	3947.04	-1.19502	-3.45854
H	3946.89	-2.12553	-1.57733
H	3946.67	-2.15499	-3.87697
H	3948.03	-0.977169	-3.91596
H	3946.34	-0.383988	-3.75674
