44
  This energy is 1.68328e-320 and Call times are: 125019
C	0.109558	3.46908	0.282118
C	-0.102134	2.12232	0.858854
O	-0.269488	1.9681	2.06081
H	0.0916464	4.2247	1.09734
H	-0.696237	3.70512	-0.444381
H	1.09377	3.51597	-0.22982
N	-0.0931652	1.10096	-0.000864152
C	-0.285598	-0.267242	0.408783
C	0.28891	-1.16235	-0.671938
O	0.57303	-0.708478	-1.77878
H	0.0732189	1.23661	-0.973928
H	0.276785	-0.445141	1.31661
C	-1.78242	-0.585363	0.621971
H	-2.35647	-0.401127	-0.311109
H	-1.93417	-1.63804	0.937606
H	-2.19166	0.0777087	1.41507
N	0.494289	-2.45862	-0.366165
C	1.0485	-3.38314	-1.32757
H	0.264558	-2.80519	0.537354
H	1.13868	-4.40082	-0.887744
H	2.06086	-3.0512	-1.65343
H	0.399054	-3.4476	-2.23048
C	5920.54	-2.3018	-0.631257
C	5919.54	-1.30508	-1.08534
O	5919.5	-0.933267	-2.25019
H	5921.18	-2.59838	-1.48998
H	5920.02	-3.20404	-0.237817
H	5921.18	-1.86674	0.16308
N	5918.7	-0.839549	-0.156952
C	5917.68	0.133331	-0.44543
C	5917.29	0.800943	0.859194
O	5917.63	0.3202	1.9379
H	5918.76	-1.12857	0.794842
H	5918.09	0.89535	-1.09477
C	5916.44	-0.526965	-1.09408
H	5916.02	-1.30864	-0.425545
H	5915.65	0.219341	-1.31766
H	5916.74	-1.01343	-2.0482
N	5916.58	1.94376	0.788898
C	5916.17	2.65593	1.97833
H	5916.32	2.32063	-0.0937087
H	5915.6	3.56928	1.71254
H	5917.06	2.96401	2.57407
H	5915.53	2.01181	2.62291
