44
  This energy is 3.21686e-320 and Call times are: 26109
C	-1.25162	-3.24866	-0.0761839
C	-1.37806	-1.81263	0.260035
O	-2.43286	-1.34996	0.672143
H	-2.22497	-3.75493	0.103088
H	-0.476587	-3.72399	0.561158
H	-0.975504	-3.36877	-1.14496
N	-0.287207	-1.06373	0.0824326
C	-0.25431	0.348911	0.365615
C	0.898778	0.953211	-0.411847
O	1.75797	0.235998	-0.920997
H	0.557681	-1.44666	-0.281519
H	-1.16849	0.801782	0.00330888
C	-0.0738642	0.615626	1.87671
H	0.864577	0.149082	2.2452
H	-0.0482641	1.70237	2.09831
H	-0.924203	0.167009	2.43512
N	0.931628	2.2943	-0.539881
C	1.98465	2.95783	-1.27272
H	0.223187	2.85692	-0.126597
H	1.83645	4.06019	-1.26262
H	2.00098	2.6161	-2.333
H	2.97862	2.73346	-0.822318
C	1241.9	2.98259	1.41838
C	1241.64	1.64761	0.831745
O	1240.52	1.16112	0.830167
H	1240.94	3.39511	1.81949
H	1242.29	3.67302	0.642246
H	1242.63	2.90277	2.24698
N	1242.7	1.01435	0.317519
C	1242.61	-0.290235	-0.288247
C	1244	-0.904597	-0.277353
O	1244.99	-0.215647	-0.0429001
H	1243.61	1.40872	0.351003
H	1241.97	-0.916553	0.317935
C	1242.08	-0.202863	-1.73652
H	1242.74	0.440944	-2.35542
H	1242.01	-1.20565	-2.20589
H	1241.06	0.249877	-1.73095
N	1244.09	-2.22808	-0.51099
C	1245.37	-2.90227	-0.508782
H	1243.28	-2.76968	-0.691609
H	1245.24	-3.9864	-0.722634
H	1245.87	-2.7966	0.482059
H	1246.05	-2.46897	-1.28241
