44
  This energy is 7.03549e-321 and Call times are: 112251
C	2.28989	-2.62278	0.0594591
C	1.96481	-1.17975	0.0029721
O	2.84221	-0.330392	0.0754607
H	3.3883	-2.7475	0.176972
H	1.96959	-3.12408	-0.878055
H	1.7798	-3.09658	0.924485
N	0.673035	-0.867431	-0.124054
C	0.200789	0.492356	-0.193279
C	-1.26683	0.495843	0.187942
O	-1.90539	-0.55364	0.239484
H	-0.0350275	-1.56797	-0.152753
H	0.73222	1.08709	0.538802
C	0.3829	1.07958	-1.61071
H	-0.163024	0.46664	-2.3593
H	0.0204318	2.12656	-1.66751
H	1.46194	1.07036	-1.87853
N	-1.83225	1.68204	0.486687
C	-3.22072	1.78162	0.871906
H	-1.29692	2.5193	0.446061
H	-3.49748	2.83957	1.07532
H	-3.41692	1.18489	1.79205
H	-3.88184	1.39556	0.062547
C	5315	1.58536	-3.07442
C	5315	1.59669	-1.59419
O	5314.87	2.64127	-0.969701
H	5314.88	2.62524	-3.44974
H	5314.16	0.969887	-3.45282
H	5315.96	1.172	-3.45353
N	5315.14	0.414205	-0.992038
C	5315.16	0.26383	0.441094
C	5315.85	-1.0508	0.762747
O	5316.04	-1.88854	-0.115558
H	5315.27	-0.426035	-1.51187
H	5315.76	1.05862	0.870535
C	5313.73	0.276263	1.02666
H	5313.12	-0.539939	0.58344
H	5313.74	0.160836	2.12999
H	5313.24	1.24389	0.7832
N	5316.25	-1.25289	2.0337
C	5316.92	-2.46935	2.43074
H	5316.09	-0.559847	2.72851
H	5317.16	-2.44648	3.51511
H	5317.86	-2.60115	1.8586
H	5316.27	-3.35552	2.23684
