44
  This energy is 1.12859e-319 and Call times are: 97131
C	-0.744715	0.871422	3.28818
C	-0.630013	1.19849	1.84906
O	-1.02475	2.2701	1.41051
H	-1.22389	1.72138	3.82094
H	0.262229	0.697003	3.72231
H	-1.36864	-0.0367114	3.42588
N	-0.0825831	0.262628	1.07005
C	0.0968707	0.43421	-0.34952
C	0.236689	-0.941755	-0.971137
O	0.44051	-1.93072	-0.269538
H	0.208468	-0.617942	1.4345
H	-0.791809	0.893446	-0.763555
C	1.34757	1.28676	-0.659402
H	2.2573	0.813071	-0.23264
H	1.48865	1.42098	-1.75158
H	1.23328	2.29168	-0.197646
N	0.107755	-1.03931	-2.30899
C	0.2137	-2.30988	-2.98768
H	-0.0641039	-0.22837	-2.8586
H	0.0807007	-2.18208	-4.08459
H	-0.564449	-3.01757	-2.62039
H	1.212	-2.77013	-2.80671
C	4603.16	-2.61031	0.441884
C	4602.82	-1.16931	0.429672
O	4603.62	-0.328163	0.813842
H	4604.19	-2.74252	0.841333
H	4603.12	-3.02168	-0.588608
H	4602.45	-3.16512	1.08963
N	4601.61	-0.849961	-0.0144503
C	4601.13	0.508969	-0.0863142
C	4599.62	0.472355	-0.118986
O	4599.02	-0.579069	-0.337538
H	4600.95	-1.54662	-0.297284
H	4601.43	1.03335	0.81305
C	4601.67	1.22799	-1.34217
H	4601.37	0.687	-2.26293
H	4601.31	2.27464	-1.40055
H	4602.78	1.2471	-1.30681
N	4598.96	1.62345	0.120811
C	4597.51	1.68234	0.122112
H	4599.46	2.46228	0.302667
H	4597.16	2.71557	0.337336
H	4597.09	1.00081	0.896768
H	4597.11	1.37264	-0.867679
