44
  This energy is 7.11652e-320 and Call times are: 120735
C	-2.73744	2.06305	-0.61351
C	-2.14914	0.774306	-0.184267
O	-2.84486	-0.109833	0.296109
H	-3.83144	2.05119	-0.416314
H	-2.56985	2.21701	-1.70026
H	-2.27915	2.90077	-0.0468114
N	-0.830628	0.641184	-0.346038
C	-0.11448	-0.553562	0.0234771
C	1.3461	-0.185844	0.198739
O	1.77669	0.890827	-0.210171
H	-0.270387	1.37971	-0.711604
H	-0.482743	-0.902978	0.979701
C	-0.260238	-1.65233	-1.0529
H	0.117884	-1.29026	-2.03272
H	0.289854	-2.57373	-0.771485
H	-1.33468	-1.9119	-1.17264
N	2.1411	-1.06893	0.834467
C	3.54247	-0.799708	1.05774
H	1.77223	-1.93171	1.16429
H	4.02496	-1.64631	1.59414
H	3.67282	0.122454	1.66919
H	4.07306	-0.649915	0.0896417
C	5718.75	-1.06535	2.92926
C	5717.56	-0.62104	2.17684
O	5716.44	-0.648872	2.68355
H	5718.44	-1.39998	3.94362
H	5719.47	-0.227498	3.03103
H	5719.24	-1.91267	2.40461
N	5717.77	-0.199969	0.927255
C	5716.7	0.263231	0.0707117
C	5717.18	0.157623	-1.36415
O	5718.37	-0.0214694	-1.61827
H	5718.67	-0.209512	0.515907
H	5715.85	-0.393644	0.181903
C	5716.32	1.72309	0.395176
H	5717.19	2.39411	0.280746
H	5715.5	2.08289	-0.262421
H	5715.97	1.78727	1.44923
N	5716.26	0.24504	-2.33994
C	5716.62	0.143851	-3.73481
H	5715.3	0.382888	-2.11369
H	5715.72	0.242073	-4.38186
H	5717.1	-0.839844	-3.9465
H	5717.34	0.945669	-4.01326
