44
  This energy is 5.70596e-320 and Call times are: 101163
C	-0.33376	3.44027	-0.423441
C	0.357496	2.25933	0.14115
O	1.4173	2.37375	0.741333
H	0.264075	4.35281	-0.209616
H	-1.33778	3.55234	0.0372097
H	-0.44205	3.33104	-1.52312
N	-0.235805	1.07838	-0.0478429
C	0.314437	-0.160115	0.442244
C	-0.292568	-1.29127	-0.364768
O	-1.27689	-1.09834	-1.07591
H	-1.08425	0.994863	-0.563689
H	1.38235	-0.165423	0.264487
C	0.009439	-0.355812	1.94417
H	-1.08696	-0.349186	2.12302
H	0.431828	-1.30842	2.32483
H	0.458368	0.479763	2.52419
N	0.298056	-2.50017	-0.289062
C	-0.202553	-3.63355	-1.03136
H	1.09802	-2.63441	0.286499
H	0.416524	-4.53661	-0.835202
H	-0.182875	-3.42611	-2.12582
H	-1.25429	-3.85965	-0.741677
C	4790.02	1.20231	-3.11804
C	4790.81	0.288115	-2.26602
O	4791.47	-0.622499	-2.7541
H	4790.14	0.904007	-4.18283
H	4790.38	2.24609	-2.99673
H	4788.95	1.14654	-2.84268
N	4790.77	0.512193	-0.950781
C	4791.48	-0.291696	0.00570678
C	4790.82	-0.113842	1.35664
O	4790.01	0.794978	1.54545
H	4790.21	1.23923	-0.563187
H	4791.39	-1.33421	-0.271443
C	4792.97	0.123538	0.0865022
H	4793.06	1.19374	0.370392
H	4793.53	-0.493549	0.821965
H	4793.45	-0.0102554	-0.909515
N	4791.13	-0.997103	2.3265
C	4790.54	-0.913863	3.6409
H	4791.78	-1.72987	2.15194
H	4790.92	-1.72713	4.29674
H	4789.43	-1.00534	3.57829
H	4790.77	0.0635977	4.11889
