44
  This energy is 4.14126e-320 and Call times are: 113553
C	-0.142739	2.2202	-2.67889
C	-0.0347964	1.93295	-1.23078
O	0.193997	2.82404	-0.424484
H	0.0201085	3.30635	-2.85101
H	-1.1527	1.94515	-3.04923
H	0.625206	1.64813	-3.24098
N	-0.194318	0.658794	-0.865467
C	-0.117844	0.223499	0.50621
C	0.177011	-1.26388	0.507252
O	0.0593009	-1.92876	-0.520322
H	-0.351351	-0.0624615	-1.53485
H	0.712426	0.723766	0.98835
C	-1.43712	0.504104	1.25978
H	-2.28686	-0.0100617	0.762095
H	-1.38164	0.170295	2.31632
H	-1.64241	1.59677	1.25086
N	0.590704	-1.81832	1.66374
C	0.906139	-3.22472	1.75714
H	0.686566	-1.26208	2.48267
H	1.22557	-3.48837	2.78947
H	1.73092	-3.48974	1.05662
H	0.0183538	-3.84488	1.49559
C	5380.69	0.250757	1.10145
C	5379.61	0.573195	0.141277
O	5379.79	1.39242	-0.750989
H	5381.59	0.858483	0.860789
H	5380.96	-0.825374	1.03242
H	5380.37	0.485325	2.13673
N	5378.46	-0.0716941	0.310838
C	5377.32	0.13475	-0.542922
C	5376.08	-0.320114	0.211896
O	5376.18	-0.994704	1.23482
H	5378.32	-0.71528	1.05929
H	5377.21	1.19423	-0.738689
C	5377.45	-0.654303	-1.86435
H	5377.56	-1.74073	-1.65979
H	5376.57	-0.497479	-2.52418
H	5378.36	-0.312665	-2.4072
N	5374.88	0.0598521	-0.266789
C	5373.65	-0.315898	0.391948
H	5374.82	0.611674	-1.09199
H	5372.77	0.0906664	-0.154705
H	5373.63	0.0768121	1.43429
H	5373.55	-1.42469	0.4385
