44
  This energy is 1.29989e-319 and Call times are: 29679
C	-1.75141	1.89862	-2.33537
C	-1.22657	0.606821	-1.83837
O	-1.53133	-0.448777	-2.37626
H	-2.41704	1.71393	-3.2064
H	-0.914244	2.55399	-2.65546
H	-2.33457	2.40688	-1.53879
N	-0.416714	0.664088	-0.778549
C	0.172773	-0.507392	-0.181081
C	0.572493	-0.15534	1.23861
O	0.611419	1.01665	1.6084
H	-0.199217	1.52761	-0.331383
H	-0.574273	-1.28918	-0.128207
C	1.40756	-0.984394	-0.977885
H	2.17162	-0.179704	-1.03072
H	1.86383	-1.88636	-0.52066
H	1.10169	-1.23803	-2.01628
N	0.859299	-1.17046	2.07723
C	1.23796	-0.932061	3.45053
H	0.815122	-2.11242	1.761
H	1.43522	-1.89217	3.9764
H	0.427216	-0.394909	3.99404
H	2.15975	-0.308447	3.50151
C	1413.42	-1.99453	2.8229
C	1413.26	-1.82489	1.36106
O	1413.39	-2.77262	0.597248
H	1413.66	-3.05765	3.04561
H	1412.48	-1.71882	3.34491
H	1414.25	-1.35627	3.19415
N	1412.99	-0.590348	0.933895
C	1412.81	-0.267822	-0.458641
C	1413.03	1.22221	-0.625503
O	1413.07	1.96605	0.352896
H	1412.92	0.178942	1.56356
H	1413.56	-0.782255	-1.04121
C	1411.39	-0.647317	-0.941915
H	1410.62	-0.118312	-0.341688
H	1411.24	-0.400461	-2.0138
H	1411.23	-1.74094	-0.813341
N	1413.21	1.69084	-1.87598
C	1413.45	3.09316	-2.13094
H	1413.19	1.07183	-2.65407
H	1413.57	3.27967	-3.22067
H	1414.37	3.43861	-1.61057
H	1412.59	3.70717	-1.7637
