44
  This energy is 3.28405e-320 and Call times are: 49797
C	-1.53784	-0.763114	3.02966
C	-1.57614	-0.572287	1.56224
O	-2.5759	-0.849735	0.914164
H	-2.51148	-1.17643	3.37181
H	-1.36161	0.208501	3.53733
H	-0.729791	-1.47421	3.30231
N	-0.466061	-0.0913502	0.99762
C	-0.350329	0.148576	-0.418667
C	1.12509	0.177298	-0.767314
O	1.97775	0.26424	0.114303
H	0.351798	0.10336	1.53253
H	-0.798665	-0.679061	-0.953537
C	-1.017	1.48353	-0.819355
H	-0.555099	2.33035	-0.268288
H	-0.929856	1.67133	-1.90927
H	-2.09708	1.4502	-0.557699
N	1.46184	0.0823169	-2.06869
C	2.84199	0.0891203	-2.49451
H	0.757405	0.00550478	-2.76661
H	2.91247	0.00375215	-3.6013
H	3.39723	-0.763769	-2.04115
H	3.34485	1.03314	-2.18285
C	2358.96	-2.4747	0.253924
C	2359.58	-1.20457	0.698759
O	2359.04	-0.499215	1.53926
H	2358	-2.62361	0.790461
H	2359.64	-3.32732	0.481313
H	2358.76	-2.44202	-0.838042
N	2360.74	-0.878576	0.129622
C	2361.46	0.325037	0.458677
C	2362.41	0.632825	-0.689474
O	2362.64	-0.210859	-1.55218
H	2361.16	-1.44712	-0.575086
H	2360.76	1.14539	0.537354
C	2362.26	0.161345	1.77118
H	2362.98	-0.681506	1.68719
H	2362.82	1.08634	2.02759
H	2361.56	-0.0649653	2.60414
N	2362.95	1.86428	-0.73792
C	2363.85	2.25163	-1.80039
H	2362.74	2.53537	-0.0342512
H	2364.19	3.30087	-1.66271
H	2363.34	2.17511	-2.79011
H	2364.74	1.58966	-1.81842
