44
  This energy is 5.05429e-321 and Call times are: 112167
C	0.51167	-0.991802	3.29858
C	0.98071	-0.37566	2.03701
O	2.06693	0.183215	1.97161
H	1.28004	-0.84268	4.08803
H	0.350171	-2.08096	3.15549
H	-0.437313	-0.517663	3.62656
N	0.154163	-0.461298	0.992089
C	0.470222	0.0892027	-0.301698
C	-0.8305	0.279514	-1.05744
O	-1.8699	-0.244806	-0.661751
H	-0.740569	-0.893677	1.06583
H	0.919178	1.06532	-0.168617
C	1.41372	-0.842816	-1.09433
H	0.950298	-1.8435	-1.22844
H	1.65924	-0.421888	-2.09098
H	2.3623	-0.97511	-0.529668
N	-0.806163	1.05728	-2.15766
C	-1.99845	1.3052	-2.93429
H	0.0434267	1.47853	-2.45762
H	-1.77341	1.96622	-3.80012
H	-2.77838	1.79853	-2.31013
H	-2.42027	0.349988	-3.32265
C	5313.15	1.80473	-2.40996
C	5312.66	1.61862	-1.02681
O	5313.01	2.36168	-0.122738
H	5313.85	2.67113	-2.43816
H	5312.3	2.00423	-3.09581
H	5313.69	0.896848	-2.74838
N	5311.82	0.60077	-0.829148
C	5311.25	0.292817	0.460322
C	5310.8	-1.15449	0.437448
O	5310.71	-1.76815	-0.624212
H	5311.56	-0.0151733	-1.56805
H	5312.02	0.384597	1.21376
C	5310.06	1.21704	0.786314
H	5309.27	1.12086	0.0110188
H	5309.62	0.982744	1.77858
H	5310.4	2.27432	0.798902
N	5310.52	-1.74226	1.61853
C	5310.1	-3.12039	1.69583
H	5310.61	-1.23094	2.4673
H	5309.92	-3.41815	2.75258
H	5310.87	-3.79566	1.26774
H	5309.15	-3.27302	1.1242
