44
  This energy is 1.46075e-319 and Call times are: 79155
C	1.09574	0.431546	3.27708
C	0.314883	-0.295208	2.25078
O	-0.239285	-1.3545	2.51019
H	1.07406	-0.141757	4.22929
H	0.65598	1.43591	3.45224
H	2.15051	0.542426	2.94826
N	0.258893	0.265967	1.04069
C	-0.461899	-0.321048	-0.060535
C	0.0975045	0.258398	-1.34527
O	0.822347	1.25136	-1.32371
H	0.738799	1.11441	0.833885
H	-0.277447	-1.38777	-0.0731046
C	-1.97589	-0.029364	0.0388319
H	-2.16145	1.06586	0.0521631
H	-2.53393	-0.480056	-0.807478
H	-2.37332	-0.457852	0.984661
N	-0.210897	-0.366021	-2.49896
C	0.285778	0.106676	-3.7702
H	-0.793152	-1.17237	-2.49486
H	-0.0795267	-0.538295	-4.59954
H	1.39977	0.0984227	-3.78441
H	-0.0542203	1.1502	-3.96161
C	3754.42	-1.69465	-2.63388
C	3753.65	-1.67634	-1.37046
O	3753.16	-2.70023	-0.912555
H	3754.45	-2.73191	-3.03296
H	3755.46	-1.3529	-2.45193
H	3753.94	-1.03272	-3.38508
N	3753.52	-0.489417	-0.773783
C	3752.8	-0.311497	0.460889
C	3752.41	1.14968	0.565302
O	3752.91	1.99102	-0.173214
H	3753.9	0.342274	-1.17195
H	3751.89	-0.894371	0.422811
C	3753.66	-0.719601	1.67842
H	3754.59	-0.120154	1.71402
H	3753.1	-0.583997	2.63076
H	3753.94	-1.79158	1.58939
N	3751.47	1.48265	1.47662
C	3751.03	2.84731	1.63944
H	3751.07	0.786217	2.06002
H	3750.26	2.91733	2.43865
H	3750.58	3.23232	0.691947
H	3751.88	3.50812	1.91599
