44
  This energy is 5.43867e-320 and Call times are: 38583
C	-2.11269	-2.36838	1.43298
C	-1.65051	-1.56543	0.278485
O	-2.09174	-1.76145	-0.845518
H	-2.86254	-3.1123	1.08632
H	-2.58427	-1.71003	2.19259
H	-1.25705	-2.90743	1.89152
N	-0.731335	-0.631901	0.5354
C	-0.184805	0.228226	-0.483578
C	1.14087	0.764197	0.0209468
O	1.4524	0.656939	1.20555
H	-0.358427	-0.50152	1.45021
H	0.0142187	-0.359612	-1.37066
C	-1.14234	1.3971	-0.806019
H	-1.34488	1.99765	0.10636
H	-0.724668	2.06129	-1.59036
H	-2.11005	0.99127	-1.17342
N	1.96577	1.33776	-0.877152
C	3.25351	1.86576	-0.490989
H	1.6986	1.40864	-1.83257
H	3.78121	2.2973	-1.36994
H	3.8932	1.06323	-0.0574198
H	3.13651	2.66584	0.275405
C	1834.26	-0.431128	-0.808574
C	1832.97	0.273872	-0.953372
O	1832.88	1.30125	-1.61128
H	1835.05	0.125194	-1.36444
H	1834.18	-1.45799	-1.22414
H	1834.55	-0.486309	0.262337
N	1831.92	-0.269919	-0.325604
C	1830.6	0.299581	-0.372822
C	1829.82	-0.231917	0.814774
O	1830.24	-1.1894	1.46302
H	1832.01	-1.0911	0.231228
H	1830.67	1.37395	-0.262633
C	1829.87	-0.0655238	-1.68857
H	1829.8	-1.16842	-1.79871
H	1828.86	0.371513	-1.72829
H	1830.46	0.328349	-2.55082
N	1828.67	0.395446	1.14159
C	1827.87	-0.0326463	2.26385
H	1828.35	1.17294	0.608977
H	1826.97	0.607344	2.3681
H	1828.45	0.0289501	3.21053
H	1827.54	-1.088	2.13051
