44
  This energy is 1.94365e-320 and Call times are: 55425
C	1.8551	2.34387	-1.78633
C	1.62533	1.50463	-0.588801
O	2.46197	1.42879	0.300459
H	2.8517	2.83025	-1.70826
H	1.0755	3.13131	-1.85696
H	1.83163	1.71763	-2.70297
N	0.467956	0.840733	-0.543128
C	0.100773	-0.0153119	0.556505
C	-0.965644	-0.974381	0.0643876
O	-1.54483	-0.776963	-1.0021
H	-0.19286	0.887888	-1.28746
H	0.962214	-0.602691	0.848015
C	-0.432565	0.803659	1.75315
H	-1.31585	1.40554	1.45039
H	-0.716082	0.147617	2.60168
H	0.357487	1.5031	2.10351
N	-1.23494	-2.0536	0.825155
C	-2.22614	-3.02751	0.431188
H	-0.75039	-2.19946	1.68141
H	-2.30296	-3.83878	1.18828
H	-1.95858	-3.48629	-0.548189
H	-3.22701	-2.5495	0.326591
C	2625.02	-2.27249	0.913241
C	2625.47	-1.04452	0.218057
O	2624.72	-0.42319	-0.517036
H	2623.97	-2.48406	0.641578
H	2625.09	-2.13578	2.01302
H	2625.65	-3.13544	0.608803
N	2626.73	-0.666259	0.435268
C	2627.31	0.506385	-0.169549
C	2628.82	0.347895	-0.142079
O	2629.35	-0.517542	0.553274
H	2627.35	-1.19708	1.01334
H	2627.01	0.55551	-1.20664
C	2626.9	1.79044	0.583929
H	2627.22	1.73637	1.64768
H	2627.34	2.69528	0.120766
H	2625.79	1.89438	0.557588
N	2629.55	1.17162	-0.920188
C	2630.99	1.0866	-0.967987
H	2629.1	1.86078	-1.48118
H	2631.41	1.84853	-1.66342
H	2631.31	0.0793175	-1.31795
H	2631.43	1.2577	0.0421802
