44
  This energy is 1.06022e-319 and Call times are: 96837
C	-1.62078	-0.313727	3.06607
C	-0.817618	-0.872375	1.95519
O	-0.337561	-1.99544	2.02417
H	-1.67735	-1.05875	3.88924
H	-2.6497	-0.085117	2.71698
H	-1.14729	0.613391	3.45234
N	-0.647219	-0.0836697	0.891577
C	0.108814	-0.486654	-0.267235
C	0.530834	0.767604	-1.00749
O	0.0199899	1.85466	-0.744458
H	-1.01892	0.840315	0.859521
H	1.00773	-0.994641	0.0583114
C	-0.726849	-1.39579	-1.19581
H	-1.64859	-0.871771	-1.52735
H	-0.147679	-1.70806	-2.08902
H	-1.03076	-2.31039	-0.641467
N	1.49511	0.647787	-1.9412
C	1.96949	1.78925	-2.68833
H	1.90114	-0.23934	-2.13453
H	2.7612	1.48639	-3.40856
H	2.39449	2.55818	-2.00323
H	1.13639	2.25874	-3.2599
C	4588.83	2.27136	1.79528
C	4588.59	0.917342	1.25086
O	4589.44	0.0400888	1.32607
H	4589.86	2.30995	2.23292
H	4588.09	2.506	2.58894
H	4588.76	3.02855	0.986427
N	4587.4	0.717813	0.675807
C	4587.01	-0.545507	0.101022
C	4585.89	-0.284105	-0.883789
O	4585.3	0.79484	-0.892943
H	4586.73	1.44886	0.594836
H	4587.85	-0.951217	-0.453908
C	4586.54	-1.53842	1.18854
H	4585.69	-1.11875	1.75632
H	4586.24	-2.51227	0.749423
H	4587.37	-1.72063	1.90423
N	4585.58	-1.26478	-1.75517
C	4584.53	-1.10177	-2.73708
H	4586.07	-2.1281	-1.73656
H	4584.43	-2.01862	-3.35846
H	4584.76	-0.244276	-3.412
H	4583.56	-0.903535	-2.24051
