44
  This energy is 1.39267e-319 and Call times are: 66303
C	2.3563	-0.573121	-2.4991
C	1.28142	0.238523	-1.88504
O	0.99599	1.34485	-2.32215
H	2.80171	-0.0106448	-3.34827
H	1.94266	-1.53059	-2.87985
H	3.15032	-0.78482	-1.75233
N	0.656211	-0.301424	-0.836261
C	-0.410274	0.366005	-0.133427
C	-0.517283	-0.252513	1.24687
O	0.0487556	-1.31279	1.50618
H	0.917589	-1.19113	-0.471522
H	-0.149663	1.40917	-0.00712704
C	-1.75325	0.225251	-0.88424
H	-2.01721	-0.846173	-1.01266
H	-2.57658	0.738153	-0.345881
H	-1.66137	0.681062	-1.89416
N	-1.23288	0.411688	2.17572
C	-1.38028	-0.0945224	3.52041
H	-1.67751	1.27184	1.94839
H	-2.00506	0.592342	4.13289
H	-0.386163	-0.196914	4.01284
H	-1.86627	-1.09698	3.51196
C	3146.5	0.380267	-3.0157
C	3146.24	0.763884	-1.60935
O	3146.95	1.57565	-1.03466
H	3147.39	0.929293	-3.38887
H	3145.63	0.640989	-3.64937
H	3146.69	-0.710726	-3.08551
N	3145.2	0.173056	-1.0141
C	3144.83	0.443284	0.350528
C	3143.99	-0.723684	0.843916
O	3143.54	-1.54944	0.0545978
H	3144.65	-0.508331	-1.48378
H	3145.72	0.489943	0.959391
C	3144.02	1.75645	0.46215
H	3143.1	1.70538	-0.164219
H	3143.73	1.96763	1.51161
H	3144.64	2.60332	0.0966044
N	3143.79	-0.830646	2.17208
C	3143.02	-1.91528	2.73465
H	3144.17	-0.156247	2.7951
H	3142.97	-1.82684	3.84218
H	3143.48	-2.89723	2.48322
H	3141.98	-1.90971	2.33224
