44
  This energy is 2.48861e-320 and Call times are: 55635
C	2.16385	1.52384	2.26314
C	0.945719	1.52825	1.4221
O	0.132502	2.43949	1.49141
H	2.16948	2.43066	2.90618
H	3.07089	1.53177	1.62279
H	2.17778	0.622957	2.91211
N	0.789111	0.488249	0.599766
C	-0.344016	0.351166	-0.28004
C	-0.471056	-1.11349	-0.651369
O	0.446438	-1.90071	-0.427046
H	1.44406	-0.262278	0.573583
H	-1.24148	0.63379	0.255451
C	-0.174398	1.20934	-1.55357
H	0.747594	0.917205	-2.10011
H	-1.0452	1.10626	-2.23317
H	-0.0812459	2.2798	-1.26796
N	-1.62784	-1.51822	-1.21177
C	-1.84399	-2.89598	-1.58759
H	-2.36113	-0.867322	-1.37865
H	-2.85458	-3.02816	-2.0331
H	-1.76277	-3.563	-0.698918
H	-1.0856	-3.22308	-2.33526
C	2640.85	-0.0740979	-0.949207
C	2639.58	0.648765	-0.710491
O	2639.53	1.86957	-0.767863
H	2641.66	0.660721	-1.16161
H	2640.74	-0.75426	-1.82051
H	2641.13	-0.664611	-0.0512217
N	2638.51	-0.103031	-0.426936
C	2637.21	0.454709	-0.170873
C	2636.41	-0.573718	0.601463
O	2636.79	-1.73927	0.682035
H	2638.58	-1.09488	-0.354436
H	2637.32	1.32825	0.459383
C	2636.48	0.816556	-1.48626
H	2636.38	-0.0817356	-2.13069
H	2635.48	1.24642	-1.29274
H	2637.08	1.56968	-2.04319
N	2635.28	-0.157722	1.20886
C	2634.46	-1.06327	1.97633
H	2634.99	0.791163	1.13782
H	2633.57	-0.532895	2.39467
H	2635.03	-1.49981	2.82188
H	2634.09	-1.90091	1.33802
