44
  This energy is 6.83392e-320 and Call times are: 3429
C	2.09651	-1.47823	2.35491
C	1.81974	-0.462755	1.31404
O	2.60979	0.443627	1.08866
H	3.07228	-1.25293	2.83758
H	2.14605	-2.48951	1.8992
H	1.30022	-1.46036	3.12857
N	0.66851	-0.592222	0.650516
C	0.259609	0.316997	-0.390133
C	-1.24458	0.202944	-0.543945
O	-1.85953	-0.731699	-0.0339345
H	0.0198254	-1.31805	0.863395
H	0.48268	1.32998	-0.0800024
C	0.95695	-0.0106286	-1.72935
H	0.726504	-1.05077	-2.04419
H	0.644474	0.687654	-2.5328
H	2.05823	0.0753126	-1.60308
N	-1.87718	1.17014	-1.23701
C	-3.30911	1.15153	-1.42521
H	-1.36273	1.92206	-1.636
H	-3.63866	2.02998	-2.02268
H	-3.8348	1.17838	-0.443293
H	-3.62329	0.225973	-1.95983
C	174.531	-1.01211	-0.0791783
C	173.36	-0.338794	-0.685552
O	173.466	0.30152	-1.72254
H	175.43	-0.82031	-0.70466
H	174.357	-2.10746	-0.0260932
H	174.713	-0.617107	0.94246
N	172.201	-0.466891	-0.0366955
C	170.974	0.130048	-0.502311
C	170.03	0.235887	0.679104
O	170.258	-0.372642	1.72287
H	172.134	-0.966809	0.82267
H	171.182	1.13457	-0.848906
C	170.329	-0.713143	-1.62465
H	170.119	-1.74323	-1.26586
H	169.385	-0.256278	-1.9856
H	171.031	-0.784108	-2.48366
N	168.952	1.03378	0.547959
C	168.004	1.20562	1.62381
H	168.788	1.52344	-0.302198
H	167.187	1.89785	1.32152
H	168.504	1.62694	2.52541
H	167.549	0.228774	1.90646
