44
  This energy is 3.5637e-320 and Call times are: 14307
C	0.641044	2.55138	-2.28159
C	0.769746	1.14822	-1.82794
O	1.2824	0.297187	-2.54168
H	1.06171	2.64615	-3.30625
H	1.19976	3.22661	-1.59989
H	-0.428128	2.85031	-2.30295
N	0.293126	0.872097	-0.611823
C	0.346219	-0.446293	-0.0322901
C	-0.70258	-0.517442	1.0605
O	-1.23671	0.50478	1.48664
H	-0.148551	1.56791	-0.0517379
H	0.0826191	-1.17419	-0.789092
C	1.74414	-0.747774	0.552552
H	2.01164	0.00125496	1.32813
H	1.78857	-1.76221	0.999467
H	2.5035	-0.69135	-0.257593
N	-1.03856	-1.73662	1.52603
C	-2.0357	-1.90315	2.55761
H	-0.600089	-2.55235	1.1633
H	-2.16931	-2.97927	2.80534
H	-3.01761	-1.49569	2.22435
H	-1.73527	-1.36438	3.48533
C	685.72	-0.173883	-1.88938
C	684.953	0.312311	-0.720282
O	685.499	0.934752	0.180073
H	686.787	0.115275	-1.77464
H	685.323	0.279007	-2.82231
H	685.653	-1.28008	-1.95823
N	683.649	0.0282219	-0.706879
C	682.771	0.433817	0.362037
C	681.549	-0.463083	0.327394
O	681.318	-1.17244	-0.649843
H	683.221	-0.504749	-1.43214
H	683.272	0.271818	1.30842
C	682.349	1.91264	0.212983
H	681.837	2.0754	-0.759261
H	681.674	2.22828	1.03449
H	683.254	2.55911	0.238714
N	680.747	-0.467928	1.40983
C	679.567	-1.29891	1.47198
H	680.955	0.107848	2.1936
H	679.039	-1.1607	2.44135
H	679.838	-2.37471	1.37098
H	678.861	-1.04209	0.648875
