44
  This energy is 1.43645e-319 and Call times are: 41901
C	-0.436607	-1.20391	-3.23823
C	0.00355979	-0.15931	-2.28624
O	0.609344	0.831698	-2.6702
H	-0.121444	-0.920559	-4.26596
H	-1.54245	-1.30088	-3.21538
H	0.0251503	-2.17929	-2.97678
N	-0.292039	-0.365885	-1.00082
C	0.0692832	0.559867	0.0428534
C	0.0623128	-0.194818	1.35801
O	-0.455445	-1.3069	1.44186
H	-0.760368	-1.19129	-0.69698
H	1.07925	0.909046	-0.130674
C	-0.916301	1.74799	0.106886
H	-1.95152	1.38613	0.284341
H	-0.640938	2.46284	0.909349
H	-0.902719	2.29186	-0.862738
N	0.660328	0.387438	2.41601
C	0.713397	-0.2612	3.70544
H	1.07995	1.2847	2.32618
H	1.24457	0.377343	4.44528
H	1.25004	-1.2349	3.63362
H	-0.313877	-0.460533	4.08774
C	1986.88	-2.73633	0.733507
C	1988.17	-2.14877	0.311467
O	1989.16	-2.8452	0.170509
H	1987	-3.83053	0.884112
H	1986.1	-2.56757	-0.0478348
H	1986.54	-2.27844	1.68791
N	1988.18	-0.830121	0.103162
C	1989.36	-0.11463	-0.310809
C	1989.17	1.34585	0.0499667
O	1988.06	1.77711	0.36279
H	1987.37	-0.269331	0.24957
H	1990.21	-0.483969	0.249147
C	1989.6	-0.259516	-1.82991
H	1988.73	0.11971	-2.40129
H	1990.51	0.290073	-2.15203
H	1989.74	-1.33389	-2.08142
N	1990.26	2.13998	0.0354973
C	1990.18	3.54118	0.376162
H	1991.15	1.77057	-0.213467
H	1991.18	4.02292	0.303387
H	1989.8	3.6711	1.41656
H	1989.48	4.07281	-0.312077
