44
  This energy is 1.03359e-320 and Call times are: 112377
C	2.49805	1.31035	2.04177
C	2.02858	0.756155	0.751944
O	2.754	0.744425	-0.232996
H	3.5402	1.67946	1.92536
H	2.48087	0.523638	2.8251
H	1.84989	2.15627	2.35362
N	0.780599	0.282445	0.729173
C	0.18258	-0.288212	-0.451315
C	-1.32349	-0.23067	-0.284949
O	-1.82617	0.00532045	0.812074
H	0.189602	0.324236	1.53037
H	0.442499	0.321554	-1.3073
C	0.638308	-1.74931	-0.662561
H	0.370681	-2.37188	0.217719
H	0.179822	-2.19172	-1.57077
H	1.74333	-1.77799	-0.781902
N	-2.08146	-0.424909	-1.38211
C	-3.52378	-0.376678	-1.32233
H	-1.65565	-0.607488	-2.26222
H	-3.9654	-0.562661	-2.32614
H	-3.86911	0.621154	-0.966921
H	-3.91404	-1.14768	-0.619172
C	5320.2	0.78442	3.17489
C	5320.08	0.0896235	1.87341
O	5319.19	-0.720992	1.66967
H	5319.39	0.437107	3.8532
H	5320.11	1.88149	3.03325
H	5321.19	0.556612	3.6408
N	5321	0.39371	0.951509
C	5321.01	-0.198967	-0.362024
C	5322.41	-0.048364	-0.926266
O	5323.22	0.712258	-0.401269
H	5321.74	1.03404	1.13958
H	5320.81	-1.25796	-0.272425
C	5319.99	0.480486	-1.29663
H	5320.2	1.56689	-1.38575
H	5320	0.0264581	-2.30884
H	5318.97	0.364167	-0.87162
N	5322.74	-0.791378	-2.00308
C	5324.05	-0.723242	-2.60185
H	5322.07	-1.40635	-2.40912
H	5324.12	-1.40662	-3.47676
H	5324.83	-1.01609	-1.8657
H	5324.27	0.312524	-2.94754
