44
  This energy is 8.97371e-320 and Call times are: 64203
C	-2.98998	-1.7202	0.476496
C	-2.21867	-0.572042	-0.0507808
O	-2.74293	0.263259	-0.7746
H	-4.03529	-1.66329	0.102394
H	-3.00366	-1.69451	1.58644
H	-2.5374	-2.67481	0.134706
N	-0.932782	-0.509062	0.302616
C	-0.0540254	0.547872	-0.130402
C	1.37242	0.0500268	-0.00136104
O	1.62746	-0.967502	0.640058
H	-0.510059	-1.21149	0.869044
H	-0.237901	0.751437	-1.1777
C	-0.249777	1.8248	0.7171
H	-0.0610055	1.6122	1.79101
H	0.425222	2.6407	0.386252
H	-1.29881	2.1787	0.614982
N	2.33771	0.748841	-0.630541
C	3.72292	0.343678	-0.573765
H	2.11022	1.56558	-1.15055
H	4.36227	1.04668	-1.15192
H	3.85125	-0.677801	-0.99962
H	4.08453	0.326414	0.479856
C	3044.42	3.02058	-1.69153
C	3044.16	2.13335	-0.537074
O	3043.57	2.54439	0.454014
H	3044.02	4.03431	-1.47644
H	3043.93	2.62303	-2.60217
H	3045.52	3.09827	-1.86996
N	3044.6	0.876894	-0.640769
C	3044.41	-0.10389	0.398895
C	3045.44	-1.19837	0.194757
O	3046.07	-1.28243	-0.859271
H	3045.1	0.562076	-1.44127
H	3044.61	0.358461	1.35776
C	3042.99	-0.700956	0.362727
H	3042.79	-1.17386	-0.622569
H	3042.84	-1.45642	1.16204
H	3042.24	0.110953	0.512228
N	3045.66	-2.05389	1.21388
C	3046.62	-3.12024	1.11507
H	3045.14	-1.96497	2.06144
H	3046.65	-3.71522	2.05449
H	3047.64	-2.70917	0.930949
H	3046.37	-3.80491	0.27351
