44
  This energy is 7.94952e-320 and Call times are: 82809
C	0.816552	2.82428	-1.86623
C	0.417079	1.40261	-1.76381
O	0.112454	0.75798	-2.75786
H	0.775067	3.14166	-2.93085
H	1.85306	2.95837	-1.49142
H	0.124693	3.45996	-1.27447
N	0.404298	0.877175	-0.536571
C	0.0382605	-0.492182	-0.27637
C	-0.368057	-0.597019	1.18073
O	-0.112915	0.309525	1.97125
H	0.626434	1.42078	0.268469
H	-0.825462	-0.74588	-0.877781
C	1.2111	-1.45372	-0.571364
H	2.0957	-1.19017	0.0468131
H	0.932626	-2.50897	-0.372214
H	1.50003	-1.36653	-1.64144
N	-1.0334	-1.70374	1.56607
C	-1.47077	-1.88581	2.93053
H	-1.23666	-2.42296	0.909834
H	-1.99761	-2.85836	3.04815
H	-2.16812	-1.07078	3.23164
H	-0.601488	-1.87136	3.62718
C	3925.14	1.25744	-3.03983
C	3924.06	0.969971	-2.07564
O	3922.92	1.38113	-2.26225
H	3924.74	1.86949	-3.87557
H	3925.55	0.30993	-3.45196
H	3925.96	1.82296	-2.54111
N	3924.39	0.249843	-1.00257
C	3923.45	-0.110769	0.0232447
C	3924.23	-0.44036	1.28108
O	3925.44	-0.620257	1.23789
H	3925.33	-0.0545634	-0.847296
H	3922.82	0.744575	0.239864
C	3922.59	-1.32328	-0.403232
H	3923.24	-2.19875	-0.625336
H	3921.86	-1.60352	0.384286
H	3922.02	-1.06946	-1.32626
N	3923.54	-0.505783	2.44098
C	3924.2	-0.801752	3.69098
H	3922.56	-0.350042	2.45631
H	3923.47	-0.812525	4.52911
H	3924.98	-0.0367902	3.91483
H	3924.7	-1.79769	3.64662
