44
  This energy is 1.3236e-319 and Call times are: 41481
C	-2.97104	0.861241	1.59916
C	-1.81064	-0.0369598	1.40447
O	-1.60361	-0.975896	2.1608
H	-3.54465	0.531802	2.49264
H	-3.63659	0.82437	0.711183
H	-2.62531	1.90432	1.75854
N	-1.0125	0.24091	0.37097
C	0.155071	-0.54155	0.0525765
C	1.07339	0.316032	-0.79624
O	0.667471	1.35983	-1.30373
H	-1.17548	1.02599	-0.220654
H	0.680412	-0.778614	0.969032
C	-0.222778	-1.83107	-0.709982
H	-0.762138	-1.5842	-1.64927
H	0.673891	-2.436	-0.956583
H	-0.896491	-2.44991	-0.0780852
N	2.34668	-0.0966975	-0.952344
C	3.29628	0.661136	-1.73345
H	2.65796	-0.94053	-0.527742
H	4.28798	0.157477	-1.74364
H	3.42665	1.68326	-1.30977
H	2.94523	0.765713	-2.7856
C	1966.26	-1.08042	-2.0014
C	1967.01	-1.07496	-0.723111
O	1966.57	-1.64069	0.268467
H	1965.31	-1.64538	-1.87048
H	1966.87	-1.56996	-2.79461
H	1966.02	-0.0408759	-2.30883
N	1968.17	-0.418806	-0.71813
C	1969.01	-0.325007	0.449402
C	1969.93	0.869495	0.269439
O	1970.05	1.40755	-0.829288
H	1968.51	0.0627086	-1.52433
H	1968.39	-0.135276	1.31536
C	1969.85	-1.61011	0.646731
H	1970.48	-1.8021	-0.243756
H	1970.49	-1.54134	1.54494
H	1969.16	-2.47787	0.776216
N	1970.58	1.32709	1.35683
C	1971.46	2.46656	1.28393
H	1970.46	0.882426	2.2386
H	1971.91	2.68635	2.28109
H	1970.91	3.37056	0.937727
H	1972.3	2.27377	0.567525
