44
  This energy is 3.90509e-320 and Call times are: 94023
C	-2.95086	-1.02964	1.5357
C	-2.09599	0.0142082	0.926795
O	-2.52403	1.14149	0.720608
H	-3.96	-0.607895	1.73479
H	-2.50974	-1.37403	2.49467
H	-3.05204	-1.89284	0.844616
N	-0.849088	-0.347502	0.615707
C	0.100879	0.556407	0.0179292
C	1.17338	-0.275202	-0.658391
O	1.27577	-1.47826	-0.426037
H	-0.521291	-1.27709	0.761841
H	-0.398548	1.1354	-0.748502
C	0.737095	1.48466	1.07655
H	1.24801	0.887386	1.86163
H	1.46896	2.18208	0.619649
H	-0.0589547	2.0875	1.56547
N	1.98815	0.347084	-1.53299
C	3.03063	-0.366102	-2.23354
H	1.88471	1.31981	-1.71284
H	3.59279	0.319262	-2.90547
H	2.59858	-1.18632	-2.85145
H	3.74975	-0.818743	-1.51302
C	4456.24	0.682665	-0.728849
C	4455.14	0.43105	0.232485
O	4455.36	0.294946	1.42726
H	4457.2	0.709846	-0.182656
H	4456.08	1.65771	-1.23745
H	4456.27	-0.127532	-1.4872
N	4453.91	0.356985	-0.278769
C	4452.74	0.117614	0.529431
C	4451.65	-0.413397	-0.377703
O	4451.75	-0.33494	-1.6003
H	4453.74	0.440576	-1.25762
H	4452.97	-0.651723	1.25666
C	4452.27	1.41034	1.23087
H	4452.03	2.19766	0.481924
H	4451.37	1.22958	1.85415
H	4453.08	1.78985	1.89142
N	4450.58	-0.98933	0.204132
C	4449.49	-1.5338	-0.579482
H	4450.51	-1.04961	1.19492
H	4448.7	-1.96142	0.0808695
H	4449.86	-2.34082	-1.25323
H	4449.03	-0.742306	-1.21099
