44
  This energy is 9.65108e-320 and Call times are: 71133
C	0.182308	-3.2588	1.21373
C	0.069084	-1.79738	1.4202
O	-0.144084	-1.33005	2.53045
H	0.0386724	-3.77924	2.18551
H	1.18732	-3.51217	0.815506
H	-0.595519	-3.60624	0.501537
N	0.206047	-1.03272	0.334429
C	0.121687	0.405347	0.375464
C	-0.199359	0.893339	-1.02383
O	-0.0932317	0.142033	-1.99136
H	0.350439	-1.42697	-0.569259
H	-0.699705	0.691374	1.02012
C	1.44559	1.0327	0.8662
H	2.28621	0.736668	0.20299
H	1.38406	2.1399	0.899146
H	1.67012	0.66643	1.89167
N	-0.622952	2.16531	-1.16043
C	-0.963162	2.7138	-2.45256
H	-0.709118	2.75539	-0.364431
H	-1.28736	3.77352	-2.35693
H	-1.79238	2.13437	-2.91935
H	-0.0864124	2.67585	-3.13889
C	3375.56	-2.93626	1.4726
C	3374.8	-2.21675	0.424112
O	3374.33	-2.81087	-0.535254
H	3375.6	-4.01723	1.21694
H	3375.05	-2.82008	2.45576
H	3376.59	-2.53914	1.53774
N	3374.67	-0.897706	0.58513
C	3373.96	-0.0616939	-0.349966
C	3374.44	1.36343	-0.15931
O	3375.1	1.67821	0.832459
H	3375.08	-0.421038	1.35589
H	3374.22	-0.363763	-1.35732
C	3372.43	-0.140566	-0.128591
H	3372.17	0.169352	0.906027
H	3371.88	0.501859	-0.847045
H	3372.09	-1.18963	-0.269936
N	3374.14	2.25782	-1.12249
C	3374.57	3.63478	-1.03276
H	3373.62	1.98195	-1.92091
H	3374.23	4.2115	-1.91974
H	3375.68	3.69921	-0.9815
H	3374.15	4.11654	-0.118552
