44
  This energy is 8.83587e-320 and Call times are: 108933
C	0.334143	3.25421	-1.19357
C	-0.492361	2.09635	-0.784349
O	-1.70966	2.18558	-0.702349
H	-0.326124	4.12857	-1.38174
H	0.890502	3.01707	-2.12472
H	1.05412	3.51405	-0.389163
N	0.164156	0.967058	-0.508581
C	-0.5012	-0.243513	-0.097915
C	0.515396	-1.11588	0.612536
O	1.71769	-0.87012	0.535551
H	1.15837	0.915276	-0.550955
H	-1.27649	0.00572723	0.615445
C	-1.09464	-0.997722	-1.30875
H	-0.296665	-1.25126	-2.03886
H	-1.60783	-1.93028	-0.996094
H	-1.83687	-0.347644	-1.82123
N	0.0509778	-2.14873	1.34298
C	0.943552	-3.02631	2.06363
H	-0.925958	-2.32687	1.39862
H	0.371221	-3.814	2.60144
H	1.53888	-2.45357	2.81116
H	1.65405	-3.52441	1.36487
C	5157.31	-2.08755	1.02122
C	5158.69	-1.87032	0.528152
O	5159.48	-2.79644	0.44344
H	5157.17	-3.16131	1.27607
H	5156.57	-1.80999	0.236681
H	5157.12	-1.4769	1.93056
N	5159	-0.61827	0.192341
C	5160.31	-0.249912	-0.303784
C	5160.48	1.23992	-0.0845913
O	5159.52	1.95271	0.198352
H	5158.36	0.132591	0.293407
H	5161.06	-0.760628	0.278988
C	5160.45	-0.587291	-1.80442
H	5159.68	-0.0622255	-2.39922
H	5161.45	-0.30509	-2.18964
H	5160.32	-1.68119	-1.9518
N	5161.73	1.74298	-0.189669
C	5162	3.14771	0.0139573
H	5162.5	1.14863	-0.412393
H	5163.08	3.36505	-0.117645
H	5161.7	3.4594	1.04132
H	5161.42	3.76643	-0.714162
