44
  This energy is 1.1902e-319 and Call times are: 78105
C	2.5007	1.87931	1.52997
C	1.07845	1.6169	1.21445
O	0.184038	2.26676	1.73808
H	2.56603	2.70355	2.27309
H	3.04728	2.17956	0.611324
H	2.97168	0.970066	1.95941
N	0.83591	0.637339	0.340377
C	-0.495413	0.264953	-0.0667297
C	-0.437084	-1.14776	-0.614517
O	0.64108	-1.67221	-0.88718
H	1.57183	0.0957856	-0.0572107
H	-1.13934	0.253988	0.80351
C	-1.04538	1.22918	-1.1414
H	-0.382028	1.23847	-2.03246
H	-2.07039	0.945438	-1.45702
H	-1.08202	2.26071	-0.728174
N	-1.60221	-1.8072	-0.768248
C	-1.64392	-3.16024	-1.27195
H	-2.46367	-1.3681	-0.535215
H	-2.69254	-3.52707	-1.32734
H	-1.06783	-3.84461	-0.607865
H	-1.19929	-3.21379	-2.29205
C	3706.22	-0.645848	-0.809301
C	3705.18	-0.211121	0.142366
O	3705.44	0.0080738	1.31658
H	3707.2	-0.726619	-0.2748
H	3706.33	0.0946593	-1.63031
H	3705.97	-1.63758	-1.23648
N	3703.94	-0.0808985	-0.351852
C	3702.82	0.334045	0.449696
C	3701.56	-0.119375	-0.251741
O	3701.59	-0.498544	-1.42098
H	3703.74	-0.290553	-1.30356
H	3702.87	-0.170784	1.40637
C	3702.8	1.86706	0.641086
H	3702.76	2.38179	-0.342338
H	3701.94	2.18997	1.25795
H	3703.73	2.18663	1.15481
N	3700.41	-0.111051	0.458171
C	3699.16	-0.536859	-0.122571
H	3700.41	0.19254	1.4053
H	3698.33	-0.455222	0.618737
H	3699.22	-1.59653	-0.460571
H	3698.9	0.092097	-1.00521
