44
  This energy is 1.21214e-319 and Call times are: 90831
C	-1.85866	1.22757	2.67668
C	-0.568053	0.90479	2.02755
O	0.494937	1.23905	2.53235
H	-1.66656	1.78662	3.61818
H	-2.40905	0.294183	2.91892
H	-2.47825	1.85782	2.00449
N	-0.635542	0.241297	0.871014
C	0.533509	-0.143868	0.121482
C	0.108242	-0.384484	-1.31396
O	-1.08096	-0.490535	-1.60788
H	-1.50853	0.000177928	0.455455
H	1.23851	0.67774	0.122365
C	1.18056	-1.41983	0.704874
H	0.454348	-2.2605	0.70308
H	2.08109	-1.71913	0.130201
H	1.48657	-1.23092	1.75693
N	1.07593	-0.454712	-2.24919
C	0.765259	-0.669402	-3.64331
H	2.03205	-0.359291	-1.99237
H	1.69487	-0.698364	-4.25342
H	0.116454	0.148768	-4.03176
H	0.224819	-1.63376	-3.7816
C	4299.74	2.23109	-0.273496
C	4301.19	1.91636	-0.325239
O	4302	2.74258	-0.714771
H	4299.58	3.26962	-0.635113
H	4299.37	2.15134	0.769688
H	4299.17	1.53135	-0.922405
N	4301.54	0.690819	0.0681219
C	4302.91	0.237121	0.0747061
C	4302.9	-1.27909	0.060865
O	4301.86	-1.90175	0.299122
H	4300.86	0.0169877	0.355734
H	4303.39	0.570537	-0.833602
C	4303.67	0.751083	1.31958
H	4303.16	0.407756	2.24959
H	4304.72	0.403709	1.32775
H	4303.67	1.8629	1.31862
N	4304.05	-1.91056	-0.241971
C	4304.13	-3.35181	-0.29099
H	4304.87	-1.38882	-0.438758
H	4305.16	-3.679	-0.555233
H	4303.43	-3.75919	-1.05281
H	4303.86	-3.79427	0.696235
