44
  This energy is 1.34075e-319 and Call times are: 84951
C	1.80482	-1.69286	2.4501
C	1.60469	-0.538761	1.545
O	2.32016	0.451079	1.61444
H	2.65289	-1.47876	3.13625
H	2.04017	-2.6044	1.86144
H	0.889733	-1.86913	3.05383
N	0.605752	-0.641341	0.665244
C	0.287577	0.398144	-0.280834
C	-1.14654	0.196263	-0.730036
O	-1.73664	-0.8565	-0.49485
H	0.0115363	-1.44078	0.638057
H	0.344084	1.35731	0.218052
C	1.23649	0.359263	-1.49951
H	1.17648	-0.626335	-2.00854
H	0.994391	1.15844	-2.22991
H	2.28386	0.507128	-1.157
N	-1.74993	1.21597	-1.37201
C	-3.11758	1.11929	-1.82629
H	-1.25784	2.0625	-1.54654
H	-3.43121	2.05888	-2.33231
H	-3.80459	0.937118	-0.968345
H	-3.23393	0.277365	-2.54657
C	4027.8	1.06207	2.78553
C	4027.48	1.12237	1.3412
O	4027.97	1.98394	0.621639
H	4028.5	1.88867	3.04261
H	4028.28	0.0936098	3.03025
H	4026.87	1.17361	3.38698
N	4026.64	0.195382	0.880735
C	4026.23	0.124242	-0.500447
C	4024.93	-0.656603	-0.565602
O	4024.55	-1.31176	0.399591
H	4026.23	-0.483372	1.48272
H	4026.03	1.12547	-0.860501
C	4027.31	-0.563452	-1.36803
H	4027.51	-1.59012	-0.995455
H	4027	-0.619766	-2.43215
H	4028.26	0.0174916	-1.31088
N	4024.22	-0.586454	-1.70565
C	4022.97	-1.28687	-1.85516
H	4024.55	-0.0451547	-2.47296
H	4022.53	-1.10575	-2.86326
H	4022.23	-0.944514	-1.0908
H	4023.11	-2.38411	-1.72768
