44
  This energy is 1.2318e-319 and Call times are: 97551
C	-1.40101	0.803955	-3.08496
C	-1.32105	-0.0411651	-1.87228
O	-2.14894	-0.915068	-1.6546
H	-2.28848	0.504232	-3.68365
H	-0.488745	0.672089	-3.70399
H	-1.50331	1.8725	-2.80089
N	-0.307665	0.209991	-1.04022
C	-0.0967533	-0.527667	0.179704
C	0.767224	0.319862	1.0932
O	1.36328	1.30406	0.659735
H	0.343479	0.943959	-1.21411
H	-1.05003	-0.67441	0.671442
C	0.591104	-1.88365	-0.0946627
H	1.56844	-1.72942	-0.599779
H	0.754875	-2.45431	0.842519
H	-0.0511722	-2.49454	-0.765809
N	0.83719	-0.0329021	2.39192
C	1.6254	0.721449	3.33842
H	0.341793	-0.828512	2.72481
H	1.55629	0.272584	4.3538
H	1.2679	1.77508	3.39593
H	2.69693	0.736577	3.03385
C	4619.93	0.46641	3.31181
C	4620.96	0.445575	2.2473
O	4622.1	0.830101	2.46262
H	4620.38	0.872036	4.24572
H	4619.56	-0.562339	3.5073
H	4619.08	1.11291	3.00971
N	4620.57	-0.00662657	1.05363
C	4621.45	-0.0874595	-0.0802579
C	4620.6	-0.128153	-1.33446
O	4619.39	-0.344981	-1.26724
H	4619.63	-0.289705	0.882929
H	4622.06	0.811016	-0.120732
C	4622.35	-1.34375	-0.00547033
H	4621.73	-2.26358	0.0365948
H	4623.03	-1.40902	-0.876957
H	4622.97	-1.30246	0.918138
N	4621.21	0.102651	-2.51283
C	4620.48	0.0958703	-3.75812
H	4622.19	0.283266	-2.54568
H	4621.16	0.304319	-4.61424
H	4619.68	0.871447	-3.7481
H	4620	-0.894635	-3.9256
