44
  This energy is 8.99694e-321 and Call times are: 42867
C	-0.725463	2.3264	2.48751
C	-0.553756	0.932834	2.01878
O	-0.583807	-0.00626288	2.80216
H	-0.865076	2.32836	3.5904
H	-1.61867	2.78285	2.01142
H	0.173974	2.92782	2.23802
N	-0.360886	0.767552	0.708115
C	-0.178323	-0.527133	0.102072
C	0.512651	-0.323706	-1.23225
O	0.589221	0.795154	-1.73635
H	-0.309361	1.54282	0.0842273
H	0.479546	-1.11828	0.726428
C	-1.52958	-1.24744	-0.103757
H	-2.20226	-0.637916	-0.744155
H	-1.39266	-2.24472	-0.570082
H	-2.02624	-1.38938	0.880789
N	1.05376	-1.40499	-1.82724
C	1.74166	-1.30575	-3.09339
H	0.987495	-2.30065	-1.39989
H	2.1134	-2.30255	-3.41814
H	2.61269	-0.615617	-3.01424
H	1.05967	-0.911991	-3.88144
C	2036.89	2.32534	0.114584
C	2035.51	1.92593	-0.260857
O	2034.72	2.73815	-0.718922
H	2037.02	3.4108	-0.0843112
H	2037.63	1.75574	-0.48486
H	2037.06	2.13372	1.19455
N	2035.2	0.644424	-0.0657075
C	2033.9	0.105592	-0.382307
C	2033.71	-1.16937	0.41781
O	2034.67	-1.70621	0.972618
H	2035.84	-0.00102541	0.335329
H	2033.14	0.807091	-0.0617184
C	2033.76	-0.191364	-1.8927
H	2034.55	-0.91082	-2.21833
H	2032.77	-0.606245	-2.13999
H	2033.9	0.75024	-2.46775
N	2032.47	-1.6736	0.513835
C	2032.2	-2.87709	1.26459
H	2031.71	-1.22059	0.0636062
H	2031.11	-3.13039	1.22248
H	2032.48	-2.74739	2.33292
H	2032.77	-3.73628	0.85301
