44
  This energy is 1.60077e-321 and Call times are: 86043
C	-0.218052	1.02831	-3.31981
C	-0.198903	-0.0280031	-2.28297
O	-0.434427	-1.19497	-2.56444
H	-0.473535	0.574368	-4.30192
H	0.78007	1.50888	-3.39484
H	-0.979934	1.79641	-3.06982
N	0.0813164	0.367195	-1.03892
C	0.137261	-0.54349	0.0765831
C	-0.0449541	0.264112	1.34694
O	0.0471583	1.49012	1.33105
H	0.242734	1.3252	-0.817327
H	-0.690838	-1.23731	0.0062566
C	1.48312	-1.3012	0.117191
H	2.33049	-0.586375	0.188668
H	1.52951	-2.0034	0.974829
H	1.60513	-1.88788	-0.819326
N	-0.331122	-0.408053	2.47933
C	-0.533145	0.277533	3.73446
H	-0.40854	-1.3996	2.47024
H	-0.75627	-0.448094	4.54743
H	-1.38451	0.992201	3.65916
H	0.377107	0.853613	4.01863
C	4074.81	-2.46495	-2.42454
C	4074.86	-1.05277	-1.98306
O	4075.32	-0.179504	-2.7032
H	4075.25	-2.54598	-3.44208
H	4073.76	-2.82162	-2.45835
H	4075.4	-3.10272	-1.72825
N	4074.38	-0.796196	-0.765687
C	4074.35	0.527918	-0.19741
C	4074.24	0.386674	1.30859
O	4073.94	-0.690828	1.81931
H	4074.03	-1.52072	-0.17706
H	4075.29	1.02228	-0.416177
C	4073.16	1.35033	-0.739035
H	4072.2	0.839953	-0.513458
H	4073.14	2.37048	-0.303629
H	4073.25	1.44556	-1.84321
N	4074.51	1.47391	2.05873
C	4074.45	1.43103	3.50104
H	4074.76	2.33488	1.62692
H	4074.7	2.42381	3.93547
H	4075.17	0.680589	3.90398
H	4073.43	1.14769	3.84096
