44
  This energy is 1.31476e-319 and Call times are: 97887
C	-2.64626	-2.21749	0.454054
C	-1.4452	-1.75676	-0.278338
O	-0.956847	-2.42707	-1.17761
H	-2.96527	-3.20391	0.0527069
H	-3.47589	-1.49117	0.323677
H	-2.41717	-2.32637	1.53508
N	-0.932138	-0.584391	0.102017
C	0.233796	-0.00430937	-0.515178
C	0.825191	0.998343	0.45651
O	0.183811	1.38051	1.43345
H	-1.32193	-0.0615855	0.855458
H	0.970555	-0.781263	-0.675184
C	-0.122905	0.693193	-1.84686
H	-0.879442	1.48921	-1.67913
H	0.772603	1.14082	-2.32484
H	-0.556188	-0.0516171	-2.54947
N	2.07878	1.43292	0.22058
C	2.72833	2.37869	1.09796
H	2.58404	1.10637	-0.571451
H	3.75298	2.61306	0.734091
H	2.80862	1.9663	2.12981
H	2.14878	3.32874	1.14998
C	4638.9	0.632782	-2.77996
C	4638.46	0.927489	-1.39667
O	4639.05	1.7476	-0.707814
H	4639.79	1.25043	-3.0229
H	4638.09	0.875817	-3.4975
H	4639.17	-0.440238	-2.87612
N	4637.4	0.248234	-0.952144
C	4636.86	0.425273	0.370931
C	4636.05	-0.811378	0.712027
O	4635.74	-1.6196	-0.160847
H	4636.95	-0.438374	-1.51284
H	4637.67	0.491148	1.08007
C	4635.97	1.68272	0.448214
H	4635.13	1.61209	-0.281038
H	4635.55	1.82212	1.46566
H	4636.57	2.58147	0.195108
N	4635.71	-0.998529	2.00203
C	4634.95	-2.1531	2.42272
H	4635.98	-0.3367	2.69471
H	4634.77	-2.12551	3.51965
H	4635.5	-3.09268	2.18208
H	4633.96	-2.1859	1.90414
