44
  This energy is 8.92134e-320 and Call times are: 102423
C	1.411	-1.99485	2.48108
C	0.388457	-1.03497	2.00755
O	-0.567152	-0.731698	2.7085
H	1.14145	-2.34518	3.50112
H	2.4065	-1.50471	2.52087
H	1.45771	-2.87116	1.80075
N	0.568136	-0.53287	0.783629
C	-0.340734	0.411936	0.185193
C	-0.143822	0.360272	-1.3174
O	0.836734	-0.199709	-1.80399
H	1.33509	-0.810014	0.210994
H	-1.35715	0.103475	0.394542
C	-0.0861794	1.8443	0.705426
H	0.957649	2.15728	0.489589
H	-0.784386	2.57432	0.246779
H	-0.232453	1.86853	1.80732
N	-1.08929	0.928286	-2.09164
C	-0.99263	0.917598	-3.53272
H	-1.87901	1.37032	-1.6791
H	-1.86472	1.43562	-3.9892
H	-0.965497	-0.127819	-3.91692
H	-0.0636126	1.43293	-3.86819
C	4850.96	3.48202	-0.0174854
C	4851.19	2.17947	-0.681423
O	4851.44	2.11461	-1.87718
H	4851.05	4.29747	-0.768029
H	4851.72	3.64505	0.779524
H	4849.95	3.50956	0.426817
N	4851.11	1.09551	0.0932565
C	4851.31	-0.240847	-0.407522
C	4850.65	-1.20437	0.557446
O	4850.29	-0.831108	1.67387
H	4850.88	1.15941	1.05999
H	4850.81	-0.336976	-1.36339
C	4852.81	-0.572196	-0.540207
H	4853.32	-0.471928	0.442082
H	4852.97	-1.60041	-0.925698
H	4853.29	0.141311	-1.24873
N	4850.44	-2.46886	0.137902
C	4849.81	-3.45295	0.983329
H	4850.73	-2.74965	-0.771723
H	4849.74	-4.43179	0.460222
H	4848.78	-3.12638	1.26286
H	4850.39	-3.59981	1.92145
