44
  This energy is 2.4397e-320 and Call times are: 43413
C	3.13818	0.64645	1.36385
C	1.75453	1.0539	1.03113
O	1.2945	2.11509	1.42957
H	3.61075	1.43122	1.99367
H	3.73451	0.523477	0.435362
H	3.13054	-0.310304	1.92733
N	1.04833	0.201064	0.285262
C	-0.310635	0.457337	-0.120149
C	-0.949695	-0.871411	-0.474081
O	-0.261055	-1.8775	-0.633404
H	1.42455	-0.673557	-0.0087322
H	-0.855831	0.871544	0.718462
C	-0.365109	1.41287	-1.33304
H	0.19574	0.985149	-2.1913
H	-1.41006	1.61246	-1.64773
H	0.107136	2.38203	-1.06126
N	-2.29223	-0.909714	-0.584241
C	-2.98938	-2.13302	-0.906232
H	-2.83245	-0.0863759	-0.444557
H	-4.08707	-1.95943	-0.953109
H	-2.79048	-2.91299	-0.135951
H	-2.65441	-2.52842	-1.89246
C	2061.5	-3.22968	0.509297
C	2061.67	-1.75952	0.529044
O	2062.67	-1.24599	1.00722
H	2062.38	-3.70911	0.981101
H	2061.41	-3.59044	-0.537007
H	2060.59	-3.51664	1.07756
N	2060.67	-1.03931	0.00573004
C	2060.7	0.400656	-0.0477036
C	2059.27	0.882816	-0.198346
O	2058.37	0.100842	-0.50444
H	2059.85	-1.46824	-0.354375
H	2061.08	0.781992	0.892214
C	2061.56	0.906902	-1.22825
H	2061.16	0.513263	-2.19084
H	2061.57	2.01527	-1.27225
H	2062.6	0.546008	-1.10675
N	2059.02	2.18646	0.0361796
C	2057.69	2.73336	-0.0712083
H	2059.76	2.8018	0.289756
H	2057.69	3.82186	0.157735
H	2057	2.22677	0.640767
H	2057.29	2.59234	-1.10103
