44
  This energy is 5.10864e-321 and Call times are: 67437
C	-3.31663	1.02786	0.263773
C	-2.22733	0.313546	-0.43934
O	-2.45669	-0.383866	-1.41786
H	-4.28409	0.806796	-0.23725
H	-3.13807	2.1233	0.232953
H	-3.37445	0.692669	1.32077
N	-0.998022	0.470626	0.0571526
C	0.163501	-0.159819	-0.517506
C	1.24339	-0.204663	0.54601
O	1.14221	0.463595	1.57315
H	-0.828151	1.01805	0.872267
H	-0.0834751	-1.181	-0.778775
C	0.66893	0.614073	-1.75555
H	0.920742	1.66145	-1.48406
H	1.56313	0.131266	-2.20061
H	-0.131606	0.640799	-2.52664
N	2.29807	-1.01578	0.332129
C	3.3689	-1.13253	1.29435
H	2.35817	-1.55395	-0.502131
H	4.14332	-1.84615	0.936222
H	2.98026	-1.49872	2.27216
H	3.85435	-0.144235	1.46404
C	3195.52	1.78285	-0.794471
C	3196.71	1.00192	-1.18307
O	3196.9	0.661143	-2.34356
H	3194.89	1.96383	-1.69341
H	3195.82	2.7609	-0.365978
H	3194.92	1.22129	-0.0455196
N	3197.56	0.692053	-0.201729
C	3198.77	-0.062632	-0.423213
C	3199.19	-0.662409	0.903188
O	3198.7	-0.271898	1.95759
H	3197.39	0.950461	0.744554
H	3198.56	-0.879845	-1.1
C	3199.9	0.831675	-0.986757
H	3200.11	1.66937	-0.290276
H	3200.83	0.253709	-1.15862
H	3199.57	1.26589	-1.95773
N	3200.11	-1.6469	0.87825
C	3200.57	-2.28565	2.0907
H	3200.5	-1.95386	0.0142997
H	3201.33	-3.06777	1.86221
H	3199.72	-2.76701	2.62526
H	3201.03	-1.54025	2.77776
