44
  This energy is 8.98854e-320 and Call times are: 34047
C	-2.959	-1.62001	0.863704
C	-2.14973	-0.792162	-0.05876
O	-2.56652	-0.490333	-1.16857
H	-3.92121	-1.883	0.372924
H	-3.1734	-1.05595	1.79574
H	-2.41613	-2.55553	1.11477
N	-0.951908	-0.406183	0.386897
C	-0.0505286	0.402347	-0.394526
C	1.34728	0.211729	0.161389
O	1.52126	-0.320931	1.25585
H	-0.611642	-0.682928	1.28164
H	-0.0503506	0.0424733	-1.41559
C	-0.444379	1.89539	-0.34137
H	-0.444195	2.26111	0.707614
H	0.247525	2.5208	-0.94213
H	-1.47059	2.02149	-0.750202
N	2.38273	0.625766	-0.595191
C	3.74949	0.474668	-0.153234
H	2.22163	1.04798	-1.4812
H	4.45522	0.877114	-0.912986
H	3.99135	-0.599712	0.0154376
H	3.91576	1.02035	0.80372
C	1614.79	-1.35491	1.35108
C	1615.94	-1.40939	0.42399
O	1616.18	-2.41339	-0.233999
H	1614.25	-2.32648	1.32369
H	1614.09	-0.547317	1.0462
H	1615.14	-1.16783	2.38779
N	1616.7	-0.313005	0.356127
C	1617.86	-0.213631	-0.499744
C	1618.74	0.892933	0.0393921
O	1618.32	1.6864	0.876958
H	1616.52	0.488139	0.918919
H	1618.42	-1.13889	-0.444598
C	1617.45	0.0936707	-1.95858
H	1616.88	1.04316	-2.01139
H	1618.34	0.170705	-2.62034
H	1616.8	-0.72363	-2.34145
N	1620.01	0.957594	-0.415772
C	1620.93	1.96983	0.0494096
H	1620.34	0.301925	-1.08821
H	1621.92	1.8575	-0.443377
H	1621.07	1.89179	1.15119
H	1620.54	2.9887	-0.175934
