44
  This energy is 2.98761e-320 and Call times are: 43623
C	2.47209	-0.309308	-2.43295
C	1.9107	0.330145	-1.22169
O	2.55561	1.14999	-0.582586
H	3.50052	0.0748253	-2.60794
H	1.84424	-0.071138	-3.31721
H	2.51782	-1.41054	-2.29828
N	0.677359	-0.0424987	-0.871884
C	-0.00286064	0.490927	0.281193
C	-1.09667	-0.484756	0.669588
O	-1.44154	-1.38081	-0.0985199
H	0.173505	-0.732903	-1.38414
H	0.695434	0.547847	1.10655
C	-0.610952	1.87962	-0.0169436
H	-1.32633	1.81768	-0.8646
H	-1.13534	2.29334	0.868849
H	0.200256	2.58475	-0.301326
N	-1.65508	-0.34516	1.88807
C	-2.69534	-1.23489	2.34896
H	-1.3573	0.381889	2.49795
H	-3.02573	-0.956087	3.37383
H	-2.33031	-2.28724	2.37255
H	-3.57876	-1.19099	1.6716
C	2072.1	-2.75225	1.14843
C	2071.84	-1.29619	1.10238
O	2072.43	-0.523243	1.8447
H	2072.86	-2.96318	1.92803
H	2072.48	-3.10333	0.166763
H	2071.17	-3.30155	1.40016
N	2070.92	-0.885752	0.217586
C	2070.56	0.49931	0.05505
C	2069.2	0.548754	-0.606205
O	2068.72	-0.454169	-1.12988
H	2070.43	-1.52839	-0.36128
H	2070.47	0.956072	1.03232
C	2071.6	1.25523	-0.806599
H	2071.69	0.783586	-1.80821
H	2071.32	2.32205	-0.933634
H	2072.59	1.21064	-0.312024
N	2068.53	1.71967	-0.577714
C	2067.22	1.85844	-1.17114
H	2068.93	2.51803	-0.14285
H	2066.84	2.89616	-1.04607
H	2066.5	1.15968	-0.692942
H	2067.26	1.62679	-2.26029
