44
  This energy is 7.62739e-320 and Call times are: 101919
C	-3.35355	-0.93222	-0.103824
C	-2.28972	0.0940801	-0.0252584
O	-2.5554	1.28658	-0.0874014
H	-4.33859	-0.431556	-0.225898
H	-3.3709	-1.53728	0.826992
H	-3.17887	-1.59886	-0.974469
N	-1.04015	-0.356208	0.109575
C	0.100775	0.519543	0.200017
C	1.33276	-0.279811	-0.177456
O	1.29021	-1.5069	-0.242875
H	-0.833738	-1.33085	0.129706
H	-0.00902938	1.31644	-0.524538
C	0.256814	1.09468	1.6255
H	0.368557	0.274429	2.36632
H	1.13429	1.76956	1.69863
H	-0.652517	1.67696	1.89046
N	2.4599	0.403746	-0.457271
C	3.6786	-0.2718	-0.83752
H	2.47222	1.39693	-0.405638
H	4.49315	0.462199	-1.02463
H	3.52406	-0.868056	-1.76587
H	4.01063	-0.966463	-0.0322975
C	4825.2	-1.39055	-2.63693
C	4825.5	-1.25621	-1.19359
O	4824.8	-1.79791	-0.349038
H	4824.29	-2.01876	-2.76648
H	4826.05	-1.87564	-3.16081
H	4825.01	-0.391427	-3.08363
N	4826.56	-0.513109	-0.875345
C	4826.98	-0.289825	0.485518
C	4827.84	0.959874	0.509957
O	4828.28	1.44363	-0.533068
H	4827.11	-0.0530845	-1.57121
H	4826.11	-0.100529	1.09575
C	4827.78	-1.49372	1.0332
H	4828.68	-1.68552	0.404435
H	4828.1	-1.3252	2.08091
H	4827.14	-2.40297	1.00891
N	4828.08	1.52631	1.70783
C	4828.88	2.72474	1.82786
H	4827.72	1.12377	2.53977
H	4828.97	3.03322	2.89288
H	4828.42	3.56278	1.25745
H	4829.91	2.55691	1.4251
