44
  This energy is 1.09762e-319 and Call times are: 116241
C	0.96755	-2.69816	-1.97735
C	-0.0196978	-1.67596	-1.56303
O	-1.06568	-1.52086	-2.17815
H	0.590098	-3.22956	-2.87791
H	1.11923	-3.43622	-1.16183
H	1.93693	-2.21624	-2.22435
N	0.300438	-0.940647	-0.495705
C	-0.557513	0.0921672	0.0277872
C	0.296822	1.03229	0.855744
O	1.43573	0.714324	1.19281
H	1.16863	-1.05687	-0.0206587
H	-0.967459	0.660772	-0.797262
C	-1.68811	-0.502593	0.896769
H	-1.26401	-1.08581	1.74182
H	-2.35069	0.289926	1.30133
H	-2.3059	-1.19028	0.279061
N	-0.22938	2.22828	1.18549
C	0.514454	3.193	1.96152
H	-1.15011	2.46986	0.897166
H	-0.0893663	4.11185	2.12993
H	1.45258	3.48181	1.4345
H	0.792289	2.76918	2.95367
C	5508.58	-1.41833	0.130457
C	5507.12	-1.51527	-0.0896229
O	5506.61	-2.54299	-0.515725
H	5509.06	-2.38041	-0.153963
H	5508.79	-1.21357	1.20078
H	5509.01	-0.605539	-0.493303
N	5506.4	-0.42545	0.195902
C	5504.97	-0.366003	0.0341577
C	5504.57	1.09405	-0.0624313
O	5505.36	1.98284	0.247711
H	5506.83	0.415216	0.514783
H	5504.7	-0.842582	-0.900083
C	5504.24	-1.03775	1.21957
H	5504.52	-0.546803	2.17644
H	5503.14	-0.993897	1.09817
H	5504.54	-2.10642	1.28021
N	5503.34	1.37633	-0.518626
C	5502.87	2.73786	-0.655722
H	5502.71	0.643251	-0.771261
H	5501.83	2.76216	-1.044
H	5503.52	3.30432	-1.36116
H	5502.89	3.26069	0.327856
