44
  This energy is 3.83988e-320 and Call times are: 106875
C	0.682533	-2.44638	2.38233
C	-0.242717	-1.50706	1.70944
O	-1.44121	-1.51526	1.95445
H	0.106347	-3.09436	3.07803
H	1.44377	-1.88373	2.96264
H	1.19027	-3.08759	1.63132
N	0.303186	-0.666881	0.827134
C	-0.467254	0.305064	0.0932584
C	0.327352	0.696487	-1.13744
O	1.51707	0.4025	-1.23728
H	1.2765	-0.689683	0.614811
H	-1.38751	-0.156046	-0.242283
C	-0.763673	1.55371	0.953571
H	0.182569	2.02386	1.29665
H	-1.35689	2.30408	0.391599
H	-1.34507	1.25343	1.85244
N	-0.32238	1.35408	-2.11796
C	0.349372	1.75675	-3.33155
H	-1.28697	1.57653	-2.02142
H	-0.352987	2.28569	-4.01284
H	0.756621	0.869358	-3.86814
H	1.19805	2.44119	-3.1025
C	5064.52	1.33291	1.8616
C	5063.95	0.291356	0.978979
O	5064.65	-0.600595	0.517773
H	5065.61	1.14735	1.99102
H	5064.03	1.30243	2.8572
H	5064.38	2.33748	1.41041
N	5062.65	0.388001	0.716607
C	5061.95	-0.549945	-0.12448
C	5060.68	0.121328	-0.61699
O	5060.28	1.1608	-0.0984366
H	5062.09	1.13593	1.07483
H	5062.56	-0.771723	-0.989389
C	5061.6	-1.84382	0.644615
H	5060.97	-1.61255	1.53163
H	5061.06	-2.56829	-0.000109084
H	5062.53	-2.32533	1.00109
N	5060.03	-0.449928	-1.65083
C	5058.82	0.124464	-2.19489
H	5060.38	-1.2871	-2.0615
H	5058.44	-0.491697	-3.03787
H	5059.01	1.15523	-2.57242
H	5058.03	0.183515	-1.41464
