44
  This energy is 1.48714e-321 and Call times are: 118173
C	1.46049	1.29377	-2.88431
C	0.291002	0.783334	-2.13401
O	-0.836186	0.837352	-2.60627
H	1.12105	1.69917	-3.86221
H	2.18534	0.472928	-3.0677
H	1.9581	2.10495	-2.31218
N	0.538474	0.273405	-0.925256
C	-0.495492	-0.262227	-0.0762328
C	0.0229553	-0.257905	1.3487
O	1.21784	-0.0861912	1.58234
H	1.45721	0.26164	-0.539613
H	-1.35682	0.392525	-0.114869
C	-0.881137	-1.69799	-0.496908
H	0.0049443	-2.36685	-0.456769
H	-1.67716	-2.11341	0.15467
H	-1.2582	-1.68777	-1.54279
N	-0.873599	-0.426219	2.3406
C	-0.474071	-0.424529	3.7286
H	-1.83718	-0.556557	2.1314
H	-1.35397	-0.57913	4.39127
H	0.0022677	0.545602	3.99914
H	0.261453	-1.23746	3.9269
C	5596.87	3.05651	-0.0432179
C	5596.86	1.57709	0.00673323
O	5597.9	0.938112	-0.0668571
H	5597.91	3.41654	-0.157417
H	5596.45	3.47244	0.895443
H	5596.27	3.41247	-0.907673
N	5595.67	0.991995	0.129208
C	5595.5	-0.438068	0.191848
C	5594.07	-0.75747	-0.193152
O	5593.22	0.129125	-0.242187
H	5594.83	1.52253	0.158855
H	5596.15	-0.900435	-0.541211
C	5595.8	-0.978201	1.60741
H	5595.14	-0.501271	2.35701
H	5595.68	-2.07906	1.65915
H	5596.86	-0.736807	1.87804
N	5593.78	-2.0366	-0.498031
C	5592.44	-2.43267	-0.887203
H	5594.48	-2.73831	-0.459338
H	5592.4	-3.52454	-1.09551
H	5592.12	-1.88851	-1.80548
H	5591.71	-2.20245	-0.0780263
