44
  This energy is 6.33195e-320 and Call times are: 107883
C	-1.17184	-0.979726	3.12939
C	-1.38492	-0.67549	1.69647
O	-2.46143	-0.891775	1.15719
H	-2.10442	-1.40839	3.55647
H	-0.91608	-0.0521682	3.68351
H	-0.350645	-1.71795	3.24605
N	-0.342719	-0.163575	1.03759
C	-0.395761	0.184089	-0.359961
C	1.02646	0.224744	-0.884258
O	1.98173	0.234517	-0.110181
H	0.537878	-0.0191688	1.48102
H	-0.922038	-0.595064	-0.896643
C	-1.08005	1.55276	-0.573544
H	-0.53796	2.34964	-0.0210542
H	-1.12271	1.82347	-1.64857
H	-2.12064	1.51022	-0.184302
N	1.2002	0.227384	-2.2206
C	2.51804	0.253128	-2.8112
H	0.414595	0.211985	-2.83037
H	2.45144	0.25299	-3.92152
H	3.10759	-0.637889	-2.49535
H	3.0735	1.16504	-2.4933
C	5110.76	-0.00411291	3.37346
C	5111.1	-0.201526	1.94455
O	5112.25	-0.416844	1.58643
H	5111.69	-0.0797704	3.98032
H	5110.05	-0.783824	3.71127
H	5110.31	0.999806	3.52697
N	5110.08	-0.1251	1.08312
C	5110.24	-0.29533	-0.338353
C	5109.06	0.351858	-1.02604
O	5108.06	0.670873	-0.386157
H	5109.15	0.0797559	1.38434
H	5111.14	0.231662	-0.65464
C	5110.33	-1.79014	-0.719775
H	5109.41	-2.32786	-0.393238
H	5110.46	-1.92483	-1.81359
H	5111.2	-2.25292	-0.208747
N	5109.15	0.581344	-2.35061
C	5108.08	1.20389	-3.08782
H	5109.97	0.322428	-2.84932
H	5108.34	1.30433	-4.1629
H	5107.86	2.21945	-2.68415
H	5107.15	0.596807	-3.01306
