44
  This energy is 4.04195e-320 and Call times are: 106959
C	1.11668	-3.28421	0.305191
C	1.14914	-1.85678	0.695821
O	1.81146	-1.47751	1.65184
H	1.75315	-3.87053	1.00304
H	1.50716	-3.40738	-0.72688
H	0.0771874	-3.67136	0.355442
N	0.41668	-1.02231	-0.0454816
C	0.347109	0.394249	0.210166
C	-0.917116	0.92326	-0.438771
O	-1.53764	0.242747	-1.25344
H	-0.141614	-1.34786	-0.80394
H	0.261318	0.555412	1.27728
C	1.58252	1.12935	-0.355971
H	1.66786	0.96132	-1.45078
H	1.53226	2.22028	-0.160736
H	2.50202	0.731945	0.126462
N	-1.3414	2.14906	-0.0735415
C	-2.5412	2.73011	-0.629451
H	-0.829277	2.68122	0.592616
H	-2.72069	3.74266	-0.205446
H	-3.42715	2.09346	-0.403555
H	-2.45633	2.82342	-1.73637
C	5067.37	-2.97731	-1.05251
C	5066.44	-1.84094	-1.25342
O	5065.86	-1.67913	-2.31773
H	5067.42	-3.57995	-1.98535
H	5067.01	-3.62427	-0.225653
H	5068.38	-2.60341	-0.811312
N	5066.28	-1.01247	-0.218158
C	5065.42	0.13728	-0.260779
C	5065.87	1.09954	0.822078
O	5066.64	0.736799	1.7031
H	5066.79	-1.13853	0.633791
H	5065.54	0.635147	-1.21434
C	5063.94	-0.263166	-0.0383892
H	5063.82	-0.774248	0.940454
H	5063.27	0.619741	-0.0707397
H	5063.63	-0.969006	-0.837335
N	5065.4	2.36273	0.767805
C	5065.78	3.35174	1.74897
H	5064.78	2.6388	0.0428671
H	5065.29	4.32758	1.5341
H	5066.88	3.50405	1.74495
H	5065.48	3.02693	2.77156
