44
  This energy is 1.57819e-319 and Call times are: 124305
C	1.69942	-2.83507	1.09566
C	0.769663	-2.15213	0.16811
O	0.33394	-2.72093	-0.823405
H	1.89682	-3.86469	0.72583
H	1.2513	-2.89721	2.10963
H	2.66085	-2.28222	1.15001
N	0.445766	-0.89341	0.473196
C	-0.447341	-0.0990551	-0.331905
C	-0.184654	1.36075	-0.016952
O	0.477266	1.68203	0.968175
H	0.830231	-0.431382	1.26796
H	-0.213636	-0.257282	-1.37709
C	-1.92472	-0.447275	-0.0434613
H	-2.16085	-0.284447	1.02978
H	-2.61513	0.162445	-0.661813
H	-2.10392	-1.51941	-0.277025
N	-0.682567	2.28251	-0.864559
C	-0.473033	3.69572	-0.652152
H	-1.20958	2.00219	-1.66012
H	-0.961291	4.29072	-1.45517
H	0.614927	3.93569	-0.650399
H	-0.898197	4.01326	0.327432
C	5890.3	0.0109405	1.58587
C	5888.82	-0.102101	1.61337
O	5888.23	-0.421133	2.63583
H	5890.71	-0.238756	2.5901
H	5890.6	1.04774	1.32473
H	5890.72	-0.694759	0.840912
N	5888.19	0.156085	0.468268
C	5886.75	0.0883532	0.337892
C	5886.43	-0.0808522	-1.13315
O	5887.28	0.113081	-1.99358
H	5888.68	0.386604	-0.365402
H	5886.4	-0.790566	0.857854
C	5886.08	1.36384	0.888834
H	5886.45	2.26364	0.353647
H	5884.98	1.31496	0.790143
H	5886.33	1.47703	1.96674
N	5885.18	-0.470175	-1.45537
C	5884.78	-0.668552	-2.8293
H	5884.5	-0.628984	-0.744198
H	5883.72	-0.985788	-2.88783
H	5885.41	-1.45377	-3.3109
H	5884.9	0.273209	-3.41272
