44
  This energy is 1.59929e-320 and Call times are: 55299
C	1.04594	-1.8613	2.75094
C	1.23017	-1.36658	1.36801
O	2.26816	-1.57436	0.754894
H	1.96403	-2.39837	3.07425
H	0.185515	-2.56168	2.79527
H	0.865467	-1.0104	3.44111
N	0.210469	-0.684439	0.841456
C	0.239953	-0.140461	-0.492728
C	-0.793766	0.966366	-0.567543
O	-1.64425	1.09262	0.311413
H	-0.61852	-0.496741	1.36154
H	1.2111	0.303913	-0.670145
C	-0.0658967	-1.22536	-1.54941
H	-1.0626	-1.67959	-1.364
H	-0.0438601	-0.809941	-2.57786
H	0.697643	-2.03085	-1.4835
N	-0.729725	1.81173	-1.61504
C	-1.66453	2.90268	-1.76386
H	-0.0296511	1.69727	-2.3122
H	-1.44877	3.48206	-2.68854
H	-1.60168	3.59541	-0.893562
H	-2.70891	2.51975	-1.82561
C	2619.14	-2.55368	0.214495
C	2619.58	-1.16552	0.475797
O	2618.82	-0.334912	0.944431
H	2618.07	-2.65842	0.501185
H	2619.75	-3.26706	0.813487
H	2619.25	-2.79328	-0.864343
N	2620.85	-0.879058	0.167139
C	2621.43	0.427023	0.364116
C	2622.64	0.541738	-0.538047
O	2623.12	-0.454977	-1.07259
H	2621.46	-1.55664	-0.241203
H	2620.71	1.17777	0.0513706
C	2621.84	0.644048	1.83755
H	2622.57	-0.128241	2.15527
H	2622.28	1.6488	1.99278
H	2620.94	0.556328	2.48816
N	2623.15	1.77153	-0.746073
C	2624.3	1.97941	-1.59917
H	2622.74	2.56651	-0.310148
H	2624.57	3.05802	-1.6412
H	2624.09	1.63061	-2.63562
H	2625.18	1.41333	-1.21852
