44
  This energy is 1.37014e-319 and Call times are: 91461
C	1.51772	1.6912	2.63866
C	1.33045	1.43508	1.19279
O	1.86265	2.14492	0.350531
H	2.17229	2.57972	2.77251
H	1.99759	0.81507	3.12337
H	0.538192	1.89029	3.12223
N	0.551264	0.400199	0.869914
C	0.27476	0.0255382	-0.493905
C	-0.996235	-0.801355	-0.501375
O	-1.45766	-1.25426	0.544476
H	0.0998734	-0.152785	1.56518
H	0.0883108	0.920555	-1.07378
C	1.44037	-0.786386	-1.10156
H	1.62937	-1.70351	-0.503827
H	1.23083	-1.07638	-2.15169
H	2.36569	-0.170125	-1.08921
N	-1.60613	-0.999458	-1.68661
C	-2.82738	-1.76374	-1.78957
H	-1.22093	-0.618689	-2.52079
H	-3.1714	-1.81487	-2.84611
H	-3.63516	-1.29756	-1.18014
H	-2.67272	-2.80344	-1.4204
C	4335.43	-1.71619	-0.146453
C	4334.33	-1.07899	0.612573
O	4334.26	-1.17155	1.83068
H	4336.1	-2.24546	0.560215
H	4336.01	-0.94611	-0.693145
H	4335.02	-2.45146	-0.870299
N	4333.42	-0.411973	-0.104886
C	4332.29	0.260688	0.490593
C	4331.24	0.442256	-0.583322
O	4331.51	0.276577	-1.77
H	4333.47	-0.368371	-1.09926
H	4331.87	-0.372598	1.2613
C	4332.7	1.63273	1.07264
H	4333.13	2.2796	0.279433
H	4331.83	2.15332	1.53208
H	4333.47	1.48611	1.85723
N	4329.99	0.76789	-0.186768
C	4328.92	0.949733	-1.13733
H	4329.79	0.890554	0.778702
H	4327.97	1.21564	-0.616646
H	4328.75	0.0156718	-1.71999
H	4329.17	1.76478	-1.85596
