44
  This energy is 4.47821e-320 and Call times are: 56391
C	-1.75985	-2.13601	-2.11341
C	-0.496821	-1.53945	-1.62345
O	0.588499	-1.94712	-2.0138
H	-1.52635	-2.95243	-2.83091
H	-2.37085	-1.36673	-2.63082
H	-2.3385	-2.5579	-1.26481
N	-0.613984	-0.54754	-0.737581
C	0.523125	0.132105	-0.170224
C	0.076285	0.789808	1.1209
O	-1.11864	0.906197	1.3863
H	-1.50306	-0.243989	-0.405422
H	1.28192	-0.598958	0.0784786
C	1.08524	1.19464	-1.14088
H	0.303997	1.94263	-1.39442
H	1.961	1.71977	-0.70722
H	1.40792	0.700345	-2.08306
N	1.0329	1.21778	1.96808
C	0.702331	1.84527	3.22632
H	1.99441	1.10806	1.7385
H	1.62518	2.12801	3.77918
H	0.108462	1.15327	3.86639
H	0.0974986	2.76589	3.05951
C	2670.72	1.86556	0.970713
C	2671.95	1.6819	0.163901
O	2672.26	2.47715	-0.714343
H	2670.2	2.78308	0.631847
H	2670.99	1.9769	2.04419
H	2670.05	0.99383	0.843387
N	2672.69	0.607004	0.446099
C	2673.91	0.293501	-0.25184
C	2674.19	-1.18503	-0.0627899
O	2673.59	-1.83495	0.787393
H	2672.42	-0.0490912	1.14423
H	2673.77	0.468222	-1.3104
C	2675.1	1.12959	0.283
H	2675.24	0.948433	1.36935
H	2676.04	0.890811	-0.252326
H	2674.88	2.21065	0.139787
N	2675.1	-1.75761	-0.871512
C	2675.43	-3.16218	-0.772701
H	2675.58	-1.2163	-1.55812
H	2676.2	-3.44183	-1.52095
H	2674.52	-3.78631	-0.954457
H	2675.82	-3.40578	0.242349
