44
  This energy is 1.54746e-319 and Call times are: 657
C	2.65135	-1.20581	1.90853
C	1.22546	-0.84448	1.74282
O	0.402967	-1.10054	2.61141
H	2.79035	-1.71271	2.88811
H	3.28276	-0.292834	1.88358
H	2.96802	-1.89612	1.09851
N	0.896711	-0.236186	0.600773
C	-0.449604	0.17668	0.294496
C	-0.558362	0.332286	-1.2099
O	0.449754	0.363209	-1.91316
H	1.57072	-0.0592574	-0.111511
H	-1.13458	-0.606154	0.59459
C	-0.802156	1.50881	0.993253
H	-0.0970828	2.30951	0.683641
H	-1.83818	1.82955	0.759687
H	-0.717565	1.38193	2.09457
N	-1.79371	0.412369	-1.74236
C	-1.99549	0.549887	-3.16593
H	-2.59724	0.378264	-1.1572
H	-3.08034	0.600906	-3.40621
H	-1.55629	-0.317139	-3.71055
H	-1.5085	1.47778	-3.54413
C	43.1333	-1.10344	-2.52146
C	42.6072	-1.17088	-1.13948
O	42.9451	-2.06576	-0.376954
H	43.8226	-1.95832	-2.69415
H	43.6914	-0.155561	-2.6725
H	42.299	-1.16123	-3.25197
N	41.7489	-0.211931	-0.784239
C	41.1523	-0.142978	0.525781
C	39.8948	0.697881	0.421383
O	39.6795	1.38576	-0.574758
H	41.459	0.495001	-1.42387
H	40.8576	-1.13898	0.831065
C	42.1234	0.478897	1.55407
H	42.4242	1.50035	1.23743
H	41.6673	0.533358	2.5639
H	43.0409	-0.145626	1.62036
N	39.0202	0.644276	1.4452
C	37.7903	1.4014	1.42878
H	39.2091	0.0760867	2.23938
H	37.2078	1.22557	2.35994
H	37.159	1.10644	0.559497
H	38.0013	2.49231	1.34784
