44
  This energy is 1.17627e-319 and Call times are: 122709
C	-3.19965	0.883647	-1.05239
C	-2.18462	-0.127692	-0.680759
O	-2.47959	-1.31002	-0.573136
H	-4.18314	0.383802	-1.1894
H	-2.91387	1.38111	-2.00301
H	-3.29246	1.64569	-0.25013
N	-0.946864	0.324954	-0.467606
C	0.148029	-0.536863	-0.0997645
C	1.216	0.319314	0.552648
O	1.17905	1.54522	0.465307
H	-0.725549	1.29452	-0.52999
H	-0.197898	-1.24993	0.637764
C	0.729909	-1.26432	-1.33238
H	1.08321	-0.529827	-2.08724
H	1.57307	-1.92887	-1.0527
H	-0.0624692	-1.88708	-1.80191
N	2.18599	-0.310583	1.24427
C	3.23807	0.422665	1.90885
H	2.19448	-1.30302	1.3093
H	3.93909	-0.272716	2.42096
H	2.81316	1.11586	2.67054
H	3.81826	1.02877	1.17591
C	5812.49	3.23129	0.121877
C	5811.79	2.0868	0.742751
O	5811.5	2.09075	1.93173
H	5812.69	4.00643	0.894841
H	5811.87	3.67404	-0.682368
H	5813.46	2.89853	-0.30444
N	5811.5	1.0626	-0.0623678
C	5810.81	-0.121214	0.394957
C	5811.11	-1.23813	-0.587147
O	5811.6	-0.994457	-1.6859
H	5811.76	1.0589	-1.02277
H	5811.22	-0.412244	1.3557
C	5809.29	0.11106	0.492706
H	5808.88	0.410121	-0.494484
H	5808.76	-0.798436	0.8447
H	5809.09	0.932267	1.2142
N	5810.83	-2.49905	-0.202169
C	5811.09	-3.62751	-1.06588
H	5810.44	-2.67631	0.69377
H	5810.79	-4.57793	-0.571026
H	5812.17	-3.68901	-1.31843
H	5810.52	-3.53309	-2.01752
