44
  This energy is 1.53813e-319 and Call times are: 66933
C	2.67596	-1.86294	-1.22264
C	1.96567	-1.17189	-0.12303
O	2.35278	-1.26022	1.03405
H	3.54037	-2.42421	-0.805969
H	3.05022	-1.12291	-1.96095
H	1.9939	-2.57773	-1.72941
N	0.888718	-0.461669	-0.466737
C	0.0941921	0.266014	0.490358
C	-1.27402	0.498361	-0.120582
O	-1.46483	0.318391	-1.32185
H	0.566518	-0.421228	-1.4088
H	-0.0395645	-0.345229	1.37385
C	0.749767	1.61684	0.854502
H	0.886112	2.24109	-0.0542548
H	0.140669	2.17968	1.59138
H	1.75174	1.43299	1.29992
N	-2.26857	0.88514	0.702382
C	-3.60705	1.1187	0.212384
H	-2.09582	1.01849	1.67275
H	-4.28019	1.43119	1.04093
H	-4.0239	0.193721	-0.247929
H	-3.60806	1.92012	-0.561507
C	3176.61	-1.75699	-2.40279
C	3175.37	-1.09392	-1.93137
O	3174.41	-0.937366	-2.67669
H	3176.49	-2.04261	-3.47039
H	3176.8	-2.67259	-1.80562
H	3177.47	-1.06558	-2.31102
N	3175.37	-0.67815	-0.662716
C	3174.24	-0.0166905	-0.0598657
C	3174.74	0.754849	1.14562
O	3175.86	0.54674	1.60339
H	3176.16	-0.785484	-0.0741077
H	3173.83	0.699333	-0.763573
C	3173.16	-1.0318	0.371087
H	3173.57	-1.76525	1.09247
H	3172.28	-0.525839	0.835533
H	3172.8	-1.59126	-0.520648
N	3173.92	1.68477	1.67658
C	3174.32	2.47653	2.81785
H	3173.02	1.84337	1.28739
H	3173.51	3.18318	3.10606
H	3175.23	3.06763	2.58723
H	3174.54	1.8225	3.69193
