44
  This energy is 7.75041e-320 and Call times are: 82725
C	-3.11502	0.041916	-1.55597
C	-2.05234	0.687845	-0.753032
O	-2.11628	1.87268	-0.455427
H	-3.8945	0.793941	-1.80641
H	-3.58346	-0.782403	-0.978146
H	-2.69008	-0.362841	-2.49859
N	-1.03193	-0.0901407	-0.384443
C	0.0766445	0.393734	0.398982
C	1.24354	-0.551431	0.188598
O	1.07531	-1.65092	-0.33548
H	-0.977022	-1.04678	-0.657853
H	0.371023	1.36739	0.0283033
C	-0.284277	0.466455	1.8995
H	-0.586439	-0.533958	2.27631
H	0.567046	0.838797	2.50563
H	-1.14104	1.16096	2.04011
N	2.46465	-0.132791	0.575415
C	3.63638	-0.959726	0.403899
H	2.5813	0.763237	0.991056
H	4.54326	-0.440646	0.785164
H	3.79528	-1.19745	-0.672893
H	3.52377	-1.92047	0.956599
C	3917.66	2.57565	0.191272
C	3918.05	1.19497	-0.175316
O	3917.22	0.387164	-0.566729
H	3916.57	2.69797	0.0532994
H	3918.19	3.30627	-0.457347
H	3917.92	2.77507	1.2539
N	3919.35	0.888915	-0.0483289
C	3919.88	-0.412988	-0.366114
C	3921.2	-0.568661	0.3619
O	3921.76	0.404652	0.862215
H	3920.01	1.54708	0.299316
H	3919.2	-1.16978	0.0123599
C	3920.08	-0.578988	-1.88788
H	3920.78	0.199396	-2.27292
H	3920.49	-1.5804	-2.1361
H	3919.11	-0.461583	-2.40975
N	3921.72	-1.80862	0.456744
C	3922.96	-2.05517	1.14173
H	3921.24	-2.58443	0.0514289
H	3923.22	-3.13638	1.10967
H	3922.89	-1.7429	2.20893
H	3923.79	-1.48156	0.667377
