44
  This energy is 4.5375e-320 and Call times are: 32409
C	-1.8831	-2.2589	1.86478
C	-1.58525	-1.54042	0.605312
O	-2.17005	-1.81551	-0.433354
H	-2.66582	-3.02501	1.67431
H	-2.25541	-1.54785	2.632
H	-0.969515	-2.76464	2.24232
N	-0.648273	-0.59168	0.671162
C	-0.249334	0.193408	-0.469588
C	1.12687	0.762884	-0.184968
O	1.59378	0.73988	0.952261
H	-0.158392	-0.396874	1.51674
H	-0.164703	-0.456161	-1.33155
C	-1.25133	1.33713	-0.743472
H	-1.3362	2.00118	0.143067
H	-0.947256	1.94355	-1.6213
H	-2.25567	0.906942	-0.94933
N	1.82023	1.27051	-1.22302
C	3.14319	1.82365	-1.0498
H	1.42801	1.27349	-2.13702
H	3.54579	2.19121	-2.01937
H	3.84173	1.05349	-0.649634
H	3.12199	2.67628	-0.333043
C	1536.86	1.14478	1.66597
C	1538.13	0.375543	1.62535
O	1538.6	-0.125074	2.6384
H	1536.48	1.16899	2.70975
H	1536.1	0.664375	1.01592
H	1537.04	2.1863	1.32283
N	1538.72	0.26881	0.433091
C	1539.95	-0.448268	0.23395
C	1540.58	0.057234	-1.04895
O	1539.94	0.737256	-1.84249
H	1538.34	0.705802	-0.379435
H	1540.63	-0.216621	1.04671
C	1539.71	-1.97133	0.142316
H	1539.02	-2.20534	-0.692071
H	1540.66	-2.52653	-0.0108705
H	1539.25	-2.32901	1.08757
N	1541.88	-0.247401	-1.27174
C	1542.57	0.200508	-2.46015
H	1542.39	-0.792807	-0.614097
H	1543.62	-0.153147	-2.4609
H	1542.57	1.3132	-2.51628
H	1542.06	-0.189794	-3.37525
