44
  This energy is 7.26721e-320 and Call times are: 88899
C	-0.778264	2.32389	2.47385
C	-0.651671	1.92842	1.05302
O	-1.0466	2.6596	0.155307
H	-1.26566	3.32114	2.53549
H	0.22534	2.38471	2.94492
H	-1.39982	1.58553	3.02287
N	-0.0934259	0.739067	0.815999
C	0.0983521	0.216606	-0.513318
C	0.249304	-1.2883	-0.405159
O	0.450595	-1.82323	0.683494
H	0.197753	0.139912	1.55705
H	-0.788305	0.416837	-1.10138
C	1.34846	0.829131	-1.18351
H	2.25611	0.622403	-0.577251
H	1.49901	0.42913	-2.20729
H	1.22597	1.93182	-1.25575
N	0.133024	-2.01111	-1.53654
C	0.250211	-3.45069	-1.5289
H	-0.0369954	-1.5603	-2.40665
H	0.126767	-3.86074	-2.55549
H	-0.528467	-3.90479	-0.87415
H	1.24862	-3.76175	-1.14472
C	4213	-1.60171	-1.67919
C	4212.29	-1.21698	-0.435011
O	4212.63	-1.66803	0.649825
H	4213.81	-2.31903	-1.43437
H	4213.44	-0.70511	-2.16022
H	4212.29	-2.08703	-2.38453
N	4211.27	-0.364407	-0.569231
C	4210.49	0.102967	0.548401
C	4209.16	0.598648	0.0134027
O	4209	0.793331	-1.19005
H	4210.99	-0.026693	-1.46188
H	4210.29	-0.730163	1.20971
C	4211.22	1.23839	1.3051
H	4211.42	2.09116	0.623544
H	4210.62	1.60051	2.16638
H	4212.19	0.862914	1.69094
N	4208.17	0.794282	0.899219
C	4206.86	1.25352	0.480542
H	4208.31	0.624264	1.86807
H	4206.18	1.35446	1.35445
H	4206.41	0.535825	-0.238656
H	4206.94	2.24506	-0.0218441
