44
  This energy is 1.17622e-319 and Call times are: 40935
C	2.9527	-0.0681079	1.84474
C	1.49441	-0.286002	1.71384
O	0.853549	-0.828579	2.60344
H	3.29791	-0.470417	2.8219
H	3.18274	1.01727	1.80152
H	3.49299	-0.59293	1.0289
N	0.931493	0.134792	0.578752
C	-0.476343	-0.00659549	0.305191
C	-0.66986	0.0768315	-1.19642
O	0.232662	0.485185	-1.9248
H	1.46933	0.549053	-0.150666
H	-0.799878	-0.989178	0.624456
C	-1.29955	1.09528	1.00897
H	-0.964571	2.10198	0.679642
H	-2.38404	0.989302	0.800575
H	-1.1483	1.02416	2.10816
N	-1.85206	-0.331625	-1.69797
C	-2.12264	-0.299742	-3.11641
H	-2.56724	-0.665536	-1.09278
H	-3.14836	-0.673498	-3.32958
H	-1.39535	-0.937201	-3.66953
H	-2.03937	0.739476	-3.50918
C	1939.99	0.859812	-1.70577
C	1940.81	-0.101527	-0.937677
O	1940.35	-1.17416	-0.569629
H	1938.97	0.437966	-1.8507
H	1940.45	1.0453	-2.70052
H	1939.9	1.81923	-1.1531
N	1942.06	0.271936	-0.670348
C	1942.99	-0.555107	0.0668301
C	1944.08	0.341928	0.622828
O	1944.21	1.49356	0.21389
H	1942.42	1.16067	-0.950511
H	1942.47	-0.999944	0.905746
C	1943.61	-1.64721	-0.833438
H	1944.14	-1.18739	-1.6934
H	1944.32	-2.28594	-0.268943
H	1942.8	-2.29682	-1.23536
N	1944.87	-0.161868	1.58993
C	1945.92	0.622503	2.18731
H	1944.74	-1.0937	1.91242
H	1946.46	0.0321606	2.96067
H	1945.51	1.53662	2.67037
H	1946.66	0.943938	1.41519
