44
  This energy is 1.5361e-319 and Call times are: 24723
C	-2.27006	-1.17883	-2.36291
C	-1.63588	-1.23389	-1.0265
O	-2.05722	-1.98399	-0.15683
H	-3.1253	-1.88841	-2.39312
H	-1.53728	-1.46571	-3.14621
H	-2.64597	-0.154017	-2.56637
N	-0.594668	-0.421653	-0.83029
C	0.125995	-0.361852	0.416264
C	0.854777	0.966774	0.469826
O	0.977149	1.65775	-0.539832
H	-0.279144	0.205832	-1.53714
H	-0.58324	-0.381193	1.234
C	1.13414	-1.52614	0.539579
H	1.85981	-1.50366	-0.301259
H	1.69066	-1.48322	1.49834
H	0.587974	-2.49366	0.497769
N	1.33921	1.36639	1.66215
C	2.03681	2.62222	1.81185
H	1.22376	0.7964	2.46901
H	2.35874	2.76998	2.86626
H	1.37891	3.47389	1.52364
H	2.94128	2.64934	1.16194
C	1175.28	0.0471811	-2.29692
C	1176.58	-0.469365	-1.81717
O	1177.13	-1.42345	-2.35938
H	1174.94	-0.563705	-3.16055
H	1175.39	1.10348	-2.62279
H	1174.52	-0.0168486	-1.48871
N	1177.12	0.157698	-0.767686
C	1178.38	-0.228413	-0.187371
C	1178.43	0.30933	1.22969
O	1177.62	1.15211	1.60824
H	1176.66	0.915305	-0.316572
H	1178.43	-1.30861	-0.130879
C	1179.57	0.326495	-1.00414
H	1179.52	1.43484	-1.06064
H	1180.54	0.0309351	-0.560152
H	1179.53	-0.0738616	-2.0404
N	1179.37	-0.18526	2.05635
C	1179.48	0.258269	3.4264
H	1180.01	-0.871979	1.73326
H	1180.32	-0.263863	3.94197
H	1178.54	0.0494132	3.98479
H	1179.67	1.35493	3.47019
