44
  This energy is 8.40752e-320 and Call times are: 51771
C	3.24133	0.913952	-0.885793
C	1.99969	0.140055	-1.11082
O	1.84241	-0.521887	-2.12747
H	3.92069	0.779349	-1.75539
H	3.75518	0.554824	0.0306147
H	3.00529	1.99357	-0.777842
N	1.07341	0.213177	-0.152167
C	-0.185783	-0.483704	-0.227162
C	-1.15736	0.207547	0.709564
O	-0.757338	1.01491	1.54621
H	1.20132	0.779122	0.657944
H	-0.578001	-0.394472	-1.23229
C	-0.0311556	-1.96898	0.169277
H	0.372047	-2.05683	1.2007
H	-0.998823	-2.50858	0.112486
H	0.68385	-2.46373	-0.523638
N	-2.46712	-0.079368	0.574669
C	-3.46653	0.539159	1.41419
H	-2.77165	-0.730085	-0.113128
H	-4.48312	0.172728	1.15052
H	-3.45078	1.64655	1.29299
H	-3.27725	0.306555	2.48715
C	2455.54	-2.90137	1.92044
C	2454.86	-2.01471	0.950098
O	2453.84	-2.36748	0.381145
H	2454.98	-3.85715	2.00161
H	2455.58	-2.4192	2.91999
H	2456.58	-3.12009	1.57934
N	2455.43	-0.826071	0.733198
C	2454.88	0.145031	-0.181816
C	2456	1.09677	-0.569148
O	2457.05	1.12178	0.0643737
H	2456.28	-0.561959	1.18106
H	2454.56	-0.362657	-1.08066
C	2453.72	0.927795	0.458254
H	2454.05	1.44684	1.38046
H	2453.29	1.67629	-0.243645
H	2452.91	0.219293	0.738547
N	2455.8	1.89114	-1.63924
C	2456.81	2.82049	-2.08938
H	2454.94	1.85099	-2.14311
H	2456.46	3.38353	-2.98126
H	2457.75	2.28153	-2.36319
H	2457.06	3.5531	-1.28683
