44
  This energy is 1.01995e-319 and Call times are: 71343
C	1.09918	0.603254	3.24869
C	0.215245	-0.0835803	2.28013
O	-0.530115	-0.986716	2.63408
H	0.954939	0.15829	4.25719
H	0.850197	1.68435	3.29397
H	2.16182	0.481152	2.95063
N	0.285439	0.33367	1.0139
C	-0.512269	-0.236388	-0.0422841
C	0.167252	0.0779426	-1.36088
O	1.06309	0.91794	-1.42183
H	0.917833	1.05059	0.732763
H	-0.528537	-1.31295	0.0709618
C	-1.94747	0.335684	-0.0345874
H	-1.92702	1.44036	-0.150288
H	-2.56447	-0.10124	-0.846488
H	-2.43393	0.0997971	0.936934
N	-0.231288	-0.609844	-2.44905
C	0.366579	-0.386745	-3.74479
H	-0.95289	-1.29062	-2.37785
H	-0.0973591	-1.04648	-4.5108
H	1.45981	-0.599329	-3.71491
H	0.229292	0.671752	-4.06404
C	3387.54	-0.73424	-1.32263
C	3386.07	-0.587296	-1.45597
O	3385.52	-0.666456	-2.54729
H	3387.98	-0.906334	-2.32688
H	3387.78	-1.60001	-0.670209
H	3387.98	0.18846	-0.888376
N	3385.39	-0.360349	-0.328591
C	3383.96	-0.195761	-0.297087
C	3383.6	0.539768	0.980103
O	3384.43	0.662107	1.88555
H	3385.85	-0.268979	0.550411
H	3383.66	0.426755	-1.13012
C	3383.24	-1.55972	-0.344423
H	3383.55	-2.19604	0.5112
H	3382.13	-1.43666	-0.320476
H	3383.51	-2.08904	-1.28406
N	3382.37	1.06818	1.07297
C	3381.94	1.79574	2.24624
H	3381.72	0.96457	0.326524
H	3380.89	2.14924	2.13172
H	3382.6	2.68277	2.41592
H	3382	1.14852	3.15137
