44
  This energy is 9.09377e-320 and Call times are: 83271
C	-2.45698	2.43878	-0.376497
C	-1.58948	1.58416	0.465092
O	-1.54012	1.73333	1.67827
H	-2.9892	3.17061	0.269271
H	-3.20723	1.81638	-0.908076
H	-1.84444	2.99302	-1.11849
N	-0.870366	0.658158	-0.173474
C	0.0189944	-0.248108	0.508103
C	1.02032	-0.768172	-0.504877
O	0.834514	-0.611081	-1.71013
H	-0.897258	0.565813	-1.16528
H	0.568902	0.299647	1.26285
C	-0.755116	-1.42517	1.14246
H	-1.31864	-1.9845	0.365475
H	-0.0733513	-2.12484	1.66822
H	-1.48609	-1.03092	1.88164
N	2.1227	-1.38426	-0.0345773
C	3.13675	-1.90132	-0.923697
H	2.25832	-1.49527	0.944462
H	3.96226	-2.37323	-0.346571
H	3.56716	-1.08387	-1.54641
H	2.70561	-2.66676	-1.60882
C	3944.88	-2.58043	2.05214
C	3945.91	-1.94972	1.20142
O	3947.04	-2.41599	1.12709
H	3945.31	-3.47039	2.55819
H	3944.02	-2.90425	1.43069
H	3944.53	-1.86322	2.82399
N	3945.55	-0.853139	0.534884
C	3946.44	-0.128594	-0.332624
C	3945.9	1.27818	-0.491412
O	3944.75	1.55229	-0.142831
H	3944.63	-0.466442	0.62646
H	3947.41	-0.055072	0.143454
C	3946.56	-0.810926	-1.71365
H	3945.56	-0.885306	-2.19893
H	3947.25	-0.255707	-2.38408
H	3946.96	-1.84097	-1.58352
N	3946.72	2.21235	-1.00474
C	3946.29	3.58107	-1.18177
H	3947.65	1.97238	-1.27419
H	3947.11	4.19438	-1.61845
H	3946	4.03096	-0.205366
H	3945.42	3.63394	-1.86345
