44
  This energy is 1.14327e-319 and Call times are: 52905
C	-1.93205	-0.384737	-2.87146
C	-1.76666	0.0281685	-1.45959
O	-2.65696	0.620356	-0.8653
H	-2.93349	-0.0647157	-3.23281
H	-1.85452	-1.48891	-2.95873
H	-1.15294	0.0913094	-3.50336
N	-0.600378	-0.276084	-0.885509
C	-0.291077	0.059172	0.481518
C	1.21766	0.0526914	0.632904
O	1.93412	-0.446523	-0.232712
H	0.128081	-0.732943	-1.38906
H	-0.637699	1.06456	0.684308
C	-0.928073	-0.947391	1.46548
H	-0.570819	-1.97784	1.25417
H	-0.69203	-0.692123	2.519
H	-2.03314	-0.933955	1.34384
N	1.73793	0.630402	1.73362
C	3.1639	0.68236	1.95744
H	1.14182	1.03527	2.41915
H	3.39283	1.1953	2.91751
H	3.67083	1.23644	1.13448
H	3.59316	-0.344919	1.99761
C	2509.89	2.59234	-2.27326
C	2509.91	2.04728	-0.897114
O	2510.37	2.69321	0.0330521
H	2510.35	3.60556	-2.27302
H	2508.84	2.66996	-2.64031
H	2510.47	1.93526	-2.953
N	2509.4	0.822592	-0.737661
C	2509.35	0.158758	0.540372
C	2509.22	-1.33075	0.286786
O	2508.93	-1.75556	-0.829392
H	2509.05	0.294894	-1.50826
H	2510.28	0.32474	1.0619
C	2508.15	0.658171	1.38479
H	2507.2	0.486957	0.846493
H	2508.11	0.149186	2.36958
H	2508.26	1.75068	1.56255
N	2509.46	-2.16335	1.31901
C	2509.37	-3.5973	1.16878
H	2509.7	-1.80039	2.21276
H	2509.6	-4.10786	2.12995
H	2510.09	-3.95581	0.40015
H	2508.35	-3.89823	0.847614
