44
  This energy is 2.12843e-320 and Call times are: 86799
C	3.39042	0.585002	-0.537517
C	1.96243	0.889692	-0.780798
O	1.6268	1.86704	-1.4355
H	4.01972	1.362	-1.02344
H	3.64852	-0.406208	-0.966131
H	3.60095	0.582102	0.55272
N	1.07656	0.0473338	-0.244109
C	-0.347435	0.210816	-0.393616
C	-1.02466	-0.560157	0.722718
O	-0.395936	-1.37546	1.39489
H	1.36182	-0.728965	0.311696
H	-0.596503	1.257	-0.268985
C	-0.831953	-0.306522	-1.76647
H	-0.574213	-1.37989	-1.89125
H	-1.92796	-0.182016	-1.88498
H	-0.327697	0.265389	-2.57566
N	-2.32572	-0.302094	0.960717
C	-3.05051	-0.978883	2.01087
H	-2.81516	0.366404	0.410449
H	-4.10655	-0.631391	2.04683
H	-2.58234	-0.780524	3.00219
H	-3.04923	-2.08019	1.84262
C	4112.44	2.60485	1.08565
C	4112.11	1.51906	0.135009
O	4112.75	1.36536	-0.896165
H	4113.3	3.18927	0.692057
H	4112.72	2.17824	2.07258
H	4111.57	3.28375	1.20793
N	4111.08	0.733328	0.465186
C	4110.64	-0.364908	-0.357614
C	4109.21	-0.684168	0.0193382
O	4108.71	-0.22747	1.04745
H	4110.55	0.8868	1.29376
H	4110.65	-0.0523779	-1.39413
C	4111.53	-1.61048	-0.157399
H	4111.53	-1.92797	0.907147
H	4111.2	-2.45796	-0.789585
H	4112.58	-1.36321	-0.435786
N	4108.5	-1.46337	-0.82128
C	4107.13	-1.81063	-0.550981
H	4108.92	-1.81733	-1.65186
H	4106.72	-2.45905	-1.35758
H	4106.49	-0.894643	-0.485213
H	4107.04	-2.35818	0.415566
