44
  This energy is 2.62942e-320 and Call times are: 61767
C	-2.3873	1.41928	2.10062
C	-1.06563	0.795013	1.86673
O	-0.23087	0.728328	2.75848
H	-2.44219	1.7806	3.15052
H	-3.19596	0.677061	1.93328
H	-2.52997	2.28163	1.41583
N	-0.842376	0.321713	0.638519
C	0.394372	-0.312847	0.258234
C	0.507567	-0.245061	-1.25234
O	-0.465532	0.0515663	-1.94293
H	-1.5195	0.408158	-0.0874089
H	1.22071	0.248493	0.675535
C	0.439863	-1.78373	0.728929
H	-0.409628	-2.35651	0.299506
H	1.39088	-2.2753	0.437892
H	0.354868	-1.8198	1.83691
N	1.71194	-0.499052	-1.80096
C	1.91771	-0.4465	-3.22962
H	2.4889	-0.730305	-1.2247
H	2.97343	-0.68733	-3.48399
H	1.68552	0.569707	-3.62288
H	1.25635	-1.17717	-3.74914
C	2927.28	2.70648	1.57472
C	2928.48	1.94712	1.16542
O	2929.6	2.40259	1.33302
H	2927.59	3.67932	2.01341
H	2926.7	2.13564	2.33611
H	2926.63	2.90031	0.694347
N	2928.27	0.754511	0.604792
C	2929.33	-0.100929	0.155329
C	2928.76	-1.07137	-0.858248
O	2927.54	-1.20818	-0.978309
H	2927.34	0.407165	0.447165
H	2930.08	0.501547	-0.350902
C	2929.97	-0.87546	1.33261
H	2929.2	-1.49194	1.8501
H	2930.79	-1.535	0.990085
H	2930.38	-0.153382	2.06854
N	2929.63	-1.75525	-1.63029
C	2929.17	-2.69229	-2.6307
H	2930.61	-1.6253	-1.52284
H	2930.04	-3.15397	-3.15889
H	2928.53	-2.18083	-3.38569
H	2928.57	-3.50564	-2.16297
