44
  This energy is 1.42489e-320 and Call times are: 49125
C	2.11264	-2.75271	0.292315
C	1.45957	-1.54794	0.851974
O	1.55521	-1.2706	2.03959
H	2.64465	-3.29319	1.10516
H	2.84801	-2.46205	-0.487158
H	1.35214	-3.42928	-0.151342
N	0.764956	-0.79725	-0.0061333
C	0.0747063	0.404811	0.388116
C	-0.990584	0.692742	-0.651831
O	-0.983242	0.113353	-1.73631
H	0.670361	-1.04956	-0.965469
H	-0.425828	0.229664	1.33197
C	1.04641	1.60093	0.498532
H	1.55866	1.77738	-0.471305
H	0.518241	2.52812	0.802069
H	1.82249	1.37706	1.26255
N	-1.94949	1.58465	-0.334044
C	-3.0113	1.91339	-1.25637
H	-1.94213	2.03763	0.551388
H	-3.69856	2.66693	-0.812411
H	-3.60453	1.00571	-1.51218
H	-2.59549	2.33176	-2.20148
C	2329.46	1.32903	3.21815
C	2330.14	0.85575	1.99295
O	2331.35	0.995343	1.84711
H	2330.2	1.79496	3.89775
H	2328.98	0.476057	3.74233
H	2328.69	2.08468	2.95907
N	2329.37	0.281018	1.06808
C	2329.89	-0.229489	-0.175907
C	2328.74	-0.31631	-1.15952
O	2327.57	-0.224478	-0.774675
H	2328.38	0.199388	1.18605
H	2330.61	0.475258	-0.572889
C	2330.53	-1.62109	0.0120528
H	2329.79	-2.34141	0.420063
H	2330.93	-2.01707	-0.943843
H	2331.37	-1.5442	0.735604
N	2329.04	-0.474558	-2.46314
C	2328.01	-0.555515	-3.47328
H	2329.99	-0.53961	-2.75548
H	2328.46	-0.686958	-4.48245
H	2327.39	0.372825	-3.48191
H	2327.33	-1.41756	-3.27588
