44
  This energy is 3.47328e-321 and Call times are: 42657
C	-1.46016	0.552602	-3.11267
C	-0.466156	-0.113276	-2.24102
O	0.245785	-1.0128	-2.66586
H	-1.42362	0.0970484	-4.12608
H	-1.23039	1.63561	-3.19704
H	-2.48162	0.423043	-2.69699
N	-0.400157	0.318443	-0.979424
C	0.516523	-0.230516	-0.0123825
C	-0.0159764	0.0925838	1.37011
O	-0.909254	0.923882	1.52121
H	-1.00575	1.03208	-0.637485
H	0.532691	-1.30814	-0.115087
C	1.9352	0.356333	-0.185794
H	1.91483	1.46205	-0.0804895
H	2.64362	-0.0643324	0.557147
H	2.31348	0.113838	-1.20277
N	0.508962	-0.577859	2.4146
C	0.0561343	-0.345405	3.7663
H	1.2261	-1.25189	2.27097
H	0.609953	-0.991001	4.48305
H	-1.03109	-0.569703	3.86045
H	0.215649	0.718233	4.05683
C	2024.26	-3.45655	-0.420143
C	2024.96	-2.15289	-0.430093
O	2026.17	-2.08767	-0.582386
H	2025	-4.27329	-0.559384
H	2023.52	-3.49887	-1.24618
H	2023.74	-3.60437	0.549911
N	2024.2	-1.06915	-0.259018
C	2024.73	0.268247	-0.245253
C	2023.74	1.16251	0.467545
O	2022.59	0.775841	0.689
H	2023.21	-1.13726	-0.106823
H	2025.65	0.273412	0.329829
C	2024.98	0.788594	-1.67829
H	2024.04	0.781316	-2.26565
H	2025.4	1.81808	-1.67136
H	2025.71	0.12437	-2.19011
N	2024.16	2.37842	0.864486
C	2023.29	3.29359	1.56066
H	2025.1	2.67017	0.682255
H	2023.82	4.24036	1.80035
H	2022.93	2.84365	2.51373
H	2022.4	3.53966	0.936235
