44
  This energy is 1.42489e-320 and Call times are: 80247
C	-0.0521809	0.324181	-3.46674
C	-0.516836	0.712528	-2.11601
O	-1.25352	1.67547	-1.95308
H	-0.470778	1.03044	-4.2163
H	-0.396849	-0.703062	-3.70923
H	1.05642	0.363084	-3.51615
N	-0.0834623	-0.0387595	-1.10106
C	-0.449087	0.213451	0.269901
C	0.585054	-0.451083	1.1577
O	1.37584	-1.27164	0.69598
H	0.539802	-0.803041	-1.24372
H	-0.405693	1.2792	0.455277
C	-1.85629	-0.339671	0.58765
H	-1.89743	-1.4331	0.395734
H	-2.14104	-0.147045	1.64244
H	-2.60445	0.154128	-0.0700403
N	0.616683	-0.0930604	2.45648
C	1.57452	-0.663921	3.37454
H	-0.0269811	0.578011	2.80945
H	1.4392	-0.243894	4.39558
H	2.61536	-0.447144	3.04151
H	1.45353	-1.76995	3.43144
C	3800.04	-2.64975	-1.11958
C	3800.47	-1.23585	-1.17874
O	3800.08	-0.492067	-2.06959
H	3799.36	-2.86245	-1.97604
H	3799.49	-2.84252	-0.173073
H	3800.92	-3.32356	-1.18077
N	3801.3	-0.830497	-0.21703
C	3801.81	0.515453	-0.140136
C	3803.07	0.489051	0.701237
O	3803.35	-0.494711	1.38366
H	3801.64	-1.45373	0.486529
H	3802.09	0.845104	-1.13413
C	3800.78	1.4742	0.486681
H	3800.5	1.13267	1.50606
H	3801.17	2.51147	0.547259
H	3799.86	1.48366	-0.138274
N	3803.88	1.56838	0.654203
C	3805.11	1.62842	1.41231
H	3803.64	2.35166	0.0903476
H	3805.63	2.5968	1.24228
H	3805.8	0.804166	1.11301
H	3804.9	1.52758	2.50256
