44
  This energy is 1.54129e-319 and Call times are: 92175
C	0.495258	-3.43589	0.274839
C	-0.385757	-2.25548	0.127642
O	-1.58354	-2.38286	-0.0858801
H	-0.107983	-4.3618	0.153825
H	0.963128	-3.44087	1.28176
H	1.28922	-3.42021	-0.50126
N	0.200562	-1.06087	0.234815
C	-0.524132	0.179046	0.115393
C	0.471327	1.26896	-0.231586
O	1.6802	1.07597	-0.116628
H	1.18223	-0.97013	0.379848
H	-1.22451	0.0995062	-0.706319
C	-1.25946	0.529488	1.42825
H	-0.538058	0.609649	2.26924
H	-1.81862	1.48358	1.33974
H	-1.9848	-0.277116	1.672
N	-0.0168444	2.43924	-0.687797
C	0.855621	3.53039	-1.05436
H	-0.997976	2.57345	-0.780537
H	0.264995	4.40584	-1.40365
H	1.54547	3.22362	-1.87365
H	1.47358	3.84903	-0.183846
C	4368.78	1.32111	-2.1683
C	4367.51	1.41489	-1.42214
O	4366.87	2.45713	-1.39146
H	4369.01	2.30398	-2.6367
H	4368.7	0.552667	-2.96583
H	4369.61	1.05392	-1.47881
N	4367.11	0.309359	-0.789128
C	4365.89	0.244648	-0.0222724
C	4366.01	-0.916483	0.945548
O	4366.9	-1.75715	0.812036
H	4367.65	-0.525005	-0.797648
H	4365.79	1.15106	0.561793
C	4364.66	0.0496603	-0.936364
H	4364.76	-0.88076	-1.53458
H	4363.72	-0.000437029	-0.349135
H	4364.58	0.906082	-1.6413
N	4365.13	-0.977201	1.96136
C	4365.17	-2.03982	2.93864
H	4364.42	-0.283376	2.05638
H	4364.36	-1.91525	3.6918
H	4366.15	-2.04261	3.4721
H	4365.04	-3.03141	2.44717
