44
  This energy is 6.14766e-320 and Call times are: 9225
C	-2.87006	1.94771	0.308672
C	-2.17743	0.707003	-0.106173
O	-2.80457	-0.263448	-0.507935
H	-3.96736	1.81204	0.192919
H	-2.54422	2.79834	-0.326214
H	-2.64612	2.17383	1.37247
N	-0.845826	0.710827	-0.0102904
C	-0.0325577	-0.421171	-0.376353
C	1.30476	-0.280102	0.324298
O	1.63264	0.784671	0.844473
H	-0.348426	1.49732	0.346016
H	-0.502238	-1.3251	-0.00976065
C	0.17406	-0.494254	-1.90576
H	0.655479	0.434926	-2.27856
H	0.799719	-1.36483	-2.19111
H	-0.812915	-0.596262	-2.40738
N	2.10262	-1.36503	0.37268
C	3.38884	-1.32845	1.02881
H	1.81631	-2.21959	-0.0480327
H	3.89388	-2.31708	0.959545
H	3.27312	-1.06871	2.10602
H	4.04853	-0.563896	0.558241
C	444.104	3.44132	0.436774
C	443.288	2.21514	0.289292
O	442.075	2.24107	0.440412
H	443.441	4.29528	0.694479
H	444.629	3.66844	-0.515023
H	444.851	3.30895	1.24775
N	443.95	1.09461	-0.00855316
C	443.295	-0.176956	-0.184049
C	444.332	-1.26608	0.0110955
O	445.532	-0.99748	0.0197744
H	444.942	1.08077	-0.100424
H	442.544	-0.295426	0.587032
C	442.66	-0.293485	-1.58763
H	443.433	-0.170801	-2.37624
H	442.155	-1.27132	-1.72609
H	441.903	0.51048	-1.71851
N	443.889	-2.52534	0.195006
C	444.802	-3.62536	0.400572
H	442.914	-2.72128	0.191795
H	444.245	-4.57955	0.530433
H	445.423	-3.45556	1.30963
H	445.488	-3.7351	-0.470659
