44
  This energy is 1.06353e-319 and Call times are: 64875
C	-2.73056	-1.52208	1.53409
C	-1.99022	-1.08801	0.327988
O	-2.36158	-1.41009	-0.792214
H	-3.59961	-2.14392	1.2276
H	-3.10109	-0.637991	2.09436
H	-2.07055	-2.12609	2.19174
N	-0.904642	-0.33927	0.536024
C	-0.0815005	0.159063	-0.53679
C	1.28173	0.491708	0.0378376
O	1.45084	0.563898	1.25358
H	-0.595896	-0.107935	1.45477
H	0.0533332	-0.625557	-1.27046
C	-0.704525	1.41435	-1.18733
H	-0.842066	2.21702	-0.431731
H	-0.0733437	1.8006	-2.01389
H	-1.70315	1.15777	-1.60333
N	2.29603	0.681517	-0.828855
C	3.63138	0.990539	-0.373294
H	2.14057	0.611746	-1.80875
H	4.32298	1.11178	-1.23599
H	4.02278	0.175627	0.277833
H	3.63669	1.93598	0.216025
C	3077.89	-2.62056	2.01839
C	3078.13	-1.35914	1.2816
O	3079.19	-0.757737	1.38446
H	3078.79	-2.86755	2.62492
H	3077.7	-3.44982	1.30522
H	3077.02	-2.5084	2.6967
N	3077.13	-0.921942	0.513924
C	3077.21	0.288821	-0.263308
C	3075.8	0.743597	-0.56865
O	3074.84	-0.0107473	-0.392299
H	3076.26	-1.40554	0.461207
H	3077.68	1.05893	0.333944
C	3077.99	0.0617508	-1.57725
H	3077.5	-0.72936	-2.18718
H	3078.06	0.992066	-2.17808
H	3079.02	-0.272185	-1.33995
N	3075.63	2.00356	-1.01597
C	3074.32	2.52795	-1.3216
H	3076.41	2.60093	-1.14537
H	3074.39	3.57973	-1.67667
H	3073.66	2.50566	-0.418768
H	3073.83	1.9213	-2.117
