44
  This energy is 6.76573e-320 and Call times are: 101583
C	-0.0551425	-0.185805	3.47686
C	-0.212582	-0.797382	2.13806
O	-0.38992	-2.00091	2.00931
H	-0.119738	-0.979138	4.25295
H	-0.860446	0.557552	3.65498
H	0.933115	0.314301	3.55551
N	-0.143983	0.0330647	1.09498
C	-0.278786	-0.41236	-0.268932
C	0.35203	0.635119	-1.16565
O	0.630761	1.75048	-0.72962
H	0.0299474	1.00729	1.21143
H	0.278089	-1.33213	-0.39537
C	-1.7622	-0.614771	-0.650553
H	-2.33066	0.330571	-0.519026
H	-1.86962	-0.957885	-1.70008
H	-2.21307	-1.38346	0.0142635
N	0.612739	0.290325	-2.44203
C	1.22292	1.21799	-3.36577
H	0.386297	-0.619498	-2.77396
H	1.35374	0.748553	-4.36565
H	2.22343	1.53975	-2.99605
H	0.590231	2.12717	-3.48526
C	4807.59	-0.661141	-0.254862
C	4809.01	-1.07643	-0.35405
O	4809.31	-2.2437	-0.557311
H	4806.94	-1.55108	-0.38485
H	4807.35	0.0785479	-1.04789
H	4807.39	-0.211866	0.74097
N	4809.92	-0.113094	-0.204086
C	4811.34	-0.361256	-0.274655
C	4812.05	0.776872	0.434269
O	4811.44	1.81095	0.719069
H	4809.66	0.829033	-0.00991581
H	4811.56	-1.27391	0.262625
C	4811.82	-0.45662	-1.73943
H	4811.59	0.481055	-2.28784
H	4812.91	-0.647806	-1.79742
H	4811.29	-1.29319	-2.24802
N	4813.34	0.602286	0.756338
C	4814.1	1.62627	1.44285
H	4813.81	-0.244539	0.523614
H	4815.14	1.29479	1.61634
H	4813.63	1.85847	2.42965
H	4814.12	2.56501	0.843376
