44
  This energy is 2.60817e-320 and Call times are: 55677
C	-2.16367	-2.65421	0.632296
C	-1.61786	-1.31561	0.950787
O	-2.12406	-0.61586	1.81716
H	-3.04411	-2.85559	1.28048
H	-1.39555	-3.43441	0.816964
H	-2.48302	-2.69454	-0.430408
N	-0.558176	-0.922833	0.240046
C	0.0843243	0.352396	0.434504
C	0.862964	0.678678	-0.825058
O	1.07741	-0.185452	-1.67307
H	-0.172863	-1.48992	-0.483056
H	-0.675245	1.11386	0.558196
C	1.03334	0.324056	1.65339
H	1.81088	-0.458666	1.52347
H	1.52961	1.30445	1.8061
H	0.451087	0.0828481	2.56934
N	1.28747	1.94743	-0.986489
C	2.02594	2.35369	-2.15944
H	1.09776	2.63389	-0.29222
H	2.28661	3.43368	-2.1055
H	1.42354	2.18417	-3.08119
H	2.96992	1.76924	-2.25157
C	2637.8	2.87079	1.004
C	2638.45	1.56883	1.29549
O	2638.6	1.1853	2.44628
H	2637.53	3.36999	1.96019
H	2636.88	2.7173	0.406644
H	2638.5	3.52459	0.44154
N	2638.84	0.852538	0.240132
C	2639.48	-0.433534	0.36284
C	2640.23	-0.702588	-0.923326
O	2640.03	-0.0212829	-1.9265
H	2638.73	1.18902	-0.691526
H	2640.2	-0.391961	1.16743
C	2638.44	-1.55332	0.614936
H	2637.7	-1.59271	-0.212034
H	2638.93	-2.54492	0.710071
H	2637.9	-1.34395	1.55919
N	2641.15	-1.69496	-0.916299
C	2641.92	-2.01571	-2.09095
H	2641.3	-2.23025	-0.0924862
H	2642.62	-2.86146	-1.88548
H	2642.53	-1.13764	-2.41363
H	2641.26	-2.3052	-2.93574
