44
  This energy is 1.02657e-319 and Call times are: 64707
C	0.406315	-1.05717	3.29294
C	0.04704	-1.31061	1.87947
O	-0.191517	-2.44218	1.48056
H	0.416729	-2.02051	3.84766
H	-0.338918	-0.380626	3.7617
H	1.41441	-0.595819	3.35494
N	0.00606163	-0.243974	1.07761
C	-0.327879	-0.330367	-0.321622
C	0.215765	0.907788	-1.00767
O	0.592735	1.87622	-0.3505
H	0.230896	0.668842	1.40799
H	0.171633	-1.18997	-0.750153
C	-1.85575	-0.425833	-0.53042
H	-2.36508	0.457264	-0.0890123
H	-2.11639	-0.49265	-1.6067
H	-2.24186	-1.33619	-0.0221675
N	0.289048	0.89559	-2.35321
C	0.80408	2.02469	-3.09217
H	-0.0143423	0.0996241	-2.86666
H	0.781242	1.82245	-4.18571
H	1.85672	2.23997	-2.79748
H	0.195996	2.93632	-2.89134
C	3071.88	-1.07268	1.22867
C	3070.64	-1.29109	0.44376
O	3070.5	-2.29066	-0.246975
H	3072.57	-1.92338	1.06214
H	3071.64	-1.01134	2.31101
H	3072.37	-0.133365	0.906766
N	3069.71	-0.340496	0.530559
C	3068.45	-0.410923	-0.17389
C	3067.89	0.995685	-0.27469
O	3068.36	1.90665	0.407344
H	3069.85	0.483097	1.07376
H	3068.63	-0.765996	-1.18051
C	3067.45	-1.32923	0.557276
H	3067.26	-0.962427	1.58984
H	3066.48	-1.38584	0.0174688
H	3067.87	-2.35622	0.625646
N	3066.89	1.20982	-1.14989
C	3066.31	2.51886	-1.32279
H	3066.53	0.461139	-1.69792
H	3065.5	2.49001	-2.08499
H	3067.08	3.25237	-1.65633
H	3065.87	2.88523	-0.364208
