44
  This energy is 4.00984e-320 and Call times are: 100491
C	1.24184	2.07891	-2.50242
C	1.31763	0.859599	-1.66651
O	2.15487	-0.00539006	-1.88401
H	2.02529	2.03367	-3.28984
H	1.41116	2.98161	-1.8785
H	0.246355	2.14796	-2.98944
N	0.424739	0.761279	-0.678862
C	0.372862	-0.365017	0.218687
C	-1.01253	-0.407302	0.83362
O	-1.77145	0.555568	0.740058
H	-0.270946	1.45901	-0.530083
H	0.507727	-1.27558	-0.351192
C	1.44292	-0.250583	1.32729
H	1.30201	0.684981	1.90951
H	1.40587	-1.11628	2.02008
H	2.45306	-0.219325	0.863835
N	-1.38325	-1.54037	1.46189
C	-2.68759	-1.67673	2.06709
H	-0.75742	-2.31116	1.52076
H	-2.80111	-2.67943	2.53502
H	-3.48971	-1.55334	1.30379
H	-2.83837	-0.90315	2.85451
C	4757.31	2.46248	1.78613
C	4757.35	1.39241	0.764196
O	4756.33	1.00158	0.214642
H	4756.25	2.78993	1.93138
H	4757.91	3.33267	1.4543
H	4757.7	2.08493	2.75253
N	4758.55	0.883715	0.488043
C	4758.75	-0.162004	-0.482696
C	4760.08	-0.835461	-0.17308
O	4760.88	-0.316088	0.598271
H	4759.37	1.19031	0.963582
H	4757.97	-0.903214	-0.369415
C	4758.77	0.401128	-1.92137
H	4759.57	1.16169	-2.03386
H	4758.92	-0.401424	-2.67138
H	4757.79	0.892838	-2.13537
N	4760.32	-2.02574	-0.754774
C	4761.55	-2.74648	-0.509922
H	4759.66	-2.43296	-1.37039
H	4761.57	-3.70149	-1.07996
H	4761.66	-2.98318	0.573463
H	4762.43	-2.13883	-0.819375
