44
  This energy is 3.6215e-321 and Call times are: 25101
C	-0.986289	3.33599	-0.156668
C	-0.50157	2.15588	0.594064
O	-0.158787	2.24798	1.76475
H	-0.964343	4.22775	0.506766
H	-2.02891	3.16916	-0.500064
H	-0.333974	3.52538	-1.03505
N	-0.456729	1.00307	-0.0777861
C	-0.00850612	-0.230976	0.516396
C	0.403783	-1.16508	-0.604634
O	0.0945049	-0.923532	-1.7699
H	-0.711115	0.946924	-1.03959
H	0.868818	-0.0330458	1.11906
C	-1.12114	-0.881869	1.36816
H	-2.0199	-1.08294	0.746925
H	-0.779331	-1.83221	1.82727
H	-1.41509	-0.187257	2.18501
N	1.13492	-2.24897	-0.278095
C	1.58284	-3.18809	-1.27989
H	1.38112	-2.4232	0.66967
H	2.16756	-4.01144	-0.813573
H	2.22973	-2.6813	-2.03218
H	0.714462	-3.63473	-1.81618
C	1192.63	1.40847	2.12449
C	1193.37	1.36847	0.842158
O	1193.06	2.10193	-0.087573
H	1191.82	2.16584	2.05781
H	1193.31	1.68792	2.95208
H	1192.18	0.416523	2.3376
N	1194.37	0.490872	0.762511
C	1195.18	0.335388	-0.418828
C	1195.83	-1.03332	-0.361005
O	1195.83	-1.68474	0.681818
H	1194.59	-0.121522	1.51673
H	1194.54	0.358517	-1.29097
C	1196.26	1.43432	-0.506901
H	1196.92	1.40815	0.389694
H	1196.89	1.31768	-1.41544
H	1195.77	2.43203	-0.547454
N	1196.38	-1.51201	-1.49382
C	1197.01	-2.8106	-1.53713
H	1196.36	-0.972679	-2.3293
H	1197.4	-3.02281	-2.55561
H	1196.28	-3.61019	-1.26912
H	1197.86	-2.85993	-0.816164
