44
  This energy is 1.83792e-321 and Call times are: 36693
C	-3.18448	1.20882	0.723848
C	-2.14927	0.152275	0.780872
O	-2.3151	-0.860494	1.44667
H	-4.04799	0.911535	1.35775
H	-3.53545	1.34455	-0.320766
H	-2.77369	2.16819	1.10305
N	-1.03731	0.372912	0.0757324
C	0.0586687	-0.561821	0.0316659
C	1.30102	0.19656	-0.39339
O	1.21518	1.32635	-0.870923
H	-0.901974	1.21512	-0.439348
H	0.23316	-0.946697	1.02841
C	-0.224538	-1.71448	-0.957421
H	-0.403743	-1.31603	-1.97881
H	0.617281	-2.43614	-0.993713
H	-1.13752	-2.26137	-0.635673
N	2.49348	-0.403143	-0.207975
C	3.73093	0.247076	-0.571472
H	2.54249	-1.31482	0.18657
H	4.60086	-0.407484	-0.343402
H	3.8533	1.20115	-0.00933231
H	3.74575	0.483427	-1.66009
C	1739.48	-2.31035	2.18181
C	1740.31	-1.11968	1.9115
O	1740.76	-0.437423	2.82505
H	1739.35	-2.42813	3.27988
H	1739.96	-3.22142	1.77699
H	1738.48	-2.18934	1.7149
N	1740.55	-0.837408	0.627519
C	1741.34	0.287696	0.206303
C	1740.97	0.606851	-1.22976
O	1740.32	-0.190304	-1.90459
H	1740.15	-1.38407	-0.108244
H	1741.08	1.1477	0.81094
C	1742.85	-0.0205912	0.312218
H	1743.11	-0.90379	-0.308747
H	1743.47	0.843677	-0.0112075
H	1743.11	-0.253892	1.36867
N	1741.36	1.79773	-1.72507
C	1741.05	2.1932	-3.07814
H	1741.88	2.4321	-1.16087
H	1741.46	3.20413	-3.29751
H	1739.95	2.21995	-3.23323
H	1741.48	1.47317	-3.80911
