44
  This energy is 3.62743e-320 and Call times are: 68739
C	2.24777	2.64901	-0.237532
C	1.22824	1.86921	0.499807
O	0.975131	2.10826	1.67253
H	2.68838	3.41158	0.440854
H	1.78237	3.16466	-1.10375
H	3.05615	1.97836	-0.597672
N	0.615504	0.899185	-0.182821
C	-0.398773	0.0557591	0.39744
C	-0.486517	-1.20806	-0.435813
O	0.0429354	-1.26842	-1.54391
H	0.851269	0.695156	-1.12925
H	-0.0908985	-0.229016	1.39553
C	-1.77017	0.766594	0.430497
H	-2.08264	1.05794	-0.594977
H	-2.55344	0.120023	0.876836
H	-1.69227	1.69128	1.04289
N	-1.14317	-2.26009	0.0914636
C	-1.26773	-3.50873	-0.623777
H	-1.5587	-2.19383	0.992676
H	-1.84305	-4.24905	-0.0252867
H	-0.263252	-3.93872	-0.841434
H	-1.79513	-3.35556	-1.59309
C	3262.86	2.37221	-0.672826
C	3262.08	1.17018	-1.0371
O	3262.18	0.661934	-2.14534
H	3263.48	2.67979	-1.53923
H	3263.52	2.14936	0.1884
H	3262.18	3.20738	-0.406943
N	3261.26	0.685973	-0.0968855
C	3260.44	-0.477402	-0.301554
C	3259.31	-0.431531	0.709915
O	3259.35	0.338931	1.66711
H	3261.17	1.12616	0.792093
H	3259.99	-0.426666	-1.28902
C	3261.25	-1.78056	-0.132158
H	3261.7	-1.82901	0.881718
H	3260.62	-2.67831	-0.289228
H	3262.07	-1.80145	-0.87792
N	3258.25	-1.24587	0.507275
C	3257.13	-1.26261	1.4111
H	3258.23	-1.85698	-0.277174
H	3256.36	-1.99885	1.07491
H	3256.65	-0.258215	1.4597
H	3257.45	-1.53989	2.43985
