44
  This energy is 4.9866e-320 and Call times are: 87975
C	1.26159	3.21607	0.437501
C	1.23684	1.91156	-0.26167
O	1.89357	1.72543	-1.27684
H	1.93124	3.91391	-0.110634
H	1.6446	3.08855	1.47184
H	0.240546	3.651	0.472739
N	0.460029	0.966696	0.273268
C	0.332197	-0.352713	-0.292107
C	-0.961494	-0.95563	0.219841
O	-1.5617	-0.446527	1.16451
H	-0.0927183	1.13985	1.08408
H	0.252353	-0.26807	-1.36846
C	1.52767	-1.25022	0.0983177
H	1.60702	-1.33433	1.20319
H	1.43252	-2.26685	-0.335482
H	2.46928	-0.79707	-0.281397
N	-1.43409	-2.04892	-0.41053
C	-2.66456	-2.68469	-0.000741725
H	-0.937537	-2.44177	-1.17756
H	-2.88266	-3.56821	-0.640325
H	-3.51929	-1.97456	-0.0807422
H	-2.59715	-3.02597	1.05764
C	4169.22	-0.0292692	-2.0483
C	4168.08	-0.711678	-1.38241
O	4167.82	-1.88159	-1.62372
H	4169.71	-0.738136	-2.74541
H	4169.96	0.310454	-1.29302
H	4168.85	0.845402	-2.62597
N	4167.37	0.0200053	-0.519405
C	4166.25	-0.503674	0.206046
C	4165.4	0.669304	0.65646
O	4165.84	1.81673	0.613156
H	4167.58	0.980465	-0.353212
H	4165.65	-1.1058	-0.464265
C	4166.7	-1.33288	1.42883
H	4167.31	-0.712284	2.11404
H	4165.83	-1.73774	1.98961
H	4167.32	-2.18824	1.08562
N	4164.14	0.408262	1.08139
C	4163.26	1.46284	1.5182
H	4163.8	-0.526222	1.10225
H	4162.28	1.04693	1.83067
H	4163.09	2.19494	0.696676
H	4163.7	2.01181	2.38244
