44
  This energy is 1.48239e-319 and Call times are: 104859
C	-0.642317	0.0921512	-3.42127
C	-0.688757	-0.585419	-2.10599
O	-1.2898	-1.6407	-1.95896
H	-1.21877	-0.503673	-4.16192
H	0.408276	0.179403	-3.76978
H	-1.09191	1.10468	-3.34643
N	-0.0484414	0.0209199	-1.10364
C	-0.0035045	-0.515459	0.233188
C	0.32202	0.622436	1.18106
O	0.740393	1.69664	0.753404
H	0.413001	0.895107	-1.22936
H	-0.98462	-0.89103	0.494786
C	1.05916	-1.6302	0.356577
H	2.06433	-1.24162	0.0868433
H	1.09631	-2.04553	1.38463
H	0.810006	-2.45717	-0.343554
N	0.115293	0.418391	2.49698
C	0.385564	1.44826	3.47294
H	-0.230563	-0.45543	2.82264
H	0.15407	1.08775	4.49944
H	-0.232998	2.35267	3.2713
H	1.45779	1.74902	3.44035
C	4964.31	1.75312	-1.35371
C	4965.58	0.997856	-1.49501
O	4966.01	0.68151	-2.5964
H	4963.88	1.94115	-2.36148
H	4964.5	2.72757	-0.856426
H	4963.58	1.16871	-0.754838
N	4966.21	0.682831	-0.362149
C	4967.45	-0.049115	-0.33724
C	4967.6	-0.666865	1.0395
O	4966.89	-0.303622	1.97213
H	4965.84	0.92093	0.530251
H	4967.4	-0.856808	-1.05617
C	4968.65	0.872573	-0.639005
H	4968.71	1.70042	0.10002
H	4969.61	0.312161	-0.620774
H	4968.53	1.31975	-1.64963
N	4968.52	-1.63659	1.19292
C	4968.73	-2.29069	2.46432
H	4969.09	-1.92155	0.4243
H	4969.53	-3.0568	2.38769
H	4967.79	-2.79481	2.80171
H	4969.02	-1.55122	3.24395
