44
  This energy is 1.03981e-319 and Call times are: 122121
C	-0.287317	-3.44918	0.383094
C	0.478478	-2.18695	0.490532
O	1.57161	-2.15501	1.03874
H	0.287182	-4.26952	0.865634
H	-0.453305	-3.70628	-0.684224
H	-1.26729	-3.34721	0.895154
N	-0.092322	-1.10048	-0.034957
C	0.529403	0.199363	-0.00862448
C	-0.557982	1.23977	-0.194064
O	-1.67911	0.915219	-0.580803
H	-0.996196	-1.13375	-0.453097
H	0.973142	0.357474	0.966142
C	1.59202	0.337284	-1.1217
H	1.13351	0.173822	-2.12028
H	2.07284	1.33693	-1.1042
H	2.3822	-0.431044	-0.975272
N	-0.255441	2.5195	0.100476
C	-1.23038	3.57665	-0.0340928
H	0.655358	2.76096	0.418874
H	-0.790053	4.55667	0.25388
H	-2.11223	3.38326	0.61873
H	-1.58905	3.64896	-1.08638
C	5786.56	-0.898226	-0.112118
C	5785.19	-0.904078	-0.676781
O	5784.97	-1.36572	-1.78727
H	5787.26	-1.35084	-0.845738
H	5786.59	-1.49117	0.826169
H	5786.89	0.143082	0.0988357
N	5784.24	-0.376531	0.0874786
C	5782.86	-0.310554	-0.324004
C	5782.18	0.767873	0.496889
O	5782.72	1.23011	1.49933
H	5784.44	0.0227652	0.978244
H	5782.81	-0.00944386	-1.36301
C	5782.14	-1.66503	-0.117375
H	5782.19	-1.97123	0.949473
H	5781.08	-1.61781	-0.433345
H	5782.65	-2.44671	-0.72299
N	5780.97	1.21085	0.0749731
C	5780.26	2.24379	0.785918
H	5780.56	0.829221	-0.742646
H	5779.29	2.46829	0.283873
H	5780.86	3.18168	0.826336
H	5780.04	1.92526	1.8319
