44
  This energy is 1.39934e-319 and Call times are: 12207
C	-0.295826	-2.09741	2.76396
C	-0.885957	-1.23763	1.71337
O	-2.09719	-1.17498	1.55377
H	-1.11014	-2.62121	3.31021
H	0.280829	-1.47995	3.4844
H	0.375229	-2.85473	2.3067
N	-0.0265199	-0.549659	0.95811
C	-0.448502	0.329019	-0.103344
C	0.723392	0.515621	-1.04732
O	1.85758	0.1752	-0.716301
H	0.959187	-0.631603	1.07895
H	-1.24577	-0.148081	-0.659048
C	-0.909327	1.69666	0.448306
H	-0.0892182	2.18301	1.01839
H	-1.23507	2.37564	-0.366339
H	-1.7673	1.54617	1.13924
N	0.470543	1.0443	-2.26081
C	1.52172	1.24813	-3.23017
H	-0.455172	1.30681	-2.51255
H	1.11429	1.69415	-4.16414
H	2.0112	0.281107	-3.4881
H	2.30192	1.93294	-2.8258
C	589.114	1.07053	0.0116334
C	587.942	0.455172	0.675273
O	588.038	-0.0541279	1.78338
H	590.004	0.970457	0.670362
H	588.925	2.14849	-0.175734
H	589.32	0.558866	-0.951909
N	586.793	0.484791	-0.00328667
C	585.567	-0.0725972	0.510529
C	584.646	-0.335487	-0.664953
O	584.884	0.147098	-1.77046
H	586.734	0.876708	-0.917555
H	585.783	-1.02459	0.978851
C	584.889	0.888199	1.51247
H	584.67	1.86405	1.02891
H	583.945	0.462056	1.91017
H	585.574	1.07366	2.36814
N	583.578	-1.12999	-0.456509
C	582.652	-1.44578	-1.51933
H	583.406	-1.51674	0.443589
H	581.841	-2.11044	-1.14941
H	583.176	-1.96377	-2.35531
H	582.188	-0.517787	-1.92493
