44
  This energy is 6.33244e-320 and Call times are: 101415
C	2.27279	1.11628	-2.39049
C	1.54905	0.03236	-1.6887
O	1.62783	-1.12855	-2.06628
H	2.83593	0.686981	-3.24749
H	2.98965	1.60754	-1.6994
H	1.554	1.87052	-2.77442
N	0.81108	0.396031	-0.637268
C	0.0504105	-0.544135	0.146502
C	-1.02999	0.226958	0.879567
O	-0.988005	1.45371	0.951283
H	0.731814	1.34905	-0.357242
H	-0.438936	-1.24309	-0.519886
C	0.94914	-1.29071	1.15745
H	1.45011	-0.570617	1.83908
H	0.366644	-2.01554	1.76251
H	1.73707	-1.85059	0.608049
N	-2.04036	-0.478277	1.42527
C	-3.11974	0.17109	2.132
H	-2.06012	-1.46985	1.3503
H	-3.85072	-0.578337	2.50786
H	-3.65782	0.87997	1.46178
H	-2.72945	0.747268	3.00198
C	4805.26	-1.95352	-1.78561
C	4804.94	-0.786035	-0.93521
O	4805.82	-0.0709523	-0.479824
H	4806.37	-2.03043	-1.89896
H	4804.81	-1.83353	-2.7904
H	4804.88	-2.88586	-1.31648
N	4803.64	-0.568791	-0.69474
C	4803.17	0.526769	0.113946
C	4801.78	0.182131	0.597003
O	4801.15	-0.746779	0.0927202
H	4802.94	-1.17552	-1.04748
H	4803.81	0.620411	0.985116
C	4803.15	1.84719	-0.687874
H	4802.49	1.74736	-1.58123
H	4802.78	2.69288	-0.0681436
H	4804.17	2.08789	-1.03706
N	4801.27	0.914016	1.60685
C	4799.95	0.651053	2.14052
H	4801.79	1.65698	2.00642
H	4799.71	1.35999	2.9635
H	4799.89	-0.386181	2.54262
H	4799.18	0.759865	1.34733
