44
  This energy is 1.26594e-319 and Call times are: 84657
C	3.09079	-1.60305	-0.0580382
C	1.63068	-1.58204	-0.300579
O	1.07201	-2.50465	-0.877798
H	3.51949	-2.53871	-0.478296
H	3.29798	-1.57092	1.03231
H	3.57342	-0.733268	-0.551485
N	0.972117	-0.50671	0.137971
C	-0.450378	-0.341606	-0.0235098
C	-0.764111	1.13722	0.0942591
O	0.0704736	1.92345	0.538269
H	1.44305	0.251568	0.58089
H	-0.730567	-0.658974	-1.01993
C	-1.23382	-1.13757	1.04409
H	-0.943436	-0.809913	2.06509
H	-2.32946	-1.01279	0.922577
H	-0.994425	-2.21905	0.948022
N	-1.97527	1.55453	-0.324024
C	-2.3583	2.94577	-0.261368
H	-2.63421	0.903872	-0.686896
H	-3.39116	3.08713	-0.649274
H	-1.66646	3.57155	-0.870461
H	-2.3244	3.31588	0.788895
C	4013.47	3.15683	-0.0482218
C	4012.82	2.03356	0.665522
O	4012.74	2.02045	1.8863
H	4013.84	3.90019	0.692707
H	4012.74	3.65212	-0.723868
H	4014.33	2.78656	-0.64231
N	4012.34	1.0474	-0.0943743
C	4011.68	-0.111848	0.453942
C	4011.74	-1.21577	-0.583859
O	4012.05	-0.96843	-1.74752
H	4012.43	1.05578	-1.08624
H	4012.23	-0.448685	1.3244
C	4010.21	0.195126	0.819126
H	4009.65	0.541046	-0.0760003
H	4009.7	-0.695298	1.24176
H	4010.18	1.00607	1.57913
N	4011.46	-2.47065	-0.178289
C	4011.51	-3.58737	-1.09331
H	4011.22	-2.65144	0.769227
H	4011.25	-4.5342	-0.570764
H	4012.53	-3.69725	-1.5313
H	4010.79	-3.43859	-1.92936
