44
  This energy is 8.44358e-321 and Call times are: 13299
C	-2.10852	0.270544	2.75809
C	-0.840007	-0.157409	2.12648
O	0.0793991	-0.608062	2.79588
H	-2.04266	0.114577	3.85682
H	-2.95493	-0.327934	2.3603
H	-2.29151	1.34736	2.55827
N	-0.760685	-0.0174075	0.80116
C	0.407984	-0.389438	0.0444347
C	0.367245	0.358962	-1.2737
O	-0.661133	0.920772	-1.64604
H	-1.50563	0.378132	0.270554
H	1.29154	-0.0653189	0.579548
C	0.451582	-1.91265	-0.210601
H	-0.456633	-2.24183	-0.759143
H	1.35027	-2.20258	-0.792907
H	0.479973	-2.44946	0.762628
N	1.49935	0.401844	-2.00342
C	1.55856	1.101	-3.2659
H	2.3232	-0.0530477	-1.68159
H	2.57366	1.01948	-3.71333
H	1.32185	2.18095	-3.12841
H	0.822714	0.675208	-3.98591
C	634.118	-0.100216	3.41329
C	634.952	0.318728	2.26443
O	635.89	1.08925	2.41192
H	634.49	0.393761	4.33699
H	634.175	-1.20104	3.54641
H	633.061	0.19724	3.24768
N	634.617	-0.184474	1.07396
C	635.334	0.129303	-0.13653
C	634.417	-0.160985	-1.30893
O	633.388	-0.815784	-1.15497
H	633.833	-0.788337	0.962148
H	635.557	1.18846	-0.148403
C	636.629	-0.704423	-0.255832
H	636.396	-1.79048	-0.242653
H	637.183	-0.465204	-1.18671
H	637.291	-0.483626	0.609389
N	634.761	0.341655	-2.51097
C	633.943	0.126875	-3.68204
H	635.594	0.875056	-2.6137
H	634.395	0.617215	-4.57241
H	632.923	0.546816	-3.53083
H	633.841	-0.961737	-3.8955
