44
  This energy is 7.2346e-320 and Call times are: 82515
C	-1.78043	-2.49544	-1.65196
C	-1.3213	-1.09443	-1.51944
O	-1.5381	-0.271896	-2.39861
H	-2.30238	-2.62036	-2.62552
H	-2.4853	-2.74626	-0.831557
H	-0.912776	-3.18752	-1.61794
N	-0.660412	-0.790349	-0.40001
C	-0.151822	0.530066	-0.126755
C	0.945474	0.400996	0.911763
O	1.08913	-0.641153	1.54825
H	-0.464709	-1.47639	0.295682
H	0.294379	0.928924	-1.02891
C	-1.26645	1.46604	0.391585
H	-1.72246	1.0535	1.31677
H	-0.878312	2.48363	0.602848
H	-2.06462	1.5513	-0.377702
N	1.76318	1.45692	1.0917
C	2.84332	1.42152	2.04993
H	1.6351	2.28882	0.56181
H	3.39944	2.38483	2.0514
H	3.55931	0.603873	1.80484
H	2.4517	1.24109	3.07719
C	3908.28	2.94452	-0.715154
C	3908.63	1.83014	0.194083
O	3908.26	1.82521	1.36021
H	3907.68	3.69647	-0.159757
H	3907.69	2.56658	-1.57077
H	3909.21	3.43216	-1.09596
N	3909.37	0.848281	-0.328341
C	3909.79	-0.302646	0.430622
C	3910.99	-0.910208	-0.269624
O	3911.28	-0.579527	-1.41732
H	3909.69	0.878048	-1.27176
H	3910.11	0.0213635	1.41238
C	3908.66	-1.34608	0.543441
H	3908.33	-1.67578	-0.465542
H	3908.98	-2.23353	1.12736
H	3907.79	-0.888374	1.05704
N	3911.73	-1.80249	0.418117
C	3912.9	-2.42408	-0.162769
H	3911.48	-2.05167	1.34838
H	3913.37	-3.1282	0.558383
H	3913.65	-1.65513	-0.445236
H	3912.63	-2.99301	-1.08077
