44
  This energy is 1.0196e-319 and Call times are: 52443
C	3.16792	1.38604	0.411476
C	2.0576	0.518808	0.865688
O	2.18209	-0.209685	1.84052
H	4.04581	1.23764	1.07717
H	2.86184	2.45255	0.452789
H	3.45706	1.12479	-0.628278
N	0.93062	0.575826	0.15223
C	-0.236256	-0.207841	0.470183
C	-1.09	-0.300437	-0.779531
O	-0.879514	0.436965	-1.74066
H	0.851467	1.15162	-0.657171
H	0.0744166	-1.21149	0.731423
C	-1.04612	0.430456	1.62076
H	-1.36265	1.46022	1.34965
H	-1.94522	-0.170494	1.86824
H	-0.409297	0.4937	2.52993
N	-2.06552	-1.22986	-0.802687
C	-2.92074	-1.39913	-1.95426
H	-2.21545	-1.8219	-0.0176761
H	-3.66038	-2.21117	-1.77883
H	-2.31962	-1.66117	-2.85494
H	-3.47726	-0.458922	-2.17217
C	2490.77	-0.856507	-0.233943
C	2489.65	-0.113491	0.398539
O	2489.83	0.52906	1.42534
H	2491.69	-0.720553	0.370871
H	2490.95	-0.472114	-1.25947
H	2490.53	-1.93923	-0.282883
N	2488.47	-0.192003	-0.209031
C	2487.29	0.47596	0.285601
C	2486.08	-0.221788	-0.299964
O	2486.2	-1.00719	-1.23846
H	2488.33	-0.742426	-1.0289
H	2487.25	0.362652	1.36142
C	2487.28	1.97021	-0.107209
H	2487.33	2.08278	-1.21149
H	2486.38	2.4876	0.2722
H	2488.18	2.4697	0.326783
N	2484.88	0.0343254	0.258819
C	2483.67	-0.592836	-0.224213
H	2484.8	0.667523	1.02217
H	2482.79	-0.25282	0.362943
H	2483.74	-1.70135	-0.138757
H	2483.5	-0.339592	-1.29522
