44
  This energy is 1.27395e-319 and Call times are: 17751
C	1.88243	2.33187	-1.77341
C	1.7669	1.21495	-0.808864
O	2.76127	0.66405	-0.356945
H	2.95687	2.53085	-1.97796
H	1.4207	3.24987	-1.3528
H	1.37789	2.06819	-2.72675
N	0.528233	0.847688	-0.472439
C	0.254477	-0.221603	0.454115
C	-1.16288	-0.700552	0.207266
O	-1.94108	-0.036273	-0.474627
H	-0.2741	1.2851	-0.86977
H	0.922012	-1.04789	0.245029
C	0.408961	0.248904	1.91763
H	-0.276799	1.09707	2.12848
H	0.199034	-0.572027	2.63372
H	1.45106	0.598306	2.08526
N	-1.52509	-1.88329	0.741998
C	-2.85013	-2.42519	0.550172
H	-0.878679	-2.40937	1.2848
H	-2.95365	-3.40376	1.06875
H	-3.05862	-2.57898	-0.533396
H	-3.6213	-1.73046	0.954935
C	843.762	-1.16763	1.23858
C	845.167	-1.38065	0.825116
O	845.726	-2.45265	1.01221
H	843.374	-2.09564	1.71169
H	843.136	-0.9258	0.354341
H	843.701	-0.337036	1.97295
N	845.78	-0.343471	0.249319
C	847.146	-0.397145	-0.206726
C	847.66	1.02589	-0.307107
O	846.884	1.97874	-0.26826
H	845.323	0.533862	0.128868
H	847.744	-0.91149	0.534476
C	847.254	-1.09894	-1.57895
H	846.638	-0.569073	-2.33678
H	848.304	-1.14214	-1.93299
H	846.873	-2.13998	-1.49231
N	848.991	1.20339	-0.417359
C	849.573	2.52245	-0.506745
H	849.603	0.419806	-0.439855
H	850.68	2.45903	-0.593279
H	849.326	3.12289	0.398646
H	849.182	3.06484	-1.39791
