44
  This energy is 1.46737e-319 and Call times are: 6411
C	-1.36379	-0.73072	3.11965
C	-0.428781	0.0194847	2.25124
O	0.235676	0.947939	2.69051
H	-1.33524	-0.303447	4.14556
H	-1.06754	-1.79973	3.16725
H	-2.39904	-0.65154	2.72603
N	-0.361234	-0.370551	0.976219
C	0.501821	0.261069	0.0102901
C	-0.0368152	-0.0535074	-1.37179
O	-0.881075	-0.932888	-1.53225
H	-0.929169	-1.10947	0.623547
H	0.45494	1.33423	0.145185
C	1.9564	-0.243139	0.141034
H	2.00072	-1.34452	0.00276558
H	2.62368	0.241288	-0.601158
H	2.33893	-0.00774298	1.15809
N	0.426461	0.677728	-2.40459
C	-0.0375357	0.457545	-3.75455
H	1.10427	1.3897	-2.25326
H	0.46239	1.15622	-4.46108
H	-1.13793	0.617897	-3.82284
H	0.180206	-0.585514	-4.07982
C	314.956	2.64261	-1.43538
C	313.79	2.10052	-0.701355
O	312.944	2.84236	-0.22067
H	314.9	3.75288	-1.4444
H	314.953	2.27418	-2.48279
H	315.899	2.33405	-0.937475
N	313.723	0.771547	-0.592974
C	312.65	0.0960779	0.0915071
C	313.138	-1.28837	0.471475
O	314.166	-1.74926	-0.0201845
H	314.434	0.179268	-0.963756
H	312.426	0.628748	1.00707
C	311.393	-0.00996794	-0.800287
H	311.626	-0.556389	-1.73896
H	310.564	-0.529419	-0.276267
H	311.046	1.01065	-1.07267
N	312.418	-1.97808	1.37794
C	312.812	-3.29889	1.8095
H	311.592	-1.58498	1.76961
H	312.092	-3.70001	2.55604
H	313.823	-3.27412	2.27649
H	312.848	-4.00047	0.944832
