44
  This energy is 1.24519e-319 and Call times are: 110487
C	2.71213	-0.499666	-2.12622
C	1.44946	-0.950853	-1.49909
O	0.903898	-1.98784	-1.85053
H	3.0159	-1.23026	-2.90714
H	3.51613	-0.43409	-1.36327
H	2.57045	0.494582	-2.59987
N	0.947354	-0.164209	-0.544388
C	-0.273362	-0.469422	0.158125
C	-0.804202	0.820822	0.752024
O	-0.0949791	1.82339	0.812771
H	1.38582	0.692875	-0.287299
H	-1.00669	-0.831082	-0.551461
C	-0.0344473	-1.50968	1.27522
H	0.718862	-1.1357	2.00101
H	-0.972377	-1.74711	1.81807
H	0.355377	-2.44969	0.827372
N	-2.07984	0.830693	1.18635
C	-2.67505	2.01717	1.75573
H	-2.63986	0.0112569	1.12199
H	-3.72903	1.82395	2.05413
H	-2.66695	2.85299	1.01913
H	-2.10993	2.34634	2.65765
C	5230.87	0.318293	-1.67934
C	5232.24	0.775257	-1.37877
O	5232.76	1.68622	-2.01128
H	5230.46	0.917651	-2.52084
H	5230.21	0.454131	-0.790273
H	5230.87	-0.75299	-1.97129
N	5232.88	0.136785	-0.393038
C	5234.22	0.467466	0.0155514
C	5234.79	-0.732052	0.744072
O	5234.06	-1.64888	1.11755
H	5232.46	-0.623121	0.0953374
H	5234.82	0.637076	-0.866338
C	5234.24	1.70738	0.937191
H	5233.61	1.53016	1.84056
H	5235.27	1.96487	1.25355
H	5233.81	2.5788	0.392317
N	5236.12	-0.762923	0.944321
C	5236.76	-1.87013	1.61813
H	5236.7	-0.0146851	0.62826
H	5237.86	-1.70907	1.68666
H	5236.58	-2.82177	1.06781
H	5236.36	-1.98635	2.65045
