44
  This energy is 3.24601e-321 and Call times are: 54795
C	-2.7877	-1.01904	1.8211
C	-2.06031	-0.0222556	1.00347
O	-2.60611	1.00513	0.625218
H	-3.82858	-0.666789	1.98946
H	-2.28768	-1.14551	2.80437
H	-2.81967	-1.99614	1.29462
N	-0.792156	-0.312788	0.703886
C	0.0443145	0.557897	-0.0829138
C	1.1767	-0.273963	-0.652953
O	1.40708	-1.40198	-0.221273
H	-0.367768	-1.1666	0.993421
H	-0.532213	0.942595	-0.914597
C	0.611861	1.71442	0.770004
H	1.20218	1.31618	1.62268
H	1.25628	2.38685	0.167239
H	-0.227536	2.31543	1.18273
N	1.89971	0.259164	-1.65746
C	2.98955	-0.463798	-2.27044
H	1.69313	1.17065	-1.99768
H	3.46053	0.142796	-3.0751
H	2.6262	-1.41739	-2.71751
H	3.77047	-0.711887	-1.51559
C	2597.16	1.05739	-3.30033
C	2596.93	1.23224	-1.84775
O	2596.45	2.26254	-1.40255
H	2596.83	1.97419	-3.83598
H	2596.57	0.191798	-3.67659
H	2598.24	0.890479	-3.50327
N	2597.3	0.213049	-1.06478
C	2597.14	0.234038	0.367638
C	2598.09	-0.791374	0.955315
O	2598.63	-1.63228	0.238386
H	2597.72	-0.609331	-1.43674
H	2597.43	1.20699	0.739652
C	2595.69	-0.0907694	0.779328
H	2595.39	-1.08928	0.395483
H	2595.56	-0.0753132	1.88165
H	2595	0.666835	0.341628
N	2598.33	-0.730625	2.27917
C	2599.23	-1.65798	2.92484
H	2597.89	-0.0382676	2.84112
H	2599.3	-1.44648	4.0148
H	2600.26	-1.58112	2.48933
H	2598.88	-2.70597	2.79208
