44
  This energy is 1.36115e-320 and Call times are: 31275
C	3.08127	0.792471	-1.41559
C	1.60262	0.740481	-1.46137
O	0.979031	1.268	-2.37206
H	3.45611	1.36195	-2.29368
H	3.50137	-0.234815	-1.44756
H	3.41795	1.30046	-0.4874
N	1.00056	0.0967836	-0.458605
C	-0.431101	-0.0384792	-0.36436
C	-0.777033	-0.332948	1.08231
O	0.0956643	-0.665151	1.88223
H	1.51828	-0.303693	0.29274
H	-0.891758	0.905342	-0.627174
C	-0.950186	-1.17261	-1.27618
H	-0.475059	-2.13926	-1.00425
H	-2.05222	-1.27939	-1.20617
H	-0.689453	-0.945579	-2.33289
N	-2.06399	-0.195734	1.45769
C	-2.4851	-0.443015	2.81699
H	-2.75423	0.0809598	0.797198
H	-3.5798	-0.278447	2.92564
H	-1.95654	0.238562	3.52219
H	-2.25694	-1.49212	3.11449
C	1485.14	1.91903	2.85039
C	1485.83	0.823027	2.13513
O	1486.76	0.221483	2.64968
H	1485.61	2.06191	3.84713
H	1484.06	1.66659	2.99244
H	1485.22	2.8647	2.27449
N	1485.38	0.540101	0.909311
C	1485.95	-0.499154	0.0899406
C	1485.59	-0.207143	-1.35292
O	1484.72	0.619613	-1.62763
H	1484.64	1.05677	0.489756
H	1487.03	-0.459534	0.171888
C	1485.42	-1.89207	0.499462
H	1484.32	-1.92897	0.414851
H	1485.86	-2.69464	-0.129341
H	1485.69	-2.09345	1.55861
N	1486.26	-0.86798	-2.31372
C	1485.99	-0.646335	-3.71533
H	1486.97	-1.52789	-2.07129
H	1486.65	-1.28405	-4.34755
H	1486.17	0.419174	-3.98633
H	1484.93	-0.88884	-3.95491
