44
  This energy is 1.20804e-319 and Call times are: 122835
C	2.53388	-2.23886	-0.832533
C	1.36969	-1.39827	-1.1921
O	1.03233	-1.2506	-2.35866
H	2.98719	-2.65403	-1.75882
H	2.21258	-3.07921	-0.181846
H	3.29572	-1.63058	-0.300991
N	0.724009	-0.815106	-0.179486
C	-0.426761	0.0311886	-0.370122
C	-0.570328	0.906388	0.859778
O	0.0536033	0.652346	1.88837
H	1.02623	-0.919702	0.76426
H	-0.249007	0.681189	-1.21746
C	-1.70986	-0.803221	-0.581125
H	-1.88882	-1.46938	0.289694
H	-2.59785	-0.154703	-0.728379
H	-1.59152	-1.44078	-1.48426
N	-1.38475	1.97659	0.773821
C	-1.57445	2.87336	1.89006
H	-1.87541	2.16929	-0.0695949
H	-2.28148	3.6895	1.62306
H	-0.606215	3.33366	2.19318
H	-1.98644	2.32585	2.76851
C	5814.86	0.951881	-2.3948
C	5815.23	0.249806	-1.1462
O	5814.38	-0.253772	-0.42526
H	5813.75	0.927843	-2.51342
H	5815.32	0.451148	-3.26927
H	5815.19	2.01	-2.3536
N	5816.53	0.206259	-0.857024
C	5817.05	-0.440933	0.321924
C	5818.43	0.131237	0.601186
O	5819.02	0.798712	-0.248071
H	5817.21	0.645531	-1.43742
H	5816.42	-0.197333	1.16448
C	5817.14	-1.97135	0.1299
H	5817.79	-2.21766	-0.735674
H	5817.54	-2.47284	1.03586
H	5816.13	-2.3781	-0.0751361
N	5818.97	-0.100509	1.81439
C	5820.27	0.414499	2.1744
H	5818.47	-0.636967	2.49057
H	5820.54	0.115477	3.21171
H	5820.28	1.52703	2.11622
H	5821.05	0.0242945	1.48374
