44
  This energy is 5.48956e-320 and Call times are: 62859
C	2.79937	1.12996	-1.73575
C	1.76141	1.29214	-0.692909
O	1.80533	2.21875	0.104563
H	3.549	1.94501	-1.63773
H	2.33952	1.18415	-2.74492
H	3.31308	0.152873	-1.61595
N	0.792004	0.374407	-0.673315
C	-0.287497	0.397999	0.281123
C	-0.869218	-1.00001	0.361213
O	-0.591576	-1.84591	-0.486838
H	0.783273	-0.392173	-1.30988
H	0.110991	0.644868	1.257
C	-1.38257	1.40617	-0.133036
H	-1.78869	1.15032	-1.1349
H	-2.21523	1.42699	0.599775
H	-0.943493	2.42607	-0.189258
N	-1.67773	-1.28196	1.4018
C	-2.26816	-2.58971	1.56726
H	-1.88462	-0.585966	2.08151
H	-2.90176	-2.62237	2.4809
H	-1.47731	-3.3688	1.66118
H	-2.90439	-2.8476	0.689841
C	2981.26	-0.629062	3.39443
C	2981.69	-0.725015	1.98284
O	2982.79	-1.16955	1.68929
H	2982.07	-1.00345	4.05531
H	2980.35	-1.24553	3.55724
H	2981.04	0.427543	3.65674
N	2980.82	-0.29695	1.064
C	2981.1	-0.326753	-0.349512
C	2980.18	0.670392	-1.02715
O	2979.22	1.14354	-0.428775
H	2979.94	0.090116	1.31752
H	2982.12	0.000792791	-0.513983
C	2980.88	-1.73841	-0.937019
H	2979.83	-2.07157	-0.765934
H	2981.09	-1.76496	-2.02523
H	2981.56	-2.45965	-0.431553
N	2980.47	1.03055	-2.29242
C	2979.66	1.98276	-3.01366
H	2981.26	0.641858	-2.75703
H	2980.06	2.14585	-4.03803
H	2979.64	2.96304	-2.48457
H	2978.61	1.61757	-3.1022
