44
  This energy is 1.35799e-319 and Call times are: 29889
C	-1.38125	-3.12466	-0.674356
C	-0.492936	-1.99216	-1.0201
O	0.272077	-2.05622	-1.97254
H	-1.21068	-3.95729	-1.39094
H	-2.4442	-2.80972	-0.735853
H	-1.16134	-3.48394	0.353022
N	-0.573085	-0.914754	-0.2358
C	0.226695	0.265657	-0.44511
C	0.274353	1.03384	0.86136
O	-0.500315	0.764637	1.77747
H	-1.17932	-0.885907	0.554507
H	1.23847	-0.0333559	-0.687978
C	-0.363721	1.15426	-1.56266
H	-1.40195	1.45863	-1.31056
H	0.249742	2.06397	-1.72654
H	-0.394336	0.579692	-2.51402
N	1.20591	1.99972	0.984958
C	1.33397	2.77541	2.1966
H	1.82831	2.19772	0.234861
H	2.15498	3.51988	2.10199
H	1.55884	2.11409	3.06455
H	0.388202	3.32219	2.41508
C	1420.46	-2.3809	0.104185
C	1421.28	-1.37918	-0.61805
O	1421.18	-1.23909	-1.82946
H	1419.82	-2.92258	-0.622187
H	1419.81	-1.87857	0.853503
H	1421.12	-3.11351	0.616791
N	1422.12	-0.65305	0.123084
C	1422.98	0.360366	-0.435499
C	1424.11	0.595026	0.538486
O	1424.06	0.163621	1.68844
H	1422.21	-0.796747	1.10496
H	1423.4	-0.0105246	-1.35824
C	1422.21	1.67748	-0.680562
H	1421.77	2.05479	0.267995
H	1422.87	2.45993	-1.11078
H	1421.37	1.49193	-1.39466
N	1425.19	1.27009	0.0905581
C	1426.33	1.53068	0.942733
H	1425.22	1.60488	-0.8455
H	1427.11	2.09957	0.392634
H	1426.78	0.576287	1.30198
H	1426.02	2.12573	1.83383
