44
  This energy is 2.40659e-320 and Call times are: 25815
C	0.821377	2.8315	-1.85312
C	1.03853	1.41808	-1.47065
O	1.84394	0.717637	-2.0683
H	1.47678	3.08364	-2.71494
H	1.07199	3.50064	-1.00325
H	-0.237272	2.98997	-2.14824
N	0.307157	0.960357	-0.451854
C	0.40631	-0.392051	0.0359865
C	-0.869083	-0.709207	0.792308
O	-1.64552	0.186529	1.11886
H	-0.366658	1.53251	0.00808942
H	0.464637	-1.06725	-0.808272
C	1.63066	-0.567703	0.961848
H	1.56791	0.126938	1.82652
H	1.71011	-1.60795	1.33915
H	2.55831	-0.331306	0.396392
N	-1.12583	-2.00259	1.07022
C	-2.32141	-2.40091	1.77599
H	-0.488625	-2.71349	0.791238
H	-2.34993	-3.50483	1.90943
H	-3.23155	-2.09239	1.21235
H	-2.36072	-1.92486	2.78247
C	1227.35	1.9631	2.35558
C	1227.58	0.671253	1.6716
O	1227.04	-0.356133	2.05898
H	1226.66	1.80608	3.21039
H	1226.89	2.6914	1.65234
H	1228.31	2.37134	2.74025
N	1228.41	0.695679	0.624852
C	1228.74	-0.48027	-0.142024
C	1230.04	-0.215558	-0.870506
O	1230.49	0.924398	-0.953949
H	1228.87	1.53362	0.336939
H	1228.9	-1.30813	0.535981
C	1227.62	-0.817441	-1.15566
H	1227.45	0.0342423	-1.84922
H	1227.87	-1.72248	-1.74773
H	1226.67	-1.00804	-0.60962
N	1230.69	-1.27317	-1.39882
C	1231.94	-1.11925	-2.09986
H	1230.31	-2.18869	-1.31452
H	1232.31	-2.10335	-2.46094
H	1232.71	-0.676583	-1.43045
H	1231.82	-0.446139	-2.97925
