44
  This energy is 6.60368e-320 and Call times are: 82263
C	-0.515891	-2.40184	2.46803
C	-0.982143	-1.27038	1.63518
O	-2.15127	-0.910816	1.65392
H	-1.37349	-2.81099	3.04508
H	0.264124	-2.05742	3.17921
H	-0.0999076	-3.20521	1.82422
N	-0.0622368	-0.679382	0.86912
C	-0.362811	0.434086	0.00501743
C	0.716964	0.504203	-1.05725
O	1.76145	-0.132907	-0.934883
H	0.880728	-1.00024	0.840795
H	-1.30461	0.247127	-0.49511
C	-0.417573	1.76059	0.795269
H	0.549975	1.94892	1.30762
H	-0.64895	2.62001	0.132972
H	-1.2115	1.69596	1.57093
N	0.478681	1.26844	-2.1413
C	1.44365	1.38649	-3.20951
H	-0.37569	1.77069	-2.22517
H	1.06454	2.06026	-4.00923
H	1.65363	0.389929	-3.66118
H	2.40426	1.80165	-2.82733
C	3900.1	0.596049	2.71579
C	3898.99	-0.135265	2.06408
O	3898.47	-1.11092	2.595
H	3900.34	0.108978	3.6855
H	3899.8	1.64918	2.9064
H	3901	0.577041	2.0695
N	3898.59	0.325732	0.87565
C	3897.52	-0.279017	0.119407
C	3897.69	0.134629	-1.3302
O	3898.44	1.05152	-1.64049
H	3899.03	1.1038	0.44028
H	3897.62	-1.35585	0.167599
C	3896.14	0.164332	0.645459
H	3896.04	1.2696	0.595211
H	3895.31	-0.299598	0.0654839
H	3896.03	-0.143465	1.70846
N	3896.99	-0.551298	-2.25834
C	3897.09	-0.236366	-3.66429
H	3896.39	-1.29468	-1.98788
H	3896.44	-0.91013	-4.26605
H	3898.14	-0.35298	-4.01822
H	3896.78	0.815411	-3.85515
