44
  This energy is 4.96388e-320 and Call times are: 2715
C	2.38299	-1.47037	-2.07014
C	1.93356	-0.97582	-0.749295
O	2.602	-1.16455	0.257709
H	3.35355	-1.99974	-1.95329
H	2.5196	-0.619955	-2.77082
H	1.63607	-2.17741	-2.48864
N	0.767644	-0.325886	-0.724792
C	0.199127	0.214249	0.484286
C	-1.28901	0.397351	0.258079
O	-1.76405	0.342664	-0.874696
H	0.218349	-0.20398	-1.5472
H	0.324277	-0.504916	1.28379
C	0.849942	1.56494	0.857353
H	0.720263	2.30014	0.0346846
H	0.414622	1.98358	1.78795
H	1.93999	1.41753	1.01926
N	-2.06576	0.598551	1.34075
C	-3.49497	0.771341	1.22379
H	-1.66337	0.632429	2.24969
H	-3.95556	0.92608	2.22437
H	-3.96239	-0.12623	0.75782
H	-3.73339	1.6543	0.587617
C	138.328	1.93997	2.66257
C	137.822	0.666596	2.10251
O	137.782	-0.35084	2.78051
H	138.636	1.78006	3.71874
H	137.533	2.71372	2.63347
H	139.207	2.29157	2.08145
N	137.424	0.695727	0.828475
C	136.908	-0.4627	0.144205
C	137.053	-0.226334	-1.34655
O	137.302	0.895479	-1.78382
H	137.49	1.52378	0.278009
H	137.514	-1.32235	0.401374
C	135.426	-0.712342	0.500881
H	134.807	0.171783	0.236355
H	135.025	-1.60369	-0.0241713
H	135.333	-0.882883	1.59561
N	136.921	-1.28961	-2.16382
C	137.054	-1.16277	-3.5964
H	136.726	-2.19056	-1.79015
H	136.91	-2.1473	-4.0935
H	138.065	-0.779801	-3.86442
H	136.297	-0.45169	-4.0002
