44
  This energy is 1.16876e-319 and Call times are: 23379
C	-2.79443	0.766323	-1.93133
C	-1.46904	1.10704	-1.367
O	-0.87683	2.12076	-1.71071
H	-3.09439	1.5483	-2.66236
H	-3.55403	0.719924	-1.12283
H	-2.74859	-0.213503	-2.4517
N	-0.964956	0.24877	-0.47726
C	0.313316	0.4434	0.15911
C	0.790553	-0.903121	0.667405
O	0.0203018	-1.8593	0.732791
H	-1.44402	-0.588445	-0.227249
H	1.02565	0.787244	-0.580095
C	0.212155	1.44745	1.32905
H	-0.519945	1.09192	2.08519
H	1.19469	1.59976	1.8212
H	-0.139509	2.42932	0.94381
N	2.08629	-1.01452	1.02048
C	2.63315	-2.2607	1.50439
H	2.69538	-0.231094	0.953597
H	3.71369	-2.14935	1.74375
H	2.5248	-3.06145	0.737376
H	2.10201	-2.59142	2.42617
C	1111.87	0.0504021	2.83185
C	1112.88	-0.60134	1.96145
O	1113.44	-1.6341	2.3041
H	1111.76	-0.540112	3.76678
H	1110.89	0.0977953	2.31457
H	1112.2	1.07793	3.09376
N	1113.14	0.00240078	0.79909
C	1114.09	-0.510765	-0.153614
C	1114.51	0.633214	-1.05673
O	1113.87	1.68559	-1.07346
H	1112.7	0.859016	0.544248
H	1114.97	-0.850076	0.376749
C	1113.48	-1.65636	-0.993927
H	1112.58	-1.30497	-1.53614
H	1114.21	-2.05392	-1.72843
H	1113.18	-2.48756	-0.320719
N	1115.61	0.459796	-1.81689
C	1116.09	1.49809	-2.69848
H	1116.11	-0.396504	-1.7839
H	1117	1.16384	-3.2387
H	1116.34	2.41794	-2.12209
H	1115.31	1.7639	-3.45238
