44
  This energy is 2.14869e-320 and Call times are: 106203
C	-3.33808	-0.0776763	-0.988602
C	-2.18231	0.600406	-0.35962
O	-2.24813	1.77165	-0.0127047
H	-4.18352	0.639306	-1.07241
H	-3.65911	-0.940899	-0.368436
H	-3.06661	-0.43361	-2.00475
N	-1.07802	-0.133187	-0.202337
C	0.127004	0.386053	0.393599
C	1.28163	-0.490843	-0.0504046
O	1.07546	-1.58275	-0.576774
H	-1.02745	-1.07777	-0.515605
H	0.306226	1.38358	0.0129386
C	0.0317409	0.398498	1.93564
H	-0.152815	-0.626307	2.32272
H	0.957884	0.797873	2.39774
H	-0.818466	1.04326	2.24801
N	2.53082	-0.0199319	0.133304
C	3.69151	-0.779622	-0.269005
H	2.67673	0.869169	0.554546
H	4.62605	-0.224674	-0.0325319
H	3.67006	-0.978984	-1.36492
H	3.72236	-1.75979	0.259678
C	5029.04	-1.45535	3.04548
C	5028.89	-1.31295	1.58064
O	5028.17	-2.07301	0.945289
H	5028.44	-2.31739	3.39854
H	5028.69	-0.535334	3.55938
H	5030.11	-1.63782	3.29923
N	5029.57	-0.321863	1.0037
C	5029.52	-0.0569643	-0.411903
C	5030.75	0.740286	-0.782644
O	5031.45	1.26102	0.0866829
H	5030.17	0.272424	1.5279
H	5029.56	-0.996857	-0.947539
C	5028.24	0.730995	-0.790039
H	5028.2	1.69433	-0.238237
H	5028.2	0.936534	-1.87937
H	5027.34	0.13688	-0.512324
N	5031.07	0.835671	-2.08981
C	5032.23	1.56434	-2.53647
H	5030.49	0.401212	-2.77763
H	5032.31	1.52846	-3.64495
H	5033.16	1.12867	-2.09951
H	5032.17	2.63192	-2.22375
