44
  This energy is 9.60661e-320 and Call times are: 109269
C	0.294799	-3.3786	0.790129
C	0.738414	-1.97116	0.906417
O	1.60589	-1.64529	1.70504
H	0.859342	-4.00283	1.51641
H	0.488188	-3.75717	-0.235593
H	-0.78972	-3.458	1.01476
N	0.137521	-1.09158	0.101653
C	0.461138	0.312726	0.0981908
C	-0.711659	1.05962	-0.506734
O	-1.59369	0.457365	-1.11595
H	-0.588278	-1.36468	-0.524104
H	0.574048	0.650309	1.12062
C	1.74511	0.592076	-0.714511
H	1.62604	0.24391	-1.76271
H	1.99728	1.67243	-0.719121
H	2.59648	0.0384034	-0.261997
N	-0.759327	2.39503	-0.332378
C	-1.84397	3.18803	-0.86237
H	-0.0396264	2.86312	0.169776
H	-1.70187	4.26335	-0.615904
H	-2.81817	2.8564	-0.435533
H	-1.90009	3.08664	-1.97041
C	5176.59	-2.12013	2.67394
C	5176.7	-1.74892	1.24507
O	5177.43	-2.3679	0.484442
H	5177.26	-2.98728	2.87956
H	5175.55	-2.40309	2.91743
H	5176.9	-1.26882	3.31534
N	5175.97	-0.708204	0.845388
C	5175.97	-0.228169	-0.513432
C	5175.48	1.20632	-0.500373
O	5174.93	1.67437	0.496366
H	5175.4	-0.193956	1.48104
H	5176.98	-0.224414	-0.886135
C	5175.06	-1.09294	-1.41473
H	5174.02	-1.09511	-1.0291
H	5175.05	-0.726177	-2.46175
H	5175.43	-2.1415	-1.41487
N	5175.68	1.94737	-1.60708
C	5175.26	3.32642	-1.68212
H	5176.13	1.55257	-2.40081
H	5175.51	3.76288	-2.67268
H	5175.76	3.93371	-0.892163
H	5174.16	3.40824	-1.53695
