44
  This energy is 1.15117e-320 and Call times are: 105825
C	2.24416	2.59243	-0.607606
C	1.85323	1.16636	-0.676334
O	2.5287	0.354354	-1.29349
H	3.18185	2.74445	-1.18509
H	2.41958	2.8906	0.44745
H	1.44619	3.22961	-1.0437
N	0.731002	0.827672	-0.0373906
C	0.221851	-0.520289	-0.012989
C	-1.25616	-0.454108	0.319179
O	-1.7564	0.580385	0.756689
H	0.173965	1.50382	0.437442
H	0.317829	-0.950617	-1.00177
C	0.963283	-1.38278	1.03272
H	0.863322	-0.938069	2.04581
H	0.573833	-2.42136	1.05404
H	2.04501	-1.42238	0.778849
N	-1.99685	-1.55771	0.0968071
C	-3.41451	-1.58436	0.371944
H	-1.57491	-2.38277	-0.264399
H	-3.84428	-2.58024	0.125439
H	-3.94647	-0.813886	-0.231907
H	-3.60998	-1.37478	1.44854
C	5013.25	3.05629	-0.984568
C	5012.11	2.21256	-0.560129
O	5011.01	2.70281	-0.318648
H	5012.92	4.119	-1.02323
H	5013.6	2.74982	-1.99341
H	5014.08	2.9618	-0.260732
N	5012.35	0.903418	-0.453018
C	5011.34	-0.0447572	-0.0513722
C	5012.04	-1.28635	0.459083
O	5013.24	-1.45951	0.249002
H	5013.25	0.519923	-0.624364
H	5010.77	0.372425	0.770567
C	5010.41	-0.408911	-1.22949
H	5010.99	-0.835975	-2.07118
H	5009.63	-1.1387	-0.923662
H	5009.9	0.509159	-1.59505
N	5011.31	-2.1735	1.1647
C	5011.9	-3.3787	1.70054
H	5010.35	-2.0119	1.33014
H	5011.14	-3.9785	2.24719
H	5012.73	-3.13224	2.40679
H	5012.32	-4.00754	0.882998
