44
  This energy is 1.21881e-319 and Call times are: 116703
C	1.66957	-0.676146	2.98018
C	0.454801	-0.29042	2.22736
O	-0.626971	-0.177144	2.78721
H	1.40583	-0.829972	4.04912
H	2.43375	0.126351	2.9105
H	2.08803	-1.62092	2.57369
N	0.609759	-0.0828073	0.917682
C	-0.47809	0.29792	0.0525459
C	-0.0890779	-0.0577336	-1.36922
O	1.07414	-0.339618	-1.65084
H	1.49038	-0.20667	0.468132
H	-1.35304	-0.285442	0.309891
C	-0.778611	1.80972	0.158748
H	0.1213	2.40517	-0.105282
H	-1.61584	2.10626	-0.506002
H	-1.06112	2.05755	1.20513
N	-1.06461	-0.0738079	-2.29878
C	-0.790606	-0.412348	-3.67591
H	-2.00105	0.150334	-2.04965
H	-1.72065	-0.367598	-4.2844
H	-0.371532	-1.44187	-3.7515
H	-0.0500628	0.294931	-4.1147
C	5530.47	-1.63145	0.237829
C	5529.6	-0.564032	-0.30914
O	5530.06	0.332685	-1.00198
H	5531.52	-1.4511	-0.0810249
H	5530.14	-2.62214	-0.14301
H	5530.42	-1.62957	1.34734
N	5528.3	-0.636417	0.00112228
C	5527.33	0.327986	-0.456383
C	5526.13	0.25643	0.466641
O	5525.99	-0.685416	1.24463
H	5527.94	-1.35558	0.590457
H	5527.76	1.32049	-0.368822
C	5526.9	0.0444714	-1.91258
H	5526.47	-0.974763	-1.99892
H	5526.16	0.785289	-2.26809
H	5527.79	0.0986826	-2.57843
N	5525.25	1.2684	0.416066
C	5524.08	1.29201	1.26594
H	5525.38	2.02514	-0.215219
H	5523.47	2.20391	1.0744
H	5524.37	1.28713	2.34008
H	5523.44	0.399046	1.07992
