44
  This energy is 1.09752e-319 and Call times are: 52737
C	0.676344	3.27416	0.97395
C	-0.206972	2.25259	0.367855
O	-1.35862	2.51881	0.0526756
H	0.117628	4.23001	1.07414
H	1.56452	3.44295	0.329378
H	1.00814	2.94454	1.98103
N	0.321675	1.03895	0.19471
C	-0.412762	-0.058443	-0.382491
C	0.264856	-1.3469	0.0417115
O	1.38996	-1.33175	0.537443
H	1.2518	0.826691	0.482362
H	-1.41543	-0.0642243	0.025801
C	-0.450941	0.0392008	-1.92396
H	0.579331	0.0455619	-2.33943
H	-1.01582	-0.804165	-2.37165
H	-0.948579	0.987781	-2.22178
N	-0.418266	-2.49655	-0.124571
C	0.141744	-3.77083	0.261162
H	-1.33042	-2.48725	-0.520948
H	-0.571594	-4.59601	0.0432728
H	0.371795	-3.78509	1.35117
H	1.08721	-3.96886	-0.29386
C	2499.56	-2.89901	-0.584637
C	2500.02	-1.80533	0.300929
O	2499.56	-1.66322	1.42364
H	2498.78	-3.49227	-0.0610101
H	2500.41	-3.56765	-0.838679
H	2499.13	-2.48019	-1.51774
N	2500.96	-0.99208	-0.19676
C	2501.5	0.116612	0.544208
C	2502.1	1.09107	-0.450418
O	2502.29	0.758569	-1.61846
H	2501.3	-1.10071	-1.12358
H	2500.7	0.626139	1.05937
C	2502.58	-0.353097	1.54524
H	2503.4	-0.875972	1.01344
H	2503	0.498069	2.11758
H	2502.13	-1.06725	2.26757
N	2502.39	2.33171	-0.0121712
C	2502.96	3.3305	-0.890387
H	2502.22	2.58371	0.934918
H	2503.13	4.28418	-0.343638
H	2502.27	3.53366	-1.74502
H	2503.93	2.98515	-1.30419
