44
  This energy is 1.06896e-319 and Call times are: 109731
C	2.11919	-1.18944	2.49407
C	0.993562	-0.344069	2.03636
O	0.296998	0.268035	2.83425
H	2.17834	-1.15308	3.60359
H	3.07518	-0.81558	2.07081
H	1.96134	-2.24178	2.17687
N	0.785174	-0.296699	0.718522
C	-0.270496	0.481803	0.121594
C	-0.543904	-0.0844623	-1.2582
O	0.244105	-0.868812	-1.78324
H	1.34138	-0.822954	0.0808524
H	-1.17127	0.363065	0.7103
C	0.120802	1.97273	0.0160223
H	1.04564	2.09082	-0.587996
H	-0.689879	2.57509	-0.443039
H	0.319618	2.37536	1.03313
N	-1.68557	0.285906	-1.87092
C	-2.03581	-0.211538	-3.18091
H	-2.31381	0.916038	-1.42654
H	-3.00973	0.209973	-3.51416
H	-2.12014	-1.3224	-3.16971
H	-1.25845	0.068173	-3.92834
C	5194.91	-1.76525	0.288471
C	5196.06	-1.04153	0.882113
O	5196.1	-0.786477	2.07799
H	5194.17	-1.99329	1.08417
H	5195.26	-2.71812	-0.166636
H	5194.43	-1.13918	-0.488524
N	5197.03	-0.684464	0.0425946
C	5198.21	0.0243916	0.470539
C	5198.81	0.704557	-0.744048
O	5198.45	0.399944	-1.87879
H	5196.98	-0.872419	-0.934433
H	5197.92	0.797532	1.17114
C	5199.24	-0.933138	1.10807
H	5199.54	-1.7254	0.386836
H	5200.15	-0.390577	1.43885
H	5198.79	-1.42591	1.99588
N	5199.74	1.66301	-0.530864
C	5200.36	2.37339	-1.62587
H	5200.01	1.90015	0.395138
H	5201.09	3.11973	-1.2467
H	5199.59	2.91057	-2.22903
H	5200.89	1.66677	-2.29983
