44
  This energy is 1.32597e-319 and Call times are: 97929
C	-2.33868	2.17249	1.39174
C	-1.86613	1.29712	0.295564
O	-2.57954	1.04657	-0.66608
H	-3.37562	2.50811	1.17269
H	-1.68314	3.06441	1.4787
H	-2.33623	1.61717	2.35328
N	-0.633401	0.800557	0.422746
C	-0.03436	-0.065733	-0.560879
C	1.08711	-0.831415	0.113853
O	1.5109	-0.485248	1.21495
H	-0.0729635	0.98861	1.22492
H	-0.772026	-0.785959	-0.891329
C	0.517634	0.739745	-1.75822
H	1.27362	1.4781	-1.41554
H	0.979463	0.0757673	-2.51758
H	-0.313347	1.29698	-2.2431
N	1.58102	-1.90971	-0.525943
C	2.64147	-2.70704	0.0449314
H	1.21986	-2.17789	-1.413
H	2.90997	-3.54737	-0.632563
H	2.32809	-3.13363	1.02527
H	3.55202	-2.08756	0.213208
C	4637.49	-1.36909	-2.87574
C	4638.66	-0.970678	-2.06252
O	4639.8	-1.2619	-2.40617
H	4637.84	-1.9361	-3.76664
H	4636.94	-0.468783	-3.21615
H	4636.81	-2.01596	-2.27981
N	4638.4	-0.289081	-0.944162
C	4639.44	0.167582	-0.0500227
C	4638.81	0.414671	1.30583
O	4637.58	0.467712	1.42914
H	4637.47	-0.0832436	-0.66009
H	4640.17	-0.618187	0.0682302
C	4640.1	1.46234	-0.571021
H	4639.34	2.26612	-0.691808
H	4640.9	1.81665	0.115004
H	4640.56	1.26842	-1.5652
N	4639.63	0.550515	2.36407
C	4639.12	0.776556	3.69559
H	4640.61	0.497333	2.24489
H	4639.95	0.863033	4.42775
H	4638.46	-0.0648999	4.01145
H	4638.52	1.71563	3.73248
