44
  This energy is 1.52908e-319 and Call times are: 30519
C	-2.26582	-2.60994	-0.424746
C	-1.89849	-1.17846	-0.509182
O	-2.63988	-0.365672	-1.04418
H	-3.25415	-2.76473	-0.909623
H	-2.3334	-2.92554	0.637633
H	-1.50801	-3.23112	-0.947068
N	-0.722431	-0.83572	0.0216394
C	-0.227485	0.517733	0.0170316
C	1.27666	0.464395	0.201294
O	1.82833	-0.570311	0.571262
H	-0.114319	-1.51201	0.428783
H	-0.424814	0.96125	-0.950661
C	-0.871381	1.35597	1.14392
H	-0.667546	0.897761	2.13519
H	-0.492613	2.39871	1.14316
H	-1.97319	1.38632	0.998216
N	1.98027	1.5799	-0.0754434
C	3.41777	1.61948	0.0594563
H	1.51622	2.40503	-0.380462
H	3.81075	2.62392	-0.212435
H	3.89575	0.864308	-0.605746
H	3.72043	1.39659	1.10821
C	1455.16	1.06359	-2.51621
C	1453.81	0.72604	-2.01841
O	1452.81	0.936499	-2.69826
H	1455.08	1.5089	-3.53145
H	1455.78	0.148065	-2.57533
H	1455.64	1.7988	-1.8397
N	1453.74	0.191119	-0.79699
C	1452.5	-0.190081	-0.176749
C	1452.72	-0.253217	1.32123
O	1453.86	-0.250687	1.78544
H	1454.56	0.051524	-0.241398
H	1451.76	0.579364	-0.365711
C	1452.01	-1.55883	-0.697794
H	1452.76	-2.34571	-0.502905
H	1451.05	-1.85533	-0.222382
H	1451.84	-1.49971	-1.7963
N	1451.64	-0.289567	2.11684
C	1451.75	-0.338696	3.55554
H	1450.72	-0.283636	1.72229
H	1450.75	-0.365123	4.03177
H	1452.3	0.555688	3.93587
H	1452.32	-1.24638	3.87306
