44
  This energy is 9.92924e-320 and Call times are: 77307
C	-2.47363	1.08285	-2.1988
C	-1.22158	1.29932	-1.43937
O	-0.543577	2.3031	-1.61036
H	-2.63754	1.93915	-2.88855
H	-3.33582	1.01193	-1.5028
H	-2.4029	0.149121	-2.79553
N	-0.880254	0.342242	-0.573434
C	0.308923	0.410008	0.237796
C	0.652633	-0.999294	0.679348
O	-0.161818	-1.91237	0.557705
H	-1.42575	-0.484484	-0.464352
H	1.12849	0.773714	-0.368919
C	0.0976691	1.31648	1.471
H	-0.744257	0.940842	2.09082
H	1.01144	1.37101	2.09776
H	-0.15464	2.34556	1.13414
N	1.88316	-1.21321	1.18535
C	2.30359	-2.52458	1.62092
H	2.53047	-0.46273	1.26903
H	3.34634	-2.49516	2.00701
H	2.26273	-3.25072	0.77694
H	1.63959	-2.90082	2.43253
C	3663.69	0.661711	-3.19673
C	3663.53	0.638718	-1.72479
O	3662.56	1.13679	-1.18395
H	3662.82	1.18223	-3.64983
H	3663.73	-0.37455	-3.59286
H	3664.62	1.20465	-3.47549
N	3664.51	0.0545771	-1.03405
C	3664.51	-0.0461319	0.403518
C	3665.93	-0.266458	0.863524
O	3666.81	-0.57978	0.0613178
H	3665.32	-0.321714	-1.48434
H	3664.17	0.89407	0.820123
C	3663.61	-1.20983	0.880609
H	3663.96	-2.17272	0.450815
H	3663.6	-1.29014	1.98707
H	3662.57	-1.03715	0.536285
N	3666.2	-0.0851519	2.17118
C	3667.54	-0.26079	2.69846
H	3665.48	0.175312	2.80324
H	3667.56	-0.0684611	3.79388
H	3668.25	0.441241	2.20753
H	3667.9	-1.29966	2.51879
