44
  This energy is 1.38813e-319 and Call times are: 111075
C	1.52434	3.10356	-0.412797
C	0.374106	2.261	-0.0149976
O	-0.604862	2.746	0.535357
H	1.32412	4.15835	-0.124361
H	1.6731	3.05365	-1.51198
H	2.44674	2.75944	0.100733
N	0.472697	0.957214	-0.284782
C	-0.564142	0.0109465	0.0413604
C	0.0624101	-1.36909	0.0878943
O	1.18576	-1.56525	-0.37192
H	1.28779	0.569734	-0.707179
H	-0.944719	0.232928	1.03028
C	-1.70299	0.0424428	-1.00227
H	-1.30892	-0.18505	-2.01571
H	-2.50311	-0.684879	-0.754104
H	-2.15287	1.05886	-1.02751
N	-0.645904	-2.35794	0.667958
C	-0.125324	-3.70145	0.768785
H	-1.55026	-2.17756	1.04057
H	-0.856269	-4.3694	1.27554
H	0.823177	-3.71244	1.35314
H	0.087398	-4.11749	-0.242568
C	5263.81	-0.50143	2.86692
C	5262.87	0.302787	2.05279
O	5262.35	1.31282	2.50337
H	5263.92	-0.0368861	3.87132
H	5264.81	-0.534984	2.37947
H	5263.43	-1.53517	2.98807
N	5262.63	-0.139556	0.816589
C	5261.74	0.534739	-0.0947408
C	5261.3	-0.466724	-1.14628
O	5261.89	-1.54017	-1.27365
H	5263.04	-0.979756	0.471246
H	5260.86	0.850866	0.445286
C	5262.43	1.74238	-0.765889
H	5263.34	1.41457	-1.31844
H	5261.75	2.26397	-1.46814
H	5262.75	2.46797	0.0150077
N	5260.24	-0.145283	-1.91372
C	5259.75	-1.04146	-2.93275
H	5259.78	0.725144	-1.79048
H	5258.87	-0.597157	-3.45608
H	5259.43	-2.01114	-2.48379
H	5260.54	-1.25193	-3.68865
