44
  This energy is 2.17636e-320 and Call times are: 25731
C	-0.733372	1.35521	-3.12277
C	-0.0987632	0.328368	-2.26599
O	0.424618	-0.665068	-2.75143
H	-0.643943	1.05092	-4.18826
H	-0.227821	2.33412	-2.98499
H	-1.80915	1.45585	-2.86681
N	-0.137871	0.547672	-0.949658
C	0.436505	-0.359753	0.0113316
C	-0.22068	-0.0957523	1.3521
O	-0.888397	0.920266	1.53565
H	-0.592786	1.34636	-0.564829
H	0.198001	-1.37549	-0.27758
C	1.96556	-0.167832	0.122183
H	2.20668	0.875441	0.418082
H	2.41107	-0.865092	0.861183
H	2.43497	-0.362924	-0.866621
N	-0.0632545	-1.02164	2.31851
C	-0.662145	-0.861577	3.62308
H	0.474851	-1.84057	2.14817
H	-0.416223	-1.72673	4.2775
H	-1.77078	-0.788817	3.54018
H	-0.29103	0.0667132	4.11474
C	1224.03	-3.34486	-0.0522208
C	1224.49	-2.13247	0.665086
O	1224.54	-2.10237	1.88695
H	1223.77	-4.13241	0.687251
H	1224.84	-3.72553	-0.710979
H	1223.14	-3.11363	-0.664474
N	1224.83	-1.08736	-0.0929938
C	1225.29	0.161309	0.458829
C	1225.08	1.23857	-0.587767
O	1224.83	0.941522	-1.75507
H	1224.75	-1.11452	-1.08633
H	1224.68	0.413839	1.31676
C	1226.78	0.0847515	0.852784
H	1227.4	-0.175162	-0.0295485
H	1227.14	1.04451	1.27818
H	1226.92	-0.708726	1.619
N	1225.15	2.52282	-0.186243
C	1224.96	3.61578	-1.10987
H	1225.35	2.74271	0.764191
H	1225.06	4.59355	-0.589498
H	1223.94	3.56639	-1.56704
H	1225.71	3.57569	-1.93163
