44
  This energy is 1.52642e-319 and Call times are: 54375
C	0.43657	-1.64503	-3.038
C	0.538571	-0.44052	-2.18362
O	1.10955	0.567384	-2.57681
H	0.945522	-1.45195	-4.0073
H	-0.629456	-1.88614	-3.23364
H	0.925563	-2.50934	-2.5412
N	-0.017849	-0.523438	-0.972881
C	-0.0006778	0.565041	-0.0285572
C	-0.227504	-0.014228	1.35428
O	-0.63261	-1.16666	1.49435
H	-0.454717	-1.36003	-0.653192
H	0.98053	1.02247	-0.0366853
C	-1.09283	1.60858	-0.353119
H	-2.09807	1.13578	-0.344588
H	-1.08232	2.44816	0.371978
H	-0.916125	2.02446	-1.36897
N	0.0512479	0.770156	2.41401
C	-0.122596	0.300009	3.76861
H	0.38495	1.69747	2.27997
H	0.157755	1.09117	4.49848
H	0.514341	-0.594037	3.95896
H	-1.18346	0.0135395	3.95215
C	2581.9	2.10718	-1.19746
C	2581.29	0.768167	-1.04973
O	2581.73	-0.199203	-1.65628
H	2582.75	2.04474	-1.91028
H	2582.28	2.46494	-0.216806
H	2581.15	2.829	-1.591
N	2580.24	0.684383	-0.230153
C	2579.53	-0.549483	0.0163698
C	2578.15	-0.203041	0.536168
O	2577.89	0.936642	0.916818
H	2579.87	1.48546	0.235729
H	2579.41	-1.07715	-0.920805
C	2580.28	-1.42786	1.04322
H	2580.41	-0.883212	2.00322
H	2579.74	-2.37879	1.23525
H	2581.29	-1.67371	0.651188
N	2577.22	-1.17993	0.543392
C	2575.88	-0.939996	1.00945
H	2577.45	-2.09391	0.224614
H	2575.27	-1.86629	0.938494
H	2575.39	-0.147779	0.399547
H	2575.88	-0.604107	2.07167
