44
  This energy is 9.91936e-320 and Call times are: 64581
C	-1.0979	0.254426	-3.29485
C	-0.547109	-0.524343	-2.16288
O	-0.408973	-1.73753	-2.23757
H	-1.33818	-0.435436	-4.13283
H	-0.352855	0.999442	-3.6451
H	-2.02595	0.778507	-2.98339
N	-0.220947	0.168634	-1.06937
C	0.326564	-0.448105	0.112449
C	0.0874766	0.48895	1.28035
O	-0.252145	1.65542	1.09105
H	-0.365419	1.15279	-1.01026
H	-0.211597	-1.36611	0.311762
C	1.8384	-0.724332	-0.0461901
H	2.38733	0.219465	-0.251221
H	2.26317	-1.19934	0.861952
H	2.00027	-1.41091	-0.905582
N	0.239318	-0.00965799	2.52307
C	0.0214467	0.804766	3.69585
H	0.507704	-0.958155	2.65556
H	0.197816	0.215125	4.62239
H	-1.02406	1.18901	3.71865
H	0.71103	1.67977	3.70041
C	3059.8	-0.748494	1.60626
C	3061.25	-0.973658	1.37585
O	3061.89	-1.74217	2.07981
H	3059.47	-1.36127	2.47169
H	3059.22	-1.04717	0.708865
H	3059.61	0.322492	1.82974
N	3061.8	-0.291366	0.370677
C	3063.19	-0.404518	0.0235088
C	3063.58	0.833296	-0.762482
O	3062.72	1.58509	-1.21467
H	3061.27	0.353715	-0.177092
H	3063.78	-0.414607	0.931772
C	3063.46	-1.67287	-0.816656
H	3062.86	-1.65955	-1.74734
H	3064.54	-1.76318	-1.08558
H	3063.18	-2.57245	-0.230276
N	3064.89	1.08576	-0.925048
C	3065.36	2.24707	-1.64875
H	3065.58	0.469151	-0.545406
H	3066.47	2.27746	-1.6746
H	3064.99	3.1822	-1.16549
H	3064.98	2.2315	-2.69774
