44
  This energy is 1.35409e-319 and Call times are: 24051
C	-2.66004	-1.48227	1.68915
C	-1.29825	-1.52754	1.11063
O	-0.567622	-2.49263	1.28748
H	-2.84645	-2.41586	2.26317
H	-3.41664	-1.40042	0.880647
H	-2.75626	-0.613807	2.37432
N	-0.920398	-0.462745	0.399421
C	0.373987	-0.359569	-0.225679
C	0.654433	1.10931	-0.476629
O	-0.244764	1.9439	-0.394586
H	-1.51395	0.329706	0.286951
H	1.1266	-0.725481	0.461165
C	0.420384	-1.14411	-1.55589
H	-0.353429	-0.76659	-2.25789
H	1.4157	-1.06692	-2.0398
H	0.212222	-2.21831	-1.35863
N	1.92161	1.46275	-0.76879
C	2.28529	2.83935	-1.01141
H	2.63655	0.773476	-0.82352
H	3.37116	2.92537	-1.23667
H	2.06158	3.46792	-0.119169
H	1.71429	3.25037	-1.87524
C	1149.01	0.802908	-1.34529
C	1147.6	0.374373	-1.49015
O	1147.08	0.265831	-2.59307
H	1149.44	0.990366	-2.35222
H	1149.6	0.00908347	-0.842466
H	1149.07	1.73858	-0.750074
N	1146.94	0.123249	-0.358738
C	1145.56	-0.302467	-0.337274
C	1145	0.00858613	1.03607
O	1145.74	0.29647	1.97034
H	1147.36	0.243453	0.534785
H	1145	0.277411	-1.06074
C	1145.43	-1.81363	-0.633254
H	1146.01	-2.40548	0.110414
H	1144.38	-2.14475	-0.617657
H	1145.85	-2.0286	-1.64142
N	1143.66	-0.0213123	1.18455
C	1143.03	0.272614	2.45237
H	1143.07	-0.249502	0.414639
H	1141.93	0.193788	2.37188
H	1143.29	1.30454	2.78645
H	1143.38	-0.439293	3.23628
