44
  This energy is 2.26677e-320 and Call times are: 68151
C	1.76683	-1.10836	2.78854
C	0.500816	-0.877736	2.05696
O	-0.564623	-1.29554	2.48913
H	1.55631	-1.68874	3.71304
H	2.22798	-0.13844	3.07035
H	2.47503	-1.68414	2.15617
N	0.593542	-0.200649	0.910083
C	-0.549672	0.10223	0.0865824
C	-0.0507031	0.38708	-1.31667
O	1.14376	0.584924	-1.53103
H	1.47113	0.109187	0.55403
H	-1.18904	-0.770054	0.0376097
C	-1.32822	1.3206	0.631142
H	-0.669131	2.2135	0.680682
H	-2.20922	1.55648	-0.000505585
H	-1.68732	1.09973	1.65993
N	-0.957572	0.392747	-2.31345
C	-0.573372	0.642752	-3.68314
H	-1.9185	0.223368	-2.12069
H	-1.46054	0.607206	-4.35316
H	0.159518	-0.120764	-4.03122
H	-0.0995376	1.64623	-3.78156
C	3230.04	1.88007	-1.73695
C	3231.44	1.47711	-1.46387
O	3232.36	1.8639	-2.17186
H	3230.01	2.53482	-2.63503
H	3229.63	2.44086	-0.871936
H	3229.41	0.983496	-1.92845
N	3231.63	0.67234	-0.415949
C	3232.93	0.195451	-0.0240344
C	3232.74	-1.04988	0.818984
O	3231.63	-1.33917	1.26712
H	3230.87	0.340658	0.13567
H	3233.48	-0.0902573	-0.9107
C	3233.7	1.26554	0.779107
H	3233.13	1.55681	1.68767
H	3234.71	0.901683	1.08234
H	3233.84	2.17303	0.151039
N	3233.81	-1.83133	1.0368
C	3233.72	-3.04302	1.81755
H	3234.7	-1.5839	0.659615
H	3234.71	-3.5441	1.88372
H	3233	-3.75438	1.35553
H	3233.37	-2.81896	2.85141
