44
  This energy is 2.40017e-320 and Call times are: 99861
C	-1.65015	-3.06326	0.139966
C	-0.766151	-2.09096	-0.541493
O	-0.171172	-2.38844	-1.56814
H	-1.6466	-4.02111	-0.424281
H	-2.68902	-2.6734	0.179595
H	-1.28716	-3.25278	1.17208
N	-0.655516	-0.888969	0.0288989
C	0.166215	0.162101	-0.515929
C	0.469843	1.14223	0.600491
O	-0.159745	1.10739	1.65606
H	-1.12249	-0.668429	0.881094
H	1.10611	-0.261562	-0.846368
C	-0.545902	0.886691	-1.67996
H	-1.51005	1.31953	-1.33762
H	0.0841048	1.69652	-2.10191
H	-0.763847	0.157731	-2.49068
N	1.46316	2.03046	0.399551
C	1.83099	2.99422	1.41051
H	1.96566	2.03804	-0.458744
H	2.66719	3.63634	1.05595
H	2.15554	2.47993	2.34401
H	0.966417	3.65077	1.66076
C	4727.87	-2.54484	-2.09371
C	4727.85	-1.14368	-1.61708
O	4727.19	-0.291444	-2.19624
H	4727.24	-2.63705	-3.00031
H	4727.48	-3.22402	-1.30809
H	4728.91	-2.84085	-2.35228
N	4728.58	-0.870665	-0.535397
C	4728.65	0.445483	0.0469258
C	4729.92	0.515488	0.880931
O	4730.54	-0.506837	1.17417
H	4729.14	-1.56732	-0.0897473
H	4728.74	1.1768	-0.746445
C	4727.42	0.741131	0.927738
H	4727.33	-0.0113962	1.74019
H	4727.47	1.75382	1.37757
H	4726.5	0.685603	0.305412
N	4730.35	1.73387	1.2656
C	4731.55	1.89934	2.05173
H	4729.84	2.54973	1.0122
H	4731.73	2.97491	2.26818
H	4732.43	1.4957	1.50785
H	4731.46	1.35644	3.0207
