44
  This energy is 1.39025e-319 and Call times are: 41733
C	1.50967	2.90688	1.18198
C	1.53507	1.65636	0.390298
O	2.47976	1.38875	-0.339397
H	2.4361	3.48761	0.981122
H	1.46054	2.67237	2.26615
H	0.630659	3.52259	0.89708
N	0.475796	0.853508	0.515699
C	0.355239	-0.397377	-0.189695
C	-1.11456	-0.767475	-0.234044
O	-1.92993	-0.190679	0.483109
H	-0.300668	1.09655	1.091
H	0.690735	-0.259833	-1.20979
C	1.16387	-1.51538	0.505502
H	0.817534	-1.65336	1.55199
H	1.07337	-2.47991	-0.0351283
H	2.23854	-1.23169	0.532647
N	-1.49102	-1.72981	-1.09902
C	-2.87063	-2.14016	-1.21926
H	-0.817247	-2.17971	-1.67596
H	-2.97697	-2.94355	-1.98117
H	-3.51094	-1.28095	-1.52423
H	-3.25195	-2.52671	-0.246454
C	1981.09	-0.577598	-3.42891
C	1981.34	0.260941	-2.2347
O	1982	1.28555	-2.30851
H	1981.59	-0.121501	-4.30922
H	1980	-0.641735	-3.63095
H	1981.49	-1.59857	-3.27143
N	1980.8	-0.167404	-1.08788
C	1980.96	0.540117	0.158059
C	1980.71	-0.441482	1.28574
O	1980.18	-1.53306	1.06395
H	1980.29	-1.01903	-1.03505
H	1981.98	0.882679	0.24361
C	1979.97	1.72742	0.256428
H	1978.93	1.37248	0.167608
H	1980.09	2.2745	1.21452
H	1980.17	2.43853	-0.575725
N	1981.09	-0.0816751	2.52593
C	1980.9	-0.956285	3.65964
H	1981.52	0.803034	2.68382
H	1981.28	-0.480919	4.59085
H	1981.44	-1.91712	3.50984
H	1979.82	-1.18918	3.80007
