44
  This energy is 9.85266e-320 and Call times are: 89949
C	1.45375	2.32928	-2.14177
C	1.03287	0.948825	-1.81252
O	1.09984	0.0522651	-2.64209
H	1.79927	2.3659	-3.19777
H	2.28798	2.64309	-1.47965
H	0.600773	3.02936	-2.01823
N	0.576742	0.747403	-0.574073
C	0.130913	-0.54028	-0.105101
C	-0.771664	-0.313227	1.092
O	-0.809763	0.780747	1.652
H	0.499748	1.4921	0.0835189
H	-0.461715	-1.01085	-0.879326
C	1.32388	-1.43831	0.291751
H	1.93006	-0.952214	1.08571
H	0.984172	-2.43065	0.653177
H	1.97797	-1.59605	-0.593365
N	-1.53967	-1.34265	1.49997
C	-2.43863	-1.21593	2.62336
H	-1.49981	-2.2179	1.02924
H	-2.9803	-2.17066	2.8032
H	-3.1911	-0.415954	2.43612
H	-1.87686	-0.951806	3.54848
C	4259.42	-1.84527	-2.78461
C	4259.56	-1.67239	-1.32124
O	4259.06	-2.47359	-0.539255
H	4258.82	-2.76144	-2.99059
H	4260.42	-1.95285	-3.25519
H	4258.89	-0.970393	-3.22485
N	4260.24	-0.600297	-0.913861
C	4260.46	-0.297027	0.47741
C	4260.78	1.18083	0.586624
O	4261.07	1.83824	-0.413282
H	4260.61	0.0607047	-1.56017
H	4259.55	-0.476075	1.02689
C	4261.62	-1.13713	1.05832
H	4262.56	-0.951505	0.491856
H	4261.8	-0.90622	2.12948
H	4261.37	-2.21764	0.971306
N	4260.73	1.74435	1.80938
C	4261	3.14756	2.00857
H	4260.49	1.19706	2.60518
H	4260.91	3.41923	3.08277
H	4260.3	3.77586	1.42227
H	4262.04	3.3939	1.67723
