44
  This energy is 4.06665e-320 and Call times are: 20523
C	3.17753	1.24932	0.684584
C	1.94535	1.20409	-0.1345
O	1.75893	2.00368	-1.04137
H	3.82105	2.08532	0.334099
H	3.73916	0.296852	0.583675
H	2.92169	1.41591	1.75217
N	1.06052	0.254249	0.177345
C	-0.184388	0.083652	-0.52829
C	-1.12962	-0.685752	0.373815
O	-0.711992	-1.26207	1.37645
H	1.21077	-0.372711	0.937137
H	-0.622221	1.05702	-0.709774
C	0.0215727	-0.679104	-1.85603
H	0.471498	-1.67693	-1.6662
H	-0.934991	-0.812077	-2.402
H	0.716714	-0.105807	-2.50738
N	-2.43709	-0.693939	0.0475561
C	-3.41271	-1.38997	0.853713
H	-2.75642	-0.215577	-0.763881
H	-4.43118	-1.28063	0.420118
H	-3.42775	-0.983057	1.89074
H	-3.17129	-2.476	0.912444
C	974.643	1.11086	0.535438
C	976.064	1.00259	0.93646
O	976.5	1.6235	1.89635
H	974.12	1.81142	1.22208
H	974.153	0.116672	0.594052
H	974.567	1.49997	-0.501717
N	976.831	0.201705	0.192745
C	978.232	-0.00626072	0.458032
C	978.878	-0.511824	-0.81742
O	978.19	-0.913548	-1.75384
H	976.471	-0.276038	-0.604273
H	978.689	0.944239	0.703425
C	978.443	-1.025	1.60028
H	977.973	-1.99873	1.3455
H	979.521	-1.18737	1.80726
H	977.965	-0.64356	2.52854
N	980.223	-0.482738	-0.891104
C	980.925	-0.932775	-2.0704
H	980.762	-0.147371	-0.125393
H	982.025	-0.831647	-1.93604
H	980.624	-0.332967	-2.9597
H	980.694	-2.00216	-2.28106
