44
  This energy is 6.96287e-320 and Call times are: 88773
C	3.05776	-0.345959	1.62989
C	2.24861	0.0104117	0.442673
O	2.76039	0.532653	-0.538058
H	4.11668	-0.0575941	1.45267
H	3.00893	-1.44021	1.8117
H	2.68311	0.194213	2.52475
N	0.943811	-0.264007	0.51022
C	0.0279095	0.0236802	-0.564577
C	-1.37079	0.0815464	0.0181244
O	-1.59872	-0.343921	1.14899
H	0.53384	-0.662916	1.32614
H	0.256351	1.00147	-0.969307
C	0.0993696	-1.055	-1.66841
H	-0.134867	-2.05693	-1.2496
H	-0.604502	-0.836498	-2.49763
H	1.12913	-1.08823	-2.0863
N	-2.34054	0.633089	-0.737772
C	-3.69977	0.742112	-0.26155
H	-2.1346	0.978182	-1.64757
H	-4.34772	1.22161	-1.02803
H	-3.74261	1.3559	0.66725
H	-4.11696	-0.264551	-0.0296812
C	4203.59	-2.06973	2.68168
C	4204.57	-1.49685	1.7272
O	4205.77	-1.70627	1.84651
H	4204.14	-2.66157	3.45062
H	4202.88	-2.73725	2.149
H	4203.03	-1.25736	3.18577
N	4204.07	-0.743587	0.746097
C	4204.89	-0.118576	-0.258791
C	4204.1	1.03042	-0.857224
O	4202.89	1.13453	-0.658266
H	4203.09	-0.556536	0.676645
H	4205.77	0.297653	0.215471
C	4205.29	-1.12225	-1.3639
H	4204.38	-1.5478	-1.84787
H	4205.92	-0.644326	-2.13923
H	4205.86	-1.95958	-0.91252
N	4204.78	1.93666	-1.59083
C	4204.11	3.07058	-2.19001
H	4205.76	1.8388	-1.73439
H	4204.84	3.69791	-2.75433
H	4203.63	3.70437	-1.40808
H	4203.32	2.7335	-2.8942
