44
  This energy is 1.52706e-319 and Call times are: 79407
C	3.36158	0.891941	-0.174299
C	2.28334	-0.122061	-0.154223
O	2.52244	-1.30381	-0.361095
H	4.32939	0.394478	-0.401737
H	3.4372	1.38961	0.815363
H	3.15648	1.65347	-0.955939
N	1.05103	0.32755	0.0940516
C	-0.100679	-0.53711	0.146504
C	-1.3343	0.316022	-0.0761603
O	-1.27133	1.54209	-0.00807908
H	0.864795	1.29666	0.232142
H	-0.0427212	-1.25005	-0.666167
C	-0.196296	-1.26478	1.50609
H	-0.254924	-0.530417	2.33758
H	-1.08191	-1.93152	1.54983
H	0.713711	-1.88529	1.65774
N	-2.48706	-0.316726	-0.370743
C	-3.70995	0.413502	-0.610496
H	-2.51601	-1.30924	-0.428301
H	-4.5469	-0.28395	-0.834837
H	-3.59054	1.10698	-1.47425
H	-3.98775	1.01894	0.282506
C	3763.35	1.22245	2.86675
C	3763.37	0.3592	1.66441
O	3762.48	-0.46033	1.45964
H	3762.45	0.980429	3.47809
H	3763.3	2.2913	2.5696
H	3764.26	1.04765	3.47844
N	3764.4	0.524034	0.83279
C	3764.56	-0.241362	-0.378035
C	3766.02	-0.18613	-0.776958
O	3766.78	0.628449	-0.260042
H	3765.13	1.17465	1.02554
H	3764.31	-1.27578	-0.17509
C	3763.67	0.317883	-1.51607
H	3763.93	1.37942	-1.72119
H	3763.79	-0.269232	-2.44984
H	3762.6	0.273013	-1.21102
N	3766.45	-1.07223	-1.69623
C	3767.83	-1.1023	-2.12902
H	3765.82	-1.72818	-2.09759
H	3767.98	-1.89878	-2.88965
H	3768.5	-1.30241	-1.26794
H	3768.12	-0.125799	-2.5788
