44
  This energy is 1.46846e-319 and Call times are: 123885
C	2.63798	1.31042	1.85741
C	1.31328	0.657144	1.75948
O	0.741899	0.233311	2.75466
H	2.96433	1.32159	2.92006
H	2.57699	2.35615	1.48923
H	3.38618	0.750706	1.25753
N	0.791358	0.555376	0.534895
C	-0.489071	-0.0544835	0.279157
C	-0.52672	-0.464419	-1.18022
O	0.31249	-0.0423182	-1.97356
H	1.27978	0.878429	-0.271341
H	-0.575955	-0.953699	0.87576
C	-1.64781	0.919916	0.587344
H	-1.55519	1.84156	-0.0259281
H	-2.63519	0.45348	0.391659
H	-1.60841	1.21354	1.65897
N	-1.4948	-1.31947	-1.56455
C	-1.60207	-1.77467	-2.9311
H	-2.16025	-1.65536	-0.906071
H	-2.462	-2.47054	-3.04743
H	-0.674728	-2.30858	-3.24129
H	-1.75198	-0.913389	-3.62167
C	5867.5	-0.502789	-3.43289
C	5867.76	-0.899883	-2.03151
O	5868.29	-1.97039	-1.76641
H	5867.84	-1.30985	-4.11469
H	5868.05	0.431916	-3.67536
H	5866.41	-0.343633	-3.58727
N	5867.39	-0.0325328	-1.08862
C	5867.58	-0.277022	0.318799
C	5866.61	0.607002	1.08037
O	5866.03	1.53232	0.517598
H	5866.93	0.823403	-1.31601
H	5867.32	-1.30675	0.534708
C	5869.03	0.0286561	0.751616
H	5869.29	1.08565	0.528059
H	5869.18	-0.158676	1.83474
H	5869.73	-0.624483	0.185761
N	5866.4	0.326549	2.38135
C	5865.48	1.10633	3.1835
H	5866.87	-0.430889	2.81681
H	5865.45	0.720853	4.2263
H	5864.45	1.06423	2.75943
H	5865.8	2.17386	3.21471
