44
  This energy is 1.18358e-319 and Call times are: 46983
C	-3.18621	0.0308714	1.40471
C	-1.72006	-0.145267	1.50751
O	-1.17611	-0.300306	2.59222
H	-3.63196	0.00127569	2.4227
H	-3.62779	-0.785421	0.795208
H	-3.42236	1.01	0.937287
N	-1.03773	-0.118752	0.360307
C	0.393405	-0.276345	0.29825
C	0.870259	0.311009	-1.01585
O	0.0716788	0.576495	-1.9123
H	-1.48904	0.0374009	-0.514262
H	0.845482	0.296564	1.09792
C	0.800188	-1.76378	0.394058
H	0.334129	-2.34868	-0.427399
H	1.90152	-1.88873	0.346745
H	0.4441	-2.1826	1.36046
N	2.18971	0.548686	-1.15211
C	2.73396	1.11729	-2.36317
H	2.81894	0.333609	-0.412487
H	3.83709	1.23429	-2.28148
H	2.28896	2.11928	-2.56127
H	2.51449	0.463021	-3.23778
C	2229.08	-2.85493	-1.57695
C	2230.18	-2.07387	-0.967969
O	2231.28	-2.56986	-0.788141
H	2229.44	-3.88223	-1.80253
H	2228.75	-2.3752	-2.52148
H	2228.22	-2.92073	-0.874398
N	2229.9	-0.814979	-0.62671
C	2230.86	0.0692255	-0.0247587
C	2230.1	1.17342	0.685633
O	2228.9	1.34924	0.474439
H	2228.98	-0.431597	-0.751611
H	2231.42	-0.478159	0.722422
C	2231.81	0.672913	-1.08524
H	2231.23	1.23319	-1.85054
H	2232.55	1.35413	-0.625136
H	2232.36	-0.146107	-1.59922
N	2230.78	1.9331	1.56612
C	2230.14	3.00006	2.29827
H	2231.75	1.77051	1.72846
H	2230.87	3.50816	2.97018
H	2229.31	2.60304	2.92048
H	2229.72	3.75856	1.5993
