44
  This energy is 2.69463e-320 and Call times are: 119097
C	1.95904	1.3964	2.51761
C	0.978653	0.398487	2.03366
O	0.615875	-0.528333	2.74492
H	2.26357	1.13879	3.55528
H	1.50529	2.40978	2.51738
H	2.85949	1.39478	1.8679
N	0.526254	0.566953	0.788939
C	-0.430519	-0.32094	0.178152
C	-0.319584	-0.162143	-1.32575
O	0.293081	0.785379	-1.81429
H	0.851459	1.30933	0.209235
H	-0.16761	-1.34262	0.421321
C	-1.86954	-0.00189856	0.641349
H	-2.13571	1.04717	0.390915
H	-2.60878	-0.683811	0.173063
H	-1.93732	-0.120718	1.74472
N	-0.895334	-1.10457	-2.09799
C	-0.831189	-1.04295	-3.53961
H	-1.38052	-1.86751	-1.68357
H	-1.36527	-1.90626	-3.99426
H	0.227181	-1.06319	-3.887
H	-1.2996	-0.104067	-3.91413
C	5635.75	0.0587699	-0.456305
C	5636.95	0.237461	0.38471
O	5636.87	0.70933	1.5106
H	5634.86	0.416919	0.100603
H	5635.61	-1.01473	-0.704168
H	5635.85	0.644854	-1.39436
N	5638.11	-0.137241	-0.156248
C	5639.37	-0.0253902	0.538173
C	5640.48	-0.0314121	-0.498435
O	5640.25	-0.370022	-1.65843
H	5638.17	-0.493198	-1.08536
H	5639.41	0.927257	1.0513
C	5639.57	-1.19006	1.53382
H	5639.53	-2.16586	1.00415
H	5640.54	-1.10696	2.07036
H	5638.75	-1.17532	2.28715
N	5641.71	0.366738	-0.10609
C	5642.82	0.405107	-1.02647
H	5641.87	0.643807	0.835299
H	5643.74	0.757559	-0.514158
H	5642.6	1.09492	-1.87445
H	5643.02	-0.607563	-1.44679
