44
  This energy is 1.40596e-319 and Call times are: 78945
C	0.18582	2.22847	2.66936
C	0.0824132	1.93725	1.22171
O	-0.111754	2.83076	0.409038
H	0.0545674	3.31994	2.83472
H	1.18351	1.92473	3.05039
H	-0.604298	1.6829	3.22704
N	0.20638	0.656987	0.864047
C	0.129217	0.217225	-0.506165
C	-0.210786	-1.26048	-0.502773
O	-0.122778	-1.92338	0.529045
H	0.335247	-0.0652849	1.53833
H	-0.680988	0.740047	-0.998403
C	1.46326	0.453723	-1.2488
H	2.29236	-0.0835027	-0.740764
H	1.4073	0.116368	-2.30418
H	1.70165	1.53967	-1.24323
N	-0.630592	-1.80798	-1.66036
C	-0.987855	-3.20459	-1.74991
H	-0.701979	-1.25327	-2.48282
H	-1.30573	-3.46367	-2.78388
H	-1.8267	-3.44082	-1.0558
H	-0.121799	-3.85013	-1.47713
C	3742.55	2.50927	-2.38966
C	3742.18	1.87723	-1.1032
O	3741.42	2.43164	-0.32155
H	3742.05	3.49526	-2.47349
H	3742.23	1.8675	-3.23723
H	3743.65	2.66431	-2.4383
N	3742.73	0.684883	-0.85012
C	3742.47	-0.0542961	0.358516
C	3743.59	-1.04758	0.553089
O	3744.38	-1.29482	-0.361071
H	3743.37	0.256843	-1.48183
H	3742.48	0.628392	1.19864
C	3741.11	-0.79643	0.279953
H	3741.1	-1.49544	-0.583403
H	3740.91	-1.3665	1.20904
H	3740.29	-0.057955	0.136203
N	3743.72	-1.62653	1.7639
C	3744.77	-2.57571	2.04549
H	3743.08	-1.40794	2.49291
H	3744.7	-2.94028	3.09405
H	3745.77	-2.10706	1.90321
H	3744.7	-3.45384	1.36348
