44
  This energy is 7.78944e-320 and Call times are: 114981
C	-1.95006	-0.178739	2.87949
C	-1.54654	0.486064	1.61996
O	-2.16395	1.44942	1.18723
H	-2.84566	0.332873	3.29425
H	-1.12723	-0.121747	3.6228
H	-2.20103	-1.24316	2.68722
N	-0.486229	-0.0272638	0.991787
C	0.0264566	0.510141	-0.243194
C	0.845808	-0.572733	-0.917941
O	1.18684	-1.57974	-0.300318
H	-0.00940361	-0.830274	1.33927
H	-0.80444	0.748259	-0.895102
C	0.900365	1.75949	0.00686773
H	1.75142	1.51177	0.676545
H	1.29663	2.17593	-0.941984
H	0.288958	2.54476	0.502525
N	1.16342	-0.398902	-2.21598
C	1.93051	-1.3823	-2.94445
H	0.872029	0.419511	-2.70026
H	2.08945	-1.05683	-3.99615
H	1.4014	-2.36267	-2.95714
H	2.92698	-1.53389	-2.46986
C	5444.26	3.15254	-0.941214
C	5445.35	2.16633	-0.745881
O	5446.49	2.39842	-1.12317
H	5444.67	4.04936	-1.45735
H	5443.84	3.46117	0.0402325
H	5443.45	2.71414	-1.5647
N	5445.01	1.02229	-0.146633
C	5445.95	-0.0333102	0.113465
C	5445.17	-1.32104	0.300232
O	5443.96	-1.3004	0.471009
H	5444.07	0.833182	0.129903
H	5446.59	-0.156655	-0.75339
C	5446.8	0.265019	1.3731
H	5446.14	0.391638	2.26035
H	5447.53	-0.545712	1.57619
H	5447.36	1.21122	1.22409
N	5445.86	-2.4795	0.249909
C	5445.2	-3.75556	0.405318
H	5446.85	-2.47562	0.103663
H	5445.94	-4.58815	0.335138
H	5444.43	-3.89946	-0.387074
H	5444.7	-3.81801	1.39513
