44
  This energy is 1.23427e-319 and Call times are: 41145
C	0.177376	-3.01126	-1.73982
C	0.661004	-1.64117	-1.45668
O	1.68803	-1.21491	-1.96661
H	0.882982	-3.51306	-2.43709
H	-0.827142	-2.97258	-2.21127
H	0.121747	-3.59955	-0.799729
N	-0.0791968	-0.912542	-0.617898
C	0.261528	0.437366	-0.245766
C	-0.447771	0.754846	1.05629
O	-1.35044	0.0313982	1.47299
H	-0.898126	-1.28132	-0.186277
H	1.32698	0.49344	-0.0620947
C	-0.158367	1.44521	-1.33895
H	-1.25185	1.38453	-1.52531
H	0.102654	2.48561	-1.0557
H	0.367096	1.20113	-2.28787
N	-0.0378668	1.83941	1.7431
C	-0.646251	2.21314	2.99863
H	0.699042	2.40817	1.3928
H	-0.172721	3.13325	3.40658
H	-0.531401	1.39766	3.74899
H	-1.73489	2.40864	2.86511
C	1954.11	-2.46177	2.14666
C	1953	-1.67331	1.56287
O	1951.83	-1.94724	1.80545
H	1953.69	-3.27364	2.77927
H	1954.75	-1.81093	2.77685
H	1954.72	-2.91565	1.33994
N	1953.35	-0.663336	0.762197
C	1952.38	0.193934	0.120774
C	1953.06	0.848527	-1.06811
O	1954.28	0.812929	-1.19402
H	1954.3	-0.46839	0.549194
H	1951.57	-0.412408	-0.256395
C	1951.85	1.2731	1.09253
H	1952.69	1.89286	1.47805
H	1951.11	1.93485	0.601917
H	1951.36	0.780764	1.95953
N	1952.27	1.44621	-1.98408
C	1952.83	2.08522	-3.15495
H	1951.28	1.45815	-1.86792
H	1952.02	2.5197	-3.78488
H	1953.39	1.3515	-3.77096
H	1953.52	2.90437	-2.86324
