44
  This energy is 8.8334e-320 and Call times are: 10233
C	1.0403	3.07141	-1.269
C	0.793775	1.61908	-1.4145
O	0.896757	1.0657	-2.50062
H	1.30375	3.50034	-2.26019
H	1.88133	3.24814	-0.565961
H	0.128444	3.57834	-0.888891
N	0.451233	0.961584	-0.304216
C	0.180021	-0.45367	-0.286118
C	-0.653968	-0.752534	0.944484
O	-0.768624	0.0787258	1.8432
H	0.342256	1.42905	0.569018
H	-0.412666	-0.709494	-1.15523
C	1.4873	-1.27656	-0.254634
H	2.09318	-1.01112	0.637871
H	1.28212	-2.36674	-0.240793
H	2.0897	-1.04777	-1.16068
N	-1.27662	-1.94623	1.00284
C	-2.10156	-2.31387	2.13
H	-1.1772	-2.60256	0.262176
H	-2.52399	-3.33358	1.99214
H	-2.94657	-1.59755	2.24864
H	-1.50667	-2.3051	3.07192
C	493.653	-2.10147	-2.06817
C	493.315	-1.5545	-0.734702
O	493.804	-2.02411	0.283748
H	494.365	-2.94629	-1.949
H	494.127	-1.31695	-2.69465
H	492.736	-2.47303	-2.57275
N	492.453	-0.535793	-0.712581
C	492.028	0.102215	0.507738
C	490.718	0.813534	0.229863
O	490.333	0.99442	-0.923895
H	492.039	-0.181141	-1.54696
H	491.837	-0.65817	1.25445
C	493.083	1.11114	1.01219
H	493.277	1.8894	0.243435
H	492.76	1.60412	1.95177
H	494.039	0.577912	1.21094
N	489.988	1.21614	1.28892
C	488.722	1.89081	1.12171
H	490.313	1.05413	2.21488
H	488.277	2.14253	2.10959
H	488.003	1.24496	0.567728
H	488.853	2.8351	0.54519
