44
  This energy is 1.44435e-319 and Call times are: 6327
C	-0.433196	-1.89151	2.89148
C	-0.232701	-0.598063	2.20011
O	-0.290104	0.460776	2.81008
H	-0.632894	-1.70491	3.96905
H	0.477223	-2.52023	2.79836
H	-1.30002	-2.42956	2.45323
N	0.0051579	-0.65775	0.887773
C	0.220903	0.514923	0.0783787
C	-0.0612834	0.143556	-1.36443
O	-0.159951	-1.03449	-1.70254
H	0.0205676	-1.52482	0.396976
H	-0.491202	1.27758	0.367048
C	1.66816	1.03715	0.219245
H	2.39608	0.252007	-0.0770676
H	1.83768	1.94015	-0.402557
H	1.86267	1.3046	1.28074
N	-0.220034	1.14787	-2.24883
C	-0.50321	0.890546	-3.64159
H	-0.143511	2.09477	-1.95428
H	-0.597099	1.84413	-4.20649
H	-1.45595	0.323394	-3.75052
H	0.312033	0.288004	-4.10365
C	307.361	-2.19288	1.98352
C	307.485	-1.2746	0.829216
O	306.587	-1.16737	0.0063107
H	306.378	-2.71142	1.93596
H	307.42	-1.62252	2.93429
H	308.17	-2.95277	1.95736
N	308.625	-0.585392	0.74012
C	308.894	0.34686	-0.325546
C	310.396	0.532746	-0.414495
O	311.132	0.143878	0.490307
H	309.362	-0.70322	1.40086
H	308.559	-0.0827164	-1.26139
C	308.204	1.70594	-0.0709623
H	308.549	2.14348	0.890208
H	308.409	2.4261	-0.889693
H	307.105	1.556	-0.00667666
N	310.889	1.11599	-1.52478
C	312.307	1.32389	-1.70294
H	310.278	1.41734	-2.24899
H	312.513	1.81862	-2.67775
H	312.852	0.35259	-1.68102
H	312.715	1.96735	-0.890165
