44
  This energy is 1.26629e-320 and Call times are: 92931
C	2.03022	-0.604296	-2.76391
C	1.0459	-1.04612	-1.75044
O	0.522487	-2.14985	-1.81608
H	2.16646	-1.40892	-3.51881
H	3.00811	-0.394763	-2.28158
H	1.66735	0.311534	-3.27628
N	0.764564	-0.175653	-0.778069
C	-0.171958	-0.460881	0.279476
C	-0.630398	0.86065	0.864818
O	-0.030233	1.90305	0.6098
H	1.1758	0.731615	-0.751887
H	-1.03953	-0.952602	-0.141954
C	0.470892	-1.33473	1.37959
H	1.36099	-0.827562	1.80928
H	-0.247529	-1.55637	2.19539
H	0.803519	-2.29927	0.937832
N	-1.72505	0.850052	1.65071
C	-2.24216	2.06191	2.24247
H	-2.20101	-0.00264476	1.83941
H	-3.14494	1.84608	2.85539
H	-2.52203	2.79633	1.45282
H	-1.47737	2.53595	2.89941
C	4399.36	1.79452	-2.55813
C	4400.19	0.66511	-2.0747
O	4400.54	-0.230771	-2.8302
H	4399.15	1.65719	-3.64065
H	4399.91	2.75296	-2.41718
H	4398.4	1.82982	-2.0047
N	4400.52	0.68168	-0.780702
C	4401.32	-0.346912	-0.163648
C	4401.06	-0.304469	1.32987
O	4400.49	0.656006	1.84174
H	4400.2	1.40195	-0.169116
H	4400.99	-1.31257	-0.526943
C	4402.82	-0.13792	-0.448628
H	4403.15	0.853953	-0.0752322
H	4403.44	-0.928274	0.0249214
H	4403	-0.16997	-1.54597
N	4401.46	-1.36197	2.06364
C	4401.24	-1.41539	3.491
H	4401.91	-2.13276	1.62983
H	4401.64	-2.36357	3.91347
H	4400.15	-1.35713	3.72744
H	4401.75	-0.5637	3.99716
