44
  This energy is 1.26239e-319 and Call times are: 17709
C	-2.69368	-2.18106	-0.336432
C	-2.09823	-0.827613	-0.405937
O	-2.72654	0.117145	-0.863266
H	-3.72361	-2.15107	-0.753812
H	-2.74335	-2.52344	0.718616
H	-2.08647	-2.89737	-0.928992
N	-0.849151	-0.70521	0.0492314
C	-0.135985	0.547076	0.047989
C	1.3468	0.238881	0.122915
O	1.74051	-0.886655	0.422899
H	-0.337475	-1.48834	0.392492
H	-0.319295	1.05546	-0.890106
C	-0.555168	1.4343	1.2414
H	-0.366371	0.909425	2.20212
H	-0.00805262	2.39941	1.24341
H	-1.6435	1.6519	1.17557
N	2.20755	1.23313	-0.17133
C	3.6371	1.02948	-0.138215
H	1.8692	2.13508	-0.41879
H	4.174	1.96535	-0.408645
H	3.93724	0.233015	-0.857103
H	3.96628	0.717888	0.879495
C	846.273	1.47713	2.78831
C	846.359	0.832271	1.45869
O	847.422	0.765351	0.856047
H	847.278	1.85208	3.08072
H	845.928	0.743866	3.54741
H	845.566	2.33281	2.75357
N	845.221	0.340888	0.96279
C	845.146	-0.314923	-0.318236
C	843.703	-0.26731	-0.781607
O	842.802	0.0338592	-0.00122963
H	844.357	0.427487	1.45051
H	845.739	0.240337	-1.03335
C	845.627	-1.78036	-0.229205
H	845.017	-2.3469	0.505781
H	845.57	-2.28826	-1.21389
H	846.685	-1.80161	0.112365
N	843.453	-0.544257	-2.07648
C	842.111	-0.512113	-2.61053
H	844.196	-0.778831	-2.69386
H	842.112	-0.770267	-3.69247
H	841.666	0.502201	-2.4927
H	841.458	-1.24016	-2.07695
