44
  This energy is 1.06866e-319 and Call times are: 96879
C	3.32524	-0.873824	-0.552555
C	2.21398	0.103602	-0.582996
O	2.41265	1.27887	-0.858246
H	4.27691	-0.355823	-0.801296
H	3.14824	-1.67766	-1.29777
H	3.41369	-1.32157	0.459693
N	1.00031	-0.369059	-0.289806
C	-0.179146	0.458943	-0.278147
C	-1.22707	-0.234825	0.57025
O	-1.09397	-1.41342	0.894348
H	0.855913	-1.3225	-0.038745
H	0.0577292	1.40206	0.197761
C	-0.719424	0.688477	-1.70732
H	-0.960773	-0.281132	-2.19283
H	-1.6275	1.32577	-1.70202
H	0.0579161	1.19619	-2.31897
N	-2.28941	0.491836	0.969507
C	-3.33144	-0.0808013	1.78953
H	-2.37543	1.44613	0.702768
H	-4.11771	0.674351	2.01036
H	-2.91474	-0.445832	2.75615
H	-3.80948	-0.943719	1.27181
C	4587.24	-3.05869	-0.170027
C	4588.18	-2.12166	0.486866
O	4588.66	-2.37276	1.58343
H	4587.09	-3.94094	0.487502
H	4587.66	-3.40328	-1.13896
H	4586.27	-2.56123	-0.34583
N	4588.46	-0.999291	-0.1793
C	4589.36	0.00844744	0.329695
C	4589.05	1.31065	-0.382233
O	4588.35	1.32284	-1.39312
H	4588.04	-0.792778	-1.05873
H	4589.16	0.154678	1.38405
C	4590.84	-0.383397	0.0995885
H	4591.04	-0.533278	-0.983023
H	4591.53	0.390302	0.490462
H	4591.05	-1.33936	0.625114
N	4589.55	2.446	0.145291
C	4589.29	3.73407	-0.457043
H	4590.11	2.41605	0.967936
H	4589.79	4.54358	0.122215
H	4588.2	3.94506	-0.487802
H	4589.68	3.76249	-1.50151
