44
  This energy is 1.31204e-319 and Call times are: 41439
C	1.29961	-3.08268	0.966536
C	1.05288	-2.03501	-0.0496896
O	1.55634	-2.1022	-1.16257
H	1.97632	-3.85516	0.540851
H	0.343114	-3.5647	1.2591
H	1.77972	-2.63965	1.8644
N	0.263267	-1.02412	0.320414
C	-0.0695832	0.0694546	-0.557155
C	-0.511766	1.23815	0.301829
O	-0.780711	1.07802	1.49089
H	-0.117329	-0.965923	1.23949
H	0.820309	0.373584	-1.0935
C	-1.19419	-0.32168	-1.54173
H	-2.10536	-0.633778	-0.988135
H	-1.45285	0.518037	-2.21904
H	-0.858321	-1.17948	-2.16424
N	-0.576234	2.45214	-0.279615
C	-0.97556	3.62516	0.462505
H	-0.347723	2.56244	-1.24131
H	-0.967861	4.52534	-0.190849
H	-0.281981	3.80533	1.31558
H	-2.00325	3.4991	0.873781
C	1963.96	-0.659218	1.74447
C	1965.35	-0.167341	1.68352
O	1965.87	0.389059	2.6425
H	1963.53	-0.428409	2.74439
H	1963.93	-1.75814	1.5878
H	1963.34	-0.160954	0.966524
N	1966	-0.360473	0.531857
C	1967.36	0.0619721	0.319871
C	1967.59	0.168983	-1.17552
O	1966.79	-0.320239	-1.96961
H	1965.56	-0.788994	-0.251858
H	1967.49	1.04919	0.744137
C	1968.36	-0.9377	0.939243
H	1968.23	-1.94956	0.502229
H	1969.41	-0.61539	0.777977
H	1968.19	-1.00795	2.03455
N	1968.68	0.834839	-1.59559
C	1968.98	0.997788	-3.00068
H	1969.32	1.22974	-0.93747
H	1969.92	1.57177	-3.14244
H	1968.15	1.54534	-3.51244
H	1969.09	0.00641967	-3.4957
