44
  This energy is 7.06909e-320 and Call times are: 3513
C	0.503494	3.03801	-1.62576
C	-0.0901443	2.22539	-0.5402
O	-0.690618	2.75066	0.38717
H	0.308992	4.1144	-1.42719
H	0.0484704	2.76457	-2.60095
H	1.60068	2.87343	-1.67104
N	0.0733409	0.903548	-0.631683
C	-0.446726	-0.0179301	0.346701
C	0.335797	-1.31153	0.230557
O	1.05406	-1.52636	-0.74401
H	0.589596	0.489776	-1.37681
H	-0.27225	0.384312	1.33657
C	-1.95187	-0.285601	0.123062
H	-2.12732	-0.697557	-0.893611
H	-2.35558	-0.994618	0.874784
H	-2.51381	0.669854	0.20954
N	0.230563	-2.1985	1.23962
C	0.948033	-3.45194	1.2218
H	-0.350264	-2.00314	2.02301
H	0.729333	-4.04329	2.13816
H	2.04691	-3.27496	1.17285
H	0.656282	-4.05926	0.334542
C	176.138	2.05486	2.65014
C	175.222	1.07501	2.0239
O	174.303	0.574387	2.65676
H	175.84	2.21089	3.70977
H	176.084	3.02605	2.11478
H	177.182	1.67589	2.62215
N	175.462	0.771572	0.746113
C	174.658	-0.163876	0.000676561
C	175.482	-0.651724	-1.17555
O	176.515	-0.0716352	-1.50318
H	176.232	1.16421	0.249969
H	174.442	-1.01934	0.627769
C	173.352	0.49144	-0.500541
H	173.578	1.36907	-1.14299
H	172.731	-0.22612	-1.0748
H	172.759	0.8456	0.370431
N	175.051	-1.74957	-1.82757
C	175.776	-2.29389	-2.95189
H	174.216	-2.20902	-1.54271
H	175.262	-3.19494	-3.35268
H	176.808	-2.58492	-2.65001
H	175.855	-1.54192	-3.77015
