44
  This energy is 1.3905e-319 and Call times are: 35853
C	-2.01465	-2.8052	0.445143
C	-0.716248	-2.10369	0.560176
O	0.224523	-2.60816	1.15763
H	-1.95213	-3.78227	0.971726
H	-2.25771	-2.98747	-0.622809
H	-2.82033	-2.19792	0.908854
N	-0.638834	-0.901371	-0.014983
C	0.557133	-0.0977614	0.0115444
C	0.156994	1.34179	-0.246948
O	-0.961505	1.6156	-0.678014
H	-1.42123	-0.488653	-0.473744
H	0.991341	-0.145676	1.00212
C	1.57333	-0.566206	-1.05383
H	1.12437	-0.516403	-2.06876
H	2.49546	0.0503327	-1.03606
H	1.8575	-1.62237	-0.854067
N	1.06048	2.30164	0.0330786
C	0.764125	3.70064	-0.169766
H	1.95771	2.06027	0.38797
H	1.63368	4.33236	0.116683
H	-0.111617	4.00996	0.445569
H	0.522657	3.90028	-1.23888
C	1706.79	0.197457	-1.59414
C	1705.38	-0.256107	-1.53569
O	1704.85	-0.802231	-2.49406
H	1707.21	-0.0370722	-2.59632
H	1707.39	-0.324169	-0.820941
H	1706.85	1.29398	-1.42853
N	1704.73	-0.0300015	-0.391016
C	1703.36	-0.4137	-0.181987
C	1702.81	0.424615	0.955536
O	1703.56	1.06712	1.68432
H	1705.17	0.441964	0.372308
H	1702.79	-0.176865	-1.07095
C	1703.24	-1.91584	0.15951
H	1703.83	-2.15543	1.07159
H	1702.18	-2.21471	0.320938
H	1703.65	-2.51901	-0.680997
N	1701.47	0.454383	1.12032
C	1700.86	1.23425	2.16907
H	1700.88	-0.066753	0.515748
H	1699.75	1.12723	2.14126
H	1701.11	2.31372	2.05444
H	1701.22	0.900617	3.16935
