44
  This energy is 6.05527e-320 and Call times are: 82053
C	-2.94843	0.342232	1.82093
C	-1.50492	0.601589	1.62038
O	-0.893862	1.37286	2.34718
H	-3.31386	0.944759	2.68075
H	-3.11726	-0.733427	2.03835
H	-3.51884	0.629396	0.912576
N	-0.92138	-0.0444115	0.608185
C	0.475789	0.104283	0.287815
C	0.670888	-0.321003	-1.15451
O	-0.208645	-0.938113	-1.75237
H	-1.43648	-0.647769	0.00521742
H	0.744257	1.1505	0.361454
C	1.36086	-0.753897	1.2191
H	1.08229	-1.82651	1.14154
H	2.4373	-0.641652	0.975274
H	1.2079	-0.43335	2.27267
N	1.82737	0.0207144	-1.756
C	2.09666	-0.330743	-3.13082
H	2.5238	0.526359	-1.25747
H	3.09939	0.0369877	-3.44155
H	1.33371	0.117661	-3.80764
H	2.07112	-1.43628	-3.26616
C	3890.34	-2.05315	-1.55678
C	3889.76	-1.43097	-0.348453
O	3890.13	-1.74858	0.771901
H	3891.11	-2.79701	-1.25111
H	3890.82	-1.27896	-2.19007
H	3889.55	-2.57061	-2.14231
N	3888.8	-0.519504	-0.554204
C	3888.14	0.17262	0.520919
C	3886.82	0.702016	-0.0102403
O	3886.6	0.733693	-1.21893
H	3888.49	-0.290569	-1.47074
H	3887.91	-0.53454	1.30962
C	3889	1.33656	1.05864
H	3889.23	2.05977	0.246767
H	3888.49	1.87156	1.88669
H	3889.96	0.935787	1.44366
N	3885.9	1.11201	0.888405
C	3884.62	1.62008	0.476176
H	3886.1	1.07179	1.86249
H	3884	1.90688	1.36032
H	3884.06	0.84934	-0.101583
H	3884.74	2.51764	-0.172618
