44
  This energy is 1.52459e-319 and Call times are: 24681
C	-2.02436	0.452889	-2.79696
C	-1.03707	0.947171	-1.81098
O	-0.505124	2.04092	-1.94229
H	-2.15408	1.21178	-3.59891
H	-3.00404	0.28021	-2.30377
H	-1.66837	-0.494807	-3.25313
N	-0.762867	0.134504	-0.787874
C	0.175399	0.47549	0.251459
C	0.623379	-0.812008	0.915464
O	0.0152825	-1.86319	0.722949
H	-1.18111	-0.766368	-0.707642
H	1.04692	0.934344	-0.19797
C	-0.461128	1.41871	1.29658
H	-1.35529	0.945109	1.75516
H	0.258651	1.6834	2.09823
H	-0.786115	2.35753	0.797438
N	1.71776	-0.762669	1.70026
C	2.22525	-1.94076	2.36414
H	2.20021	0.0961325	1.83785
H	3.12942	-1.69548	2.96378
H	2.49976	-2.72338	1.62023
H	1.45656	-2.36862	3.04767
C	1179.29	0.108059	0.809365
C	1177.85	0.13822	1.18857
O	1177.51	0.12584	2.36257
H	1179.91	0.0685547	1.72922
H	1179.55	1.02179	0.236081
H	1179.5	-0.789699	0.19181
N	1176.98	0.173157	0.184373
C	1175.55	0.205837	0.394118
C	1174.88	-0.277904	-0.877618
O	1175.52	-0.371956	-1.92588
H	1177.27	0.153455	-0.768237
H	1175.29	-0.488305	1.18472
C	1175.07	1.63125	0.740622
H	1175.33	2.34088	-0.0722522
H	1173.97	1.65998	0.902912
H	1175.56	1.97449	1.67332
N	1173.58	-0.618452	-0.808198
C	1172.86	-1.10082	-1.96515
H	1173.08	-0.542086	0.0509979
H	1171.8	-1.32564	-1.70606
H	1173.33	-2.03115	-2.35905
H	1172.87	-0.339208	-2.77822
