44
  This energy is 2.57062e-320 and Call times are: 31695
C	-3.24061	0.41046	1.2067
C	-2.27234	-0.166473	0.247107
O	-2.61738	-1.00828	-0.570701
H	-4.23976	-0.0477528	1.04057
H	-3.3193	1.50791	1.05762
H	-2.91807	0.201432	2.24844
N	-1.01636	0.278046	0.332425
C	0.0381468	-0.187956	-0.532264
C	1.36145	0.100626	0.149515
O	1.41835	0.857798	1.11662
H	-0.741475	0.942613	1.02215
H	-0.0470621	-1.26141	-0.644087
C	-0.0135227	0.510759	-1.90931
H	0.073485	1.6119	-1.79081
H	0.796979	0.154162	-2.57766
H	-0.988118	0.292583	-2.39788
N	2.45907	-0.517676	-0.328956
C	3.7603	-0.313195	0.263648
H	2.39126	-1.13234	-1.10795
H	4.53387	-0.906697	-0.271694
H	3.75806	-0.624245	1.33345
H	4.04877	0.761893	0.21729
C	1504.93	3.39382	-0.106928
C	1505.62	2.19862	-0.641612
O	1506.22	2.23869	-1.70648
H	1505.06	4.24051	-0.815606
H	1505.36	3.67808	0.875379
H	1503.84	3.18789	0.0127482
N	1505.54	1.08903	0.0967279
C	1506.16	-0.152738	-0.290879
C	1505.46	-1.27432	0.453813
O	1504.72	-1.03192	1.40457
H	1505.02	1.06133	0.948148
H	1506	-0.310954	-1.34972
C	1507.67	-0.154568	0.0387369
H	1507.83	0.00865767	1.12566
H	1508.15	-1.10921	-0.25856
H	1508.17	0.672227	-0.511919
N	1505.67	-2.53412	0.0217788
C	1505.04	-3.66476	0.661317
H	1506.27	-2.7091	-0.753778
H	1505.33	-4.61411	0.162357
H	1503.93	-3.57386	0.613813
H	1505.33	-3.72555	1.73368
