44
  This energy is 5.06121e-320 and Call times are: 62691
C	3.0617	-1.61792	-0.366687
C	1.82321	-1.3321	0.392042
O	1.54634	-1.95399	1.40845
H	3.61856	-2.43894	0.135013
H	3.70659	-0.714717	-0.400656
H	2.81243	-1.93291	-1.40187
N	1.03585	-0.371756	-0.098019
C	-0.201554	0.0199275	0.528267
C	-1.05418	0.712199	-0.517213
O	-0.565822	1.07881	-1.58442
H	1.25795	0.107586	-0.942908
H	-0.730609	-0.868723	0.848383
C	0.0478909	0.967519	1.72282
H	0.591399	1.87779	1.39097
H	-0.902807	1.27095	2.20747
H	0.674477	0.44911	2.48097
N	-2.36145	0.888028	-0.241276
C	-3.25295	1.52647	-1.18138
H	-2.7392	0.577958	0.624976
H	-4.28541	1.57891	-0.770861
H	-3.28521	0.959143	-2.13968
H	-2.91145	2.56305	-1.40516
C	2976.22	-0.629961	-0.0253423
C	2975.05	0.153817	0.414906
O	2975.15	1.02962	1.26253
H	2977.12	-0.286937	0.531102
H	2976.4	-0.483212	-1.11234
H	2976.06	-1.70921	0.180805
N	2973.88	-0.154115	-0.157785
C	2972.65	0.519835	0.166023
C	2971.5	-0.385181	-0.240121
O	2971.7	-1.35684	-0.968303
H	2973.81	-0.889388	-0.825829
H	2972.6	0.658188	1.23841
C	2972.54	1.87604	-0.566132
H	2972.6	1.73046	-1.66601
H	2971.59	2.39772	-0.318934
H	2973.39	2.52931	-0.260983
N	2970.28	-0.0971266	0.242591
C	2969.13	-0.909443	-0.0804234
H	2970.14	0.689419	0.836207
H	2968.21	-0.50936	0.410324
H	2969.28	-1.95859	0.262543
H	2968.96	-0.927394	-1.18102
