44
  This energy is 1.55403e-319 and Call times are: 73275
C	-1.80746	-0.580318	-2.91933
C	-0.545701	-0.593224	-2.14537
O	0.469704	-1.10241	-2.59944
H	-1.64503	-1.0877	-3.89505
H	-2.13024	0.465278	-3.10737
H	-2.60357	-1.11817	-2.36268
N	-0.585813	-0.0283113	-0.936389
C	0.560711	0.0370132	-0.0657316
C	0.0592269	0.242967	1.35037
O	-1.10571	0.574096	1.56275
H	-1.42663	0.357259	-0.565854
H	1.08003	-0.912444	-0.0959567
C	1.50694	1.1905	-0.467272
H	0.970765	2.16294	-0.435828
H	2.3909	1.24357	0.200989
H	1.86639	1.02852	-1.50684
N	0.927651	0.0289752	2.35836
C	0.536455	0.188797	3.73952
H	1.86414	-0.24545	2.16624
H	1.39022	-0.0304636	4.41795
H	-0.299549	-0.502431	3.99357
H	0.193574	1.23102	3.93285
C	3473.3	1.49439	0.529384
C	3474.18	0.550759	-0.191202
O	3473.73	-0.234482	-1.01428
H	3472.25	1.34117	0.196782
H	3473.6	2.54125	0.309346
H	3473.36	1.31561	1.62363
N	3475.48	0.605043	0.112957
C	3476.47	-0.248762	-0.503836
C	3477.68	-0.296026	0.405955
O	3477.81	0.511992	1.32372
H	3475.83	1.22912	0.806426
H	3476.07	-1.2528	-0.572507
C	3476.87	0.275516	-1.89998
H	3477.28	1.30598	-1.82591
H	3477.63	-0.37965	-2.37781
H	3475.97	0.306489	-2.55647
N	3478.59	-1.26408	0.183971
C	3479.77	-1.39434	1.00663
H	3478.46	-1.91285	-0.559305
H	3480.39	-2.2481	0.664564
H	3479.49	-1.56933	2.07063
H	3480.39	-0.467275	0.959831
