44
  This energy is 1.91105e-320 and Call times are: 118803
C	3.03829	1.70001	0.0699221
C	1.60125	1.61634	-0.275207
O	0.99696	2.58811	-0.707635
H	3.40304	2.73215	-0.123723
H	3.62301	0.989717	-0.5517
H	3.18865	1.46125	1.14386
N	1.01296	0.433514	-0.0823502
C	-0.378768	0.196319	-0.371592
C	-0.819382	-1.01779	0.422786
O	0.0085243	-1.75832	0.950067
H	1.50897	-0.342564	0.297929
H	-0.958979	1.043	-0.0272564
C	-0.606509	-0.0448435	-1.8806
H	-0.00928565	-0.913704	-2.23063
H	-1.6771	-0.227669	-2.10684
H	-0.278738	0.851162	-2.45146
N	-2.14322	-1.23806	0.545031
C	-2.6563	-2.36225	1.29278
H	-2.79744	-0.623285	0.116932
H	-3.76843	-2.37178	1.27492
H	-2.32325	-2.31263	2.35479
H	-2.29037	-3.3217	0.860667
C	5622.9	-2.06391	1.6068
C	5623.23	-0.965478	0.671636
O	5622.37	-0.453119	-0.0326283
H	5621.82	-2.29787	1.52873
H	5623.13	-1.76001	2.65015
H	5623.48	-2.97355	1.35136
N	5624.51	-0.578565	0.640704
C	5624.99	0.477047	-0.216934
C	5626.48	0.300441	-0.38589
O	5627.11	-0.455551	0.350545
H	5625.21	-1.02351	1.19812
H	5624.53	0.370259	-1.19297
C	5624.68	1.86859	0.380297
H	5625.15	1.97447	1.38185
H	5625.05	2.68372	-0.27762
H	5623.58	1.98503	0.500187
N	5627.08	0.982178	-1.38058
C	5628.5	0.867593	-1.62472
H	5626.56	1.58348	-1.97034
H	5628.81	1.50611	-2.48324
H	5628.78	-0.18673	-1.85747
H	5629.08	1.18567	-0.728301
