44
  This energy is 5.23314e-320 and Call times are: 32661
C	3.15517	-0.400078	1.41809
C	2.25623	0.144044	0.375477
O	2.66438	0.939803	-0.459195
H	4.1705	0.0344161	1.29089
H	3.22288	-1.50454	1.32646
H	2.77501	-0.135821	2.42735
N	0.989622	-0.276834	0.405973
C	-0.00302595	0.162412	-0.541941
C	-1.36952	-0.0727207	0.0717661
O	-1.49745	-0.781042	1.06863
H	0.662297	-0.90287	1.10873
H	0.10794	1.22776	-0.699416
C	0.117946	-0.603118	-1.87852
H	0.00429143	-1.69576	-1.71319
H	-0.644816	-0.267265	-2.61076
H	1.12365	-0.423655	-2.31727
N	-2.42545	0.538052	-0.500925
C	-3.76309	0.382244	0.0211982
H	-2.30038	1.11302	-1.3028
H	-4.49266	0.960604	-0.587474
H	-3.81894	0.744863	1.07316
H	-4.06755	-0.68936	0.00877889
C	1553.37	-2.39245	-1.89769
C	1553.1	-1.71156	-0.61311
O	1553.57	-2.12455	0.437038
H	1554.03	-3.27067	-1.71325
H	1553.89	-1.69867	-2.59455
H	1552.43	-2.74234	-2.35873
N	1552.3	-0.638157	-0.670274
C	1551.94	0.129508	0.49461
C	1550.68	0.902259	0.169809
O	1550.29	1.00957	-0.991231
H	1551.9	-0.328815	-1.52788
H	1551.71	-0.549365	1.30623
C	1553.07	1.10342	0.898952
H	1553.3	1.79796	0.0637946
H	1552.8	1.69599	1.79566
H	1553.99	0.525152	1.13319
N	1550	1.44294	1.19756
C	1548.77	2.18575	0.985712
H	1550.32	1.33898	2.13065
H	1548.36	2.55091	1.95267
H	1548	1.54549	0.497147
H	1548.96	3.06605	0.32835
