44
  This energy is 3.955e-320 and Call times are: 2337
C	3.11427	-0.308055	-1.52726
C	1.77286	-0.834506	-1.18864
O	1.36319	-1.8806	-1.67274
H	3.60834	-0.996857	-2.24651
H	3.73897	-0.235521	-0.61221
H	3.02509	0.695477	-1.99407
N	1.04632	-0.104342	-0.339313
C	-0.276832	-0.48594	0.085521
C	-0.981511	0.758652	0.589164
O	-0.350125	1.78767	0.82221
H	1.37965	0.760925	0.0255655
H	-0.828994	-0.852996	-0.770318
C	-0.22341	-1.55415	1.20051
H	0.344326	-1.17452	2.07668
H	-1.24054	-1.85037	1.52987
H	0.296129	-2.46023	0.819397
N	-2.31831	0.698851	0.748519
C	-3.07573	1.83797	1.21209
H	-2.81211	-0.140842	0.547753
H	-4.15788	1.58964	1.27942
H	-2.95644	2.69903	0.51525
H	-2.72611	2.15861	2.22013
C	118.711	1.88345	-2.88787
C	118.333	1.48732	-1.51268
O	117.453	2.07983	-0.903147
H	118.09	2.74933	-3.20466
H	118.538	1.04095	-3.59001
H	119.781	2.17761	-2.92082
N	119.006	0.462218	-0.984564
C	118.751	-0.0389512	0.342469
C	119.981	-0.801477	0.796045
O	120.855	-1.12087	-0.0080223
H	119.74	0.00643544	-1.48034
H	118.617	0.798615	1.01515
C	117.514	-0.963594	0.367017
H	117.655	-1.82139	-0.324676
H	117.315	-1.35114	1.38736
H	116.62	-0.393569	0.0315913
N	120.087	-1.09299	2.10743
C	121.228	-1.80559	2.63299
H	119.373	-0.81964	2.74337
H	121.13	-1.95018	3.73146
H	122.169	-1.24106	2.4367
H	121.321	-2.80733	2.15428
