44
  This energy is 8.73953e-320 and Call times are: 64119
C	0.345987	-3.39853	-0.6756
C	0.0787437	-2.27651	0.252224
O	-0.294471	-2.47951	1.39939
H	0.146357	-4.36062	-0.155608
H	1.40692	-3.38017	-1.00257
H	-0.315701	-3.3263	-1.56436
N	0.261847	-1.04728	-0.235462
C	0.0431373	0.144029	0.545419
C	-0.168236	1.2983	-0.414902
O	0.109446	1.183	-1.60714
H	0.538061	-0.894329	-1.18058
H	-0.865547	0.0250444	1.1218
C	1.24386	0.437265	1.47245
H	2.17449	0.558094	0.87793
H	1.07872	1.35383	2.07528
H	1.38891	-0.416149	2.17016
N	-0.688536	2.4377	0.0821354
C	-0.935936	3.58541	-0.759142
H	-0.913306	2.50891	1.04839
H	-1.36357	4.42325	-0.16551
H	-1.65386	3.32944	-1.57174
H	0.00948638	3.93732	-1.23191
C	3038.61	-1.04291	-2.49614
C	3039.91	-1.10178	-1.80395
O	3040.75	-1.95068	-2.09403
H	3038.55	-1.85787	-3.25037
H	3038.49	-0.0669733	-3.01286
H	3037.78	-1.17442	-1.76599
N	3040.12	-0.188088	-0.853303
C	3041.35	-0.117443	-0.0925035
C	3041.05	0.639815	1.18837
O	3040.01	1.28289	1.31533
H	3039.43	0.479974	-0.606169
H	3041.65	-1.12034	0.180096
C	3042.46	0.594222	-0.887614
H	3042.15	1.62255	-1.16621
H	3043.41	0.650218	-0.304785
H	3042.67	0.0304249	-1.82402
N	3041.96	0.562307	2.18106
C	3041.76	1.24037	3.44091
H	3042.79	0.0309621	2.06162
H	3042.62	1.05641	4.12548
H	3040.83	0.880789	3.93876
H	3041.67	2.33943	3.28511
