44
  This energy is 1.36935e-319 and Call times are: 6033
C	-0.912801	-0.032571	-3.36034
C	-1.13608	-0.412479	-1.94718
O	-2.16388	-0.97704	-1.59876
H	-1.7946	-0.335415	-3.9658
H	-0.0114454	-0.545738	-3.75662
H	-0.779165	1.0665	-3.4448
N	-0.163009	-0.0998721	-1.08824
C	-0.234456	-0.404575	0.318491
C	0.730137	0.513544	1.04365
O	1.57753	1.15211	0.422374
H	0.65674	0.386108	-1.37939
H	-1.23182	-0.182641	0.676369
C	0.128899	-1.88089	0.593419
H	1.15243	-2.10528	0.224418
H	0.0747492	-2.11896	1.67562
H	-0.584236	-2.54311	0.0557811
N	0.608018	0.617412	2.38167
C	1.47433	1.47618	3.1551
H	-0.0886934	0.0979386	2.86538
H	1.21765	1.42294	4.23609
H	1.37587	2.53516	2.82325
H	2.53944	1.17348	3.03223
C	295.135	-2.91386	-1.90562
C	294.498	-1.94793	-0.982521
O	293.314	-2.03982	-0.689452
H	294.378	-3.6553	-2.24144
H	295.959	-3.4502	-1.38924
H	295.539	-2.3848	-2.79442
N	295.283	-0.980977	-0.50158
C	294.808	0.0319816	0.40678
C	295.759	1.21055	0.328894
O	296.856	1.09847	-0.215628
H	296.239	-0.899684	-0.770726
H	293.835	0.37222	0.0766319
C	294.739	-0.499719	1.85577
H	295.739	-0.848534	2.191
H	294.373	0.27766	2.55781
H	294.04	-1.36344	1.89919
N	295.348	2.38083	0.85606
C	296.181	3.5603	0.817824
H	294.455	2.45319	1.28607
H	295.669	4.41963	1.30354
H	296.416	3.84149	-0.234329
H	297.143	3.37963	1.34985
