44
  This energy is 9.1748e-321 and Call times are: 25311
C	-1.17117	-0.580007	-3.2277
C	-0.0694922	-0.399521	-2.25563
O	1.09596	-0.582532	-2.57925
H	-0.748912	-0.891904	-4.20764
H	-1.72334	0.373934	-3.36161
H	-1.87111	-1.36506	-2.87171
N	-0.42218	-0.0358355	-1.02043
C	0.535666	0.178731	0.0347077
C	-0.194359	0.0582418	1.35826
O	-1.42312	0.0683375	1.40158
H	-1.37718	0.0818222	-0.761442
H	1.28135	-0.605273	-0.00221609
C	1.19863	1.56943	-0.0816686
H	0.430728	2.37132	-0.0441033
H	1.93685	1.73788	0.729159
H	1.72902	1.64544	-1.05587
N	0.550542	-0.0812719	2.47256
C	-0.057269	-0.214842	3.77598
H	1.54345	-0.0942981	2.41593
H	0.720929	-0.316704	4.56419
H	-0.71357	-1.11436	3.81311
H	-0.680959	0.677576	4.01216
C	1206.88	-1.47919	2.53371
C	1206.77	-0.704572	1.27691
O	1207.75	-0.183785	0.768482
H	1207.93	-1.47563	2.87775
H	1206.56	-2.52908	2.36462
H	1206.24	-1.02203	3.32099
N	1205.55	-0.606048	0.743925
C	1205.28	0.114162	-0.476046
C	1203.81	0.461505	-0.50177
O	1203.02	-0.074879	0.277219
H	1204.75	-1.01026	1.18319
H	1205.84	1.04283	-0.463927
C	1205.65	-0.727972	-1.71764
H	1205.08	-1.68023	-1.72653
H	1205.45	-0.176353	-2.65874
H	1206.74	-0.976823	-1.68633
N	1203.4	1.38936	-1.38962
C	1202.02	1.79258	-1.47846
H	1204.05	1.81715	-2.00665
H	1201.88	2.56334	-2.26899
H	1201.67	2.21926	-0.509867
H	1201.37	0.920634	-1.72434
