44
  This energy is 4.11112e-320 and Call times are: 68949
C	0.28515	-0.358318	3.45202
C	0.219234	-0.924107	2.08573
O	0.416326	-2.11444	1.88383
H	0.533772	-1.16724	4.17292
H	-0.694758	0.0829929	3.73103
H	1.07112	0.42425	3.50484
N	-0.058628	-0.0661005	1.10136
C	-0.156948	-0.46611	-0.279636
C	0.0415338	0.768345	-1.13752
O	-0.00737752	1.89262	-0.642103
H	-0.188427	0.906473	1.27511
H	0.646936	-1.15557	-0.504343
C	-1.52887	-1.10878	-0.582796
H	-2.35129	-0.398999	-0.350514
H	-1.60791	-1.4181	-1.64527
H	-1.66257	-2.01119	0.0527565
N	0.293306	0.584577	-2.44857
C	0.507447	1.70026	-3.34052
H	0.335989	-0.333357	-2.8291
H	0.697344	1.34422	-4.37706
H	1.38402	2.30392	-3.01119
H	-0.384673	2.36737	-3.35676
C	3268.33	-0.784591	-2.68912
C	3268.66	0.0158763	-1.48708
O	3267.99	0.990715	-1.1761
H	3267.44	-0.34518	-3.19416
H	3268.1	-1.83125	-2.40045
H	3269.19	-0.777888	-3.3964
N	3269.71	-0.38279	-0.777319
C	3270.15	0.293564	0.4167
C	3271.61	-0.0707965	0.649732
O	3272.13	-1.00543	0.0422732
H	3270.27	-1.16123	-1.05722
H	3270.11	1.36274	0.253811
C	3269.3	-0.112552	1.63977
H	3269.35	-1.21008	1.80357
H	3269.64	0.40652	2.56085
H	3268.24	0.158562	1.45608
N	3272.31	0.677961	1.52492
C	3273.7	0.413037	1.80192
H	3271.87	1.43453	2.00117
H	3274.1	1.13528	2.54912
H	3274.31	0.500008	0.872938
H	3273.83	-0.616958	2.20568
