44
  This energy is 1.34608e-319 and Call times are: 98013
C	-2.38928	-0.531914	2.4768
C	-2.00204	-0.346812	1.06012
O	-2.81528	-0.4922	0.157897
H	-3.46448	-0.809287	2.53043
H	-2.23267	0.410574	3.04249
H	-1.78556	-1.3429	2.93591
N	-0.727466	-0.0220462	0.83133
C	-0.200872	0.19145	-0.493036
C	1.30443	0.020589	-0.429021
O	1.88911	-0.00170658	0.652409
H	-0.0676887	0.0649517	1.57299
H	-0.590781	-0.572163	-1.15405
C	-0.553704	1.601	-1.01818
H	-0.152767	2.38191	-0.337337
H	-0.149878	1.76869	-2.03778
H	-1.65901	1.71392	-1.05923
N	1.9669	-0.126631	-1.59326
C	3.39949	-0.306964	-1.62992
H	1.47494	-0.112961	-2.45757
H	3.75643	-0.407865	-2.67857
H	3.69456	-1.22356	-1.06954
H	3.91723	0.563317	-1.16544
C	4640.73	2.69595	0.384342
C	4641.21	1.34446	0.756566
O	4640.75	0.758112	1.72778
H	4639.95	3.02517	1.1097
H	4640.29	2.6785	-0.633173
H	4641.57	3.41818	0.407045
N	4642.15	0.815584	-0.0185863
C	4642.72	-0.490235	0.215668
C	4644.06	-0.548956	-0.479806
O	4644.38	0.305412	-1.30438
H	4642.54	1.31524	-0.789797
H	4642.89	-0.613722	1.27729
C	4641.79	-1.60576	-0.321131
H	4641.62	-1.47563	-1.41035
H	4642.22	-2.61256	-0.142266
H	4640.81	-1.55121	0.195313
N	4644.9	-1.55345	-0.144635
C	4646.2	-1.68342	-0.745807
H	4644.62	-2.23089	0.530098
H	4646.74	-2.57242	-0.34132
H	4646.82	-0.780375	-0.539372
H	4646.12	-1.79836	-1.85066
