44
  This energy is 5.8359e-320 and Call times are: 62985
C	-1.22328	0.470685	3.22617
C	-1.16558	0.828425	1.79093
O	-1.93118	1.65461	1.31369
H	-2.03389	1.05177	3.71722
H	-0.258426	0.712114	3.71971
H	-1.43665	-0.612785	3.34241
N	-0.243664	0.198213	1.05931
C	-0.0654607	0.439461	-0.350252
C	0.651564	-0.758906	-0.941041
O	1.19408	-1.58839	-0.213405
H	0.354768	-0.494112	1.45365
H	-1.03785	0.506182	-0.821503
C	0.753115	1.72546	-0.601754
H	1.74981	1.65386	-0.116369
H	0.892082	1.9143	-1.6861
H	0.217862	2.59571	-0.163221
N	0.651294	-0.888749	-2.28236
C	1.29836	-2.00375	-2.93372
H	0.200606	-0.210691	-2.85363
H	1.18972	-1.93092	-4.03832
H	0.850066	-2.96764	-2.60025
H	2.38499	-2.02536	-2.68886
C	2986.45	1.44909	-3.14738
C	2985.89	0.79173	-1.94763
O	2984.68	0.6855	-1.79523
H	2985.62	1.79312	-3.80289
H	2987.09	0.733265	-3.71362
H	2987.06	2.32717	-2.85052
N	2986.77	0.334156	-1.05262
C	2986.37	-0.328476	0.164057
C	2987.52	-0.237123	1.14232
O	2988.64	0.0992831	0.762827
H	2987.75	0.452706	-1.17432
H	2985.53	0.201631	0.595764
C	2986.01	-1.80818	-0.0936751
H	2986.87	-2.34885	-0.537174
H	2985.7	-2.32136	0.841047
H	2985.16	-1.86149	-0.812637
N	2987.27	-0.51549	2.43628
C	2988.31	-0.443451	3.44131
H	2986.36	-0.778949	2.72478
H	2987.9	-0.709661	4.44251
H	2988.73	0.585773	3.49667
H	2989.14	-1.14567	3.20103
