44
  This energy is 8.69259e-320 and Call times are: 96039
C	2.8948	-1.5088	1.21235
C	1.97848	-0.351481	1.10199
O	2.14593	0.654573	1.7775
H	3.67845	-1.28597	1.96872
H	3.38397	-1.70402	0.234898
H	2.33375	-2.41228	1.53156
N	0.969367	-0.474505	0.236589
C	-0.00402848	0.565463	0.0179681
C	-1.23968	-0.0725346	-0.586482
O	-1.20046	-1.21612	-1.0365
H	0.826792	-1.31048	-0.286623
H	-0.286559	0.989414	0.973225
C	0.544136	1.65979	-0.924942
H	0.833623	1.22128	-1.90373
H	-0.202776	2.46221	-1.09531
H	1.44969	2.1185	-0.47139
N	-2.37755	0.649433	-0.590529
C	-3.60646	0.119957	-1.13423
H	-2.39068	1.5704	-0.215195
H	-4.42805	0.864711	-1.04715
H	-3.91118	-0.80326	-0.59012
H	-3.48064	-0.139203	-2.21042
C	4545.88	1.59164	-0.707281
C	4546.75	0.769492	0.170153
O	4546.39	0.459967	1.29853
H	4544.95	1.84308	-0.167564
H	4545.63	1.02819	-1.62928
H	4546.4	2.53353	-0.982142
N	4547.93	0.397393	-0.336844
C	4548.87	-0.404046	0.395143
C	4550.24	-0.197161	-0.23003
O	4550.35	0.3406	-1.32998
H	4548.22	0.680384	-1.24665
H	4548.92	-0.0472849	1.41616
C	4548.49	-1.90095	0.356657
H	4548.44	-2.26347	-0.692289
H	4549.22	-2.52092	0.919452
H	4547.49	-2.03899	0.816384
N	4551.32	-0.602655	0.471772
C	4552.66	-0.435956	-0.0381598
H	4551.2	-1.02921	1.36329
H	4553.4	-0.833312	0.683516
H	4552.88	0.641397	-0.215022
H	4552.78	-0.976974	-1.00423
