44
  This energy is 5.43966e-320 and Call times are: 50637
C	3.02776	-1.5618	0.720841
C	2.18759	-0.350492	0.586449
O	2.60049	0.747424	0.933707
H	4.00727	-1.28186	1.16586
H	3.20327	-2.01818	-0.276021
H	2.53027	-2.30125	1.38316
N	0.96703	-0.529059	0.0758439
C	0.0343388	0.552553	-0.116588
C	-1.35793	-0.0422188	-0.200691
O	-1.5165	-1.25112	-0.359612
H	0.631595	-1.43288	-0.176208
H	0.0633797	1.20061	0.750159
C	0.351493	1.34654	-1.40349
H	0.321495	0.678534	-2.2906
H	-0.364677	2.18023	-1.55464
H	1.37434	1.77608	-1.32986
N	-2.40481	0.79672	-0.0732974
C	-3.76684	0.319202	-0.12825
H	-2.25576	1.77076	0.0618455
H	-4.48383	1.16067	-0.00532254
H	-3.9558	-0.423251	0.680637
H	-3.97082	-0.175436	-1.10544
C	2402.28	-2.57422	2.17498
C	2401.86	-1.17868	1.9109
O	2401.56	-0.423204	2.82618
H	2402.26	-2.76299	3.27031
H	2403.31	-2.74219	1.80169
H	2401.58	-3.28232	1.67449
N	2401.82	-0.803213	0.630285
C	2401.44	0.52192	0.215233
C	2401.01	0.448723	-1.23709
O	2401.26	-0.543029	-1.91834
H	2402.04	-1.43666	-0.107988
H	2400.58	0.837247	0.79641
C	2402.6	1.52275	0.374417
H	2403.48	1.19585	-0.222578
H	2402.31	2.54413	0.0558664
H	2402.91	1.5663	1.44235
N	2400.32	1.49538	-1.74021
C	2399.86	1.5096	-3.10922
H	2400.12	2.28565	-1.17085
H	2399.32	2.45622	-3.33289
H	2399.17	0.657982	-3.29974
H	2400.72	1.42052	-3.81348
