44
  This energy is 1.17968e-319 and Call times are: 65379
C	-0.815672	-1.89534	-2.80508
C	-1.00951	-1.52034	-1.38628
O	-1.94278	-1.9693	-0.735171
H	-1.62358	-2.59367	-3.11407
H	0.164855	-2.3993	-2.93706
H	-0.856061	-0.991584	-3.44892
N	-0.119104	-0.669551	-0.870814
C	-0.174853	-0.211916	0.494576
C	0.614347	1.07963	0.58566
O	1.36431	1.42365	-0.325951
H	0.619903	-0.288182	-1.41978
H	-1.20304	0.0122428	0.748838
C	0.411382	-1.26225	1.46424
H	1.46605	-1.49034	1.2001
H	0.369879	-0.913151	2.51647
H	-0.174672	-2.20391	1.38711
N	0.445422	1.83914	1.68594
C	1.14587	3.09095	1.85485
H	-0.17142	1.54701	2.4094
H	0.875176	3.56541	2.8238
H	0.88865	3.79894	1.03398
H	2.24813	2.92984	1.83908
C	3097.49	-1.0777	-0.105258
C	3098.94	-1.34366	-0.0101691
O	3099.37	-2.46801	0.219987
H	3096.93	-2.02323	0.0676451
H	3097.24	-0.690479	-1.1147
H	3097.19	-0.335055	0.662081
N	3099.75	-0.294525	-0.182675
C	3101.19	-0.394851	-0.119699
C	3101.74	0.988932	0.16306
O	3101.03	1.98505	0.0474235
H	3099.39	0.621839	-0.34069
H	3101.46	-1.03351	0.711079
C	3101.77	-0.939776	-1.4421
H	3101.49	-0.28256	-2.29234
H	3102.88	-1.01844	-1.397
H	3101.36	-1.95328	-1.63844
N	3103.02	1.08029	0.563829
C	3103.63	2.35486	0.867154
H	3103.58	0.261938	0.658253
H	3104.69	2.22118	1.17693
H	3103.08	2.86335	1.69483
H	3103.61	3.02344	-0.0237118
