44
  This energy is 2.4397e-320 and Call times are: 13887
C	-3.03415	0.691209	1.56278
C	-1.94957	-0.240839	1.18046
O	-1.91681	-1.3847	1.6129
H	-3.73121	0.177423	2.25992
H	-3.59839	1.01178	0.661845
H	-2.61096	1.58349	2.07041
N	-1.01982	0.23935	0.351392
C	0.096414	-0.546407	-0.110592
C	1.17957	0.409132	-0.572072
O	0.932551	1.60029	-0.75087
H	-1.04169	1.182	0.029118
H	0.492882	-1.11676	0.719821
C	-0.315469	-1.48206	-1.26905
H	-0.722367	-0.893703	-2.11899
H	0.541628	-2.08866	-1.62709
H	-1.11015	-2.17616	-0.918548
N	2.41752	-0.090732	-0.755368
C	3.51474	0.746015	-1.18216
H	2.59894	-1.05599	-0.598535
H	4.44942	0.150579	-1.27745
H	3.69377	1.56417	-0.447448
H	3.29312	1.21133	-2.16986
C	664.204	0.534859	3.14169
C	663.288	0.916407	2.04324
O	662.492	1.83642	2.17385
H	664.021	1.19443	4.0178
H	665.259	0.651557	2.81757
H	664.024	-0.519008	3.44159
N	663.378	0.200688	0.919899
C	662.555	0.452018	-0.235655
C	662.54	-0.807402	-1.07998
O	663.349	-1.71062	-0.875902
H	664.01	-0.565141	0.836142
H	661.54	0.641675	0.0901355
C	663.094	1.64004	-1.06319
H	664.135	1.44241	-1.39521
H	662.462	1.8364	-1.95363
H	663.101	2.5561	-0.433155
N	661.599	-0.905477	-2.03965
C	661.5	-2.07262	-2.88478
H	660.949	-0.166852	-2.18452
H	660.666	-1.96234	-3.6118
H	661.314	-2.98554	-2.27379
H	662.445	-2.22551	-3.45558
