44
  This energy is 1.07504e-319 and Call times are: 64917
C	1.99509	2.47032	1.42943
C	1.25993	1.18753	1.50155
O	1.35167	0.46009	2.48079
H	2.58942	2.6058	2.35909
H	1.28139	3.31537	1.33285
H	2.68469	2.46799	0.55914
N	0.506452	0.87563	0.444502
C	-0.26737	-0.337632	0.366886
C	-0.553314	-0.615068	-1.09616
O	-0.367734	0.251699	-1.94828
H	0.462894	1.46275	-0.359447
H	0.326704	-1.15882	0.747414
C	-1.5918	-0.211291	1.1524
H	-2.19845	0.632507	0.759845
H	-2.19005	-1.1438	1.09486
H	-1.36869	-0.00697465	2.22227
N	-0.993934	-1.84552	-1.42457
C	-1.28121	-2.20478	-2.79373
H	-1.13099	-2.53541	-0.721372
H	-1.63332	-3.25791	-2.85835
H	-0.37035	-2.10031	-3.42671
H	-2.07258	-1.54387	-3.21576
C	3077.94	3.01756	-1.51052
C	3078.94	2.022	-1.06927
O	3080.12	2.13529	-1.37242
H	3078.44	3.80084	-2.11828
H	3077.46	3.49699	-0.629613
H	3077.16	2.52689	-2.13059
N	3078.49	1.00459	-0.335825
C	3079.34	-0.0422913	0.16698
C	3078.47	-1.2446	0.476421
O	3077.24	-1.13732	0.530793
H	3077.52	0.907879	-0.120059
H	3080.04	-0.331755	-0.609496
C	3080.09	0.408552	1.43772
H	3079.38	0.705425	2.23199
H	3080.75	-0.395109	1.82745
H	3080.73	1.29051	1.19808
N	3079.08	-2.42899	0.665863
C	3078.33	-3.63065	0.953559
H	3080.07	-2.4967	0.610675
H	3079.02	-4.4991	1.0781
H	3077.62	-3.85928	0.125779
H	3077.74	-3.51146	1.8911
