44
  This energy is 5.75834e-320 and Call times are: 120231
C	-0.0733975	-2.9727	1.81213
C	-0.181483	-2.21923	0.542559
O	-0.283415	-2.79852	-0.530071
H	-0.0957624	-4.06281	1.59531
H	-0.924358	-2.72156	2.47968
H	0.881549	-2.72735	2.32284
N	-0.155116	-0.887931	0.638999
C	-0.250604	-0.0191988	-0.506869
C	0.322305	1.32976	-0.117863
O	0.528222	1.6087	1.06181
H	-0.0423886	-0.428254	1.51588
H	0.362804	-0.419578	-1.30405
C	-1.71545	0.139789	-0.971696
H	-2.34204	0.550111	-0.151243
H	-1.79259	0.807973	-1.85394
H	-2.12391	-0.855382	-1.25267
N	0.614633	2.19421	-1.10946
C	1.17454	3.49713	-0.835455
H	0.447382	1.94712	-2.05826
H	1.34253	4.05957	-1.78028
H	2.15018	3.40204	-0.305995
H	0.488222	4.09214	-0.190395
C	5695.29	-0.0136916	-2.78454
C	5694.98	0.38179	-1.39244
O	5695.81	0.943987	-0.693579
H	5696.34	0.276246	-3.02355
H	5694.61	0.500363	-3.49063
H	5695.19	-1.11283	-2.90271
N	5693.75	0.0857216	-0.951601
C	5693.3	0.406889	0.379031
C	5692.13	-0.496301	0.70407
O	5691.57	-1.13693	-0.180901
H	5693.1	-0.398529	-1.521
H	5694.1	0.18297	1.08238
C	5692.88	1.88868	0.486986
H	5692.07	2.11508	-0.236397
H	5692.53	2.13942	1.51032
H	5693.75	2.53984	0.245415
N	5691.75	-0.584814	1.99323
C	5690.65	-1.4287	2.39895
H	5692.22	-0.0639748	2.69572
H	5690.49	-1.36407	3.49769
H	5690.85	-2.4922	2.13644
H	5689.71	-1.12077	1.88816
