44
  This energy is 9.05721e-320 and Call times are: 64245
C	0.852446	2.20574	-2.5562
C	0.907342	0.872644	-1.91508
O	1.42797	-0.0796979	-2.47942
H	1.33113	2.15145	-3.55809
H	1.39657	2.95033	-1.93786
H	-0.202918	2.5283	-2.67912
N	0.356116	0.774345	-0.703118
C	0.331687	-0.455918	0.0470049
C	-0.776689	-0.35194	1.07653
O	-1.29718	0.732221	1.3325
H	-0.0907605	1.55048	-0.266246
H	0.0843069	-1.27077	-0.621494
C	1.68446	-0.71484	0.747061
H	1.93546	0.123341	1.43158
H	1.66918	-1.66143	1.32543
H	2.48815	-0.787784	-0.017727
N	-1.17974	-1.48848	1.67806
C	-2.23657	-1.48857	2.66259
H	-0.750947	-2.35698	1.45208
H	-2.42086	-2.51796	3.04157
H	-3.18415	-1.10248	2.22183
H	-1.9683	-0.839298	3.52726
C	3049.86	-1.16009	-1.1941
C	3048.65	-1.30821	-0.355244
O	3048.42	-2.35045	0.241627
H	3050.44	-2.10659	-1.16863
H	3050.49	-0.336394	-0.806403
H	3049.57	-0.942493	-2.24461
N	3047.83	-0.251322	-0.29631
C	3046.62	-0.242805	0.477811
C	3045.72	0.845882	-0.0768322
O	3046.16	1.69465	-0.847847
H	3048.02	0.581913	-0.810393
H	3046.11	-1.18891	0.344053
C	3046.91	0.0164131	1.97356
H	3047.43	0.987486	2.10707
H	3045.97	0.0234727	2.57256
H	3047.57	-0.787206	2.36759
N	3044.42	0.832786	0.288507
C	3043.49	1.82248	-0.198806
H	3044.08	0.133388	0.907741
H	3042.48	1.6435	0.216444
H	3043.43	1.78768	-1.3105
H	3043.82	2.84671	0.0963257
