44
  This energy is 1.11382e-319 and Call times are: 11115
C	0.359999	-3.24374	-1.21437
C	0.888766	-1.88656	-0.950428
O	2.06795	-1.61976	-1.13707
H	1.18541	-3.89605	-1.5736
H	-0.429879	-3.20172	-1.99357
H	-0.0620907	-3.67789	-0.283621
N	0.0129381	-0.986735	-0.496981
C	0.376571	0.374617	-0.19479
C	-0.666944	0.93662	0.750972
O	-1.73512	0.353553	0.926686
H	-0.938749	-1.22417	-0.321333
H	1.32673	0.378109	0.324119
C	0.450495	1.23476	-1.47612
H	-0.525711	1.22841	-2.00631
H	0.730401	2.28355	-1.24708
H	1.2175	0.812009	-2.16106
N	-0.370231	2.07865	1.40193
C	-1.2973	2.68157	2.33101
H	0.502391	2.53159	1.25159
H	-0.871672	3.61473	2.76148
H	-1.52589	1.98217	3.16757
H	-2.25509	2.93535	1.82168
C	531.126	0.512833	-2.1706
C	532.576	0.404733	-1.89487
O	533.395	0.409324	-2.8038
H	530.965	0.583864	-3.2683
H	530.711	1.4223	-1.68707
H	530.595	-0.383949	-1.78688
N	532.929	0.297429	-0.611904
C	534.301	0.184562	-0.185845
C	534.31	-0.427337	1.20151
O	533.276	-0.500035	1.8626
H	532.251	0.265568	0.117439
H	534.821	-0.495951	-0.84858
C	534.998	1.56325	-0.162551
H	534.463	2.25907	0.517783
H	536.055	1.47998	0.164925
H	534.985	2.00139	-1.18431
N	535.481	-0.903882	1.66759
C	535.583	-1.51437	2.97264
H	536.305	-0.842197	1.11457
H	536.627	-1.84071	3.17385
H	534.917	-2.40531	3.04252
H	535.281	-0.794818	3.76779
