44
  This energy is 1.25088e-319 and Call times are: 17667
C	3.43948	0.0664463	-0.54009
C	2.06997	-0.347134	-0.920346
O	1.85122	-0.907298	-1.98564
H	4.14552	-0.209213	-1.35335
H	3.74891	-0.447797	0.394055
H	3.47892	1.16553	-0.387102
N	1.10184	-0.0694723	-0.0439974
C	-0.279889	-0.409663	-0.271892
C	-1.13064	0.47684	0.616683
O	-0.623109	1.12039	1.53325
H	1.28851	0.413329	0.807467
H	-0.532762	-0.184299	-1.30016
C	-0.552518	-1.89717	0.0445258
H	-0.291379	-2.12503	1.09999
H	-1.61548	-2.16255	-0.130021
H	0.0775145	-2.53598	-0.612076
N	-2.44969	0.547483	0.349998
C	-3.33608	1.37467	1.13501
H	-2.84021	0.0246198	-0.400565
H	-4.38077	1.29668	0.761131
H	-3.02442	2.44309	1.08397
H	-3.32192	1.0616	2.20411
C	845.611	0.593508	-1.96773
C	844.976	0.174297	-0.698046
O	845.638	-0.301608	0.213638
H	846.703	0.393994	-1.91538
H	845.452	1.67956	-2.13487
H	845.182	0.0221568	-2.81752
N	843.654	0.339861	-0.613322
C	842.895	-0.0199789	0.557452
C	841.448	-0.194518	0.138835
O	841.057	0.208036	-0.955279
H	843.121	0.701648	-1.37387
H	843.248	-0.974621	0.926223
C	843.003	1.06349	1.65351
H	842.641	2.04167	1.27159
H	842.42	0.789534	2.55648
H	844.068	1.18262	1.9506
N	840.62	-0.822503	0.997112
C	839.229	-1.04452	0.679368
H	840.957	-1.14729	1.87473
H	838.715	-1.5741	1.51172
H	839.13	-1.66191	-0.242759
H	838.706	-0.0762892	0.504194
