44
  This energy is 1.16456e-319 and Call times are: 17331
C	-1.16351	-3.1751	0.831343
C	-0.124262	-2.2698	0.291333
O	0.989427	-2.68589	0.00313645
H	-0.748268	-4.20301	0.914
H	-2.04249	-3.19607	0.153279
H	-1.48231	-2.83417	1.83885
N	-0.470965	-0.988745	0.14621
C	0.430539	0.011693	-0.366861
C	-0.074847	1.36879	0.0827026
O	-1.20828	1.49697	0.541757
H	-1.37203	-0.656465	0.41193
H	1.40857	-0.137275	0.0728373
C	0.510802	-0.0411913	-1.9089
H	-0.494366	0.111332	-2.35666
H	1.20422	0.727731	-2.30728
H	0.881126	-1.04059	-2.22545
N	0.768233	2.41509	-0.0196358
C	0.378629	3.74277	0.394698
H	1.68392	2.28964	-0.387076
H	1.20802	4.46539	0.229866
H	0.113284	3.75465	1.47668
H	-0.508905	4.08999	-0.182275
C	824.685	2.46693	-1.25256
C	825.219	1.08606	-1.2539
O	824.719	0.215852	-1.95387
H	823.82	2.52722	-1.94809
H	825.468	3.17942	-1.58935
H	824.347	2.74551	-0.232497
N	826.259	0.851439	-0.451014
C	826.888	-0.440959	-0.343444
C	827.638	-0.486117	0.973594
O	827.848	0.542947	1.61287
H	826.639	1.56157	0.136166
H	826.12	-1.20384	-0.311213
C	827.86	-0.693125	-1.51745
H	828.646	0.091701	-1.54794
H	828.345	-1.68745	-1.43783
H	827.299	-0.656298	-2.47641
N	828.042	-1.69105	1.42194
C	828.752	-1.83307	2.67145
H	827.856	-2.51294	0.893599
H	828.999	-2.90037	2.8644
H	828.135	-1.45727	3.51933
H	829.702	-1.25148	2.65176
