44
  This energy is 4.82406e-320 and Call times are: 56517
C	-0.278048	2.24206	-2.6499
C	0.494627	1.27321	-1.84027
O	1.61094	0.909721	-2.1841
H	0.315283	2.52801	-3.54548
H	-0.491511	3.1543	-2.05401
H	-1.23426	1.78624	-2.98281
N	-0.0962929	0.822858	-0.731051
C	0.528963	-0.122504	0.15899
C	-0.563154	-0.78839	0.973309
O	-1.70098	-0.323037	0.998339
H	-1.01779	1.10437	-0.477036
H	1.0156	-0.890442	-0.428827
C	1.5418	0.572331	1.09626
H	1.03934	1.35999	1.6973
H	2.02521	-0.152732	1.78284
H	2.3359	1.05718	0.487606
N	-0.244993	-1.91275	1.64456
C	-1.22249	-2.62206	2.43675
H	0.679505	-2.27751	1.60595
H	-0.767658	-3.51915	2.91173
H	-2.07515	-2.95585	1.80208
H	-1.62703	-1.96628	3.24141
C	2682.14	0.966894	2.05731
C	2680.77	0.438335	1.85677
O	2680.11	0.00971854	2.79583
H	2682.41	0.888737	3.13289
H	2682.18	2.0333	1.75167
H	2682.87	0.379285	1.46023
N	2680.31	0.452713	0.60491
C	2678.99	-0.027496	0.251807
C	2679	-0.348415	-1.23016
O	2679.91	0.0435682	-1.95541
H	2680.86	0.777525	-0.155898
H	2678.8	-0.94836	0.787189
C	2677.91	1.02503	0.564133
H	2678.11	1.96866	0.0137839
H	2676.9	0.658466	0.293599
H	2677.91	1.2523	1.65245
N	2677.98	-1.09237	-1.71176
C	2677.91	-1.45754	-3.10726
H	2677.26	-1.40605	-1.10744
H	2677	-2.06795	-3.30676
H	2678.8	-2.05168	-3.40545
H	2677.87	-0.548372	-3.74988
