44
  This energy is 5.4199e-320 and Call times are: 101037
C	3.28184	0.553275	-1.02448
C	2.08286	-0.306668	-0.905521
O	2.02853	-1.39631	-1.45889
H	4.03567	0.0458676	-1.6649
H	3.72451	0.733257	-0.0222526
H	3.01149	1.52503	-1.48875
N	1.07699	0.176401	-0.172551
C	-0.154081	-0.543188	0.0359656
C	-1.21812	0.460147	0.436439
O	-0.910228	1.60097	0.776367
H	1.12193	1.07809	0.249203
H	-0.461541	-0.992949	-0.899586
C	0.0021312	-1.61874	1.1341
H	0.318266	-1.15395	2.0923
H	-0.943902	-2.17482	1.29711
H	0.785149	-2.34683	0.829302
N	-2.50438	0.0616619	0.384064
C	-3.58613	0.951848	0.735587
H	-2.73358	-0.863411	0.099563
H	-4.5675	0.438975	0.630147
H	-3.58689	1.84916	0.0752236
H	-3.48311	1.29871	1.78927
C	4783.82	-2.85129	1.61692
C	4784.61	-2.19019	0.55308
O	4785.34	-2.83559	-0.187415
H	4784.03	-3.94429	1.59868
H	4782.74	-2.68363	1.44905
H	4784.11	-2.4494	2.61166
N	4784.49	-0.864668	0.457339
C	4785.19	-0.0810983	-0.527119
C	4785.23	1.35304	-0.0366166
O	4784.52	1.72154	0.892642
H	4783.91	-0.346748	1.08529
H	4786.21	-0.43611	-0.596476
C	4784.49	-0.150766	-1.90391
H	4783.44	0.213533	-1.82897
H	4785.03	0.451358	-2.66434
H	4784.46	-1.2065	-2.25159
N	4786.1	2.19415	-0.639973
C	4786.21	3.5747	-0.232507
H	4786.67	1.87505	-1.38541
H	4786.97	4.10257	-0.849596
H	4786.52	3.64377	0.836285
H	4785.24	4.10388	-0.347056
