44
  This energy is 1.55838e-319 and Call times are: 54501
C	0.811368	-0.848793	-3.27832
C	0.435644	-1.21456	-1.89403
O	0.168134	-2.37037	-1.59564
H	0.790963	-1.7585	-3.91697
H	1.83544	-0.420098	-3.29618
H	0.0932079	-0.106841	-3.6866
N	0.401527	-0.218326	-1.00594
C	0.0542741	-0.416948	0.378544
C	-0.386729	0.918867	0.94454
O	-0.168351	1.96334	0.333631
H	0.59322	0.723813	-1.26779
H	-0.789168	-1.09323	0.436226
C	1.25167	-0.966625	1.18552
H	2.11537	-0.270707	1.12363
H	0.987709	-1.12088	2.25197
H	1.56589	-1.94468	0.760288
N	-1.04113	0.91325	2.12256
C	-1.50941	2.13582	2.73265
H	-1.21449	0.0570178	2.598
H	-2.02109	1.92313	3.69712
H	-2.22901	2.65899	2.06205
H	-0.658418	2.82666	2.93201
C	2582.05	-0.914891	0.299564
C	2583.18	-0.315712	-0.456232
O	2583.04	0.0249849	-1.62352
H	2581.16	-0.984831	-0.360985
H	2581.8	-0.282294	1.17672
H	2582.33	-1.93441	0.645305
N	2584.33	-0.177864	0.2037
C	2585.51	0.388227	-0.396489
C	2586.71	-0.0752297	0.407937
O	2586.56	-0.589902	1.51493
H	2584.43	-0.486054	1.14552
H	2585.62	-0.00269536	-1.40044
C	2585.45	1.93187	-0.414899
H	2585.34	2.3295	0.616568
H	2586.36	2.37103	-0.876521
H	2584.56	2.25857	-1.00619
N	2587.93	0.0780889	-0.143623
C	2589.13	-0.344574	0.543125
H	2588.03	0.490289	-1.04354
H	2590.03	-0.132172	-0.0725111
H	2589.1	-1.43845	0.752052
H	2589.23	0.189629	1.51511
