44
  This energy is 9.41541e-320 and Call times are: 46059
C	0.389755	1.57581	3.08075
C	-0.0983314	0.456774	2.24366
O	-0.580004	-0.547819	2.74891
H	0.24327	1.32315	4.1534
H	-0.176792	2.50221	2.84918
H	1.47107	1.7484	2.89659
N	0.0235715	0.607302	0.922731
C	-0.405808	-0.39366	-0.0209519
C	0.329063	-0.150433	-1.32481
O	0.929665	0.904459	-1.52054
H	0.444345	1.41798	0.524384
H	-0.113414	-1.36998	0.344257
C	-1.93222	-0.331131	-0.251753
H	-2.22878	0.672012	-0.625747
H	-2.26625	-1.10063	-0.977749
H	-2.45899	-0.509678	0.710943
N	0.316043	-1.13665	-2.24307
C	0.998108	-0.9996	-3.50885
H	-0.169662	-1.98571	-2.06301
H	0.868864	-1.91566	-4.1264
H	2.08855	-0.833879	-3.35163
H	0.595862	-0.131861	-4.08017
C	2185.45	0.61514	-3.32001
C	2185.08	0.308669	-1.91825
O	2183.92	0.295792	-1.55637
H	2184.52	0.816024	-3.90387
H	2185.98	-0.247098	-3.77449
H	2186.1	1.51322	-3.35878
N	2186.1	0.0568482	-1.08448
C	2185.9	-0.257537	0.308389
C	2187.2	0.0305364	1.03691
O	2188.24	0.21188	0.413141
H	2187.05	0.099024	-1.3847
H	2185.14	0.399815	0.714845
C	2185.5	-1.73751	0.500434
H	2186.28	-2.40907	0.0817401
H	2185.35	-1.98296	1.57178
H	2184.55	-1.93597	-0.0389243
N	2187.16	0.101032	2.38205
C	2188.34	0.382313	3.15986
H	2186.3	-0.0416219	2.86812
H	2188.11	0.396569	4.24644
H	2188.77	1.37302	2.88137
H	2189.12	-0.392347	2.98161
