44
  This energy is 1.19984e-319 and Call times are: 103683
C	0.736739	3.3592	-0.546929
C	-0.0743314	2.14679	-0.798794
O	-1.09179	2.19587	-1.47619
H	0.262107	4.22962	-1.04987
H	1.76164	3.22487	-0.952337
H	0.794405	3.56158	0.543328
N	0.363882	1.01435	-0.243895
C	-0.316796	-0.246411	-0.398759
C	0.120612	-1.15429	0.73423
O	1.09701	-0.870825	1.42569
H	1.17825	0.992963	0.329944
H	-1.38268	-0.0854527	-0.298508
C	0.0116395	-0.899501	-1.75991
H	1.10597	-1.06258	-1.85967
H	-0.510961	-1.87039	-1.88251
H	-0.312539	-0.224141	-2.58146
N	-0.610242	-2.26277	0.964735
C	-0.276504	-3.18006	2.02934
H	-1.4011	-2.471	0.398676
H	-0.994282	-4.02937	2.05608
H	-0.306978	-2.66422	3.01637
H	0.748806	-3.59177	1.88646
C	4909.39	-2.45412	-1.87117
C	4909.4	-1.14521	-1.18002
O	4908.46	-0.368639	-1.27313
H	4908.44	-2.55837	-2.43728
H	4909.46	-3.27861	-1.13078
H	4910.24	-2.52285	-2.58164
N	4910.5	-0.86652	-0.464242
C	4910.66	0.366094	0.264288
C	4912.14	0.57232	0.504171
O	4912.94	-0.345676	0.328251
H	4911.27	-1.49507	-0.419883
H	4910.31	1.18639	-0.348742
C	4909.9	0.327854	1.6113
H	4910.27	-0.515245	2.23739
H	4910.03	1.27547	2.17477
H	4908.82	0.175141	1.42193
N	4912.55	1.79707	0.893023
C	4913.94	2.09015	1.13367
H	4911.89	2.52875	1.02302
H	4914.07	3.14944	1.44683
H	4914.54	1.9204	0.211732
H	4914.35	1.43418	1.93716
