44
  This energy is 1.55166e-319 and Call times are: 60591
C	-3.15334	-0.464596	-1.40239
C	-1.96162	-0.968312	-0.683182
O	-1.93965	-2.09477	-0.20662
H	-3.93979	-1.25032	-1.40549
H	-2.88994	-0.215678	-2.4519
H	-3.55144	0.440376	-0.896931
N	-0.929789	-0.12706	-0.583224
C	0.298495	-0.472748	0.0865864
C	1.00249	0.816322	0.463312
O	0.649418	1.89003	-0.0207653
H	-0.970813	0.798391	-0.950365
H	0.0634561	-0.999123	1.00297
C	1.2103	-1.3312	-0.818282
H	1.44889	-0.788443	-1.75776
H	2.15689	-1.59929	-0.305574
H	0.682721	-2.27193	-1.08815
N	2.00697	0.741417	1.35853
C	2.72723	1.91804	1.78628
H	2.2731	-0.135868	1.74425
H	3.51606	1.64997	2.52325
H	2.03598	2.64998	2.26344
H	3.21396	2.41828	0.917933
C	2873.49	-1.59021	-3.09795
C	2873.5	-0.368622	-2.26195
O	2873.63	0.739318	-2.76193
H	2873.63	-1.30666	-4.16366
H	2872.52	-2.12118	-2.99214
H	2874.32	-2.26643	-2.79401
N	2873.35	-0.549046	-0.947209
C	2873.34	0.541668	-0.00542192
C	2873.68	-0.0185623	1.36157
O	2873.66	-1.23082	1.56639
H	2873.27	-1.45883	-0.549127
H	2874.11	1.24879	-0.274068
C	2871.96	1.23278	0.0337237
H	2871.16	0.504344	0.308984
H	2871.94	2.07321	0.757778
H	2871.72	1.63781	-0.973721
N	2874.02	0.856164	2.32799
C	2874.37	0.41408	3.65709
H	2874.04	1.83283	2.14055
H	2874.62	1.28182	4.30727
H	2875.26	-0.263285	3.6243
H	2873.53	-0.143066	4.12298
