44
  This energy is 1.2569e-320 and Call times are: 86463
C	3.34008	0.928812	-0.3276
C	2.15542	0.155409	-0.763088
O	2.17076	-0.495646	-1.79865
H	4.1544	0.80481	-1.07416
H	3.69646	0.560532	0.657379
H	3.08577	2.00681	-0.248864
N	1.08306	0.216562	0.0297916
C	-0.143994	-0.481495	-0.259837
C	-1.2595	0.197915	0.510416
O	-1.00616	0.996746	1.41015
H	1.07326	0.773835	0.855799
H	-0.36482	-0.381929	-1.31501
C	-0.0520325	-1.97076	0.141105
H	0.175271	-2.06921	1.22404
H	-0.995128	-2.51127	-0.0806833
H	0.769435	-2.45676	-0.429104
N	-2.52791	-0.0896293	0.157652
C	-3.65454	0.518078	0.826676
H	-2.71224	-0.73329	-0.577847
H	-4.61224	0.152902	0.394595
H	-3.62272	1.62674	0.721384
H	-3.64458	0.274079	1.91366
C	4091.39	1.74083	-0.18005
C	4092.16	0.479561	-0.129411
O	4091.6	-0.602335	-0.0224059
H	4090.3	1.51019	-0.100393
H	4091.58	2.2654	-1.14076
H	4091.68	2.40173	0.663844
N	4093.49	0.594941	-0.200654
C	4094.38	-0.540836	-0.164503
C	4095.75	-0.0484094	0.254735
O	4096.01	1.15228	0.251471
H	4093.94	1.48397	-0.258317
H	4094.03	-1.23343	0.592116
C	4094.46	-1.23382	-1.54292
H	4094.81	-0.520266	-2.31686
H	4095.14	-2.10889	-1.51861
H	4093.45	-1.58888	-1.83918
N	4096.65	-0.969473	0.648499
C	4097.98	-0.593177	1.07618
H	4096.41	-1.93571	0.650911
H	4098.57	-1.49174	1.3585
H	4097.93	0.0854802	1.95837
H	4098.52	-0.0601264	0.260149
