44
  This energy is 1.22271e-319 and Call times are: 41103
C	-2.27835	-1.49852	-2.16557
C	-1.47834	-0.335983	-1.7187
O	-1.42705	0.68967	-2.38346
H	-2.76269	-1.25939	-3.13721
H	-3.06648	-1.7304	-1.41864
H	-1.62358	-2.38532	-2.299
N	-0.821155	-0.476576	-0.56514
C	-0.00184286	0.565759	-0.000257199
C	0.967732	-0.078702	0.971253
O	0.801628	-1.23662	1.35001
H	-0.847596	-1.32757	-0.0474026
H	0.579706	1.02337	-0.790487
C	-0.860469	1.6232	0.728921
H	-1.45625	1.1502	1.53851
H	-0.23277	2.42735	1.16495
H	-1.56725	2.08699	0.00676529
N	2.02122	0.654479	1.38186
C	3.00286	0.120377	2.29691
H	2.14204	1.58723	1.05841
H	3.78948	0.876017	2.51482
H	3.49348	-0.781504	1.86431
H	2.52413	-0.174845	3.2586
C	1949.07	0.561431	-2.90828
C	1950.28	0.749672	-2.07426
O	1951.27	1.31811	-2.51411
H	1949.25	0.997866	-3.91527
H	1948.2	1.07215	-2.44313
H	1948.85	-0.520489	-3.01974
N	1950.22	0.26236	-0.832528
C	1951.32	0.368345	0.0977068
C	1951.13	-0.697886	1.15973
O	1950.06	-1.29029	1.2751
H	1949.42	-0.224415	-0.495539
H	1952.24	0.156461	-0.422829
C	1951.37	1.76711	0.752055
H	1950.42	1.98147	1.28462
H	1952.21	1.85221	1.4688
H	1951.5	2.53924	-0.0364239
N	1952.19	-0.982962	1.95026
C	1952.11	-1.99166	2.98096
H	1953.05	-0.497539	1.83653
H	1953.07	-2.07722	3.5232
H	1951.86	-2.98538	2.54013
H	1951.31	-1.7372	3.71928
