44
  This energy is 4.1541e-320 and Call times are: 107001
C	0.233534	3.37543	-0.823426
C	-0.358961	2.03049	-1.00028
O	-1.32557	1.85601	-1.72947
H	-0.338468	4.11133	-1.42934
H	1.29084	3.37529	-1.16244
H	0.188108	3.67642	0.244419
N	0.214966	1.03552	-0.319841
C	-0.247704	-0.327554	-0.389151
C	0.252788	-1.05277	0.84487
O	1.12577	-0.55684	1.55465
H	0.983768	1.19545	0.293592
H	-1.32986	-0.333819	-0.35812
C	0.266536	-1.03196	-1.66449
H	1.37703	-1.02312	-1.69341
H	-0.0879853	-2.08167	-1.72111
H	-0.105961	-0.490479	-2.56126
N	-0.308158	-2.24152	1.14186
C	0.096067	-2.99863	2.30357
H	-1.01822	-2.62271	0.558981
H	-0.47955	-3.9478	2.37419
H	-0.0787998	-2.41258	3.23481
H	1.1804	-3.24908	2.25175
C	5066.79	-1.49449	-2.9424
C	5066.64	-1.17933	-1.50421
O	5065.61	-1.46154	-0.9006
H	5065.86	-1.98445	-3.31181
H	5067.64	-2.18507	-3.09363
H	5066.96	-0.563046	-3.52249
N	5067.67	-0.571499	-0.916972
C	5067.67	-0.201554	0.475856
C	5068.71	0.884932	0.668804
O	5069.54	1.12043	-0.204814
H	5068.49	-0.320661	-1.42644
H	5066.7	0.218376	0.728874
C	5067.99	-1.41256	1.37934
H	5068.98	-1.8413	1.11661
H	5067.99	-1.13127	2.45249
H	5067.22	-2.20177	1.2278
N	5068.67	1.59034	1.81638
C	5069.61	2.65184	2.08279
H	5067.99	1.38939	2.50802
H	5069.42	3.1093	3.07798
H	5069.54	3.44973	1.30913
H	5070.66	2.26231	2.07321
