44
  This energy is 1.1319e-320 and Call times are: 37029
C	2.40452	-2.29166	1.04533
C	1.17859	-1.4948	1.27625
O	0.49885	-1.6565	2.28039
H	2.54886	-2.99727	1.89217
H	3.28864	-1.62319	0.979899
H	2.31119	-2.87379	0.10439
N	0.86231	-0.606056	0.331542
C	-0.299607	0.242441	0.41418
C	-0.633633	0.712917	-0.988074
O	0.173274	0.576573	-1.90576
H	1.40821	-0.504185	-0.495837
H	-1.13722	-0.341935	0.773333
C	-0.0452211	1.45644	1.33538
H	0.81512	2.05333	0.964381
H	-0.937927	2.1118	1.40139
H	0.199546	1.09842	2.35913
N	-1.84778	1.26132	-1.1908
C	-2.25835	1.72705	-2.49491
H	-2.48943	1.35638	-0.436825
H	-3.28787	2.14641	-2.45657
H	-2.24747	0.891553	-3.23184
H	-1.56959	2.52142	-2.8634
C	1758.66	-2.81995	-1.03491
C	1757.78	-2.11488	-0.0777619
O	1757.26	-2.70805	0.85569
H	1758.73	-3.8926	-0.750716
H	1759.68	-2.37799	-1.01372
H	1758.25	-2.74575	-2.06274
N	1757.59	-0.811923	-0.29688
C	1756.76	0.00886295	0.547368
C	1756.35	1.23406	-0.248307
O	1756.92	1.51715	-1.30086
H	1758	-0.346394	-1.07765
H	1755.86	-0.538078	0.792379
C	1757.5	0.433014	1.83113
H	1758.43	0.99328	1.57608
H	1756.87	1.06501	2.48355
H	1757.8	-0.473389	2.40439
N	1755.34	1.98092	0.228796
C	1754.87	3.15866	-0.467023
H	1754.88	1.73128	1.07861
H	1754.03	3.63617	0.0844228
H	1754.52	2.89613	-1.48941
H	1755.69	3.9041	-0.568679
