44
  This energy is 4.53355e-320 and Call times are: 81465
C	-2.86566	-1.90105	0.547866
C	-1.77817	-1.40831	-0.327227
O	-1.62401	-1.85337	-1.45623
H	-3.44257	-2.685	0.0107901
H	-3.5509	-1.06838	0.812294
H	-2.44156	-2.33921	1.47582
N	-0.984121	-0.466232	0.186911
C	0.116301	0.111877	-0.542259
C	1.07634	0.715495	0.464328
O	0.736798	0.884049	1.634
H	-1.10207	-0.132693	1.11846
H	0.642396	-0.675068	-1.06763
C	-0.370634	1.19674	-1.52871
H	-0.91048	2.00213	-0.986466
H	0.474133	1.64387	-2.09193
H	-1.07401	0.742161	-2.25999
N	2.31257	1.03636	0.0344895
C	3.29798	1.60518	0.92421
H	2.57054	0.885683	-0.914184
H	4.24992	1.8009	0.383147
H	3.51145	0.911214	1.76925
H	2.93313	2.56729	1.3513
C	3858.09	-1.44655	-2.52949
C	3859.24	-0.625333	-2.06792
O	3860.08	-0.225085	-2.85223
H	3858.18	-1.60645	-3.62654
H	3857.14	-0.927106	-2.31289
H	3858.1	-2.43355	-2.02084
N	3859.28	-0.357692	-0.760853
C	3860.33	0.428708	-0.161953
C	3860.37	0.100775	1.31792
O	3859.45	-0.510257	1.8522
H	3858.6	-0.713941	-0.127733
H	3861.28	0.133914	-0.590638
C	3860.09	1.94066	-0.364471
H	3859.11	2.23951	0.0759039
H	3860.89	2.54912	0.0953266
H	3860.06	2.16768	-1.45248
N	3861.46	0.483043	2.01292
C	3861.59	0.203823	3.42382
H	3862.2	0.970247	1.56098
H	3862.56	0.599211	3.81408
H	3861.56	-0.893933	3.6116
H	3860.76	0.675191	3.99754
