44
  This energy is 1.29178e-319 and Call times are: 5739
C	-0.172483	2.42115	2.49688
C	-0.812001	1.5025	1.52822
O	-2.02451	1.3408	1.51546
H	-0.95436	2.87536	3.14358
H	0.364163	3.23094	1.95923
H	0.544305	1.86449	3.13665
N	0.00528446	0.866251	0.685845
C	-0.46753	-0.0585414	-0.313171
C	0.692528	-0.951969	-0.707243
O	1.84475	-0.662533	-0.390302
H	0.993932	0.984332	0.725459
H	-1.23323	-0.687097	0.123507
C	-1.01184	0.683718	-1.55409
H	-0.223933	1.32811	-1.99915
H	-1.37688	-0.0253824	-2.32526
H	-1.8603	1.3356	-1.25191
N	0.410136	-2.07691	-1.39337
C	1.4487	-2.99421	-1.80095
H	-0.529396	-2.29718	-1.63419
H	1.01655	-3.85655	-2.35489
H	1.99666	-3.3866	-0.913818
H	2.18498	-2.48488	-2.46403
C	278.667	1.82657	1.54055
C	280.089	1.4413	1.39268
O	280.969	2.01964	2.01508
H	278.588	2.67106	2.25922
H	278.076	0.969413	1.92717
H	278.254	2.14811	0.561433
N	280.347	0.442182	0.545772
C	281.68	-0.0455492	0.296004
C	281.669	-0.768755	-1.0367
O	280.608	-1.07717	-1.57607
H	279.624	-0.00159319	0.0226567
H	282.352	0.79819	0.207035
C	282.148	-1.00179	1.41566
H	281.456	-1.86586	1.50462
H	283.174	-1.37909	1.22656
H	282.15	-0.46044	2.38678
N	282.858	-1.03772	-1.61144
C	282.946	-1.71226	-2.88559
H	283.706	-0.773669	-1.16255
H	284.008	-1.84293	-3.18888
H	282.425	-1.12632	-3.67711
H	282.471	-2.7183	-2.83138
