44
  This energy is 1.50838e-320 and Call times are: 93015
C	1.02494	1.03239	-3.16383
C	0.494141	1.31454	-1.81111
O	0.345369	2.46298	-1.41684
H	1.24108	1.99234	-3.68115
H	0.277697	0.464693	-3.75727
H	1.96365	0.443702	-3.09166
N	0.197942	0.253373	-1.05708
C	-0.327246	0.366773	0.280133
C	-0.0548657	-0.939682	1.00001
O	0.289016	-1.94157	0.375679
H	0.350999	-0.677194	-1.37888
H	0.208472	1.14859	0.803434
C	-1.84429	0.659161	0.265726
H	-2.39071	-0.144508	-0.272467
H	-2.25191	0.747242	1.29377
H	-2.03064	1.618	-0.265362
N	-0.182244	-0.952562	2.34151
C	0.068129	-2.14776	3.11286
H	-0.454581	-0.129631	2.8292
H	-0.0915966	-1.95679	4.19696
H	1.1167	-2.4957	2.96905
H	-0.614675	-2.96953	2.79719
C	4406.43	2.31887	2.10094
C	4406.06	0.930114	1.74319
O	4406.5	-0.0222433	2.37386
H	4407.12	2.30346	2.97072
H	4405.52	2.89604	2.37462
H	4406.94	2.813	1.24609
N	4405.24	0.78349	0.701103
C	4404.79	-0.504227	0.23317
C	4404.34	-0.34543	-1.20469
O	4404.15	0.770812	-1.68528
H	4404.91	1.56572	0.177368
H	4405.63	-1.1908	0.239632
C	4403.63	-1.04666	1.09972
H	4402.78	-0.339542	1.09139
H	4403.29	-2.03813	0.74227
H	4403.98	-1.15735	2.15073
N	4404.17	-1.46576	-1.93446
C	4403.75	-1.41207	-3.31562
H	4404.33	-2.35947	-1.52956
H	4403.67	-2.43628	-3.74151
H	4404.48	-0.836738	-3.92651
H	4402.76	-0.91323	-3.40621
