44
  This energy is 1.51619e-319 and Call times are: 18675
C	1.78206	-1.05838	-2.79826
C	0.534054	-0.968405	-2.00731
O	-0.531536	-1.3636	-2.45989
H	1.55713	-1.50916	-3.78925
H	2.52282	-1.69708	-2.27276
H	2.21111	-0.0459969	-2.95297
N	0.64111	-0.431534	-0.789658
C	-0.483589	-0.276812	0.0980031
C	-0.131924	0.792905	1.11352
O	1.02837	1.17812	1.24453
H	1.50957	-0.0866197	-0.443614
H	-1.33455	0.0763746	-0.470508
C	-0.819028	-1.60243	0.817262
H	0.0563448	-1.96223	1.39897
H	-1.68467	-1.4869	1.50144
H	-1.0737	-2.37805	0.062472
N	-1.13635	1.3153	1.84443
C	-0.898591	2.34683	2.82707
H	-2.06964	0.995334	1.71864
H	-1.84872	2.64351	3.32355
H	-0.456027	3.25052	2.34882
H	-0.190973	1.98874	3.60952
C	893.466	1.70956	-1.44812
C	892.169	1.00235	-1.54086
O	891.54	0.969577	-2.58955
H	893.71	2.16064	-2.43452
H	894.271	0.997282	-1.16994
H	893.408	2.51698	-0.688067
N	891.732	0.416324	-0.423774
C	890.488	-0.309251	-0.356761
C	890.065	-0.375171	1.09783
O	890.855	-0.0896325	1.99582
H	892.239	0.474888	0.431735
H	889.729	0.243271	-0.895508
C	890.638	-1.7355	-0.931765
H	891.418	-2.29927	-0.377192
H	889.682	-2.29692	-0.881851
H	890.949	-1.67346	-1.99728
N	888.794	-0.734629	1.36332
C	888.298	-0.813421	2.7176
H	888.168	-0.954954	0.622473
H	887.231	-1.12746	2.72805
H	888.377	0.176249	3.22312
H	888.886	-1.55136	3.30938
