44
  This energy is 4.73315e-320 and Call times are: 2631
C	0.252066	-2.5993	2.30352
C	0.860793	-1.60113	1.39561
O	2.07059	-1.42118	1.37328
H	1.05207	-3.08937	2.89992
H	-0.283942	-3.37413	1.71602
H	-0.459724	-2.10291	2.99626
N	0.019256	-0.915368	0.618493
C	0.460665	0.0887732	-0.316219
C	-0.718424	0.99222	-0.620805
O	-1.86046	0.662918	-0.305936
H	-0.966806	-1.05056	0.666861
H	1.22615	0.693852	0.152808
C	0.991038	-0.549995	-1.61921
H	0.203405	-1.17056	-2.09739
H	1.3319	0.220372	-2.34111
H	1.85366	-1.21026	-1.38241
N	-0.464081	2.16959	-1.22504
C	-1.52228	3.09964	-1.54348
H	0.467694	2.42109	-1.46541
H	-1.11222	4.00745	-2.03843
H	-2.0584	3.41613	-0.619546
H	-2.26424	2.6309	-2.22975
C	131.564	2.58393	1.66553
C	132.546	1.47661	1.62606
O	133.307	1.27212	2.5619
H	131.667	3.132	2.62722
H	130.532	2.18277	1.58943
H	131.749	3.2894	0.828206
N	132.553	0.729788	0.519459
C	133.45	-0.382806	0.333237
C	133.557	-0.651236	-1.15533
O	132.758	-0.147936	-1.94355
H	131.948	0.92452	-0.248069
H	134.434	-0.104791	0.688627
C	132.941	-1.64441	1.06546
H	131.931	-1.92641	0.698912
H	133.629	-2.50298	0.924285
H	132.866	-1.4344	2.1547
N	134.565	-1.43852	-1.57789
C	134.753	-1.73997	-2.97792
H	135.205	-1.83058	-0.925149
H	135.634	-2.40348	-3.12264
H	134.918	-0.805858	-3.56224
H	133.856	-2.25301	-3.39329
