44
  This energy is 1.01516e-319 and Call times are: 4689
C	-2.79639	1.70015	-1.18988
C	-1.41487	1.67825	-0.658713
O	-0.738736	2.69668	-0.61251
H	-3.05085	2.73422	-1.50897
H	-3.51322	1.37969	-0.404843
H	-2.88063	1.02279	-2.06568
N	-0.957343	0.494268	-0.24494
C	0.365883	0.313483	0.296556
C	0.725677	-1.15386	0.167403
O	-0.135856	-1.99184	-0.0921988
H	-1.50756	-0.333571	-0.314779
H	1.07051	0.8787	-0.300184
C	0.431788	0.74828	1.77768
H	-0.292809	0.166909	2.38685
H	1.44932	0.610541	2.19773
H	0.16502	1.82456	1.85892
N	2.01938	-1.4965	0.325298
C	2.45754	-2.86783	0.208476
H	2.70272	-0.802792	0.5279
H	3.55486	-2.94544	0.373185
H	2.22596	-3.26932	-0.804647
H	1.94381	-3.51	0.960057
C	229.329	-2.36127	1.74623
C	230.404	-1.99601	0.797058
O	231.172	-2.84	0.355843
H	229.375	-3.45293	1.95119
H	228.336	-2.11889	1.31146
H	229.458	-1.81043	2.70166
N	230.487	-0.706296	0.462114
C	231.48	-0.197681	-0.450214
C	231.622	1.29119	-0.200913
O	230.79	1.89891	0.469309
H	229.874	-0.0237053	0.850903
H	232.433	-0.661218	-0.227613
C	231.077	-0.454138	-1.9197
H	230.099	0.0222068	-2.14442
H	231.84	-0.0638939	-2.62486
H	230.975	-1.5482	-2.08909
N	232.7	1.91151	-0.720136
C	232.926	3.32469	-0.5247
H	233.367	1.40089	-1.25361
H	233.863	3.64687	-1.02986
H	233.013	3.56227	0.560288
H	232.081	3.91898	-0.941426
