44
  This energy is 9.93171e-320 and Call times are: 46269
C	-2.49205	-2.30559	0.774644
C	-1.13386	-1.74617	0.957894
O	-0.401015	-2.14474	1.85264
H	-2.67873	-3.07866	1.55142
H	-2.58051	-2.77474	-0.227799
H	-3.25329	-1.50355	0.875544
N	-0.766174	-0.789496	0.102354
C	0.523835	-0.149088	0.153155
C	0.413277	1.17938	-0.569477
O	-0.557815	1.42889	-1.2812
H	-1.38311	-0.452968	-0.604102
H	0.773387	0.0580837	1.18605
C	1.61261	-1.02408	-0.507204
H	1.35307	-1.23523	-1.56653
H	2.6072	-0.534025	-0.469698
H	1.6829	-1.99468	0.0305242
N	1.40226	2.07585	-0.384394
C	1.37673	3.37155	-1.02212
H	2.17618	1.85787	0.20107
H	2.27796	3.96283	-0.747506
H	0.473381	3.94473	-0.711202
H	1.35249	3.26361	-2.13069
C	2194.65	3.05418	-0.298485
C	2195.89	2.24133	-0.24651
O	2196.98	2.73837	-0.475672
H	2194.91	4.10053	-0.569777
H	2194.15	3.05356	0.692759
H	2193.96	2.64648	-1.06294
N	2195.74	0.949812	0.0556292
C	2196.85	0.0323522	0.144518
C	2196.3	-1.37319	-0.0194118
O	2195.09	-1.59259	0.0595143
H	2194.84	0.550469	0.211634
H	2197.53	0.219899	-0.677571
C	2197.58	0.163825	1.49879
H	2196.88	-0.0285482	2.33995
H	2198.43	-0.541095	1.57053
H	2197.97	1.19809	1.60723
N	2197.18	-2.35962	-0.274682
C	2196.76	-3.72703	-0.457458
H	2198.16	-2.16071	-0.341895
H	2197.63	-4.38863	-0.655853
H	2196.05	-3.80697	-1.31765
H	2196.23	-4.1001	0.452486
