44
  This energy is 7.99299e-320 and Call times are: 63825
C	2.87375	-0.8658	1.76581
C	1.59753	-0.126741	1.63834
O	1.13405	0.5022	2.57968
H	3.26909	-0.740847	2.79729
H	3.61917	-0.469195	1.04479
H	2.71113	-1.94693	1.57175
N	0.989738	-0.193259	0.451522
C	-0.257721	0.472723	0.17378
C	-0.896779	-0.213159	-1.01803
O	-0.248589	-0.987115	-1.71994
H	1.36268	-0.732824	-0.298626
H	-0.920357	0.346037	1.0205
C	-0.0395912	1.97181	-0.129976
H	0.641184	2.09811	-0.998717
H	-0.998122	2.48769	-0.344136
H	0.430096	2.46252	0.750218
N	-2.19772	0.0402815	-1.26161
C	-2.89361	-0.576326	-2.36691
H	-2.70692	0.664087	-0.677815
H	-3.95348	-0.24051	-2.40083
H	-2.88054	-1.68609	-2.26944
H	-2.40989	-0.308985	-3.33424
C	3026.93	-2.73515	2.15135
C	3027.58	-1.64915	1.38594
O	3028.77	-1.4099	1.51876
H	3027.68	-3.22555	2.80703
H	3026.51	-3.49308	1.45737
H	3026.12	-2.3221	2.78405
N	3026.8	-0.953419	0.558385
C	3027.29	0.132272	-0.253104
C	3026.1	0.996402	-0.639002
O	3024.95	0.591635	-0.483146
H	3025.82	-1.13905	0.480731
H	3027.96	0.740207	0.34022
C	3028	-0.389786	-1.52094
H	3027.31	-1.01359	-2.12693
H	3028.38	0.443578	-2.14799
H	3028.87	-1.02224	-1.22473
N	3026.36	2.22315	-1.13448
C	3025.3	3.12056	-1.51809
H	3027.3	2.53515	-1.24633
H	3025.71	4.07875	-1.90349
H	3024.64	3.34705	-0.646572
H	3024.66	2.66445	-2.31544
