44
  This energy is 4.24007e-320 and Call times are: 107043
C	-1.89052	-2.87081	0.55724
C	-1.43218	-1.76213	-0.30992
O	-1.72534	-1.72488	-1.497
H	-2.48871	-3.58674	-0.0473043
H	-2.52482	-2.47669	1.37892
H	-1.01805	-3.40562	0.988191
N	-0.684983	-0.822473	0.274116
C	-0.165369	0.317529	-0.438082
C	1.01333	0.859601	0.346817
O	1.2155	0.500812	1.50536
H	-0.428684	-0.879308	1.23537
H	0.203438	-0.00822694	-1.40242
C	-1.241	1.41382	-0.60625
H	-1.61763	1.7452	0.384937
H	-0.844303	2.29301	-1.15436
H	-2.09945	1.00385	-1.18171
N	1.83537	1.7255	-0.278065
C	2.9898	2.28466	0.385873
H	1.65885	1.99803	-1.21817
H	3.53732	2.97552	-0.292493
H	3.68939	1.47789	0.703569
H	2.68396	2.85365	1.29355
C	5069.31	-0.416577	3.40592
C	5069.16	-0.845102	1.99684
O	5068.64	-1.91679	1.71276
H	5068.89	-1.20363	4.0745
H	5068.75	0.528757	3.57895
H	5070.38	-0.263773	3.64856
N	5069.62	-0.00438931	1.06929
C	5069.55	-0.281188	-0.343111
C	5070.59	0.575118	-1.03998
O	5071.13	1.5084	-0.451506
H	5070.07	0.852558	1.31464
H	5069.81	-1.31817	-0.512376
C	5068.14	0.0272852	-0.904897
H	5067.88	1.09174	-0.728947
H	5068.08	-0.184879	-1.99219
H	5067.39	-0.605445	-0.385504
N	5070.91	0.261239	-2.31131
C	5071.89	1.01286	-3.05082
H	5070.46	-0.502122	-2.7678
H	5072.01	0.601885	-4.07754
H	5072.88	0.971555	-2.53982
H	5071.59	2.0822	-3.13387
