44
  This energy is 5.20992e-320 and Call times are: 120021
C	2.82213	-2.02074	0.279848
C	1.35427	-1.83047	0.260034
O	0.592217	-2.78738	0.269812
H	3.05131	-3.10843	0.296343
H	3.25697	-1.54811	1.18559
H	3.27878	-1.57094	-0.62685
N	0.920323	-0.568395	0.225246
C	-0.478668	-0.223213	0.202831
C	-0.602652	1.18358	-0.349251
O	0.385031	1.90913	-0.448707
H	1.55144	0.201836	0.188166
H	-0.994714	-0.889814	-0.476443
C	-1.09867	-0.29585	1.61614
H	-0.566445	0.388722	2.31056
H	-2.17586	-0.0307999	1.60249
H	-1.00042	-1.33098	2.00985
N	-1.82385	1.59502	-0.743444
C	-2.03605	2.91394	-1.29263
H	-2.60942	0.990532	-0.661526
H	-3.1067	3.06319	-1.55473
H	-1.42626	3.05876	-2.21372
H	-1.74242	3.69777	-0.557396
C	5686.05	1.93242	-0.539917
C	5685.09	0.878395	-0.950565
O	5685.16	0.363849	-2.05856
H	5686.75	2.13436	-1.37489
H	5686.62	1.59971	0.347231
H	5685.5	2.86851	-0.295521
N	5684.17	0.533629	-0.0519948
C	5683.17	-0.475728	-0.304645
C	5682.02	-0.245819	0.656839
O	5682.15	0.503705	1.62299
H	5684.11	0.980763	0.836508
H	5682.79	-0.349517	-1.3099
C	5683.75	-1.89631	-0.113315
H	5684.14	-2.0221	0.918806
H	5682.98	-2.67595	-0.307216
H	5684.59	-2.05177	-0.822434
N	5680.85	-0.872957	0.399801
C	5679.7	-0.704841	1.2532
H	5680.77	-1.46984	-0.391077
H	5678.84	-1.30302	0.876314
H	5679.39	0.365166	1.29113
H	5679.93	-1.03538	2.29229
