44
  This energy is 1.42498e-319 and Call times are: 72771
C	-1.41413	2.63172	-1.78897
C	-1.51198	1.3252	-1.10003
O	-2.59449	0.784689	-0.919714
H	-2.4333	2.97686	-2.06832
H	-0.802844	2.53338	-2.71064
H	-0.951107	3.38499	-1.11731
N	-0.36289	0.784311	-0.688454
C	-0.296051	-0.482105	-0.0039472
C	1.01721	-0.534232	0.75227
O	1.91031	0.277666	0.517686
H	0.509758	1.2483	-0.815466
H	-1.09656	-0.531702	0.723242
C	-0.385045	-1.66315	-0.996081
H	0.43725	-1.60878	-1.74106
H	-0.334038	-2.63981	-0.472337
H	-1.3509	-1.6129	-1.54449
N	1.15643	-1.48363	1.69846
C	2.36692	-1.60232	2.47744
H	0.419469	-2.12685	1.8784
H	2.28802	-2.44343	3.20101
H	2.55992	-0.6655	3.04872
H	3.24335	-1.78997	1.81575
C	3449.83	-1.89003	1.39881
C	3450.38	-1.02123	0.330718
O	3449.75	-0.815382	-0.698398
H	3448.84	-2.27666	1.08709
H	3449.71	-1.31181	2.33933
H	3450.51	-2.74954	1.57648
N	3451.58	-0.489019	0.554501
C	3452.24	0.376748	-0.389998
C	3453.72	0.362728	-0.077435
O	3454.14	-0.0992474	0.984001
H	3452.09	-0.687698	1.3843
H	3452.11	-0.0257063	-1.38659
C	3451.69	1.81948	-0.307617
H	3451.83	2.22901	0.716268
H	3452.2	2.48875	-1.03366
H	3450.6	1.81599	-0.537432
N	3454.56	0.852247	-1.01055
C	3455.99	0.869099	-0.805888
H	3454.21	1.21511	-1.86613
H	3456.51	1.3114	-1.68529
H	3456.38	-0.16443	-0.654254
H	3456.25	1.47122	0.0943542
