44
  This energy is 4.61803e-320 and Call times are: 2589
C	3.08711	1.60562	-0.13354
C	2.1498	0.635591	0.47612
O	2.51431	-0.124971	1.36222
H	4.088	1.49498	0.337457
H	2.72526	2.64238	0.0308288
H	3.17981	1.41524	-1.22354
N	0.901929	0.638219	0.0015925
C	-0.123406	-0.246705	0.493958
C	-1.20114	-0.347521	-0.567909
O	-1.23602	0.447086	-1.50557
H	0.62488	1.24262	-0.740617
H	0.299104	-1.23434	0.628619
C	-0.728137	0.274032	1.81693
H	-1.16008	1.28768	1.67533
H	-1.51787	-0.405064	2.19892
H	0.0715621	0.344483	2.58612
N	-2.09773	-1.34728	-0.455618
C	-3.15225	-1.52906	-1.42574
H	-2.04843	-1.98439	0.306545
H	-3.78643	-2.40282	-1.15814
H	-2.72676	-1.70256	-2.44067
H	-3.80225	-0.625525	-1.47371
C	131.751	1.40378	-3.1388
C	131.911	1.40276	-1.66719
O	132.643	2.20915	-1.10985
H	132.381	2.20827	-3.57615
H	130.69	1.5918	-3.4083
H	132.071	0.427384	-3.5594
N	131.221	0.476845	-0.996477
C	131.273	0.350356	0.438141
C	130.828	-1.05368	0.798482
O	130.269	-1.76826	-0.0313017
H	130.651	-0.193114	-1.46444
H	132.299	0.464138	0.764478
C	130.362	1.39	1.12785
H	129.31	1.27085	0.790281
H	130.4	1.29551	2.23258
H	130.698	2.41422	0.85498
N	131.088	-1.49066	2.04659
C	130.712	-2.81742	2.47608
H	131.547	-0.899864	2.70136
H	131.009	-2.98718	3.53441
H	131.207	-3.59001	1.84461
H	129.61	-2.95947	2.39422
