44
  This energy is 1.14559e-319 and Call times are: 110067
C	0.245696	2.2525	2.64424
C	0.83422	1.51517	1.50355
O	1.96844	1.75488	1.11294
H	0.981805	2.99597	3.02007
H	-0.00583656	1.54903	3.46563
H	-0.67248	2.78719	2.32175
N	0.0594337	0.590172	0.932184
C	0.491577	-0.208897	-0.186551
C	-0.745055	-0.740003	-0.885054
O	-1.84696	-0.682473	-0.342539
H	-0.873353	0.424479	1.24104
H	1.0193	0.424431	-0.888319
C	1.38735	-1.38118	0.272196
H	0.843081	-2.02848	0.992536
H	1.72201	-1.99843	-0.586754
H	2.28907	-0.97896	0.783349
N	-0.592674	-1.25273	-2.12194
C	-1.71516	-1.77107	-2.86862
H	0.306112	-1.28386	-2.54673
H	-1.38605	-2.14917	-3.86158
H	-2.47906	-0.976641	-3.03171
H	-2.20058	-2.60889	-2.31762
C	5216.53	1.99448	1.10997
C	5215.18	1.41906	1.26964
O	5214.54	1.57282	2.30407
H	5216.81	2.53211	2.04103
H	5216.54	2.71185	0.262605
H	5217.27	1.18741	0.922389
N	5214.7	0.726973	0.23211
C	5213.4	0.107961	0.236757
C	5213.4	-0.98225	-0.81713
O	5214.29	-1.04303	-1.65963
H	5215.24	0.584171	-0.594073
H	5213.24	-0.363409	1.19782
C	5212.28	1.13677	-0.0619305
H	5212.45	1.61889	-1.04828
H	5211.28	0.663514	-0.0589711
H	5212.3	1.9306	0.716415
N	5212.4	-1.88654	-0.779985
C	5212.32	-2.96689	-1.73555
H	5211.69	-1.82449	-0.0860008
H	5211.43	-3.60148	-1.54062
H	5213.23	-3.61032	-1.67501
H	5212.25	-2.56904	-2.77364
