44
  This energy is 4.43869e-320 and Call times are: 107127
C	-2.53826	1.85178	-1.50142
C	-2.03254	0.61704	-0.860437
O	-2.78697	-0.303478	-0.577648
H	-3.63732	1.76715	-1.64551
H	-2.05597	1.99406	-2.49136
H	-2.32686	2.73151	-0.857738
N	-0.722213	0.573645	-0.608393
C	-0.0824372	-0.559623	0.0106527
C	1.22948	-0.0863827	0.605772
O	1.69847	1.009	0.302451
H	-0.122806	1.34185	-0.81698
H	-0.703644	-0.913721	0.823543
C	0.1748	-1.68852	-1.01236
H	0.811826	-1.32161	-1.84524
H	0.667192	-2.56274	-0.539001
H	-0.793749	-2.02555	-1.44185
N	1.84387	-0.897636	1.48917
C	3.09081	-0.525773	2.11611
H	1.44475	-1.77704	1.72704
H	3.43645	-1.32475	2.80851
H	2.97182	0.416043	2.69926
H	3.88197	-0.359586	1.34954
C	5073.82	-1.19695	-3.269
C	5073.43	-1.27621	-1.8434
O	5072.59	-2.08679	-1.45964
H	5073.24	-1.95113	-3.84968
H	5074.9	-1.40715	-3.38074
H	5073.59	-0.186666	-3.67171
N	5074.02	-0.416666	-1.01578
C	5073.75	-0.372497	0.398171
C	5074.17	0.991031	0.912018
O	5074.87	1.73221	0.226895
H	5074.68	0.258433	-1.34538
H	5072.68	-0.467955	0.552205
C	5074.51	-1.48301	1.1545
H	5075.61	-1.38247	0.993751
H	5074.3	-1.45198	2.24349
H	5074.2	-2.47669	0.768075
N	5073.73	1.36337	2.12941
C	5074.07	2.64826	2.69573
H	5073.15	0.752328	2.66541
H	5073.61	2.76648	3.70318
H	5073.7	3.47389	2.04485
H	5075.17	2.75487	2.79634
