44
  This energy is 1.21995e-319 and Call times are: 35223
C	3.3534	-0.789876	-0.506885
C	2.28382	-0.0379103	0.187195
O	2.53227	0.666322	1.15612
H	4.3247	-0.597983	-0.00130177
H	3.42774	-0.460825	-1.56472
H	3.13958	-1.87895	-0.473019
N	1.0485	-0.178764	-0.299141
C	-0.0957104	0.488888	0.26817
C	-1.33714	-0.269356	-0.159798
O	-1.28431	-1.10434	-1.06082
H	0.854506	-0.778288	-1.07107
H	-0.0341415	0.436538	1.34777
C	-0.181164	1.95759	-0.203768
H	-0.243528	2.00762	-1.31179
H	-1.06099	2.47469	0.231307
H	0.73449	2.50183	0.114864
N	-2.48538	-0.00959223	0.495991
C	-3.7151	-0.691404	0.165661
H	-2.50613	0.664459	1.22706
H	-4.54679	-0.33887	0.814705
H	-3.60409	-1.79122	0.304649
H	-3.99536	-0.504145	-0.896209
C	1676.79	-1.39249	0.812418
C	1675.85	-0.788145	-0.157958
O	1676.21	-0.498442	-1.29081
H	1677.78	-1.5048	0.335623
H	1676.42	-2.39395	1.12481
H	1676.89	-0.7406	1.70574
N	1674.6	-0.576495	0.275621
C	1673.57	0.00361066	-0.551461
C	1672.5	0.566872	0.362453
O	1672.47	0.268229	1.55483
H	1674.33	-0.789959	1.20994
H	1674	0.828718	-1.11076
C	1672.96	-1.04575	-1.50513
H	1672.53	-1.89109	-0.928065
H	1672.17	-0.602393	-2.14355
H	1673.75	-1.45152	-2.16839
N	1671.61	1.41741	-0.175052
C	1670.56	2.01271	0.620664
H	1671.65	1.65221	-1.14049
H	1669.92	2.68069	-0.00193354
H	1670.99	2.61512	1.45231
H	1669.91	1.22558	1.06626
