44
  This energy is 6.75783e-320 and Call times are: 108051
C	-3.08226	-1.61628	0.11584
C	-1.63329	-1.55396	0.412157
O	-1.09368	-2.40034	1.11141
H	-3.52277	-2.50287	0.621588
H	-3.24531	-1.70898	-0.97853
H	-3.58897	-0.701254	0.488547
N	-0.963097	-0.528423	-0.118387
C	0.45082	-0.332407	0.0797124
C	0.7614	1.12678	-0.191516
O	-0.0585857	1.84995	-0.754078
H	-1.41963	0.17063	-0.662298
H	0.69208	-0.532978	1.11588
C	1.28095	-1.23574	-0.859434
H	1.03045	-1.0278	-1.92157
H	2.37012	-1.08745	-0.709422
H	1.04347	-2.30183	-0.651602
N	1.95245	1.60021	0.224731
C	2.3305	2.97923	0.0208438
H	2.59952	1.00091	0.684487
H	3.34606	3.17333	0.430976
H	1.61133	3.66279	0.527586
H	2.33723	3.22854	-1.06496
C	5118.85	3.19676	-0.999966
C	5117.95	2.27547	-0.267498
O	5117.08	2.70115	0.475839
H	5118.59	4.24628	-0.745338
H	5118.74	3.05291	-2.09492
H	5119.91	3.0116	-0.711999
N	5118.16	0.970323	-0.461059
C	5117.37	-0.0480588	0.181014
C	5118.16	-1.33759	0.165399
O	5119.16	-1.45242	-0.547149
H	5118.89	0.635674	-1.04652
H	5117.21	0.228837	1.21572
C	5116.02	-0.249752	-0.542256
H	5116.18	-0.533069	-1.60365
H	5115.4	-1.03311	-0.0503742
H	5115.44	0.702213	-0.524949
N	5117.75	-2.33566	0.972968
C	5118.46	-3.59543	1.03384
H	5116.95	-2.22076	1.54738
H	5117.97	-4.28622	1.75378
H	5119.51	-3.44118	1.36019
H	5118.47	-4.08521	0.0333305
