44
  This energy is 8.908e-320 and Call times are: 58071
C	-0.152228	-0.753521	-3.39635
C	-0.514626	0.0851296	-2.23164
O	-1.12772	1.13413	-2.37382
H	-0.515689	-0.266231	-4.3271
H	-0.622959	-1.75521	-3.30776
H	0.950561	-0.867783	-3.45753
N	-0.131153	-0.364866	-1.03464
C	-0.410233	0.339408	0.191307
C	0.574473	-0.141397	1.23936
O	1.24586	-1.15452	1.05323
H	0.393196	-1.20628	-0.934552
H	-0.236319	1.39678	0.0370801
C	-1.85826	0.0875002	0.667609
H	-2.03341	-0.998281	0.824196
H	-2.07657	0.628438	1.61128
H	-2.56977	0.442909	-0.109302
N	0.69904	0.591876	2.3631
C	1.62008	0.218116	3.41104
H	0.152018	1.41249	2.49191
H	1.57508	0.94496	4.25183
H	2.66493	0.192805	3.02519
H	1.37412	-0.793278	3.80824
C	2750.22	0.139795	-1.16986
C	2751.29	0.572015	-0.244033
O	2751.12	1.50044	0.533602
H	2749.33	0.782118	-1.02139
H	2749.95	-0.915982	-0.967329
H	2750.56	0.236587	-2.22204
N	2752.45	-0.100572	-0.313681
C	2753.58	0.202365	0.522328
C	2754.82	-0.357514	-0.15096
O	2754.72	-1.15657	-1.08044
H	2752.58	-0.836049	-0.971654
H	2753.7	1.2771	0.582336
C	2753.42	-0.409515	1.93188
H	2753.3	-1.51207	1.86655
H	2754.29	-0.178046	2.57827
H	2752.51	0.00772981	2.41395
N	2756.02	0.0688782	0.291695
C	2757.25	-0.400187	-0.2965
H	2756.07	0.721253	1.04026
H	2758.13	0.0644404	0.20571
H	2757.29	-0.144507	-1.38012
H	2757.34	-1.50671	-0.199406
