44
  This energy is 5.48709e-320 and Call times are: 56769
C	-0.400236	0.255784	3.44971
C	-0.946848	0.0780245	2.08559
O	-2.12486	-0.199494	1.90739
H	-1.20951	0.0913825	4.19397
H	-0.0036213	1.28565	3.57172
H	0.412783	-0.477452	3.63494
N	-0.0856152	0.231207	1.07704
C	-0.467696	0.0901305	-0.305327
C	0.787059	-0.190137	-1.10924
O	1.90054	-0.0146133	-0.618142
H	0.878033	0.428556	1.23632
H	-1.12024	-0.768056	-0.404199
C	-1.16092	1.36716	-0.830452
H	-0.48894	2.2457	-0.726899
H	-1.45657	1.2619	-1.89454
H	-2.07783	1.56215	-0.232633
N	0.634185	-0.656043	-2.36446
C	1.77145	-0.962278	-3.20053
H	-0.275197	-0.79823	-2.74134
H	1.43966	-1.3306	-4.19628
H	2.40511	-1.74827	-2.72943
H	2.40183	-0.0565765	-3.35384
C	2689.9	-2.66974	-1.56054
C	2690.15	-1.81527	-0.378851
O	2689.49	-1.93435	0.642321
H	2689.06	-3.36245	-1.33877
H	2690.8	-3.26752	-1.80209
H	2689.63	-2.0423	-2.4352
N	2691.13	-0.915796	-0.497237
C	2691.5	-0.0137944	0.565592
C	2692.23	1.16048	-0.0517901
O	2692.64	1.10699	-1.20975
H	2691.65	-0.808788	-1.34446
H	2690.6	0.368224	1.02838
C	2692.4	-0.711442	1.61152
H	2693.32	-1.10272	1.13322
H	2692.68	-0.0197891	2.4314
H	2691.85	-1.57041	2.05547
N	2692.4	2.26308	0.70538
C	2693.07	3.43426	0.198125
H	2692.05	2.28944	1.63775
H	2693.11	4.23349	0.970927
H	2692.55	3.83564	-0.69724
H	2694.12	3.18707	-0.0989146
