44
  This energy is 3.95697e-320 and Call times are: 32199
C	1.24726	-2.00395	-2.56021
C	0.243047	-1.06227	-2.01614
O	-0.634422	-0.592679	-2.7275
H	1.05114	-2.1651	-3.64254
H	1.18155	-2.97943	-2.03397
H	2.26899	-1.58663	-2.43833
N	0.356519	-0.757171	-0.72138
C	-0.545055	0.143643	-0.048678
C	0.151167	0.655257	1.19742
O	1.1723	0.112173	1.61478
H	1.09321	-1.12366	-0.159323
H	-0.737041	0.993896	-0.690772
C	-1.86536	-0.562512	0.332453
H	-1.66465	-1.43466	0.990629
H	-2.56194	0.128288	0.850478
H	-2.36504	-0.933674	-0.5888
N	-0.37693	1.73273	1.81075
C	0.224128	2.29741	2.99651
H	-1.19971	2.1624	1.45347
H	-0.357503	3.1765	3.3517
H	1.26748	2.62826	2.78865
H	0.257684	1.5444	3.81689
C	1528.22	3.13891	-0.287659
C	1528.91	1.96512	-0.872407
O	1529.05	1.85127	-2.08251
H	1527.89	3.81544	-1.10516
H	1528.91	3.694	0.379618
H	1527.33	2.81285	0.291815
N	1529.35	1.04906	-0.010085
C	1530.04	-0.146777	-0.426721
C	1529.93	-1.16114	0.695194
O	1529.56	-0.820354	1.8174
H	1529.21	1.13907	0.971696
H	1529.54	-0.558794	-1.29217
C	1531.53	0.139742	-0.743025
H	1532.04	0.562941	0.146775
H	1532.06	-0.778884	-1.0643
H	1531.59	0.884992	-1.56551
N	1530.23	-2.44326	0.409771
C	1530.15	-3.48044	1.41136
H	1530.52	-2.70029	-0.506231
H	1530.44	-4.46543	0.983022
H	1529.11	-3.56115	1.80604
H	1530.83	-3.2574	2.26678
