44
  This energy is 2.40116e-320 and Call times are: 61683
C	1.26982	-1.2067	-3.00958
C	0.171652	-0.64188	-2.19336
O	-0.886297	-0.301889	-2.70487
H	0.954838	-1.24184	-4.07514
H	1.50726	-2.23711	-2.67089
H	2.17651	-0.571523	-2.92358
N	0.406395	-0.522755	-0.884518
C	-0.564384	0.00869652	0.0385068
C	0.176866	0.478321	1.27513
O	1.34549	0.14957	1.47026
H	1.28302	-0.776206	-0.484225
H	-1.03877	0.873006	-0.408709
C	-1.61709	-1.05515	0.422095
H	-1.12692	-1.9407	0.879975
H	-2.36622	-0.649236	1.1326
H	-2.15224	-1.39183	-0.492463
N	-0.483599	1.28112	2.13263
C	0.144958	1.78705	3.33059
H	-1.42658	1.5417	1.95343
H	-0.56082	2.42691	3.9048
H	1.04247	2.39613	3.07614
H	0.471655	0.948457	3.98725
C	2923.03	1.0803	2.79505
C	2923.09	0.66076	1.37697
O	2922.07	0.488399	0.720857
H	2921.96	1.18489	3.09854
H	2923.54	2.05775	2.92865
H	2923.51	0.319446	3.44211
N	2924.31	0.479033	0.867876
C	2924.54	0.0717256	-0.495986
C	2925.93	-0.527986	-0.579422
O	2926.73	-0.375396	0.336144
H	2925.13	0.594429	1.4209
H	2923.83	-0.70481	-0.753083
C	2924.42	1.26688	-1.46747
H	2925.14	2.06192	-1.20041
H	2924.59	0.956762	-2.51853
H	2923.39	1.698	-1.39595
N	2926.23	-1.24689	-1.67745
C	2927.53	-1.86542	-1.83918
H	2925.56	-1.36487	-2.4042
H	2927.59	-2.41008	-2.80731
H	2927.72	-2.59129	-1.0166
H	2928.34	-1.09788	-1.82007
