44
  This energy is 1.47172e-319 and Call times are: 36147
C	1.3979	1.70192	-2.69731
C	0.68301	0.541606	-2.11954
O	0.210837	-0.330864	-2.83533
H	1.40247	1.61577	-3.80565
H	2.44697	1.72438	-2.33431
H	0.888169	2.64632	-2.41232
N	0.581861	0.510087	-0.788702
C	-0.0841705	-0.553658	-0.0804108
C	-0.464461	-0.0329372	1.29198
O	0.0147712	1.01463	1.72182
H	0.94535	1.2417	-0.218135
H	-0.998985	-0.804874	-0.602023
C	0.82581	-1.79484	0.0556934
H	1.76366	-1.53338	0.59067
H	0.316021	-2.61589	0.600457
H	1.09825	-2.16589	-0.956357
N	-1.35738	-0.746386	2.0059
C	-1.78824	-0.321911	3.31753
H	-1.73919	-1.58775	1.63772
H	-2.5226	-1.04138	3.74218
H	-2.26959	0.681591	3.26729
H	-0.920858	-0.254316	4.01342
C	1717.29	-3.45664	0.074976
C	1718.07	-2.23301	0.362358
O	1719.1	-2.28016	1.02307
H	1717.78	-4.33048	0.548297
H	1717.23	-3.62562	-1.02093
H	1716.26	-3.36095	0.487827
N	1717.58	-1.09082	-0.131962
C	1718.23	0.181372	0.0628933
C	1717.2	1.26918	-0.152233
O	1716.12	1.01335	-0.679122
H	1716.73	-1.06136	-0.643983
H	1718.57	0.249364	1.08833
C	1719.41	0.367869	-0.917956
H	1719.06	0.296866	-1.96898
H	1719.91	1.34637	-0.77055
H	1720.16	-0.435755	-0.751039
N	1717.5	2.51166	0.273388
C	1716.57	3.60845	0.121826
H	1718.38	2.69704	0.703838
H	1717	4.54809	0.531536
H	1715.62	3.39573	0.660996
H	1716.33	3.77311	-0.95318
