44
  This energy is 1.19139e-319 and Call times are: 59205
C	3.20217	-0.615615	-1.22198
C	2.11562	-0.846826	-0.243646
O	2.20131	-1.72826	0.600285
H	4.02001	-1.34683	-1.0422
H	3.60732	0.411854	-1.10804
H	2.82106	-0.749756	-2.25625
N	1.04948	-0.0493028	-0.342003
C	-0.0871359	-0.151759	0.538019
C	-1.27037	0.499237	-0.151465
O	-1.10804	1.20916	-1.14217
H	0.978993	0.64597	-1.05233
H	-0.326014	-1.19757	0.683935
C	0.185609	0.540598	1.89204
H	0.430988	1.61314	1.73858
H	-0.687491	0.463464	2.57213
H	1.05522	0.0553619	2.38648
N	-2.49772	0.252812	0.347428
C	-3.68414	0.819685	-0.250265
H	-2.60893	-0.330152	1.14556
H	-4.59431	0.501563	0.304399
H	-3.78622	0.490129	-1.30961
H	-3.63707	1.9327	-0.237955
C	2806.6	2.71299	-1.9885
C	2806.49	1.28912	-1.60016
O	2805.63	0.566373	-2.0904
H	2805.81	2.95342	-2.73747
H	2807.6	2.9085	-2.43755
H	2806.46	3.36444	-1.10011
N	2807.36	0.850798	-0.690619
C	2807.37	-0.508726	-0.212813
C	2808.09	-0.525136	1.12336
O	2808.75	0.442771	1.49369
H	2808.03	1.45675	-0.277208
H	2806.35	-0.833417	-0.0436307
C	2808.09	-1.44774	-1.21037
H	2809.13	-1.11134	-1.38213
H	2808.1	-2.49539	-0.84564
H	2807.55	-1.42585	-2.18537
N	2807.96	-1.62433	1.89129
C	2808.59	-1.72529	3.18407
H	2807.41	-2.39429	1.57707
H	2808.36	-2.70472	3.6593
H	2808.24	-0.915593	3.86146
H	2809.7	-1.63226	3.08631
