44
  This energy is 3.14473e-320 and Call times are: 74661
C	-0.223657	-0.740865	3.39518
C	-0.58819	0.0732028	2.21382
O	-1.45836	0.93044	2.28045
H	-0.853704	-0.436973	4.25921
H	0.843926	-0.581182	3.65515
H	-0.39577	-1.81769	3.18599
N	0.0777193	-0.186634	1.08625
C	-0.164313	0.521504	-0.145334
C	0.345817	-0.338496	-1.28525
O	1.07603	-1.30331	-1.06673
H	0.764034	-0.907405	1.03729
H	-1.23196	0.643117	-0.277317
C	0.54724	1.8929	-0.15484
H	1.64225	1.76446	-0.0185441
H	0.362853	2.44089	-1.10166
H	0.165655	2.51286	0.685508
N	-0.0476063	-0.018954	-2.53389
C	0.378059	-0.787649	-3.68023
H	-0.644516	0.761268	-2.68941
H	-0.0492411	-0.366417	-4.61684
H	0.0451939	-1.84691	-3.58855
H	1.4887	-0.781083	-3.76748
C	3536.28	-0.144417	2.28838
C	3537.66	0.231433	1.91419
O	3538.36	0.906446	2.6602
H	3536.04	0.283385	3.2861
H	3536.18	-1.24947	2.33887
H	3535.56	0.254954	1.54369
N	3538.09	-0.200613	0.726845
C	3539.41	0.0834689	0.224089
C	3539.38	-0.0832179	-1.28276
O	3538.44	-0.644191	-1.83483
H	3537.51	-0.725183	0.115565
H	3539.66	1.11711	0.436028
C	3540.47	-0.862701	0.842829
H	3540.21	-1.92228	0.62405
H	3541.48	-0.646609	0.457994
H	3540.48	-0.731838	1.94687
N	3540.41	0.423091	-1.98789
C	3540.47	0.322312	-3.42778
H	3541.17	0.879832	-1.52334
H	3541.39	0.796534	-3.82175
H	3539.59	0.8302	-3.88935
H	3540.46	-0.744768	-3.74778
