44
  This energy is 7.02413e-320 and Call times are: 15609
C	-1.75038	2.29262	1.95094
C	-1.543	0.927113	1.41843
O	-2.20388	-0.0180408	1.82636
H	-2.5483	2.26788	2.72462
H	-2.06209	2.97818	1.13506
H	-0.813653	2.66987	2.41266
N	-0.599628	0.792176	0.483432
C	-0.282405	-0.47268	-0.130032
C	1.11346	-0.370483	-0.713424
O	1.66277	0.722075	-0.84154
H	-0.0479661	1.56469	0.180403
H	-0.264289	-1.23956	0.633933
C	-1.29691	-0.830059	-1.23917
H	-1.31339	-0.0409049	-2.02088
H	-1.0557	-1.80349	-1.71354
H	-2.31553	-0.900775	-0.799219
N	1.73068	-1.51655	-1.0621
C	3.06517	-1.51825	-1.61464
H	1.27223	-2.39126	-0.944022
H	3.39685	-2.55613	-1.83833
H	3.78796	-1.06625	-0.897344
H	3.1005	-0.927649	-2.55864
C	744.822	2.51913	2.40409
C	745.471	1.75116	1.31761
O	746.554	2.09139	0.862207
H	745.465	3.38326	2.67799
H	744.685	1.8755	3.29838
H	743.834	2.89893	2.06747
N	744.807	0.683405	0.868165
C	745.309	-0.162986	-0.184487
C	744.134	-0.912876	-0.780377
O	743.048	-0.94044	-0.203693
H	743.912	0.433395	1.22735
H	745.732	0.45818	-0.963743
C	746.361	-1.16123	0.349788
H	745.923	-1.79641	1.1495
H	746.75	-1.8144	-0.458177
H	747.216	-0.599491	0.784672
N	744.319	-1.52372	-1.96724
C	743.254	-2.25147	-2.61669
H	745.203	-1.48388	-2.42151
H	743.603	-2.68274	-3.58071
H	742.39	-1.57991	-2.82569
H	742.895	-3.08425	-1.96938
