44
  This energy is 9.10761e-320 and Call times are: 70923
C	3.31091	-0.936416	-0.535871
C	2.12049	-0.118943	-0.861214
O	2.18335	0.795633	-1.67121
H	4.18057	-0.568557	-1.12257
H	3.12683	-2.0003	-0.79489
H	3.54705	-0.855231	0.546067
N	0.992128	-0.433353	-0.220656
C	-0.248023	0.269953	-0.430926
C	-1.13295	0.0250019	0.775784
O	-0.861723	-0.860247	1.58486
H	0.960737	-1.16183	0.458513
H	-0.0459786	1.3324	-0.480427
C	-0.957046	-0.211976	-1.71628
H	-1.1622	-1.30244	-1.66239
H	-1.91223	0.327616	-1.88131
H	-0.298104	-0.0280981	-2.59272
N	-2.20646	0.823658	0.936134
C	-3.09935	0.672553	2.06135
H	-2.405	1.53903	0.274273
H	-3.92121	1.42061	2.01441
H	-2.5504	0.814696	3.02035
H	-3.55181	-0.345474	2.07014
C	3365.61	1.94644	-2.62331
C	3365.46	0.648315	-1.9281
O	3365.84	-0.392977	-2.44212
H	3366.09	1.78011	-3.6114
H	3366.24	2.62983	-2.02352
H	3364.61	2.41349	-2.78233
N	3364.88	0.683388	-0.725626
C	3364.66	-0.496869	0.0725857
C	3363.56	-0.188658	1.0724
O	3363.2	0.969662	1.27307
H	3364.54	1.53431	-0.330246
H	3364.31	-1.29503	-0.567938
C	3365.95	-0.919482	0.812151
H	3366.31	-0.0980978	1.46782
H	3365.79	-1.82805	1.4276
H	3366.75	-1.14133	0.068826
N	3362.99	-1.22759	1.71006
C	3361.93	-1.03167	2.67024
H	3363.29	-2.15812	1.52866
H	3361.59	-2.00607	3.08611
H	3361.05	-0.531164	2.19353
H	3362.27	-0.391788	3.51385
