44
  This energy is 8.98656e-320 and Call times are: 45891
C	0.675412	-1.61631	3.00957
C	0.771485	-0.443087	2.11206
O	1.24749	0.614239	2.50189
H	1.08135	-1.34826	4.00918
H	1.26461	-2.46243	2.59756
H	-0.384969	-1.92548	3.12338
N	0.307657	-0.606414	0.870869
C	0.332705	0.442324	-0.117235
C	-0.699189	0.108692	-1.17701
O	-1.19659	-1.01408	-1.23862
H	-0.104439	-1.46376	0.574105
H	0.0356891	1.37284	0.349672
C	1.73105	0.575677	-0.760635
H	2.03289	-0.380895	-1.23811
H	1.75392	1.38241	-1.52184
H	2.47799	0.81896	0.0261523
N	-1.06208	1.08956	-2.02684
C	-2.0461	0.867937	-3.06065
H	-0.653299	1.99352	-1.95625
H	-2.20629	1.79373	-3.65605
H	-3.0214	0.564018	-2.61607
H	-1.71482	0.0593988	-3.75181
C	2180.82	-1.67145	-1.72824
C	2179.73	-0.673369	-1.66131
O	2179.51	0.0921377	-2.59098
H	2181.35	-1.57493	-2.70242
H	2180.4	-2.69795	-1.6442
H	2181.55	-1.49881	-0.907496
N	2179.01	-0.65681	-0.537422
C	2177.91	0.256333	-0.323774
C	2177.68	0.364272	1.17085
O	2178.19	-0.442892	1.94586
H	2179.21	-1.26596	0.224442
H	2178.2	1.23678	-0.684201
C	2176.63	-0.232515	-1.02682
H	2176.34	-1.23887	-0.655181
H	2175.78	0.468357	-0.864486
H	2176.81	-0.308523	-2.12081
N	2176.92	1.38404	1.61327
C	2176.65	1.57376	3.02028
H	2176.52	2.03092	0.970861
H	2176.01	2.46433	3.18184
H	2177.6	1.72367	3.58268
H	2176.14	0.683381	3.44633
