44
  This energy is 4.39768e-320 and Call times are: 38205
C	1.33031	-3.17386	-0.532012
C	1.44293	-1.69788	-0.536155
O	2.51321	-1.14577	-0.750976
H	2.328	-3.61891	-0.73791
H	0.619736	-3.50553	-1.31808
H	0.97637	-3.52805	0.45906
N	0.321619	-1.01691	-0.288556
C	0.271997	0.423058	-0.259089
C	-0.95342	0.83085	0.535453
O	-1.82924	0.0110467	0.805056
H	-0.537936	-1.47861	-0.0862442
H	1.14297	0.794472	0.265826
C	0.200831	1.01274	-1.68539
H	-0.693478	0.629101	-2.22125
H	0.162651	2.12132	-1.66638
H	1.10344	0.705836	-2.25744
N	-1.0326	2.11087	0.949318
C	-2.15648	2.58721	1.72144
H	-0.310158	2.75735	0.727111
H	-2.03809	3.66638	1.96361
H	-2.24479	2.02123	2.677
H	-3.10646	2.45726	1.15414
C	1812.01	0.281741	3.35591
C	1811.77	-0.215742	1.98302
O	1810.87	-1.00611	1.74708
H	1811.28	-0.178922	4.0491
H	1811.9	1.38542	3.38908
H	1813.04	0.00846952	3.68673
N	1812.59	0.240396	1.0334
C	1812.48	-0.151481	-0.349017
C	1813.82	0.110307	-1.01561
O	1814.67	0.80208	-0.463068
H	1813.34	0.861452	1.2432
H	1812.29	-1.21623	-0.398866
C	1811.36	0.636643	-1.06968
H	1811.56	1.72859	-1.01603
H	1811.28	0.337264	-2.13432
H	1810.39	0.43731	-0.571187
N	1814.04	-0.458629	-2.21697
C	1815.29	-0.275124	-2.92154
H	1813.34	-1.02092	-2.6444
H	1815.27	-0.82026	-3.89104
H	1816.14	-0.656793	-2.31546
H	1815.47	0.804761	-3.12861
