44
  This energy is 9.71728e-320 and Call times are: 64497
C	-1.73181	-0.271455	3.00887
C	-1.37278	-0.774411	1.66375
O	-1.73726	-1.8784	1.28316
H	-2.33426	-1.04029	3.53972
H	-2.33216	0.658514	2.92191
H	-0.813576	-0.0645658	3.59793
N	-0.632331	0.037286	0.905301
C	-0.2043	-0.311419	-0.425872
C	0.995144	0.54997	-0.77023
O	1.28069	1.53185	-0.0874326
H	-0.317205	0.922228	1.23773
H	0.11991	-1.34434	-0.431968
C	-1.33312	-0.0868526	-1.45662
H	-1.66377	0.973666	-1.44723
H	-1.00698	-0.354514	-2.48266
H	-2.20627	-0.722499	-1.19257
N	1.7415	0.186679	-1.83182
C	2.90883	0.939419	-2.22792
H	1.49814	-0.615252	-2.36746
H	3.38557	0.483407	-3.12347
H	3.65934	0.962504	-1.40484
H	2.63384	1.99061	-2.47398
C	3059.28	-0.0939035	3.44789
C	3059.69	-0.428733	2.06669
O	3060.78	-0.951416	1.83995
H	3060.09	-0.385154	4.15417
H	3058.35	-0.645371	3.71397
H	3059.1	0.997806	3.53932
N	3058.83	-0.123798	1.09762
C	3059.09	-0.388398	-0.294927
C	3058.19	0.518225	-1.11662
O	3057.25	1.11319	-0.59459
H	3057.96	0.328395	1.29241
H	3060.11	-0.125947	-0.517211
C	3058.81	-1.86746	-0.647274
H	3057.76	-2.13347	-0.417362
H	3059.01	-2.0747	-1.71875
H	3059.47	-2.52123	-0.0379079
N	3058.48	0.661595	-2.42535
C	3057.69	1.51328	-3.28367
H	3059.25	0.177244	-2.82756
H	3058.08	1.497	-4.32388
H	3057.71	2.56556	-2.91817
H	3056.63	1.1743	-3.30489
