44
  This energy is 6.72769e-320 and Call times are: 9435
C	-0.137558	-3.46815	-0.281304
C	0.352354	-2.23371	0.372413
O	1.00638	-2.28164	1.4051
H	0.180836	-4.35071	0.314996
H	0.286328	-3.55356	-1.30397
H	-1.24627	-3.45569	-0.340903
N	0.035578	-1.08157	-0.223053
C	0.44012	0.201892	0.29261
C	-0.488021	1.25093	-0.288179
O	-1.22248	0.984124	-1.23751
H	-0.522505	-1.05429	-1.04812
H	0.30987	0.206219	1.36736
C	1.90447	0.522323	-0.0817159
H	2.03466	0.516394	-1.18495
H	2.21928	1.50982	0.31391
H	2.57407	-0.253973	0.348574
N	-0.491539	2.46969	0.286806
C	-1.35078	3.52796	-0.190642
H	0.104935	2.66385	1.05866
H	-1.20661	4.45283	0.410263
H	-2.42116	3.22715	-0.119607
H	-1.1285	3.76403	-1.25649
C	451.89	1.86973	2.23249
C	452.868	1.76529	1.12588
O	453.257	2.76005	0.52957
H	451.614	2.93652	2.37897
H	452.334	1.48111	3.17309
H	450.974	1.29118	1.98986
N	453.288	0.535545	0.819666
C	454.238	0.273153	-0.231909
C	454.088	-1.17864	-0.643224
O	453.455	-1.96777	0.0551402
H	452.942	-0.269603	1.29361
H	453.991	0.885275	-1.09001
C	455.685	0.546448	0.235938
H	455.935	-0.0826787	1.11677
H	456.419	0.345559	-0.571386
H	455.781	1.61281	0.535567
N	454.654	-1.56053	-1.80529
C	454.553	-2.91966	-2.28371
H	455.156	-0.905378	-2.3598
H	455.084	-3.03509	-3.25431
H	453.487	-3.20654	-2.43124
H	455.003	-3.62838	-1.55134
