44
  This energy is 2.33989e-320 and Call times are: 93351
C	0.620223	-0.729567	-3.34801
C	0.351467	-1.14616	-1.95323
O	0.146459	-2.31885	-1.67168
H	0.589986	-1.62202	-4.01019
H	1.62465	-0.261962	-3.42082
H	-0.149989	-0.00479477	-3.68628
N	0.340911	-0.175992	-1.03615
C	0.0945187	-0.424541	0.361827
C	-0.355572	0.877979	0.99436
O	-0.216453	1.94593	0.401098
H	0.480487	0.779399	-1.28249
H	-0.718188	-1.13366	0.45523
C	1.36232	-0.949683	1.07177
H	2.19424	-0.220059	0.973399
H	1.17609	-1.14226	2.14834
H	1.6825	-1.9034	0.598415
N	-0.929015	0.816074	2.21228
C	-1.39926	2.00326	2.88729
H	-1.03912	-0.0585091	2.67295
H	-1.83721	1.74562	3.87677
H	-2.18057	2.51643	2.28112
H	-0.562346	2.72035	3.05019
C	4420.64	-2.88499	1.93313
C	4420.04	-1.70535	1.26934
O	4418.83	-1.55175	1.22659
H	4419.83	-3.53224	2.33343
H	4421.29	-2.56206	2.77334
H	4421.24	-3.46995	1.20515
N	4420.9	-0.835459	0.72305
C	4420.47	0.359838	0.0431886
C	4421.59	0.809112	-0.868245
O	4422.72	0.339388	-0.750024
H	4421.88	-0.986638	0.739129
H	4419.61	0.122057	-0.579881
C	4420.11	1.48152	1.04587
H	4420.99	1.72247	1.68388
H	4419.78	2.4033	0.525741
H	4419.29	1.13958	1.70842
N	4421.3	1.71921	-1.81861
C	4422.3	2.19729	-2.73961
H	4420.38	2.08201	-1.90279
H	4421.87	2.94193	-3.44292
H	4422.72	1.35468	-3.33592
H	4423.14	2.68171	-2.18943
