44
  This energy is 8.96482e-320 and Call times are: 39885
C	2.72609	-0.860311	1.98857
C	1.73414	0.120574	1.4935
O	1.65007	1.23791	1.9844
H	3.30824	-0.406339	2.81976
H	3.42461	-1.14286	1.17306
H	2.21093	-1.76907	2.36503
N	0.944581	-0.286093	0.496708
C	-0.0679933	0.554249	-0.0909523
C	-1.07681	-0.344073	-0.77982
O	-0.823632	-1.52895	-0.989098
H	1.00323	-1.20873	0.124901
H	-0.585361	1.08574	0.697665
C	0.543099	1.54431	-1.10755
H	1.07365	0.995704	-1.91481
H	-0.233808	2.19301	-1.56184
H	1.28118	2.19576	-0.590823
N	-2.25973	0.198006	-1.13033
C	-3.28613	-0.583405	-1.78001
H	-2.44835	1.15699	-0.945937
H	-4.18269	0.0409636	-1.9888
H	-3.59633	-1.43778	-1.13577
H	-2.91379	-0.996358	-2.74542
C	1894.73	-1.75834	2.38736
C	1894.16	-0.502034	1.84859
O	1894.21	0.540946	2.48558
H	1895.16	-1.5643	3.3929
H	1895.53	-2.13377	1.71754
H	1893.93	-2.52869	2.48035
N	1893.59	-0.578225	0.644686
C	1892.99	0.558406	-0.0109115
C	1892.02	0.038883	-1.05093
O	1892.03	-1.14283	-1.39032
H	1893.52	-1.43998	0.148435
H	1892.42	1.12637	0.715713
C	1894.06	1.44589	-0.682675
H	1894.64	0.859899	-1.42701
H	1893.61	2.32211	-1.1883
H	1894.77	1.81915	0.0894817
N	1891.13	0.911478	-1.56731
C	1890.16	0.504682	-2.55437
H	1891.13	1.862	-1.2745
H	1889.52	1.36478	-2.8558
H	1889.5	-0.295831	-2.14868
H	1890.66	0.107186	-3.46406
