44
  This energy is 6.05774e-320 and Call times are: 21279
C	1.91311	1.19882	2.65122
C	0.609011	0.920101	2.00869
O	-0.441189	1.07023	2.61782
H	1.74303	1.53141	3.69827
H	2.44665	2.0023	2.10115
H	2.53819	0.281173	2.66264
N	0.649971	0.495198	0.74372
C	-0.535007	0.183396	-0.0148538
C	-0.130669	-0.728749	-1.15667
O	1.05276	-0.871773	-1.45811
H	1.51314	0.34901	0.267789
H	-1.22276	-0.364857	0.6164
C	-1.20192	1.4628	-0.567553
H	-0.493368	2.02313	-1.21416
H	-2.11474	1.22635	-1.15204
H	-1.49233	2.12301	0.278569
N	-1.10985	-1.38731	-1.80744
C	-0.819086	-2.28637	-2.89984
H	-2.0609	-1.26371	-1.54388
H	-1.75577	-2.72882	-3.30495
H	-0.157768	-3.1162	-2.56031
H	-0.300325	-1.74715	-3.72525
C	1012.12	1.77517	2.40715
C	1012.81	1.6871	1.10081
O	1012.77	2.61099	0.300041
H	1011.6	2.75791	2.48548
H	1012.85	1.68675	3.23498
H	1011.36	0.966471	2.49602
N	1013.46	0.551081	0.852098
C	1014.18	0.316483	-0.374104
C	1014.34	-1.18214	-0.541473
O	1014.12	-1.94627	0.396361
H	1013.46	-0.205624	1.50043
H	1013.59	0.679146	-1.20468
C	1015.57	0.998827	-0.352037
H	1016.17	0.62495	0.501651
H	1016.13	0.820332	-1.29477
H	1015.44	2.09597	-0.227785
N	1014.71	-1.6401	-1.7544
C	1014.87	-3.05191	-2.01089
H	1014.88	-1.00623	-2.50255
H	1015.18	-3.22676	-3.06569
H	1013.92	-3.59846	-1.82795
H	1015.65	-3.48437	-1.3427
