44
  This energy is 3.24305e-320 and Call times are: 87261
C	2.55066	-2.14779	-1.00362
C	2.0516	-0.998391	-0.215568
O	2.76006	-0.444956	0.614059
H	3.59588	-2.37477	-0.700523
H	2.53543	-1.90443	-2.08683
H	1.92004	-3.0425	-0.817186
N	0.796757	-0.612857	-0.45868
C	0.170792	0.489077	0.227424
C	-1.33128	0.319466	0.108029
O	-1.81194	-0.478593	-0.694404
H	0.220022	-1.09028	-1.11624
H	0.424938	0.439107	1.27861
C	0.601914	1.84484	-0.375206
H	0.340288	1.89242	-1.45382
H	0.121877	2.69549	0.150843
H	1.70424	1.9564	-0.282641
N	-2.11035	1.05572	0.924715
C	-3.55062	0.952472	0.890691
H	-1.70212	1.69076	1.57225
H	-4.01174	1.63838	1.6351
H	-3.87558	-0.0873744	1.12385
H	-3.93997	1.21769	-0.118889
C	4134.66	1.0067	-2.45421
C	4134.18	0.990373	-1.05325
O	4134.84	1.4852	-0.152738
H	4135.65	1.50771	-2.49835
H	4133.94	1.56544	-3.09536
H	4134.76	-0.0310171	-2.83523
N	4133	0.40533	-0.835983
C	4132.4	0.311283	0.472428
C	4131.39	-0.817325	0.442847
O	4131.02	-1.29883	-0.625064
H	4132.48	-0.0199141	-1.57361
H	4133.17	0.047292	1.19038
C	4131.71	1.63422	0.872
H	4130.93	1.90238	0.132972
H	4131.25	1.56534	1.87902
H	4132.46	2.45314	0.888847
N	4130.94	-1.28195	1.62396
C	4129.98	-2.36224	1.69453
H	4131.26	-0.883877	2.47749
H	4129.73	-2.59836	2.75255
H	4130.39	-3.28171	1.21748
H	4129.04	-2.08915	1.16506
