44
  This energy is 1.4692e-319 and Call times are: 98517
C	-2.38961	-1.8608	-1.71852
C	-1.04146	-1.7013	-1.12838
O	-0.260043	-2.64088	-1.07292
H	-2.52078	-2.91186	-2.05605
H	-2.50718	-1.18555	-2.59203
H	-3.16857	-1.62614	-0.962808
N	-0.738148	-0.487747	-0.661848
C	0.533945	-0.177149	-0.0600709
C	0.354636	1.06213	0.795076
O	-0.652645	1.75914	0.68836
H	-1.39401	0.26204	-0.686423
H	0.821209	-0.98996	0.594826
C	1.61827	0.0698047	-1.13263
H	1.32002	0.903829	-1.80313
H	2.59908	0.30908	-0.672703
H	1.73922	-0.844853	-1.75304
N	1.32447	1.35384	1.68408
C	1.23463	2.50704	2.54909
H	2.12855	0.773446	1.76037
H	2.1294	2.57636	3.20623
H	0.329268	2.44387	3.19529
H	1.16631	3.44364	1.94969
C	4666.92	-0.789209	3.39158
C	4667.62	-0.450937	2.12957
O	4668.82	-0.233405	2.10953
H	4667.66	-0.793494	4.22613
H	4666.46	-1.79546	3.31528
H	4666.13	-0.0361664	3.60887
N	4666.86	-0.39296	1.03185
C	4667.39	-0.0766586	-0.269467
C	4666.25	0.406342	-1.13685
O	4665.08	0.238763	-0.787229
H	4665.87	-0.54363	1.0661
H	4668.1	0.738868	-0.172368
C	4668.07	-1.30767	-0.916117
H	4667.34	-2.14261	-1.0136
H	4668.48	-1.06759	-1.91819
H	4668.9	-1.65247	-0.270583
N	4666.55	1.04042	-2.28505
C	4665.53	1.54555	-3.16884
H	4667.5	1.17256	-2.54696
H	4665.98	2.03255	-4.05978
H	4664.89	2.29591	-2.64516
H	4664.87	0.718788	-3.51914
