44
  This energy is 2.56519e-320 and Call times are: 125355
C	-2.1304	2.18484	-1.67749
C	-1.16892	1.05944	-1.66238
O	-0.947016	0.403488	-2.67083
H	-2.56325	2.28445	-2.6966
H	-1.61515	3.13181	-1.4118
H	-2.95209	1.99614	-0.954878
N	-0.572348	0.804801	-0.495496
C	0.386751	-0.256939	-0.323255
C	0.452498	-0.590198	1.15453
O	-0.0404418	0.163714	1.99147
H	-0.783333	1.32787	0.325982
H	0.0335069	-1.13806	-0.843757
C	1.78355	0.15801	-0.836947
H	2.14259	1.06261	-0.301314
H	2.52446	-0.657271	-0.705975
H	1.72167	0.400673	-1.9202
N	1.04795	-1.74603	1.50878
C	1.147	-2.15227	2.89129
H	1.43448	-2.34607	0.816122
H	1.67125	-3.12951	2.97741
H	0.134211	-2.25682	3.34358
H	1.7132	-1.39717	3.48326
C	5932.59	3.18286	0.0251089
C	5933.56	2.19639	-0.488403
O	5934.28	2.45236	-1.4501
H	5932.64	4.10404	-0.595402
H	5932.83	3.44558	1.07718
H	5931.56	2.76666	-0.0275604
N	5933.62	1.02505	0.150106
C	5934.51	-0.0345124	-0.231684
C	5933.97	-1.33436	0.322989
O	5933.08	-1.32936	1.172
H	5933.01	0.817769	0.914081
H	5934.52	-0.115657	-1.31122
C	5935.94	0.214252	0.310806
H	5935.93	0.297645	1.41849
H	5936.64	-0.59965	0.0185353
H	5936.33	1.16982	-0.101905
N	5934.47	-2.48489	-0.163623
C	5934	-3.77091	0.296135
H	5935.19	-2.46803	-0.855556
H	5934.54	-4.5947	-0.221535
H	5932.91	-3.88527	0.096032
H	5934.16	-3.87987	1.39283
