44
  This energy is 1.04638e-319 and Call times are: 34593
C	0.736402	0.550341	3.35871
C	-0.0709029	-0.0788588	2.28934
O	-0.918046	-0.92217	2.54947
H	0.438109	0.125996	4.34198
H	0.563712	1.64706	3.37336
H	1.8156	0.348572	3.19269
N	0.183465	0.320959	1.04121
C	-0.519246	-0.198833	-0.104578
C	0.337089	0.0535207	-1.33024
O	1.29285	0.8255	-1.2812
H	0.896264	0.987424	0.839527
H	-0.628097	-1.27031	0.00570699
C	-1.89884	0.47625	-0.272209
H	-1.78349	1.57544	-0.384417
H	-2.44268	0.0782393	-1.15346
H	-2.51604	0.285006	0.632576
N	0.0247524	-0.613025	-2.45903
C	0.790789	-0.445511	-3.672
H	-0.748115	-1.2388	-2.4766
H	0.37652	-1.07647	-4.48902
H	1.85368	-0.736846	-3.50881
H	0.771422	0.617307	-4.0055
C	1640.5	-0.926398	1.0032
C	1641.64	-0.996788	0.0623461
O	1641.65	-1.7993	-0.860898
H	1639.74	-1.68747	0.718315
H	1640.03	0.0797968	0.962791
H	1640.84	-1.13227	2.03854
N	1642.64	-0.146669	0.284373
C	1643.82	-0.0951521	-0.54461
C	1644.93	0.56157	0.257921
O	1644.67	1.16442	1.29953
H	1642.64	0.482361	1.05717
H	1644.13	-1.10576	-0.772484
C	1643.56	0.70202	-1.84231
H	1643.24	1.73808	-1.60484
H	1644.46	0.743534	-2.48303
H	1642.75	0.211472	-2.42051
N	1646.19	0.440167	-0.200507
C	1647.31	1.02206	0.503279
H	1646.37	-0.0576888	-1.04161
H	1648.26	0.814736	-0.0326233
H	1647.39	0.602179	1.53227
H	1647.19	2.12623	0.58922
