44
  This energy is 2.92586e-320 and Call times are: 87135
C	2.16589	-2.2414	1.5528
C	1.39217	-1.78084	0.377876
O	1.51937	-2.31847	-0.713574
H	2.82155	-3.08733	1.25216
H	1.4776	-2.58689	2.35262
H	2.79924	-1.41634	1.9415
N	0.563623	-0.753516	0.57909
C	-0.255586	-0.193739	-0.466077
C	-0.641961	1.21292	-0.0522558
O	-0.479736	1.59455	1.10527
H	0.490509	-0.3053	1.46605
H	0.331961	-0.1203	-1.37243
C	-1.52309	-1.04461	-0.703904
H	-2.12314	-1.11842	0.228087
H	-2.15608	-0.616499	-1.50816
H	-1.22652	-2.07289	-1.00528
N	-1.1451	2.02753	-1.00056
C	-1.5298	3.38735	-0.70213
H	-1.26204	1.70232	-1.93319
H	-1.92196	3.89368	-1.61158
H	-0.657187	3.96896	-0.325945
H	-2.32235	3.40887	0.0805428
C	4128.38	2.72052	-0.902218
C	4128.01	1.63216	0.0307703
O	4128.7	1.37918	1.01094
H	4129.32	3.19877	-0.554651
H	4127.57	3.48715	-0.932374
H	4128.54	2.31251	-1.92252
N	4126.9	0.94998	-0.26299
C	4126.41	-0.136029	0.549049
C	4125.49	-0.984907	-0.310149
O	4125.08	-0.568634	-1.39131
H	4126.36	1.14665	-1.08028
H	4127.25	-0.754785	0.848467
C	4125.65	0.385931	1.78628
H	4124.79	1.02085	1.47548
H	4125.27	-0.447681	2.41383
H	4126.33	1.00716	2.40675
N	4125.17	-2.21134	0.144451
C	4124.31	-3.09482	-0.610838
H	4125.52	-2.53282	1.01849
H	4124.16	-4.05508	-0.0697675
H	4124.76	-3.31944	-1.60647
H	4123.32	-2.62708	-0.777444
