44
  This energy is 1.01768e-319 and Call times are: 40347
C	2.85275	-1.81894	-0.824242
C	1.81276	-1.3952	0.14015
O	1.73172	-1.90672	1.24842
H	3.47074	-2.62276	-0.368361
H	3.51012	-0.961284	-1.0794
H	2.38011	-2.21014	-1.74972
N	0.977318	-0.438439	-0.270968
C	-0.0853692	0.0786769	0.553723
C	-1.11128	0.723062	-0.358152
O	-0.843997	0.963964	-1.53389
H	1.03539	-0.0501524	-1.18683
H	-0.569	-0.745667	1.06228
C	0.444995	1.11311	1.57145
H	0.941108	1.95706	1.04635
H	-0.370642	1.51321	2.20819
H	1.19643	0.629039	2.23265
N	-2.32393	0.998309	0.161204
C	-3.36777	1.60084	-0.634744
H	-2.52314	0.789263	1.11296
H	-4.2884	1.74948	-0.0284548
H	-3.6219	0.953017	-1.50479
H	-3.04154	2.59174	-1.02574
C	1917.35	-2.44225	-0.396188
C	1916.5	-1.57418	0.452135
O	1916.48	-1.70245	1.66856
H	1917.9	-3.16226	0.248481
H	1918.09	-1.8283	-0.957124
H	1916.72	-3.00987	-1.11287
N	1915.77	-0.66011	-0.183973
C	1914.89	0.256816	0.504073
C	1913.87	0.758243	-0.492181
O	1914.02	0.580585	-1.69884
H	1915.77	-0.584859	-1.17759
H	1914.36	-0.278433	1.28174
C	1915.68	1.44548	1.09838
H	1916.22	1.99194	0.297937
H	1915.01	2.15339	1.62901
H	1916.43	1.06483	1.8256
N	1912.78	1.38116	-0.00495423
C	1911.74	1.88171	-0.877033
H	1912.66	1.5089	0.975132
H	1910.93	2.36261	-0.287517
H	1911.29	1.05317	-1.47454
H	1912.15	2.63568	-1.58587
