44
  This energy is 9.50187e-320 and Call times are: 115695
C	-1.88514	1.84824	-2.27077
C	-1.12525	0.635458	-1.8927
O	-1.10787	-0.35112	-2.61579
H	-2.38706	1.67744	-3.24789
H	-1.19858	2.71561	-2.36623
H	-2.65707	2.07083	-1.50426
N	-0.474617	0.682458	-0.727868
C	0.30782	-0.418172	-0.224646
C	0.452649	-0.239967	1.27419
O	0.169566	0.829751	1.81029
H	-0.520317	1.48135	-0.134052
H	-0.232108	-1.34085	-0.395547
C	1.70099	-0.468814	-0.890711
H	2.25187	0.479559	-0.713973
H	2.30604	-1.31522	-0.505635
H	1.58111	-0.598388	-1.98843
N	0.879106	-1.29828	1.9912
C	1.03588	-1.22575	3.42519
H	1.09629	-2.15754	1.53981
H	1.39734	-2.19633	3.83086
H	0.065424	-0.980948	3.91462
H	1.77068	-0.434991	3.70077
C	5477.01	1.99414	1.56458
C	5477.39	0.841323	0.717526
O	5476.56	0.0269959	0.345931
H	5475.92	1.95413	1.77059
H	5477.24	2.94592	1.04218
H	5477.56	1.95843	2.52893
N	5478.68	0.743714	0.394134
C	5479.21	-0.321751	-0.423418
C	5480.7	-0.423946	-0.159112
O	5481.29	0.472974	0.434179
H	5479.36	1.39734	0.727202
H	5478.75	-1.25569	-0.116381
C	5478.95	-0.0570476	-1.92385
H	5479.42	0.902146	-2.23528
H	5479.35	-0.875596	-2.55622
H	5477.86	0.016897	-2.10411
N	5481.33	-1.53707	-0.577251
C	5482.75	-1.72763	-0.359229
H	5480.83	-2.25479	-1.04923
H	5483.08	-2.7029	-0.776723
H	5482.98	-1.71343	0.729689
H	5483.33	-0.916834	-0.849578
