44
  This energy is 1.46782e-319 and Call times are: 72939
C	-1.77721	-0.921292	-2.84936
C	-1.17528	-1.2328	-1.53337
O	-1.36485	-2.31269	-0.990777
H	-2.37969	-1.79024	-3.19261
H	-0.980787	-0.718815	-3.59604
H	-2.44021	-0.0344053	-2.76683
N	-0.428631	-0.273838	-0.980862
C	0.22265	-0.428073	0.29541
C	0.518475	0.956649	0.837878
O	0.442655	1.94577	0.11143
H	-0.305586	0.612448	-1.41937
H	-0.459969	-0.911656	0.982617
C	1.5317	-1.23826	0.164643
H	2.22939	-0.739679	-0.541582
H	2.03568	-1.35904	1.14556
H	1.30158	-2.25003	-0.234765
N	0.84329	1.06104	2.14156
C	1.12981	2.33982	2.74886
H	0.89238	0.249605	2.71463
H	1.37717	2.21686	3.82633
H	0.251009	3.01963	2.66638
H	1.99387	2.82977	2.24435
C	3461.47	1.09367	3.12641
C	3461.62	0.242377	1.92425
O	3462.62	-0.444692	1.75307
H	3462.38	0.985999	3.76467
H	3460.58	0.781604	3.71019
H	3461.37	2.15866	2.83076
N	3460.61	0.275217	1.04849
C	3460.61	-0.497777	-0.167776
C	3459.63	0.148866	-1.12779
O	3458.83	0.992777	-0.733361
H	3459.82	0.861265	1.18511
H	3461.59	-0.449188	-0.618575
C	3460.2	-1.96416	0.0989424
H	3459.19	-2.01027	0.562028
H	3460.2	-2.56224	-0.835441
H	3460.93	-2.42618	0.804393
N	3459.69	-0.21903	-2.42286
C	3458.8	0.35173	-3.41142
H	3460.35	-0.898342	-2.72367
H	3459.01	-0.0799158	-4.41639
H	3458.94	1.45587	-3.47024
H	3457.74	0.148893	-3.1504
