44
  This energy is 1.278e-319 and Call times are: 11745
C	-1.46585	-3.10959	-0.554846
C	-0.948643	-2.05696	0.348294
O	-1.0959	-2.13489	1.56021
H	-1.96903	-3.89631	0.0482695
H	-0.630514	-3.57113	-1.12232
H	-2.20072	-2.67683	-1.26592
N	-0.325988	-1.02948	-0.233901
C	0.23112	0.0708936	0.511512
C	0.373253	1.24878	-0.432749
O	0.278615	1.09445	-1.64891
H	-0.238007	-0.963151	-1.22425
H	-0.46435	0.355995	1.29069
C	1.60584	-0.296271	1.11356
H	2.31663	-0.588886	0.311528
H	2.03759	0.548729	1.68831
H	1.48834	-1.16106	1.80239
N	0.583505	2.46383	0.110784
C	0.719497	3.64512	-0.709126
H	0.649947	2.5692	1.09755
H	0.888692	4.5449	-0.0774451
H	-0.2004	3.81053	-1.31548
H	1.58014	3.54097	-1.40885
C	561.328	0.771333	2.32811
C	561.838	0.720686	0.939304
O	561.116	0.995022	-0.00972684
H	560.258	1.07406	2.31594
H	561.904	1.51264	2.92046
H	561.413	-0.228314	2.80392
N	563.113	0.356531	0.788727
C	563.752	0.2612	-0.499563
C	564.96	-0.644105	-0.354884
O	565.389	-0.946167	0.756893
H	563.682	0.10733	1.56773
H	563.07	-0.209105	-1.19653
C	564.188	1.65073	-1.01526
H	564.887	2.13063	-0.297537
H	564.68	1.581	-2.00711
H	563.295	2.3047	-1.1158
N	565.525	-1.11771	-1.48296
C	566.671	-1.99566	-1.44304
H	565.158	-0.867449	-2.37299
H	566.989	-2.27406	-2.47189
H	566.431	-2.92992	-0.885519
H	567.528	-1.49976	-0.932969
