44
  This energy is 2.46489e-320 and Call times are: 80625
C	-2.94152	1.49304	1.11552
C	-2.20834	0.370547	0.488111
O	-2.77034	-0.683739	0.225193
H	-3.99897	1.19337	1.28246
H	-2.92068	2.38247	0.451218
H	-2.48256	1.75134	2.09306
N	-0.913315	0.575173	0.236292
C	-0.0681183	-0.42162	-0.371057
C	1.37055	-0.0798852	-0.0353544
O	1.66425	1.02264	0.422913
H	-0.460176	1.428	0.481814
H	-0.288603	-1.38568	0.0694541
C	-0.260379	-0.464159	-1.90349
H	-0.0339972	0.526628	-2.35205
H	0.388824	-1.23073	-2.37432
H	-1.31841	-0.714273	-2.13622
N	2.30259	-1.03208	-0.236887
C	3.69608	-0.80139	0.065036
H	2.04392	-1.92043	-0.601808
H	4.30393	-1.70264	-0.170575
H	3.82958	-0.561048	1.14469
H	4.09098	0.0534433	-0.530359
C	3823.46	-0.379956	-0.208482
C	3822.18	-0.461479	0.53789
O	3822.13	-0.964921	1.65168
H	3824.27	-0.83529	0.400066
H	3823.71	0.680803	-0.413077
H	3823.37	-0.931855	-1.16849
N	3821.1	0.0358003	-0.0735697
C	3819.79	0.0293008	0.524886
C	3818.77	0.166008	-0.587955
O	3819.11	0.508211	-1.71779
H	3821.15	0.416986	-0.992963
H	3819.63	-0.927277	1.00499
C	3819.63	1.18406	1.5386
H	3819.8	2.16385	1.04287
H	3818.62	1.18192	2.00141
H	3820.38	1.07311	2.34798
N	3817.49	-0.121366	-0.297076
C	3816.45	-0.0309871	-1.29582
H	3817.23	-0.403487	0.621375
H	3815.46	-0.304938	-0.862087
H	3816.66	-0.718301	-2.14668
H	3816.38	1.00554	-1.6983
