44
  This energy is 6.28797e-320 and Call times are: 21363
C	-1.06272	-2.94067	-1.53272
C	-1.13733	-1.93923	-0.445171
O	-2.02131	-1.98696	0.399095
H	-1.90195	-3.6619	-1.42608
H	-0.102668	-3.49562	-1.47656
H	-1.14257	-2.43982	-2.52051
N	-0.197314	-0.991213	-0.446506
C	-0.137474	0.0515878	0.546376
C	0.673515	1.19649	-0.0287224
O	1.35256	1.03921	-1.04164
H	0.500339	-0.94611	-1.15656
H	-1.13894	0.418571	0.732007
C	0.510577	-0.453909	1.85466
H	1.53759	-0.830268	1.66045
H	0.5581	0.346485	2.6214
H	-0.0921864	-1.29312	2.26521
N	0.603319	2.38817	0.596544
C	1.33156	3.53855	0.114367
H	0.042583	2.49716	1.41075
H	1.14563	4.42221	0.763846
H	1.01882	3.79465	-0.923828
H	2.42678	3.33467	0.104654
C	1018.46	-1.4705	-3.10706
C	1018.77	-1.30134	-1.67132
O	1019.59	-2.02749	-1.11336
H	1019.05	-2.31683	-3.51736
H	1018.71	-0.546948	-3.66726
H	1017.38	-1.69227	-3.23624
N	1018.13	-0.325315	-1.03128
C	1018.33	-0.0380174	0.366288
C	1017.12	0.722776	0.866209
O	1016.31	1.20705	0.0759587
H	1017.45	0.240628	-1.48992
H	1018.38	-0.97081	0.913376
C	1019.61	0.79765	0.588816
H	1019.55	1.75357	0.0256174
H	1019.77	1.02053	1.66388
H	1020.49	0.229916	0.217434
N	1016.95	0.826831	2.19939
C	1015.82	1.52259	2.76741
H	1017.61	0.421946	2.82248
H	1015.86	1.50019	3.8787
H	1014.86	1.04971	2.44331
H	1015.81	2.58688	2.43831
