44
  This energy is 6.92087e-320 and Call times are: 82389
C	1.51866	2.99434	-0.923979
C	1.04758	2.03585	0.101002
O	1.30517	2.19922	1.28567
H	2.10101	3.80273	-0.430801
H	0.652682	3.44614	-1.45198
H	2.17141	2.47846	-1.65932
N	0.339721	0.994195	-0.342007
C	-0.186841	-0.0221422	0.533561
C	-0.454026	-1.26124	-0.298592
O	-0.463064	-1.2037	-1.52678
H	0.161337	0.856701	-1.31268
H	0.565024	-0.276247	1.2699
C	-1.48853	0.446952	1.22107
H	-2.25743	0.707451	0.462752
H	-1.8966	-0.333173	1.89609
H	-1.27968	1.3558	1.82649
N	-0.657396	-2.42169	0.355624
C	-0.907478	-3.65501	-0.353296
H	-0.639068	-2.44904	1.34968
H	-1.05104	-4.4964	0.359935
H	-0.0518094	-3.90436	-1.0218
H	-1.82301	-3.56823	-0.982141
C	3907.17	1.09474	-0.937879
C	3906.27	0.143072	-0.242356
O	3906.71	-0.8846	0.258381
H	3908.21	0.705319	-0.912273
H	3907.14	2.0834	-0.433214
H	3906.86	1.21197	-1.99649
N	3904.98	0.468317	-0.201402
C	3903.99	-0.356085	0.439457
C	3902.63	0.013482	-0.135314
O	3902.49	1.03865	-0.799075
H	3904.63	1.29396	-0.638384
H	3904.18	-1.39276	0.19223
C	3903.99	-0.150341	1.97073
H	3903.79	0.914356	2.22077
H	3903.22	-0.783744	2.46736
H	3904.99	-0.42334	2.3794
N	3901.61	-0.830367	0.0899157
C	3900.28	-0.567127	-0.428029
H	3901.74	-1.6585	0.62344
H	3899.58	-1.37545	-0.134409
H	3900.3	-0.505295	-1.54026
H	3899.89	0.399315	-0.0350854
