44
  This energy is 6.38036e-320 and Call times are: 95073
C	-2.86923	-0.287026	1.95224
C	-2.12398	-0.51071	0.692973
O	-2.59382	-1.1925	-0.207533
H	-3.84123	-0.824405	1.90419
H	-3.06445	0.796784	2.0939
H	-2.28724	-0.673379	2.81536
N	-0.922382	0.0644203	0.604867
C	-0.0789362	-0.0613136	-0.556864
C	1.34516	0.242244	-0.133741
O	1.57927	0.772213	0.950768
H	-0.538284	0.593412	1.35691
H	-0.107703	-1.08662	-0.903259
C	-0.51785	0.906849	-1.67808
H	-0.487802	1.95772	-1.31909
H	0.129394	0.812546	-2.57416
H	-1.56295	0.674887	-1.97827
N	2.33609	-0.109055	-0.976744
C	3.7234	0.129624	-0.653372
H	2.12662	-0.543411	-1.84662
H	4.38529	-0.227551	-1.47288
H	4.00595	-0.403828	0.283026
H	3.90993	1.21733	-0.500777
C	4500.66	-1.61673	2.12487
C	4501.46	-0.433798	1.73168
O	4501.34	0.635769	2.31184
H	4499.99	-1.34319	2.96781
H	4501.33	-2.43926	2.4517
H	4500.05	-1.96223	1.27017
N	4502.31	-0.602682	0.715624
C	4503.16	0.454172	0.218886
C	4503.57	0.0945543	-1.19495
O	4503.4	-1.04377	-1.62855
H	4502.38	-1.47099	0.232185
H	4502.58	1.37042	0.170551
C	4504.41	0.639555	1.10722
H	4504.99	-0.302491	1.15513
H	4505.06	1.45266	0.727671
H	4504.09	0.90149	2.14038
N	4504.1	1.06944	-1.95739
C	4504.52	0.823169	-3.31962
H	4504.22	1.98603	-1.59063
H	4504.93	1.74779	-3.77826
H	4503.65	0.483119	-3.93597
H	4505.3	0.031765	-3.35633
