44
  This energy is 1.22637e-319 and Call times are: 23589
C	-1.42934	2.5812	-1.84946
C	-1.20578	1.14323	-1.57842
O	-1.82175	0.281079	-2.1898
H	-2.20259	2.68992	-2.64074
H	-0.488244	3.05543	-2.19912
H	-1.78173	3.0939	-0.929729
N	-0.307781	0.850228	-0.634969
C	0.0186097	-0.50233	-0.259625
C	0.633005	-0.465913	1.12617
O	1.00649	0.596162	1.62048
H	0.166216	1.56211	-0.123614
H	-0.894479	-1.08089	-0.199521
C	1.00565	-1.14157	-1.26174
H	1.94097	-0.545123	-1.32141
H	1.25899	-2.18312	-0.975813
H	0.544274	-1.16125	-2.27312
N	0.732041	-1.63056	1.79684
C	1.29256	-1.69146	3.12661
H	0.417595	-2.47832	1.38253
H	1.2887	-2.73652	3.5075
H	0.703731	-1.05972	3.83048
H	2.34351	-1.32174	3.12749
C	1125.87	-2.75208	0.82375
C	1125.28	-1.42823	1.13767
O	1125.41	-0.930485	2.24843
H	1126.38	-3.15161	1.72646
H	1126.61	-2.65849	0.00268721
H	1125.07	-3.46043	0.520392
N	1124.62	-0.822931	0.149551
C	1124	0.468045	0.301754
C	1122.94	0.604535	-0.774549
O	1122.91	-0.17446	-1.72525
H	1124.5	-1.25177	-0.742196
H	1123.5	0.50704	1.26156
C	1125.03	1.60907	0.177004
H	1125.54	1.56566	-0.808538
H	1124.56	2.6045	0.293854
H	1125.81	1.49706	0.97014
N	1122.03	1.59123	-0.636915
C	1120.98	1.79039	-1.60581
H	1122.07	2.20688	0.143208
H	1120.34	2.65161	-1.3174
H	1120.34	0.883328	-1.67984
H	1121.41	1.9939	-2.61429
