44
  This energy is 1.51649e-319 and Call times are: 60465
C	-0.552123	3.43548	0.136942
C	-0.735428	2.06557	0.666986
O	-1.28838	1.87154	1.74081
H	-0.976326	4.16796	0.857629
H	-1.07713	3.54286	-0.835509
H	0.528331	3.6513	-0.000843175
N	-0.26138	1.0701	-0.0858011
C	-0.364665	-0.315784	0.295613
C	0.688609	-1.09018	-0.472607
O	1.26792	-0.582397	-1.43093
H	0.213043	1.24296	-0.944857
H	-0.137275	-0.408424	1.35003
C	-1.76937	-0.880727	-0.01221
H	-1.99964	-0.78348	-1.09463
H	-1.85241	-1.94762	0.280382
H	-2.53191	-0.304274	0.555574
N	0.977294	-2.3378	-0.0529674
C	1.97453	-3.14597	-0.715208
H	0.502609	-2.72835	0.728943
H	2.06529	-4.13962	-0.223601
H	2.96992	-2.64659	-0.682601
H	1.70381	-3.30683	-1.78386
C	2869.4	2.1693	-1.94711
C	2868.59	0.944979	-1.78094
O	2868.27	0.263054	-2.74455
H	2869.63	2.31763	-3.0258
H	2870.36	2.07051	-1.39155
H	2868.85	3.05361	-1.57074
N	2868.23	0.639116	-0.533145
C	2867.43	-0.520358	-0.211866
C	2866.79	-0.283669	1.13992
O	2867.17	0.62902	1.86863
H	2868.47	1.21855	0.240216
H	2866.64	-0.617414	-0.942266
C	2868.3	-1.79994	-0.171111
H	2869.11	-1.69666	0.578739
H	2867.69	-2.69465	0.0758492
H	2868.77	-1.96149	-1.16674
N	2865.77	-1.09253	1.49766
C	2865.09	-0.934946	2.76085
H	2865.47	-1.82087	0.891001
H	2864.29	-1.69569	2.87107
H	2864.63	0.0762523	2.83443
H	2865.8	-1.05182	3.60959
