44
  This energy is 1.42222e-319 and Call times are: 47907
C	3.26693	-1.00594	-0.66437
C	2.07958	-0.168796	-0.948249
O	2.12553	0.736191	-1.77006
H	4.11787	-0.660976	-1.29108
H	3.0519	-2.0686	-0.903843
H	3.55006	-0.918481	0.405739
N	0.973511	-0.454754	-0.257444
C	-0.26083	0.270374	-0.423028
C	-1.09849	0.0548221	0.822407
O	-0.810198	-0.827348	1.62894
H	0.957001	-1.17562	0.430322
H	-0.0409103	1.32815	-0.492524
C	-1.03254	-0.210587	-1.67213
H	-1.25592	-1.29626	-1.59781
H	-1.98342	0.345783	-1.80271
H	-0.407831	-0.0483778	-2.57743
N	-2.14891	0.875767	1.01905
C	-2.99618	0.753373	2.18238
H	-2.36159	1.58817	0.358386
H	-3.80493	1.51676	2.16191
H	-2.40461	0.894459	3.11586
H	-3.46712	-0.255527	2.22126
C	2276.14	1.90596	2.25987
C	2274.94	1.67493	1.42847
O	2273.96	2.40631	1.51242
H	2275.97	2.79114	2.91106
H	2277.02	2.09828	1.61255
H	2276.34	1.02098	2.90051
N	2274.98	0.630597	0.597979
C	2273.89	0.278032	-0.274139
C	2274.05	-1.17996	-0.657744
O	2275.11	-1.77127	-0.447767
H	2275.77	0.0250453	0.559857
H	2272.96	0.373156	0.270905
C	2273.87	1.16213	-1.54112
H	2274.83	1.06263	-2.09748
H	2273.04	0.89343	-2.21478
H	2273.76	2.22768	-1.24653
N	2272.99	-1.8019	-1.21272
C	2273.05	-3.19236	-1.59933
H	2272.14	-1.30811	-1.36794
H	2272.08	-3.51901	-2.0381
H	2273.27	-3.83654	-0.717419
H	2273.85	-3.35709	-2.35586
