44
  This energy is 2.07508e-321 and Call times are: 54753
C	-1.88519	1.23874	-2.65287
C	-0.58874	0.973251	-1.98959
O	0.470418	1.1733	-2.56809
H	-1.70074	1.61247	-3.68348
H	-2.45347	2.00752	-2.08818
H	-2.48384	0.305357	-2.7108
N	-0.646528	0.503149	-0.741381
C	0.52917	0.19728	0.0338657
C	0.124726	-0.765157	1.13358
O	-1.06078	-0.950916	1.40174
H	-1.51585	0.316824	-0.291392
H	1.24624	-0.309466	-0.599456
C	1.14715	1.47415	0.646088
H	0.408609	1.99186	1.29467
H	2.05271	1.24227	1.24355
H	1.43808	2.1714	-0.1696
N	1.10695	-1.41926	1.78426
C	0.816764	-2.36379	2.83775
H	2.05991	-1.26058	1.54777
H	1.75604	-2.79451	3.24945
H	0.186906	-3.19889	2.45417
H	0.264419	-1.86829	3.66876
C	2598.54	-0.844637	-1.46769
C	2597.73	-0.415636	-0.305176
O	2598.22	-0.332541	0.811966
H	2599.58	-1.05789	-1.13326
H	2598.57	-0.0405088	-2.23286
H	2598.11	-1.76565	-1.91477
N	2596.45	-0.135016	-0.547071
C	2595.54	0.295134	0.481263
C	2594.13	0.0193606	-0.0030492
O	2593.91	-0.247809	-1.18321
H	2596.05	-0.234608	-1.45615
H	2595.7	-0.300597	1.37007
C	2595.71	1.79898	0.791922
H	2595.54	2.40712	-0.122206
H	2595.01	2.13349	1.58343
H	2596.74	1.98804	1.14454
N	2593.13	0.0568029	0.907931
C	2591.76	-0.204238	0.541404
H	2593.33	0.267844	1.85951
H	2591.1	-0.124156	1.42868
H	2591.66	-1.22844	0.11569
H	2591.41	0.525582	-0.225157
