44
  This energy is 2.72329e-320 and Call times are: 55719
C	-1.05035	3.20672	0.860147
C	-0.242371	2.27863	0.0373297
O	0.392271	2.67887	-0.928867
H	-0.966154	4.23434	0.444488
H	-0.680214	3.21107	1.90695
H	-2.11746	2.90002	0.846995
N	-0.254012	0.995615	0.406239
C	0.482339	-0.0259008	-0.29456
C	-0.145931	-1.36499	0.0391297
O	-0.9397	-1.47189	0.972047
H	-0.79825	0.677206	1.17783
H	0.374911	0.131404	-1.36029
C	1.97325	-0.0228118	0.11077
H	2.07975	-0.183772	1.20478
H	2.54321	-0.808067	-0.427096
H	2.42156	0.963804	-0.137738
N	0.180721	-2.41888	-0.734581
C	-0.377013	-3.73035	-0.499758
H	0.81945	-2.31052	-1.48924
H	0.0151177	-4.46266	-1.2395
H	-1.48756	-3.7061	-0.585466
H	-0.117376	-4.09072	0.521958
C	2639.37	-0.307912	-2.73654
C	2640.71	-0.116959	-2.14966
O	2641.72	-0.112277	-2.85199
H	2639.46	-0.438996	-3.83645
H	2638.73	0.579739	-2.53362
H	2638.89	-1.21203	-2.30672
N	2640.77	0.0414543	-0.825064
C	2642	0.237697	-0.109363
C	2641.76	-0.138213	1.34043
O	2640.62	-0.285513	1.77332
H	2639.95	0.00660204	-0.260507
H	2642.75	-0.437215	-0.506319
C	2642.48	1.70311	-0.206715
H	2641.71	2.3928	0.200766
H	2643.43	1.85769	0.343155
H	2642.65	1.96646	-1.27365
N	2642.85	-0.324254	2.12255
C	2642.72	-0.695403	3.51257
H	2643.76	-0.20729	1.75177
H	2643.72	-0.79909	3.98539
H	2642.18	-1.66652	3.61225
H	2642.14	0.0761218	4.07426
