44
  This energy is 2.64869e-320 and Call times are: 112965
C	0.284055	-1.73318	-3.00692
C	-0.497486	-0.944369	-2.02805
O	-1.62946	-0.55885	-2.28595
H	-0.319176	-1.87468	-3.92993
H	0.532941	-2.72921	-2.58409
H	1.2213	-1.19834	-3.26857
N	0.103266	-0.678637	-0.865789
C	-0.528737	0.077241	0.1859
C	0.561507	0.621414	1.08839
O	1.71135	0.192235	1.01425
H	1.03662	-0.973394	-0.678981
H	-1.04673	0.921911	-0.250322
C	-1.50443	-0.800495	1.00121
H	-0.969844	-1.66643	1.44674
H	-1.99293	-0.221564	1.81175
H	-2.29747	-1.19393	0.328579
N	0.227453	1.60078	1.95167
C	1.20157	2.18823	2.84171
H	-0.706821	1.93956	1.99157
H	0.732968	2.97441	3.47384
H	2.03255	2.6529	2.2631
H	1.63887	1.41348	3.51232
C	5347.08	-2.25295	-1.29288
C	5348.21	-1.31482	-1.45519
O	5348.8	-1.20918	-2.52403
H	5346.91	-2.7864	-2.2523
H	5346.16	-1.69667	-1.01739
H	5347.31	-2.99923	-0.503699
N	5348.56	-0.606072	-0.3768
C	5349.64	0.34695	-0.378558
C	5350.07	0.558324	1.05793
O	5349.38	0.167214	1.99145
H	5348.09	-0.722382	0.496225
H	5350.48	-0.0732343	-0.919131
C	5349.2	1.69063	-1.00448
H	5348.34	2.11854	-0.447881
H	5350.03	2.42671	-1.00757
H	5348.88	1.52204	-2.05615
N	5351.26	1.16673	1.26798
C	5351.76	1.40017	2.60145
H	5351.81	1.46952	0.499264
H	5352.75	1.91334	2.56517
H	5351.89	0.437525	3.14804
H	5351.06	2.03729	3.18216
