44
  This energy is 1.16471e-319 and Call times are: 40893
C	2.75518	1.39072	1.61275
C	1.91092	0.232181	1.24369
O	2.25521	-0.911359	1.50879
H	3.67432	1.02794	2.1221
H	2.2028	2.06205	2.30342
H	3.0478	1.95642	0.70319
N	0.77014	0.508467	0.607577
C	-0.155782	-0.511616	0.184577
C	-1.02177	0.0720993	-0.914776
O	-1.04292	1.28395	-1.12169
H	0.514764	1.44226	0.371477
H	0.400625	-1.33815	-0.238882
C	-1.03876	-0.991443	1.35813
H	-1.60765	-0.140881	1.7906
H	-1.75278	-1.77704	1.03595
H	-0.392524	-1.41572	2.1572
N	-1.74366	-0.784931	-1.66336
C	-2.58777	-0.321699	-2.73997
H	-1.70756	-1.76272	-1.48489
H	-3.09974	-1.17671	-3.23401
H	-1.98582	0.217106	-3.50716
H	-3.36497	0.378457	-2.35668
C	1941.28	0.27469	-3.45082
C	1940.45	0.0484019	-2.24617
O	1939.23	-0.0391411	-2.32428
H	1940.62	0.346635	-4.34293
H	1941.98	-0.570252	-3.59313
H	1941.85	1.22099	-3.34943
N	1941.1	-0.0467654	-1.08555
C	1940.43	-0.266673	0.171824
C	1941.36	0.191295	1.27981
O	1942.55	0.414544	1.05271
H	1942.09	0.0553528	-1.03124
H	1939.54	0.351057	0.210584
C	1940.07	-1.75649	0.363565
H	1940.98	-2.38739	0.322581
H	1939.55	-1.92934	1.33068
H	1939.39	-2.08	-0.454941
N	1940.83	0.363444	2.50727
C	1941.64	0.808457	3.62114
H	1939.87	0.184398	2.66928
H	1941.02	0.887035	4.54429
H	1942.08	1.80803	3.41014
H	1942.47	0.0941582	3.81462
