44
  This energy is 1.20557e-319 and Call times are: 110319
C	0.445229	1.08234	-3.2797
C	-0.213286	0.222039	-2.27102
O	-1.16242	-0.489708	-2.56943
H	-0.0647243	0.955946	-4.25941
H	1.51194	0.794667	-3.39008
H	0.379728	2.14817	-2.97529
N	0.281915	0.274984	-1.03233
C	-0.251715	-0.503498	0.0567192
C	0.165946	0.161995	1.35361
O	1.03983	1.0269	1.3633
H	1.03683	0.88067	-0.795301
H	-1.33303	-0.480797	0.00871315
C	0.266746	-1.95835	0.0151386
H	1.37641	-1.97789	0.063895
H	-0.142315	-2.56061	0.85223
H	-0.0447502	-2.43433	-0.940139
N	-0.468802	-0.213395	2.48152
C	-0.146469	0.373821	3.76115
H	-1.1782	-0.909893	2.45189
H	-0.775045	-0.0673801	4.56581
H	-0.320927	1.47405	3.74366
H	0.923735	0.197961	4.01594
C	5226.14	2.45925	-2.45362
C	5225.92	2.03569	-1.05256
O	5225.82	2.8572	-0.151639
H	5226.2	3.56866	-2.49742
H	5225.3	2.11636	-3.09394
H	5227.09	2.03582	-2.83586
N	5225.84	0.720597	-0.835665
C	5225.63	0.155261	0.472788
C	5226.11	-1.28323	0.442157
O	5226.34	-1.84593	-0.626216
H	5225.96	0.0604642	-1.57365
H	5226.24	0.689597	1.19024
C	5224.14	0.210669	0.874067
H	5223.52	-0.337896	0.135549
H	5223.97	-0.223693	1.88112
H	5223.8	1.2695	0.891671
N	5226.29	-1.90724	1.62285
C	5226.75	-3.27309	1.69241
H	5226.1	-1.43251	2.47675
H	5226.84	-3.6069	2.75022
H	5227.76	-3.37233	1.21418
H	5226.05	-3.95525	1.1635
