44
  This energy is 1.21165e-319 and Call times are: 11493
C	-2.4665	1.54573	1.91134
C	-1.91554	0.368485	1.20301
O	-2.44859	-0.729091	1.29068
H	-3.36946	1.24066	2.48358
H	-2.75233	2.33214	1.18149
H	-1.71389	1.95398	2.61834
N	-0.813563	0.574738	0.478115
C	-0.161088	-0.471877	-0.267339
C	1.27143	-0.0422335	-0.517409
O	1.61954	1.1226	-0.333509
H	-0.37215	1.4672	0.438097
H	-0.134476	-1.36997	0.33665
C	-0.878215	-0.737233	-1.60988
H	-0.904296	0.186338	-2.22669
H	-0.378499	-1.54267	-2.18636
H	-1.92682	-1.05	-1.41304
N	2.14466	-0.984503	-0.924342
C	3.53195	-0.670896	-1.17586
H	1.84518	-1.92311	-1.06058
H	4.0869	-1.57748	-1.50355
H	4.01868	-0.275857	-0.254838
H	3.62189	0.102472	-1.97273
C	552.332	1.83934	2.90862
C	551.444	1.12024	1.9674
O	550.267	0.920778	2.23509
H	551.755	2.11997	3.81632
H	552.726	2.76241	2.43358
H	553.18	1.18795	3.20887
N	552.001	0.703795	0.827718
C	551.266	-0.00891005	-0.186552
C	552.265	-0.757734	-1.04655
O	553.466	-0.49905	-0.984983
H	552.968	0.84689	0.634081
H	550.628	-0.742126	0.29078
C	550.432	0.955506	-1.05901
H	551.089	1.70675	-1.54665
H	549.865	0.410012	-1.84093
H	549.704	1.49875	-0.41718
N	551.792	-1.72437	-1.85734
C	552.67	-2.49813	-2.70366
H	550.818	-1.9236	-1.88762
H	552.092	-3.24114	-3.29574
H	553.422	-3.0467	-2.09192
H	553.218	-1.8353	-3.41193
