44
  This energy is 7.92728e-320 and Call times are: 70461
C	-0.433356	-2.04973	-2.78154
C	-0.527747	-1.79257	-1.32683
O	-1.08429	-2.58492	-0.579215
H	-0.93303	-3.01444	-3.01715
H	0.631229	-2.11151	-3.09083
H	-0.935797	-1.23713	-3.34738
N	0.0189023	-0.656032	-0.888857
C	0.00735312	-0.267037	0.498723
C	0.21751	1.23324	0.563766
O	0.608372	1.85652	-0.421417
H	0.443837	-0.00481581	-1.51198
H	-0.96847	-0.480891	0.915988
C	1.11371	-0.99352	1.29579
H	2.11338	-0.772463	0.864623
H	1.10755	-0.696422	2.36466
H	0.949133	-2.09164	1.23935
N	-0.0599126	1.85343	1.72756
C	0.0987207	3.28098	1.8796
H	-0.381998	1.33252	2.51124
H	-0.177834	3.59998	2.90867
H	-0.549771	3.82749	1.15709
H	1.15488	3.58137	1.69124
C	3340.98	2.54356	-1.90932
C	3341.42	1.14033	-1.72787
O	3341.16	0.284874	-2.56323
H	3340.42	2.63399	-2.86595
H	3341.86	3.21627	-1.94398
H	3340.32	2.84933	-1.07421
N	3342.09	0.869215	-0.609505
C	3342.58	-0.448563	-0.292088
C	3342.82	-0.511217	1.20504
O	3342.83	0.5151	1.88195
H	3342.27	1.56875	0.0771567
H	3341.82	-1.17596	-0.537269
C	3343.9	-0.758103	-1.04666
H	3344.68	-0.00957593	-0.793321
H	3344.27	-1.77209	-0.804665
H	3343.71	-0.707859	-2.14214
N	3342.98	-1.72747	1.76196
C	3343.19	-1.88593	3.18147
H	3342.95	-2.54657	1.19831
H	3343.31	-2.96077	3.44452
H	3342.33	-1.47269	3.75733
H	3344.11	-1.34763	3.50222
