44
  This energy is 3.75342e-320 and Call times are: 20397
C	2.33231	2.56394	0.335653
C	1.43868	1.5337	0.911186
O	1.45831	1.27576	2.10684
H	2.96104	2.99757	1.14345
H	1.73232	3.37534	-0.127446
H	2.99497	2.11073	-0.431441
N	0.626268	0.908553	0.0558874
C	-0.300199	-0.116625	0.465152
C	-0.654301	-0.93986	-0.758013
O	-0.377936	-0.538995	-1.88707
H	0.64032	1.10716	-0.92048
H	0.191025	-0.772836	1.17237
C	-1.57804	0.493998	1.08271
H	-2.07908	1.16715	0.354737
H	-2.29352	-0.292624	1.39908
H	-1.30502	1.0955	1.97703
N	-1.25865	-2.1277	-0.558508
C	-1.62247	-2.98524	-1.66234
H	-1.46747	-2.43772	0.363183
H	-2.10982	-3.91483	-1.29409
H	-0.721004	-3.27168	-2.25102
H	-2.33107	-2.46534	-2.34701
C	972.034	-1.41438	3.17928
C	972.685	-0.933675	1.94012
O	973.904	-0.870354	1.84972
H	972.814	-1.66976	3.92911
H	971.429	-2.32107	2.96664
H	971.377	-0.62287	3.59862
N	971.872	-0.573164	0.944206
C	972.357	-0.0857163	-0.322497
C	971.236	0.694085	-0.981283
O	970.083	0.612233	-0.562433
H	970.881	-0.601816	1.04051
H	973.175	0.600671	-0.145699
C	972.806	-1.24686	-1.23769
H	971.964	-1.94943	-1.41643
H	973.179	-0.875056	-2.21383
H	973.626	-1.81091	-0.743314
N	971.555	1.49013	-2.02077
C	970.555	2.27922	-2.70275
H	972.495	1.54823	-2.34031
H	971.014	2.86491	-3.52976
H	970.068	2.9909	-1.9975
H	969.764	1.62412	-3.13377
