44
  This energy is 3.91201e-320 and Call times are: 26361
C	-2.67166	-2.22822	-0.152968
C	-1.41218	-1.66722	-0.691676
O	-0.846053	-2.18444	-1.64481
H	-2.95264	-3.12979	-0.739549
H	-3.4881	-1.47981	-0.231172
H	-2.53748	-2.51867	0.91032
N	-0.9364	-0.581284	-0.0778894
C	0.277824	0.0786369	-0.486536
C	0.780404	0.897683	0.686416
O	0.0555951	1.11982	1.65447
H	-1.39136	-0.186443	0.715869
H	1.02716	-0.670112	-0.710005
C	0.0372801	0.992832	-1.70862
H	-0.73247	1.75934	-1.47609
H	0.970218	1.50241	-2.02601
H	-0.331723	0.381137	-2.56057
N	2.04898	1.34948	0.635467
C	2.61782	2.12742	1.7113
H	2.62196	1.15309	-0.153428
H	3.66986	2.40608	1.48149
H	2.60862	1.54782	2.66273
H	2.03419	3.06283	1.8712
C	1251.58	0.049822	-0.637258
C	1252.91	-0.59655	-0.716051
O	1253.03	-1.73925	-1.13482
H	1250.8	-0.660459	-0.997381
H	1251.56	0.958947	-1.27431
H	1251.35	0.329173	0.412889
N	1253.95	0.132217	-0.302122
C	1255.3	-0.358704	-0.318184
C	1256.11	0.469632	0.662267
O	1255.66	1.52393	1.11099
H	1253.83	1.05144	0.0641884
H	1255.31	-1.38295	0.0324318
C	1255.92	-0.260347	-1.73116
H	1255.91	0.791638	-2.08802
H	1256.96	-0.637666	-1.74715
H	1255.32	-0.870389	-2.44012
N	1257.31	-0.00293454	1.03556
C	1258.15	0.711386	1.97367
H	1257.65	-0.861651	0.666709
H	1259.1	0.162763	2.15103
H	1257.63	0.832643	2.95042
H	1258.39	1.72616	1.58613
