44
  This energy is 5.95349e-321 and Call times are: 99315
C	-1.53619	-1.65936	2.64816
C	-1.59464	-0.866248	1.39966
O	-2.65892	-0.651187	0.836132
H	-2.56237	-1.98585	2.92426
H	-1.12078	-1.04361	3.47345
H	-0.900415	-2.55783	2.50159
N	-0.430142	-0.41208	0.930575
C	-0.325322	0.374002	-0.272718
C	1.1009	0.266994	-0.776376
O	1.98895	-0.187454	-0.05757
H	0.433346	-0.618639	1.38297
H	-0.97376	-0.0510792	-1.0283
C	-0.686936	1.85324	-0.0115413
H	-0.0202173	2.28597	0.764568
H	-0.607418	2.46134	-0.936023
H	-1.73353	1.91794	0.358059
N	1.34938	0.665761	-2.03941
C	2.67454	0.589736	-2.60893
H	0.615908	1.024	-2.60767
H	2.67479	0.965635	-3.6558
H	3.04004	-0.462698	-2.61435
H	3.3927	1.20158	-2.01643
C	4706.05	0.28819	1.65976
C	4705.12	-0.429977	0.7571
O	4705.48	-1.42121	0.137609
H	4707.04	-0.215488	1.64438
H	4705.66	0.277888	2.69845
H	4706.17	1.33873	1.32278
N	4703.89	0.0675643	0.657964
C	4702.87	-0.520689	-0.179253
C	4701.82	0.540167	-0.457362
O	4701.79	1.57995	0.198167
H	4703.61	0.892661	1.14535
H	4703.31	-0.800913	-1.12609
C	4702.22	-1.74458	0.502332
H	4701.76	-1.45365	1.47369
H	4701.44	-2.20006	-0.13966
H	4703	-2.51382	0.701784
N	4700.95	0.309359	-1.45727
C	4699.93	1.26759	-1.80213
H	4701	-0.53505	-1.98082
H	4699.31	0.894827	-2.64822
H	4700.38	2.23886	-2.10242
H	4699.25	1.45527	-0.933071
