44
  This energy is 1.38679e-319 and Call times are: 18171
C	1.11035	0.676719	3.23037
C	0.0765985	0.205854	2.28124
O	-0.961392	-0.305092	2.67874
H	0.772263	0.477128	4.27043
H	1.27278	1.76832	3.10857
H	2.06573	0.139168	3.05362
N	0.3462	0.365634	0.983494
C	-0.561066	-0.0421528	-0.0592944
C	0.239483	-0.202233	-1.33708
O	1.38232	0.243199	-1.42282
H	1.20803	0.756716	0.671668
H	-0.974899	-1.01021	0.193055
C	-1.68626	0.996683	-0.263939
H	-1.25815	1.98877	-0.522026
H	-2.38674	0.685747	-1.06607
H	-2.26446	1.10562	0.679436
N	-0.338471	-0.865536	-2.35786
C	0.351836	-1.077	-3.60884
H	-1.26145	-1.22467	-2.26644
H	-0.289779	-1.64041	-4.32168
H	1.28917	-1.65709	-3.44715
H	0.624693	-0.103422	-4.07668
C	868.551	-2.48788	-1.69378
C	867.708	-1.2714	-1.6766
O	867.462	-0.658176	-2.70596
H	868.88	-2.69235	-2.73595
H	867.973	-3.3596	-1.32178
H	869.449	-2.3408	-1.0564
N	867.246	-0.88738	-0.484618
C	866.413	0.275114	-0.307033
C	866.511	0.701764	1.14467
O	867.002	-0.0467108	1.98781
H	867.478	-1.3788	0.350614
H	866.801	1.08263	-0.914408
C	864.942	-0.0253427	-0.673506
H	864.547	-0.854669	-0.0489924
H	864.298	0.86768	-0.538056
H	864.883	-0.337871	-1.73888
N	866.064	1.93155	1.46661
C	866.129	2.42832	2.82133
H	865.677	2.52507	0.76869
H	865.711	3.45735	2.8831
H	867.183	2.45605	3.17992
H	865.547	1.77198	3.50871
