44
  This energy is 8.70494e-320 and Call times are: 89487
C	-0.718979	-1.99256	-2.76385
C	-1.12606	-1.04974	-1.69775
O	-2.25156	-0.571103	-1.67252
H	-1.56939	-2.14543	-3.46335
H	-0.436907	-2.97127	-2.32182
H	0.142817	-1.58103	-3.33033
N	-0.200257	-0.753982	-0.782439
C	-0.446218	0.146606	0.31541
C	0.894483	0.646388	0.817382
O	1.93902	0.0955514	0.474811
H	0.72217	-1.12783	-0.830403
H	-1.00081	1.00211	-0.0487505
C	-1.21311	-0.555716	1.4581
H	-0.641638	-1.43326	1.82885
H	-1.4043	0.134922	2.305
H	-2.19276	-0.918202	1.07728
N	0.896569	1.72222	1.62891
C	2.12609	2.27594	2.14645
H	0.0412987	2.15828	1.88891
H	1.9189	3.15541	2.79519
H	2.79059	2.60313	1.31421
H	2.67579	1.51723	2.74925
C	4238.88	-1.05512	-3.28403
C	4238.24	-0.176911	-2.27914
O	4237.53	0.762998	-2.61848
H	4238.61	-0.703206	-4.30378
H	4238.52	-2.10019	-3.15975
H	4239.98	-1.02329	-3.17208
N	4238.48	-0.466506	-0.998483
C	4237.93	0.295633	0.0929046
C	4238.78	0.0445764	1.31756
O	4239.59	-0.880103	1.3386
H	4239.08	-1.21718	-0.735291
H	4237.99	1.34972	-0.144911
C	4236.46	-0.109	0.377768
H	4236.4	-1.19109	0.620716
H	4236.03	0.476022	1.21748
H	4235.85	0.0786193	-0.527273
N	4238.64	0.88144	2.36396
C	4239.42	0.727377	3.56798
H	4237.98	1.6281	2.32484
H	4239.16	1.51064	4.31207
H	4240.51	0.811346	3.34275
H	4239.24	-0.270314	4.02953
