44
  This energy is 1.02321e-319 and Call times are: 34509
C	-2.26058	-2.63719	0.247243
C	-1.81241	-1.27003	0.595395
O	-2.52396	-0.517785	1.2468
H	-3.27942	-2.80569	0.658867
H	-1.56859	-3.38892	0.681839
H	-2.29377	-2.75995	-0.855831
N	-0.603733	-0.912192	0.155613
C	-0.0302106	0.384389	0.414029
C	1.04905	0.631337	-0.622049
O	1.47362	-0.288386	-1.31896
H	-0.0457132	-1.52376	-0.398939
H	-0.793886	1.13998	0.280027
C	0.570498	0.460577	1.83546
H	1.3531	-0.316363	1.96969
H	1.01283	1.45766	2.03782
H	-0.229821	0.276802	2.58503
N	1.50422	1.89195	-0.762278
C	2.52244	2.22427	-1.73128
H	1.1429	2.62375	-0.193814
H	2.76307	3.30955	-1.69238
H	2.179	1.97817	-2.76217
H	3.45652	1.65059	-1.53239
C	1640.92	-2.10315	2.49195
C	1641.05	-0.920942	1.60984
O	1641.97	-0.126392	1.74305
H	1641.76	-2.10292	3.2263
H	1640.97	-3.03563	1.89129
H	1639.96	-2.07006	3.04289
N	1640.1	-0.774697	0.677544
C	1640.09	0.324209	-0.25467
C	1638.67	0.469021	-0.782186
O	1637.84	-0.420455	-0.606592
H	1639.34	-1.41302	0.597963
H	1640.34	1.23626	0.272635
C	1641.07	0.0831358	-1.4237
H	1640.81	-0.853647	-1.96204
H	1641.06	0.92745	-2.14331
H	1642.1	-0.0224217	-1.02401
N	1638.36	1.61071	-1.42597
C	1637.04	1.84239	-1.95226
H	1639.04	2.32162	-1.55171
H	1636.98	2.83659	-2.44768
H	1636.28	1.81279	-1.136
H	1636.77	1.06156	-2.70043
