44
  This energy is 6.95052e-320 and Call times are: 70083
C	-2.49768	0.166561	2.42074
C	-1.95075	-0.356887	1.1487
O	-2.51565	-1.25453	0.539104
H	-3.4301	-0.383472	2.67358
H	-2.73383	1.24678	2.31988
H	-1.76279	0.024163	3.24086
N	-0.81617	0.199227	0.71762
C	-0.162923	-0.202803	-0.502409
C	1.28915	0.225359	-0.416346
O	1.66048	1.01874	0.446496
H	-0.35008	0.909675	1.23816
H	-0.183735	-1.28291	-0.573253
C	-0.833717	0.438905	-1.73746
H	-0.811199	1.54696	-1.66117
H	-0.333295	0.131335	-2.67861
H	-1.89713	0.11844	-1.78849
N	2.15241	-0.31066	-1.30148
C	3.55629	0.0286456	-1.28818
H	1.83377	-0.956395	-1.98757
H	4.09947	-0.513246	-2.09351
H	4.01687	-0.242895	-0.310745
H	3.69777	1.1226	-1.44446
C	3327.08	1.09213	-1.94235
C	3325.63	1.01248	-1.64969
O	3324.82	1.66902	-2.28789
H	3327.24	1.80894	-2.7754
H	3327.46	0.0950856	-2.24332
H	3327.63	1.4464	-1.04676
N	3325.27	0.196206	-0.656623
C	3323.9	0.0122798	-0.254784
C	3323.89	-0.527481	1.16222
O	3324.92	-0.966967	1.66892
H	3325.94	-0.311135	-0.125018
H	3323.4	0.975188	-0.240688
C	3323.16	-0.966356	-1.19711
H	3323.67	-1.95294	-1.20968
H	3322.1	-1.11014	-0.890666
H	3323.17	-0.560132	-2.23202
N	3322.73	-0.486143	1.84523
C	3322.64	-0.966664	3.20401
H	3321.91	-0.120161	1.42017
H	3321.6	-0.84923	3.59126
H	3323.33	-0.399453	3.87034
H	3322.91	-2.0448	3.25976
