44
  This energy is 9.61304e-320 and Call times are: 10527
C	-2.1187	-1.53428	-2.29853
C	-1.88355	-0.781587	-1.04579
O	-2.81567	-0.331465	-0.393843
H	-3.21147	-1.58658	-2.49597
H	-1.72063	-2.56657	-2.20506
H	-1.62351	-1.02326	-3.15092
N	-0.609493	-0.621702	-0.680299
C	-0.221735	0.0868262	0.513208
C	1.22175	0.521131	0.348976
O	1.92232	0.0494061	-0.544614
H	0.142201	-0.968037	-1.23523
H	-0.825889	0.980624	0.603744
C	-0.369555	-0.802166	1.76818
H	0.25103	-1.7185	1.67164
H	-0.07196	-0.259656	2.68899
H	-1.43106	-1.11459	1.87659
N	1.69497	1.45259	1.20012
C	3.05327	1.93583	1.11245
H	1.11024	1.82736	1.91206
H	3.2517	2.69625	1.89961
H	3.24065	2.4031	0.118572
H	3.7773	1.09916	1.2426
C	505.4	-0.307594	3.44547
C	506.103	0.231625	2.25983
O	506.983	1.07328	2.37505
H	505.802	0.175987	4.3623
H	505.558	-1.40409	3.51857
H	504.312	-0.0957304	3.37461
N	505.719	-0.246238	1.07402
C	506.309	0.180802	-0.169454
C	505.329	-0.136293	-1.28298
O	504.373	-0.883751	-1.08539
H	504.98	-0.910259	0.991158
H	506.442	1.25486	-0.144939
C	507.655	-0.531768	-0.427084
H	507.514	-1.63347	-0.450942
H	508.112	-0.205158	-1.38368
H	508.363	-0.292442	0.396075
N	505.535	0.446166	-2.4807
C	504.648	0.212732	-3.59653
H	506.31	1.0536	-2.61866
H	504.986	0.778662	-4.49252
H	503.611	0.535813	-3.34843
H	504.619	-0.870331	-3.85602
