44
  This energy is 6.87986e-320 and Call times are: 45093
C	1.87543	2.83645	0.750614
C	0.580529	2.13953	0.581113
O	-0.473445	2.67991	0.887105
H	1.69557	3.84679	1.17808
H	2.38197	2.94667	-0.231267
H	2.53013	2.26508	1.44188
N	0.634158	0.900647	0.0864914
C	-0.540719	0.0962417	-0.135823
C	-0.107896	-1.35604	-0.18853
O	1.07929	-1.65433	-0.304459
H	1.50119	0.460642	-0.131645
H	-1.20964	0.209708	0.707826
C	-1.24953	0.48745	-1.45175
H	-0.56023	0.3705	-2.31506
H	-2.15469	-0.129892	-1.62595
H	-1.56054	1.55368	-1.40094
N	-1.06567	-2.29801	-0.0819657
C	-0.746745	-3.70645	-0.109816
H	-2.02	-2.03644	0.0183676
H	-1.66887	-4.32049	-0.0103736
H	-0.0583936	-3.96999	0.725622
H	-0.246616	-3.97735	-1.06776
C	2138.63	-2.77965	1.27098
C	2139.86	-1.96862	1.08606
O	2140.89	-2.24475	1.67431
H	2138.84	-3.60091	1.99061
H	2138.32	-3.22189	0.30273
H	2137.81	-2.14857	1.67374
N	2139.76	-0.928871	0.254325
C	2140.86	-0.0474376	-0.0278027
C	2140.3	1.25699	-0.553158
O	2139.12	1.33349	-0.909798
H	2138.9	-0.697067	-0.196441
H	2141.39	0.169087	0.895573
C	2141.82	-0.665554	-1.06727
H	2141.29	-0.887039	-2.01305
H	2142.68	0.0104661	-1.28671
H	2142.23	-1.62101	-0.671
N	2141.12	2.32486	-0.59234
C	2140.66	3.61111	-1.06609
H	2142.06	2.24452	-0.292628
H	2141.48	4.35951	-1.02279
H	2139.82	3.98253	-0.44287
H	2140.31	3.53911	-2.12011
