44
  This energy is 1.38625e-319 and Call times are: 111
C	0.832796	-2.57892	-2.18672
C	0.50935	-2.07313	-0.833663
O	0.344816	-2.83954	0.105511
H	0.880132	-3.68933	-2.16213
H	1.81661	-2.18456	-2.5175
H	0.0486816	-2.26853	-2.90905
N	0.403981	-0.748451	-0.705283
C	0.0947767	-0.106703	0.547466
C	-0.449329	1.27512	0.241265
O	-0.328848	1.76374	-0.880591
H	0.511563	-0.136348	-1.48419
H	-0.687571	-0.665392	1.04533
C	1.34587	0.00237721	1.44746
H	2.14668	0.575533	0.933352
H	1.11131	0.495908	2.41296
H	1.73546	-1.0163	1.66348
N	-1.08384	1.93094	1.23287
C	-1.64491	3.24643	1.03072
H	-1.17734	1.51566	2.13178
H	-2.12281	3.61779	1.96397
H	-2.41577	3.22545	0.226609
H	-0.852568	3.96983	0.730611
C	15.8328	-2.57892	-2.18672
C	15.5094	-2.07313	-0.833663
O	15.3448	-2.83954	0.105511
H	15.8801	-3.68933	-2.16213
H	16.8166	-2.18456	-2.5175
H	15.0487	-2.26853	-2.90905
N	15.404	-0.748451	-0.705283
C	15.0948	-0.106703	0.547466
C	14.5507	1.27512	0.241265
O	14.6712	1.76374	-0.880591
H	15.5116	-0.136348	-1.48419
H	14.3124	-0.665392	1.04533
C	16.3459	0.00237721	1.44746
H	17.1467	0.575533	0.933352
H	16.1113	0.495908	2.41296
H	16.7355	-1.0163	1.66348
N	13.9162	1.93094	1.23287
C	13.3551	3.24643	1.03072
H	13.8227	1.51566	2.13178
H	12.8772	3.61779	1.96397
H	12.5842	3.22545	0.226609
H	14.1474	3.96983	0.730611
