44
  This energy is 1.04411e-319 and Call times are: 77517
C	-3.25103	0.604032	-1.09182
C	-2.28835	0.0795338	-0.0971571
O	-2.66436	-0.327744	0.993364
H	-4.27817	0.556799	-0.669193
H	-3.21515	-0.00708389	-2.01814
H	-3.01134	1.66023	-1.33663
N	-1.00261	0.0841602	-0.456616
C	0.0508893	-0.394399	0.402426
C	1.35378	0.219442	-0.0718257
O	1.42664	0.770022	-1.16881
H	-0.705859	0.445566	-1.33654
H	-0.130342	-0.0434924	1.41044
C	0.146929	-1.93609	0.369432
H	0.332217	-2.29268	-0.666245
H	0.957024	-2.30796	1.02991
H	-0.813962	-2.37359	0.717899
N	2.41297	0.157282	0.758984
C	3.69105	0.724886	0.397686
H	2.33198	-0.286235	1.64553
H	4.43394	0.570498	1.21103
H	3.59658	1.81942	0.212433
H	4.08363	0.250223	-0.530619
C	3673.07	2.92502	-0.487966
C	3673.25	1.58341	0.113317
O	3672.46	1.15879	0.948705
H	3672.17	3.40954	-0.0526274
H	3672.94	2.83742	-1.58662
H	3673.96	3.5575	-0.273819
N	3674.3	0.878525	-0.302213
C	3674.6	-0.442174	0.189955
C	3676.07	-0.712831	-0.0694303
O	3676.72	0.00707516	-0.827204
H	3674.95	1.24718	-0.961754
H	3674.45	-0.461874	1.2614
C	3673.73	-1.51328	-0.506745
H	3673.89	-1.48983	-1.60583
H	3673.96	-2.53138	-0.130027
H	3672.66	-1.30312	-0.310103
N	3676.64	-1.75126	0.575147
C	3678.04	-2.07781	0.399524
H	3676.1	-2.31766	1.18978
H	3678.31	-2.96421	1.01194
H	3678.68	-1.22352	0.708091
H	3678.25	-2.3074	-0.668498
