44
  This energy is 8.77559e-320 and Call times are: 96081
C	0.427075	3.39941	0.622686
C	0.965357	2.03491	0.423726
O	2.16949	1.83586	0.340487
H	1.26933	4.12362	0.66719
H	-0.141989	3.45113	1.57469
H	-0.239552	3.67487	-0.221514
N	0.0679433	1.05037	0.336033
C	0.437433	-0.329126	0.142882
C	-0.766191	-1.05936	-0.420394
O	-1.88174	-0.542736	-0.398577
H	-0.911535	1.22909	0.376207
H	1.22861	-0.381581	-0.594243
C	0.882602	-0.983319	1.4699
H	0.0688141	-0.927144	2.22403
H	1.16795	-2.04553	1.32476
H	1.76412	-0.438575	1.8728
N	-0.562115	-2.27685	-0.960835
C	-1.64627	-3.04142	-1.532
H	0.349298	-2.67478	-0.975393
H	-1.27744	-4.01527	-1.92291
H	-2.12061	-2.48368	-2.37174
H	-2.42975	-3.24484	-0.766512
C	4551.58	2.20742	-2.60613
C	4550.7	1.2249	-1.92713
O	4549.57	1.01298	-2.32122
H	4551.03	2.66439	-3.45621
H	4552.49	1.7043	-2.99689
H	4551.88	3.00931	-1.89785
N	4551.23	0.598111	-0.869893
C	4550.5	-0.384293	-0.106622
C	4551.15	-0.488792	1.25889
O	4552.26	-0.000339316	1.4655
H	4552.14	0.800737	-0.541042
H	4549.48	-0.0362675	0.0385039
C	4550.51	-1.76142	-0.806998
H	4551.55	-2.11513	-0.954898
H	4549.95	-2.52019	-0.222042
H	4550.03	-1.67116	-1.80655
N	4550.46	-1.11347	2.23384
C	4550.99	-1.25053	3.56856
H	4549.56	-1.49586	2.0487
H	4550.28	-1.79479	4.22452
H	4551.19	-0.250084	4.01791
H	4551.96	-1.81537	3.55126
