44
  This energy is 3.58494e-320 and Call times are: 81087
C	-2.29121	1.16871	2.34747
C	-1.24887	0.213119	1.90977
O	-0.794453	-0.62311	2.67835
H	-2.53604	0.981352	3.41556
H	-3.21086	1.03667	1.7395
H	-1.92418	2.21119	2.24039
N	-0.837328	0.322982	0.64449
C	0.169868	-0.534715	0.072879
C	0.748954	0.169825	-1.13853
O	0.187156	1.14996	-1.62386
H	-1.19434	1.02728	0.0366718
H	0.969539	-0.665374	0.790883
C	-0.422667	-1.90063	-0.339777
H	-1.24318	-1.76283	-1.0759
H	0.350204	-2.56359	-0.780158
H	-0.844614	-2.40607	0.556124
N	1.90509	-0.303662	-1.64367
C	2.53707	0.310036	-2.78829
H	2.34802	-1.09354	-1.23241
H	3.47615	-0.224348	-3.05253
H	2.78766	1.37444	-2.575
H	1.85899	0.285365	-3.67191
C	3838.6	0.115678	-0.751025
C	3839.9	0.776763	-0.485261
O	3840.03	1.98421	-0.627341
H	3837.86	0.877571	-1.07953
H	3838.23	-0.375311	0.171443
H	3838.72	-0.643555	-1.55317
N	3840.9	-0.0158669	-0.0924953
C	3842.22	0.480005	0.20387
C	3843.19	-0.682092	0.0995272
O	3842.78	-1.84034	0.0557804
H	3840.78	-1.00208	-0.00855125
H	3842.5	1.20889	-0.546529
C	3842.28	1.09952	1.61781
H	3842	0.349242	2.38509
H	3843.3	1.48247	1.84922
H	3841.57	1.94878	1.68165
N	3844.5	-0.39585	0.0349939
C	3845.5	-1.43658	-0.0776383
H	3844.81	0.548163	0.0646856
H	3846.52	-1.00047	-0.115122
H	3845.34	-2.03468	-1.00386
H	3845.44	-2.12848	0.79385
