44
  This energy is 2.78011e-320 and Call times are: 106455
C	1.02296	2.25858	2.44509
C	1.31024	1.21655	1.43374
O	2.46001	0.929767	1.12999
H	1.98072	2.68061	2.81988
H	0.465193	1.8196	3.29891
H	0.422627	3.0759	1.99283
N	0.252021	0.62222	0.87757
C	0.3705	-0.410097	-0.120984
C	-0.939987	-0.475802	-0.880947
O	-1.9454	0.0856471	-0.449956
H	-0.680029	0.885127	1.1123
H	1.14507	-0.131999	-0.824387
C	0.681662	-1.78057	0.520955
H	-0.114612	-2.06246	1.24249
H	0.773695	-2.57771	-0.245127
H	1.64329	-1.71888	1.07558
N	-0.952708	-1.14949	-2.04799
C	-2.15173	-1.25541	-2.8463
H	-0.126986	-1.59101	-2.38336
H	-1.95994	-1.8493	-3.76704
H	-2.51247	-0.245791	-3.14927
H	-2.96465	-1.75402	-2.27035
C	5041.45	-0.349497	3.43578
C	5041.97	-0.82979	2.13509
O	5042.7	-1.81118	2.06741
H	5041.84	-1.00414	4.24833
H	5040.34	-0.382743	3.44114
H	5041.79	0.691193	3.62242
N	5041.61	-0.132045	1.05704
C	5042.03	-0.475941	-0.276893
C	5041.89	0.760159	-1.14371
O	5041.25	1.73278	-0.751763
H	5041.04	0.68281	1.12834
H	5043.08	-0.744393	-0.25507
C	5041.18	-1.63053	-0.85595
H	5040.11	-1.35199	-0.876258
H	5041.51	-1.89798	-1.88293
H	5041.29	-2.52963	-0.211404
N	5042.51	0.758369	-2.34059
C	5042.44	1.89543	-3.2286
H	5043.03	-0.0355943	-2.63674
H	5043.01	1.69986	-4.16281
H	5042.87	2.80156	-2.74033
H	5041.38	2.11627	-3.50341
