44
  This energy is 1.28793e-319 and Call times are: 65841
C	-1.24142	-3.06031	-1.1043
C	-0.870514	-2.1199	-0.0229803
O	-1.13176	-2.36593	1.14651
H	-1.75996	-3.93977	-0.664374
H	-0.331668	-3.40892	-1.63689
H	-1.92437	-2.56416	-1.82566
N	-0.247744	-1.00031	-0.398515
C	0.175827	0.0101436	0.537651
C	0.348789	1.30904	-0.225359
O	0.38207	1.31642	-1.45445
H	-0.0665505	-0.797877	-1.35723
H	-0.606569	0.160882	1.2706
C	1.50198	-0.381894	1.22667
H	2.30224	-0.536406	0.471808
H	1.83093	0.393889	1.94829
H	1.36236	-1.33543	1.78113
N	0.441521	2.44697	0.49055
C	0.596001	3.73225	-0.150046
H	0.405263	2.42093	1.48415
H	0.655595	4.54456	0.607484
H	-0.267272	3.9425	-0.822203
H	1.52539	3.75631	-0.763912
C	3119.56	0.701495	-1.07128
C	3120.51	0.0286867	-0.15922
O	3120.12	-0.586523	0.822798
H	3118.53	0.545636	-0.700398
H	3119.65	0.275983	-2.09342
H	3119.77	1.79147	-1.10673
N	3121.81	0.138522	-0.467132
C	3122.85	-0.461102	0.323443
C	3124.15	0.268904	0.0168605
O	3124.23	1.01707	-0.955238
H	3122.12	0.666915	-1.25363
H	3122.63	-0.310672	1.37234
C	3123	-1.96582	0.00723281
H	3123.23	-2.11653	-1.06975
H	3123.81	-2.4307	0.614344
H	3122.05	-2.48902	0.234898
N	3125.18	0.083583	0.857457
C	3126.45	0.746305	0.652321
H	3125.09	-0.520298	1.64258
H	3127.17	0.464356	1.44772
H	3126.32	1.85289	0.671011
H	3126.89	0.465681	-0.334094
