44
  This energy is 9.10415e-320 and Call times are: 34089
C	2.45728	-2.07358	1.33723
C	1.74905	-0.775944	1.26136
O	1.98253	0.11981	2.06112
H	3.16544	-2.05596	2.194
H	3.02877	-2.25274	0.402286
H	1.72973	-2.89852	1.48921
N	0.848624	-0.648062	0.283999
C	0.0800206	0.554083	0.0817041
C	-1.1535	0.188871	-0.720966
O	-1.23338	-0.897421	-1.29142
H	0.646508	-1.39545	-0.343295
H	-0.251241	0.925861	1.04302
C	0.90165	1.62791	-0.665922
H	1.24044	1.24293	-1.65138
H	0.312881	2.55494	-0.823225
H	1.80298	1.88585	-0.0682429
N	-2.15855	1.08549	-0.765257
C	-3.37648	0.819918	-1.49485
H	-2.07773	1.95605	-0.291101
H	-4.0793	1.67812	-1.41249
H	-3.8837	-0.0880488	-1.0954
H	-3.15869	0.647254	-2.57371
C	1620.85	-1.49338	2.92886
C	1620	-1.48896	1.71641
O	1619.35	-2.47581	1.39361
H	1620.78	-2.48746	3.42175
H	1620.5	-0.714632	3.64085
H	1621.91	-1.30015	2.65548
N	1619.99	-0.359711	1.00435
C	1619.21	-0.202115	-0.199042
C	1619.81	0.937547	-0.99708
O	1620.63	1.70416	-0.482952
H	1620.54	0.42753	1.26178
H	1619.3	-1.10232	-0.794199
C	1617.73	0.0998521	0.122976
H	1617.64	1.02359	0.734187
H	1617.13	0.221637	-0.801393
H	1617.3	-0.741821	0.7087
N	1619.44	1.06186	-2.28688
C	1619.97	2.10942	-3.12771
H	1618.79	0.427149	-2.68656
H	1619.55	2.04511	-4.15284
H	1621.08	2.02819	-3.20395
H	1619.73	3.11208	-2.70819
