44
  This energy is 1.40858e-319 and Call times are: 24261
C	-1.42436	-1.3487	-2.87721
C	-0.381279	-1.32997	-1.82705
O	0.449987	-2.22371	-1.74517
H	-1.3009	-2.26037	-3.50129
H	-1.32953	-0.453118	-3.52664
H	-2.43351	-1.36402	-2.41425
N	-0.407478	-0.295422	-0.983611
C	0.541449	-0.137552	0.0894421
C	-0.0682865	0.79602	1.11701
O	-1.06268	1.46633	0.84555
H	-1.10754	0.411222	-1.04276
H	0.695407	-1.09689	0.566982
C	1.88007	0.438595	-0.423658
H	1.71834	1.42244	-0.913561
H	2.61309	0.561297	0.399992
H	2.31588	-0.253849	-1.17648
N	0.505048	0.844484	2.3356
C	-0.0134151	1.69528	3.38132
H	1.30486	0.289014	2.53804
H	0.595223	1.59596	4.30703
H	-1.06635	1.4232	3.62329
H	0.00299864	2.76299	3.06367
C	1157.97	-2.79597	-0.148808
C	1157.75	-1.35053	0.081946
O	1158.64	-0.635491	0.514733
H	1159.01	-3.05832	0.135079
H	1157.82	-3.03983	-1.22122
H	1157.27	-3.39395	0.469453
N	1156.53	-0.883907	-0.20174
C	1156.16	0.499124	-0.0300007
C	1154.65	0.571877	0.0650397
O	1153.96	-0.389796	-0.253383
H	1155.8	-1.48221	-0.526186
H	1156.57	0.857062	0.907551
C	1156.67	1.36429	-1.20818
H	1156.25	0.9939	-2.16847
H	1156.38	2.42983	-1.07908
H	1157.77	1.30157	-1.26776
N	1154.11	1.71463	0.529169
C	1152.68	1.87133	0.665469
H	1154.69	2.47901	0.788424
H	1152.43	2.88066	1.06107
H	1152.27	1.10898	1.36457
H	1152.18	1.74646	-0.319788
