44
  This energy is 4.16497e-321 and Call times are: 36777
C	-0.865431	-2.86148	-1.7858
C	-0.360645	-2.19124	-0.5663
O	-0.15698	-2.82029	0.462928
H	-1.00904	-3.94395	-1.57724
H	-0.134927	-2.749	-2.61437
H	-1.83879	-2.42172	-2.08933
N	-0.150328	-0.875947	-0.656446
C	0.339448	-0.0854358	0.444481
C	-0.0308959	1.36107	0.180463
O	-0.413622	1.71899	-0.931852
H	-0.347722	-0.369808	-1.49179
H	-0.165305	-0.39399	1.35117
C	1.87074	-0.222305	0.597832
H	2.38536	0.0944306	-0.334353
H	2.25118	0.384987	1.44473
H	2.12911	-1.28654	0.789646
N	0.0544112	2.22613	1.21022
C	-0.28903	3.62057	1.0561
H	0.359444	1.91563	2.10452
H	-0.15163	4.16768	2.01477
H	-1.35129	3.73082	0.738791
H	0.353795	4.1006	0.283102
C	1746.29	-0.876445	-3.07238
C	1745.16	-0.86363	-2.10642
O	1744.06	-1.27645	-2.41863
H	1745.93	-1.29264	-4.04058
H	1747.11	-1.51041	-2.68964
H	1746.66	0.155957	-3.2398
N	1745.43	-0.375155	-0.89316
C	1744.44	-0.297453	0.153643
C	1744.91	0.74015	1.15677
O	1746.06	1.15988	1.137
H	1746.33	-0.0149534	-0.660192
H	1743.51	0.0493889	-0.269081
C	1744.25	-1.66314	0.85093
H	1745.22	-2.01629	1.28287
H	1743.49	-1.60693	1.65741
H	1743.92	-2.41469	0.105289
N	1744.01	1.19579	2.0485
C	1744.36	2.19267	3.03377
H	1743.08	0.848945	2.04376
H	1743.48	2.43471	3.67538
H	1744.7	3.13065	2.53952
H	1745.18	1.82689	3.6884
