44
  This energy is 1.79988e-320 and Call times are: 118761
C	-2.69441	-2.20305	0.113356
C	-1.33679	-1.8296	-0.343355
O	-0.633244	-2.62412	-0.951841
H	-2.90505	-3.25397	-0.181704
H	-3.4516	-1.53966	-0.355052
H	-2.76313	-2.11936	1.21844
N	-0.931603	-0.592049	-0.048957
C	0.36269	-0.0828426	-0.42624
C	0.683856	1.09028	0.479227
O	-0.190871	1.60859	1.17063
H	-1.50279	0.0361125	0.472669
H	1.10731	-0.848522	-0.249188
C	0.381414	0.366272	-1.90443
H	-0.384128	1.15131	-2.08268
H	1.37658	0.758766	-2.19831
H	0.143531	-0.50171	-2.55725
N	1.95941	1.52376	0.511983
C	2.36118	2.62702	1.35315
H	2.6542	1.08655	-0.0495681
H	3.44815	2.83342	1.2385
H	2.15902	2.39808	2.42458
H	1.79867	3.55063	1.08537
C	5621.37	2.754	-1.08607
C	5621.95	1.9183	-0.0105268
O	5621.91	2.2759	1.15871
H	5620.94	3.68065	-0.642572
H	5620.56	2.20051	-1.60616
H	5622.15	3.03386	-1.81903
N	5622.51	0.769868	-0.390991
C	5623.12	-0.149282	0.539234
C	5624.08	-1.02961	-0.23489
O	5624.05	-1.06431	-1.46361
H	5622.56	0.503467	-1.34983
H	5623.69	0.411871	1.26289
C	5622.05	-1.01822	1.24518
H	5621.46	-1.59201	0.499819
H	5622.51	-1.727	1.96227
H	5621.35	-0.361558	1.80766
N	5624.97	-1.74892	0.470567
C	5625.94	-2.606	-0.1812
H	5624.99	-1.7018	1.46397
H	5626.58	-3.11342	0.568779
H	5626.59	-2.01545	-0.863903
H	5625.42	-3.38701	-0.786068
