44
  This energy is 2.33644e-320 and Call times are: 31611
C	0.936321	-3.3476	-0.207305
C	1.08626	-1.98653	0.355015
O	1.84441	-1.76838	1.28995
H	1.58966	-4.05075	0.353584
H	1.23515	-3.35481	-1.27664
H	-0.117408	-3.68564	-0.116007
N	0.349	-1.02721	-0.209362
C	0.386006	0.345741	0.227046
C	-0.891506	1.0171	-0.238223
O	-1.61507	0.480172	-1.07488
H	-0.286649	-1.22307	-0.951338
H	0.395431	0.370798	1.30934
C	1.61466	1.08566	-0.347451
H	1.60216	1.05743	-1.45793
H	1.64633	2.14306	-0.0132761
H	2.54389	0.583486	-0.000312428
N	-1.21027	2.20461	0.313335
C	-2.41311	2.91219	-0.0590561
H	-0.615385	2.61937	0.994018
H	-2.49655	3.86866	0.502592
H	-3.3152	2.29658	0.161206
H	-2.4112	3.14434	-1.14868
C	1500.58	2.15541	-2.4954
C	1500.34	1.30682	-1.30583
O	1499.26	1.29871	-0.740337
H	1499.66	2.7262	-2.72928
H	1500.84	1.52368	-3.36974
H	1501.4	2.8724	-2.29636
N	1501.37	0.566401	-0.891038
C	1501.3	-0.309188	0.251051
C	1502.71	-0.566794	0.735735
O	1503.68	-0.274727	0.0355832
H	1502.26	0.603771	-1.34275
H	1500.76	0.195547	1.0464
C	1500.61	-1.64405	-0.108571
H	1501.16	-2.15886	-0.925261
H	1500.55	-2.32057	0.768609
H	1499.57	-1.44159	-0.463263
N	1502.86	-1.10338	1.9625
C	1504.17	-1.37291	2.51244
H	1502.07	-1.32613	2.51664
H	1504.09	-1.81493	3.52966
H	1504.77	-0.434561	2.58648
H	1504.73	-2.08685	1.86518
