44
  This energy is 5.89914e-320 and Call times are: 107715
C	-3.28341	0.564011	-1.01354
C	-1.8261	0.545899	-1.27266
O	-1.38071	0.742049	-2.39499
H	-3.823	0.766239	-1.96423
H	-3.5321	1.36184	-0.282482
H	-3.61361	-0.41829	-0.614802
N	-1.04001	0.29984	-0.222002
C	0.397208	0.250266	-0.315721
C	0.91465	-0.537698	0.871968
O	0.182804	-0.786742	1.82811
H	-1.4163	0.112789	0.681519
H	0.672905	-0.288622	-1.21331
C	1.00988	1.66862	-0.31992
H	0.724496	2.21886	0.601982
H	2.1164	1.63413	-0.392137
H	0.622072	2.23592	-1.19394
N	2.19059	-0.969026	0.827975
C	2.7664	-1.73657	1.90755
H	2.76466	-0.763352	0.0422445
H	3.82507	-1.99534	1.68503
H	2.19945	-2.68301	2.06269
H	2.73938	-1.15797	2.85922
C	5099.27	1.72446	-1.50228
C	5099.86	0.973576	-0.368192
O	5099.26	0.87353	0.696859
H	5098.29	2.13764	-1.19984
H	5099.13	1.05107	-2.37326
H	5099.94	2.5634	-1.79055
N	5101.06	0.425548	-0.574975
C	5101.75	-0.334737	0.432118
C	5103.23	-0.347674	0.0711388
O	5103.6	0.0029285	-1.0456
H	5101.54	0.538767	-1.4374
H	5101.65	0.168727	1.38526
C	5101.22	-1.78028	0.518065
H	5101.32	-2.2936	-0.461611
H	5101.75	-2.36845	1.29266
H	5100.14	-1.75703	0.781943
N	5104.1	-0.734255	1.0219
C	5105.52	-0.766875	0.773165
H	5103.78	-1.00748	1.92173
H	5106.07	-1.11331	1.67623
H	5105.9	0.246732	0.502339
H	5105.76	-1.4584	-0.0677714
