44
  This energy is 3.40559e-320 and Call times are: 2127
C	0.274774	0.970231	3.33306
C	0.0120325	-0.0480122	2.29126
O	-0.13967	-1.22642	2.58251
H	0.307048	0.477023	4.32883
H	-0.532767	1.73226	3.3355
H	1.25031	1.46649	3.14599
N	-0.0422696	0.39226	1.03206
C	-0.2899	-0.477424	-0.0900611
C	0.222311	0.214943	-1.33806
O	0.506245	1.41116	-1.32163
H	0.111903	1.35013	0.804808
H	0.280615	-1.38853	0.0382896
C	-1.79554	-0.791512	-0.236769
H	-2.37789	0.145434	-0.367593
H	-1.98975	-1.46107	-1.09976
H	-2.1588	-1.2974	0.684246
N	0.373367	-0.531625	-2.44974
C	0.866187	0.0387477	-3.6818
H	0.144889	-1.49959	-2.44092
H	0.917556	-0.734159	-4.48006
H	1.88649	0.462503	-3.53808
H	0.197629	0.858964	-4.0303
C	111.864	-2.04927	0.911742
C	111.311	-0.738749	0.502168
O	112.007	0.267266	0.495019
H	112.934	-1.92624	1.18793
H	111.79	-2.77432	0.0740814
H	111.309	-2.4416	1.78977
N	110.022	-0.722125	0.152027
C	109.342	0.476444	-0.269831
C	107.854	0.258142	-0.0821902
O	107.404	-0.86854	0.1181
H	109.458	-1.5428	0.189941
H	109.639	1.2944	0.37455
C	109.649	0.80642	-1.74778
H	109.344	-0.0350886	-2.40595
H	109.127	1.72883	-2.07584
H	110.743	0.962905	-1.87222
N	107.053	1.34152	-0.121405
C	105.624	1.23219	0.0588797
H	107.437	2.24566	-0.27753
H	105.142	2.23206	-0.00910691
H	105.386	0.795253	1.05573
H	105.179	0.573962	-0.721813
