44
  This energy is 1.05216e-319 and Call times are: 16911
C	1.97099	-0.317957	2.85311
C	1.78026	-0.397793	1.38735
O	2.72354	-0.607668	0.637238
H	3.04628	-0.467671	3.09226
H	1.37689	-1.10737	3.35977
H	1.65515	0.6789	3.22657
N	0.534182	-0.223084	0.941109
C	0.190696	-0.272623	-0.457602
C	-1.12461	0.459311	-0.640553
O	-1.82541	0.744455	0.328677
H	-0.2209	-0.0238192	1.56004
H	0.944608	0.259133	-1.0241
C	0.061124	-1.73009	-0.953713
H	-0.712658	-2.27286	-0.369953
H	-0.203137	-1.7719	-2.03037
H	1.03072	-2.2557	-0.813175
N	-1.48064	0.801067	-1.89453
C	-2.70967	1.51019	-2.16436
H	-0.896511	0.567639	-2.66494
H	-2.82424	1.69769	-3.25476
H	-2.72101	2.49147	-1.63691
H	-3.58832	0.92063	-1.81567
C	808.028	0.399169	3.23388
C	808.206	0.0379608	1.80939
O	809.314	-0.208641	1.3528
H	809.019	0.402823	3.7382
H	807.372	-0.341208	3.73724
H	807.578	1.41051	3.3191
N	807.099	0.00444813	1.0636
C	807.111	-0.330242	-0.338069
C	805.843	0.222079	-0.95964
O	804.912	0.605962	-0.253605
H	806.206	0.235772	1.44049
H	807.951	0.163128	-0.810573
C	807.185	-1.85878	-0.550792
H	806.322	-2.3618	-0.0642132
H	807.194	-2.11999	-1.62897
H	808.117	-2.25126	-0.0899576
N	805.786	0.295132	-2.30406
C	804.624	0.818064	-2.98408
H	806.553	-0.0139384	-2.8577
H	804.77	0.79368	-4.08658
H	804.432	1.87223	-2.67918
H	803.72	0.216468	-2.73624
