44
  This energy is 1.48136e-319 and Call times are: 91923
C	2.93993	1.86621	-0.0143116
C	2.18696	0.625927	0.278837
O	2.75955	-0.388028	0.653711
H	4.02368	1.68703	0.156702
H	2.6015	2.68612	0.653547
H	2.78774	2.16538	-1.07274
N	0.864325	0.680169	0.105423
C	-0.00282574	-0.44461	0.349859
C	-1.29041	-0.215669	-0.41758
O	-1.55444	0.889743	-0.886816
H	0.412973	1.50347	-0.228339
H	0.461253	-1.33917	-0.0456947
C	-0.303931	-0.605707	1.85668
H	-0.77935	0.314052	2.25934
H	-0.97126	-1.47096	2.04847
H	0.647335	-0.77161	2.40778
N	-2.11564	-1.26824	-0.582103
C	-3.35803	-1.14801	-1.30888
H	-1.88082	-2.15638	-0.200925
H	-3.8954	-2.12161	-1.33285
H	-3.16953	-0.825798	-2.35859
H	-4.02213	-0.392585	-0.829826
C	4354.19	-3.09656	1.57916
C	4354.26	-2.25902	0.360683
O	4354.39	-2.76311	-0.747026
H	4354.27	-4.16782	1.29384
H	4353.22	-2.93662	2.09736
H	4355.02	-2.84248	2.26753
N	4354.19	-0.938559	0.54369
C	4354.24	0.00543424	-0.543839
C	4354.66	1.349	0.0257029
O	4354.63	1.55122	1.23832
H	4354.12	-0.538862	1.45366
H	4355.01	-0.305399	-1.24136
C	4352.88	0.125805	-1.25341
H	4352.09	0.444206	-0.534785
H	4352.92	0.851761	-2.09143
H	4352.59	-0.86513	-1.66513
N	4355.06	2.29652	-0.840961
C	4355.49	3.60195	-0.389539
H	4355.08	2.11115	-1.81798
H	4355.78	4.23913	-1.25158
H	4356.36	3.51656	0.299587
H	4354.66	4.11415	0.157761
