44
  This energy is 1.25162e-319 and Call times are: 97635
C	-2.18316	-2.4024	1.26032
C	-0.881835	-1.69689	1.26303
O	-0.055654	-1.897	2.14273
H	-2.23806	-3.07514	2.14365
H	-2.28615	-3.01157	0.33775
H	-3.01591	-1.66989	1.31411
N	-0.671482	-0.836854	0.263801
C	0.545253	-0.0762235	0.130292
C	0.250665	1.12337	-0.749152
O	-0.784704	1.17919	-1.41001
H	-1.3641	-0.660961	-0.430666
H	0.837406	0.294124	1.10475
C	1.67488	-0.926779	-0.492288
H	1.37155	-1.30564	-1.49157
H	2.61326	-0.344208	-0.596382
H	1.88034	-1.80287	0.160707
N	1.15051	2.12645	-0.760114
C	0.949161	3.31351	-1.55794
H	1.97882	2.06562	-0.212903
H	1.79949	4.01973	-1.43369
H	0.0126935	3.83589	-1.25563
H	0.86543	3.05191	-2.63763
C	4623.55	1.39123	2.8948
C	4624.37	1.48477	1.6637
O	4624.83	2.55541	1.28751
H	4623.45	2.40193	3.34684
H	4624.04	0.716426	3.6282
H	4622.54	1.00329	2.65426
N	4624.57	0.345865	0.996097
C	4625.34	0.276445	-0.218282
C	4624.94	-0.984402	-0.956848
O	4624.28	-1.85942	-0.39419
H	4624.17	-0.514907	1.29702
H	4625.09	1.12125	-0.845834
C	4626.86	0.253673	0.0801512
H	4627.12	-0.61386	0.724692
H	4627.46	0.200396	-0.852732
H	4627.14	1.18195	0.622326
N	4625.3	-1.09637	-2.24922
C	4624.95	-2.25577	-3.03583
H	4625.83	-0.374209	-2.68865
H	4625.34	-2.16099	-4.07249
H	4623.85	-2.37417	-3.08894
H	4625.38	-3.18099	-2.58348
