44
  This energy is 1.2987e-319 and Call times are: 91167
C	-0.976813	0.825371	-3.23894
C	-0.387229	1.17756	-1.92762
O	0.136924	2.26717	-1.74189
H	-0.844422	1.67655	-3.94167
H	-2.06169	0.617129	-3.1271
H	-0.47035	-0.0692527	-3.65857
N	-0.456712	0.243621	-0.976148
C	0.0717324	0.43839	0.350366
C	0.295483	-0.928228	0.968047
O	-0.192546	-1.93557	0.459204
H	-0.860321	-0.650981	-1.14855
H	1.03458	0.927924	0.277177
C	-0.89648	1.26501	1.2258
H	-1.88344	0.760254	1.29819
H	-0.492605	1.41699	2.24783
H	-1.05304	2.26326	0.761969
N	1.06194	-0.996282	2.07435
C	1.3397	-2.25558	2.72488
H	1.45375	-0.17065	2.46685
H	1.98539	-2.10301	3.61766
H	1.86281	-2.95047	2.02866
H	0.39455	-2.74433	3.05503
C	4318.32	-2.67602	2.22675
C	4317.83	-1.96822	1.02385
O	4317.01	-2.48941	0.271613
H	4317.84	-3.6796	2.28291
H	4318.06	-2.10332	3.1415
H	4319.42	-2.80234	2.17183
N	4318.32	-0.746147	0.810858
C	4317.94	0.0662133	-0.316012
C	4319.02	1.10258	-0.534039
O	4319.87	1.30907	0.326174
H	4319	-0.344134	1.41517
H	4317.89	-0.556614	-1.20052
C	4316.58	0.761974	-0.0717526
H	4316.62	1.39956	0.836756
H	4316.28	1.38819	-0.937551
H	4315.79	-0.00786998	0.0876923
N	4319.02	1.76639	-1.70679
C	4320.03	2.76251	-2.00793
H	4318.33	1.57993	-2.39304
H	4319.86	3.19592	-3.01849
H	4321.05	2.31421	-1.98374
H	4319.99	3.58946	-1.26204
