44
  This energy is 5.73314e-320 and Call times are: 27033
C	3.39795	-0.709693	0.276456
C	2.02602	-1.05992	-0.155248
O	1.81235	-2.04891	-0.842811
H	4.11249	-1.46018	-0.126106
H	3.46221	-0.710805	1.38492
H	3.67599	0.293978	-0.108612
N	1.05155	-0.238137	0.241531
C	-0.333345	-0.446428	-0.0983348
C	-1.05288	0.880608	0.0447842
O	-0.523081	1.82295	0.630561
H	1.242	0.580362	0.776999
H	-0.39962	-0.746255	-1.1365
C	-0.984515	-1.50548	0.818997
H	-0.914151	-1.19502	1.88332
H	-2.05087	-1.66843	0.559946
H	-0.447671	-2.4725	0.705796
N	-2.27599	0.991506	-0.509932
C	-3.03129	2.22033	-0.434542
H	-2.68466	0.219759	-0.985986
H	-4.0118	2.11139	-0.948336
H	-2.47322	3.05479	-0.91774
H	-3.2208	2.50074	0.62689
C	1288.29	-2.79222	1.63215
C	1288.32	-1.79914	0.534702
O	1289.24	-1.75822	-0.260755
H	1289.21	-3.41854	1.58125
H	1287.4	-3.44916	1.53385
H	1288.26	-2.27617	2.6149
N	1287.28	-0.959412	0.471611
C	1287.16	0.0610245	-0.539067
C	1286.2	1.11605	-0.0254864
O	1285.49	0.895348	0.952384
H	1286.54	-0.983895	1.14297
H	1288.12	0.533319	-0.677092
C	1286.64	-0.52475	-1.87184
H	1285.65	-1.00907	-1.72646
H	1286.55	0.25826	-2.65232
H	1287.35	-1.29707	-2.23687
N	1286.17	2.30221	-0.66453
C	1285.3	3.37081	-0.239435
H	1286.76	2.46391	-1.44951
H	1285.42	4.26319	-0.891762
H	1285.53	3.66949	0.809769
H	1284.24	3.04871	-0.284546
