44
  This energy is 1.08334e-319 and Call times are: 64959
C	1.63208	-2.19785	2.15218
C	1.60612	-0.98374	1.30574
O	2.54279	-0.196907	1.29941
H	2.5854	-2.22708	2.72331
H	1.56462	-3.1073	1.51881
H	0.784072	-2.18314	2.86885
N	0.510505	-0.800467	0.56519
C	0.338107	0.332603	-0.308458
C	-1.14667	0.500397	-0.56638
O	-1.93999	-0.39307	-0.276229
H	-0.258148	-1.43357	0.601117
H	0.686755	1.22368	0.198006
C	1.09001	0.133156	-1.64336
H	0.730335	-0.782203	-2.15995
H	0.959515	1.00384	-2.31839
H	2.17628	0.0102757	-1.44068
N	-1.56042	1.66612	-1.10106
C	-2.95641	1.92047	-1.37073
H	-0.903763	2.37963	-1.32227
H	-3.09381	2.93266	-1.811
H	-3.55473	1.86211	-0.432723
H	-3.36184	1.16884	-2.08617
C	3083.7	0.738551	-1.78252
C	3082.5	1.15103	-1.01656
O	3082.32	2.3195	-0.700848
H	3084.33	1.62943	-1.97846
H	3083.4	0.291927	-2.75323
H	3084.29	-0.00252036	-1.20225
N	3081.64	0.181893	-0.691319
C	3080.43	0.426831	0.0517873
C	3080	-0.88408	0.676402
O	3080.49	-1.94957	0.310559
H	3081.81	-0.770657	-0.929145
H	3080.65	1.11895	0.856061
C	3079.31	0.979123	-0.860323
H	3079.1	0.266909	-1.68468
H	3078.38	1.16899	-0.291308
H	3079.65	1.93877	-1.31265
N	3079.07	-0.832773	1.65495
C	3078.6	-2.02875	2.31599
H	3078.69	0.0398443	1.94182
H	3077.84	-1.77918	3.08893
H	3079.45	-2.5588	2.81309
H	3078.14	-2.72803	1.58233
