44
  This energy is 6.38234e-320 and Call times are: 9309
C	-0.71545	1.9863	2.76927
C	-0.559736	0.664866	2.1206
O	-0.611341	-0.369445	2.77178
H	-0.865849	1.84385	3.8615
H	-1.5971	2.51617	2.35124
H	0.195175	2.60114	2.60905
N	-0.356457	0.672249	0.801138
C	-0.18708	-0.533114	0.0296215
C	0.5199	-0.165136	-1.26034
O	0.617927	1.00945	-1.61045
H	-0.287366	1.52266	0.286395
H	0.455826	-1.21243	0.574847
C	-1.54674	-1.19804	-0.280738
H	-2.20401	-0.49814	-0.839531
H	-1.41998	-2.12652	-0.874558
H	-2.05509	-1.46168	0.672269
N	1.05081	-1.16621	-1.98972
C	1.75251	-0.910494	-3.22601
H	0.967134	-2.10956	-1.6859
H	2.11266	-1.86106	-3.67763
H	2.63281	-0.250974	-3.04896
H	1.08418	-0.404637	-3.95993
C	450.372	-1.60122	-1.71642
C	449.885	-0.60826	-0.732843
O	450.662	0.00803454	-0.0174504
H	451.481	-1.66003	-1.66012
H	450.08	-1.29741	-2.74367
H	449.947	-2.60239	-1.49254
N	448.562	-0.434109	-0.671757
C	447.937	0.496328	0.234185
C	446.492	0.0740123	0.412192
O	445.978	-0.744434	-0.34798
H	447.937	-0.963337	-1.23944
H	448.422	0.426382	1.19985
C	448.006	1.94145	-0.308105
H	447.508	2.00944	-1.29915
H	447.526	2.6605	0.387088
H	449.07	2.23838	-0.435199
N	445.806	0.610202	1.44091
C	444.429	0.258613	1.69576
H	446.242	1.26542	2.04925
H	444.041	0.805523	2.58336
H	444.331	-0.83453	1.88756
H	443.789	0.513786	0.819784
