44
  This energy is 5.97375e-320 and Call times are: 69705
C	-1.12995	-3.08327	-1.1588
C	-1.07295	-2.02097	-0.129482
O	-1.78741	-2.06253	0.862641
H	-1.88919	-3.83992	-0.864035
H	-0.141987	-3.58185	-1.24913
H	-1.41628	-2.6503	-2.14038
N	-0.210383	-1.02634	-0.350959
C	-0.0408595	0.0783794	0.558815
C	0.580215	1.2264	-0.212909
O	1.07639	1.04218	-1.32273
H	0.34521	-0.988878	-1.17731
H	-1.01445	0.402595	0.903901
C	0.86083	-0.308956	1.75215
H	1.85857	-0.641699	1.39448
H	0.993341	0.539338	2.45473
H	0.395463	-1.15158	2.30853
N	0.547055	2.44954	0.351738
C	1.10309	3.60445	-0.313991
H	0.134684	2.57945	1.24745
H	0.980181	4.51598	0.311507
H	0.594648	3.77797	-1.29001
H	2.18974	3.45879	-0.511862
C	3303.72	2.01709	0.938561
C	3304.95	1.24853	1.25632
O	3305.45	1.29589	2.36927
H	3303.4	2.58954	1.83698
H	3302.9	1.3275	0.643673
H	3303.92	2.72944	0.110408
N	3305.46	0.516046	0.265633
C	3306.65	-0.285417	0.421227
C	3307.22	-0.538957	-0.958714
O	3306.56	-0.309114	-1.96813
H	3305.06	0.508648	-0.644966
H	3307.38	0.277621	0.984757
C	3306.33	-1.62682	1.12048
H	3305.58	-2.20154	0.540038
H	3307.25	-2.24636	1.24202
H	3305.91	-1.42738	2.12971
N	3308.49	-1.00116	-1.03407
C	3309.12	-1.26058	-2.30507
H	3309.01	-1.17413	-0.205913
H	3310.16	-1.63697	-2.15729
H	3309.17	-0.3308	-2.91693
H	3308.55	-2.02367	-2.88156
