44
  This energy is 1.28788e-319 and Call times are: 104061
C	-0.775473	-2.44339	-2.35682
C	-0.855117	-1.88205	-0.989432
O	-1.58708	-2.37771	-0.143826
H	-1.46007	-3.31568	-2.4362
H	0.260648	-2.77895	-2.57287
H	-1.07926	-1.67905	-3.10277
N	-0.0942312	-0.813338	-0.741892
C	-0.0632588	-0.155916	0.540163
C	0.45602	1.25296	0.328873
O	0.997276	1.57147	-0.728212
H	0.475864	-0.401221	-1.44764
H	-1.07374	-0.0803362	0.921332
C	0.842184	-0.911755	1.53816
H	1.87788	-0.988042	1.14366
H	0.868188	-0.408329	2.52642
H	0.451848	-1.94262	1.68341
N	0.282235	2.13971	1.32861
C	0.733374	3.50692	1.21289
H	-0.164514	1.86453	2.17355
H	0.500892	4.07746	2.13901
H	0.235336	4.01367	0.354748
H	1.83403	3.54474	1.04467
C	4929.74	1.75086	-2.91686
C	4928.86	1.449	-1.76987
O	4927.86	2.11906	-1.5489
H	4929.34	2.63056	-3.46728
H	4929.78	0.882703	-3.60787
H	4930.77	1.98542	-2.55822
N	4929.22	0.419	-0.999447
C	4928.46	0.00324023	0.152098
C	4929.37	-0.798556	1.05265
O	4930.46	-1.20627	0.640872
H	4930.05	-0.100936	-1.17293
H	4928.14	0.881302	0.70155
C	4927.24	-0.851551	-0.257949
H	4927.56	-1.75114	-0.821988
H	4926.65	-1.17325	0.626325
H	4926.57	-0.253335	-0.918286
N	4928.97	-1.02529	2.31755
C	4929.78	-1.76877	3.2505
H	4928.09	-0.680911	2.63399
H	4929.28	-1.8494	4.23737
H	4930.77	-1.26634	3.40128
H	4929.98	-2.79801	2.87029
