44
  This energy is 1.23343e-319 and Call times are: 78273
C	0.769606	-2.61645	-2.16518
C	0.063971	-2.06833	-0.984991
O	-0.772465	-2.72914	-0.38482
H	0.403876	-3.64689	-2.36595
H	1.86271	-2.654	-1.97402
H	0.572076	-1.98487	-3.05682
N	0.388032	-0.824161	-0.625294
C	-0.211834	-0.154876	0.501226
C	-0.0255841	1.33772	0.309644
O	0.760493	1.77031	-0.531059
H	1.04988	-0.285552	-1.13988
H	-1.27563	-0.355903	0.504318
C	0.433145	-0.604351	1.8313
H	1.52456	-0.397263	1.82443
H	-0.0265003	-0.0910511	2.7008
H	0.290905	-1.69959	1.95923
N	-0.765685	2.1634	1.07548
C	-0.664495	3.59916	0.954939
H	-1.40148	1.79391	1.74517
H	-1.35087	4.10321	1.67053
H	-0.930972	3.92661	-0.0760836
H	0.374962	3.93916	1.16734
C	3710.51	-2.51513	2.37711
C	3710.79	-1.11055	2.00181
O	3710.9	-0.238034	2.85243
H	3710.43	-2.58954	3.48292
H	3711.34	-3.17325	2.03642
H	3709.56	-2.85223	1.91834
N	3710.91	-0.857889	0.696226
C	3711.18	0.45862	0.17624
C	3710.74	0.486472	-1.27418
O	3710.49	-0.556444	-1.87459
H	3710.79	-1.57196	0.011477
H	3710.58	1.18037	0.716389
C	3712.68	0.807264	0.281494
H	3713.29	0.0644494	-0.273181
H	3712.89	1.82037	-0.117874
H	3712.99	0.782287	1.34861
N	3710.61	1.69041	-1.86661
C	3710.19	1.81575	-3.24106
H	3710.82	2.5232	-1.36173
H	3710.15	2.8851	-3.54476
H	3709.17	1.3749	-3.38003
H	3710.89	1.28347	-3.92082
