44
  This energy is 3.52071e-320 and Call times are: 2169
C	3.35065	-0.670537	0.670554
C	2.02628	-0.137518	1.06188
O	1.8096	0.241888	2.2045
H	4.02722	-0.657015	1.55256
H	3.79353	-0.0435861	-0.131699
H	3.25124	-1.71598	0.309838
N	1.095	-0.102752	0.10591
C	-0.240447	0.388939	0.333165
C	-1.13762	-0.182893	-0.747266
O	-0.657622	-0.713324	-1.7473
H	1.27512	-0.441828	-0.813613
H	-0.594953	0.0169479	1.28607
C	-0.284877	1.93294	0.298483
H	0.0800933	2.31117	-0.680217
H	-1.31168	2.31491	0.473263
H	0.377228	2.33949	1.09377
N	-2.46977	-0.106792	-0.558631
C	-3.40154	-0.634906	-1.52769
H	-2.83859	0.319868	0.260615
H	-4.45011	-0.474574	-1.19296
H	-3.24248	-1.72834	-1.67031
H	-3.26804	-0.135019	-2.51433
C	111.137	-0.758922	-3.39797
C	111.126	0.212114	-2.28076
O	111.2	1.41549	-2.48785
H	111.226	-0.210132	-4.36071
H	110.195	-1.34575	-3.40414
H	112.001	-1.44898	-3.29693
N	111.038	-0.299854	-1.05095
C	111.015	0.517074	0.13604
C	111.43	-0.351567	1.30741
O	111.469	-1.57577	1.19947
H	111.007	-1.28337	-0.893785
H	111.75	1.30567	0.0344312
C	109.61	1.10842	0.385312
H	108.858	0.296684	0.488399
H	109.589	1.73812	1.29845
H	109.316	1.74161	-0.480285
N	111.773	0.267634	2.45416
C	112.193	-0.476746	3.61845
H	111.742	1.2596	2.5194
H	112.431	0.210653	4.46008
H	113.102	-1.08048	3.39201
H	111.39	-1.17336	3.95062
