44
  This energy is 1.43694e-319 and Call times are: 36021
C	0.653794	0.362603	3.40106
C	1.0331	0.519047	1.97879
O	2.03933	1.13566	1.65663
H	1.40199	0.880353	4.0398
H	0.630706	-0.713218	3.67473
H	-0.345549	0.811356	3.58238
N	0.21756	-0.0412181	1.08248
C	0.453237	0.0251395	-0.337685
C	-0.865807	-0.228632	-1.04122
O	-1.82791	-0.686013	-0.427217
H	-0.6147	-0.516	1.35609
H	0.77572	1.02622	-0.594443
C	1.50225	-1.01805	-0.783138
H	1.16853	-2.04384	-0.517592
H	1.68624	-0.969598	-1.87611
H	2.46345	-0.822003	-0.259876
N	-0.947082	0.0850865	-2.34926
C	-2.166	-0.11076	-3.09897
H	-0.159602	0.460856	-2.82666
H	-2.03193	0.20504	-4.15705
H	-2.99823	0.484587	-2.6583
H	-2.46581	-1.18369	-3.08851
C	1712.38	-2.86928	1.85098
C	1712.64	-1.96691	0.706094
O	1713.6	-2.14121	-0.0337937
H	1713.17	-3.65031	1.88781
H	1711.4	-3.36277	1.73474
H	1712.4	-2.29589	2.80171
N	1711.78	-0.96231	0.537315
C	1711.9	-0.00226377	-0.531035
C	1711.12	1.23645	-0.131828
O	1710.33	1.20717	0.812253
H	1711.02	-0.813787	1.16408
H	1712.93	0.281861	-0.636188
C	1711.35	-0.569135	-1.85946
H	1710.28	-0.860209	-1.74782
H	1711.44	0.167466	-2.68426
H	1711.92	-1.47676	-2.14029
N	1711.34	2.36601	-0.832931
C	1710.65	3.59716	-0.517496
H	1711.98	2.37122	-1.58893
H	1710.97	4.41081	-1.20745
H	1710.88	3.91598	0.526092
H	1709.55	3.46705	-0.608839
