44
  This energy is 2.0899e-320 and Call times are: 13761
C	-1.45432	-0.579975	-3.11042
C	-1.19955	0.279763	-1.93265
O	-1.56376	1.4474	-1.9112
H	-1.98572	0.0105061	-3.88811
H	-2.08659	-1.44602	-2.82229
H	-0.494594	-0.947127	-3.53122
N	-0.551809	-0.288302	-0.912793
C	-0.231564	0.419266	0.301134
C	0.907891	-0.314411	0.981281
O	1.22338	-1.44959	0.62961
H	-0.234611	-1.23203	-0.954025
H	0.120599	1.41117	0.0477862
C	-1.45197	0.497255	1.2454
H	-1.81106	-0.522038	1.50273
H	-1.20892	1.04158	2.18104
H	-2.28003	1.03582	0.735098
N	1.56904	0.330318	1.96271
C	2.67515	-0.284441	2.65897
H	1.30319	1.2513	2.22796
H	3.08498	0.403452	3.43104
H	3.49358	-0.540466	1.94772
H	2.34948	-1.22313	3.16293
C	659.741	1.65885	-0.850679
C	658.272	1.49632	-0.9208
O	657.568	2.33392	-1.46837
H	660.029	2.61138	-1.34614
H	660.244	0.816726	-1.37064
H	660.073	1.69	0.208559
N	657.769	0.397979	-0.352397
C	656.359	0.10017	-0.339529
C	656.1	-0.881527	0.786814
O	657.031	-1.47218	1.33187
H	658.349	-0.262426	0.116062
H	655.81	1.00663	-0.118357
C	655.899	-0.502646	-1.68572
H	656.465	-1.43204	-1.90981
H	654.814	-0.733006	-1.67932
H	656.095	0.225601	-2.50269
N	654.823	-1.06232	1.17762
C	654.482	-1.96809	2.24973
H	654.085	-0.569676	0.72882
H	653.383	-1.97932	2.42036
H	654.981	-1.66066	3.19739
H	654.81	-3.00493	2.00763
