44
  This energy is 1.11802e-319 and Call times are: 17163
C	3.30471	0.158488	1.08622
C	2.19826	0.611839	0.213626
O	2.32762	1.58302	-0.518879
H	4.18043	0.829066	0.947259
H	3.60053	-0.878419	0.821396
H	2.99127	0.19263	2.1509
N	1.06514	-0.0910803	0.279274
C	-0.0987876	0.227043	-0.508704
C	-1.30408	-0.396567	0.167776
O	-1.16266	-1.2399	1.0513
H	0.96247	-0.862624	0.901461
H	-0.240648	1.30033	-0.509362
C	0.0359077	-0.30729	-1.95212
H	0.181979	-1.40854	-1.9477
H	-0.85853	-0.0639429	-2.56166
H	0.923011	0.156152	-2.43629
N	-2.5248	0.0229566	-0.219315
C	-3.7296	-0.505481	0.376826
H	-2.6182	0.711476	-0.930969
H	-4.63084	-0.0369219	-0.0764656
H	-3.74523	-0.307059	1.47301
H	-3.79295	-1.60728	0.224464
C	818.613	-2.22213	2.67456
C	818.119	-1.69635	1.38214
O	817.229	-2.26677	0.765899
H	818.06	-3.15297	2.92788
H	818.447	-1.47567	3.47969
H	819.696	-2.45514	2.60387
N	818.699	-0.580759	0.934569
C	818.327	0.0510247	-0.305912
C	819.481	0.930287	-0.746135
O	820.392	1.20752	0.0315202
H	819.443	-0.141635	1.43154
H	818.188	-0.711828	-1.0614
C	817.045	0.898698	-0.142704
H	817.191	1.67986	0.633556
H	816.756	1.38647	-1.09603
H	816.208	0.243307	0.181123
N	819.479	1.3734	-2.01879
C	820.543	2.20608	-2.53045
H	818.737	1.13221	-2.63476
H	820.36	2.46752	-3.59596
H	821.522	1.6789	-2.46233
H	820.618	3.15119	-1.9454
