44
  This energy is 3.03949e-320 and Call times are: 37701
C	-1.52133	-2.12567	2.30069
C	-0.353825	-1.69889	1.49696
O	0.744008	-2.21575	1.65224
H	-1.20932	-2.92764	3.00451
H	-2.31904	-2.52047	1.6369
H	-1.91767	-1.26876	2.88512
N	-0.568954	-0.725047	0.609427
C	0.467554	-0.203389	-0.245179
C	0.03672	1.17305	-0.713184
O	-1.12463	1.55069	-0.570041
H	-1.46114	-0.291932	0.51277
H	1.3746	-0.0849565	0.333884
C	0.711601	-1.12552	-1.4606
H	-0.221116	-1.24535	-2.05203
H	1.50922	-0.726887	-2.12066
H	1.02545	-2.13088	-1.10438
N	0.97433	1.9668	-1.26712
C	0.659419	3.29788	-1.73106
H	1.91028	1.64566	-1.36766
H	1.56198	3.79011	-2.15573
H	0.279014	3.92618	-0.893336
H	-0.125596	3.26341	-2.52083
C	1788.22	1.18346	-3.20455
C	1788.8	1.34817	-1.85058
O	1789.48	2.32286	-1.56776
H	1788.53	2.04547	-3.83879
H	1787.12	1.14872	-3.14773
H	1788.6	0.247299	-3.66878
N	1788.54	0.378185	-0.972086
C	1789.02	0.396956	0.383442
C	1789	-1.02517	0.90877
O	1788.38	-1.90373	0.311143
H	1788	-0.425138	-1.22316
H	1790.06	0.726036	0.38097
C	1788.16	1.31203	1.28021
H	1787.1	0.971964	1.27991
H	1788.53	1.32892	2.32462
H	1788.19	2.35053	0.884133
N	1789.69	-1.28971	2.03456
C	1789.73	-2.61718	2.60234
H	1790.19	-0.566697	2.49961
H	1790.35	-2.63086	3.5268
H	1790.17	-3.34143	1.87742
H	1788.7	-2.96514	2.86163
