44
  This energy is 7.86009e-320 and Call times are: 51561
C	1.6823	2.98501	-0.621068
C	1.45166	1.54444	-0.871602
O	2.01908	0.96264	-1.78596
H	2.4018	3.37782	-1.37199
H	2.10581	3.1337	0.394483
H	0.728401	3.54648	-0.70927
N	0.593975	0.930128	-0.0534588
C	0.267195	-0.468543	-0.170766
C	-1.06033	-0.696829	0.525509
O	-1.53498	0.158876	1.27003
H	0.115935	1.42175	0.669533
H	0.135985	-0.712651	-1.21732
C	1.36007	-1.35674	0.464725
H	1.49252	-1.10319	1.53817
H	1.1117	-2.43434	0.376025
H	2.3277	-1.17933	-0.0533123
N	-1.70365	-1.85531	0.280425
C	-2.9787	-2.15502	0.889192
H	-1.30653	-2.53208	-0.330723
H	-3.34397	-3.15442	0.565119
H	-3.73977	-1.3937	0.60211
H	-2.89336	-2.15608	2
C	2448.23	-1.97964	-0.443122
C	2447.21	-1.03035	-0.949441
O	2447.31	-0.532895	-2.06274
H	2449.02	-2.11807	-1.21371
H	2447.76	-2.96303	-0.227816
H	2448.7	-1.58251	0.482581
N	2446.2	-0.750352	-0.125346
C	2445.14	0.154006	-0.475753
C	2444.49	0.631118	0.809605
O	2444.71	0.0629044	1.87621
H	2446.15	-1.13962	0.790395
H	2445.56	1.01877	-0.972515
C	2444.09	-0.535588	-1.37548
H	2443.66	-1.42268	-0.863039
H	2443.26	0.157984	-1.6473
H	2444.57	-0.881506	-2.3131
N	2443.68	1.7066	0.740168
C	2443.03	2.2395	1.91422
H	2443.51	2.15689	-0.131162
H	2442.4	3.12218	1.65148
H	2443.78	2.55567	2.67173
H	2442.37	1.47154	2.38144
