44
  This energy is 9.8487e-320 and Call times are: 46227
C	2.31881	1.70846	-1.95714
C	1.97168	0.682446	-0.948184
O	2.81046	-0.104927	-0.532267
H	3.3925	1.60908	-2.22764
H	2.14465	2.72464	-1.54498
H	1.70362	1.57018	-2.87112
N	0.703588	0.666188	-0.530999
C	0.214486	-0.272426	0.447065
C	-1.29175	-0.360188	0.296103
O	-1.90688	0.474091	-0.36528
H	0.0228632	1.29401	-0.898955
H	0.624266	-1.251	0.231323
C	0.579791	0.168803	1.88198
H	0.158396	1.17336	2.09971
H	0.204823	-0.551774	2.63759
H	1.68564	0.230414	1.97924
N	-1.92063	-1.39229	0.892148
C	-3.35131	-1.56426	0.793263
H	-1.40434	-2.06099	1.41704
H	-3.67814	-2.46908	1.35159
H	-3.66067	-1.67835	-0.270935
H	-3.88345	-0.68086	1.2147
C	2196.91	-1.62114	1.64011
C	2196.24	-1.15192	0.406417
O	2196.79	-1.2442	-0.684308
H	2197.91	-2.02487	1.38234
H	2196.31	-2.42457	2.11869
H	2197.03	-0.778593	2.35265
N	2195.02	-0.62404	0.55671
C	2194.24	-0.124323	-0.549172
C	2193.21	0.837319	0.00453456
O	2192.98	0.881546	1.21063
H	2194.6	-0.527784	1.45416
H	2194.89	0.4353	-1.21088
C	2193.55	-1.27323	-1.31093
H	2192.88	-1.84565	-0.628963
H	2192.95	-0.891982	-2.16319
H	2194.31	-1.97124	-1.71051
N	2192.58	1.6495	-0.867783
C	2191.59	2.60573	-0.430847
H	2192.79	1.6035	-1.83905
H	2191.19	3.17777	-1.29563
H	2192.04	3.32863	0.291513
H	2190.74	2.08983	0.0741351
