44
  This energy is 3.33643e-320 and Call times are: 26151
C	1.36465	-2.79506	-1.56574
C	1.24486	-1.88048	-0.407982
O	1.79556	-2.1306	0.655338
H	1.99205	-3.66755	-1.28118
H	1.84385	-2.27099	-2.41928
H	0.361128	-3.15859	-1.87191
N	0.504412	-0.784898	-0.591868
C	0.294776	0.199088	0.439953
C	-0.955121	0.982741	0.0894079
O	-1.44976	0.907681	-1.03377
H	0.0369845	-0.60698	-1.45372
H	0.112239	-0.308681	1.37853
C	1.50372	1.1535	0.561036
H	1.68856	1.67223	-0.403779
H	1.3457	1.91235	1.35473
H	2.41306	0.56716	0.816895
N	-1.50945	1.74054	1.05608
C	-2.70707	2.51201	0.817927
H	-1.09823	1.78251	1.96072
H	-3.00471	3.06888	1.73365
H	-3.55061	1.84686	0.522525
H	-2.54397	3.24783	-0.0025253
C	1246.52	0.358445	-3.11183
C	1245.46	0.689248	-2.13733
O	1244.65	1.58247	-2.35951
H	1246.44	1.03421	-3.99057
H	1246.41	-0.692025	-3.45473
H	1247.52	0.494248	-2.64799
N	1245.44	-0.0331509	-1.01482
C	1244.46	0.170425	0.0271524
C	1245.02	-0.411802	1.30995
O	1246	-1.15503	1.28741
H	1246.12	-0.738591	-0.832622
H	1244.33	1.2337	0.179909
C	1243.12	-0.506699	-0.320154
H	1243.26	-1.59727	-0.47686
H	1242.36	-0.351787	0.479977
H	1242.72	-0.0723195	-1.26227
N	1244.42	-0.0674163	2.46701
C	1244.9	-0.563322	3.73887
H	1243.64	0.540968	2.46498
H	1244.27	-0.168492	4.57084
H	1245.95	-0.252951	3.91446
H	1244.85	-1.67627	3.76681
