44
  This energy is 8.61898e-320 and Call times are: 89445
C	2.13837	-0.812412	2.62555
C	0.800044	-0.799754	1.99315
O	-0.140374	-1.40359	2.49063
H	2.10276	-1.43151	3.54821
H	2.44291	0.220193	2.89722
H	2.88654	-1.24712	1.9297
N	0.686351	-0.103612	0.859645
C	-0.550964	0.00285484	0.12852
C	-0.216642	0.387412	-1.29962
O	0.905286	0.79492	-1.59466
H	1.46695	0.359999	0.448954
H	-1.02997	-0.967731	0.104283
C	-1.48708	1.05872	0.757768
H	-0.992267	2.05306	0.781657
H	-2.4408	1.14316	0.19736
H	-1.72349	0.766118	1.80402
N	-1.18307	0.244953	-2.22791
C	-0.952804	0.574617	-3.61516
H	-2.08233	-0.0931738	-1.97055
H	-1.86806	0.391254	-4.22009
H	-0.126164	-0.043853	-4.03397
H	-0.670337	1.64692	-3.72271
C	4233.33	1.33695	-0.959814
C	4234.68	1.46849	-0.358358
O	4235.12	2.56229	-0.0424396
H	4232.87	2.34473	-1.05613
H	4232.68	0.70712	-0.314231
H	4233.41	0.878008	-1.96817
N	4235.36	0.336512	-0.190189
C	4236.69	0.302749	0.382101
C	4237.35	-0.992785	-0.0473399
O	4236.68	-1.9023	-0.542623
H	4235	-0.545243	-0.478426
H	4237.27	1.11959	-0.0265502
C	4236.63	0.386888	1.92396
H	4236.04	-0.452193	2.3398
H	4237.65	0.361298	2.36787
H	4236.15	1.3397	2.22564
N	4238.68	-1.09771	0.113831
C	4239.4	-2.28905	-0.27712
H	4239.2	-0.347878	0.509936
H	4240.48	-2.18235	-0.0629763
H	4239.27	-2.48288	-1.3671
H	4239.02	-3.17697	0.277374
