44
  This energy is 6.53056e-320 and Call times are: 107967
C	-0.546524	0.37986	3.41806
C	0.0556068	0.8199	2.13939
O	0.643062	1.88935	2.05179
H	-0.370834	1.15693	4.1934
H	-0.0826057	-0.572094	3.7518
H	-1.6406	0.234712	3.29613
N	-0.0854786	-0.00797195	1.10156
C	0.445387	0.28108	-0.206668
C	-0.315003	-0.559206	-1.21412
O	-1.02517	-1.49281	-0.845519
H	-0.591406	-0.863	1.17838
H	0.259767	1.32192	-0.439619
C	1.95577	-0.0351469	-0.283277
H	2.14265	-1.10356	-0.0430883
H	2.36779	0.186418	-1.28922
H	2.50135	0.58585	0.460258
N	-0.199621	-0.230773	-2.51597
C	-0.89608	-0.966469	-3.54548
H	0.374323	0.532614	-2.79357
H	-0.67174	-0.545025	-4.55012
H	-1.99751	-0.920758	-3.38422
H	-0.590261	-2.03773	-3.53829
C	5113.55	0.73394	-3.38599
C	5113.24	0.989285	-1.96039
O	5112.6	1.97182	-1.61766
H	5113.12	1.54932	-4.00611
H	5113.11	-0.233056	-3.70506
H	5114.65	0.706699	-3.54273
N	5113.71	0.096994	-1.0844
C	5113.5	0.208654	0.336028
C	5114.55	-0.621473	1.03515
O	5115.23	-1.43113	0.407383
H	5114.26	-0.683756	-1.37352
H	5113.64	1.24002	0.63342
C	5112.09	-0.286038	0.731098
H	5111.94	-1.3442	0.423935
H	5111.92	-0.201312	1.82414
H	5111.32	0.329262	0.211533
N	5114.73	-0.422106	2.35577
C	5115.73	-1.15806	3.10295
H	5114.18	0.242766	2.84451
H	5115.72	-0.853669	4.17279
H	5116.75	-0.971175	2.69245
H	5115.53	-2.25292	3.04845
