44
  This energy is 1.28457e-320 and Call times are: 112461
C	1.43895	2.89154	-1.30176
C	1.35635	1.82643	-0.277105
O	2.20043	1.72847	0.602909
H	2.34425	3.50966	-1.11685
H	0.541754	3.54352	-1.24903
H	1.51068	2.44323	-2.31509
N	0.321973	0.988096	-0.375237
C	0.105812	-0.0979161	0.547086
C	-0.794819	-1.11233	-0.130461
O	-1.40575	-0.823443	-1.15766
H	-0.342956	1.06057	-1.11385
H	1.05295	-0.581934	0.748919
C	-0.544611	0.398251	1.85777
H	-1.51572	0.894854	1.64695
H	-0.712321	-0.435406	2.57027
H	0.124312	1.14155	2.34377
N	-0.880653	-2.33888	0.421079
C	-1.70396	-3.37314	-0.160862
H	-0.372911	-2.55542	1.24845
H	-1.64323	-4.30803	0.438747
H	-1.37257	-3.601	-1.19985
H	-2.76969	-3.05099	-0.201221
C	5326.11	1.65393	-2.98143
C	5326.25	0.494529	-2.07154
O	5326.82	-0.524136	-2.42794
H	5326.59	1.41481	-3.95622
H	5326.61	2.54434	-2.54508
H	5325.03	1.87993	-3.15336
N	5325.71	0.625551	-0.857815
C	5325.76	-0.414934	0.137881
C	5324.65	-0.158563	1.1392
O	5324.06	0.922646	1.16622
H	5325.21	1.44947	-0.589517
H	5325.56	-1.3671	-0.337243
C	5327.13	-0.437841	0.855209
H	5327.33	0.540714	1.34095
H	5327.17	-1.23794	1.62245
H	5327.93	-0.625256	0.110779
N	5324.32	-1.16178	1.97583
C	5323.27	-1.01347	2.95456
H	5324.8	-2.0317	1.93354
H	5323.15	-1.94695	3.54742
H	5322.3	-0.787201	2.45687
H	5323.5	-0.179545	3.65632
