44
  This energy is 5.63877e-320 and Call times are: 50721
C	1.60123	2.09895	2.27081
C	0.731397	1.87635	1.09393
O	0.129462	2.80242	0.568048
H	1.58111	3.17641	2.54384
H	2.64629	1.80754	2.03471
H	1.23755	1.50261	3.13397
N	0.641272	0.619655	0.652381
C	-0.164743	0.245749	-0.482239
C	-0.450176	-1.24006	-0.381598
O	0.181111	-1.94997	0.399009
H	1.1136	-0.130658	1.10722
H	-1.11202	0.767092	-0.428021
C	0.556296	0.559326	-1.81223
H	1.528	0.0234048	-1.86422
H	-0.0616065	0.2728	-2.68795
H	0.760753	1.65048	-1.87323
N	-1.4296	-1.74249	-1.15897
C	-1.77973	-3.1433	-1.12236
H	-1.93381	-1.1504	-1.77899
H	-2.60632	-3.36076	-1.83419
H	-2.11039	-3.43904	-0.10038
H	-0.904202	-3.77463	-1.39815
C	2404.5	3.21827	0.983567
C	2404.46	1.74756	1.14478
O	2403.92	1.23468	2.11784
H	2404.01	3.69917	1.85291
H	2403.98	3.51839	0.0545619
H	2405.56	3.56483	0.936991
N	2405.03	1.02651	0.17947
C	2405.07	-0.414099	0.195291
C	2406.2	-0.862803	-0.71187
O	2406.73	-0.074815	-1.49321
H	2405.49	1.45687	-0.593567
H	2405.3	-0.749477	1.19842
C	2403.73	-1.01451	-0.286915
H	2403.49	-0.667852	-1.31606
H	2403.75	-2.12361	-0.275839
H	2402.91	-0.677394	0.385069
N	2406.61	-2.14241	-0.612492
C	2407.68	-2.65594	-1.42735
H	2406.17	-2.76266	0.0309558
H	2407.87	-3.72845	-1.20013
H	2408.62	-2.08799	-1.24006
H	2407.44	-2.56506	-2.50956
