44
  This energy is 9.44357e-320 and Call times are: 83397
C	2.14936	-0.672407	2.65598
C	0.855051	-0.833748	1.95603
O	0.0199748	-1.63732	2.34772
H	2.19063	-1.37324	3.51795
H	2.2537	0.366885	3.03255
H	2.98882	-0.901308	1.96615
N	0.661109	-0.0634336	0.883014
C	-0.546995	-0.105778	0.098463
C	-0.233652	0.465593	-1.27069
O	0.807438	1.08921	-1.46835
H	1.36092	0.566502	0.556847
H	-0.843233	-1.13837	-0.0359573
C	-1.67994	0.705325	0.766039
H	-1.37241	1.76399	0.903032
H	-2.61169	0.674715	0.164641
H	-1.89918	0.277569	1.76859
N	-1.12348	0.245453	-2.25849
C	-0.904143	0.740942	-3.59736
H	-1.95667	-0.26765	-2.0803
H	-1.74846	0.458857	-4.2643
H	0.0349779	0.319287	-4.02338
H	-0.814404	1.8514	-3.59573
C	3953.39	2.89269	-1.35314
C	3953.51	1.53401	-0.779196
O	3954.59	0.952659	-0.759496
H	3954.38	3.22638	-1.72757
H	3953.04	3.60527	-0.576537
H	3952.67	2.8861	-2.19873
N	3952.4	0.988205	-0.297008
C	3952.36	-0.326153	0.292822
C	3950.92	-0.818653	0.243067
O	3950	-0.0442177	-0.00379073
H	3951.52	1.46025	-0.345273
H	3952.96	-0.998371	-0.307508
C	3952.86	-0.30168	1.75349
H	3952.24	0.389416	2.36637
H	3952.83	-1.31215	2.21065
H	3953.91	0.0619419	1.77643
N	3950.71	-2.13131	0.456494
C	3949.38	-2.6929	0.417009
H	3951.47	-2.74311	0.647644
H	3949.41	-3.78637	0.618886
H	3948.91	-2.53319	-0.583042
H	3948.72	-2.21213	1.1814
