44
  This energy is 1.18541e-319 and Call times are: 35097
C	-2.56226	2.20829	0.827284
C	-1.50957	1.23712	1.20127
O	-1.21261	1.0459	2.37248
H	-2.97202	2.67835	1.74761
H	-3.38566	1.6921	0.290272
H	-2.13754	3.00179	0.176964
N	-0.909104	0.596785	0.195396
C	0.133218	-0.377105	0.400165
C	0.91747	-0.498837	-0.891876
O	0.47848	-0.0297485	-1.94024
H	-1.13973	0.782654	-0.756024
H	0.810025	-0.0130736	1.16272
C	-0.450903	-1.75087	0.798534
H	-1.14528	-2.12103	0.0143521
H	0.348972	-2.50308	0.957128
H	-1.02397	-1.64797	1.74572
N	2.11399	-1.11669	-0.840992
C	2.93649	-1.26892	-2.01849
H	2.45507	-1.48329	0.0183718
H	3.87991	-1.80442	-1.77264
H	3.19929	-0.27399	-2.44546
H	2.39766	-1.84943	-2.80197
C	1669.58	-2.14946	-1.99002
C	1669.09	-1.69162	-0.670233
O	1669.32	-2.33069	0.346844
H	1670.14	-3.10296	-1.86433
H	1670.26	-1.39047	-2.42988
H	1668.73	-2.32108	-2.67717
N	1668.39	-0.557823	-0.65993
C	1667.85	0.0143972	0.546372
C	1666.72	0.945906	0.153006
O	1666.57	1.29843	-1.01586
H	1668.18	-0.0617574	-1.49904
H	1667.42	-0.777188	1.1524
C	1668.92	0.790601	1.33502
H	1669.36	1.60146	0.710109
H	1668.51	1.23239	2.26454
H	1669.75	0.097457	1.61624
N	1665.87	1.35046	1.12331
C	1664.76	2.22811	0.840767
H	1666	1.04846	2.0619
H	1664.19	2.44694	1.76818
H	1664.07	1.76096	0.102731
H	1665.12	3.19283	0.414741
