44
  This energy is 1.13205e-319 and Call times are: 52863
C	-0.275938	3.01358	-1.72289
C	-0.601755	1.58038	-1.5468
O	-1.44067	1.03163	-2.24793
H	-0.900995	3.43461	-2.54014
H	0.794761	3.13226	-1.99185
H	-0.485502	3.57175	-0.786156
N	0.0627215	0.934971	-0.585405
C	-0.144152	-0.461196	-0.294288
C	0.342931	-0.719756	1.1182
O	1.03593	0.10876	1.70569
H	0.722733	1.40027	-0.00160862
H	-1.20565	-0.672467	-0.320033
C	0.61683	-1.3626	-1.29203
H	1.70539	-1.14275	-1.26349
H	0.459601	-2.4383	-1.07085
H	0.251729	-1.16279	-2.32301
N	-0.0292268	-1.8737	1.70635
C	0.376816	-2.20052	3.05338
H	-0.596197	-2.52812	1.21696
H	-0.0278421	-3.19125	3.35664
H	0.0049895	-1.43506	3.77245
H	1.48759	-2.23662	3.13127
C	2507.01	2.86168	-1.94485
C	2507.83	1.96476	-1.09983
O	2509.03	2.14346	-0.969894
H	2507.66	3.64341	-2.39145
H	2506.22	3.35458	-1.3315
H	2506.53	2.28403	-2.76256
N	2507.18	0.959967	-0.502004
C	2507.84	0.00487318	0.35097
C	2506.98	-1.23649	0.420865
O	2505.81	-1.21235	0.0266921
H	2506.21	0.807773	-0.639028
H	2508.79	-0.277613	-0.101166
C	2508.07	0.577107	1.76856
H	2507.1	0.866483	2.22917
H	2508.58	-0.155672	2.42791
H	2508.7	1.48663	1.70354
N	2507.53	-2.36263	0.907394
C	2506.79	-3.59596	1.00074
H	2508.48	-2.36372	1.21467
H	2507.42	-4.40615	1.42736
H	2506.44	-3.91923	-0.00558705
H	2505.89	-3.46667	1.65402
