44
  This energy is 1.3197e-319 and Call times are: 104187
C	-1.3842	0.165462	-3.19104
C	-0.220624	0.0846412	-2.27958
O	0.911239	-0.0835115	-2.71213
H	-1.03775	0.0449822	-4.24048
H	-1.88285	1.15218	-3.08829
H	-2.11033	-0.641433	-2.9574
N	-0.480205	0.198945	-0.975001
C	0.546812	0.141089	0.0343139
C	-0.113822	-0.21749	1.35121
O	-1.33522	-0.156538	1.47887
H	-1.41003	0.306475	-0.633239
H	1.23924	-0.653422	-0.213411
C	1.28709	1.49124	0.161592
H	0.57366	2.30417	0.415125
H	2.07867	1.45016	0.937792
H	1.76564	1.74313	-0.809844
N	0.682379	-0.623113	2.35994
C	0.14159	-0.996243	3.64622
H	1.66782	-0.672603	2.23469
H	0.955	-1.29857	4.34207
H	-0.566058	-1.85043	3.54207
H	-0.411368	-0.143464	4.10249
C	4932.57	-2.05802	1.41228
C	4933.44	-1.65533	0.283423
O	4933.51	-2.3323	-0.733034
H	4932.06	-3.01222	1.15985
H	4931.8	-1.27815	1.60164
H	4933.18	-2.20792	2.32902
N	4934.14	-0.527224	0.44369
C	4935.02	-0.00611254	-0.565236
C	4936	0.933024	0.114124
O	4935.8	1.33016	1.25998
H	4934.09	4.26047e-05	1.28808
H	4935.59	-0.823458	-0.989098
C	4934.24	0.745306	-1.66686
H	4933.66	1.58271	-1.22844
H	4934.92	1.14773	-2.44543
H	4933.53	0.0468238	-2.15597
N	4937.1	1.29398	-0.574006
C	4938.09	2.17506	-0.00384975
H	4937.25	0.956247	-1.49746
H	4938.92	2.35379	-0.72486
H	4938.53	1.73289	0.923098
H	4937.64	3.15796	0.260973
