44
  This energy is 3.31222e-320 and Call times are: 113217
C	-1.96589	1.34859	2.53825
C	-0.662636	1.16013	1.86208
O	0.327923	1.78701	2.2118
H	-1.85624	2.10909	3.34167
H	-2.30334	0.392912	2.99172
H	-2.72712	1.70136	1.8109
N	-0.63732	0.280904	0.857741
C	0.555968	-0.0108946	0.104252
C	0.133858	-0.608182	-1.22402
O	-1.01877	-0.998539	-1.39978
H	-1.45771	-0.202033	0.563348
H	1.07697	0.915367	-0.102323
C	1.47305	-0.996393	0.862447
H	0.93519	-1.94526	1.07332
H	2.39289	-1.22313	0.285152
H	1.77429	-0.547656	1.83406
N	1.05843	-0.67305	-2.20226
C	0.744679	-1.21506	-3.50379
H	1.98387	-0.34539	-2.04275
H	1.63614	-1.18339	-4.16827
H	-0.0726797	-0.63129	-3.98585
H	0.408582	-2.27377	-3.41808
C	5359.04	2.52497	0.437854
C	5360.1	1.85193	-0.353227
O	5360.35	2.19786	-1.50002
H	5358.57	3.32242	-0.178594
H	5359.48	2.98564	1.34756
H	5358.26	1.79389	0.734614
N	5360.75	0.854682	0.251664
C	5361.8	0.105022	-0.388198
C	5361.93	-1.21896	0.338188
O	5361.4	-1.39302	1.43313
H	5360.52	0.563143	1.17599
H	5361.51	-0.108299	-1.40892
C	5363.14	0.872195	-0.351101
H	5363.43	1.08997	0.697491
H	5363.95	0.297866	-0.843078
H	5363.02	1.84057	-0.885404
N	5362.64	-2.19551	-0.269063
C	5362.81	-3.49305	0.341277
H	5363.05	-2.03748	-1.15828
H	5363.42	-4.15667	-0.31178
H	5361.82	-3.98077	0.514389
H	5363.33	-3.3993	1.32421
