44
  This energy is 1.69366e-320 and Call times are: 67899
C	-3.05226	-0.825924	1.45867
C	-2.06089	-0.933825	0.364706
O	-2.20716	-1.73929	-0.544314
H	-3.86592	-1.56467	1.29116
H	-3.49113	0.1938	1.47804
H	-2.56913	-1.0387	2.43553
N	-1.0097	-0.113726	0.434019
C	0.037951	-0.100527	-0.555465
C	1.26673	0.525118	0.0753324
O	1.18464	1.13872	1.13768
H	-0.887097	0.51776	1.19502
H	0.286528	-1.12091	-0.818346
C	-0.381891	0.699862	-1.80855
H	-0.636843	1.74598	-1.53513
H	0.422436	0.711925	-2.57255
H	-1.28361	0.232198	-2.26059
N	2.44523	0.364167	-0.558105
C	3.67026	0.914308	-0.0262894
H	2.49216	-0.141787	-1.41311
H	4.52946	0.676553	-0.691492
H	3.88289	0.495641	0.984031
H	3.59549	2.0219	0.067702
C	3217.37	-1.3414	1.08139
C	3218.63	-0.594192	1.3264
O	3218.83	-0.0336039	2.3944
H	3216.73	-1.27942	1.98351
H	3217.6	-2.40857	0.873143
H	3216.83	-0.903421	0.218285
N	3219.51	-0.5655	0.321997
C	3220.77	0.120197	0.409343
C	3221.25	0.393082	-1.0027
O	3220.73	-0.168721	-1.96388
H	3219.32	-1.00159	-0.553517
H	3220.62	1.07551	0.895929
C	3221.82	-0.72308	1.17271
H	3221.97	-1.70268	0.671186
H	3222.79	-0.197991	1.24194
H	3221.45	-0.917084	2.20507
N	3222.25	1.28449	-1.16206
C	3222.76	1.61669	-2.47006
H	3222.65	1.7339	-0.372292
H	3223.58	2.36647	-2.39199
H	3221.96	2.0416	-3.11269
H	3223.17	0.709535	-2.97593
