44
  This energy is 3.81517e-320 and Call times are: 56139
C	-2.48922	-0.512979	2.38049
C	-1.08343	-0.240873	2.00511
O	-0.245139	0.0370506	2.85158
H	-2.6014	-0.412	3.48189
H	-2.77157	-1.54496	2.08366
H	-3.1659	0.212842	1.88226
N	-0.792959	-0.310689	0.703911
C	0.529956	-0.072155	0.184465
C	0.397301	0.279212	-1.28461
O	-0.656311	0.0793232	-1.88609
H	-1.49101	-0.509446	0.0211575
H	0.957415	0.784322	0.690231
C	1.43329	-1.31404	0.354221
H	0.991448	-2.19097	-0.16529
H	2.45273	-1.13377	-0.0445691
H	1.52148	-1.56178	1.4345
N	1.46363	0.834646	-1.89325
C	1.42612	1.21308	-3.28665
H	2.30492	0.994955	-1.38753
H	2.39917	1.6503	-3.60172
H	0.627525	1.96866	-3.46718
H	1.21514	0.327556	-3.92891
C	2661.81	3.38486	0.757932
C	2661.68	2.27502	-0.212873
O	2661.51	2.49363	-1.40522
H	2661.72	4.35451	0.220599
H	2662.79	3.33743	1.26289
H	2661	3.32504	1.51843
N	2661.74	1.03892	0.287211
C	2661.63	-0.142215	-0.531156
C	2661.23	-1.2957	0.367098
O	2661.3	-1.19389	1.59042
H	2661.85	0.873915	1.26429
H	2660.84	0.00320423	-1.25452
C	2662.97	-0.461428	-1.23985
H	2663.78	-0.609353	-0.494845
H	2662.89	-1.37024	-1.87096
H	2663.25	0.391629	-1.89379
N	2660.78	-2.41867	-0.223243
C	2660.36	-3.56403	0.551604
H	2660.72	-2.47895	-1.21443
H	2660.02	-4.38742	-0.114975
H	2659.52	-3.29392	1.23055
H	2661.2	-3.9427	1.17702
