44
  This energy is 7.97521e-320 and Call times are: 51603
C	0.959659	-2.25538	-2.47355
C	-0.049236	-1.68489	-1.55275
O	-1.22228	-2.02739	-1.60895
H	0.465294	-2.97949	-3.15702
H	1.74721	-2.78516	-1.89744
H	1.42442	-1.44915	-3.07931
N	0.393026	-0.782232	-0.674126
C	-0.467841	-0.139078	0.286128
C	0.208201	1.14251	0.733041
O	1.39469	1.3473	0.483749
H	1.34554	-0.490047	-0.65762
H	-1.39683	0.131189	-0.199671
C	-0.733392	-1.05221	1.50383
H	0.22181	-1.32807	1.99941
H	-1.39604	-0.560128	2.24513
H	-1.2277	-1.98796	1.163
N	-0.542412	2.04929	1.38905
C	0.0123153	3.30343	1.84245
H	-1.50255	1.86811	1.57492
H	-0.761541	3.91102	2.36133
H	0.403054	3.89401	0.982343
H	0.853696	3.12772	2.55124
C	2446.84	0.00307332	-3.43623
C	2446.37	0.158147	-2.0403
O	2445.24	0.556659	-1.79209
H	2446.02	0.303851	-4.13156
H	2447.1	-1.05587	-3.63427
H	2447.72	0.648846	-3.61765
N	2447.25	-0.1536	-1.08317
C	2446.94	-0.0547664	0.321239
C	2448.25	0.0309789	1.08029
O	2449.31	-0.239893	0.52876
H	2448.17	-0.449347	-1.29802
H	2446.39	0.864516	0.498477
C	2446.12	-1.27422	0.805502
H	2446.68	-2.21561	0.621545
H	2445.88	-1.20127	1.88644
H	2445.17	-1.32651	0.241043
N	2448.2	0.433578	2.36546
C	2449.4	0.556492	3.16353
H	2447.33	0.655127	2.7917
H	2449.15	0.898593	4.19277
H	2450.1	1.29251	2.70833
H	2449.92	-0.422812	3.23616
