44
  This energy is 1.46886e-320 and Call times are: 99651
C	3.43015	0.0646775	-0.596662
C	2.18995	0.672532	-0.0640961
O	2.22305	1.70144	0.596776
H	4.30272	0.680987	-0.288998
H	3.39123	0.0252053	-1.7056
H	3.55618	-0.9627	-0.194721
N	1.05051	0.0341603	-0.340692
C	-0.236539	0.502557	0.107577
C	-1.19446	-0.67261	0.0829995
O	-0.900203	-1.71124	-0.505641
H	1.03953	-0.819009	-0.855393
H	-0.151584	0.83627	1.13397
C	-0.766896	1.63924	-0.794531
H	-0.852181	1.29364	-1.84687
H	-1.75769	2.00235	-0.452106
H	-0.0557773	2.49352	-0.768826
N	-2.36109	-0.542051	0.744769
C	-3.33002	-1.61238	0.786522
H	-2.57772	0.303812	1.22102
H	-4.22308	-1.31153	1.37744
H	-2.89014	-2.52249	1.25496
H	-3.66405	-1.88054	-0.241922
C	4718.32	2.92067	-1.77149
C	4717.93	1.59154	-1.25335
O	4716.78	1.1877	-1.35912
H	4717.44	3.41767	-2.22198
H	4719.11	2.81021	-2.54976
H	4718.71	3.55429	-0.945436
N	4718.89	0.874091	-0.666727
C	4718.66	-0.436932	-0.11436
C	4719.76	-0.718459	0.891029
O	4720.77	-0.017237	0.931643
H	4719.82	1.22623	-0.560769
H	4717.72	-0.433253	0.420229
C	4718.66	-1.51941	-1.21679
H	4719.62	-1.51995	-1.76363
H	4718.48	-2.5301	-0.794949
H	4717.85	-1.30116	-1.94747
N	4719.58	-1.74501	1.74497
C	4720.56	-2.08037	2.74427
H	4718.75	-2.29622	1.70089
H	4720.23	-2.95455	3.34689
H	4720.73	-1.22209	3.43459
H	4721.54	-2.33345	2.26543
