44
  This energy is 8.90603e-320 and Call times are: 115443
C	0.647185	1.94173	2.81726
C	1.07983	1.01143	1.75023
O	2.26013	0.728025	1.59837
H	1.53802	2.29209	3.38252
H	-0.0429174	1.42609	3.51775
H	0.134252	2.82104	2.37379
N	0.116661	0.513	0.971609
C	0.380715	-0.404316	-0.108036
C	-0.793916	-0.347769	-1.06526
O	-1.84894	0.190198	-0.734587
H	-0.838006	0.77425	1.08691
H	1.25947	-0.0713951	-0.645644
C	0.572465	-1.84612	0.413062
H	-0.330624	-2.18421	0.964643
H	0.776115	-2.55503	-0.415645
H	1.43502	-1.87389	1.11404
N	-0.629107	-0.886329	-2.28952
C	-1.68803	-0.86859	-3.27162
H	0.234628	-1.31077	-2.54061
H	-1.35937	-1.36115	-4.21323
H	-1.98598	0.17831	-3.50925
H	-2.5868	-1.40525	-2.89032
C	5469.08	-3.0326	0.325175
C	5468.61	-1.88461	-0.483064
O	5468.97	-1.74092	-1.64441
H	5469.76	-3.66142	-0.289883
H	5468.22	-3.64962	0.650775
H	5469.63	-2.6718	1.21763
N	5467.79	-1.02525	0.127109
C	5467.25	0.139312	-0.52796
C	5466.83	1.12212	0.545318
O	5466.73	0.768826	1.71919
H	5467.53	-1.13751	1.08249
H	5468.03	0.608435	-1.11215
C	5466.05	-0.226542	-1.42201
H	5465.25	-0.70819	-0.81962
H	5465.63	0.667841	-1.92804
H	5466.37	-0.947829	-2.20328
N	5466.58	2.39205	0.16776
C	5466.18	3.40008	1.122
H	5466.67	2.66003	-0.785875
H	5466.02	4.37885	0.617476
H	5466.96	3.53105	1.90531
H	5465.23	3.10922	1.62681
