44
  This energy is 1.91697e-321 and Call times are: 6999
C	-1.82698	2.73428	1.14544
C	-1.74365	1.35906	0.604094
O	-2.73912	0.653989	0.512372
H	-2.87975	2.95546	1.42582
H	-1.49746	3.46752	0.379546
H	-1.18703	2.82995	2.0478
N	-0.531463	0.940171	0.233298
C	-0.29076	-0.37205	-0.311649
C	1.18041	-0.690116	-0.12803
O	1.98186	0.19299	0.171379
H	0.276434	1.51361	0.340116
H	-0.857765	-1.09846	0.256596
C	-0.665383	-0.436613	-1.80918
H	-0.0823484	0.310344	-2.38905
H	-0.481425	-1.44568	-2.23193
H	-1.74508	-0.200581	-1.93036
N	1.56696	-1.97173	-0.28309
C	2.94503	-2.37081	-0.116208
H	0.902132	-2.67306	-0.518408
H	3.06133	-3.46379	-0.286844
H	3.29973	-2.1372	0.913769
H	3.60056	-1.8315	-0.837735
C	337.389	1.66273	3.0319
C	337.501	1.65592	1.55589
O	337.305	2.67104	0.901955
H	337.11	2.68299	3.37436
H	338.36	1.38256	3.49066
H	336.606	0.94716	3.35968
N	337.819	0.488863	0.990692
C	337.964	0.324169	-0.433534
C	337.803	-1.14978	-0.751013
O	337.84	-1.99306	0.143054
H	337.947	-0.337736	1.53212
H	337.166	0.857405	-0.933063
C	339.343	0.824805	-0.919379
H	340.16	0.27612	-0.40441
H	339.459	0.699603	-2.01561
H	339.449	1.90534	-0.679892
N	337.598	-1.49325	-2.03782
C	337.422	-2.87123	-2.43324
H	337.564	-0.795515	-2.74581
H	337.268	-2.94838	-3.5321
H	336.537	-3.31645	-1.92299
H	338.318	-3.47559	-2.16158
