44
  This energy is 1.3779e-319 and Call times are: 98139
C	2.74074	1.2257	1.76413
C	2.00087	0.998232	0.502364
O	2.38075	1.49038	-0.551191
H	3.61806	1.87814	1.56295
H	3.09883	0.259274	2.17719
H	2.08468	1.72487	2.50801
N	0.906035	0.238769	0.58557
C	0.0820658	-0.0723989	-0.555077
C	-1.28733	-0.476286	-0.0443247
O	-1.46259	-0.739376	1.14391
H	0.59067	-0.132422	1.45488
H	-0.0407069	0.82069	-1.15457
C	0.693786	-1.21518	-1.39588
H	0.818967	-2.12961	-0.777608
H	0.0619414	-1.45723	-2.27507
H	1.69705	-0.907365	-1.7631
N	-2.29989	-0.513503	-0.932776
C	-3.64061	-0.875417	-0.535728
H	-2.13934	-0.29024	-1.88861
H	-4.32973	-0.849399	-1.40847
H	-4.02568	-0.170175	0.236022
H	-3.65915	-1.90259	-0.104736
C	4645.84	-1.5909	-0.495096
C	4646.99	-1.2115	0.361299
O	4646.98	-1.44331	1.56244
H	4645.06	-2.0738	0.130482
H	4646.17	-2.30751	-1.27738
H	4645.41	-0.689192	-0.977885
N	4648.01	-0.60417	-0.248667
C	4649.19	-0.175653	0.4502
C	4649.87	0.892902	-0.388014
O	4649.54	1.07123	-1.56009
H	4647.99	-0.394764	-1.22264
H	4648.9	0.277542	1.38967
C	4650.16	-1.35465	0.688476
H	4650.46	-1.81765	-0.277326
H	4651.08	-1.02823	1.22652
H	4649.66	-2.131	1.30256
N	4650.82	1.64702	0.204327
C	4651.5	2.69606	-0.511612
H	4651.06	1.492	1.15582
H	4652.25	3.19979	0.146182
H	4650.78	3.46208	-0.875823
H	4652.04	2.28168	-1.39464
