44
  This energy is 3.20402e-320 and Call times are: 20187
C	0.7935	-3.01915	1.54313
C	0.247758	-1.64359	1.57783
O	-0.315905	-1.21165	2.57393
H	0.591902	-3.5189	2.51548
H	1.89052	-2.99134	1.37404
H	0.309444	-3.60273	0.731921
N	0.401371	-0.916523	0.46871
C	-0.0756213	0.438163	0.349831
C	-0.210141	0.756877	-1.1265
O	0.299382	0.0282857	-1.97584
H	0.836585	-1.28969	-0.34632
H	-1.06175	0.504032	0.791752
C	0.892625	1.43653	1.0228
H	1.90346	1.36581	0.567474
H	0.5283	2.48057	0.93325
H	0.983456	1.19162	2.1035
N	-0.922706	1.84852	-1.46794
C	-1.11447	2.22406	-2.84937
H	-1.33324	2.42143	-0.766173
H	-1.72591	3.15026	-2.92386
H	-1.63642	1.41367	-3.408
H	-0.13459	2.40984	-3.34586
C	965.091	0.520305	1.29366
C	963.635	0.787012	1.27386
O	963.106	1.4739	2.13689
H	965.544	1.02275	2.17557
H	965.565	0.916576	0.371149
H	965.279	-0.571613	1.36589
N	962.944	0.234486	0.273743
C	961.522	0.40322	0.119563
C	961.01	-0.728654	-0.749962
O	961.789	-1.43114	-1.39067
H	963.382	-0.347052	-0.406724
H	961.049	0.312328	1.08951
C	961.183	1.7649	-0.527448
H	961.67	1.85504	-1.52203
H	960.089	1.89816	-0.647497
H	961.565	2.58561	0.118487
N	959.68	-0.945664	-0.774717
C	959.102	-2.0081	-1.56447
H	959.066	-0.370801	-0.243682
H	957.996	-2.02299	-1.45411
H	959.5	-2.99777	-1.24249
H	959.345	-1.87274	-2.64325
