44
  This energy is 1.45769e-319 and Call times are: 98475
C	0.943523	0.400504	3.32799
C	0.488418	0.946188	2.02941
O	0.168972	2.12142	1.91417
H	0.924881	1.20754	4.09232
H	1.98068	0.01438	3.23834
H	0.270918	-0.420111	3.65531
N	0.443187	0.0872516	1.00835
C	0.0219486	0.468801	-0.315961
C	-0.40253	-0.788216	-1.0501
O	-0.12039	-1.90017	-0.607634
H	0.678178	-0.874431	1.12185
H	-0.844932	1.11258	-0.237635
C	1.15962	1.17543	-1.08635
H	2.04757	0.512416	-1.16426
H	0.838618	1.47071	-2.10643
H	1.46229	2.09389	-0.537753
N	-1.11392	-0.639275	-2.18489
C	-1.57149	-1.77905	-2.94496
H	-1.33832	0.268856	-2.52279
H	-2.13667	-1.45038	-3.84485
H	-2.23978	-2.42105	-2.32652
H	-0.70925	-2.40002	-3.2798
C	4666.2	-3.22227	0.251556
C	4665.07	-2.28511	0.0211207
O	4663.98	-2.6877	-0.348194
H	4665.86	-4.25882	0.0309308
H	4666.53	-3.1695	1.30998
H	4667.05	-2.97085	-0.415024
N	4665.33	-0.991688	0.232473
C	4664.34	0.0395597	0.0512052
C	4665.07	1.35634	-0.137472
O	4666.26	1.45687	0.127659
H	4666.23	-0.673291	0.505112
H	4663.78	-0.161911	-0.855694
C	4663.39	0.127028	1.26649
H	4663.96	0.333135	2.19523
H	4662.62	0.919994	1.13016
H	4662.86	-0.843985	1.39466
N	4664.36	2.39641	-0.623821
C	4664.97	3.68559	-0.847741
H	4663.39	2.29308	-0.839
H	4664.23	4.40929	-1.24859
H	4665.81	3.60186	-1.57852
H	4665.38	4.09585	0.1028
