44
  This energy is 1.35646e-319 and Call times are: 12039
C	0.506608	-3.31089	0.952634
C	0.0804854	-2.29017	-0.0311116
O	-0.21281	-2.6002	-1.17756
H	0.507281	-4.31103	0.467267
H	-0.195047	-3.32946	1.81296
H	1.53152	-3.08738	1.31669
N	0.0425359	-1.02808	0.402549
C	-0.352013	0.0751767	-0.436489
C	0.204465	1.34686	0.173745
O	0.641155	1.35374	1.32313
H	0.311836	-0.78459	1.33052
H	0.0997182	-0.0461942	-1.41285
C	-1.88961	0.170837	-0.5538
H	-2.34981	0.294619	0.449699
H	-2.19687	1.01919	-1.19929
H	-2.28501	-0.767135	-1.00103
N	0.221307	2.45365	-0.594845
C	0.743305	3.70734	-0.10293
H	-0.130068	2.42603	-1.5249
H	0.668171	4.49745	-0.882237
H	1.814	3.60078	0.186039
H	0.175465	4.04457	0.794295
C	580.69	1.68273	0.97148
C	579.254	1.35986	1.13481
O	578.623	1.75655	2.10472
H	581.03	2.29302	1.83628
H	580.848	2.26295	0.0380672
H	581.29	0.749433	0.932156
N	578.701	0.614773	0.175012
C	577.316	0.21912	0.19351
C	577.165	-0.993422	-0.704478
O	578.061	-1.31388	-1.48319
H	579.233	0.273345	-0.595319
H	577.049	-0.0810216	1.19889
C	576.398	1.36098	-0.297629
H	576.675	1.66686	-1.32906
H	575.33	1.05976	-0.284517
H	576.518	2.24361	0.367682
N	576.03	-1.71182	-0.599901
C	575.804	-2.88882	-1.40588
H	575.32	-1.44035	0.0413255
H	574.813	-3.33859	-1.17546
H	576.589	-3.65447	-1.21256
H	575.829	-2.63372	-2.49005
