44
  This energy is 8.04141e-320 and Call times are: 108597
C	1.797	-2.54044	-1.56305
C	0.528495	-1.84076	-1.25881
O	-0.514064	-2.14873	-1.81981
H	1.61148	-3.31779	-2.33581
H	2.19267	-3.03015	-0.648472
H	2.54801	-1.82028	-1.95073
N	0.593236	-0.863149	-0.351919
C	-0.556074	-0.0918445	0.0493331
C	-0.0580005	1.20781	0.651051
O	1.12433	1.34539	0.959252
H	1.45414	-0.60225	0.0767061
H	-1.13872	0.154447	-0.829265
C	-1.41653	-0.858401	1.07847
H	-0.815502	-1.11005	1.97822
H	-2.30242	-0.267426	1.38948
H	-1.77423	-1.8089	0.625971
N	-0.950561	2.20444	0.812462
C	-0.565264	3.48151	1.36639
H	-1.90135	2.07603	0.550286
H	-1.43977	4.16678	1.42018
H	0.218536	3.96225	0.737279
H	-0.154158	3.3562	2.39424
C	5140.61	-0.623518	0.946923
C	5141.71	0.302678	0.602696
O	5141.51	1.50293	0.474978
H	5139.66	-0.0480937	1.04523
H	5140.82	-1.131	1.91108
H	5140.48	-1.38494	0.148265
N	5142.92	-0.246068	0.436821
C	5144.09	0.524963	0.100424
C	5145.11	-0.417875	-0.507021
O	5144.97	-1.63628	-0.41084
H	5143.06	-1.22903	0.514981
H	5143.82	1.25436	-0.654676
C	5144.68	1.21905	1.34658
H	5144.95	0.467916	2.11944
H	5145.58	1.81373	1.09111
H	5143.92	1.90598	1.78286
N	5146.14	0.127976	-1.16943
C	5147.16	-0.691215	-1.79062
H	5146.23	1.11605	-1.24237
H	5147.93	-0.0574344	-2.28362
H	5146.71	-1.35804	-2.56094
H	5147.67	-1.33203	-1.03279
