44
  This energy is 1.11432e-319 and Call times are: 90453
C	0.53224	2.00164	-2.79934
C	-0.281344	1.03871	-2.02342
O	-1.41138	0.734183	-2.37949
H	-0.0523956	2.35278	-3.67727
H	1.46261	1.51389	-3.15896
H	0.794245	2.8771	-2.16856
N	0.284217	0.535303	-0.923837
C	-0.38152	-0.412471	-0.0663128
C	0.289224	-0.362464	1.29267
O	1.37331	0.199126	1.43831
H	1.19434	0.813435	-0.628463
H	-1.4117	-0.106097	0.0638499
C	-0.305756	-1.8435	-0.643827
H	0.752471	-2.15434	-0.776695
H	-0.817525	-2.5758	0.0139047
H	-0.799426	-1.86652	-1.63977
N	-0.355147	-0.933781	2.3292
C	0.200943	-0.924898	3.66219
H	-1.23492	-1.37708	2.19237
H	-0.476493	-1.4456	4.37436
H	0.34865	0.120038	4.01931
H	1.18942	-1.43853	3.67915
C	4285.74	2.62177	-1.85781
C	4285.49	1.93294	-0.571963
O	4286.01	2.32014	0.465417
H	4286.44	3.47161	-1.68904
H	4284.79	3.01426	-2.27418
H	4286.2	1.91946	-2.58488
N	4284.68	0.874836	-0.615231
C	4284.34	0.102469	0.552817
C	4283.86	-1.26033	0.0879447
O	4283.58	-1.45866	-1.09219
H	4284.28	0.551717	-1.47141
H	4285.23	-0.0457849	1.14881
C	4283.23	0.795194	1.38319
H	4282.32	0.946329	0.768524
H	4282.97	0.203225	2.28341
H	4283.59	1.79283	1.71671
N	4283.78	-2.24218	1.00762
C	4283.35	-3.57496	0.655179
H	4284.02	-2.06369	1.95624
H	4283.35	-4.23751	1.54864
H	4284.03	-4.01774	-0.10977
H	4282.32	-3.55602	0.233038
