44
  This energy is 5.30478e-320 and Call times are: 100995
C	2.79512	1.81743	-1.00516
C	2.03741	1.04938	0.00832935
O	2.54038	0.752424	1.08319
H	3.81386	2.03358	-0.616166
H	2.2813	2.77795	-1.22017
H	2.88567	1.22911	-1.94251
N	0.791479	0.700871	-0.321159
C	-0.069667	-0.047303	0.559461
C	-1.14799	-0.697725	-0.28517
O	-1.33221	-0.346425	-1.44899
H	0.403166	0.923612	-1.2114
H	0.504797	-0.83787	1.02537
C	-0.710631	0.865442	1.62866
H	-1.29865	1.67573	1.14721
H	-1.37421	0.292535	2.30852
H	0.0896592	1.33676	2.23984
N	-1.87483	-1.68241	0.278842
C	-2.91507	-2.36752	-0.452391
H	-1.70576	-1.95721	1.21966
H	-3.398	-3.14194	0.18345
H	-2.49641	-2.86707	-1.35595
H	-3.69867	-1.6496	-0.78668
C	4783.47	-2.80981	2.00299
C	4782.88	-1.47335	1.75155
O	4782.06	-0.987623	2.51778
H	4783.04	-3.22977	2.93733
H	4784.57	-2.72968	2.12044
H	4783.24	-3.49424	1.16017
N	4783.3	-0.843002	0.649669
C	4782.82	0.462878	0.270626
C	4783.07	0.635839	-1.21547
O	4783.81	-0.134614	-1.82361
H	4783.94	-1.26167	0.018098
H	4781.75	0.50776	0.434002
C	4783.54	1.57687	1.06202
H	4784.64	1.52747	0.892654
H	4783.18	2.58369	0.772737
H	4783.35	1.43825	2.14912
N	4782.43	1.64527	-1.84145
C	4782.59	1.87987	-3.2571
H	4781.83	2.25359	-1.33323
H	4781.99	2.75564	-3.58328
H	4782.27	0.990848	-3.84333
H	4783.66	2.07969	-3.50086
