44
  This energy is 1.59376e-319 and Call times are: 18969
C	-0.786962	-2.17007	2.60723
C	-0.644147	-1.86503	1.16578
O	-0.764828	-2.73974	0.31914
H	-0.997907	-3.25417	2.73408
H	-1.62717	-1.58744	3.04015
H	0.151432	-1.92105	3.14607
N	-0.373476	-0.595866	0.85221
C	-0.206715	-0.144874	-0.506328
C	0.577683	1.15239	-0.473621
O	0.73415	1.76595	0.580369
H	-0.248699	0.101754	1.55271
H	0.383514	-0.872569	-1.0487
C	-1.57094	0.0764431	-1.197
H	-2.1741	0.823027	-0.63761
H	-1.44621	0.423594	-2.24329
H	-2.13622	-0.880806	-1.21349
N	1.11021	1.59023	-1.63151
C	1.8827	2.80902	-1.69478
H	0.978448	1.0758	-2.47248
H	2.23233	2.99952	-2.7334
H	2.77511	2.74344	-1.03105
H	1.27074	3.6798	-1.36548
C	906.155	-3.14597	-0.627551
C	905.514	-1.89064	-1.08056
O	905.379	-1.64331	-2.27095
H	906.458	-3.7441	-1.51408
H	905.442	-3.7414	-0.0194134
H	907.057	-2.91849	-0.0214077
N	905.105	-1.05479	-0.123387
C	904.464	0.204604	-0.406888
C	904.613	1.08879	0.815919
O	904.97	0.616311	1.89357
H	905.247	-1.25437	0.842483
H	904.983	0.686382	-1.22629
C	902.969	0.0117121	-0.744002
H	902.44	-0.483383	0.0984668
H	902.473	0.979451	-0.962972
H	902.873	-0.638631	-1.6407
N	904.363	2.4048	0.670013
C	904.49	3.32536	1.77573
H	904.082	2.76902	-0.211926
H	904.239	4.3609	1.45606
H	905.531	3.32289	2.17125
H	903.804	3.03925	2.60616
