44
  This energy is 6.8685e-320 and Call times are: 21573
C	-0.8326	-2.83928	1.83614
C	-1.06027	-1.43048	1.44286
O	-2.05339	-0.821932	1.81687
H	-1.67711	-3.18432	2.47145
H	0.111276	-2.92734	2.41421
H	-0.774718	-3.48405	0.934
N	-0.131117	-0.875445	0.661216
C	-0.212516	0.486196	0.196311
C	0.66861	0.612858	-1.03121
O	1.48273	-0.264168	-1.31381
H	0.658758	-1.39067	0.33938
H	-1.2308	0.694218	-0.106831
C	0.24749	1.48087	1.28541
H	1.29228	1.26416	1.59453
H	0.185939	2.53028	0.93081
H	-0.405067	1.37734	2.17961
N	0.509489	1.70466	-1.80493
C	1.29569	1.90509	-2.99988
H	-0.15965	2.3997	-1.56326
H	1.01919	2.86106	-3.49678
H	1.13048	1.0737	-3.7229
H	2.38193	1.93865	-2.75468
C	1028.75	0.550928	3.33216
C	1028.8	0.914721	1.89828
O	1029.32	1.96177	1.52996
H	1029.22	1.35721	3.93342
H	1029.3	-0.397722	3.50678
H	1027.69	0.431804	3.65814
N	1028.26	0.0447486	1.04517
C	1028.23	0.25847	-0.379785
C	1027.13	-0.604753	-0.960844
O	1026.61	-1.49982	-0.293573
H	1027.81	-0.791023	1.36012
H	1027.98	1.29249	-0.576039
C	1029.59	-0.104109	-1.02713
H	1029.84	-1.16537	-0.823256
H	1029.57	0.059422	-2.12429
H	1030.39	0.534261	-0.592194
N	1026.72	-0.339502	-2.21869
C	1025.67	-1.10113	-2.85069
H	1027.15	0.393651	-2.7398
H	1025.48	-0.732563	-3.88351
H	1024.72	-1.01654	-2.27204
H	1025.95	-2.17927	-2.9073
