44
  This energy is 1.38205e-319 and Call times are: 104439
C	-1.75639	2.41301	1.79405
C	-1.35572	1.77284	0.520922
O	-1.86943	2.09913	-0.540273
H	-2.54687	3.16826	1.59255
H	-0.884578	2.92038	2.25811
H	-2.15726	1.65165	2.49588
N	-0.417056	0.826995	0.602451
C	0.0765369	0.114344	-0.548776
C	0.699026	-1.1804	-0.063615
O	0.946238	-1.35093	1.12871
H	-0.0271504	0.549724	1.47654
H	-0.75833	-0.141618	-1.18874
C	1.1217	0.949391	-1.32172
H	1.97645	1.21079	-0.662031
H	1.50374	0.403683	-2.20887
H	0.653671	1.8956	-1.6707
N	0.947714	-2.13639	-0.980263
C	1.52791	-3.40608	-0.609541
H	0.733935	-1.98202	-1.93927
H	1.6563	-4.0557	-1.50327
H	0.875175	-3.93834	0.119758
H	2.52583	-3.2591	-0.136537
C	4948.88	-0.181875	-2.92438
C	4947.6	-0.00453542	-2.21298
O	4946.58	0.31802	-2.81344
H	4948.74	0.0278777	-4.00619
H	4949.24	-1.22496	-2.80644
H	4949.64	0.520408	-2.52201
N	4947.61	-0.209595	-0.893905
C	4946.44	-0.0759478	-0.0652989
C	4946.9	0.139291	1.36292
O	4948.07	-0.0735311	1.68506
H	4948.45	-0.443591	-0.411978
H	4945.9	0.806495	-0.370404
C	4945.55	-1.33204	-0.150581
H	4946.11	-2.23554	0.162473
H	4944.64	-1.23244	0.486133
H	4945.22	-1.47935	-1.20186
N	4946	0.590171	2.25178
C	4946.35	0.835632	3.63115
H	4945.06	0.763222	1.96998
H	4945.47	1.20066	4.20242
H	4947.15	1.60271	3.70114
H	4946.72	-0.097557	4.11477
