44
  This energy is 6.01426e-320 and Call times are: 88395
C	-1.60474	-2.52644	-1.7799
C	-0.443285	-1.99947	-1.02855
O	0.500682	-2.72043	-0.73591
H	-1.44734	-3.60688	-1.98904
H	-1.71401	-1.98607	-2.74369
H	-2.53313	-2.40752	-1.18249
N	-0.492079	-0.709006	-0.689907
C	0.561777	-0.0525032	0.0416804
C	-0.022919	1.18809	0.688438
O	-1.12318	1.61662	0.345495
H	-1.27977	-0.139292	-0.908786
H	0.901076	-0.707673	0.833957
C	1.73429	0.334859	-0.886906
H	1.38254	1.00646	-1.6989
H	2.54758	0.840445	-0.326791
H	2.15305	-0.58238	-1.35537
N	0.695356	1.78379	1.66066
C	0.213521	2.96298	2.3415
H	1.58034	1.41763	1.92891
H	0.946974	3.30333	3.10534
H	-0.753706	2.75353	2.85321
H	0.048684	3.79448	1.61858
C	4183.5	-1.93286	0.0449635
C	4184.88	-1.66249	-0.425509
O	4185.49	-2.47751	-1.10625
H	4183.18	-2.93523	-0.313431
H	4182.81	-1.16798	-0.355505
H	4183.47	-1.91987	1.15472
N	4185.41	-0.493722	-0.0610147
C	4186.74	-0.0879306	-0.441322
C	4187.2	0.982594	0.530769
O	4186.4	1.53428	1.28076
H	4184.92	0.149279	0.518069
H	4187.41	-0.932894	-0.337906
C	4186.77	0.458857	-1.88606
H	4186.08	1.32516	-1.98875
H	4187.79	0.772092	-2.18219
H	4186.43	-0.334378	-2.5882
N	4188.51	1.28653	0.554887
C	4189.04	2.28432	1.45581
H	4189.15	0.823857	-0.0548753
H	4190.14	2.3914	1.32327
H	4188.84	2.00224	2.515
H	4188.57	3.27466	1.26711
