44
  This energy is 2.57952e-320 and Call times are: 119055
C	3.12026	-0.962695	1.20967
C	2.2635	-0.131987	0.333834
O	2.73287	0.787922	-0.321876
H	4.16891	-0.598494	1.15004
H	3.08888	-2.02291	0.881374
H	2.77444	-0.891653	2.26243
N	0.964887	-0.440774	0.309053
C	0.00636224	0.275381	-0.494178
C	-1.36985	0.0296469	0.0931009
O	-1.55085	-0.863988	0.918017
H	0.589852	-1.17392	0.870105
H	0.209938	1.33627	-0.422517
C	0.0465244	-0.190551	-1.96673
H	-0.162078	-1.27946	-2.0365
H	-0.6902	0.358961	-2.58806
H	1.06006	-0.00625326	-2.38496
N	-2.3727	0.836888	-0.305215
C	-3.71398	0.685667	0.208853
H	-2.20456	1.55891	-0.968277
H	-4.39498	1.44154	-0.240752
H	-3.72767	0.815708	1.31526
H	-4.11241	-0.328214	-0.0245624
C	5637.3	-1.61899	3.08154
C	5637.31	-0.390543	2.25572
O	5637.26	0.718072	2.77026
H	5637.23	-1.33906	4.15533
H	5638.23	-2.19844	2.91879
H	5636.42	-2.24842	2.81888
N	5637.37	-0.565327	0.933713
C	5637.39	0.532395	0.00020623
C	5636.95	0.00412411	-1.34977
O	5636.89	-1.20534	-1.56371
H	5637.38	-1.47419	0.525359
H	5636.67	1.27604	0.316043
C	5638.8	1.15132	-0.110135
H	5639.54	0.385525	-0.433704
H	5638.82	1.99694	-0.828002
H	5639.12	1.53346	0.885417
N	5636.6	0.904876	-2.28976
C	5636.15	0.494776	-3.60048
H	5636.65	1.87912	-2.09495
H	5635.91	1.38057	-4.22993
H	5635.24	-0.136138	-3.52378
H	5636.94	-0.100805	-4.11608
