44
  This energy is 3.82209e-320 and Call times are: 93981
C	-2.69958	-2.18553	-0.24876
C	-1.843	-1.25761	0.523535
O	-2.13675	-0.926545	1.66398
H	-3.57673	-2.47614	0.369318
H	-2.1293	-3.10003	-0.515757
H	-3.06065	-1.69172	-1.17543
N	-0.749282	-0.806444	-0.0950121
C	0.181511	0.101654	0.526125
C	0.965245	0.790332	-0.574202
O	0.937773	0.363685	-1.72705
H	-0.536243	-1.06068	-1.03465
H	-0.372824	0.862517	1.0608
C	1.14417	-0.643276	1.47769
H	1.71074	-1.42353	0.92604
H	1.86215	0.0530071	1.95778
H	0.557756	-1.14442	2.27839
N	1.66891	1.89152	-0.245203
C	2.43575	2.62006	-1.22875
H	1.67273	2.22515	0.691767
H	2.9444	3.49285	-0.763157
H	1.77494	2.99356	-2.04426
H	3.21197	1.96476	-1.68618
C	4452.65	-0.682144	2.93319
C	4451.4	-0.370934	2.20626
O	4450.31	-0.391737	2.77415
H	4452.41	-0.919947	3.99231
H	4453.33	0.191437	2.9073
H	4453.15	-1.55895	2.47285
N	4451.52	-0.0763975	0.910091
C	4450.4	0.248115	0.0704544
C	4450.81	0.0111393	-1.37008
O	4451.99	-0.143604	-1.66993
H	4452.41	-0.0912696	0.452191
H	4449.58	-0.428636	0.296382
C	4449.96	1.7165	0.262829
H	4450.79	2.40799	0.0308536
H	4449.09	1.9697	-0.382098
H	4449.66	1.87743	1.32223
N	4449.83	-0.0445501	-2.29678
C	4450.12	-0.277862	-3.69151
H	4448.88	0.0759944	-2.03316
H	4449.19	-0.286845	-4.29432
H	4450.64	-1.25743	-3.82628
H	4450.79	0.519585	-4.09125
