44
  This energy is 1.58951e-319 and Call times are: 67143
C	1.19638	-0.0175828	3.27025
C	1.39129	-0.181694	1.81207
O	2.50672	-0.346634	1.33761
H	2.18299	-0.0652366	3.78034
H	0.548983	-0.829432	3.66344
H	0.727566	0.965673	3.48558
N	0.290975	-0.133181	1.05754
C	0.319374	-0.276805	-0.376121
C	-0.953385	0.332883	-0.93074
O	-1.89596	0.603341	-0.188955
H	-0.60878	0.030835	1.45311
H	1.15401	0.289178	-0.769976
C	0.421723	-1.76163	-0.790765
H	-0.43571	-2.33944	-0.384481
H	0.443971	-1.87583	-1.89405
H	1.35755	-2.19693	-0.377368
N	-1.00105	0.584473	-2.25378
C	-2.16688	1.17462	-2.8692
H	-0.225235	0.365023	-2.83617
H	-2.01263	1.30057	-3.96355
H	-2.38014	2.17512	-2.42788
H	-3.06234	0.530441	-2.7131
C	3181.95	-1.79154	-0.881937
C	3183.13	-0.979998	-1.23217
O	3183.47	-0.814533	-2.398
H	3181.48	-2.18008	-1.81299
H	3181.2	-1.16886	-0.34025
H	3182.24	-2.6501	-0.243825
N	3183.81	-0.452682	-0.211396
C	3184.99	0.360163	-0.392453
C	3185.77	0.342588	0.906006
O	3185.26	-0.0745946	1.94314
H	3183.55	-0.618856	0.735154
H	3185.61	-0.0865421	-1.15769
C	3184.62	1.81172	-0.768965
H	3183.98	2.26671	0.0179081
H	3185.52	2.44032	-0.909275
H	3184.04	1.81082	-1.72109
N	3187.05	0.777948	0.873176
C	3187.87	0.786856	2.05789
H	3187.45	1.10497	0.0225907
H	3188.89	1.18148	1.82719
H	3187.98	-0.243159	2.4681
H	3187.42	1.42693	2.84878
