44
  This energy is 1.24178e-319 and Call times are: 29469
C	2.48064	-1.0433	-2.21
C	2.04377	-0.526046	-0.893639
O	2.83222	-0.412689	0.0347938
H	3.56475	-1.28577	-2.16794
H	2.31397	-0.277443	-2.99645
H	1.91598	-1.96449	-2.46596
N	0.753555	-0.201437	-0.782548
C	0.179514	0.315244	0.434147
C	-1.3173	0.0788907	0.380158
O	-1.8668	-0.232968	-0.674655
H	0.115109	-0.325775	-1.53744
H	0.570962	-0.245241	1.27361
C	0.473678	1.82304	0.598886
H	0.0713221	2.39492	-0.264347
H	0.0332236	2.22409	1.5348
H	1.57331	1.98297	0.635894
N	-2.01135	0.201649	1.52873
C	-3.43841	-0.0161796	1.57624
H	-1.54741	0.44778	2.37337
H	-3.82495	0.133844	2.60839
H	-3.68838	-1.05349	1.2557
H	-3.9669	0.69174	0.897473
C	1402.18	1.38201	3.08807
C	1402.35	1.48308	1.62153
O	1402.01	2.48634	1.01149
H	1401.71	2.31635	3.46771
H	1403.16	1.2471	3.58177
H	1401.52	0.523463	3.33724
N	1402.89	0.4245	1.01421
C	1403.12	0.373094	-0.407077
C	1403.24	-1.08479	-0.808111
O	1403.38	-1.96098	0.0419824
H	1403.14	-0.39833	1.51824
H	1402.26	0.789095	-0.91939
C	1404.41	1.13275	-0.793954
H	1405.29	0.703805	-0.266081
H	1404.59	1.09529	-1.88767
H	1404.32	2.19902	-0.493859
N	1403.15	-1.38092	-2.11987
C	1403.24	-2.74239	-2.59447
H	1403.02	-0.658414	-2.79173
H	1403.14	-2.77912	-3.70239
H	1402.42	-3.36363	-2.15466
H	1404.21	-3.19795	-2.30804
