44
  This energy is 1.89869e-320 and Call times are: 67983
C	-1.28229	0.729058	3.15441
C	-1.04354	-0.203881	2.03021
O	-1.32047	-1.39172	2.12426
H	-1.71511	0.168474	4.01131
H	-1.9951	1.52321	2.84773
H	-0.326578	1.19443	3.47532
N	-0.509487	0.322765	0.925769
C	-0.219329	-0.457294	-0.250728
C	0.814354	0.295495	-1.06562
O	1.06729	1.47451	-0.825269
H	-0.261352	1.28633	0.871864
H	0.221814	-1.39871	0.0512633
C	-1.49092	-0.695622	-1.09533
H	-1.94126	0.27223	-1.40287
H	-1.27112	-1.29608	-2.00193
H	-2.24064	-1.24675	-0.486789
N	1.45457	-0.37971	-2.04041
C	2.46285	0.251232	-2.85984
H	1.24086	-1.33531	-2.21474
H	2.87021	-0.467207	-3.60493
H	3.30566	0.61996	-2.23138
H	2.03528	1.12122	-3.40892
C	3225.79	-0.387851	-3.1711
C	3225.39	-0.922375	-1.84722
O	3225.47	-2.11825	-1.6007
H	3226.12	-1.22554	-3.82163
H	3226.62	0.335133	-3.06027
H	3224.92	0.117541	-3.65049
N	3224.96	-0.0321002	-0.954223
C	3224.54	-0.399059	0.375824
C	3223.65	0.705477	0.905857
O	3223.59	1.79661	0.341512
H	3224.87	0.935559	-1.17679
H	3223.95	-1.30384	0.322206
C	3225.75	-0.595067	1.31105
H	3226.36	0.334825	1.3632
H	3225.44	-0.87784	2.33596
H	3226.4	-1.40589	0.911191
N	3222.9	0.438186	1.99735
C	3222.01	1.42446	2.56616
H	3222.95	-0.453245	2.43547
H	3221.49	1.01529	3.45943
H	3221.24	1.73506	1.82281
H	3222.58	2.33212	2.87608
