44
  This energy is 1.46011e-319 and Call times are: 54123
C	-2.88054	1.83241	0.686194
C	-1.44184	1.54618	0.884722
O	-0.737021	2.28492	1.5585
H	-3.14581	2.76986	1.22163
H	-3.49539	1.00115	1.0909
H	-3.09963	1.96156	-0.394671
N	-0.96704	0.451118	0.286582
C	0.41079	0.0408084	0.386877
C	0.70855	-0.880871	-0.779779
O	-0.203215	-1.35571	-1.45435
H	-1.54486	-0.126753	-0.283612
H	1.04552	0.912246	0.287951
C	0.685336	-0.686532	1.72206
H	0.0320204	-1.57961	1.82056
H	1.74538	-1.00371	1.80264
H	0.462303	-0.00122769	2.56868
N	2.00154	-1.13859	-1.05861
C	2.3813	-1.99514	-2.15784
H	2.72511	-0.739074	-0.505376
H	3.48813	-2.08453	-2.22251
H	2.00578	-1.58513	-3.1233
H	1.95411	-3.01567	-2.02667
C	2563.98	-0.422369	0.534279
C	2565.16	0.42399	0.222813
O	2565.03	1.59392	-0.108632
H	2563.06	0.175709	0.406367
H	2564.04	-0.781068	1.58365
H	2563.95	-1.29406	-0.152572
N	2566.35	-0.161932	0.318855
C	2567.59	0.531219	0.0479475
C	2568.65	-0.508286	-0.256908
O	2568.46	-1.69584	-0.00263018
H	2566.45	-1.12378	0.56159
H	2567.46	1.1417	-0.83717
C	2568.02	1.39699	1.25149
H	2568.15	0.767637	2.15794
H	2568.97	1.93223	1.04623
H	2567.24	2.15362	1.46537
N	2569.79	-0.0850899	-0.832706
C	2570.85	-1.00438	-1.17014
H	2569.93	0.879065	-1.03716
H	2571.71	-0.464491	-1.63278
H	2570.49	-1.77328	-1.89131
H	2571.22	-1.5306	-0.259884
