44
  This energy is 1.20009e-319 and Call times are: 97425
C	-3.07033	1.6321	0.188287
C	-2.24997	0.400036	0.172961
O	-2.74833	-0.694548	0.396613
H	-4.12328	1.36927	0.429308
H	-3.0414	2.12338	-0.807015
H	-2.69016	2.33565	0.958629
N	-0.950467	0.556116	-0.0902799
C	-0.0250594	-0.547484	-0.140428
C	1.37191	0.00632282	0.0620864
O	1.58751	1.21398	-0.021077
H	-0.551044	1.45632	-0.242061
H	-0.234644	-1.22005	0.681641
C	-0.110591	-1.29235	-1.49135
H	0.104305	-0.59926	-2.33252
H	0.600554	-2.14281	-1.53329
H	-1.13897	-1.69215	-1.62825
N	2.3544	-0.867947	0.355984
C	3.71326	-0.431228	0.577226
H	2.15844	-1.84054	0.425916
H	4.37278	-1.29772	0.80409
H	3.76281	0.280439	1.43298
H	4.1118	0.0859822	-0.325458
C	4616.96	1.40513	2.4327
C	4616.54	1.23532	1.02378
O	4617.01	1.9241	0.133192
H	4617.72	2.21472	2.49405
H	4617.4	0.463295	2.81449
H	4616.09	1.68171	3.0622
N	4615.61	0.301652	0.789781
C	4615.1	0.0195016	-0.528285
C	4613.76	-0.671234	-0.371248
O	4613.41	-1.1212	0.71768
H	4615.21	-0.232926	1.52771
H	4614.93	0.954264	-1.0472
C	4616.07	-0.879548	-1.32627
H	4616.25	-1.83735	-0.790736
H	4615.68	-1.09864	-2.34171
H	4617.05	-0.362817	-1.43334
N	4612.97	-0.75177	-1.458
C	4611.67	-1.38108	-1.40088
H	4613.27	-0.375229	-2.32851
H	4611.17	-1.34871	-2.39559
H	4611.01	-0.862432	-0.664588
H	4611.76	-2.44681	-1.0898
