44
  This energy is 1.52148e-319 and Call times are: 92091
C	-0.816718	3.16254	-1.20725
C	-0.842428	2.126	-0.150779
O	-1.2852	2.36922	0.963354
H	-1.23691	4.10918	-0.803315
H	-1.42886	2.83926	-2.07536
H	0.227076	3.34532	-1.53896
N	-0.354013	0.928669	-0.482754
C	-0.311488	-0.180391	0.436488
C	0.732841	-1.15974	-0.0629938
O	1.18596	-1.0687	-1.20239
H	0.030608	0.751428	-1.38475
H	0.0107996	0.178194	1.40583
C	-1.68642	-0.877332	0.541079
H	-2.01431	-1.24336	-0.455228
H	-1.65728	-1.73168	1.24819
H	-2.4428	-0.149131	0.906822
N	1.15659	-2.11159	0.791656
C	2.15695	-3.08031	0.408221
H	0.782941	-2.16432	1.7119
H	2.36952	-3.77916	1.24708
H	3.10753	-2.5726	0.125599
H	1.81109	-3.6773	-0.466517
C	4362.28	3.39327	0.773309
C	4361.93	1.98237	1.04942
O	4361.36	1.66385	2.08304
H	4361.95	4.0274	1.62533
H	4361.77	3.74101	-0.150361
H	4363.38	3.4964	0.651016
N	4362.27	1.09152	0.116765
C	4362	-0.317491	0.241928
C	4362.95	-1.06102	-0.679667
O	4363.58	-0.460937	-1.54328
H	4362.77	1.3596	-0.707696
H	4362.21	-0.629373	1.25605
C	4360.53	-0.639489	-0.129515
H	4360.32	-0.317618	-1.17026
H	4360.32	-1.72356	-0.0340902
H	4359.85	-0.0879082	0.551988
N	4363.08	-2.39032	-0.501244
C	4363.96	-3.17937	-1.32345
H	4362.56	-2.85651	0.207766
H	4363.93	-4.24988	-1.02327
H	4365.01	-2.82052	-1.22458
H	4363.67	-3.10679	-2.39666
