44
  This energy is 8.51572e-320 and Call times are: 28041
C	-1.22379	1.86135	2.67653
C	-1.27923	0.691356	1.77141
O	-2.06291	-0.226456	1.97133
H	-1.96699	1.72981	3.49275
H	-1.46501	2.7896	2.11708
H	-0.211388	1.95202	3.12347
N	-0.429153	0.697189	0.741996
C	-0.364534	-0.369934	-0.224389
C	0.991442	-0.305233	-0.899949
O	1.7066	0.687774	-0.780291
H	0.224505	1.43698	0.606449
H	-0.428943	-1.3183	0.293815
C	-1.48886	-0.2447	-1.27668
H	-1.42019	0.729625	-1.80592
H	-1.44215	-1.06489	-2.02225
H	-2.47688	-0.292343	-0.769041
N	1.38694	-1.37882	-1.61198
C	2.66703	-1.4126	-2.28012
H	0.796925	-2.17561	-1.691
H	2.80702	-2.37879	-2.81317
H	3.49663	-1.29394	-1.546
H	2.74388	-0.587127	-3.02434
C	1333.9	1.99482	2.63492
C	1334.1	0.673931	1.99549
O	1333.86	-0.362645	2.6015
H	1333.54	1.8493	3.67685
H	1333.15	2.58449	2.07357
H	1334.86	2.55248	2.66029
N	1334.54	0.683999	0.736911
C	1334.78	-0.520478	-0.0179709
C	1335.73	-0.182888	-1.14598
O	1335.97	0.987163	-1.44433
H	1334.76	1.53434	0.26387
H	1335.27	-1.24563	0.62069
C	1333.46	-1.09404	-0.58989
H	1332.96	-0.347278	-1.24406
H	1333.64	-2.02161	-1.17159
H	1332.77	-1.33614	0.246235
N	1336.33	-1.20694	-1.78782
C	1337.26	-0.981684	-2.86669
H	1336.14	-2.14661	-1.52687
H	1337.64	-1.94779	-3.26605
H	1338.13	-0.38151	-2.51451
H	1336.78	-0.425784	-3.6995
