44
  This energy is 1.00414e-319 and Call times are: 10695
C	0.16927	-2.41511	2.50294
C	0.510825	-1.08359	1.95377
O	1.09675	-0.250972	2.63195
H	0.519523	-2.47891	3.55609
H	0.665563	-3.21216	1.91029
H	-0.93027	-2.56817	2.47997
N	0.139783	-0.849198	0.692911
C	0.401528	0.398067	0.020121
C	-0.569856	0.515383	-1.13828
O	-1.21519	-0.459636	-1.51869
H	-0.362775	-1.52505	0.160373
H	0.200486	1.2146	0.701974
C	1.85585	0.463664	-0.497343
H	2.05885	-0.375815	-1.19604
H	2.06084	1.42282	-1.01579
H	2.55751	0.375446	0.360581
N	-0.712434	1.72523	-1.71443
C	-1.62291	1.93506	-2.81587
H	-0.186528	2.50356	-1.38754
H	-1.596	2.99508	-3.15185
H	-2.66702	1.68923	-2.51481
H	-1.35087	1.28633	-3.67977
C	512.427	-2.91419	1.32235
C	512.35	-1.47392	0.98927
O	511.308	-0.847946	1.1246
H	511.433	-3.26255	1.67694
H	513.174	-3.08169	2.12643
H	512.714	-3.50023	0.423852
N	513.471	-0.910343	0.533021
C	513.554	0.481166	0.16733
C	514.74	0.649128	-0.762036
O	515.579	-0.242568	-0.878407
H	514.306	-1.43772	0.399653
H	512.663	0.753469	-0.384087
C	513.723	1.38083	1.41203
H	514.637	1.0983	1.97572
H	513.786	2.45296	1.13407
H	512.848	1.24772	2.08529
N	514.826	1.79537	-1.46545
C	515.914	2.03892	-2.38375
H	514.133	2.50194	-1.36272
H	515.807	3.03677	-2.86359
H	515.932	1.26496	-3.18493
H	516.892	2.00825	-1.85131
