44
  This energy is 1.2074e-319 and Call times are: 17499
C	1.34845	-3.02524	-1.07507
C	0.265902	-2.01578	-1.05746
O	-0.698754	-2.1097	-1.80386
H	1.11719	-3.79848	-1.83957
H	1.43095	-3.51508	-0.0820576
H	2.31603	-2.54455	-1.33131
N	0.408677	-1.00817	-0.193345
C	-0.560384	0.0500641	-0.0595832
C	0.131941	1.23763	0.580418
O	1.2326	1.11119	1.1137
H	1.21331	-0.927242	0.388854
H	-0.888927	0.353015	-1.04566
C	-1.76195	-0.393459	0.804499
H	-1.42123	-0.704206	1.81517
H	-2.51013	0.418949	0.909418
H	-2.25976	-1.26465	0.325574
N	-0.491851	2.43074	0.522308
C	0.0964735	3.61963	1.09379
H	-1.37884	2.51401	0.0800942
H	-0.569489	4.49815	0.945628
H	1.07884	3.84012	0.616739
H	0.26539	3.48803	2.1871
C	832.914	-0.916006	-2.78051
C	834.212	-0.712251	-2.09733
O	835.262	-1.06026	-2.61822
H	833.089	-1.40857	-3.76165
H	832.415	0.0606832	-2.95272
H	832.255	-1.56427	-2.16536
N	834.164	-0.139026	-0.892552
C	835.342	0.12523	-0.105345
C	834.912	0.274018	1.34108
O	833.726	0.417908	1.6327
H	833.299	0.11346	-0.466415
H	836.004	-0.729067	-0.165384
C	836.06	1.40796	-0.580714
H	835.377	2.28226	-0.518433
H	836.967	1.61431	0.0231956
H	836.369	1.28669	-1.64186
N	835.87	0.220543	2.28685
C	835.554	0.340848	3.69099
H	836.823	0.096355	2.03115
H	836.476	0.273785	4.30909
H	834.859	-0.470712	4.0082
H	835.061	1.31797	3.90063
