44
  This energy is 1.55507e-319 and Call times are: 12795
C	1.30162	-2.80921	1.59381
C	0.387857	-1.64557	1.54725
O	-0.464368	-1.47568	2.40826
H	1.06126	-3.42953	2.48448
H	2.35485	-2.46581	1.6687
H	1.17924	-3.4289	0.680599
N	0.545364	-0.808674	0.519064
C	-0.267164	0.367551	0.337071
C	-0.1882	0.766931	-1.12358
O	0.669191	0.28511	-1.86152
H	1.22402	-0.973729	-0.191654
H	-1.29832	0.120079	0.555136
C	0.217057	1.52978	1.23255
H	1.27544	1.78059	1.00666
H	-0.406487	2.437	1.09503
H	0.15544	1.22421	2.29978
N	-1.10092	1.64633	-1.58139
C	-1.11098	2.07594	-2.96035
H	-1.79118	2.01947	-0.9702
H	-1.93505	2.80104	-3.14033
H	-1.25434	1.20624	-3.64176
H	-0.147108	2.56744	-3.22596
C	615.122	-3.15907	-0.631323
C	614.859	-2.01462	0.269824
O	615.118	-2.07684	1.4637
H	615.554	-3.99781	-0.0432218
H	615.844	-2.86524	-1.42186
H	614.177	-3.50035	-1.10313
N	614.323	-0.928547	-0.292008
C	614.01	0.263947	0.454249
C	612.981	1.05028	-0.334087
O	612.748	0.778665	-1.51053
H	614.089	-0.900671	-1.26028
H	613.557	-0.0190027	1.39601
C	615.27	1.12616	0.69098
H	615.732	1.41409	-0.277204
H	615.033	2.0451	1.26545
H	616.017	0.538462	1.26832
N	612.321	2.03525	0.307011
C	611.315	2.82935	-0.359255
H	612.519	2.235	1.26116
H	610.89	3.58796	0.334278
H	610.484	2.18407	-0.725139
H	611.751	3.36093	-1.23592
