44
  This energy is 1.08685e-319 and Call times are: 40599
C	1.87395	-1.99115	-2.15634
C	0.60907	-1.32943	-1.76464
O	-0.361414	-1.32866	-2.50939
H	1.75904	-2.43218	-3.17031
H	2.12037	-2.80113	-1.43799
H	2.70215	-1.25185	-2.17771
N	0.595455	-0.7371	-0.56826
C	-0.561241	-0.0528749	-0.0479544
C	-0.0902626	0.907013	1.02723
O	1.04487	0.82229	1.49213
H	1.40179	-0.719573	0.0169274
H	-1.00863	0.534175	-0.839973
C	-1.58618	-1.04815	0.540311
H	-1.12369	-1.64919	1.35208
H	-2.47815	-0.524654	0.941698
H	-1.92245	-1.74643	-0.256847
N	-0.950331	1.86172	1.43322
C	-0.58558	2.82723	2.44363
H	-1.86204	1.91823	1.03974
H	-1.42741	3.52695	2.64103
H	0.296706	3.42381	2.11667
H	-0.322598	2.31678	3.39833
C	1929.95	1.29067	1.07168
C	1929	0.915855	0.000742956
O	1929.22	1.20005	-1.16854
H	1930.81	1.83477	0.625087
H	1930.33	0.380744	1.58416
H	1929.45	1.9517	1.8118
N	1927.9	0.26333	0.385394
C	1926.88	-0.167851	-0.540065
C	1925.6	-0.380478	0.241953
O	1925.62	-0.432505	1.47033
H	1927.72	0.0633015	1.34446
H	1926.7	0.622091	-1.25815
C	1927.29	-1.4746	-1.25607
H	1927.48	-2.28266	-0.516404
H	1926.51	-1.80936	-1.96952
H	1928.23	-1.30596	-1.82428
N	1924.45	-0.487034	-0.45603
C	1923.18	-0.679038	0.203662
H	1924.46	-0.435189	-1.44925
H	1922.36	-0.744773	-0.540905
H	1922.97	0.169201	0.892565
H	1923.19	-1.61792	0.803369
