44
  This energy is 4.99056e-320 and Call times are: 100869
C	-1.50759	-0.0912776	-3.13767
C	-0.398859	0.297292	-2.23715
O	0.628514	0.794836	-2.67698
H	-1.22526	0.138387	-4.1881
H	-2.42642	0.476419	-2.88021
H	-1.709	-1.17966	-3.0494
N	-0.584692	0.0687913	-0.93499
C	0.402069	0.392839	0.0640718
C	0.110195	-0.44258	1.29538
O	-0.962482	-1.03141	1.4157
H	-1.41425	-0.363881	-0.59211
H	1.38028	0.108227	-0.302231
C	0.368277	1.8956	0.421411
H	-0.636862	2.18428	0.796207
H	1.12693	2.1486	1.19031
H	0.582387	2.49669	-0.489079
N	1.07346	-0.530806	2.23364
C	0.889836	-1.31303	3.43389
H	1.93744	-0.0526966	2.11457
H	1.79304	-1.25855	4.0808
H	0.703515	-2.38206	3.18146
H	0.0175314	-0.938937	4.01725
C	4779.29	-2.43626	0.967124
C	4777.91	-1.99368	0.667665
O	4776.99	-2.79201	0.630462
H	4779.3	-3.53655	1.12583
H	4779.66	-1.93816	1.88781
H	4779.97	-2.19146	0.118624
N	4777.74	-0.68926	0.438159
C	4776.46	-0.107927	0.133987
C	4776.7	1.21818	-0.560321
O	4777.82	1.73955	-0.549029
H	4778.51	-0.0534592	0.442661
H	4775.94	-0.75267	-0.561276
C	4775.62	0.10783	1.41427
H	4776.16	0.769157	2.12558
H	4774.63	0.555181	1.18367
H	4775.45	-0.870732	1.91414
N	4775.66	1.78619	-1.20306
C	4775.8	3.04245	-1.90208
H	4774.77	1.3451	-1.20672
H	4774.84	3.34445	-2.36404
H	4776.57	2.96065	-2.70883
H	4776.12	3.84795	-1.2027
