44
  This energy is 7.29389e-320 and Call times are: 95451
C	1.20904	-3.1743	-0.7669
C	0.17097	-2.12217	-0.848226
O	-0.802587	-2.24918	-1.57798
H	0.938903	-4.01022	-1.44817
H	1.27816	-3.56417	0.270427
H	2.19434	-2.76456	-1.07388
N	0.363538	-1.03937	-0.0913639
C	-0.558166	0.0680814	-0.0624725
C	0.189411	1.28315	0.451319
O	1.28774	1.16364	0.990982
H	1.17539	-0.934944	0.4769
H	-0.881049	0.283591	-1.0731
C	-1.77092	-0.232993	0.846212
H	-1.436	-0.454291	1.88206
H	-2.48271	0.617611	0.870624
H	-2.30934	-1.12574	0.459888
N	-0.383053	2.49021	0.274476
C	0.260147	3.70417	0.720321
H	-1.26906	2.56674	-0.17092
H	-0.368643	4.59128	0.48597
H	1.24734	3.8323	0.220044
H	0.431738	3.67677	1.82077
C	4522.26	2.8206	1.52368
C	4521.27	1.72275	1.46585
O	4520.49	1.52045	2.39088
H	4522.16	3.35622	2.49255
H	4522.08	3.53913	0.695734
H	4523.29	2.41162	1.44499
N	4521.28	0.974409	0.360272
C	4520.37	-0.129265	0.157093
C	4520.98	-1.03892	-0.894909
O	4521.92	-0.658768	-1.58932
H	4521.93	1.13103	-0.373844
H	4520.3	-0.695341	1.07676
C	4518.98	0.360803	-0.300383
H	4519.06	0.941705	-1.24373
H	4518.28	-0.486463	-0.457613
H	4518.55	1.02707	0.478212
N	4520.46	-2.27713	-1.02184
C	4520.98	-3.21678	-1.98836
H	4519.7	-2.56849	-0.445659
H	4520.42	-4.17825	-1.94035
H	4522.06	-3.42581	-1.79425
H	4520.89	-2.80935	-3.02119
