44
  This energy is 4.64866e-320 and Call times are: 81507
C	2.9337	1.01402	1.57839
C	2.21619	0.352286	0.465509
O	2.81282	-0.037369	-0.528825
H	4.01585	1.07706	1.33173
H	2.81189	0.42855	2.51391
H	2.53952	2.04076	1.73127
N	0.896105	0.214638	0.609696
C	0.0617796	-0.408523	-0.386497
C	-1.36262	0.0596529	-0.160396
O	-1.67948	0.627585	0.883104
H	0.417534	0.562369	1.41156
H	0.368812	-0.0663829	-1.36667
C	0.135007	-1.94926	-0.29775
H	-0.179996	-2.29677	0.70929
H	-0.506135	-2.43229	-1.06351
H	1.18359	-2.27941	-0.463932
N	-2.25394	-0.15009	-1.14912
C	-3.62993	0.272031	-1.02812
H	-1.97638	-0.605027	-1.9889
H	-4.20402	0.00863522	-1.94371
H	-3.69113	1.37471	-0.881191
H	-4.11676	-0.220132	-0.155222
C	3864.95	0.611239	-1.74996
C	3864.21	0.312571	-0.499117
O	3864.81	0.0508296	0.536438
H	3866.04	0.54444	-1.55982
H	3864.71	1.63694	-2.09956
H	3864.67	-0.121637	-2.53813
N	3862.88	0.340291	-0.571831
C	3862.03	0.0717877	0.560291
C	3860.67	-0.321813	0.0337352
O	3860.37	-0.128378	-1.14291
H	3862.41	0.526249	-1.42824
H	3862.43	-0.773861	1.10662
C	3861.91	1.30816	1.47896
H	3861.5	2.174	0.91511
H	3861.26	1.10484	2.35178
H	3862.92	1.58706	1.85712
N	3859.81	-0.906891	0.893904
C	3858.49	-1.32634	0.479368
H	3860.07	-1.06129	1.84034
H	3857.94	-1.78346	1.32957
H	3858.56	-2.07812	-0.340171
H	3857.9	-0.458113	0.104517
