44
  This energy is 1.19742e-319 and Call times are: 72057
C	-1.53106	-0.318338	3.11138
C	-0.541145	0.307019	2.20572
O	0.115752	1.27653	2.55931
H	-1.54705	0.234329	4.07583
H	-1.25543	-1.37583	3.30773
H	-2.54372	-0.278745	2.65762
N	-0.416032	-0.241041	0.994796
C	0.504951	0.255145	0.00362607
C	0.0313787	-0.225336	-1.35435
O	-0.818281	-1.10924	-1.44719
H	-0.977741	-1.01263	0.708313
H	0.469241	1.33717	0.000527401
C	1.9425	-0.243443	0.271934
H	1.97535	-1.35386	0.275089
H	2.65426	0.136885	-0.489325
H	2.27723	0.114151	1.27004
N	0.558171	0.36534	-2.44504
C	0.159091	-0.0182255	-3.77913
H	1.23929	1.08373	-2.34895
H	0.705519	0.580834	-4.54057
H	-0.933645	0.143498	-3.92409
H	0.375503	-1.0961	-3.95952
C	3419.8	2.69704	-1.70275
C	3419.27	1.3147	-1.66374
O	3419.11	0.667991	-2.69034
H	3419.99	2.98627	-2.75839
H	3420.75	2.7598	-1.13207
H	3419.06	3.40176	-1.2674
N	3418.97	0.82703	-0.456852
C	3418.45	-0.501332	-0.25723
C	3417.76	-0.532374	1.09194
O	3417.93	0.373422	1.90601
H	3419.08	1.37416	0.369422
H	3417.7	-0.703319	-1.01437
C	3419.58	-1.56014	-0.30255
H	3420.34	-1.34951	0.475029
H	3419.18	-2.58413	-0.149344
H	3420.07	-1.52645	-1.29536
N	3416.94	-1.57192	1.35178
C	3416.23	-1.68012	2.60496
H	3416.81	-2.2913	0.677266
H	3415.61	-2.60446	2.62811
H	3415.56	-0.804521	2.75211
H	3416.95	-1.71426	3.45952
