44
  This energy is 7.7929e-320 and Call times are: 57651
C	0.572456	-3.39687	0.509622
C	0.207215	-2.05002	1.00339
O	-0.191288	-1.88242	2.14777
H	0.413836	-4.14077	1.32037
H	1.64071	-3.41689	0.207527
H	-0.0622571	-3.67128	-0.35916
N	0.332179	-1.04534	0.133118
C	0.0161024	0.320774	0.46576
C	-0.232137	1.07007	-0.82891
O	0.0917396	0.58172	-1.90986
H	0.630163	-1.19899	-0.805251
H	-0.902551	0.339998	1.03828
C	1.16528	0.988134	1.25388
H	2.10632	0.966066	0.6639
H	0.925147	2.04009	1.51176
H	1.33803	0.429258	2.19938
N	-0.83646	2.27194	-0.749559
C	-1.12423	3.05245	-1.93032
H	-1.09733	2.64684	0.133975
H	-1.62118	4.00949	-1.65761
H	-1.79783	2.49121	-2.61772
H	-0.186421	3.28932	-2.48312
C	2730.69	1.99223	-0.534624
C	2731.58	1.19416	0.34782
O	2731.41	1.17534	1.55941
H	2729.93	2.51838	0.083315
H	2730.17	1.32871	-1.25657
H	2731.29	2.74636	-1.09006
N	2732.55	0.511086	-0.251374
C	2733.49	-0.310606	0.472766
C	2734.72	-0.494958	-0.3975
O	2734.69	-0.203278	-1.59168
H	2732.7	0.55768	-1.23622
H	2733.8	0.212873	1.36909
C	2732.88	-1.68456	0.825311
H	2732.56	-2.21856	-0.0964594
H	2733.6	-2.31974	1.38308
H	2731.98	-1.53572	1.46194
N	2735.84	-0.966179	0.189992
C	2737.06	-1.16299	-0.556562
H	2735.84	-1.18967	1.15915
H	2737.86	-1.55818	0.102174
H	2737.41	-0.201878	-0.998565
H	2736.9	-1.88727	-1.38781
