44
  This energy is 2.539e-320 and Call times are: 93435
C	-2.49322	-2.43105	0.00226052
C	-1.32935	-1.76083	-0.620178
O	-0.803994	-2.21243	-1.62841
H	-2.74977	-3.34053	-0.5833
H	-3.36922	-1.74884	0.0086736
H	-2.25074	-2.7306	1.04362
N	-0.891412	-0.652575	-0.0182188
C	0.230347	0.110077	-0.504887
C	0.761216	0.94354	0.645224
O	0.102428	1.0881	1.6733
H	-1.30972	-0.310935	0.81918
H	1.01516	-0.57192	-0.806588
C	-0.179393	1.02587	-1.67985
H	-0.985134	1.72376	-1.36704
H	0.682025	1.61444	-2.05711
H	-0.567608	0.403449	-2.51533
N	1.98231	1.49612	0.505281
C	2.57433	2.2958	1.55228
H	2.5028	1.36159	-0.331513
H	3.57923	2.66203	1.24683
H	2.68779	1.69882	2.48607
H	1.93443	3.1783	1.7823
C	4423.1	-2.54195	1.55252
C	4424.32	-1.73409	1.38365
O	4425.27	-1.84759	2.15508
H	4423.21	-3.19726	2.44366
H	4422.93	-3.17763	0.65743
H	4422.22	-1.87783	1.70166
N	4424.34	-0.882163	0.35582
C	4425.46	-0.0291935	0.0617683
C	4424.96	1.1231	-0.787916
O	4423.85	1.08081	-1.31431
H	4423.55	-0.777958	-0.248325
H	4425.84	0.384878	0.987435
C	4426.57	-0.799589	-0.687468
H	4426.18	-1.22359	-1.63626
H	4427.44	-0.145814	-0.91532
H	4426.93	-1.64168	-0.0550766
N	4425.77	2.19487	-0.92352
C	4425.37	3.34398	-1.70378
H	4426.66	2.213	-0.483838
H	4426.17	4.11892	-1.69553
H	4424.44	3.79582	-1.2926
H	4425.18	3.05273	-2.76127
