44
  This energy is 1.16698e-320 and Call times are: 25395
C	0.406101	2.79116	2.04222
C	0.798021	1.43404	1.59969
O	1.81058	0.897064	2.02733
H	1.15923	3.17358	2.765
H	-0.585944	2.75967	2.53989
H	0.36112	3.4795	1.1721
N	-0.00716637	0.84371	0.713376
C	0.241008	-0.475586	0.189262
C	-0.520807	-0.609713	-1.11492
O	-1.38877	0.205046	-1.42255
H	-0.813479	1.30325	0.350577
H	1.29581	-0.57264	-0.0344567
C	-0.209835	-1.56953	1.18281
H	-1.29225	-1.46659	1.41062
H	-0.0200456	-2.58663	0.782459
H	0.354653	-1.45966	2.13435
N	-0.195933	-1.63572	-1.92594
C	-0.859221	-1.83649	-3.19319
H	0.514239	-2.28028	-1.66244
H	-0.453431	-2.73297	-3.71176
H	-0.715248	-0.952878	-3.85632
H	-1.95375	-1.98239	-3.04519
C	1207.38	-3.01468	-0.64823
C	1207.79	-1.64642	-1.03852
O	1207.59	-1.22569	-2.16998
H	1206.91	-3.52079	-1.51998
H	1206.65	-2.97207	0.181422
H	1208.27	-3.60128	-0.325751
N	1208.39	-0.913101	-0.0946154
C	1208.84	0.435779	-0.322554
C	1209.89	0.75851	0.724932
O	1210.03	0.0398786	1.71217
H	1208.57	-1.27743	0.814813
H	1209.32	0.487199	-1.29262
C	1207.67	1.4439	-0.234389
H	1207.18	1.388	0.761815
H	1208.02	2.4835	-0.409557
H	1206.91	1.19595	-1.00591
N	1210.66	1.8422	0.521067
C	1211.69	2.22065	1.45832
H	1210.53	2.40702	-0.28764
H	1212.22	3.13917	1.11525
H	1212.44	1.40578	1.56467
H	1211.26	2.42098	2.4636
