44
  This energy is 1.47933e-319 and Call times are: 72981
C	1.93228	0.658212	2.8212
C	1.39796	1.03408	1.49288
O	1.58297	2.15106	1.02963
H	2.47337	1.52544	3.25824
H	2.63814	-0.193182	2.72269
H	1.10204	0.372881	3.50109
N	0.706678	0.0940678	0.844133
C	0.125306	0.30935	-0.456824
C	-0.977728	-0.713167	-0.649209
O	-1.07478	-1.68192	0.101737
H	0.538023	-0.802572	1.24479
H	-0.32898	1.29175	-0.481012
C	1.1817	0.168062	-1.57539
H	1.6462	-0.840685	-1.54723
H	0.737461	0.333364	-2.57843
H	1.98469	0.921692	-1.42243
N	-1.8525	-0.507538	-1.65345
C	-2.94226	-1.42142	-1.90529
H	-1.76134	0.286213	-2.2458
H	-3.54849	-1.08078	-2.77344
H	-3.6106	-1.49029	-1.01657
H	-2.55572	-2.4426	-2.12655
C	3464.67	-1.90645	-1.83057
C	3463.35	-1.71684	-1.18527
O	3462.45	-2.5327	-1.33268
H	3464.66	-2.84888	-2.4201
H	3465.46	-1.97439	-1.06019
H	3464.88	-1.05818	-2.51321
N	3463.2	-0.613339	-0.448217
C	3461.98	-0.290506	0.241351
C	3461.98	1.20057	0.516886
O	3463.01	1.86212	0.396355
H	3463.93	0.0582479	-0.359567
H	3461.14	-0.504705	-0.409844
C	3461.86	-1.07562	1.56634
H	3462.72	-0.854033	2.23171
H	3460.91	-0.829535	2.09981
H	3461.86	-2.16638	1.35097
N	3460.81	1.77014	0.874445
C	3460.71	3.18547	1.14512
H	3459.99	1.21905	0.959599
H	3459.67	3.46063	1.42484
H	3461	3.77831	0.247544
H	3461.39	3.47365	1.98246
