44
  This energy is 7.16148e-320 and Call times are: 9603
C	-2.04291	-1.74055	2.21881
C	-1.21406	-1.67021	0.99437
O	-0.958765	-2.67486	0.344768
H	-2.34214	-2.79583	2.39966
H	-2.95789	-1.12337	2.0974
H	-1.46486	-1.37587	3.09392
N	-0.764113	-0.460923	0.651524
C	0.0533612	-0.232343	-0.513085
C	0.789918	1.07824	-0.315369
O	0.454063	1.86041	0.571898
H	-0.954763	0.345402	1.20508
H	0.794169	-1.01873	-0.582836
C	-0.802437	-0.172199	-1.79804
H	-1.56179	0.635166	-1.72279
H	-0.176115	0.00354063	-2.69671
H	-1.33773	-1.13758	-1.93086
N	1.83174	1.33877	-1.12946
C	2.59981	2.55592	-1.00782
H	2.09241	0.689915	-1.83675
H	3.412	2.58593	-1.76723
H	3.06233	2.62924	0.00308743
H	1.94879	3.4479	-1.15516
C	464.432	-1.74294	-1.46987
C	463.005	-1.61026	-1.09847
O	462.171	-2.41266	-1.49473
H	464.56	-2.63296	-2.12356
H	465.054	-1.87339	-0.559288
H	464.77	-0.840308	-2.02144
N	462.689	-0.572333	-0.320599
C	461.344	-0.310404	0.124468
C	461.258	1.15251	0.514145
O	462.278	1.82371	0.663558
H	463.373	0.0908855	-0.0282828
H	460.662	-0.471123	-0.701356
C	460.965	-1.20349	1.32705
H	461.667	-1.03655	2.17219
H	459.93	-1.0045	1.6722
H	461.033	-2.27248	1.02902
N	460.031	1.6881	0.667105
C	459.852	3.07574	1.02544
H	459.218	1.13029	0.534799
H	458.771	3.32468	1.10491
H	460.309	3.7419	0.258568
H	460.335	3.29436	2.00521
