44
  This energy is 1.49326e-319 and Call times are: 79281
C	3.30551	-0.944088	0.555344
C	2.12394	-0.104128	0.854602
O	2.11801	0.662686	1.80773
H	4.09621	-0.74863	1.31195
H	3.70361	-0.69944	-0.451873
H	3.03033	-2.01918	0.592586
N	1.0784	-0.237941	0.0352719
C	-0.142185	0.510976	0.196911
C	-1.24525	-0.233381	-0.530005
O	-0.978804	-1.13595	-1.32134
H	1.08472	-0.887327	-0.720502
H	-0.401324	0.538914	1.24769
C	-0.00363369	1.94154	-0.370015
H	0.262909	1.90915	-1.44799
H	-0.94164	2.52103	-0.247054
H	0.808259	2.47582	0.169915
N	-2.5184	0.115974	-0.259715
C	-3.63448	-0.545195	-0.894855
H	-2.71366	0.844089	0.389093
H	-4.59819	-0.115086	-0.543406
H	-3.63078	-1.63446	-0.660887
H	-3.58175	-0.429629	-2.00167
C	3761.15	1.19554	2.37468
C	3759.93	0.448471	1.99884
O	3759.3	-0.200937	2.82664
H	3761.35	1.04466	3.45695
H	3761.01	2.28015	2.18339
H	3762.02	0.827248	1.79002
N	3759.56	0.521527	0.71794
C	3758.39	-0.150237	0.200882
C	3758.56	-0.290428	-1.29932
O	3759.43	0.346031	-1.89579
H	3760.09	1.03017	0.0471577
H	3758.35	-1.14685	0.621142
C	3757.1	0.638017	0.517732
H	3757.15	1.66015	0.0857008
H	3756.2	0.123487	0.121149
H	3756.99	0.734834	1.61959
N	3757.75	-1.14932	-1.94332
C	3757.85	-1.35724	-3.36937
H	3757.06	-1.66049	-1.44182
H	3757.09	-2.09869	-3.71074
H	3758.86	-1.73585	-3.64358
H	3757.67	-0.403128	-3.91825
