44
  This energy is 9.45296e-320 and Call times are: 71049
C	-0.460884	-3.31785	-0.951624
C	-0.879048	-1.89795	-0.936683
O	-1.81768	-1.50778	-1.6173
H	-1.11444	-3.88588	-1.64881
H	-0.554147	-3.75484	0.0648206
H	0.591492	-3.40345	-1.29531
N	-0.174691	-1.08058	-0.150456
C	-0.460986	0.326646	-0.0296883
C	0.787456	1.01324	0.489177
O	1.71364	0.358572	0.963973
H	0.606148	-1.40487	0.376857
H	-0.672885	0.728214	-1.0125
C	-1.64449	0.579483	0.930789
H	-1.424	0.165662	1.93789
H	-1.86771	1.66202	1.02597
H	-2.55247	0.0704282	0.540173
N	0.849732	2.35571	0.389666
C	2.00377	3.09453	0.84631
H	0.0928873	2.86692	-0.00414037
H	1.86329	4.18537	0.68022
H	2.91881	2.77164	0.29888
H	2.17416	2.92448	1.93407
C	3368.73	-2.20136	2.12198
C	3368.77	-1.31034	0.940538
O	3367.83	-1.25602	0.158425
H	3367.77	-2.75447	2.13365
H	3368.82	-1.60422	3.05437
H	3369.57	-2.93338	2.07674
N	3369.88	-0.584938	0.780725
C	3370.07	0.32734	-0.319326
C	3371.56	0.562374	-0.483485
O	3372.35	0.223257	0.395088
H	3370.65	-0.659747	1.4088
H	3369.71	-0.138211	-1.22739
C	3369.34	1.66819	-0.0665719
H	3369.71	2.14272	0.866094
H	3369.48	2.37293	-0.911735
H	3368.25	1.48226	0.0531223
N	3371.98	1.13251	-1.62995
C	3373.38	1.38428	-1.87979
H	3371.32	1.39329	-2.33187
H	3373.52	1.85969	-2.87523
H	3373.96	0.433238	-1.85932
H	3373.8	2.06278	-1.10343
