44
  This energy is 1.37484e-319 and Call times are: 18129
C	1.25498	2.11979	2.46123
C	0.742772	1.87137	1.0948
O	0.522764	2.79548	0.324015
H	1.37464	3.21424	2.61527
H	2.24141	1.62807	2.5953
H	0.540832	1.72669	3.21515
N	0.533239	0.595309	0.762933
C	0.037546	0.195115	-0.529724
C	-0.560104	-1.19151	-0.390677
O	-0.343598	-1.87183	0.610381
H	0.688694	-0.146605	1.40972
H	-0.757495	0.867844	-0.825392
C	1.1652	0.184141	-1.58585
H	1.97944	-0.506501	-1.27902
H	0.78695	-0.123418	-2.5824
H	1.59549	1.20522	-1.6774
N	-1.34875	-1.63529	-1.38923
C	-1.97078	-2.93787	-1.3388
H	-1.51759	-1.06693	-2.18779
H	-2.57809	-3.11928	-2.25287
H	-2.63972	-3.01972	-0.451636
H	-1.20004	-3.73893	-1.26513
C	866.032	3.23171	0.404544
C	865.963	1.94727	-0.328012
O	866.516	1.80571	-1.41015
H	866.627	3.96061	-0.187503
H	866.522	3.0842	1.38999
H	865.011	3.64089	0.557144
N	865.265	0.969324	0.254302
C	865.108	-0.336252	-0.33515
C	863.886	-0.984224	0.287541
O	863.376	-0.516561	1.30369
H	864.795	1.10619	1.12224
H	864.916	-0.223144	-1.39463
C	866.356	-1.21555	-0.0964706
H	866.55	-1.32894	0.991433
H	866.238	-2.22149	-0.549175
H	867.243	-0.729412	-0.55631
N	863.375	-2.07026	-0.324418
C	862.206	-2.74665	0.189236
H	863.798	-2.42925	-1.1498
H	861.942	-3.61671	-0.451455
H	861.333	-2.05522	0.218686
H	862.389	-3.11601	1.22426
