44
  This energy is 1.33111e-319 and Call times are: 78651
C	-0.280697	1.73671	-3.00519
C	-0.413444	1.65238	-1.5333
O	-0.693405	2.63864	-0.865903
H	-0.464935	2.78343	-3.33121
H	-1.02295	1.07187	-3.49497
H	0.74311	1.43871	-3.31497
N	-0.205765	0.452068	-0.986964
C	-0.299122	0.211915	0.430935
C	0.47865	-1.05213	0.741588
O	0.832779	-1.80979	-0.159729
H	0.0503175	-0.337397	-1.53842
H	0.17678	1.02893	0.958271
C	-1.76931	0.0547731	0.879227
H	-2.25467	-0.783811	0.33579
H	-1.84485	-0.130112	1.97051
H	-2.3285	0.986781	0.645108
N	0.782453	-1.2981	2.03124
C	1.53025	-2.47073	2.421
H	0.493077	-0.669176	2.74535
H	1.67682	-2.49523	3.52335
H	2.53225	-2.47755	1.93398
H	0.992772	-3.39835	2.11798
C	3727.1	2.273	-1.92845
C	3728.17	1.95017	-0.955309
O	3728.97	2.80088	-0.586358
H	3727.18	3.34215	-2.22192
H	3726.1	2.10053	-1.47288
H	3727.21	1.6421	-2.83605
N	3728.21	0.689982	-0.516436
C	3729.19	0.224138	0.431882
C	3729.28	-1.28406	0.304564
O	3728.42	-1.91589	-0.311751
H	3727.57	-0.000913192	-0.846695
H	3730.16	0.635542	0.169823
C	3728.8	0.612926	1.87653
H	3727.81	0.189797	2.14182
H	3729.56	0.2559	2.60929
H	3728.74	1.71998	1.95632
N	3730.34	-1.89607	0.869994
C	3730.52	-3.32729	0.789978
H	3731.02	-1.36649	1.35835
H	3731.44	-3.63872	1.31741
H	3730.59	-3.6553	-0.272216
H	3729.65	-3.85675	1.25592
