44
  This energy is 2.59631e-320 and Call times are: 74451
C	-2.91874	-1.53168	1.12296
C	-1.46075	-1.28978	1.20624
O	-0.798479	-1.7306	2.13552
H	-3.2423	-2.13139	2.00132
H	-3.16114	-2.0926	0.195901
H	-3.4677	-0.566492	1.12486
N	-0.922514	-0.566189	0.221811
C	0.481704	-0.247375	0.163872
C	0.647754	0.964396	-0.732384
O	-0.271825	1.34164	-1.45619
H	-1.47757	-0.188068	-0.514309
H	0.821351	0.0271657	1.1545
C	1.30535	-1.43268	-0.387282
H	0.953826	-1.71212	-1.40338
H	2.38706	-1.19065	-0.433091
H	1.17432	-2.31428	0.27737
N	1.82522	1.61828	-0.687712
C	2.07034	2.78944	-1.49672
H	2.55452	1.30158	-0.0901712
H	3.09609	3.18173	-1.32011
H	1.34027	3.595	-1.25317
H	1.969	2.54746	-2.57948
C	3527.67	-3.00284	1.26226
C	3528.76	-2.02429	1.0656
O	3529.84	-2.15754	1.62966
H	3528.01	-3.79459	1.96567
H	3527.4	-3.47403	0.293931
H	3526.78	-2.49916	1.68991
N	3528.5	-0.99919	0.251151
C	3529.46	0.0332091	-0.0393476
C	3528.71	1.2501	-0.534585
O	3527.53	1.1635	-0.867356
H	3527.61	-0.88611	-0.179555
H	3529.97	0.310749	0.876846
C	3530.48	-0.430119	-1.10607
H	3529.96	-0.714709	-2.04441
H	3531.22	0.362373	-1.33202
H	3531.03	-1.32268	-0.731717
N	3529.37	2.42397	-0.574019
C	3528.72	3.63813	-1.02009
H	3530.32	2.47493	-0.293794
H	3529.43	4.49493	-0.981735
H	3527.85	3.8786	-0.375327
H	3528.36	3.52907	-2.06803
