44
  This energy is 7.35812e-320 and Call times are: 57483
C	-1.9765	-2.67509	1.03125
C	-0.657335	-2.04499	0.798885
O	0.3759	-2.58607	1.16787
H	-1.83376	-3.64029	1.56406
H	-2.48293	-2.87076	0.0627138
H	-2.61334	-2.01175	1.65363
N	-0.665659	-0.864099	0.176163
C	0.537515	-0.128614	-0.120927
C	0.156068	1.32405	-0.329483
O	-1.01949	1.64919	-0.484963
H	-1.51592	-0.419943	-0.0935083
H	1.1989	-0.175427	0.734907
C	1.23707	-0.680673	-1.38306
H	0.555517	-0.63177	-2.25896
H	2.16396	-0.116724	-1.6146
H	1.51032	-1.74567	-1.21795
N	1.14587	2.23843	-0.315627
C	0.876622	3.64622	-0.494005
H	2.09007	1.95617	-0.181246
H	1.81933	4.23518	-0.45296
H	0.194825	4.02001	0.303916
H	0.389868	3.83162	-1.47883
C	2722.68	-2.03649	0.2086
C	2724.15	-1.83411	0.250263
O	2724.9	-2.73794	0.583246
H	2722.45	-3.07709	0.520486
H	2722.3	-1.87558	-0.822463
H	2722.18	-1.33044	0.901843
N	2724.59	-0.620003	-0.0873544
C	2725.99	-0.270405	-0.0955738
C	2726.09	1.23972	-0.00543572
O	2725.1	1.9495	-0.193659
H	2723.96	0.116462	-0.32868
H	2726.46	-0.685541	0.78604
C	2726.69	-0.775027	-1.378
H	2726.2	-0.347732	-2.2805
H	2727.76	-0.507669	-1.38752
H	2726.6	-1.88234	-1.43285
N	2727.29	1.76668	0.308114
C	2727.48	3.19337	0.427956
H	2728.08	1.17523	0.463731
H	2728.54	3.42841	0.689864
H	2726.82	3.61266	1.2217
H	2727.24	3.70468	-0.530909
