44
  This energy is 4.50785e-320 and Call times are: 8595
C	1.36361	-2.04047	-2.47046
C	0.965394	-1.78306	-1.06819
O	1.01302	-2.66765	-0.224554
H	1.67435	-3.10273	-2.57493
H	2.21619	-1.38731	-2.75209
H	0.509172	-1.84719	-3.15275
N	0.55143	-0.545353	-0.786967
C	0.132021	-0.142086	0.531478
C	-0.733122	1.09482	0.387197
O	-0.762323	1.72165	-0.67019
H	0.489493	0.158698	-1.4894
H	-0.481403	-0.924371	0.960215
C	1.34483	0.160835	1.43946
H	1.97231	0.963326	0.996301
H	1.02548	0.471502	2.45548
H	1.97116	-0.752677	1.53617
N	-1.47871	1.46332	1.44754
C	-2.34177	2.62044	1.39887
H	-1.4467	0.938878	2.29203
H	-2.86918	2.75869	2.36839
H	-3.10669	2.50658	0.596896
H	-1.75253	3.54161	1.1857
C	412.738	-0.315546	3.30117
C	413.441	0.417407	2.22472
O	413.876	1.54624	2.40757
H	412.691	0.322493	4.21035
H	413.282	-1.25136	3.54632
H	411.703	-0.563182	2.98272
N	413.565	-0.218376	1.05733
C	414.225	0.364207	-0.0838621
C	413.739	-0.361756	-1.32343
O	413.126	-1.42351	-1.23044
H	413.181	-1.12636	0.911903
H	413.926	1.40104	-0.171654
C	415.761	0.246315	0.0334846
H	416.064	-0.818606	0.124053
H	416.272	0.69405	-0.843514
H	416.104	0.781089	0.945952
N	413.985	0.209454	-2.51894
C	413.55	-0.402897	-3.75271
H	414.477	1.0725	-2.57289
H	413.849	0.21776	-4.62624
H	412.442	-0.516625	-3.76568
H	414.003	-1.41425	-3.87028
