44
  This energy is 4.27367e-321 and Call times are: 67395
C	-0.233725	2.80508	2.05013
C	0.401301	1.52528	1.66277
O	1.43201	1.14272	2.19921
H	0.373254	3.29048	2.845
H	-1.25677	2.62172	2.44075
H	-0.28921	3.48545	1.17436
N	-0.208505	0.827751	0.701539
C	0.288146	-0.435562	0.217589
C	-0.303228	-0.672408	-1.15843
O	-1.24601	0.00553953	-1.56262
H	-1.03171	1.16413	0.251958
H	1.36323	-0.371955	0.107075
C	-0.0961361	-1.5921	1.16725
H	-1.19968	-1.65405	1.27887
H	0.284848	-2.56629	0.797686
H	0.342053	-1.40612	2.17202
N	0.25519	-1.63211	-1.92206
C	-0.233244	-1.92038	-3.25041
H	1.02203	-2.16507	-1.5798
H	0.354506	-2.74209	-3.71579
H	-0.154008	-1.02021	-3.90208
H	-1.30305	-2.22957	-3.21734
C	3195.62	3.16503	1.22358
C	3196.5	2.24022	0.473534
O	3197.46	2.65561	-0.1637
H	3195.98	4.20742	1.08688
H	3195.64	2.9173	2.30576
H	3194.58	3.09339	0.846057
N	3196.18	0.944421	0.530023
C	3196.94	-0.075949	-0.146701
C	3196.05	-1.29177	-0.307262
O	3195	-1.38581	0.319727
H	3195.38	0.621642	1.02876
H	3197.2	0.276153	-1.13751
C	3198.21	-0.450552	0.647839
H	3197.94	-0.810712	1.66401
H	3198.8	-1.23588	0.129513
H	3198.86	0.448713	0.759597
N	3196.44	-2.24601	-1.17338
C	3195.65	-3.43334	-1.40055
H	3197.3	-2.14814	-1.67664
H	3196.15	-4.09693	-2.14526
H	3194.64	-3.16486	-1.78445
H	3195.52	-4.00542	-0.45359
