44
  This energy is 1.39509e-319 and Call times are: 18213
C	3.4618	-0.158298	0.342118
C	2.242	0.337986	-0.33391
O	2.30521	1.19778	-1.20181
H	4.34944	0.372394	-0.0656981
H	3.58138	-1.24774	0.164255
H	3.39903	0.0329482	1.4341
N	1.08515	-0.198845	0.0608987
C	-0.185554	0.180993	-0.50289
C	-1.26784	-0.201387	0.487905
O	-1.02159	-0.954191	1.42837
H	1.04402	-0.877506	0.789366
H	-0.211348	1.25704	-0.619192
C	-0.432643	-0.521103	-1.85682
H	-0.404841	-1.62485	-1.73396
H	-1.41015	-0.230752	-2.2938
H	0.367458	-0.233771	-2.57335
N	-2.49361	0.329678	0.310548
C	-3.58343	0.0322164	1.21054
H	-2.67112	0.942452	-0.452494
H	-4.50921	0.562461	0.895856
H	-3.33339	0.349727	2.24877
H	-3.79364	-1.06176	1.22524
C	866.71	1.43822	-2.38493
C	867.862	0.590099	-2.00613
O	868.459	-0.076099	-2.8409
H	866.524	1.33911	-3.47648
H	866.925	2.50234	-2.15225
H	865.8	1.11647	-1.83483
N	868.201	0.592751	-0.714886
C	869.3	-0.180843	-0.193698
C	869.08	-0.357818	1.29607
O	868.247	0.321246	1.89339
H	867.689	1.11711	-0.039738
H	869.285	-1.16365	-0.647498
C	870.653	0.519148	-0.451257
H	870.665	1.52737	0.0150823
H	871.501	-0.0738923	-0.0513492
H	870.802	0.643934	-1.54598
N	869.811	-1.296	1.92901
C	869.661	-1.5435	3.3441
H	870.475	-1.8402	1.4267
H	870.351	-2.35015	3.67738
H	868.618	-1.8546	3.58024
H	869.888	-0.623658	3.93021
