44
  This energy is 1.39964e-319 and Call times are: 111117
C	-1.31644	1.15888	-3.00834
C	-1.01705	1.326	-1.56833
O	-1.2083	2.39344	-1.00222
H	-1.70432	2.11743	-3.41649
H	-2.08536	0.370562	-3.15025
H	-0.394807	0.87963	-3.56111
N	-0.526913	0.256873	-0.93658
C	-0.187374	0.264059	0.463952
C	0.786357	-0.871284	0.713119
O	0.955837	-1.75041	-0.12964
H	-0.348239	-0.598491	-1.4155
H	0.321038	1.19078	0.697996
C	-1.44264	0.0910239	1.34796
H	-1.96213	-0.860344	1.10475
H	-1.18482	0.0962586	2.42698
H	-2.14843	0.928194	1.15521
N	1.46852	-0.86602	1.87528
C	2.42557	-1.89966	2.19439
H	1.32257	-0.141953	2.54136
H	2.87961	-1.72022	3.19384
H	3.24287	-1.92552	1.43769
H	1.93464	-2.89968	2.20664
C	5261.04	1.8153	0.818359
C	5262.5	1.72386	0.561883
O	5263.19	2.72793	0.50386
H	5260.76	2.88369	0.927078
H	5260.79	1.27674	1.75441
H	5260.48	1.37519	-0.0291459
N	5262.99	0.495978	0.394313
C	5264.39	0.245643	0.137799
C	5264.51	-1.12505	-0.499782
O	5263.56	-1.90964	-0.483223
H	5262.41	-0.312151	0.414939
H	5264.75	0.973322	-0.577209
C	5265.22	0.299033	1.44009
H	5264.85	-0.448279	2.1716
H	5266.3	0.106857	1.24618
H	5265.12	1.30766	1.89796
N	5265.67	-1.4374	-1.09907
C	5265.87	-2.71476	-1.74283
H	5266.43	-0.786163	-1.10803
H	5266.9	-2.78136	-2.17477
H	5265.14	-2.86038	-2.56487
H	5265.75	-3.54694	-1.01314
