44
  This energy is 1.47108e-319 and Call times are: 111411
C	-2.38555	-2.26793	-1.13656
C	-1.82521	-1.38301	-0.0905508
O	-2.42775	-1.17835	0.954226
H	-3.37137	-2.65608	-0.799856
H	-1.70422	-3.12584	-1.31714
H	-2.52577	-1.70234	-2.08175
N	-0.641684	-0.825624	-0.356917
C	0.0308448	0.0576525	0.561972
C	1.02504	0.884582	-0.229861
O	1.32799	0.571896	-1.37977
H	-0.174427	-0.977112	-1.2239
H	-0.694318	0.737341	0.991198
C	0.761141	-0.733451	1.6701
H	1.50383	-1.43022	1.22621
H	1.27993	-0.0563849	2.37947
H	0.0221663	-1.33591	2.24203
N	1.54169	1.97836	0.364053
C	2.48648	2.83275	-0.316796
H	1.27854	2.21862	1.29263
H	2.79537	3.67747	0.337645
H	2.03687	3.25461	-1.24477
H	3.39799	2.26027	-0.604177
C	5276.14	-2.35269	1.86811
C	5276.69	-1.85365	0.586622
O	5276.64	-2.53402	-0.428959
H	5275.73	-3.37464	1.71863
H	5275.32	-1.68582	2.22169
H	5276.94	-2.3964	2.63573
N	5277.23	-0.635322	0.609203
C	5277.81	-0.014051	-0.557702
C	5278.76	1.06764	-0.0884255
O	5278.75	1.45494	1.07846
H	5277.29	-0.102774	1.44941
H	5278.39	-0.750749	-1.09959
C	5276.71	0.596884	-1.46403
H	5276.12	1.35173	-0.904747
H	5277.15	1.07596	-2.36356
H	5276.02	-0.205366	-1.8001
N	5279.63	1.56713	-0.987975
C	5280.58	2.59127	-0.629153
H	5279.63	1.23556	-1.92568
H	5281.21	2.87105	-1.50557
H	5281.26	2.23349	0.18241
H	5280.06	3.50518	-0.265534
