44
  This energy is 3.20649e-321 and Call times are: 92553
C	1.80257	-1.93508	-2.26547
C	1.47792	-0.637439	-1.63148
O	2.14012	0.364158	-1.86555
H	2.68976	-1.81051	-2.92367
H	0.946307	-2.2859	-2.87911
H	2.03522	-2.6933	-1.48835
N	0.436586	-0.629669	-0.796061
C	-0.00151814	0.556104	-0.104082
C	-0.814593	0.11977	1.09915
O	-1.21095	-1.03951	1.20308
H	-0.0769938	-1.45865	-0.591204
H	0.865915	1.09089	0.261483
C	-0.854234	1.4603	-1.02192
H	-1.7429	0.908307	-1.39567
H	-1.19311	2.37433	-0.4923
H	-0.247713	1.77213	-1.90001
N	-1.06417	1.03962	2.05182
C	-1.8199	0.712601	3.23845
H	-0.728704	1.97069	1.95275
H	-1.91914	1.60201	3.89902
H	-1.31611	-0.0972055	3.81434
H	-2.84182	0.36016	2.96893
C	4385.95	1.03656	1.31469
C	4384.89	0.0226379	1.13722
O	4385.03	-1.12124	1.54706
H	4386.82	0.574272	1.8395
H	4385.58	1.88505	1.92306
H	4386.29	1.41276	0.326518
N	4383.78	0.426618	0.506064
C	4382.66	-0.444007	0.258651
C	4381.86	0.146347	-0.882512
O	4382.05	1.30252	-1.25465
H	4383.69	1.35321	0.15114
H	4383.03	-1.40953	-0.0638442
C	4381.78	-0.589564	1.51525
H	4381.4	0.402884	1.84374
H	4380.91	-1.25941	1.32829
H	4382.38	-1.02187	2.34416
N	4380.95	-0.646955	-1.48137
C	4380.14	-0.175046	-2.58403
H	4380.81	-1.58197	-1.17032
H	4379.45	-0.97338	-2.938
H	4380.79	0.134421	-3.43752
H	4379.53	0.704463	-2.27666
