44
  This energy is 1.2367e-319 and Call times are: 5529
C	-0.976062	2.3505	2.37667
C	-1.09147	1.7265	1.03932
O	-1.99132	2.03813	0.271431
H	-1.8036	3.07997	2.51425
H	-0.00709629	2.88506	2.46709
H	-1.04529	1.57494	3.16829
N	-0.169587	0.811635	0.730268
C	-0.149454	0.117965	-0.532762
C	0.651375	-1.15681	-0.351478
O	1.35362	-1.32175	0.644252
H	0.541332	0.545358	1.37573
H	-1.16119	-0.163739	-0.795646
C	0.481348	0.988359	-1.64255
H	1.51897	1.2761	-1.36929
H	0.498299	0.457331	-2.61645
H	-0.113742	1.91953	-1.76474
N	0.54617	-2.10219	-1.30604
C	1.26229	-3.35305	-1.21288
H	-0.0328862	-1.95281	-2.10078
H	1.0467	-3.99621	-2.09443
H	0.96589	-3.90791	-0.293362
H	2.36113	-3.17459	-1.1693
C	268.356	-1.8681	0.740464
C	269.285	-1.23872	-0.225015
O	269.177	-1.43564	-1.4275
H	267.623	-2.49637	0.188959
H	267.806	-1.08734	1.30652
H	268.919	-2.511	1.44973
N	270.238	-0.459155	0.291005
C	271.215	0.221652	-0.520309
C	272.401	0.558825	0.363015
O	272.314	0.483947	1.58722
H	270.334	-0.329886	1.27439
H	271.562	-0.452477	-1.29316
C	270.632	1.51054	-1.14097
H	270.276	2.19954	-0.345349
H	271.382	2.03717	-1.76643
H	269.763	1.25013	-1.78472
N	273.549	0.919183	-0.242839
C	274.734	1.24662	0.516322
H	273.602	0.966917	-1.23492
H	275.572	1.51922	-0.161532
H	275.054	0.379666	1.13863
H	274.539	2.10694	1.19685
