44
  This energy is 1.13768e-319 and Call times are: 29091
C	0.396408	3.20197	-1.31009
C	0.561276	1.73311	-1.39054
O	0.975574	1.19797	-2.40959
H	0.693771	3.65855	-2.2791
H	1.03997	3.61568	-0.505423
H	-0.66413	3.45743	-1.10286
N	0.228897	1.03848	-0.299955
C	0.334621	-0.396807	-0.225078
C	-0.578043	-0.873772	0.887931
O	-1.04571	-0.0791249	1.70135
H	-0.134983	1.48347	0.51399
H	-0.0254502	-0.824974	-1.15195
C	1.78832	-0.83999	0.0532485
H	2.15474	-0.398402	1.00448
H	1.87334	-1.9446	0.111375
H	2.44693	-0.483491	-0.768511
N	-0.870955	-2.18826	0.936042
C	-1.74071	-2.73189	1.95299
H	-0.488292	-2.81416	0.264434
H	-1.85681	-3.83068	1.82484
H	-2.75029	-2.26398	1.89766
H	-1.32607	-2.53916	2.96891
C	1387.21	2.67334	0.278932
C	1385.87	2.07147	0.447946
O	1384.98	2.66833	1.03569
H	1387.23	3.67572	0.75937
H	1387.45	2.78829	-0.80023
H	1387.98	2.03275	0.75807
N	1385.7	0.852281	-0.0680549
C	1384.45	0.137339	0.0157844
C	1384.74	-1.33733	-0.180297
O	1385.83	-1.70922	-0.615671
H	1386.44	0.364466	-0.51911
H	1384.04	0.261677	1.00977
C	1383.45	0.6266	-1.05429
H	1383.87	0.49821	-2.07274
H	1382.49	0.078293	-0.992469
H	1383.24	1.70833	-0.900479
N	1383.78	-2.21688	0.15948
C	1383.98	-3.64123	0.0187071
H	1382.91	-1.8965	0.516783
H	1383.07	-4.19594	0.348746
H	1384.84	-3.98286	0.633983
H	1384.18	-3.90677	-1.04343
