44
  This energy is 1.37459e-319 and Call times are: 78819
C	-1.39035	1.08777	3.00163
C	-1.43773	0.278917	1.7628
O	-2.33164	-0.534106	1.572
H	-2.25038	0.81535	3.65125
H	-1.45412	2.16859	2.75552
H	-0.446871	0.889463	3.55251
N	-0.455382	0.484543	0.88241
C	-0.365379	-0.225644	-0.368335
C	1.07148	-0.147087	-0.846367
O	1.86073	0.646638	-0.33753
H	0.2832	1.12876	1.06245
H	-0.598836	-1.269	-0.198118
C	-1.31189	0.380238	-1.42859
H	-1.07003	1.45082	-1.60025
H	-1.24523	-0.164316	-2.39284
H	-2.36106	0.317726	-1.06597
N	1.45092	-0.989772	-1.82713
C	2.80191	-0.995246	-2.338
H	0.799311	-1.62966	-2.22107
H	2.9156	-1.75651	-3.141
H	3.52788	-1.23083	-1.5264
H	3.06677	0.00140736	-2.75956
C	3739.56	0.496491	2.18918
C	3738.45	-0.324905	1.65345
O	3738.29	-1.48315	2.01305
H	3740.16	-0.110719	2.90686
H	3739.16	1.38544	2.7182
H	3740.23	0.827996	1.3636
N	3737.65	0.266303	0.762077
C	3736.53	-0.403105	0.15219
C	3736.19	0.330953	-1.13045
O	3736.66	1.44575	-1.35883
H	3737.81	1.20109	0.455412
H	3736.83	-1.4107	-0.113346
C	3735.31	-0.421205	1.094
H	3735.01	0.614044	1.36492
H	3734.44	-0.936038	0.627569
H	3735.57	-0.96063	2.03024
N	3735.39	-0.291243	-2.0118
C	3735.02	0.325283	-3.26498
H	3735.03	-1.19621	-1.81186
H	3734.35	-0.342426	-3.84967
H	3735.92	0.538125	-3.87901
H	3734.49	1.28829	-3.08804
