44
  This energy is 1.60641e-319 and Call times are: 67227
C	-2.05864	1.51062	2.36773
C	-1.85758	0.737519	1.1215
O	-2.80326	0.238735	0.527024
H	-3.14155	1.52805	2.61847
H	-1.70439	2.55412	2.23196
H	-1.50338	1.0381	3.20521
N	-0.597995	0.615177	0.696248
C	-0.243348	-0.106883	-0.499445
C	1.22165	-0.484751	-0.398271
O	1.94731	0.0329595	0.448618
H	0.166687	1.00146	1.20515
H	-0.817506	-1.02381	-0.540104
C	-0.485803	0.746287	-1.76453
H	0.10421	1.68647	-1.71918
H	-0.213905	0.193276	-2.68704
H	-1.56226	1.01751	-1.82643
N	1.68676	-1.41836	-1.25153
C	3.06479	-1.85	-1.22147
H	1.08205	-1.83073	-1.92496
H	3.25242	-2.62114	-2.00082
H	3.31816	-2.28658	-0.228273
H	3.74986	-0.991026	-1.40593
C	3188.28	-2.66008	2.18715
C	3188.83	-1.32302	1.87102
O	3189.35	-0.629202	2.73804
H	3188.42	-2.86632	3.27108
H	3188.82	-3.44073	1.60351
H	3187.2	-2.69399	1.94774
N	3188.73	-0.924826	0.600817
C	3189.22	0.349725	0.139557
C	3188.5	0.684637	-1.15307
O	3187.86	-0.173938	-1.75705
H	3188.29	-1.487	-0.090306
H	3188.96	1.10972	0.86598
C	3190.75	0.31455	-0.0949291
H	3191.01	-0.466642	-0.840171
H	3191.13	1.2944	-0.450009
H	3191.26	0.0670519	0.859037
N	3188.58	1.95476	-1.59752
C	3187.91	2.36907	-2.81253
H	3189.09	2.63666	-1.09077
H	3188.09	3.44893	-3.00967
H	3186.81	2.20482	-2.73659
H	3188.29	1.78605	-3.68391
