44
  This energy is 1.76332e-320 and Call times are: 1497
C	-0.471756	-2.51781	-2.35886
C	0.235292	-1.31626	-1.86129
O	1.24341	-0.900607	-2.41575
H	0.0640333	-2.91778	-3.24701
H	-1.50995	-2.25634	-2.65314
H	-0.497022	-3.30058	-1.57172
N	-0.284542	-0.726693	-0.782148
C	0.290073	0.450548	-0.181525
C	-0.20244	0.530754	1.25034
O	-1.14265	-0.163897	1.63152
H	-1.08952	-1.0919	-0.322182
H	1.36681	0.341363	-0.153388
C	-0.109714	1.72797	-0.953199
H	-1.21497	1.8365	-0.980691
H	0.331165	2.6363	-0.493487
H	0.25577	1.65629	-2.00078
N	0.440068	1.37002	2.08629
C	0.0491232	1.5041	3.47026
H	1.20324	1.91841	1.76061
H	0.696495	2.24302	3.99195
H	0.135435	0.527408	3.99929
H	-1.00798	1.84697	3.54865
C	79.4882	2.23417	2.65548
C	78.8681	1.05732	2.00606
O	78.071	0.350173	2.60684
H	79.1138	2.31764	3.69888
H	79.2226	3.16007	2.10323
H	80.5926	2.12148	2.67789
N	79.2322	0.815742	0.744533
C	78.7153	-0.291214	-0.0198666
C	79.685	-0.568603	-1.15219
O	80.5594	0.244875	-1.44444
H	79.9046	1.38225	0.275622
H	78.6856	-1.17079	0.610633
C	77.3127	0.0227167	-0.586457
H	77.3467	0.925994	-1.23225
H	76.9116	-0.827589	-1.17546
H	76.6121	0.225209	0.252809
N	79.5648	-1.74146	-1.80485
C	80.4508	-2.09734	-2.88863
H	78.8552	-2.38964	-1.54874
H	80.1902	-3.09866	-3.29693
H	81.508	-2.12594	-2.53852
H	80.3805	-1.35277	-3.71437
