44
  This energy is 3.26676e-320 and Call times are: 55929
C	-1.5205	-2.15855	-2.27043
C	-0.523154	-1.11887	-1.93048
O	0.330727	-0.774066	-2.73577
H	-1.33524	-2.52092	-3.30495
H	-2.54628	-1.73716	-2.21559
H	-1.43505	-3.01501	-1.56892
N	-0.608492	-0.592983	-0.706336
C	0.29015	0.427891	-0.229802
C	0.255206	0.40879	1.286
O	-0.627997	-0.200187	1.88677
H	-1.29041	-0.903061	-0.0492391
H	1.29809	0.181534	-0.538721
C	-0.116036	1.82373	-0.753028
H	-1.15081	2.07296	-0.434852
H	0.57391	2.61214	-0.388119
H	-0.0876052	1.82424	-1.86449
N	1.23464	1.06164	1.94211
C	1.2899	1.08821	3.38517
H	1.94442	1.54253	1.43794
H	2.16682	1.6767	3.73436
H	1.37558	0.0554259	3.79414
H	0.367476	1.55052	3.8054
C	2649.83	1.57792	-2.61902
C	2650.62	0.45371	-2.06844
O	2650.83	-0.55708	-2.72622
H	2649.5	1.32262	-3.64807
H	2650.45	2.49755	-2.66064
H	2648.94	1.76379	-1.9866
N	2651.09	0.606789	-0.825516
C	2651.87	-0.398549	-0.154151
C	2651.77	-0.145337	1.33777
O	2651.33	0.916942	1.76755
H	2650.89	1.42285	-0.289298
H	2651.44	-1.37154	-0.351239
C	2653.35	-0.354401	-0.606171
H	2653.79	0.645366	-0.403124
H	2653.95	-1.12731	-0.0912784
H	2653.4	-0.540129	-1.70089
N	2652.17	-1.13089	2.16609
C	2652.11	-0.984518	3.60148
H	2652.52	-1.98594	1.79887
H	2652.48	-1.90158	4.10798
H	2651.06	-0.805676	3.93004
H	2652.73	-0.121269	3.9376
