44
  This energy is 1.1201e-319 and Call times are: 103347
C	-2.29133	-0.654262	-2.53926
C	-0.996788	-0.119614	-2.0602
O	-0.145143	0.273319	-2.84556
H	-2.31082	-0.62827	-3.65048
H	-3.12786	-0.036187	-2.15065
H	-2.42027	-1.7043	-2.20201
N	-0.816779	-0.098837	-0.7375
C	0.389328	0.39244	-0.120425
C	0.471184	-0.194785	1.27518
O	-0.50654	-0.736349	1.78762
H	-1.50657	-0.448781	-0.109278
H	1.24302	0.0313702	-0.679814
C	0.396064	1.93579	-0.0486538
H	-0.481413	2.30281	0.52532
H	1.32343	2.31744	0.425812
H	0.334514	2.35367	-1.07712
N	1.65392	-0.119534	1.91663
C	1.82959	-0.661755	3.24378
H	2.43532	0.316304	1.48224
H	2.87077	-0.499807	3.6001
H	1.62282	-1.75648	3.25146
H	1.13282	-0.17374	3.96318
C	4891.58	0.63088	0.0393989
C	4892.73	-0.286516	0.155393
O	4892.58	-1.4479	0.51032
H	4890.65	0.0893893	0.323004
H	4891.48	0.991023	-1.0062
H	4891.71	1.49963	0.718396
N	4893.93	0.226504	-0.141232
C	4895.15	-0.541403	-0.0760248
C	4896.3	0.430446	0.042814
O	4896.14	1.62874	-0.181875
H	4894.04	1.18213	-0.401055
H	4895.13	-1.14768	0.820805
C	4895.32	-1.42567	-1.3308
H	4895.33	-0.800544	-2.24904
H	4896.26	-2.01842	-1.28381
H	4894.47	-2.13226	-1.4071
N	4897.5	-0.0640366	0.422547
C	4898.65	0.787612	0.57399
H	4897.61	-1.03555	0.606734
H	4899.54	0.194596	0.890513
H	4898.47	1.57317	1.34125
H	4898.9	1.29527	-0.387492
