44
  This energy is 8.40307e-320 and Call times are: 76719
C	-1.9088	2.41598	-1.62655
C	-1.51389	1.00842	-1.39411
O	-2.12239	0.085865	-1.91862
H	-2.78975	2.44319	-2.30407
H	-1.07399	2.97434	-2.1
H	-2.17954	2.9014	-0.665297
N	-0.471514	0.811084	-0.583627
C	0.0308752	-0.500688	-0.261621
C	0.822587	-0.392972	1.02711
O	1.15689	0.704416	1.46962
H	-0.0023048	1.56961	-0.139317
H	-0.805915	-1.16295	-0.0792262
C	0.928225	-1.05242	-1.39187
H	1.78528	-0.370244	-1.57681
H	1.31664	-2.06241	-1.14726
H	0.336962	-1.12541	-2.33061
N	1.12321	-1.53657	1.6735
C	1.86344	-1.53138	2.91374
H	0.837566	-2.41426	1.30296
H	2.01158	-2.56845	3.28763
H	1.31868	-0.95199	3.69399
H	2.86446	-1.06331	2.77209
C	3637.12	-0.847953	-3.37041
C	3636.94	-1.20991	-1.94594
O	3636.64	-2.34915	-1.61506
H	3636.93	-1.74315	-4.00263
H	3638.15	-0.491365	-3.54908
H	3636.4	-0.0510314	-3.65478
N	3637.12	-0.228799	-1.05831
C	3636.98	-0.426025	0.36273
C	3636.73	0.927543	0.999197
O	3636.93	1.96441	0.367036
H	3637.33	0.701977	-1.34219
H	3636.11	-1.04281	0.550526
C	3638.25	-1.07124	0.965264
H	3639.14	-0.436212	0.770185
H	3638.15	-1.22466	2.0593
H	3638.42	-2.06151	0.489956
N	3636.28	0.947687	2.26649
C	3636	2.18946	2.95022
H	3636.12	0.0977271	2.75878
H	3635.63	1.99671	3.98278
H	3635.22	2.77267	2.40593
H	3636.92	2.81591	3.01504
