44
  This energy is 1.25478e-319 and Call times are: 59457
C	-3.00774	0.785206	1.56942
C	-1.53675	0.620235	1.58304
O	-0.871678	0.954809	2.55373
H	-3.33543	1.23818	2.53031
H	-3.5023	-0.201726	1.45029
H	-3.3104	1.45305	0.735562
N	-0.988527	0.0969285	0.483964
C	0.428798	-0.125144	0.347215
C	0.745262	-0.217457	-1.13284
O	-0.153312	-0.358644	-1.96016
H	-1.5379	-0.144632	-0.311505
H	0.959041	0.731207	0.744177
C	0.867106	-1.42064	1.06602
H	0.320705	-2.29705	0.65678
H	1.95792	-1.5946	0.962851
H	0.6288	-1.34087	2.14907
N	2.03706	-0.117281	-1.50329
C	2.43239	-0.181975	-2.89099
H	2.74892	0.00384688	-0.819321
H	3.53572	-0.0820545	-2.99063
H	1.95222	0.636427	-3.47485
H	2.12607	-1.15351	-3.34208
C	2821.11	1.72119	2.56257
C	2820.96	0.538216	1.68655
O	2821.78	-0.367117	1.69368
H	2822.04	1.61716	3.15736
H	2820.25	1.79889	3.25774
H	2821.18	2.64515	1.9502
N	2819.88	0.523843	0.895535
C	2819.59	-0.558247	-0.0113818
C	2818.65	-0.0335013	-1.07806
O	2818.07	1.04235	-0.932901
H	2819.23	1.28101	0.877807
H	2820.51	-0.860708	-0.50154
C	2818.95	-1.75289	0.725732
H	2818.01	-1.4389	1.22799
H	2818.72	-2.58793	0.0303843
H	2819.64	-2.1273	1.50516
N	2818.49	-0.7763	-2.19103
C	2817.62	-0.351053	-3.26529
H	2818.97	-1.64061	-2.29282
H	2817.62	-1.09716	-4.09026
H	2817.96	0.62776	-3.67755
H	2816.58	-0.231352	-2.90209
