44
  This energy is 5.32109e-321 and Call times are: 19221
C	-2.97184	1.78023	0.353667
C	-1.53462	1.5759	0.643256
O	-0.888039	2.41279	1.25811
H	-3.29434	2.76005	0.768169
H	-3.57502	0.97518	0.82365
H	-3.14531	1.77932	-0.743078
N	-0.994501	0.441013	0.193077
C	0.390842	0.100098	0.396624
C	0.774299	-0.933041	-0.644925
O	-0.088138	-1.51627	-1.29905
H	-1.52474	-0.219493	-0.331823
H	0.998371	0.979889	0.226483
C	0.629041	-0.462438	1.81575
H	0.00374016	-1.36452	1.98714
H	1.69476	-0.725835	1.97592
H	0.343251	0.303355	2.56943
N	2.08704	-1.16806	-0.838534
C	2.54695	-2.12573	-1.81707
H	2.76983	-0.680689	-0.30422
H	3.65805	-2.17723	-1.8249
H	2.2021	-1.84118	-2.83754
H	2.15038	-3.14164	-1.5894
C	913.472	1.51742	-1.98218
C	914.825	0.949292	-1.78768
O	915.591	0.801378	-2.73039
H	913.322	1.74727	-3.05939
H	913.363	2.45414	-1.39617
H	912.7	0.787411	-1.65923
N	915.151	0.607818	-0.538857
C	916.431	0.0431375	-0.191561
C	916.276	-0.683469	1.13031
O	915.28	-0.509444	1.83051
H	914.508	0.706202	0.215973
H	916.706	-0.689527	-0.939326
C	917.515	1.13749	-0.0725626
H	917.228	1.88778	0.694928
H	918.501	0.706125	0.1946
H	917.618	1.66306	-1.0469
N	917.254	-1.53649	1.49295
C	917.187	-2.28137	2.72862
H	918.048	-1.66896	0.909241
H	918.086	-2.92622	2.84803
H	916.284	-2.93265	2.74649
H	917.133	-1.59098	3.6013
