44
  This energy is 1.31911e-319 and Call times are: 123297
C	0.054777	-3.43414	0.574273
C	0.245073	-2.0363	1.02262
O	0.480551	-1.77425	2.1941
H	0.155466	-4.11644	1.44617
H	0.822841	-3.70136	-0.181699
H	-0.956641	-3.56063	0.133842
N	0.139306	-1.09286	0.0839414
C	0.299051	0.311402	0.365629
C	-0.379126	1.0895	-0.745169
O	-0.712449	0.532898	-1.78964
H	-0.0816848	-1.31689	-0.861527
H	-0.212509	0.545126	1.2907
C	1.79151	0.701389	0.452842
H	2.31339	0.459636	-0.497583
H	1.91813	1.78198	0.669782
H	2.27713	0.123757	1.26933
N	-0.619516	2.39866	-0.534653
C	-1.27124	3.21695	-1.53057
H	-0.348604	2.82911	0.320071
H	-1.37662	4.26436	-1.17132
H	-2.28707	2.82144	-1.76056
H	-0.682784	3.22816	-2.4765
C	5842.14	1.63991	0.877026
C	5840.68	1.61167	0.690295
O	5839.98	2.55012	1.04353
H	5842.43	2.59659	1.36333
H	5842.66	1.5665	-0.10542
H	5842.46	0.796284	1.52424
N	5840.17	0.512037	0.126248
C	5838.76	0.337015	-0.12122
C	5838.49	-1.1489	-0.262356
O	5839.42	-1.94254	-0.41451
H	5840.75	-0.257865	-0.130559
H	5838.21	0.690802	0.738453
C	5838.32	1.08037	-1.40122
H	5838.89	0.715435	-2.28105
H	5837.23	0.947833	-1.59466
H	5838.52	2.16755	-1.28562
N	5837.21	-1.56315	-0.192816
C	5836.87	-2.96014	-0.304791
H	5836.48	-0.906166	-0.0621549
H	5835.76	-3.09783	-0.224589
H	5837.35	-3.55291	0.503028
H	5837.2	-3.37164	-1.28458
