44
  This energy is 3.58099e-320 and Call times are: 100323
C	2.8324	0.175244	2.01815
C	2.17828	0.175994	0.690248
O	2.81254	0.419015	-0.327172
H	3.90897	0.424784	1.8974
H	2.74636	-0.827819	2.48643
H	2.35972	0.932764	2.67821
N	0.871153	-0.0951027	0.672941
C	0.0964813	-0.131642	-0.541709
C	-1.36158	0.0562552	-0.170225
O	-1.73094	-0.0469057	0.998004
H	0.359673	-0.262773	1.51152
H	0.386153	0.701834	-1.16899
C	0.285922	-1.47024	-1.28963
H	-0.011551	-2.32316	-0.642988
H	-0.309059	-1.50169	-2.22547
H	1.35818	-1.59651	-1.5551
N	-2.22462	0.359849	-1.15967
C	-3.62987	0.568482	-0.899062
H	-1.90502	0.445979	-2.09758
H	-4.17326	0.806276	-1.84004
H	-3.77628	1.41265	-0.186897
H	-4.08633	-0.343927	-0.451478
C	4748.52	-1.9071	1.53306
C	4749.45	-1.63586	0.410456
O	4749.59	-2.43654	-0.504252
H	4748.04	-2.89588	1.37906
H	4747.74	-1.12481	1.57766
H	4749.08	-1.92552	2.49322
N	4750.12	-0.48284	0.460674
C	4751.06	-0.0783775	-0.557541
C	4751.98	0.959759	0.0464506
O	4751.71	1.49702	1.11838
H	4750.02	0.147788	1.22589
H	4751.66	-0.931962	-0.84021
C	4750.33	0.509187	-1.78811
H	4749.71	1.38426	-1.4944
H	4751.05	0.821506	-2.57414
H	4749.65	-0.260574	-2.22059
N	4753.11	1.25101	-0.621763
C	4754.06	2.21782	-0.117559
H	4753.32	0.800228	-1.4841
H	4754.93	2.31871	-0.809548
H	4754.45	1.90741	0.881011
H	4753.58	3.2174	-0.00746553
