44
  This energy is 2.55481e-320 and Call times are: 13929
C	1.10493	0.522623	3.26069
C	0.0245208	0.403765	2.25581
O	-1.1522	0.395854	2.59012
H	0.656683	0.588405	4.27588
H	1.70364	1.43851	3.07221
H	1.76765	-0.367248	3.2174
N	0.408706	0.30118	0.981352
C	-0.525425	0.179133	-0.109213
C	0.211799	-0.42443	-1.28881
O	1.43987	-0.484273	-1.2987
H	1.37122	0.279534	0.724376
H	-1.31056	-0.509793	0.175434
C	-1.11768	1.55192	-0.498847
H	-0.309442	2.2564	-0.789654
H	-1.83749	1.46157	-1.33819
H	-1.65403	1.98398	0.373966
N	-0.52713	-0.908173	-2.30664
C	0.0871601	-1.51162	-3.46624
H	-1.51996	-0.856893	-2.27669
H	-0.686632	-1.84568	-4.19212
H	0.697002	-2.39639	-3.17211
H	0.758163	-0.784726	-3.97865
C	667.63	0.0743344	-2.02723
C	666.944	0.328797	-0.740781
O	667.566	0.692111	0.247551
H	668.72	0.259902	-1.90513
H	667.236	0.7533	-2.81226
H	667.478	-0.980061	-2.34039
N	665.623	0.134184	-0.724889
C	664.817	0.340425	0.451576
C	663.53	-0.443767	0.278212
O	663.212	-0.894281	-0.820683
H	665.131	-0.189951	-1.52878
H	665.336	-0.0657618	1.31003
C	664.501	1.83825	0.66195
H	663.969	2.25187	-0.220872
H	663.881	2.00065	1.56706
H	665.452	2.4018	0.786453
N	662.768	-0.644125	1.37137
C	661.533	-1.38917	1.30488
H	663.047	-0.277607	2.2531
H	661.051	-1.44251	2.3062
H	661.719	-2.4286	0.949905
H	660.82	-0.905796	0.598288
