44
  This energy is 1.30779e-319 and Call times are: 65925
C	2.19826	0.329626	2.68051
C	1.06505	0.812413	1.85956
O	0.404917	1.78389	2.20154
H	2.299	0.97257	3.5818
H	3.1416	0.378552	2.09695
H	2.01801	-0.717157	3.00408
N	0.808291	0.128137	0.742327
C	-0.260865	0.476145	-0.159129
C	-0.591154	-0.751197	-0.986039
O	0.168753	-1.71758	-1.00788
H	1.33501	-0.679091	0.489573
H	-1.14029	0.729539	0.419215
C	0.141401	1.64701	-1.08346
H	1.04429	1.38389	-1.67479
H	-0.679614	1.91765	-1.77877
H	0.381999	2.53951	-0.465635
N	-1.75099	-0.74907	-1.67218
C	-2.15475	-1.87825	-2.47723
H	-2.35581	0.0396664	-1.63598
H	-3.13605	-1.68369	-2.96349
H	-2.24992	-2.79402	-1.84989
H	-1.40292	-2.08199	-3.27374
C	3125.4	-1.27995	2.92065
C	3126.56	-1.02499	2.03568
O	3127.7	-1.27128	2.40109
H	3125.76	-1.69298	3.88783
H	3124.71	-2.01451	2.44975
H	3124.85	-0.334226	3.11564
N	3126.29	-0.511497	0.833984
C	3127.31	-0.20934	-0.137343
C	3126.74	0.799776	-1.11461
O	3125.53	1.02445	-1.15214
H	3125.36	-0.288082	0.559079
H	3128.14	0.257327	0.365791
C	3127.76	-1.47993	-0.890149
H	3126.9	-1.95649	-1.40459
H	3128.55	-1.25089	-1.63874
H	3128.18	-2.21159	-0.163125
N	3127.6	1.45053	-1.91763
C	3127.15	2.43729	-2.87127
H	3128.58	1.25986	-1.86717
H	3128.01	2.85783	-3.43799
H	3126.63	3.27456	-2.35346
H	3126.44	1.9844	-3.59887
