44
  This energy is 3.6966e-320 and Call times are: 100365
C	0.0109102	3.48214	-0.0262156
C	-0.521999	2.17873	-0.482649
O	-1.521	2.11504	-1.18581
H	-0.633582	4.29949	-0.416649
H	1.04429	3.62699	-0.40565
H	0.0152092	3.52668	1.08326
N	0.142132	1.09278	-0.0801406
C	-0.253901	-0.244642	-0.442461
C	0.356939	-1.20021	0.564014
O	1.24506	-0.825813	1.32749
H	0.937657	1.15632	0.51655
H	-1.33045	-0.326654	-0.362523
C	0.217064	-0.603611	-1.8695
H	1.32186	-0.517778	-1.94814
H	-0.0863427	-1.63271	-2.15176
H	-0.236332	0.104296	-2.59713
N	-0.123672	-2.45859	0.602712
C	0.388434	-3.43467	1.53609
H	-0.847516	-2.7403	-0.0185163
H	-0.132757	-4.40937	1.41128
H	0.240884	-3.09017	2.58527
H	1.47895	-3.59709	1.37617
C	4755.52	1.88647	-1.48722
C	4754.46	1.70061	-0.468695
O	4754.31	2.50807	0.437139
H	4756.09	2.81783	-1.26454
H	4755.07	1.97344	-2.4974
H	4756.22	1.02717	-1.4702
N	4753.7	0.609942	-0.594832
C	4752.63	0.292285	0.317626
C	4752.35	-1.19346	0.206099
O	4752.81	-1.85074	-0.728973
H	4753.86	-0.0553886	-1.32028
H	4752.96	0.48933	1.32949
C	4751.36	1.10081	-0.00756005
H	4751.02	0.896787	-1.04656
H	4750.53	0.858764	0.693219
H	4751.58	2.18743	0.0764965
N	4751.61	-1.76355	1.17596
C	4751.3	-3.17426	1.15986
H	4751.26	-1.21608	1.92817
H	4750.68	-3.45065	2.0403
H	4752.23	-3.78167	1.18495
H	4750.74	-3.44285	0.236124
