44
  This energy is 1.30937e-319 and Call times are: 84825
C	-3.23247	-1.14053	-0.613577
C	-2.10835	-0.212976	-0.872816
O	-2.14939	0.588083	-1.79646
H	-4.03104	-0.969677	-1.36786
H	-3.65057	-0.961285	0.399281
H	-2.88586	-2.19272	-0.689167
N	-1.05991	-0.307763	-0.0517492
C	0.108594	0.526406	-0.176609
C	1.25567	-0.169796	0.529623
O	1.04658	-1.11744	1.28467
H	-1.02622	-0.984289	0.679081
H	0.370024	0.611333	-1.22376
C	-0.127839	1.92205	0.442568
H	-0.39648	1.83116	1.51667
H	0.769875	2.567	0.348019
H	-0.971188	2.42111	-0.0826448
N	2.50381	0.273605	0.28158
C	3.65872	-0.33531	0.899314
H	2.65289	1.03717	-0.338083
H	4.5931	0.171063	0.571023
H	3.72891	-1.41275	0.624649
H	3.59339	-0.265523	2.00929
C	4019.95	-3.1828	1.41189
C	4020.37	-2.23357	0.356222
O	4021.17	-2.56236	-0.508604
H	4020.47	-4.15218	1.26312
H	4018.85	-3.35432	1.35901
H	4020.21	-2.7822	2.41348
N	4019.83	-1.01248	0.40941
C	4020.14	0.0198729	-0.547323
C	4019.8	1.35632	0.0827391
O	4019.12	1.41396	1.10483
H	4019.2	-0.74774	1.1359
H	4021.21	0.0105067	-0.743102
C	4019.34	-0.169156	-1.85668
H	4018.25	-0.159714	-1.65206
H	4019.58	0.623971	-2.59563
H	4019.6	-1.15217	-2.30771
N	4020.29	2.46683	-0.504698
C	4020.03	3.7823	0.0308532
H	4020.84	2.39889	-1.32718
H	4020.51	4.56495	-0.593406
H	4020.42	3.86922	1.06964
H	4018.93	3.98417	0.0582626
