44
  This energy is 7.47917e-320 and Call times are: 57525
C	1.24219	2.42541	2.16806
C	0.939318	1.01736	1.82619
O	1.3157	0.0980685	2.54014
H	1.8299	2.45612	3.1112
H	0.300202	2.99505	2.31295
H	1.83779	2.89649	1.35794
N	0.24531	0.81578	0.703654
C	-0.125823	-0.497009	0.239245
C	-0.414254	-0.401389	-1.24632
O	-0.560807	0.692116	-1.78909
H	-0.0304538	1.57126	0.115324
H	0.714898	-1.16672	0.368656
C	-1.36816	-1.02834	0.988521
H	-2.22854	-0.338551	0.85418
H	-1.65657	-2.03906	0.633493
H	-1.14436	-1.09261	2.07569
N	-0.480963	-1.55152	-1.94543
C	-0.739248	-1.55809	-3.3665
H	-0.35247	-2.42599	-1.48935
H	-0.757603	-2.59906	-3.75803
H	0.0504664	-0.992354	-3.91197
H	-1.72148	-1.08208	-3.58968
C	2726.68	-2.98685	1.58983
C	2727.2	-2.23102	0.428621
O	2727.7	-2.80633	-0.525667
H	2726.84	-4.07415	1.42186
H	2725.59	-2.79789	1.71266
H	2727.21	-2.68391	2.51485
N	2727.09	-0.901746	0.489365
C	2727.55	-0.0311494	-0.56264
C	2727.76	1.34901	0.0310073
O	2727.3	1.63052	1.13867
H	2726.7	-0.443358	1.28511
H	2728.51	-0.383468	-0.915442
C	2726.53	0.0355357	-1.72348
H	2725.55	0.396708	-1.35788
H	2726.88	0.704919	-2.53531
H	2726.39	-0.981773	-2.14894
N	2728.47	2.2394	-0.687999
C	2728.72	3.57377	-0.19816
H	2728.83	1.99019	-1.57912
H	2729.32	4.15426	-0.933614
H	2729.29	3.53822	0.762648
H	2727.77	4.11685	-0.0183492
