44
  This energy is 8.34032e-320 and Call times are: 57861
C	0.126816	3.38916	0.789701
C	0.0983495	1.96176	1.18074
O	0.261332	1.62131	2.34436
H	0.315997	4.01297	1.69022
H	-0.847656	3.68395	0.346613
H	0.937179	3.56793	0.0519357
N	-0.107204	1.0817	0.198083
C	-0.161514	-0.340944	0.421613
C	0.116612	-1.03111	-0.899581
O	0.086895	-0.402273	-1.95576
H	-0.20955	1.36974	-0.750333
H	0.626098	-0.619231	1.1103
C	-1.54145	-0.772485	0.966283
H	-2.34716	-0.484859	0.257613
H	-1.58668	-1.86732	1.13967
H	-1.73374	-0.259184	1.93359
N	0.416605	-2.3445	-0.867755
C	0.70758	-3.08259	-2.07471
H	0.442605	-2.83407	-0.00237718
H	0.928125	-4.14746	-1.84093
H	1.59042	-2.64843	-2.59753
H	-0.158798	-3.04928	-2.77432
C	2740.11	-0.76535	0.128984
C	2741.22	0.164192	-0.16248
O	2741.02	1.24051	-0.708306
H	2739.15	-0.318358	-0.226843
H	2740.03	-0.944279	1.22237
H	2740.27	-1.73182	-0.393498
N	2742.44	-0.241781	0.196622
C	2743.62	0.551821	-0.0203089
C	2744.82	-0.37868	0.00872105
O	2744.71	-1.52601	0.437926
H	2742.59	-1.13337	0.614189
H	2743.57	0.994032	-1.00728
C	2743.77	1.64474	1.06137
H	2743.82	1.18763	2.07267
H	2744.68	2.25777	0.89726
H	2742.89	2.319	1.03054
N	2745.99	0.090847	-0.47085
C	2747.18	-0.726983	-0.494489
H	2746.05	1.0198	-0.820429
H	2748.04	-0.162007	-0.923266
H	2747.02	-1.63955	-1.11258
H	2747.45	-1.05182	0.535298
