44
  This energy is 9.40306e-320 and Call times are: 64371
C	-1.4276	1.68971	2.68942
C	-1.49838	0.709776	1.58221
O	-2.47302	-0.0159513	1.44115
H	-2.3535	1.62061	3.3008
H	-1.34087	2.71965	2.28379
H	-0.552174	1.47294	3.33717
N	-0.445357	0.663744	0.762826
C	-0.367073	-0.23683	-0.359522
C	1.09525	-0.397067	-0.727185
O	1.9441	0.370791	-0.278108
H	0.355104	1.23981	0.905469
H	-0.738765	-1.20792	-0.058035
C	-1.16313	0.301543	-1.5693
H	-0.779633	1.29818	-1.87551
H	-1.10511	-0.389535	-2.43522
H	-2.23238	0.415587	-1.2867
N	1.4269	-1.41886	-1.54078
C	2.79576	-1.65688	-1.93543
H	0.726384	-2.03363	-1.888
H	2.86336	-2.54105	-2.60693
H	3.43498	-1.84519	-1.04258
H	3.20834	-0.774046	-2.47541
C	3055.17	-1.62081	1.97281
C	3054.16	-0.555991	1.75686
O	3053.82	0.183763	2.66853
H	3055.5	-1.60396	3.03406
H	3056.05	-1.45287	1.31904
H	3054.73	-2.61498	1.74961
N	3053.66	-0.458538	0.524968
C	3052.67	0.527039	0.160344
C	3051.96	0.038414	-1.0887
O	3052.42	-0.890464	-1.74945
H	3053.92	-1.08589	-0.201858
H	3051.93	0.596076	0.950164
C	3053.32	1.90364	-0.101726
H	3054.08	1.82903	-0.912071
H	3052.57	2.66493	-0.382578
H	3053.84	2.24994	0.820314
N	3050.81	0.642988	-1.42996
C	3050.06	0.237339	-2.59618
H	3050.45	1.38809	-0.878362
H	3049.14	0.855223	-2.70817
H	3049.75	-0.831319	-2.51541
H	3050.67	0.352443	-3.51809
