44
  This energy is 4.74303e-320 and Call times are: 38331
C	1.35031	3.18625	0.38807
C	0.667582	2.1516	-0.421
O	0.219396	2.40934	-1.52969
H	1.35707	4.14597	-0.172961
H	2.39842	2.88213	0.592488
H	0.814919	3.33563	1.34931
N	0.567538	0.939192	0.128921
C	-0.0689728	-0.170182	-0.535134
C	-0.463187	-1.18246	0.522751
O	-0.0127878	-1.10645	1.66433
H	0.91092	0.74936	1.04488
H	-0.976636	0.178489	-1.01121
C	0.874713	-0.823055	-1.5697
H	1.80512	-1.17901	-1.07801
H	0.387707	-1.67754	-2.08299
H	1.15707	-0.0710132	-2.33837
N	-1.33611	-2.14684	0.170635
C	-1.77823	-3.14705	1.11419
H	-1.69476	-2.1872	-0.756172
H	-2.49253	-3.85185	0.634328
H	-2.28693	-2.66992	1.983
H	-0.912929	-3.7332	1.5
C	1819.52	2.20901	2.61969
C	1819.54	0.851213	2.03037
O	1820.08	-0.0823041	2.60818
H	1820.05	2.19327	3.59417
H	1818.47	2.53911	2.78939
H	1820.03	2.92693	1.94221
N	1818.94	0.712151	0.843788
C	1818.88	-0.546373	0.144751
C	1818.62	-0.252407	-1.32147
O	1818.27	0.865864	-1.68598
H	1818.53	1.48648	0.369734
H	1819.83	-1.04177	0.221312
C	1817.75	-1.44409	0.706783
H	1816.77	-0.932529	0.627285
H	1817.7	-2.41402	0.170885
H	1817.95	-1.65112	1.78163
N	1818.83	-1.25072	-2.20316
C	1818.63	-1.06031	-3.6206
H	1819.13	-2.14656	-1.88919
H	1818.85	-1.99764	-4.17832
H	1819.3	-0.257975	-4.00843
H	1817.57	-0.763944	-3.83128
