44
  This energy is 1.02494e-319 and Call times are: 90117
C	-1.26316	-1.37437	-2.93967
C	-0.474293	-0.353329	-2.21416
O	0.202023	0.469104	-2.8164
H	-1.11373	-1.24496	-4.03365
H	-2.34299	-1.25907	-2.70837
H	-0.930006	-2.39306	-2.64944
N	-0.541075	-0.389125	-0.881261
C	0.169704	0.538382	-0.0378457
C	0.295175	-0.0854321	1.33851
O	-0.375717	-1.06872	1.64652
H	-1.07254	-1.08231	-0.401703
H	1.16972	0.674906	-0.42952
C	-0.569309	1.89184	0.0576646
H	-1.59507	1.748	0.459206
H	-0.0246564	2.60843	0.706221
H	-0.655772	2.3379	-0.957076
N	1.17949	0.46269	2.19499
C	1.37574	-0.0708937	3.52275
H	1.71822	1.25378	1.92447
H	2.14223	0.517495	4.07368
H	1.71578	-1.13072	3.47396
H	0.425436	-0.0395873	4.10337
C	4269.57	1.52938	2.90272
C	4269.79	0.938718	1.56355
O	4270.88	0.998146	1.0188
H	4270.51	1.99422	3.25971
H	4269.26	0.741579	3.62233
H	4268.78	2.3102	2.8514
N	4268.73	0.351101	0.993093
C	4268.79	-0.26831	-0.306793
C	4267.38	-0.351681	-0.847547
O	4266.41	-0.167525	-0.110416
H	4267.84	0.334785	1.43453
H	4269.36	0.366154	-0.973424
C	4269.42	-1.67991	-0.229573
H	4268.83	-2.32793	0.455657
H	4269.46	-2.15966	-1.22878
H	4270.45	-1.60527	0.169077
N	4267.23	-0.611489	-2.16101
C	4265.92	-0.697807	-2.76712
H	4268.02	-0.750418	-2.74239
H	4266	-0.920326	-3.85372
H	4265.36	0.262265	-2.64765
H	4265.32	-1.50436	-2.28946
