44
  This energy is 2.40264e-320 and Call times are: 7797
C	1.80016	-2.70545	-1.25143
C	1.20977	-1.3558	-1.39663
O	1.4326	-0.670946	-2.38547
H	2.42809	-2.9293	-2.14107
H	0.996929	-3.46844	-1.17736
H	2.43621	-2.74933	-0.342335
N	0.435307	-0.93626	-0.393354
C	-0.209215	0.352695	-0.389772
C	-0.545913	0.701251	1.04702
O	-0.501	-0.154708	1.92858
H	0.284957	-1.49178	0.420114
H	0.488657	1.09606	-0.753713
C	-1.49341	0.341842	-1.24875
H	-2.20683	-0.422342	-0.873025
H	-1.99213	1.33283	-1.24831
H	-1.23343	0.0840696	-2.29857
N	-0.871881	1.97999	1.32012
C	-1.19599	2.40727	2.66122
H	-0.895655	2.65944	0.594163
H	-1.43801	3.49277	2.68041
H	-0.33822	2.22722	3.34901
H	-2.07515	1.84499	3.05122
C	374.71	-1.67032	2.85463
C	375.605	-1.54451	1.68187
O	376.55	-2.30486	1.52263
H	375.056	-2.51315	3.49167
H	373.671	-1.87408	2.52266
H	374.73	-0.735455	3.45344
N	375.324	-0.560392	0.824617
C	376.102	-0.312075	-0.36269
C	375.852	1.12037	-0.792549
O	374.918	1.76488	-0.318767
H	374.569	0.0706522	0.980654
H	377.153	-0.40393	-0.120129
C	375.717	-1.28328	-1.50093
H	374.638	-1.18687	-1.74675
H	376.314	-1.09494	-2.41661
H	375.904	-2.32913	-1.17313
N	376.699	1.6608	-1.68995
C	376.547	3.02172	-2.1491
H	377.453	1.12528	-2.05625
H	377.34	3.27947	-2.88547
H	376.616	3.73442	-1.29557
H	375.556	3.16312	-2.63727
