44
  This energy is 7.22324e-321 and Call times are: 124683
C	2.87227	0.0274899	-1.96861
C	2.19708	0.0308191	-0.651296
O	2.835	-0.0789408	0.386737
H	3.96751	-0.091416	-1.81966
H	2.68347	0.985217	-2.49769
H	2.50006	-0.815957	-2.58748
N	0.867738	0.153182	-0.66661
C	0.0707659	0.173245	0.533915
C	-1.34973	-0.199503	0.156426
O	-1.70592	-0.207414	-1.02039
H	0.356829	0.212556	-1.52006
H	0.439868	-0.583959	1.21397
C	0.0948466	1.56623	1.20185
H	-0.283813	2.3407	0.501188
H	-0.517697	1.58517	2.12662
H	1.14095	1.82808	1.47247
N	-2.19212	-0.539997	1.15164
C	-3.55994	-0.920848	0.886723
H	-1.88288	-0.534325	2.09693
H	-4.09119	-1.16284	1.83354
H	-3.5973	-1.81647	0.225129
H	-4.10703	-0.0936366	0.37918
C	5905.33	-0.432557	0.906565
C	5904.24	0.371699	0.319892
O	5904.41	1.53838	-0.0036758
H	5906.25	0.194585	0.985242
H	5905.55	-1.30868	0.260794
H	5905.05	-0.783404	1.92117
N	5903.06	-0.24449	0.173619
C	5901.9	0.405883	-0.382202
C	5900.68	-0.361928	0.0706822
O	5900.78	-1.48095	0.568778
H	5902.93	-1.18643	0.46798
H	5901.83	1.4071	0.0236294
C	5901.97	0.444884	-1.92547
H	5902.04	-0.583855	-2.33842
H	5901.07	0.945138	-2.35673
H	5902.87	1.00898	-2.24441
N	5899.48	0.235114	-0.073086
C	5898.26	-0.414526	0.340747
H	5899.41	1.14394	-0.471836
H	5897.38	0.23604	0.138486
H	5898.28	-0.640634	1.43138
H	5898.12	-1.37411	-0.207637
