44
  This energy is 4.77218e-320 and Call times are: 44295
C	2.09522	1.69842	-2.20262
C	0.7626	1.19415	-1.80132
O	-0.244194	1.50233	-2.42412
H	1.98679	2.35361	-3.09416
H	2.76389	0.850024	-2.45937
H	2.54641	2.28739	-1.3765
N	0.727607	0.398748	-0.729651
C	-0.49366	-0.169994	-0.217921
C	-0.258163	-0.553342	1.23012
O	0.880853	-0.599303	1.69095
H	1.55102	0.178556	-0.213464
H	-1.26854	0.585852	-0.236251
C	-0.921182	-1.41082	-1.0332
H	-0.123678	-2.18392	-1.01282
H	-1.86129	-1.85116	-0.641952
H	-1.08942	-1.11698	-2.09221
N	-1.3389	-0.817687	1.99047
C	-1.21284	-1.17945	3.3831
H	-2.25272	-0.768126	1.60097
H	-2.21328	-1.35924	3.83481
H	-0.710461	-0.366787	3.9562
H	-0.605768	-2.10689	3.49489
C	2100.5	2.90592	0.652386
C	2101.74	2.20727	0.255322
O	2102.71	2.82863	-0.147308
H	2100.63	4.00058	0.511178
H	2100.27	2.70629	1.72088
H	2099.65	2.56293	0.0245425
N	2101.73	0.876107	0.356739
C	2102.86	0.0574629	0.00840919
C	2102.36	-1.34776	-0.257139
O	2101.22	-1.68252	0.0784442
H	2100.92	0.379454	0.658498
H	2103.3	0.430339	-0.910582
C	2103.91	0.0398752	1.14132
H	2103.46	-0.342552	2.08276
H	2104.79	-0.589437	0.876344
H	2104.27	1.07514	1.32698
N	2103.19	-2.20044	-0.889693
C	2102.79	-3.55487	-1.19552
H	2104.1	-1.90842	-1.15956
H	2103.61	-4.09775	-1.715
H	2101.89	-3.56126	-1.85551
H	2102.54	-4.11025	-0.263437
