44
  This energy is 3.36706e-320 and Call times are: 49839
C	2.87381	-1.89588	0.522484
C	2.19109	-0.601562	0.299242
O	2.80101	0.45629	0.372995
H	3.94528	-1.71084	0.753912
H	2.80673	-2.52604	-0.389228
H	2.40892	-2.43162	1.37677
N	0.886326	-0.659336	0.02245
C	0.0858741	0.514392	-0.219349
C	-1.36539	0.146091	0.0203155
O	-1.70844	-1.03117	0.110874
H	0.394621	-1.52556	-0.00610477
H	0.354574	1.2778	0.49974
C	0.270793	1.03381	-1.66265
H	-0.00511573	0.247907	-2.39774
H	-0.344022	1.93761	-1.85219
H	1.33811	1.29902	-1.82588
N	-2.25228	1.15225	0.150896
C	-3.65334	0.89791	0.392848
H	-1.95385	2.09849	0.0815697
H	-4.21904	1.85266	0.468212
H	-3.79167	0.332638	1.34289
H	-4.09198	0.29475	-0.43478
C	2363.84	0.429845	3.42703
C	2363.93	-0.386436	2.19536
O	2364.49	-1.47749	2.19807
H	2364.34	-0.108452	4.26122
H	2362.78	0.601411	3.69654
H	2364.35	1.40712	3.27586
N	2363.38	0.13709	1.09625
C	2363.39	-0.537146	-0.177404
C	2363.18	0.505938	-1.25777
O	2362.79	1.63765	-0.972246
H	2362.96	1.03968	1.10022
H	2364.36	-0.982595	-0.334999
C	2362.28	-1.60951	-0.251559
H	2361.28	-1.14919	-0.0887884
H	2362.28	-2.13072	-1.2309
H	2362.45	-2.36694	0.545579
N	2363.45	0.152644	-2.52924
C	2363.3	1.08292	-3.62267
H	2363.77	-0.765827	-2.73909
H	2363.57	0.604185	-4.58898
H	2363.95	1.97487	-3.47734
H	2362.24	1.4336	-3.69038
