44
  This energy is 1.21525e-319 and Call times are: 47109
C	-2.74827	1.99008	-0.782787
C	-1.60812	1.13211	-1.17669
O	-1.44377	0.793574	-2.34068
H	-3.35842	2.22564	-1.68173
H	-2.37817	2.93908	-0.340925
H	-3.38676	1.46259	-0.043172
N	-0.78593	0.751426	-0.196151
C	0.36686	-0.0832188	-0.422582
C	0.742193	-0.727463	0.897763
O	0.268346	-0.31601	1.95512
H	-0.947005	1.00986	0.75264
H	0.0983534	-0.875013	-1.11036
C	1.5561	0.7368	-0.970656
H	1.82847	1.54861	-0.262914
H	2.44538	0.0971751	-1.14628
H	1.26802	1.20449	-1.93731
N	1.591	-1.77359	0.863905
C	1.99582	-2.45753	2.06994
H	1.95802	-2.09619	-0.00238564
H	2.69745	-3.28791	1.83447
H	1.11102	-2.88464	2.59525
H	2.50578	-1.75481	2.76801
C	2238.7	2.50626	-0.273235
C	2237.75	1.54407	-0.87363
O	2237.52	1.54806	-2.07512
H	2239.11	3.16535	-1.07018
H	2239.54	1.96343	0.208984
H	2238.19	3.13411	0.482997
N	2237.16	0.688269	-0.0338575
C	2236.22	-0.306665	-0.467921
C	2235.39	-0.71984	0.735021
O	2235.74	-0.418454	1.87346
H	2237.34	0.714173	0.946998
H	2235.54	0.138987	-1.19051
C	2236.93	-1.53752	-1.0711
H	2237.62	-1.99182	-0.327363
H	2236.2	-2.30552	-1.4065
H	2237.53	-1.22137	-1.95063
N	2234.25	-1.40522	0.506867
C	2233.4	-1.83025	1.58968
H	2233.98	-1.63331	-0.422069
H	2232.51	-2.38054	1.19907
H	2233.03	-0.952159	2.17164
H	2233.95	-2.50221	2.28638
