44
  This energy is 1.52034e-319 and Call times are: 98727
C	-1.77593	-2.89928	-0.752594
C	-0.508999	-2.14322	-0.632339
O	0.573302	-2.69642	-0.770481
H	-1.54807	-3.96628	-0.96578
H	-2.38847	-2.48974	-1.58319
H	-2.35046	-2.83695	0.195552
N	-0.619229	-0.840524	-0.361769
C	0.522379	0.0267687	-0.215617
C	0.0841936	1.24458	0.574429
O	-1.10897	1.48357	0.75072
H	-1.50582	-0.407467	-0.222653
H	1.28124	-0.4849	0.362656
C	1.08086	0.457934	-1.59014
H	0.299554	0.981933	-2.18099
H	1.96007	1.1257	-1.48128
H	1.3972	-0.443145	-2.15947
N	1.04646	2.03495	1.08955
C	0.724295	3.20962	1.86579
H	2.00642	1.82071	0.941871
H	1.65083	3.72706	2.19901
H	0.132842	2.9338	2.76875
H	0.120214	3.92568	1.26286
C	4678.84	-1.44734	-2.50343
C	4678.17	-1.49603	-1.18504
O	4678.12	-2.53373	-0.539255
H	4679.24	-2.45585	-2.75095
H	4679.68	-0.725823	-2.4768
H	4678.12	-1.14237	-3.28979
N	4677.63	-0.355322	-0.753743
C	4676.94	-0.244682	0.508606
C	4676.03	0.969897	0.441828
O	4676.16	1.80005	-0.456231
H	4677.65	0.476278	-1.30224
H	4676.31	-1.11591	0.645216
C	4677.94	-0.100466	1.68014
H	4678.58	0.793905	1.53643
H	4677.41	-0.0151883	2.65367
H	4678.59	-0.995819	1.7175
N	4675.08	1.09029	1.38492
C	4674.16	2.20719	1.3947
H	4674.99	0.404231	2.0992
H	4673.45	2.12739	2.24852
H	4673.57	2.23898	0.450766
H	4674.72	3.16913	1.4876
