44
  This energy is 3.3053e-321 and Call times are: 105489
C	2.3652	-1.96514	-1.63407
C	1.34427	-1.7627	-0.58149
O	0.972745	-2.68904	0.125879
H	2.67854	-3.03174	-1.64153
H	3.25391	-1.33094	-1.43207
H	1.94562	-1.70685	-2.62914
N	0.856994	-0.525898	-0.458035
C	-0.140945	-0.172957	0.519911
C	-0.819328	1.1008	0.0545309
O	-0.331178	1.77973	-0.84691
H	1.14651	0.213795	-1.05968
H	-0.891791	-0.952174	0.553441
C	0.488762	0.0395726	1.91469
H	1.25905	0.839148	1.8765
H	-0.276886	0.311315	2.67015
H	0.983452	-0.900197	2.24372
N	-1.97952	1.44388	0.648038
C	-2.70274	2.6332	0.262492
H	-2.36199	0.877544	1.37069
H	-3.63	2.74286	0.866979
H	-2.989	2.58753	-0.813244
H	-2.07549	3.54128	0.414587
C	4993.68	2.59132	0.687566
C	4994.02	1.30715	0.0345461
O	4993.17	0.651885	-0.553189
H	4992.6	2.79994	0.545947
H	4994.27	3.41789	0.235248
H	4993.89	2.53678	1.77532
N	4995.29	0.911464	0.130666
C	4995.77	-0.314435	-0.452762
C	4997.05	-0.698168	0.263352
O	4997.64	0.108719	0.985606
H	4995.97	1.43977	0.637065
H	4995.05	-1.09876	-0.274129
C	4996.04	-0.150624	-1.96584
H	4996.78	0.655236	-2.14551
H	4996.41	-1.09274	-2.41829
H	4995.09	0.131605	-2.47877
N	4997.51	-1.95447	0.0954204
C	4998.72	-2.41321	0.747028
H	4997.02	-2.5948	-0.487433
H	4998.93	-3.47287	0.482694
H	4998.61	-2.34155	1.85427
H	4999.59	-1.79431	0.438937
