44
  This energy is 4.59086e-320 and Call times are: 8637
C	3.08719	-1.4933	-0.604509
C	2.23638	-0.494392	0.0806912
O	2.68134	0.204697	0.980566
H	4.10668	-1.47297	-0.161689
H	3.16061	-1.25544	-1.68657
H	2.66066	-2.51067	-0.478102
N	0.970301	-0.40937	-0.334269
C	0.0216647	0.51437	0.234609
C	-1.37127	0.00151661	-0.0751528
O	-1.5439	-0.882804	-0.911819
H	0.611896	-1.0047	-1.04845
H	0.138247	0.520189	1.31092
C	0.205044	1.93573	-0.342641
H	0.0854537	1.92597	-1.44705
H	-0.523718	2.64958	0.0933616
H	1.2296	2.29952	-0.11007
N	-2.40061	0.533477	0.612942
C	-3.76063	0.0991465	0.39408
H	-2.23962	1.24309	1.291
H	-4.46225	0.656197	1.05337
H	-3.86529	-0.988708	0.610552
H	-4.06267	0.271165	-0.664391
C	417.512	-1.60714	-2.57136
C	416.289	-0.993168	-2.00662
O	415.291	-0.824215	-2.69347
H	417.341	-1.847	-3.64333
H	417.756	-2.5442	-2.02787
H	418.366	-0.901819	-2.49259
N	416.345	-0.635071	-0.721681
C	415.236	-0.0262798	-0.0314346
C	415.784	0.701008	1.18083
O	416.932	0.497112	1.56994
H	417.173	-0.751321	-0.180604
H	414.78	0.711646	-0.679525
C	414.198	-1.08319	0.407624
H	414.669	-1.839	1.07182
H	413.342	-0.617819	0.939287
H	413.805	-1.60965	-0.489265
N	414.977	1.58797	1.79564
C	415.417	2.33605	2.95019
H	414.053	1.74416	1.46127
H	414.61	3.01114	3.31208
H	416.308	2.95682	2.70004
H	415.698	1.64837	3.78056
