44
  This energy is 8.28054e-321 and Call times are: 86295
C	2.28156	-0.646478	-2.55004
C	0.898196	-0.458054	-2.05809
O	-0.0473337	-0.408262	-2.83268
H	2.2704	-0.71737	-3.65941
H	2.71126	-1.58215	-2.13448
H	2.91485	0.215296	-2.25132
N	0.749521	-0.341513	-0.736471
C	-0.533609	-0.15406	-0.107769
C	-0.296822	0.445652	1.26464
O	0.827799	0.453631	1.76163
H	1.53083	-0.354549	-0.118147
H	-1.107	0.560535	-0.684532
C	-1.29747	-1.49085	0.0211891
H	-0.706096	-2.22181	0.612869
H	-2.28598	-1.35012	0.50474
H	-1.46359	-1.92047	-0.990729
N	-1.35468	0.98437	1.90239
C	-1.22264	1.5887	3.20759
H	-2.2553	0.974499	1.48048
H	-2.20383	1.97243	3.56434
H	-0.504158	2.43958	3.1757
H	-0.84609	0.846438	3.94815
C	4087.51	-2.20479	-2.45423
C	4086.77	-0.998578	-2.02957
O	4086.29	-0.228017	-2.85118
H	4087.55	-2.24488	-3.56474
H	4087.01	-3.11898	-2.07594
H	4088.55	-2.16868	-2.06595
N	4086.66	-0.80365	-0.713624
C	4085.96	0.323786	-0.147153
C	4086.46	0.514534	1.27193
O	4087.12	-0.362378	1.83068
H	4087.07	-1.42311	-0.0545682
H	4086.22	1.21356	-0.70826
C	4084.43	0.0986947	-0.147011
H	4084.17	-0.815271	0.428919
H	4083.89	0.964979	0.288364
H	4084.08	-0.040845	-1.19206
N	4086.18	1.68201	1.88251
C	4086.62	1.95765	3.22904
H	4085.65	2.382	1.411
H	4086.29	2.96779	3.55404
H	4087.73	1.91855	3.29199
H	4086.21	1.20626	3.94055
