44
  This energy is 6.8932e-320 and Call times are: 27453
C	2.2864	-0.121891	2.62367
C	1.6785	0.557503	1.45745
O	1.97442	1.70951	1.17143
H	2.9891	0.575257	3.12969
H	2.84795	-1.02081	2.29287
H	1.49788	-0.423678	3.34485
N	0.795735	-0.152651	0.751203
C	0.121126	0.370952	-0.409646
C	-1.13194	-0.453514	-0.631718
O	-1.29035	-1.52539	-0.0505
H	0.541321	-1.08026	1.01149
H	-0.186498	1.38925	-0.20838
C	1.02555	0.310452	-1.66083
H	1.33983	-0.735527	-1.864
H	0.509265	0.712994	-2.55648
H	1.94043	0.917274	-1.48499
N	-2.06624	0.0418239	-1.46702
C	-3.29665	-0.667342	-1.73038
H	-1.92264	0.914364	-1.92231
H	-3.93318	-0.0989225	-2.4438
H	-3.87312	-0.816984	-0.788825
H	-3.0865	-1.66943	-2.1695
C	1304.77	0.238969	-2.66279
C	1305.09	0.34943	-1.2228
O	1304.29	0.816349	-0.427203
H	1303.75	0.638271	-2.84047
H	1304.8	-0.82419	-2.98147
H	1305.49	0.82623	-3.26488
N	1306.3	-0.0802859	-0.852798
C	1306.76	-0.0381969	0.512116
C	1308.28	-0.0932337	0.494514
O	1308.88	-0.411145	-0.527236
H	1306.96	-0.431676	-1.51494
H	1306.47	0.907565	0.952202
C	1306.2	-1.21886	1.33305
H	1306.5	-2.1875	0.878402
H	1306.55	-1.18943	2.38456
H	1305.09	-1.16782	1.33725
N	1308.93	0.238632	1.62694
C	1310.37	0.226765	1.70071
H	1308.42	0.500043	2.44118
H	1310.72	0.52768	2.71466
H	1310.81	0.932973	0.958163
H	1310.77	-0.79155	1.48358
