44
  This energy is 8.05969e-320 and Call times are: 102087
C	-2.06695	-2.67054	-0.849735
C	-1.83406	-1.359	-0.204121
O	-2.76024	-0.710558	0.262997
H	-3.1534	-2.90472	-0.824199
H	-1.51484	-3.46707	-0.307937
H	-1.73025	-2.64178	-1.90745
N	-0.569823	-0.931377	-0.169239
C	-0.185389	0.323865	0.425241
C	1.15817	0.72172	-0.154236
O	1.83786	-0.089509	-0.780144
H	0.172032	-1.45537	-0.579138
H	-0.903751	1.08237	0.14117
C	-0.0884412	0.21162	1.96314
H	0.648881	-0.567861	2.25103
H	0.207219	1.17643	2.42412
H	-1.07859	-0.0814952	2.37526
N	1.5635	1.99452	0.0237442
C	2.82279	2.46712	-0.502586
H	0.995957	2.63784	0.527008
H	2.97683	3.53945	-0.250319
H	2.85006	2.36048	-1.61125
H	3.67055	1.88178	-0.0784835
C	4833.99	-2.30663	2.40662
C	4834.43	-0.949455	2.00573
O	4834.42	-0.0212762	2.80254
H	4833.68	-2.29293	3.47441
H	4834.83	-3.02755	2.28357
H	4833.13	-2.63133	1.78702
N	4834.82	-0.802246	0.737627
C	4835.27	0.456646	0.199457
C	4835.13	0.395844	-1.30899
O	4834.93	-0.676191	-1.87956
H	4834.79	-1.55954	0.0904592
H	4834.62	1.24512	0.559348
C	4836.74	0.73979	0.583878
H	4837.4	-0.0713746	0.213705
H	4837.09	1.70844	0.171231
H	4836.83	0.780709	1.69123
N	4835.2	1.55611	-1.99075
C	4835.06	1.5974	-3.42812
H	4835.35	2.41405	-1.51019
H	4835.15	2.64134	-3.80168
H	4834.07	1.19647	-3.74078
H	4835.85	0.982058	-3.91547
