44
  This energy is 1.24445e-319 and Call times are: 123003
C	-0.27769	-1.71813	3.01613
C	-0.731238	-0.680714	2.06258
O	-1.76707	-0.0577976	2.25102
H	-1.01234	-1.80019	3.84644
H	0.712064	-1.44365	3.43787
H	-0.201678	-2.70097	2.50505
N	0.0458812	-0.474461	0.996787
C	-0.262375	0.50091	-0.0183274
C	0.49207	0.118083	-1.2767
O	1.39617	-0.71438	-1.23884
H	0.87218	-1.00873	0.83956
H	-1.32058	0.453565	-0.241998
C	0.13847	1.92437	0.429121
H	1.22453	1.96917	0.658412
H	-0.0976388	2.6779	-0.350116
H	-0.420084	2.19238	1.35234
N	0.120465	0.705206	-2.43134
C	0.773461	0.39417	-3.68155
H	-0.618265	1.37108	-2.44249
H	0.327034	0.980306	-4.51486
H	0.669692	-0.689138	-3.92013
H	1.86025	0.63323	-3.62749
C	5824.87	-0.689068	3.39754
C	5825.1	0.2491	2.27613
O	5825.16	1.45632	2.46391
H	5824.77	-0.113357	4.34318
H	5825.73	-1.38965	3.49297
H	5823.94	-1.26681	3.22723
N	5825.23	-0.295724	1.06413
C	5825.46	0.486686	-0.124241
C	5825.04	-0.347202	-1.31913
O	5824.84	-1.5542	-1.20295
H	5825.15	-1.27834	0.920023
H	5824.83	1.36349	-0.0959132
C	5826.95	0.890967	-0.253923
H	5827.59	-0.0109082	-0.282021
H	5827.13	1.49366	-1.16782
H	5827.24	1.50029	0.62792
N	5824.88	0.285955	-2.49782
C	5824.47	-0.423954	-3.68731
H	5825.04	1.2645	-2.56986
H	5824.4	0.269998	-4.55343
H	5823.48	-0.903579	-3.53624
H	5825.2	-1.22303	-3.9401
