44
  This energy is 1.07731e-319 and Call times are: 109773
C	2.69885	1.59446	1.51659
C	2.01564	0.377481	1.02324
O	2.58608	-0.704526	1.00441
H	3.73474	1.33454	1.82519
H	2.15649	2.00934	2.39212
H	2.74444	2.36006	0.713652
N	0.7588	0.533061	0.600725
C	-0.0358107	-0.556866	0.0933004
C	-1.15035	0.0320158	-0.74947
O	-1.40881	1.23307	-0.699404
H	0.314965	1.42519	0.593904
H	0.578843	-1.16838	-0.555024
C	-0.628725	-1.40311	1.24197
H	-1.25816	-0.77251	1.90549
H	-1.24103	-2.24332	0.854779
H	0.197719	-1.82784	1.85249
N	-1.82536	-0.802338	-1.56446
C	-2.89461	-0.32936	-2.4125
H	-1.59648	-1.76973	-1.59598
H	-3.32566	-1.16598	-3.00539
H	-2.5211	0.445744	-3.12028
H	-3.709	0.124049	-1.80227
C	5201.95	2.30178	1.62507
C	5201.58	0.9142	1.26088
O	5202.31	-0.0264908	1.54308
H	5202.93	2.29829	2.1483
H	5201.18	2.73393	2.3019
H	5202.03	2.92831	0.712002
N	5200.43	0.756218	0.609582
C	5199.94	-0.532028	0.188967
C	5198.93	-0.307577	-0.926255
O	5198.48	0.813699	-1.1477
H	5199.86	1.53351	0.359783
H	5200.76	-1.10558	-0.218813
C	5199.27	-1.28929	1.35877
H	5198.43	-0.697763	1.77514
H	5198.89	-2.28172	1.03841
H	5200.01	-1.44638	2.16954
N	5198.58	-1.37256	-1.67219
C	5197.64	-1.25245	-2.76302
H	5198.96	-2.27033	-1.4818
H	5197.48	-2.23806	-3.25228
H	5198.02	-0.538499	-3.53017
H	5196.66	-0.876646	-2.39624
