44
  This energy is 2.28308e-320 and Call times are: 74325
C	1.83952	2.66536	1.2799
C	1.0198	2.04086	0.217234
O	0.649727	2.68319	-0.755884
H	2.01749	3.73311	1.02675
H	2.81829	2.14758	1.36209
H	1.3097	2.61046	2.25418
N	0.709027	0.75368	0.387362
C	-0.081199	0.00857681	-0.55984
C	-0.663339	-1.19166	0.16112
O	-0.237691	-1.52977	1.264
H	0.992001	0.249157	1.19873
H	-0.906822	0.625336	-0.891545
C	0.771435	-0.45574	-1.76173
H	1.61788	-1.08766	-1.41777
H	0.166036	-1.02965	-2.4931
H	1.19308	0.432576	-2.28063
N	-1.67161	-1.85346	-0.440057
C	-2.29595	-3.00083	0.176321
H	-2.00679	-1.55999	-1.32931
H	-3.10209	-3.40651	-0.473913
H	-2.74363	-2.72426	1.15832
H	-1.54828	-3.80771	0.352727
C	3520.41	0.671157	2.33904
C	3521.74	0.142178	1.97272
O	3522.53	-0.229529	2.82935
H	3520.3	0.662631	3.44552
H	3519.61	0.0384957	1.89589
H	3520.3	1.71433	1.97521
N	3522.03	0.102219	0.668911
C	3523.28	-0.38649	0.157326
C	3523.47	0.179285	-1.23703
O	3522.53	0.70265	-1.83406
H	3521.39	0.435091	-0.017587
H	3524.09	-0.00789937	0.776329
C	3523.31	-1.93063	0.112015
H	3522.48	-2.31565	-0.523307
H	3524.27	-2.31031	-0.281275
H	3523.17	-2.33272	1.13921
N	3524.7	0.105902	-1.78169
C	3524.97	0.628726	-3.09965
H	3525.45	-0.314996	-1.27971
H	3526.04	0.47175	-3.36984
H	3524.76	1.72103	-3.14186
H	3524.34	0.122268	-3.86362
