44
  This energy is -0.0183 and Call times are: 171337
C	-2.73262	-1.84306	-1.11742
C	-2.11943	-0.829326	-0.230009
O	-2.80937	-0.0940115	0.462603
H	-3.83962	-1.78011	-1.03706
H	-2.40782	-2.86137	-0.816945
H	-2.43771	-1.65729	-2.17174
N	-0.785874	-0.766167	-0.233728
C	-0.0475722	0.197185	0.544361
C	1.25826	0.483515	-0.172828
O	1.60513	-0.188953	-1.14194
H	-0.239438	-1.34364	-0.833565
H	-0.603724	1.12546	0.584676
C	0.222393	-0.334704	1.96895
H	0.802031	-1.2815	1.92849
H	0.77824	0.403679	2.58242
H	-0.74669	-0.544872	2.472
N	2.0131	1.50152	0.285328
C	3.26875	1.85118	-0.336994
H	1.71372	2.03681	1.06821
H	3.73888	2.71429	0.183804
H	3.1141	2.12819	-1.40499
H	3.97729	0.992168	-0.302262
C	987.875	-0.188634	3.44263
C	988.071	-0.706058	2.06971
O	988.871	-1.60234	1.83941
H	988.557	-0.724617	4.13811
H	986.826	-0.354827	3.76796
H	988.105	0.897024	3.47899
N	987.333	-0.140706	1.11131
C	987.444	-0.507913	-0.278444
C	987.072	0.699533	-1.11789
O	986.591	1.70438	-0.597294
H	986.716	0.615819	1.308
H	988.476	-0.750651	-0.502592
C	986.523	-1.70239	-0.608697
H	985.463	-1.4502	-0.388836
H	986.609	-2.00356	-1.67279
H	986.808	-2.5719	0.022707
N	987.294	0.631075	-2.44522
C	986.976	1.73325	-3.32283
H	987.688	-0.188969	-2.84747
H	987.232	1.48383	-4.37613
H	987.545	2.6452	-3.03028
H	985.889	1.97398	-3.27356
