44
  This energy is -8.6641 and Call times are: 178537
C	1.8535	-2.94522	0.0534844
C	0.921061	-1.9807	0.679088
O	0.319068	-2.25809	1.70723
H	1.86768	-3.88267	0.65088
H	2.87953	-2.52193	0.0246113
H	1.52251	-3.18243	-0.979604
N	0.777697	-0.806765	0.0596475
C	-0.125769	0.216158	0.524339
C	-0.575969	1.02972	-0.674408
O	-0.0494456	0.874421	-1.77458
H	1.24334	-0.611268	-0.79874
H	-1.00691	-0.250506	0.946774
C	0.559435	1.12446	1.56872
H	1.45748	1.61167	1.13262
H	-0.130349	1.90772	1.94451
H	0.887658	0.506925	2.43316
N	-1.57378	1.91635	-0.489257
C	-2.07206	2.73079	-1.57304
H	-1.99008	2.02487	0.407395
H	-2.8916	3.39533	-1.22096
H	-2.46803	2.09134	-2.39498
H	-1.25953	3.36756	-1.99192
C	996.076	-0.338653	3.00294
C	995.87	0.299217	1.68324
O	996.469	1.31923	1.37242
H	996.804	0.261881	3.59132
H	996.48	-1.36496	2.87302
H	995.117	-0.386467	3.55929
N	994.999	-0.297462	0.86542
C	994.662	0.228654	-0.43367
C	993.246	-0.204542	-0.765941
O	992.655	-1.01943	-0.0602102
H	994.489	-1.10423	1.14845
H	994.667	1.31076	-0.393181
C	995.649	-0.277712	-1.50779
H	995.637	-1.38743	-1.55703
H	995.408	0.13151	-2.51021
H	996.679	0.0439809	-1.24009
N	992.664	0.341209	-1.8518
C	991.318	-0.00646479	-2.24267
H	993.157	1.00194	-2.40812
H	991.019	0.547439	-3.15986
H	990.596	0.243875	-1.43151
H	991.238	-1.09807	-2.45059
