44
  This energy is -3.7802 and Call times are: 171639
C	-0.863992	2.45117	2.31473
C	-0.267416	2.02563	1.02859
O	0.0405279	2.84324	0.172389
H	-0.975428	3.55726	2.31979
H	-0.207358	2.15226	3.15867
H	-1.86519	1.98853	2.44383
N	-0.0907456	0.712853	0.861885
C	0.438584	0.144182	-0.352604
C	-0.127701	-1.25489	-0.505787
O	-0.765932	-1.77919	0.404975
H	-0.384168	0.0568044	1.55136
H	0.0947436	0.725784	-1.19886
C	1.98199	0.102544	-0.315326
H	2.33517	-0.502759	0.546597
H	2.40218	-0.320557	-1.25072
H	2.3742	1.13598	-0.19474
N	0.087406	-1.89212	-1.67356
C	-0.418039	-3.22394	-1.91221
H	0.602666	-1.44991	-2.40022
H	-0.137429	-3.57458	-2.92983
H	-1.52887	-3.24329	-1.82879
H	-0.00335297	-3.94107	-1.16729
C	994.328	3.40153	0.519801
C	995.19	2.1979	0.535206
O	996.399	2.28711	0.696066
H	994.96	4.30681	0.652889
H	993.589	3.35388	1.34715
H	993.793	3.47636	-0.45004
N	994.575	1.02559	0.362805
C	995.284	-0.228373	0.311019
C	994.489	-1.18666	-0.555055
O	993.356	-0.897762	-0.937676
H	993.595	0.972358	0.192161
H	996.242	-0.0772288	-0.171142
C	995.477	-0.811945	1.72785
H	994.495	-0.977052	2.21893
H	996.035	-1.77076	1.70255
H	996.055	-0.0907066	2.34625
N	995.07	-2.35429	-0.89293
C	994.392	-3.32597	-1.71841
H	995.989	-2.56841	-0.577075
H	995.034	-4.21847	-1.88439
H	994.136	-2.8885	-2.71075
H	993.445	-3.6602	-1.23474
