44
  This energy is -4.5327 and Call times are: 171813
C	-0.581757	3.4298	0.103411
C	0.0100891	2.1911	0.657009
O	0.830091	2.23175	1.56385
H	-0.147177	4.30974	0.625643
H	-1.68169	3.42921	0.254713
H	-0.3581	3.50916	-0.981381
N	-0.398588	1.04301	0.111803
C	0.118887	-0.240775	0.515138
C	0.0313943	-1.1804	-0.672716
O	-0.569463	-0.850802	-1.69352
H	-1.03595	1.02835	-0.653328
H	1.16649	-0.139622	0.769932
C	-0.677481	-0.805333	1.71193
H	-1.75043	-0.919211	1.44763
H	-0.279845	-1.78731	2.04077
H	-0.606104	-0.0978575	2.56676
N	0.640731	-2.37789	-0.568933
C	0.615436	-3.33512	-1.65025
H	1.12549	-2.62494	0.263561
H	1.17213	-4.25712	-1.37236
H	1.08313	-2.90588	-2.56583
H	-0.432598	-3.61962	-1.89889
C	995.779	3.10827	1.02988
C	995.514	2.09699	-0.0179616
O	995.61	2.37533	-1.20524
H	996.038	4.07638	0.548739
H	996.629	2.78494	1.66723
H	994.877	3.25091	1.6614
N	995.165	0.880126	0.406426
C	994.834	-0.195889	-0.494229
C	993.857	-1.11856	0.209989
O	993.609	-0.978536	1.40605
H	995.051	0.680029	1.37534
H	994.328	0.207771	-1.36231
C	996.101	-0.970494	-0.91766
H	996.615	-1.39374	-0.0283375
H	995.861	-1.79304	-1.62217
H	996.805	-0.274139	-1.42367
N	993.27	-2.08479	-0.523335
C	992.323	-3.00616	0.0598694
H	993.481	-2.17974	-1.4907
H	991.952	-3.72466	-0.703884
H	991.449	-2.45763	0.479047
H	992.796	-3.58524	0.885983
