44
  This energy is -4.8485 and Call times are: 172096
C	-0.92941	0.114832	-3.35197
C	-1.10244	-0.380589	-1.96786
O	-2.1012	-1.00599	-1.63961
H	-1.82146	-0.161398	-3.95515
H	-0.0285753	-0.342618	-3.81238
H	-0.823614	1.22023	-3.35235
N	-0.116332	-0.104737	-1.11119
C	-0.161162	-0.483246	0.279238
C	0.659376	0.519049	1.06897
O	1.35328	1.35631	0.495207
H	0.671442	0.440632	-1.38294
H	-1.18175	-0.416265	0.634971
C	0.389693	-1.91204	0.480083
H	1.44018	-1.97859	0.124992
H	0.347644	-2.2204	1.54482
H	-0.220797	-2.62748	-0.113042
N	0.591596	0.461471	2.41363
C	1.33331	1.37809	3.24781
H	0.0213576	-0.22043	2.85963
H	1.14543	1.17018	4.32424
H	1.0348	2.43055	3.03684
H	2.42715	1.28487	3.05821
C	995.01	-3.42863	-0.59092
C	994.704	-2.24047	0.23707
O	993.947	-2.31467	1.19511
H	994.445	-4.30318	-0.201687
H	996.097	-3.65494	-0.548475
H	994.712	-3.24785	-1.64501
N	995.295	-1.09836	-0.122404
C	995.061	0.150026	0.559853
C	995.258	1.27742	-0.435918
O	995.722	1.05695	-1.55305
H	995.876	-1.04492	-0.929142
H	994.031	0.188791	0.890868
C	996.021	0.311867	1.75849
H	997.078	0.28273	1.41809
H	995.842	1.26302	2.3004
H	995.865	-0.528073	2.47009
N	994.9	2.51907	-0.0537904
C	995.046	3.6532	-0.936126
H	994.523	2.67699	0.852724
H	994.697	4.58522	-0.43989
H	994.451	3.50666	-1.86622
H	996.113	3.78975	-1.22717
