44
  This energy is -2.6278 and Call times are: 171605
C	2.52783	-1.98463	1.33567
C	1.39295	-1.04573	1.48284
O	0.891888	-0.824891	2.57672
H	2.78212	-2.41216	2.32987
H	3.41602	-1.45174	0.9358
H	2.25308	-2.81229	0.648209
N	0.954489	-0.464678	0.363683
C	-0.168876	0.438711	0.341303
C	-0.82232	0.347135	-1.02478
O	-0.287732	-0.279053	-1.93792
H	1.346	-0.685711	-0.524986
H	-0.900958	0.11655	1.0713
C	0.2823	1.88733	0.62971
H	1.02548	2.222	-0.125083
H	-0.575672	2.59047	0.628946
H	0.764644	1.92909	1.63069
N	-2.00674	0.967201	-1.19419
C	-2.70551	0.930015	-2.45772
H	-2.42553	1.4655	-0.442273
H	-3.65995	1.49788	-2.39614
H	-2.94054	-0.120238	-2.74583
H	-2.08211	1.37817	-3.26498
C	993.475	1.30087	3.21168
C	993.242	0.175415	2.27894
O	993.24	-0.982899	2.67228
H	993.649	0.90049	4.23399
H	992.589	1.96952	3.23397
H	994.368	1.88089	2.89573
N	993.037	0.497564	0.999498
C	992.839	-0.489683	-0.0322821
C	993.337	0.0895842	-1.34312
O	993.657	1.27372	-1.42717
H	993.082	1.4423	0.687487
H	993.444	-1.36084	0.185825
C	991.349	-0.879509	-0.143732
H	990.729	0.0120476	-0.377898
H	991.185	-1.64931	-0.92547
H	991.004	-1.29347	0.82894
N	993.422	-0.740457	-2.40134
C	993.89	-0.279707	-3.68778
H	993.162	-1.69638	-2.31272
H	993.887	-1.11026	-4.42765
H	994.928	0.116657	-3.60918
H	993.237	0.536254	-4.07425
