44
  This energy is -2.9092 and Call times are: 179089
C	-1.32786	1.53781	-2.8257
C	-0.648686	0.406021	-2.1557
O	-0.487754	-0.663553	-2.72712
H	-1.64192	1.226	-3.84552
H	-0.636668	2.40251	-2.9112
H	-2.22763	1.83967	-2.24917
N	-0.230515	0.620549	-0.906102
C	0.408243	-0.398198	-0.110677
C	0.11212	-0.113021	1.34964
O	-0.428219	0.937937	1.68911
H	-0.405202	1.48315	-0.439984
H	-0.0278065	-1.36102	-0.346181
C	1.93223	-0.418255	-0.36025
H	2.38167	0.566027	-0.108781
H	2.43373	-1.20776	0.236157
H	2.12525	-0.620648	-1.43641
N	0.454249	-1.05339	2.25224
C	0.206426	-0.872127	3.66359
H	0.886883	-1.89912	1.95788
H	0.558276	-1.75516	4.24124
H	-0.88253	-0.737972	3.85711
H	0.738274	0.0301288	4.04335
C	996.026	0.479861	3.29073
C	995.11	0.747166	2.15923
O	994.06	1.35232	2.32446
H	995.585	0.890004	4.22517
H	997.008	0.967722	3.11209
H	996.174	-0.613842	3.4131
N	995.494	0.291519	0.964458
C	994.689	0.437057	-0.222359
C	995.008	-0.716218	-1.15493
O	995.945	-1.47649	-0.918648
H	996.332	-0.234998	0.853188
H	993.642	0.356377	0.0440642
C	994.968	1.78805	-0.916573
H	996.039	1.86691	-1.19956
H	994.344	1.91807	-1.82424
H	994.735	2.61717	-0.213234
N	994.225	-0.878373	-2.23956
C	994.449	-1.95115	-3.1803
H	993.469	-0.255437	-2.41165
H	993.701	-1.91576	-4.00282
H	994.367	-2.94053	-2.67461
H	995.466	-1.87519	-3.6278
