44
  This energy is 0 and Call times are: 157925
C	-0.720212	0.0715493	3.40424
C	0.171096	-0.250905	2.26726
O	1.33582	-0.577762	2.44891
H	-0.151058	-0.0206591	4.35474
H	-1.57834	-0.632528	3.42946
H	-1.09822	1.11152	3.31118
N	-0.366137	-0.162041	1.0483
C	0.387657	-0.403264	-0.156762
C	-0.225961	0.422464	-1.27175
O	-1.29319	1.01009	-1.10614
H	-1.30404	0.144977	0.914322
H	1.40346	-0.054431	-0.0185629
C	0.375436	-1.9033	-0.524169
H	-0.665832	-2.25914	-0.676388
H	0.964094	-2.10394	-1.44273
H	0.821646	-2.48889	0.309097
N	0.443854	0.492904	-2.43898
C	-0.0601799	1.2593	-3.55467
H	1.30796	0.0138574	-2.55256
H	0.63265	1.193	-4.42232
H	-0.171138	2.33228	-3.27597
H	-1.05827	0.880296	-3.87295
C	32.4333	2.72295	2.09218
C	32.6938	2.13633	0.75831
O	32.5905	2.8072	-0.259369
H	32.1363	3.78764	1.97353
H	33.3493	2.67292	2.71771
H	31.6105	2.17449	2.59739
N	33.0412	0.847481	0.734381
C	33.2843	0.126881	-0.49043
C	32.9522	-1.33431	-0.253451
O	32.7094	-1.74948	0.878102
H	33.0812	0.303974	1.56796
H	32.6124	0.490067	-1.258
C	34.7539	0.282174	-0.939444
H	35.4434	-0.0999688	-0.156741
H	34.9503	-0.256801	-1.88889
H	34.9769	1.3597	-1.09924
N	32.9255	-2.1512	-1.32489
C	32.6138	-3.55572	-1.19699
H	33.1206	-1.79594	-2.23306
H	32.6423	-4.05686	-2.18961
H	31.5969	-3.69452	-0.763401
H	33.3466	-4.06156	-0.527445
