44
  This energy is 0 and Call times are: 164001
C	-1.82996	-1.02392	-2.77768
C	-0.551234	-0.694928	-2.10853
O	0.522865	-0.958851	-2.63108
H	-1.61882	-1.52709	-3.74625
H	-2.40924	-0.0970748	-2.97298
H	-2.43027	-1.70751	-2.14096
N	-0.641002	-0.102879	-0.915299
C	0.514829	0.238764	-0.124164
C	0.113225	0.206469	1.33845
O	-1.06579	0.0846667	1.66527
H	-1.52249	0.0684309	-0.484611
H	1.27974	-0.514633	-0.265351
C	1.05256	1.63493	-0.50733
H	0.271588	2.40965	-0.352667
H	1.95094	1.9037	0.0852853
H	1.33272	1.63768	-1.58337
N	1.09295	0.307181	2.25825
C	0.806544	0.280538	3.67368
H	2.04147	0.400965	1.97437
H	1.74301	0.37598	4.26626
H	0.309171	-0.67564	3.95585
H	0.127597	1.11843	3.95316
C	464.51	-1.8302	-1.60134
C	465.176	-0.551391	-1.265
O	464.885	0.485192	-1.84605
H	463.782	-1.66	-2.42356
H	463.968	-2.22373	-0.71615
H	465.262	-2.57617	-1.9358
N	466.101	-0.598647	-0.303602
C	466.863	0.555067	0.103559
C	468.207	0.075668	0.620132
O	468.424	-1.1221	0.792775
H	466.355	-1.4575	0.131705
H	467.054	1.18007	-0.759919
C	466.117	1.35276	1.19517
H	465.93	0.71504	2.0854
H	466.688	2.25128	1.50723
H	465.134	1.68668	0.797877
N	469.148	1.00649	0.87224
C	470.458	0.643835	1.36106
H	468.955	1.97048	0.722475
H	471.088	1.5489	1.50599
H	470.974	-0.030387	0.639449
H	470.38	0.110864	2.33624
