44
  This energy is 0.108 and Call times are: 174598
C	2.43469	-2.44712	-0.44334
C	1.5808	-1.59946	0.418909
O	1.48849	-1.80935	1.62051
H	2.90614	-3.24204	0.174489
H	3.23364	-1.83448	-0.911405
H	1.82242	-2.92468	-1.23716
N	0.924947	-0.607139	-0.187339
C	0.0232677	0.274441	0.511483
C	-1.02601	0.755215	-0.473109
O	-0.916397	0.520356	-1.675
H	0.978208	-0.474229	-1.17292
H	-0.491269	-0.281203	1.28553
C	0.784287	1.47274	1.11991
H	1.3037	2.04922	0.324981
H	0.102949	2.15169	1.67247
H	1.55207	1.09706	1.83105
N	-2.07913	1.43717	0.0187478
C	-3.12971	1.92912	-0.841737
H	-2.15236	1.61382	0.99471
H	-3.90533	2.46302	-0.24963
H	-3.61977	1.08799	-1.3836
H	-2.71896	2.63514	-1.59934
C	992.812	-0.449145	2.16516
C	993.535	-0.740447	0.906237
O	993.199	-1.66939	0.184483
H	991.999	-1.19395	2.30258
H	992.367	0.566874	2.12431
H	993.508	-0.513065	3.02866
N	994.561	0.0603181	0.612222
C	995.386	-0.1242	-0.555938
C	996.77	0.414109	-0.247484
O	996.984	1.04772	0.784258
H	994.848	0.786959	1.23009
H	995.489	-1.18329	-0.756765
C	994.782	0.602457	-1.77773
H	994.686	1.69064	-1.57609
H	995.401	0.456412	-2.68689
H	993.767	0.198153	-1.98017
N	997.751	0.165035	-1.13786
C	999.101	0.632888	-0.926263
H	997.559	-0.352949	-1.96495
H	999.76	0.327315	-1.76885
H	999.519	0.211519	0.0163796
H	999.124	1.74395	-0.847934
