44
  This energy is -2.6432 and Call times are: 184368
C	-1.46153	2.89846	-1.2552
C	-0.51964	1.76169	-1.36349
O	0.044005	1.50495	-2.41838
H	-1.54755	3.39963	-2.24379
H	-1.0901	3.63364	-0.510692
H	-2.46505	2.53598	-0.947547
N	-0.327588	1.04249	-0.255226
C	0.526048	-0.118685	-0.216012
C	0.00285983	-1.0543	0.857509
O	-0.886549	-0.695417	1.62684
H	-0.824827	1.23892	0.585034
H	0.459614	-0.642976	-1.16118
C	1.98816	0.281202	0.0798718
H	2.05841	0.809811	1.05438
H	2.65786	-0.602917	0.0989397
H	2.34751	0.972013	-0.713854
N	0.541229	-2.28764	0.928611
C	0.102767	-3.24814	1.9142
H	1.25709	-2.56113	0.29472
H	0.664933	-4.20233	1.81071
H	-0.983155	-3.46634	1.79406
H	0.26416	-2.85582	2.94434
C	994.087	2.43966	2.37763
C	993.898	1.09144	1.79662
O	993.276	0.225373	2.39637
H	993.608	2.47849	3.37969
H	993.62	3.20671	1.72524
H	995.17	2.6597	2.48887
N	994.442	0.881001	0.595643
C	994.378	-0.392066	-0.0780345
C	995.599	-0.515803	-0.971138
O	996.345	0.443854	-1.15402
H	994.98	1.58304	0.138085
H	994.433	-1.18724	0.654986
C	993.083	-0.51166	-0.910922
H	993.032	0.297681	-1.67009
H	993.016	-1.49313	-1.4235
H	992.204	-0.410234	-0.238321
N	995.835	-1.71208	-1.54484
C	996.975	-1.9256	-2.40585
H	995.222	-2.47788	-1.38163
H	996.995	-2.97329	-2.77891
H	997.924	-1.73086	-1.85623
H	996.938	-1.24114	-3.28407
