44
  This energy is -1.7453 and Call times are: 180569
C	0.885083	0.682257	-3.29603
C	0.80279	-0.225966	-2.13006
O	1.03195	-1.42234	-2.24219
H	1.15315	0.0948118	-4.20098
H	1.66412	1.4547	-3.12522
H	-0.0945672	1.17679	-3.4658
N	0.465522	0.33265	-0.965336
C	0.303285	-0.428923	0.248025
C	-0.706117	0.287817	1.12492
O	-1.10758	1.41267	0.832948
H	0.242081	1.30086	-0.898155
H	-0.110583	-1.40025	0.0074829
C	1.65051	-0.5823	0.98741
H	2.07039	0.413711	1.24374
H	1.54137	-1.1787	1.91635
H	2.37602	-1.10209	0.324228
N	-1.14839	-0.355467	2.22338
C	-2.11336	0.245688	3.11423
H	-0.814953	-1.26685	2.44079
H	-2.35017	-0.439597	3.95776
H	-3.05949	0.474125	2.57207
H	-1.71869	1.1982	3.53625
C	994.08	-2.79185	-1.9457
C	993.268	-1.59201	-1.64059
O	992.452	-1.15939	-2.44224
H	993.823	-3.1598	-2.96288
H	993.868	-3.59487	-1.20891
H	995.161	-2.54015	-1.91668
N	993.481	-1.01769	-0.45429
C	992.799	0.180664	-0.0333403
C	993.704	0.927123	0.92842
O	994.737	0.410792	1.35033
H	994.178	-1.35743	0.170607
H	992.641	0.822046	-0.891452
C	991.453	-0.159472	0.643343
H	991.615	-0.808838	1.52993
H	990.912	0.755693	0.959573
H	990.81	-0.712216	-0.0759136
N	993.339	2.17203	1.29257
C	994.14	2.96043	2.19924
H	992.501	2.57438	0.9374
H	993.673	3.9544	2.37466
H	995.161	3.12173	1.78243
H	994.246	2.44427	3.18085
