44
  This energy is 0 and Call times are: 171309
C	-0.936719	-2.80525	1.83462
C	-1.07843	-1.90291	0.669781
O	-1.77225	-2.21153	-0.289271
H	-1.52204	-3.73295	1.65392
H	-1.32139	-2.3104	2.75108
H	0.130123	-3.07628	1.98118
N	-0.409953	-0.74875	0.72839
C	-0.415298	0.212194	-0.346374
C	0.892986	0.978977	-0.301769
O	1.66665	0.849901	0.645064
H	0.183295	-0.529716	1.49777
H	-0.450142	-0.311454	-1.29359
C	-1.6136	1.1779	-0.217031
H	-1.57259	1.72309	0.749984
H	-1.63667	1.91406	-1.04653
H	-2.55974	0.594428	-0.244103
N	1.17547	1.79433	-1.33687
C	2.39942	2.55978	-1.38399
H	0.538871	1.88243	-2.09585
H	2.44728	3.16805	-2.31402
H	3.28575	1.88515	-1.36046
H	2.46631	3.24825	-0.51068
C	985.301	2.32096	2.39314
C	985.645	1.94917	1.00243
O	985.423	2.70944	0.0702722
H	984.828	3.32723	2.39792
H	986.217	2.35117	3.01952
H	984.586	1.58618	2.81962
N	986.204	0.748946	0.830128
C	986.555	0.230173	-0.4684
C	986.475	-1.28369	-0.410426
O	986.314	-1.86527	0.660857
H	986.341	0.124618	1.59382
H	985.826	0.564229	-1.19568
C	987.974	0.681934	-0.87776
H	988.724	0.330461	-0.137478
H	988.251	0.300322	-1.88192
H	988.012	1.79285	-0.905928
N	986.577	-1.96018	-1.57141
C	986.507	-3.40217	-1.61477
H	986.703	-1.47177	-2.42859
H	986.611	-3.76977	-2.65937
H	985.531	-3.76006	-1.2132
H	987.32	-3.85399	-1.00097
