44
  This energy is 0.4483 and Call times are: 186767
C	0.764074	-1.74534	-2.9125
C	0.981606	-0.625488	-1.96924
O	1.96316	0.0986364	-2.06195
H	1.60973	-1.78834	-3.63285
H	-0.180505	-1.59321	-3.47585
H	0.713705	-2.70707	-2.35965
N	0.054877	-0.458149	-1.0229
C	0.150689	0.560989	-0.00764871
C	-0.577997	0.0675483	1.2281
O	-1.25724	-0.956667	1.19176
H	-0.717371	-1.08089	-0.935186
H	1.18996	0.698096	0.263922
C	-0.459993	1.89081	-0.501497
H	-1.52903	1.75309	-0.770252
H	-0.379847	2.68744	0.266279
H	0.0833909	2.22889	-1.41077
N	-0.445575	0.785809	2.36062
C	-1.09767	0.390241	3.58719
H	0.111639	1.6095	2.3714
H	-0.86646	1.10816	4.40473
H	-0.758001	-0.622546	3.90367
H	-2.20296	0.356971	3.45168
C	994.37	1.72662	2.58181
C	994.311	0.618272	1.60242
O	995.282	-0.0952814	1.39425
H	995.39	1.77263	3.02298
H	993.634	1.55826	3.39544
H	994.152	2.69284	2.07997
N	993.149	0.449116	0.967434
C	992.951	-0.559253	-0.0438223
C	991.888	-0.0626869	-1.00537
O	991.241	0.953206	-0.758769
H	992.38	1.06367	1.11774
H	993.866	-0.681754	-0.609877
C	992.523	-1.90064	0.590879
H	991.579	-1.77784	1.16298
H	992.381	-2.68903	-0.176453
H	993.312	-2.24094	1.29658
N	991.688	-0.768684	-2.13574
C	990.702	-0.369183	-3.11217
H	992.224	-1.58574	-2.31964
H	990.689	-1.07665	-3.9704
H	990.925	0.650402	-3.50178
H	989.684	-0.349988	-2.65811
