44
  This energy is 0 and Call times are: 169293
C	-0.0526786	-0.949337	-3.34793
C	-0.670577	-0.308854	-2.16509
O	-1.67983	0.374371	-2.27011
H	-0.63594	-0.683451	-4.25622
H	-0.0545653	-2.05335	-3.23005
H	0.991448	-0.593076	-3.47431
N	-0.0658086	-0.517835	-0.993356
C	-0.524433	0.0740989	0.23865
C	0.672158	0.245066	1.15544
O	1.76177	-0.246151	0.867041
H	0.778232	-1.04266	-0.929915
H	-0.918727	1.06193	0.0352879
C	-1.59843	-0.810197	0.909314
H	-1.1912	-1.82039	1.12774
H	-1.96962	-0.358335	1.85195
H	-2.46094	-0.928245	0.217582
N	0.497271	0.958241	2.2854
C	1.58007	1.1782	3.21564
H	-0.390806	1.35136	2.49952
H	1.23746	1.78725	4.08103
H	2.42078	1.7155	2.71987
H	1.96985	0.208494	3.6015
C	842.175	1.9435	0.597977
C	842.844	0.763809	0.00396993
O	842.196	-0.155873	-0.476173
H	841.073	1.8119	0.534659
H	842.46	2.86329	0.044984
H	842.464	2.04982	1.665
N	844.179	0.76416	0.026267
C	844.968	-0.333014	-0.474944
C	846.276	-0.365033	0.294216
O	846.58	0.54987	1.0571
H	844.692	1.50105	0.457349
H	844.453	-1.26439	-0.274841
C	845.234	-0.175397	-1.98814
H	845.772	0.774963	-2.19284
H	845.83	-1.02122	-2.38882
H	844.264	-0.146342	-2.53014
N	847.08	-1.43158	0.116221
C	848.341	-1.55148	0.810017
H	846.814	-2.16386	-0.502164
H	848.855	-2.49762	0.530957
H	848.184	-1.55001	1.91305
H	849.012	-0.699425	0.555607
