44
  This energy is -2.7002 and Call times are: 185574
C	-1.64122	0.164035	-3.06467
C	-0.691643	-0.477278	-2.12756
O	-0.232489	-1.5884	-2.35336
H	-1.83732	-0.523056	-3.91633
H	-1.2117	1.1096	-3.45731
H	-2.60065	0.380166	-2.54904
N	-0.373405	0.220759	-1.03493
C	0.503829	-0.288994	-0.0106354
C	0.111652	0.349259	1.3086
O	-0.702566	1.26981	1.34543
H	-0.786986	1.10657	-0.844789
H	0.352968	-1.35658	0.0900749
C	1.97974	0.0203032	-0.344206
H	2.13727	1.11601	-0.437231
H	2.6662	-0.37929	0.430142
H	2.24238	-0.449679	-1.31708
N	0.680042	-0.134457	2.43064
C	0.363751	0.406589	3.73196
H	1.33358	-0.882454	2.38104
H	0.932312	-0.123978	4.52723
H	-0.723969	0.299579	3.94803
H	0.620417	1.48961	3.78031
C	991.101	-1.43364	1.49096
C	992.547	-1.42168	1.17529
O	993.322	-2.18898	1.72917
H	990.902	-2.19867	2.27262
H	990.513	-1.68584	0.583377
H	990.784	-0.439848	1.8719
N	992.948	-0.532828	0.26343
C	994.33	-0.373117	-0.116564
C	994.536	1.06365	-0.557908
O	993.578	1.82053	-0.705923
H	992.312	0.112847	-0.148707
H	994.96	-0.538284	0.748666
C	994.705	-1.34811	-1.25391
H	994.067	-1.17203	-2.14551
H	995.77	-1.2445	-1.54601
H	994.539	-2.39286	-0.911521
N	995.801	1.47687	-0.771407
C	996.094	2.82833	-1.18805
H	996.563	0.850973	-0.642422
H	997.19	2.9729	-1.31028
H	995.726	3.56069	-0.433447
H	995.6	3.05614	-2.16004
