44
  This energy is 0 and Call times are: 158065
C	2.54441	0.407266	-2.3394
C	1.12025	0.463736	-1.93976
O	0.284277	1.00427	-2.65066
H	2.67327	0.926362	-3.31398
H	2.86959	-0.648675	-2.4489
H	3.17592	0.911191	-1.57759
N	0.808983	-0.101546	-0.771022
C	-0.526701	-0.0886106	-0.228491
C	-0.423189	-0.135079	1.28435
O	0.656635	-0.339165	1.83575
H	1.50728	-0.50163	-0.184355
H	-1.00957	0.844633	-0.490258
C	-1.34654	-1.28811	-0.752236
H	-0.857097	-2.24599	-0.474838
H	-2.38129	-1.28168	-0.352524
H	-1.40246	-1.23803	-1.86161
N	-1.55112	0.0630938	1.99464
C	-1.54843	0.0422069	3.43885
H	-2.41462	0.230826	1.53063
H	-2.57082	0.22566	3.83671
H	-0.869318	0.828167	3.84177
H	-1.19672	-0.944927	3.81701
C	42.9802	0.728299	3.40323
C	43.5123	0.912275	2.03421
O	44.2797	1.82782	1.77108
H	43.3754	1.53192	4.06193
H	43.2967	-0.256055	3.80773
H	41.8713	0.784468	3.39353
N	43.107	0.0313122	1.11661
C	43.5049	0.10608	-0.267095
C	42.404	-0.509932	-1.10977
O	41.4681	-1.10874	-0.583191
H	42.45	-0.684037	1.3368
H	43.5908	1.14549	-0.558425
C	44.8411	-0.633179	-0.497599
H	44.7505	-1.70201	-0.208774
H	45.1653	-0.57099	-1.55665
H	45.6302	-0.170799	0.134806
N	42.4871	-0.368665	-2.44736
C	41.4829	-0.916556	-3.32919
H	43.2498	0.122743	-2.85466
H	41.7289	-0.695044	-4.3911
H	40.4823	-0.481805	-3.10322
H	41.4144	-2.02191	-3.20817
