44
  This energy is 0 and Call times are: 166801
C	2.72966	-2.05031	0.676662
C	1.85177	-0.901829	0.995159
O	1.92685	-0.327375	2.07255
H	3.3868	-2.26295	1.54777
H	3.36441	-1.81436	-0.203205
H	2.1177	-2.95118	0.459795
N	0.983549	-0.538074	0.0484497
C	0.0353873	0.532996	0.228335
C	-1.17896	0.239187	-0.632243
O	-1.16625	-0.682708	-1.44567
H	0.90619	-1.04128	-0.807508
H	-0.295737	0.547574	1.25925
C	0.658069	1.892	-0.159745
H	0.988356	1.8811	-1.22032
H	-0.0577353	2.72654	-0.0124617
H	1.54942	2.08252	0.477083
N	-2.26666	1.01703	-0.465249
C	-3.47041	0.808762	-1.23582
H	-2.25926	1.75554	0.200805
H	-4.25126	1.54877	-0.953164
H	-3.87683	-0.213719	-1.06081
H	-3.26326	0.916126	-2.32518
C	669.083	0.67835	-2.70408
C	668.865	0.302392	-1.28906
O	669.783	-0.114257	-0.596129
H	670.147	0.498426	-2.97217
H	668.852	1.75378	-2.85436
H	668.437	0.0651427	-3.3669
N	667.622	0.441799	-0.822771
C	667.246	0.0768047	0.520421
C	665.781	-0.317029	0.511267
O	665.087	-0.13534	-0.486736
H	666.877	0.743442	-1.41055
H	667.813	-0.794312	0.825534
C	667.486	1.24823	1.49795
H	666.897	2.13886	1.19134
H	667.214	0.975007	2.53796
H	668.563	1.52477	1.48232
N	665.278	-0.877337	1.6285
C	663.896	-1.28916	1.71048
H	665.856	-1.02	2.42453
H	663.674	-1.72709	2.70871
H	663.667	-2.05435	0.93361
H	663.216	-0.420716	1.55
