44
  This energy is 0 and Call times are: 167445
C	-0.578693	2.6349	-2.19889
C	-0.121569	1.25761	-1.90691
O	0.117122	0.465495	-2.80802
H	-0.665822	2.76746	-3.29921
H	0.151913	3.37224	-1.80482
H	-1.57166	2.81485	-1.73551
N	0.0100996	0.936809	-0.617678
C	0.404417	-0.377873	-0.176446
C	-0.203521	-0.619505	1.19234
O	-0.759234	0.290713	1.80422
H	-0.227273	1.5795	0.105146
H	-0.00929585	-1.11929	-0.848591
C	1.94271	-0.500889	-0.115082
H	2.36676	0.252595	0.582396
H	2.25916	-1.51314	0.210081
H	2.36655	-0.312421	-1.12562
N	-0.118622	-1.86352	1.70346
C	-0.673089	-2.18877	2.99689
H	0.33127	-2.58784	1.19158
H	-0.502124	-3.26068	3.23979
H	-1.77034	-1.99633	3.01353
H	-0.201784	-1.569	3.7937
C	716.166	-0.971261	1.07123
C	715.255	-0.027131	0.386031
O	715.633	1.08649	0.0497762
H	717.156	-0.487504	1.21374
H	716.298	-1.8879	0.458861
H	715.754	-1.24712	2.06503
N	714.011	-0.458786	0.162819
C	712.999	0.361242	-0.454947
C	711.645	-0.0888566	0.0615343
O	711.537	-1.10926	0.738875
H	713.706	-1.35259	0.479
H	713.136	1.39031	-0.14689
C	713.058	0.24423	-1.99382
H	712.907	-0.809685	-2.3109
H	712.292	0.881788	-2.48167
H	714.059	0.57112	-2.34884
N	710.576	0.672536	-0.241798
C	709.248	0.326048	0.210676
H	710.684	1.49687	-0.787585
H	708.505	1.07507	-0.140863
H	709.21	0.289654	1.32354
H	708.949	-0.674244	-0.178013
