44
  This energy is 0 and Call times are: 164505
C	-0.437397	0.221264	3.44564
C	-0.798256	0.594871	2.05951
O	-1.82069	1.22181	1.8187
H	-1.22693	0.581409	4.14048
H	0.529882	0.687417	3.72815
H	-0.355777	-0.882524	3.53555
N	0.0476998	0.208912	1.10151
C	-0.189694	0.461194	-0.297977
C	0.486967	-0.636055	-1.09781
O	1.23886	-1.44116	-0.551762
H	0.85491	-0.336258	1.30904
H	-1.25215	0.397261	-0.497284
C	0.356083	1.8462	-0.709221
H	1.44802	1.90862	-0.514749
H	0.167045	2.05808	-1.78155
H	-0.14719	2.63293	-0.1058
N	0.226776	-0.698263	-2.41859
C	0.820821	-1.71157	-3.25913
H	-0.387559	-0.0404421	-2.8416
H	0.483727	-1.59573	-4.31277
H	0.534015	-2.72973	-2.90933
H	1.93229	-1.63908	-3.2364
C	502.683	-3.08186	-1.58569
C	503.163	-1.68236	-1.54133
O	503.961	-1.26042	-2.36709
H	503.171	-3.611	-2.43276
H	501.583	-3.10445	-1.73397
H	502.939	-3.60447	-0.639993
N	502.681	-0.920281	-0.557082
C	503.087	0.448676	-0.3586
C	502.957	0.771372	1.11804
O	502.409	-0.014691	1.88852
H	502.063	-1.28952	0.131737
H	504.133	0.552482	-0.620437
C	502.22	1.40931	-1.20136
H	501.148	1.31077	-0.925715
H	502.532	2.46538	-1.06783
H	502.324	1.14968	-2.27746
N	503.469	1.94062	1.5501
C	503.396	2.33023	2.93903
H	503.912	2.56173	0.912274
H	503.873	3.32322	3.09426
H	503.919	1.58631	3.58336
H	502.336	2.39368	3.27477
