44
  This energy is -2.722 and Call times are: 184121
C	0.348014	3.3667	0.810485
C	0.587372	2.20933	-0.0807739
O	1.04534	2.36021	-1.20501
H	0.628439	4.30273	0.280299
H	0.964264	3.27585	1.72957
H	-0.725579	3.41944	1.08925
N	0.27489	1.00774	0.410048
C	0.411504	-0.207389	-0.353735
C	-0.619305	-1.20047	0.149026
O	-1.27535	-0.968428	1.16267
H	-0.135296	0.904768	1.31172
H	0.183491	-0.00387775	-1.39259
C	1.83571	-0.788613	-0.215672
H	2.06622	-1.00742	0.848765
H	1.9577	-1.71705	-0.81035
H	2.57386	-0.0420778	-0.581962
N	-0.792271	-2.33431	-0.558453
C	-1.75438	-3.33495	-0.159387
H	-0.254945	-2.50237	-1.37827
H	-1.74764	-4.19188	-0.868505
H	-2.78215	-2.90538	-0.138527
H	-1.5207	-3.72071	0.859301
C	993.728	-1.84407	-2.94912
C	993.689	-1.74286	-1.47283
O	993.347	-2.69281	-0.781999
H	993.395	-2.8591	-3.25656
H	994.762	-1.67861	-3.31697
H	993.05	-1.09059	-3.4023
N	994.043	-0.566832	-0.949104
C	994.014	-0.302744	0.467929
C	993.767	1.18082	0.667651
O	993.794	1.95748	-0.285141
H	994.279	0.209626	-1.52625
H	993.18	-0.831031	0.912865
C	995.341	-0.725833	1.13507
H	996.196	-0.176393	0.686174
H	995.326	-0.540328	2.22864
H	995.505	-1.81308	0.969461
N	993.512	1.60927	1.91954
C	993.26	3.00253	2.20496
H	993.491	0.965116	2.67697
H	993.071	3.15364	3.29066
H	992.37	3.3643	1.64075
H	994.133	3.62835	1.91035
