44
  This energy is 0.4218 and Call times are: 178244
C	0.60716	3.40415	-0.394693
C	-0.098828	2.15538	-0.759773
O	-1.07498	2.1724	-1.49683
H	0.0958555	4.26816	-0.872123
H	1.65837	3.36742	-0.750159
H	0.594335	3.54295	0.706971
N	0.387052	1.02545	-0.24057
C	-0.218192	-0.262822	-0.469884
C	0.0774598	-1.14441	0.728844
O	0.86605	-0.780401	1.5991
H	1.15747	1.03212	0.390521
H	-1.29332	-0.147167	-0.527896
C	0.327822	-0.906524	-1.76323
H	1.42942	-1.03507	-1.69999
H	-0.140765	-1.8929	-1.95823
H	0.107306	-0.240648	-2.62598
N	-0.559835	-2.32929	0.805961
C	-0.34571	-3.23211	1.91287
H	-1.19744	-2.60457	0.0940941
H	-0.959837	-4.15194	1.79458
H	-0.624504	-2.74601	2.8758
H	0.725696	-3.53114	1.97459
C	996.023	-1.75325	-2.67482
C	995.664	-0.490362	-1.99099
O	996.082	0.587234	-2.39169
H	996.699	-1.52949	-3.5286
H	995.109	-2.25221	-3.06093
H	996.546	-2.43423	-1.971
N	994.869	-0.598406	-0.923579
C	994.469	0.536675	-0.129771
C	994.222	0.0583637	1.28853
O	994.211	-1.14178	1.55544
H	994.571	-1.48617	-0.585244
H	995.283	1.25069	-0.0921469
C	993.198	1.19432	-0.709007
H	992.36	0.465163	-0.738019
H	992.887	2.07797	-0.114489
H	993.399	1.52944	-1.74985
N	994.025	0.993728	2.23849
C	993.788	0.633021	3.61677
H	994.042	1.96003	2.00388
H	993.65	1.54192	4.24307
H	994.647	0.0530183	4.02467
H	992.873	0.00362126	3.70631
