44
  This energy is -3.8295 and Call times are: 175823
C	-0.273504	-1.91685	2.89198
C	-0.582518	-0.707835	2.09579
O	-1.44487	0.0824885	2.45376
H	-0.940956	-1.95212	3.78032
H	0.781715	-1.88903	3.23619
H	-0.439064	-2.82964	2.28164
N	0.126237	-0.536596	0.977429
C	-0.0901489	0.568653	0.0773395
C	0.298782	0.12384	-1.31995
O	0.866747	-0.951083	-1.50345
H	0.796315	-1.20982	0.67804
H	-1.14531	0.811197	0.0566481
C	0.740039	1.79885	0.504696
H	1.82343	1.55355	0.515893
H	0.571451	2.66105	-0.172595
H	0.444433	2.10191	1.53286
N	-0.00804563	0.943052	-2.34503
C	0.318041	0.600832	-3.70985
H	-0.471407	1.80685	-2.17705
H	-0.0157552	1.40117	-4.40646
H	-0.179398	-0.35118	-4.00566
H	1.41759	0.467547	-3.82968
C	991.898	-0.0650341	2.06312
C	992.797	0.620366	1.10792
O	992.486	1.68864	0.599961
H	990.969	0.533099	2.18684
H	992.394	-0.166289	3.05103
H	991.629	-1.07192	1.68006
N	993.952	0.00838589	0.836844
C	994.911	0.531057	-0.104862
C	995.679	-0.636386	-0.694728
O	995.554	-1.76983	-0.235197
H	994.174	-0.880824	1.22679
H	994.385	1.01504	-0.918373
C	995.875	1.52243	0.582331
H	996.423	1.02358	1.41023
H	996.609	1.94243	-0.135372
H	995.291	2.36416	1.0135
N	996.493	-0.385592	-1.73957
C	997.26	-1.43502	-2.36942
H	996.578	0.537359	-2.10002
H	997.866	-1.02929	-3.20919
H	996.586	-2.22542	-2.7732
H	997.95	-1.91128	-1.63636
