44
  This energy is 0.1569 and Call times are: 181423
C	-2.52004	-2.34666	0.505224
C	-1.11413	-1.89848	0.622231
O	-0.311249	-2.50747	1.31571
H	-2.67116	-3.25013	1.13513
H	-2.7541	-2.60095	-0.549903
H	-3.20696	-1.54673	0.853568
N	-0.781492	-0.802743	-0.064134
C	0.536893	-0.22129	-0.0158375
C	0.406036	1.26906	-0.267394
O	-0.6644	1.75547	-0.626969
H	-1.45627	-0.294536	-0.591642
H	0.946005	-0.345798	0.979028
C	1.46421	-0.868595	-1.06766
H	1.05027	-0.731961	-2.08943
H	2.48628	-0.43901	-1.03111
H	1.53893	-1.96005	-0.86896
N	1.49856	2.03405	-0.07446
C	1.46746	3.46283	-0.283757
H	2.35465	1.6228	0.22057
H	2.46257	3.9129	-0.0730033
H	0.717197	3.94172	0.386348
H	1.19107	3.69992	-1.33663
C	993.232	2.8836	1.22246
C	993.194	1.45669	0.830533
O	992.234	0.750194	1.10582
H	992.304	3.13665	1.77909
H	993.297	3.52681	0.319753
H	994.108	3.07719	1.8773
N	994.258	0.994062	0.169458
C	994.385	-0.382399	-0.240197
C	995.861	-0.727286	-0.288701
O	996.717	0.147248	-0.165332
H	995.049	1.57095	-0.0113809
H	993.929	-1.02074	0.50627
C	993.73	-0.609845	-1.62033
H	994.204	0.0371495	-2.3886
H	993.809	-1.66896	-1.94061
H	992.652	-0.343623	-1.5634
N	996.196	-2.02109	-0.462434
C	997.576	-2.44445	-0.515841
H	995.489	-2.71488	-0.556234
H	997.644	-3.54475	-0.663828
H	998.103	-2.18469	0.430519
H	998.108	-1.94365	-1.35653
