44
  This energy is 0.9522 and Call times are: 177691
C	1.37227	-1.38524	2.88282
C	0.263425	-0.73257	2.15096
O	-0.856526	-0.654851	2.63684
H	0.995847	-1.76471	3.8576
H	2.18774	-0.655834	3.07183
H	1.76931	-2.2389	2.29399
N	0.556104	-0.242898	0.943922
C	-0.427767	0.381416	0.094928
C	-0.00825933	0.172593	-1.34797
O	1.09507	-0.295962	-1.62155
H	1.46224	-0.350102	0.544803
H	-1.38118	-0.114329	0.228632
C	-0.551966	1.88824	0.41006
H	0.423368	2.39921	0.262873
H	-1.31644	2.37754	-0.227662
H	-0.852004	2.01738	1.47291
N	-0.889051	0.510312	-2.31035
C	-0.579614	0.341945	-3.7111
H	-1.77853	0.884141	-2.06921
H	-1.43046	0.676273	-4.34475
H	-0.370385	-0.727871	-3.9413
H	0.320052	0.937262	-3.9892
C	993.422	1.52153	2.92201
C	993.466	0.432783	1.92006
O	994.375	-0.385741	1.91366
H	994.313	1.44846	3.58258
H	992.506	1.43366	3.54323
H	993.431	2.50918	2.41452
N	992.467	0.400903	1.03473
C	992.395	-0.572565	-0.0262587
C	991.639	0.0474933	-1.18641
O	991.068	1.12916	-1.06005
H	991.756	1.09831	1.02724
H	993.395	-0.795417	-0.375337
C	991.689	-1.85998	0.453344
H	990.659	-1.63352	0.801729
H	991.64	-2.62266	-0.350636
H	992.255	-2.29206	1.30752
N	991.625	-0.624689	-2.35431
C	990.936	-0.109728	-3.51473
H	992.096	-1.49653	-2.43831
H	991.041	-0.806229	-4.3756
H	991.353	0.879911	-3.81179
H	989.851	0.0227854	-3.30097
