44
  This energy is 0 and Call times are: 161061
C	2.96073	1.8004	0.324577
C	1.9786	1.04174	-0.482275
O	2.03702	1.03051	-1.70411
H	3.67328	2.31695	-0.354635
H	3.52851	1.11079	0.983978
H	2.44065	2.56037	0.945113
N	1.03692	0.381661	0.19589
C	-0.0125433	-0.365512	-0.451351
C	-1.22359	-0.368657	0.462377
O	-1.14622	0.0602505	1.61206
H	0.977956	0.433706	1.1887
H	-0.299305	0.139645	-1.36525
C	0.443214	-1.81035	-0.75129
H	0.727491	-2.33244	0.187135
H	-0.351373	-2.39185	-1.26219
H	1.33507	-1.78358	-1.41479
N	-2.38064	-0.848469	-0.0346601
C	-3.58656	-0.886	0.7594
H	-2.42455	-1.18735	-0.968631
H	-4.42984	-1.31404	0.17383
H	-3.87277	0.139477	1.08767
H	-3.43854	-1.51112	1.66959
C	257.588	-0.704301	-3.35727
C	257.833	0.0840075	-2.12868
O	258.767	0.871385	-2.0578
H	258.368	-0.461661	-4.11135
H	256.591	-0.455894	-3.77853
H	257.633	-1.79039	-3.13044
N	256.987	-0.116093	-1.11605
C	257.122	0.54561	0.157643
C	256.53	-0.355887	1.22443
O	255.9	-1.36614	0.916747
H	256.256	-0.790416	-1.17438
H	258.174	0.668272	0.386303
C	256.407	1.91439	0.147179
H	255.326	1.7881	-0.0769617
H	256.516	2.43995	1.11797
H	256.851	2.55453	-0.646067
N	256.727	-0.0130122	2.51272
C	256.205	-0.813217	3.59611
H	257.242	0.805935	2.74194
H	256.473	-0.366583	4.57907
H	256.62	-1.84653	3.55621
H	255.095	-0.884047	3.53334
