44
  This energy is -2.3091 and Call times are: 175795
C	-0.665045	-3.414	-0.122421
C	-0.544815	-2.13529	0.613502
O	-0.945948	-2.02699	1.76406
H	-1.16452	-4.16576	0.526632
H	0.341337	-3.79149	-0.400713
H	-1.27304	-3.27139	-1.04062
N	0.018303	-1.12102	-0.047196
C	0.16523	0.19566	0.521431
C	0.148055	1.20467	-0.611332
O	0.188717	0.836195	-1.78363
H	0.302662	-1.21304	-0.997216
H	-0.686518	0.408019	1.15551
C	1.4795	0.306042	1.32501
H	2.35427	0.0986134	0.672489
H	1.59756	1.31107	1.77945
H	1.47358	-0.446632	2.14342
N	0.0783981	2.51025	-0.28475
C	0.0515207	3.54183	-1.29534
H	0.042147	2.78868	0.669309
H	-0.00736488	4.54924	-0.827495
H	-0.830454	3.41381	-1.96393
H	0.970274	3.50016	-1.92407
C	993.704	-3.36101	-0.42706
C	993.319	-1.93973	-0.274982
O	992.171	-1.56932	-0.478975
H	992.818	-3.94864	-0.751625
H	994.068	-3.76468	0.54111
H	994.502	-3.46165	-1.19267
N	994.289	-1.09835	0.0910824
C	994.078	0.320252	0.237856
C	995.39	1.02579	-0.0470021
O	996.432	0.387169	-0.182037
H	995.227	-1.40808	0.213672
H	993.364	0.653964	-0.50522
C	993.578	0.659479	1.65927
H	994.314	0.326776	2.42144
H	993.398	1.74739	1.78061
H	992.621	0.126239	1.84879
N	995.368	2.36895	-0.153846
C	996.567	3.12552	-0.428847
H	994.514	2.8678	-0.0454927
H	996.342	4.21378	-0.479207
H	997.013	2.8144	-1.40107
H	997.327	2.96066	0.36861
