44
  This energy is 0 and Call times are: 159913
C	-3.1404	0.93207	1.1755
C	-1.95565	1.14438	0.313864
O	-1.96372	1.98103	-0.578528
H	-3.95637	1.61462	0.852699
H	-2.88748	1.14991	2.23442
H	-3.49389	-0.117002	1.08838
N	-0.893436	0.375774	0.565513
C	0.317022	0.436603	-0.215289
C	0.977754	-0.928313	-0.170641
O	0.563587	-1.80403	0.58652
H	-0.916292	-0.329113	1.2687
H	0.0656112	0.63962	-1.24883
C	1.2729	1.51908	0.332241
H	1.53949	1.30552	1.38929
H	2.20278	1.58522	-0.268973
H	0.76582	2.50803	0.297519
N	2.02303	-1.14421	-0.99333
C	2.71104	-2.41381	-1.02418
H	2.34106	-0.424665	-1.60176
H	3.54085	-2.39352	-1.76459
H	2.0106	-3.2334	-1.30515
H	3.13913	-2.65328	-0.0239138
C	177.374	2.54332	0.0894032
C	176.726	1.3882	-0.57151
O	176.962	1.11315	-1.73988
H	178.036	3.05986	-0.639553
H	177.987	2.19834	0.948852
H	176.605	3.26007	0.447648
N	175.878	0.6764	0.174781
C	175.139	-0.449166	-0.340981
C	173.844	-0.562707	0.44018
O	173.651	0.122991	1.44224
H	175.665	0.937065	1.11211
H	174.877	-0.261073	-1.3747
C	175.961	-1.75109	-0.218876
H	176.221	-1.95008	0.842631
H	175.409	-2.62286	-0.625368
H	176.908	-1.64241	-0.791419
N	172.917	-1.4318	-0.00893358
C	171.652	-1.60362	0.66635
H	173.09	-1.9749	-0.823901
H	171.027	-2.3616	0.144329
H	171.088	-0.643296	0.693799
H	171.809	-1.9416	1.71616
