44
  This energy is 0 and Call times are: 170917
C	-2.45742	-1.79035	-1.69365
C	-1.97664	-1.02728	-0.519885
O	-2.74765	-0.662169	0.356837
H	-3.55829	-1.92546	-1.61808
H	-1.97403	-2.7894	-1.72479
H	-2.22645	-1.23886	-2.62938
N	-0.66851	-0.763686	-0.478663
C	-0.0598901	0.00574603	0.577801
C	1.16528	0.699175	0.0124157
O	1.57932	0.427848	-1.11305
H	-0.0601776	-1.03208	-1.22012
H	-0.747839	0.777721	0.899379
C	0.330793	-0.900612	1.76571
H	1.04473	-1.6863	1.43857
H	0.787887	-0.317783	2.59148
H	-0.579679	-1.40383	2.15834
N	1.77216	1.62323	0.783035
C	2.94113	2.3384	0.326729
H	1.41994	1.83204	1.68935
H	3.29191	3.05422	1.10247
H	2.71373	2.91114	-0.601459
H	3.77156	1.63086	0.101074
C	964.14	-0.64328	-1.35657
C	962.729	-0.21487	-1.48275
O	962.316	0.309694	-2.50776
H	964.685	-0.391335	-2.29197
H	964.194	-1.74021	-1.19352
H	964.624	-0.119118	-0.505888
N	961.946	-0.430999	-0.423091
C	960.562	-0.0299706	-0.379991
C	960.193	0.24249	1.06618
O	960.966	-0.0455551	1.97811
H	962.306	-0.821703	0.419011
H	960.442	0.898673	-0.923914
C	959.651	-1.12684	-0.973594
H	959.766	-2.07682	-0.409337
H	958.584	-0.824175	-0.958786
H	959.944	-1.31536	-2.02953
N	958.998	0.816035	1.30942
C	958.564	1.11778	2.65358
H	958.388	1.04554	0.558111
H	957.555	1.58644	2.64526
H	959.273	1.82139	3.1467
H	958.515	0.189981	3.26832
