44
  This energy is 0.3868 and Call times are: 186653
C	-0.163809	-2.87438	1.95545
C	-0.794157	-1.83602	1.10951
O	-1.94489	-1.9559	0.712202
H	-0.884624	-3.70555	2.11502
H	0.115886	-2.44701	2.94128
H	0.743102	-3.27609	1.45621
N	-0.0393672	-0.776584	0.809078
C	-0.499221	0.294442	-0.0394485
C	0.707308	0.902481	-0.729471
O	1.84818	0.582741	-0.401011
H	0.909125	-0.71264	1.10596
H	-1.1414	-0.111686	-0.811002
C	-1.25006	1.36538	0.781866
H	-0.588398	1.78987	1.56675
H	-1.62121	2.18866	0.137669
H	-2.12418	0.896494	1.28427
N	0.480974	1.79355	-1.71476
C	1.56721	2.41994	-2.43164
H	-0.449275	2.0365	-1.9691
H	1.17731	3.12049	-3.20264
H	2.19576	1.65349	-2.94031
H	2.2194	2.99365	-1.73404
C	993.578	-2.80934	2.05287
C	994.184	-1.57016	1.51617
O	995.188	-1.08663	2.02082
H	994.164	-3.15352	2.93281
H	993.589	-3.6064	1.28
H	992.532	-2.61684	2.37071
N	993.575	-1.01909	0.463697
C	994.023	0.210545	-0.1418
C	992.82	0.898041	-0.760053
O	991.736	0.322677	-0.83659
H	992.736	-1.40179	0.0895502
H	994.41	0.867364	0.627264
C	995.1	-0.0623792	-1.21364
H	994.701	-0.727674	-2.00836
H	995.463	0.877823	-1.67754
H	995.968	-0.572874	-0.74046
N	992.983	2.15753	-1.21079
C	991.893	2.89302	-1.80934
H	993.866	2.60787	-1.13638
H	992.226	3.9092	-2.1156
H	991.051	3.00263	-1.08875
H	991.51	2.36292	-2.71101
