44
  This energy is -6.4584 and Call times are: 186357
C	1.57055	1.98658	-2.38738
C	0.465255	1.71447	-1.44111
O	-0.352869	2.57873	-1.15802
H	1.50889	3.04224	-2.73039
H	1.49266	1.31693	-3.26957
H	2.54961	1.82755	-1.88814
N	0.418183	0.485759	-0.921087
C	-0.572882	0.0845941	0.0460827
C	0.0274091	-1.00512	0.91426
O	1.11079	-1.51197	0.629488
H	1.11507	-0.194444	-1.12975
H	-0.801103	0.922905	0.692443
C	-1.85241	-0.423848	-0.653578
H	-1.62063	-1.29054	-1.30868
H	-2.62842	-0.722783	0.0805682
H	-2.26995	0.387132	-1.28945
N	-0.664172	-1.38672	2.00611
C	-0.168934	-2.41244	2.89425
H	-1.53709	-0.962014	2.22225
H	-0.879657	-2.58344	3.73262
H	0.815787	-2.11785	3.32415
H	-0.0333396	-3.3737	2.34768
C	996.704	2.21121	1.29692
C	995.827	1.0242	1.41452
O	995.936	0.247474	2.35327
H	997.418	2.22633	2.14884
H	996.096	3.13987	1.32112
H	997.278	2.17027	0.347391
N	994.925	0.854533	0.445383
C	994.031	-0.275829	0.399766
C	993.69	-0.550693	-1.05268
O	994.023	0.235465	-1.93747
H	994.876	1.47293	-0.333735
H	994.542	-1.15072	0.782264
C	992.749	0.00173921	1.21412
H	992.219	0.892985	0.815494
H	992.058	-0.866528	1.19819
H	993.023	0.20802	2.27175
N	993.02	-1.68587	-1.33364
C	992.657	-2.03391	-2.6876
H	992.763	-2.31157	-0.604618
H	992.113	-3.00343	-2.71185
H	993.565	-2.12606	-3.32644
H	992.001	-1.25135	-3.13196
