44
  This energy is 0 and Call times are: 167669
C	-1.00302	-2.64823	2.02324
C	-0.813412	-2.02168	0.695602
O	-0.9277	-2.67271	-0.333718
H	-1.22844	-3.72873	1.89062
H	-1.85007	-2.16716	2.55599
H	-0.0788212	-2.54581	2.63024
N	-0.511911	-0.721118	0.690779
C	-0.256114	0.0166805	-0.521154
C	0.694073	1.15255	-0.191765
O	0.979853	1.41641	0.974608
H	-0.382021	-0.214114	1.53809
H	0.24557	-0.627558	-1.23242
C	-1.56938	0.565817	-1.12033
H	-2.07916	1.23517	-0.394975
H	-1.38725	1.12416	-2.06139
H	-2.25245	-0.281987	-1.34617
N	1.21516	1.85005	-1.22035
C	2.13254	2.94445	-1.0038
H	0.975163	1.61899	-2.15741
H	2.44886	3.39001	-1.97263
H	3.04275	2.59337	-0.465717
H	1.65487	3.74217	-0.390109
C	728.29	2.04583	-2.72445
C	729.241	1.4102	-1.78497
O	730.446	1.43483	-1.99131
H	728.853	2.48529	-3.57612
H	727.727	2.85341	-2.21107
H	727.577	1.29029	-3.11684
N	728.709	0.814676	-0.714805
C	729.503	0.116902	0.265485
C	728.646	-0.973785	0.879355
O	727.441	-1.03613	0.642208
H	727.723	0.767511	-0.581744
H	730.336	-0.367388	-0.228698
C	730.01	1.08587	1.35628
H	729.155	1.57508	1.87072
H	730.634	0.56307	2.10954
H	730.628	1.87991	0.883473
N	729.254	-1.8697	1.68178
C	728.52	-2.94568	2.30593
H	730.23	-1.80525	1.85846
H	729.195	-3.57459	2.92652
H	728.045	-3.59587	1.53573
H	727.714	-2.54323	2.96198
