44
  This energy is 0.1634 and Call times are: 176875
C	2.34978	-2.55725	-0.227357
C	1.31491	-1.68168	-0.82197
O	1.14286	-1.63683	-2.03226
H	2.88958	-3.0915	-1.03919
H	1.87838	-3.30563	0.443804
H	3.07875	-1.95044	0.350115
N	0.592561	-0.952421	0.0317101
C	-0.421261	-0.0224312	-0.399387
C	-0.522131	1.08113	0.636725
O	0.0712279	0.993453	1.71002
H	0.771941	-0.969065	1.01121
H	-0.112467	0.436433	-1.33037
C	-1.78295	-0.73083	-0.570273
H	-2.10522	-1.19275	0.38723
H	-2.56884	-0.0280818	-0.915321
H	-1.68357	-1.53943	-1.327
N	-1.27499	2.15683	0.33324
C	-1.42518	3.2587	1.25492
H	-1.74419	2.21147	-0.541938
H	-2.0815	4.04604	0.822985
H	-0.4355	3.71528	1.48588
H	-1.87708	2.91157	2.21223
C	992.018	2.57685	-0.189406
C	992.401	1.18753	0.149432
O	991.655	0.466271	0.798168
H	991.02	2.79991	0.24664
H	991.965	2.70113	-1.29143
H	992.76	3.29033	0.227333
N	993.593	0.776569	-0.288358
C	994.121	-0.533904	-0.00131598
C	995.635	-0.441425	0.0109974
O	996.207	0.581775	-0.360684
H	994.206	1.38855	-0.780138
H	993.808	-0.835699	0.990496
C	993.65	-1.56125	-1.05383
H	993.98	-1.25755	-2.07024
H	994.039	-2.57712	-0.836025
H	992.539	-1.60647	-1.05083
N	996.324	-1.51354	0.450019
C	997.767	-1.51538	0.502565
H	995.843	-2.33092	0.750508
H	998.145	-2.48636	0.891735
H	998.137	-0.702775	1.16904
H	998.197	-1.35249	-0.511987
