44
  This energy is 0 and Call times are: 160501
C	0.905938	-2.88088	1.72988
C	1.21471	-1.54639	1.16869
O	2.25166	-0.963885	1.45477
H	1.72807	-3.19238	2.41028
H	0.81304	-3.62732	0.913217
H	-0.0426422	-2.84361	2.30599
N	0.303595	-1.0239	0.344521
C	0.443237	0.284093	-0.245573
C	-0.945647	0.841109	-0.49515
O	-1.94205	0.13438	-0.355757
H	-0.554341	-1.4922	0.153459
H	0.933378	0.943672	0.459656
C	1.24271	0.211589	-1.56498
H	0.734775	-0.456671	-2.29262
H	1.36898	1.21443	-2.02202
H	2.25251	-0.20617	-1.35974
N	-1.044	2.13337	-0.864503
C	-2.32444	2.75161	-1.11836
H	-0.226621	2.69035	-0.968084
H	-2.19572	3.8174	-1.4095
H	-2.96698	2.71184	-0.209063
H	-2.85878	2.22503	-1.94197
C	215.87	-1.58715	-2.88375
C	216.25	-1.59948	-1.45327
O	216.01	-2.56584	-0.742714
H	215.356	-2.54024	-3.13533
H	216.774	-1.48809	-3.51954
H	215.18	-0.741697	-3.08892
N	216.861	-0.505465	-0.992141
C	217.252	-0.352335	0.386927
C	217.234	1.12713	0.722229
O	217.082	1.97082	-0.159104
H	217.013	0.289301	-1.57278
H	216.52	-0.835909	1.02185
C	218.657	-0.945739	0.630738
H	219.41	-0.442745	-0.0127724
H	218.964	-0.846395	1.69203
H	218.649	-2.02693	0.371328
N	217.382	1.47707	2.01519
C	217.372	2.86065	2.42966
H	217.5	0.779842	2.71453
H	217.507	2.9423	3.53072
H	216.406	3.34527	2.15816
H	218.194	3.42562	1.93258
