44
  This energy is 0 and Call times are: 160473
C	3.18605	0.190322	1.38765
C	1.72344	-0.00552834	1.50413
O	1.2208	-0.420333	2.53936
H	3.67382	-0.109703	2.34051
H	3.41443	1.25832	1.18774
H	3.59144	-0.434597	0.564106
N	0.997001	0.291974	0.424241
C	-0.432534	0.11263	0.371083
C	-0.822784	-0.151501	-1.07096
O	-0.00368568	-0.0225751	-1.9788
H	1.42464	0.589681	-0.424502
H	-0.704048	-0.764839	0.944634
C	-1.16552	1.3604	0.910553
H	-0.895444	2.25898	0.31586
H	-2.2668	1.22924	0.887754
H	-0.858825	1.53926	1.96426
N	-2.09044	-0.538265	-1.31488
C	-2.55099	-0.817257	-2.65512
H	-2.73759	-0.641007	-0.566746
H	-3.62113	-1.12055	-2.64805
H	-1.95613	-1.64148	-3.11125
H	-2.44589	0.083424	-3.30231
C	217.376	-0.112983	2.54067
C	216.737	0.55154	1.3825
O	216.992	1.71426	1.10019
H	218.05	0.608149	3.052
H	217.974	-0.984325	2.20002
H	216.602	-0.454402	3.26056
N	215.876	-0.18505	0.676271
C	215.144	0.335994	-0.45137
C	213.836	-0.424618	-0.558555
O	213.627	-1.41932	0.133349
H	215.648	-1.11723	0.94279
H	214.899	1.37494	-0.269089
C	215.962	0.192802	-1.75362
H	216.205	-0.873963	-1.94663
H	215.415	0.603064	-2.62707
H	216.919	0.750477	-1.6496
N	212.916	0.0343726	-1.42908
C	211.639	-0.621219	-1.59522
H	213.101	0.843179	-1.97725
H	211.022	-0.0935953	-2.35547
H	211.076	-0.63378	-0.634003
H	211.779	-1.67544	-1.92715
