44
  This energy is 0 and Call times are: 162825
C	-2.16527	1.0364	2.51995
C	-1.89764	0.385029	1.21794
O	-2.76215	-0.263823	0.645212
H	-3.20737	0.812102	2.83553
H	-2.04619	2.13655	2.42914
H	-1.46545	0.651491	3.29143
N	-0.671208	0.545024	0.71531
C	-0.248473	-0.0640151	-0.521188
C	1.24903	-0.295344	-0.446759
O	1.91287	0.169309	0.477973
H	0.034157	1.04176	1.21288
H	-0.720069	-1.03365	-0.621334
C	-0.59816	0.835411	-1.727
H	-0.10607	1.82661	-1.62997
H	-0.290132	0.371086	-2.68619
H	-1.69774	0.997768	-1.75708
N	1.81721	-1.03165	-1.42198
C	3.23471	-1.30876	-1.43141
H	1.26292	-1.40258	-2.1597
H	3.50829	-1.92904	-2.31324
H	3.53354	-1.85878	-0.509753
H	3.82006	-0.361796	-1.47339
C	385.082	-2.753	-0.444768
C	384.682	-1.52493	0.278369
O	385.173	-1.24014	1.36204
H	385.832	-3.30772	0.160266
H	385.534	-2.49026	-1.42427
H	384.199	-3.40554	-0.608661
N	383.764	-0.759171	-0.315408
C	383.243	0.443773	0.285129
C	381.83	0.654391	-0.225678
O	381.38	-0.0383929	-1.13615
H	383.344	-1.02529	-1.17823
H	383.182	0.309742	1.35792
C	384.13	1.66038	-0.0586992
H	384.185	1.80466	-1.1588
H	383.748	2.59047	0.40939
H	385.161	1.48091	0.317386
N	381.091	1.61754	0.359066
C	379.734	1.88634	-0.056878
H	381.472	2.16501	1.09706
H	379.295	2.71306	0.543945
H	379.097	0.981768	0.0733278
H	379.703	2.17875	-1.13143
