44
  This energy is -2.1074 and Call times are: 183386
C	-1.26824	-1.72502	-2.74382
C	-0.453218	-1.65746	-1.51
O	-0.00358429	-2.6704	-0.992131
H	-1.38398	-2.78749	-3.04983
H	-0.768545	-1.16733	-3.56358
H	-2.2744	-1.29178	-2.56202
N	-0.243926	-0.44031	-1.00293
C	0.492988	-0.218393	0.216198
C	-0.0311061	1.05075	0.861307
O	-0.816837	1.78318	0.263079
H	-0.650752	0.37102	-1.41293
H	0.300314	-1.03283	0.903363
C	2.00607	-0.096252	-0.0682195
H	2.2053	0.745784	-0.764869
H	2.58588	0.0609988	0.864318
H	2.36622	-1.03279	-0.547322
N	0.388586	1.33704	2.10947
C	-0.0609246	2.52022	2.80534
H	1.02132	0.730074	2.57884
H	0.395564	2.57813	3.818
H	-1.16905	2.51101	2.92044
H	0.21991	3.43872	2.24087
C	993.206	2.86179	1.17502
C	994.404	2.14855	0.677675
O	995.419	2.75636	0.3674
H	993.406	3.95516	1.18383
H	992.965	2.53222	2.20766
H	992.338	2.66112	0.51176
N	994.308	0.819932	0.587578
C	995.375	-0.00677149	0.0807355
C	994.759	-1.24696	-0.538821
O	993.561	-1.48915	-0.404739
H	993.461	0.343139	0.805051
H	995.894	0.523711	-0.707684
C	996.356	-0.395194	1.20897
H	995.826	-0.948655	2.01313
H	997.189	-1.02041	0.828704
H	996.788	0.527792	1.65308
N	995.568	-2.06188	-1.24363
C	995.07	-3.26213	-1.8737
H	996.534	-1.84697	-1.34444
H	995.888	-3.79613	-2.4054
H	994.274	-3.01591	-2.61305
H	994.635	-3.95268	-1.11524
