44
  This energy is -1.1642 and Call times are: 178926
C	0.282302	-3.16621	1.41708
C	0.757455	-1.7776	1.22437
O	1.63706	-1.30568	1.93148
H	0.829939	-3.62707	2.26772
H	0.470388	-3.76558	0.501594
H	-0.804547	-3.17065	1.64475
N	0.173541	-1.08088	0.246614
C	0.499088	0.295422	-0.0333292
C	-0.727544	0.959727	-0.629673
O	-1.7111	0.294823	-0.94942
H	-0.569534	-1.46522	-0.293751
H	0.722866	0.805574	0.895272
C	1.69449	0.392656	-1.00636
H	1.46148	-0.121486	-1.96313
H	1.96373	1.44757	-1.21893
H	2.5784	-0.106745	-0.552868
N	-0.700137	2.29795	-0.786005
C	-1.82332	3.01741	-1.3401
H	0.103163	2.81922	-0.517568
H	-1.60751	4.10756	-1.38715
H	-2.73319	2.86692	-0.714989
H	-2.04947	2.65974	-2.37067
C	993.543	-2.93617	1.7838
C	993.334	-1.4881	1.55933
O	992.47	-0.871683	2.16772
H	992.808	-3.30199	2.53249
H	994.569	-3.11945	2.16834
H	993.399	-3.49524	0.835269
N	994.133	-0.904832	0.662886
C	994.021	0.487492	0.305922
C	994.505	0.649946	-1.1227
O	995.053	-0.279781	-1.71143
H	994.804	-1.42836	0.145865
H	992.978	0.779222	0.328437
C	994.851	1.3709	1.26268
H	995.923	1.07896	1.23206
H	994.762	2.44655	1.00669
H	994.485	1.22998	2.30304
N	994.304	1.84148	-1.71926
C	994.726	2.08689	-3.07867
H	993.855	2.58039	-1.22802
H	994.472	3.12465	-3.38803
H	994.225	1.37982	-3.77905
H	995.827	1.95054	-3.17921
