44
  This energy is 0 and Call times are: 161677
C	-2.27364	-1.57815	-2.11013
C	-1.48472	-1.51322	-0.859325
O	-1.69697	-2.28727	0.0638295
H	-3.03213	-2.38638	-2.02444
H	-1.60844	-1.79939	-2.97112
H	-2.79485	-0.613223	-2.28436
N	-0.542067	-0.56965	-0.800564
C	0.276897	-0.355632	0.366507
C	0.680834	1.10632	0.399245
O	0.45061	1.84487	-0.556403
H	-0.408681	0.0793902	-1.54408
H	-0.310821	-0.547884	1.25547
C	1.52688	-1.26224	0.337134
H	2.13567	-1.05799	-0.56934
H	2.15856	-1.11677	1.23733
H	1.20745	-2.32681	0.305351
N	1.28954	1.56208	1.51181
C	1.7049	2.93987	1.63573
H	1.46356	0.950247	2.2763
H	2.18546	3.11847	2.62284
H	0.830217	3.62367	1.54291
H	2.43548	3.2035	0.837042
C	300.952	0.1386	3.47725
C	301.025	-0.612584	2.20382
O	301.32	-1.79968	2.18503
H	301.216	-0.538503	4.31859
H	299.924	0.524897	3.63571
H	301.668	0.987887	3.46177
N	300.755	0.076055	1.0924
C	300.826	-0.506977	-0.224229
C	301.168	0.593543	-1.21092
O	301.172	1.77267	-0.862586
H	300.557	1.05163	1.12022
H	301.634	-1.22775	-0.252365
C	299.488	-1.17804	-0.603822
H	298.661	-0.436738	-0.58536
H	299.535	-1.64278	-1.60998
H	299.254	-1.9744	0.136018
N	301.473	0.229963	-2.47226
C	301.816	1.20743	-3.47862
H	301.468	-0.729453	-2.73412
H	302.034	0.71167	-4.45018
H	302.716	1.78773	-3.17153
H	300.978	1.92541	-3.63138
