44
  This energy is -0.8991 and Call times are: 187807
C	-1.64303	3.00467	0.620545
C	-0.992198	2.04	-0.294313
O	-1.07463	2.16452	-1.50844
H	-2.18093	3.77227	0.0227634
H	-0.880414	3.50911	1.25039
H	-2.37307	2.48068	1.2729
N	-0.321074	1.0384	0.279068
C	0.328035	-0.00173612	-0.479441
C	0.352024	-1.26008	0.36764
O	0.0184901	-1.22935	1.55066
H	-0.297324	0.927374	1.2685
H	-0.259048	-0.218874	-1.36308
C	1.76272	0.414655	-0.87128
H	2.36849	0.627334	0.0352746
H	2.26826	-0.37233	-1.4676
H	1.72144	1.34175	-1.48376
N	0.742119	-2.40563	-0.22529
C	0.791164	-3.65363	0.500159
H	1.00436	-2.41133	-1.1846
H	1.13595	-4.47931	-0.160601
H	-0.216463	-3.91827	0.895036
H	1.4916	-3.57927	1.36329
C	994.111	2.41257	2.27308
C	994.325	1.5608	1.08161
O	995.277	1.74469	0.335105
H	994.909	3.1845	2.32135
H	994.15	1.79658	3.19599
H	993.125	2.91911	2.20878
N	993.428	0.594579	0.873421
C	993.479	-0.286477	-0.266603
C	992.063	-0.725629	-0.589172
O	991.134	-0.465261	0.172785
H	992.636	0.483379	1.46716
H	993.851	0.260408	-1.12427
C	994.374	-1.51188	0.0230543
H	993.987	-2.07921	0.896386
H	994.432	-2.19099	-0.852086
H	995.403	-1.16645	0.264325
N	991.865	-1.39967	-1.739
C	990.551	-1.85282	-2.1319
H	992.628	-1.59734	-2.3446
H	990.594	-2.38616	-3.10705
H	989.852	-0.990822	-2.23457
H	990.131	-2.54853	-1.36985
