44
  This energy is 0 and Call times are: 161201
C	3.43981	0.0881772	-0.522117
C	2.07369	0.611868	-0.747063
O	1.89127	1.68758	-1.30022
H	4.18199	0.820174	-0.908416
H	3.57325	-0.875378	-1.05737
H	3.61717	-0.064556	0.563381
N	1.06707	-0.150217	-0.313098
C	-0.315025	0.245417	-0.421905
C	-1.08396	-0.405193	0.712556
O	-0.554184	-1.2541	1.42699
H	1.23275	-1.00413	0.171922
H	-0.391145	1.31754	-0.290002
C	-0.903587	-0.175506	-1.78633
H	-0.835329	-1.27647	-1.91765
H	-1.96346	0.135779	-1.88784
H	-0.320644	0.305846	-2.6017
N	-2.35795	-0.0128737	0.910211
C	-3.16559	-0.572472	1.96886
H	-2.76789	0.678314	0.324312
H	-4.18239	-0.121541	1.96804
H	-2.69836	-0.381588	2.9621
H	-3.2704	-1.6744	1.84269
C	270.212	0.229898	1.32013
C	268.805	-0.223785	1.38776
O	268.439	-1.02968	2.23241
H	270.802	-0.284246	2.10971
H	270.269	1.32633	1.48549
H	270.647	-0.0172724	0.328573
N	267.971	0.29163	0.481461
C	266.582	-0.085774	0.394256
C	266.137	0.0790513	-1.0466
O	266.865	0.627406	-1.87195
H	268.292	0.915368	-0.225462
H	266.48	-1.13421	0.645387
C	265.715	0.782312	1.33183
H	265.81	1.85711	1.06786
H	264.645	0.492136	1.28409
H	266.063	0.65213	2.37958
N	264.925	-0.403126	-1.38554
C	264.419	-0.296734	-2.73431
H	264.352	-0.847311	-0.704651
H	263.407	-0.752031	-2.81201
H	265.095	-0.819784	-3.44943
H	264.348	0.77095	-3.0444
