44
  This energy is -1.7019 and Call times are: 184065
C	2.83051	-0.540235	-1.95168
C	1.93516	0.342651	-1.17065
O	2.26739	1.48342	-0.879652
H	3.77671	-0.000372383	-2.17335
H	2.34659	-0.825386	-2.90941
H	3.06715	-1.45622	-1.37024
N	0.760178	-0.176142	-0.806438
C	-0.19825	0.546	-0.00738473
C	-1.00642	-0.462094	0.787698
O	-0.903708	-1.66708	0.565968
H	0.521017	-1.12001	-1.0157
H	0.327878	1.17055	0.703787
C	-1.12549	1.40199	-0.897756
H	-1.67338	0.760502	-1.62049
H	-1.8591	1.97365	-0.293168
H	-0.512108	2.12695	-1.47616
N	-1.82857	0.0109941	1.74492
C	-2.63257	-0.873547	2.5557
H	-1.89503	0.989064	1.91236
H	-3.24045	-0.294415	3.2853
H	-1.98657	-1.5826	3.12245
H	-3.32433	-1.47067	1.91848
C	994.579	-3.17	0.144178
C	994.276	-1.84882	0.738968
O	994.475	-1.62816	1.9256
H	994.967	-3.84842	0.934784
H	995.349	-3.0651	-0.648967
H	993.659	-3.61412	-0.290584
N	993.777	-0.926503	-0.0871823
C	993.393	0.391211	0.354062
C	992.283	0.88891	-0.552731
O	991.977	0.270786	-1.57038
H	993.582	-1.13388	-1.0416
H	992.987	0.328233	1.35599
C	994.597	1.35799	0.317277
H	995.007	1.43107	-0.712472
H	994.317	2.37254	0.667979
H	995.4	0.969928	0.981592
N	991.646	2.0218	-0.197116
C	990.573	2.56821	-0.995413
H	991.906	2.50567	0.632082
H	990.178	3.50154	-0.537195
H	989.736	1.8381	-1.081
H	990.931	2.80606	-2.02354
