44
  This energy is 0.1063 and Call times are: 175443
C	-0.383529	-3.45276	-0.209783
C	0.341408	-2.24776	0.252359
O	1.23642	-2.327	1.08247
H	0.0109389	-4.34543	0.322585
H	-0.237658	-3.5919	-1.30162
H	-1.46785	-3.35423	0.00847623
N	-0.0378862	-1.08516	-0.283247
C	0.544379	0.17733	0.0983843
C	-0.49937	1.25972	-0.103038
O	-1.55864	1.01418	-0.676944
H	-0.795612	-1.03177	-0.92735
H	0.786166	0.154755	1.15369
C	1.80594	0.478911	-0.739926
H	1.55644	0.512619	-1.82189
H	2.27144	1.44194	-0.445971
H	2.55268	-0.329902	-0.583258
N	-0.225499	2.48929	0.375687
C	-1.16106	3.58073	0.23545
H	0.635277	2.66757	0.840823
H	-0.75388	4.50902	0.693373
H	-2.12633	3.33739	0.735772
H	-1.3709	3.78284	-0.839845
C	1001.46	0.222449	-2.45433
C	1000.86	0.642922	-1.16734
O	1001.47	1.36377	-0.390652
H	1002.48	0.645919	-2.53887
H	1000.84	0.594602	-3.30142
H	1001.52	-0.885086	-2.50293
N	999.63	0.191467	-0.908899
C	998.934	0.479936	0.320651
C	997.982	-0.665949	0.605337
O	997.783	-1.54272	-0.233352
H	999.161	-0.427824	-1.53248
H	999.648	0.516103	1.1345
C	998.162	1.81339	0.217872
H	997.423	1.77306	-0.610204
H	997.633	2.05357	1.16317
H	998.878	2.63632	0.00134778
N	997.373	-0.689392	1.80761
C	996.455	-1.74364	2.16957
H	997.55	0.0267304	2.47467
H	996.06	-1.5857	3.19747
H	996.962	-2.73495	2.13749
H	995.593	-1.77386	1.46385
