44
  This energy is 0 and Call times are: 163357
C	2.98302	-0.101633	-1.78995
C	2.02174	-0.681462	-0.82513
O	2.1356	-1.83481	-0.433675
H	3.7374	-0.870813	-2.06409
H	3.50428	0.767089	-1.33568
H	2.4526	0.225138	-2.70917
N	1.03531	0.119737	-0.415969
C	-0.000242227	-0.315551	0.487751
C	-1.2515	0.491643	0.197309
O	-1.21694	1.45364	-0.567593
H	0.932294	1.04299	-0.774924
H	-0.233422	-1.35439	0.290075
C	0.435737	-0.128562	1.95751
H	0.664931	0.938688	2.16363
H	-0.347727	-0.473025	2.66324
H	1.35732	-0.721676	2.14524
N	-2.39527	0.110471	0.799403
C	-3.63672	0.815012	0.578928
H	-2.4042	-0.673042	1.41186
H	-4.46191	0.349561	1.16172
H	-3.9142	0.793702	-0.499879
H	-3.54466	1.88059	0.890729
C	424.223	-0.15296	1.30393
C	422.782	-0.487125	1.34918
O	422.35	-1.32213	2.13189
H	424.768	-0.776513	2.04552
H	424.376	0.918079	1.55363
H	424.632	-0.358286	0.292114
N	421.994	0.167935	0.49361
C	420.577	-0.0799489	0.39027
C	420.144	0.235222	-1.02915
O	420.915	0.781579	-1.81606
H	422.366	0.815062	-0.165562
H	420.385	-1.13211	0.55993
C	419.791	0.783731	1.40067
H	419.979	1.86359	1.22032
H	418.7	0.591787	1.34049
H	420.13	0.542142	2.43179
N	418.894	-0.112279	-1.39326
C	418.396	0.142854	-2.72486
H	418.287	-0.55726	-0.743702
H	417.348	-0.215726	-2.82831
H	419.022	-0.37898	-3.48482
H	418.418	1.23368	-2.95019
