44
  This energy is 0 and Call times are: 160837
C	-2.59827	0.0569777	-2.31483
C	-1.49	0.71105	-1.58334
O	-1.07764	1.81433	-1.9137
H	-2.92314	0.712405	-3.15194
H	-3.45957	-0.110571	-1.6345
H	-2.26094	-0.915994	-2.73031
N	-0.973804	0.0313392	-0.556743
C	0.136522	0.518694	0.223142
C	0.894526	-0.678017	0.76616
O	0.439886	-1.81494	0.654723
H	-1.29277	-0.88335	-0.325507
H	0.814074	1.06408	-0.421925
C	-0.353691	1.41884	1.37842
H	-1.04055	0.856691	2.04643
H	0.492898	1.81161	1.97804
H	-0.912321	2.28356	0.958243
N	2.08062	-0.448472	1.36326
C	2.87522	-1.52607	1.90509
H	2.43386	0.478006	1.44026
H	3.81487	-1.13477	2.35361
H	3.14493	-2.25501	1.10686
H	2.31039	-2.07227	2.69489
C	241.995	-0.0975839	-3.33375
C	241.73	0.632529	-2.07357
O	242.085	1.79422	-1.92858
H	242.545	0.56703	-4.03465
H	241.038	-0.404787	-3.8062
H	242.613	-0.997704	-3.13192
N	241.091	-0.0459998	-1.11749
C	240.801	0.516044	0.178117
C	240.754	-0.617267	1.18558
O	240.784	-1.78969	0.816439
H	240.845	-1.00383	-1.23527
H	241.61	1.17458	0.470827
C	239.46	1.28044	0.16012
H	238.628	0.602778	-0.129886
H	239.232	1.72967	1.14847
H	239.514	2.09982	-0.589545
N	240.688	-0.290771	2.49134
C	240.645	-1.30171	3.52203
H	240.669	0.663516	2.77072
H	240.593	-0.833873	4.52982
H	241.555	-1.94386	3.4806
H	239.754	-1.95713	3.39275
