44
  This energy is -4.1594 and Call times are: 182927
C	-0.565408	1.93963	-2.83387
C	-0.418692	0.630546	-2.15865
O	-0.715984	-0.411394	-2.72645
H	-0.979373	1.78257	-3.8536
H	0.422664	2.43865	-2.92006
H	-1.25914	2.59024	-2.2607
N	0.0492655	0.656744	-0.90857
C	0.206034	-0.532238	-0.10838
C	0.0533601	-0.144203	1.35028
O	-0.00190584	1.03755	1.68513
H	0.248185	1.51573	-0.445502
H	-0.590337	-1.22776	-0.342198
C	1.58424	-1.18461	-0.353747
H	2.40168	-0.475069	-0.103991
H	1.71164	-2.10881	0.246371
H	1.67705	-1.45303	-1.42877
N	-0.0272538	-1.13824	2.2566
C	-0.179107	-0.864981	3.66672
H	0.0152561	-2.08839	1.96594
H	-0.226655	-1.81215	4.24795
H	-1.11413	-0.289783	3.85688
H	0.67906	-0.263797	4.04523
C	996.928	-2.55435	1.29371
C	996.339	-1.19839	1.36628
O	996.4	-0.535846	2.3928
H	997.373	-2.81493	2.27887
H	997.725	-2.58454	0.520911
H	996.144	-3.29974	1.04486
N	995.743	-0.750189	0.258788
C	995.087	0.531794	0.18912
C	993.979	0.44051	-0.842658
O	993.874	-0.546659	-1.56796
H	995.666	-1.31737	-0.556183
H	994.623	0.747765	1.14322
C	996.09	1.64432	-0.189639
H	996.558	1.42857	-1.17331
H	995.599	2.63849	-0.232965
H	996.896	1.68772	0.5747
N	993.116	1.47228	-0.926375
C	992.027	1.47146	-1.87456
H	993.215	2.26054	-0.328143
H	991.43	2.40631	-1.78885
H	991.349	0.605593	-1.69374
H	992.413	1.39598	-2.91686
