44
  This energy is 0 and Call times are: 168285
C	2.8601	1.29603	1.50095
C	1.40276	1.0375	1.47937
O	0.711702	1.22598	2.471
H	3.1566	1.64299	2.51464
H	3.12027	2.0824	0.761574
H	3.41737	0.365658	1.2623
N	0.896411	0.590028	0.327955
C	-0.495955	0.252997	0.165818
C	-0.601628	-0.820506	-0.900943
O	0.376183	-1.13543	-1.57653
H	1.47833	0.402591	-0.458243
H	-0.870568	-0.171546	1.08889
C	-1.32158	1.49579	-0.232986
H	-0.944366	1.9255	-1.1854
H	-2.39772	1.25212	-0.347344
H	-1.22319	2.27104	0.557994
N	-1.79806	-1.41668	-1.07172
C	-1.99224	-2.45277	-2.05913
H	-2.57653	-1.15116	-0.512658
H	-3.04317	-2.8169	-2.04563
H	-1.31909	-3.3176	-1.85859
H	-1.76686	-2.06946	-3.08061
C	772.939	3.44536	0.48845
C	772.277	2.12176	0.456866
O	771.148	1.9682	0.900623
H	772.262	4.18333	0.970674
H	773.165	3.78539	-0.544238
H	773.882	3.38783	1.07225
N	772.98	1.1194	-0.076092
C	772.486	-0.233779	-0.137931
C	773.677	-1.17343	-0.107464
O	774.824	-0.740484	-0.205173
H	773.914	1.25121	-0.395859
H	771.892	-0.437786	0.74383
C	771.652	-0.458628	-1.41781
H	772.264	-0.259661	-2.32292
H	771.254	-1.493	-1.47023
H	770.791	0.244809	-1.42272
N	773.431	-2.49028	0.0383622
C	774.501	-3.45898	0.0836678
H	772.496	-2.82109	0.119952
H	774.096	-4.4873	0.208433
H	775.187	-3.24685	0.935597
H	775.099	-3.42895	-0.856235
