44
  This energy is 0 and Call times are: 161817
C	0.692861	2.54953	-2.26551
C	1.1163	1.43469	-1.3886
O	2.25041	0.979804	-1.44604
H	1.53761	2.83626	-2.92888
H	0.402266	3.42893	-1.65319
H	-0.167382	2.23649	-2.89407
N	0.196557	0.961242	-0.544627
C	0.446621	-0.149207	0.340207
C	-0.870948	-0.856612	0.595442
O	-1.93268	-0.366947	0.215097
H	-0.734531	1.31465	-0.538207
H	1.10275	-0.85679	-0.151173
C	1.0684	0.333377	1.66902
H	0.390953	1.05126	2.17866
H	1.27848	-0.513907	2.35349
H	2.02736	0.854897	1.45744
N	-0.831293	-2.03781	1.24292
C	-2.03421	-2.78574	1.52538
H	0.037779	-2.41988	1.53924
H	-1.79358	-3.7289	2.06368
H	-2.56524	-3.0467	0.581357
H	-2.72916	-2.18796	2.1585
C	312.924	2.52154	-1.43243
C	311.655	2.01388	-0.864984
O	310.732	2.77188	-0.600145
H	312.865	3.62694	-1.53446
H	313.1	2.07708	-2.43453
H	313.772	2.26761	-0.761555
N	311.581	0.696615	-0.660663
C	310.427	0.0607394	-0.0750095
C	310.892	-1.19143	0.6447
O	312.046	-1.59683	0.5221
H	312.355	0.0976873	-0.843017
H	309.996	0.718939	0.668702
C	309.383	-0.292305	-1.15698
H	309.822	-0.975955	-1.91447
H	308.484	-0.77	-0.716876
H	309.064	0.637699	-1.67591
N	309.998	-1.83209	1.42438
C	310.352	-3.02872	2.15208
H	309.07	-1.48646	1.51425
H	309.482	-3.40542	2.73499
H	311.187	-2.82544	2.86055
H	310.68	-3.83161	1.45282
