44
  This energy is -0.5848 and Call times are: 181138
C	-2.74368	0.389909	-2.10544
C	-1.7432	-0.451288	-1.41077
O	-1.85732	-1.6686	-1.37169
H	-3.54449	-0.259529	-2.52116
H	-2.264	0.94645	-2.93785
H	-3.1987	1.11024	-1.39327
N	-0.724161	0.191433	-0.835574
C	0.304331	-0.487118	-0.0870202
C	0.837318	0.471768	0.960842
O	0.508825	1.65658	0.955519
H	-0.666766	1.18569	-0.840883
H	-0.131584	-1.32828	0.437434
C	1.44282	-0.95997	-1.01734
H	1.89736	-0.0961625	-1.54769
H	2.23435	-1.49613	-0.454738
H	1.02852	-1.65415	-1.78077
N	1.6718	-0.0242284	1.89554
C	2.22457	0.811875	2.93552
H	1.92274	-0.986519	1.88583
H	2.88634	0.220133	3.60568
H	1.41226	1.2605	3.5521
H	2.82289	1.64236	2.4957
C	993.879	-2.83111	-1.71268
C	993.97	-1.87664	-0.584906
O	994.67	-2.11365	0.390112
H	994.505	-3.72264	-1.49068
H	994.248	-2.3566	-2.6463
H	992.827	-3.15689	-1.8544
N	993.25	-0.757945	-0.694679
C	993.202	0.245053	0.339881
C	991.861	0.94809	0.256114
O	991.101	0.745052	-0.689255
H	992.653	-0.597984	-1.47591
H	993.254	-0.237543	1.30791
C	994.356	1.25908	0.178314
H	994.298	1.76209	-0.81043
H	994.339	2.02858	0.977118
H	995.328	0.721559	0.234899
N	991.533	1.79085	1.25528
C	990.275	2.50018	1.26372
H	992.159	1.93903	2.01381
H	990.192	3.14283	2.16778
H	989.42	1.78489	1.26251
H	990.183	3.1488	0.36259
