44
  This energy is 0 and Call times are: 159801
C	0.800723	0.810237	-3.28862
C	0.0628093	0.00859739	-2.28663
O	-0.854935	-0.729317	-2.61774
H	0.368655	0.626593	-4.29633
H	1.87199	0.518645	-3.29835
H	0.714365	1.8918	-3.05226
N	0.453448	0.14038	-1.01682
C	-0.195958	-0.541743	0.0747593
C	-0.0322085	0.302593	1.32449
O	0.707687	1.28456	1.32864
H	1.17515	0.775965	-0.757898
H	-1.257	-0.613343	-0.129413
C	0.410724	-1.9461	0.286759
H	1.49712	-1.87255	0.506673
H	-0.0902387	-2.48689	1.11568
H	0.286711	-2.54359	-0.642744
N	-0.730827	-0.0583017	2.4189
C	-0.642631	0.688309	3.65217
H	-1.32752	-0.85357	2.39491
H	-1.2909	0.234479	4.43384
H	-0.966753	1.74288	3.49693
H	0.40544	0.701284	4.02969
C	165.571	3.14152	0.447957
C	166.213	1.91533	0.972178
O	166.606	1.85171	2.12877
H	165.546	3.91373	1.24729
H	164.53	2.92176	0.128392
H	166.147	3.53624	-0.415397
N	166.337	0.898172	0.116411
C	166.98	-0.343906	0.467746
C	167.573	-0.942759	-0.793438
O	167.324	-0.461332	-1.89696
H	166.049	0.979432	-0.833497
H	167.799	-0.142844	1.14613
C	165.973	-1.3231	1.11015
H	165.137	-1.53792	0.410581
H	166.458	-2.27817	1.39781
H	165.545	-0.861003	2.02666
N	168.385	-2.00965	-0.656873
C	169	-2.64285	-1.80017
H	168.578	-2.38244	0.244685
H	169.631	-3.50159	-1.48188
H	169.644	-1.91941	-2.35061
H	168.224	-3.02004	-2.5051
