44
  This energy is 0 and Call times are: 169517
C	1.9072	-1.71515	-2.35235
C	1.17337	-0.5136	-1.89528
O	1.26896	0.550931	-2.4903
H	2.51348	-1.45679	-3.24764
H	1.19223	-2.52045	-2.62266
H	2.5856	-2.07704	-1.55116
N	0.413264	-0.660476	-0.807603
C	-0.325966	0.428238	-0.218706
C	-0.465343	0.156161	1.26726
O	-0.132564	-0.927647	1.74301
H	0.377747	-1.52266	-0.310368
H	0.240662	1.34465	-0.327088
C	-1.71634	0.57025	-0.875929
H	-2.30203	-0.366008	-0.755827
H	-2.28997	1.41402	-0.440584
H	-1.59016	0.760897	-1.96408
N	-0.956471	1.14453	2.04053
C	-1.11964	0.978793	3.46605
H	-1.21639	2.01597	1.63791
H	-1.53656	1.90265	3.9242
H	-0.140839	0.758344	3.95043
H	-1.81205	0.134428	3.68687
C	861.036	2.03046	2.82643
C	861.718	1.3408	1.70852
O	862.885	1.58286	1.43357
H	861.738	2.75268	3.29614
H	860.714	1.29307	3.59144
H	860.15	2.58394	2.45059
N	860.991	0.452503	1.02684
C	861.504	-0.265996	-0.11309
C	860.339	-0.594237	-1.02822
O	859.18	-0.399737	-0.666983
H	860.03	0.29621	1.23668
H	862.178	0.376024	-0.666395
C	862.226	-1.55763	0.328278
H	861.533	-2.22135	0.886858
H	862.638	-2.11278	-0.53954
H	863.07	-1.29402	1.00331
N	860.623	-1.09551	-2.24645
C	859.58	-1.43248	-3.18711
H	861.568	-1.24203	-2.52226
H	860.015	-1.82902	-4.131
H	858.968	-0.534647	-3.43325
H	858.902	-2.20659	-2.76103
