44
  This energy is 0.2095 and Call times are: 187839
C	-1.04069	-3.20456	0.872041
C	-0.250805	-1.9778	1.12164
O	0.303348	-1.78937	2.1958
H	-1.03449	-3.83765	1.78584
H	-0.597769	-3.78075	0.0326522
H	-2.09056	-2.9401	0.625198
N	-0.183266	-1.10087	0.117247
C	0.511985	0.157555	0.22477
C	-0.156461	1.14855	-0.7094
O	-1.01262	0.779543	-1.51099
H	-0.673565	-1.24937	-0.736814
H	0.404059	0.540383	1.23196
C	2.00493	-0.00439872	-0.13596
H	2.11639	-0.387131	-1.17284
H	2.55415	0.954949	-0.0435906
H	2.47179	-0.739781	0.555128
N	0.216099	2.44059	-0.620798
C	-0.36919	3.45566	-1.46533
H	0.90758	2.72056	0.0368811
H	0.0677157	4.4537	-1.24113
H	-1.47054	3.51155	-1.30664
H	-0.186468	3.22612	-2.54007
C	993.275	2.46308	2.37806
C	993.039	1.12201	1.79768
O	992.388	0.277809	2.39861
H	992.798	2.5185	3.38083
H	992.833	3.24553	1.72617
H	994.365	2.64603	2.4876
N	993.573	0.89285	0.595949
C	993.465	-0.377454	-0.0772945
C	994.679	-0.542991	-0.972205
O	995.458	0.390563	-1.15647
H	994.134	1.576	0.137394
H	993.494	-1.17388	0.655854
C	992.166	-0.452913	-0.908195
H	992.14	0.357559	-1.6675
H	992.064	-1.43162	-1.42041
H	991.291	-0.321354	-0.234295
N	994.873	-1.74676	-1.54595
C	996.004	-1.99928	-2.40862
H	994.235	-2.49113	-1.38161
H	995.988	-3.04713	-2.78143
H	996.96	-1.83697	-1.86048
H	995.989	-1.31414	-3.28696
