44
  This energy is 0 and Call times are: 162377
C	3.33254	0.957595	-0.299815
C	2.17379	0.12826	-0.700621
O	2.20768	-0.560635	-1.71091
H	4.14415	0.842056	-1.05069
H	3.71137	0.632128	0.6918
H	3.0386	2.02728	-0.250084
N	1.10356	0.179438	0.0958575
C	-0.114635	-0.53827	-0.186005
C	-1.26982	0.232543	0.424682
O	-1.06489	1.18822	1.1706
H	1.07612	0.776445	0.892536
H	-0.274371	-0.564233	-1.25672
C	-0.0562107	-1.97098	0.387735
H	0.0971037	-1.94473	1.48766
H	-0.983003	-2.53849	0.165225
H	0.801032	-2.51377	-0.0670827
N	-2.51976	-0.163108	0.112996
C	-3.68088	0.513514	0.642307
H	-2.66546	-0.936074	-0.495582
H	-4.61585	0.0401136	0.269565
H	-3.68452	1.58487	0.336597
H	-3.6864	0.472161	1.75559
C	352.405	2.84811	-1.42344
C	352.516	1.48944	-0.846434
O	353.556	0.851129	-0.924958
H	353.368	3.12075	-1.90812
H	352.183	3.58636	-0.624353
H	351.599	2.87552	-2.186
N	351.425	1.00927	-0.245534
C	351.365	-0.313406	0.325065
C	349.927	-0.791208	0.26343
O	349.022	-0.0249123	-0.0621012
H	350.573	1.52444	-0.225536
H	351.956	-0.99007	-0.279644
C	351.872	-0.308042	1.78398
H	351.26	0.37801	2.40711
H	351.845	-1.32334	2.22999
H	352.924	0.0524516	1.80588
N	349.683	-2.08082	0.568893
C	348.346	-2.62619	0.532474
H	350.428	-2.68654	0.826036
H	348.352	-3.70198	0.815112
H	347.912	-2.53492	-0.489696
H	347.68	-2.08145	1.24005
