44
  This energy is -2.1694 and Call times are: 180864
C	0.871659	-3.00631	1.5215
C	1.21521	-1.67264	0.978887
O	2.31463	-1.17347	1.17509
H	1.73492	-3.40085	2.1003
H	0.643064	-3.70926	0.693037
H	-0.00799	-2.93045	2.19497
N	0.263911	-1.05569	0.274057
C	0.43481	0.264101	-0.280472
C	-0.929332	0.922798	-0.362865
O	-1.95382	0.278879	-0.144899
H	-0.640085	-1.45705	0.157559
H	1.04001	0.858698	0.392448
C	1.08799	0.194877	-1.67826
H	0.462233	-0.406226	-2.37189
H	1.23761	1.20568	-2.11002
H	2.08134	-0.297788	-1.59517
N	-0.973122	2.23336	-0.673588
C	-2.22575	2.94603	-0.769442
H	-0.133212	2.73842	-0.842502
H	-2.05228	4.01231	-1.03434
H	-2.77313	2.9104	0.200292
H	-2.87749	2.49203	-1.55063
C	997.312	-2.93192	1.60978
C	996.936	-2.17584	0.394028
O	997.082	-2.657	-0.721116
H	997.729	-3.9189	1.31403
H	996.419	-3.09629	2.24958
H	998.081	-2.37414	2.18467
N	996.436	-0.952725	0.586575
C	996.065	-0.0807841	-0.499984
C	996.229	1.35324	-0.0327215
O	996.461	1.60847	1.14746
H	996.362	-0.558984	1.4983
H	996.748	-0.230465	-1.32718
C	994.61	-0.342407	-0.944895
H	993.908	-0.178749	-0.0993923
H	994.317	0.31331	-1.79025
H	994.511	-1.39959	-1.27506
N	996.12	2.32823	-0.95655
C	996.266	3.7217	-0.605821
H	995.936	2.10175	-1.90734
H	996.143	4.36802	-1.50262
H	997.274	3.91373	-0.171615
H	995.503	4.01929	0.148967
