44
  This energy is 0 and Call times are: 164533
C	1.97357	-0.291409	-2.85181
C	0.714515	0.0865756	-2.17132
O	-0.145407	0.738438	-2.74754
H	1.97137	0.121279	-3.88407
H	2.06188	-1.39681	-2.90689
H	2.845	0.121854	-2.30144
N	0.578081	-0.319977	-0.907015
C	-0.571965	0.00701961	-0.101393
C	-0.136569	0.0444269	1.35139
O	0.982863	-0.340678	1.68348
H	1.30437	-0.814792	-0.438471
H	-0.918602	0.999814	-0.359914
C	-1.69908	-1.02955	-0.302353
H	-1.3472	-2.04667	-0.0272419
H	-2.59538	-0.781148	0.302174
H	-1.99627	-1.0455	-1.37369
N	-1.0152	0.520658	2.2554
C	-0.687015	0.59921	3.65979
H	-1.91479	0.831446	1.96692
H	-1.53883	1.01766	4.2399
H	0.200754	1.25309	3.81972
H	-0.449218	-0.410954	4.06496
C	505.841	-0.0244719	-3.377
C	505.073	-0.539875	-2.22169
O	504.132	-1.30622	-2.37828
H	505.408	-0.429811	-4.31693
H	506.902	-0.34356	-3.30383
H	505.79	1.0844	-3.40659
N	505.462	-0.120949	-1.01536
C	504.786	-0.501747	0.19948
C	504.972	0.611096	1.21355
O	505.745	1.54179	0.992245
H	506.204	0.53501	-0.906823
H	503.724	-0.586567	0.0054121
C	505.344	-1.83321	0.747811
H	506.431	-1.74353	0.957003
H	504.822	-2.14426	1.67568
H	505.204	-2.63123	-0.0137066
N	504.257	0.544287	2.35387
C	504.365	1.56073	3.37435
H	503.634	-0.214476	2.5131
H	503.699	1.32743	4.2338
H	504.077	2.55736	2.96804
H	505.411	1.63047	3.75058
