44
  This energy is 0.1101 and Call times are: 185374
C	-1.3926	-2.19262	2.31641
C	-0.465123	-1.09799	1.95211
O	0.117012	-0.449542	2.81062
H	-1.45038	-2.2718	3.42378
H	-1.02647	-3.15703	1.90578
H	-2.40755	-1.98285	1.91769
N	-0.307023	-0.863684	0.647322
C	0.528745	0.195812	0.139858
C	-0.0305459	0.63945	-1.19877
O	-0.930805	0.00588336	-1.74635
H	-0.819091	-1.373	-0.0384263
H	0.47482	1.04516	0.80944
C	1.98987	-0.280076	-0.014666
H	2.04705	-1.14476	-0.709716
H	2.64619	0.530908	-0.391602
H	2.37591	-0.607347	0.975395
N	0.488342	1.75151	-1.75565
C	0.0152558	2.25259	-3.02502
H	1.21347	2.25296	-1.29544
H	0.565664	3.17513	-3.31345
H	-1.07091	2.49479	-2.97153
H	0.160402	1.49244	-3.82642
C	995.815	2.24171	-2.54396
C	995.591	1.66717	-1.19826
O	994.846	2.21009	-0.394172
H	995.234	3.18414	-2.64235
H	995.479	1.5285	-3.32545
H	996.893	2.46736	-2.68922
N	996.245	0.537111	-0.919137
C	996.162	-0.116978	0.362961
C	997.459	-0.868296	0.595872
O	998.289	-0.984875	-0.303293
H	996.88	0.129197	-1.56924
H	996.078	0.631487	1.14107
C	994.959	-1.0849	0.411348
H	995.05	-1.85925	-0.380004
H	994.876	-1.58443	1.3983
H	994.022	-0.514902	0.230519
N	997.667	-1.39147	1.82015
C	998.875	-2.11813	2.13607
H	996.986	-1.28319	2.53599
H	998.859	-2.46824	3.19171
H	999.771	-1.47103	1.99539
H	998.984	-3.007	1.47331
