44
  This energy is -4.6534 and Call times are: 187070
C	-1.3926	1.38222	-2.87451
C	-0.465123	0.450718	-2.1939
O	0.117012	-0.428558	-2.8139
H	-1.45038	1.12009	-3.95332
H	-1.02647	2.42589	-2.77738
H	-2.40755	1.30396	-2.43083
N	-0.307023	0.625274	-0.879778
C	0.528745	-0.229124	-0.0735175
C	-0.0305459	-0.243621	1.33664
O	-0.930805	0.526703	1.66504
H	-0.819091	1.31938	-0.381908
H	0.47482	-1.24215	-0.452347
C	1.98987	0.271218	-0.071402
H	2.04705	1.30661	0.327008
H	2.64619	-0.386279	0.534793
H	2.37591	0.281135	-1.1141
N	0.488342	-1.13301	2.20598
C	0.0152558	-1.22334	3.56768
H	1.21347	-1.75089	1.92052
H	0.565664	-2.01406	4.12359
H	-1.07091	-1.47031	3.59056
H	0.160402	-0.255086	4.09925
C	994.718	3.2466	1.23478
C	995.035	2.21269	0.223993
O	995.55	2.50953	-0.845067
H	995.004	4.24586	0.840084
H	995.285	3.05413	2.16987
H	993.63	3.24502	1.45549
N	994.727	0.954204	0.545356
C	994.935	-0.154616	-0.352109
C	993.904	-1.22073	-0.0348487
O	993.187	-1.12758	0.960016
H	994.27	0.733242	1.40249
H	994.76	0.171464	-1.36969
C	996.364	-0.722506	-0.204236
H	996.541	-1.06687	0.836975
H	996.542	-1.56803	-0.89994
H	997.102	0.076816	-0.433307
N	993.798	-2.26146	-0.884447
C	992.841	-3.32101	-0.66689
H	994.384	-2.31722	-1.6863
H	992.909	-4.08354	-1.47389
H	991.803	-2.91603	-0.652979
H	993.028	-3.82532	0.308755
