44
  This energy is -2.3652 and Call times are: 184093
C	-2.86885	1.18904	-1.57117
C	-1.47372	0.695486	-1.60534
O	-0.932334	0.400545	-2.6619
H	-3.27625	1.2106	-2.60531
H	-2.90126	2.2161	-1.15066
H	-3.49781	0.515948	-0.951122
N	-0.852118	0.591256	-0.428428
C	0.49173	0.0858854	-0.297152
C	0.625574	-0.551607	1.07297
O	-0.263726	-0.43084	1.91337
H	-1.31963	0.796251	0.426722
H	0.654087	-0.692445	-1.03232
C	1.52668	1.21905	-0.470571
H	1.36717	2.01278	0.290075
H	2.56576	0.840136	-0.385424
H	1.40511	1.67627	-1.47681
N	1.74511	-1.25715	1.32768
C	1.9577	-1.90369	2.60164
H	2.45166	-1.34703	0.633566
H	2.93576	-2.43324	2.61554
H	1.1534	-2.64774	2.80355
H	1.95172	-1.15614	3.42764
C	992.88	3.3415	0.972993
C	993.589	2.09972	0.590957
O	994.788	2.10471	0.348385
H	993.598	4.19011	0.971158
H	992.448	3.23807	1.99076
H	992.067	3.55676	0.247346
N	992.85	0.989952	0.526017
C	993.39	-0.285816	0.126776
C	992.274	-1.09329	-0.509728
O	991.109	-0.701721	-0.466325
H	991.867	1.00947	0.68642
H	994.148	-0.131441	-0.630167
C	993.979	-1.03905	1.33921
H	993.199	-1.20697	2.11152
H	994.411	-2.01698	1.04246
H	994.788	-0.426304	1.79391
N	992.609	-2.24345	-1.12719
C	991.615	-3.07519	-1.7657
H	993.557	-2.54166	-1.1554
H	992.087	-3.97564	-2.21683
H	991.092	-2.51269	-2.57236
H	990.851	-3.41195	-1.02792
