44
  This energy is 0 and Call times are: 157673
C	0.511497	-1.91082	-2.86353
C	0.90366	-0.830888	-1.93021
O	2.00253	-0.298487	-2.00404
H	1.35412	-2.12021	-3.55782
H	-0.374426	-1.601	-3.45674
H	0.272611	-2.83664	-2.29884
N	-0.00208077	-0.480185	-1.01423
C	0.250225	0.524154	-0.0111301
C	-0.58855	0.194851	1.20935
O	-1.44132	-0.689877	1.16741
H	-0.876646	-0.950913	-0.940625
H	1.28952	0.475944	0.289159
C	-0.0954186	1.93281	-0.541666
H	-1.16416	1.98587	-0.840014
H	0.10765	2.71642	0.216778
H	0.524306	2.14923	-1.43914
N	-0.358022	0.898982	2.335
C	-1.10349	0.651862	3.54718
H	0.339045	1.60816	2.35062
H	-0.767539	1.33167	4.36095
H	-0.961953	-0.399395	3.88792
H	-2.19244	0.81676	3.37946
C	13.779	3.23005	-0.43424
C	13.9741	1.83746	-0.896595
O	13.3765	1.40488	-1.87241
H	13.0346	3.73348	-1.08877
H	14.7376	3.78794	-0.484854
H	13.402	3.23722	0.610246
N	14.8285	1.0923	-0.191612
C	15.0896	-0.293079	-0.493517
C	15.4784	-0.992872	0.795164
O	15.6868	-0.350425	1.82254
H	15.2763	1.44603	0.624605
H	14.1795	-0.75831	-0.851332
C	16.2148	-0.426508	-1.54291
H	17.1516	0.0413546	-1.17197
H	16.4157	-1.48815	-1.79412
H	15.9121	0.0995314	-2.47456
N	15.5771	-2.33664	0.771756
C	15.9361	-3.08884	1.95137
H	15.4006	-2.83926	-0.068065
H	15.9642	-4.17845	1.72954
H	15.1973	-2.91621	2.76723
H	16.9399	-2.78064	2.32369
