44
  This energy is -3.2533 and Call times are: 179235
C	-1.03791	2.01449	2.64145
C	0.0156137	1.45539	1.76473
O	1.15372	1.90368	1.77773
H	-0.614636	2.85382	3.23495
H	-1.41039	1.23399	3.33774
H	-1.88192	2.39689	2.02948
N	-0.348158	0.447469	0.968399
C	0.554462	-0.170811	0.0294819
C	-0.263755	-0.708074	-1.12958
O	-1.49211	-0.72521	-1.07883
H	-1.28848	0.120613	0.939572
H	1.22454	0.580443	-0.369572
C	1.35459	-1.30854	0.700755
H	0.668026	-2.08472	1.10102
H	2.06319	-1.78345	-0.00837868
H	1.9394	-0.893952	1.55073
N	0.403374	-1.15443	-2.21204
C	-0.291091	-1.67836	-3.36504
H	1.39727	-1.12866	-2.23613
H	0.431527	-1.99334	-4.14979
H	-0.967119	-0.907144	-3.80034
H	-0.9101	-2.56083	-3.08358
C	994.549	-0.840136	3.29332
C	994.579	0.0979629	2.14866
O	994.921	1.26331	2.29403
H	994.855	-0.302411	4.21691
H	995.252	-1.68107	3.11728
H	993.523	-1.24008	3.43377
N	994.212	-0.398412	0.964893
C	994.148	0.402677	-0.232111
C	993.092	-0.191742	-1.14381
O	992.577	-1.27821	-0.88652
H	993.896	-1.33832	0.870131
H	993.827	1.40416	0.0248686
C	995.519	0.440129	-0.943855
H	995.844	-0.586144	-1.21711
H	995.487	1.06524	-1.85968
H	996.278	0.871229	-0.255567
N	992.736	0.516474	-2.23374
C	991.735	0.033022	-3.15578
H	993.161	1.39552	-2.42292
H	991.583	0.757135	-3.98629
H	990.76	-0.113912	-2.636
H	992.043	-0.943747	-3.59403
