44
  This energy is 0 and Call times are: 159493
C	1.57081	-1.479	2.7309
C	0.547567	-0.585848	2.14234
O	-0.359472	-0.127325	2.82311
H	1.34402	-1.63807	3.80753
H	2.57761	-1.01989	2.63973
H	1.56454	-2.46145	2.21337
N	0.672379	-0.317142	0.840575
C	-0.269922	0.500648	0.118185
C	-0.276809	0.0476002	-1.32966
O	0.555966	-0.757736	-1.74153
H	1.39251	-0.730677	0.290782
H	-1.26426	0.333603	0.513178
C	0.107751	1.99497	0.216168
H	1.12357	2.16858	-0.198573
H	-0.618089	2.63632	-0.324533
H	0.114317	2.30255	1.28467
N	-1.22952	0.552201	-2.1382
C	-1.31774	0.17484	-3.5296
H	-1.89713	1.19955	-1.78563
H	-2.16617	0.695991	-4.02538
H	-1.47467	-0.923647	-3.62946
H	-0.379727	0.44001	-4.06901
C	146.07	0.438615	-3.28249
C	146.203	-0.167715	-1.9386
O	146.981	-1.08902	-1.73366
H	146.748	-0.0862171	-3.99053
H	146.35	1.5126	-3.24696
H	145.025	0.34048	-3.6454
N	145.43	0.343995	-0.977949
C	145.415	-0.169298	0.369226
C	144.042	0.0910559	0.960083
O	143.226	0.794503	0.368955
H	144.771	1.0665	-1.16954
H	145.557	-1.24251	0.344107
C	146.51	0.502052	1.227
H	146.359	1.60201	1.26175
H	146.519	0.105251	2.26286
H	147.505	0.305183	0.771682
N	143.753	-0.481591	2.14509
C	142.47	-0.294764	2.78145
H	144.426	-1.05085	2.60619
H	142.426	-0.845692	3.74672
H	141.649	-0.667789	2.12713
H	142.286	0.784934	2.98498
