44
  This energy is 0 and Call times are: 170217
C	1.95159	-0.650695	-2.80724
C	0.713002	-0.817413	-2.01399
O	-0.278565	-1.3501	-2.49299
H	1.79015	-1.05581	-3.82983
H	2.78875	-1.20234	-2.33017
H	2.21467	0.425375	-2.88441
N	0.743412	-0.355033	-0.761925
C	-0.39786	-0.406663	0.117503
C	-0.293626	0.748033	1.09595
O	0.726588	1.4315	1.15717
H	1.54439	0.112913	-0.399533
H	-1.30141	-0.258895	-0.460767
C	-0.452139	-1.7529	0.872453
H	0.469981	-1.90014	1.47416
H	-1.33426	-1.81044	1.54258
H	-0.520154	-2.58379	0.136692
N	-1.35825	0.998495	1.88328
C	-1.35264	2.08001	2.8406
H	-2.17636	0.436999	1.81632
H	-2.31835	2.12315	3.39085
H	-1.19717	3.05713	2.32841
H	-0.53219	1.94445	3.58197
C	908.452	-1.90808	-1.40773
C	908.955	-0.940641	-0.406332
O	908.186	-0.316677	0.312192
H	907.341	-1.92432	-1.37745
H	908.833	-2.92612	-1.18086
H	908.78	-1.60965	-2.42596
N	910.28	-0.791285	-0.338127
C	910.915	0.143993	0.556359
C	912.228	0.577447	-0.0673661
O	912.663	0.0186041	-1.07264
H	910.89	-1.27598	-0.957797
H	910.295	1.02697	0.649242
C	911.158	-0.495142	1.94115
H	911.803	-1.395	1.84768
H	911.634	0.219541	2.64324
H	910.185	-0.811878	2.37517
N	912.891	1.59686	0.51435
C	914.145	2.08147	-0.0119877
H	912.521	2.03916	1.32481
H	914.532	2.92291	0.604445
H	914.019	2.44273	-1.05833
H	914.909	1.27045	-0.0166086
