44
  This energy is 0 and Call times are: 157869
C	0.117378	0.657002	-3.41574
C	0.738395	0.186913	-2.15697
O	1.8132	-0.397199	-2.161
H	0.76583	0.374025	-4.27324
H	0.0061949	1.76157	-3.39842
H	-0.879986	0.187349	-3.54909
N	0.0617126	0.434075	-1.03296
C	0.517349	0.000236717	0.264243
C	-0.698692	-0.211076	1.14637
O	-1.81618	0.140618	0.773224
H	-0.831472	0.874314	-1.04964
H	1.01509	-0.956487	0.166468
C	1.46739	1.04327	0.892529
H	0.95389	2.02215	1.00277
H	1.83607	0.714417	1.88573
H	2.34587	1.18778	0.2264
N	-0.508523	-0.8026	2.34218
C	-1.6073	-1.04979	3.24648
H	0.402559	-1.08388	2.62482
H	-1.24809	-1.54401	4.17597
H	-2.36744	-1.7102	2.7697
H	-2.10738	-0.0948108	3.52768
C	30.0665	2.67631	1.95259
C	29.3932	2.1228	0.756187
O	28.7273	2.83561	0.0179987
H	29.8402	3.76182	2.03216
H	31.1657	2.54352	1.8689
H	29.7013	2.16504	2.86815
N	29.5531	0.815654	0.536682
C	28.9245	0.125706	-0.562108
C	28.7059	-1.31818	-0.151012
O	29.1926	-1.75743	0.889117
H	30.0643	0.24071	1.16912
H	27.9496	0.559925	-0.745731
C	29.7987	0.200424	-1.83307
H	30.7952	-0.254398	-1.64833
H	29.319	-0.315366	-2.69003
H	29.9522	1.26609	-2.11083
N	27.9559	-2.09201	-0.960201
C	27.6894	-3.47676	-0.647779
H	27.5672	-1.71751	-1.7955
H	27.055	-3.94222	-1.43395
H	27.1589	-3.56419	0.327994
H	28.6398	-4.05366	-0.576851
