44
  This energy is -0.2708 and Call times are: 177118
C	0.478703	-2.67798	-2.17071
C	0.979869	-1.51076	-1.41073
O	2.17881	-1.29387	-1.30157
H	1.34162	-3.26036	-2.56068
H	-0.142504	-2.33943	-3.02642
H	-0.127789	-3.33294	-1.51019
N	0.0559376	-0.721655	-0.857511
C	0.390358	0.426962	-0.0528974
C	-0.73062	0.647842	0.945188
O	-1.78021	0.012616	0.864209
H	-0.915005	-0.934129	-0.9207
H	1.28944	0.217148	0.513019
C	0.585311	1.6801	-0.934305
H	-0.340272	1.90193	-1.50713
H	0.856797	2.56827	-0.327703
H	1.4048	1.49297	-1.66216
N	-0.528887	1.55454	1.92152
C	-1.53679	1.8278	2.91934
H	0.328609	2.05566	1.97302
H	-1.18238	2.60259	3.6344
H	-1.78035	0.905237	3.49453
H	-2.47403	2.19408	2.44127
C	992.411	3.36084	-0.165852
C	992.119	1.9509	0.177294
O	991.139	1.65233	0.846562
H	991.637	4.01732	0.287656
H	992.398	3.49729	-1.26764
H	993.407	3.65255	0.230245
N	992.979	1.03814	-0.280149
C	992.851	-0.368761	0.00769905
C	994.238	-0.983155	-0.0103077
O	995.208	-0.336972	-0.40177
H	993.794	1.30038	-0.788982
H	992.456	-0.494244	1.00796
C	991.938	-1.06276	-1.02663
H	992.349	-0.943334	-2.05183
H	991.821	-2.14388	-0.8078
H	990.931	-0.5919	-1.00158
N	994.366	-2.25236	0.424327
C	995.647	-2.91799	0.448728
H	993.57	-2.75765	0.74108
H	995.545	-3.95463	0.838711
H	996.363	-2.36749	1.10092
H	996.083	-2.96993	-0.575376
