44
  This energy is 0 and Call times are: 165821
C	0.11835	2.63623	2.26914
C	-0.259928	1.25496	1.89478
O	-0.659035	0.458665	2.73326
H	-0.0088382	2.76747	3.36571
H	-0.530554	3.36691	1.7421
H	1.17992	2.82717	2.00511
N	-0.138221	0.935421	0.604253
C	-0.426847	-0.382307	0.0954819
C	0.435117	-0.615022	-1.13106
O	1.08856	0.302007	-1.62481
H	0.226897	1.58193	-0.0595131
H	-0.142282	-1.12083	0.83456
C	-1.92336	-0.520794	-0.260191
H	-2.21334	0.229745	-1.02612
H	-2.16099	-1.53555	-0.640095
H	-2.53532	-0.338655	0.650129
N	0.462824	-1.85881	-1.649
C	1.25871	-2.17583	-2.81186
H	-0.0694907	-2.58868	-1.23306
H	1.14866	-3.24893	-3.08308
H	2.33668	-1.97224	-2.61743
H	0.942825	-1.55928	-3.68434
C	593.909	1.41398	0.747138
C	595.071	1.22127	-0.148564
O	595.05	1.6146	-1.30669
H	593.094	1.92284	0.187305
H	594.195	2.04316	1.61596
H	593.537	0.43195	1.10863
N	596.129	0.598397	0.377181
C	597.317	0.300495	-0.382812
C	597.958	-0.940502	0.209059
O	597.553	-1.41451	1.26863
H	596.116	0.247659	1.3092
H	597.039	0.0648987	-1.40258
C	598.304	1.48774	-0.351011
H	598.598	1.72306	0.694218
H	599.218	1.27598	-0.944139
H	597.811	2.38663	-0.781445
N	598.976	-1.50342	-0.471359
C	599.644	-2.6895	0.0118318
H	599.288	-1.10772	-1.32905
H	600.453	-2.99795	-0.687063
H	598.924	-3.53385	0.108896
H	600.097	-2.50534	1.01287
