44
  This energy is -2.0105 and Call times are: 178149
C	-2.71001	-1.08236	-1.89658
C	-1.84288	-1.1607	-0.69946
O	-2.1603	-1.83745	0.268873
H	-3.62342	-1.69353	-1.7291
H	-2.17242	-1.47555	-2.78492
H	-3.01104	-0.0298549	-2.08285
N	-0.710085	-0.455359	-0.740045
C	0.214093	-0.397995	0.365018
C	0.938372	0.933784	0.307232
O	0.815532	1.6758	-0.665412
H	-0.485172	0.123191	-1.51887
H	-0.339454	-0.424035	1.29536
C	1.22257	-1.566	0.302004
H	1.7981	-1.53363	-0.647605
H	1.93099	-1.54084	1.15526
H	0.670046	-2.53026	0.337674
N	1.70895	1.27265	1.35957
C	2.43162	2.5227	1.39584
H	1.79261	0.660915	2.13922
H	3.00659	2.6172	2.34331
H	1.72928	3.38463	1.32464
H	3.14628	2.58841	0.543733
C	992.611	-3.18275	0.566569
C	993.258	-2.17469	-0.302784
O	993.747	-2.48779	-1.37947
H	992.679	-4.18186	0.0838017
H	991.541	-2.92788	0.716712
H	993.122	-3.22406	1.55126
N	993.278	-0.920749	0.155099
C	993.909	0.161337	-0.557993
C	994.374	1.18897	0.456745
O	994.046	1.10045	1.63829
H	992.912	-0.688765	1.05187
H	994.79	-0.211585	-1.06582
C	992.932	0.801314	-1.56816
H	992.033	1.19346	-1.04639
H	993.411	1.62689	-2.13345
H	992.599	0.0295153	-2.29601
N	995.162	2.1901	0.0170732
C	995.657	3.21086	0.911121
H	995.42	2.24255	-0.941874
H	996.286	3.9441	0.360695
H	996.273	2.75817	1.72141
H	994.812	3.76061	1.38598
