44
  This energy is 0 and Call times are: 164813
C	-3.18308	-1.3236	0.47829
C	-1.77413	-1.44344	0.0405417
O	-1.28527	-2.53205	-0.228449
H	-3.64144	-2.33547	0.521973
H	-3.75551	-0.700504	-0.240612
H	-3.2324	-0.862886	1.48745
N	-1.07875	-0.30657	-0.0392716
C	0.314251	-0.267544	-0.408828
C	0.945447	0.942861	0.253037
O	0.25171	1.78017	0.826938
H	-1.47863	0.567235	0.22233
H	0.812434	-1.14571	-0.0173282
C	0.476134	-0.191796	-1.94287
H	-0.025776	0.714507	-2.3438
H	1.54453	-0.175178	-2.24081
H	0.000104158	-1.08325	-2.40661
N	2.28679	1.05883	0.194973
C	2.97601	2.17416	0.800957
H	2.83148	0.369007	-0.270355
H	4.07413	2.0893	0.645536
H	2.77884	2.20918	1.89694
H	2.63225	3.13658	0.357419
C	521.64	0.340396	0.8427
C	523.082	0.487269	1.14681
O	523.462	1.13486	2.11238
H	521.047	0.904792	1.59451
H	521.348	-0.729845	0.883747
H	521.419	0.745413	-0.167305
N	523.929	-0.120013	0.312825
C	525.361	-0.0321211	0.453896
C	525.982	-0.177161	-0.922804
O	525.297	-0.500076	-1.89154
H	523.606	-0.609352	-0.492077
H	525.624	0.950925	0.82427
C	525.89	-1.12829	1.40458
H	525.63	-2.13732	1.01961
H	526.99	-1.06254	1.53232
H	525.417	-1.00761	2.40339
N	527.301	0.0682931	-1.04277
C	527.978	-0.0390794	-2.31449
H	527.838	0.332402	-0.24818
H	529.058	0.201922	-2.20688
H	527.534	0.664183	-3.05596
H	527.888	-1.07215	-2.72164
