44
  This energy is 0 and Call times are: 163049
C	0.388906	0.0512033	-3.45815
C	-0.0114419	0.685911	-2.18222
O	-0.270746	1.87993	-2.12319
H	0.417112	0.821945	-4.2588
H	-0.343039	-0.734261	-3.74107
H	1.39785	-0.402116	-3.36003
N	-0.0690393	-0.113217	-1.1143
C	-0.401141	0.3675	0.203726
C	0.281193	-0.528786	1.21992
O	0.839026	-1.56704	0.869826
H	0.184571	-1.07471	-1.16981
H	0.000726228	1.36484	0.331981
C	-1.93007	0.367486	0.421951
H	-2.34136	-0.657313	0.300872
H	-2.19932	0.748655	1.4283
H	-2.40918	1.02331	-0.33745
N	0.259337	-0.140806	2.51028
C	0.887056	-0.926922	3.5467
H	-0.193473	0.704604	2.77356
H	0.760745	-0.441456	4.53947
H	1.97749	-1.03985	3.34799
H	0.437563	-1.94517	3.59437
C	398.438	-3.16298	-1.3388
C	397.963	-1.83633	-0.885721
O	396.825	-1.45531	-1.12625
H	397.625	-3.67158	-1.90182
H	398.716	-3.78888	-0.464879
H	399.319	-3.04688	-2.00511
N	398.84	-1.09067	-0.209933
C	398.538	0.239076	0.257985
C	399.833	1.02638	0.314939
O	400.917	0.468937	0.150408
H	399.775	-1.39768	-0.0574671
H	397.892	0.731684	-0.458379
C	397.869	0.195554	1.64941
H	398.535	-0.300324	2.38711
H	397.619	1.21266	2.0146
H	396.927	-0.3921	1.58572
N	399.75	2.35197	0.54271
C	400.929	3.18331	0.608351
H	398.864	2.78569	0.669287
H	400.653	4.24301	0.803221
H	401.495	3.1392	-0.350558
H	401.606	2.84145	1.42443
