44
  This energy is -4.1079 and Call times are: 184316
C	-0.539539	-1.1607	3.23641
C	0.304592	-1.00977	2.02985
O	1.49224	-1.30231	2.04758
H	0.0835969	-1.5393	4.0756
H	-1.35884	-1.88442	3.0422
H	-0.97347	-0.18012	3.52497
N	-0.300918	-0.539107	0.937044
C	0.398365	-0.297573	-0.300382
C	-0.314566	0.821487	-1.0359
O	-1.39941	1.24399	-0.640544
H	-1.25881	-0.266804	0.949593
H	1.40141	0.047416	-0.0824126
C	0.441434	-1.57449	-1.16806
H	-0.587415	-1.92285	-1.40077
H	0.989341	-1.40516	-2.11761
H	0.960323	-2.38214	-0.606968
N	0.28742	1.33601	-2.12627
C	-0.313295	2.40698	-2.88676
H	1.16706	0.983762	-2.42831
H	0.33452	2.69119	-3.74513
H	-0.462629	3.30702	-2.24731
H	-1.30682	2.09737	-3.28449
C	993.978	-1.62867	-3.00136
C	993.75	-0.530602	-2.03509
O	993.083	0.449423	-2.33616
H	993.478	-1.38128	-3.96286
H	993.554	-2.57717	-2.60947
H	995.065	-1.75784	-3.18482
N	994.312	-0.672477	-0.832447
C	994.216	0.331294	0.197933
C	995.45	0.22956	1.07443
O	996.236	-0.707332	0.948762
H	994.887	-1.45672	-0.615973
H	994.224	1.31339	-0.258187
C	992.936	0.136184	1.04006
H	992.932	-0.867216	1.51673
H	992.843	0.911318	1.82814
H	992.046	0.206644	0.377074
N	995.653	1.20351	1.9833
C	996.803	1.19354	2.85738
H	995.008	1.95565	2.0673
H	996.792	2.07789	3.53195
H	997.747	1.21614	2.26544
H	996.811	0.273378	3.48537
