44
  This energy is -7.979 and Call times are: 176623
C	2.6274	-2.20035	0.606526
C	1.26297	-1.90377	0.11511
O	0.630965	-2.72634	-0.533245
H	2.9242	-3.21883	0.274123
H	2.65108	-2.16327	1.71594
H	3.35027	-1.46372	0.196745
N	0.772311	-0.699345	0.416764
C	-0.523502	-0.250278	-0.0279481
C	-0.482706	1.26101	-0.154088
O	0.481384	1.90177	0.260243
H	1.31467	-0.0253975	0.91023
H	-0.721344	-0.651067	-1.01428
C	-1.62681	-0.681332	0.963087
H	-1.42994	-0.261724	1.97265
H	-2.63104	-0.353416	0.624694
H	-1.6331	-1.79015	1.04572
N	-1.53282	1.86802	-0.741299
C	-1.57972	3.30172	-0.9101
H	-2.30182	1.33222	-1.07392
H	-2.52307	3.60775	-1.41374
H	-0.722275	3.6526	-1.52892
H	-1.52628	3.81565	0.0768958
C	994.679	0.790136	3.37794
C	994	0.115116	2.24928
O	993.122	-0.714071	2.44362
H	994.271	0.402902	4.33682
H	994.505	1.88561	3.32955
H	995.771	0.587741	3.34391
N	994.4	0.46033	1.02339
C	993.863	-0.141033	-0.171827
C	994.933	-0.0940862	-1.24658
O	995.972	0.540845	-1.07405
H	995.145	1.10675	0.88212
H	993.645	-1.18406	0.0203067
C	992.592	0.601412	-0.639895
H	992.819	1.66909	-0.84725
H	992.162	0.139313	-1.55166
H	991.826	0.561152	0.165049
N	994.705	-0.777418	-2.38556
C	995.669	-0.79519	-3.4617
H	993.861	-1.28863	-2.50502
H	995.299	-1.4116	-4.31047
H	996.637	-1.22208	-3.11467
H	995.86	0.236889	-3.83493
