44
  This energy is -3.5618 and Call times are: 180092
C	2.05668	-0.704501	2.7178
C	0.797394	-0.873027	1.95823
O	-0.0018684	-1.75353	2.24511
H	2.11607	-1.48413	3.50807
H	2.08314	0.296379	3.19768
H	2.92971	-0.812495	2.04013
N	0.59154	-0.0184341	0.953404
C	-0.566512	-0.0842458	0.0971655
C	-0.183209	0.47371	-1.26052
O	0.899267	1.03182	-1.42928
H	1.27047	0.666963	0.706109
H	-0.845693	-1.12053	-0.047086
C	-1.74333	0.715015	0.698438
H	-1.46093	1.78044	0.836815
H	-2.64539	0.660604	0.0551292
H	-2.00149	0.29447	1.69485
N	-1.06549	0.327094	-2.26855
C	-0.785003	0.82125	-3.59645
H	-1.93451	-0.13099	-2.11353
H	-1.63199	0.604025	-4.28394
H	0.132492	0.341811	-4.00829
H	-0.620783	1.92301	-3.57928
C	991.343	2.54046	-1.75365
C	991.519	1.698	-0.549367
O	990.951	1.96715	0.500135
H	990.668	3.39036	-1.51176
H	990.89	1.94499	-2.57438
H	992.323	2.94291	-2.086
N	992.327	0.642464	-0.676573
C	992.63	-0.245031	0.418339
C	994.01	-0.830755	0.184003
O	994.595	-0.655522	-0.882745
H	992.814	0.459685	-1.52566
H	992.673	0.324495	1.33833
C	991.576	-1.36865	0.526138
H	991.538	-1.95983	-0.413618
H	991.791	-2.05072	1.37414
H	990.573	-0.916741	0.689444
N	994.567	-1.53798	1.18648
C	995.879	-2.12826	1.05656
H	994.079	-1.66546	2.04377
H	996.161	-2.66834	1.98711
H	996.645	-1.34347	0.86082
H	995.902	-2.85214	0.210038
