44
  This energy is -3.7713 and Call times are: 187440
C	-1.4012	-2.09827	2.39721
C	-0.424739	-1.06781	1.97789
O	0.248126	-0.461537	2.80014
H	-1.40033	-2.17541	3.50623
H	-1.12498	-3.08435	1.96816
H	-2.42101	-1.82	2.05714
N	-0.326618	-0.842271	0.665687
C	0.547885	0.159563	0.108792
C	-0.0564455	0.64225	-1.19633
O	-1.02729	0.071649	-1.68989
H	-0.910392	-1.31475	0.011593
H	0.589816	1.00938	0.778627
C	1.96239	-0.413202	-0.128602
H	1.9212	-1.2785	-0.824019
H	2.64895	0.352509	-0.544349
H	2.3819	-0.767499	0.838265
N	0.50311	1.71792	-1.78443
C	-0.00750488	2.252	-3.02548
H	1.2856	2.16865	-1.36774
H	0.58616	3.13597	-3.34701
H	-1.07005	2.56658	-2.91006
H	0.0398353	1.48528	-3.83236
C	996.218	2.04744	-2.58262
C	996.004	1.76109	-1.14622
O	996.513	2.45762	-0.279074
H	996.888	2.9287	-2.6855
H	995.25	2.27255	-3.07661
H	996.693	1.17538	-3.08002
N	995.234	0.709237	-0.85928
C	994.969	0.280518	0.491523
C	994.717	-1.21534	0.472156
O	994.596	-1.81995	-0.591611
H	994.86	0.127494	-1.5759
H	995.849	0.451492	1.09945
C	993.751	1.02735	1.07874
H	992.846	0.843757	0.461357
H	993.546	0.716035	2.12341
H	993.955	2.12047	1.07578
N	994.639	-1.85178	1.65747
C	994.407	-3.27514	1.73743
H	994.744	-1.34613	2.50747
H	994.377	-3.60969	2.79781
H	995.217	-3.83504	1.21634
H	993.438	-3.54305	1.25718
