44
  This energy is -2.1405 and Call times are: 174722
C	-0.149479	3.38716	-0.785799
C	-0.0365578	2.27935	0.189469
O	0.264001	2.49129	1.35615
H	0.0926666	4.34737	-0.280588
H	-1.1842	3.4419	-1.18468
H	0.562017	3.23286	-1.62428
N	-0.277234	1.05163	-0.276519
C	-0.164777	-0.130109	0.541659
C	0.200667	-1.29546	-0.358314
O	0.189463	-1.17401	-1.58177
H	-0.480712	0.890831	-1.23808
H	0.646632	-0.00040454	1.24694
C	-1.4883	-0.41439	1.28511
H	-2.319	-0.557981	0.56167
H	-1.41017	-1.31409	1.92928
H	-1.74019	0.454647	1.93138
N	0.54365	-2.45751	0.231637
C	0.911814	-3.61911	-0.543805
H	0.55077	-2.53519	1.22309
H	1.16027	-4.47427	0.122678
H	1.79997	-3.40119	-1.18018
H	0.075317	-3.92677	-1.21221
C	995.577	-2.64188	2.10918
C	995.007	-2.10722	0.85222
O	994.723	-2.84751	-0.0793928
H	995.696	-3.74362	2.01944
H	994.9	-2.42126	2.96097
H	996.573	-2.18817	2.30123
N	994.826	-0.785618	0.797668
C	994.32	-0.114416	-0.373814
C	994.881	1.29511	-0.390385
O	995.496	1.73983	0.577263
H	995.1	-0.191624	1.54868
H	994.687	-0.617742	-1.2599
C	992.776	-0.0827681	-0.368168
H	992.4	0.442745	0.535406
H	992.374	0.419307	-1.27203
H	992.388	-1.12445	-0.347932
N	994.688	2.03181	-1.50216
C	995.19	3.3816	-1.61115
H	994.192	1.65316	-2.27645
H	994.93	3.81934	-2.6001
H	996.299	3.39824	-1.50108
H	994.755	4.02856	-0.815662
