44
  This energy is -6.4346 and Call times are: 180728
C	-0.446137	1.1061	-3.26958
C	0.317644	0.37409	-2.23424
O	1.24812	-0.360772	-2.53524
H	-0.0417658	0.851162	-4.27326
H	-0.352213	2.20111	-3.11183
H	-1.51776	0.817733	-3.23005
N	-0.0675352	0.560752	-0.969658
C	0.550971	-0.115976	0.143019
C	-0.483952	-0.26137	1.24272
O	-1.57189	0.305813	1.16268
H	-0.852832	1.13008	-0.743724
H	0.84009	-1.11403	-0.161841
C	1.77765	0.670747	0.65446
H	1.47978	1.69111	0.977205
H	2.2709	0.152825	1.50239
H	2.51811	0.771877	-0.168845
N	-0.169582	-1.03753	2.29855
C	-1.09352	-1.23904	3.39029
H	0.714105	-1.49157	2.34345
H	-0.651609	-1.90829	4.16103
H	-2.03871	-1.70183	3.0246
H	-1.34886	-0.268195	3.8734
C	991.293	-1.99813	-0.491649
C	992.598	-1.71883	0.149086
O	992.996	-2.38823	1.09236
H	990.801	-2.84676	0.0315283
H	991.441	-2.27028	-1.55789
H	990.636	-1.10568	-0.425799
N	993.303	-0.704152	-0.357174
C	994.57	-0.285248	0.187332
C	994.737	1.19686	-0.0900222
O	993.953	1.79246	-0.825553
H	992.947	-0.14261	-1.09873
H	994.557	-0.412684	1.2626
C	995.732	-1.08777	-0.438608
H	995.752	-0.948959	-1.54058
H	996.712	-0.78406	-0.0173713
H	995.584	-2.16996	-0.230058
N	995.767	1.83176	0.503742
C	996.002	3.24265	0.302982
H	996.389	1.33371	1.09882
H	996.895	3.57795	0.875408
H	995.124	3.83922	0.641764
H	996.174	3.46298	-0.775506
