44
  This energy is 0 and Call times are: 162125
C	3.14966	-1.47978	0.0506025
C	2.26159	-0.30107	0.165074
O	2.67928	0.767282	0.590002
H	4.16488	-1.21159	0.415676
H	3.22252	-1.80257	-1.00923
H	2.75612	-2.31657	0.665427
N	0.993914	-0.473864	-0.216398
C	0.0014748	0.567731	-0.123098
C	-1.35487	-0.0864375	0.0611403
O	-1.48826	-1.30315	-0.055142
H	0.65881	-1.36067	-0.521602
H	0.193458	1.16611	0.758782
C	0.00875268	1.45172	-1.38949
H	-0.198597	0.840073	-2.29334
H	-0.741702	2.26599	-1.32389
H	1.01305	1.9138	-1.50874
N	-2.39801	0.711417	0.363338
C	-3.72524	0.177523	0.562278
H	-2.26952	1.69312	0.457296
H	-4.44451	0.991237	0.802579
H	-3.73209	-0.555391	1.40136
H	-4.08036	-0.344943	-0.355363
C	330.731	0.850795	-2.49792
C	331.051	0.451117	-1.10904
O	330.203	0.488018	-0.228331
H	329.669	1.17511	-2.55131
H	330.88	-0.00700415	-3.18695
H	331.38	1.69456	-2.81266
N	332.305	0.0556741	-0.87938
C	332.778	-0.322033	0.429311
C	334.263	-0.0241667	0.499906
O	334.889	0.302939	-0.506943
H	332.995	0.0700384	-1.59767
H	332.29	0.291833	1.17615
C	332.512	-1.81899	0.700947
H	333.021	-2.44963	-0.0588304
H	332.859	-2.11895	1.71103
H	331.419	-2.01546	0.636328
N	334.865	-0.12316	1.70192
C	336.274	0.14666	1.86676
H	334.341	-0.385233	2.50588
H	336.579	0.0113894	2.9279
H	336.512	1.1923	1.56441
H	336.882	-0.541714	1.23652
