44
  This energy is 0 and Call times are: 160361
C	1.90962	1.58856	-2.43773
C	1.63816	0.449683	-1.53196
O	2.2511	-0.603614	-1.63816
H	2.69522	1.29749	-3.16848
H	2.26692	2.46384	-1.85553
H	0.987905	1.86484	-2.99198
N	0.694813	0.639273	-0.606469
C	0.289906	-0.390146	0.318143
C	-1.15889	-0.144175	0.695037
O	-1.73012	0.891263	0.358475
H	0.17599	1.48805	-0.558803
H	0.335683	-1.3525	-0.176237
C	1.18521	-0.384645	1.57657
H	1.13041	0.598943	2.08998
H	0.892243	-1.18185	2.29012
H	2.24157	-0.558471	1.27619
N	-1.79268	-1.10163	1.40045
C	-3.17342	-0.957736	1.79923
H	-1.31495	-1.93439	1.65999
H	-3.51286	-1.8499	2.37024
H	-3.83007	-0.842255	0.906621
H	-3.30485	-0.0581896	2.44319
C	207.905	2.80594	-1.84936
C	207.1	2.14046	-0.800719
O	206.422	2.78938	-0.0161706
H	207.784	3.90755	-1.76141
H	207.562	2.48606	-2.85581
H	208.979	2.55114	-1.7265
N	207.16	0.807298	-0.762841
C	206.466	0.022115	0.227231
C	207.249	-1.25802	0.44979
O	208.193	-1.55399	-0.280552
H	207.748	0.295348	-1.38208
H	206.454	0.560736	1.16658
C	205.026	-0.296759	-0.231691
H	205.037	-0.85853	-1.18998
H	204.477	-0.889244	0.528288
H	204.474	0.654394	-0.396113
N	206.878	-2.0476	1.47679
C	207.568	-3.28249	1.76865
H	206.114	-1.78922	2.0592
H	207.114	-3.78764	2.64975
H	208.642	-3.08912	1.99027
H	207.514	-3.97756	0.899659
