44
  This energy is 0 and Call times are: 159941
C	-0.191085	-2.78736	2.07528
C	-0.634375	-1.43644	1.6634
O	-1.65	-0.935182	2.12564
H	-0.918612	-3.20636	2.804
H	0.808076	-2.73218	2.5563
H	-0.139502	-3.45892	1.19243
N	0.130401	-0.80847	0.76721
C	-0.194663	0.49274	0.238301
C	0.389027	0.594936	-1.15827
O	1.15016	-0.269984	-1.58758
H	0.931797	-1.24608	0.36955
H	-1.26986	0.582373	0.145887
C	0.366314	1.61182	1.14285
H	1.47052	1.52661	1.22947
H	0.110727	2.61865	0.753625
H	-0.0681798	1.5127	2.16155
N	0.0364064	1.65842	-1.90706
C	0.537651	1.83702	-3.24983
H	-0.583874	2.34571	-1.54378
H	0.132596	2.77006	-3.69994
H	0.242614	0.97914	-3.89657
H	1.64981	1.9021	-3.2488
C	179.387	-1.93528	-1.63462
C	178.032	-1.7376	-1.07189
O	177.129	-2.53139	-1.30026
H	179.394	-2.85517	-2.2588
H	180.128	-2.05005	-0.816127
H	179.668	-1.06825	-2.26888
N	177.857	-0.653655	-0.312346
C	176.585	-0.304393	0.269068
C	176.534	1.2038	0.425103
O	177.536	1.89081	0.232906
H	178.59	0.00487169	-0.169103
H	175.791	-0.584987	-0.412491
C	176.394	-0.99691	1.63632
H	177.202	-0.701154	2.33926
H	175.412	-0.746869	2.08789
H	176.443	-2.09927	1.4993
N	175.355	1.75733	0.771643
C	175.21	3.18474	0.937925
H	174.555	1.18536	0.918851
H	174.167	3.44345	1.22329
H	175.457	3.71755	-0.00892487
H	175.895	3.55932	1.73324
