44
  This energy is 0.1118 and Call times are: 186306
C	1.53028	0.372492	-3.10357
C	0.473962	0.70881	-2.12265
O	-0.270486	1.66378	-2.29653
H	1.51048	1.11258	-3.93288
H	1.35532	-0.640925	-3.52204
H	2.52813	0.404204	-2.61738
N	0.38643	-0.0816964	-1.05035
C	-0.562556	0.1445	0.0111676
C	0.025609	-0.406034	1.29667
O	1.05576	-1.07706	1.28121
H	1.02604	-0.830664	-0.902643
H	-0.697529	1.21011	0.148607
C	-1.91295	-0.536539	-0.301664
H	-1.7767	-1.63125	-0.432337
H	-2.65659	-0.358037	0.501867
H	-2.32091	-0.124142	-1.25027
N	-0.615835	-0.125612	2.44817
C	-0.12716	-0.602172	3.72107
H	-1.44573	0.422379	2.4409
H	-0.791313	-0.266717	4.54786
H	0.899249	-0.215859	3.91734
H	-0.0854335	-1.71538	3.73427
C	993.056	1.80441	-0.433264
C	993.784	0.54388	-0.166312
O	993.197	-0.457498	0.218964
H	991.976	1.65886	-0.210783
H	993.167	2.0924	-1.49975
H	993.449	2.61788	0.212147
N	995.104	0.567392	-0.366803
C	995.953	-0.568693	-0.109041
C	997.334	-0.054598	0.251887
O	997.615	1.13595	0.128055
H	995.574	1.40163	-0.641245
H	995.576	-1.10941	0.749854
C	996.026	-1.49466	-1.34297
H	996.423	-0.943216	-2.22172
H	996.666	-2.38041	-1.15235
H	995.003	-1.85251	-1.59374
N	998.231	-0.945853	0.718022
C	999.568	-0.547647	1.09209
H	997.984	-1.90424	0.815088
H	1000.15	-1.42289	1.45112
H	999.538	0.211943	1.90659
H	1000.1	-0.100923	0.222823
