44
  This energy is 0 and Call times are: 162517
C	-3.21624	-1.32674	-0.0907971
C	-2.27989	-0.185529	0.0188972
O	-2.67843	0.969022	-0.0488076
H	-4.24696	-0.942083	-0.250636
H	-3.19774	-1.92802	0.842403
H	-2.93561	-1.9707	-0.950825
N	-0.991418	-0.48955	0.191495
C	0.0430618	0.511399	0.272197
C	1.3344	-0.100909	-0.236795
O	1.41053	-1.30535	-0.471852
H	-0.677018	-1.43447	0.203622
H	-0.20469	1.33503	-0.385743
C	0.215674	1.01062	1.72348
H	0.480201	0.16778	2.39704
H	0.999924	1.79174	1.79648
H	-0.743506	1.44733	2.07789
N	2.38407	0.72235	-0.42778
C	3.65174	0.230398	-0.914779
H	2.30192	1.69471	-0.235871
H	4.38702	1.06009	-1.00529
H	3.53112	-0.24184	-1.91664
H	4.06944	-0.534378	-0.22067
C	358.742	0.968858	2.46498
C	359.827	1.26493	1.50188
O	360.145	2.41701	1.24225
H	358.316	1.92346	2.84315
H	359.141	0.388166	3.32332
H	357.937	0.38787	1.96786
N	360.425	0.212094	0.940106
C	361.468	0.341487	-0.0474116
C	361.42	-0.87874	-0.947629
O	360.701	-1.83709	-0.672237
H	360.127	-0.718799	1.13069
H	361.268	1.20707	-0.666605
C	362.852	0.464988	0.62512
H	363.062	-0.427624	1.25212
H	363.662	0.579132	-0.12446
H	362.861	1.35984	1.28505
N	362.186	-0.867381	-2.05687
C	362.201	-1.98173	-2.97564
H	362.758	-0.0811103	-2.26491
H	362.892	-1.7817	-3.82456
H	361.183	-2.16535	-3.38802
H	362.538	-2.91068	-2.46104
