44
  This energy is -3.9864 and Call times are: 180201
C	-0.104258	-1.7885	-2.9838
C	-0.715117	-0.881766	-1.98589
O	-1.75266	-0.280747	-2.22818
H	-0.721283	-1.78605	-3.90855
H	-0.0599913	-2.82339	-2.58405
H	0.921477	-1.44542	-3.2353
N	-0.0718522	-0.760123	-0.822368
C	-0.52042	0.117443	0.229879
C	0.692451	0.557679	1.02781
O	1.79236	0.0421254	0.837762
H	0.793387	-1.22416	-0.655348
H	-0.958162	1.00578	-0.208148
C	-1.541	-0.594619	1.14455
H	-1.08906	-1.50022	1.60245
H	-1.90443	0.0751995	1.95064
H	-2.41626	-0.914976	0.538222
N	0.519878	1.53445	1.94004
C	1.61753	2.02196	2.74233
H	-0.376866	1.94221	2.07661
H	1.27448	2.82427	3.43214
H	2.42324	2.43744	2.09466
H	2.05489	1.19844	3.35198
C	996.411	3.10476	0.187197
C	995.873	1.87701	0.814556
O	996.099	1.61392	1.98758
H	997.018	3.66295	0.933463
H	995.58	3.75424	-0.158691
H	997.058	2.8412	-0.676193
N	995.137	1.08438	0.0317853
C	994.581	-0.165359	0.487765
C	994.455	-1.09105	-0.707548
O	994.646	-0.675396	-1.84887
H	994.996	1.29131	-0.932094
H	995.269	-0.629241	1.18386
C	993.204	0.0527844	1.15139
H	992.495	0.519014	0.434408
H	992.772	-0.900416	1.51912
H	993.319	0.739322	2.01844
N	994.137	-2.37883	-0.470261
C	994	-3.3341	-1.54496
H	993.99	-2.69736	0.460431
H	993.735	-4.33848	-1.14709
H	994.954	-3.4231	-2.11483
H	993.202	-3.0162	-2.25443
