44
  This energy is 0.1172 and Call times are: 185705
C	3.20685	-0.0595213	-1.35101
C	2.27208	0.145553	-0.221732
O	2.68127	0.266707	0.924695
H	4.2484	-0.0945968	-0.963926
H	3.12082	0.777146	-2.07581
H	2.98195	-1.01795	-1.86475
N	0.972996	0.187225	-0.526749
C	-0.0585348	0.337481	0.469206
C	-1.31562	-0.337472	-0.0462844
O	-1.38271	-0.743091	-1.20503
H	0.652819	0.0460964	-1.45918
H	0.238683	-0.180816	1.37235
C	-0.327196	1.82942	0.764473
H	-0.642335	2.35934	-0.159597
H	-1.10989	1.95812	1.53994
H	0.608052	2.30486	1.13273
N	-2.34475	-0.481467	0.811727
C	-3.57901	-1.11629	0.411985
H	-2.27009	-0.150499	1.74658
H	-4.30135	-1.13905	1.25752
H	-3.39285	-2.16394	0.0817719
H	-4.04789	-0.565427	-0.435267
C	995.41	0.455119	2.94961
C	996.67	0.478766	2.17306
O	997.683	0.993694	2.62583
H	995.568	0.970879	3.92167
H	995.1	-0.593108	3.14505
H	994.606	0.979556	2.39096
N	996.632	-0.0864315	0.96411
C	997.767	-0.103171	0.0745986
C	997.249	-0.13717	-1.35116
O	996.055	-0.310735	-1.58362
H	995.789	-0.465188	0.592749
H	998.327	0.816046	0.192677
C	998.668	-1.32608	0.352905
H	998.097	-2.26966	0.221628
H	999.553	-1.34277	-0.316408
H	999.029	-1.28464	1.40391
N	998.143	0.0375343	-2.34481
C	997.742	0.0261499	-3.73238
H	999.105	0.180702	-2.13674
H	998.62	0.186724	-4.39661
H	996.999	0.831369	-3.93308
H	997.274	-0.949441	-3.99845
