44
  This energy is -2.3009 and Call times are: 179718
C	-0.433465	-2.69347	-2.16103
C	-0.916039	-1.45575	-1.50809
O	-1.93873	-0.899392	-1.88356
H	-1.12232	-2.96362	-2.99071
H	-0.408329	-3.52766	-1.42875
H	0.584315	-2.53538	-2.57603
N	-0.17562	-0.989199	-0.499882
C	-0.493686	0.227836	0.204547
C	0.800004	0.824239	0.726298
O	1.85408	0.19436	0.663918
H	0.676248	-1.43044	-0.232492
H	-0.920875	0.941011	-0.48937
C	-1.47101	-0.0476061	1.36825
H	-1.02894	-0.771157	2.08594
H	-1.7345	0.883901	1.90991
H	-2.40719	-0.490994	0.964127
N	0.750287	2.06535	1.24899
C	1.93197	2.71608	1.76508
H	-0.111196	2.5608	1.28704
H	1.68593	3.73003	2.15056
H	2.70228	2.82189	0.967149
H	2.37586	2.12269	2.59694
C	994.52	-3.38591	0.734482
C	994.881	-2.28012	-0.18106
O	995.482	-2.49312	-1.22464
H	994.894	-4.34565	0.316686
H	993.417	-3.44763	0.843918
H	994.982	-3.22349	1.73127
N	994.516	-1.05296	0.197991
C	994.834	0.127197	-0.566615
C	994.939	1.29807	0.392365
O	994.604	1.18015	1.56931
H	994.063	-0.890933	1.06993
H	995.805	0.00182432	-1.0299
C	993.755	0.398801	-1.63684
H	992.76	0.537956	-1.16125
H	993.995	1.29718	-2.24145
H	993.69	-0.474107	-2.32252
N	995.419	2.46103	-0.0908065
C	995.559	3.6278	0.748871
H	995.689	2.53584	-1.045
H	995.97	4.48293	0.168299
H	996.248	3.4188	1.59971
H	994.573	3.93081	1.16906
