44
  This energy is 0 and Call times are: 158457
C	2.98135	1.28888	1.2502
C	2.21287	0.527676	0.239689
O	2.72102	0.192194	-0.821274
H	4.00527	1.48312	0.863229
H	3.05771	0.705796	2.19197
H	2.48483	2.26049	1.45647
N	0.948079	0.235905	0.552028
C	0.0627601	-0.461728	-0.346904
C	-1.35799	-0.0219796	-0.0475102
O	-1.60895	0.66886	0.938124
H	0.536193	0.551289	1.40218
H	0.283561	-0.167723	-1.36545
C	0.202298	-1.991	-0.18231
H	-0.0343627	-2.29437	0.859802
H	-0.464307	-2.53959	-0.878886
H	1.25145	-2.28917	-0.398453
N	-2.32539	-0.408247	-0.902478
C	-3.70561	-0.0329099	-0.701765
H	-2.10217	-0.963631	-1.6967
H	-4.34726	-0.446473	-1.51077
H	-3.81488	1.07584	-0.700041
H	-4.07976	-0.418199	0.2743
C	68.466	-1.57031	1.79605
C	69.7436	-0.826227	1.72382
O	70.2584	-0.353328	2.72772
H	68.1083	-1.58462	2.84852
H	68.612	-2.61575	1.45185
H	67.6992	-1.07648	1.16259
N	70.2907	-0.702668	0.512303
C	71.5097	0.0303686	0.277039
C	71.4706	0.570772	-1.14
O	70.5896	0.221342	-1.92323
H	69.839	-1.0578	-0.301135
H	71.5496	0.881172	0.94574
C	72.7451	-0.874525	0.477604
H	72.7099	-1.74192	-0.21553
H	73.6904	-0.318036	0.312831
H	72.7489	-1.26497	1.5187
N	72.4272	1.44862	-1.50101
C	72.4673	2.02007	-2.82691
H	73.1293	1.72239	-0.852
H	73.327	2.71851	-2.92832
H	71.5305	2.5842	-3.03996
H	72.5717	1.22112	-3.59627
