44
  This energy is -2.4208 and Call times are: 179799
C	1.03984	-2.92896	1.56607
C	-0.0143385	-2.05662	1.00139
O	-1.15249	-2.47011	0.828063
H	0.616948	-3.93902	1.75796
H	1.41301	-2.50783	2.52322
H	1.88329	-3.02265	0.849899
N	0.348906	-0.809	0.694999
C	-0.554414	0.143038	0.0981771
C	0.262909	1.11313	-0.733959
O	1.4913	1.10793	-0.681673
H	1.28925	-0.499458	0.803684
H	-1.22493	-0.374938	-0.576171
C	-1.35383	0.899295	1.18181
H	-0.666826	1.43944	1.86759
H	-2.06296	1.62556	0.734366
H	-1.93799	0.169157	1.78348
N	-0.405063	1.9684	-1.53293
C	0.288511	2.92382	-2.36498
H	-1.39898	1.95473	-1.56473
H	-0.434718	3.53597	-2.9476
H	0.964072	2.40303	-3.08169
H	0.907874	3.60998	-1.74311
C	994.825	-0.463511	3.34918
C	994.545	0.405763	2.18423
O	994.383	1.61091	2.31803
H	994.835	0.153483	4.27388
H	995.815	-0.952348	3.2327
H	994.038	-1.24107	3.44438
N	994.479	-0.198237	0.995475
C	994.171	0.508183	-0.223228
C	993.497	-0.461693	-1.17498
O	993.445	-1.66297	-0.918134
H	994.572	-1.18591	0.907888
H	993.461	1.29711	-0.00954439
C	995.452	1.09042	-0.860998
H	996.177	0.280299	-1.09009
H	995.227	1.64858	-1.79286
H	995.933	1.79103	-0.144088
N	992.953	0.042607	-2.30016
C	992.286	-0.803274	-3.26207
H	993.001	1.01793	-2.48857
H	991.906	-0.202373	-4.11775
H	991.422	-1.32754	-2.79186
H	992.984	-1.57537	-3.65806
