44
  This energy is 0 and Call times are: 168005
C	2.86915	-1.89727	-0.530156
C	1.42387	-1.77489	-0.23464
O	0.688845	-2.75253	-0.25389
H	3.10719	-2.95708	-0.766797
H	3.4678	-1.58243	0.350321
H	3.13603	-1.26539	-1.40342
N	0.977663	-0.548741	0.0479286
C	-0.410582	-0.265031	0.314094
C	-0.689072	1.16684	-0.10274
O	0.229106	1.91994	-0.421333
H	1.58045	0.243539	0.0195339
H	-1.03038	-0.906183	-0.300238
C	-0.738017	-0.46699	1.80983
H	-0.10985	0.198165	2.43992
H	-1.80732	-0.265003	2.02507
H	-0.519205	-1.51931	2.09459
N	-1.97326	1.57507	-0.118145
C	-2.33474	2.91852	-0.50631
H	-2.70274	0.949938	0.139016
H	-3.43683	3.05973	-0.454553
H	-2.00305	3.12881	-1.54892
H	-1.85344	3.66493	0.166265
C	753.256	1.30402	3.21666
C	752.653	1.27866	1.8648
O	751.64	1.91604	1.61113
H	752.638	1.94593	3.88195
H	754.284	1.71968	3.16952
H	753.291	0.277716	3.63918
N	753.273	0.526074	0.952817
C	752.782	0.36773	-0.393423
C	753.227	-0.99038	-0.902493
O	754.024	-1.67275	-0.261967
H	754.073	-0.0193583	1.18534
H	751.699	0.368719	-0.381144
C	753.314	1.49069	-1.31045
H	754.425	1.48342	-1.33168
H	752.932	1.38774	-2.34672
H	752.983	2.4756	-0.914494
N	752.711	-1.41976	-2.07111
C	753.072	-2.70131	-2.63112
H	752.064	-0.855202	-2.57288
H	752.543	-2.87247	-3.59454
H	752.802	-3.52557	-1.93185
H	754.169	-2.75337	-2.81904
