44
  This energy is -4.3737 and Call times are: 177030
C	1.8535	2.78877	-0.948675
C	0.921061	1.67945	-1.25051
O	0.319068	1.63025	-2.31427
H	1.86768	3.49951	-1.80338
H	2.87953	2.39442	-0.792152
H	1.52251	3.32958	-0.0370503
N	0.777697	0.750192	-0.302719
C	-0.125769	-0.365696	-0.4335
C	-0.575969	-0.77515	0.956184
O	-0.0494456	-0.2919	1.95666
H	1.24334	0.825644	0.574409
H	-1.00691	-0.0500018	-0.978076
C	0.559435	-1.54911	-1.15132
H	1.45748	-1.88021	-0.587473
H	-0.130349	-2.40965	-1.27048
H	0.887658	-1.22446	-2.16286
N	-1.57378	-1.67603	1.0501
C	-2.07206	-2.12136	2.33056
H	-1.99008	-2.05269	0.229195
H	-2.8916	-2.8616	2.19779
H	-2.46803	-1.2618	2.91847
H	-1.25953	-2.60015	2.9236
C	996.333	3.2852	0.84129
C	995.828	1.93669	1.18514
O	995.636	1.61046	2.34829
H	996.498	3.86476	1.77546
H	995.592	3.82176	0.211693
H	997.295	3.20546	0.292932
N	995.602	1.10916	0.162257
C	995.151	-0.248539	0.341257
C	995.658	-1.07321	-0.826669
O	996.189	-0.533293	-1.79527
H	995.802	1.37525	-0.776306
H	995.594	-0.656484	1.24098
C	993.61	-0.312345	0.420175
H	993.155	0.0963586	-0.507022
H	993.251	-1.35097	0.571856
H	993.26	0.304415	1.27681
N	995.513	-2.41114	-0.75735
C	995.97	-3.27722	-1.81885
H	995.084	-2.8299	0.03642
H	995.761	-4.34216	-1.57528
H	997.068	-3.16236	-1.97411
H	995.458	-3.02922	-2.77669
