44
  This energy is 0 and Call times are: 168453
C	3.40125	0.719307	0.163642
C	2.10193	0.412244	0.80288
O	2.03121	0.136995	1.99269
H	4.21181	0.633887	0.919664
H	3.39411	1.75348	-0.240299
H	3.60132	0.00223617	-0.660295
N	1.02733	0.451322	0.0116218
C	-0.298955	0.134337	0.479639
C	-1.09646	-0.408653	-0.691131
O	-0.647063	-0.362675	-1.83465
H	1.10599	0.636864	-0.963701
H	-0.237604	-0.652721	1.22086
C	-0.98825	1.38321	1.0716
H	-1.06092	2.1872	0.308481
H	-2.00507	1.14901	1.44811
H	-0.383339	1.76809	1.92149
N	-2.30383	-0.946924	-0.429288
C	-3.13155	-1.49348	-1.47921
H	-2.64867	-0.978806	0.502987
H	-4.08453	-1.8885	-1.06328
H	-2.60549	-2.32537	-2.00122
H	-3.37574	-0.711672	-2.23439
C	782.857	-2.71205	-0.405024
C	783.358	-1.37649	-0.800583
O	783.016	-0.858999	-1.855
H	782.189	-3.10483	-1.2024
H	782.282	-2.64001	0.542026
H	783.706	-3.41447	-0.269087
N	784.196	-0.780797	0.0511398
C	784.8	0.500907	-0.215412
C	786.134	0.553457	0.503541
O	786.456	-0.326256	1.30013
H	784.497	-1.23234	0.886237
H	785.001	0.58738	-1.27592
C	783.884	1.65125	0.25771
H	783.686	1.56897	1.34767
H	784.332	2.64369	0.0454417
H	782.91	1.58836	-0.275494
N	786.951	1.5898	0.230377
C	788.244	1.72062	0.862259
H	786.676	2.28963	-0.420183
H	788.764	2.63719	0.506986
H	788.886	0.84041	0.62931
H	788.135	1.78552	1.96913
