44
  This energy is -2.5608 and Call times are: 187705
C	-0.148267	-0.638019	3.41813
C	0.23421	-1.01218	2.03797
O	0.975643	-1.96082	1.82172
H	0.350203	-1.32472	4.13636
H	-1.24805	-0.720605	3.5462
H	0.171794	0.40294	3.63506
N	-0.270804	-0.259761	1.05756
C	0.0447481	-0.474049	-0.33279
C	-0.0636448	0.8568	-1.05296
O	-0.532118	1.84275	-0.48714
H	-0.840006	0.534091	1.25166
H	1.07229	-0.804738	-0.419038
C	-0.912208	-1.50994	-0.962395
H	-1.96563	-1.16625	-0.883586
H	-0.67071	-1.69396	-2.02932
H	-0.821917	-2.47339	-0.414709
N	0.378217	0.917424	-2.32462
C	0.320341	2.14261	-3.08735
H	0.75783	0.110054	-2.76407
H	0.730862	1.98916	-4.10968
H	0.912179	2.94406	-2.58868
H	-0.731394	2.49781	-3.18129
C	994.443	2.97302	-1.66554
C	994.953	2.22469	-0.494415
O	995.57	2.78935	0.397629
H	994.733	4.04223	-1.57266
H	993.336	2.90353	-1.71195
H	994.878	2.56259	-2.60094
N	994.702	0.913562	-0.473019
C	995.17	0.0459668	0.578743
C	995.357	-1.34317	-0.0018743
O	994.964	-1.60967	-1.136
H	994.233	0.46123	-1.22641
H	996.141	0.386972	0.917298
C	994.168	0.0118614	1.75339
H	993.175	-0.347945	1.40873
H	994.524	-0.642016	2.57566
H	994.041	1.03995	2.15743
N	995.973	-2.26397	0.76524
C	996.199	-3.61067	0.29478
H	996.288	-2.0283	1.67878
H	996.719	-4.21577	1.06976
H	996.828	-3.60491	-0.625322
H	995.234	-4.10915	0.0502267
