44
  This energy is 0 and Call times are: 158541
C	1.16066	3.25048	0.447156
C	0.818661	2.09562	-0.413353
O	0.766896	2.20652	-1.63049
H	1.32287	4.14743	-0.189276
H	2.09037	3.04118	1.01687
H	0.331695	3.45812	1.15623
N	0.571339	0.942276	0.211959
C	0.183867	-0.257586	-0.487151
C	-0.667122	-1.09596	0.447994
O	-0.782068	-0.795312	1.63463
H	0.577345	0.877675	1.20577
H	-0.434524	0.00730184	-1.33571
C	1.42505	-1.05239	-0.948661
H	2.05436	-1.33349	-0.0774567
H	1.13992	-1.97154	-1.50038
H	2.03703	-0.416891	-1.62539
N	-1.29409	-2.16999	-0.071052
C	-2.12949	-3.02337	0.74137
H	-1.19221	-2.3948	-1.03446
H	-2.55571	-3.85112	0.132771
H	-2.97198	-2.44318	1.1828
H	-1.54193	-3.46861	1.57664
C	73.9017	-1.19486	-1.04185
C	74.748	-0.373114	-0.147592
O	74.2543	0.448471	0.612453
H	72.8355	-0.914971	-0.897976
H	74.0259	-2.27202	-0.803024
H	74.18	-1.01703	-2.10204
N	76.0649	-0.579197	-0.22218
C	77.0183	0.173851	0.553998
C	78.3211	0.229112	-0.221385
O	78.4795	-0.447503	-1.23569
H	76.4546	-1.2224	-0.875088
H	76.6651	1.19155	0.664088
C	77.2389	-0.475522	1.9378
H	77.6114	-1.51605	1.82548
H	77.9607	0.102793	2.55031
H	76.2712	-0.512722	2.48419
N	79.2873	1.04911	0.237028
C	80.5582	1.17141	-0.438268
H	79.139	1.59177	1.05715
H	81.2173	1.89384	0.091793
H	80.4148	1.52957	-1.48346
H	81.078	0.186897	-0.478977
