44
  This energy is 0.1209 and Call times are: 184908
C	2.23366	-2.06582	1.68992
C	1.53609	-1.63181	0.458595
O	1.87804	-2.0438	-0.64129
H	3.0598	-2.7587	1.41921
H	1.52728	-2.59472	2.36374
H	2.66018	-1.18705	2.21808
N	0.526462	-0.773289	0.61976
C	-0.219281	-0.228173	-0.487162
C	-0.737662	1.1385	-0.0809234
O	-0.639295	1.52967	1.08055
H	0.286303	-0.415351	1.51757
H	0.445875	-0.0836059	-1.32936
C	-1.38988	-1.15798	-0.87496
H	-2.07825	-1.29817	-0.0144144
H	-1.96349	-0.755993	-1.73514
H	-0.98786	-2.15446	-1.16087
N	-1.29815	1.90438	-1.03764
C	-1.81432	3.22139	-0.745672
H	-1.36503	1.5722	-1.97266
H	-2.23403	3.69139	-1.66228
H	-1.00753	3.88099	-0.351587
H	-2.62066	3.16643	0.0210944
C	1000.17	-1.80564	-0.232578
C	999.291	-0.81811	0.437992
O	999.554	-0.394007	1.55473
H	1001.01	-2.06219	0.440185
H	1000.57	-1.38024	-1.17462
H	999.595	-2.73049	-0.460422
N	998.21	-0.426014	-0.240449
C	997.242	0.496718	0.298297
C	995.896	0.191071	-0.331006
O	995.803	-0.601706	-1.26623
H	997.987	-0.810999	-1.13151
H	997.145	0.330874	1.36399
C	997.654	1.95754	0.0128392
H	997.743	2.13102	-1.08076
H	996.924	2.67809	0.434788
H	998.645	2.15644	0.475721
N	994.813	0.811439	0.177087
C	993.49	0.578656	-0.353821
H	994.907	1.44648	0.936614
H	992.734	1.1801	0.197103
H	993.215	-0.497245	-0.264715
H	993.444	0.858711	-1.43113
