44
  This energy is 0 and Call times are: 171281
C	-2.67864	-2.2117	0.214366
C	-1.46314	-1.57886	0.774018
O	-1.15738	-1.725	1.94942
H	-3.20427	-2.77189	1.01797
H	-2.40332	-2.91915	-0.595854
H	-3.36277	-1.43577	-0.189353
N	-0.732574	-0.847116	-0.0704961
C	0.453121	-0.13552	0.337328
C	0.61158	1.07492	-0.563378
O	-0.0998837	1.21896	-1.55574
H	-1.01641	-0.703969	-1.01432
H	0.320638	0.229684	1.34812
C	1.69935	-1.04341	0.248505
H	1.84175	-1.40984	-0.790478
H	2.61683	-0.511093	0.573169
H	1.55797	-1.92644	0.909271
N	1.5498	1.98329	-0.23075
C	1.76872	3.16949	-1.02522
H	2.11296	1.85135	0.578269
H	2.58133	3.79089	-0.588467
H	0.842488	3.78684	-1.07278
H	2.05619	2.89754	-2.06663
C	987.558	0.881912	-0.85058
C	986.097	0.903194	-1.08997
O	985.602	1.65475	-1.91871
H	988.048	1.63337	-1.50662
H	987.969	-0.122479	-1.08427
H	987.775	1.13304	0.20893
N	985.363	0.0651472	-0.354427
C	983.925	0.00213057	-0.443801
C	983.387	-0.448714	0.901062
O	984.147	-0.846504	1.78216
H	985.775	-0.511216	0.345056
H	983.535	0.994789	-0.631025
C	983.484	-0.972218	-1.55786
H	983.875	-1.99308	-1.36073
H	982.379	-1.01904	-1.64591
H	983.896	-0.627216	-2.53144
N	982.055	-0.388422	1.0934
C	981.452	-0.791299	2.34281
H	981.456	-0.0598509	0.369961
H	980.347	-0.667802	2.30462
H	981.845	-0.175949	3.18455
H	981.678	-1.85999	2.56164
