44
  This energy is -6.1005 and Call times are: 183163
C	0.316485	1.76532	-2.98264
C	0.664781	0.632882	-2.09528
O	1.31071	-0.320025	-2.50898
H	0.712984	1.56831	-4.00238
H	0.765366	2.70511	-2.59789
H	-0.786445	1.87991	-3.04187
N	0.234631	0.713215	-0.833974
C	0.458294	-0.330352	0.135306
C	-0.674646	-0.290209	1.14347
O	-1.48446	0.634945	1.14429
H	-0.325079	1.47597	-0.522844
H	0.415785	-1.29261	-0.35955
C	1.81887	-0.144469	0.842066
H	1.85902	0.838123	1.35873
H	2.00899	-0.949644	1.58103
H	2.63238	-0.169229	0.0844751
N	-0.762787	-1.30502	2.02574
C	-1.81079	-1.35474	3.01842
H	-0.100551	-2.04675	2.00679
H	-1.71254	-2.26595	3.64871
H	-2.81266	-1.37186	2.53135
H	-1.76528	-0.461831	3.68308
C	997.509	2.57638	2.31944
C	996.916	1.98688	1.09755
O	995.946	2.49707	0.554805
H	996.926	3.47664	2.61243
H	998.561	2.87559	2.12884
H	997.478	1.84212	3.15192
N	997.497	0.878346	0.632129
C	997.008	0.166556	-0.522343
C	997.374	-1.29735	-0.365429
O	998.123	-1.66595	0.536862
H	998.261	0.45196	1.10818
H	995.927	0.227861	-0.548452
C	997.614	0.740033	-1.82177
H	998.723	0.667735	-1.79998
H	997.235	0.20931	-2.71891
H	997.341	1.81393	-1.91183
N	996.842	-2.17214	-1.24197
C	997.129	-3.58573	-1.16734
H	996.235	-1.85539	-1.96278
H	996.599	-4.13789	-1.97404
H	996.805	-4.00123	-0.185983
H	998.223	-3.7711	-1.2758
