44
  This energy is -2.2112 and Call times are: 180158
C	-0.546337	-2.57909	-2.27211
C	0.341243	-1.77448	-1.40266
O	1.4903	-2.12567	-1.173
H	-0.000999846	-3.48476	-2.616
H	-0.853344	-1.98603	-3.15911
H	-1.4494	-2.89566	-1.70877
N	-0.182797	-0.658776	-0.889853
C	0.543758	0.204305	0.00779299
C	-0.458119	0.897695	0.911677
O	-1.66577	0.808004	0.698945
H	-1.1326	-0.407482	-1.05295
H	1.18613	-0.396607	0.639377
C	1.37438	1.24308	-0.77722
H	0.714652	1.8668	-1.41736
H	1.9493	1.9048	-0.0974235
H	2.09508	0.713294	-1.43773
N	0.0236203	1.60329	1.95383
C	-0.854408	2.29214	2.87075
H	1.0038	1.66083	2.112
H	-0.268538	2.81397	3.65921
H	-1.54672	1.57356	3.36636
H	-1.46971	3.0488	2.33224
C	990.874	1.81005	-0.522163
C	992.113	1.16603	-1.01302
O	992.317	1.01638	-2.20979
H	990.232	2.0799	-1.38883
H	991.12	2.73302	0.0435578
H	990.314	1.1119	0.135666
N	992.98	0.762074	-0.0822476
C	994.21	0.0809307	-0.403788
C	994.57	-0.820018	0.762355
O	993.951	-0.755922	1.82262
H	992.781	0.853928	0.889253
H	994.051	-0.555083	-1.26568
C	995.345	1.09152	-0.678385
H	995.515	1.73728	0.209284
H	996.293	0.579535	-0.940714
H	995.056	1.74535	-1.53011
N	995.583	-1.6925	0.588787
C	995.993	-2.59332	1.64065
H	996.069	-1.73242	-0.277737
H	996.84	-3.23083	1.3043
H	995.15	-3.25866	1.93875
H	996.318	-2.02384	2.54116
