44
  This energy is 0 and Call times are: 161229
C	2.12144	1.72085	2.15658
C	1.63238	1.38883	0.799481
O	1.9806	2.04003	-0.175758
H	2.78743	2.60917	2.09986
H	2.69513	0.867785	2.57598
H	1.26612	1.95507	2.82492
N	0.797726	0.350966	0.706891
C	0.205003	-0.0656509	-0.539572
C	-1.13085	-0.716501	-0.233872
O	-1.46111	-0.962493	0.924631
H	0.491336	-0.14386	1.51506
H	0.00670073	0.806537	-1.14998
C	1.12906	-1.05146	-1.2876
H	1.32429	-1.95121	-0.666021
H	0.689967	-1.36893	-2.25555
H	2.10328	-0.556757	-1.49379
N	-1.9386	-1.00437	-1.27344
C	-3.23095	-1.61931	-1.07886
H	-1.65564	-0.794058	-2.20337
H	-3.74308	-1.7752	-2.05386
H	-3.87982	-0.976364	-0.441008
H	-3.12417	-2.608	-0.57664
C	267.625	3.14102	-0.597567
C	267.577	1.79119	0.00807844
O	266.729	1.50066	0.840272
H	266.819	3.76874	-0.160284
H	267.473	3.07359	-1.6953
H	268.606	3.61918	-0.389256
N	268.505	0.923217	-0.402264
C	268.612	-0.413469	0.127176
C	270.063	-0.84639	0.0280845
O	270.882	-0.167622	-0.588415
H	269.214	1.18711	-1.05001
H	268.35	-0.403769	1.17766
C	267.702	-1.38937	-0.649788
H	267.978	-1.4076	-1.72569
H	267.765	-2.41933	-0.242718
H	266.646	-1.04869	-0.57022
N	270.417	-1.99094	0.644824
C	271.776	-2.47911	0.609475
H	269.741	-2.52436	1.14222
H	271.866	-3.43293	1.17459
H	272.472	-1.73638	1.06236
H	272.101	-2.66136	-0.440433
