44
  This energy is 0 and Call times are: 166577
C	-2.676	-1.79804	1.31102
C	-1.30165	-1.25558	1.40068
O	-0.680497	-1.27617	2.45432
H	-2.99011	-2.16966	2.31058
H	-2.70869	-2.64001	0.588012
H	-3.3804	-1.0038	0.985285
N	-0.78974	-0.747456	0.277233
C	0.518632	-0.144782	0.218021
C	0.509095	0.899239	-0.882653
O	-0.445631	0.995186	-1.65142
H	-1.32287	-0.700662	-0.562678
H	0.71711	0.370415	1.14958
C	1.60436	-1.20885	-0.0543573
H	1.40703	-1.73042	-1.01512
H	2.61787	-0.759236	-0.0884702
H	1.58781	-1.96665	0.759162
N	1.57624	1.71659	-0.97845
C	1.6532	2.7437	-1.99103
H	2.33729	1.62628	-0.344644
H	2.60686	3.30974	-1.90533
H	0.808397	3.46248	-1.88641
H	1.60134	2.29592	-3.00983
C	654.031	-0.485243	1.63989
C	652.568	-0.676959	1.5216
O	651.975	-1.4756	2.23331
H	654.429	-1.16878	2.42105
H	654.258	0.562351	1.92971
H	654.527	-0.7166	0.673501
N	651.945	0.0632579	0.601682
C	650.531	-0.0431195	0.340419
C	650.289	0.331314	-1.1096
O	651.19	0.809549	-1.79575
H	652.448	0.679205	0.00189803
H	650.222	-1.07349	0.463603
C	649.726	0.880416	1.28018
H	650.035	1.93884	1.14664
H	648.634	0.797205	1.09823
H	649.924	0.593463	2.33585
N	649.059	0.112851	-1.61444
C	648.736	0.432774	-2.98559
H	648.343	-0.278734	-1.04483
H	647.677	0.180081	-3.20983
H	649.388	-0.138058	-3.68574
H	648.887	1.51907	-3.18157
