44
  This energy is 0 and Call times are: 168341
C	-0.205833	-2.47228	2.44093
C	0.406205	-1.88767	1.22652
O	1.45777	-2.32114	0.776271
H	0.443049	-3.29075	2.82164
H	-1.20697	-2.88885	2.20232
H	-0.306616	-1.69719	3.22971
N	-0.249604	-0.870958	0.662095
C	0.243127	-0.172178	-0.498716
C	-0.278073	1.25174	-0.45022
O	-1.12078	1.58599	0.380344
H	-1.08321	-0.502641	1.06373
H	1.32388	-0.121806	-0.453316
C	-0.212318	-0.87153	-1.79822
H	-1.32115	-0.914065	-1.8503
H	0.172312	-0.350823	-2.69903
H	0.173647	-1.91425	-1.8085
N	0.221395	2.13109	-1.3409
C	-0.21079	3.50903	-1.36652
H	0.905653	1.84285	-2.00255
H	0.315549	4.07142	-2.16896
H	0.00280723	4.00584	-0.392436
H	-1.30707	3.57371	-1.55397
C	776.905	-2.86495	-1.97378
C	776.255	-1.69122	-1.3482
O	775.124	-1.35009	-1.66531
H	776.218	-3.30675	-2.7277
H	777.134	-3.63121	-1.20366
H	777.844	-2.55769	-2.48013
N	776.97	-1.03559	-0.431168
C	776.489	0.150241	0.232964
C	777.688	0.998728	0.612859
O	778.832	0.561908	0.49546
H	777.905	-1.30095	-0.213325
H	775.891	0.729291	-0.459033
C	775.666	-0.215493	1.48712
H	776.283	-0.80054	2.20207
H	775.278	0.688765	1.99959
H	774.798	-0.842844	1.18639
N	777.453	2.24348	1.07243
C	778.532	3.12519	1.45323
H	776.521	2.58064	1.15653
H	778.135	4.10315	1.80453
H	779.21	3.31208	0.589233
H	779.135	2.67587	2.27486
