44
  This energy is 0 and Call times are: 164113
C	2.05656	-0.42607	-2.7752
C	1.3477	0.430079	-1.79761
O	1.57229	1.63053	-1.72762
H	2.77421	0.194598	-3.35453
H	1.33062	-0.886347	-3.47797
H	2.61768	-1.22583	-2.24735
N	0.462298	-0.180297	-1.00649
C	-0.273442	0.512072	0.0220435
C	-0.595512	-0.480773	1.12299
O	-0.382874	-1.68203	0.969727
H	0.320235	-1.16518	-1.04753
H	0.354678	1.28084	0.454584
C	-1.56992	1.12879	-0.547206
H	-2.21943	0.339212	-0.981637
H	-2.13846	1.6765	0.232091
H	-1.31066	1.84594	-1.35643
N	-1.11189	0.00304163	2.26986
C	-1.44448	-0.865695	3.37478
H	-1.27301	0.978601	2.37662
H	-1.85545	-0.279473	4.22606
H	-0.541312	-1.413	3.72977
H	-2.20582	-1.61869	3.06738
C	471.65	-0.255748	0.909613
C	472.715	0.0733798	-0.0652051
O	472.452	0.290305	-1.24006
H	470.669	-0.278464	0.388116
H	471.614	0.512379	1.7105
H	471.84	-1.25209	1.36162
N	473.962	0.116009	0.409494
C	475.107	0.380468	-0.42586
C	476.31	-0.31062	0.187878
O	476.242	-0.819562	1.30504
H	474.164	-0.103107	1.35963
H	474.945	-0.0590525	-1.40233
C	475.36	1.89892	-0.550497
H	475.535	2.34849	0.450019
H	476.23	2.11602	-1.20256
H	474.464	2.38507	-0.994402
N	477.445	-0.351841	-0.537574
C	478.638	-0.992832	-0.0375757
H	477.479	0.0620143	-1.44124
H	479.463	-0.921422	-0.780103
H	478.447	-2.07036	0.171607
H	478.976	-0.51189	0.909029
