44
  This energy is 0 and Call times are: 162013
C	2.20493	-1.68191	-2.10289
C	1.79337	-1.19513	-0.766925
O	2.35907	-1.57754	0.248038
H	3.0388	-2.40815	-1.98834
H	2.55105	-0.833225	-2.72953
H	1.35359	-2.18847	-2.60459
N	0.779482	-0.327041	-0.738033
C	0.239053	0.201845	0.489475
C	-1.22394	0.530732	0.259182
O	-1.7082	0.490808	-0.870248
H	0.302361	-0.0566354	-1.56936
H	0.281227	-0.561419	1.25647
C	1.01346	1.46138	0.935695
H	0.96163	2.24861	0.153629
H	0.615653	1.87008	1.88713
H	2.08282	1.19903	1.09059
N	-1.96808	0.857522	1.33412
C	-3.37062	1.18049	1.21264
H	-1.55937	0.880395	2.24049
H	-3.80631	1.4213	2.20733
H	-3.93531	0.322479	0.78111
H	-3.51497	2.05996	0.54418
C	326.182	3.11881	-0.993796
C	326.167	1.64143	-1.08466
O	326.733	1.05752	-1.99871
H	326.745	3.5341	-1.85816
H	326.68	3.43927	-0.0541649
H	325.145	3.51444	-1.01644
N	325.505	0.994553	-0.122491
C	325.366	-0.440234	-0.0994406
C	324.07	-0.778221	0.613231
O	323.426	0.0922369	1.19582
H	325.015	1.48544	0.592223
H	325.281	-0.807239	-1.11468
C	326.565	-1.09955	0.616155
H	326.646	-0.731274	1.66105
H	326.476	-2.20522	0.628277
H	327.503	-0.832234	0.0823275
N	323.651	-2.05855	0.575618
C	322.427	-2.47273	1.22066
H	324.184	-2.74789	0.0957177
H	322.256	-3.56228	1.07654
H	321.555	-1.92208	0.798994
H	322.47	-2.26598	2.31454
