44
  This energy is -3.0639 and Call times are: 180064
C	-0.290615	2.30789	2.5888
C	-0.53467	0.971573	2.00071
O	-0.961712	0.0489852	2.68106
H	-0.536684	2.2827	3.67264
H	-0.930853	3.06716	2.09248
H	0.776836	2.58951	2.46911
N	-0.261669	0.836385	0.700877
C	-0.407443	-0.414078	-0.00172554
C	0.587957	-0.432245	-1.14645
O	1.22439	0.57687	-1.4437
H	0.124105	1.58534	0.169736
H	-0.149755	-1.22935	0.662777
C	-1.84747	-0.583424	-0.533605
H	-2.10862	0.24707	-1.22361
H	-1.97618	-1.54881	-1.06462
H	-2.5593	-0.559128	0.32024
N	0.752083	-1.59132	-1.81401
C	1.68116	-1.70505	-2.91404
H	0.231073	-2.39824	-1.55613
H	1.67204	-2.736	-3.33151
H	2.71766	-1.47199	-2.57844
H	1.41414	-0.994111	-3.72915
C	993.044	-3.03965	-1.43248
C	994.003	-1.9312	-1.22491
O	995.163	-2.0184	-1.60345
H	993.562	-3.88412	-1.93651
H	992.201	-2.7021	-2.07188
H	992.649	-3.39175	-0.456242
N	993.531	-0.846557	-0.605723
C	994.354	0.295203	-0.294641
C	993.785	0.966896	0.940553
O	992.697	0.622466	1.39977
H	992.595	-0.806632	-0.266981
H	995.353	-0.0416874	-0.0468291
C	994.395	1.28524	-1.4793
H	993.372	1.63927	-1.72711
H	995.037	2.16211	-1.25729
H	994.808	0.770132	-2.37405
N	994.515	1.94252	1.51511
C	994.056	2.63452	2.69687
H	995.395	2.20446	1.13133
H	994.797	3.40054	3.0166
H	993.907	1.91912	3.53778
H	993.086	3.14502	2.50124
