44
  This energy is 0 and Call times are: 168425
C	-2.88512	1.29903	1.44957
C	-2.19442	0.362855	0.534344
O	-2.79116	-0.569749	0.014187
H	-3.94636	0.98739	1.56149
H	-2.85475	2.32953	1.03738
H	-2.39958	1.2861	2.44816
N	-0.897768	0.594273	0.316373
C	-0.0820487	-0.254912	-0.515521
C	1.3474	-0.176685	-0.0134151
O	1.67077	0.646645	0.840559
H	-0.416271	1.33314	0.779087
H	-0.407039	-1.28194	-0.404914
C	-0.161005	0.181778	-1.99481
H	0.182276	1.23194	-2.11037
H	0.451994	-0.472967	-2.64755
H	-1.21688	0.124314	-2.33858
N	2.23996	-1.04412	-0.530062
C	3.62157	-1.04762	-0.108959
H	1.95845	-1.70571	-1.21717
H	4.19514	-1.83321	-0.648479
H	3.69837	-1.24635	0.984605
H	4.09776	-0.0617445	-0.31496
C	780.529	1.29766	-2.07965
C	781.588	0.309431	-1.77282
O	781.73	-0.697256	-2.45303
H	779.945	0.948637	-2.95833
H	780.983	2.28266	-2.31806
H	779.844	1.4065	-1.21241
N	782.365	0.579388	-0.721387
C	783.409	-0.308209	-0.273805
C	783.588	-0.113061	1.22005
O	783.019	0.805027	1.80769
H	782.211	1.38235	-0.152853
H	783.098	-1.33352	-0.430233
C	784.732	-0.0240785	-1.01895
H	785.057	1.02462	-0.850195
H	785.54	-0.710316	-0.693044
H	784.576	-0.165231	-2.11074
N	784.382	-0.984006	1.87393
C	784.606	-0.880363	3.29692
H	784.83	-1.72286	1.38188
H	785.287	-1.68735	3.64734
H	783.645	-0.966191	3.85371
H	785.066	0.101792	3.55167
