44
  This energy is 0 and Call times are: 159437
C	2.29275	0.549449	2.56009
C	0.92106	0.600242	2.006
O	-0.0414187	0.845325	2.72013
H	2.25436	0.743224	3.6541
H	2.92825	1.32312	2.08018
H	2.73805	-0.453166	2.38814
N	0.800346	0.363136	0.697723
C	-0.473667	0.335507	0.0234188
C	-0.360033	-0.601687	-1.16415
O	0.73031	-1.05526	-1.50641
H	1.58842	0.12474	0.137391
H	-1.22143	-0.0768292	0.689344
C	-0.883007	1.75052	-0.440717
H	-0.121373	2.16977	-1.13222
H	-1.86888	1.74466	-0.949179
H	-0.952278	2.42108	0.443531
N	-1.49361	-0.921738	-1.81881
C	-1.48381	-1.8107	-2.95716
H	-2.36694	-0.547955	-1.52443
H	-2.51263	-1.9497	-3.35645
H	-1.08058	-2.80942	-2.67214
H	-0.844064	-1.39965	-3.77136
C	142.212	2.06726	-2.52384
C	142.237	0.807566	-1.74683
O	142.904	-0.149803	-2.11395
H	142.85	1.95408	-3.42702
H	142.605	2.90396	-1.90874
H	141.175	2.29945	-2.84386
N	141.494	0.780086	-0.637534
C	141.383	-0.388944	0.198854
C	140.029	-0.35456	0.882075
O	139.311	0.641287	0.808626
H	140.924	1.55312	-0.373645
H	141.409	-1.27596	-0.421761
C	142.517	-0.427812	1.24638
H	142.485	0.476935	1.89014
H	142.451	-1.33051	1.88765
H	143.499	-0.444472	0.724145
N	139.643	-1.45316	1.56023
C	138.368	-1.5143	2.23744
H	140.235	-2.2507	1.60491
H	138.235	-2.49944	2.7364
H	137.532	-1.37139	1.51497
H	138.296	-0.716335	3.01148
