44
  This energy is 0 and Call times are: 163301
C	2.38596	2.36936	0.897786
C	1.46944	1.75098	-0.0864647
O	1.23583	2.2899	-1.1595
H	2.75824	3.33666	0.495771
H	3.25243	1.70121	1.08629
H	1.85108	2.55892	1.85229
N	0.919331	0.5864	0.264964
C	-0.0251564	-0.114305	-0.569013
C	-0.940596	-0.923681	0.330117
O	-0.704626	-1.03643	1.5315
H	1.08733	0.180431	1.15874
H	-0.641626	0.605383	-1.09308
C	0.702336	-1.03633	-1.57194
H	1.32669	-1.78162	-1.03456
H	-0.0136737	-1.57103	-2.22917
H	1.37243	-0.423928	-2.21403
N	-2.0189	-1.50263	-0.233888
C	-2.9492	-2.28722	0.544022
H	-2.19531	-1.39662	-1.20688
H	-3.76813	-2.67801	-0.0993014
H	-3.40314	-1.67005	1.35292
H	-2.43263	-3.15264	1.01872
C	420.432	0.522642	0.252484
C	419.093	0.88203	-0.268498
O	418.903	1.94317	-0.846635
H	421.143	1.35075	0.041218
H	420.799	-0.401327	-0.241455
H	420.384	0.360971	1.35007
N	418.12	-0.00960685	-0.0693335
C	416.757	0.217384	-0.480793
C	415.846	-0.555176	0.454277
O	416.308	-1.35363	1.26694
H	418.281	-0.850752	0.438993
H	416.52	1.26786	-0.367339
C	416.54	-0.232074	-1.94232
H	416.773	-1.31216	-2.05699
H	415.498	-0.0496466	-2.27545
H	417.222	0.340513	-2.60765
N	414.521	-0.32725	0.365604
C	413.577	-1.01202	1.21831
H	414.166	0.325592	-0.295437
H	412.537	-0.688742	0.993118
H	413.787	-0.794716	2.29064
H	413.642	-2.11433	1.07035
