44
  This energy is 0 and Call times are: 158317
C	-0.059236	-3.45927	0.377694
C	0.295723	-2.1025	0.851315
O	0.691327	-1.91408	1.99342
H	0.0801744	-4.18605	1.20729
H	0.595025	-3.75197	-0.470252
H	-1.12042	-3.48533	0.0516398
N	0.157271	-1.11064	-0.031534
C	0.422228	0.268329	0.295291
C	-0.454529	1.13974	-0.584196
O	-1.09945	0.652309	-1.51059
H	-0.204836	-1.27393	-0.944815
H	0.134146	0.453694	1.32256
C	1.91318	0.609443	0.0809728
H	2.20659	0.429467	-0.975226
H	2.1327	1.66489	0.34246
H	2.53626	-0.045542	0.728371
N	-0.504889	2.45753	-0.306879
C	-1.31618	3.3635	-1.08612
H	0.0208573	2.83269	0.449375
H	-1.22404	4.40332	-0.702055
H	-2.38925	3.06719	-1.04145
H	-0.999783	3.35472	-2.15428
C	59.8133	-0.813074	-3.16914
C	60.8573	-0.278587	-2.26599
O	61.9889	-0.0511775	-2.67112
H	60.2459	-0.963538	-4.18209
H	58.9675	-0.0974944	-3.24222
H	59.4409	-1.78769	-2.78904
N	60.4936	-0.0651832	-0.999265
C	61.4099	0.411568	0.00650398
C	60.9484	-0.112323	1.35337
O	59.8623	-0.676513	1.47109
H	59.5802	-0.293728	-0.674764
H	62.3929	-0.00221646	-0.180899
C	61.4648	1.95499	0.0157383
H	60.4586	2.37986	0.218412
H	62.1774	2.33411	0.776645
H	61.7972	2.31638	-0.981891
N	61.773	0.0561618	2.40581
C	61.4206	-0.41448	3.7251
H	62.6495	0.511485	2.28997
H	62.2279	-0.182048	4.45416
H	61.2607	-1.51705	3.71906
H	60.4805	0.0688487	4.07676
