44
  This energy is 0 and Call times are: 169433
C	-2.21937	-2.38706	1.22026
C	-1.54878	-1.68009	0.105966
O	-1.63185	-2.08863	-1.04408
H	-2.74175	-3.2849	0.824175
H	-2.96527	-1.72083	1.70246
H	-1.47077	-2.71022	1.9741
N	-0.85552	-0.585852	0.429072
C	-0.114334	0.18323	-0.539285
C	1.04946	0.845811	0.173539
O	1.13655	0.815813	1.3996
H	-0.76337	-0.288964	1.37524
H	0.301251	-0.484661	-1.28349
C	-1.01547	1.24485	-1.20724
H	-1.43365	1.93672	-0.445345
H	-0.459767	1.83445	-1.96492
H	-1.86449	0.738066	-1.71585
N	1.98129	1.45645	-0.58465
C	3.12683	2.10904	0.00530747
H	1.89566	1.46663	-1.57543
H	3.7764	2.55099	-0.782065
H	3.7334	1.38238	0.592937
H	2.80405	2.92448	0.692333
C	855.116	-2.2175	-2.67994
C	854.378	-1.47857	-1.63078
O	853.155	-1.43835	-1.62584
H	854.39	-2.66244	-3.39505
H	855.716	-3.03229	-2.22366
H	855.788	-1.52794	-3.23261
N	855.118	-0.865335	-0.704563
C	854.545	-0.0722005	0.354187
C	855.553	0.991953	0.746549
O	856.699	0.967567	0.303351
H	856.113	-0.873046	-0.745292
H	853.666	0.438036	-0.0178586
C	854.186	-0.953017	1.571
H	855.09	-1.46849	1.95957
H	853.731	-0.35602	2.38774
H	853.454	-1.72938	1.25886
N	855.142	1.96228	1.58674
C	856.03	3.01995	2.0112
H	854.209	1.96742	1.93153
H	855.507	3.71938	2.7
H	856.396	3.60072	1.13399
H	856.915	2.60096	2.54231
