44
  This energy is 0 and Call times are: 166829
C	-0.310876	2.83646	-1.99262
C	-0.78699	1.51663	-1.5209
O	-1.90364	1.10724	-1.80708
H	-1.11444	3.32695	-2.58388
H	0.584681	2.71229	-2.63706
H	-0.0560914	3.48324	-1.12668
N	0.0644076	0.811429	-0.772446
C	-0.271739	-0.470671	-0.205186
C	0.529341	-0.647964	1.0709
O	1.42017	0.144732	1.37053
H	0.954526	1.17572	-0.513893
H	-1.31951	-0.476682	0.0682467
C	0.0349197	-1.61157	-1.19995
H	1.1118	-1.61239	-1.47264
H	-0.232556	-2.60287	-0.780061
H	-0.555981	-1.45707	-2.12909
N	0.222721	-1.69555	1.8612
C	0.927484	-1.94133	3.09776
H	-0.504085	-2.32375	1.60393
H	0.529523	-2.8485	3.60361
H	0.817113	-1.07645	3.79136
H	2.01438	-2.09435	2.90699
C	668.059	3.34466	-0.201409
C	668.717	2.14042	-0.755932
O	669.089	2.10199	-1.92069
H	667.97	4.11457	-0.998409
H	668.661	3.7598	0.633795
H	667.043	3.08989	0.166933
N	668.876	1.11236	0.0809013
C	669.46	-0.141681	-0.3247
C	668.875	-1.23917	0.543794
O	668.176	-0.966094	1.51803
H	668.531	1.14376	1.01472
H	669.176	-0.353853	-1.34786
C	670.998	-0.104136	-0.186419
H	671.29	0.103056	0.865138
H	671.461	-1.05931	-0.508834
H	671.404	0.711188	-0.824169
N	669.142	-2.51541	0.203034
C	668.623	-3.62594	0.967185
H	669.705	-2.71652	-0.591103
H	668.952	-4.59338	0.528218
H	667.509	-3.60808	0.979563
H	668.981	-3.57896	2.0212
