44
  This energy is 0 and Call times are: 161033
C	1.075	-1.39977	-2.99962
C	1.06445	-0.306828	-2.00137
O	1.86999	0.611905	-2.06012
H	1.90082	-1.22787	-3.72374
H	0.111983	-1.42313	-3.55171
H	1.23599	-2.37635	-2.49616
N	0.136259	-0.385544	-1.045
C	0.0289514	0.579845	0.0203945
C	-0.562459	-0.116295	1.23167
O	-1.01101	-1.25782	1.14539
H	-0.486124	-1.16086	-0.986718
H	1.01958	0.919858	0.295481
C	-0.85496	1.77327	-0.40348
H	-1.87452	1.42624	-0.675696
H	-0.934057	2.53026	0.403509
H	-0.407481	2.26262	-1.29603
N	-0.56897	0.557358	2.39879
C	-1.10627	-0.0266126	3.60563
H	-0.197781	1.47861	2.44972
H	-1.02044	0.682998	4.45787
H	-0.556493	-0.959089	3.86927
H	-2.18147	-0.285868	3.4719
C	253.157	-2.95059	-0.0963391
C	253.83	-1.85814	0.641423
O	253.668	-1.71365	1.8453
H	252.525	-3.53428	0.60782
H	253.911	-3.62836	-0.548828
H	252.51	-2.53081	-0.895758
N	254.612	-1.05012	-0.0781777
C	255.299	0.0824478	0.491202
C	255.474	1.12543	-0.596563
O	255.207	0.864259	-1.76812
H	254.702	-1.15564	-1.06444
H	254.682	0.522888	1.26421
C	256.67	-0.335629	1.06581
H	257.308	-0.7779	0.270887
H	257.203	0.525136	1.51954
H	256.519	-1.10495	1.85417
N	255.921	2.34261	-0.229726
C	256.113	3.39989	-1.19488
H	256.127	2.53621	0.723713
H	256.485	4.32298	-0.698236
H	255.154	3.64078	-1.70932
H	256.853	3.09536	-1.96949
