44
  This energy is 0 and Call times are: 163721
C	0.0530555	-3.07956	-1.62054
C	0.708186	-1.82765	-1.17934
O	1.92049	-1.68528	-1.25974
H	0.826636	-3.79084	-1.98323
H	-0.65736	-2.8689	-2.44739
H	-0.493651	-3.54457	-0.773208
N	-0.0938769	-0.87768	-0.692896
C	0.4011	0.377444	-0.18474
C	-0.566279	0.873913	0.873206
O	-1.64818	0.316704	1.04852
H	-1.07419	-1.02405	-0.595781
H	1.35502	0.214812	0.30128
C	0.541574	1.4153	-1.3198
H	-0.438885	1.59034	-1.81184
H	0.935034	2.3818	-0.943529
H	1.24771	1.02762	-2.08624
N	-0.192319	1.9362	1.61329
C	-1.04514	2.47524	2.64688
H	0.688737	2.37111	1.45944
H	-0.561054	3.34583	3.14182
H	-1.25728	1.70434	3.42276
H	-2.01738	2.81095	2.21887
C	448.739	1.99416	2.26118
C	448.096	0.717937	1.8753
O	448.248	-0.295209	2.54364
H	449.341	1.83808	3.18235
H	447.967	2.766	2.46321
H	449.409	2.34591	1.44874
N	447.351	0.739712	0.767242
C	446.698	-0.433435	0.242017
C	446.574	-0.272194	-1.26131
O	446.844	0.79695	-1.80467
H	447.27	1.56205	0.211376
H	447.322	-1.30031	0.422828
C	445.306	-0.623865	0.883549
H	444.663	0.260704	0.689358
H	444.799	-1.5317	0.497484
H	445.421	-0.731769	1.98423
N	446.165	-1.34122	-1.9731
C	446.023	-1.28336	-3.40921
H	445.955	-2.19901	-1.51603
H	445.677	-2.26193	-3.80984
H	446.995	-1.03084	-3.89078
H	445.281	-0.504236	-3.69939
