44
  This energy is 0 and Call times are: 160081
C	-3.20529	0.497504	-1.26146
C	-1.87179	0.997064	-0.857287
O	-1.51027	2.13225	-1.1349
H	-3.73844	1.29121	-1.82861
H	-3.80333	0.233761	-0.363946
H	-3.09823	-0.397407	-1.91012
N	-1.09783	0.143705	-0.182646
C	0.241099	0.470752	0.240288
C	1.04395	-0.814856	0.305061
O	0.494107	-1.90763	0.181627
H	-1.3901	-0.790653	0.000161465
H	0.706262	1.10436	-0.504557
C	0.229241	1.17165	1.61646
H	-0.238354	0.517816	2.38319
H	1.25337	1.44104	1.94679
H	-0.370338	2.10552	1.54753
N	2.37441	-0.712375	0.493226
C	3.22023	-1.88111	0.562726
H	2.80169	0.180789	0.586821
H	4.28186	-1.58938	0.721051
H	3.15548	-2.4695	-0.381133
H	2.9089	-2.54216	1.40369
C	186.253	-2.59927	2.19068
C	186.041	-1.85887	0.926528
O	185.35	-2.32186	0.0301009
H	185.718	-3.57223	2.14064
H	185.857	-2.01474	3.04753
H	187.336	-2.7924	2.34416
N	186.645	-0.672404	0.825334
C	186.568	0.144619	-0.360001
C	187.831	0.979762	-0.442293
O	188.627	1.01188	0.494443
H	187.238	-0.327299	1.54713
H	186.546	-0.494703	-1.23374
C	185.319	1.05349	-0.322934
H	185.346	1.71697	0.567637
H	185.241	1.67761	-1.23663
H	184.407	0.421507	-0.254687
N	188.05	1.67289	-1.57709
C	189.228	2.49072	-1.74819
H	187.397	1.63106	-2.32568
H	189.226	2.97933	-2.74743
H	190.151	1.87269	-1.66229
H	189.271	3.28578	-0.968989
