44
  This energy is 0 and Call times are: 166549
C	0.62979	-1.94618	-2.81575
C	0.999865	-1.4309	-1.47833
O	1.93233	-1.9128	-0.850095
H	1.30273	-2.78959	-3.08352
H	0.73663	-1.14543	-3.5774
H	-0.418813	-2.31152	-2.80838
N	0.262251	-0.423552	-1.00552
C	0.474031	0.154541	0.298137
C	-0.851639	0.700107	0.794635
O	-1.8287	0.754663	0.0502594
H	-0.519258	-0.0691481	-1.511
H	0.781843	-0.62181	0.987456
C	1.53325	1.27692	0.238471
H	1.21304	2.07869	-0.460576
H	1.71536	1.72067	1.23869
H	2.4926	0.85671	-0.134922
N	-0.917933	1.11145	2.07621
C	-2.13896	1.64007	2.63821
H	-0.117832	1.05564	2.66425
H	-1.99136	1.92252	3.70389
H	-2.95516	0.883524	2.58597
H	-2.47013	2.54443	2.07821
C	647.626	1.12652	-2.99266
C	647.834	1.23634	-1.5312
O	647.498	2.23982	-0.917649
H	647.165	2.06507	-3.36954
H	646.949	0.276565	-3.22005
H	648.598	0.972251	-3.50695
N	648.405	0.188524	-0.932632
C	648.711	0.164973	0.476093
C	649.906	-0.745735	0.685525
O	650.338	-1.43956	-0.23313
H	648.711	-0.604477	-1.452
H	649.002	1.15796	0.79505
C	647.5	-0.333511	1.29516
H	647.207	-1.35637	0.975553
H	647.718	-0.34303	2.38272
H	646.635	0.343066	1.12044
N	650.477	-0.757764	1.90628
C	651.622	-1.5888	2.19734
H	650.116	-0.186304	2.63577
H	651.944	-1.45805	3.25382
H	652.477	-1.32472	1.53452
H	651.378	-2.66384	2.03526
