44
  This energy is -2.5198 and Call times are: 184799
C	0.454953	-3.2393	-1.18854
C	0.366055	-2.25641	-0.0852863
O	0.299102	-2.61856	1.08124
H	0.430141	-4.26773	-0.767112
H	1.40467	-3.10268	-1.74721
H	-0.403035	-3.11446	-1.88235
N	0.361137	-0.96849	-0.43686
C	0.236248	0.101919	0.520839
C	-0.426458	1.27919	-0.169384
O	-0.608185	1.27553	-1.38539
H	0.374929	-0.690237	-1.39303
H	-0.419031	-0.211835	1.32383
C	1.61842	0.508417	1.07725
H	2.28763	0.840395	0.255069
H	1.53427	1.32249	1.82608
H	2.08823	-0.370241	1.5708
N	-0.81282	2.31738	0.598021
C	-1.45646	3.47893	0.0299401
H	-0.660927	2.30022	1.58072
H	-1.69733	4.22183	0.821967
H	-2.40386	3.19225	-0.481467
H	-0.793666	3.96815	-0.72006
C	994.697	-2.91746	1.89199
C	995.214	-1.58409	1.5106
O	996.078	-1.02688	2.17387
H	995.2	-3.25352	2.8248
H	994.904	-3.65319	1.08677
H	993.602	-2.86592	2.0722
N	994.686	-1.03369	0.41491
C	995.057	0.277098	-0.0569796
C	993.872	0.866242	-0.79788
O	992.885	0.179554	-1.05365
H	993.955	-1.48153	-0.0913103
H	995.258	0.918665	0.791887
C	996.291	0.20128	-0.982827
H	996.082	-0.44836	-1.85929
H	996.595	1.2059	-1.34173
H	997.144	-0.240075	-0.422321
N	993.939	2.16408	-1.15433
C	992.857	2.81216	-1.85757
H	994.745	2.70452	-0.93494
H	993.102	3.87793	-2.0606
H	991.92	2.77666	-1.25533
H	992.661	2.30573	-2.83039
