44
  This energy is 0 and Call times are: 170413
C	-1.14326	3.28352	-0.155303
C	-1.36829	1.83283	0.0344712
O	-2.43338	1.40787	0.460374
H	-2.05227	3.84052	0.159887
H	-0.940275	3.50265	-1.22466
H	-0.28327	3.62119	0.460718
N	-0.350782	1.02818	-0.281124
C	-0.404369	-0.402336	-0.109937
C	1.00704	-0.902818	0.13298
O	1.9729	-0.154396	-0.00373664
H	0.524172	1.39183	-0.587855
H	-0.985611	-0.634848	0.773651
C	-1.0141	-1.0844	-1.35423
H	-0.412155	-0.8548	-2.2592
H	-1.07356	-2.18501	-1.22911
H	-2.04359	-0.697308	-1.51747
N	1.15864	-2.18773	0.509873
C	2.46337	-2.75066	0.768636
H	0.364763	-2.7767	0.61918
H	2.37871	-3.81901	1.06643
H	2.97405	-2.19734	1.58981
H	3.10507	-2.68953	-0.140005
C	927.425	0.548905	2.43552
C	926.1	0.0481405	2.00509
O	925.417	-0.648834	2.74241
H	927.644	0.174553	3.45904
H	927.428	1.65909	2.45056
H	928.214	0.186622	1.74356
N	925.703	0.397074	0.778984
C	924.458	-0.0487273	0.204543
C	924.626	-0.103458	-1.30232
O	925.63	0.357084	-1.84169
H	926.289	0.930844	0.175208
H	924.249	-1.05599	0.542695
C	923.303	0.901707	0.58697
H	923.512	1.93304	0.231048
H	922.336	0.561522	0.162082
H	923.204	0.93237	1.69405
N	923.641	-0.679927	-2.02007
C	923.716	-0.782413	-3.45887
H	922.838	-1.05055	-1.56535
H	922.812	-1.28761	-3.86438
H	924.612	-1.36913	-3.76508
H	923.79	0.228277	-3.92159
