44
  This energy is 0 and Call times are: 168817
C	2.39636	1.34604	-2.13502
C	1.4499	1.45796	-1.0024
O	1.46217	2.4309	-0.261026
H	3.06091	2.23715	-2.14778
H	1.84051	1.29849	-3.09498
H	3.02017	0.434124	-2.02377
N	0.595595	0.444869	-0.840593
C	-0.355626	0.390778	0.241448
C	-0.62905	-1.06742	0.558384
O	-0.20353	-1.96099	-0.171128
H	0.625034	-0.359189	-1.42753
H	0.0832691	0.836225	1.12552
C	-1.66471	1.11712	-0.137985
H	-2.12089	0.653822	-1.03871
H	-2.40014	1.09442	0.692165
H	-1.43956	2.18022	-0.373519
N	-1.34389	-1.34295	1.66704
C	-1.64873	-2.70136	2.05169
H	-1.67614	-0.606544	2.24703
H	-2.24427	-2.71989	2.99096
H	-0.712529	-3.28177	2.21881
H	-2.23477	-3.21349	1.25455
C	807.544	-0.265506	0.318298
C	808.875	-0.847223	0.033329
O	809.03	-2.05683	-0.0634373
H	806.802	-1.08515	0.431717
H	807.228	0.393131	-0.517551
H	807.577	0.322349	1.25979
N	809.883	0.0171767	-0.10728
C	811.243	-0.400154	-0.344219
C	812.168	0.653304	0.234313
O	811.726	1.72571	0.641399
H	809.749	0.996474	0.0148662
H	811.431	-1.32336	0.189453
C	811.508	-0.583799	-1.85453
H	811.325	0.365872	-2.40105
H	812.548	-0.918463	-2.0491
H	810.814	-1.3532	-2.25821
N	813.484	0.366171	0.291859
C	814.44	1.30513	0.831363
H	813.822	-0.508535	-0.0386883
H	815.469	0.885075	0.792028
H	814.199	1.54442	1.89257
H	814.426	2.25629	0.251477
