44
  This energy is 0.1097 and Call times are: 175159
C	-2.0615	-2.67102	-0.853547
C	-1.84935	-1.24828	-0.504341
O	-2.74534	-0.425083	-0.630726
H	-3.09766	-2.80545	-1.23328
H	-1.92175	-3.3102	0.0434792
H	-1.346	-2.98189	-1.64381
N	-0.636321	-0.922865	-0.0515378
C	-0.266193	0.428513	0.288083
C	1.2276	0.578791	0.069978
O	1.93026	-0.400487	-0.172917
H	0.0949796	-1.59639	0.00708568
H	-0.761457	1.11499	-0.387263
C	-0.634525	0.749777	1.75313
H	-0.118417	0.0524824	2.44699
H	-0.367117	1.79206	2.02269
H	-1.73077	0.625595	1.89163
N	1.74861	1.81939	0.143933
C	3.15882	2.06009	-0.0550056
H	1.16336	2.59986	0.337412
H	3.39091	3.14326	0.0455132
H	3.47483	1.72668	-1.07002
H	3.76276	1.50076	0.69569
C	999.407	-0.852609	-1.79462
C	998.735	-0.210101	-0.642914
O	999.374	0.190562	0.320151
H	1000.5	-0.901819	-1.6009
H	999.232	-0.261884	-2.71826
H	999.021	-1.88385	-1.93676
N	997.407	-0.0984607	-0.717761
C	996.61	0.464971	0.343099
C	995.233	-0.169616	0.288107
O	994.907	-0.886089	-0.656411
H	996.897	-0.466269	-1.48992
H	997.048	0.202077	1.29771
C	996.505	1.99912	0.199354
H	996.046	2.26911	-0.77537
H	995.905	2.44637	1.01819
H	997.524	2.44144	0.234357
N	994.391	0.0741195	1.31153
C	993.062	-0.491267	1.34824
H	994.674	0.653136	2.06887
H	992.525	-0.174506	2.26946
H	993.108	-1.60435	1.3348
H	992.469	-0.15972	0.465168
