44
  This energy is 0 and Call times are: 164589
C	-2.19539	2.66568	-0.432503
C	-0.880746	2.0148	-0.630495
O	-0.0577175	2.4747	-1.40994
H	-2.26706	3.5571	-1.09289
H	-2.30635	2.99077	0.623316
H	-3.01399	1.96093	-0.690034
N	-0.65262	0.909162	0.0821692
C	0.562309	0.141759	-0.0344541
C	0.242673	-1.30344	0.298381
O	-0.853652	-1.61602	0.758906
H	-1.34823	0.524142	0.681968
H	0.904312	0.16818	-1.06157
C	1.65261	0.687364	0.913593
H	1.30628	0.650666	1.96846
H	2.59755	0.113417	0.823033
H	1.86471	1.74827	0.656977
N	1.19727	-2.22511	0.0632228
C	0.981408	-3.62545	0.343632
H	2.07662	-1.95341	-0.313598
H	1.88295	-4.22233	0.0825315
H	0.120022	-4.01574	-0.245401
H	0.759084	-3.78019	1.42427
C	507.725	1.59202	2.82007
C	508.85	1.03731	2.03323
O	510.011	1.25441	2.34935
H	508.128	2.19963	3.65909
H	507.107	0.769187	3.2369
H	507.092	2.24073	2.17835
N	508.523	0.297828	0.970857
C	509.506	-0.273108	0.0843472
C	508.883	-0.402015	-1.29287
O	507.682	-0.200842	-1.46205
H	507.573	0.163981	0.70264
H	510.345	0.405912	-0.00344013
C	509.976	-1.65189	0.596984
H	509.118	-2.35205	0.677191
H	510.744	-2.09572	-0.0697671
H	510.421	-1.53473	1.60914
N	509.693	-0.73477	-2.31703
C	509.19	-0.875059	-3.66377
H	510.663	-0.889563	-2.1611
H	510.01	-1.15236	-4.36267
H	508.738	0.0803467	-4.01566
H	508.407	-1.66578	-3.71049
