44
  This energy is 0 and Call times are: 170973
C	-2.11017	-1.53215	-2.30486
C	-0.955902	-1.55526	-1.37843
O	-0.409536	-2.60656	-1.07401
H	-2.35485	-2.57195	-2.6128
H	-1.86282	-0.938157	-3.20971
H	-2.99542	-1.08847	-1.80228
N	-0.554903	-0.374987	-0.900392
C	0.52655	-0.241484	0.0436394
C	0.273727	0.998578	0.880227
O	-0.62787	1.78201	0.588554
H	-1.03549	0.4678	-1.12536
H	0.520985	-1.0906	0.715648
C	1.88451	-0.135906	-0.684396
H	1.89449	0.741172	-1.36606
H	2.72659	-0.0466128	0.032157
H	2.04483	-1.05023	-1.29649
N	1.06465	1.20156	1.95226
C	0.894936	2.3512	2.80999
H	1.78626	0.554289	2.17453
H	1.64023	2.33933	3.63559
H	-0.12487	2.35946	3.25855
H	1.02583	3.29502	2.23274
C	963.03	-0.237465	-2.85903
C	964.138	0.367312	-2.08696
O	964.942	1.12192	-2.61787
H	963.095	0.0956123	-3.91765
H	962.052	0.0834032	-2.4408
H	963.1	-1.34518	-2.82586
N	964.208	0.0412847	-0.794208
C	965.256	0.516179	0.0753434
C	965.469	-0.515934	1.16664
O	964.696	-1.46299	1.29736
H	963.571	-0.606415	-0.385907
H	966.18	0.588732	-0.484805
C	964.885	1.88432	0.688813
H	963.943	1.80801	1.27233
H	965.69	2.26719	1.34956
H	964.726	2.62182	-0.12798
N	966.535	-0.359721	1.97543
C	966.821	-1.29501	3.03823
H	967.152	0.410736	1.85146
H	967.739	-0.994525	3.59001
H	966.978	-2.31913	2.62855
H	965.975	-1.33849	3.76187
