44
  This energy is 0 and Call times are: 170469
C	3.04485	1.01816	1.34347
C	1.93805	0.0437561	1.21438
O	2.03069	-1.08448	1.67797
H	3.89358	0.540989	1.87998
H	2.7084	1.90531	1.9201
H	3.39044	1.34009	0.338471
N	0.848664	0.465285	0.567907
C	-0.29241	-0.381968	0.325685
C	-0.972524	0.0923727	-0.944748
O	-0.633765	1.14318	-1.48582
H	0.804181	1.37297	0.160488
H	0.0459898	-1.39571	0.151217
C	-1.2758	-0.336539	1.5157
H	-1.63141	0.701603	1.68844
H	-2.15201	-0.995626	1.34725
H	-0.75458	-0.680113	2.43583
N	-1.94919	-0.681679	-1.45758
C	-2.649	-0.313822	-2.66635
H	-2.20647	-1.53052	-1.00774
H	-3.41463	-1.07793	-2.92553
H	-1.93867	-0.225793	-3.52014
H	-3.16121	0.667518	-2.54082
C	926.568	-1.48343	-1.99897
C	927.936	-1.42737	-1.43606
O	928.71	-2.36664	-1.55885
H	926.412	-2.46972	-2.48761
H	926.432	-0.682121	-2.75544
H	925.816	-1.35984	-1.191
N	928.267	-0.305319	-0.793076
C	929.547	-0.119821	-0.155349
C	929.362	0.840483	1.00456
O	928.301	1.44137	1.16213
H	927.612	0.434261	-0.665946
H	929.88	-1.06376	0.257292
C	930.587	0.431968	-1.15511
H	930.25	1.40549	-1.5708
H	931.58	0.566085	-0.679537
H	930.699	-0.282918	-1.99923
N	930.396	1.00122	1.85367
C	930.311	1.8899	2.98906
H	931.246	0.503198	1.71198
H	931.262	1.88409	3.56544
H	929.487	1.57842	3.67052
H	930.109	2.9338	2.65678
