44
  This energy is 0 and Call times are: 159353
C	2.23864	-2.61999	0.486663
C	1.93494	-1.18402	0.294557
O	2.79116	-0.327433	0.466489
H	3.29753	-2.73191	0.806198
H	2.08987	-3.1732	-0.46443
H	1.57946	-3.04901	1.27058
N	0.686001	-0.885253	-0.0704899
C	0.22897	0.469784	-0.253672
C	-1.25844	0.511313	0.0420175
O	-1.8958	-0.526141	0.212854
H	-0.0106114	-1.59047	-0.166732
H	0.719154	1.1126	0.466845
C	0.508836	0.956665	-1.69237
H	-0.0024574	0.303763	-2.43152
H	0.173989	2.00357	-1.84199
H	1.60217	0.910227	-1.88937
N	-1.84733	1.72106	0.117914
C	-3.25708	1.85912	0.400274
H	-1.31419	2.54932	-0.0192099
H	-3.55072	2.93176	0.421338
H	-3.50578	1.40821	1.38825
H	-3.86602	1.3439	-0.377464
C	134.298	3.21345	1.13735
C	134.815	1.84201	1.34372
O	135.449	1.54896	2.34832
H	134.598	3.8523	1.99626
H	133.19	3.19836	1.07048
H	134.718	3.64478	0.204526
N	134.554	0.957554	0.378464
C	135.028	-0.403449	0.417044
C	135.195	-0.886593	-1.01126
O	134.786	-0.213958	-1.95571
H	134.072	1.22149	-0.452339
H	136.005	-0.428235	0.88272
C	134.04	-1.31029	1.183
H	133.04	-1.29345	0.699517
H	134.4	-2.35821	1.23161
H	133.926	-0.933435	2.22294
N	135.813	-2.06886	-1.20301
C	136.022	-2.60637	-2.5272
H	136.141	-2.59677	-0.426476
H	136.547	-3.58598	-2.47566
H	136.639	-1.91046	-3.14063
H	135.049	-2.75625	-3.04881
