44
  This energy is -5.4252 and Call times are: 179118
C	-0.878116	-3.31073	-0.616987
C	0.115216	-2.26804	-0.2746
O	1.23299	-2.56511	0.123825
H	-0.436006	-4.31391	-0.432483
H	-1.16004	-3.23373	-1.68812
H	-1.78542	-3.1965	0.0129669
N	-0.279065	-1.0012	-0.423043
C	0.56081	0.122194	-0.0896349
C	-0.334565	1.28096	0.30675
O	-1.55244	1.21802	0.150131
H	-1.20575	-0.774969	-0.709304
H	1.16583	-0.127704	0.772995
C	1.45721	0.514655	-1.28449
H	0.836793	0.781284	-2.16655
H	2.11859	1.36977	-1.03576
H	2.09792	-0.350573	-1.56238
N	0.252131	2.37016	0.841028
C	-0.520004	3.51916	1.25308
H	1.23859	2.40079	0.963656
H	0.142927	4.31043	1.66739
H	-1.25899	3.23518	2.037
H	-1.07957	3.94679	0.389859
C	992.31	-2.95428	0.425884
C	993.538	-2.14125	0.576087
O	994.466	-2.51987	1.27735
H	992.402	-3.87559	1.04116
H	992.171	-3.24422	-0.63678
H	991.425	-2.37864	0.770864
N	993.569	-0.984418	-0.0896316
C	994.677	-0.0659126	-0.00813683
C	994.148	1.33622	-0.243225
O	992.991	1.51798	-0.61747
H	992.789	-0.670649	-0.62374
H	995.089	-0.0914226	0.99288
C	995.762	-0.416707	-1.04975
H	995.342	-0.380384	-2.07761
H	996.627	0.275004	-0.987726
H	996.129	-1.44957	-0.863527
N	994.986	2.367	-0.0192134
C	994.569	3.7364	-0.210885
H	995.918	2.2001	0.287259
H	995.4	4.4374	0.0250267
H	993.706	3.9803	0.45044
H	994.254	3.90747	-1.26586
