44
  This energy is 0.1193 and Call times are: 185495
C	2.88052	-0.00325613	1.95327
C	2.12055	-0.414133	0.751287
O	2.6756	-0.958795	-0.192997
H	3.95418	-0.255092	1.81284
H	2.49987	-0.538771	2.8483
H	2.78584	1.09199	2.11002
N	0.810867	-0.155237	0.760024
C	-0.0522592	-0.457156	-0.354614
C	-1.20204	0.53252	-0.344119
O	-1.36861	1.29432	0.606473
H	0.380729	0.325608	1.51873
H	0.492517	-0.308918	-1.27867
C	-0.58301	-1.90475	-0.265094
H	-1.15095	-2.05437	0.677822
H	-1.23785	-2.15392	-1.12511
H	0.275646	-2.61119	-0.266272
N	-2.0222	0.549509	-1.41326
C	-3.13972	1.46097	-1.49426
H	-1.86884	-0.0717337	-2.17458
H	-3.69251	1.32152	-2.44936
H	-2.78948	2.51737	-1.44307
H	-3.84769	1.29074	-0.651085
C	992.272	-2.6863	0.992408
C	992.453	-1.25796	0.648343
O	991.491	-0.520077	0.48344
H	991.186	-2.91749	1.04255
H	992.732	-2.90321	1.97958
H	992.741	-3.32881	0.21748
N	993.712	-0.831053	0.528419
C	994.046	0.521103	0.156058
C	995.385	0.498387	-0.556374
O	996.066	-0.525113	-0.585315
H	994.484	-1.45319	0.625403
H	993.312	0.889143	-0.549434
C	994.109	1.43594	1.39876
H	994.87	1.06474	2.1181
H	994.352	2.48281	1.12372
H	993.121	1.43106	1.90871
N	995.792	1.63299	-1.15886
C	997.05	1.7043	-1.8656
H	995.226	2.44983	-1.12804
H	997.205	2.72011	-2.29155
H	997.074	0.966877	-2.70042
H	997.899	1.47799	-1.18079
