44
  This energy is 0 and Call times are: 168537
C	1.53626	-2.81947	1.34283
C	1.56571	-1.57969	0.534615
O	2.62292	-1.10188	0.146764
H	2.577	-3.16982	1.51602
H	0.974596	-3.61282	0.806295
H	1.05451	-2.62512	2.32428
N	0.384228	-1.02156	0.260812
C	0.254678	0.20953	-0.478237
C	-1.01457	0.903912	-0.0217348
O	-1.81431	0.332451	0.716888
H	-0.465005	-1.39972	0.618112
H	1.08441	0.861362	-0.234744
C	0.206926	-0.0617075	-1.9979
H	-0.650354	-0.72184	-2.24957
H	0.121212	0.879547	-2.57861
H	1.14191	-0.577306	-2.30823
N	-1.22513	2.16503	-0.44749
C	-2.40231	2.90695	-0.0602176
H	-0.564517	2.61214	-1.04142
H	-2.39264	3.92351	-0.5116
H	-2.45122	3.0158	1.0475
H	-3.32582	2.38247	-0.396674
C	791.264	-2.63715	-2.25571
C	791.683	-1.31238	-1.74472
O	792.7	-0.769093	-2.15247
H	792.01	-2.99709	-2.99722
H	790.274	-2.56088	-2.75076
H	791.206	-3.36783	-1.42162
N	790.894	-0.755791	-0.822659
C	791.193	0.510044	-0.200561
C	790.582	0.51013	1.18839
O	789.825	-0.390763	1.54346
H	790.091	-1.2287	-0.470923
H	792.265	0.605594	-0.0818624
C	790.634	1.68157	-1.03755
H	789.533	1.5897	-1.15073
H	790.869	2.66244	-0.576092
H	791.088	1.6571	-2.05218
N	790.908	1.52415	2.0142
C	790.38	1.60507	3.35623
H	791.526	2.24171	1.71027
H	790.765	2.5099	3.87626
H	790.674	0.708603	3.94873
H	789.267	1.65721	3.33849
