44
  This energy is 0 and Call times are: 162265
C	2.07361	-2.56935	-1.10058
C	1.22188	-1.93252	-0.0709388
O	0.891263	-2.53734	0.939654
H	2.30398	-3.61248	-0.792868
H	3.02552	-2.00848	-1.21023
H	1.54323	-2.59122	-2.07593
N	0.840127	-0.675896	-0.310791
C	-0.0245213	0.0605432	0.577241
C	-0.801125	1.06945	-0.247713
O	-0.521277	1.26622	-1.42868
H	1.08349	-0.210874	-1.15719
H	-0.744229	-0.617495	1.01873
C	0.792455	0.774115	1.67661
H	1.5237	1.47763	1.22453
H	0.136786	1.33341	2.37504
H	1.3587	0.0175005	2.26248
N	-1.8075	1.73016	0.357839
C	-2.60525	2.70479	-0.349186
H	-2.02153	1.55433	1.31301
H	-3.38159	3.13736	0.319691
H	-3.11582	2.23614	-1.22152
H	-1.9665	3.53513	-0.728218
C	344.837	2.89368	-0.602823
C	344.122	1.97006	0.305881
O	344.207	2.08452	1.52078
H	345.422	3.62247	-8.85364e-05
H	344.112	3.44893	-1.2335
H	345.534	2.32567	-1.2545
N	343.389	1.01632	-0.273848
C	342.671	0.0178627	0.478221
C	342.568	-1.23317	-0.373827
O	342.908	-1.2199	-1.55548
H	343.362	0.910675	-1.26378
H	343.239	-0.240216	1.36316
C	341.265	0.525268	0.866396
H	340.677	0.780202	-0.0415514
H	340.707	-0.229329	1.45779
H	341.364	1.44548	1.48262
N	342.102	-2.35307	0.213211
C	341.975	-3.59258	-0.517254
H	341.836	-2.34518	1.17152
H	341.575	-4.39649	0.13902
H	342.965	-3.92077	-0.90945
H	341.284	-3.46968	-1.38267
