44
  This energy is -3.3158 and Call times are: 177719
C	2.36626	-1.98859	1.59969
C	1.34136	-0.920572	1.60809
O	0.913751	-0.461873	2.65841
H	2.61832	-2.26399	2.64683
H	3.28625	-1.63216	1.09045
H	1.97825	-2.88719	1.07524
N	0.916613	-0.496292	0.415638
C	-0.107879	0.506562	0.263118
C	-0.826134	0.253225	-1.04894
O	-0.398992	-0.574941	-1.85106
H	1.24427	-0.908002	-0.429941
H	-0.836705	0.396208	1.05638
C	0.501893	1.92539	0.281449
H	1.24196	2.04253	-0.538687
H	-0.2785	2.70703	0.178719
H	1.0291	2.08582	1.24719
N	-1.94681	0.960051	-1.29491
C	-2.70006	0.78252	-2.51445
H	-2.27905	1.6227	-0.631894
H	-3.58751	1.45292	-2.52967
H	-3.05409	-0.269728	-2.6078
H	-2.06965	1.01478	-3.40314
C	990.447	-1.04824	-1.17785
C	991.629	-1.20546	-0.300701
O	991.636	-2.01854	0.613228
H	989.647	-1.74433	-0.844351
H	990.716	-1.28647	-2.22846
H	990.065	-0.00737063	-1.12133
N	992.672	-0.414746	-0.563191
C	993.877	-0.421987	0.229406
C	994.5	0.958953	0.154712
O	994.07	1.803	-0.628715
H	992.637	0.270739	-1.28479
H	993.621	-0.604916	1.26569
C	994.867	-1.49165	-0.281234
H	995.137	-1.29838	-1.34117
H	995.793	-1.51657	0.32955
H	994.387	-2.49291	-0.224987
N	995.532	1.22479	0.980493
C	996.185	2.51318	0.984001
H	995.863	0.530298	1.61031
H	997.008	2.53495	1.73187
H	995.459	3.32024	1.23729
H	996.615	2.73826	-0.0184467
