44
  This energy is 0 and Call times are: 171197
C	0.691138	-0.59798	-3.35819
C	1.10821	-0.220758	-1.98892
O	2.29093	-0.138397	-1.68757
H	1.59426	-0.787968	-3.97799
H	0.104896	0.224176	-3.81984
H	0.0741876	-1.52083	-3.32973
N	0.127963	0.0184129	-1.11469
C	0.376919	0.353624	0.265246
C	-0.803263	-0.126289	1.0889
O	-1.82331	-0.543824	0.544032
H	-0.82986	-0.0926122	-1.36392
H	1.25134	-0.183367	0.611155
C	0.573391	1.87591	0.436398
H	-0.327544	2.42671	0.0914744
H	0.7796	2.14523	1.49255
H	1.43699	2.20622	-0.181205
N	-0.687171	-0.0852255	2.43086
C	-1.7564	-0.526362	3.29593
H	0.14762	0.252062	2.85328
H	-1.46916	-0.414418	4.36466
H	-1.99691	-1.59787	3.10805
H	-2.67928	0.0712482	3.11624
C	980.306	-3.19658	1.18886
C	980.215	-2.14306	0.153065
O	979.795	-2.39279	-0.968477
H	979.964	-4.16363	0.760358
H	979.661	-2.93889	2.05487
H	981.357	-3.30674	1.53086
N	980.615	-0.921175	0.51239
C	980.626	0.196444	-0.398309
C	981.721	1.15163	0.0376407
O	982.307	0.99197	1.10654
H	980.993	-0.74241	1.41643
H	980.879	-0.153969	-1.39095
C	979.257	0.911259	-0.410089
H	979	1.28019	0.605941
H	979.247	1.76533	-1.1179
H	978.469	0.191495	-0.724227
N	982.029	2.16916	-0.790362
C	983.061	3.12481	-0.461902
H	981.546	2.27949	-1.65289
H	983.165	3.88398	-1.26818
H	984.043	2.61399	-0.332752
H	982.819	3.65334	0.488531
