44
  This energy is -3.5702 and Call times are: 181663
C	-2.48524	1.97135	1.43181
C	-1.73833	0.698941	1.31239
O	-1.87323	-0.194066	2.13746
H	-3.1125	1.94431	2.34924
H	-3.14458	2.11232	0.54969
H	-1.77836	2.82462	1.50481
N	-0.918137	0.588337	0.264806
C	-0.0932556	-0.572131	0.0379951
C	1.14365	-0.131951	-0.722177
O	1.23031	1.00627	-1.17896
H	-0.788208	1.3398	-0.375728
H	0.237137	-0.967258	0.990543
C	-0.862965	-1.64918	-0.757465
H	-1.19301	-1.24757	-1.73921
H	-0.243055	-2.55341	-0.926568
H	-1.76809	-1.95048	-0.186224
N	2.13949	-1.028	-0.868534
C	3.3567	-0.697116	-1.57218
H	2.05264	-1.94286	-0.488325
H	4.05204	-1.56519	-1.58477
H	3.87378	0.159027	-1.08135
H	3.13592	-0.409154	-2.62549
C	994.976	-3.32359	0.113674
C	994.06	-2.22851	0.504249
O	993.01	-2.45953	1.08747
H	994.535	-4.29759	0.418161
H	995.958	-3.1999	0.618273
H	995.124	-3.32449	-0.986854
N	994.444	-0.990744	0.183274
C	993.639	0.172755	0.458931
C	993.958	1.22694	-0.58435
O	994.895	1.07602	-1.36606
H	995.282	-0.822033	-0.327743
H	992.592	-0.0831344	0.349335
C	993.918	0.713593	1.8783
H	994.989	0.986141	1.98792
H	993.294	1.60136	2.10772
H	993.685	-0.076972	2.62472
N	993.175	2.32283	-0.625786
C	993.399	3.37625	-1.58816
H	992.419	2.42511	0.0123398
H	992.651	4.18983	-1.46219
H	993.317	2.98286	-2.62732
H	994.416	3.81262	-1.46327
