44
  This energy is -4.8356 and Call times are: 176777
C	-0.770154	-1.92161	-2.79767
C	-0.093822	-1.72868	-1.49518
O	0.426185	-2.66671	-0.906876
H	-0.72209	-2.99553	-3.08096
H	-0.266614	-1.31984	-3.58321
H	-1.83538	-1.61656	-2.72464
N	-0.088367	-0.48582	-1.00768
C	0.493005	-0.150007	0.268176
C	-0.245602	1.05368	0.822388
O	-1.05465	1.66935	0.130942
H	-0.551437	0.259661	-1.47852
H	0.337558	-0.969763	0.958442
C	1.99945	0.158313	0.123984
H	2.15885	1.0061	-0.575937
H	2.46163	0.404839	1.10181
H	2.51852	-0.733365	-0.290533
N	0.0116848	1.41354	2.09531
C	-0.647487	2.54237	2.70965
H	0.666548	0.900522	2.64032
H	-0.302464	2.67616	3.7586
H	-1.7517	2.39447	2.72009
H	-0.429908	3.47876	2.14664
C	991.285	1.03635	-1.28171
C	992.762	0.96438	-1.33483
O	993.378	1.31702	-2.33144
H	990.901	1.42184	-2.25113
H	990.964	1.72231	-0.469733
H	990.859	0.0267343	-1.1023
N	993.373	0.4953	-0.244347
C	994.803	0.32633	-0.161767
C	995.09	-0.805979	0.806177
O	994.191	-1.29513	1.4878
H	992.856	0.173808	0.543822
H	995.183	0.0272036	-1.1303
C	995.486	1.62858	0.310192
H	995.103	1.93017	1.30848
H	996.588	1.51547	0.364525
H	995.255	2.44511	-0.408534
N	996.358	-1.25677	0.88261
C	996.724	-2.33455	1.77148
H	997.07	-0.851032	0.320081
H	997.81	-2.55986	1.68925
H	996.155	-3.25939	1.52328
H	996.501	-2.065	2.82913
