44
  This energy is 0 and Call times are: 160725
C	-1.58809	-1.94365	2.41099
C	-0.400123	-1.57776	1.60725
O	0.705853	-2.02928	1.87061
H	-1.28045	-2.62989	3.22972
H	-2.33777	-2.45795	1.77364
H	-2.04362	-1.03419	2.8565
N	-0.606624	-0.734657	0.592897
C	0.458133	-0.253467	-0.25168
C	0.0680027	1.11812	-0.769453
O	-1.06472	1.56079	-0.588622
H	-1.50538	-0.343656	0.416218
H	1.35638	-0.131163	0.340625
C	0.711872	-1.22362	-1.42627
H	-0.206335	-1.34125	-2.04035
H	1.53887	-0.871155	-2.07617
H	0.988015	-2.22273	-1.02396
N	1.00716	1.83019	-1.42288
C	0.728968	3.14731	-1.94632
H	1.91931	1.45683	-1.55577
H	1.62735	3.56853	-2.44901
H	0.428568	3.84013	-1.12716
H	-0.101839	3.10829	-2.68752
C	236.229	-0.80389	-1.02123
C	235.179	-0.694979	0.0172153
O	235.329	-1.19583	1.12319
H	237.081	-1.39476	-0.62138
H	236.593	0.205948	-1.30467
H	235.826	-1.31705	-1.91985
N	234.074	-0.0279011	-0.323448
C	232.949	0.124792	0.565076
C	231.695	0.258227	-0.278254
O	231.768	0.390821	-1.49843
H	233.95	0.338923	-1.24099
H	232.842	-0.771669	1.16297
C	233.126	1.36249	1.47172
H	233.226	2.28378	0.85906
H	232.273	1.48302	2.17009
H	234.054	1.24678	2.07368
N	230.507	0.217437	0.356817
C	229.261	0.330908	-0.363723
H	230.469	0.105426	1.34425
H	228.396	0.274301	0.334255
H	229.162	-0.490111	-1.11042
H	229.208	1.30121	-0.908646
