44
  This energy is -6.0884 and Call times are: 174399
C	2.22371	1.26085	2.36179
C	0.945457	1.31288	1.61714
O	0.0488292	2.07501	1.95124
H	2.18331	1.97684	3.21126
H	3.06647	1.541	1.69544
H	2.3926	0.238572	2.76117
N	0.831996	0.486783	0.574512
C	-0.367177	0.392604	-0.220267
C	-0.448575	-1.01147	-0.78905
O	0.4965	-1.79049	-0.68103
H	1.55483	-0.156857	0.339751
H	-1.23068	0.532635	0.418
C	-0.358959	1.43778	-1.35727
H	0.521032	1.28795	-2.01848
H	-1.28344	1.38461	-1.96803
H	-0.290884	2.4571	-0.918286
N	-1.59186	-1.37124	-1.40508
C	-1.76274	-2.6886	-1.97212
H	-2.34705	-0.728356	-1.47898
H	-2.7697	-2.79056	-2.4335
H	-1.6564	-3.47126	-1.18637
H	-0.996032	-2.88111	-2.75713
C	994.136	-3.05759	-1.57386
C	994.411	-1.61297	-1.40489
O	995.361	-1.08009	-1.96192
H	994.912	-3.50471	-2.23231
H	993.139	-3.20533	-2.0411
H	994.161	-3.5698	-0.588947
N	993.572	-0.937309	-0.616348
C	993.735	0.464516	-0.321727
C	993.137	0.733078	1.04634
O	992.484	-0.130622	1.62868
H	992.827	-1.39331	-0.137216
H	994.791	0.696646	-0.263222
C	993.047	1.3374	-1.39426
H	991.962	1.1071	-1.44734
H	993.178	2.41914	-1.18608
H	993.495	1.11852	-2.38811
N	993.355	1.94324	1.59759
C	992.83	2.28721	2.89832
H	993.889	2.62763	1.11279
H	993.117	3.32508	3.17664
H	993.223	1.59393	3.6767
H	991.718	2.21757	2.90415
