44
  This energy is 0 and Call times are: 161901
C	-1.49575	-1.29226	2.86452
C	-1.13453	-1.37704	1.43152
O	-1.27364	-2.41796	0.804182
H	-1.86299	-2.28306	3.20997
H	-2.29851	-0.539741	3.01297
H	-0.607211	-1.00834	3.467
N	-0.652145	-0.263884	0.874249
C	-0.21721	-0.203289	-0.498966
C	0.861206	0.858253	-0.607133
O	1.10608	1.60582	0.337799
H	-0.506354	0.564095	1.40816
H	0.232721	-1.14931	-0.773251
C	-1.39828	0.127064	-1.43768
H	-1.85355	1.10251	-1.16334
H	-1.0789	0.162886	-2.49939
H	-2.17865	-0.658459	-1.33608
N	1.54073	0.943263	-1.76775
C	2.58811	1.91894	-1.96073
H	1.33102	0.326881	-2.51953
H	3.02584	1.82974	-2.97939
H	3.403	1.77311	-1.21511
H	2.1899	2.9523	-1.83926
C	315.931	-2.69836	-1.92076
C	315.712	-1.67807	-0.870891
O	314.599	-1.48006	-0.402919
H	314.961	-3.17802	-2.1748
H	316.633	-3.47781	-1.55647
H	316.348	-2.22407	-2.83435
N	316.788	-0.995166	-0.473375
C	316.726	0.0584195	0.50876
C	317.847	1.03978	0.221774
O	318.713	0.780569	-0.61157
H	317.68	-1.13924	-0.892824
H	315.791	0.594569	0.398412
C	316.858	-0.511298	1.93819
H	317.821	-1.05243	2.05507
H	316.797	0.288696	2.70425
H	316.032	-1.23273	2.12336
N	317.851	2.20146	0.90477
C	318.874	3.19838	0.694447
H	317.139	2.39494	1.57208
H	318.704	4.08149	1.34883
H	318.876	3.54245	-0.365219
H	319.882	2.78156	0.923403
