44
  This energy is 0 and Call times are: 161005
C	-0.5578	3.37037	0.664957
C	-0.820671	1.93366	0.905611
O	-1.47389	1.56273	1.87108
H	-1.0196	3.96971	1.47946
H	-0.998281	3.68276	-0.305161
H	0.535824	3.56256	0.653108
N	-0.30624	1.07941	0.0179161
C	-0.440975	-0.350658	0.141612
C	0.757777	-0.998149	-0.525699
O	1.54653	-0.328717	-1.19011
H	0.257809	1.39396	-0.740225
H	-0.412947	-0.622807	1.18936
C	-1.75307	-0.839581	-0.510008
H	-1.77766	-0.569889	-1.58737
H	-1.87513	-1.93751	-0.409181
H	-2.61624	-0.346948	-0.0114102
N	0.92744	-2.32418	-0.355788
C	2.04225	-3.02567	-0.948482
H	0.280864	-2.84816	0.188694
H	2.00649	-4.10775	-0.693403
H	3.00826	-2.6105	-0.580063
H	2.02438	-2.92599	-2.05793
C	251.293	-3.02389	-0.232912
C	252.529	-2.23847	-0.0202032
O	253.551	-2.76667	0.39683
H	251.475	-4.08132	0.0579311
H	250.998	-2.99108	-1.30282
H	250.469	-2.61653	0.3901
N	252.461	-0.93596	-0.305246
C	253.57	-0.0348352	-0.10883
C	253.011	1.3489	0.165029
O	251.812	1.58206	0.0296631
H	251.611	-0.512683	-0.604964
H	254.125	-0.338121	0.769737
C	254.489	-0.0119695	-1.34976
H	253.922	0.309269	-2.24935
H	255.353	0.667808	-1.20551
H	254.879	-1.03617	-1.53597
N	253.874	2.30284	0.567619
C	253.433	3.64745	0.856801
H	254.84	2.09398	0.675333
H	254.289	4.28293	1.17271
H	252.677	3.64541	1.67556
H	252.966	4.10994	-0.0427475
