44
  This energy is 0 and Call times are: 169209
C	0.48124	3.2175	-1.23645
C	0.191988	2.27562	-0.131756
O	0.191441	2.64774	1.03355
H	0.693867	4.22393	-0.814829
H	-0.39352	3.29017	-1.91634
H	1.36759	2.87369	-1.81028
N	-0.062384	1.01223	-0.480349
C	-0.318872	-0.0276043	0.484802
C	0.13012	-1.34811	-0.112045
O	0.463031	-1.42461	-1.29316
H	-0.017974	0.715648	-1.43005
H	0.282662	0.148378	1.36788
C	-1.81791	-0.0814282	0.852543
H	-2.43468	-0.272445	-0.0514127
H	-2.02605	-0.869075	1.60541
H	-2.12634	0.897653	1.27988
N	0.15763	-2.4238	0.699229
C	0.57621	-3.72079	0.220921
H	-0.111497	-2.34124	1.65308
H	0.530242	-4.47469	1.03746
H	1.6224	-3.68008	-0.160005
H	-0.0808965	-4.06387	-0.610732
C	838.933	-0.231553	3.47199
C	838.753	-0.8145	2.12331
O	838.595	-2.01771	1.96978
H	838.914	-1.04513	4.22933
H	838.113	0.48396	3.69216
H	839.909	0.294394	3.53441
N	838.777	0.041349	1.09892
C	838.658	-0.381078	-0.274414
C	839.399	0.618769	-1.14244
O	839.826	1.66973	-0.66827
H	838.947	1.01281	1.23651
H	839.147	-1.3393	-0.396935
C	837.175	-0.472	-0.697587
H	836.676	0.513362	-0.582057
H	837.071	-0.809672	-1.749
H	836.651	-1.20318	-0.0440416
N	839.576	0.308138	-2.44169
C	840.274	1.19576	-3.34266
H	839.227	-0.548831	-2.80604
H	840.316	0.763129	-4.36651
H	841.317	1.3705	-2.99257
H	839.759	2.1821	-3.39962
