44
  This energy is 0 and Call times are: 160165
C	1.10425	2.7517	1.82249
C	1.24989	1.35496	1.35445
O	2.29044	0.735116	1.52607
H	2.05471	3.08155	2.29547
H	0.287246	2.82124	2.5711
H	0.87812	3.42082	0.96562
N	0.191427	0.821563	0.74002
C	0.196678	-0.511857	0.191819
C	-0.773241	-0.547704	-0.974168
O	-1.52026	0.402061	-1.20139
H	-0.634269	1.35229	0.57143
H	1.18139	-0.732797	-0.200816
C	-0.204961	-1.55006	1.26236
H	-1.21942	-1.32998	1.65793
H	-0.191252	-2.58222	0.856193
H	0.513673	-1.50059	2.1094
N	-0.77774	-1.64948	-1.75011
C	-1.66263	-1.77102	-2.88518
H	-0.16305	-2.40599	-1.55279
H	-1.5159	-2.7485	-3.39532
H	-1.46955	-0.958422	-3.62252
H	-2.7268	-1.69949	-2.56337
C	196.089	-1.50396	-0.553783
C	195.255	-0.375624	-0.0828854
O	195.739	0.542997	0.563742
H	197.136	-1.35569	-0.209195
H	196.079	-1.55041	-1.66306
H	195.707	-2.46112	-0.14049
N	193.959	-0.422679	-0.400801
C	193.014	0.580294	0.023061
C	191.65	-0.073456	0.137411
O	191.464	-1.2188	-0.269341
H	193.572	-1.19739	-0.892526
H	193.286	0.933259	1.00992
C	192.97	1.75472	-0.97893
H	192.68	1.39474	-1.98919
H	192.256	2.54016	-0.656528
H	193.98	2.21288	-1.0526
N	190.659	0.641985	0.705721
C	189.33	0.100349	0.862195
H	190.83	1.56568	1.03249
H	188.658	0.840624	1.35082
H	189.352	-0.820181	1.48942
H	188.895	-0.167075	-0.128161
