44
  This energy is -3.1898 and Call times are: 176533
C	-1.74369	1.81901	-2.40072
C	-0.905029	0.670085	-1.99113
O	-0.716544	-0.276011	-2.74331
H	-2.13677	1.64009	-3.4251
H	-1.14027	2.751	-2.40504
H	-2.59944	1.93619	-1.70282
N	-0.376312	0.727987	-0.766592
C	0.426121	-0.333403	-0.211512
C	0.263484	-0.310088	1.29665
O	-0.323942	0.616021	1.8525
H	-0.572251	1.48571	-0.150696
H	0.049726	-1.28641	-0.561845
C	1.91141	-0.162338	-0.598665
H	2.30096	0.810606	-0.230334
H	2.53757	-0.981127	-0.188752
H	2.00564	-0.174401	-1.70651
N	0.776791	-1.34071	1.99691
C	0.665525	-1.40708	3.43545
H	1.24509	-2.08288	1.529
H	1.14925	-2.32977	3.82515
H	-0.4042	-1.41392	3.74677
H	1.15719	-0.526507	3.90875
C	993.052	-2.06778	-2.55336
C	992.887	-0.922734	-1.62996
O	991.972	-0.1231	-1.77071
H	992.258	-2.03117	-3.32987
H	992.966	-3.02427	-1.99613
H	994.044	-2.01784	-3.05112
N	993.786	-0.816503	-0.649209
C	993.781	0.267892	0.300852
C	995.208	0.496864	0.764666
O	996.103	-0.289614	0.460982
H	994.549	-1.45194	-0.572112
H	993.453	1.17404	-0.193048
C	992.867	-0.0555054	1.50241
H	993.209	-0.979242	2.0158
H	992.843	0.777654	2.23442
H	991.83	-0.227106	1.13869
N	995.455	1.59229	1.50969
C	996.782	1.89523	1.99146
H	994.718	2.21912	1.7417
H	996.78	2.83642	2.58425
H	997.49	2.01873	1.14021
H	997.162	1.07295	2.64003
