44
  This energy is -3.2215 and Call times are: 181748
C	0.0841752	-3.47099	-0.240489
C	-0.225552	-2.22254	0.492037
O	-0.888841	-2.23959	1.51974
H	-0.385982	-4.33096	0.28418
H	1.18236	-3.63	-0.278496
H	-0.317401	-3.4177	-1.27441
N	0.254791	-1.09239	-0.0317899
C	0.00050079	0.204844	0.543611
C	0.0351239	1.23219	-0.572144
O	0.412364	0.923567	-1.70093
H	0.758338	-1.09018	-0.891035
H	-0.997022	0.219515	0.964757
C	1.04987	0.544109	1.6248
H	2.07249	0.539541	1.1909
H	0.8568	1.5347	2.08521
H	1.01217	-0.224968	2.42695
N	-0.368846	2.48458	-0.281705
C	-0.375543	3.52751	-1.28093
H	-0.674532	2.71413	0.636411
H	-0.740753	4.48473	-0.847842
H	-1.03972	3.25188	-2.13191
H	0.650115	3.69312	-1.6831
C	995.897	-2.83801	1.40177
C	994.735	-1.95562	1.15198
O	993.598	-2.31199	1.42985
H	995.542	-3.7993	1.83292
H	996.595	-2.35793	2.11969
H	996.431	-3.0461	0.450618
N	995	-0.76455	0.610186
C	993.97	0.184953	0.269629
C	994.467	1.02587	-0.891182
O	995.634	0.949761	-1.26967
H	995.926	-0.505052	0.351786
H	993.091	-0.348196	-0.0712151
C	993.624	1.08145	1.47881
H	994.523	1.63664	1.82226
H	992.823	1.80771	1.23329
H	993.271	0.444469	2.31874
N	993.583	1.84688	-1.49194
C	993.964	2.68082	-2.60805
H	992.642	1.89162	-1.17405
H	993.098	3.28257	-2.96271
H	994.329	2.05836	-3.45679
H	994.781	3.3797	-2.31579
