44
  This energy is 0.1299 and Call times are: 182899
C	-3.26095	1.13431	0.438402
C	-1.79685	1.35166	0.420735
O	-1.32361	2.47867	0.468682
H	-3.77776	2.11768	0.48053
H	-3.54869	0.538621	1.33009
H	-3.57964	0.599986	-0.481398
N	-1.03532	0.257518	0.347905
C	0.40376	0.310907	0.278906
C	0.886825	-0.913172	-0.475967
O	0.110441	-1.82151	-0.765559
H	-1.43599	-0.650765	0.268226
H	0.701954	1.18091	-0.292766
C	1.02267	0.354042	1.69324
H	0.72563	-0.543487	2.27654
H	2.12987	0.409303	1.65338
H	0.649166	1.25333	2.23001
N	2.18851	-0.961409	-0.821394
C	2.7372	-2.08399	-1.54592
H	2.80033	-0.214865	-0.581783
H	3.82319	-1.93654	-1.73592
H	2.22339	-2.20745	-2.52676
H	2.60719	-3.0269	-0.96699
C	997.231	2.58453	-0.0250571
C	996.762	1.25696	0.431888
O	997.502	0.50099	1.04584
H	998.295	2.71799	0.265604
H	996.626	3.38727	0.446833
H	997.148	2.66033	-1.12978
N	995.5	0.938869	0.13487
C	994.914	-0.334045	0.475059
C	993.838	-0.647784	-0.546665
O	993.482	0.196804	-1.36635
H	994.922	1.54794	-0.401097
H	995.669	-1.10668	0.396091
C	994.317	-0.303777	1.89904
H	993.536	0.481676	1.97762
H	993.876	-1.28245	2.17803
H	995.121	-0.0646175	2.62909
N	993.297	-1.88186	-0.526084
C	992.27	-2.27276	-1.46355
H	993.6	-2.55296	0.142084
H	991.955	-3.32454	-1.28562
H	992.642	-2.19076	-2.5105
H	991.375	-1.61658	-1.36275
