44
  This energy is 0 and Call times are: 157813
C	3.31301	-0.0973147	1.06169
C	2.23503	-0.472379	0.119129
O	2.48755	-1.0141	-0.948193
H	4.29685	-0.370399	0.621966
H	3.18634	-0.63842	2.02289
H	3.29428	0.997129	1.24859
N	0.987876	-0.184978	0.499122
C	-0.161669	-0.45024	-0.329577
C	-1.23631	0.564137	0.0135708
O	-1.1089	1.3143	0.979355
H	0.801267	0.293144	1.35261
H	0.104371	-0.299413	-1.36838
C	-0.682456	-1.88707	-0.107025
H	-0.96544	-2.03907	0.956391
H	-1.55915	-2.1082	-0.7497
H	0.122794	-2.61208	-0.356606
N	-2.32369	0.616005	-0.780735
C	-3.39516	1.55293	-0.535163
H	-2.40688	0.00365001	-1.55995
H	-4.19795	1.44075	-1.29685
H	-3.01785	2.60045	-0.575327
H	-3.84107	1.38498	0.471863
C	22.7738	1.01559	-2.47492
C	24.1032	1.04807	-1.82485
O	25.0598	1.58456	-2.36663
H	22.8371	1.5158	-3.46569
H	22.0287	1.55048	-1.84923
H	22.4458	-0.0349143	-2.62303
N	24.1934	0.461994	-0.628703
C	25.4302	0.375398	0.107177
C	25.378	-0.867717	0.975229
O	24.3364	-1.51022	1.09318
H	23.4159	-0.00628962	-0.21893
H	26.2512	0.249446	-0.587595
C	25.6444	1.63404	0.976188
H	24.8076	1.75787	1.69631
H	26.6001	1.58562	1.53718
H	25.6713	2.53208	0.321097
N	26.5117	-1.24192	1.60027
C	26.5589	-2.4143	2.44257
H	27.3457	-0.711531	1.48932
H	27.5782	-2.55408	2.86532
H	26.2925	-3.32661	1.8612
H	25.8385	-2.32064	3.28726
