44
  This energy is -3.4686 and Call times are: 187300
C	-0.539539	0.422258	-3.41223
C	0.304592	0.539758	-2.20194
O	1.49224	0.821284	-2.28344
H	0.0835969	0.607496	-4.31404
H	-1.35884	1.17096	-3.38155
H	-0.97347	-0.597738	-3.47859
N	-0.300918	0.320358	-1.0325
C	0.398365	0.356232	0.227767
C	-0.314566	-0.574164	1.19091
O	-1.39941	-1.07312	0.897897
H	-1.25881	0.0519372	-0.984994
H	1.40141	-0.0281771	0.0908084
C	0.441434	1.79242	0.794105
H	-0.587415	2.18335	0.944709
H	0.989341	1.83557	1.75767
H	0.960323	2.45727	0.069475
N	0.28742	-0.836897	2.36761
C	-0.313295	-1.71489	3.34456
H	1.16706	-0.426954	2.58499
H	0.33452	-1.80383	4.24437
H	-0.462629	-2.73331	2.91818
H	-1.30682	-1.32555	3.66466
C	995.78	3.07001	0.437766
C	995.814	1.60464	0.231143
O	996.856	1.02891	-0.0496566
H	996.798	3.48699	0.278739
H	995.454	3.30305	1.47318
H	995.081	3.54228	-0.284717
N	994.653	0.959308	0.365879
C	994.519	-0.460394	0.153331
C	993.102	-0.737945	-0.310724
O	992.248	0.146294	-0.289788
H	993.805	1.4472	0.554415
H	995.185	-0.766466	-0.643694
C	994.828	-1.24354	1.44811
H	994.138	-0.937484	2.26316
H	994.742	-2.33868	1.29375
H	995.868	-1.01913	1.77359
N	992.82	-1.97989	-0.751389
C	991.5	-2.33511	-1.21777
H	993.526	-2.68085	-0.764626
H	991.469	-3.39988	-1.53802
H	991.206	-1.69989	-2.08438
H	990.746	-2.1896	-0.410922
