44
  This energy is 0 and Call times are: 166269
C	2.21231	2.46978	-1.05762
C	1.77541	1.43971	-0.0884887
O	2.50983	1.07119	0.817736
H	3.25068	2.7847	-0.815774
H	1.54564	3.35583	-1.00093
H	2.19261	2.05799	-2.0887
N	0.54864	0.942842	-0.263218
C	0.000407464	-0.0958071	0.57297
C	-0.997963	-0.887941	-0.250034
O	-1.34034	-0.502771	-1.36634
H	-0.0218157	1.22324	-1.02991
H	0.791579	-0.776099	0.862595
C	-0.682177	0.504066	1.82176
H	-1.50084	1.19395	1.5253
H	-1.09624	-0.286446	2.48067
H	0.0649696	1.08584	2.40457
N	-1.4845	-2.02602	0.282962
C	-2.43493	-2.84819	-0.429008
H	-1.19239	-2.32344	1.18589
H	-2.7138	-3.73966	0.174922
H	-2.00441	-3.19972	-1.3946
H	-3.36197	-2.27259	-0.653556
C	626.414	-2.30279	-0.351747
C	627.249	-1.19266	-0.863165
O	627.201	-0.853702	-2.03757
H	625.814	-2.72592	-1.18659
H	625.724	-1.93159	0.434678
H	627.058	-3.10324	0.0697365
N	628.048	-0.594009	0.0231689
C	628.95	0.472679	-0.333989
C	630.131	0.431615	0.61691
O	630.123	-0.305601	1.60085
H	628.106	-0.908012	0.966513
H	629.333	0.297811	-1.33174
C	628.241	1.84281	-0.258238
H	627.858	2.02732	0.76782
H	628.921	2.67113	-0.544417
H	627.376	1.84733	-0.956093
N	631.186	1.22255	0.338104
C	632.357	1.24625	1.18302
H	631.177	1.80915	-0.464935
H	633.114	1.95861	0.78646
H	632.823	0.235402	1.2379
H	632.089	1.55948	2.21795
