44
  This energy is 0 and Call times are: 165737
C	-3.39757	-0.0138141	0.754339
C	-1.97322	-0.0381974	1.15656
O	-1.6427	0.11185	2.32474
H	-4.02914	0.170765	1.6504
H	-3.68544	-0.988031	0.30626
H	-3.57327	0.798081	0.0174223
N	-1.0838	-0.228997	0.17936
C	0.3395	-0.23436	0.40901
C	1.0253	0.232337	-0.861195
O	0.3889	0.379808	-1.90281
H	-1.36585	-0.30866	-0.772465
H	0.578649	0.480816	1.18616
C	0.829607	-1.64526	0.801957
H	0.593903	-2.37736	0.000393581
H	1.92189	-1.6595	0.994958
H	0.308829	-1.96962	1.72928
N	2.34762	0.485127	-0.801182
C	3.0838	0.938538	-1.95818
H	2.84454	0.36388	0.0517185
H	4.15659	1.09077	-1.70686
H	2.67131	1.90327	-2.3329
H	3.01911	0.191989	-2.78257
C	590.975	-3.07629	-1.62743
C	590.282	-1.91157	-1.03127
O	589.084	-1.73387	-1.19855
H	590.245	-3.67677	-2.21322
H	591.406	-3.71497	-0.828451
H	591.785	-2.73412	-2.30524
N	591.037	-1.07734	-0.311825
C	590.514	0.122006	0.294181
C	591.641	1.13318	0.389615
O	592.8	0.809799	0.138181
H	592.019	-1.21319	-0.218724
H	589.754	0.545949	-0.350173
C	589.933	-0.175121	1.69402
H	590.715	-0.600263	2.35864
H	589.515	0.737951	2.16536
H	589.116	-0.923127	1.60095
N	591.323	2.39213	0.749749
C	592.328	3.42339	0.861682
H	590.378	2.63567	0.945244
H	591.868	4.38872	1.16862
H	592.845	3.57567	-0.113503
H	593.095	3.14366	1.61918
