44
  This energy is -0.1708 and Call times are: 171422
C	-2.27363	2.36136	-1.1693
C	-1.93612	1.15942	-0.373949
O	-2.73332	0.682768	0.422092
H	-3.29434	2.70742	-0.896765
H	-2.25302	2.12127	-2.25313
H	-1.54947	3.17612	-0.957555
N	-0.724273	0.636294	-0.57428
C	-0.23672	-0.506928	0.156401
C	1.27473	-0.405841	0.239278
O	1.88526	0.445173	-0.404727
H	-0.0711836	1.05964	-1.19566
H	-0.61831	-0.472813	1.16925
C	-0.654251	-1.82301	-0.535588
H	-0.254158	-1.8632	-1.57113
H	-0.296591	-2.71089	0.0250044
H	-1.76364	-1.87186	-0.592379
N	1.91607	-1.27329	1.04689
C	3.35276	-1.24883	1.19355
H	1.40443	-1.9521	1.56313
H	3.68938	-2.03875	1.90062
H	3.69096	-0.261697	1.58402
H	3.85103	-1.42098	0.212113
C	992.041	0.782267	-3.25804
C	991.851	1.14143	-1.83471
O	992.297	2.18562	-1.38013
H	992.633	1.5774	-3.76146
H	991.058	0.691159	-3.7647
H	992.589	-0.179938	-3.33985
N	991.173	0.266835	-1.08751
C	990.945	0.457046	0.323233
C	990.822	-0.909322	0.970951
O	990.755	-1.92762	0.285193
H	990.851	-0.59794	-1.46222
H	991.806	0.945746	0.76182
C	989.667	1.28906	0.567943
H	988.782	0.782942	0.127338
H	989.488	1.45421	1.65013
H	989.776	2.28152	0.0785402
N	990.798	-0.963221	2.31726
C	990.689	-2.21946	3.02165
H	990.858	-0.128766	2.85504
H	990.687	-2.05459	4.12167
H	991.545	-2.88677	2.76936
H	989.747	-2.74563	2.74349
