44
  This energy is -1.4487 and Call times are: 180699
C	-1.41863	3.12465	-0.580254
C	-0.247211	2.22915	-0.449936
O	0.870766	2.5967	-0.783773
H	-1.09376	4.09281	-1.01957
H	-1.8675	3.31524	0.417212
H	-2.17938	2.66519	-1.24603
N	-0.482918	1.01192	0.0452097
C	0.548392	0.0150868	0.191081
C	-0.0971158	-1.35323	0.0788973
O	-1.32066	-1.47262	0.0586489
H	-1.40495	0.713076	0.274172
H	1.25269	0.107482	-0.626268
C	1.27097	0.16331	1.54797
H	0.550612	0.0580941	2.38705
H	2.07666	-0.589922	1.66644
H	1.7289	1.17456	1.61137
N	0.717137	-2.42368	-0.00563001
C	0.19319	-3.76473	-0.120735
H	1.70465	-2.30665	0.0082666
H	1.02011	-4.50644	-0.178083
H	-0.431687	-3.86493	-1.03767
H	-0.442404	-4.01527	0.759261
C	994.999	-1.84156	-2.94633
C	995.607	-0.781358	-2.11114
O	996.655	-0.241556	-2.4374
H	995.647	-2.0304	-3.82945
H	993.995	-1.52286	-3.29874
H	994.904	-2.7814	-2.36254
N	994.951	-0.456683	-0.994328
C	995.44	0.525595	-0.0592564
C	994.923	0.163791	1.32045
O	994.086	-0.724258	1.46627
H	994.12	-0.933623	-0.721375
H	996.521	0.476002	-0.0219941
C	994.977	1.94425	-0.456321
H	993.867	1.99848	-0.484428
H	995.358	2.71123	0.248272
H	995.359	2.18459	-1.47219
N	995.421	0.843001	2.37255
C	994.993	0.564047	3.72345
H	996.101	1.55533	2.23492
H	995.517	1.22669	4.44692
H	995.213	-0.494019	3.99457
H	993.896	0.726972	3.82957
