44
  This energy is -4.2001 and Call times are: 181451
C	1.86065	-1.53469	-2.50906
C	1.44856	-0.34064	-1.73733
O	2.04832	0.720147	-1.84422
H	2.75157	-1.28438	-3.12509
H	1.03841	-1.85847	-3.18123
H	2.12239	-2.36459	-1.81925
N	0.398232	-0.491138	-0.927056
C	-0.0932956	0.567645	-0.0809254
C	-0.740506	-0.0627262	1.13781
O	-0.925341	-1.2769	1.1956
H	-0.0542314	-1.37188	-0.82008
H	0.741475	1.16238	0.268468
C	-1.10911	1.45164	-0.837173
H	-1.97082	0.843919	-1.18669
H	-1.48453	2.27891	-0.200613
H	-0.616166	1.8961	-1.72926
N	-1.09432	0.753196	2.15028
C	-1.71138	0.242568	3.35223
H	-0.932927	1.73248	2.08679
H	-1.92666	1.06869	4.06525
H	-1.04103	-0.490296	3.85703
H	-2.66946	-0.273403	3.11349
C	993.23	-0.377026	-3.27362
C	993.509	-0.912017	-1.92188
O	993.105	-2.01541	-1.58202
H	992.621	-1.11345	-3.84166
H	994.181	-0.200257	-3.81887
H	992.665	0.575618	-3.19895
N	994.217	-0.126303	-1.10705
C	994.53	-0.491347	0.251985
C	994.672	0.782726	1.06338
O	994.684	1.88196	0.512717
H	994.504	0.786237	-1.38407
H	993.704	-1.05091	0.671401
C	995.832	-1.32007	0.314294
H	996.683	-0.742453	-0.106229
H	996.077	-1.61908	1.35409
H	995.709	-2.24348	-0.292692
N	994.774	0.663566	2.40181
C	994.906	1.82086	3.25582
H	994.758	-0.234205	2.8294
H	994.976	1.51601	4.32327
H	994.028	2.4964	3.14084
H	995.822	2.39869	2.99552
