44
  This energy is 0 and Call times are: 170581
C	0.0655291	-2.3737	-2.5444
C	0.157034	-1.98962	-1.11777
O	0.156977	-2.83483	-0.233444
H	-0.0143111	-3.47977	-2.62259
H	0.973103	-2.03946	-3.08968
H	-0.833524	-1.91489	-3.00732
N	0.236152	-0.682264	-0.859062
C	0.287386	-0.153139	0.481073
C	-0.324682	1.23491	0.465261
O	-0.607893	1.78626	-0.596585
H	0.19378	-0.0043674	-1.58743
H	-0.322979	-0.76743	1.13125
C	1.74201	-0.0976523	0.997061
H	2.36618	0.54096	0.336295
H	1.79345	0.295102	2.03322
H	2.17238	-1.12289	0.992509
N	-0.551853	1.83166	1.65198
C	-1.13609	3.14994	1.7356
H	-0.319759	1.36793	2.50061
H	-1.24283	3.4662	2.79664
H	-2.14481	3.16323	1.26276
H	-0.498312	3.89661	1.20943
C	934.032	1.57105	-0.914504
C	934.826	0.3582	-0.613853
O	934.288	-0.731556	-0.473888
H	932.954	1.30275	-0.960148
H	934.339	1.9959	-1.89348
H	934.18	2.3318	-0.119173
N	936.146	0.524842	-0.504038
C	937.044	-0.553004	-0.172408
C	938.245	0.0355481	0.543578
O	938.407	1.25275	0.605431
H	936.565	1.42524	-0.580109
H	936.554	-1.2263	0.519744
C	937.489	-1.31115	-1.44236
H	938.001	-0.623057	-2.14818
H	938.17	-2.15223	-1.19888
H	936.593	-1.7264	-1.95427
N	939.116	-0.821448	1.11205
C	940.285	-0.353003	1.81928
H	938.966	-1.80287	1.05491
H	940.875	-1.2092	2.21433
H	939.992	0.295713	2.67632
H	940.94	0.242823	1.14374
