44
  This energy is 0 and Call times are: 161985
C	-1.00425	-2.5273	-2.17185
C	-0.553112	-1.14345	-1.90243
O	-0.213092	-0.40005	-2.81246
H	-0.951887	-2.72449	-3.26467
H	-2.05291	-2.66088	-1.83241
H	-0.349845	-3.25273	-1.64403
N	-0.538102	-0.762661	-0.622923
C	-0.0833725	0.538713	-0.200778
C	0.467418	0.413501	1.20724
O	0.324784	-0.625358	1.84922
H	-0.778748	-1.39246	0.11009
H	0.7317	0.856655	-0.8389
C	-1.23587	1.56598	-0.242008
H	-2.06791	1.24555	0.420618
H	-0.895125	2.57521	0.0676311
H	-1.62873	1.63533	-1.27989
N	1.12153	1.47455	1.71943
C	1.68459	1.44555	3.0492
H	1.23036	2.30498	1.18313
H	2.18176	2.41175	3.28691
H	2.44001	0.631487	3.13821
H	0.890004	1.26371	3.80861
C	321.229	2.50149	-1.64919
C	321.888	1.17611	-1.6162
O	321.742	0.374336	-2.52862
H	320.624	2.58792	-2.57766
H	321.992	3.30808	-1.64116
H	320.559	2.61792	-0.771328
N	322.637	0.912339	-0.543351
C	323.305	-0.350419	-0.348713
C	323.436	-0.591451	1.14342
O	323.156	0.292545	1.95096
H	322.713	1.55908	0.210231
H	322.69	-1.1456	-0.75137
C	324.696	-0.348256	-1.02045
H	325.331	0.460676	-0.600248
H	325.214	-1.32002	-0.889487
H	324.577	-0.162265	-2.11021
N	323.858	-1.806	1.546
C	324.008	-2.12872	2.94591
H	324.076	-2.50973	0.877739
H	324.365	-3.17441	3.0725
H	323.035	-2.02385	3.47902
H	324.742	-1.44574	3.43057
