44
  This energy is -1.314 and Call times are: 175872
C	0.991675	1.07751	3.15725
C	0.977928	0.0769036	2.0665
O	1.73454	-0.884226	2.07964
H	1.77156	0.800874	3.89963
H	0.00483132	1.10329	3.6654
H	1.22401	2.08419	2.75018
N	0.102894	0.286221	1.08015
C	0.00204866	-0.576635	-0.0704429
C	-0.494779	0.251406	-1.24051
O	-0.891718	1.40305	-1.07354
H	-0.477912	1.09507	1.06299
H	0.987575	-0.94282	-0.329822
C	-0.957977	-1.75448	0.205717
H	-1.97189	-1.37956	0.461563
H	-1.03342	-2.43379	-0.667994
H	-0.579086	-2.34176	1.07053
N	-0.476043	-0.317674	-2.46192
C	-0.924494	0.395566	-3.6351
H	-0.147454	-1.24918	-2.57766
H	-0.830895	-0.241298	-4.54222
H	-0.318243	1.31738	-3.78999
H	-1.99129	0.698024	-3.52734
C	994.407	0.545188	-3.39422
C	995.086	0.856855	-2.11657
O	996.059	1.5986	-2.08108
H	994.932	1.06362	-4.22556
H	993.353	0.893578	-3.36222
H	994.429	-0.548998	-3.58225
N	994.582	0.284798	-1.021
C	995.16	0.458571	0.28799
C	994.854	-0.780177	1.10864
O	994.078	-1.63687	0.690288
H	993.815	-0.349037	-1.0713
H	996.237	0.52691	0.19629
C	994.595	1.71888	0.978453
H	993.491	1.6446	1.08227
H	995.043	1.87135	1.98166
H	994.823	2.61187	0.356629
N	995.469	-0.90769	2.30117
C	995.244	-2.05527	3.14878
H	996.097	-0.205932	2.6208
H	995.839	-1.97572	4.08494
H	995.537	-2.99391	2.62535
H	994.167	-2.13559	3.42353
