44
  This energy is 0.1068 and Call times are: 186080
C	1.54974	1.06294	-2.92936
C	0.340886	0.774027	-2.12541
O	-0.768276	1.12838	-2.50038
H	1.25817	1.62914	-3.84056
H	2.04044	0.115545	-3.23662
H	2.26443	1.67475	-2.33946
N	0.533116	0.11425	-0.980802
C	-0.540313	-0.201066	-0.0714705
C	0.0333321	-0.27133	1.33122
O	1.2482	-0.236795	1.51727
H	1.44654	-0.131518	-0.669145
H	-1.26613	0.602477	-0.0832629
C	-1.20908	-1.54054	-0.450704
H	-0.467131	-2.36701	-0.428497
H	-2.04627	-1.78763	0.233822
H	-1.61459	-1.46881	-1.48355
N	-0.834714	-0.363766	2.35786
C	-0.38118	-0.430351	3.72755
H	-1.8143	-0.386227	2.18762
H	-1.24487	-0.502432	4.42473
H	0.207091	0.47835	3.99113
H	0.270402	-1.32053	3.883
C	994.321	2.86299	0.032875
C	994.506	1.40435	0.204484
O	993.635	0.711663	0.713095
H	993.331	3.15863	0.442647
H	994.359	3.12933	-1.04436
H	995.115	3.41589	0.577785
N	995.666	0.898678	-0.221829
C	996.008	-0.495033	-0.0835849
C	997.517	-0.603611	0.0186982
O	998.234	0.374296	-0.184715
H	996.381	1.48167	-0.596311
H	995.594	-0.874367	0.842273
C	995.486	-1.31293	-1.28538
H	995.919	-0.930881	-2.23447
H	995.731	-2.39005	-1.18394
H	994.38	-1.2125	-1.34552
N	998.037	-1.80275	0.347112
C	999.463	-1.99984	0.473123
H	997.441	-2.58129	0.511924
H	999.691	-3.05274	0.749587
H	999.883	-1.33187	1.2592
H	999.978	-1.76969	-0.487538
