44
  This energy is 0.1225 and Call times are: 173212
C	2.88464	-1.94709	0.0199934
C	2.1187	-0.748222	0.428893
O	2.53248	-0.000987563	1.30459
H	3.80905	-2.01917	0.633296
H	3.16865	-1.87295	-1.05079
H	2.2761	-2.86236	0.178283
N	0.963585	-0.536847	-0.20625
C	0.0876906	0.563347	0.111464
C	-1.33356	0.146484	-0.216916
O	-1.55912	-0.899812	-0.821978
H	0.620312	-1.17638	-0.888182
H	0.129208	0.757081	1.17607
C	0.478822	1.8276	-0.68472
H	0.426198	1.63248	-1.77705
H	-0.179648	2.68569	-0.438506
H	1.52492	2.10968	-0.434802
N	-2.33179	0.95763	0.185073
C	-3.71609	0.640127	-0.0778011
H	-2.12965	1.79797	0.677054
H	-4.38505	1.42894	0.331457
H	-3.99215	-0.331786	0.391718
H	-3.89938	0.55854	-1.17365
C	992.458	1.65343	-0.850593
C	993.929	1.49617	-0.910649
O	994.602	2.13821	-1.70488
H	992.136	2.3903	-1.61809
H	992.153	2.02166	0.151501
H	991.961	0.681717	-1.05419
N	994.467	0.62107	-0.0582747
C	995.879	0.328211	-0.0275797
C	996.056	-1.09517	0.466584
O	995.102	-1.72937	0.914806
H	993.902	0.0759444	0.554069
H	996.274	0.371643	-1.03458
C	996.627	1.31769	0.891838
H	996.229	1.26594	1.92744
H	997.717	1.11122	0.913036
H	996.477	2.35332	0.515935
N	997.287	-1.63579	0.387606
C	997.55	-2.98583	0.828704
H	998.045	-1.10835	0.018139
H	998.622	-3.2461	0.681779
H	996.931	-3.71369	0.255912
H	997.306	-3.10062	1.90967
