44
  This energy is 0 and Call times are: 160809
C	0.255988	-2.31204	2.58875
C	-0.499035	-1.65508	1.49812
O	-1.56794	-2.10442	1.10831
H	-0.295761	-3.21703	2.92408
H	0.366364	-1.61906	3.44918
H	1.2612	-2.6169	2.22862
N	0.0517239	-0.5587	0.971812
C	-0.543026	0.164776	-0.124278
C	0.569486	0.838081	-0.905645
O	1.72149	0.851963	-0.476228
H	0.942112	-0.228512	1.2719
H	-1.02868	-0.535238	-0.792671
C	-1.55414	1.21265	0.390362
H	-1.05415	1.9373	1.0678
H	-2.02921	1.76689	-0.444892
H	-2.35471	0.698476	0.965748
N	0.249409	1.4085	-2.08386
C	1.24289	2.06755	-2.89924
H	-0.687457	1.38343	-2.41662
H	0.783903	2.47196	-3.82823
H	2.04935	1.35521	-3.18816
H	1.7109	2.91172	-2.34293
C	235.695	-0.380304	-1.02236
C	236.713	0.0148547	-0.0226474
O	236.404	0.642181	0.981077
H	234.699	-0.00360649	-0.701685
H	235.651	-1.48651	-1.10658
H	235.942	0.0560143	-2.0131
N	237.971	-0.348351	-0.28132
C	239.076	0.000712817	0.575871
C	240.327	0.0905067	-0.278071
O	240.317	-0.277402	-1.4512
H	238.213	-0.823099	-1.12273
H	238.904	0.982257	0.99946
C	239.259	-1.04768	1.69513
H	239.447	-2.05294	1.26116
H	240.099	-0.782881	2.37017
H	238.329	-1.10215	2.30227
N	241.439	0.593449	0.292949
C	242.675	0.722159	-0.443549
H	241.427	0.889664	1.24226
H	243.473	1.15628	0.199049
H	242.538	1.38552	-1.32809
H	243.021	-0.272201	-0.808054
