44
  This energy is 0 and Call times are: 158933
C	1.07996	2.04059	2.6043
C	1.34273	1.12916	1.4679
O	2.47037	0.992265	1.01393
H	2.02933	2.53359	2.90684
H	0.680333	1.46943	3.46848
H	0.348334	2.82139	2.30737
N	0.287769	0.476652	0.974285
C	0.378558	-0.411414	-0.157818
C	-0.960675	-0.407581	-0.870556
O	-1.93835	0.1459	-0.371041
H	-0.630593	0.62959	1.32796
H	1.11526	-0.0292731	-0.853427
C	0.748749	-1.84192	0.29145
H	-0.0122593	-2.23843	0.996918
H	0.835294	-2.53218	-0.572599
H	1.7281	-1.8195	0.817487
N	-1.03379	-1.02259	-2.06741
C	-2.26499	-1.06521	-2.82139
H	-0.230885	-1.46134	-2.45717
H	-2.12167	-1.6149	-3.7777
H	-2.61614	-0.0348335	-3.05865
H	-3.06501	-1.57704	-2.23903
C	103.734	3.15497	-0.746234
C	104.067	2.07769	0.212905
O	104.033	2.27212	1.42014
H	103.492	4.08386	-0.185663
H	102.854	2.86442	-1.35802
H	104.599	3.3535	-1.41381
N	104.404	0.898009	-0.313254
C	104.795	-0.232776	0.49125
C	105.742	-1.09085	-0.326901
O	105.923	-0.865218	-1.5219
H	104.468	0.766818	-1.29847
H	105.344	0.117157	1.3569
C	103.561	-1.0525	0.927139
H	103.004	-1.42061	0.0393765
H	103.847	-1.91819	1.55878
H	102.879	-0.402663	1.51744
N	106.378	-2.09698	0.304817
C	107.301	-2.96252	-0.391101
H	106.221	-2.26135	1.27312
H	107.721	-3.72668	0.299767
H	108.146	-2.37414	-0.817409
H	106.79	-3.48986	-1.22896
