44
  This energy is 0 and Call times are: 165429
C	0.188202	3.46715	0.236969
C	0.303527	2.11269	0.822866
O	0.811785	1.93965	1.92202
H	0.635595	4.20832	0.934385
H	-0.879684	3.72463	0.0755291
H	0.729664	3.51256	-0.731457
N	-0.17247	1.10539	0.0872315
C	-0.0926152	-0.272237	0.504761
C	-0.0364641	-1.14061	-0.737953
O	-0.225574	-0.657724	-1.85275
H	-0.546227	1.25752	-0.823278
H	0.830654	-0.427658	1.04887
C	-1.30718	-0.655183	1.3785
H	-2.25409	-0.50592	0.817131
H	-1.25033	-1.70977	1.71781
H	-1.33283	-0.00188652	2.27788
N	0.235188	-2.4503	-0.573834
C	0.314319	-3.35263	-1.69887
H	0.389335	-2.82174	0.33575
H	0.54733	-4.38572	-1.35878
H	1.11117	-3.02866	-2.40693
H	-0.651752	-3.37531	-2.25325
C	571.787	1.1018	-1.77016
C	570.892	1.14189	-0.591733
O	571.203	1.75688	0.418861
H	572.712	1.67635	-1.54825
H	571.283	1.55696	-2.64878
H	572.063	0.0523033	-2.00533
N	569.741	0.473005	-0.697284
C	568.788	0.384185	0.380596
C	568.028	-0.920992	0.234072
O	568.155	-1.61374	-0.773744
H	569.52	-0.0566969	-1.51119
H	569.318	0.344786	1.32402
C	567.814	1.58279	0.356137
H	567.262	1.61752	-0.607392
H	567.084	1.53315	1.18955
H	568.392	2.52728	0.456746
N	567.222	-1.29249	1.2479
C	566.464	-2.5211	1.19969
H	567.136	-0.720702	2.05701
H	565.863	-2.64883	2.12666
H	567.144	-3.39816	1.09925
H	565.77	-2.52075	0.328378
