44
  This energy is 0 and Call times are: 160977
C	-2.79726	-2.06998	-0.0563981
C	-1.51604	-1.59474	-0.625387
O	-0.959583	-2.20431	-1.52827
H	-3.0976	-3.01223	-0.564185
H	-3.59076	-1.30915	-0.212078
H	-2.68335	-2.26795	1.03031
N	-1.01101	-0.476892	-0.0983815
C	0.248921	0.0843597	-0.518069
C	0.845538	0.837788	0.655792
O	0.19123	1.03012	1.67883
H	-1.45483	-0.014509	0.663912
H	0.932128	-0.718008	-0.767202
C	0.0576995	1.0275	-1.72602
H	-0.634884	1.85673	-1.46766
H	1.02259	1.45528	-2.06736
H	-0.387266	0.456931	-2.5703
N	2.11399	1.2771	0.537231
C	2.76689	1.99871	1.60456
H	2.62874	1.10823	-0.29679
H	3.80523	2.27369	1.31566
H	2.81299	1.37721	2.52807
H	2.21041	2.93343	1.84491
C	249.022	-0.851409	2.73415
C	249.67	-1.17506	1.4431
O	249.713	-2.32469	1.02732
H	248.643	-1.78707	3.19954
H	248.169	-0.159566	2.5715
H	249.755	-0.379215	3.42213
N	250.198	-0.149835	0.770891
C	250.899	-0.313359	-0.478593
C	251.922	0.800559	-0.59657
O	251.932	1.73348	0.204218
H	250.191	0.77443	1.14175
H	251.442	-1.25002	-0.463687
C	249.917	-0.275453	-1.67037
H	249.367	0.689515	-1.69224
H	250.443	-0.41418	-2.63734
H	249.173	-1.09404	-1.55904
N	252.817	0.723393	-1.60076
C	253.832	1.73442	-1.78848
H	252.796	-0.0413046	-2.23625
H	254.471	1.4923	-2.66622
H	254.485	1.80719	-0.888921
H	253.366	2.73196	-1.9583
