44
  This energy is -3.1544 and Call times are: 171756
C	1.76969	2.8273	-0.993601
C	1.59343	1.63583	-0.1331
O	2.49509	1.24034	0.592856
H	2.7987	3.22676	-0.861545
H	1.03956	3.61467	-0.711274
H	1.6244	2.55402	-2.06005
N	0.407336	1.02654	-0.198835
C	0.101223	-0.169006	0.546502
C	-0.936182	-0.957876	-0.230047
O	-1.48787	-0.472933	-1.21604
H	-0.302521	1.33617	-0.825012
H	0.989563	-0.784452	0.61514
C	-0.426519	0.179278	1.95555
H	-1.34387	0.801861	1.88563
H	-0.65276	-0.733208	2.54437
H	0.34559	0.763093	2.50269
N	-1.22077	-2.20459	0.195079
C	-2.19044	-3.03194	-0.484199
H	-0.76096	-2.58117	0.992475
H	-2.28306	-4.02091	0.0163695
H	-1.88862	-3.20199	-1.5431
H	-3.19191	-2.54388	-0.484797
C	994.518	3.09678	1.58687
C	995.062	1.7403	1.35262
O	996.155	1.41231	1.79239
H	995.253	3.69171	2.17107
H	993.569	3.03469	2.16028
H	994.331	3.60681	0.618278
N	994.298	0.909227	0.639862
C	994.711	-0.427958	0.293613
C	994.035	-0.809018	-1.01017
O	993.16	-0.0961494	-1.49787
H	993.428	1.20395	0.253887
H	995.779	-0.437593	0.118033
C	994.337	-1.42748	1.40986
H	993.239	-1.42566	1.5831
H	994.662	-2.45849	1.16126
H	994.836	-1.12462	2.35621
N	994.435	-1.94641	-1.61239
C	993.853	-2.38651	-2.85886
H	995.147	-2.50789	-1.2045
H	994.314	-3.34202	-3.19262
H	994.01	-1.62436	-3.65627
H	992.756	-2.54714	-2.74554
