44
  This energy is 0.1118 and Call times are: 178337
C	-3.23259	-0.0907099	-1.2864
C	-2.25425	0.300319	-0.24664
O	-2.55391	1.08758	0.640399
H	-4.18951	0.447336	-1.11123
H	-3.42166	-1.18389	-1.24221
H	-2.84867	0.177411	-2.29328
N	-1.04101	-0.249518	-0.336583
C	0.0291495	0.0664487	0.576376
C	1.34507	-0.114903	-0.156444
O	1.37857	-0.628929	-1.27285
H	-0.799631	-0.85704	-1.08793
H	-0.0404153	1.10886	0.86127
C	-0.024851	-0.840978	1.82494
H	0.0570822	-1.90996	1.53407
H	0.78588	-0.598163	2.54207
H	-0.999331	-0.697694	2.34089
N	2.46616	0.314046	0.456084
C	3.76323	0.188224	-0.16678
H	2.41841	0.73114	1.35765
H	4.55829	0.598602	0.494048
H	3.79028	0.742023	-1.13314
H	3.99725	-0.880913	-0.374913
C	991.984	-0.728161	0.956386
C	993.002	-0.415843	-0.0719328
O	992.753	-0.529034	-1.2642
H	991.051	-1.06993	0.457748
H	991.758	0.176711	1.55903
H	992.35	-1.53544	1.62495
N	994.193	-0.010962	0.375603
C	995.296	0.287938	-0.502407
C	996.586	0.0166178	0.249524
O	996.573	-0.229445	1.45409
H	994.393	0.0369608	1.34991
H	995.27	-0.384435	-1.35085
C	995.244	1.75758	-0.974234
H	995.281	2.44798	-0.104762
H	996.081	1.99633	-1.66197
H	994.288	1.93544	-1.51484
N	997.737	0.0472722	-0.451121
C	999.012	-0.203952	0.178627
H	997.727	0.244133	-1.42591
H	999.837	-0.13377	-0.563426
H	999.033	-1.2219	0.630981
H	999.203	0.537419	0.98782
