44
  This energy is 0 and Call times are: 165541
C	3.39304	0.720655	0.28394
C	2.08947	0.837012	-0.407664
O	1.92081	1.64759	-1.30817
H	4.10086	1.46654	-0.138594
H	3.81383	-0.296507	0.138801
H	3.26913	0.917727	1.36971
N	1.12202	0.0160377	0.00756011
C	-0.211677	0.0411962	-0.539416
C	-1.17296	-0.428419	0.536204
O	-0.755143	-0.903709	1.59036
H	1.26238	-0.610009	0.76929
H	-0.477334	1.06154	-0.786308
C	-0.312999	-0.862072	-1.78805
H	-0.0507641	-1.91099	-1.53301
H	-1.33167	-0.840392	-2.22664
H	0.404567	-0.504826	-2.55865
N	-2.49249	-0.297248	0.296113
C	-3.48168	-0.711578	1.26359
H	-2.81121	0.0934475	-0.561119
H	-4.50897	-0.521916	0.881583
H	-3.35447	-0.153113	2.21921
H	-3.38455	-1.79932	1.48386
C	576.673	-1.9635	2.85495
C	576.679	-1.79237	1.38463
O	576.683	-2.75894	0.63487
H	576.691	-3.04802	3.09855
H	575.756	-1.51255	3.28903
H	577.569	-1.48058	3.29999
N	576.682	-0.535872	0.933417
C	576.731	-0.210338	-0.470217
C	577.413	1.13658	-0.619876
O	577.667	1.82691	0.365381
H	576.721	0.240362	1.5562
H	577.343	-0.940576	-0.985159
C	575.312	-0.168848	-1.07675
H	574.687	0.587598	-0.555744
H	575.337	0.0672102	-2.16034
H	574.829	-1.16222	-0.948863
N	577.735	1.53959	-1.86488
C	578.391	2.80399	-2.10423
H	577.525	0.965323	-2.64928
H	578.571	2.95388	-3.19155
H	579.372	2.84348	-1.57761
H	577.766	3.64776	-1.73273
