44
  This energy is 0.109 and Call times are: 174842
C	3.20503	0.290767	-1.32511
C	2.21538	0.513523	-0.247094
O	2.56203	0.900703	0.860307
H	4.22413	0.511091	-0.939399
H	2.99299	0.961751	-2.18392
H	3.16992	-0.765977	-1.66445
N	0.939357	0.267092	-0.552729
C	-0.131707	0.39649	0.403637
C	-1.23247	-0.572439	0.0149717
O	-1.1916	-1.17546	-1.05574
H	0.67743	-0.0867861	-1.44605
H	0.226	0.102502	1.38254
C	-0.670575	1.84349	0.436028
H	-1.04736	2.14193	-0.565476
H	-1.48647	1.95929	1.17861
H	0.153584	2.53588	0.714799
N	-2.24463	-0.751189	0.886527
C	-3.33354	-1.65734	0.604858
H	-2.25807	-0.257372	1.74968
H	-4.06518	-1.66538	1.44263
H	-2.95393	-2.69489	0.461106
H	-3.86756	-1.35327	-0.32439
C	999.487	-0.662847	1.97647
C	998.825	-0.530466	0.65891
O	999.475	-0.521676	-0.377571
H	1000.59	-0.725806	1.83032
H	999.139	-1.58458	2.48847
H	999.258	0.220196	2.60981
N	997.495	-0.420421	0.671284
C	996.715	-0.241782	-0.528008
C	995.457	0.524772	-0.164469
O	995.167	0.737998	1.0112
H	996.984	-0.388046	1.52529
H	997.272	0.366757	-1.22923
C	996.355	-1.6042	-1.16008
H	995.774	-2.22476	-0.44482
H	995.766	-1.47968	-2.09189
H	997.29	-2.15101	-1.41068
N	994.681	0.966733	-1.17332
C	993.468	1.70986	-0.923775
H	994.934	0.787897	-2.11828
H	992.971	1.98417	-1.88034
H	993.689	2.64658	-0.362746
H	992.754	1.10547	-0.318373
