44
  This energy is -4.1485 and Call times are: 181480
C	2.52001	-1.10467	-2.13119
C	1.2035	-1.26872	-1.47465
O	0.424578	-2.14329	-1.82796
H	2.62292	-1.85889	-2.94139
H	3.33662	-1.25526	-1.39416
H	2.60353	-0.0892315	-2.57278
N	0.921469	-0.414001	-0.488608
C	-0.33666	-0.421593	0.215391
C	-0.615822	0.988539	0.700313
O	0.242209	1.86508	0.615619
H	1.54874	0.318464	-0.239818
H	-1.12922	-0.689033	-0.472327
C	-0.29714	-1.40547	1.40521
H	0.508958	-1.12536	2.11639
H	-1.26477	-1.43071	1.94704
H	-0.0836312	-2.42936	1.02782
N	-1.83476	1.24269	1.21571
C	-2.19283	2.55643	1.69743
H	-2.5172	0.521467	1.27213
H	-3.23647	2.56327	2.08214
H	-2.11584	3.30912	0.879628
H	-1.51297	2.87158	2.52181
C	993.62	-2.41049	2.43008
C	993.167	-1.38462	1.46382
O	991.984	-1.26494	1.1755
H	992.743	-2.99646	2.78158
H	994.102	-1.92584	3.30481
H	994.342	-3.10055	1.94514
N	994.116	-0.610396	0.932013
C	993.835	0.402764	-0.0544738
C	995.067	0.572083	-0.922762
O	996.127	0.0246971	-0.62529
H	995.079	-0.746921	1.14563
H	993.032	0.0630751	-0.69679
C	993.46	1.74053	0.619998
H	994.287	2.09477	1.27087
H	993.228	2.52504	-0.129142
H	992.56	1.59113	1.25641
N	994.953	1.33323	-2.02893
C	996.071	1.54676	-2.91828
H	994.086	1.76462	-2.25517
H	995.777	2.19981	-3.76943
H	996.436	0.577939	-3.3297
H	996.916	2.03287	-2.37834
