44
  This energy is -2.7147 and Call times are: 180414
C	0.185442	2.58308	-2.32508
C	0.636933	1.28092	-1.785
O	1.39306	0.559719	-2.42105
H	0.623662	2.73339	-3.33565
H	0.51926	3.40881	-1.66217
H	-0.92182	2.60004	-2.4074
N	0.172824	0.945611	-0.578957
C	0.488857	-0.308346	0.0584397
C	-0.663557	-0.677482	0.973445
O	-1.57035	0.121886	1.19804
H	-0.474377	1.52452	-0.0912443
H	0.563737	-1.08295	-0.694565
C	1.80468	-0.203466	0.860212
H	1.72474	0.58386	1.6398
H	2.06615	-1.16663	1.34444
H	2.63247	0.0753124	0.172167
N	-0.658599	-1.90955	1.51935
C	-1.71636	-2.3512	2.39815
H	0.0817083	-2.54379	1.32249
H	-1.53207	-3.39252	2.74299
H	-2.69923	-2.32429	1.8742
H	-1.78435	-1.69194	3.29364
C	992.325	2.90506	1.01604
C	993.002	2.08195	-0.0109367
O	992.977	2.39713	-1.19264
H	991.826	3.76839	0.524419
H	993.065	3.28778	1.74942
H	991.558	2.30117	1.54593
N	993.632	0.988482	0.425381
C	994.299	0.0663798	-0.459317
C	994.266	-1.30949	0.179009
O	993.88	-1.45749	1.33679
H	993.609	0.723136	1.38503
H	993.75	0.00332609	-1.39031
C	995.756	0.507868	-0.719185
H	996.323	0.562523	0.234518
H	996.277	-0.186608	-1.41007
H	995.757	1.52023	-1.17903
N	994.666	-2.35603	-0.56998
C	994.664	-3.70314	-0.0489578
H	994.972	-2.21686	-1.50614
H	995.026	-4.42223	-0.81636
H	993.635	-4.00454	0.256009
H	995.325	-3.78031	0.844124
