44
  This energy is 0 and Call times are: 163889
C	3.14806	-1.47532	-0.160697
C	1.77597	-1.27248	-0.677779
O	1.44622	-1.6909	-1.77896
H	3.75115	-2.01645	-0.921847
H	3.12061	-2.07836	0.771151
H	3.62736	-0.495485	0.0473278
N	0.932963	-0.612015	0.119401
C	-0.421646	-0.300498	-0.26342
C	-0.836675	0.968662	0.456676
O	-0.127377	1.45482	1.33546
H	1.22783	-0.241884	0.995713
H	-0.454054	-0.0938423	-1.32591
C	-1.3762	-1.46147	0.0918462
H	-1.35124	-1.66691	1.18327
H	-2.42012	-1.23944	-0.210564
H	-1.04884	-2.38153	-0.439821
N	-2.00023	1.54245	0.0920831
C	-2.47375	2.75508	0.717769
H	-2.55844	1.1365	-0.623936
H	-3.44729	3.06884	0.280727
H	-1.74202	3.58283	0.574001
H	-2.61319	2.60385	1.81268
C	459.204	-3.46568	0.245038
C	458.648	-2.16001	0.665784
O	457.675	-2.09484	1.40392
H	458.594	-4.28393	0.685844
H	460.252	-3.56745	0.599047
H	459.178	-3.55408	-0.861566
N	459.264	-1.07311	0.194846
C	458.813	0.26587	0.481408
C	459.212	1.15807	-0.6787
O	459.955	0.742549	-1.56596
H	460.03	-1.14233	-0.437924
H	457.731	0.274187	0.537121
C	459.427	0.784646	1.80006
H	460.536	0.78625	1.7396
H	459.076	1.8096	2.03887
H	459.128	0.112282	2.63366
N	458.718	2.4115	-0.702681
C	459.039	3.33031	-1.76991
H	458.115	2.72824	0.0221088
H	458.536	4.30958	-1.61024
H	458.708	2.92235	-2.75232
H	460.138	3.50454	-1.82137
