44
  This energy is 0 and Call times are: 159521
C	-2.35839	-1.77738	1.84163
C	-1.83615	-1.24216	0.564156
O	-2.30239	-1.59847	-0.50919
H	-3.16718	-2.51004	1.62962
H	-2.77257	-0.954018	2.46073
H	-1.54775	-2.28915	2.40203
N	-0.837419	-0.360779	0.65407
C	-0.197246	0.214626	-0.502497
C	1.23385	0.554397	-0.13092
O	1.61529	0.483867	1.0358
H	-0.441155	-0.111552	1.53312
H	-0.15847	-0.523729	-1.29367
C	-0.947984	1.47808	-0.97716
H	-0.978876	2.24002	-0.16936
H	-0.472763	1.92258	-1.87555
H	-1.99489	1.20736	-1.23607
N	2.06633	0.925449	-1.12355
C	3.44709	1.26208	-0.865929
H	1.74036	0.972634	-2.06195
H	3.96654	1.54068	-1.80921
H	3.98405	0.397715	-0.412257
H	3.51711	2.12108	-0.159982
C	148.963	-0.27267	-2.86108
C	148.803	-0.0451124	-1.40718
O	149.771	-0.0211505	-0.659968
H	150.04	-0.420289	-3.09345
H	148.59	0.605263	-3.42916
H	148.401	-1.17904	-3.17062
N	147.554	0.127598	-0.967331
C	147.236	0.316218	0.426183
C	145.837	-0.21654	0.668271
O	145.12	-0.553152	-0.27202
H	146.773	0.0646254	-1.5817
H	147.915	-0.273143	1.03033
C	147.322	1.80852	0.814603
H	146.619	2.41214	0.202367
H	147.093	1.96521	1.88859
H	148.353	2.17911	0.621716
N	145.417	-0.31357	1.94508
C	144.102	-0.814513	2.27244
H	146.013	-0.0401104	2.69266
H	143.945	-0.81752	3.37365
H	143.974	-1.85575	1.89736
H	143.313	-0.180472	1.80748
