44
  This energy is -2.3277 and Call times are: 175932
C	-2.16554	0.201327	-2.71709
C	-1.23463	-0.550187	-1.84544
O	-1.13835	-1.76723	-1.92262
H	-2.71194	-0.51169	-3.37202
H	-1.60166	0.91471	-3.35417
H	-2.90149	0.758949	-2.10021
N	-0.518304	0.171573	-0.980389
C	0.397361	-0.422042	-0.0381908
C	0.478376	0.482749	1.17686
O	-0.0423169	1.59654	1.16853
H	-0.63762	1.15714	-0.901101
H	0.00116655	-1.37352	0.293998
C	1.79474	-0.607822	-0.669098
H	2.20615	0.369394	-1.0005
H	2.50522	-1.07685	0.0420689
H	1.71017	-1.26664	-1.56081
N	1.13113	0.0178072	2.26026
C	1.25459	0.80595	3.46433
H	1.54238	-0.887636	2.24937
H	1.82474	0.250444	4.24123
H	0.249566	1.05305	3.8768
H	1.78663	1.76219	3.25534
C	992.644	1.16455	-2.96297
C	992.596	0.928903	-1.50236
O	991.722	1.42961	-0.808398
H	991.81	1.84021	-3.2532
H	992.535	0.204122	-3.50929
H	993.607	1.64147	-3.24263
N	993.554	0.149151	-0.995681
C	993.665	-0.136476	0.413123
C	995.126	-0.395992	0.729802
O	995.956	-0.504975	-0.170785
H	994.283	-0.217858	-1.5671
H	993.362	0.735536	0.979268
C	992.802	-1.35832	0.797747
H	993.119	-2.25569	0.224888
H	992.868	-1.57995	1.88267
H	991.739	-1.14918	0.549948
N	995.477	-0.493097	2.0273
C	996.844	-0.733458	2.42456
H	994.792	-0.398013	2.74192
H	996.93	-0.780208	3.53262
H	997.509	0.0809163	2.05596
H	997.212	-1.69694	2.00342
