44
  This energy is 0 and Call times are: 166437
C	0.779911	1.80423	-2.87214
C	0.718129	1.66024	-1.4002
O	1.28172	2.45647	-0.662094
H	1.40134	2.68957	-3.12881
H	-0.240259	1.94917	-3.28565
H	1.23759	0.900106	-3.32621
N	0.021227	0.621182	-0.934303
C	-0.0934779	0.325389	0.472079
C	-0.287352	-1.17133	0.626335
O	-0.487308	-1.8849	-0.354763
H	-0.397729	-0.0415424	-1.54842
H	0.833873	0.583351	0.96817
C	-1.27647	1.09244	1.10247
H	-2.22953	0.820218	0.600848
H	-1.36682	0.883787	2.18821
H	-1.11732	2.185	0.970857
N	-0.223766	-1.68512	1.87052
C	-0.390749	-3.099	2.11391
H	-0.0570269	-1.0923	2.65144
H	-0.304383	-3.32402	3.19979
H	0.386053	-3.68534	1.57163
H	-1.39056	-3.44289	1.7628
C	642.207	1.6764	2.80097
C	642.143	1.46149	1.33779
O	642.633	2.26655	0.557805
H	642.726	2.63754	3.00875
H	642.772	0.851643	3.28465
H	641.182	1.72173	3.22613
N	641.525	0.351745	0.92737
C	641.346	0.0273411	-0.465928
C	640.088	-0.810661	-0.598667
O	639.508	-1.23745	0.397632
H	641.095	-0.273373	1.57279
H	641.187	0.939433	-1.02745
C	642.568	-0.740139	-1.01515
H	642.726	-1.68116	-0.446214
H	642.449	-0.983577	-2.09076
H	643.478	-0.111357	-0.900537
N	639.631	-1.05972	-1.84166
C	638.439	-1.84325	-2.06561
H	640.112	-0.702358	-2.63534
H	638.227	-1.93532	-3.15375
H	637.558	-1.36699	-1.57655
H	638.556	-2.8674	-1.64317
