44
  This energy is -7.0103 and Call times are: 183867
C	-0.102027	-1.94538	-2.88406
C	0.528209	-1.53905	-1.6078
O	1.43855	-2.19124	-1.11553
H	0.371945	-2.88385	-3.24531
H	0.0390414	-1.15372	-3.64964
H	-1.18752	-2.12548	-2.73453
N	0.0471729	-0.433805	-1.03384
C	0.52936	0.0624867	0.230971
C	-0.602438	0.813185	0.907019
O	-1.64615	1.05545	0.303953
H	-0.721567	0.0634833	-1.42577
H	0.787341	-0.774238	0.868128
C	1.74974	0.987759	0.0315127
H	1.48278	1.85192	-0.613467
H	2.13887	1.36538	0.999244
H	2.56248	0.419883	-0.471793
N	-0.423477	1.19359	2.18737
C	-1.44733	1.9078	2.91387
H	0.426379	0.984837	2.65985
H	-1.11111	2.13065	3.95046
H	-2.38209	1.30426	2.97075
H	-1.68849	2.87095	2.40858
C	993.595	-3.26353	-0.0965877
C	994.598	-2.23406	-0.448391
O	995.673	-2.54158	-0.945076
H	994	-4.26977	-0.339967
H	992.662	-3.10197	-0.676126
H	993.367	-3.22078	0.989453
N	994.264	-0.967231	-0.191711
C	995.153	0.14036	-0.439124
C	994.821	1.24366	0.547535
O	993.822	1.17014	1.26122
H	993.402	-0.735971	0.25055
H	996.173	-0.169466	-0.24477
C	995.01	0.649868	-1.88997
H	993.967	0.977695	-2.08666
H	995.699	1.49382	-2.09705
H	995.25	-0.176012	-2.59452
N	995.66	2.29523	0.61644
C	995.428	3.3899	1.52953
H	996.465	2.33486	0.033763
H	996.229	4.15631	1.43685
H	995.411	3.02626	2.58251
H	994.449	3.87774	1.31703
