44
  This energy is -2.1175 and Call times are: 176138
C	-0.26065	-2.86663	1.95632
C	0.0708178	-1.43476	1.78021
O	0.288787	-0.712408	2.74308
H	-0.283902	-3.10748	3.04137
H	0.506514	-3.50042	1.46388
H	-1.25729	-3.08541	1.51822
N	0.114344	-0.985893	0.523622
C	0.381078	0.392437	0.195568
C	-0.309324	0.708155	-1.11791
O	-0.819622	-0.184756	-1.79172
H	-0.105628	-1.57641	-0.247593
H	-0.0575108	1.03105	0.952173
C	1.89996	0.649082	0.0843042
H	2.34858	0.00171377	-0.699076
H	2.11882	1.71006	-0.154315
H	2.38559	0.403904	1.05404
N	-0.348405	1.99692	-1.50979
C	-0.988596	2.39309	-2.74243
H	0.066517	2.7058	-0.94907
H	-0.915379	3.49345	-2.8876
H	-2.06658	2.11177	-2.73322
H	-0.508345	1.89156	-3.61361
C	993.713	-0.632372	3.38761
C	994.36	0.105407	2.27945
O	995.02	1.11362	2.49048
H	993.922	-0.111126	4.3471
H	994.115	-1.66585	3.44531
H	992.615	-0.671201	3.23128
N	994.18	-0.38891	1.05242
C	994.712	0.242596	-0.129653
C	993.802	-0.0956591	-1.29603
O	992.905	-0.927442	-1.1745
H	993.607	-1.18712	0.892238
H	994.687	1.31766	-0.00229063
C	996.153	-0.235997	-0.410169
H	996.178	-1.33759	-0.551357
H	996.578	0.253573	-1.31011
H	996.799	0.0147719	0.459562
N	994.01	0.552668	-2.45906
C	993.191	0.300278	-3.62169
H	994.738	1.22532	-2.5368
H	993.518	0.930903	-4.47758
H	992.122	0.528929	-3.40629
H	993.261	-0.768893	-3.92693
