44
  This energy is 0 and Call times are: 162937
C	2.11275	-2.6277	-0.862637
C	1.80718	-1.18354	-0.752333
O	2.67639	-0.338366	-0.915336
H	3.19449	-2.75843	-1.08316
H	1.5209	-3.08241	-1.68464
H	1.87579	-3.143	0.0920383
N	0.542841	-0.864683	-0.465711
C	0.102613	0.496136	-0.284242
C	-1.07673	0.488456	0.670035
O	-1.6001	-0.56897	1.01593
H	-0.144458	-1.56504	-0.29546
H	0.893526	1.06789	0.185
C	-0.297189	1.13128	-1.63405
H	-1.11579	0.55114	-2.11088
H	-0.624883	2.18372	-1.50944
H	0.57853	1.11902	-2.31912
N	-1.51922	1.67657	1.12679
C	-2.63241	1.76725	2.04263
H	-1.08019	2.52116	0.838722
H	-2.84372	2.82831	2.30093
H	-2.41217	1.21443	2.98452
H	-3.55035	1.32677	1.59039
C	390.252	0.0621846	-3.39845
C	391.127	0.390401	-2.25037
O	392.26	0.818673	-2.42018
H	390.802	0.252563	-4.34557
H	389.341	0.695963	-3.37855
H	389.959	-1.00817	-3.36223
N	390.611	0.190846	-1.03521
C	391.356	0.423446	0.177045
C	390.822	-0.509728	1.24709
O	389.803	-1.17031	1.05483
H	389.702	-0.19694	-0.91323
H	392.395	0.164944	0.0131989
C	391.229	1.89479	0.628975
H	390.164	2.15745	0.807364
H	391.81	2.0899	1.55388
H	391.619	2.55983	-0.172409
N	391.507	-0.591879	2.4044
C	391.077	-1.45731	3.47785
H	392.332	-0.0526273	2.53978
H	391.771	-1.38476	4.34369
H	391.048	-2.51841	3.13944
H	390.055	-1.17746	3.82309
