44
  This energy is 0 and Call times are: 165513
C	2.02338	-1.03484	2.63586
C	1.8162	-0.32927	1.35118
O	2.67654	0.406041	0.886928
H	3.01872	-0.761454	3.04869
H	1.98879	-2.13345	2.47902
H	1.23894	-0.740839	3.36477
N	0.648065	-0.539956	0.740067
C	0.284352	0.109608	-0.494574
C	-1.22675	0.238298	-0.53402
O	-1.92856	-0.320458	0.306794
H	-0.0585988	-1.10908	1.15066
H	0.693835	1.11203	-0.504956
C	0.791208	-0.695077	-1.71146
H	0.363095	-1.72013	-1.70701
H	0.529418	-0.197989	-2.66796
H	1.89829	-0.783494	-1.65766
N	-1.76487	0.990311	-1.51429
C	-3.1929	1.1746	-1.62814
H	-1.18044	1.43793	-2.18299
H	-3.43748	1.8249	-2.49677
H	-3.60212	1.65066	-0.707721
H	-3.70569	0.19544	-1.76756
C	575.328	-3.28261	1.10887
C	575.639	-2.19072	0.158964
O	576.533	-2.3063	-0.667699
H	576.026	-4.13049	0.934859
H	574.287	-3.63698	0.957192
H	575.449	-2.92667	2.15378
N	574.895	-1.08657	0.260032
C	575.107	0.07597	-0.565877
C	574.658	1.2978	0.212924
O	574.056	1.1791	1.2789
H	574.198	-0.991655	0.964935
H	576.167	0.188537	-0.759096
C	574.324	-0.0392398	-1.89205
H	573.236	-0.144155	-1.69464
H	574.49	0.843652	-2.54278
H	574.664	-0.944336	-2.44138
N	574.948	2.50898	-0.301439
C	574.565	3.72793	0.372025
H	575.439	2.58477	-1.16315
H	574.894	4.61798	-0.208441
H	575.027	3.77936	1.38437
H	573.459	3.7782	0.494765
