44
  This energy is -0.2668 and Call times are: 183896
C	-1.44688	2.49302	1.9504
C	-0.522779	2.04359	0.884951
O	0.016262	2.84551	0.134782
H	-1.54575	3.59951	1.90818
H	-1.05081	2.20537	2.94696
H	-2.44889	2.03691	1.80539
N	-0.318474	0.727472	0.792842
C	0.519997	0.136408	-0.220158
C	0.00565268	-1.26257	-0.502763
O	-0.863353	-1.76889	0.20447
H	-0.79621	0.0842509	1.38437
H	0.427706	0.705331	-1.13691
C	1.99298	0.0887502	0.241681
H	2.08972	-0.503649	1.17642
H	2.65091	-0.351654	-0.535299
H	2.34578	1.12235	0.450387
N	0.528607	-1.92005	-1.55646
C	0.0968794	-3.25347	-1.90543
H	1.22797	-1.49221	-2.11941
H	0.643926	-3.62218	-2.80099
H	-0.994067	-3.26664	-2.13113
H	0.284008	-3.95989	-1.06454
C	996.187	-0.906118	2.90589
C	995.58	-1.23242	1.59602
O	995.763	-2.31981	1.06653
H	996.797	-1.76864	3.25328
H	995.394	-0.701499	3.65525
H	996.845	-0.0163236	2.81173
N	994.832	-0.279497	1.03478
C	994.211	-0.433612	-0.257328
C	994.078	0.941134	-0.88485
O	994.317	1.95648	-0.233847
H	994.726	0.615366	1.45873
H	994.86	-1.01879	-0.897544
C	992.827	-1.10656	-0.127772
H	992.159	-0.501215	0.52042
H	992.345	-1.24341	-1.11736
H	992.948	-2.10755	0.340961
N	993.698	1.00473	-2.17637
C	993.55	2.2688	-2.85919
H	993.514	0.172025	-2.68779
H	993.232	2.11135	-3.91333
H	994.513	2.82834	-2.86376
H	992.786	2.90164	-2.35283
