44
  This energy is -0.5171 and Call times are: 174924
C	-1.20503	-3.12262	-0.953853
C	-1.01952	-2.04722	0.0462697
O	-1.62349	-2.06098	1.10996
H	-1.94927	-3.85488	-0.572042
H	-0.243581	-3.64799	-1.1337
H	-1.57757	-2.69658	-1.90925
N	-0.166245	-1.07377	-0.28038
C	0.0858904	0.0619249	0.571194
C	0.476168	1.235	-0.30808
O	0.692426	1.07798	-1.5082
H	0.28687	-1.05508	-1.16706
H	-0.828162	0.333528	1.08439
C	1.20604	-0.248853	1.58802
H	2.1469	-0.517305	1.06196
H	1.39999	0.613209	2.25865
H	0.902322	-1.11531	2.21519
N	0.567442	2.44799	0.27189
C	0.927185	3.62335	-0.486588
H	0.384697	2.55582	1.24351
H	0.948344	4.52248	0.16789
H	0.192723	3.80274	-1.30492
H	1.93416	3.50092	-0.947189
C	992.489	-2.21563	1.8329
C	993.803	-1.7064	1.3793
O	994.843	-2.08689	1.89886
H	992.642	-2.92823	2.67246
H	991.976	-2.74361	1.002
H	991.854	-1.37563	2.18522
N	993.783	-0.817005	0.383823
C	994.978	-0.199971	-0.135909
C	994.607	1.16822	-0.676327
O	993.43	1.50861	-0.77442
H	992.927	-0.486299	-0.00129861
H	995.682	-0.0474246	0.672671
C	995.609	-1.06808	-1.24662
H	994.891	-1.2161	-2.08116
H	996.538	-0.610395	-1.64535
H	995.865	-2.06699	-0.830758
N	995.612	1.99259	-1.03384
C	995.355	3.31565	-1.55326
H	996.558	1.70083	-0.943306
H	996.309	3.83762	-1.7885
H	994.795	3.92764	-0.809757
H	994.746	3.261	-2.48454
