44
  This energy is 0 and Call times are: 169685
C	-2.9209	-0.171612	-1.88456
C	-1.86658	-0.797207	-1.05499
O	-1.98394	-1.94176	-0.639497
H	-3.75995	-0.889202	-2.01471
H	-2.51536	0.0922024	-2.8839
H	-3.30518	0.744401	-1.38823
N	-0.795783	-0.0452177	-0.789889
C	0.292281	-0.500509	0.0391989
C	0.92378	0.711226	0.698336
O	0.60322	1.84963	0.362186
H	-0.733185	0.898809	-1.10095
H	-0.0992917	-1.12976	0.82872
C	1.33889	-1.26901	-0.797013
H	1.74862	-0.620569	-1.60056
H	2.17497	-1.63676	-0.167517
H	0.852955	-2.14675	-1.27637
N	1.8366	0.492393	1.66524
C	2.48635	1.58409	2.35241
H	2.07989	-0.435906	1.92628
H	3.20262	1.20006	3.11182
H	1.73598	2.22421	2.87055
H	3.04727	2.22327	1.63273
C	873.922	3.0219	1.45955
C	873.84	1.54396	1.46421
O	874.45	0.878426	2.28923
H	874.604	3.35418	2.27221
H	872.917	3.46192	1.63118
H	874.321	3.3798	0.486968
N	873.07	0.989631	0.524319
C	872.925	-0.437001	0.375373
C	872.629	-0.732602	-1.0829
O	872.389	0.177579	-1.8738
H	872.612	1.54262	-0.165702
H	873.864	-0.91891	0.618057
C	871.792	-0.973358	1.27741
H	870.827	-0.48695	1.02174
H	871.68	-2.0728	1.1821
H	872.026	-0.738913	2.33887
N	872.648	-2.02144	-1.47602
C	872.384	-2.39811	-2.84513
H	872.849	-2.74362	-0.822327
H	872.447	-3.50178	-2.96846
H	873.123	-1.92619	-3.53205
H	871.366	-2.06777	-3.15418
