44
  This energy is 0 and Call times are: 164393
C	0.101135	-2.79095	2.07679
C	-0.568414	-1.57812	1.55535
O	-1.74179	-1.34393	1.8098
H	-0.626769	-3.386	2.67005
H	0.951582	-2.50698	2.73166
H	0.473924	-3.41358	1.23629
N	0.175955	-0.768108	0.79893
C	-0.347397	0.427048	0.185525
C	0.442475	0.692857	-1.08215
O	1.45414	0.0440304	-1.34154
H	1.11797	-0.993115	0.566899
H	-1.37672	0.257999	-0.105248
C	-0.247268	1.63052	1.14827
H	0.809717	1.81092	1.43857
H	-0.659791	2.55393	0.692569
H	-0.825873	1.41069	2.07198
N	-0.00969677	1.65486	-1.91047
C	0.673377	1.97403	-3.14243
H	-0.832418	2.16629	-1.68545
H	0.147263	2.79114	-3.68351
H	0.716696	1.08294	-3.80978
H	1.71781	2.30386	-2.9387
C	497.146	-2.46406	-1.1979
C	496.895	-1.16177	-0.5406
O	497.795	-0.551836	0.0204542
H	498.214	-2.74249	-1.06507
H	496.926	-2.39357	-2.28376
H	496.51	-3.25185	-0.74202
N	495.643	-0.701365	-0.594937
C	495.236	0.529823	0.0350232
C	493.768	0.410633	0.40181
O	493.097	-0.541849	0.0102436
H	494.913	-1.22877	-1.01981
H	495.789	0.659585	0.956729
C	495.462	1.73272	-0.90672
H	494.887	1.60508	-1.84808
H	495.166	2.68831	-0.427931
H	496.541	1.79579	-1.16827
N	493.237	1.37792	1.17479
C	491.85	1.3458	1.57893
H	493.797	2.13859	1.48519
H	491.604	2.22752	2.21084
H	491.633	0.423308	2.16473
H	491.181	1.35475	0.688393
