44
  This energy is 0 and Call times are: 162321
C	1.72947	0.643087	-2.95094
C	1.12176	-0.287009	-1.9728
O	0.981639	-1.47447	-2.23108
H	1.98407	0.085757	-3.87854
H	2.65717	1.08654	-2.53206
H	1.01394	1.45377	-3.20374
N	0.739207	0.242801	-0.808616
C	0.0935819	-0.52727	0.225172
C	-0.800639	0.404938	1.02073
O	-0.757154	1.62113	0.845484
H	0.822424	1.21884	-0.628936
H	-0.543896	-1.27425	-0.231192
C	1.13626	-1.19569	1.14782
H	1.78372	-0.429091	1.62444
H	0.651719	-1.80284	1.93972
H	1.78447	-1.86701	0.543261
N	-1.64404	-0.148871	1.91404
C	-2.5364	0.65877	2.71253
H	-1.66767	-1.13526	2.03877
H	-3.14899	0.0195364	3.38583
H	-3.22587	1.24333	2.06124
H	-1.96091	1.37789	3.33929
C	345.733	2.55439	-1.99573
C	345.56	1.45764	-1.01681
O	344.499	1.29579	-0.428683
H	344.793	3.14516	-2.0556
H	345.961	2.13874	-2.99976
H	346.559	3.22461	-1.67722
N	346.618	0.668457	-0.816306
C	346.616	-0.413576	0.136454
C	348.037	-0.616199	0.625487
O	348.977	-0.0294735	0.0914894
H	347.487	0.837819	-1.27218
H	346.016	-0.133329	0.993825
C	346.073	-1.71047	-0.502901
H	346.693	-2.00419	-1.37617
H	346.053	-2.54762	0.224642
H	345.034	-1.53665	-0.860631
N	348.228	-1.45154	1.66567
C	349.545	-1.70192	2.20281
H	347.455	-1.91401	2.08719
H	349.493	-2.41595	3.05413
H	350.007	-0.755718	2.56657
H	350.212	-2.13425	1.42231
