44
  This energy is -3.5897 and Call times are: 181622
C	-1.51396	2.45156	-1.95203
C	-0.772572	1.17924	-1.80144
O	-0.616329	0.421686	-2.74913
H	-1.87433	2.5449	-2.99956
H	-0.849628	3.31108	-1.7226
H	-2.38876	2.46796	-1.26826
N	-0.293638	0.911958	-0.58425
C	0.411346	-0.306439	-0.272697
C	0.186745	-0.620935	1.19434
O	-0.360182	0.19274	1.93631
H	-0.464185	1.51895	0.186689
H	-0.0130321	-1.12127	-0.845919
C	1.91987	-0.16263	-0.570863
H	2.35794	0.666376	0.0248563
H	2.47162	-1.09884	-0.348116
H	2.06004	0.0751978	-1.64796
N	0.599422	-1.82136	1.64679
C	0.422958	-2.21057	3.02648
H	1.03623	-2.46804	1.03029
H	0.82659	-3.23216	3.20161
H	-0.657061	-2.20881	3.30003
H	0.952149	-1.50316	3.7052
C	995.978	-2.97152	1.69951
C	996.147	-2.07704	0.532242
O	996.988	-2.30785	-0.32562
H	996.719	-3.79848	1.63876
H	994.956	-3.40432	1.70515
H	996.146	-2.40751	2.64125
N	995.338	-1.01646	0.475288
C	995.412	-0.0333175	-0.576597
C	994.935	1.29391	-0.0181036
O	994.418	1.35918	1.09569
H	994.686	-0.819704	1.2022
H	996.446	0.094817	-0.873465
C	994.55	-0.453648	-1.78654
H	993.487	-0.574992	-1.48476
H	994.609	0.288562	-2.60878
H	994.912	-1.43094	-2.17384
N	995.106	2.39127	-0.781422
C	994.687	3.69814	-0.330712
H	995.529	2.31903	-1.67823
H	994.913	4.47014	-1.09888
H	995.214	3.97603	0.611049
H	993.591	3.71268	-0.130808
