44
  This energy is 0 and Call times are: 168173
C	-0.696429	1.10194	3.22698
C	-0.412596	1.3548	1.79637
O	-0.555511	2.46802	1.30983
H	-1.04872	2.04258	3.70338
H	0.223958	0.759538	3.74505
H	-1.48726	0.329161	3.32945
N	0.000915263	0.307371	1.07924
C	0.274969	0.387778	-0.333908
C	0.0200193	-0.977814	-0.943591
O	-0.195311	-1.95577	-0.230187
H	0.0731495	-0.601502	1.47999
H	-0.418698	1.0808	-0.793447
C	1.73225	0.831104	-0.588911
H	2.44445	0.114763	-0.126671
H	1.9516	0.910184	-1.67342
H	1.89841	1.82894	-0.12732
N	0.0303252	-1.07429	-2.28769
C	-0.207616	-2.33185	-2.95711
H	0.202355	-0.270965	-2.84818
H	-0.158131	-2.20523	-4.06108
H	-1.21378	-2.73212	-2.69501
H	0.553666	-3.08751	-2.65618
C	764.508	-2.18871	-2.66092
C	764.019	-1.44254	-1.47975
O	762.824	-1.36981	-1.22714
H	763.641	-2.60587	-3.21693
H	765.165	-3.02443	-2.34051
H	765.074	-1.51098	-3.3342
N	764.949	-0.859991	-0.71905
C	764.624	-0.0641393	0.438493
C	765.72	0.968183	0.625015
O	766.752	0.918366	-0.0412871
H	765.914	-0.893748	-0.960446
H	763.703	0.473622	0.255284
C	764.494	-0.949069	1.69753
H	765.443	-1.49291	1.89196
H	764.231	-0.349626	2.593
H	763.692	-1.70199	1.53553
N	765.516	1.93935	1.53665
C	766.5	2.96801	1.77891
H	764.673	1.96536	2.06319
H	766.148	3.67314	2.56347
H	766.699	3.5489	0.84907
H	767.462	2.51948	2.11731
