44
  This energy is 0 and Call times are: 163497
C	-2.17948	-1.99119	1.84329
C	-1.82175	-1.23599	0.621466
O	-2.47899	-1.34399	-0.404588
H	-3.06979	-2.624	1.63645
H	-2.42107	-1.29004	2.66958
H	-1.33637	-2.64601	2.14902
N	-0.751326	-0.44266	0.706259
C	-0.255189	0.321443	-0.411129
C	1.23981	0.506251	-0.231212
O	1.79268	0.182196	0.818092
H	-0.202424	-0.39659	1.53599
H	-0.402971	-0.242796	-1.3235
C	-0.963196	1.69109	-0.500707
H	-0.803076	2.27463	0.430892
H	-0.599712	2.28333	-1.36538
H	-2.05667	1.53161	-0.624076
N	1.93392	1.02762	-1.26195
C	3.36121	1.23494	-1.1842
H	1.46958	1.2799	-2.10445
H	3.74733	1.67175	-2.13147
H	3.88883	0.270683	-1.00225
H	3.61271	1.92889	-0.349739
C	433.361	-0.535159	-2.50058
C	432.376	0.318851	-1.79955
O	432.299	1.51766	-2.0307
H	433.963	0.0916771	-3.19375
H	432.838	-1.31955	-3.08742
H	434.042	-1.01514	-1.76665
N	431.588	-0.290722	-0.910224
C	430.611	0.415114	-0.119075
C	430.429	-0.334914	1.187
O	430.936	-1.44256	1.35321
H	431.69	-1.25957	-0.703271
H	430.992	1.39908	0.124444
C	429.268	0.525754	-0.871978
H	428.871	-0.483644	-1.11276
H	428.511	1.07937	-0.278827
H	429.426	1.07098	-1.82795
N	429.702	0.259826	2.15343
C	429.48	-0.375663	3.43127
H	429.303	1.1581	2.00175
H	428.86	0.271488	4.08965
H	430.448	-0.572901	3.94567
H	428.954	-1.34908	3.29997
