44
  This energy is 0 and Call times are: 171225
C	3.2504	-0.868563	0.890598
C	1.91387	-0.319188	1.21156
O	1.58042	-0.100515	2.36802
H	3.81411	-1.03779	1.83372
H	3.81612	-0.153375	0.257184
H	3.14799	-1.83572	0.354685
N	1.10519	-0.0825472	0.175987
C	-0.240274	0.41111	0.332763
C	-1.06654	-0.0878591	-0.837652
O	-0.531893	-0.648492	-1.79241
H	1.37576	-0.30408	-0.756528
H	-0.671558	-0.00719956	1.23367
C	-0.258573	1.95438	0.389617
H	0.174127	2.38407	-0.538912
H	-1.28758	2.34627	0.524102
H	0.358673	2.29733	1.24854
N	-2.40019	0.0985399	-0.786093
C	-3.26755	-0.347826	-1.85128
H	-2.81484	0.550609	-0.00329708
H	-4.3284	-0.103293	-1.62317
H	-3.184	-1.45012	-1.98999
H	-2.99341	0.142925	-2.81313
C	979.962	0.0260751	1.69709
C	981.309	0.577164	1.42815
O	981.652	1.65977	1.88254
H	979.388	0.746328	2.31984
H	980.044	-0.936303	2.24461
H	979.417	-0.13715	0.742973
N	982.114	-0.168448	0.667866
C	983.438	0.254148	0.284503
C	983.773	-0.389161	-1.0481
O	983.043	-1.25269	-1.53137
H	981.806	-1.02854	0.271498
H	983.441	1.32662	0.134827
C	984.477	-0.146486	1.35505
H	984.481	-1.24767	1.50141
H	985.498	0.185593	1.07798
H	984.208	0.329037	2.32347
N	984.888	0.0260479	-1.68042
C	985.283	-0.525029	-2.95559
H	985.463	0.72876	-1.27548
H	986.226	-0.0548134	-3.31173
H	984.493	-0.34963	-3.72134
H	985.448	-1.6239	-2.87484
