44
  This energy is -3.5511 and Call times are: 184012
C	-2.00925	1.75175	-2.23763
C	-1.54952	0.492967	-1.60893
O	-2.15213	-0.557544	-1.78125
H	-2.93446	1.55416	-2.82144
H	-1.22893	2.14452	-2.92288
H	-2.23164	2.51014	-1.45758
N	-0.45347	0.573972	-0.850976
C	0.0896421	-0.556611	-0.140081
C	0.806342	-0.0399885	1.09321
O	0.991501	1.16459	1.25572
H	0.00251657	1.44408	-0.68712
H	-0.72165	-1.18849	0.199282
C	1.06098	-1.35656	-1.03553
H	1.89912	-0.711528	-1.37536
H	1.47527	-2.23765	-0.503978
H	0.517164	-1.71799	-1.93553
N	1.22126	-0.945742	2.00066
C	1.90714	-0.546957	3.20761
H	1.05863	-1.91578	1.85353
H	2.16609	-1.43546	3.82464
H	1.26615	0.129211	3.8185
H	2.84825	-0.00304226	2.96345
C	994.211	0.936244	-3.23207
C	994.482	1.2526	-1.81163
O	994.587	2.41	-1.42978
H	994.151	1.88163	-3.81381
H	993.247	0.394003	-3.32615
H	995.029	0.310411	-3.64748
N	994.606	0.211616	-0.984874
C	994.912	0.359148	0.416137
C	995.653	-0.884034	0.871739
O	995.751	-1.86401	0.135691
H	994.558	-0.725725	-1.31805
H	995.581	1.20007	0.548765
C	993.624	0.556241	1.24494
H	992.942	-0.311072	1.11751
H	993.848	0.684895	2.32379
H	993.094	1.46686	0.889105
N	996.202	-0.868839	2.10215
C	996.93	-2.00414	2.61889
H	996.116	-0.0651119	2.6815
H	997.305	-1.79708	3.64569
H	997.804	-2.23972	1.96846
H	996.277	-2.90533	2.65883
