44
  This energy is -4.0607 and Call times are: 178405
C	-3.10565	-0.402404	-1.51845
C	-2.18644	0.305376	-0.59908
O	-2.48424	1.38936	-0.116695
H	-4.01857	0.213349	-1.67108
H	-3.40071	-1.38147	-1.08589
H	-2.61391	-0.565582	-2.50062
N	-1.02764	-0.30243	-0.334275
C	-0.0137189	0.282205	0.507589
C	1.33649	-0.240286	0.0542709
O	1.41572	-1.14664	-0.772752
H	-0.782106	-1.16531	-0.766742
H	-0.00794749	1.35588	0.366784
C	-0.259438	-0.0680725	1.99156
H	-0.254957	-1.16919	2.13835
H	0.50685	0.387854	2.65145
H	-1.25619	0.316801	2.29931
N	2.43716	0.32953	0.58329
C	3.76461	-0.0983224	0.207785
H	2.35285	1.06443	1.24803
H	4.53604	0.491002	0.75075
H	3.92606	0.0368379	-0.886262
H	3.91291	-1.17601	0.448093
C	995.204	0.500749	2.06781
C	994.378	-0.348542	1.18055
O	994.782	-1.43389	0.786892
H	996.176	-0.00440831	2.25935
H	994.685	0.660829	3.03624
H	995.398	1.48221	1.58601
N	993.182	0.137063	0.839216
C	992.284	-0.554297	-0.0517163
C	991.434	0.481192	-0.763856
O	991.462	1.66178	-0.421564
H	992.884	1.04023	1.13449
H	992.86	-1.07383	-0.807323
C	991.391	-1.54603	0.725517
H	990.792	-1.01205	1.49375
H	990.704	-2.09472	0.0486934
H	992.034	-2.28954	1.24506
N	990.661	0.0607553	-1.78401
C	989.822	0.97531	-2.52386
H	990.655	-0.897817	-2.04893
H	989.264	0.438817	-3.32254
H	990.437	1.77283	-3.00093
H	989.084	1.46568	-1.84879
