44
  This energy is -5.9989 and Call times are: 181366
C	0.417113	3.29586	1.0373
C	0.0444135	2.28698	0.0202447
O	-0.524896	2.61027	-1.01309
H	0.0828851	4.30035	0.697922
H	1.51868	3.3113	1.17532
H	-0.0733202	3.06218	2.00578
N	0.361262	1.01999	0.297227
C	0.025325	-0.0775663	-0.575166
C	-0.138932	-1.32376	0.274284
O	0.171543	-1.32045	1.46395
H	0.787909	0.767393	1.16096
H	-0.929527	0.119878	-1.04623
C	1.12182	-0.290002	-1.64185
H	2.09944	-0.503026	-1.15925
H	0.868161	-1.12358	-2.32839
H	1.23032	0.636947	-2.24629
N	-0.642627	-2.4235	-0.319775
C	-0.83963	-3.65399	0.410467
H	-0.891828	-2.40554	-1.2824
H	-1.26282	-4.44097	-0.251957
H	-1.54144	-3.49762	1.26152
H	0.126325	-4.02503	0.823264
C	991.246	-0.734029	1.27605
C	992.621	-0.205327	1.42336
O	992.953	0.427312	2.41636
H	990.644	-0.442538	2.16357
H	991.268	-1.8418	1.20441
H	990.77	-0.314111	0.364861
N	993.464	-0.455842	0.418865
C	994.821	0.0299914	0.398849
C	995.239	0.206631	-1.04883
O	994.529	-0.20506	-1.96406
H	993.168	-0.936951	-0.401225
H	994.858	1.00591	0.866641
C	995.77	-0.952631	1.12012
H	995.74	-1.9511	0.634104
H	996.816	-0.583047	1.12358
H	995.44	-1.0728	2.17531
N	996.406	0.835262	-1.29048
C	996.883	1.05366	-2.6364
H	996.965	1.16493	-0.536893
H	997.859	1.58639	-2.62638
H	996.155	1.6666	-3.21605
H	997.018	0.0838424	-3.16781
