44
  This energy is 0 and Call times are: 165625
C	-2.73894	-0.443917	2.10091
C	-1.29264	-0.225394	1.87375
O	-0.544969	0.0717592	2.79522
H	-2.97142	-0.276608	3.17508
H	-3.01572	-1.48478	1.8312
H	-3.33402	0.266832	1.48951
N	-0.860822	-0.368245	0.618563
C	0.510964	-0.146059	0.234641
C	0.529718	0.304013	-1.21403
O	-0.490997	0.266404	-1.89845
H	-1.48863	-0.570243	-0.127705
H	0.921895	0.660877	0.828461
C	1.34891	-1.43103	0.413323
H	0.933969	-2.25626	-0.203815
H	2.41019	-1.26905	0.134111
H	1.31442	-1.74644	1.47901
N	1.69818	0.751206	-1.71477
C	1.81054	1.20533	-3.08128
H	2.51235	0.777987	-1.14427
H	2.85005	1.53357	-3.30239
H	1.12491	2.0635	-3.26762
H	1.54219	0.388831	-3.79013
C	582.014	-1.26369	-3.08943
C	583.029	-0.676992	-2.18485
O	584.211	-0.640898	-2.49775
H	582.515	-1.64056	-4.00756
H	581.268	-0.494188	-3.37749
H	581.499	-2.10982	-2.58842
N	582.581	-0.198483	-1.02178
C	583.453	0.363283	-0.0206109
C	582.815	0.145283	1.33849
O	581.664	-0.277712	1.43364
H	581.622	-0.272069	-0.763845
H	584.394	-0.172749	-0.0250579
C	583.686	1.86881	-0.274085
H	582.722	2.42079	-0.259147
H	584.367	2.30994	0.48224
H	584.146	2.00515	-1.27717
N	583.556	0.423268	2.42897
C	583.035	0.241485	3.76371
H	584.487	0.760788	2.3318
H	583.796	0.523965	4.52469
H	582.749	-0.822011	3.93219
H	582.13	0.871647	3.92149
