44
  This energy is 0.1066 and Call times are: 173044
C	3.36601	0.754545	-0.46188
C	2.23689	-0.202243	-0.433689
O	2.35987	-1.33944	-0.867348
H	4.24817	0.267875	-0.931789
H	3.63297	1.06202	0.571046
H	3.09221	1.65222	-1.05544
N	1.09142	0.246692	0.0847104
C	-0.106644	-0.553305	0.141261
C	-1.30149	0.380216	0.0919003
O	-1.15375	1.59753	0.181475
H	0.994923	1.18773	0.396171
H	-0.155318	-1.1862	-0.736065
C	-0.139532	-1.40735	1.42764
H	-0.100258	-0.75797	2.32809
H	-1.05065	-2.03824	1.47622
H	0.747953	-2.07695	1.44639
N	-2.52092	-0.172528	-0.0613767
C	-3.71532	0.637151	-0.124603
H	-2.61993	-1.15928	-0.136179
H	-4.61696	-0.00141657	-0.253068
H	-3.66366	1.3471	-0.98168
H	-3.83687	1.23194	0.809522
C	999.533	1.48239	-0.318717
C	998.591	0.556966	0.350355
O	998.982	-0.255919	1.1767
H	1000.56	1.28191	0.0436869
H	999.267	2.53456	-0.0836416
H	999.502	1.33052	-1.4183
N	997.307	0.660953	-0.000314575
C	996.28	-0.199306	0.532257
C	995.181	-0.323181	-0.506448
O	995.183	0.383308	-1.51272
H	997.01	1.29967	-0.704434
H	996.689	-1.18963	0.688672
C	995.715	0.368101	1.85296
H	995.286	1.37974	1.69084
H	994.933	-0.29245	2.28025
H	996.538	0.4576	2.59554
N	994.215	-1.23694	-0.288606
C	993.132	-1.42952	-1.22452
H	994.232	-1.80217	0.529491
H	992.441	-2.22493	-0.868072
H	993.524	-1.72815	-2.22353
H	992.549	-0.488549	-1.34992
