44
  This energy is 0.1089 and Call times are: 187163
C	-3.13074	-1.31042	0.770667
C	-1.74474	-1.4543	0.271244
O	-1.25212	-2.55757	0.0800766
H	-3.56889	-2.31901	0.933887
H	-3.75047	-0.765268	0.0280397
H	-3.13514	-0.756661	1.73318
N	-1.07395	-0.321859	0.0476366
C	0.296982	-0.301329	-0.398091
C	0.941172	0.973912	0.112137
O	0.264191	1.85349	0.641054
H	-1.47444	0.567954	0.246903
H	0.829821	-1.13233	0.0470431
C	0.377211	-0.369531	-1.93892
H	-0.160321	0.488545	-2.39587
H	1.42815	-0.368413	-2.29394
H	-0.107133	-1.30662	-2.29051
N	2.27548	1.09997	-0.0284016
C	2.97631	2.27596	0.432112
H	2.80679	0.375703	-0.455272
H	4.06609	2.18994	0.226727
H	2.83608	2.41244	1.52892
H	2.59351	3.18775	-0.0809607
C	995.812	-0.868536	-3.35319
C	995.559	-1.10444	-1.91392
O	994.746	-1.94019	-1.54271
H	995.156	-1.53409	-3.95533
H	996.871	-1.09214	-3.59712
H	995.588	0.187576	-3.61303
N	996.26	-0.357819	-1.05787
C	996.092	-0.442846	0.371538
C	996.437	0.908281	0.969369
O	996.942	1.7918	0.279622
H	996.888	0.346948	-1.37576
H	995.052	-0.640048	0.598051
C	996.995	-1.54494	0.968298
H	998.063	-1.33752	0.745228
H	996.865	-1.62966	2.06665
H	996.731	-2.52331	0.510758
N	996.161	1.10332	2.27401
C	996.449	2.35863	2.92789
H	995.749	0.377806	2.81472
H	996.15	2.32188	3.99866
H	995.896	3.19252	2.43806
H	997.538	2.5887	2.87525
