44
  This energy is 0.1008 and Call times are: 180960
C	2.48024	-2.02309	1.36682
C	1.88493	-0.695667	1.09351
O	2.30355	0.311849	1.64675
H	3.29098	-1.91407	2.11961
H	2.90937	-2.44913	0.435645
H	1.70832	-2.71352	1.76748
N	0.875642	-0.666371	0.220091
C	0.167853	0.544123	-0.11502
C	-1.249	0.170251	-0.507849
O	-1.57029	-1.0066	-0.661147
H	0.519197	-1.50048	-0.191103
H	0.103408	1.17492	0.762803
C	0.8702	1.29234	-1.26919
H	0.927162	0.649389	-2.1733
H	0.342471	2.23331	-1.52727
H	1.90775	1.54892	-0.962574
N	-2.13681	1.17059	-0.672537
C	-3.50903	0.910419	-1.04067
H	-1.85906	2.11631	-0.540044
H	-4.08006	1.86105	-1.12692
H	-4.00641	0.270972	-0.275819
H	-3.55973	0.38067	-2.01941
C	997.561	0.204884	-1.05169
C	996.537	0.0516104	0.00581055
O	996.845	-0.283017	1.14147
H	998.561	-0.0439746	-0.633595
H	997.577	1.25193	-1.42074
H	997.344	-0.481664	-1.89705
N	995.274	0.295322	-0.351641
C	994.163	0.146704	0.555339
C	992.931	-0.201357	-0.258682
O	992.953	-0.151115	-1.48697
H	995.034	0.527027	-1.29015
H	994.355	-0.684952	1.22181
C	993.931	1.44387	1.36083
H	993.724	2.29525	0.677998
H	993.087	1.33755	2.07276
H	994.848	1.68357	1.94245
N	991.823	-0.573129	0.412049
C	990.605	-0.927729	-0.278296
H	991.826	-0.611688	1.40582
H	989.808	-1.20458	0.446881
H	990.776	-1.79369	-0.957979
H	990.239	-0.0737764	-0.892865
