44
  This energy is 0 and Call times are: 158961
C	-1.26531	-3.20517	-0.488439
C	-1.42192	-1.78991	-0.0838876
O	-2.52798	-1.30797	0.118011
H	-2.26892	-3.67505	-0.577069
H	-0.675714	-3.75784	0.272928
H	-0.751207	-3.26775	-1.47072
N	-0.297711	-1.08109	0.0430277
C	-0.291916	0.31869	0.388195
C	0.94572	0.950767	-0.220319
O	1.81902	0.255794	-0.736137
H	0.592599	-1.47624	-0.164509
H	-1.15286	0.800307	-0.0583994
C	-0.299296	0.50901	1.92083
H	0.589285	0.0241383	2.37839
H	-0.308915	1.58273	2.19933
H	-1.20944	0.0319069	2.34551
N	1.04539	2.2941	-0.181125
C	2.18455	2.98418	-0.739953
H	0.326564	2.83968	0.236861
H	2.08088	4.08395	-0.609663
H	2.27963	2.76766	-1.82869
H	3.12537	2.65879	-0.239815
C	107.331	3.02294	-1.69261
C	107.885	1.91845	-0.877232
O	109.09	1.80555	-0.699033
H	108.165	3.64698	-2.08044
H	106.664	3.65898	-1.07318
H	106.758	2.61446	-2.55181
N	107.001	1.06369	-0.357495
C	107.39	-0.0848899	0.421998
C	106.33	-1.15633	0.247621
O	105.273	-0.908201	-0.328204
H	106.026	1.14516	-0.545292
H	108.319	-0.483065	0.0320535
C	107.544	0.286792	1.9131
H	106.589	0.685495	2.31639
H	107.857	-0.58616	2.52171
H	108.319	1.07777	2.01604
N	106.595	-2.38349	0.737396
C	105.649	-3.46742	0.613399
H	107.458	-2.56605	1.19659
H	106.05	-4.39499	1.07797
H	105.431	-3.67824	-0.458764
H	104.689	-3.21023	1.11635
