44
  This energy is 0 and Call times are: 164281
C	-2.57713	0.774792	-2.20699
C	-1.88008	-0.158296	-1.29342
O	-2.39902	-1.21024	-0.946263
H	-3.5763	0.360187	-2.4632
H	-1.99155	0.90457	-3.14133
H	-2.71266	1.76147	-1.71587
N	-0.668168	0.214666	-0.875619
C	0.114012	-0.567515	0.0490143
C	1.0082	0.377433	0.82944
O	1.10307	1.56134	0.511508
H	-0.27619	1.09288	-1.1344
H	-0.547335	-1.04679	0.760031
C	0.960802	-1.62097	-0.698261
H	1.64695	-1.12912	-1.42028
H	1.55715	-2.23892	0.00389414
H	0.286464	-2.29644	-1.26866
N	1.68257	-0.126088	1.88192
C	2.553	0.69899	2.68676
H	1.58974	-1.08567	2.12616
H	3.01567	0.102458	3.50365
H	1.98364	1.53947	3.14579
H	3.36854	1.13364	2.06457
C	486.46	-3.13129	1.42005
C	487.335	-1.98419	1.08788
O	488.452	-1.87747	1.57586
H	486.981	-3.79134	2.14762
H	486.231	-3.71586	0.504255
H	485.513	-2.77136	1.8748
N	486.836	-1.08462	0.236724
C	487.551	0.106517	-0.148256
C	486.535	1.17962	-0.488622
O	485.338	0.909928	-0.570262
H	485.91	-1.16395	-0.120308
H	488.129	0.464889	0.695014
C	488.473	-0.169434	-1.35684
H	487.88	-0.527073	-2.22551
H	489.039	0.736665	-1.65418
H	489.203	-0.963212	-1.08773
N	486.99	2.4321	-0.688005
C	486.096	3.51931	-1.01092
H	487.962	2.63161	-0.613552
H	486.661	4.46924	-1.1363
H	485.344	3.66298	-0.201462
H	485.548	3.30943	-1.9579
