44
  This energy is 0 and Call times are: 169153
C	1.87969	-1.54314	-2.48961
C	0.585136	-1.17603	-1.87276
O	-0.469505	-1.33708	-2.47127
H	1.70011	-1.93651	-3.51376
H	2.38224	-2.32803	-1.88617
H	2.53783	-0.651325	-2.55748
N	0.638768	-0.663347	-0.641238
C	-0.533169	-0.21931	0.0714723
C	-0.116981	0.885411	1.02433
O	1.07089	1.14321	1.20932
H	1.50788	-0.50031	-0.183054
H	-1.23751	0.208827	-0.63083
C	-1.18283	-1.38661	0.846458
H	-0.464036	-1.81936	1.57454
H	-2.09419	-1.06045	1.38828
H	-1.47211	-2.18657	0.13041
N	-1.09318	1.57336	1.64865
C	-0.79271	2.64542	2.56875
H	-2.04869	1.35285	1.48296
H	-1.72835	3.08658	2.97762
H	-0.218908	3.45227	2.05784
H	-0.179466	2.272	3.42059
C	831.676	-0.52374	-0.888764
C	833.108	-0.367175	-1.23148
O	833.521	-0.622568	-2.35398
H	831.125	-0.90258	-1.77688
H	831.245	0.454583	-0.588879
H	831.559	-1.24966	-0.0566558
N	833.909	0.0616389	-0.253245
C	835.331	0.221625	-0.422605
C	835.994	0.0154463	0.926267
O	835.321	-0.0776119	1.95111
H	833.564	0.226202	0.666592
H	835.701	-0.550768	-1.0853
C	835.666	1.62154	-0.982293
H	835.296	2.41418	-0.297569
H	836.758	1.75211	-1.13023
H	835.164	1.75339	-1.96566
N	837.339	-0.069574	0.955599
C	838.057	-0.270765	2.19268
H	837.866	0.00398457	0.115367
H	839.153	-0.313911	2.00873
H	837.745	-1.22434	2.67716
H	837.853	0.561161	2.9051
