44
  This energy is -3.577 and Call times are: 184281
C	1.57874	-0.280764	-3.08892
C	1.07389	0.520777	-1.95147
O	1.36734	1.7021	-1.82992
H	2.22889	0.356234	-3.72721
H	0.73048	-0.654548	-3.70006
H	2.17327	-1.14153	-2.71649
N	0.291472	-0.116513	-1.07736
C	-0.240357	0.518844	0.102486
C	-0.438526	-0.54613	1.16461
O	-0.313482	-1.73849	0.891938
H	0.0948788	-1.08866	-1.16762
H	0.485317	1.22542	0.485609
C	-1.57616	1.22911	-0.207989
H	-2.32429	0.502792	-0.591122
H	-1.98888	1.73396	0.689406
H	-1.40891	1.99845	-0.993162
N	-0.746237	-0.13651	2.41103
C	-0.947861	-1.07778	3.48784
H	-0.839106	0.832804	2.61321
H	-1.19203	-0.54647	4.43405
H	-0.0297026	-1.68644	3.65456
H	-1.78484	-1.77356	3.25014
C	995.168	2.97348	-1.69982
C	994.727	1.56082	-1.66287
O	994.167	1.04707	-2.62157
H	994.889	3.41966	-2.67915
H	996.27	3.03396	-1.57794
H	994.674	3.54962	-0.88894
N	994.973	0.891919	-0.533855
C	994.565	-0.47621	-0.332371
C	994.337	-0.688062	1.15247
O	994.659	0.173655	1.96828
H	995.393	1.33556	0.252792
H	993.619	-0.644103	-0.831132
C	995.637	-1.45472	-0.860749
H	996.605	-1.28996	-0.341911
H	995.328	-2.51147	-0.723929
H	995.793	-1.27638	-1.9471
N	993.765	-1.84537	1.53835
C	993.504	-2.13264	2.92961
H	993.507	-2.52876	0.863162
H	993.029	-3.13223	3.04251
H	992.821	-1.36888	3.36702
H	994.451	-2.12557	3.51663
