44
  This energy is -0.9131 and Call times are: 185083
C	-1.48197	-2.2216	2.23181
C	-1.24451	-1.71525	0.861272
O	-1.60221	-2.35244	-0.119774
H	-1.98532	-3.21123	2.17566
H	-2.13335	-1.51837	2.7921
H	-0.517161	-2.33911	2.76886
N	-0.622582	-0.537994	0.763016
C	-0.283811	0.0629271	-0.502957
C	0.947687	0.925917	-0.302413
O	1.38273	1.15013	0.825498
H	-0.301001	-0.0506429	1.56983
H	-0.0210019	-0.715139	-1.20877
C	-1.45672	0.910273	-1.04289
H	-1.71981	1.7152	-0.323916
H	-1.21327	1.3671	-2.02399
H	-2.34912	0.260127	-1.17439
N	1.54634	1.42617	-1.40122
C	2.72671	2.2534	-1.30855
H	1.18194	1.23031	-2.30561
H	3.06851	2.56564	-2.31994
H	3.5569	1.69919	-0.813664
H	2.51848	3.16978	-0.710195
C	994	-2.13657	2.70146
C	994.485	-1.8608	1.33038
O	995.186	-2.66613	0.732826
H	994.389	-3.12257	3.03712
H	992.89	-2.16361	2.71656
H	994.36	-1.35182	3.39978
N	994.118	-0.69442	0.79443
C	994.547	-0.2668	-0.513892
C	994.585	1.24977	-0.527091
O	994.125	1.89931	0.410425
H	993.582	-0.0315051	1.30878
H	995.557	-0.616035	-0.690661
C	993.592	-0.794318	-1.60726
H	992.558	-0.427701	-1.43229
H	993.92	-0.483339	-2.6205
H	993.574	-1.90558	-1.57389
N	995.144	1.85209	-1.59468
C	995.23	3.2906	-1.69242
H	995.514	1.30948	-2.34158
H	995.723	3.5916	-2.64296
H	995.82	3.70757	-0.844263
H	994.214	3.74751	-1.66406
