44
  This energy is 0.1171 and Call times are: 184509
C	-3.00575	-0.945629	-1.47782
C	-1.71596	-1.26697	-0.826411
O	-1.46312	-2.40274	-0.44891
H	-3.63229	-1.86278	-1.5243
H	-2.83153	-0.576717	-2.51044
H	-3.54624	-0.170353	-0.894809
N	-0.858551	-0.254708	-0.676205
C	0.417842	-0.402962	-0.0224459
C	0.789662	0.930976	0.597162
O	0.132329	1.94193	0.357167
H	-1.0952	0.672659	-0.951628
H	0.324761	-1.1188	0.784734
C	1.502	-0.855257	-1.02508
H	1.60526	-0.115959	-1.84777
H	2.48649	-0.986369	-0.53101
H	1.20523	-1.82922	-1.47193
N	1.85542	0.962224	1.4213
C	2.28068	2.18539	2.06099
H	2.37233	0.133021	1.60651
H	3.17378	2.00552	2.69915
H	1.46803	2.59591	2.70313
H	2.54244	2.95625	1.30046
C	996.687	0.308972	3.15455
C	996.487	0.771394	1.76271
O	996.883	1.86969	1.39743
H	997.204	1.10402	3.73497
H	997.312	-0.608593	3.16677
H	995.708	0.094975	3.63139
N	995.855	-0.0711257	0.942647
C	995.549	0.255193	-0.427928
C	994.301	-0.509473	-0.829087
O	993.828	-1.37355	-0.0932611
H	995.502	-0.944858	1.26538
H	995.317	1.31058	-0.500801
C	996.728	-0.106327	-1.35753
H	996.959	-1.19093	-1.29106
H	996.51	0.152964	-2.41385
H	997.632	0.458592	-1.0406
N	993.732	-0.200756	-2.01066
C	992.539	-0.871851	-2.47313
H	994.127	0.504219	-2.5904
H	992.226	-0.477711	-3.46489
H	991.7	-0.721684	-1.75526
H	992.718	-1.96714	-2.57135
