44
  This energy is 0.1128 and Call times are: 174439
C	0.157172	2.59726	2.31133
C	0.362109	1.1834	1.92383
O	0.997366	0.4177	2.63556
H	0.670232	2.79113	3.27832
H	-0.926342	2.80814	2.43078
H	0.581679	3.27144	1.5378
N	-0.179402	0.801226	0.764912
C	-0.0288603	-0.530809	0.234271
C	-0.10308	-0.448379	-1.27876
O	-0.428325	0.597549	-1.83729
H	-0.658832	1.44643	0.176926
H	0.95379	-0.907854	0.488959
C	-1.12725	-1.46944	0.779944
H	-2.13527	-1.08867	0.509868
H	-1.01396	-2.50154	0.389485
H	-1.05906	-1.5083	1.88908
N	0.207383	-1.55568	-1.98126
C	0.17021	-1.57003	-3.42508
H	0.472233	-2.39135	-1.5116
H	0.458168	-2.57079	-3.81595
H	0.873979	-0.814521	-3.84363
H	-0.853199	-1.33036	-3.79431
C	991.857	-0.0735366	0.965603
C	992.939	-0.349726	-0.00575173
O	992.744	-1.05033	-0.989248
H	990.933	-0.603304	0.646606
H	991.65	1.01642	1.008
H	992.148	-0.433901	1.97495
N	994.126	0.203128	0.255116
C	995.286	-0.00962254	-0.574432
C	996.521	0.115115	0.298015
O	996.435	0.518281	1.4564
H	994.281	0.737382	1.08125
H	995.267	-1.02007	-0.963328
C	995.334	1.01443	-1.72956
H	995.364	2.05088	-1.33098
H	996.215	0.852306	-2.38359
H	994.417	0.910506	-2.35002
N	997.705	-0.238743	-0.239767
C	998.933	-0.158776	0.516586
H	997.753	-0.566543	-1.17746
H	999.796	-0.493328	-0.0992623
H	998.878	-0.803734	1.42341
H	999.123	0.887704	0.848157
