44
  This energy is 0 and Call times are: 165345
C	2.18402	2.18302	1.60536
C	1.3514	1.79095	0.445974
O	1.12582	2.57514	-0.465389
H	2.50674	3.24003	1.48508
H	3.0849	1.53685	1.66552
H	1.59955	2.09045	2.54499
N	0.86662	0.547069	0.457083
C	0.00554638	0.0352774	-0.579826
C	-0.889312	-1.02718	0.0300587
O	-0.695055	-1.4333	1.1742
H	1.02514	-0.0661501	1.22565
H	-0.63598	0.831344	-0.936693
C	0.832964	-0.555734	-1.74229
H	1.48352	-1.3795	-1.37866
H	0.181434	-0.940633	-2.55339
H	1.48601	0.237073	-2.16812
N	-1.90284	-1.49848	-0.722712
C	-2.80927	-2.50655	-0.224346
H	-2.0465	-1.1546	-1.64477
H	-3.57359	-2.76181	-0.991083
H	-3.33575	-2.14467	0.688417
H	-2.2556	-3.43586	0.0420631
C	565.48	-2.43605	0.173574
C	564.115	-1.98864	-0.185868
O	563.383	-2.68341	-0.876546
H	565.675	-3.42729	-0.290158
H	565.574	-2.53014	1.27588
H	566.231	-1.70961	-0.200611
N	563.739	-0.7959	0.281567
C	562.458	-0.207719	-0.0193212
C	562.609	1.3013	0.021408
O	563.643	1.81975	0.436771
H	564.362	-0.223993	0.80833
H	562.17	-0.47596	-1.0281
C	561.387	-0.672224	0.991551
H	561.677	-0.387975	2.02552
H	560.392	-0.237036	0.76232
H	561.299	-1.77989	0.950198
N	561.575	2.04518	-0.420168
C	561.631	3.48849	-0.424301
H	560.748	1.60742	-0.756345
H	560.685	3.91694	-0.824019
H	562.474	3.84761	-1.05808
H	561.784	3.87894	0.607772
