44
  This energy is 0 and Call times are: 167837
C	2.34632	-2.45805	0.75199
C	1.11266	-1.99722	0.0760619
O	0.5641	-2.68234	-0.776051
H	2.64123	-3.44869	0.342679
H	2.16998	-2.55828	1.84359
H	3.17163	-1.7363	0.575822
N	0.643402	-0.803569	0.44671
C	-0.522849	-0.202961	-0.15136
C	-0.375456	1.30448	-0.0651058
O	0.53152	1.81203	0.591785
H	1.12381	-0.239576	1.11228
H	-0.560182	-0.463842	-1.20168
C	-1.81024	-0.66313	0.567049
H	-1.77703	-0.386379	1.64238
H	-2.71632	-0.218321	0.106964
H	-1.89337	-1.76979	0.498182
N	-1.26577	2.05935	-0.738566
C	-1.20105	3.50213	-0.719498
H	-1.99021	1.63033	-1.26792
H	-2.01855	3.9406	-1.33322
H	-0.227169	3.85705	-1.12799
H	-1.29929	3.88626	0.321624
C	737.711	-0.935438	-0.650726
C	738.716	0.0169694	-0.126369
O	738.404	1.15704	0.18835
H	736.722	-0.431763	-0.706806
H	737.63	-1.81453	0.0225053
H	738	-1.27469	-1.66789
N	739.967	-0.437671	-0.0217205
C	741.061	0.384437	0.431193
C	742.336	-0.130568	-0.209398
O	742.343	-1.18778	-0.837063
H	740.214	-1.35517	-0.32039
H	740.913	1.39941	0.0840878
C	741.177	0.350052	1.97091
H	741.339	-0.689647	2.32677
H	742.007	0.990234	2.33296
H	740.23	0.72356	2.41834
N	743.451	0.61487	-0.0716775
C	744.709	0.207403	-0.651519
H	743.424	1.46945	0.436334
H	745.504	0.952325	-0.428369
H	744.619	0.11158	-1.75787
H	745.028	-0.779241	-0.244375
