44
  This energy is 0 and Call times are: 161285
C	-2.46249	-0.639098	2.37495
C	-1.69849	-1.00121	1.15991
O	-1.78577	-2.11714	0.666452
H	-3.05336	-1.51807	2.71282
H	-3.15772	0.198057	2.15454
H	-1.76843	-0.33862	3.18802
N	-0.917453	-0.0491094	0.644289
C	-0.081649	-0.265118	-0.510411
C	1.11711	0.658807	-0.406095
O	1.16608	1.53179	0.458324
H	-0.825535	0.841307	1.08084
H	0.2921	-1.28135	-0.495795
C	-0.862385	0.00606122	-1.81508
H	-1.23703	1.05166	-1.8353
H	-0.23365	-0.170218	-2.71182
H	-1.73939	-0.675546	-1.86638
N	2.12218	0.480818	-1.28598
C	3.30536	1.30881	-1.25966
H	2.06614	-0.233567	-1.97561
H	4.01486	1.00644	-2.06116
H	3.82584	1.21904	-0.278687
H	3.03912	2.37975	-1.41249
C	270.389	-1.88265	1.32417
C	271.089	-0.596486	1.10761
O	270.559	0.46851	1.39266
H	269.378	-1.68465	1.73991
H	270.957	-2.51081	2.04281
H	270.282	-2.42684	0.36214
N	272.317	-0.669088	0.587153
C	273.105	0.498338	0.279542
C	274.033	0.153159	-0.869961
O	274.142	-1.00606	-1.26492
H	272.719	-1.54095	0.322275
H	272.451	1.29134	-0.0609043
C	273.916	0.956677	1.51131
H	274.595	0.147152	1.85456
H	274.516	1.8631	1.29117
H	273.217	1.19632	2.34239
N	274.721	1.16064	-1.44223
C	275.623	0.928452	-2.5457
H	274.616	2.09266	-1.1114
H	276.093	1.88086	-2.8767
H	275.08	0.486411	-3.41172
H	276.433	0.2225	-2.24961
