44
  This energy is 0 and Call times are: 169349
C	-0.938611	2.64878	2.05321
C	-0.312295	2.11071	0.824652
O	0.00172586	2.84698	-0.100391
H	-1.06392	3.74858	1.95018
H	-0.294548	2.44137	2.9335
H	-1.93624	2.18639	2.20821
N	-0.116095	0.790663	0.78779
C	0.443409	0.11603	-0.35693
C	-0.102333	-1.29921	-0.385301
O	-0.751261	-1.74303	0.56002
H	-0.41443	0.199459	1.53166
H	0.108573	0.609053	-1.26106
C	1.98623	0.100159	-0.288318
H	2.33039	-0.414821	0.633843
H	2.42946	-0.404444	-1.17118
H	2.36312	1.14587	-0.260425
N	0.142994	-2.04209	-1.48256
C	-0.341131	-3.39771	-1.60136
H	0.666488	-1.66412	-2.23898
H	-0.0367661	-3.84004	-2.57549
H	-1.45302	-3.42482	-1.53628
H	0.0681616	-4.0343	-0.78382
C	846.224	0.433736	-2.05424
C	847.518	0.89027	-1.49759
O	848.106	1.85236	-1.97116
H	845.948	1.07818	-2.91683
H	845.429	0.505167	-1.28273
H	846.307	-0.617248	-2.40296
N	847.997	0.195748	-0.462916
C	849.264	0.493086	0.157728
C	849.818	-0.793048	0.74083
O	849.132	-1.81226	0.783932
H	847.526	-0.609976	-0.114714
H	849.961	0.831493	-0.598321
C	849.1	1.56152	1.26091
H	848.393	1.21048	2.0422
H	850.071	1.80923	1.737
H	848.686	2.49106	0.813053
N	851.085	-0.77678	1.19832
C	851.7	-1.95474	1.76521
H	851.626	0.0564057	1.15115
H	852.744	-1.73968	2.08297
H	851.724	-2.78252	1.0199
H	851.128	-2.30702	2.65411
