44
  This energy is 0 and Call times are: 167501
C	-0.183646	-1.83456	-2.95184
C	-0.64155	-1.52642	-1.57833
O	-1.6739	-2.00781	-1.13232
H	-0.917678	-2.51152	-3.44051
H	0.805227	-2.3385	-2.92155
H	-0.104274	-0.900644	-3.54732
N	0.129389	-0.700534	-0.867035
C	-0.207296	-0.274081	0.468382
C	0.400793	1.09731	0.694382
O	1.18417	1.58094	-0.12056
H	0.945307	-0.284419	-1.25818
H	-1.28191	-0.167731	0.54915
C	0.317835	-1.27878	1.51722
H	1.42148	-1.3803	1.44177
H	0.0528801	-0.968674	2.5488
H	-0.134044	-2.2769	1.32776
N	0.0446586	1.76297	1.81067
C	0.568042	3.07612	2.10711
H	-0.593714	1.35692	2.45617
H	0.156043	3.45598	3.06794
H	0.299564	3.79708	1.30125
H	1.67875	3.04735	2.18862
C	718.837	-2.80972	0.919079
C	717.554	-2.09694	0.727347
O	716.485	-2.6906	0.781811
H	718.635	-3.89022	1.08581
H	719.372	-2.40334	1.80293
H	719.475	-2.69813	0.0172436
N	717.633	-0.785131	0.492271
C	716.474	0.0349438	0.243099
C	716.895	1.19465	-0.63935
O	718.083	1.40259	-0.881165
H	718.511	-0.323505	0.410211
H	715.741	-0.540509	-0.308848
C	715.87	0.553381	1.56667
H	716.618	1.15264	2.12834
H	714.968	1.17484	1.38891
H	715.576	-0.312108	2.19972
N	715.924	1.97672	-1.1507
C	716.23	3.10014	-2.0054
H	714.969	1.79013	-0.947002
H	715.298	3.61741	-2.32358
H	716.773	2.76297	-2.91809
H	716.875	3.83559	-1.47216
