44
  This energy is -6.7042 and Call times are: 185989
C	-0.0152793	-1.81755	2.96799
C	0.246772	-0.580234	2.19889
O	0.500145	0.474666	2.76404
H	0.0438721	-1.59362	4.0553
H	0.741557	-2.59069	2.71861
H	-1.02965	-2.20501	2.73556
N	0.1881	-0.68437	0.869192
C	0.377534	0.441376	-0.0113582
C	-0.411391	0.18614	-1.28179
O	-0.930067	-0.908659	-1.49181
H	-0.0596183	-1.54059	0.424906
H	-0.0341884	1.32982	0.451017
C	1.87419	0.643147	-0.334699
H	2.29447	-0.264153	-0.818649
H	2.03444	1.51551	-1.00091
H	2.43312	0.820355	0.610049
N	-0.527587	1.20141	-2.16028
C	-1.26421	1.05309	-3.3938
H	-0.104314	2.0812	-1.97084
H	-1.24445	1.99835	-3.97974
H	-2.32718	0.790855	-3.18741
H	-0.824058	0.243212	-4.0195
C	996.999	-3.02905	0.223087
C	996.53	-1.75232	0.806476
O	996.612	-1.53682	2.00777
H	997.384	-3.68411	1.03468
H	997.817	-2.83967	-0.503921
H	996.161	-3.54674	-0.289753
N	996.015	-0.863839	-0.046752
C	995.477	0.404962	0.377015
C	994.402	0.816651	-0.610841
O	994.235	0.192455	-1.65697
H	995.916	-1.07008	-1.01611
H	995	0.286499	1.34202
C	996.586	1.47772	0.448808
H	997.068	1.60716	-0.543469
H	996.187	2.45586	0.787313
H	997.365	1.15184	1.17141
N	993.637	1.88001	-0.295018
C	992.585	2.34154	-1.17117
H	993.784	2.3698	0.557942
H	992.07	3.22629	-0.735783
H	991.828	1.54007	-1.33256
H	992.999	2.63017	-2.16425
