44
  This energy is 0.1808 and Call times are: 187038
C	0.998999	-2.99784	1.45864
C	-0.0475295	-2.05559	1.00249
O	-1.22218	-2.39256	0.947258
H	0.53228	-3.97873	1.6951
H	1.49482	-2.60636	2.37168
H	1.75695	-3.14366	0.660305
N	0.363948	-0.833232	0.657652
C	-0.530869	0.178763	0.153936
C	0.259396	1.09663	-0.7596
O	1.48369	1.01042	-0.833006
H	1.32881	-0.586688	0.669018
H	-1.29935	-0.291033	-0.447194
C	-1.16397	0.981211	1.31174
H	-0.376488	1.472	1.92251
H	-1.86566	1.75449	0.937326
H	-1.7305	0.288449	1.97164
N	-0.428818	1.99747	-1.48821
C	0.237655	2.90884	-2.389
H	-1.41952	2.04935	-1.41832
H	-0.499346	3.56977	-2.89616
H	0.800771	2.34788	-3.1697
H	0.961091	3.55004	-1.83524
C	993.216	-1.04589	2.83036
C	994.434	-1.00113	1.99107
O	995.507	-1.4116	2.41083
H	993.47	-1.47126	3.82535
H	992.445	-1.68646	2.35231
H	992.81	-0.0218542	2.97059
N	994.292	-0.49021	0.765814
C	995.395	-0.341227	-0.150561
C	995.095	0.831521	-1.06504
O	993.989	1.36785	-1.05917
H	993.421	-0.122529	0.453149
H	996.291	-0.095536	0.405793
C	995.606	-1.63037	-0.974574
H	994.691	-1.87705	-1.55371
H	996.461	-1.5331	-1.67418
H	995.816	-2.47668	-0.284686
N	996.084	1.26434	-1.87164
C	995.893	2.37751	-2.77187
H	996.974	0.820162	-1.8592
H	996.822	2.5805	-3.3493
H	995.624	3.29863	-2.20584
H	995.071	2.16303	-3.49302
