44
  This energy is 0 and Call times are: 158009
C	-2.92059	-1.4973	-1.15799
C	-1.70802	-1.48992	-0.309013
O	-1.54878	-2.32092	0.574441
H	-3.58978	-2.32434	-0.835393
H	-2.64233	-1.65416	-2.22133
H	-3.46458	-0.534555	-1.05661
N	-0.812487	-0.532551	-0.561689
C	0.395908	-0.370848	0.207852
C	0.786942	1.09454	0.172013
O	0.207123	1.88307	-0.57213
H	-0.975257	0.161554	-1.2571
H	0.198213	-0.626765	1.24132
C	1.53289	-1.2487	-0.359493
H	1.74327	-0.979363	-1.41649
H	2.46487	-1.14355	0.232862
H	1.22176	-2.31582	-0.330908
N	1.78139	1.49646	0.987826
C	2.21798	2.87272	1.02622
H	2.23579	0.844479	1.58575
H	3.04452	3.0028	1.75912
H	1.3786	3.54296	1.322
H	2.58266	3.19747	0.0248794
C	36.9576	-1.16738	2.56484
C	38.1891	-0.505666	2.07831
O	38.9383	0.0810569	2.84692
H	36.866	-1.01197	3.6618
H	37.0019	-2.25747	2.35877
H	36.0665	-0.732765	2.06469
N	38.4272	-0.585426	0.767083
C	39.5621	0.0447518	0.139792
C	39.1872	0.376323	-1.29238
O	38.1379	-0.0384053	-1.78086
H	37.7869	-1.0314	0.148281
H	39.7743	0.9801	0.642471
C	40.7972	-0.88177	0.175577
H	40.5834	-1.83727	-0.34915
H	41.6815	-0.402361	-0.292124
H	41.0485	-1.11763	1.23271
N	40.039	1.14446	-1.99983
C	39.7634	1.51595	-3.36812
H	40.8811	1.47391	-1.586
H	40.5818	2.14903	-3.77622
H	38.8103	2.08912	-3.43518
H	39.6673	0.610183	-4.00961
