44
  This energy is 0 and Call times are: 158569
C	1.21786	1.27994	-2.99854
C	0.142527	0.674351	-2.1812
O	-1.00798	0.614898	-2.59254
H	0.78902	1.64614	-3.9566
H	2.00102	0.524918	-3.22069
H	1.67317	2.13644	-2.45798
N	0.500037	0.205722	-0.983301
C	-0.442372	-0.372077	-0.0577888
C	0.0742759	-0.140445	1.34968
O	1.20427	0.305026	1.54041
H	1.43239	0.298261	-0.645621
H	-1.38975	0.145471	-0.142891
C	-0.62415	-1.88209	-0.326201
H	0.345591	-2.41513	-0.22866
H	-1.35793	-2.33577	0.371135
H	-0.995148	-2.02829	-1.36415
N	-0.75085	-0.431887	2.3745
C	-0.347734	-0.238763	3.74796
H	-1.66306	-0.787595	2.2001
H	-1.16407	-0.535369	4.44283
H	-0.0974981	0.830267	3.93725
H	0.552848	-0.850988	3.98306
C	78.5683	2.56247	-2.31521
C	79.2925	1.3776	-1.80259
O	80.1492	0.819756	-2.4744
H	78.9243	2.79447	-3.34248
H	78.7591	3.43978	-1.66202
H	77.4774	2.35845	-2.35049
N	78.9563	0.959633	-0.580029
C	79.5425	-0.20471	0.0358377
C	78.5267	-0.793577	0.996546
O	77.4894	-0.190164	1.26414
H	78.2283	1.39933	-0.0618791
H	79.7378	-0.950783	-0.724325
C	80.8441	0.162018	0.781831
H	80.6424	0.919627	1.56885
H	81.3124	-0.728602	1.24873
H	81.5697	0.598273	0.0610716
N	78.8	-1.99862	1.5343
C	77.8898	-2.63979	2.45438
H	79.6426	-2.47329	1.30246
H	78.2921	-3.62272	2.78482
H	76.8998	-2.8104	1.97267
H	77.7302	-2.00503	3.35591
