44
  This energy is -4.7967 and Call times are: 178103
C	-2.16554	-2.15881	1.66212
C	-1.23463	-1.00812	1.64075
O	-1.13835	-0.253935	2.59905
H	-2.71194	-2.17127	2.6302
H	-1.60166	-3.10929	1.55546
H	-2.90149	-2.07107	0.835208
N	-0.518304	-0.84493	0.526017
C	0.397361	0.25302	0.33994
C	0.478376	0.554928	-1.14459
O	-0.0423169	-0.194107	-1.96894
H	-0.63762	-1.44316	-0.261223
H	0.00116655	1.13512	0.82735
C	1.79474	-0.0931737	0.899143
H	2.20615	-0.991851	0.392034
H	2.50522	0.749537	0.774317
H	1.71017	-0.318209	1.98476
N	1.13113	1.67228	-1.52072
C	1.25459	2.0438	-2.91102
H	1.54238	2.26804	-0.838803
H	1.82474	2.99316	-3.01524
H	0.249566	2.18634	-3.37023
H	1.78663	1.25032	-3.48414
C	994.026	-1.07905	3.21707
C	993.873	-1.15036	1.74648
O	993.278	-2.0783	1.21626
H	993.549	-1.96999	3.67967
H	993.535	-0.163758	3.60903
H	995.103	-1.06616	3.48959
N	994.419	-0.15485	1.04404
C	994.39	-0.108036	-0.396615
C	995.61	0.659035	-0.869917
O	996.328	1.25519	-0.0698809
H	994.936	0.572149	1.4872
H	994.469	-1.1144	-0.788424
C	993.096	0.568472	-0.900331
H	993.019	1.6046	-0.507176
H	993.055	0.598183	-2.00847
H	992.216	-0.0050063	-0.535538
N	995.878	0.654194	-2.19055
C	997.021	1.35186	-2.73238
H	995.287	0.162681	-2.82182
H	997.069	1.22849	-3.83675
H	997.966	0.957614	-2.29364
H	996.962	2.4405	-2.50326
