44
  This energy is 0.1096 and Call times are: 180921
C	-1.97538	-2.12965	1.91707
C	-1.70377	-0.816865	1.28941
O	-2.56416	0.0512946	1.24009
H	-3.02705	-2.15431	2.2766
H	-1.29639	-2.28857	2.78106
H	-1.82923	-2.94499	1.1775
N	-0.479945	-0.641884	0.785415
C	-0.0804177	0.565441	0.106222
C	0.99573	0.207307	-0.901349
O	1.49662	-0.915466	-0.915543
H	0.196647	-1.37261	0.796734
H	-0.923239	0.959041	-0.44818
C	0.44527	1.61493	1.10995
H	1.31652	1.21545	1.67153
H	0.743154	2.5543	0.600661
H	-0.355953	1.85594	1.84228
N	1.37203	1.15826	-1.77891
C	2.38485	0.907077	-2.77756
H	0.95227	2.05952	-1.75444
H	2.55324	1.81134	-3.403
H	2.07806	0.0705158	-3.44637
H	3.35037	0.628327	-2.2967
C	994.363	2.21647	-2.65517
C	993.816	1.40966	-1.54076
O	992.665	1.55932	-1.15594
H	993.584	2.92484	-3.01194
H	994.66	1.55553	-3.49637
H	995.245	2.79614	-2.31128
N	994.647	0.522667	-0.987632
C	994.273	-0.303886	0.132924
C	995.527	-0.622476	0.924826
O	996.639	-0.331961	0.487453
H	995.594	0.44111	-1.28481
H	993.613	0.255082	0.784756
C	993.589	-1.60382	-0.34426
H	994.27	-2.18279	-1.00455
H	993.284	-2.24249	0.509885
H	992.679	-1.34644	-0.928056
N	995.375	-1.22406	2.1211
C	996.511	-1.56065	2.94747
H	994.468	-1.44756	2.45994
H	996.18	-2.04816	3.89094
H	997.091	-0.646034	3.21007
H	997.194	-2.25972	2.41189
