44
  This energy is 0.2074 and Call times are: 178022
C	3.26606	1.09536	0.49573
C	2.14882	0.684014	-0.383885
O	2.20213	0.850392	-1.59462
H	4.06808	1.55665	-0.12059
H	3.68215	0.212073	1.02432
H	2.91268	1.83912	1.24074
N	1.09321	0.130173	0.217219
C	-0.0873974	-0.281201	-0.500761
C	-1.27246	-0.181847	0.441214
O	-1.10775	0.0396054	1.63936
H	1.04739	0.0388097	1.20789
H	-0.266317	0.406488	-1.31789
C	0.0637806	-1.72405	-1.03045
H	0.236846	-2.43141	-0.191573
H	-0.833347	-2.04756	-1.59705
H	0.941492	-1.77502	-1.71117
N	-2.50368	-0.336198	-0.0844251
C	-3.69088	-0.252627	0.733955
H	-2.61698	-0.510678	-1.05694
H	-4.60448	-0.40636	0.118385
H	-3.76154	0.746087	1.22268
H	-3.67225	-1.02786	1.53384
C	992.546	-1.67453	-1.87809
C	993.8	-1.6481	-1.09256
O	994.352	-2.6834	-0.746244
H	992.24	-2.73003	-2.0474
H	992.699	-1.18276	-2.86157
H	991.737	-1.15089	-1.32571
N	994.284	-0.441786	-0.787526
C	995.472	-0.255188	0.00762986
C	995.35	1.07023	0.73569
O	994.441	1.85352	0.470217
H	993.801	0.391641	-1.04142
H	995.524	-1.03265	0.759581
C	996.737	-0.272448	-0.878151
H	996.688	0.531701	-1.64303
H	997.659	-0.143567	-0.275791
H	996.801	-1.24827	-1.40729
N	996.267	1.34931	1.68346
C	996.228	2.58385	2.43218
H	996.993	0.701161	1.88697
H	997.065	2.62652	3.16379
H	995.269	2.67413	2.99138
H	996.314	3.46027	1.74976
