44
  This energy is -2.2631 and Call times are: 176837
C	2.10822	-0.516911	-2.72046
C	1.09711	0.278149	-1.98788
O	0.820777	1.41984	-2.32932
H	2.5283	0.0956537	-3.54761
H	1.64106	-1.42816	-3.14956
H	2.93235	-0.811178	-2.03686
N	0.515142	-0.318208	-0.944781
C	-0.455992	0.342977	-0.109142
C	-0.374698	-0.261748	1.27983
O	0.304111	-1.26486	1.49125
H	0.780193	-1.2332	-0.654249
H	-0.196771	1.39063	-0.02051
C	-1.87969	0.184299	-0.686319
H	-2.15015	-0.890079	-0.76759
H	-2.63491	0.700888	-0.0591803
H	-1.91375	0.626564	-1.70592
N	-1.06364	0.344142	2.26689
C	-1.04176	-0.15657	3.62151
H	-1.60397	1.15723	2.07716
H	-1.66944	0.477803	4.28545
H	-0.00203517	-0.161247	4.02179
H	-1.43176	-1.19938	3.66144
C	995.273	-2.8663	-1.41876
C	994.914	-1.43102	-1.46857
O	995.332	-0.704686	-2.35975
H	995.949	-3.10567	-2.2683
H	994.359	-3.49207	-1.49905
H	995.796	-3.09713	-0.467023
N	994.119	-0.983685	-0.493408
C	993.719	0.397073	-0.383657
C	993.472	0.702796	1.08157
O	993.461	-0.196954	1.91944
H	993.821	-1.5779	0.247876
H	994.533	1.03183	-0.712766
C	992.448	0.670868	-1.21615
H	991.61	0.0274111	-0.871951
H	992.137	1.7339	-1.15094
H	992.649	0.4328	-2.28338
N	993.275	1.99041	1.4271
C	993.038	2.37728	2.79827
H	993.292	2.70487	0.735489
H	992.9	3.47817	2.87811
H	993.897	2.08368	3.44371
H	992.123	1.87987	3.19419
