44
  This energy is 0 and Call times are: 164057
C	-2.77265	1.16544	-1.75124
C	-2.08013	0.137741	-0.941678
O	-2.68788	-0.815677	-0.474723
H	-3.85377	0.914756	-1.81623
H	-2.34826	1.19476	-2.77681
H	-2.66309	2.16372	-1.27741
N	-0.770276	0.314134	-0.753149
C	0.0305551	-0.578174	0.0474848
C	1.18528	0.215638	0.628879
O	1.40677	1.36736	0.259821
H	-0.297512	1.11686	-1.10527
H	-0.561629	-0.941557	0.878088
C	0.556468	-1.75762	-0.799612
H	1.17278	-1.38585	-1.64577
H	1.16316	-2.45927	-0.191229
H	-0.305333	-2.31949	-1.22145
N	1.94758	-0.383661	1.56471
C	3.06476	0.295764	2.17827
H	1.7502	-1.31468	1.85336
H	3.56516	-0.362726	2.92206
H	2.72419	1.21901	2.70067
H	3.81547	0.590888	1.40985
C	474.383	0.193558	0.794269
C	473.092	0.81945	0.429805
O	472.936	2.03105	0.493189
H	475.094	0.982723	1.12137
H	474.812	-0.336452	-0.0818742
H	474.238	-0.526645	1.62687
N	472.122	-0.00827019	0.0354392
C	470.798	0.448132	-0.309778
C	469.82	-0.673276	-0.0161811
O	470.22	-1.79683	0.281914
H	472.251	-0.995702	0.0281978
H	470.532	1.2836	0.325404
C	470.726	0.854452	-1.79802
H	470.989	-0.005264	-2.45039
H	469.715	1.2208	-2.07283
H	471.456	1.67058	-1.99169
N	468.504	-0.389404	-0.0860964
C	467.499	-1.39162	0.182242
H	468.199	0.526662	-0.324907
H	466.478	-0.963803	0.073572
H	467.605	-1.7865	1.21863
H	467.598	-2.24679	-0.524856
