44
  This energy is -2.0431 and Call times are: 179689
C	0.567499	-3.28103	-1.01266
C	0.94853	-1.85202	-0.950256
O	2.05768	-1.47662	-1.3042
H	1.42741	-3.87416	-1.39296
H	-0.294718	-3.41759	-1.69872
H	0.296406	-3.64934	-0.000755144
N	0.0210709	-1.01018	-0.488197
C	0.258963	0.402825	-0.328852
C	-0.621961	0.906552	0.798882
O	-1.48737	0.185743	1.29206
H	-0.862896	-1.33624	-0.165474
H	1.28768	0.560368	-0.029582
C	-0.0472906	1.16479	-1.63685
H	-1.10541	1.01205	-1.93865
H	0.145269	2.25211	-1.53115
H	0.603008	0.774361	-2.44989
N	-0.414473	2.1625	1.24112
C	-1.20055	2.72563	2.31403
H	0.293265	2.72908	0.832254
H	-0.878575	3.76768	2.53241
H	-1.08666	2.12161	3.24326
H	-2.28104	2.74179	2.04305
C	996.606	-2.07661	-1.23328
C	995.299	-1.39287	-1.36172
O	994.708	-1.3533	-2.43191
H	996.906	-2.48437	-2.22302
H	996.53	-2.91363	-0.507742
H	997.381	-1.35933	-0.890188
N	994.814	-0.827895	-0.253842
C	993.575	-0.0904627	-0.231799
C	993.665	0.952376	0.866372
O	994.603	0.95116	1.66075
H	995.326	-0.833215	0.600227
H	993.457	0.437993	-1.1696
C	992.376	-1.03284	0.0131718
H	992.492	-1.56737	0.980145
H	991.415	-0.478793	0.0185348
H	992.335	-1.79232	-0.79788
N	992.688	1.87806	0.931094
C	992.692	2.91273	1.93887
H	991.939	1.86518	0.276917
H	991.806	3.57565	1.82584
H	993.611	3.53799	1.85579
H	992.669	2.46722	2.95971
