44
  This energy is 0 and Call times are: 166325
C	2.96746	-0.610589	1.7129
C	2.21393	-0.332945	0.469423
O	2.79119	-0.0394918	-0.568391
H	4.05506	-0.487025	1.51863
H	2.77867	-1.65132	2.05051
H	2.66231	0.097987	2.51158
N	0.884062	-0.41899	0.549655
C	0.0145376	-0.135227	-0.56478
C	-1.30967	0.362457	-0.0167425
O	-1.55226	0.310669	1.18749
H	0.426784	-0.618839	1.41153
H	0.440779	0.666051	-1.15546
C	-0.197862	-1.39445	-1.43339
H	-0.644893	-2.21338	-0.830437
H	-0.854573	-1.1854	-2.30262
H	0.784873	-1.74564	-1.81712
N	-2.19927	0.867489	-0.893996
C	-3.4833	1.36989	-0.463828
H	-1.98323	0.904779	-1.86405
H	-4.07074	1.74231	-1.33183
H	-3.35506	2.20853	0.258319
H	-4.07069	0.567949	0.0391797
C	634.09	-3.27507	0.444434
C	633.562	-1.9952	0.967559
O	633.146	-1.90357	2.11434
H	634.015	-4.05381	1.2342
H	635.156	-3.15915	0.15464
H	633.501	-3.60034	-0.438468
N	633.565	-0.962085	0.121956
C	633.043	0.335298	0.472478
C	632.547	1.00418	-0.795828
O	632.776	0.511053	-1.89862
H	633.868	-1.06263	-0.821172
H	632.189	0.211888	1.12687
C	634.126	1.20036	1.15311
H	634.998	1.33605	0.478127
H	633.732	2.19693	1.44035
H	634.48	0.6879	2.07435
N	631.844	2.14674	-0.666604
C	631.328	2.85077	-1.81718
H	631.666	2.52813	0.23437
H	630.779	3.76606	-1.50432
H	630.629	2.20227	-2.39326
H	632.157	3.15413	-2.49699
