44
  This energy is 0 and Call times are: 167361
C	-1.48237	-1.10996	-2.94674
C	-1.3415	-1.12362	-1.47327
O	-2.16009	-1.69266	-0.764384
H	-2.40771	-1.65593	-3.23231
H	-0.610339	-1.60904	-3.4192
H	-1.55384	-0.0646729	-3.31465
N	-0.282241	-0.483702	-0.972426
C	-0.0339937	-0.373674	0.443493
C	0.738356	0.908609	0.690034
O	1.18582	1.56467	-0.248621
H	0.35306	0.00958132	-1.55974
H	-0.978458	-0.286909	0.966075
C	0.761061	-1.5926	0.960559
H	1.73466	-1.67593	0.43217
H	0.946567	-1.5264	2.05222
H	0.180719	-2.52014	0.762523
N	0.905997	1.30168	1.96809
C	1.62256	2.51129	2.2991
H	0.533048	0.759694	2.7139
H	1.65224	2.66181	3.40077
H	1.13079	3.39798	1.83735
H	2.67021	2.46284	1.92328
C	706.996	-0.460646	-3.44972
C	706.586	-0.851923	-2.08223
O	705.718	-1.69351	-1.89818
H	706.391	-1.02649	-4.19069
H	708.07	-0.694667	-3.60911
H	706.828	0.626217	-3.6033
N	707.212	-0.236766	-1.07618
C	706.892	-0.480395	0.308262
C	707.206	0.778265	1.0949
O	707.804	1.71587	0.5706
H	707.888	0.475674	-1.24204
H	705.829	-0.662763	0.402271
C	707.698	-1.67776	0.858368
H	708.788	-1.48672	0.771826
H	707.45	-1.88416	1.91972
H	707.458	-2.58576	0.262906
N	706.799	0.831166	2.37851
C	707.048	1.99039	3.2033
H	706.313	0.0641348	2.78391
H	706.637	1.84123	4.22592
H	706.572	2.89587	2.76248
H	708.142	2.18339	3.28987
