44
  This energy is 0.1028 and Call times are: 187199
C	-2.78824	1.1184	-1.75715
C	-2.08404	0.107157	-0.937008
O	-2.68171	-0.845861	-0.456433
H	-3.86722	0.857127	-1.81574
H	-2.36714	1.13882	-2.78428
H	-2.6864	2.12344	-1.29606
N	-0.775298	0.297754	-0.754649
C	0.0359583	-0.577239	0.054555
C	1.1851	0.234177	0.622565
O	1.39501	1.38318	0.23859
H	-0.310894	1.1003	-1.11813
H	-0.550467	-0.935633	0.891389
C	0.57012	-1.76229	-0.779447
H	1.18055	-1.39549	-1.63201
H	1.18495	-2.4508	-0.164253
H	-0.287754	-2.33716	-1.19167
N	1.95555	-0.346511	1.56344
C	3.06828	0.35059	2.16515
H	1.76749	-1.27562	1.86421
H	3.57682	-0.294043	2.91552
H	2.72083	1.27713	2.67709
H	3.81402	0.642943	1.39085
C	998.122	0.0156244	-2.49938
C	997.699	-0.191824	-1.09621
O	998.439	-0.730315	-0.284722
H	999.143	-0.399661	-2.64002
H	998.139	1.09991	-2.7377
H	997.425	-0.503668	-3.19021
N	996.475	0.23677	-0.775812
C	995.908	0.0665267	0.538435
C	994.4	-0.0180152	0.394937
O	993.855	0.220834	-0.681203
H	995.869	0.636187	-1.45746
H	996.245	-0.874557	0.954286
C	996.299	1.23914	1.4644
H	995.943	2.20377	1.04346
H	995.879	1.11271	2.48342
H	997.406	1.28685	1.54846
N	993.687	-0.370798	1.4828
C	992.248	-0.482539	1.43977
H	994.146	-0.56417	2.34368
H	991.847	-0.783509	2.43269
H	991.935	-1.24495	0.689875
H	991.786	0.490776	1.15544
