44
  This energy is -2.8969 and Call times are: 179469
C	-2.04418	-1.03204	-2.62086
C	-1.04482	-0.112541	-2.03184
O	-0.454255	0.706755	-2.72205
H	-2.11564	-0.845127	-3.7144
H	-3.04009	-0.860263	-2.16108
H	-1.738	-2.0866	-2.4558
N	-0.828962	-0.232281	-0.719797
C	0.144055	0.562636	-0.0127569
C	0.637496	-0.240711	1.17582
O	0.0929624	-1.29677	1.49196
H	-1.28754	-0.931543	-0.178865
H	0.995704	0.741329	-0.657268
C	-0.470965	1.8998	0.455211
H	-1.33823	1.71706	1.1249
H	0.272241	2.52694	0.988938
H	-0.832408	2.46725	-0.430057
N	1.69335	0.240715	1.86096
C	2.23576	-0.458004	3.00279
H	2.12317	1.09484	1.58745
H	3.10036	0.0969136	3.4291
H	2.5818	-1.47635	2.7121
H	1.46386	-0.569694	3.79831
C	990.491	0.779665	-0.473019
C	991.875	0.618965	-0.973919
O	992.12	0.636547	-2.17219
H	989.799	0.888296	-1.33575
H	990.418	1.68645	0.163419
H	990.192	-0.111703	0.117853
N	992.825	0.453611	-0.0505518
C	994.211	0.241841	-0.385538
C	994.846	-0.576186	0.723203
O	994.238	-0.800515	1.76782
H	992.604	0.400538	0.919144
H	994.273	-0.343427	-1.29448
C	994.949	1.58766	-0.556187
H	994.894	2.18397	0.379474
H	996.014	1.43811	-0.827887
H	994.463	2.17278	-1.36699
N	996.09	-1.05078	0.51617
C	996.772	-1.84362	1.51234
H	996.565	-0.862179	-0.33722
H	997.783	-2.13903	1.15513
H	996.196	-2.76992	1.73904
H	996.889	-1.26907	2.45968
