44
  This energy is 0 and Call times are: 162293
C	-0.230461	3.46968	0.144597
C	0.464098	2.22529	-0.255687
O	1.41326	2.2502	-1.02697
H	0.239609	4.33493	-0.371397
H	-0.148403	3.61775	1.24191
H	-1.30203	3.41907	-0.142249
N	-0.00397754	1.08977	0.267641
C	0.540453	-0.204154	-0.0608792
C	-0.56468	-1.2332	0.0850445
O	-1.6456	-0.929754	0.586293
H	-0.803128	1.08149	0.861911
H	0.850208	-0.208403	-1.0985
C	1.72978	-0.552441	0.860774
H	1.41009	-0.558558	1.92463
H	2.16654	-1.54049	0.608722
H	2.52289	0.217984	0.743443
N	-0.319854	-2.48116	-0.360705
C	-1.31366	-3.52522	-0.268726
H	0.559451	-2.7065	-0.767047
H	-0.922859	-4.47823	-0.688568
H	-2.2321	-3.2441	-0.833268
H	-1.60145	-3.7015	0.792992
C	344.541	2.89995	-1.86872
C	344.191	1.50428	-1.52139
O	343.172	0.981139	-1.95246
H	343.748	3.32592	-2.5215
H	345.508	2.92766	-2.41313
H	344.617	3.51576	-0.947864
N	345.041	0.861329	-0.718085
C	344.814	-0.486067	-0.258201
C	345.492	-0.6463	1.08971
O	346.237	0.228085	1.52801
H	345.845	1.31396	-0.34234
H	343.753	-0.637356	-0.105756
C	345.368	-1.51456	-1.26838
H	346.459	-1.36653	-1.41715
H	345.187	-2.55606	-0.932232
H	344.864	-1.37365	-2.2494
N	345.24	-1.7722	1.78614
C	345.835	-2.00945	3.08046
H	344.631	-2.46641	1.41678
H	345.506	-2.98908	3.49141
H	345.542	-1.211	3.80003
H	346.947	-2.01624	3.00641
