44
  This energy is -7.1907 and Call times are: 177468
C	-0.0599137	1.97642	-2.86406
C	0.327141	0.746214	-2.13748
O	0.782613	-0.222152	-2.73012
H	0.118101	1.83189	-3.95186
H	0.547704	2.83625	-2.5116
H	-1.13673	2.19385	-2.70192
N	0.148879	0.757487	-0.814425
C	0.438563	-0.380317	0.0222628
C	-0.477529	-0.324572	1.23025
O	-1.17254	0.665925	1.44841
H	-0.261113	1.53813	-0.351423
H	0.205303	-1.28947	-0.517786
C	1.91836	-0.377531	0.464332
H	2.15547	0.550168	1.02753
H	2.15737	-1.25623	1.0978
H	2.57034	-0.410669	-0.435765
N	-0.505662	-1.39856	2.04374
C	-1.35097	-1.43828	3.21424
H	0.0608406	-2.19229	1.84843
H	-1.23289	-2.40477	3.75199
H	-2.422	-1.32432	2.92932
H	-1.09052	-0.61261	3.91537
C	996.701	2.74605	1.8023
C	995.687	2.07181	0.959958
O	994.574	2.5536	0.801144
H	996.265	3.67621	2.22745
H	997.59	3.01173	1.19255
H	997.01	2.08045	2.63567
N	996.057	0.920472	0.394049
C	995.166	0.127948	-0.41711
C	995.587	-1.32488	-0.300326
O	996.636	-1.63347	0.263315
H	996.952	0.520375	0.565791
H	994.161	0.204971	-0.0234144
C	995.208	0.58682	-1.89121
H	996.237	0.498041	-2.29874
H	994.516	-0.00672374	-2.52355
H	994.904	1.65465	-1.95181
N	994.769	-2.25721	-0.827106
C	995.085	-3.66506	-0.758918
H	993.923	-1.98832	-1.27568
H	994.29	-4.27032	-1.24752
H	995.176	-3.99628	0.300926
H	996.051	-3.87658	-1.27102
