44
  This energy is 0.124 and Call times are: 187271
C	2.07439	0.9627	2.62351
C	1.42338	1.21249	1.31778
O	1.44035	2.32255	0.804085
H	2.51666	1.91035	3.00067
H	2.88196	0.209163	2.51058
H	1.32782	0.596637	3.35953
N	0.82297	0.166981	0.744364
C	0.110702	0.264288	-0.505342
C	-0.978418	-0.7918	-0.512481
O	-1.02933	-1.64994	0.366565
H	0.782388	-0.720652	1.19417
H	-0.375874	1.22986	-0.564949
C	1.06638	0.0646443	-1.70203
H	1.55786	-0.93007	-1.647
H	0.532333	0.151063	-2.67045
H	1.85956	0.843318	-1.67214
N	-1.88585	-0.747475	-1.50778
C	-2.96133	-1.70779	-1.59347
H	-1.83055	-0.0430701	-2.20766
H	-3.60074	-1.50403	-2.48052
H	-3.60121	-1.66321	-0.682516
H	-2.55817	-2.74258	-1.68186
C	997.287	-2.55656	-1.87367
C	997.087	-1.82789	-0.600842
O	997.483	-2.28821	0.461128
H	997.804	-3.51929	-1.66838
H	997.912	-1.95371	-2.56551
H	996.308	-2.76914	-2.35115
N	996.455	-0.654942	-0.681684
C	996.149	0.148657	0.475549
C	994.901	0.957551	0.173335
O	994.428	0.985561	-0.961249
H	996.102	-0.312691	-1.54796
H	995.917	-0.500923	1.31053
C	997.328	1.08243	0.826164
H	997.559	1.75626	-0.0263241
H	997.11	1.69657	1.72386
H	998.232	0.469511	1.03572
N	994.332	1.63206	1.1914
C	993.139	2.42423	0.999795
H	994.727	1.59386	2.10334
H	992.826	2.90034	1.95492
H	992.3	1.78918	0.632911
H	993.318	3.22791	0.249186
