44
  This energy is 0 and Call times are: 162629
C	-1.25865	1.28759	2.97836
C	-0.252638	1.25933	1.89287
O	0.58241	2.14616	1.7805
H	-1.11366	2.20471	3.58971
H	-1.1415	0.39775	3.63197
H	-2.28322	1.29928	2.55035
N	-0.313317	0.222207	1.05437
C	0.570572	0.0788196	-0.0755594
C	-0.156433	-0.711074	-1.14751
O	-1.23677	-1.24808	-0.910424
H	-1.02446	-0.470437	1.13433
H	0.786648	1.05713	-0.486478
C	1.87644	-0.637475	0.332937
H	1.65608	-1.64537	0.7448
H	2.57127	-0.741591	-0.52549
H	2.38755	-0.0460096	1.12368
N	0.419947	-0.793147	-2.36286
C	-0.200886	-1.51884	-3.44643
H	1.29237	-0.348486	-2.5367
H	0.426824	-1.46944	-4.36336
H	-1.20174	-1.09056	-3.68338
H	-0.339575	-2.59001	-3.1735
C	369.34	3.33073	0.950413
C	368.585	2.05845	0.907241
O	367.588	1.89056	1.59584
H	368.862	4.01692	1.68296
H	369.335	3.81282	-0.0497449
H	370.388	3.1429	1.26488
N	369.053	1.11775	0.0838706
C	368.451	-0.186751	-0.0346637
C	369.533	-1.17295	-0.432394
O	370.653	-0.782397	-0.755785
H	369.889	1.2542	-0.439641
H	368.073	-0.494977	0.932241
C	367.316	-0.177142	-1.08169
H	367.705	0.128831	-2.07618
H	366.835	-1.17262	-1.17221
H	366.539	0.557058	-0.774395
N	369.223	-2.48421	-0.40922
C	370.19	-3.49591	-0.76641
H	368.313	-2.78105	-0.140831
H	369.745	-4.51191	-0.684311
H	371.077	-3.44651	-0.0938083
H	370.542	-3.35078	-1.81332
