44
  This energy is 0 and Call times are: 160305
C	3.43712	0.539741	-0.0869876
C	2.22426	-0.205325	-0.493159
O	2.259	-1.02461	-1.40089
H	4.28872	0.235692	-0.733677
H	3.68966	0.312709	0.970095
H	3.27143	1.63183	-0.200888
N	1.10526	0.0696709	0.181081
C	-0.162868	-0.542851	-0.127519
C	-1.26345	0.42481	0.264784
O	-1.00764	1.44493	0.901681
H	1.08365	0.768759	0.890077
H	-0.234525	-0.696465	-1.19705
C	-0.326092	-1.88213	0.624098
H	-0.263194	-1.72357	1.7218
H	-1.29279	-2.37039	0.384041
H	0.494294	-2.57167	0.327701
N	-2.52157	0.128835	-0.116729
C	-3.6326	0.993334	0.206452
H	-2.70821	-0.699145	-0.635082
H	-4.58347	0.57824	-0.19451
H	-3.48124	2.00722	-0.229897
H	-3.7361	1.10442	1.31012
C	200.339	-2.1949	-0.464261
C	201.633	-1.82803	0.153467
O	202.101	-2.479	1.07769
H	199.923	-3.08511	0.0557322
H	200.483	-2.44031	-1.53746
H	199.619	-1.355	-0.37083
N	202.249	-0.756609	-0.35145
C	203.494	-0.251974	0.173037
C	203.545	1.24223	-0.084579
O	202.702	1.78786	-0.794239
H	201.837	-0.212847	-1.07659
H	203.514	-0.395114	1.24623
C	204.698	-0.956741	-0.489382
H	204.684	-0.801347	-1.58925
H	205.662	-0.586677	-0.0839433
H	204.636	-2.04972	-0.294723
N	204.537	1.94381	0.497467
C	204.662	3.37098	0.313898
H	205.207	1.48526	1.07163
H	205.54	3.7639	0.872787
H	203.75	3.89558	0.680138
H	204.793	3.61858	-0.764358
