44
  This energy is -2.1858 and Call times are: 177301
C	0.839216	3.3349	0.535592
C	0.9313	1.89712	0.875382
O	1.76801	1.48623	1.66753
H	1.62704	3.89359	1.08612
H	-0.154885	3.73417	0.827287
H	0.990532	3.48089	-0.554766
N	0.0588015	1.08739	0.270841
C	0.0532389	-0.340855	0.467395
C	-0.492935	-0.989301	-0.790686
O	-0.991032	-0.308192	-1.68495
H	-0.589519	1.43107	-0.402536
H	1.07117	-0.688071	0.593415
C	-0.805794	-0.725906	1.69175
H	-1.8527	-0.37917	1.5583
H	-0.806802	-1.82207	1.8619
H	-0.392621	-0.233968	2.59929
N	-0.403602	-2.33008	-0.892398
C	-0.891586	-3.03411	-2.05533
H	0.00644156	-2.86371	-0.160153
H	-0.727306	-4.12914	-1.94977
H	-0.364878	-2.68765	-2.97392
H	-1.9823	-2.85479	-2.19438
C	997.641	3.13331	1.10105
C	997.568	1.66129	1.23913
O	998.26	1.06717	2.05423
H	998.396	3.5322	1.81228
H	996.654	3.58828	1.3318
H	997.941	3.40641	0.0673995
N	996.715	1.03051	0.429095
C	996.565	-0.403339	0.416597
C	996.13	-0.821348	-0.975539
O	995.808	0.0187177	-1.81362
H	996.188	1.52368	-0.257428
H	997.526	-0.864673	0.606671
C	995.528	-0.858822	1.46697
H	994.539	-0.394059	1.26623
H	995.414	-1.96216	1.47672
H	995.863	-0.535384	2.47687
N	996.119	-2.13899	-1.25786
C	995.726	-2.63025	-2.5578
H	996.387	-2.80333	-0.567908
H	995.783	-3.74053	-2.59255
H	996.392	-2.21991	-3.35103
H	994.68	-2.32543	-2.79309
