44
  This energy is -10.5099 and Call times are: 181870
C	1.94693	2.52425	1.39653
C	0.883728	2.0546	0.47993
O	0.134897	2.84448	-0.0784213
H	1.9045	3.63264	1.47097
H	2.94445	2.228	1.00931
H	1.79946	2.09025	2.40796
N	0.792082	0.734312	0.304353
C	-0.218886	0.124949	-0.523403
C	-0.502781	-1.2624	0.0208504
O	0.202316	-1.7495	0.902489
H	1.38242	0.101754	0.797542
H	-1.13585	0.695737	-0.445865
C	0.246543	0.0449663	-1.99385
H	1.1815	-0.54939	-2.07528
H	-0.52884	-0.409802	-2.64384
H	0.456138	1.07057	-2.36876
N	-1.55521	-1.93124	-0.490107
C	-1.90528	-3.25486	-0.0300522
H	-2.11645	-1.51888	-1.20006
H	-2.7995	-3.63553	-0.571052
H	-2.13363	-3.24408	1.06037
H	-1.06395	-3.9652	-0.19957
C	993.427	-2.91207	0.700613
C	993.702	-1.47206	0.906225
O	992.937	-0.7678	1.55113
H	992.467	-3.17682	1.19287
H	994.24	-3.52384	1.14601
H	993.349	-3.13558	-0.384266
N	994.818	-0.995321	0.350358
C	995.197	0.393534	0.427313
C	996.021	0.727827	-0.802101
O	996.397	-0.157446	-1.56786
H	995.409	-1.57199	-0.206168
H	994.307	1.0091	0.396256
C	996.005	0.674424	1.71318
H	996.924	0.0508215	1.74047
H	996.291	1.7434	1.79092
H	995.386	0.415195	2.59965
N	996.314	2.02413	-1.02466
C	997.088	2.43781	-2.17183
H	995.997	2.72653	-0.395907
H	997.222	3.54202	-2.17849
H	996.579	2.14083	-3.11714
H	998.096	1.96237	-2.15847
