44
  This energy is 0 and Call times are: 163189
C	-2.39838	1.7995	-1.767
C	-1.09621	1.69864	-1.07034
O	-0.266141	2.59389	-1.14729
H	-2.44051	2.75718	-2.32999
H	-3.22902	1.77872	-1.03056
H	-2.51659	0.957359	-2.48108
N	-0.885386	0.585101	-0.364674
C	0.349604	0.324147	0.331933
C	0.546434	-1.17863	0.39892
O	-0.34934	-1.9471	0.0543135
H	-1.55409	-0.152674	-0.344976
H	1.17461	0.73242	-0.238424
C	0.320638	0.930293	1.75214
H	-0.519205	0.503959	2.34116
H	1.27138	0.748049	2.2938
H	0.167698	2.02921	1.6791
N	1.7356	-1.63446	0.839524
C	2.0159	-3.04833	0.932172
H	2.44953	-0.997111	1.10998
H	3.0458	-3.22079	1.3153
H	1.92818	-3.53247	-0.067421
H	1.29697	-3.54721	1.62167
C	406.85	1.22621	-2.44682
C	407.214	0.989317	-1.03171
O	406.595	1.52278	-0.121142
H	405.995	1.93511	-2.49237
H	406.552	0.272111	-2.93019
H	407.71	1.66513	-2.99491
N	408.246	0.170978	-0.813403
C	408.745	-0.122015	0.507289
C	410.224	-0.440072	0.394781
O	410.756	-0.579893	-0.7047
H	408.766	-0.22338	-1.56608
H	408.651	0.760052	1.12838
C	407.982	-1.30949	1.1341
H	408.086	-2.21745	0.502689
H	408.347	-1.53603	2.15673
H	406.9	-1.05771	1.19932
N	410.927	-0.553981	1.53832
C	412.341	-0.849383	1.5295
H	410.48	-0.433379	2.41828
H	412.739	-0.901996	2.56713
H	412.904	-0.0612327	0.978435
H	412.536	-1.82576	1.02949
