44
  This energy is -2.4713 and Call times are: 174516
C	-2.60447	2.30309	-0.158784
C	-1.23982	1.85251	-0.513547
O	-0.592128	2.41915	-1.38293
H	-2.88564	3.16485	-0.802357
H	-2.63786	2.62236	0.904089
H	-3.33311	1.48091	-0.320632
N	-0.766895	0.802927	0.162542
C	0.526825	0.223395	-0.100117
C	0.468063	-1.24863	0.262175
O	-0.507438	-1.71461	0.847809
H	-1.32179	0.326845	0.838785
H	0.737915	0.286467	-1.16035
C	1.62717	0.938042	0.714604
H	1.41662	0.864542	1.80286
H	2.62998	0.509962	0.510556
H	1.64673	2.01511	0.439117
N	1.51532	-2.02105	-0.0880428
C	1.54557	-3.43398	0.210107
H	2.29375	-1.62663	-0.565073
H	2.48916	-3.89351	-0.158248
H	0.688967	-3.9561	-0.274548
H	1.47744	-3.60539	1.3088
C	994.901	-2.89155	-1.78555
C	994.414	-1.49559	-1.71061
O	994.233	-0.833121	-2.72293
H	995.066	-3.16638	-2.85004
H	994.15	-3.58261	-1.34809
H	995.86	-2.99234	-1.23565
N	994.19	-1.01003	-0.487305
C	993.756	0.344562	-0.252192
C	994.265	0.774437	1.11082
O	994.783	-0.0378977	1.87447
H	994.381	-1.54788	0.328834
H	994.21	0.997776	-0.986807
C	992.216	0.44898	-0.312947
H	991.75	-0.213044	0.447614
H	991.87	1.48983	-0.1472
H	991.866	0.122048	-1.31617
N	994.135	2.07334	1.44555
C	994.596	2.57527	2.7193
H	993.717	2.71635	0.812644
H	994.4	3.66685	2.80574
H	995.69	2.40499	2.83624
H	994.074	2.05808	3.55713
