44
  This energy is -3.035 and Call times are: 183134
C	1.51222	-2.97747	0.980083
C	1.23252	-1.9269	-0.0245217
O	1.85493	-1.87513	-1.07635
H	2.33747	-3.62587	0.61344
H	0.60893	-3.60246	1.14189
H	1.81876	-2.51516	1.94206
N	0.274257	-1.05024	0.284622
C	-0.0809662	0.0530205	-0.572806
C	-0.610884	1.17692	0.297587
O	-0.83229	0.996499	1.49347
H	-0.195287	-1.08086	1.16238
H	0.808675	0.420996	-1.06855
C	-1.14181	-0.37426	-1.61073
H	-2.05869	-0.741972	-1.10265
H	-1.41353	0.462935	-2.28586
H	-0.735471	-1.20278	-2.23106
N	-0.819664	2.37389	-0.285264
C	-1.31714	3.50344	0.464942
H	-0.630742	2.50159	-1.25329
H	-1.42134	4.39588	-0.190733
H	-0.621892	3.7592	1.2971
H	-2.31404	3.27395	0.906158
C	996.906	-1.97656	1.62925
C	995.856	-0.933274	1.62969
O	995.381	-0.513846	2.67598
H	997.128	-2.27487	2.67695
H	997.835	-1.5849	1.1629
H	996.559	-2.86908	1.06738
N	995.463	-0.486166	0.434636
C	994.421	0.49645	0.272586
C	993.755	0.262871	-1.07059
O	994.23	-0.532652	-1.87887
H	995.83	-0.866612	-0.40944
H	993.667	0.3473	1.03608
C	994.995	1.92802	0.350705
H	995.76	2.08494	-0.439058
H	994.2	2.69385	0.241178
H	995.484	2.07388	1.3386
N	992.627	0.949998	-1.33736
C	991.922	0.788808	-2.58733
H	992.256	1.58617	-0.669109
H	991.019	1.43857	-2.61624
H	991.597	-0.268398	-2.72144
H	992.577	1.06014	-3.44642
