44
  This energy is 0 and Call times are: 159885
C	-2.84478	1.90363	0.629352
C	-1.46511	1.753	0.114622
O	-0.940917	2.63045	-0.557468
H	-3.25944	2.8774	0.28917
H	-2.84364	1.88164	1.73942
H	-3.48843	1.08477	0.244281
N	-0.837657	0.615553	0.422688
C	0.491708	0.3065	-0.041894
C	0.617426	-1.20174	-0.146612
O	-0.261333	-1.93918	0.295742
H	-1.29222	-0.106692	0.936107
H	0.625316	0.711213	-1.03738
C	1.55819	0.873212	0.920751
H	1.42808	0.450274	1.93969
H	2.5863	0.653776	0.566684
H	1.44229	1.97701	0.988148
N	1.71765	-1.69732	-0.74655
C	1.92106	-3.11938	-0.896739
H	2.41579	-1.0846	-1.10186
H	2.88317	-3.32645	-1.41508
H	1.0968	-3.57321	-1.49333
H	1.94356	-3.62044	0.0980345
C	170.596	-1.5807	-1.95786
C	171.009	-0.542027	-0.98764
O	170.263	0.381604	-0.692772
H	169.575	-1.34809	-2.33225
H	170.58	-2.57719	-1.46847
H	171.298	-1.60215	-2.81794
N	172.23	-0.67211	-0.463295
C	172.789	0.282669	0.461368
C	174.297	0.265955	0.304678
O	174.85	-0.58918	-0.384973
H	172.841	-1.40665	-0.744049
H	172.448	1.27629	0.19812
C	172.391	-0.0588552	1.9142
H	172.75	-1.07398	2.18825
H	172.804	0.677006	2.63451
H	171.283	-0.0486293	2.00364
N	175.003	1.22301	0.939331
C	176.442	1.28988	0.843874
H	174.538	1.90879	1.48947
H	176.836	2.14588	1.43488
H	176.76	1.42004	-0.216022
H	176.906	0.353582	1.23073
