44
  This energy is 0.9614 and Call times are: 178377
C	-0.745934	-0.800234	-3.30392
C	0.205401	-0.670832	-2.17726
O	1.33471	-1.136	-2.24576
H	-0.263821	-1.36948	-4.12819
H	-1.03219	0.20429	-3.68039
H	-1.6562	-1.3449	-2.97553
N	-0.239409	-0.0263106	-1.09601
C	0.555353	0.141459	0.0951132
C	-0.385074	0.235656	1.28182
O	-1.59968	0.331655	1.11679
H	-1.17479	0.310945	-1.03957
H	1.17108	-0.737399	0.240447
C	1.43369	1.40811	-0.00159974
H	0.801884	2.31126	-0.140139
H	2.06071	1.54082	0.903806
H	2.10808	1.32078	-0.881324
N	0.158357	0.201632	2.51452
C	-0.658515	0.279705	3.70314
H	1.14297	0.119447	2.6279
H	-0.0271689	0.235248	4.61782
H	-1.38447	-0.56476	3.73699
H	-1.23593	1.23228	3.72137
C	991.994	2.57504	2.27443
C	992.877	1.58516	1.61658
O	994.091	1.62408	1.76195
H	992.615	3.29461	2.85101
H	991.297	2.06322	2.97089
H	991.411	3.13379	1.51241
N	992.275	0.661631	0.863499
C	993.003	-0.341129	0.126792
C	992.183	-0.721143	-1.09188
O	991.029	-0.31918	-1.22473
H	991.289	0.667694	0.721865
H	993.933	0.082903	-0.229751
C	993.275	-1.58214	1.00501
H	992.32	-2.02374	1.3624
H	993.847	-2.3559	0.453302
H	993.869	-1.27915	1.89465
N	992.768	-1.50355	-2.01996
C	992.068	-1.91176	-3.21521
H	993.705	-1.81546	-1.89675
H	992.717	-2.55095	-3.85293
H	991.757	-1.02319	-3.81114
H	991.152	-2.49081	-2.95566
