44
  This energy is 0 and Call times are: 162769
C	2.03623	-0.17114	2.81729
C	1.36164	-0.795524	1.65703
O	1.63223	-1.93558	1.30566
H	2.77668	-0.884862	3.23945
H	1.29253	0.0812711	3.60211
H	2.56669	0.751565	2.50055
N	0.454146	-0.0475717	1.02505
C	-0.253554	-0.501868	-0.14599
C	-0.612547	0.711958	-0.982236
O	-0.446336	1.84918	-0.545421
H	0.274326	0.893234	1.29784
H	0.404008	-1.12166	-0.74273
C	-1.52589	-1.28406	0.247167
H	-2.20563	-0.645315	0.85048
H	-2.07229	-1.65111	-0.645718
H	-1.23999	-2.16317	0.865054
N	-1.10895	0.496387	-2.21639
C	-1.47369	1.59032	-3.08614
H	-1.23239	-0.430963	-2.55382
H	-1.86109	1.20887	-4.05652
H	-0.591894	2.23953	-3.29165
H	-2.26366	2.21967	-2.61601
C	379.611	-1.78774	-2.92282
C	378.994	-1.64999	-1.58436
O	378.153	-2.44546	-1.19046
H	379.172	-2.668	-3.44078
H	380.707	-1.93763	-2.82547
H	379.415	-0.878878	-3.52995
N	379.406	-0.617319	-0.844794
C	378.866	-0.327858	0.460513
C	378.974	1.16696	0.696015
O	379.603	1.8831	-0.0806907
H	380.061	0.0451061	-1.19534
H	377.814	-0.581774	0.476425
C	379.627	-1.10505	1.55676
H	380.705	-0.837017	1.54776
H	379.212	-0.901293	2.56516
H	379.542	-2.19602	1.35989
N	378.351	1.6762	1.777
C	378.394	3.08799	2.07896
H	377.844	1.08138	2.39161
H	377.822	3.30926	3.00686
H	377.953	3.6815	1.2455
H	379.445	3.42679	2.22568
