44
  This energy is 0 and Call times are: 163413
C	2.41688	2.11459	-1.34159
C	1.03276	1.59414	-1.27468
O	0.116179	2.15646	-1.85784
H	2.43181	3.0404	-1.95684
H	3.08657	1.36204	-1.80842
H	2.78512	2.35479	-0.321887
N	0.848419	0.490093	-0.547022
C	-0.448125	-0.109809	-0.352987
C	-0.442939	-0.824952	0.984959
O	0.6002	-0.963822	1.6208
H	1.59719	0.0670946	-0.0447458
H	-1.19794	0.669624	-0.299223
C	-0.775081	-1.09805	-1.49392
H	-0.0118893	-1.90377	-1.54275
H	-1.77683	-1.55624	-1.36326
H	-0.765537	-0.554761	-2.46402
N	-1.61902	-1.29088	1.44947
C	-1.71221	-1.97958	2.71564
H	-2.45307	-1.16527	0.922542
H	-2.76203	-2.28426	2.92125
H	-1.36903	-1.32175	3.54676
H	-1.07557	-2.89381	2.7136
C	424.743	0.00233769	-3.47085
C	424.935	-0.693994	-2.17872
O	424.905	-1.91482	-2.10709
H	424.566	-0.749413	-4.27052
H	425.649	0.591933	-3.72573
H	423.865	0.679803	-3.41403
N	425.136	0.0814837	-1.11085
C	425.296	-0.448714	0.220308
C	424.804	0.593455	1.20669
O	424.518	1.72928	0.832595
H	425.117	1.07493	-1.17828
H	424.667	-1.32312	0.334262
C	426.773	-0.803318	0.49954
H	427.417	0.0956748	0.393074
H	426.907	-1.22554	1.51658
H	427.114	-1.56135	-0.238837
N	424.684	0.225561	2.49761
C	424.218	1.14808	3.5066
H	424.917	-0.699216	2.78041
H	424.19	0.657684	4.50455
H	423.193	1.51031	3.26421
H	424.891	2.03367	3.5703
