44
  This energy is 0 and Call times are: 162489
C	0.0234048	-0.302256	-3.4671
C	0.41477	0.385772	-2.21626
O	1.26582	1.26448	-2.2168
H	0.624232	0.100524	-4.31129
H	-1.05303	-0.130163	-3.67786
H	0.212921	-1.39289	-3.37936
N	-0.207766	-0.00776405	-1.10273
C	0.0964947	0.538095	0.19651
C	-0.200215	-0.524904	1.23745
O	-0.776365	-1.56603	0.927893
H	-0.868795	-0.752629	-1.11187
H	1.15536	0.757842	0.252618
C	-0.735797	1.81018	0.469156
H	-1.82218	1.58304	0.422127
H	-0.500449	2.24784	1.46091
H	-0.508595	2.57119	-0.309039
N	0.197111	-0.288626	2.50328
C	-0.0370753	-1.24499	3.56002
H	0.665552	0.557903	2.73355
H	0.363081	-0.868335	4.52709
H	0.459887	-2.21503	3.3291
H	-1.12774	-1.43637	3.68234
C	357.265	0.690907	-2.93672
C	358.037	1.11767	-1.74827
O	358.453	2.26315	-1.64142
H	357.174	1.5454	-3.64203
H	356.247	0.364401	-2.63491
H	357.784	-0.145497	-3.45045
N	358.251	0.187964	-0.814335
C	359.022	0.441149	0.377321
C	359.654	-0.865687	0.818463
O	359.339	-1.92848	0.286186
H	357.942	-0.750952	-0.934475
H	359.828	1.12588	0.142887
C	358.131	1.01744	1.49911
H	357.31	0.310687	1.7473
H	358.715	1.22964	2.41754
H	357.673	1.96909	1.15145
N	360.572	-0.81508	1.80322
C	361.231	-2.00707	2.28483
H	360.817	0.0548049	2.21881
H	361.951	-1.75837	3.09492
H	361.789	-2.50765	1.46078
H	360.487	-2.73168	2.68753
