44
  This energy is 0 and Call times are: 166605
C	-1.29872	3.22481	-0.163155
C	-0.171461	2.28105	0.00931806
O	0.987636	2.67206	0.00583355
H	-0.899105	4.25299	-0.301099
H	-1.95091	3.21026	0.73528
H	-1.89584	2.94834	-1.05764
N	-0.492953	0.994592	0.164387
C	0.495236	-0.0463798	0.300107
C	-0.0963057	-1.33373	-0.242452
O	-1.28633	-1.40202	-0.543926
H	-1.43912	0.686352	0.124024
H	1.35566	0.195978	-0.311093
C	0.912119	-0.222181	1.77677
H	0.0315437	-0.481189	2.4025
H	1.68288	-1.0115	1.8927
H	1.33474	0.734149	2.15515
N	0.729429	-2.38874	-0.387853
C	0.256991	-3.6532	-0.901777
H	1.69018	-2.31291	-0.142323
H	1.08563	-4.39387	-0.946401
H	-0.1582	-3.52955	-1.92823
H	-0.547779	-4.06588	-0.251255
C	652.175	-1.29921	3.12159
C	652.287	-1.41483	1.65012
O	652.153	-2.49287	1.08781
H	651.982	-2.30444	3.55534
H	651.335	-0.624835	3.38953
H	653.12	-0.899501	3.54712
N	652.543	-0.286431	0.983938
C	652.722	-0.247358	-0.446069
C	653.645	0.910711	-0.775633
O	653.97	1.7228	0.0885015
H	652.69	0.576249	1.45925
H	653.216	-1.15536	-0.76916
C	651.367	-0.0817803	-1.16759
H	650.864	0.854937	-0.844331
H	651.49	-0.0642248	-2.26988
H	650.705	-0.935941	-0.905678
N	654.098	1.0086	-2.04098
C	654.985	2.07422	-2.44595
H	653.827	0.339529	-2.7252
H	655.245	1.98142	-3.52347
H	655.928	2.04619	-1.85414
H	654.506	3.067	-2.28489
