44
  This energy is 0 and Call times are: 168705
C	-1.48453	2.56537	-1.82421
C	-0.533511	1.4382	-1.69695
O	0.032388	0.973742	-2.67697
H	-1.57437	2.85102	-2.89482
H	-1.11916	3.44128	-1.248
H	-2.48517	2.26626	-1.4469
N	-0.335905	0.96475	-0.464397
C	0.527028	-0.156549	-0.187639
C	0.0111629	-0.854576	1.05663
O	-0.881253	-0.351682	1.73663
H	-0.834873	1.32643	0.317964
H	0.464997	-0.865126	-1.00416
C	1.98582	0.307339	0.0172066
H	2.05162	1.02623	0.861544
H	2.6626	-0.54849	0.217344
H	2.33976	0.822286	-0.902525
N	0.559412	-2.0424	1.37994
C	0.128489	-2.78224	2.54318
H	1.27758	-2.43515	0.81509
H	0.698325	-3.73277	2.63802
H	-0.955621	-3.02912	2.47225
H	0.286519	-2.1845	3.46994
C	806.467	-0.0457007	-0.298985
C	805.159	-0.730507	-0.191499
O	805.056	-1.93261	-0.393079
H	807.245	-0.783912	-0.591099
H	806.746	0.402698	0.677775
H	806.42	0.750944	-1.07111
N	804.114	0.0341718	0.132126
C	802.771	-0.480749	0.232108
C	801.807	0.644582	-0.094533
O	802.208	1.80005	-0.220987
H	804.207	1.01834	0.253013
H	802.628	-1.25382	-0.512648
C	802.496	-1.03493	1.64732
H	802.632	-0.239518	2.41081
H	801.47	-1.44698	1.733
H	803.218	-1.85157	1.86797
N	800.506	0.328924	-0.247858
C	799.517	1.33264	-0.56493
H	800.202	-0.612305	-0.145684
H	798.507	0.8758	-0.650245
H	799.759	1.83102	-1.53153
H	799.483	2.11479	0.22766
