44
  This energy is 0 and Call times are: 164169
C	-3.46418	-0.234424	-0.239196
C	-2.18001	-0.544617	0.428515
O	-2.15152	-1.05809	1.53844
H	-4.3046	-0.522886	0.428899
H	-3.54876	-0.803016	-1.18909
H	-3.53168	0.853264	-0.452438
N	-1.07036	-0.231767	-0.244665
C	0.252122	-0.433853	0.292712
C	1.17558	0.601144	-0.321746
O	0.794485	1.31453	-1.2478
H	-1.10971	0.223246	-1.1297
H	0.234563	-0.256849	1.36088
C	0.75917	-1.86058	-0.0115548
H	0.787383	-2.03905	-1.10763
H	1.771	-2.03316	0.409103
H	0.064085	-2.60133	0.440669
N	2.41758	0.712808	0.18913
C	3.36403	1.67358	-0.327904
H	2.70629	0.129532	0.941134
H	4.32823	1.61152	0.223184
H	2.96772	2.70975	-0.225178
H	3.56438	1.48606	-1.40764
C	481.371	-2.52302	0.356788
C	480.46	-1.50096	0.920549
O	480.227	-1.45393	2.12043
H	481.739	-3.17862	1.1756
H	482.24	-2.03398	-0.130613
H	480.832	-3.14626	-0.387868
N	479.915	-0.647063	0.0508603
C	478.977	0.374778	0.443273
C	478.063	0.655547	-0.734831
O	478.297	0.173297	-1.84154
H	480.083	-0.723662	-0.927864
H	478.358	0.000964641	1.24948
C	479.712	1.6618	0.877002
H	480.339	2.05156	0.0467806
H	479.001	2.45157	1.1947
H	480.381	1.43106	1.73491
N	476.99	1.44131	-0.52016
C	476.062	1.75894	-1.58012
H	476.816	1.81893	0.383247
H	475.247	2.41658	-1.20519
H	475.602	0.830884	-1.99095
H	476.581	2.28483	-2.4134
