44
  This energy is 0 and Call times are: 168901
C	0.778955	3.34343	0.57215
C	0.656196	2.168	-0.319154
O	0.740868	2.28324	-1.53404
H	0.929197	4.25696	-0.0433025
H	1.64915	3.22006	1.25059
H	-0.145498	3.46453	1.17532
N	0.44796	0.991181	0.27592
C	0.265191	-0.234731	-0.460488
C	-0.607201	-1.15871	0.368214
O	-0.892666	-0.880135	1.53124
H	0.340491	0.919424	1.26343
H	-0.269219	-0.0237835	-1.37839
C	1.62383	-0.902532	-0.766067
H	2.16786	-1.12874	0.175683
H	1.49732	-1.84037	-1.34483
H	2.24857	-0.20559	-1.36634
N	-1.06043	-2.2839	-0.218783
C	-1.9012	-3.22032	0.490027
H	-0.822071	-2.49005	-1.16205
H	-2.16908	-4.08032	-0.162545
H	-2.84278	-2.72756	0.824529
H	-1.37823	-3.61364	1.39166
C	817.494	1.00053	-3.29659
C	816.663	0.900529	-2.07565
O	815.618	1.52713	-1.96816
H	817.018	1.70992	-4.00784
H	817.58	0.00647306	-3.78367
H	818.508	1.37485	-3.0401
N	817.119	0.0975056	-1.11153
C	816.443	-0.0689491	0.150946
C	817.482	-0.411133	1.20225
O	818.642	-0.663771	0.882526
H	817.992	-0.374151	-1.19703
H	815.989	0.870865	0.439797
C	815.376	-1.18135	0.0625701
H	815.842	-2.14805	-0.223461
H	814.838	-1.3097	1.02461
H	814.63	-0.913703	-0.718169
N	817.088	-0.418852	2.49104
C	818.009	-0.727638	3.56064
H	816.147	-0.207788	2.73038
H	817.496	-0.68176	4.54643
H	818.855	-0.00316536	3.57206
H	818.431	-1.75038	3.43246
