44
  This energy is 0 and Call times are: 164673
C	-1.48832	2.72163	1.57807
C	-0.504025	2.13776	0.639242
O	0.124496	2.84267	-0.138234
H	-1.53736	3.82122	1.4219
H	-1.18298	2.52082	2.62649
H	-2.49424	2.2877	1.39668
N	-0.348295	0.812818	0.690838
C	0.540726	0.0961936	-0.189305
C	-0.0081102	-1.30562	-0.377064
O	-0.949655	-1.7096	0.302646
H	-0.896838	0.247945	1.30066
H	0.543543	0.57432	-1.16091
C	1.97023	0.0445228	0.393002
H	1.96948	-0.455321	1.38507
H	2.66742	-0.492761	-0.282115
H	2.34863	1.08113	0.529427
N	0.566998	-2.08161	-1.31681
C	0.108336	-3.4276	-1.57001
H	1.3251	-1.73563	-1.85962
H	0.707244	-3.90157	-2.37864
H	-0.961447	-3.42601	-1.88119
H	0.200127	-4.0532	-0.652759
C	514.959	2.50507	-2.41573
C	515.324	1.99273	-1.07563
O	516.098	2.60498	-0.35286
H	515.502	3.45644	-2.60535
H	513.867	2.69806	-2.46766
H	515.242	1.76821	-3.19695
N	514.765	0.83638	-0.710345
C	515.056	0.191153	0.545702
C	514.877	-1.30405	0.362097
O	514.382	-1.75712	-0.668343
H	514.169	0.329231	-1.32609
H	516.094	0.362181	0.80329
C	514.127	0.714884	1.66302
H	513.063	0.530179	1.40406
H	514.351	0.235716	2.63824
H	514.27	1.81199	1.77444
N	515.285	-2.11028	1.3616
C	515.159	-3.54646	1.2737
H	515.687	-1.72526	2.18596
H	515.551	-4.03264	2.19414
H	515.73	-3.93801	0.400443
H	514.092	-3.84062	1.14887
