44
  This energy is -2.4622 and Call times are: 181842
C	-1.32786	-0.60333	3.15998
C	-0.648686	0.27038	2.17687
O	-0.487754	1.46323	2.39509
H	-1.64192	0.0044954	4.03622
H	-0.636668	-1.40081	3.50497
H	-2.22763	-1.06656	2.7029
N	-0.230515	-0.31483	1.05213
C	0.408243	0.412985	-0.0159648
C	0.11212	-0.303743	-1.31987
O	-0.428219	-1.40816	-1.32283
H	-0.405202	-1.27846	0.871127
H	-0.0278065	1.40177	-0.0851472
C	1.93223	0.508159	0.215618
H	2.38167	-0.505934	0.276135
H	2.43373	1.07831	-0.593057
H	2.12525	1.02895	1.17888
N	0.454249	0.316755	-2.46615
C	0.206426	-0.286076	-3.75509
H	0.886883	1.21196	-2.44358
H	0.558276	0.378861	-4.5744
H	-0.88253	-0.472835	-3.89851
H	0.738274	-1.26115	-3.84175
C	993.538	0.370362	-3.30915
C	994.559	0.456812	-2.24141
O	995.738	0.646819	-2.50713
H	994.03	0.484615	-4.29907
H	992.786	1.17856	-3.1863
H	993.029	-0.615878	-3.27282
N	994.121	0.314304	-0.98826
C	995.002	0.331502	0.153235
C	994.378	-0.517259	1.24484
O	993.229	-0.941643	1.1334
H	993.165	0.11934	-0.790402
H	995.944	-0.130059	-0.115289
C	995.229	1.77505	0.653023
H	994.264	2.2454	0.93858
H	995.916	1.80288	1.52324
H	995.679	2.37988	-0.164364
N	995.129	-0.792709	2.32919
C	994.621	-1.59722	3.41598
H	996.057	-0.443784	2.39939
H	995.388	-1.7102	4.21343
H	994.339	-2.61267	3.05456
H	993.716	-1.12658	3.86394
