44
  This energy is 0 and Call times are: 157841
C	-1.76566	-2.40502	1.79192
C	-0.500209	-1.77039	1.35948
O	0.564376	-2.05478	1.8907
H	-1.55751	-3.10643	2.62893
H	-2.216	-2.97285	0.950776
H	-2.48194	-1.63156	2.14092
N	-0.591225	-0.879292	0.369511
C	0.546488	-0.14808	-0.129987
C	0.0547511	1.18298	-0.666667
O	-1.1482	1.41125	-0.778588
H	-1.47047	-0.628167	-0.0251078
H	1.22233	0.0641815	0.689045
C	1.27097	-0.944143	-1.23753
H	0.580956	-1.15304	-2.08268
H	2.15703	-0.397682	-1.62067
H	1.61505	-1.91751	-0.824596
N	0.981045	2.10133	-1.00524
C	0.607034	3.39813	-1.51966
H	1.9496	1.8997	-0.903701
H	1.50995	4.00971	-1.73858
H	-0.018267	3.94869	-0.779958
H	0.0180394	3.29323	-2.45946
C	29.4312	2.03554	1.43471
C	28.8102	0.711868	1.20386
O	29.375	-0.319719	1.54026
H	30.4256	1.89647	1.91202
H	28.7922	2.64614	2.10672
H	29.5672	2.56798	0.469766
N	27.6134	0.712949	0.612109
C	26.9039	-0.498193	0.282932
C	26.029	-0.2204	-0.924872
O	25.8855	0.924851	-1.34856
H	27.1847	1.55855	0.307102
H	27.6156	-1.26252	-0.0032801
C	26.0459	-0.976198	1.47476
H	25.3085	-0.196585	1.76201
H	25.5054	-1.91566	1.2385
H	26.7057	-1.16572	2.3494
N	25.4267	-1.27125	-1.51564
C	24.5799	-1.10421	-2.67377
H	25.5582	-2.19095	-1.16076
H	24.1786	-2.08482	-3.01222
H	25.151	-0.649853	-3.51563
H	23.7204	-0.43547	-2.43905
