44
  This energy is 0.1698 and Call times are: 172469
C	-2.92178	0.678381	1.76513
C	-2.18277	-0.0118964	0.68415
O	-2.69338	-0.926469	0.0522962
H	-3.92725	0.217094	1.87525
H	-3.04488	1.75386	1.51827
H	-2.37419	0.580255	2.72618
N	-0.941254	0.417466	0.446097
C	-0.0836565	-0.183604	-0.544762
C	1.35513	0.00550708	-0.102391
O	1.6302	0.727293	0.854204
H	-0.52477	1.13563	0.99623
H	-0.272425	-1.24927	-0.581461
C	-0.311895	0.454923	-1.93236
H	-0.108171	1.54641	-1.89776
H	0.33281	-0.00891789	-2.70678
H	-1.37294	0.311498	-2.23231
N	2.31163	-0.650451	-0.78858
C	3.70776	-0.535612	-0.43673
H	2.06909	-1.23315	-1.55715
H	4.33684	-1.14977	-1.11812
H	3.87954	-0.883609	0.607619
H	4.04508	0.523798	-0.50749
C	996.954	2.05586	2.70737
C	997.082	1.81108	1.25306
O	996.645	2.6099	0.436049
H	996.414	3.01358	2.87272
H	997.96	2.12484	3.17335
H	996.381	1.23335	3.18511
N	997.692	0.679595	0.892928
C	997.852	0.283069	-0.483848
C	997.899	-1.23238	-0.537277
O	997.97	-1.89706	0.494653
H	998.006	0.0196922	1.56963
H	996.985	0.599488	-1.05022
C	999.141	0.885656	-1.08472
H	1000.03	0.552873	-0.51041
H	999.269	0.598916	-2.14866
H	999.089	1.99487	-1.02786
N	997.851	-1.81701	-1.7505
C	997.884	-3.25331	-1.89928
H	997.789	-1.26252	-2.57382
H	997.834	-3.53868	-2.97323
H	997.022	-3.72273	-1.37197
H	998.822	-3.6717	-1.46785
