44
  This energy is 0 and Call times are: 168481
C	3.42738	-0.532429	0.286784
C	2.26515	0.310282	-0.0740471
O	2.39999	1.49922	-0.328345
H	4.34652	0.092883	0.293376
H	3.55335	-1.34866	-0.455264
H	3.28352	-0.970483	1.29698
N	1.07704	-0.297967	-0.102202
C	-0.150558	0.399482	-0.393981
C	-1.2828	-0.318813	0.315686
O	-1.09612	-1.40526	0.8602
H	0.977613	-1.25704	0.147121
H	-0.0980097	1.40114	0.0141274
C	-0.409416	0.447618	-1.91579
H	-0.473915	-0.579835	-2.33319
H	-1.3448	0.994187	-2.15421
H	0.435249	0.970397	-2.41539
N	-2.48981	0.280232	0.332956
C	-3.62507	-0.325651	0.988921
H	-2.62032	1.16122	-0.109652
H	-4.52547	0.320377	0.893253
H	-3.41697	-0.478539	2.07271
H	-3.85584	-1.31806	0.538345
C	788.662	0.255627	3.04697
C	788.627	-0.0813795	1.60602
O	789.655	-0.312716	0.984568
H	789.718	0.269194	3.39511
H	788.101	-0.503293	3.63141
H	788.215	1.25773	3.21671
N	787.421	-0.114556	1.03381
C	787.23	-0.38503	-0.36933
C	785.962	0.316926	-0.817757
O	785.208	0.838541	0.00113009
H	786.597	0.11618	1.54326
H	788.051	0.04265	-0.93078
C	787.129	-1.90401	-0.629615
H	786.28	-2.34141	-0.0620781
H	786.995	-2.12588	-1.70825
H	788.064	-2.39811	-0.286623
N	785.701	0.353351	-2.13942
C	784.521	1.00387	-2.6596
H	786.326	-0.0708205	-2.78691
H	784.486	0.92649	-3.76866
H	784.514	2.08313	-2.38317
H	783.599	0.534983	-2.24583
