44
  This energy is 0 and Call times are: 159969
C	0.45438	-2.1587	2.69188
C	0.450228	-1.86856	1.24035
O	0.91914	-2.66107	0.435081
H	0.943149	-3.14143	2.8686
H	-0.586222	-2.20051	3.07678
H	1.01882	-1.37334	3.2375
N	-0.0870918	-0.70403	0.86948
C	-0.124724	-0.263154	-0.502661
C	-0.109654	1.25383	-0.512622
O	-0.235829	1.89176	0.53085
H	-0.427722	-0.0512727	1.54011
H	0.771364	-0.597978	-1.01016
C	-1.38444	-0.796859	-1.21926
H	-2.30419	-0.444966	-0.705181
H	-1.41794	-0.475679	-2.2805
H	-1.37846	-1.90844	-1.19285
N	0.0547559	1.86972	-1.69992
C	0.0874853	3.30978	-1.80633
H	0.159323	1.3364	-2.53282
H	0.231226	3.6228	-2.86396
H	0.922616	3.72955	-1.20001
H	-0.865007	3.75304	-1.43563
C	176.615	0.109513	2.53253
C	177.27	0.679551	1.33368
O	176.78	1.62735	0.735179
H	175.672	0.662372	2.73356
H	177.283	0.204586	3.41481
H	176.375	-0.961581	2.36458
N	178.411	0.102261	0.94974
C	179.141	0.517978	-0.222086
C	179.897	-0.682556	-0.758825
O	179.955	-1.72913	-0.116166
H	178.776	-0.694444	1.42304
H	178.441	0.826836	-0.988125
C	180.117	1.66669	0.114449
H	180.842	1.34691	0.892723
H	180.675	2.00506	-0.78264
H	179.542	2.53139	0.512822
N	180.491	-0.560402	-1.96227
C	181.229	-1.65155	-2.55556
H	180.43	0.293073	-2.46909
H	181.641	-1.35533	-3.54519
H	180.569	-2.53759	-2.70171
H	182.076	-1.95621	-1.89935
