44
  This energy is 0 and Call times are: 159605
C	0.404761	-1.76279	-2.97345
C	0.249352	-0.499097	-2.21842
O	0.433906	0.585087	-2.75405
H	0.71218	-1.53197	-4.01657
H	-0.557791	-2.3157	-2.99648
H	1.18412	-2.39736	-2.50121
N	-0.0974655	-0.613835	-0.934316
C	-0.24451	0.523472	-0.0605475
C	0.0652259	0.0752926	1.35535
O	0.217119	-1.11578	1.6199
H	-0.204186	-1.50463	-0.50192
H	0.486638	1.2762	-0.327846
C	-1.67372	1.10271	-0.144724
H	-2.42354	0.333961	0.139579
H	-1.79558	1.98747	0.51321
H	-1.88143	1.4167	-1.19096
N	0.174909	1.02741	2.30269
C	0.472916	0.69596	3.67656
H	0.0526936	1.98621	2.06851
H	0.52193	1.61507	4.30111
H	1.45212	0.169629	3.75012
H	-0.311369	0.0265682	4.09841
C	152.338	1.23709	3.18499
C	153.224	1.06534	2.01183
O	154.259	1.70868	1.90038
H	152.766	2.01098	3.85853
H	152.253	0.281402	3.74375
H	151.329	1.56432	2.85748
N	152.829	0.179278	1.09454
C	153.564	-0.0658945	-0.121403
C	152.581	-0.514382	-1.18603
O	151.414	-0.771689	-0.897103
H	151.964	-0.306855	1.17935
H	154.009	0.86044	-0.462892
C	154.652	-1.14027	0.0982906
H	154.195	-2.09395	0.438516
H	155.234	-1.32803	-0.827241
H	155.355	-0.794405	0.886755
N	153.031	-0.610657	-2.45248
C	152.166	-1.02419	-3.5329
H	153.978	-0.394268	-2.66736
H	152.722	-1.04073	-4.49664
H	151.305	-0.324851	-3.63643
H	151.762	-2.04469	-3.34369
