44
  This energy is 0 and Call times are: 165149
C	2.88037	-0.943947	1.71029
C	1.65067	-0.130596	1.57826
O	1.22929	0.536101	2.51333
H	3.28038	-0.840085	2.74232
H	3.64954	-0.594479	0.989879
H	2.65383	-2.01402	1.5187
N	1.03705	-0.170662	0.393255
C	-0.192464	0.533351	0.126365
C	-0.952893	-0.23076	-0.941079
O	-0.428259	-1.16855	-1.53859
H	1.3695	-0.750155	-0.345346
H	-0.804443	0.534797	1.01974
C	0.0893101	1.97866	-0.3394
H	0.708283	1.97753	-1.26185
H	-0.849938	2.53557	-0.534819
H	0.65333	2.51645	0.453702
N	-2.21914	0.150433	-1.20056
C	-3.02188	-0.521336	-2.19581
H	-2.62774	0.908938	-0.703779
H	-4.03273	-0.0618677	-2.26133
H	-3.14268	-1.59916	-1.94089
H	-2.54093	-0.455539	-3.19855
C	550.116	-0.860156	3.18223
C	550.336	-0.67221	1.73054
O	551.462	-0.694449	1.25288
H	551.097	-0.991956	3.68837
H	549.495	-1.7629	3.36143
H	549.608	0.0291837	3.61045
N	549.246	-0.47731	0.985343
C	549.304	-0.236831	-0.435012
C	548.102	0.604944	-0.821291
O	547.201	0.824267	-0.0139879
H	548.34	-0.420985	1.39436
H	550.19	0.341903	-0.663698
C	549.308	-1.56687	-1.22002
H	548.394	-2.15623	-0.993819
H	549.366	-1.39537	-2.31443
H	550.191	-2.16986	-0.91561
N	548.066	1.10602	-2.07173
C	546.965	1.92273	-2.527
H	548.806	0.921002	-2.70936
H	547.119	2.23807	-3.58243
H	546.868	2.83755	-1.89846
H	546.006	1.35913	-2.46601
