44
  This energy is 0 and Call times are: 167081
C	2.07655	-1.10088	2.56685
C	1.51275	-0.0290959	1.71564
O	1.68877	1.15122	1.98447
H	2.61955	-0.643213	3.42216
H	2.78678	-1.72126	1.9808
H	1.26217	-1.74458	2.96123
N	0.808212	-0.424278	0.652703
C	0.162367	0.501481	-0.244189
C	-1.04973	-0.187244	-0.842555
O	-1.24179	-1.38893	-0.667094
H	0.639172	-1.38858	0.469914
H	-0.196383	1.35364	0.319506
C	1.13066	0.957453	-1.35762
H	1.49079	0.0846585	-1.94292
H	0.649315	1.68127	-2.04677
H	2.01365	1.45146	-0.896486
N	-1.90548	0.56588	-1.56125
C	-3.08899	-0.00163187	-2.16408
H	-1.73525	1.5374	-1.68873
H	-3.66318	0.777383	-2.71241
H	-3.75273	-0.443587	-1.38601
H	-2.81595	-0.807495	-2.88323
C	685.058	-2.88818	-0.0388643
C	685.264	-1.45184	-0.33202
O	684.482	-0.832134	-1.03964
H	684.145	-3.24339	-0.564139
H	684.927	-3.04098	1.05302
H	685.929	-3.47924	-0.392654
N	686.341	-0.88284	0.213767
C	686.697	0.49537	-0.0153212
C	688.204	0.6215	0.107352
O	688.883	-0.316322	0.521292
H	686.991	-1.41028	0.753997
H	686.432	0.769018	-1.02895
C	685.992	1.42305	0.998184
H	686.272	1.14945	2.03781
H	686.247	2.48837	0.823441
H	684.89	1.30835	0.896034
N	688.765	1.78994	-0.260471
C	690.192	2.00004	-0.183526
H	688.2	2.53578	-0.59683
H	690.459	3.02287	-0.530217
H	690.733	1.26251	-0.82008
H	690.551	1.88026	0.864291
