44
  This energy is 0 and Call times are: 167137
C	-2.06924	1.89409	2.05995
C	-0.751825	1.59882	1.453
O	0.176477	2.39084	1.53887
H	-2.03561	2.89551	2.54151
H	-2.31499	1.13303	2.8301
H	-2.85841	1.89733	1.27873
N	-0.641296	0.432367	0.813042
C	0.564303	0.0244183	0.135792
C	0.176975	-0.896707	-1.00572
O	-0.976668	-1.30602	-1.12098
H	-1.4179	-0.183615	0.716497
H	1.04145	0.893858	-0.298993
C	1.52717	-0.692666	1.10735
H	1.04182	-1.59065	1.54563
H	2.46524	-0.999462	0.600971
H	1.79082	-0.00284123	1.9386
N	1.13777	-1.23911	-1.88643
C	0.861102	-2.10667	-3.00759
H	2.06447	-0.894556	-1.77883
H	1.77865	-2.26903	-3.61501
H	0.0796654	-1.66152	-3.66521
H	0.493045	-3.09774	-2.65622
C	688.889	-2.71289	-0.546328
C	690.112	-1.93212	-0.842805
O	690.996	-2.38713	-1.55465
H	688.957	-3.70429	-1.04474
H	687.993	-2.17971	-0.926891
H	688.79	-2.86728	0.548844
N	690.189	-0.718741	-0.291348
C	691.335	0.140924	-0.453214
C	691.436	1.02995	0.771923
O	690.534	1.05747	1.60635
H	689.479	-0.378532	0.318989
H	692.233	-0.463469	-0.488209
C	691.207	0.995496	-1.7333
H	690.292	1.62355	-1.69323
H	692.09	1.65173	-1.87649
H	691.127	0.324311	-2.6161
N	692.549	1.7761	0.912814
C	692.736	2.64785	2.04917
H	693.271	1.73725	0.22915
H	693.713	3.17534	1.98366
H	692.716	2.06538	2.99868
H	691.927	3.41237	2.09532
