44
  This energy is -0.3896 and Call times are: 171450
C	-1.961	-1.61435	-2.37929
C	-0.783629	-1.55434	-1.48412
O	-0.0907717	-2.54212	-1.28249
H	-2.07368	-2.64937	-2.76905
H	-1.82645	-0.920537	-3.2356
H	-2.88051	-1.33843	-1.8212
N	-0.529334	-0.373047	-0.91645
C	0.555435	-0.169825	0.0112014
C	0.166245	0.951804	0.955676
O	-0.841914	1.62544	0.751859
H	-1.12631	0.411436	-1.05815
H	0.686847	-1.06347	0.608491
C	1.86155	0.179564	-0.735269
H	1.73043	1.1022	-1.3399
H	2.70757	0.324837	-0.0326462
H	2.12283	-0.651394	-1.42635
N	0.95825	1.17342	2.02322
C	0.664245	2.21545	2.97921
H	1.76749	0.615193	2.17348
H	1.4317	2.23874	3.784
H	-0.331718	2.04747	3.44944
H	0.647391	3.21205	2.48157
C	991.749	3.15688	0.838997
C	992.688	2.02787	1.02551
O	993.678	2.13851	1.73572
H	992.115	4.03734	1.41047
H	990.74	2.881	1.21135
H	991.685	3.4276	-0.236019
N	992.393	0.897984	0.378155
C	993.234	-0.272022	0.427369
C	993.05	-1.0421	-0.866619
O	992.168	-0.73006	-1.66478
H	991.606	0.836207	-0.228776
H	994.272	0.0353376	0.474501
C	992.876	-1.15808	1.64063
H	991.815	-1.48234	1.58728
H	993.526	-2.05527	1.69744
H	993.011	-0.571809	2.57575
N	993.889	-2.06829	-1.10884
C	993.792	-2.85487	-2.31638
H	994.598	-2.30304	-0.452905
H	994.569	-3.65064	-2.33055
H	993.932	-2.21245	-3.21584
H	992.792	-3.33984	-2.39063
