44
  This energy is 0 and Call times are: 169181
C	-2.35499	1.12188	-2.30393
C	-1.68899	0.0414639	-1.54216
O	-2.14621	-1.09297	-1.52138
H	-3.27364	0.720212	-2.78416
H	-1.67632	1.50803	-3.09326
H	-2.63901	1.95148	-1.62262
N	-0.575533	0.377085	-0.886458
C	0.159328	-0.554549	-0.0675582
C	0.862406	0.228559	1.02513
O	0.884729	1.4577	1.00427
H	-0.238326	1.31416	-0.879602
H	-0.535177	-1.23033	0.415778
C	1.18326	-1.34353	-0.912729
H	1.90244	-0.651396	-1.40035
H	1.74587	-2.07408	-0.296054
H	0.647434	-1.90247	-1.71074
N	1.44963	-0.470451	2.01639
C	2.13739	0.189203	3.10176
H	1.41739	-1.46445	2.01814
H	2.55214	-0.55638	3.81542
H	1.4419	0.858156	3.65859
H	2.97781	0.809911	2.71502
C	837.513	1.27355	3.19812
C	838.011	0.826638	1.87796
O	839.165	1.03898	1.53215
H	838.327	1.80441	3.73772
H	837.192	0.398916	3.80217
H	836.655	1.96743	3.06855
N	837.136	0.188577	1.09785
C	837.461	-0.267974	-0.230386
C	836.187	-0.274482	-1.05373
O	835.094	-0.0862552	-0.523657
H	836.188	0.0593558	1.37664
H	838.141	0.436242	-0.693632
C	838.087	-1.67917	-0.190709
H	837.386	-2.40414	0.274898
H	838.355	-2.03623	-1.20626
H	839.014	-1.65239	0.42349
N	836.3	-0.484573	-2.37999
C	835.143	-0.502554	-3.2443
H	837.194	-0.630865	-2.79121
H	835.443	-0.689514	-4.29899
H	834.605	0.471968	-3.20044
H	834.434	-1.30322	-2.93417
