44
  This energy is 0 and Call times are: 168985
C	0.607618	3.24607	-1.09842
C	-0.278074	2.07238	-0.927679
O	-1.48013	2.15015	-1.14081
H	-0.000518941	4.1228	-1.41048
H	1.36908	3.04043	-1.87985
H	1.11629	3.4842	-0.140493
N	0.307099	0.940189	-0.53007
C	-0.429731	-0.273401	-0.279387
C	0.320274	-1.07423	0.768332
O	1.44667	-0.73929	1.12995
H	1.28015	0.90311	-0.321124
H	-1.39772	-0.0240366	0.137075
C	-0.593708	-1.09698	-1.57556
H	0.39913	-1.36206	-1.99751
H	-1.17142	-2.02724	-1.39842
H	-1.13799	-0.48861	-2.33054
N	-0.295398	-2.15389	1.2892
C	0.338521	-2.97333	2.29561
H	-1.20852	-2.40667	0.986892
H	-0.327318	-3.81197	2.59657
H	0.573957	-2.37008	3.2022
H	1.29127	-3.40293	1.90979
C	820.687	0.22345	-2.59132
C	821.157	-0.349306	-1.30983
O	820.426	-1.04973	-0.623505
H	819.631	-0.0763972	-2.762
H	821.308	-0.155085	-3.43029
H	820.746	1.33189	-2.55933
N	822.41	-0.0566296	-0.952971
C	822.994	-0.505349	0.286465
C	824.045	0.504778	0.707269
O	824.388	1.40999	-0.0509222
H	822.98	0.548382	-1.50212
H	822.233	-0.518197	1.05616
C	823.624	-1.90617	0.124323
H	824.413	-1.89111	-0.657837
H	824.065	-2.26871	1.0755
H	822.839	-2.62725	-0.191583
N	824.578	0.376868	1.93851
C	825.58	1.29459	2.42752
H	824.285	-0.359639	2.53913
H	825.892	1.02275	3.46004
H	825.185	2.33608	2.44358
H	826.481	1.27754	1.77291
