44
  This energy is 0.1355 and Call times are: 182736
C	0.351841	0.857654	3.3546
C	-0.269778	0.0640788	2.27064
O	-0.975215	-0.903848	2.5194
H	0.0798806	0.413947	4.33696
H	-0.0139019	1.9054	3.3199
H	1.4573	0.848583	3.24988
N	-0.0148525	0.462669	1.02223
C	-0.513653	-0.23413	-0.137178
C	0.460551	-0.0110142	-1.27854
O	1.38109	0.797042	-1.17195
H	0.59448	1.22778	0.834662
H	-0.53391	-1.29751	0.0664135
C	-1.92191	0.270753	-0.520771
H	-1.89963	1.35955	-0.739984
H	-2.32271	-0.267806	-1.40385
H	-2.61613	0.104767	0.331788
N	0.283678	-0.733988	-2.40195
C	1.16448	-0.593198	-3.53797
H	-0.464498	-1.38588	-2.46781
H	0.854562	-1.27247	-4.36245
H	2.21315	-0.841212	-3.25502
H	1.14836	0.452993	-3.92054
C	993.689	0.640251	-0.635756
C	994.767	-0.0194644	0.134989
O	994.53	-0.596546	1.18737
H	992.725	0.523519	-0.093596
H	993.595	0.174062	-1.63909
H	993.908	1.72283	-0.75033
N	995.996	0.0550421	-0.380594
C	997.153	-0.500902	0.275664
C	998.366	0.313838	-0.133181
O	998.286	1.1587	-1.02288
H	996.179	0.563359	-1.21719
H	997.04	-0.396153	1.34757
C	997.344	-1.9851	-0.106358
H	997.47	-2.09203	-1.20487
H	998.224	-2.42844	0.403443
H	996.441	-2.56063	0.194864
N	999.523	0.0828448	0.518036
C	1000.73	0.813696	0.201009
H	999.566	-0.601974	1.23788
H	1001.57	0.48029	0.845236
H	1000.58	1.90633	0.358398
H	1001.01	0.654636	-0.863477
