44
  This energy is 0 and Call times are: 162405
C	-1.05376	-0.0237447	-3.31688
C	-0.340079	0.601414	-2.18067
O	0.396826	1.56335	-2.34816
H	-0.784309	0.506248	-4.25624
H	-2.15134	0.0483683	-3.16573
H	-0.763093	-1.09137	-3.41059
N	-0.545376	0.0570291	-0.979057
C	0.112217	0.528151	0.214332
C	0.24329	-0.639211	1.17435
O	-0.319583	-1.7083	0.946446
H	-1.11599	-0.751179	-0.86476
H	1.1141	0.85472	-0.0350974
C	-0.685755	1.6785	0.866396
H	-1.71021	1.34094	1.13209
H	-0.182475	2.05925	1.77868
H	-0.77607	2.5184	0.143384
N	1.00203	-0.462345	2.27393
C	1.18903	-1.51858	3.24118
H	1.45288	0.408605	2.43899
H	1.84496	-1.17872	4.07273
H	1.66006	-2.4087	2.76463
H	0.211473	-1.8345	3.67213
C	351.38	-0.205127	-3.07364
C	352.302	-0.743027	-2.04775
O	352.722	-1.88996	-2.11334
H	351.164	-0.996315	-3.82399
H	351.845	0.661488	-3.58904
H	350.427	0.113452	-2.60211
N	352.64	0.0881292	-1.05906
C	353.493	-0.304976	0.0342771
C	353.118	0.523026	1.24879
O	352.337	1.46747	1.15015
H	352.257	1.00554	-0.997191
H	353.304	-1.34244	0.280122
C	354.981	-0.0962167	-0.324576
H	355.178	0.969924	-0.566639
H	355.649	-0.408288	0.504164
H	355.231	-0.705215	-1.22056
N	353.663	0.179931	2.43235
C	353.36	0.906606	3.64326
H	354.29	-0.58993	2.49293
H	353.906	0.471886	4.5097
H	352.268	0.868332	3.86155
H	353.655	1.97633	3.54394
