44
  This energy is -2.4462 and Call times are: 171784
C	-0.0312768	-1.56297	-3.10947
C	0.395483	-1.48524	-1.69421
O	0.946532	-2.43006	-1.14642
H	0.216271	-2.56883	-3.51302
H	0.497351	-0.794204	-3.71138
H	-1.1275	-1.40413	-3.18789
N	0.143425	-0.337489	-1.06055
C	0.460914	-0.127129	0.329955
C	-0.522739	0.88169	0.892329
O	-1.29303	1.49034	0.152116
H	-0.342633	0.407817	-1.50791
H	0.318961	-1.05327	0.872859
C	1.91033	0.38025	0.494264
H	2.0536	1.33581	-0.0538302
H	2.17146	0.532851	1.56153
H	2.61221	-0.3699	0.068834
N	-0.524816	1.07664	2.22575
C	-1.42952	2.01272	2.85141
H	0.103117	0.571759	2.80873
H	-1.27771	2.02984	3.95317
H	-2.48821	1.73163	2.64784
H	-1.26392	3.04193	2.45841
C	992.652	3.11689	0.0394598
C	992.859	1.75758	0.587714
O	992.395	1.43538	1.67295
H	992.062	3.71935	0.764171
H	992.095	3.06205	-0.91944
H	993.63	3.61444	-0.129462
N	993.575	0.917344	-0.163428
C	993.896	-0.424126	0.255618
C	995.207	-0.821959	-0.396525
O	995.719	-0.115507	-1.26255
H	993.98	1.20699	-1.0258
H	994.052	-0.435889	1.32711
C	992.774	-1.40928	-0.138958
H	992.621	-1.40537	-1.23918
H	993.004	-2.44336	0.190503
H	991.823	-1.09426	0.343007
N	995.787	-1.96694	0.0137017
C	997.038	-2.42306	-0.545892
H	995.359	-2.52306	0.718539
H	997.351	-3.38272	-0.0787423
H	997.842	-1.67118	-0.374785
H	996.943	-2.58235	-1.64436
