44
  This energy is 0 and Call times are: 166381
C	-1.87191	0.791191	-2.82536
C	-0.73768	0.109031	-2.16255
O	-0.0716627	-0.730424	-2.75259
H	-1.98303	0.398636	-3.85949
H	-1.68526	1.88459	-2.87414
H	-2.81227	0.601526	-2.26602
N	-0.491188	0.459657	-0.898159
C	0.551383	-0.147155	-0.108611
C	0.136274	-0.0870967	1.34934
O	-0.849741	0.559759	1.69729
H	-1.06766	1.11478	-0.418198
H	0.639383	-1.19277	-0.376133
C	1.89718	0.580765	-0.318859
H	1.81029	1.65112	-0.0345685
H	2.71106	0.114264	0.273173
H	2.17728	0.531097	-1.39377
N	0.880096	-0.772307	2.23999
C	0.558185	-0.778203	3.64801
H	1.67191	-1.29324	1.93876
H	1.28671	-1.39833	4.21538
H	-0.461688	-1.19402	3.81601
H	0.581555	0.256269	4.06088
C	635.582	-1.64404	-2.72018
C	635.474	-0.837121	-1.48394
O	634.418	-0.307515	-1.16427
H	634.602	-1.64461	-3.24553
H	635.857	-2.69055	-2.47121
H	636.351	-1.21042	-3.39397
N	636.583	-0.722531	-0.750783
C	636.645	0.0653116	0.455072
C	638.069	0.559207	0.625341
O	638.972	0.140579	-0.0972974
H	637.445	-1.12546	-1.04524
H	636.012	0.937163	0.344768
C	636.21	-0.767558	1.68096
H	636.866	-1.65647	1.80074
H	636.24	-0.168001	2.61378
H	635.168	-1.12514	1.53102
N	638.303	1.4741	1.58675
C	639.626	2.00589	1.8185
H	637.559	1.80378	2.15874
H	639.612	2.74463	2.64996
H	640.011	2.51376	0.904573
H	640.336	1.19022	2.08521
