44
  This energy is 0 and Call times are: 169405
C	2.43613	2.15785	-1.23355
C	1.02669	1.8175	-0.935561
O	0.142705	2.65975	-1.01032
H	2.50653	3.23658	-1.49292
H	2.80148	1.55705	-2.09279
H	3.07359	1.95926	-0.346249
N	0.783336	0.553079	-0.582861
C	-0.530601	0.0821865	-0.221769
C	-0.36904	-1.07146	0.750112
O	0.738218	-1.55782	0.97181
H	1.5193	-0.110995	-0.486762
H	-1.062	0.869724	0.297875
C	-1.31775	-0.368919	-1.47162
H	-0.77817	-1.1841	-1.99923
H	-2.33627	-0.720744	-1.20826
H	-1.41695	0.488799	-2.17221
N	-1.47717	-1.53296	1.36255
C	-1.41991	-2.62408	2.30721
H	-2.36366	-1.12382	1.17331
H	-2.43366	-2.85636	2.70165
H	-0.760218	-2.36512	3.16687
H	-1.01285	-3.54155	1.82379
C	852.548	-3.40071	-0.586151
C	852.129	-2.11499	0.0157638
O	851.022	-1.98284	0.518984
H	851.715	-4.13304	-0.504927
H	853.434	-3.80284	-0.0511994
H	852.797	-3.25778	-1.65871
N	853.02	-1.12169	-0.0258473
C	852.741	0.199165	0.480297
C	853.574	1.19298	-0.307129
O	854.442	0.807986	-1.08798
H	853.902	-1.23241	-0.475316
H	851.7	0.437792	0.301667
C	853.067	0.292865	1.98695
H	854.138	0.0584312	2.16957
H	852.844	1.30123	2.39163
H	852.452	-0.448431	2.54244
N	853.321	2.504	-0.1248
C	854.059	3.52222	-0.834893
H	852.612	2.79595	0.508281
H	853.704	4.53685	-0.549129
H	853.933	3.40368	-1.93544
H	855.147	3.4529	-0.603037
