44
  This energy is 0 and Call times are: 165961
C	0.735923	-2.4347	-2.37557
C	-0.185574	-1.45772	-1.75308
O	-1.2427	-1.15445	-2.28874
H	0.308236	-2.77857	-3.34238
H	0.869884	-3.3127	-1.70931
H	1.72243	-1.96215	-2.56685
N	0.20361	-0.933466	-0.588577
C	-0.565908	0.061593	0.115879
C	0.392474	0.915721	0.924286
O	1.57643	0.602577	1.03342
H	1.08574	-1.15947	-0.185288
H	-1.05099	0.711841	-0.60141
C	-1.61127	-0.601342	1.03945
H	-1.11334	-1.26036	1.78228
H	-2.21958	0.154613	1.57705
H	-2.29682	-1.22756	0.427708
N	-0.0993209	2.02713	1.50647
C	0.738989	2.90394	2.29044
H	-1.05918	2.2661	1.40337
H	0.150827	3.76196	2.68427
H	1.57387	3.30587	1.67182
H	1.18163	2.35631	3.15376
C	608.578	-2.02006	2.35416
C	608.565	-1.27729	1.07382
O	609.593	-1.09665	0.43608
H	609.62	-2.32635	2.59025
H	607.945	-2.92907	2.27585
H	608.198	-1.37524	3.17462
N	607.379	-0.820981	0.664779
C	607.213	-0.0441906	-0.538499
C	606.014	0.865963	-0.353021
O	605.273	0.740915	0.620164
H	606.557	-0.940598	1.2152
H	608.081	0.589313	-0.676573
C	607.012	-0.961872	-1.76434
H	606.117	-1.60455	-1.62777
H	606.898	-0.375863	-2.69922
H	607.898	-1.62437	-1.87605
N	605.799	1.81506	-1.28526
C	604.686	2.73038	-1.18954
H	606.412	1.90334	-2.0635
H	604.681	3.43483	-2.05033
H	604.747	3.32577	-0.249794
H	603.72	2.17536	-1.18475
