44
  This energy is 0 and Call times are: 163581
C	-2.72499	-2.05844	0.670762
C	-1.27178	-1.77686	0.67676
O	-0.490671	-2.49352	1.28723
H	-2.92756	-2.95706	1.29313
H	-3.07281	-2.25315	-0.365507
H	-3.28361	-1.19616	1.09207
N	-0.871879	-0.706318	-0.0134491
C	0.504498	-0.280402	-0.065809
C	0.527052	1.22194	-0.275625
O	-0.505681	1.83744	-0.533176
H	-1.52423	-0.109238	-0.471484
H	0.976737	-0.480014	0.888013
C	1.26099	-0.997692	-1.20531
H	0.78317	-0.784694	-2.18528
H	2.3255	-0.688514	-1.2472
H	1.22476	-2.09595	-1.03544
N	1.71301	1.85155	-0.161052
C	1.83065	3.28014	-0.338473
H	2.53699	1.33698	0.0519115
H	2.88514	3.60759	-0.204136
H	1.19854	3.82131	0.402366
H	1.49806	3.57816	-1.35912
C	435.363	-3.01934	-0.5615
C	436.559	-2.23771	-0.175791
O	437.533	-2.77906	0.328196
H	435.523	-4.0882	-0.301109
H	435.189	-2.938	-1.65504
H	434.47	-2.64641	-0.0165421
N	436.509	-0.923657	-0.406371
C	437.579	-0.0264229	-0.0458819
C	436.978	1.3397	0.227165
O	435.798	1.57209	-0.030741
H	435.693	-0.491644	-0.779562
H	438.036	-0.367456	0.874458
C	438.63	0.0599697	-1.17376
H	438.163	0.419856	-2.11542
H	439.466	0.737161	-0.9025
H	439.05	-0.9521	-1.36202
N	437.78	2.2786	0.767253
C	437.294	3.60559	1.06684
H	438.73	2.07044	0.972723
H	438.103	4.23042	1.50555
H	436.452	3.56077	1.79491
H	436.926	4.10715	0.142929
