44
  This energy is -3.8493 and Call times are: 177534
C	1.65844	-1.80383	2.47153
C	0.462438	-1.51813	1.64746
O	-0.493589	-2.28116	1.63342
H	1.51692	-2.77083	3.0014
H	1.80601	-1.00029	3.22338
H	2.55935	-1.87608	1.82636
N	0.49184	-0.393427	0.928735
C	-0.579079	-0.00246242	0.0462154
C	0.0119804	0.833391	-1.07341
O	1.18238	1.2075	-1.02961
H	1.29395	0.196818	0.918952
H	-1.01101	-0.886996	-0.405077
C	-1.65754	0.798308	0.808398
H	-1.21712	1.71136	1.26271
H	-2.49439	1.09325	0.14265
H	-2.07041	0.170198	1.62777
N	-0.787683	1.14009	-2.11384
C	-0.310814	1.92638	-3.22763
H	-1.73071	0.824818	-2.13327
H	-1.11641	2.0702	-3.98099
H	0.548538	1.42149	-3.72549
H	0.0304785	2.92937	-2.88313
C	995.532	3.28682	0.493985
C	994.971	2.00916	0.987184
O	994.834	1.79788	2.18433
H	995.792	3.93266	1.36071
H	994.786	3.81468	-0.136673
H	996.451	3.09687	-0.100724
N	994.629	1.1132	0.0582385
C	994.11	-0.191346	0.385211
C	994.49	-1.14532	-0.731458
O	994.989	-0.727131	-1.77442
H	994.784	1.28355	-0.910671
H	994.585	-0.548476	1.29034
C	992.576	-0.14646	0.560281
H	992.087	0.209831	-0.371533
H	992.165	-1.14222	0.825902
H	992.32	0.563575	1.37691
N	994.269	-2.45979	-0.533309
C	994.603	-3.44246	-1.53749
H	993.868	-2.77937	0.31887
H	994.346	-4.46631	-1.18697
H	995.693	-3.41395	-1.7669
H	994.047	-3.24483	-2.48194
