44
  This energy is 0.1054 and Call times are: 179497
C	2.64375	-0.961908	2.0489
C	2.04869	-0.724634	0.714452
O	2.73862	-0.726568	-0.295699
H	3.74071	-1.10682	1.94138
H	2.2042	-1.87252	2.50751
H	2.4597	-0.0893554	2.71061
N	0.731555	-0.509081	0.681838
C	0.0173805	-0.220972	-0.536976
C	-1.19009	0.628652	-0.188092
O	-1.5099	0.817378	0.984006
H	0.190034	-0.469948	1.51676
H	0.648705	0.368482	-1.19013
C	-0.422253	-1.52396	-1.23996
H	-1.07852	-2.12406	-0.574207
H	-0.961175	-1.31571	-2.18691
H	0.476581	-2.13342	-1.47871
N	-1.88788	1.17116	-1.20534
C	-3.04816	1.99843	-0.969602
H	-1.61122	1.01043	-2.14698
H	-3.4828	2.34951	-1.9314
H	-2.77683	2.89132	-0.360987
H	-3.83103	1.42944	-0.41779
C	991.216	-0.797983	1.60334
C	992.67	-0.977064	1.39169
O	993.345	-1.64146	2.16567
H	990.912	-1.32803	2.53205
H	990.65	-1.22029	0.746761
H	990.975	0.280694	1.70987
N	993.192	-0.375366	0.320464
C	994.599	-0.422634	0.00640738
C	994.956	0.839797	-0.755327
O	994.08	1.60871	-1.14618
H	992.637	0.19583	-0.277566
H	995.17	-0.417175	0.926013
C	994.935	-1.67482	-0.832834
H	994.356	-1.67556	-1.78121
H	996.017	-1.7299	-1.0694
H	994.658	-2.58622	-0.259256
N	996.262	1.08763	-0.977521
C	996.697	2.26697	-1.68881
H	996.956	0.455731	-0.649933
H	997.806	2.29105	-1.76882
H	996.363	3.18958	-1.16068
H	996.27	2.28507	-2.71787
