44
  This energy is 0.1124 and Call times are: 181691
C	3.2521	0.572128	-1.09965
C	2.27658	0.218948	-0.0438192
O	2.64451	-0.224924	1.03508
H	4.27997	0.349605	-0.739322
H	3.18166	1.65393	-1.3394
H	3.05598	-0.0229841	-2.01642
N	0.988429	0.409744	-0.338167
C	-0.0785458	0.0727273	0.570977
C	-1.30932	-0.265769	-0.248889
O	-1.33171	-0.068152	-1.46222
H	0.702291	0.733267	-1.23557
H	0.193153	-0.815959	1.1269
C	-0.374184	1.24411	1.53311
H	-0.663201	2.15313	0.963726
H	-1.18462	0.991857	2.24731
H	0.542316	1.47977	2.11693
N	-2.36578	-0.795409	0.398714
C	-3.57819	-1.15409	-0.29956
H	-2.32724	-0.95171	1.38012
H	-4.32902	-1.57327	0.40597
H	-3.36885	-1.91794	-1.08313
H	-4.02375	-0.262371	-0.79701
C	991.801	-0.163292	-1.23784
C	992.879	0.526253	-0.49374
O	992.767	1.69687	-0.156839
H	990.967	0.548487	-1.4192
H	991.419	-1.0229	-0.64837
H	992.183	-0.526302	-2.21545
N	993.967	-0.197139	-0.218821
C	995.116	0.347743	0.460629
C	996.344	-0.416713	0.00175497
O	996.234	-1.4292	-0.687105
H	994.061	-1.13676	-0.535401
H	995.25	1.38062	0.164138
C	994.953	0.240862	1.9927
H	994.826	-0.819567	2.29845
H	995.825	0.669688	2.52747
H	994.045	0.800714	2.30502
N	997.55	0.0588352	0.368918
C	998.774	-0.599017	-0.0255112
H	997.618	0.881835	0.923024
H	999.658	-0.0560135	0.373989
H	998.858	-0.638134	-1.13572
H	998.8	-1.64401	0.359757
