44
  This energy is 0 and Call times are: 161537
C	1.41014	-2.13553	2.35876
C	1.28105	-1.62487	0.975386
O	2.08098	-1.94259	0.106142
H	2.30942	-2.78544	2.42794
H	0.514101	-2.73158	2.63184
H	1.52222	-1.29005	3.06988
N	0.25368	-0.80584	0.738585
C	0.02201	-0.195183	-0.546711
C	-0.693948	1.12329	-0.321783
O	-1.12135	1.42609	0.79058
H	-0.365278	-0.523988	1.46613
H	0.97358	0.0297674	-1.01205
C	-0.819024	-1.12024	-1.45345
H	-1.79961	-1.34279	-0.981263
H	-0.992534	-0.667108	-2.45099
H	-0.279657	-2.08179	-1.59786
N	-0.834389	1.94688	-1.37914
C	-1.49695	3.22469	-1.25922
H	-0.478265	1.68618	-2.27037
H	-1.51117	3.75366	-2.23759
H	-0.972364	3.87119	-0.518863
H	-2.54879	3.09147	-0.917107
C	289.522	3.0909	0.611858
C	290.146	2.10136	-0.295253
O	290.116	2.24838	-1.50929
H	289.054	3.89881	0.00822733
H	290.29	3.53813	1.27689
H	288.738	2.60346	1.22884
N	290.733	1.05204	0.284819
C	291.345	-0.0149742	-0.467391
C	291.261	-1.28461	0.358771
O	290.887	-1.2506	1.52948
H	290.714	0.925369	1.27246
H	290.778	-0.182615	-1.37493
C	292.816	0.317838	-0.800739
H	293.4	0.479549	0.130301
H	293.294	-0.49005	-1.39177
H	292.853	1.25453	-1.39866
N	291.602	-2.44327	-0.239004
C	291.548	-3.70235	0.466684
H	291.898	-2.45116	-1.1883
H	291.865	-4.53801	-0.195115
H	290.512	-3.91009	0.820857
H	292.219	-3.68389	1.35539
