44
  This energy is -3.7739 and Call times are: 178051
C	-1.52379	-0.962566	2.97728
C	-0.833971	0.0359312	2.12976
O	-0.775844	1.21288	2.45812
H	-1.94765	-0.455478	3.8712
H	-0.806586	-1.74119	3.31212
H	-2.34994	-1.44073	2.4099
N	-0.288822	-0.420164	0.999641
C	0.377814	0.438171	0.0523202
C	0.235982	-0.178834	-1.32635
O	-0.222503	-1.31116	-1.46545
H	-0.379841	-1.37341	0.725942
H	-0.120784	1.39914	0.0284971
C	1.86847	0.610385	0.417734
H	2.38285	-0.374117	0.431989
H	2.38961	1.28039	-0.29643
H	1.94827	1.0559	1.43336
N	0.621377	0.560624	-2.38499
C	0.518303	0.058629	-3.73538
H	0.986121	1.47633	-2.25267
H	0.884719	0.814176	-4.46484
H	-0.5401	-0.18441	-3.98435
H	1.12333	-0.868864	-3.85718
C	991.234	0.615557	1.71293
C	992.686	0.330125	1.68246
O	993.37	0.420343	2.69251
H	990.94	0.916318	2.74208
H	990.659	-0.290265	1.4256
H	990.992	1.44358	1.01372
N	993.196	-0.0245705	0.500921
C	994.599	-0.291663	0.304915
C	994.947	0.036477	-1.13497
O	994.065	0.2955	-1.9521
H	992.634	-0.0538658	-0.320799
H	995.18	0.369591	0.935616
C	994.929	-1.7675	0.61863
H	994.341	-2.4461	-0.035406
H	996.009	-1.98237	0.484797
H	994.659	-1.98728	1.67474
N	996.25	0.0411994	-1.47838
C	996.676	0.347345	-2.82412
H	996.949	-0.166927	-0.802205
H	997.784	0.299871	-2.90623
H	996.346	1.37042	-3.11728
H	996.239	-0.377076	-3.54905
