44
  This energy is 0 and Call times are: 169993
C	1.00132	-1.50041	2.97637
C	1.26519	-1.04761	1.592
O	2.40119	-1.02614	1.13873
H	1.96334	-1.76851	3.46477
H	0.341552	-2.39337	2.96776
H	0.516661	-0.688577	3.55871
N	0.202317	-0.667199	0.879291
C	0.305114	-0.161931	-0.467073
C	-0.852868	0.78883	-0.705158
O	-1.76493	0.887877	0.113402
H	-0.711212	-0.651508	1.27563
H	1.21854	0.411435	-0.564683
C	0.277881	-1.31602	-1.49302
H	-0.66371	-1.89814	-1.40039
H	0.37028	-0.940824	-2.53284
H	1.12915	-2.00336	-1.2949
N	-0.838226	1.52112	-1.83633
C	-1.89483	2.45621	-2.14517
H	-0.0895454	1.4301	-2.48461
H	-1.70161	2.96087	-3.11739
H	-1.97191	3.23705	-1.35421
H	-2.87617	1.9329	-2.21046
C	893.543	0.0862834	-3.15931
C	893.515	0.353803	-1.70369
O	892.64	1.04797	-1.20408
H	892.695	0.615527	-3.64608
H	893.443	-1.00298	-3.35016
H	894.495	0.453058	-3.59788
N	894.491	-0.199407	-0.980087
C	894.622	0.00551002	0.440996
C	896.09	-0.115471	0.803236
O	896.912	-0.510494	-0.0216655
H	895.219	-0.728241	-1.4068
H	894.311	1.01329	0.686679
C	893.784	-1.02655	1.22664
H	894.109	-2.0603	0.982901
H	893.865	-0.870548	2.32188
H	892.714	-0.925235	0.939894
N	896.457	0.232515	2.05246
C	897.832	0.155517	2.48566
H	895.778	0.553762	2.70456
H	897.93	0.484245	3.54375
H	898.48	0.806802	1.85487
H	898.212	-0.888999	2.40621
