44
  This energy is 0 and Call times are: 163637
C	-3.1992	-0.573946	-1.24433
C	-2.25188	0.154872	-0.371092
O	-2.58424	1.18095	0.206063
H	-4.16786	-0.0290832	-1.27085
H	-3.37316	-1.59727	-0.850269
H	-2.79529	-0.6393	-2.27665
N	-1.02887	-0.367883	-0.255602
C	0.0143705	0.250754	0.523822
C	1.34997	-0.130282	-0.0865343
O	1.41774	-0.978338	-0.974184
H	-0.760668	-1.1812	-0.763985
H	-0.0773318	1.3274	0.452784
C	-0.0561178	-0.202647	1.99851
H	0.0484821	-1.30609	2.07276
H	0.733561	0.277562	2.61197
H	-1.04467	0.0793361	2.42231
N	2.44965	0.498657	0.373004
C	3.76296	0.205445	-0.151799
H	2.37421	1.18494	1.08882
H	4.53585	0.825445	0.35363
H	3.80496	0.415616	-1.24511
H	4.01762	-0.867957	0.00343848
C	442.783	-1.55853	2.55028
C	442.564	-1.23508	1.12246
O	443.414	-1.48681	0.27901
H	443.79	-2.01356	2.67368
H	442.017	-2.28132	2.90074
H	442.728	-0.635105	3.16457
N	441.4	-0.657655	0.816421
C	441.061	-0.245561	-0.522904
C	440.105	0.928633	-0.428758
O	439.623	1.26325	0.65171
H	440.736	-0.421771	1.5198
H	441.954	0.104897	-1.0256
C	440.417	-1.40688	-1.3109
H	439.495	-1.7598	-0.801163
H	440.164	-1.10615	-2.34825
H	441.131	-2.25779	-1.36034
N	439.814	1.5906	-1.56587
C	438.919	2.72391	-1.57264
H	440.217	1.30746	-2.42984
H	438.807	3.1311	-2.60175
H	439.307	3.53506	-0.914842
H	437.91	2.43045	-1.2006
