44
  This energy is -1.1046 and Call times are: 176683
C	-1.74369	0.352927	-2.99127
C	-0.905029	-0.430411	-2.05629
O	-0.716544	-1.62713	-2.22585
H	-2.13677	-0.320068	-3.78401
H	-1.14027	1.15441	-3.46693
H	-2.59944	0.807363	-2.4488
N	-0.376312	0.239581	-1.02967
C	0.426121	-0.394602	-0.0135674
C	0.263484	0.389185	1.27515
O	-0.323942	1.46925	1.28551
H	-0.572251	1.20485	-0.882261
H	0.049726	-1.3938	0.166905
C	1.91141	-0.44313	-0.434038
H	2.30096	0.582368	-0.609084
H	2.53757	-0.941621	0.334045
H	2.00564	-1.01451	-1.38325
N	0.776791	-0.14495	2.40086
C	0.665525	0.526248	3.67495
H	1.24509	-1.02188	2.37319
H	1.14925	-0.0720816	4.47821
H	-0.4042	0.677987	3.94687
H	1.15719	1.52524	3.63719
C	994.762	3.30381	1.0886
C	995.389	1.97956	0.876691
O	996.594	1.82147	1.00842
H	995.549	4.0454	1.34672
H	994.03	3.25189	1.92176
H	994.245	3.63528	0.163146
N	994.569	0.982808	0.535433
C	995.036	-0.351628	0.254236
C	994.075	-0.992149	-0.729551
O	993.014	-0.444283	-1.0205
H	993.595	1.13609	0.392083
H	996.004	-0.296619	-0.229153
C	995.124	-1.18951	1.54861
H	994.13	-1.25507	2.03936
H	995.497	-2.21491	1.34719
H	995.827	-0.698019	2.2568
N	994.432	-2.17196	-1.27424
C	993.584	-2.85333	-2.22422
H	995.297	-2.5977	-1.0295
H	994.052	-3.80625	-2.55638
H	993.409	-2.21703	-3.12196
H	992.594	-3.08812	-1.76978
