44
  This energy is 0 and Call times are: 170105
C	-0.0326809	-2.71351	-2.1791
C	-0.669379	-1.52509	-1.56803
O	-1.70582	-1.0591	-2.02086
H	-0.63108	-3.04004	-3.05727
H	0.0104329	-3.54485	-1.44442
H	0.995586	-2.46548	-2.51709
N	-0.0503451	-0.999025	-0.50858
C	-0.525682	0.18302	0.166241
C	0.668036	0.888576	0.781694
O	1.77492	0.353627	0.80049
H	0.814434	-1.36492	-0.176694
H	-0.960447	0.858474	-0.559964
C	-1.55962	-0.180995	1.25422
H	-1.11095	-0.865564	2.00528
H	-1.94354	0.721967	1.77171
H	-2.42044	-0.703233	0.7824
N	0.470777	2.11873	1.29534
C	1.5489	2.86862	1.89658
H	-0.431202	2.53672	1.26714
H	1.18681	3.85578	2.25938
H	2.36464	3.04426	1.15834
H	1.97942	2.31347	2.76122
C	900.718	2.40822	-1.05118
C	902.01	2.01323	-0.446527
O	902.892	2.83617	-0.244751
H	900.734	3.49713	-1.27443
H	899.886	2.19842	-0.346767
H	900.551	1.85006	-1.99657
N	902.152	0.721307	-0.141378
C	903.368	0.178958	0.41274
C	903.474	-1.27361	-0.0118605
O	902.535	-1.83687	-0.5706
H	901.44	0.0563606	-0.349293
H	904.217	0.701493	-0.00941958
C	903.371	0.294588	1.95282
H	902.506	-0.250185	2.38707
H	904.308	-0.107058	2.39051
H	903.285	1.36507	2.2407
N	904.633	-1.91475	0.237896
C	904.828	-3.2964	-0.13516
H	905.383	-1.44097	0.687276
H	905.845	-3.64215	0.154303
H	904.714	-3.42592	-1.23584
H	904.079	-3.9491	0.368725
