44
  This energy is 0 and Call times are: 169601
C	-3.13275	-1.41403	0.546879
C	-2.25238	-0.393852	-0.0657631
O	-2.66626	0.358585	-0.936943
H	-4.13836	-1.36206	0.0757872
H	-3.23607	-1.22598	1.63624
H	-2.71232	-2.42905	0.385441
N	-0.995851	-0.347631	0.382978
C	-0.0105824	0.562076	-0.146397
C	1.35686	-0.0742725	0.0170227
O	1.4977	-1.10461	0.672978
H	-0.662411	-0.993883	1.06345
H	-0.180117	0.694221	-1.20773
C	-0.065976	1.92159	0.584283
H	0.118345	1.78786	1.67156
H	0.678655	2.6355	0.176377
H	-1.07774	2.36514	0.458025
N	2.40164	0.524905	-0.587507
C	3.73935	-0.011396	-0.492172
H	2.26717	1.3557	-1.11738
H	4.45834	0.622563	-1.05642
H	3.77943	-1.04349	-0.909834
H	4.0701	-0.0560139	0.570727
C	869.804	-2.02915	0.367957
C	868.367	-1.83276	0.0695025
O	867.691	-2.73346	-0.407825
H	870.102	-3.05917	0.0750415
H	869.99	-1.89605	1.45429
H	870.416	-1.301	-0.20424
N	867.862	-0.628317	0.347206
C	866.492	-0.273282	0.0722791
C	866.432	1.22199	-0.176897
O	867.411	1.93543	0.0333195
H	868.435	0.107431	0.697346
H	866.172	-0.765097	-0.837577
C	865.574	-0.663171	1.25131
H	865.897	-0.150669	2.18272
H	864.515	-0.407499	1.04598
H	865.64	-1.76011	1.42074
N	865.275	1.73223	-0.642223
C	865.126	3.14296	-0.9139
H	864.495	1.13839	-0.810058
H	864.103	3.3652	-1.28962
H	865.861	3.47478	-1.68234
H	865.298	3.74146	0.00983457
