44
  This energy is 0 and Call times are: 159717
C	-0.836705	-2.58881	-2.17041
C	-1.15842	-1.66247	-1.06157
O	-2.30195	-1.55066	-0.641752
H	-1.76816	-3.09051	-2.51185
H	-0.117399	-3.3617	-1.82693
H	-0.39758	-2.02802	-3.02234
N	-0.138528	-0.964566	-0.556474
C	-0.30244	0.00709515	0.495937
C	0.782494	1.05655	0.343922
O	1.70161	0.900662	-0.457727
H	0.779424	-1.03624	-0.936072
H	-1.25488	0.507861	0.374622
C	-0.216226	-0.663661	1.88442
H	0.764808	-1.1686	2.01346
H	-0.35476	0.0719891	2.70305
H	-1.01414	-1.43327	1.9704
N	0.695159	2.16171	1.1101
C	1.67865	3.21649	1.03026
H	-0.0581723	2.27171	1.74999
H	1.432	4.03854	1.73781
H	1.71749	3.64019	0.000584221
H	2.69216	2.82879	1.2825
C	164.024	-1.4048	0.996197
C	163.229	-0.495814	0.140761
O	163.77	0.337048	-0.573148
H	165.105	-1.17327	0.872907
H	163.847	-2.46049	0.701469
H	163.747	-1.26737	2.06257
N	161.902	-0.63726	0.197258
C	160.995	0.202697	-0.544394
C	159.691	0.2853	0.225505
O	159.489	-0.433282	1.20268
H	161.475	-1.29209	0.813952
H	161.401	1.20512	-0.5999
C	160.753	-0.362746	-1.96104
H	160.327	-1.38707	-1.90459
H	160.067	0.282613	-2.54696
H	161.722	-0.421778	-2.5032
N	158.771	1.17642	-0.195429
C	157.503	1.32937	0.478152
H	158.954	1.75198	-0.985643
H	156.886	2.11101	-0.0176448
H	157.656	1.62567	1.54121
H	156.933	0.372175	0.465149
