44
  This energy is -3.3793 and Call times are: 178181
C	2.10822	2.76089	-0.213448
C	1.09711	1.94503	0.495885
O	0.820777	2.15836	1.66829
H	2.5283	3.51537	0.48668
H	1.64106	3.28796	-1.07176
H	2.93235	2.11396	-0.581377
N	0.515142	0.974134	-0.211971
C	-0.455992	0.0706146	0.352929
C	-0.374698	-1.24312	-0.401425
O	0.304111	-1.34251	-1.42175
H	0.780193	0.78638	-1.15344
H	-0.196771	-0.133123	1.3844
C	-1.87969	0.66178	0.258933
H	-2.15015	0.861152	-0.799907
H	-2.63491	-0.0185504	0.703137
H	-1.91375	1.62633	0.811047
N	-1.06364	-2.29103	0.091803
C	-1.04176	-3.5821	-0.555382
H	-1.60397	-2.19221	0.920869
H	-1.66944	-4.312	0.0018248
H	-0.00203517	-3.97941	-0.604216
H	-1.43176	-3.50667	-1.59623
C	994.249	-2.87502	-1.89679
C	994.732	-1.61428	-1.28949
O	995.924	-1.34041	-1.26232
H	995.119	-3.46189	-2.26467
H	993.576	-2.65479	-2.75217
H	993.702	-3.47833	-1.14211
N	993.8	-0.806875	-0.778288
C	994.119	0.433677	-0.11659
C	993.034	0.716708	0.906012
O	992.011	0.0360889	0.943699
H	992.837	-1.06254	-0.771361
H	995.05	0.321028	0.423854
C	994.219	1.5915	-1.13373
H	993.26	1.71431	-1.68101
H	994.478	2.54959	-0.638154
H	995.013	1.3593	-1.8768
N	993.239	1.73021	1.77025
C	992.265	2.06964	2.78155
H	994.075	2.26696	1.72677
H	992.617	2.92998	3.39277
H	992.088	1.20544	3.46203
H	991.293	2.34568	2.3137
