44
  This energy is 0.1459 and Call times are: 174470
C	-2.69138	-1.91881	1.08965
C	-1.9796	-0.627496	0.95923
O	-2.52839	0.428997	1.2404
H	-3.72886	-1.73231	1.44282
H	-2.17281	-2.56906	1.82518
H	-2.73349	-2.43355	0.106608
N	-0.720278	-0.685748	0.519797
C	0.08553	0.489537	0.300852
C	1.08833	0.178202	-0.794144
O	1.22458	-0.968678	-1.21583
H	-0.300812	-1.54967	0.256054
H	-0.54512	1.29323	-0.0583027
C	0.812325	0.909487	1.59725
H	1.46752	0.0891782	1.96035
H	1.42527	1.82146	1.44514
H	0.0595424	1.1247	2.38678
N	1.8122	1.20173	-1.28854
C	2.78653	1.00197	-2.3359
H	1.68487	2.12345	-0.937394
H	3.27638	1.96341	-2.6059
H	2.30191	0.586946	-3.24923
H	3.57498	0.286461	-2.008
C	991.951	-0.389169	0.638671
C	993.088	-0.186657	-0.286935
O	992.943	-0.280127	-1.49798
H	991.04	-0.637353	0.0521638
H	991.762	0.536911	1.22132
H	992.169	-1.22598	1.33533
N	994.266	0.0979615	0.273473
C	995.473	0.279207	-0.494415
C	996.651	-0.117316	0.375281
O	996.499	-0.354642	1.57202
H	994.377	0.130295	1.26264
H	995.459	-0.391375	-1.34457
C	995.614	1.74422	-0.962409
H	995.639	2.4317	-0.090164
H	996.532	1.89358	-1.56649
H	994.737	2.01503	-1.59044
N	997.86	-0.206784	-0.212811
C	999.038	-0.582513	0.534012
H	997.963	-0.0148959	-1.18323
H	999.933	-0.599983	-0.125983
H	998.913	-1.59504	0.981667
H	999.226	0.139782	1.36111
