44
  This energy is -2.3494 and Call times are: 176595
C	0.114642	0.266841	-3.46819
C	0.429197	0.768284	-2.11145
O	1.21293	1.6925	-1.94413
H	0.70079	0.842125	-4.21743
H	-0.967148	0.39551	-3.68248
H	0.382336	-0.807699	-3.55063
N	-0.184639	0.156872	-1.09569
C	0.0525945	0.504461	0.283244
C	-0.185523	-0.73143	1.13025
O	-0.677001	-1.74605	0.63964
H	-0.788588	-0.620813	-1.24509
H	1.09103	0.78535	0.407277
C	-0.876558	1.65437	0.730045
H	-1.94207	1.36281	0.612914
H	-0.693932	1.94057	1.7861
H	-0.69069	2.54554	0.0915942
N	0.168013	-0.676657	2.4295
C	-0.0159469	-1.80581	3.31118
H	0.568035	0.151799	2.80728
H	0.335999	-1.56417	4.3383
H	0.555739	-2.68853	2.94343
H	-1.09174	-2.08994	3.36673
C	996.006	-2.76016	-0.247251
C	994.914	-2.00846	0.41246
O	994.218	-2.52848	1.27325
H	996.035	-3.79556	0.156439
H	996.982	-2.26984	-0.0495618
H	995.83	-2.80639	-1.34282
N	994.738	-0.746483	0.0141566
C	993.69	0.0967225	0.532775
C	993.317	1.10227	-0.540351
O	993.989	1.20886	-1.56424
H	995.286	-0.350141	-0.716618
H	992.811	-0.505331	0.729626
C	994.149	0.820826	1.8173
H	995.044	1.44687	1.61348
H	993.346	1.46259	2.23409
H	994.424	0.0658066	2.58578
N	992.224	1.86218	-0.3326
C	991.789	2.84207	-1.30067
H	991.69	1.75856	0.500266
H	990.872	3.36365	-0.947879
H	991.562	2.35576	-2.27698
H	992.583	3.60485	-1.47136
