44
  This energy is -1.4954 and Call times are: 186795
C	-2.29303	0.42162	2.58397
C	-1.70478	-0.369538	1.47982
O	-1.99291	-1.54788	1.32203
H	-2.96629	-0.228736	3.18367
H	-2.88231	1.26941	2.17562
H	-1.49044	0.813478	3.24382
N	-0.850591	0.272366	0.679376
C	-0.165498	-0.375318	-0.411365
C	1.15487	0.338723	-0.631215
O	1.40625	1.39152	-0.0480021
H	-0.594698	1.22047	0.845169
H	0.0625432	-1.39686	-0.133715
C	-1.02005	-0.341531	-1.69738
H	-1.24541	0.706551	-1.98854
H	-0.509259	-0.849368	-2.54101
H	-1.98445	-0.862618	-1.51097
N	2.03797	-0.226441	-1.47782
C	3.32225	0.378084	-1.74494
H	1.81819	-1.08067	-1.93723
H	3.90403	-0.23703	-2.46632
H	3.91511	0.471775	-0.806312
H	3.19482	1.39745	-2.17597
C	994.686	2.67111	0.643927
C	994.082	1.67694	-0.271338
O	994.227	1.76212	-1.48305
H	995.225	3.43923	0.0477927
H	995.408	2.17433	1.32622
H	993.895	3.17045	1.24249
N	993.377	0.696642	0.298781
C	992.695	-0.319423	-0.463062
C	991.497	-0.788459	0.340716
O	991.342	-0.431027	1.50687
H	993.235	0.663837	1.28385
H	992.318	0.114919	-1.38054
C	993.637	-1.50363	-0.771711
H	994.016	-1.95623	0.169392
H	993.127	-2.28645	-1.36983
H	994.51	-1.13584	-1.35343
N	990.612	-1.59913	-0.271766
C	989.438	-2.09128	0.412132
H	990.752	-1.87414	-1.21713
H	988.836	-2.74181	-0.259291
H	988.797	-1.24538	0.749328
H	989.727	-2.68494	1.30967
