44
  This energy is 0 and Call times are: 164141
C	-3.25301	1.00855	-0.716556
C	-2.09381	0.899791	0.197538
O	-2.06005	1.51693	1.2532
H	-3.99577	1.71446	-0.285413
H	-3.73332	0.0158425	-0.845305
H	-2.92547	1.3916	-1.70604
N	-1.10029	0.0997967	-0.196561
C	0.111249	-0.0740779	0.565341
C	1.23308	-0.408147	-0.399778
O	0.995898	-0.650078	-1.5817
H	-1.1242	-0.363962	-1.0776
H	0.367804	0.861333	1.04682
C	-0.0527885	-1.19586	1.61412
H	-0.305632	-2.15804	1.11983
H	0.868886	-1.33006	2.21664
H	-0.88404	-0.934004	2.30463
N	2.49088	-0.420809	0.0837561
C	3.62261	-0.722559	-0.761418
H	2.66324	-0.218412	1.04209
H	4.56974	-0.682356	-0.179574
H	3.69407	0.00941995	-1.5983
H	3.52408	-1.74134	-1.20132
C	476.946	-2.17309	2.718
C	476.339	-1.59968	1.49572
O	475.354	-2.1092	0.979146
H	476.381	-3.08206	3.0173
H	476.906	-1.43575	3.54716
H	478.003	-2.45485	2.52461
N	476.926	-0.508895	0.99739
C	476.476	0.136985	-0.210518
C	477.669	0.815514	-0.856596
O	478.745	0.89561	-0.2656
H	477.751	-0.129676	1.40571
H	476.117	-0.613004	-0.90414
C	475.367	1.1675	0.0950346
H	475.738	1.94308	0.798372
H	475.003	1.66174	-0.828764
H	474.508	0.65026	0.574483
N	477.508	1.31556	-2.09755
C	478.589	1.97351	-2.79377
H	476.632	1.23746	-2.56117
H	478.259	2.31434	-3.79984
H	479.452	1.28062	-2.92397
H	478.943	2.86129	-2.22112
