44
  This energy is 0 and Call times are: 160865
C	1.64986	-2.87119	-1.07095
C	0.55484	-2.19273	-0.341724
O	-0.409616	-2.8181	0.0767729
H	1.41569	-3.95425	-1.16046
H	2.60652	-2.75472	-0.519616
H	1.75556	-2.44103	-2.08923
N	0.681619	-0.874424	-0.173254
C	-0.322141	-0.0703524	0.478278
C	-0.249496	1.33255	-0.0945521
O	0.670212	1.66096	-0.841546
H	1.45259	-0.372951	-0.555357
H	-1.30314	-0.464236	0.243504
C	-0.100922	-0.0433401	2.00654
H	0.901233	0.37048	2.24835
H	-0.875627	0.561333	2.52105
H	-0.150334	-1.08103	2.40291
N	-1.22974	2.19535	0.238207
C	-1.24699	3.54977	-0.263228
H	-1.96774	1.90992	0.840674
H	-2.13241	4.10097	0.12332
H	-1.28893	3.55592	-1.37655
H	-0.328662	4.09683	0.0506789
C	246.074	-1.44638	0.756358
C	244.619	-1.53738	0.496592
O	244.073	-2.61861	0.325842
H	246.514	-2.46721	0.743414
H	246.257	-0.988675	1.7512
H	246.565	-0.833349	-0.028451
N	243.95	-0.382892	0.458305
C	242.539	-0.307602	0.173491
C	242.258	1.03456	-0.475703
O	243.127	1.90341	-0.52646
H	244.416	0.491843	0.55849
H	242.278	-1.07439	-0.545297
C	241.706	-0.469445	1.46411
H	241.966	0.32327	2.19777
H	240.617	-0.427146	1.25608
H	241.933	-1.45488	1.92631
N	241.032	1.2323	-0.998076
C	240.675	2.47585	-1.64048
H	240.344	0.515829	-0.950948
H	239.625	2.44331	-2.00479
H	241.342	2.67359	-2.51084
H	240.774	3.32789	-0.929517
