44
  This energy is 0.1285 and Call times are: 174545
C	-1.61764	2.32594	2.02137
C	-0.808493	1.10047	1.8352
O	-0.258949	0.554878	2.78216
H	-1.59983	2.61844	3.09375
H	-2.6691	2.1402	1.71694
H	-1.19882	3.1568	1.41527
N	-0.714724	0.635122	0.587392
C	0.0721359	-0.522769	0.242863
C	0.539051	-0.367387	-1.1922
O	0.103244	0.537158	-1.90184
H	-1.13396	1.11338	-0.179015
H	0.95577	-0.553109	0.868084
C	-0.752048	-1.81856	0.406828
H	-1.65316	-1.79246	-0.242288
H	-0.152915	-2.71831	0.157812
H	-1.0899	-1.90752	1.46243
N	1.44961	-1.24786	-1.65228
C	1.95636	-1.17497	-3.00287
H	1.79346	-1.97045	-1.06177
H	2.69543	-1.98493	-3.18984
H	2.45661	-0.195786	-3.18238
H	1.12746	-1.27941	-3.73986
C	992.623	-1.76035	-1.76686
C	993.029	-0.739727	-0.774607
O	992.219	0.0548964	-0.316384
H	991.54	-1.64317	-1.99234
H	992.797	-2.77909	-1.36125
H	993.201	-1.63257	-2.70598
N	994.315	-0.738257	-0.417289
C	994.868	0.221745	0.505224
C	996.333	0.417407	0.162517
O	996.891	-0.310239	-0.656713
H	994.97	-1.36484	-0.829664
H	994.374	1.17552	0.367017
C	994.713	-0.262003	1.96372
H	995.229	-1.23536	2.10868
H	995.123	0.474991	2.68451
H	993.634	-0.406104	2.18991
N	996.992	1.41783	0.780258
C	998.386	1.68296	0.513404
H	996.522	1.99858	1.43708
H	998.745	2.54453	1.11828
H	998.541	1.92193	-0.563659
H	999.01	0.794437	0.763317
