44
  This energy is 0.1252 and Call times are: 173654
C	-3.39956	-0.644146	0.375137
C	-2.27324	0.252993	0.0320787
O	-2.46595	1.33051	-0.514037
H	-4.3535	-0.179187	0.0439205
H	-3.44022	-0.804738	1.473
H	-3.27958	-1.62206	-0.137088
N	-1.0511	-0.181099	0.34877
C	0.145652	0.560983	0.0394658
C	1.28248	-0.427686	-0.138594
O	1.1343	-1.61523	0.143337
H	-0.907125	-1.07851	0.755954
H	0.0136624	1.07426	-0.904864
C	0.475464	1.56889	1.16222
H	0.621358	1.04178	2.12913
H	1.38723	2.15624	0.929367
H	-0.373306	2.2774	1.28035
N	2.44941	0.041759	-0.622248
C	3.58519	-0.825955	-0.830276
H	2.5488	1.0051	-0.84846
H	4.44916	-0.25303	-1.23343
H	3.33369	-1.63568	-1.55302
H	3.8964	-1.30246	0.127444
C	997.577	2.96489	-0.821483
C	997.507	1.4871	-0.772694
O	998.312	0.794811	-1.38072
H	998.42	3.27111	-1.47819
H	997.748	3.37374	0.196593
H	996.632	3.37942	-1.23256
N	996.524	0.963589	-0.0365215
C	996.302	-0.456687	0.0727327
C	994.824	-0.685687	0.330833
O	994.074	0.257285	0.575137
H	995.852	1.54011	0.419473
H	996.541	-0.929442	-0.871588
C	997.151	-1.06195	1.21212
H	996.898	-0.584642	2.18283
H	996.999	-2.15748	1.29738
H	998.227	-0.875615	1.00635
N	994.369	-1.95262	0.27379
C	992.977	-2.26631	0.500182
H	994.99	-2.7019	0.0706632
H	992.801	-3.36084	0.409641
H	992.331	-1.74471	-0.242632
H	992.662	-1.94333	1.51879
