44
  This energy is 0 and Call times are: 169937
C	0.209136	-0.202905	-3.46811
C	0.662927	-0.581054	-2.11082
O	1.4415	-1.50885	-1.93929
H	0.668568	-0.888205	-4.2132
H	0.518353	0.838203	-3.69881
H	-0.896081	-0.284258	-3.53861
N	0.175252	0.141104	-1.09937
C	0.490863	-0.134314	0.280157
C	-0.677868	0.322124	1.13297
O	-1.59856	0.973282	0.643038
H	-0.489433	0.866991	-1.25152
H	0.591686	-1.20378	0.416904
C	1.78678	0.590529	0.704946
H	1.68014	1.68858	0.574793
H	2.04804	0.375259	1.76132
H	2.62683	0.247091	0.0625192
N	-0.671394	-0.0189104	2.43669
C	-1.74385	0.36639	3.32413
H	0.0803591	-0.549624	2.81389
H	-1.55568	-0.00846171	4.35433
H	-2.71475	-0.0508644	2.97125
H	-1.83973	1.47552	3.36643
C	889.26	3.00914	0.170701
C	889.792	1.85266	-0.584389
O	889.452	1.64062	-1.74022
H	888.545	3.56914	-0.470896
H	890.087	3.68837	0.464355
H	888.728	2.65987	1.08079
N	890.652	1.06494	0.0652538
C	891.222	-0.121777	-0.522924
C	891.53	-1.10186	0.59338
O	891.444	-0.761512	1.77174
H	890.888	1.22723	1.01923
H	890.488	-0.588137	-1.16823
C	892.503	0.215986	-1.31588
H	893.261	0.684847	-0.651995
H	892.944	-0.687553	-1.78518
H	892.256	0.940494	-2.12219
N	891.89	-2.35292	0.24536
C	892.197	-3.35528	1.23906
H	891.95	-2.61066	-0.713321
H	892.47	-4.3184	0.754661
H	891.319	-3.53329	1.90135
H	893.05	-3.0284	1.87691
