44
  This energy is -2.3813 and Call times are: 184452
C	2.64411	0.523834	2.20158
C	2.03623	0.597691	0.853926
O	2.56756	1.23325	-0.0461709
H	3.57885	1.12543	2.21635
H	2.89044	-0.529158	2.45312
H	1.94292	0.930634	2.96049
N	0.887341	-0.0608093	0.684228
C	0.15539	-0.0468632	-0.557792
C	-1.31619	-0.236848	-0.241714
O	-1.6834	-0.532252	0.893896
H	0.446159	-0.539862	1.43771
H	0.262287	0.924397	-1.02455
C	0.654034	-1.16053	-1.50455
H	0.534815	-2.15799	-1.03034
H	0.107588	-1.15139	-2.46987
H	1.73472	-1.00605	-1.71576
N	-2.19884	-0.0620577	-1.24491
C	-3.6198	-0.216383	-1.03698
H	-1.88285	0.180809	-2.15608
H	-4.1778	-0.0314173	-1.98125
H	-3.98456	0.502373	-0.267809
H	-3.85604	-1.24699	-0.685999
C	993.878	-3.27326	-0.101913
C	993.258	-2.09108	-0.741045
O	993.108	-2.03276	-1.95371
H	994.164	-4.0072	-0.88642
H	993.159	-3.75343	0.594517
H	994.789	-2.97195	0.457329
N	992.879	-1.1052	0.0756935
C	992.3	0.125675	-0.402065
C	992.64	1.22395	0.587625
O	993.161	0.957889	1.66906
H	993.045	-1.14977	1.05669
H	992.755	0.391234	-1.3479
C	990.769	-0.00829533	-0.556879
H	990.3	-0.270387	0.415464
H	990.313	0.928675	-0.937354
H	990.543	-0.822749	-1.27935
N	992.359	2.49354	0.233908
C	992.653	3.60462	1.10887
H	991.941	2.68931	-0.647097
H	992.348	4.56596	0.63937
H	993.744	3.65264	1.33042
H	992.109	3.49836	2.07517
