44
  This energy is 0 and Call times are: 158485
C	-0.18826	1.62	-3.07454
C	-0.818677	1.00387	-1.88539
O	-2.01506	1.13249	-1.66506
H	-0.95738	2.18069	-3.64897
H	0.246212	0.834284	-3.72771
H	0.611282	2.3244	-2.76206
N	-0.012141	0.310838	-1.07818
C	-0.471358	-0.309567	0.139514
C	0.69349	-0.366488	1.10979
O	1.83169	-0.078163	0.744977
H	0.967099	0.249415	-1.24901
H	-1.23634	0.310566	0.589923
C	-1.01667	-1.72807	-0.135666
H	-0.229142	-2.36776	-0.588037
H	-1.38616	-2.21103	0.7921
H	-1.86288	-1.66298	-0.854025
N	0.43217	-0.734424	2.37958
C	1.47654	-0.81175	3.37432
H	-0.495889	-0.96	2.65688
H	1.06202	-1.13164	4.35567
H	1.9665	0.179977	3.50732
H	2.25779	-1.54446	3.06784
C	69.8495	-1.42405	-0.398633
C	70.7491	-0.251098	-0.320802
O	70.3611	0.866048	-0.633674
H	68.8571	-1.10104	-0.781743
H	69.7173	-1.87247	0.608442
H	70.2711	-2.18453	-1.08924
N	71.9931	-0.484494	0.103656
C	72.995	0.548509	0.191276
C	74.3557	-0.0949028	0.00098942
O	74.4757	-1.31826	-0.0252972
H	72.3062	-1.40587	0.31565
H	72.8546	1.25205	-0.619862
C	72.9239	1.27186	1.55398
H	73.0784	0.552292	2.38608
H	73.6814	2.07883	1.62839
H	71.9173	1.72823	1.67513
N	75.4182	0.72099	-0.145506
C	76.7512	0.199097	-0.337215
H	75.3005	1.70833	-0.125536
H	77.4871	1.02716	-0.437676
H	76.7995	-0.426304	-1.25799
H	77.053	-0.435443	0.527324
