44
  This energy is -0.3191 and Call times are: 180893
C	-1.98824	-2.84671	0.236308
C	-0.683426	-2.18296	0.0171366
O	0.356505	-2.82632	-0.0151961
H	-1.82708	-3.93852	0.369897
H	-2.65135	-2.68584	-0.639563
H	-2.47552	-2.44119	1.14801
N	-0.710699	-0.857292	-0.138556
C	0.482032	-0.0673198	-0.317155
C	0.216586	1.32115	0.233511
O	-0.915775	1.65752	0.574582
H	-1.56055	-0.342733	-0.0688834
H	1.28621	-0.49756	0.266649
C	0.875766	0.00784612	-1.80865
H	0.0552315	0.458851	-2.40644
H	1.80059	0.601966	-1.95781
H	1.05746	-1.01977	-2.1925
N	1.26423	2.16191	0.341248
C	1.10854	3.50109	0.859459
H	2.17366	1.87019	0.0639378
H	2.08433	4.0349	0.869225
H	0.712441	3.47583	1.90049
H	0.395698	4.08458	0.232928
C	994.29	2.5586	-2.35675
C	994.813	1.95735	-1.10935
O	995.788	2.42814	-0.540184
H	994.924	3.42669	-2.64005
H	993.248	2.90934	-2.20468
H	994.313	1.8133	-3.1796
N	994.166	0.883301	-0.651345
C	994.583	0.163909	0.526591
C	994.153	-1.28303	0.373724
O	993.417	-1.62731	-0.548953
H	993.399	0.487348	-1.14789
H	995.664	0.174632	0.588079
C	993.962	0.781612	1.79864
H	992.852	0.761255	1.74068
H	994.286	0.244979	2.71375
H	994.283	1.84249	1.88592
N	994.613	-2.17073	1.27712
C	994.262	-3.57008	1.20856
H	995.211	-1.87385	2.01426
H	994.739	-4.13638	2.03857
H	994.599	-4.01274	0.243242
H	993.158	-3.70244	1.28252
