44
  This energy is 0 and Call times are: 170693
C	3.17837	-1.12619	-0.861587
C	2.24814	-0.419842	0.0477418
O	2.59604	-0.0802494	1.17026
H	4.15095	-1.27956	-0.345404
H	3.34912	-0.523334	-1.77818
H	2.76082	-2.11596	-1.14285
N	1.02254	-0.181606	-0.42505
C	-0.00567855	0.457828	0.35754
C	-1.35197	-0.0420287	-0.131546
O	-1.43785	-0.725937	-1.14969
H	0.741366	-0.500444	-1.32569
H	0.0937434	0.156122	1.39278
C	0.0799678	1.99465	0.230712
H	-0.0325241	2.30539	-0.829864
H	-0.697948	2.49903	0.839787
H	1.07607	2.33733	0.586665
N	-2.44061	0.283403	0.593001
C	-3.76282	-0.152015	0.207824
H	-2.35056	0.834179	1.41617
H	-4.52421	0.216648	0.930042
H	-3.81707	-1.26444	0.178715
H	-4.02408	0.232969	-0.804437
C	944.752	3.45993	0.282887
C	944.18	2.13513	-0.0483119
O	942.982	1.99527	-0.251225
H	943.935	4.21301	0.32106
H	945.486	3.76484	-0.492395
H	945.254	3.42362	1.27279
N	945.041	1.11612	-0.10879
C	944.629	-0.23904	-0.377517
C	945.615	-1.1755	0.294796
O	946.653	-0.74459	0.793783
H	946.007	1.23821	0.0990947
H	943.66	-0.413656	0.0729735
C	944.576	-0.508538	-1.89733
H	945.573	-0.339732	-2.35825
H	944.247	-1.54463	-2.11752
H	943.854	0.19316	-2.36963
N	945.307	-2.48694	0.330779
C	946.182	-3.45209	0.954179
H	944.461	-2.81604	-0.0748039
H	945.754	-4.4761	0.881018
H	946.33	-3.2101	2.03165
H	947.181	-3.45332	0.460671
