44
  This energy is 0 and Call times are: 159297
C	2.49501	-0.591742	2.35318
C	1.57618	0.314169	1.62777
O	1.4126	1.47151	1.98862
H	2.93935	-0.0500452	3.21632
H	3.31197	-0.927265	1.68032
H	1.94071	-1.47665	2.73105
N	0.944061	-0.20297	0.571656
C	-0.0128141	0.542369	-0.207714
C	-1.00614	-0.438696	-0.801315
O	-0.818406	-1.65115	-0.721173
H	1.05644	-1.15861	0.31477
H	-0.565845	1.20608	0.445186
C	0.690327	1.34383	-1.32508
H	1.2492	0.662372	-2.00133
H	-0.0344407	1.9329	-1.92359
H	1.41812	2.04948	-0.86821
N	-2.09819	0.0670064	-1.40771
C	-3.10071	-0.789868	-1.9967
H	-2.23468	1.05078	-1.45897
H	-3.91979	-0.185878	-2.44563
H	-3.5431	-1.46328	-1.22722
H	-2.6546	-1.425	-2.79591
C	127.642	-0.803013	0.440143
C	128.943	-0.969956	-0.246432
O	129.136	-1.8986	-1.01884
H	126.962	-1.63084	0.144198
H	127.179	0.163765	0.151803
H	127.784	-0.830805	1.5411
N	129.88	-0.0588214	0.0271211
C	131.208	-0.11289	-0.530479
C	132.159	0.549423	0.448405
O	131.732	1.15992	1.42643
H	129.721	0.667892	0.689316
H	131.513	-1.14741	-0.626903
C	131.261	0.597178	-1.90099
H	130.958	1.66128	-1.80081
H	132.275	0.550338	-2.34709
H	130.551	0.100994	-2.59874
N	133.481	0.435852	0.210227
C	134.461	1.0285	1.08998
H	133.807	-0.0655703	-0.584158
H	135.492	0.82447	0.724673
H	134.366	0.614352	2.11988
H	134.321	2.13227	1.14746
