44
  This energy is 0 and Call times are: 167977
C	1.72047	2.98743	-0.477398
C	1.46288	1.73737	0.272362
O	2.2267	1.35586	1.1484
H	2.66966	3.44177	-0.118934
H	0.892568	3.70904	-0.314277
H	1.81316	2.77065	-1.56253
N	0.362355	1.06016	-0.0631992
C	0.00138837	-0.195107	0.547179
C	-0.797719	-0.998893	-0.46124
O	-1.17396	-0.490634	-1.51567
H	-0.227866	1.3621	-0.806394
H	0.900589	-0.756788	0.767599
C	-0.82314	0.0335549	1.83291
H	-1.75095	0.600608	1.60562
H	-1.09543	-0.92526	2.31979
H	-0.221944	0.630349	2.55315
N	-1.06949	-2.28441	-0.161902
C	-1.81917	-3.12818	-1.06314
H	-0.753028	-2.67905	0.694361
H	-1.93756	-4.14949	-0.638728
H	-1.29886	-3.21461	-2.04451
H	-2.83319	-2.70459	-1.24613
C	754.173	1.23052	-0.728958
C	753.049	0.298518	-0.972359
O	753.015	-0.404198	-1.97307
H	754.89	1.16982	-1.57596
H	754.7	0.957301	0.20908
H	753.796	2.27221	-0.651036
N	752.087	0.274062	-0.0467148
C	750.91	-0.549499	-0.165498
C	749.778	0.132221	0.580775
O	749.992	1.11589	1.28672
H	752.109	0.881698	0.742061
H	750.619	-0.609335	-1.20696
C	751.164	-1.96089	0.407884
H	751.451	-1.90076	1.47914
H	750.269	-2.60901	0.309683
H	752	-2.43771	-0.147775
N	748.538	-0.373755	0.433799
C	747.399	0.212068	1.10089
H	748.384	-1.16777	-0.144948
H	746.469	-0.345851	0.853945
H	747.264	1.27323	0.789347
H	747.537	0.191663	2.20614
