44
  This energy is -3.6242 and Call times are: 181594
C	-0.236265	-3.15375	1.45283
C	0.516454	-2.10701	0.725588
O	1.72457	-2.19806	0.556572
H	0.468008	-3.94467	1.79097
H	-0.997053	-3.61118	0.785963
H	-0.738805	-2.71633	2.3412
N	-0.193912	-1.07081	0.273852
C	0.40477	0.0457701	-0.414174
C	-0.449404	1.27289	-0.157053
O	-1.54215	1.17458	0.39788
H	-1.16998	-0.990843	0.454858
H	1.38386	0.240593	0.00540823
C	0.510598	-0.232452	-1.92964
H	-0.49473	-0.421982	-2.36257
H	0.982687	0.614356	-2.46869
H	1.13322	-1.13896	-2.09375
N	0.0367665	2.46669	-0.550127
C	-0.703017	3.68968	-0.342271
H	0.9248	2.52657	-0.993843
H	-0.136489	4.56331	-0.733483
H	-0.894202	3.85345	0.743041
H	-1.68669	3.64746	-0.86357
C	994.543	-2.95283	1.84215
C	995.186	-1.69623	1.39665
O	996.204	-1.28073	1.93406
H	995.118	-3.37752	2.69391
H	994.531	-3.69129	1.01313
H	993.503	-2.75321	2.17445
N	994.595	-1.05201	0.387952
C	995.079	0.204799	-0.126671
C	993.897	0.970862	-0.691633
O	992.797	0.434916	-0.808687
H	993.744	-1.38138	-0.0121395
H	995.484	0.791976	0.687841
C	996.149	-0.0208674	-1.21687
H	995.731	-0.61424	-2.05757
H	996.54	0.939577	-1.6113
H	997	-0.589961	-0.783261
N	994.098	2.25453	-1.04939
C	993.031	3.06365	-1.59134
H	994.994	2.67193	-0.94335
H	993.394	4.0892	-1.82297
H	992.191	3.14521	-0.863662
H	992.633	2.61239	-2.52885
