44
  This energy is 0.1126 and Call times are: 172441
C	-0.94427	-3.11803	1.2243
C	-0.700585	-1.6685	1.39927
O	-1.06073	-1.08375	2.41158
H	-1.48591	-3.5093	2.11279
H	0.0201974	-3.65893	1.1244
H	-1.56287	-3.29559	0.319368
N	-0.0744423	-1.0468	0.397364
C	0.194478	0.3696	0.403792
C	0.229453	0.850918	-1.03449
O	0.208664	0.0501535	-1.96726
H	0.176037	-1.52801	-0.437839
H	-0.619907	0.885593	0.896904
C	1.53433	0.67356	1.10924
H	2.37156	0.152882	0.597402
H	1.74602	1.7622	1.13294
H	1.48887	0.305698	2.15755
N	0.27523	2.18073	-1.2479
C	0.305637	2.73146	-2.58279
H	0.287254	2.81305	-0.48037
H	0.341596	3.84267	-2.54903
H	-0.601349	2.42736	-3.15391
H	1.20084	2.36818	-3.13756
C	994.377	0.520675	-1.44457
C	995.237	0.10171	-0.31482
O	994.767	-0.105367	0.795441
H	993.327	0.613813	-1.09199
H	994.417	-0.234884	-2.25711
H	994.713	1.50367	-1.83701
N	996.539	-0.0321101	-0.577824
C	997.506	-0.391492	0.429156
C	998.842	0.210889	0.0378943
O	998.999	0.733975	-1.06372
H	996.912	0.179665	-1.47639
H	997.217	0.0499566	1.37501
C	997.621	-1.92598	0.560497
H	997.927	-2.37836	-0.406869
H	998.353	-2.21539	1.34251
H	996.63	-2.34603	0.839506
N	999.84	0.158065	0.941574
C	1001.14	0.710141	0.659845
H	999.693	-0.265642	1.82921
H	1001.83	0.568652	1.52671
H	1001.07	1.80106	0.445713
H	1001.6	0.213586	-0.228372
