44
  This energy is 0 and Call times are: 159745
C	-1.50467	-2.02832	2.39469
C	-0.49575	-1.02633	1.98332
O	0.170501	-0.421778	2.81219
H	-1.53215	-2.08763	3.50447
H	-1.24024	-3.02698	1.98787
H	-2.50958	-1.73333	2.0256
N	-0.361162	-0.824119	0.670544
C	0.548529	0.149275	0.119611
C	-0.0134068	0.624016	-1.20719
O	-0.984571	0.0669159	-1.71532
H	-0.93943	-1.29418	0.00984834
H	0.593261	1.00863	0.77698
C	1.95523	-0.45802	-0.0743294
H	1.91151	-1.33328	-0.757011
H	2.66844	0.285715	-0.485081
H	2.34343	-0.805816	0.907859
N	0.583896	1.6776	-1.79813
C	0.115231	2.2027	-3.0594
H	1.36599	2.11775	-1.36956
H	0.735961	3.0682	-3.38007
H	-0.942513	2.54225	-2.9748
H	0.164861	1.42226	-3.85287
C	163.277	3.45849	-0.27339
C	162.981	2.12565	-0.844934
O	162.452	2.01082	-1.94197
H	162.932	4.2456	-0.978366
H	164.37	3.57232	-0.11516
H	162.749	3.58603	0.694742
N	163.319	1.07137	-0.0989495
C	163.054	-0.287409	-0.501908
C	162.885	-1.1275	0.749913
O	163.139	-0.662747	1.85947
H	163.711	1.18153	0.809731
H	162.118	-0.32344	-1.04392
C	164.205	-0.838585	-1.37212
H	165.165	-0.811634	-0.81279
H	164.007	-1.87953	-1.70028
H	164.316	-0.203977	-2.27835
N	162.44	-2.39065	0.59972
C	162.243	-3.26254	1.73423
H	162.236	-2.74753	-0.305831
H	161.873	-4.2586	1.40515
H	161.498	-2.82746	2.43921
H	163.198	-3.40861	2.28838
