44
  This energy is -4.8166 and Call times are: 186711
C	-1.16135	-1.39942	2.96742
C	-0.64976	-0.256343	2.17825
O	-0.682614	0.883598	2.62082
H	-1.55671	-1.02814	3.93784
H	-0.343711	-2.12384	3.16601
H	-1.98036	-1.90853	2.41686
N	-0.159317	-0.541672	0.969768
C	0.33492	0.469633	0.068905
C	0.139451	-0.0259177	-1.35158
O	-0.213015	-1.18302	-1.57203
H	-0.176924	-1.46897	0.606906
H	-0.257973	1.36878	0.181317
C	1.8263	0.767142	0.338191
H	2.43639	-0.152679	0.212691
H	2.21501	1.55424	-0.339972
H	1.94673	1.1206	1.38553
N	0.357402	0.847777	-2.35417
C	0.19119	0.467567	-3.73764
H	0.638142	1.78099	-2.15577
H	0.416619	1.32399	-4.41065
H	-0.854699	0.135832	-3.93088
H	0.873879	-0.373139	-3.99896
C	996.021	-2.72886	-1.66964
C	995.514	-2.07103	-0.44422
O	995.313	-2.70918	0.579895
H	996.145	-3.81674	-1.47774
H	997.004	-2.29943	-1.95595
H	995.3	-2.5913	-2.50355
N	995.29	-0.757269	-0.524968
C	994.757	0.0129308	0.570836
C	993.991	1.18857	-0.00604738
O	994.044	1.44619	-1.20712
H	995.42	-0.259061	-1.37755
H	994.05	-0.593441	1.12264
C	995.888	0.506678	1.5
H	996.608	1.13748	0.93672
H	995.488	1.08938	2.35538
H	996.439	-0.369853	1.90426
N	993.25	1.92849	0.841831
C	992.483	3.06301	0.382588
H	993.216	1.70195	1.80964
H	991.941	3.54021	1.22891
H	991.734	2.74819	-0.379755
H	993.149	3.82552	-0.0822182
