44
  This energy is -3.5301 and Call times are: 187497
C	1.86616	2.51932	1.51101
C	1.60966	1.09473	1.20135
O	2.4438	0.233822	1.44519
H	2.88283	2.62277	1.94867
H	1.11986	2.89208	2.24371
H	1.81018	3.12848	0.584256
N	0.429466	0.811485	0.645206
C	0.0533367	-0.522497	0.248245
C	-0.919517	-0.414458	-0.910823
O	-1.38229	0.674458	-1.24522
H	-0.222605	1.52826	0.415197
H	0.928587	-1.04782	-0.113153
C	-0.58987	-1.28771	1.42552
H	-1.49387	-0.754683	1.78979
H	-0.871271	-2.32102	1.13635
H	0.136791	-1.3477	2.26499
N	-1.24734	-1.54907	-1.55984
C	-2.16122	-1.54302	-2.67831
H	-0.859387	-2.42008	-1.27718
H	-2.30249	-2.57204	-3.07628
H	-1.77168	-0.899747	-3.50034
H	-3.1558	-1.14608	-2.37109
C	994.894	0.291389	3.37605
C	994.114	0.687242	2.18179
O	993.131	1.40953	2.27824
H	994.426	0.732996	4.28289
H	995.937	0.662624	3.29232
H	994.902	-0.814296	3.47833
N	994.541	0.212246	1.00961
C	993.862	0.475131	-0.234267
C	994.122	-0.689778	-1.17075
O	994.94	-1.56031	-0.88093
H	995.319	-0.407819	0.95188
H	992.794	0.514186	-0.0565937
C	994.355	1.79644	-0.863871
H	995.448	1.75295	-1.05607
H	993.829	2.01705	-1.81531
H	994.161	2.6337	-0.158128
N	993.419	-0.736967	-2.31991
C	993.595	-1.81055	-3.26993
H	992.758	-0.0254955	-2.53498
H	992.929	-1.67083	-4.14937
H	993.356	-2.79274	-2.8015
H	994.649	-1.84737	-3.6305
