44
  This energy is -4.4463 and Call times are: 185004
C	-1.57833	1.40492	-2.76546
C	-0.400152	1.23029	-1.88652
O	0.701006	1.65143	-2.21286
H	-1.26837	1.92955	-3.69528
H	-2.35271	2.01216	-2.25131
H	-2.004	0.415602	-3.03591
N	-0.609783	0.59178	-0.73294
C	0.446911	0.308653	0.206101
C	0.0760765	-0.948137	0.970636
O	-1.04246	-1.44626	0.858949
H	-1.50329	0.218776	-0.499761
H	1.36017	0.0984807	-0.336499
C	0.653865	1.49181	1.17696
H	-0.279711	1.70104	1.74148
H	1.47427	1.29162	1.89626
H	0.916497	2.40228	0.595224
N	1.01644	-1.4976	1.76426
C	0.756162	-2.69697	2.5258
H	1.91706	-1.08234	1.83846
H	1.65259	-2.99096	3.11504
H	0.488807	-3.54122	1.84976
H	-0.0910564	-2.53829	3.23162
C	994.959	-3.44653	0.37277
C	994.366	-2.14292	0.748449
O	993.396	-2.07878	1.49058
H	994.376	-4.26526	0.848161
H	996.011	-3.50406	0.722835
H	994.928	-3.57712	-0.729548
N	994.947	-1.05681	0.232876
C	994.458	0.278122	0.472474
C	994.824	1.13754	-0.722957
O	995.573	0.711062	-1.59937
H	995.711	-1.12715	-0.402328
H	993.377	0.25669	0.535566
C	995.064	0.863868	1.76642
H	996.173	0.895852	1.69801
H	994.685	1.8863	1.96931
H	994.791	0.21475	2.62665
N	994.292	2.37409	-0.790177
C	994.579	3.26126	-1.89323
H	993.685	2.69992	-0.073425
H	994.049	4.2306	-1.76663
H	994.255	2.80715	-2.85733
H	995.673	3.46571	-1.95901
