44
  This energy is 0 and Call times are: 166913
C	2.82713	1.68303	1.13465
C	2.01474	0.45494	0.983113
O	2.47388	-0.645464	1.25645
H	3.84285	1.40945	1.49431
H	2.35587	2.36489	1.87339
H	2.91978	2.2035	0.158117
N	0.768376	0.619557	0.533841
C	-0.127539	-0.484318	0.294353
C	-1.09172	-0.0809478	-0.805287
O	-1.13108	1.07777	-1.2146
H	0.422442	1.51739	0.276751
H	0.439541	-1.33231	-0.0689102
C	-0.897883	-0.858466	1.57959
H	-1.48813	0.0080285	1.94678
H	-1.58095	-1.71622	1.41164
H	-0.1723	-1.14247	2.37282
N	-1.89116	-1.03715	-1.31773
C	-2.8364	-0.747814	-2.37081
H	-1.84187	-1.96996	-0.976374
H	-3.39968	-1.66351	-2.65618
H	-2.3114	-0.363236	-3.2751
H	-3.56758	0.0253846	-2.04115
C	677.061	-2.68952	0.795404
C	676.725	-1.24842	0.8359
O	677.328	-0.478276	1.57023
H	677.881	-2.89598	1.51701
H	677.398	-2.97545	-0.223115
H	676.174	-3.29698	1.07534
N	675.735	-0.8469	0.0346777
C	675.267	0.515988	-0.00482663
C	673.803	0.501586	-0.40373
O	673.265	-0.535182	-0.787734
H	675.226	-1.49279	-0.527097
H	675.326	0.943091	0.988488
C	676.092	1.35443	-1.00513
H	676.023	0.922709	-2.02634
H	675.75	2.40923	-1.03448
H	677.161	1.34439	-0.698141
N	673.119	1.65904	-0.313165
C	671.721	1.74018	-0.665929
H	673.571	2.4866	0.00361792
H	671.339	2.77505	-0.523525
H	671.115	1.05267	-0.0319712
H	671.567	1.45286	-1.73125
