44
  This energy is 0.1119 and Call times are: 177088
C	-3.30226	-0.424346	1.01377
C	-1.95534	-0.955079	0.705081
O	-1.64448	-2.10155	0.997265
H	-3.89628	-1.20859	1.53144
H	-3.8246	-0.137685	0.0768989
H	-3.22138	0.462061	1.67772
N	-1.1117	-0.116588	0.0987911
C	0.246393	-0.474858	-0.226438
C	1.08416	0.789908	-0.218018
O	0.554489	1.89556	-0.124769
H	-1.36571	0.826546	-0.0957444
H	0.638325	-1.12652	0.544507
C	0.319764	-1.16377	-1.60675
H	-0.0724417	-0.491641	-2.3995
H	1.35858	-1.45697	-1.86253
H	-0.306762	-2.08225	-1.59227
N	2.42194	0.654391	-0.30748
C	3.29994	1.80124	-0.301763
H	2.83226	-0.248786	-0.378075
H	4.3627	1.48331	-0.383451
H	3.17969	2.38328	0.640603
H	3.06924	2.47714	-1.1568
C	992.643	1.14932	-2.18079
C	993.192	0.960655	-0.819228
O	992.701	1.52865	0.146093
H	991.79	1.86012	-2.13721
H	992.284	0.180203	-2.58605
H	993.423	1.56473	-2.85373
N	994.244	0.145748	-0.711354
C	994.914	-0.102923	0.540781
C	996.365	-0.431558	0.243734
O	996.746	-0.612403	-0.911158
H	994.659	-0.277222	-1.51202
H	994.904	0.800859	1.13718
C	994.242	-1.2641	1.3053
H	994.262	-2.19416	0.698153
H	994.74	-1.45622	2.27759
H	993.179	-1.00519	1.50487
N	997.215	-0.508434	1.28672
C	998.615	-0.810481	1.10027
H	996.889	-0.354905	2.21358
H	999.147	-0.828409	2.07699
H	999.099	-0.0447959	0.451624
H	998.742	-1.80473	0.613759
