44
  This energy is 0 and Call times are: 170637
C	-0.779277	3.29113	-0.820884
C	-1.09144	2.00396	-0.159917
O	-2.02031	1.907	0.630154
H	-1.48797	4.06924	-0.462851
H	-0.881929	3.19079	-1.92185
H	0.256178	3.60705	-0.573655
N	-0.306456	0.970412	-0.47289
C	-0.459387	-0.334304	0.121154
C	0.89822	-1.01132	0.131606
O	1.85375	-0.515625	-0.462494
H	0.471004	1.07479	-1.08651
H	-0.772316	-0.22308	1.15185
C	-1.48153	-1.18278	-0.6666
H	-1.15565	-1.30604	-1.72142
H	-1.61845	-2.18486	-0.210957
H	-2.46527	-0.664509	-0.667901
N	1.0168	-2.16406	0.819471
C	2.27126	-2.87644	0.890251
H	0.233304	-2.54741	1.29722
H	2.16535	-3.79952	1.50175
H	3.05959	-2.23874	1.35194
H	2.61573	-3.16798	-0.128323
C	942.158	-2.13683	2.4912
C	941.337	-0.993553	2.03273
O	940.495	-0.486052	2.76126
H	941.858	-2.41321	3.5253
H	943.233	-1.86033	2.49089
H	942.001	-3.01172	1.82556
N	941.567	-0.557952	0.791797
C	940.818	0.517643	0.190744
C	940.797	0.298161	-1.31024
O	941.492	-0.573497	-1.82909
H	942.226	-1.00754	0.196415
H	939.793	0.476586	0.537195
C	941.45	1.88579	0.529087
H	942.498	1.93229	0.164542
H	940.874	2.723	0.0834451
H	941.462	2.02149	1.63261
N	939.986	1.08443	-2.04579
C	939.896	0.944746	-3.48055
H	939.429	1.78152	-1.60746
H	939.177	1.68071	-3.90287
H	939.552	-0.0787509	-3.75465
H	940.89	1.11327	-3.95514
