44
  This energy is 0 and Call times are: 169377
C	-2.02688	0.184646	-2.82318
C	-0.813454	0.560427	-2.06322
O	0.105889	1.16537	-2.59732
H	-1.91896	0.521087	-3.87724
H	-2.92153	0.670873	-2.38055
H	-2.16079	-0.917614	-2.80972
N	-0.783498	0.201504	-0.777667
C	0.34731	0.458954	0.0788094
C	0.384922	-0.616178	1.1485
O	-0.546753	-1.40784	1.27876
H	-1.52177	-0.32642	-0.367654
H	1.25955	0.371987	-0.498157
C	0.244726	1.85933	0.721972
H	-0.685791	1.94551	1.3226
H	1.11663	2.075	1.37297
H	0.210587	2.62956	-0.0792365
N	1.47506	-0.674255	1.93859
C	1.60184	-1.66707	2.97995
H	2.22051	-0.0275985	1.81524
H	2.56817	-1.55098	3.51843
H	1.56119	-2.69425	2.55039
H	0.774248	-1.56906	3.7193
C	849.61	0.304932	3.17595
C	850.083	-0.508132	2.03331
O	850.214	-1.72049	2.13031
H	849.437	-0.357682	4.05179
H	848.657	0.811905	2.91585
H	850.372	1.06636	3.44578
N	850.357	0.154067	0.906866
C	850.868	-0.49401	-0.275528
C	851.701	0.51369	-1.04494
O	851.712	1.69973	-0.721078
H	850.285	1.14603	0.855865
H	851.527	-1.30191	0.016331
C	849.715	-1.0266	-1.15407
H	849.044	-0.196574	-1.46247
H	850.095	-1.54	-2.0608
H	849.114	-1.7561	-0.568293
N	852.429	0.0596576	-2.08401
C	853.256	0.944136	-2.87109
H	852.41	-0.90422	-2.32825
H	853.776	0.382202	-3.67844
H	854.027	1.43273	-2.23237
H	852.64	1.74427	-3.34114
