44
  This energy is 0 and Call times are: 159045
C	1.09364	1.14569	3.09904
C	0.973673	1.27651	1.62947
O	1.27695	2.3156	1.05962
H	1.46199	2.10453	3.52427
H	1.81322	0.339508	3.35402
H	0.103711	0.911793	3.54449
N	0.518289	0.206514	0.973636
C	0.306971	0.196234	-0.452477
C	-0.80449	-0.789848	-0.758828
O	-1.24461	-1.53422	0.115192
H	0.236827	-0.618234	1.45575
H	-0.0326938	1.1741	-0.77033
C	1.60056	-0.196829	-1.19905
H	1.94363	-1.20441	-0.881058
H	1.45451	-0.194892	-2.29868
H	2.40218	0.533686	-0.953894
N	-1.29246	-0.811627	-2.01479
C	-2.35431	-1.71278	-2.39766
H	-0.926276	-0.198817	-2.70721
H	-2.61601	-1.57894	-3.47042
H	-3.26774	-1.52501	-1.78802
H	-2.04649	-2.77197	-2.24113
C	114.325	-0.184761	3.21302
C	113.188	-0.0172037	2.27969
O	112.032	-0.043079	2.67895
H	113.935	-0.341791	4.24218
H	114.963	0.72348	3.20533
H	114.933	-1.06658	2.92077
N	113.498	0.159068	0.993051
C	112.5	0.293207	-0.0389503
C	113.09	-0.223948	-1.3374
O	114.284	-0.506626	-1.41813
H	114.442	0.13685	0.677516
H	111.651	-0.333883	0.201711
C	112.06	1.76557	-0.192737
H	112.929	2.4077	-0.45
H	111.282	1.87997	-0.974929
H	111.639	2.12533	0.771394
N	112.259	-0.368261	-2.38822
C	112.73	-0.858859	-3.66255
H	111.295	-0.138161	-2.30233
H	111.896	-0.906472	-4.39776
H	113.161	-1.88046	-3.55511
H	113.521	-0.19112	-4.07262
