44
  This energy is 0 and Call times are: 160753
C	2.73987	-2.0239	0.713859
C	2.02287	-1.05767	-0.148371
O	2.58454	-0.507338	-1.08542
H	3.79299	-2.11283	0.369015
H	2.25676	-3.0218	0.654347
H	2.73515	-1.67341	1.76753
N	0.744079	-0.825249	0.156684
C	-0.0710707	0.120823	-0.563759
C	-1.12482	0.657401	0.386634
O	-1.28111	0.159354	1.49984
H	0.312439	-1.24996	0.947364
H	0.541902	0.958599	-0.872025
C	-0.735375	-0.544069	-1.78926
H	-1.37268	-1.39706	-1.47259
H	-1.35473	0.177683	-2.36022
H	0.0541093	-0.936384	-2.46687
N	-1.87124	1.69885	-0.0308308
C	-2.89427	2.27965	0.80718
H	-1.72724	2.09092	-0.933395
H	-3.39628	3.12468	0.286474
H	-2.45366	2.66438	1.7554
H	-3.66634	1.52019	1.06845
C	237.585	-0.848086	-2.17014
C	236.373	-1.18772	-1.39182
O	235.787	-2.24761	-1.56353
H	237.808	-1.67283	-2.88148
H	238.453	-0.71642	-1.48952
H	237.421	0.0877587	-2.74494
N	235.963	-0.277918	-0.504991
C	234.776	-0.447164	0.295162
C	234.22	0.928116	0.614603
O	234.86	1.9433	0.346748
H	236.427	0.597704	-0.405657
H	234.026	-0.970971	-0.284551
C	235.092	-1.21881	1.59511
H	235.853	-0.676518	2.19525
H	234.183	-1.36767	2.2134
H	235.504	-2.21876	1.33729
N	233.004	0.993011	1.19124
C	232.393	2.25807	1.5265
H	232.5	0.160727	1.39659
H	231.395	2.10165	1.99163
H	232.261	2.88419	0.614534
H	233.03	2.82414	2.24435
