44
  This energy is 0 and Call times are: 161705
C	-0.929914	-1.2861	3.0974
C	-0.482102	-1.45638	1.69682
O	-0.101185	-2.54216	1.28163
H	-0.83442	-2.25508	3.63392
H	-1.99222	-0.964263	3.12309
H	-0.301638	-0.52778	3.61054
N	-0.516789	-0.366834	0.926067
C	-0.0720572	-0.365991	-0.445345
C	0.42046	1.02887	-0.781996
O	0.245929	1.96359	-0.00253573
H	-0.790583	0.519018	1.28962
H	0.770038	-1.03899	-0.548217
C	-1.216	-0.780564	-1.39654
H	-2.07605	-0.0842603	-1.29903
H	-0.882276	-0.797177	-2.45431
H	-1.56604	-1.80087	-1.12675
N	1.05937	1.19997	-1.95611
C	1.56788	2.49045	-2.35892
H	1.19464	0.4307	-2.57174
H	2.06056	2.42584	-3.35407
H	2.31436	2.86594	-1.62201
H	0.742116	3.23545	-2.42399
C	301.64	0.946036	-3.06094
C	301.504	0.486372	-1.66052
O	300.416	0.477168	-1.10062
H	300.646	1.26458	-3.44169
H	302.022	0.121377	-3.69886
H	302.339	1.80794	-3.11437
N	302.625	0.0902271	-1.05381
C	302.658	-0.34274	0.32097
C	304.035	-0.0374034	0.880171
O	304.944	0.339481	0.143647
H	303.509	0.142133	-1.50932
H	301.942	0.233126	0.89409
C	302.351	-1.85236	0.431433
H	303.092	-2.44424	-0.147772
H	302.36	-2.1951	1.48641
H	301.343	-2.05378	0.00916965
N	304.218	-0.186178	2.20695
C	305.492	0.0863174	2.82937
H	303.469	-0.488177	2.7872
H	305.441	-0.0945179	3.92569
H	305.792	1.14628	2.66261
H	306.286	-0.568359	2.40241
