44
  This energy is 0 and Call times are: 169069
C	-2.08521	-2.3127	1.55435
C	-0.883305	-1.44889	1.534
O	-0.22511	-1.25613	2.54693
H	-2.24903	-2.68982	2.58723
H	-1.94576	-3.17859	0.873523
H	-2.9781	-1.73358	1.23741
N	-0.567566	-0.898951	0.359159
C	0.548366	-0.00160696	0.191744
C	0.228865	0.942203	-0.952239
O	-0.756788	0.758323	-1.66385
H	-1.13647	-1.0324	-0.447317
H	0.659861	0.600326	1.08498
C	1.84728	-0.784833	-0.0991327
H	1.73703	-1.39438	-1.02127
H	2.71653	-0.105718	-0.21632
H	2.05719	-1.47473	0.747235
N	1.05676	1.98679	-1.15086
C	0.829486	2.94039	-2.21161
H	1.8469	2.12122	-0.562056
H	1.6181	3.7248	-2.21088
H	-0.159677	3.43777	-2.08735
H	0.839117	2.43415	-3.20397
C	832.167	-1.236	0.74648
C	831.272	-0.222486	0.14335
O	831.707	0.849451	-0.254212
H	833.205	-0.840365	0.77234
H	832.152	-2.16747	0.14242
H	831.843	-1.46332	1.78402
N	829.979	-0.544724	0.063218
C	828.981	0.354871	-0.459544
C	827.657	0.0321897	0.207772
O	827.535	-0.967085	0.913591
H	829.634	-1.40445	0.428464
H	829.239	1.37111	-0.189073
C	828.862	0.216135	-1.99313
H	828.587	-0.823708	-2.27057
H	828.107	0.913575	-2.40936
H	829.844	0.449056	-2.45981
N	826.631	0.881956	0.00493014
C	825.336	0.659422	0.603667
H	826.751	1.68739	-0.566085
H	824.627	1.46742	0.318284
H	825.415	0.638883	1.71479
H	824.911	-0.314669	0.269792
