44
  This energy is -1.8419 and Call times are: 182361
C	0.997782	-1.61619	-2.91634
C	0.206823	-1.55304	-1.66673
O	-0.680195	-2.3636	-1.43739
H	0.632145	-2.4606	-3.54017
H	2.07062	-1.78051	-2.68231
H	0.885027	-0.671362	-3.48877
N	0.515143	-0.569419	-0.818309
C	-0.194429	-0.353487	0.417993
C	-0.118952	1.1238	0.754856
O	0.608575	1.8796	0.11362
H	1.21218	0.107272	-1.0376
H	-1.23965	-0.599332	0.277611
C	0.412784	-1.20048	1.55779
H	1.48229	-0.941163	1.70926
H	-0.133606	-1.05351	2.51193
H	0.3541	-2.27713	1.28627
N	-0.881279	1.57311	1.77122
C	-0.879109	2.96412	2.16016
H	-1.46666	0.947038	2.27564
H	-1.57046	3.13461	3.01467
H	-1.20415	3.60956	1.3122
H	0.14286	3.28505	2.4663
C	996.147	0.93854	-3.1489
C	996.241	0.947724	-1.67164
O	997.232	1.38422	-1.10295
H	997.085	1.3535	-3.57896
H	995.292	1.56302	-3.48199
H	996.012	-0.100226	-3.5173
N	995.193	0.455062	-1.00744
C	995.155	0.357852	0.430503
C	994.257	-0.806889	0.802416
O	993.581	-1.37799	-0.05077
H	994.411	0.065765	-1.48517
H	996.148	0.130517	0.799335
C	994.631	1.66786	1.05845
H	993.609	1.896	0.688449
H	994.61	1.61053	2.16606
H	995.299	2.50765	0.766579
N	994.237	-1.19337	2.09324
C	993.416	-2.29539	2.53942
H	994.794	-0.721542	2.7683
H	993.538	-2.45829	3.63304
H	993.7	-3.23476	2.01163
H	992.341	-2.09388	2.33192
