44
  This energy is 0 and Call times are: 159269
C	-0.0413842	-2.9573	-1.83449
C	0.0505555	-2.21857	-0.555052
O	-0.0168915	-2.80112	0.51849
H	-0.188979	-4.03892	-1.6243
H	0.894148	-2.82909	-2.41852
H	-0.902254	-2.58615	-2.42967
N	0.207063	-0.895671	-0.643536
C	0.26931	-0.0375968	0.513354
C	-0.254369	1.32987	0.116694
O	-0.485071	1.5987	-1.06069
H	0.219143	-0.431058	-1.52436
H	-0.388878	-0.424803	1.28114
C	1.71589	0.0694719	1.04362
H	2.38956	0.47656	0.259728
H	1.7748	0.716495	1.94274
H	2.0813	-0.943598	1.32024
N	-0.463195	2.22852	1.09897
C	-0.9651	3.55326	0.817328
H	-0.274523	1.99111	2.04613
H	-1.06924	4.14199	1.7553
H	-1.96312	3.49875	0.325134
H	-0.273306	4.09897	0.135587
C	129.266	0.254908	-3.4608
C	129.3	0.845906	-2.10407
O	129.721	1.97941	-1.91782
H	129.681	0.984501	-4.1898
H	128.22	0.0152661	-3.74757
H	129.878	-0.670741	-3.49055
N	128.852	0.0757237	-1.10979
C	128.863	0.49616	0.269221
C	128.987	-0.740167	1.13968
O	128.894	-1.86525	0.652541
H	128.551	-0.859727	-1.27155
H	129.739	1.10685	0.449706
C	127.577	1.27715	0.617855
H	126.679	0.647478	0.442876
H	127.579	1.61832	1.67337
H	127.503	2.17305	-0.0365266
N	129.209	-0.558164	2.45626
C	129.346	-1.67548	3.36122
H	129.285	0.35983	2.83118
H	129.525	-1.32047	4.40012
H	130.202	-2.32222	3.05989
H	128.424	-2.29983	3.35759
