44
  This energy is 0 and Call times are: 166297
C	1.89084	1.45472	2.53401
C	0.876847	0.488242	2.05559
O	0.45771	-0.401544	2.78292
H	2.16998	1.20611	3.58099
H	1.47965	2.4857	2.50686
H	2.79945	1.40248	1.89779
N	0.455506	0.643745	0.79834
C	-0.496049	-0.244244	0.178196
C	-0.227697	-0.256981	-1.31491
O	0.564431	0.536699	-1.81922
H	0.836154	1.34765	0.205467
H	-0.33574	-1.25102	0.543343
C	-1.94369	0.211516	0.464298
H	-2.11178	1.24034	0.0805049
H	-2.68601	-0.472076	0.00365792
H	-2.11514	0.220966	1.56287
N	-0.880255	-1.17102	-2.05972
C	-0.684309	-1.26163	-3.48785
H	-1.51421	-1.80748	-1.633
H	-1.30866	-2.07463	-3.91966
H	0.382995	-1.4758	-3.72507
H	-0.962875	-0.304017	-3.98435
C	628.305	-1.86972	-1.16464
C	629.701	-1.75402	-0.684283
O	630.355	-2.74644	-0.396204
H	628.011	-2.94164	-1.18409
H	628.218	-1.45445	-2.19065
H	627.62	-1.32133	-0.484625
N	630.193	-0.51717	-0.583931
C	631.52	-0.242509	-0.0910025
C	631.512	1.13365	0.547495
O	630.536	1.87365	0.436499
H	629.635	0.282893	-0.783091
H	631.768	-0.956465	0.684535
C	632.557	-0.302922	-1.23413
H	632.309	0.436684	-2.02506
H	633.584	-0.106803	-0.864866
H	632.54	-1.3161	-1.69187
N	632.604	1.50678	1.2429
C	632.685	2.79579	1.88954
H	633.382	0.892594	1.32497
H	633.661	2.91442	2.4099
H	631.871	2.90958	2.64146
H	632.583	3.61685	1.14347
