44
  This energy is 0.6019 and Call times are: 174626
C	1.33722	0.262965	-3.2024
C	1.40191	0.487233	-1.74067
O	2.43583	0.858212	-1.20233
H	2.33456	0.465949	-3.64962
H	0.591742	0.945638	-3.6617
H	1.05513	-0.789609	-3.41595
N	0.278867	0.260645	-1.05524
C	0.198465	0.393905	0.378053
C	-0.871199	-0.556485	0.882169
O	-1.60853	-1.1487	0.096457
H	-0.543337	-0.0803884	-1.50195
H	1.13812	0.0850184	0.818809
C	-0.135967	1.84737	0.779087
H	-1.10501	2.16119	0.335797
H	-0.186996	1.96596	1.88084
H	0.655721	2.52601	0.393047
N	-0.974939	-0.731205	2.21436
C	-1.9596	-1.62011	2.78574
H	-0.366606	-0.246353	2.83398
H	-1.88584	-1.62744	3.89557
H	-1.80973	-2.66094	2.41766
H	-2.98881	-1.29937	2.50465
C	993.869	-3.33389	-0.875804
C	994.641	-2.07149	-0.925755
O	995.77	-2.03776	-1.39521
H	994.486	-4.15788	-1.29634
H	992.94	-3.23839	-1.4755
H	993.608	-3.58105	0.174643
N	994.038	-0.987639	-0.431723
C	994.678	0.302928	-0.37189
C	994.09	1.0683	0.798856
O	993.111	0.638095	1.4046
H	993.134	-1.03913	-0.0156753
H	995.734	0.169215	-0.17259
C	994.47	1.08343	-1.68823
H	993.387	1.23005	-1.88775
H	994.969	2.07336	-1.65983
H	994.9	0.501194	-2.53209
N	994.685	2.225	1.15138
C	994.199	3.01871	2.25605
H	995.479	2.55472	0.651748
H	994.821	3.93156	2.38773
H	994.231	2.43369	3.2037
H	993.146	3.33441	2.07983
