44
  This energy is 0 and Call times are: 158597
C	1.74004	1.05863	-2.8221
C	0.725926	0.208126	-2.15926
O	-0.0707758	-0.452117	-2.81176
H	1.61633	0.986196	-3.92452
H	2.76145	0.717385	-2.5519
H	1.61107	2.1179	-2.51485
N	0.73263	0.207751	-0.824217
C	-0.220427	-0.536082	-0.0387517
C	-0.410111	0.185242	1.28233
O	0.316735	1.12589	1.59631
H	1.36072	0.782103	-0.307027
H	-1.17733	-0.537714	-0.545678
C	0.268995	-1.9815	0.198917
H	1.2456	-1.98055	0.728328
H	-0.462686	-2.56865	0.790877
H	0.408581	-2.48754	-0.781278
N	-1.4044	-0.236867	2.08809
C	-1.66358	0.392358	3.36209
H	-1.98463	-0.996974	1.81488
H	-2.5206	-0.0969433	3.87525
H	-1.90652	1.47102	3.22522
H	-0.770773	0.320934	4.02461
C	77.8962	-1.50409	-0.465415
C	78.7797	-0.515401	0.192671
O	78.3203	0.379037	0.889382
H	76.8368	-1.26609	-0.22685
H	78.1261	-2.52657	-0.0988212
H	78.0336	-1.46684	-1.56668
N	80.0901	-0.656475	-0.0198487
C	81.0708	0.253181	0.518033
C	82.2654	0.267751	-0.416962
O	82.3521	-0.539062	-1.34068
H	80.446	-1.36494	-0.622557
H	80.6595	1.25481	0.531497
C	81.5001	-0.175127	1.93843
H	81.9318	-1.19857	1.92346
H	82.2448	0.525261	2.36898
H	80.609	-0.186437	2.60337
N	83.2164	1.19812	-0.202039
C	84.3863	1.29167	-1.04385
H	83.1266	1.84498	0.548018
H	85.0487	2.11896	-0.706099
H	84.0947	1.48575	-2.10148
H	84.9683	0.342164	-1.0149
