44
  This energy is 0 and Call times are: 168929
C	0.277934	2.63782	2.25329
C	0.349857	1.19808	1.917
O	0.839879	0.39027	2.69401
H	0.736454	2.80504	3.25213
H	-0.78064	2.97138	2.28341
H	0.832175	3.23516	1.49891
N	-0.143904	0.840713	0.7292
C	-0.106003	-0.516403	0.24406
C	-0.057954	-0.475665	-1.27172
O	-0.220491	0.581099	-1.8788
H	-0.502339	1.51558	0.090495
H	0.806083	-0.991607	0.583047
C	-1.34093	-1.30909	0.725552
H	-2.27659	-0.827882	0.369176
H	-1.31643	-2.35958	0.370021
H	-1.36006	-1.31906	1.83726
N	0.176565	-1.6329	-1.9212
C	0.245242	-1.69015	-3.36279
H	0.309633	-2.47702	-1.41245
H	0.446387	-2.72889	-3.70598
H	1.05904	-1.03143	-3.74372
H	-0.714264	-1.35061	-3.81579
C	819.702	3.3503	-0.628772
C	819.02	2.07795	-0.956249
O	818.131	2.034	-1.79531
H	819.26	4.17049	-1.23538
H	820.785	3.27478	-0.861024
H	819.571	3.58875	0.447791
N	819.428	0.996882	-0.287257
C	818.83	-0.303082	-0.465665
C	818.978	-1.07387	0.832615
O	819.673	-0.637197	1.74859
H	820.124	1.05606	0.422033
H	817.77	-0.186431	-0.652396
C	819.504	-1.06513	-1.6277
H	820.59	-1.19431	-1.4317
H	819.044	-2.06218	-1.78409
H	819.391	-0.479088	-2.56576
N	818.317	-2.24279	0.944693
C	818.394	-3.04256	2.14496
H	817.757	-2.57767	0.194228
H	817.782	-3.96546	2.04243
H	818.019	-2.46918	3.02366
H	819.447	-3.34146	2.35141
