44
  This energy is 0 and Call times are: 163385
C	-2.10352	2.76558	0.198687
C	-0.901827	2.07713	-0.323918
O	-0.256453	2.54645	-1.25109
H	-2.2801	3.69285	-0.388564
H	-1.95518	3.03812	1.26474
H	-2.99262	2.10678	0.106056
N	-0.571635	0.927426	0.268987
C	0.545923	0.122134	-0.156607
C	0.24037	-1.32565	0.178246
O	-0.736215	-1.62076	0.864471
H	-1.13034	0.537559	0.995431
H	0.645964	0.19014	-1.23271
C	1.84872	0.575259	0.538121
H	1.75028	0.495688	1.64176
H	2.71907	-0.0282131	0.208235
H	2.0483	1.63955	0.285544
N	1.07024	-2.26879	-0.309419
C	0.85586	-3.67292	-0.0474537
H	1.85288	-2.01075	-0.866163
H	1.64407	-4.2886	-0.534171
H	-0.134994	-3.99873	-0.439032
H	0.878135	-3.87633	1.04766
C	421.088	-1.73425	-2.334
C	422.297	-0.973779	-1.94687
O	423.273	-0.919299	-2.68249
H	421.254	-2.20891	-3.32542
H	420.213	-1.05331	-2.40363
H	420.879	-2.52802	-1.58601
N	422.259	-0.361531	-0.761091
C	423.375	0.380289	-0.22899
C	423.303	0.32127	1.28526
O	422.316	-0.144573	1.8513
H	421.473	-0.448971	-0.155594
H	424.298	-0.10049	-0.527159
C	423.345	1.84571	-0.715755
H	422.403	2.3425	-0.401045
H	424.207	2.42384	-0.323981
H	423.391	1.86441	-1.82658
N	424.359	0.788085	1.97993
C	424.383	0.767646	3.42395
H	425.15	1.15748	1.50406
H	425.336	1.19378	3.80769
H	424.287	-0.275428	3.80363
H	423.539	1.36486	3.83941
