44
  This energy is 0 and Call times are: 166745
C	2.5266	2.03995	1.25203
C	1.93275	0.708072	0.997895
O	2.58071	-0.316081	1.16422
H	3.58346	1.91555	1.57369
H	1.96556	2.56217	2.05531
H	2.5025	2.65266	0.326229
N	0.66499	0.693595	0.579616
C	-0.0347673	-0.523121	0.250219
C	-1.08296	-0.197223	-0.796987
O	-1.33114	0.968735	-1.09809
H	0.163641	1.53718	0.409664
H	0.659183	-1.22485	-0.195467
C	-0.694861	-1.13674	1.50441
H	-1.41469	-0.421211	1.95596
H	-1.22522	-2.08151	1.26637
H	0.0896774	-1.35979	2.26012
N	-1.72032	-1.22832	-1.38575
C	-2.72908	-1.01511	-2.39724
H	-1.50287	-2.16495	-1.13175
H	-3.1347	-1.98565	-2.75885
H	-2.30217	-0.467295	-3.2684
H	-3.57275	-0.412174	-1.99002
C	663.702	0.728638	3.33006
C	664.081	0.183123	2.0074
O	665.24	-0.119394	1.75624
H	664.609	0.811195	3.96741
H	662.973	0.0543041	3.82737
H	663.252	1.73702	3.21324
N	663.096	0.0457058	1.1171
C	663.318	-0.431115	-0.225349
C	662.256	0.17564	-1.12385
O	661.309	0.798907	-0.647917
H	662.165	0.334659	1.32249
H	664.279	-0.0765712	-0.576388
C	663.256	-1.97335	-0.280164
H	662.267	-2.33709	0.0699149
H	663.439	-2.35346	-1.30615
H	664.036	-2.39569	0.390668
N	662.396	0.0131289	-2.4543
C	661.439	0.559975	-3.38724
H	663.171	-0.490813	-2.82069
H	661.728	0.319979	-4.43402
H	661.379	1.66784	-3.28522
H	660.423	0.141273	-3.19935
