44
  This energy is -3.8336 and Call times are: 177214
C	-0.81302	0.215575	3.37716
C	-0.407224	-0.556401	2.18111
O	-0.0239609	-1.71428	2.27509
H	-0.686658	-0.416764	4.28273
H	-1.87853	0.516701	3.29494
H	-0.179879	1.12196	3.48057
N	-0.481952	0.0805569	1.01018
C	-0.0807844	-0.525018	-0.235169
C	0.380667	0.577114	-1.17001
O	0.217344	1.7602	-0.87786
H	-0.756899	1.03615	0.954467
H	0.767275	-1.17505	-0.0594434
C	-1.24807	-1.31604	-0.865216
H	-2.11458	-0.647448	-1.05542
H	-0.947695	-1.7986	-1.81781
H	-1.57465	-2.11184	-0.160656
N	0.979664	0.211249	-2.32039
C	1.45652	1.19049	-3.26901
H	1.10653	-0.750991	-2.53734
H	1.91842	0.692381	-4.14978
H	2.22038	1.85218	-2.80002
H	0.618439	1.83091	-3.62766
C	992.414	0.889095	-2.75235
C	993.663	0.369308	-2.15035
O	994.527	-0.155786	-2.83899
H	992.428	0.698623	-3.84752
H	992.332	1.98265	-2.57874
H	991.534	0.377499	-2.30931
N	993.785	0.504787	-0.827827
C	994.923	0.00983727	-0.0941054
C	994.469	-0.323745	1.31449
O	993.347	-0.00727453	1.70619
H	993.055	0.897477	-0.275453
H	995.268	-0.910649	-0.548294
C	996.058	1.05716	-0.0635347
H	995.707	1.99806	0.411852
H	996.945	0.682542	0.486796
H	996.369	1.29195	-1.10496
N	995.334	-0.983023	2.11051
C	994.987	-1.34765	3.46448
H	996.236	-1.23416	1.77433
H	995.83	-1.88327	3.95526
H	994.095	-2.01386	3.47562
H	994.749	-0.441284	4.06698
