44
  This energy is -3.9935 and Call times are: 177272
C	-1.86065	2.86627	-0.659649
C	-1.06735	1.6972	-1.10134
O	-1.03147	1.36463	-2.27799
H	-2.37573	3.31346	-1.53749
H	-1.19558	3.63054	-0.205437
H	-2.62388	2.55222	0.0832778
N	-0.404592	1.03594	-0.149569
C	0.375102	-0.146518	-0.418694
C	0.381146	-1.00404	0.832771
O	-0.0732144	-0.575712	1.89192
H	-0.47644	1.29425	0.809587
H	-0.105376	-0.720847	-1.20095
C	1.81736	0.224896	-0.827563
H	2.3143	0.805069	-0.0210331
H	2.42391	-0.676633	-1.05087
H	1.78827	0.858803	-1.74062
N	0.892386	-2.24718	0.736472
C	0.935229	-3.13704	1.87335
H	1.25161	-2.57741	-0.130119
H	1.39085	-4.11213	1.59258
H	-0.0915291	-3.32866	2.26107
H	1.53824	-2.69252	2.69792
C	993.358	3.12859	-0.809474
C	993.2	1.67745	-0.563459
O	992.093	1.17115	-0.450644
H	992.355	3.60609	-0.845231
H	993.872	3.29883	-1.7789
H	993.948	3.59346	0.00815384
N	994.326	0.965523	-0.471206
C	994.335	-0.448786	-0.191547
C	995.631	-0.781695	0.522633
O	996.528	0.0537035	0.622316
H	995.221	1.39862	-0.524426
H	993.524	-0.683941	0.486156
C	994.208	-1.26944	-1.49371
H	995.046	-1.03636	-2.18497
H	994.199	-2.35991	-1.29043
H	993.256	-1.00385	-2.00351
N	995.757	-2.01677	1.04683
C	996.952	-2.42184	1.7488
H	995.019	-2.67763	0.959535
H	996.863	-3.47188	2.10463
H	997.13	-1.76648	2.63205
H	997.842	-2.35202	1.08222
