44
  This energy is 0 and Call times are: 165205
C	-1.14473	-2.73433	1.82365
C	-0.0543408	-1.87886	1.30368
O	1.09294	-1.99837	1.71097
H	-0.736058	-3.42098	2.59656
H	-1.58234	-3.33855	1.00136
H	-1.93732	-2.10691	2.28326
N	-0.395656	-0.979864	0.377574
C	0.546433	-0.0484258	-0.191154
C	-0.212031	1.19912	-0.603347
O	-1.44113	1.22432	-0.583412
H	-1.34118	-0.866812	0.0859165
H	1.26137	0.244643	0.567537
C	1.27007	-0.6685	-1.40651
H	0.537907	-0.959679	-2.18957
H	2.00819	0.0340307	-1.84486
H	1.81169	-1.58419	-1.08321
N	0.509052	2.27307	-0.981112
C	-0.12596	3.50599	-1.38467
H	1.50282	2.23479	-0.986784
H	0.635446	4.2694	-1.65796
H	-0.751063	3.91476	-0.557977
H	-0.78626	3.33786	-2.26608
C	554.256	2.24622	-2.34279
C	554.249	0.922825	-1.67966
O	554.886	-0.0170411	-2.13514
H	554.886	2.19495	-3.25785
H	554.677	3.01404	-1.65996
H	553.224	2.53503	-2.63229
N	553.513	0.818854	-0.570755
C	553.373	-0.415647	0.16064
C	552.024	-0.403153	0.855797
O	551.336	0.615239	0.876239
H	552.967	1.5815	-0.235125
H	553.369	-1.24495	-0.535684
C	554.512	-0.578748	1.19097
H	554.509	0.26636	1.91196
H	554.423	-1.53215	1.75101
H	555.489	-0.577198	0.660909
N	551.61	-1.54579	1.43812
C	550.339	-1.63015	2.11821
H	552.18	-2.36065	1.40751
H	550.18	-2.65121	2.52984
H	549.503	-1.40053	1.41826
H	550.294	-0.9017	2.95994
