44
  This energy is 0 and Call times are: 158429
C	2.81448	0.0467555	-2.04675
C	1.45479	0.510466	-1.68988
O	0.952671	1.4814	-2.23903
H	3.23829	0.716774	-2.82607
H	2.77323	-0.988286	-2.44642
H	3.47407	0.0719563	-1.15378
N	0.81998	-0.18495	-0.743414
C	-0.490776	0.17075	-0.259725
C	-0.608148	-0.29954	1.17784
O	0.256208	-1.01643	1.67851
H	1.25781	-0.948085	-0.276724
H	-0.589467	1.24912	-0.255413
C	-1.59308	-0.47048	-1.13092
H	-1.49868	-1.57733	-1.12719
H	-2.60705	-0.192813	-0.77695
H	-1.48296	-0.118527	-2.1799
N	-1.68447	0.103294	1.88161
C	-1.87808	-0.289785	3.25791
H	-2.3711	0.686592	1.46047
H	-2.82019	0.142373	3.66151
H	-1.03143	0.0634594	3.89011
H	-1.93509	-1.39893	3.3456
C	67.5159	-3.14418	0.155605
C	67.6518	-1.74313	0.613582
O	66.825	-1.23835	1.36066
H	66.5859	-3.58082	0.580267
H	68.3842	-3.74493	0.498789
H	67.4564	-3.18044	-0.952646
N	68.716	-1.07291	0.165555
C	68.9607	0.310474	0.489424
C	69.7455	0.931495	-0.650784
O	70.2027	0.233801	-1.55402
H	69.3582	-1.48454	-0.474687
H	68.0155	0.834934	0.553716
C	69.7414	0.436734	1.81598
H	70.7158	-0.0922418	1.74698
H	69.924	1.49771	2.08339
H	69.1522	-0.0312651	2.63459
N	69.913	2.26859	-0.639181
C	70.6409	2.94829	-1.68526
H	69.532	2.81671	0.0980509
H	70.6686	4.04419	-1.49695
H	70.1598	2.7748	-2.67508
H	71.6892	2.57532	-1.74082
