44
  This energy is 0 and Call times are: 170749
C	2.55983	1.98017	-1.28018
C	2.04604	0.968332	-0.329738
O	2.80589	0.318695	0.375255
H	3.67018	2.00127	-1.22951
H	2.16892	2.98555	-1.0172
H	2.25217	1.72345	-2.31581
N	0.72109	0.808898	-0.291466
C	0.0760278	-0.167012	0.551181
C	-1.22336	-0.580848	-0.113568
O	-1.64372	0.0177585	-1.10184
H	0.118316	1.31608	-0.900809
H	0.69979	-1.0497	0.617589
C	-0.195324	0.411407	1.95725
H	-0.843865	1.31084	1.89054
H	-0.679293	-0.33506	2.61989
H	0.768386	0.714814	2.42153
N	-1.88917	-1.62768	0.412603
C	-3.1314	-2.09645	-0.155994
H	-1.53106	-2.10194	1.21004
H	-3.52315	-2.96541	0.417295
H	-2.98452	-2.41225	-1.21428
H	-3.90006	-1.29019	-0.13983
C	951.169	0.604216	2.65369
C	949.846	0.217666	2.11408
O	948.983	-0.261829	2.83664
H	951.206	0.3688	3.73954
H	951.335	1.69339	2.51626
H	951.973	0.0397575	2.13614
N	949.656	0.419497	0.808158
C	948.437	0.0540251	0.131038
C	948.774	-0.255952	-1.31533
O	949.893	-0.0185661	-1.76614
H	950.382	0.772646	0.225148
H	948.041	-0.852749	0.571636
C	947.397	1.19351	0.212703
H	947.798	2.12107	-0.248613
H	946.449	0.918864	-0.293136
H	947.172	1.40881	1.28002
N	947.808	-0.805368	-2.0783
C	948.039	-1.13953	-3.46443
H	946.91	-0.993857	-1.69453
H	947.125	-1.58081	-3.91981
H	948.868	-1.87747	-3.55788
H	948.317	-0.231445	-4.04659
