44
  This energy is 0 and Call times are: 160557
C	1.80183	-2.11141	-2.09953
C	0.613484	-1.79772	-1.27457
O	-0.393222	-2.49081	-1.32538
H	1.59061	-3.00804	-2.72188
H	2.67501	-2.32408	-1.44755
H	2.03953	-1.25754	-2.76847
N	0.705793	-0.725526	-0.484466
C	-0.38274	-0.269818	0.343776
C	-0.245431	1.23049	0.522066
O	0.763371	1.8204	0.139923
H	1.51689	-0.147613	-0.484521
H	-1.32019	-0.449421	-0.167649
C	-0.368529	-0.981527	1.71436
H	0.588778	-0.788927	2.24399
H	-1.21009	-0.649317	2.35618
H	-0.462148	-2.07857	1.55921
N	-1.26843	1.88728	1.10356
C	-1.22937	3.31628	1.30998
H	-2.07814	1.39321	1.40243
H	-2.16307	3.6683	1.80142
H	-1.12179	3.8507	0.338337
H	-0.365876	3.59669	1.95566
C	221.307	1.46913	-3.14006
C	220.929	0.339907	-2.26099
O	220.285	-0.608026	-2.6898
H	220.903	1.29163	-4.16044
H	222.413	1.55304	-3.20072
H	220.886	2.41819	-2.74678
N	221.325	0.419598	-0.988635
C	220.996	-0.580898	-0.0040997
C	220.945	0.0916749	1.35478
O	221.322	1.25304	1.49739
H	221.813	1.21686	-0.644746
H	220.007	-0.97143	-0.208411
C	222.039	-1.72002	-0.00529218
H	223.052	-1.3214	0.214678
H	221.789	-2.50365	0.739056
H	222.065	-2.19252	-1.01147
N	220.465	-0.62558	2.38966
C	220.373	-0.0670428	3.71848
H	220.16	-1.5625	2.25375
H	219.953	-0.811848	4.43001
H	219.714	0.831357	3.72229
H	221.378	0.240878	4.08575
