44
  This energy is 0 and Call times are: 160389
C	2.35455	-1.84717	-1.77672
C	1.07295	-1.11195	-1.68672
O	0.432863	-0.830423	-2.69043
H	2.58911	-2.047	-2.84486
H	2.27908	-2.81517	-1.23817
H	3.17464	-1.24207	-1.33583
N	0.66546	-0.777622	-0.460115
C	-0.538843	-0.0236203	-0.215788
C	-0.352578	0.762083	1.06855
O	0.62229	0.565287	1.79147
H	1.21772	-0.977892	0.344106
H	-0.679741	0.693355	-1.01499
C	-1.76268	-0.959199	-0.105553
H	-1.62322	-1.68815	0.721016
H	-2.69836	-0.389425	0.0687785
H	-1.87499	-1.52979	-1.05327
N	-1.28605	1.68307	1.3791
C	-1.18971	2.4824	2.57825
H	-2.06564	1.83083	0.779537
H	-2.05172	3.18112	2.65543
H	-0.251134	3.08268	2.57581
H	-1.18205	1.83336	3.4837
C	207.229	-0.972503	2.83355
C	208.074	-1.27641	1.65713
O	208.587	-2.37764	1.51382
H	207.185	-1.86498	3.49494
H	206.199	-0.715549	2.5084
H	207.659	-0.122703	3.40454
N	208.242	-0.287855	0.775671
C	209.072	-0.418923	-0.396035
C	209.607	0.954991	-0.752336
O	209.188	1.96138	-0.184273
H	207.851	0.615747	0.926835
H	209.923	-1.04644	-0.162665
C	208.27	-1.01039	-1.57629
H	207.403	-0.361481	-1.82295
H	208.902	-1.12916	-2.48049
H	207.881	-2.01201	-1.29038
N	210.56	1.02749	-1.70259
C	211.133	2.29122	-2.10354
H	210.89	0.201721	-2.148
H	211.899	2.14187	-2.89608
H	211.619	2.79472	-1.23668
H	210.346	2.97163	-2.50071
