44
  This energy is -3.4743 and Call times are: 183193
C	-1.35747	2.81023	-1.5403
C	-0.443251	1.64614	-1.52526
O	0.136855	1.28372	-2.53943
H	-1.40843	3.22393	-2.5709
H	-0.983713	3.59927	-0.854398
H	-2.37666	2.50048	-1.22662
N	-0.29464	1.02337	-0.353745
C	0.527461	-0.149868	-0.191829
C	-0.043599	-0.974113	0.94662
O	-0.940274	-0.527437	1.65948
H	-0.805173	1.30517	0.453606
H	0.468467	-0.753942	-1.08863
C	1.99253	0.239537	0.103434
H	2.05479	0.850416	1.02917
H	2.63844	-0.655195	0.216455
H	2.38726	0.848664	-0.738884
N	0.460837	-2.20886	1.13892
C	-0.0242375	-3.06767	2.19406
H	1.18328	-2.55436	0.549196
H	0.515115	-4.04045	2.18857
H	-1.11252	-3.26962	2.06705
H	0.124342	-2.58977	3.18939
C	995.958	-3.27844	0.156772
C	994.935	-2.27369	-0.211707
O	993.987	-2.56826	-0.926311
H	995.709	-4.24917	-0.32457
H	995.978	-3.41806	1.25807
H	996.959	-2.95048	-0.192256
N	995.11	-1.04289	0.275057
C	994.222	0.0512331	-0.0308753
C	995.018	1.34072	0.0428967
O	996.166	1.34791	0.482703
H	995.908	-0.80835	0.821786
H	993.867	-0.0508213	-1.04874
C	993.035	0.0906567	0.955738
H	993.398	0.205939	1.99914
H	992.337	0.920504	0.722157
H	992.471	-0.865791	0.890444
N	994.425	2.46777	-0.397143
C	995.106	3.74081	-0.37086
H	993.496	2.44124	-0.753341
H	994.453	4.54535	-0.774359
H	996.035	3.702	-0.985732
H	995.393	4.01151	0.67099
