44
  This energy is 0 and Call times are: 162153
C	2.69024	2.11923	-0.619825
C	1.95165	1.16853	0.24145
O	2.46022	0.703465	1.25213
H	3.70624	2.28277	-0.19926
H	2.15721	3.09235	-0.660509
H	2.78828	1.70848	-1.64684
N	0.71452	0.852452	-0.148412
C	-0.111137	-0.0914841	0.562808
C	-1.05707	-0.736458	-0.432566
O	-1.1452	-0.3126	-1.58335
H	0.329374	1.20754	-0.995433
H	0.513522	-0.876882	0.969726
C	-0.904141	0.607779	1.6886
H	-1.55306	1.40659	1.27046
H	-1.53327	-0.110975	2.25262
H	-0.192159	1.07934	2.40069
N	-1.78501	-1.78946	-0.0114735
C	-2.70746	-2.4704	-0.889871
H	-1.69692	-2.12051	0.922184
H	-3.20983	-3.30886	-0.358973
H	-2.17308	-2.88595	-1.77476
H	-3.49065	-1.76866	-1.25772
C	333.707	3.01437	-1.16417
C	334.801	2.20249	-0.58497
O	335.939	2.64244	-0.500288
H	334.112	3.99815	-1.48748
H	332.914	3.18351	-0.406328
H	333.272	2.49741	-2.04547
N	334.474	0.976874	-0.168674
C	335.438	0.0544676	0.377339
C	334.962	-1.35587	0.0842027
O	333.841	-1.55895	-0.376925
H	333.552	0.61785	-0.281794
H	336.386	0.186876	-0.129385
C	335.603	0.265074	1.89841
H	334.633	0.118992	2.41993
H	336.353	-0.43003	2.32828
H	335.945	1.30587	2.08991
N	335.814	-2.36883	0.339165
C	335.45	-3.74367	0.0867311
H	336.719	-2.18432	0.708364
H	336.283	-4.42755	0.360375
H	335.212	-3.89538	-0.990975
H	334.553	-4.02853	0.682209
