44
  This energy is 0 and Call times are: 160529
C	2.45316	1.9225	1.54878
C	1.98744	0.669059	0.913843
O	2.7744	-0.216577	0.60927
H	3.55911	1.8905	1.65702
H	1.99671	2.0345	2.55469
H	2.17879	2.79521	0.91934
N	0.674415	0.566965	0.694948
C	0.0772319	-0.573882	0.046567
C	-1.18316	-0.110624	-0.65938
O	-1.62357	1.02356	-0.482219
H	0.0514561	1.31336	0.911024
H	0.753136	-0.9478	-0.71236
C	-0.252111	-1.6812	1.07156
H	-0.953772	-1.30118	1.8444
H	-0.69977	-2.57066	0.582694
H	0.683364	-1.99922	1.58157
N	-1.79154	-0.981573	-1.48845
C	-2.99306	-0.627364	-2.20752
H	-1.41783	-1.89348	-1.62204
H	-3.33967	-1.47666	-2.83663
H	-2.8098	0.248501	-2.87125
H	-3.81018	-0.35893	-1.49942
C	216.054	-1.85184	-0.071016
C	216.868	-0.681664	-0.470735
O	216.498	0.0722985	-1.36026
H	215.141	-1.89812	-0.704132
H	215.749	-1.76064	0.992718
H	216.636	-2.78763	-0.209794
N	218.015	-0.503538	0.188402
C	218.933	0.565085	-0.117075
C	220.333	0.104385	0.245401
O	220.51	-0.944285	0.862163
H	218.322	-1.14896	0.881945
H	218.922	0.752302	-1.18358
C	218.567	1.84723	0.661938
H	218.589	1.65845	1.75643
H	219.258	2.68151	0.42472
H	217.536	2.16152	0.387087
N	221.365	0.879507	-0.139727
C	222.733	0.518846	0.155791
H	221.202	1.7224	-0.641564
H	223.436	1.28236	-0.243744
H	222.987	-0.464972	-0.301111
H	222.889	0.4393	1.25594
