44
  This energy is -2.7045 and Call times are: 185182
C	2.21106	1.44929	2.2635
C	1.23166	0.406149	1.88434
O	1.07601	-0.595066	2.56972
H	2.73048	1.14329	3.19755
H	1.69245	2.41493	2.44052
H	2.96506	1.57706	1.45836
N	0.540005	0.621076	0.762823
C	-0.4173	-0.323164	0.242692
C	-0.470332	-0.161178	-1.26479
O	0.105232	0.773691	-1.81838
H	0.707108	1.42124	0.193892
H	-0.0737009	-1.32954	0.447086
C	-1.81315	-0.0912952	0.861637
H	-2.17067	0.93755	0.64325
H	-2.55607	-0.821046	0.479475
H	-1.74888	-0.206967	1.96565
N	-1.16067	-1.08001	-1.9685
C	-1.26174	-1.0105	-3.40764
H	-1.61629	-1.83161	-1.50311
H	-1.86976	-1.85505	-3.80042
H	-0.251588	-1.05875	-3.87512
H	-1.7425	-0.056019	-3.72225
C	994.521	0.874023	-3.07711
C	994.301	-0.089037	-1.97472
O	994.613	-1.26622	-2.09096
H	994.966	0.342229	-3.94605
H	995.217	1.67576	-2.75171
H	993.556	1.32634	-3.38843
N	993.747	0.398779	-0.862244
C	993.432	-0.424086	0.278964
C	992.255	0.20108	1.00236
O	991.843	1.31662	0.689228
H	993.461	1.35062	-0.797675
H	993.119	-1.40292	-0.0619973
C	994.647	-0.543542	1.22493
H	994.963	0.459507	1.58334
H	994.422	-1.18608	2.10063
H	995.5	-0.996008	0.672383
N	991.676	-0.512503	1.98831
C	990.546	-0.00108199	2.7286
H	992.021	-1.41507	2.2245
H	990.214	-0.7348	3.49576
H	989.69	0.204297	2.0461
H	990.812	0.949805	3.24455
