44
  This energy is 0.1066 and Call times are: 184771
C	3.06895	1.08632	1.23051
C	1.8378	1.29087	0.434531
O	1.54364	2.39427	-0.00408727
H	3.59813	2.05732	1.34456
H	3.7421	0.368376	0.716548
H	2.81278	0.696159	2.23811
N	1.07763	0.212663	0.229612
C	-0.171256	0.262833	-0.488942
C	-1.06675	-0.840957	0.0414251
O	-0.628863	-1.68979	0.815663
H	1.30925	-0.670378	0.627683
H	-0.664125	1.20486	-0.28328
C	0.0581932	0.0916742	-2.0066
H	0.554288	-0.879303	-2.21904
H	-0.894653	0.142354	-2.57232
H	0.722379	0.905376	-2.37143
N	-2.35325	-0.849365	-0.359682
C	-3.28088	-1.85782	0.0971466
H	-2.69009	-0.151727	-0.983307
H	-4.28879	-1.69366	-0.343745
H	-3.37519	-1.83089	1.20695
H	-2.9315	-2.87452	-0.195063
C	997.983	-0.982456	-0.196797
C	996.822	-0.207379	-0.688336
O	996.955	0.664512	-1.53587
H	998.906	-0.620974	-0.700709
H	997.848	-2.06061	-0.424932
H	998.096	-0.84821	0.899662
N	995.636	-0.512496	-0.155559
C	994.422	0.183628	-0.501751
C	993.487	0.125371	0.691357
O	993.748	-0.582366	1.66226
H	995.549	-1.19654	0.563061
H	994.648	1.2269	-0.683881
C	993.757	-0.451092	-1.74268
H	993.515	-1.51861	-1.55264
H	992.828	0.0846322	-2.02762
H	994.462	-0.404609	-2.60117
N	992.371	0.880602	0.649062
C	991.426	0.893673	1.74054
H	992.179	1.44995	-0.14344
H	990.576	1.57601	1.51666
H	991.915	1.23943	2.67998
H	991.018	-0.127462	1.91933
