44
  This energy is -4.2654 and Call times are: 186277
C	-1.13725	-1.16324	-3.07672
C	-0.0480191	-0.818451	-2.13553
O	1.1105	-1.13816	-2.36363
H	-0.715793	-1.73247	-3.93359
H	-1.61797	-0.239069	-3.46085
H	-1.89839	-1.79138	-2.5676
N	-0.403106	-0.148538	-1.03667
C	0.537854	0.219364	-0.00817319
C	-0.207455	0.290386	1.31131
O	-1.43414	0.214777	1.34659
H	-1.35596	0.0687789	-0.845077
H	1.28643	-0.557474	0.0855974
C	1.20256	1.57617	-0.32831
H	0.435925	2.37549	-0.414191
H	1.93946	1.8639	0.449325
H	1.7353	1.50328	-1.30157
N	0.522853	0.429952	2.43523
C	-0.0991233	0.501138	3.73686
H	1.51466	0.485226	2.38681
H	0.668437	0.615139	4.53378
H	-0.684309	-0.424095	3.94369
H	-0.794849	1.36944	3.79308
C	995.661	2.98712	-1.31267
C	995.485	1.51822	-1.3625
O	995.766	0.880741	-2.36799
H	996.045	3.34443	-2.29276
H	996.39	3.25853	-0.520353
H	994.689	3.48224	-1.10563
N	995.005	0.940269	-0.258865
C	994.739	-0.473998	-0.170385
C	993.617	-0.682843	0.828909
O	993.211	0.24707	1.52309
H	994.742	1.47754	0.53749
H	994.388	-0.832117	-1.1299
C	996.004	-1.24657	0.265779
H	996.359	-0.886799	1.25497
H	995.816	-2.33826	0.324187
H	996.814	-1.07287	-0.475567
N	993.082	-1.91615	0.918939
C	992.006	-2.20791	1.83774
H	993.421	-2.6548	0.345963
H	991.704	-3.27566	1.76275
H	991.117	-1.57515	1.61486
H	992.32	-2.00505	2.8873
