44
  This energy is 0 and Call times are: 165793
C	-1.04504	-1.65355	2.8786
C	-1.18059	-0.57609	1.8727
O	-2.18182	0.125262	1.82739
H	-1.96438	-1.69132	3.50252
H	-0.172434	-1.45579	3.53601
H	-0.912731	-2.6338	2.37393
N	-0.15828	-0.420526	1.02827
C	-0.162717	0.556772	-0.0316463
C	0.709299	0.0361918	-1.15865
O	1.40232	-0.967927	-1.00638
H	0.632234	-1.02585	1.05139
H	-1.16809	0.656488	-0.421399
C	0.360361	1.91969	0.472426
H	1.39564	1.82003	0.862687
H	0.348806	2.68445	-0.331021
H	-0.287897	2.27758	1.3019
N	0.688034	0.707556	-2.32692
C	1.48081	0.283101	-3.45719
H	0.117766	1.5155	-2.43226
H	1.3264	0.963428	-4.32352
H	1.20043	-0.749384	-3.76805
H	2.56466	0.283698	-3.19948
C	594.856	-0.75489	3.39442
C	594.576	0.133389	2.24388
O	593.829	1.09617	2.35443
H	594.283	-0.401331	4.27925
H	595.939	-0.737109	3.63692
H	594.547	-1.79516	3.15874
N	595.178	-0.177824	1.09361
C	594.97	0.566902	-0.123183
C	595.171	-0.375579	-1.29486
O	595.618	-1.50781	-1.12273
H	595.75	-0.988286	1.00881
H	593.944	0.912342	-0.159516
C	595.946	1.75978	-0.213891
H	596.999	1.40511	-0.187274
H	595.787	2.34928	-1.13992
H	595.787	2.43184	0.657445
N	594.835	0.0706337	-2.52115
C	594.986	-0.757585	-3.69472
H	594.47	0.988401	-2.63988
H	594.655	-0.212489	-4.60612
H	594.377	-1.68611	-3.60142
H	596.051	-1.05508	-3.83106
