44
  This energy is 0 and Call times are: 164309
C	-2.6295	1.88077	1.28883
C	-1.19272	1.53428	1.20667
O	-0.339861	2.24472	1.72079
H	-2.74562	2.83662	1.84449
H	-3.1854	1.08337	1.82537
H	-3.05233	2.00405	0.269461
N	-0.888965	0.415673	0.544239
C	0.467694	-0.0289447	0.343364
C	0.517826	-0.827255	-0.945722
O	-0.515759	-1.1379	-1.53472
H	-1.591	-0.130426	0.0961351
H	1.11063	0.832804	0.214319
C	0.947918	-0.88972	1.53235
H	0.294931	-1.7795	1.6586
H	1.99596	-1.2267	1.39602
H	0.89523	-0.288047	2.46593
N	1.7308	-1.17247	-1.42063
C	1.87703	-1.92748	-2.64324
H	2.55586	-0.908431	-0.932123
H	2.95121	-2.11152	-2.8657
H	1.43098	-1.37501	-3.50178
H	1.36207	-2.91197	-2.56121
C	490.34	3.20984	-0.121597
C	489.238	2.24801	-0.349987
O	488.111	2.63155	-0.63297
H	489.952	4.24572	-0.233258
H	491.15	3.04729	-0.863528
H	490.748	3.08754	0.903775
N	489.545	0.954415	-0.227546
C	488.569	-0.0968234	-0.37777
C	489.009	-1.2745	0.47167
O	490.118	-1.28897	1.00279
H	490.456	0.659315	0.0434689
H	487.616	0.242032	0.00894518
C	488.435	-0.517056	-1.85781
H	489.41	-0.8747	-2.25199
H	487.677	-1.31637	-1.98843
H	488.12	0.361942	-2.46173
N	488.139	-2.29239	0.626931
C	488.468	-3.45253	1.42206
H	487.245	-2.26067	0.19267
H	487.624	-4.17727	1.42774
H	488.685	-3.15871	2.47468
H	489.369	-3.96601	1.01454
