44
  This energy is 0 and Call times are: 158345
C	-0.920196	1.38628	-3.05682
C	0.072789	0.756756	-2.15748
O	1.14838	0.358004	-2.58233
H	-0.521382	1.39658	-4.09447
H	-1.11767	2.43111	-2.73733
H	-1.86923	0.809891	-3.0423
N	-0.273779	0.650287	-0.872589
C	0.569173	0.0222568	0.114108
C	-0.321243	-0.556662	1.19742
O	-1.52497	-0.307494	1.22314
H	-1.1694	0.942395	-0.54947
H	1.09973	-0.803727	-0.342934
C	1.56431	1.03809	0.716619
H	1.02035	1.88036	1.19486
H	2.22835	0.563454	1.46782
H	2.20004	1.45465	-0.0949715
N	0.253147	-1.35546	2.1183
C	-0.515895	-1.95588	3.18332
H	1.2279	-1.5487	2.07853
H	0.135332	-2.57777	3.8363
H	-1.3199	-2.60626	2.76876
H	-0.996176	-1.17139	3.81184
C	65.4164	-2.50368	-0.073067
C	64.1671	-1.88337	-0.568722
O	63.633	-2.2714	-1.59856
H	65.7361	-3.30054	-0.779234
H	65.2485	-2.95588	0.926979
H	66.2208	-1.7413	-0.00349992
N	63.6674	-0.886756	0.16574
C	62.4821	-0.157504	-0.210825
C	62.5888	1.24477	0.358229
O	63.485	1.53772	1.14735
H	64.1357	-0.554939	0.979649
H	62.4464	-0.066134	-1.28925
C	61.2115	-0.860247	0.315465
H	61.2428	-0.944799	1.42268
H	60.2912	-0.315787	0.0201799
H	61.1582	-1.88721	-0.107446
N	61.6747	2.15188	-0.0388015
C	61.7001	3.5124	0.445463
H	60.9595	1.89705	-0.681144
H	60.8678	4.10293	0.00306576
H	62.6618	4.00687	0.177274
H	61.5969	3.53687	1.55446
