44
  This energy is 0 and Call times are: 159465
C	-2.09996	2.59168	-0.993003
C	-1.07642	1.56133	-1.27916
O	-0.772013	1.27354	-2.42847
H	-2.50025	2.98789	-1.95147
H	-1.65042	3.42838	-0.418042
H	-2.93535	2.14967	-0.410034
N	-0.515461	0.972035	-0.220652
C	0.464369	-0.0787937	-0.34004
C	0.359608	-0.964799	0.886978
O	-0.343118	-0.638124	1.84153
H	-0.80312	1.18792	0.708062
H	0.228199	-0.691266	-1.20128
C	1.8882	0.506187	-0.465555
H	2.13494	1.12603	0.422671
H	2.65039	-0.29271	-0.572063
H	1.93945	1.15728	-1.36545
N	1.055	-2.11912	0.88593
C	1.01223	-3.02836	2.00737
H	1.61485	-2.36817	0.102596
H	1.64931	-3.91972	1.81547
H	-0.0301554	-3.37577	2.19182
H	1.37833	-2.5282	2.93309
C	139.838	0.874166	-1.1631
C	141.254	0.505636	-1.38889
O	141.664	0.22345	-2.50627
H	139.287	0.823524	-2.12732
H	139.771	1.90827	-0.76456
H	139.37	0.169792	-0.443938
N	142.044	0.497972	-0.312765
C	143.434	0.118866	-0.367198
C	143.821	-0.456255	0.982377
O	143.053	-0.385872	1.94022
H	141.687	0.690186	0.596595
H	143.562	-0.667014	-1.10121
C	144.324	1.33279	-0.713457
H	144.202	2.13515	0.0450162
H	145.395	1.05089	-0.77198
H	144.018	1.74219	-1.70098
N	145.026	-1.05026	1.08692
C	145.477	-1.63073	2.33012
H	145.631	-1.10106	0.299655
H	146.492	-2.07049	2.21324
H	144.783	-2.43584	2.66269
H	145.52	-0.858445	3.13194
