44
  This energy is 0 and Call times are: 162209
C	-3.44793	-0.4088	0.239441
C	-2.12484	-0.12253	0.838286
O	-2.02622	0.30988	1.97833
H	-4.24521	-0.15239	0.970518
H	-3.52742	-1.48643	-0.015764
H	-3.59247	0.199781	-0.678072
N	-1.06078	-0.359731	0.0676391
C	0.289198	-0.0898473	0.495748
C	1.12299	0.216837	-0.734005
O	0.665967	0.0481048	-1.86289
H	-1.15895	-0.672942	-0.872642
H	0.296002	0.795591	1.11911
C	0.876658	-1.29567	1.26133
H	0.87964	-2.20181	0.618724
H	1.911	-1.09498	1.60829
H	0.246255	-1.50701	2.15255
N	2.3716	0.685935	-0.541813
C	3.23637	1.01058	-1.6522
H	2.72228	0.81973	0.379164
H	4.22045	1.38071	-1.28914
H	2.77777	1.80139	-2.28906
H	3.41215	0.113427	-2.28888
C	339.909	3.29936	0.632312
C	339.722	1.89445	1.05931
O	340.156	1.49559	2.13143
H	340.486	3.84584	1.40999
H	338.924	3.79411	0.501396
H	340.472	3.33679	-0.324534
N	339.063	1.09994	0.213195
C	338.84	-0.301078	0.470278
C	338.742	-1.01698	-0.863676
O	338.686	-0.383357	-1.91587
H	338.752	1.42884	-0.673913
H	339.696	-0.708855	0.99302
C	337.551	-0.512683	1.29442
H	336.671	-0.103926	0.753821
H	337.376	-1.58648	1.51078
H	337.642	0.0263566	2.26268
N	338.727	-2.36443	-0.850555
C	338.641	-3.13135	-2.07149
H	338.777	-2.8595	0.0105319
H	338.643	-4.22177	-1.85189
H	339.506	-2.90684	-2.7378
H	337.706	-2.88622	-2.62483
