44
  This energy is 0 and Call times are: 165037
C	0.45534	-2.59506	-2.27399
C	-0.321026	-1.91115	-1.21537
O	-1.46779	-2.24739	-0.954061
H	-0.174807	-3.38317	-2.74054
H	1.3603	-3.06911	-1.83918
H	0.758927	-1.86779	-3.05629
N	0.297771	-0.917171	-0.573906
C	-0.342954	-0.130475	0.450369
C	0.28785	1.24925	0.451003
O	1.29177	1.48305	-0.219216
H	1.21695	-0.628169	-0.825803
H	-1.38987	-0.00639588	0.202994
C	-0.188961	-0.7969	1.83507
H	0.884868	-0.914826	2.09396
H	-0.690073	-0.207731	2.63024
H	-0.650485	-1.80817	1.80903
N	-0.29596	2.20335	1.2026
C	0.23046	3.54709	1.26101
H	-1.1101	1.99611	1.73486
H	-0.388281	4.18303	1.93181
H	0.23813	4.01032	0.247785
H	1.27558	3.54337	1.64683
C	538.8	-1.80516	2.00394
C	540.099	-1.64295	1.31201
O	541.034	-2.39947	1.53517
H	538.864	-2.66232	2.70893
H	537.996	-2.00637	1.26569
H	538.555	-0.886229	2.57688
N	540.186	-0.632931	0.443323
C	541.398	-0.322694	-0.27413
C	541.403	1.1647	-0.57278
O	540.407	1.85313	-0.360394
H	539.43	-0.000763769	0.302732
H	542.251	-0.527221	0.360422
C	541.488	-1.13803	-1.58268
H	540.618	-0.920612	-2.23861
H	542.423	-0.918285	-2.13741
H	541.475	-2.22318	-1.34061
N	542.536	1.6991	-1.06816
C	542.636	3.10639	-1.37754
H	543.334	1.1267	-1.22942
H	543.647	3.35121	-1.77344
H	542.458	3.72245	-0.466491
H	541.88	3.39526	-2.14292
