44
  This energy is -2.2112 and Call times are: 186125
C	-1.75082	-0.772958	2.90686
C	-1.38967	-1.03266	1.49503
O	-1.70806	-2.07624	0.941886
H	-2.29895	-1.65065	3.31318
H	-2.40388	0.122264	2.97638
H	-0.834474	-0.609712	3.51247
N	-0.702674	-0.072369	0.871924
C	-0.243271	-0.198353	-0.488824
C	1.01327	0.637627	-0.643126
O	1.37693	1.39898	0.251193
H	-0.415406	0.75404	1.34773
H	0.029374	-1.22879	-0.679856
C	-1.32924	0.267769	-1.48313
H	-1.60173	1.32803	-1.29436
H	-0.992679	0.162628	-2.53489
H	-2.24204	-0.352385	-1.34695
N	1.71434	0.507517	-1.78663
C	2.92588	1.25842	-2.02009
H	1.4064	-0.116698	-2.49698
H	3.35515	1.01251	-3.01632
H	3.68874	1.02486	-1.24242
H	2.72242	2.35323	-1.98629
C	994.986	-3.10943	1.52696
C	995.035	-2.22952	0.337627
O	995.521	-2.61606	-0.716109
H	995.456	-4.08618	1.28085
H	993.932	-3.28424	1.83046
H	995.541	-2.64543	2.36941
N	994.525	-1.00447	0.484303
C	994.539	-0.0211085	-0.569897
C	994.573	1.35516	0.0675214
O	994.419	1.49177	1.27968
H	994.169	-0.690387	1.36005
H	995.448	-0.131179	-1.1484
C	993.298	-0.166898	-1.47773
H	992.366	-0.04358	-0.886612
H	993.305	0.575856	-2.30162
H	993.29	-1.18393	-1.92708
N	994.786	2.41306	-0.739767
C	994.84	3.7603	-0.221879
H	994.912	2.2821	-1.71748
H	995.023	4.48959	-1.04141
H	995.659	3.86081	0.526763
H	993.881	4.0281	0.277632
