44
  This energy is 0 and Call times are: 164421
C	1.76169	2.81837	-1.03244
C	0.784714	2.14356	-0.148534
O	0.352104	2.69477	0.854173
H	2.00269	3.82057	-0.616022
H	1.33412	2.94503	-2.04924
H	2.69598	2.2216	-1.09624
N	0.411739	0.912696	-0.506652
C	-0.498517	0.113933	0.275634
C	-0.170042	-1.34781	0.0369847
O	0.627881	-1.67933	-0.837734
H	0.803703	0.4615	-1.3033
H	-0.335617	0.313602	1.32741
C	-1.9642	0.409687	-0.111088
H	-2.1345	0.194972	-1.18762
H	-2.67539	-0.189123	0.494022
H	-2.1799	1.48631	0.0641539
N	-0.776113	-2.26097	0.821106
C	-0.521243	-3.6747	0.670807
H	-1.41562	-1.97309	1.52625
H	-1.11349	-4.26153	1.40708
H	0.558305	-3.89844	0.831404
H	-0.79614	-4.01697	-0.353118
C	497.142	-0.482474	3.44379
C	497.207	-0.986523	2.05348
O	497.603	-2.11739	1.80784
H	497.513	-1.26859	4.13695
H	496.095	-0.231867	3.71198
H	497.778	0.421538	3.55283
N	496.813	-0.142062	1.0973
C	496.859	-0.473874	-0.304967
C	497.045	0.811386	-1.08929
O	496.965	1.90531	-0.533641
H	496.531	0.789382	1.30952
H	497.724	-1.09656	-0.496547
C	495.565	-1.19404	-0.744169
H	494.678	-0.551431	-0.557571
H	495.594	-1.46717	-1.81892
H	495.445	-2.12735	-0.151766
N	497.306	0.707402	-2.40712
C	497.503	1.87576	-3.23313
H	497.371	-0.186623	-2.83799
H	497.708	1.58275	-4.28658
H	498.365	2.4773	-2.86349
H	496.598	2.52468	-3.21855
