44
  This energy is 0 and Call times are: 163973
C	-0.57898	-3.40044	-0.463143
C	-1.03009	-2.04039	-0.0917812
O	-2.21657	-1.78823	0.0665503
H	-1.46427	-4.0638	-0.573094
H	0.0833141	-3.81297	0.326747
H	-0.0297089	-3.37136	-1.42779
N	-0.0759783	-1.11821	0.0553721
C	-0.362953	0.258569	0.372668
C	0.7426	1.11861	-0.210121
O	1.75462	0.606779	-0.685054
H	0.882048	-1.32885	-0.116923
H	-1.28736	0.551095	-0.109552
C	-0.460449	0.463901	1.90027
H	0.491291	0.173893	2.39436
H	-0.694812	1.51733	2.15696
H	-1.27022	-0.180894	2.3063
N	0.56926	2.45492	-0.1946
C	1.56507	3.35261	-0.731903
H	-0.258211	2.8502	0.190263
H	1.23843	4.41066	-0.626729
H	1.7386	3.14518	-1.81271
H	2.5345	3.22989	-0.196835
C	468.052	1.43883	0.852039
C	466.574	1.46447	0.781461
O	465.927	2.3183	1.37183
H	468.403	2.2666	1.50589
H	468.486	1.57258	-0.161177
H	468.398	0.473343	1.27763
N	465.998	0.510411	0.0460915
C	464.568	0.379814	-0.0827344
C	464.247	-1.08196	-0.331299
O	465.143	-1.89423	-0.554678
H	466.536	-0.202033	-0.39519
H	464.098	0.658778	0.852169
C	464.036	1.25515	-1.23858
H	464.51	0.962317	-2.19968
H	462.935	1.17395	-1.33911
H	464.289	2.31941	-1.03947
N	462.953	-1.45374	-0.289479
C	462.552	-2.82413	-0.508378
H	462.243	-0.782797	-0.103204
H	461.447	-2.9279	-0.432904
H	463.02	-3.4955	0.247906
H	462.869	-3.16943	-1.51917
