44
  This energy is 0 and Call times are: 165261
C	-0.407207	-3.40143	-0.614123
C	0.154949	-2.27619	0.166233
O	0.704924	-2.46467	1.24253
H	-0.252109	-4.34976	-0.0551062
H	0.101793	-3.47686	-1.59798
H	-1.49607	-3.25134	-0.772042
N	0.0245773	-1.05974	-0.368217
C	0.482729	0.1368	0.292801
C	-0.388983	1.29197	-0.162453
O	-1.19276	1.15013	-1.08198
H	-0.461775	-0.917675	-1.22562
H	0.344288	0.0298619	1.36146
C	1.96583	0.415285	-0.0359737
H	2.10663	0.535543	-1.1313
H	2.33435	1.32651	0.47821
H	2.58396	-0.446286	0.298635
N	-0.254729	2.46819	0.481373
C	-1.0458	3.62171	0.121108
H	0.398118	2.56237	1.22568
H	-0.789798	4.49109	0.765985
H	-2.13229	3.4054	0.239528
H	-0.864252	3.90682	-0.940444
C	558.124	3.26974	-0.396696
C	558.363	1.812	-0.301405
O	559.451	1.32907	-0.583587
H	559.048	3.7702	-0.760985
H	557.863	3.68065	0.600982
H	557.298	3.47636	-1.10965
N	557.332	1.06686	0.103506
C	557.399	-0.369794	0.204152
C	556.004	-0.924598	-0.0164097
O	555.03	-0.176189	-0.072768
H	556.441	1.46986	0.290282
H	558.028	-0.754613	-0.588614
C	557.941	-0.80158	1.58418
H	557.29	-0.415908	2.39737
H	558.01	-1.90545	1.66905
H	558.959	-0.377835	1.72728
N	555.877	-2.25892	-0.155578
C	554.59	-2.87666	-0.374399
H	556.677	-2.84778	-0.111105
H	554.693	-3.98053	-0.463608
H	554.123	-2.49171	-1.31009
H	553.899	-2.65637	0.471565
