44
  This energy is 0 and Call times are: 159633
C	1.52859	2.45313	1.93861
C	0.354832	1.63415	1.56087
O	-0.653652	1.61619	2.25301
H	1.31877	2.97556	2.89722
H	1.7349	3.21107	1.15394
H	2.42085	1.80533	2.07022
N	0.463854	0.924409	0.435369
C	-0.577674	0.0475317	-0.0388302
C	0.0700707	-1.06671	-0.839111
O	1.26443	-1.02261	-1.12767
H	1.30634	0.91751	-0.0956954
H	-1.07292	-0.409845	0.808617
C	-1.5944	0.818605	-0.908865
H	-1.08862	1.27921	-1.78412
H	-2.40899	0.15718	-1.26868
H	-2.04998	1.63386	-0.305414
N	-0.707243	-2.1028	-1.21104
C	-0.176949	-3.21134	-1.97006
H	-1.67055	-2.12258	-0.964603
H	-0.971402	-3.96166	-2.17761
H	0.642979	-3.71522	-1.40873
H	0.236233	-2.8596	-2.94304
C	157.972	0.235463	1.79547
C	156.766	0.840298	1.18589
O	156.446	1.99579	1.42837
H	158.457	0.978619	2.46485
H	158.693	-0.0607519	1.00478
H	157.692	-0.657432	2.39317
N	156.058	0.0574161	0.368489
C	154.838	0.490919	-0.265007
C	153.967	-0.729003	-0.497648
O	154.407	-1.86195	-0.312139
H	156.309	-0.893873	0.213037
H	154.3	1.14787	0.407291
C	155.134	1.20749	-1.6007
H	155.676	0.530477	-2.29469
H	154.203	1.55834	-2.09148
H	155.779	2.09209	-1.40739
N	152.698	-0.523218	-0.904261
C	151.794	-1.62328	-1.14573
H	152.359	0.401007	-1.04498
H	150.799	-1.24964	-1.47274
H	151.655	-2.22764	-0.220191
H	152.195	-2.29461	-1.93934
