44
  This energy is 0 and Call times are: 162545
C	1.75012	-2.47782	1.70593
C	0.86293	-1.29323	1.67797
O	0.269527	-0.922991	2.68157
H	1.74189	-2.91885	2.72637
H	2.78965	-2.18353	1.44999
H	1.39318	-3.24042	0.981962
N	0.749952	-0.663938	0.505962
C	-0.109031	0.477623	0.312191
C	-0.551245	0.495901	-1.1389
O	-0.0496205	-0.2697	-1.95984
H	1.20719	-1.00147	-0.311885
H	-0.998481	0.362505	0.919034
C	0.625491	1.78797	0.670956
H	1.53232	1.91177	0.0413727
H	-0.0298874	2.67319	0.539129
H	0.946874	1.74913	1.7347
N	-1.51411	1.37166	-1.48815
C	-2.00234	1.45697	-2.84481
H	-1.91076	1.9802	-0.808885
H	-2.79194	2.23572	-2.93036
H	-2.4346	0.482536	-3.1687
H	-1.17544	1.71744	-3.54448
C	361.884	-3.09887	-1.12423
C	362.524	-1.78372	-1.35083
O	363.108	-1.53562	-2.397
H	362.05	-3.74639	-2.01238
H	360.791	-2.97141	-0.972201
H	362.326	-3.59125	-0.232524
N	362.429	-0.898194	-0.356223
C	363.038	0.407393	-0.41235
C	363.362	0.839679	1.00538
O	362.957	0.19233	1.9691
H	361.987	-1.12918	0.505416
H	363.975	0.341688	-0.951367
C	362.095	1.42737	-1.08754
H	361.138	1.50292	-0.528915
H	362.559	2.43349	-1.14926
H	361.866	1.08679	-2.12078
N	364.112	1.94776	1.16538
C	364.475	2.4321	2.47686
H	364.434	2.45591	0.373312
H	365.093	3.35352	2.39869
H	365.06	1.66332	3.0314
H	363.565	2.66983	3.07372
