44
  This energy is 0 and Call times are: 159325
C	0.996608	-2.22454	2.48412
C	0.505659	-0.900167	2.04125
O	0.0941994	-0.0760335	2.84618
H	0.899914	-2.30144	3.58894
H	2.06462	-2.34894	2.20733
H	0.396614	-3.03195	2.01382
N	0.5369	-0.664617	0.727504
C	0.0528292	0.560781	0.142154
C	-0.425021	0.25625	-1.26514
O	-0.211923	-0.840146	-1.77916
H	0.836349	-1.36068	0.0812092
H	-0.803392	0.911558	0.704712
C	1.16149	1.63571	0.116817
H	2.0359	1.28048	-0.469057
H	0.797118	2.5885	-0.319007
H	1.50149	1.83683	1.15619
N	-1.09452	1.22433	-1.92136
C	-1.59207	1.02346	-3.26235
H	-1.26079	2.10354	-1.48729
H	-2.11433	1.93467	-3.62864
H	-2.31035	0.172292	-3.29141
H	-0.755775	0.793477	-3.96154
C	129.75	-1.23485	0.15528
C	130.722	-0.118897	0.173223
O	130.352	1.04471	0.101373
H	128.722	-0.824534	0.0532771
H	129.814	-1.81336	1.10079
H	129.955	-1.90754	-0.704018
N	132.01	-0.455786	0.268923
C	133.075	0.516454	0.255211
C	134.313	-0.145293	-0.321032
O	134.34	-1.35682	-0.528738
H	132.299	-1.40883	0.28532
H	132.807	1.33054	-0.406554
C	133.357	1.04588	1.67839
H	133.642	0.212495	2.35515
H	134.165	1.80551	1.67919
H	132.436	1.51875	2.08328
N	135.369	0.642289	-0.602066
C	136.588	0.102039	-1.15799
H	135.327	1.62104	-0.430881
H	137.338	0.907619	-1.31836
H	136.388	-0.39092	-2.13698
H	137.03	-0.657274	-0.472838
