44
  This energy is 0 and Call times are: 161873
C	-0.988466	3.02541	-1.40802
C	-0.285343	2.23939	-0.369302
O	0.4732	2.77671	0.42588
H	-0.690353	4.09319	-1.32522
H	-2.08721	2.94722	-1.26881
H	-0.71673	2.65377	-2.41853
N	-0.524775	0.926053	-0.355354
C	0.118174	0.0248543	0.568235
C	0.207687	-1.34017	-0.087696
O	-0.371175	-1.56851	-1.14812
H	-1.11307	0.497308	-1.03503
H	1.13091	0.362344	0.750163
C	-0.670073	-0.0618758	1.89352
H	-1.7059	-0.418143	1.70869
H	-0.177589	-0.742139	2.61825
H	-0.729851	0.949424	2.35183
N	0.947895	-2.28269	0.528564
C	1.09533	-3.60899	-0.0240476
H	1.41218	-2.07779	1.38385
H	1.7412	-4.23721	0.628179
H	1.55833	-3.56347	-1.03638
H	0.103533	-4.10724	-0.120127
C	316.714	-2.16996	-2.113
C	316.464	-0.822606	-1.55362
O	317.235	0.10361	-1.76388
H	317.666	-2.1578	-2.68758
H	315.887	-2.46172	-2.79376
H	316.799	-2.91479	-1.29374
N	315.361	-0.682935	-0.813928
C	315.006	0.556072	-0.168001
C	314.199	0.227571	1.07435
O	313.815	-0.920043	1.29016
H	314.765	-1.45618	-0.617839
H	315.907	1.06093	0.156602
C	314.191	1.46019	-1.11889
H	313.261	0.946793	-1.44386
H	313.923	2.42317	-0.637765
H	314.798	1.68112	-2.02436
N	313.931	1.23371	1.92971
C	313.175	1.01485	3.14075
H	314.254	2.15483	1.73994
H	313.061	1.96367	3.7099
H	313.688	0.273177	3.79524
H	312.159	0.622888	2.90457
