44
  This energy is -0.2209 and Call times are: 179827
C	-1.22352	-1.41229	-2.93617
C	-0.910511	-1.47684	-1.49084
O	-1.31817	-2.39692	-0.795366
H	-1.85875	-2.28143	-3.21358
H	-0.287495	-1.44646	-3.53236
H	-1.77456	-0.476244	-3.16696
N	-0.168313	-0.481867	-0.999357
C	0.181787	-0.384399	0.395809
C	0.363692	1.08272	0.736427
O	0.373123	1.93788	-0.14694
H	0.121673	0.281449	-1.56955
H	-0.638888	-0.755736	0.996835
C	1.47427	-1.17444	0.696766
H	2.31894	-0.786953	0.08815
H	1.74678	-1.11858	1.77061
H	1.32082	-2.24355	0.432568
N	0.504886	1.41006	2.03602
C	0.677774	2.78126	2.45567
H	0.490509	0.704457	2.73672
H	0.775948	2.84459	3.56183
H	-0.195181	3.40005	2.14531
H	1.59291	3.22042	1.99653
C	991.975	1.10201	-2.9534
C	992.141	1.1484	-1.4832
O	991.652	2.05183	-0.819195
H	991.387	1.98566	-3.28479
H	991.433	0.178934	-3.24846
H	992.967	1.123	-3.45128
N	992.849	0.158766	-0.934371
C	993.132	0.0909603	0.477678
C	994.444	-0.648292	0.662198
O	994.987	-1.21287	-0.28525
H	993.276	-0.547238	-1.49253
H	993.27	1.09356	0.862941
C	991.994	-0.628408	1.23447
H	991.859	-1.66066	0.846728
H	992.194	-0.674779	2.32467
H	991.043	-0.0746704	1.07888
N	994.99	-0.654475	1.89407
C	996.24	-1.32748	2.16355
H	994.538	-0.188547	2.64719
H	996.522	-1.21829	3.23379
H	997.058	-0.900885	1.53962
H	996.159	-2.41403	1.93112
