44
  This energy is -1.117 and Call times are: 171577
C	0.611689	-0.381908	-3.4048
C	0.443143	0.457246	-2.19709
O	0.731438	1.64603	-2.20703
H	1.03138	0.237674	-4.22691
H	-0.369251	-0.79003	-3.72719
H	1.30927	-1.21985	-3.19426
N	-0.033957	-0.155034	-1.11088
C	-0.211975	0.519403	0.150868
C	-0.0654857	-0.505471	1.2598
O	0.00229693	-1.70595	1.00295
H	-0.225426	-1.13237	-1.10654
H	0.577218	1.24954	0.280117
C	-1.59648	1.20008	0.22207
H	-2.40668	0.44993	0.10007
H	-1.74023	1.73453	1.18344
H	-1.68451	1.94005	-0.603184
N	-0.00446937	-0.0511481	2.52704
C	0.140105	-0.951894	3.64683
H	-0.0568798	0.92411	2.71464
H	0.171135	-0.386963	4.60449
H	1.08091	-1.54194	3.55736
H	-0.713183	-1.66693	3.68881
C	989.721	1.19913	-0.498878
C	991.168	1.40911	-0.269458
O	991.673	2.51738	-0.384512
H	989.251	2.16453	-0.786747
H	989.237	0.825869	0.427933
H	989.566	0.46555	-1.31794
N	991.879	0.329281	0.0637763
C	993.305	0.367829	0.276528
C	993.871	-0.997033	-0.066655
O	993.127	-1.94916	-0.292748
H	991.461	-0.57345	0.113514
H	993.748	1.08213	-0.405693
C	993.634	0.738804	1.73904
H	993.188	0.000421811	2.43884
H	994.729	0.785326	1.9121
H	993.203	1.73735	1.97044
N	995.212	-1.12167	-0.121875
C	995.841	-2.38064	-0.445972
H	995.797	-0.338811	0.060175
H	996.949	-2.27929	-0.441199
H	995.525	-2.72906	-1.45603
H	995.557	-3.16388	0.293706
