44
  This energy is -1.7226 and Call times are: 180035
C	-1.36512	3.11935	-0.720269
C	-0.222663	2.24683	-0.367221
O	0.926983	2.66316	-0.404572
H	-0.98468	4.12187	-1.0137
H	-2.0433	3.23334	0.151411
H	-1.92899	2.68531	-1.57277
N	-0.519765	0.994445	-0.0127641
C	0.486988	0.016324	0.316308
C	-0.0591697	-1.3575	-0.0240999
O	-1.23786	-1.50587	-0.340948
H	-1.45717	0.658375	-0.0266732
H	1.3596	0.179293	-0.303869
C	0.863518	0.0939446	1.81211
H	-0.0292943	-0.0836297	2.44882
H	1.64795	-0.645022	2.07503
H	1.25317	1.11006	2.04023
N	0.793932	-2.39949	0.0258131
C	0.36543	-3.74289	-0.287016
H	1.745	-2.25896	0.280353
H	1.21139	-4.45839	-0.188896
H	-0.0216561	-3.79879	-1.33024
H	-0.448929	-4.06597	0.401153
C	991.643	-1.2855	2.26666
C	993.031	-0.991775	1.84524
O	993.967	-1.10927	2.62385
H	991.64	-1.58497	3.33725
H	991.227	-2.11671	1.65969
H	991.007	-0.383639	2.14384
N	993.196	-0.594042	0.581527
C	994.482	-0.231132	0.038614
C	994.259	0.785944	-1.0648
O	993.125	1.03939	-1.46831
H	992.42	-0.463799	-0.0284087
H	995.071	0.25163	0.808131
C	995.219	-1.47227	-0.509808
H	994.62	-1.96184	-1.30665
H	996.216	-1.20798	-0.918115
H	995.364	-2.20622	0.312761
N	995.343	1.40212	-1.57537
C	995.228	2.38834	-2.62434
H	996.252	1.18672	-1.23306
H	996.23	2.77911	-2.90825
H	994.599	3.24541	-2.29049
H	994.755	1.94524	-3.53029
