44
  This energy is 0 and Call times are: 164449
C	0.472395	-3.18607	-1.31851
C	0.353248	-1.71824	-1.46818
O	0.640949	-1.16379	-2.51995
H	0.858254	-3.62173	-2.26572
H	-0.520887	-3.63007	-1.09715
H	1.17795	-3.43092	-0.496721
N	-0.0792113	-1.04585	-0.398951
C	-0.205628	0.390166	-0.378102
C	-0.0141072	0.86113	1.05126
O	0.0430996	0.0548196	1.9777
H	-0.270386	-1.50666	0.463006
H	0.588209	0.8273	-0.970866
C	-1.58605	0.830286	-0.912864
H	-2.40058	0.390593	-0.298664
H	-1.69048	1.93465	-0.914839
H	-1.70761	0.468087	-1.95708
N	0.0985264	2.18724	1.26287
C	0.288582	2.72765	2.58877
H	0.0538472	2.82375	0.500034
H	0.358641	3.83723	2.55488
H	1.22493	2.33111	3.04405
H	-0.562317	2.44995	3.2521
C	500.863	2.92999	-0.236613
C	499.573	2.20955	-0.148359
O	498.526	2.80854	0.0560237
H	500.689	4.01587	-0.0738514
H	501.315	2.78482	-1.24052
H	501.563	2.55768	0.54071
N	499.622	0.884144	-0.301045
C	498.456	0.0428279	-0.1985
C	498.9	-1.32569	0.282022
O	500.094	-1.60991	0.355797
H	500.487	0.406415	-0.426012
H	497.788	0.44721	0.552401
C	497.735	-0.0691709	-1.55976
H	498.416	-0.493808	-2.32795
H	496.827	-0.703268	-1.49072
H	497.425	0.944613	-1.89571
N	497.943	-2.20776	0.630228
C	498.271	-3.53204	1.10412
H	496.982	-1.958	0.567592
H	497.348	-4.10583	1.33932
H	498.894	-3.476	2.02656
H	498.847	-4.09392	0.33315
