44
  This energy is 0 and Call times are: 165373
C	-1.30746	0.548148	-3.17849
C	-0.254327	0.0360749	-2.27304
O	0.646167	-0.679179	-2.69009
H	-1.12755	0.163312	-4.20582
H	-1.28588	1.65799	-3.20157
H	-2.30654	0.205101	-2.83608
N	-0.347707	0.395871	-0.99077
C	0.577735	-0.0583443	0.0171021
C	-0.150531	-0.0912444	1.34755
O	-1.27659	0.389161	1.46118
H	-1.10936	0.944951	-0.658715
H	0.882612	-1.07254	-0.20891
C	1.80789	0.872099	0.0960428
H	1.49659	1.91058	0.338286
H	2.53454	0.525106	0.858995
H	2.32065	0.887036	-0.890466
N	0.477069	-0.670881	2.38975
C	-0.140288	-0.753613	3.6929
H	1.38635	-1.0577	2.27724
H	0.533265	-1.26503	4.41539
H	-1.09541	-1.32473	3.6395
H	-0.36795	0.263905	4.08529
C	565.837	2.94467	1.65546
C	564.855	2.05263	0.999198
O	563.653	2.26632	1.07965
H	565.297	3.75245	2.195
H	566.504	3.40384	0.895987
H	566.447	2.37125	2.38485
N	565.354	1.01376	0.325501
C	564.522	0.0349032	-0.329003
C	565.274	-1.28257	-0.355978
O	566.456	-1.34061	-0.0199544
H	566.333	0.829935	0.303324
H	563.624	-0.118368	0.255491
C	564.166	0.484251	-1.76291
H	565.087	0.631452	-2.36607
H	563.514	-0.254661	-2.27258
H	563.623	1.45395	-1.7194
N	564.599	-2.37971	-0.751524
C	565.23	-3.67777	-0.803763
H	563.643	-2.3135	-1.01572
H	564.511	-4.45108	-1.15294
H	565.602	-3.97449	0.203663
H	566.098	-3.66496	-1.50218
