44
  This energy is 0 and Call times are: 168873
C	2.68901	1.31106	1.77849
C	1.94789	0.174622	1.18655
O	2.45212	-0.937031	1.10656
H	3.70244	0.97008	2.08275
H	2.15416	1.692	2.67379
H	2.79332	2.12894	1.03465
N	0.713501	0.434385	0.74931
C	-0.113905	-0.558758	0.110854
C	-1.05323	0.151876	-0.845291
O	-1.13619	1.37858	-0.851336
H	0.332073	1.35372	0.784022
H	0.510251	-1.21744	-0.480071
C	-0.914287	-1.36527	1.15688
H	-1.56267	-0.69127	1.75635
H	-1.54487	-2.14253	0.678592
H	-0.207053	-1.87024	1.85054
N	-1.78117	-0.608076	-1.68708
C	-2.69755	-0.0197077	-2.63589
H	-1.69729	-1.59891	-1.67009
H	-3.20095	-0.808371	-3.23742
H	-2.15766	0.661523	-3.33282
H	-3.48026	0.573765	-2.11025
C	813.879	0.0872343	3.2938
C	814.316	-0.646781	2.08499
O	814.559	-1.84509	2.12523
H	813.844	-0.613456	4.15614
H	812.867	0.515215	3.13642
H	814.594	0.904914	3.52449
N	814.43	0.0698463	0.964341
C	814.886	-0.495491	-0.281118
C	815.558	0.604194	-1.08209
O	815.496	1.77656	-0.716691
H	814.269	1.05255	0.95664
H	815.636	-1.25003	-0.0777707
C	813.709	-1.10213	-1.07533
H	812.944	-0.326092	-1.29334
H	814.049	-1.55297	-2.03009
H	813.228	-1.89885	-0.467037
N	816.226	0.247137	-2.19658
C	816.9	1.22414	-3.0192
H	816.268	-0.707044	-2.47382
H	817.391	0.734347	-3.88887
H	817.681	1.76016	-2.43218
H	816.178	1.97996	-3.40396
