44
  This energy is 0 and Call times are: 164253
C	0.210514	-3.17936	-1.40001
C	-0.444899	-1.86007	-1.25494
O	-1.32477	-1.50221	-2.02577
H	-0.215457	-3.70615	-2.28144
H	0.0347569	-3.79576	-0.493421
H	1.30276	-3.04936	-1.55233
N	-0.0210155	-1.09451	-0.246668
C	-0.532881	0.23129	-0.00416353
C	0.557755	1.04372	0.66817
O	1.59132	0.506542	1.06173
H	0.724479	-1.38271	0.347509
H	-0.752882	0.708041	-0.951232
C	-1.79589	0.181267	0.883276
H	-1.56821	-0.298245	1.85912
H	-2.2076	1.19502	1.0658
H	-2.57758	-0.424753	0.375298
N	0.35432	2.36849	0.808267
C	1.33867	3.22273	1.43076
H	-0.48663	2.78559	0.479787
H	0.987009	4.27778	1.45148
H	2.30142	3.18513	0.871318
H	1.53508	2.89777	2.47812
C	481.768	-1.00022	0.814934
C	482.895	-0.885033	-0.137267
O	482.888	-1.48728	-1.202
H	481.006	-1.69571	0.400005
H	481.298	-0.00673509	0.974184
H	482.127	-1.39915	1.78697
N	483.907	-0.0963565	0.233248
C	485.092	0.081477	-0.567771
C	486.249	0.395444	0.362382
O	486.054	0.621884	1.5551
H	483.916	0.354958	1.12099
H	485.326	-0.848429	-1.07092
C	484.899	1.21896	-1.5944
H	484.669	2.17543	-1.07819
H	485.8	1.3565	-2.22663
H	484.042	0.971653	-2.25921
N	487.489	0.407859	-0.164332
C	488.651	0.69116	0.645157
H	487.627	0.218141	-1.13082
H	489.577	0.653872	0.0302573
H	488.747	-0.0530331	1.46872
H	488.574	1.70413	1.10245
