44
  This energy is 0 and Call times are: 161117
C	0.68492	-0.695014	-3.34074
C	-0.211972	-0.712724	-2.16328
O	-1.39684	-0.995864	-2.27431
H	0.100449	-0.949531	-4.2515
H	1.49695	-1.44162	-3.21455
H	1.12832	0.31497	-3.46889
N	0.343454	-0.402738	-0.989485
C	-0.410352	-0.33558	0.237636
C	0.266263	0.666306	1.15413
O	1.36625	1.13665	0.870381
H	1.30018	-0.134601	-0.921371
H	-1.40381	0.0400409	0.0265043
C	-0.487925	-1.72185	0.914016
H	0.530672	-2.10296	1.14039
H	-1.07761	-1.68612	1.85291
H	-0.979268	-2.44065	0.222453
N	-0.38465	1.02412	2.27855
C	0.178897	1.97525	3.20803
H	-1.27572	0.635791	2.48894
H	-0.506916	2.13789	4.06852
H	0.353664	2.95589	2.70895
H	1.15483	1.60936	3.60152
C	263.357	-1.45794	2.10557
C	262.709	-1.30314	0.783561
O	263.196	-1.80109	-0.222084
H	264.292	-2.04679	1.98943
H	262.679	-1.99366	2.80325
H	263.609	-0.46205	2.52714
N	261.578	-0.594587	0.756228
C	260.856	-0.321741	-0.461911
C	260.117	0.991896	-0.289817
O	260.063	1.54469	0.807054
H	261.216	-0.160994	1.57641
H	261.562	-0.191115	-1.2731
C	259.866	-1.46219	-0.783846
H	259.136	-1.58961	0.0433926
H	259.314	-1.27043	-1.72697
H	260.428	-2.41496	-0.897666
N	259.535	1.52915	-1.37988
C	258.815	2.77925	-1.31335
H	259.594	1.06908	-2.25964
H	258.41	3.05352	-2.31242
H	259.484	3.60053	-0.968933
H	257.963	2.70484	-0.598351
