44
  This energy is 0 and Call times are: 161761
C	-0.240501	-3.3868	0.764479
C	-0.799716	-2.13268	0.211663
O	-1.83403	-2.13467	-0.441486
H	-0.889231	-4.23985	0.468953
H	-0.201054	-3.3324	1.87273
H	0.781883	-3.55808	0.366378
N	-0.114201	-1.01524	0.464201
C	-0.509884	0.275051	-0.0428894
C	0.73782	1.12294	-0.203752
O	1.82093	0.738863	0.233354
H	0.747799	-1.03522	0.962622
H	-0.946488	0.153785	-1.0264
C	-1.51068	0.960315	0.913174
H	-1.05951	1.0945	1.91939
H	-1.83363	1.94877	0.526918
H	-2.41219	0.318653	1.02224
N	0.614833	2.30063	-0.847135
C	1.74841	3.1719	-1.05226
H	-0.269086	2.5924	-1.19732
H	1.44417	4.09057	-1.60061
H	2.53844	2.65572	-1.64445
H	2.19179	3.47632	-0.0766124
C	308.149	-3.03396	1.26002
C	307.148	-1.94498	1.19486
O	306.05	-2.0621	1.72078
H	307.719	-3.89516	1.81603
H	309.061	-2.68462	1.78815
H	308.42	-3.36662	0.235768
N	307.512	-0.843484	0.534066
C	306.632	0.282923	0.349031
C	307.021	0.980426	-0.940872
O	308.045	0.665287	-1.54312
H	308.395	-0.779064	0.0763237
H	305.616	-0.0734569	0.229549
C	306.726	1.25898	1.54218
H	307.766	1.63304	1.65869
H	306.043	2.12366	1.4181
H	306.445	0.725182	2.47618
N	306.201	1.94566	-1.40149
C	306.486	2.66042	-2.62365
H	305.374	2.18378	-0.902373
H	305.695	3.41315	-2.83325
H	306.539	1.95764	-3.48655
H	307.464	3.19029	-2.54985
