44
  This energy is 0 and Call times are: 167249
C	-0.0531933	-3.25284	1.23649
C	0.106231	-1.79235	1.41735
O	0.15006	-1.2938	2.53356
H	-0.134949	-3.73952	2.23265
H	0.826565	-3.67075	0.703463
H	-0.974203	-3.46811	0.654695
N	0.195631	-1.06264	0.302939
C	0.31044	0.374431	0.317651
C	-0.30388	0.911113	-0.961465
O	-0.638724	0.149822	-1.86702
H	0.11719	-1.47829	-0.598694
H	-0.266963	0.770486	1.14371
C	1.78811	0.808677	0.432383
H	2.37876	0.411412	-0.420463
H	1.88872	1.91308	0.458664
H	2.2194	0.398217	1.37146
N	-0.474641	2.24408	-1.06178
C	-1.05627	2.84514	-2.23933
H	-0.201253	2.84353	-0.316799
H	-1.11234	3.95061	-2.12973
H	-2.08659	2.45719	-2.41022
H	-0.445729	2.61258	-3.14171
C	696.388	0.957163	2.09152
C	697.286	1.18979	0.938084
O	697.071	2.09159	0.140055
H	695.555	1.69243	2.0623
H	696.946	1.08418	3.04287
H	695.964	-0.068229	2.04586
N	698.33	0.364937	0.822564
C	699.267	0.439507	-0.270521
C	699.832	-0.948688	-0.504181
O	699.603	-1.8633	0.284786
H	698.469	-0.390035	1.45704
H	698.742	0.729838	-1.17199
C	700.4	1.44056	0.0420882
H	700.946	1.13737	0.96096
H	701.121	1.51729	-0.797761
H	699.963	2.44761	0.21734
N	700.583	-1.14046	-1.60649
C	701.159	-2.42895	-1.91425
H	700.755	-0.389162	-2.2352
H	701.741	-2.38357	-2.86085
H	700.361	-3.19794	-2.03013
H	701.841	-2.75971	-1.09808
