44
  This energy is -3.7913 and Call times are: 177823
C	-1.48084	-1.87193	-2.53292
C	-0.342316	-1.11202	-1.96949
O	0.761177	-1.14148	-2.4966
H	-1.14087	-2.42981	-3.43241
H	-2.29596	-1.17791	-2.82728
H	-1.86501	-2.59672	-1.78446
N	-0.589783	-0.404315	-0.864827
C	0.427559	0.351119	-0.177152
C	0.0553429	0.417613	1.29206
O	-1.04206	0.0236294	1.68218
H	-1.48278	-0.42294	-0.424279
H	1.37162	-0.174676	-0.247261
C	0.553914	1.77221	-0.768576
H	-0.411472	2.31578	-0.687336
H	1.34369	2.35928	-0.256587
H	0.81891	1.69911	-1.84597
N	0.971053	0.91376	2.14725
C	0.70776	1.01064	3.5641
H	1.85503	1.22375	1.81323
H	1.58239	1.44339	4.09793
H	0.497293	0.0046561	3.99418
H	-0.176853	1.66009	3.75599
C	994.041	1.1317	-3.29067
C	994.426	0.1419	-2.25966
O	994.879	-0.951383	-2.56966
H	994.218	0.698987	-4.29937
H	994.651	2.05331	-3.18324
H	992.965	1.38722	-3.19257
N	994.25	0.509669	-0.988489
C	994.538	-0.361249	0.123698
C	993.623	0.0200278	1.27245
O	992.93	1.03425	1.21598
H	993.842	1.38713	-0.752759
H	994.302	-1.38176	-0.151273
C	996.018	-0.242823	0.547915
H	996.258	0.801783	0.840177
H	996.256	-0.918867	1.39461
H	996.669	-0.518765	-0.310286
N	993.594	-0.794964	2.34526
C	992.75	-0.515881	3.4836
H	994.158	-1.61325	2.37077
H	992.866	-1.30199	4.26183
H	991.679	-0.480471	3.17905
H	993.013	0.467579	3.93617
