44
  This energy is 0 and Call times are: 162909
C	-2.04102	1.67855	2.26482
C	-1.48988	0.435269	1.68032
O	-1.66383	-0.648933	2.21944
H	-2.57324	1.43551	3.21009
H	-2.75816	2.14806	1.55911
H	-1.22069	2.393	2.48777
N	-0.798971	0.568391	0.545726
C	-0.166216	-0.543919	-0.118313
C	1.03873	-0.0191213	-0.876109
O	1.23461	1.18948	-0.988451
H	-0.631144	1.46266	0.140767
H	0.19888	-1.24251	0.624185
C	-1.14973	-1.243	-1.08228
H	-1.51646	-0.529378	-1.85058
H	-0.678456	-2.10974	-1.5894
H	-2.02716	-1.61191	-0.507503
N	1.88394	-0.92288	-1.40983
C	3.0601	-0.516865	-2.14331
H	1.71082	-1.89657	-1.30484
H	3.62599	-1.40482	-2.50181
H	3.73463	0.0916221	-1.49831
H	2.77858	0.100056	-3.02722
C	389.119	0.49084	-3.44349
C	388.923	-0.370781	-2.25595
O	388.465	-1.49998	-2.36196
H	388.776	-0.0512998	-4.35135
H	390.194	0.742694	-3.56012
H	388.53	1.42617	-3.33924
N	389.27	0.153778	-1.07829
C	389.098	-0.546906	0.169856
C	388.898	0.48233	1.26645
O	389.064	1.68004	1.04378
H	389.603	1.08925	-1.00349
H	388.197	-1.1457	0.121875
C	390.323	-1.43556	0.477461
H	391.246	-0.820304	0.537224
H	390.196	-1.99102	1.42928
H	390.454	-2.17578	-0.341773
N	388.527	0.0363121	2.48255
C	388.308	0.942579	3.5858
H	388.393	-0.936177	2.64228
H	388.008	0.38429	4.49988
H	387.503	1.67261	3.34094
H	389.236	1.51555	3.8134
