44
  This energy is -4.6415 and Call times are: 184224
C	-1.64122	2.17412	2.16617
C	-0.691643	1.90359	1.06332
O	-0.232489	2.81289	0.386006
H	-1.83732	3.26695	2.22221
H	-1.2117	1.83606	3.13259
H	-2.60065	1.64578	1.98332
N	-0.373405	0.623905	0.854722
C	0.503829	0.200666	-0.20824
C	0.111652	-1.20799	-0.612519
O	-0.702566	-1.84938	0.0488341
H	-0.786986	-0.108552	1.38794
H	0.352968	0.837636	-1.07088
C	1.97974	0.242931	0.244692
H	2.13727	-0.418521	1.12316
H	2.6662	-0.0675414	-0.569492
H	2.24238	1.28128	0.543348
N	0.680042	-1.72143	-1.72127
C	0.363751	-3.0519	-2.18603
H	1.33358	-1.1856	-2.24553
H	0.932312	-3.29061	-3.11176
H	-0.723969	-3.14153	-2.40987
H	0.620417	-3.81024	-1.41131
C	994.69	1.85785	2.85618
C	994.892	0.569017	2.15669
O	994.993	-0.47967	2.77843
H	994.672	1.68123	3.9536
H	993.725	2.31264	2.54936
H	995.52	2.55647	2.6183
N	994.96	0.621045	0.824332
C	995.196	-0.543771	0.0082708
C	995.896	-0.0975608	-1.26167
O	996.018	1.09674	-1.52687
H	994.917	1.48729	0.334789
H	995.868	-1.21412	0.528708
C	993.869	-1.26035	-0.327489
H	993.183	-0.576274	-0.870708
H	994.039	-2.16678	-0.943977
H	993.371	-1.57086	0.616609
N	996.381	-1.0542	-2.07707
C	997.067	-0.724376	-3.30476
H	996.276	-2.01514	-1.84344
H	997.391	-1.64727	-3.83453
H	997.969	-0.104966	-3.09649
H	996.4	-0.145536	-3.98409
