44
  This energy is -2.1651 and Call times are: 180988
C	-1.42966	1.4048	-2.84522
C	-1.12427	0.245479	-1.97698
O	-1.66083	-0.838987	-2.15711
H	-2.18738	1.10717	-3.60229
H	-0.51118	1.74267	-3.36961
H	-1.83719	2.24063	-2.23826
N	-0.241376	0.453908	-0.997469
C	0.124455	-0.565573	-0.0459519
C	0.522421	0.11708	1.2491
O	0.654839	1.33828	1.30245
H	0.156105	1.35306	-0.838082
H	-0.739848	-1.18228	0.166855
C	1.28711	-1.42916	-0.582325
H	2.17751	-0.79849	-0.790845
H	1.56886	-2.22662	0.135446
H	0.976383	-1.91262	-1.5342
N	0.715256	-0.660909	2.33242
C	1.09042	-0.0993966	3.60919
H	0.599368	-1.64672	2.27059
H	1.20098	-0.899817	4.3736
H	0.317344	0.61999	3.9643
H	2.0587	0.445804	3.52954
C	991.46	1.89066	-2.04164
C	992.473	0.830634	-1.83908
O	992.764	0.0532776	-2.73761
H	991.053	1.81768	-3.07372
H	991.921	2.89161	-1.90702
H	990.627	1.76727	-1.31769
N	993.04	0.774419	-0.63164
C	994.01	-0.228394	-0.270704
C	993.911	-0.466515	1.22429
O	993.22	0.262283	1.93353
H	992.763	1.38813	0.102151
H	993.761	-1.1602	-0.763006
C	995.437	0.222031	-0.653602
H	995.697	1.17246	-0.140573
H	996.193	-0.547633	-0.393349
H	995.485	0.398099	-1.75046
N	994.598	-1.50541	1.73898
C	994.559	-1.81245	3.1498
H	995.148	-2.08631	1.14849
H	995.188	-2.70175	3.37607
H	993.516	-2.02836	3.47641
H	994.938	-0.953352	3.74953
