44
  This energy is 0 and Call times are: 159129
C	-2.6881	-0.266311	-2.19451
C	-1.889	0.480664	-1.19721
O	-2.07807	1.67291	-0.99919
H	-3.40631	0.427135	-2.68357
H	-3.25634	-1.08043	-1.69746
H	-2.0228	-0.700519	-2.97036
N	-0.960659	-0.216517	-0.538047
C	-0.0767497	0.381579	0.431255
C	1.21663	-0.411224	0.444501
O	1.31081	-1.47296	-0.168329
H	-0.790847	-1.17696	-0.739488
H	0.166027	1.38969	0.119154
C	-0.72135	0.389575	1.8347
H	-0.960964	-0.645285	2.15979
H	-0.0561036	0.860181	2.58736
H	-1.67009	0.968375	1.79952
N	2.25288	0.0944528	1.14201
C	3.52458	-0.58722	1.20731
H	2.15872	0.956977	1.62807
H	4.24723	-0.0128861	1.82791
H	3.95756	-0.709361	0.188048
H	3.405	-1.60023	1.65526
C	119.26	1.84512	2.93951
C	119.447	1.68634	1.47969
O	119.746	2.63858	0.772538
H	119.416	2.91047	3.21604
H	119.994	1.21966	3.48949
H	118.23	1.54619	3.22835
N	119.268	0.457651	0.988788
C	119.373	0.155652	-0.417049
C	118.474	-1.02926	-0.714586
O	117.943	-1.6611	0.196581
H	118.985	-0.299037	1.57094
H	119.002	0.995039	-0.9914
C	120.834	-0.162172	-0.805715
H	121.212	-1.02987	-0.224343
H	120.93	-0.382847	-1.88858
H	121.475	0.715582	-0.571961
N	118.275	-1.35417	-2.00719
C	117.43	-2.46285	-2.38654
H	118.71	-0.828477	-2.73058
H	117.393	-2.56841	-3.49322
H	116.391	-2.31062	-2.01416
H	117.815	-3.41548	-1.95591
