44
  This energy is 0 and Call times are: 167053
C	-3.00565	-1.60695	-0.704593
C	-1.98365	-0.573347	-0.984428
O	-2.00393	0.0719125	-2.02348
H	-3.70725	-1.67203	-1.56448
H	-3.57934	-1.34072	0.207955
H	-2.52075	-2.59553	-0.56083
N	-1.0501	-0.392808	-0.0472658
C	0.0340165	0.545938	-0.195623
C	1.21598	0.0340125	0.605909
O	1.09423	-0.926096	1.36425
H	-1.02301	-0.954177	0.774925
H	0.338547	0.578727	-1.23428
C	-0.382509	1.95118	0.291236
H	-0.68497	1.92006	1.35969
H	0.439285	2.68624	0.16929
H	-1.25373	2.30241	-0.303705
N	2.39747	0.662826	0.448744
C	3.57872	0.242516	1.16581
H	2.47724	1.43527	-0.172573
H	4.44833	0.883566	0.901139
H	3.83352	-0.813451	0.918253
H	3.4154	0.309475	2.2658
C	683.713	0.490567	-3.19627
C	684.765	0.677993	-2.17208
O	685.86	1.137	-2.46623
H	684.105	0.807236	-4.18734
H	682.823	1.10645	-2.94794
H	683.419	-0.578715	-3.25117
N	684.451	0.318126	-0.925484
C	685.384	0.401051	0.170179
C	685.02	-0.667838	1.18342
O	683.977	-1.30938	1.07495
H	683.57	-0.0921138	-0.709129
H	686.38	0.177222	-0.19126
C	685.347	1.80055	0.82228
H	684.328	2.02635	1.20265
H	686.071	1.88145	1.65854
H	685.608	2.5674	0.060813
N	685.883	-0.890618	2.19441
C	685.624	-1.89161	3.2028
H	686.724	-0.364214	2.26302
H	686.45	-1.9234	3.94708
H	685.53	-2.90063	2.73973
H	684.674	-1.66976	3.7417
