44
  This energy is 0 and Call times are: 168089
C	-0.0576446	2.53706	-2.38174
C	-0.588362	1.8769	-1.16779
O	-1.41116	2.43279	-0.453372
H	-0.509903	3.54808	-2.47752
H	-0.31324	1.94212	-3.28367
H	1.04541	2.64224	-2.30894
N	-0.118651	0.655582	-0.90298
C	-0.508284	-0.0946439	0.264884
C	0.637656	-1.01552	0.639524
O	1.60567	-1.15184	-0.106189
H	0.581358	0.232916	-1.47149
H	-0.658794	0.586448	1.09319
C	-1.79173	-0.909905	-0.00597258
H	-1.63455	-1.61627	-0.848813
H	-2.10981	-1.48118	0.890123
H	-2.61467	-0.216576	-0.285988
N	0.557385	-1.66662	1.81667
C	1.60274	-2.5596	2.25938
H	-0.231915	-1.54028	2.40837
H	1.35231	-2.99734	3.25078
H	2.57102	-2.01612	2.35073
H	1.7417	-3.39279	1.53299
C	758.197	3.3432	-0.539245
C	758.005	2.05355	0.161628
O	757.312	1.97609	1.16641
H	757.646	4.14168	0.00366954
H	757.805	3.27729	-1.57595
H	759.275	3.60653	-0.568039
N	758.629	0.995376	-0.361577
C	758.572	-0.316969	0.232652
C	759.85	-1.05298	-0.123701
O	760.64	-0.58381	-0.940587
H	759.223	1.08209	-1.15624
H	758.546	-0.220054	1.31086
C	757.339	-1.09812	-0.271311
H	757.371	-1.20696	-1.37638
H	757.277	-2.10518	0.18961
H	756.416	-0.537309	-0.00663625
N	760.087	-2.228	0.491963
C	761.28	-2.99643	0.220385
H	759.438	-2.58938	1.15306
H	761.292	-3.93019	0.824685
H	762.192	-2.4067	0.468091
H	761.331	-3.27514	-0.857045
