44
  This energy is 0.1021 and Call times are: 172413
C	-3.08777	1.59351	0.197706
C	-1.98666	0.806498	0.797132
O	-1.92782	0.617714	2.00432
H	-3.76426	1.95183	1.00384
H	-3.67015	0.962455	-0.506105
H	-2.67898	2.47173	-0.345177
N	-1.07323	0.324124	-0.0486425
C	0.0788648	-0.423716	0.389511
C	1.19526	-0.203534	-0.613852
O	0.981531	0.376705	-1.67656
H	-1.11238	0.520771	-1.02418
H	0.418129	-0.032521	1.34056
C	-0.252479	-1.92739	0.509581
H	-0.590517	-2.33163	-0.468354
H	0.62281	-2.51214	0.85953
H	-1.07709	-2.06407	1.24285
N	2.42276	-0.657902	-0.293197
C	3.54764	-0.489014	-1.18331
H	2.57695	-1.12132	0.573143
H	4.46853	-0.929139	-0.741173
H	3.73482	0.591689	-1.37906
H	3.35427	-0.988381	-2.16023
C	993.636	0.714766	-2.85092
C	994.798	0.094063	-2.17495
O	995.525	-0.694681	-2.76264
H	993.569	0.33072	-3.89199
H	993.756	1.81812	-2.88195
H	992.699	0.460047	-2.31253
N	994.998	0.441307	-0.901574
C	996.061	-0.111587	-0.0997196
C	995.616	-0.0975496	1.35052
O	994.586	0.482783	1.68746
H	994.374	1.0531	-0.424552
H	996.218	-1.14599	-0.378922
C	997.364	0.700225	-0.274274
H	997.206	1.75916	0.0220313
H	998.193	0.276141	0.327466
H	997.666	0.682907	-1.34406
N	996.384	-0.748399	2.24659
C	996.037	-0.793776	3.64787
H	997.212	-1.21559	1.95419
H	996.791	-1.37606	4.22132
H	995.041	-1.27357	3.79058
H	995.989	0.23428	4.07442
