44
  This energy is 0 and Call times are: 165177
C	-1.77179	2.22794	2.00243
C	-1.60746	1.43861	0.761025
O	-2.52565	1.3172	-0.038099
H	-2.80879	2.62572	2.05019
H	-1.05944	3.07954	2.01158
H	-1.59181	1.5862	2.89061
N	-0.41302	0.873307	0.570954
C	-0.115439	0.040798	-0.567876
C	0.953529	-0.955145	-0.159268
O	1.52861	-0.853332	0.922689
H	0.311493	0.947259	1.25028
H	-0.998298	-0.525718	-0.83667
C	0.36625	0.892328	-1.76291
H	1.27807	1.46564	-1.49098
H	0.585391	0.264071	-2.65049
H	-0.428398	1.6192	-2.03958
N	1.23968	-1.95302	-1.01856
C	2.2385	-2.95058	-0.712945
H	0.760778	-2.02114	-1.88752
H	2.32759	-3.6852	-1.54338
H	1.97019	-3.50318	0.21653
H	3.23388	-2.4752	-0.556796
C	547.987	0.743445	1.57548
C	549.428	0.985904	1.33746
O	549.979	1.99226	1.76168
H	547.56	1.59656	2.1465
H	547.848	-0.188047	2.16341
H	547.449	0.653692	0.60815
N	550.079	0.0529486	0.639102
C	551.473	0.169454	0.291027
C	551.703	-0.59149	-1.0011
O	550.822	-1.30407	-1.47782
H	549.608	-0.740776	0.265388
H	551.708	1.20907	0.0993002
C	552.371	-0.389875	1.4161
H	552.138	-1.4593	1.60595
H	553.448	-0.293218	1.16599
H	552.181	0.176401	2.35378
N	552.9	-0.449994	-1.60557
C	553.207	-1.131	-2.84162
H	553.599	0.13426	-1.20669
H	554.238	-0.886661	-3.1792
H	552.495	-0.82958	-3.64381
H	553.133	-2.23492	-2.71116
