44
  This energy is 0 and Call times are: 163777
C	-2.15722	2.3525	1.38737
C	-0.823813	1.93595	0.897843
O	0.0745225	2.75062	0.737509
H	-2.16458	3.4535	1.54107
H	-2.38352	1.85333	2.35296
H	-2.93782	2.08834	0.643075
N	-0.664833	0.635037	0.6434
C	0.561618	0.0856509	0.121337
C	0.219508	-1.153	-0.685053
O	-0.917439	-1.62077	-0.669025
H	-1.41778	-0.00966445	0.73981
H	1.01176	0.798699	-0.558051
C	1.53943	-0.26522	1.26415
H	1.08208	-1.00468	1.95558
H	2.49313	-0.676313	0.87431
H	1.76947	0.65422	1.84558
N	1.2011	-1.71107	-1.42062
C	0.967432	-2.88839	-2.22404
H	2.11366	-1.31574	-1.42399
H	1.8965	-3.19353	-2.7541
H	0.177416	-2.69404	-2.98521
H	0.63154	-3.73853	-1.58719
C	449.975	-3.28567	0.517123
C	450.982	-2.28544	0.0954791
O	452.143	-2.60687	-0.118767
H	450.462	-4.28151	0.604876
H	449.16	-3.34867	-0.234218
H	449.548	-3.00629	1.50322
N	450.552	-1.02814	-0.0325339
C	451.423	0.0624284	-0.393612
C	450.865	1.335	0.215322
O	449.755	1.34601	0.744448
H	449.613	-0.774789	0.18502
H	452.4	-0.101964	0.0421042
C	451.53	0.198184	-1.92833
H	450.528	0.377356	-2.3748
H	452.209	1.02581	-2.21913
H	451.933	-0.747083	-2.35318
N	451.631	2.4422	0.161421
C	451.185	3.69772	0.719393
H	452.528	2.41259	-0.267225
H	451.956	4.48723	0.575924
H	450.989	3.59452	1.81111
H	450.243	4.03356	0.228853
