44
  This energy is 0 and Call times are: 167333
C	-3.30804	-1.07789	-0.087641
C	-1.9516	-1.08117	0.504973
O	-1.73543	-1.60648	1.58836
H	-4.01286	-1.58666	0.605381
H	-3.3035	-1.61931	-1.05697
H	-3.65273	-0.0346698	-0.248783
N	-0.992542	-0.481916	-0.204588
C	0.367075	-0.366892	0.260998
C	0.971734	0.883609	-0.349075
O	0.375546	1.50928	-1.22361
H	-1.19222	-0.0230345	-1.06565
H	0.3666	-0.233708	1.33566
C	1.19136	-1.61308	-0.129904
H	1.20094	-1.74415	-1.23297
H	2.23655	-1.54276	0.235007
H	0.726248	-2.51692	0.32075
N	2.17486	1.28333	0.10781
C	2.82549	2.46457	-0.409426
H	2.63988	0.766263	0.818774
H	3.80475	2.62596	0.0927925
H	2.19303	3.36641	-0.242224
H	3.00478	2.36686	-1.50462
C	701.674	0.0730442	1.02095
C	702.786	0.551443	0.170237
O	702.581	1.27876	-0.791545
H	700.712	0.463866	0.622209
H	701.805	0.435545	2.06218
H	701.639	-1.03686	1.01773
N	704.011	0.144129	0.510986
C	705.188	0.491616	-0.245479
C	706.209	-0.61664	-0.0677808
O	706.028	-1.51361	0.753469
H	704.159	-0.480959	1.27218
H	704.937	0.533121	-1.29801
C	705.769	1.84285	0.226552
H	706.036	1.79748	1.30376
H	706.667	2.1282	-0.35765
H	705.002	2.63746	0.0948167
N	707.309	-0.584161	-0.8455
C	708.332	-1.59939	-0.75069
H	707.436	0.147472	-1.50713
H	709.155	-1.39742	-1.47173
H	707.909	-2.60545	-0.974525
H	708.764	-1.62722	0.275743
