44
  This energy is 0 and Call times are: 161649
C	2.45543	-2.41857	0.483822
C	1.04129	-2.01044	0.326393
O	0.157973	-2.83993	0.158783
H	2.52938	-3.52498	0.404645
H	2.8364	-2.10315	1.47786
H	3.07737	-1.9589	-0.313037
N	0.792949	-0.699602	0.375539
C	-0.526696	-0.147562	0.195679
C	-0.381176	1.24611	-0.385747
O	0.722465	1.78156	-0.469329
H	1.52772	-0.0342102	0.471605
H	-1.06788	-0.744137	-0.528093
C	-1.29133	-0.0977249	1.53661
H	-0.741795	0.52284	2.27617
H	-2.31399	0.31263	1.40898
H	-1.37899	-1.12718	1.94757
N	-1.49948	1.86588	-0.811556
C	-1.45782	3.19126	-1.38411
H	-2.38288	1.41481	-0.739399
H	-2.47812	3.52717	-1.67282
H	-0.813582	3.20644	-2.29296
H	-1.04146	3.92209	-0.653573
C	301.162	0.844843	-2.59341
C	299.905	1.02682	-1.83287
O	299.185	1.99766	-2.02247
H	301.3	1.70379	-3.2855
H	301.117	-0.0919647	-3.18768
H	302.027	0.800687	-1.89836
N	299.61	0.0807249	-0.938143
C	298.444	0.141422	-0.0926488
C	298.754	-0.600831	1.1938
O	299.784	-1.26214	1.3072
H	300.227	-0.682465	-0.766122
H	298.247	1.17325	0.169817
C	297.219	-0.482463	-0.796649
H	297.418	-1.5441	-1.05669
H	296.312	-0.429306	-0.16117
H	297.016	0.0713162	-1.73922
N	297.866	-0.500598	2.20251
C	298.078	-1.16775	3.46579
H	297.04	0.0425115	2.09326
H	297.238	-0.963145	4.16495
H	299.023	-0.816927	3.94118
H	298.153	-2.26975	3.32056
