44
  This energy is -1.5747 and Call times are: 181509
C	-0.89152	2.69109	-2.01889
C	0.0872757	1.6892	-1.54002
O	1.15174	1.51771	-2.11789
H	-0.494669	3.18478	-2.93249
H	-1.06224	3.46256	-1.23887
H	-1.85459	2.19706	-2.26692
N	-0.259243	0.992358	-0.455257
C	0.56978	-0.046574	0.103224
C	-0.332603	-1.05184	0.793654
O	-1.52969	-0.819625	0.951015
H	-1.14665	1.11459	-0.0200116
H	1.07866	-0.567164	-0.698436
C	1.59115	0.539902	1.10227
H	1.06932	1.06503	1.9305
H	2.24466	-0.248452	1.52881
H	2.23542	1.2786	0.577299
N	0.223553	-2.20409	1.21678
C	-0.558066	-3.22213	1.87924
H	1.19311	-2.37564	1.07674
H	0.078772	-4.09309	2.14961
H	-1.37887	-3.58044	1.21655
H	-1.01737	-2.82056	2.81141
C	995.209	3.10963	1.33755
C	995.547	1.70881	0.998956
O	996.697	1.30012	1.0711
H	996.136	3.65274	1.62194
H	994.5	3.13656	2.1919
H	994.75	3.61521	0.461463
N	994.533	0.930393	0.613137
C	994.712	-0.44247	0.210891
C	993.619	-0.790747	-0.781794
O	992.685	-0.017418	-0.987772
H	993.608	1.2885	0.520038
H	995.659	-0.543337	-0.303903
C	994.656	-1.38684	1.43165
H	993.68	-1.29143	1.954
H	994.806	-2.44557	1.13666
H	995.459	-1.10858	2.14821
N	993.715	-1.96818	-1.43018
C	992.725	-2.38193	-2.39675
H	994.48	-2.57874	-1.2531
H	992.98	-3.37823	-2.82004
H	992.664	-1.65022	-3.23473
H	991.718	-2.44956	-1.92394
