44
  This energy is -2.4009 and Call times are: 184969
C	-1.02157	0.707478	-3.25093
C	0.0133514	0.324452	-2.26434
O	1.10853	-0.0860322	-2.62281
H	-0.630548	0.538492	-4.27778
H	-1.28015	1.78121	-3.13703
H	-1.93374	0.0906062	-3.10772
N	-0.318155	0.450542	-0.977255
C	0.567466	0.0772565	0.0974035
C	-0.279433	-0.330257	1.28831
O	-1.49589	-0.151535	1.28667
H	-1.22784	0.747278	-0.701065
H	1.14437	-0.789598	-0.199883
C	1.50279	1.24738	0.473173
H	0.911654	2.13354	0.788328
H	2.19906	0.967921	1.29026
H	2.10701	1.53407	-0.415129
N	0.34809	-0.89924	2.3364
C	-0.376467	-1.32429	3.51136
H	1.33252	-1.03931	2.31749
H	0.315348	-1.76782	4.26095
H	-1.14205	-2.08881	3.24552
H	-0.899603	-0.461686	3.98399
C	992.691	3.1655	-0.985518
C	992.618	1.98523	-0.095177
O	991.968	2.01356	0.941063
H	992.104	3.99838	-0.54057
H	992.268	2.92005	-1.98216
H	993.746	3.49146	-1.10237
N	993.296	0.903826	-0.485962
C	993.355	-0.305926	0.296082
C	994.668	-1.00182	-0.00725017
O	995.393	-0.6093	-0.919675
H	993.853	0.909518	-1.31134
H	993.36	-0.051027	1.34852
C	992.163	-1.23245	-0.0304862
H	992.163	-1.50277	-1.10797
H	992.189	-2.1613	0.575379
H	991.213	-0.699917	0.191527
N	995.011	-2.0537	0.762286
C	996.245	-2.77451	0.551418
H	994.413	-2.35394	1.49847
H	996.345	-3.60474	1.28477
H	997.121	-2.09607	0.667646
H	996.277	-3.20704	-0.474757
