44
  This energy is 0 and Call times are: 163833
C	3.1035	-1.45269	-0.608853
C	1.90484	-1.24471	0.234424
O	1.68942	-1.94704	1.21255
H	3.68953	-2.30878	-0.209425
H	3.74153	-0.544096	-0.597803
H	2.80198	-1.6797	-1.65319
N	1.0836	-0.258831	-0.134347
C	-0.144029	0.0363266	0.561614
C	-1.11768	0.640856	-0.432423
O	-0.750194	0.953744	-1.56325
H	1.2512	0.277656	-0.956514
H	-0.581601	-0.886634	0.921204
C	0.106844	1.00964	1.73421
H	0.545979	1.96072	1.36456
H	-0.828637	1.23386	2.28658
H	0.828072	0.550013	2.44479
N	-2.39329	0.812171	-0.0330741
C	-3.39149	1.37501	-0.912273
H	-2.67259	0.549093	0.884451
H	-4.37754	1.43415	-0.400956
H	-3.50775	0.748821	-1.82641
H	-3.09988	2.40164	-1.23185
C	454.897	1.19735	-3.26628
C	454.343	1.09622	-1.89733
O	453.436	1.82812	-1.52587
H	454.375	2.01129	-3.81461
H	454.746	0.24215	-3.81176
H	455.982	1.43106	-3.22382
N	454.889	0.171662	-1.10333
C	454.485	-0.0163797	0.267876
C	455.672	-0.558545	1.04052
O	456.694	-0.916407	0.456457
H	455.654	-0.388804	-1.40672
H	454.23	0.943236	0.699966
C	453.288	-0.988121	0.362342
H	453.553	-1.97605	-0.071284
H	452.959	-1.13038	1.41208
H	452.433	-0.575127	-0.216657
N	455.568	-0.623953	2.38249
C	456.649	-1.12088	3.20125
H	454.736	-0.325886	2.83733
H	456.371	-1.09528	4.27791
H	457.565	-0.501672	3.06105
H	456.898	-2.17188	2.92812
