44
  This energy is 0 and Call times are: 166129
C	-2.76398	-1.4764	-1.51437
C	-1.50997	-0.69206	-1.5728
O	-0.973806	-0.434304	-2.64168
H	-3.06569	-1.76396	-2.54499
H	-3.5743	-0.869194	-1.05893
H	-2.61121	-2.39816	-0.914281
N	-1.0059	-0.290883	-0.403466
C	0.230353	0.443165	-0.296675
C	0.853087	0.127394	1.05019
O	0.22979	-0.507276	1.89896
H	-1.43178	-0.543442	0.46066
H	0.917796	0.0978918	-1.0588
C	-0.0156419	1.96141	-0.436896
H	-0.712584	2.31807	0.351205
H	0.930499	2.53665	-0.370267
H	-0.478921	2.16829	-1.4263
N	2.10973	0.559214	1.27471
C	2.78571	0.301033	2.52474
H	2.5994	1.06769	0.574175
H	3.80943	0.735927	2.51536
H	2.87216	-0.794931	2.70547
H	2.22249	0.747892	3.37576
C	617.259	3.007	-0.202671
C	617.427	1.63079	0.315994
O	616.737	1.21217	1.23519
H	616.466	3.52464	0.379386
H	616.961	2.9793	-1.27164
H	618.209	3.57348	-0.0990273
N	618.367	0.885734	-0.271279
C	618.676	-0.457425	0.151799
C	620.133	-0.731561	-0.170768
O	620.787	0.0588328	-0.847839
H	618.948	1.25414	-0.990932
H	618.564	-0.52787	1.22665
C	617.762	-1.4825	-0.555466
H	617.884	-1.41787	-1.65779
H	617.981	-2.51943	-0.227703
H	616.701	-1.2579	-0.311739
N	620.679	-1.86254	0.317423
C	622.06	-2.2043	0.0667741
H	620.134	-2.48771	0.866677
H	622.32	-3.17075	0.552045
H	622.738	-1.41688	0.467766
H	622.249	-2.2988	-1.02703
