44
  This energy is -3.7093 and Call times are: 179020
C	2.29413	-2.46653	-0.875133
C	1.69164	-1.12586	-1.05046
O	2.21759	-0.284122	-1.76549
H	3.23834	-2.52411	-1.45911
H	1.59733	-3.24998	-1.2404
H	2.52291	-2.6461	0.196553
N	0.556101	-0.89426	-0.387672
C	-0.124575	0.376117	-0.424842
C	-0.880406	0.546073	0.879531
O	-0.978111	-0.384884	1.67671
H	0.16191	-1.57534	0.22275
H	0.607499	1.17217	-0.47953
C	-1.09345	0.447953	-1.62541
H	-1.85113	-0.362115	-1.5642
H	-1.61346	1.42665	-1.673
H	-0.519942	0.313188	-2.56842
N	-1.42896	1.75082	1.13193
C	-2.16188	2.00747	2.34978
H	-1.33571	2.49304	0.476588
H	-2.53391	3.05549	2.37142
H	-1.51186	1.84787	3.24044
H	-3.03673	1.32283	2.43372
C	990.639	1.24457	-0.754319
C	992.01	0.846278	-1.14502
O	992.33	0.751052	-2.32175
H	990.027	1.40147	-1.66925
H	990.666	2.19048	-0.173568
H	990.169	0.447427	-0.140339
N	992.862	0.598544	-0.148159
C	994.218	0.159954	-0.370734
C	994.647	-0.672615	0.822483
O	993.947	-0.736471	1.83091
H	992.575	0.640607	0.804552
H	994.246	-0.484256	-1.24067
C	995.164	1.36594	-0.558492
H	995.143	2.02158	0.338027
H	996.208	1.04103	-0.74446
H	994.826	1.96519	-1.43197
N	995.814	-1.34106	0.730977
C	996.301	-2.16298	1.81415
H	996.365	-1.28026	-0.0947471
H	997.275	-2.62908	1.54681
H	995.576	-2.97591	2.04728
H	996.445	-1.55386	2.73579
