44
  This energy is -2.2209 and Call times are: 181720
C	-1.50169	1.99707	-2.42267
C	-0.333791	1.59196	-1.60839
O	0.78862	2.00787	-1.86063
H	-1.16434	2.67409	-3.23737
H	-2.24036	2.53447	-1.79156
H	-1.9821	1.10338	-2.87391
N	-0.576968	0.754637	-0.597386
C	0.463678	0.238212	0.256382
C	0.0246071	-1.12074	0.768255
O	-1.12006	-1.52637	0.576074
H	-1.48951	0.392632	-0.429791
H	1.36306	0.0877405	-0.327653
C	0.737495	1.19812	1.43487
H	-0.182195	1.34454	2.04048
H	1.54651	0.818293	2.09194
H	1.04953	2.18833	1.03678
N	0.934082	-1.86362	1.42933
C	0.608587	-3.17175	1.94801
H	1.85651	-1.52008	1.57138
H	1.48812	-3.62242	2.45844
H	0.293731	-3.85344	1.12495
H	-0.22749	-3.10689	2.68144
C	995.545	-0.452334	3.25546
C	994.76	0.28668	2.24071
O	993.967	1.15898	2.566
H	995.267	-0.0904288	4.2693
H	996.63	-0.282523	3.098
H	995.327	-1.53934	3.18998
N	994.967	-0.0541793	0.966628
C	994.247	0.545464	-0.129129
C	994.167	-0.469485	-1.25382
O	994.805	-1.51927	-1.20177
H	995.586	-0.794414	0.720265
H	993.234	0.76053	0.184675
C	994.95	1.83356	-0.611564
H	995.986	1.61168	-0.943502
H	994.398	2.31224	-1.44605
H	995.005	2.55864	0.229607
N	993.368	-0.181178	-2.30007
C	993.224	-1.08931	-3.41395
H	992.856	0.671466	-2.32225
H	992.524	-0.67373	-4.17226
H	992.826	-2.07167	-3.07088
H	994.208	-1.2681	-3.90506
