44
  This energy is -5.4234 and Call times are: 173184
C	-1.99203	0.162981	-2.8492
C	-0.831183	-0.367278	-2.09927
O	-0.193081	-1.32474	-2.51459
H	-2.14889	-0.448908	-3.764
H	-1.8057	1.21577	-3.14861
H	-2.90741	0.113604	-2.22251
N	-0.529094	0.253507	-0.956573
C	0.545848	-0.173998	-0.096168
C	0.194891	0.214311	1.32777
O	-0.773821	0.933756	1.5638
H	-1.08288	1.00572	-0.611081
H	0.62019	-1.25388	-0.127027
C	1.8825	0.473202	-0.520114
H	1.81005	1.58093	-0.478493
H	2.7206	0.141072	0.126261
H	2.11532	0.181959	-1.56765
N	0.975641	-0.263642	2.31672
C	0.715493	0.0481737	3.70282
H	1.7526	-0.847688	2.10626
H	1.46697	-0.43822	4.36307
H	-0.296826	-0.307969	4.00223
H	0.75874	1.14831	3.87302
C	994.139	1.05034	-3.14382
C	994.385	1.29033	-1.70406
O	994.334	2.41782	-1.23236
H	993.938	2.02016	-3.6487
H	993.258	0.387044	-3.2761
H	995.03	0.5797	-3.61114
N	994.666	0.215943	-0.962792
C	994.97	0.295792	0.444088
C	995.884	-0.862687	0.796571
O	996.106	-1.75906	-0.01511
H	994.744	-0.69003	-1.36883
H	995.518	1.20948	0.639754
C	993.68	0.245101	1.29174
H	993.124	-0.696877	1.09923
H	993.901	0.319717	2.37635
H	993.023	1.09721	1.01145
N	996.445	-0.866108	2.02182
C	997.333	-1.92459	2.44383
H	996.257	-0.129907	2.6633
H	997.69	-1.74742	3.48207
H	998.22	-1.98399	1.77284
H	996.812	-2.909	2.41536
