44
  This energy is 0 and Call times are: 162713
C	-3.02125	1.72763	-0.00399868
C	-1.98616	0.914037	0.672601
O	-1.9947	0.760777	1.88621
H	-3.72005	2.13917	0.756389
H	-3.59552	1.09998	-0.717458
H	-2.54848	2.57043	-0.551045
N	-1.0544	0.367387	-0.111858
C	0.0411638	-0.414277	0.405159
C	1.21381	-0.27282	-0.546911
O	1.07781	0.2824	-1.63546
H	-1.0372	0.534912	-1.09344
H	0.350284	-0.0081836	1.36023
C	-0.36096	-1.89816	0.552216
H	-0.668112	-2.31817	-0.429254
H	0.469821	-2.50805	0.962534
H	-1.22561	-1.97698	1.24685
N	2.40317	-0.768269	-0.151963
C	3.57652	-0.674851	-0.98905
H	2.49446	-1.21046	0.734157
H	4.4546	-1.13936	-0.488628
H	3.82003	0.390353	-1.20657
H	3.40952	-1.19593	-1.95948
C	376.044	-0.0273923	-3.32007
C	375.351	0.60897	-2.17677
O	374.984	1.7747	-2.22835
H	376.16	0.715582	-4.13882
H	375.45	-0.887025	-3.69635
H	377.05	-0.380535	-3.0099
N	375.157	-0.15613	-1.10003
C	374.537	0.334804	0.105242
C	375.085	-0.459275	1.27625
O	375.786	-1.45166	1.09107
H	375.498	-1.09089	-1.05783
H	374.82	1.36915	0.256652
C	373.001	0.198596	0.0297704
H	372.71	-0.863727	-0.115006
H	372.51	0.586027	0.946354
H	372.623	0.780999	-0.83878
N	374.781	-0.0324217	2.51782
C	375.261	-0.721329	3.69275
H	374.215	0.775047	2.64752
H	374.905	-0.217157	4.61781
H	376.375	-0.737992	3.71006
H	374.9	-1.77511	3.70589
