44
  This energy is 0 and Call times are: 166185
C	0.211742	2.89564	-1.91914
C	0.0733739	1.42794	-1.78558
O	-0.23186	0.731138	-2.74355
H	-0.0178682	3.19249	-2.96558
H	1.25003	3.20575	-1.67721
H	-0.496273	3.41051	-1.23597
N	0.296757	0.91882	-0.571791
C	0.15873	-0.485584	-0.276563
C	-0.219784	-0.626522	1.18577
O	-0.197872	0.345413	1.93848
H	0.50433	1.50339	0.20735
H	-0.655375	-0.895234	-0.861415
C	1.472	-1.24298	-0.57138
H	2.30529	-0.830003	0.0361748
H	1.37425	-2.32777	-0.361167
H	1.73381	-1.11948	-1.64495
N	-0.586352	-1.84778	1.62187
C	-0.968406	-2.07655	2.99587
H	-0.601803	-2.62119	0.996838
H	-1.23587	-3.14411	3.15715
H	-1.84825	-1.44978	3.26847
H	-0.132458	-1.81637	3.68481
C	621.03	-0.426423	2.83745
C	622.259	0.050292	2.16359
O	623.054	0.780287	2.73927
H	620.987	-0.00302271	3.86443
H	621.037	-1.53461	2.90556
H	620.132	-0.095976	2.27417
N	622.442	-0.357801	0.905734
C	623.568	0.0572923	0.106416
C	623.146	0.040178	-1.35057
O	622.067	-0.443485	-1.68782
H	621.766	-0.918598	0.436934
H	623.826	1.07914	0.355588
C	624.778	-0.876242	0.330414
H	624.517	-1.92297	0.0649135
H	625.656	-0.558881	-0.269124
H	625.065	-0.85408	1.40448
N	623.989	0.579491	-2.25256
C	623.67	0.613135	-3.6607
H	624.856	0.969726	-1.95995
H	624.488	1.09638	-4.23835
H	622.731	1.18646	-3.83675
H	623.523	-0.418385	-4.05532
