44
  This energy is 0 and Call times are: 164365
C	-0.828342	1.18349	-3.16637
C	-1.19946	0.707956	-1.8146
O	-2.34419	0.817053	-1.39735
H	-1.72051	1.63072	-3.65617
H	-0.46643	0.335165	-3.78451
H	-0.0327112	1.95489	-3.09562
N	-0.22121	0.162455	-1.08808
C	-0.418858	-0.306623	0.260796
C	0.899643	-0.186058	1.00145
O	1.93533	0.0959379	0.401833
H	0.714643	0.117856	-1.4258
H	-1.13058	0.337296	0.76225
C	-0.912814	-1.7699	0.269216
H	-0.17805	-2.43254	-0.235826
H	-1.08201	-2.13825	1.30179
H	-1.87453	-1.83579	-0.284963
N	0.889523	-0.390247	2.33346
C	2.09526	-0.291421	3.12251
H	0.0408978	-0.613467	2.80152
H	1.88088	-0.49291	4.1952
H	2.53697	0.727979	3.03886
H	2.85542	-1.02682	2.77251
C	495.941	1.26294	1.36707
C	494.977	0.162879	1.13909
O	495.253	-0.991949	1.43305
H	496.877	0.847402	1.79958
H	495.515	2.00383	2.07611
H	496.181	1.76627	0.406871
N	493.805	0.503435	0.598323
C	492.783	-0.461688	0.277832
C	491.973	0.0759987	-0.886966
O	492.13	1.22911	-1.28384
H	493.61	1.44163	0.326688
H	493.251	-1.38113	-0.051598
C	491.871	-0.72436	1.49603
H	491.382	0.216691	1.82785
H	491.088	-1.47618	1.26608
H	492.485	-1.10959	2.33863
N	491.088	-0.756291	-1.47044
C	490.278	-0.334231	-2.58877
H	490.979	-1.68709	-1.13779
H	489.614	-1.16027	-2.9274
H	490.92	-0.0269028	-3.44571
H	489.64	0.534532	-2.30626
