44
  This energy is -2.4233 and Call times are: 180598
C	0.240808	1.90819	2.90061
C	-0.511458	1.02781	1.97856
O	-1.58727	0.543785	2.30223
H	-0.319905	2.00456	3.8557
H	0.363132	2.91658	2.45237
H	1.24077	1.47459	3.11314
N	0.049625	0.795866	0.789541
C	-0.541631	-0.0739239	-0.196584
C	0.575085	-0.664915	-1.03636
O	1.72911	-0.25476	-0.928143
H	0.945143	1.16396	0.556256
H	-1.03842	-0.895736	0.303873
C	-1.53815	0.69939	-1.08775
H	-1.0267	1.53615	-1.60956
H	-2.01052	0.0374943	-1.84226
H	-2.34203	1.12975	-0.451417
N	0.25633	-1.65532	-1.89282
C	1.2537	-2.28196	-2.72874
H	-0.682262	-1.97649	-1.96329
H	0.795247	-3.07296	-3.36228
H	2.0505	-2.74964	-2.10611
H	1.73402	-1.53144	-3.39742
C	997.376	-2.772	-1.83716
C	996.46	-2.10719	-0.88335
O	995.41	-2.6339	-0.542638
H	996.935	-3.74181	-2.15477
H	998.358	-2.96427	-1.35451
H	997.524	-2.13375	-2.73371
N	996.844	-0.913056	-0.426019
C	996.039	-0.125807	0.473957
C	996.358	1.33823	0.236607
O	997.295	1.66922	-0.487469
H	997.682	-0.478993	-0.744124
H	994.992	-0.270514	0.236153
C	996.318	-0.509569	1.9436
H	997.389	-0.351308	2.19109
H	995.694	0.0800312	2.64583
H	996.085	-1.58661	2.0923
N	995.575	2.25455	0.83916
C	995.799	3.67098	0.667234
H	994.819	1.96731	1.41809
H	995.051	4.26024	1.24217
H	995.717	3.95404	-0.407233
H	996.816	3.95375	1.02229
