44
  This energy is 0 and Call times are: 165597
C	-1.07978	0.01118	-3.30857
C	-0.61214	-0.691765	-2.09271
O	-0.671648	-1.91035	-2.00371
H	-1.47228	-0.733135	-4.03508
H	-0.239024	0.563377	-3.77861
H	-1.89132	0.723794	-3.05034
N	-0.130351	0.0753678	-1.11201
C	0.322204	-0.460267	0.147691
C	0.121556	0.601496	1.21256
O	-0.200516	1.74783	0.906126
H	-0.126293	1.06876	-1.18293
H	-0.294676	-1.30837	0.417532
C	1.80798	-0.874455	0.069204
H	2.44247	-0.00241359	-0.197268
H	2.16456	-1.3013	1.02898
H	1.93258	-1.64607	-0.721637
N	0.300522	0.239339	2.49819
C	0.126311	1.18049	3.57989
H	0.557034	-0.693978	2.72665
H	0.317776	0.692129	4.56074
H	-0.912171	1.58396	3.58606
H	0.829217	2.03803	3.4718
C	581.206	-3.34492	0.939155
C	580.928	-2.28566	-0.0567311
O	580.77	-2.55455	-1.23967
H	581.254	-4.32923	0.424692
H	580.398	-3.37625	1.70022
H	582.178	-3.15342	1.44012
N	580.862	-1.03601	0.408578
C	580.642	0.104626	-0.445172
C	581.302	1.31035	0.196451
O	581.754	1.2478	1.33834
H	581.033	-0.828425	1.36752
H	581.13	-0.0620639	-1.39722
C	579.132	0.358249	-0.648023
H	578.632	0.539754	0.32745
H	578.949	1.22567	-1.31487
H	578.668	-0.539776	-1.11127
N	581.381	2.44134	-0.53198
C	581.997	3.63732	-0.0064399
H	581.014	2.47132	-1.45565
H	581.965	4.4585	-0.755996
H	583.063	3.44661	0.258148
H	581.469	3.98009	0.912746
