44
  This energy is 0 and Call times are: 168761
C	-1.42062	2.22889	-2.2642
C	-1.23349	0.864442	-1.7216
O	-1.95105	-0.0611551	-2.07486
H	-2.27778	2.22828	-2.97211
H	-0.507493	2.55394	-2.80576
H	-1.63525	2.94213	-1.4406
N	-0.24876	0.708787	-0.833654
C	0.0273746	-0.54953	-0.186391
C	0.638416	-0.258899	1.17144
O	0.969864	0.883824	1.48135
H	0.300431	1.48029	-0.525365
H	-0.903798	-1.07513	-0.0152509
C	0.986032	-1.40966	-1.03868
H	1.94548	-0.87523	-1.20567
H	1.19545	-2.38697	-0.557498
H	0.521947	-1.60319	-2.0304
N	0.794516	-1.29312	2.02117
C	1.36207	-1.11141	3.33686
H	0.516522	-2.20984	1.75394
H	1.40663	-2.07935	3.88305
H	0.747893	-0.399607	3.93469
H	2.39525	-0.700719	3.26594
C	805.489	-0.507169	3.0939
C	806.185	-1.00527	1.88637
O	806.617	-2.14863	1.83078
H	805.466	-1.31046	3.86204
H	804.446	-0.219414	2.84308
H	806.025	0.37201	3.50949
N	806.314	-0.141318	0.876706
C	807.005	-0.466557	-0.346082
C	807.577	0.815406	-0.921573
O	807.278	1.90831	-0.444098
H	805.994	0.798692	0.952446
H	807.839	-1.11979	-0.122112
C	806.05	-1.13572	-1.35845
H	805.199	-0.461745	-1.5966
H	806.573	-1.40356	-2.29901
H	805.637	-2.06733	-0.913227
N	808.425	0.709346	-1.96319
C	809.023	1.87431	-2.57279
H	808.658	-0.183967	-2.3331
H	809.69	1.57998	-3.41264
H	809.627	2.44135	-1.82766
H	808.237	2.55627	-2.97134
