44
  This energy is 0 and Call times are: 158205
C	0.793466	-0.809208	3.29063
C	0.807532	0.118145	2.13696
O	1.1516	1.28484	2.2668
H	1.11184	-0.262834	4.20496
H	1.49449	-1.65168	3.11302
H	-0.230807	-1.20795	3.44864
N	0.424743	-0.389326	0.962943
C	0.345242	0.400527	-0.240541
C	-0.723706	-0.202509	-1.13231
O	-1.23483	-1.28658	-0.857962
H	0.108345	-1.33011	0.881235
H	0.0265925	1.40434	0.0113736
C	1.70565	0.431466	-0.970999
H	2.02797	-0.597279	-1.23901
H	1.66108	1.04798	-1.89211
H	2.4742	0.869067	-0.297066
N	-1.09417	0.495441	-2.22394
C	-2.10753	0.00327525	-3.12784
H	-0.672046	1.37273	-2.42703
H	-2.27103	0.719569	-3.96296
H	-3.07484	-0.138895	-2.59362
H	-1.805	-0.977516	-3.56104
C	53.7407	0.75164	3.3165
C	53.3288	1.148	1.95107
O	52.8907	2.26691	1.72179
H	53.5638	1.59901	4.01401
H	54.8205	0.493843	3.3308
H	53.1474	-0.123379	3.6563
N	53.4607	0.221473	0.998957
C	53.0623	0.444753	-0.368498
C	52.6744	-0.891826	-0.972381
O	52.8847	-1.94116	-0.367095
H	53.7804	-0.698113	1.20875
H	52.1813	1.07428	-0.385639
C	54.2069	1.09286	-1.17785
H	55.1074	0.442498	-1.16937
H	53.9077	1.28257	-2.22905
H	54.4796	2.06563	-0.713453
N	52.0871	-0.883121	-2.18522
C	51.6785	-2.10611	-2.83602
H	51.9215	-0.0237433	-2.65759
H	51.2156	-1.89012	-3.82408
H	50.9347	-2.65327	-2.21259
H	52.5534	-2.77661	-2.9976
