44
  This energy is -2.4537 and Call times are: 180459
C	1.83143	-2.59491	-1.42303
C	0.694918	-1.6465	-1.42786
O	-0.00355422	-1.50061	-2.42147
H	1.91135	-3.07747	-2.42135
H	1.67056	-3.38108	-0.655706
H	2.77831	-2.0564	-1.20736
N	0.483455	-0.967916	-0.297739
C	-0.556956	0.0211049	-0.163794
C	-0.110225	1.04096	0.866682
O	0.898332	0.851687	1.54396
H	1.08563	-1.0675	0.489236
H	-0.676027	0.543992	-1.10456
C	-1.88866	-0.633556	0.264265
H	-1.76974	-1.16123	1.23455
H	-2.70118	0.115883	0.357378
H	-2.19222	-1.38173	-0.500224
N	-0.851851	2.1578	1.00341
C	-0.500921	3.18645	1.95467
H	-1.66225	2.29494	0.443488
H	-1.23241	4.02352	1.91646
H	0.511768	3.59567	1.73496
H	-0.490407	2.77675	2.99062
C	996.02	-0.356233	-3.44629
C	996.381	0.43165	-2.2462
O	996.982	1.49237	-2.3427
H	996.394	0.164954	-4.35405
H	994.917	-0.458187	-3.51972
H	996.482	-1.36486	-3.3949
N	996.016	-0.0805473	-1.06838
C	996.334	0.549111	0.188967
C	996.439	-0.533258	1.24683
O	996.104	-1.68999	0.999707
H	995.563	-0.965044	-1.00359
H	997.305	1.02341	0.115501
C	995.255	1.58281	0.57705
H	994.26	1.09477	0.662855
H	995.495	2.08456	1.53668
H	995.19	2.36067	-0.214833
N	996.919	-0.181415	2.45602
C	997.059	-1.14476	3.52297
H	997.189	0.758689	2.6357
H	997.47	-0.662129	4.43695
H	997.748	-1.96732	3.22132
H	996.073	-1.59583	3.77774
