44
  This energy is 0 and Call times are: 161733
C	2.2003	2.68687	-0.22826
C	0.997604	1.94611	-0.670909
O	0.191698	2.4499	-1.44105
H	2.19729	3.69964	-0.686688
H	3.11884	2.1508	-0.547103
H	2.19924	2.79276	0.877126
N	0.847385	0.712539	-0.182939
C	-0.293525	-0.114361	-0.488097
C	-0.524739	-1.05182	0.682056
O	0.295131	-1.13415	1.59461
H	1.49062	0.33152	0.475043
H	-1.17326	0.510393	-0.579611
C	-0.0616275	-0.916796	-1.78716
H	0.834706	-1.56578	-1.69001
H	-0.938685	-1.54701	-2.04038
H	0.113239	-0.21091	-2.62829
N	-1.65942	-1.77882	0.686086
C	-1.96735	-2.69341	1.76074
H	-2.31266	-1.69547	-0.0591627
H	-2.94322	-3.19625	1.58171
H	-2.02515	-2.15207	2.73279
H	-1.17992	-3.47664	1.84807
C	305.777	2.75906	1.97398
C	305.796	2.03242	0.68449
O	306.138	2.58818	-0.350319
H	306.09	3.81265	1.80647
H	306.48	2.28512	2.69066
H	304.752	2.752	2.40223
N	305.42	0.751801	0.719382
C	305.346	-0.072666	-0.461
C	304.283	-1.13052	-0.232972
O	303.772	-1.28125	0.875127
H	305.106	0.324779	1.56233
H	305.024	0.53228	-1.29964
C	306.71	-0.731851	-0.760178
H	307.035	-1.36098	0.0956463
H	306.67	-1.35834	-1.67472
H	307.474	0.0606397	-0.915698
N	303.917	-1.88687	-1.28666
C	302.909	-2.9145	-1.16605
H	304.339	-1.74728	-2.17637
H	302.749	-3.42474	-2.14138
H	301.939	-2.47666	-0.836238
H	303.216	-3.6793	-0.416117
