44
  This energy is 0 and Call times are: 166717
C	-0.616279	-2.29196	-2.54554
C	-0.769346	-0.953754	-1.93161
O	-1.2514	-0.0208522	-2.55909
H	-0.979511	-2.25801	-3.59568
H	-1.21205	-3.04139	-1.98326
H	0.452448	-2.59348	-2.54453
N	-0.352624	-0.8287	-0.669441
C	-0.397026	0.421431	0.0473284
C	0.718365	0.41692	1.07565
O	1.36478	-0.604801	1.29914
H	0.0752391	-1.58666	-0.185396
H	-0.198871	1.23448	-0.639924
C	-1.76645	0.614915	0.734709
H	-1.96552	-0.213395	1.44767
H	-1.81805	1.58039	1.27851
H	-2.56817	0.606977	-0.0356958
N	0.97638	1.57017	1.72332
C	2.02272	1.66259	2.71469
H	0.445246	2.38747	1.52587
H	2.0787	2.69188	3.1326
H	3.01153	1.41199	2.26666
H	1.83379	0.953424	3.55286
C	657.871	-1.1888	-0.954162
C	658.924	-0.148317	-0.949416
O	658.865	0.815962	-1.69977
H	657.108	-0.935589	-1.72185
H	657.378	-1.23914	0.0395137
H	658.312	-2.17825	-1.19844
N	659.93	-0.325703	-0.0895739
C	661.049	0.578862	0.000563479
C	662.256	-0.2078	0.475822
O	662.138	-1.36711	0.867864
H	659.985	-1.13665	0.485879
H	661.28	0.960082	-0.986186
C	660.743	1.7401	0.971679
H	660.515	1.35011	1.98671
H	661.592	2.45106	1.03914
H	659.851	2.29687	0.608578
N	663.455	0.406522	0.443563
C	664.66	-0.265024	0.871124
H	663.531	1.34356	0.119211
H	665.541	0.405742	0.768828
H	664.841	-1.17695	0.257032
H	664.579	-0.577379	1.93741
