44
  This energy is 0 and Call times are: 169321
C	1.45295	0.82417	3.05326
C	1.36305	0.937109	1.58006
O	1.98512	1.79718	0.972018
H	2.12339	1.62097	3.44247
H	1.86883	-0.165543	3.33654
H	0.447511	0.946426	3.50849
N	0.57059	0.0564226	0.964615
C	0.34842	0.0680216	-0.459837
C	-1.03065	-0.504471	-0.728119
O	-1.68026	-1.03095	0.173287
H	0.0387978	-0.611735	1.47709
H	0.346959	1.09175	-0.812829
C	1.42898	-0.75625	-1.19346
H	1.42383	-1.80912	-0.839242
H	1.27688	-0.743596	-2.2922
H	2.43033	-0.324304	-0.976484
N	-1.51537	-0.40635	-1.98169
C	-2.82057	-0.917778	-2.32963
H	-0.976573	0.0267323	-2.69668
H	-3.03783	-0.74155	-3.40618
H	-3.61216	-0.417597	-1.7259
H	-2.87825	-2.01316	-2.13482
C	845.944	-0.223081	-3.30882
C	846.41	0.555412	-2.13928
O	846.743	1.72724	-2.25079
H	845.979	0.419462	-4.21533
H	844.9	-0.563837	-3.14999
H	846.6	-1.10478	-3.46773
N	846.447	-0.0915955	-0.972042
C	846.918	0.520114	0.245451
C	847.488	-0.570408	1.13283
O	847.346	-1.75675	0.842652
H	846.212	-1.05703	-0.904871
H	847.726	1.20213	0.0129158
C	845.773	1.26337	0.968363
H	844.948	0.562022	1.21654
H	846.127	1.75036	1.90031
H	845.366	2.05121	0.297665
N	848.158	-0.190312	2.23859
C	848.74	-1.15755	3.13971
H	848.266	0.774498	2.45445
H	849.248	-0.648577	3.98811
H	849.49	-1.7875	2.60877
H	847.955	-1.8308	3.55399
