44
  This energy is 0 and Call times are: 159577
C	-2.11139	2.76576	-0.0725784
C	-1.8498	1.32069	-0.258272
O	-2.7659	0.528639	-0.430934
H	-3.20777	2.94733	-0.102273
H	-1.62834	3.34951	-0.884142
H	-1.7178	3.1028	0.909551
N	-0.570648	0.939939	-0.223863
C	-0.1623	-0.437317	-0.346247
C	1.14294	-0.612365	0.406924
O	1.75215	0.361184	0.845996
H	0.161021	1.59055	-0.0415751
H	-0.89814	-1.07191	0.131733
C	0.0112868	-0.831567	-1.82938
H	0.773716	-0.187748	-2.31747
H	0.312177	-1.89379	-1.93743
H	-0.953782	-0.688014	-2.36265
N	1.60041	-1.86782	0.581808
C	2.8308	-2.1321	1.29066
H	1.09135	-2.64307	0.222784
H	3.03579	-3.22469	1.32881
H	2.77203	-1.74986	2.33551
H	3.68954	-1.63139	0.787674
C	148.589	-1.54562	1.97777
C	148.987	-0.706113	0.825265
O	148.178	-0.391152	-0.0372069
H	147.514	-1.81278	1.88398
H	148.74	-0.98908	2.92663
H	149.191	-2.47866	1.99724
N	150.264	-0.321171	0.784288
C	150.81	0.46204	-0.296343
C	152.285	0.130531	-0.423321
O	152.851	-0.557508	0.423957
H	150.92	-0.619578	1.47215
H	150.333	0.171567	-1.22413
C	150.615	1.97189	-0.0365968
H	151.113	2.27249	0.90977
H	151.018	2.58522	-0.868227
H	149.529	2.19012	0.0608168
N	152.943	0.609057	-1.49747
C	154.347	0.340478	-1.70517
H	152.467	1.16053	-2.17441
H	154.704	0.81947	-2.64327
H	154.53	-0.755938	-1.77961
H	154.952	0.734924	-0.857147
