44
  This energy is 0 and Call times are: 171141
C	3.27852	-0.192262	-1.15197
C	1.89607	-0.713725	-1.06216
O	1.51366	-1.62164	-1.78732
H	3.82544	-0.737357	-1.95174
H	3.80782	-0.343055	-0.187691
H	3.26392	0.890012	-1.40009
N	1.10266	-0.138707	-0.155392
C	-0.279761	-0.508756	0.0193715
C	-1.03214	0.703148	0.535872
O	-0.429666	1.71529	0.888453
H	1.41606	0.626803	0.399262
H	-0.704927	-0.766513	-0.942619
C	-0.414274	-1.69015	1.00499
H	0.0122637	-1.42255	1.99519
H	-1.47303	-1.99353	1.13734
H	0.150438	-2.56311	0.610776
N	-2.37688	0.630271	0.584589
C	-3.17721	1.7361	1.0566
H	-2.84666	-0.195718	0.291112
H	-4.2595	1.48204	1.02011
H	-3.00801	2.64003	0.427669
H	-2.91228	1.99248	2.1079
C	978.429	0.510622	-3.132
C	977.886	1.01279	-1.8498
O	978.027	2.18157	-1.51723
H	978.953	1.33803	-3.6582
H	977.606	0.138931	-3.7771
H	979.152	-0.311362	-2.94563
N	977.244	0.123609	-1.08821
C	976.699	0.452542	0.205189
C	976.703	-0.80504	1.05374
O	976.969	-1.89828	0.558361
H	977.174	-0.833684	-1.35362
H	977.345	1.17238	0.692584
C	975.266	1.01269	0.073316
H	974.601	0.270471	-0.417142
H	974.84	1.28273	1.06138
H	975.286	1.9278	-0.557951
N	976.413	-0.676434	2.36346
C	976.397	-1.81678	3.24977
H	976.203	0.217085	2.74678
H	976.137	-1.50619	4.28575
H	977.396	-2.31053	3.27196
H	975.648	-2.56821	2.91046
