44
  This energy is 0 and Call times are: 169629
C	1.38218	2.85632	-1.42958
C	1.50505	1.50473	-0.838619
O	2.55619	0.881698	-0.8966
H	2.34736	3.13927	-1.90313
H	1.13789	3.59825	-0.640516
H	0.586053	2.8646	-2.20366
N	0.412785	1.01339	-0.24878
C	0.365523	-0.304868	0.33305
C	-1.06463	-0.805086	0.255527
O	-1.97611	-0.0556275	-0.08975
H	-0.4472	1.51567	-0.245531
H	0.975068	-0.977842	-0.257029
C	0.851304	-0.27869	1.79885
H	0.21975	0.403496	2.40696
H	0.832738	-1.29025	2.25373
H	1.89694	0.0979864	1.83227
N	-1.29359	-2.09548	0.569351
C	-2.62147	-2.66149	0.519091
H	-0.54256	-2.68743	0.842525
H	-2.60295	-3.73447	0.811661
H	-3.04193	-2.58601	-0.509886
H	-3.30577	-2.12064	1.21217
C	870.924	-0.514689	-2.85445
C	869.728	-0.780347	-2.0234
O	868.776	-1.40753	-2.46654
H	870.771	-0.948241	-3.86669
H	871.82	-0.981245	-2.39502
H	871.086	0.579416	-2.95285
N	869.751	-0.298093	-0.778705
C	868.644	-0.439055	0.134175
C	868.67	0.735105	1.0945
O	869.626	1.50866	1.11732
H	870.516	0.245652	-0.445744
H	867.715	-0.382209	-0.419352
C	868.733	-1.77304	0.907351
H	869.681	-1.82734	1.48375
H	867.879	-1.89971	1.60356
H	868.72	-2.61778	0.184451
N	867.61	0.900478	1.90926
C	867.544	1.99254	2.85226
H	866.844	0.266522	1.87327
H	866.594	1.95678	3.42982
H	867.596	2.9718	2.32345
H	868.394	1.94284	3.57107
