44
  This energy is 0 and Call times are: 158793
C	-1.5044	2.89487	1.2121
C	-0.62719	1.71423	1.37866
O	0.0988842	1.598	2.35627
H	-1.35719	3.58584	2.07046
H	-2.56865	2.57983	1.18279
H	-1.25151	3.43001	0.272542
N	-0.67476	0.798019	0.408783
C	0.151697	-0.383306	0.409315
C	0.390847	-0.793878	-1.03145
O	-0.22002	-0.251733	-1.95049
H	-1.24043	0.926407	-0.400788
H	1.11572	-0.144647	0.840977
C	-0.524243	-1.52913	1.1938
H	-1.50858	-1.7815	0.744994
H	0.10854	-2.44003	1.21326
H	-0.696842	-1.2037	2.24292
N	1.29839	-1.76276	-1.2631
C	1.5962	-2.215	-2.60212
H	1.78556	-2.18666	-0.506766
H	2.36807	-3.0157	-2.58422
H	1.97814	-1.37388	-3.22494
H	0.681681	-2.62022	-3.09263
C	91.6706	0.894569	0.477326
C	92.7595	-0.107828	0.44834
O	92.5928	-1.23642	0.889822
H	90.7723	0.447271	0.955541
H	91.41	1.20652	-0.555886
H	91.9847	1.7838	1.06361
N	93.9191	0.290685	-0.0797051
C	95.083	-0.558046	-0.138441
C	96.3154	0.326022	-0.102072
O	96.217	1.54781	-0.198357
H	94.0521	1.22509	-0.397607
H	95.1112	-1.18713	0.74251
C	95.0729	-1.42041	-1.41964
H	95.0546	-0.775378	-2.32387
H	95.9571	-2.08838	-1.46973
H	94.1587	-2.05319	-1.42888
N	97.5121	-0.275288	0.0473451
C	98.739	0.48514	0.098351
H	97.5711	-1.2648	0.127704
H	99.6145	-0.189048	0.2254
H	98.7218	1.20173	0.951274
H	98.879	1.06885	-0.84018
