44
  This energy is 0 and Call times are: 166857
C	-1.5798	-2.29461	2.08607
C	-1.45808	-1.57004	0.801032
O	-2.1145	-1.90079	-0.176782
H	-2.30696	-3.12755	1.97062
H	-1.94274	-1.6081	2.87962
H	-0.595871	-2.71512	2.38297
N	-0.598161	-0.549151	0.774516
C	-0.339646	0.223387	-0.414985
C	1.07794	0.757548	-0.333249
O	1.73406	0.646758	0.700647
H	-0.0408401	-0.317764	1.5668
H	-0.390444	-0.425505	-1.28043
C	-1.34899	1.38466	-0.548808
H	-1.28988	2.05653	0.333878
H	-1.16903	1.97873	-1.46817
H	-2.37987	0.970967	-0.598882
N	1.58873	1.34607	-1.43268
C	2.93104	1.87907	-1.45025
H	1.04389	1.42268	-2.26115
H	3.16559	2.32132	-2.44354
H	3.67494	1.07696	-1.23927
H	3.04932	2.67181	-0.676491
C	673.574	2.2743	0.559968
C	672.651	1.21236	1.01882
O	672.803	0.666122	2.10275
H	674.362	2.43309	1.32813
H	673.02	3.22507	0.411232
H	674.058	1.97518	-0.393948
N	671.657	0.890226	0.187565
C	670.705	-0.152973	0.476237
C	670.22	-0.728614	-0.841039
O	670.512	-0.192679	-1.90822
H	671.57	1.31513	-0.708991
H	671.201	-0.951163	1.01382
C	669.517	0.39585	1.29704
H	669.001	1.20759	0.741432
H	668.784	-0.400811	1.53758
H	669.896	0.819108	2.25286
N	669.469	-1.84667	-0.796216
C	668.967	-2.46915	-1.99922
H	669.246	-2.26809	0.0766121
H	668.373	-3.37648	-1.75395
H	669.808	-2.77071	-2.66521
H	668.315	-1.76426	-2.56406
