44
  This energy is -4.0905 and Call times are: 182389
C	-1.74896	2.99031	-0.334421
C	-0.700655	2.15726	0.296624
O	0.141773	2.65085	1.03357
H	-1.60334	4.05153	-0.0369425
H	-2.75437	2.65817	-0.000391157
H	-1.6835	2.9149	-1.44037
N	-0.729288	0.852748	0.0141251
C	0.25018	-0.0771566	0.518585
C	0.378155	-1.21535	-0.47625
O	-0.404383	-1.31882	-1.41893
H	-1.39644	0.472353	-0.619972
H	1.21393	0.41362	0.572967
C	-0.162864	-0.614759	1.90625
H	-1.14662	-1.12756	1.8489
H	0.590161	-1.32129	2.31159
H	-0.258269	0.235932	2.61588
N	1.38076	-2.09681	-0.292315
C	1.58396	-3.2089	-1.19129
H	2.00633	-1.99412	0.473971
H	2.45803	-3.81816	-0.87187
H	1.76944	-2.84673	-2.22845
H	0.685652	-3.86753	-1.21108
C	991.558	1.56589	-1.13887
C	992.976	1.59645	-0.714902
O	993.666	2.59164	-0.885855
H	991.295	2.53645	-1.61317
H	990.899	1.40563	-0.25974
H	991.396	0.75066	-1.87529
N	993.449	0.485839	-0.144597
C	994.82	0.349315	0.280788
C	995.196	-1.11824	0.200843
O	994.343	-1.97593	-0.0190527
H	992.886	-0.330275	-0.0494536
H	995.462	0.884891	-0.406957
C	995.006	0.878456	1.71971
H	994.355	0.322222	2.42728
H	996.06	0.791573	2.0538
H	994.717	1.95163	1.75636
N	996.493	-1.44141	0.370539
C	996.945	-2.81159	0.306014
H	997.169	-0.732973	0.543481
H	998.044	-2.87124	0.47041
H	996.715	-3.25461	-0.690067
H	996.44	-3.4293	1.08345
