44
  This energy is 0 and Call times are: 168509
C	-3.03956	0.637111	-1.57094
C	-1.56233	0.542972	-1.58018
O	-0.931914	0.585081	-2.62766
H	-3.40852	0.725202	-2.61593
H	-3.36241	1.53242	-0.999162
H	-3.47816	-0.273243	-1.11053
N	-0.968792	0.408802	-0.39187
C	0.457744	0.261849	-0.24368
C	0.722211	-0.540265	1.01657
O	-0.189311	-0.803043	1.79874
H	-1.49804	0.334955	0.448553
H	0.846498	-0.309627	-1.0773
C	1.14896	1.6406	-0.163022
H	0.758033	2.22313	0.698298
H	2.2492	1.541	-0.0627085
H	0.935338	2.21314	-1.09196
N	1.98417	-0.957464	1.23891
C	2.3295	-1.73106	2.40873
H	2.70744	-0.738451	0.592404
H	3.4141	-1.97774	2.41098
H	1.75324	-2.68426	2.43346
H	2.09701	-1.16289	3.33839
C	789.016	1.48316	3.14845
C	789.321	0.358071	2.23633
O	790.035	-0.569265	2.59213
H	789.539	1.32388	4.11626
H	787.923	1.53805	3.33564
H	789.363	2.44023	2.70532
N	788.779	0.417951	1.01776
C	789.02	-0.580547	0.00604185
C	788.897	0.0832859	-1.35251
O	788.474	1.23312	-1.45549
H	788.234	1.19944	0.729029
H	790.036	-0.943118	0.0967201
C	788.016	-1.74699	0.132025
H	786.973	-1.37709	0.0285416
H	788.2	-2.52907	-0.632881
H	788.118	-2.2127	1.13648
N	789.274	-0.628418	-2.43281
C	789.197	-0.0772885	-3.76567
H	789.618	-1.55589	-2.32899
H	789.552	-0.815796	-4.5177
H	789.826	0.838281	-3.84904
H	788.148	0.20108	-4.01597
