44
  This energy is -2.6556 and Call times are: 178209
C	-0.474246	1.49476	-3.107
C	0.219711	1.38958	-1.80373
O	1.24855	2.01317	-1.58229
H	0.0969614	2.17721	-3.77324
H	-1.4964	1.90415	-2.96436
H	-0.540103	0.495689	-3.58721
N	-0.337204	0.581809	-0.89835
C	0.244963	0.343926	0.398976
C	-0.166013	-1.04354	0.854609
O	-1.00658	-1.68816	0.230411
H	-1.15232	0.0492888	-1.10781
H	1.32437	0.348477	0.312419
C	-0.221244	1.40821	1.41642
H	-1.32781	1.39678	1.51344
H	0.231116	1.24401	2.41589
H	0.0831805	2.41605	1.05876
N	0.428153	-1.5412	1.95703
C	0.104706	-2.8551	2.46223
H	1.10896	-1.00621	2.44627
H	0.698346	-3.0826	3.37495
H	0.324702	-3.63502	1.69764
H	-0.97673	-2.92124	2.72158
C	992.851	-3.14428	0.519266
C	992.989	-1.7083	0.851105
O	992.208	-1.1572	1.61439
H	991.965	-3.55947	1.04586
H	993.755	-3.70067	0.844305
H	992.712	-3.27252	-0.574918
N	994.003	-1.06011	0.272418
C	994.24	0.349	0.464289
C	994.925	0.886728	-0.777616
O	995.331	0.124583	-1.65301
H	994.606	-1.51257	-0.378475
H	993.29	0.861643	0.556144
C	995.112	0.596526	1.71451
H	996.09	0.0794686	1.61617
H	995.29	1.67871	1.88095
H	994.594	0.187988	2.60984
N	995.063	2.22277	-0.886631
C	995.698	2.8258	-2.03549
H	994.725	2.82345	-0.169816
H	995.715	3.93378	-1.93896
H	995.15	2.56375	-2.9695
H	996.747	2.4665	-2.13858
