44
  This energy is 0 and Call times are: 158877
C	3.35488	-0.0189588	-0.925807
C	2.28394	0.0902615	0.0902182
O	2.5411	0.0673576	1.28594
H	4.33555	-0.133644	-0.41491
H	3.3816	0.89641	-1.5536
H	3.18048	-0.905094	-1.5719
N	1.03736	0.211245	-0.372147
C	-0.11302	0.284398	0.493779
C	-1.30455	-0.284047	-0.253666
O	-1.2267	-0.554172	-1.45061
H	0.839879	0.187141	-1.348
H	0.0524413	-0.342239	1.36129
C	-0.388444	1.74211	0.923259
H	-0.568683	2.38327	0.0341789
H	-1.26362	1.80999	1.60148
H	0.499508	2.14022	1.46122
N	-2.44026	-0.487665	0.442555
C	-3.6236	-1.03008	-0.1833
H	-2.48265	-0.266755	1.4113
H	-4.45119	-1.1226	0.554092
H	-3.41651	-2.03979	-0.606226
H	-3.96591	-0.3714	-1.01403
C	104.322	-0.448008	0.935914
C	103.287	0.0228123	-0.0121769
O	103.578	0.731067	-0.966209
H	105.311	-0.0421795	0.631371
H	104.371	-1.55719	0.929054
H	104.089	-0.0948346	1.96266
N	102.034	-0.365656	0.235807
C	100.914	0.0472467	-0.572627
C	99.6772	0.0618605	0.305346
O	99.7077	-0.40025	1.4443
H	101.807	-0.908342	1.03945
H	101.077	1.06074	-0.917532
C	100.717	-0.907358	-1.77054
H	100.539	-1.9454	-1.41698
H	99.8659	-0.59212	-2.40849
H	101.637	-0.908234	-2.39464
N	98.5545	0.604811	-0.205264
C	97.3303	0.667834	0.558605
H	98.5504	0.97735	-1.12737
H	96.5214	1.14938	-0.0338886
H	97.4796	1.25759	1.49197
H	96.9934	-0.354372	0.846308
