44
  This energy is -2.3228 and Call times are: 172216
C	0.0261867	3.06674	-1.64532
C	0.143808	2.24393	-0.420462
O	0.559282	2.72227	0.625949
H	0.379721	4.09851	-1.43003
H	-1.03273	3.1114	-1.97614
H	0.649024	2.63556	-2.45726
N	-0.224054	0.964988	-0.527102
C	-0.125884	0.0304379	0.566304
C	0.0751764	-1.35685	-0.0138345
O	-0.0338031	-1.55603	-1.22221
H	-0.521531	0.580011	-1.39611
H	0.751083	0.263084	1.15744
C	-1.3966	0.0717391	1.44313
H	-2.29531	-0.177183	0.839476
H	-1.32745	-0.633574	2.29652
H	-1.5282	1.09794	1.8505
N	0.383934	-2.35285	0.839792
C	0.598814	-3.70452	0.378267
H	0.47179	-2.17131	1.81365
H	0.842346	-4.37692	1.2302
H	1.4415	-3.74175	-0.349581
H	-0.312644	-4.09638	-0.128517
C	995.308	3.24176	-1.01426
C	994.46	2.26693	-0.292548
O	993.587	2.63761	0.479846
H	995.019	4.27265	-0.715043
H	995.168	3.13312	-2.11033
H	996.377	3.08035	-0.760397
N	994.704	0.976323	-0.531287
C	993.99	-0.0886169	0.128244
C	994.907	-1.29489	0.206506
O	995.982	-1.30919	-0.391035
H	995.445	0.689615	-1.13143
H	993.762	0.20966	1.14394
C	992.696	-0.441174	-0.636303
H	992.93	-0.757356	-1.67515
H	992.13	-1.25051	-0.130812
H	992.044	0.458049	-0.688234
N	994.504	-2.33859	0.957835
C	995.313	-3.52732	1.09583
H	993.634	-2.30676	1.43718
H	994.811	-4.2706	1.75339
H	996.304	-3.27886	1.54076
H	995.489	-4.00018	0.102638
