44
  This energy is 0 and Call times are: 169265
C	3.07641	0.829317	1.40021
C	2.06531	-0.162484	0.969942
O	2.32984	-1.35583	0.921391
H	4.03114	0.306333	1.62575
H	2.73074	1.35636	2.31426
H	3.25445	1.56963	0.591921
N	0.864455	0.318964	0.640483
C	-0.207889	-0.517632	0.162212
C	-1.09142	0.318199	-0.744599
O	-0.932731	1.5343	-0.831931
H	0.676793	1.29703	0.645888
H	0.204661	-1.31867	-0.438434
C	-1.02777	-1.09027	1.33912
H	-1.45997	-0.26891	1.94955
H	-1.84808	-1.74734	0.984337
H	-0.359613	-1.69152	1.99365
N	-2.04409	-0.320992	-1.45162
C	-2.92839	0.391005	-2.34452
H	-2.15448	-1.30605	-1.37075
H	-3.6409	-0.309339	-2.83347
H	-2.3475	0.911893	-3.13982
H	-3.51552	1.15701	-1.78804
C	841.552	2.00112	-2.45186
C	841.74	0.696958	-1.77726
O	841.009	-0.253043	-2.02148
H	840.681	1.93668	-3.14007
H	842.457	2.26128	-3.0404
H	841.359	2.796	-1.701
N	842.74	0.622986	-0.896481
C	843.02	-0.565805	-0.130181
C	843.659	-0.1448	1.17964
O	844.005	1.02034	1.36588
H	843.301	1.41667	-0.678234
H	842.088	-1.06282	0.110582
C	843.956	-1.51655	-0.908454
H	844.915	-1.01059	-1.14651
H	844.167	-2.442	-0.33461
H	843.471	-1.80525	-1.86667
N	843.824	-1.08906	2.12683
C	844.418	-0.780277	3.40657
H	843.534	-2.02555	1.95912
H	844.466	-1.68832	4.04718
H	843.821	-0.00600803	3.94041
H	845.453	-0.388363	3.27526
