44
  This energy is 0 and Call times are: 170049
C	0.290358	0.158835	3.46456
C	0.227079	-0.600596	2.19554
O	0.498766	-1.7927	2.15704
H	0.622624	-0.518021	4.28147
H	-0.711755	0.563768	3.7186
H	1.01483	0.995522	3.3741
N	-0.137359	0.0863945	1.11036
C	-0.202951	-0.505139	-0.20278
C	0.0604746	0.583761	-1.22575
O	0.118054	1.76457	-0.887986
H	-0.315747	1.06541	1.1501
H	0.58608	-1.23994	-0.303387
C	-1.58256	-1.15504	-0.446811
H	-2.39157	-0.399435	-0.354109
H	-1.64086	-1.62613	-1.44941
H	-1.75743	-1.94308	0.317882
N	0.235997	0.207918	-2.50792
C	0.49705	1.17366	-3.54973
H	0.189865	-0.752719	-2.76114
H	0.612008	0.668768	-4.53416
H	1.43217	1.73998	-3.33499
H	-0.339714	1.90517	-3.62623
C	895.717	-1.1043	0.336304
C	896.886	-0.330503	0.80989
O	896.786	0.470044	1.72933
H	894.82	-0.812615	0.925611
H	895.897	-2.19153	0.470942
H	895.526	-0.891529	-0.736769
N	898.041	-0.555135	0.179147
C	899.256	0.152694	0.498584
C	900.11	0.215621	-0.753709
O	899.804	-0.425094	-1.7575
H	898.099	-1.17975	-0.594431
H	899.014	1.1712	0.7753
C	900.021	-0.551481	1.64073
H	900.279	-1.59303	1.35325
H	900.951	-0.00833694	1.90536
H	899.374	-0.593275	2.54425
N	901.204	1.00201	-0.725606
C	902.074	1.12871	-1.87195
H	901.433	1.51598	0.0944684
H	902.917	1.81995	-1.65156
H	901.513	1.52798	-2.748
H	902.497	0.138045	-2.15547
