44
  This energy is 0.12 and Call times are: 186971
C	1.20864	-3.26372	-0.00218458
C	0.166862	-2.25961	-0.314616
O	-0.784642	-2.53679	-1.03171
H	0.969294	-4.21581	-0.523842
H	1.24298	-3.45197	1.09149
H	2.20147	-2.90497	-0.34666
N	0.328537	-1.04916	0.224868
C	-0.578853	0.0435482	-0.0224994
C	0.198186	1.34071	0.100546
O	1.35093	1.34618	0.528187
H	1.12967	-0.826804	0.773149
H	-0.943806	-0.0185595	-1.04014
C	-1.75578	0.0204479	0.977275
H	-1.38255	0.0947627	2.02093
H	-2.46888	0.848902	0.788377
H	-2.30525	-0.940805	0.875164
N	-0.417056	2.47687	-0.28239
C	0.24569	3.75795	-0.206328
H	-1.34863	2.45178	-0.629685
H	-0.424408	4.56938	-0.566559
H	1.16753	3.76104	-0.832009
H	0.540255	3.98638	0.843526
C	997.291	-0.822856	-3.27551
C	997.248	-1.12246	-1.82652
O	997.519	-2.23731	-1.40237
H	997.574	-1.74222	-3.83242
H	998.042	-0.0320026	-3.48073
H	996.293	-0.483973	-3.62582
N	996.898	-0.115874	-1.02248
C	996.77	-0.265449	0.405768
C	995.741	0.735402	0.896019
O	995.297	1.60202	0.144916
H	996.64	0.774792	-1.38604
H	996.39	-1.25458	0.628792
C	998.126	-0.0354109	1.10798
H	998.511	0.983015	0.888049
H	998.044	-0.161435	2.20701
H	998.866	-0.7735	0.728157
N	995.328	0.63261	2.17482
C	994.347	1.53739	2.72781
H	995.695	-0.0777911	2.76605
H	994.14	1.2901	3.79232
H	993.391	1.47387	2.16069
H	994.71	2.58951	2.6762
