44
  This energy is -2.7174 and Call times are: 183106
C	0.960844	0.370158	3.32452
C	0.673336	-0.464418	2.13626
O	0.969788	-1.65093	2.10935
H	1.46855	-0.25009	4.09485
H	0.0159409	0.768976	3.74978
H	1.6265	1.21457	3.0471
N	0.0810197	0.149361	1.10922
C	-0.222754	-0.520316	-0.130868
C	-0.200292	0.511056	-1.24322
O	-0.114866	1.71077	-0.988055
H	-0.117005	1.12517	1.13041
H	0.553967	-1.24358	-0.345862
C	-1.60211	-1.21151	-0.0611048
H	-2.40062	-0.468365	0.148985
H	-1.84149	-1.7424	-1.00524
H	-1.59812	-1.95616	0.764632
N	-0.268527	0.0633926	-2.51246
C	-0.248195	0.97068	-3.63611
H	-0.333089	-0.911325	-2.69908
H	-0.313136	0.410672	-4.59496
H	0.692464	1.56767	-3.64193
H	-1.10642	1.67918	-3.5848
C	993.94	-1.18585	-3.19423
C	994.142	-0.0819173	-2.22899
O	994.243	1.07764	-2.60546
H	993.922	-0.772735	-4.22615
H	992.975	-1.69688	-2.99468
H	994.77	-1.91964	-3.11545
N	994.21	-0.425031	-0.940516
C	994.446	0.532334	0.111248
C	995.146	-0.18166	1.25233
O	995.268	-1.40505	1.249
H	994.167	-1.37759	-0.65298
H	995.118	1.30054	-0.249414
C	993.119	1.15777	0.59606
H	992.433	0.371175	0.975937
H	993.289	1.90684	1.39642
H	992.621	1.66788	-0.256894
N	995.631	0.572745	2.25777
C	996.317	-0.0184265	3.38317
H	995.526	1.56153	2.24069
H	996.641	0.765735	4.10253
H	997.219	-0.57704	3.04406
H	995.65	-0.732221	3.91893
