44
  This energy is -3.6535 and Call times are: 175475
C	0.462617	-3.15421	-1.3963
C	0.556346	-1.67797	-1.45175
O	1.18881	-1.11662	-2.33565
H	1.0478	-3.59113	-2.23448
H	-0.596208	-3.47432	-1.49201
H	0.876251	-3.52812	-0.435989
N	-0.0809335	-1.00632	-0.489907
C	-0.045685	0.431258	-0.386528
C	-0.212299	0.804623	1.07443
O	-0.509152	-0.0453439	1.91178
H	-0.557472	-1.47857	0.246137
H	0.926786	0.788343	-0.70184
C	-1.16124	1.07327	-1.2401
H	-2.15976	0.715341	-0.910112
H	-1.13594	2.18063	-1.17983
H	-1.02407	0.780145	-2.30388
N	-0.0152754	2.09299	1.41694
C	-0.146365	2.54024	2.78404
H	0.228382	2.7654	0.725877
H	0.0547922	3.63144	2.86183
H	0.573263	2.00331	3.44368
H	-1.17513	2.34515	3.16448
C	996.323	-1.98264	2.56141
C	995.457	-0.888625	2.06827
O	994.612	-0.376076	2.78963
H	996.051	-2.2213	3.61254
H	997.389	-1.67171	2.52765
H	996.184	-2.89152	1.93888
N	995.649	-0.502695	0.804789
C	994.854	0.519605	0.170856
C	994.813	0.231517	-1.31807
O	995.527	-0.639843	-1.8108
H	996.312	-0.957265	0.217378
H	993.838	0.46112	0.538799
C	995.446	1.92149	0.435056
H	996.485	1.98534	0.0483442
H	994.835	2.71847	-0.0363492
H	995.474	2.10756	1.53093
N	993.964	0.956824	-2.07215
C	993.853	0.749176	-3.49715
H	993.392	1.65467	-1.6547
H	993.102	1.44146	-3.93791
H	993.538	-0.296359	-3.71828
H	994.831	0.928085	-3.99819
