44
  This energy is 0 and Call times are: 157981
C	2.12899	0.721809	-2.65689
C	1.8435	0.0845877	-1.35168
O	2.61708	-0.725568	-0.860123
H	3.0889	0.327755	-3.05585
H	2.21512	1.82201	-2.53494
H	1.31814	0.492628	-3.38014
N	0.704647	0.44165	-0.753431
C	0.269806	-0.124341	0.499218
C	-1.24635	-0.0849975	0.535048
O	-1.88117	0.520343	-0.326505
H	0.0654637	1.07155	-1.18533
H	0.566612	-1.16482	0.543269
C	0.860126	0.658218	1.69268
H	0.547282	1.72342	1.65375
H	0.543787	0.223641	2.66304
H	1.9703	0.622773	1.64172
N	-1.8654	-0.741727	1.5358
C	-3.30521	-0.764365	1.64817
H	-1.33476	-1.22926	2.22123
H	-3.62115	-1.35584	2.53562
H	-3.76283	-1.22173	0.741159
H	-3.70749	0.269124	1.75406
C	37.5604	3.43463	0.0456023
C	37.0774	2.20165	-0.615974
O	36.4154	2.2523	-1.6434
H	37.2087	4.32041	-0.526716
H	38.6702	3.44342	0.0752702
H	37.1626	3.49446	1.08064
N	37.4022	1.0472	-0.0293445
C	36.9686	-0.232885	-0.531273
C	36.8701	-1.19164	0.640336
O	37.2941	-0.875368	1.75026
H	37.9068	1.02375	0.82896
H	35.9755	-0.134039	-0.951509
C	37.9539	-0.772412	-1.59114
H	38.9706	-0.883975	-1.15759
H	37.6237	-1.75123	-1.99541
H	38.0161	-0.0512352	-2.43516
N	36.2964	-2.391	0.420318
C	36.1541	-3.36597	1.47642
H	35.9557	-2.62716	-0.483667
H	35.6582	-4.28667	1.09746
H	35.54	-2.955	2.31024
H	37.1503	-3.64803	1.88784
