44
  This energy is 0 and Call times are: 160641
C	-1.24206	-2.58999	-1.96518
C	-1.04069	-1.92841	-0.656397
O	-1.63987	-2.30423	0.341679
H	-1.99217	-3.40295	-1.85423
H	-0.287005	-3.02864	-2.32323
H	-1.61451	-1.85676	-2.71133
N	-0.178775	-0.909132	-0.633054
C	0.0891628	-0.140154	0.556669
C	0.487658	1.26137	0.134205
O	0.696733	1.52733	-1.04786
H	0.270424	-0.588666	-1.46214
H	-0.819622	-0.0552794	1.13937
C	1.21066	-0.792641	1.39437
H	2.14623	-0.870331	0.800482
H	1.41672	-0.217346	2.32017
H	0.900773	-1.82001	1.68564
N	0.594306	2.19813	1.09709
C	0.962848	3.56027	0.789
H	0.417175	1.96476	2.04748
H	0.99644	4.17735	1.71382
H	0.226548	4.01765	0.0890454
H	1.96636	3.5964	0.306496
C	229.991	0.927313	1.51881
C	228.886	1.16522	0.562568
O	228.75	2.24781	0.00954989
H	230.591	1.85688	1.62509
H	230.65	0.11435	1.1478
H	229.583	0.647452	2.51291
N	228.058	0.140736	0.345596
C	226.913	0.233474	-0.524723
C	225.862	-0.742278	-0.0291639
O	226.125	-1.55545	0.854813
H	228.158	-0.721306	0.834242
H	226.489	1.22749	-0.453006
C	227.302	-0.0853141	-1.98491
H	227.727	-1.10893	-2.06076
H	226.431	-0.00374009	-2.66716
H	228.077	0.635895	-2.32384
N	224.636	-0.677423	-0.585715
C	223.572	-1.56212	-0.174043
H	224.442	-0.00994046	-1.2968
H	222.642	-1.35261	-0.748124
H	223.35	-1.43267	0.91022
H	223.856	-2.6257	-0.34369
