44
  This energy is 0 and Call times are: 159073
C	-1.83632	-2.69104	1.2243
C	-1.06134	-2.02035	0.156251
O	-0.70582	-2.62759	-0.844386
H	-1.98918	-3.75808	0.952361
H	-2.82743	-2.20442	1.34113
H	-1.28443	-2.64095	2.18658
N	-0.776217	-0.730648	0.350544
C	0.0068031	0.0446439	-0.579167
C	0.718207	1.13673	0.197235
O	0.449727	1.34664	1.37858
H	-1.03723	-0.260784	1.18898
H	0.768537	-0.587287	-1.01855
C	-0.888837	0.657207	-1.67818
H	-1.66388	1.31393	-1.22868
H	-0.295689	1.24519	-2.40823
H	-1.40552	-0.159506	-2.22807
N	1.65479	1.85644	-0.451501
C	2.38739	2.91246	0.207521
H	1.861	1.66907	-1.40619
H	3.1116	3.38467	-0.492315
H	2.95305	2.51268	1.08015
H	1.69276	3.70067	0.578134
C	111.728	0.325149	-1.14154
C	112.724	-0.163328	-0.161183
O	112.377	-0.62911	0.915297
H	110.707	0.205197	-0.718737
H	111.799	-0.260043	-2.08246
H	111.903	1.39969	-1.36085
N	114.007	-0.0635233	-0.51808
C	115.091	-0.456979	0.34699
C	116.303	0.387469	0.000609442
O	116.301	1.11537	-0.990282
H	114.275	0.355528	-1.38063
H	114.827	-0.236306	1.37371
C	115.412	-1.95853	0.181124
H	115.693	-2.18352	-0.869745
H	116.236	-2.27687	0.852097
H	114.509	-2.5568	0.432076
N	117.37	0.31536	0.820176
C	118.566	1.08683	0.573552
H	117.351	-0.276263	1.61937
H	119.329	0.890494	1.35829
H	118.337	2.17713	0.572546
H	119.005	0.825462	-0.416373
