44
  This energy is 0.1435 and Call times are: 187611
C	2.38893	-0.00913622	-2.53093
C	1.76824	-0.597233	-1.32261
O	2.06693	-1.72019	-0.940295
H	3.09522	-0.743558	-2.97552
H	2.94885	0.911712	-2.26396
H	1.60796	0.23768	-3.28077
N	0.873222	0.161723	-0.68598
C	0.154237	-0.289923	0.479197
C	-1.18419	0.423443	0.515058
O	-1.42718	1.34587	-0.260696
H	0.610425	1.05762	-1.03264
H	-0.0475119	-1.34975	0.385906
C	0.955678	-0.00256333	1.76774
H	1.15381	1.08577	1.86933
H	0.418754	-0.358242	2.67092
H	1.9343	-0.527898	1.7161
N	-2.09236	0.00387595	1.41795
C	-3.39504	0.619049	1.5217
H	-1.87884	-0.746763	2.0344
H	-3.9964	0.133996	2.3219
H	-3.95089	0.526304	0.560605
H	-3.29996	1.70265	1.76234
C	998.505	0.56484	-1.09623
C	997.063	0.34801	-1.35128
O	996.583	0.525507	-2.46237
H	998.996	0.906561	-2.03305
H	998.981	-0.381672	-0.765027
H	998.642	1.3412	-0.314338
N	996.328	-0.0453927	-0.308203
C	994.904	-0.255254	-0.390709
C	994.307	0.0105747	0.978253
O	995.029	0.182423	1.9581
H	996.725	-0.146064	0.599446
H	994.476	0.466277	-1.0752
C	994.584	-1.69443	-0.850863
H	995.015	-2.43487	-0.143267
H	993.491	-1.8643	-0.931658
H	995.038	-1.86927	-1.85093
N	992.964	0.0590356	1.07565
C	992.306	0.311796	2.33642
H	992.396	-0.0784261	0.270802
H	991.201	0.31304	2.21009
H	992.612	1.30052	2.74824
H	992.573	-0.470945	3.08289
