44
  This energy is 0 and Call times are: 170441
C	-0.225956	-0.65982	3.40973
C	0.12316	-1.05421	2.02636
O	0.767041	-2.06962	1.80103
H	0.198328	-1.40123	4.12119
H	-1.32903	-0.633567	3.53337
H	0.195556	0.34134	3.64016
N	-0.299944	-0.24371	1.05351
C	-0.00140141	-0.472235	-0.338329
C	0.0267932	0.87109	-1.04277
O	-0.343272	1.89226	-0.466588
H	-0.787823	0.600736	1.25538
H	0.988325	-0.902933	-0.42535
C	-1.05434	-1.39989	-0.983327
H	-2.06849	-0.953578	-0.903668
H	-0.827845	-1.59467	-2.05164
H	-1.0631	-2.37386	-0.446994
N	0.477964	0.902075	-2.31222
C	0.54605	2.13572	-3.06034
H	0.776911	0.0659873	-2.76018
H	0.94358	1.95394	-4.08315
H	1.21284	2.86814	-2.55022
H	-0.464527	2.59532	-3.15327
C	925.008	-1.40672	2.48347
C	925.213	-0.485233	1.34324
O	924.268	0.0757238	0.805267
H	923.922	-1.4818	2.7045
H	925.533	-1.02353	3.38406
H	925.395	-2.41718	2.23299
N	926.474	-0.308281	0.942171
C	926.827	0.52424	-0.180786
C	928.107	-0.0177616	-0.787629
O	928.747	-0.902038	-0.221822
H	927.228	-0.80351	1.36371
H	926.055	0.45019	-0.936743
C	927.015	1.99275	0.258799
H	927.814	2.07062	1.02668
H	927.274	2.64638	-0.59943
H	926.069	2.36599	0.707015
N	928.508	0.498182	-1.96633
C	929.711	0.0406189	-2.62199
H	927.975	1.21023	-2.41082
H	929.869	0.585714	-3.5786
H	929.646	-1.04883	-2.84601
H	930.6	0.20707	-1.97218
