44
  This energy is 0 and Call times are: 168145
C	1.55026	-0.0794493	3.11497
C	1.51654	0.303305	1.68546
O	2.33503	1.08407	1.21975
H	2.38257	0.457763	3.6195
H	1.71558	-1.17283	3.2146
H	0.593915	0.195987	3.60754
N	0.550033	-0.246465	0.946551
C	0.362989	0.0621281	-0.44928
C	-1.10708	-0.11442	-0.779847
O	-1.87898	-0.620112	0.0326565
H	-0.133708	-0.848484	1.34897
H	0.609622	1.10242	-0.621309
C	1.23176	-0.854569	-1.33819
H	0.971801	-1.92139	-1.1698
H	1.10707	-0.61753	-2.41466
H	2.30261	-0.714643	-1.07353
N	-1.53192	0.309371	-1.98647
C	-2.91436	0.18754	-2.38672
H	-0.893148	0.719746	-2.62883
H	-3.06415	0.592566	-3.41178
H	-3.57647	0.748526	-1.68802
H	-3.23247	-0.880132	-2.38142
C	763.066	-2.68025	2.21917
C	763.222	-2.10653	0.863635
O	763.726	-2.75446	-0.043675
H	763.48	-3.71162	2.23163
H	761.991	-2.72161	2.49543
H	763.614	-2.06326	2.96158
N	762.788	-0.855174	0.695103
C	762.912	-0.147585	-0.554938
C	763.01	1.33555	-0.251209
O	762.815	1.75972	0.88622
H	762.418	-0.326314	1.45354
H	763.835	-0.439126	-1.04074
C	761.703	-0.433527	-1.47258
H	760.757	-0.124887	-0.978904
H	761.793	0.0947132	-2.44385
H	761.646	-1.52536	-1.67504
N	763.326	2.1624	-1.26753
C	763.447	3.58834	-1.0721
H	763.484	1.79998	-2.18005
H	763.712	4.09488	-2.02614
H	764.239	3.81613	-0.322243
H	762.487	4.0173	-0.702226
