44
  This energy is 0 and Call times are: 164897
C	2.42126	-1.14157	-2.22419
C	1.01127	-0.898963	-1.84442
O	0.10747	-1.01114	-2.66109
H	2.47137	-1.40091	-3.30406
H	2.83743	-1.98394	-1.63261
H	3.02822	-0.229075	-2.04521
N	0.789962	-0.552752	-0.574165
C	-0.523458	-0.242928	-0.0667223
C	-0.368145	0.737776	1.0803
O	0.742729	1.00469	1.53465
H	1.54002	-0.425626	0.06858
H	-1.09723	0.252998	-0.839686
C	-1.24709	-1.52186	0.408582
H	-0.664045	-2.02535	1.20896
H	-2.26492	-1.29826	0.788771
H	-1.34255	-2.2282	-0.444838
N	-1.48629	1.30691	1.5721
C	-1.43583	2.25609	2.65962
H	-2.37576	1.08142	1.18861
H	-2.45751	2.61052	2.91997
H	-0.818517	3.1406	2.38064
H	-0.984014	1.79177	3.56593
C	533.263	-0.948479	2.46792
C	532.94	-0.551621	1.07895
O	533.822	-0.26825	0.280124
H	534.365	-0.91589	2.61233
H	532.906	-1.98111	2.66395
H	532.786	-0.249411	3.18654
N	531.645	-0.520122	0.756804
C	531.173	-0.112099	-0.543036
C	529.786	0.480006	-0.378448
O	529.19	0.399774	0.694061
H	530.937	-0.713814	1.42967
H	531.815	0.671411	-0.926201
C	531.139	-1.30922	-1.5182
H	530.472	-2.10893	-1.13066
H	530.79	-1.00514	-2.52652
H	532.163	-1.73153	-1.61722
N	529.241	1.10003	-1.44331
C	527.928	1.69814	-1.37887
H	529.74	1.15838	-2.30147
H	527.657	2.15846	-2.35458
H	527.895	2.49058	-0.596413
H	527.159	0.932261	-1.1269
