44
  This energy is 0 and Call times are: 164925
C	0.467245	3.1512	1.40153
C	0.929959	2.00632	0.585275
O	1.93536	2.08767	-0.106788
H	1.15186	4.01327	1.24654
H	0.469591	2.87945	2.47805
H	-0.558758	3.44797	1.09765
N	0.191577	0.895812	0.648119
C	0.490921	-0.28559	-0.122103
C	-0.80934	-1.02258	-0.382351
O	-1.84978	-0.680689	0.176496
H	-0.646936	0.858322	1.18418
H	0.893662	0.00740763	-1.08366
C	1.48816	-1.19537	0.628266
H	1.07106	-1.50481	1.61026
H	1.73735	-2.10181	0.039373
H	2.42904	-0.633027	0.814998
N	-0.780995	-2.05334	-1.24996
C	-1.97057	-2.80997	-1.56398
H	0.069619	-2.31243	-1.69538
H	-1.74255	-3.61497	-2.29693
H	-2.75265	-2.14837	-2.00205
H	-2.391	-3.28035	-0.645765
C	531.987	-0.0628049	-3.32903
C	532.853	0.441134	-2.23977
O	533.842	1.12055	-2.48014
H	532.401	0.262273	-4.30808
H	530.96	0.344403	-3.22041
H	531.949	-1.17234	-3.30549
N	532.496	0.111201	-0.996445
C	533.263	0.491339	0.163426
C	533.043	-0.5548	1.23985
O	532.189	-1.42891	1.1033
H	531.712	-0.476692	-0.819234
H	534.317	0.480626	-0.08609
C	532.841	1.88758	0.670879
H	531.763	1.89621	0.936958
H	533.434	2.19758	1.55548
H	533.003	2.63568	-0.135574
N	533.82	-0.493831	2.33925
C	533.686	-1.45008	3.41342
H	534.508	0.218375	2.42977
H	534.413	-1.23235	4.22666
H	533.873	-2.48446	3.04402
H	532.659	-1.41725	3.84313
