44
  This energy is 0 and Call times are: 164729
C	-2.37156	0.761432	2.43077
C	-0.991154	0.804728	1.89808
O	-0.140425	1.52481	2.40221
H	-2.45773	1.46711	3.28544
H	-2.61326	-0.262821	2.78465
H	-3.09515	1.06061	1.64337
N	-0.735897	0.0222997	0.846876
C	0.548119	-0.0115328	0.19211
C	0.327617	-0.381152	-1.26265
O	-0.776102	-0.751569	-1.65801
H	-1.4495	-0.52748	0.422169
H	0.984745	0.979249	0.210582
C	1.48802	-1.03034	0.873177
H	1.04532	-2.0488	0.84515
H	2.48464	-1.05572	0.386725
H	1.62874	-0.744686	1.93852
N	1.37886	-0.280097	-2.09973
C	1.26233	-0.605145	-3.50221
H	2.26299	0.0254017	-1.76202
H	2.23457	-0.457949	-4.02211
H	0.500564	0.0426038	-3.99355
H	0.950554	-1.6664	-3.63513
C	519.334	-0.235095	-3.45628
C	518.718	-0.648945	-2.17537
O	517.727	-1.36581	-2.15182
H	518.747	-0.659017	-4.29985
H	520.377	-0.611575	-3.51897
H	519.335	0.872175	-3.5401
N	519.301	-0.196142	-1.06298
C	518.792	-0.478283	0.255974
C	519.182	0.669069	1.16884
O	519.959	1.54153	0.786986
H	520.083	0.419952	-1.09918
H	517.71	-0.51029	0.221914
C	519.357	-1.81223	0.791669
H	520.466	-1.77613	0.836749
H	518.961	-2.04754	1.801
H	519.066	-2.63628	0.104021
N	518.64	0.698695	2.40218
C	518.948	1.75481	3.33811
H	518.009	-0.0140003	2.69159
H	518.404	1.60215	4.29625
H	518.654	2.74593	2.92248
H	520.04	1.78142	3.55524
