44
  This energy is 0 and Call times are: 164841
C	0.486074	3.30748	-0.967982
C	-0.102165	1.96399	-1.16833
O	-0.970303	1.77196	-2.00849
H	0.00145148	4.02788	-1.66228
H	1.57598	3.28331	-1.17839
H	0.318808	3.64665	0.0760852
N	0.364798	0.988876	-0.385078
C	-0.139989	-0.360725	-0.433306
C	0.0353347	-0.980644	0.940199
O	0.681195	-0.404433	1.81345
H	1.04236	1.16927	0.322196
H	-1.202	-0.337597	-0.643592
C	0.605587	-1.19077	-1.50119
H	1.69374	-1.22361	-1.28008
H	0.216571	-2.22808	-1.55765
H	0.470205	-0.714425	-2.49674
N	-0.547363	-2.17452	1.16637
C	-0.43937	-2.83829	2.44463
H	-1.06939	-2.62329	0.448627
H	-0.985997	-3.80693	2.43218
H	-0.868391	-2.20414	3.25399
H	0.627507	-3.04069	2.69352
C	528.223	2.3533	2.25349
C	527.687	1.01131	1.93343
O	527.714	0.106029	2.75571
H	528.63	2.34912	3.28816
H	527.417	3.11357	2.18731
H	529.039	2.61759	1.54792
N	527.181	0.851252	0.708529
C	526.661	-0.408163	0.2367
C	526.839	-0.45908	-1.26901
O	527.201	0.535869	-1.89436
H	527.203	1.58592	0.0364932
H	527.246	-1.21621	0.658305
C	525.171	-0.565391	0.611051
H	524.569	0.257529	0.169991
H	524.763	-1.53728	0.265311
H	525.063	-0.517112	1.71668
N	526.596	-1.63101	-1.8882
C	526.745	-1.77579	-3.3176
H	526.308	-2.42611	-1.36466
H	526.499	-2.81311	-3.63539
H	527.791	-1.55225	-3.62847
H	526.067	-1.07434	-3.85618
