44
  This energy is -3.3108 and Call times are: 181281
C	-0.0926077	2.5915	-2.32126
C	0.352631	2.00911	-1.03529
O	1.22173	2.54765	-0.363678
H	0.489668	3.5159	-2.52699
H	-1.17126	2.84987	-2.27131
H	0.0763552	1.86903	-3.14744
N	-0.242629	0.874592	-0.659893
C	0.114075	0.16706	0.544566
C	-0.172124	-1.30718	0.329464
O	-0.779774	-1.69179	-0.667805
H	-0.919305	0.426511	-1.23713
H	1.17862	0.267354	0.715807
C	-0.68195	0.702195	1.75503
H	-1.77386	0.589861	1.58431
H	-0.406125	0.174747	2.6911
H	-0.463326	1.78417	1.88872
N	0.269942	-2.17266	1.26303
C	0.0489872	-3.59474	1.14041
H	0.763318	-1.8428	2.06105
H	0.487424	-4.13701	2.00698
H	0.517667	-3.98614	0.208517
H	-1.04109	-3.8211	1.09998
C	993.624	3.05076	1.55354
C	993.193	1.71477	1.08388
O	992.116	1.2419	1.42159
H	992.844	3.47339	2.2241
H	993.763	3.73367	0.689265
H	994.577	2.96912	2.11729
N	994.04	1.06569	0.282173
C	993.78	-0.260179	-0.22044
C	995.112	-0.948131	-0.453382
O	996.166	-0.321517	-0.373973
H	994.931	1.44622	0.0491642
H	993.25	-0.829883	0.532695
C	992.963	-0.203003	-1.53026
H	993.511	0.372416	-2.30658
H	992.744	-1.21821	-1.91995
H	991.997	0.311372	-1.33799
N	995.094	-2.26474	-0.740129
C	996.312	-3.0046	-0.971861
H	994.23	-2.75545	-0.795999
H	996.089	-4.07175	-1.19191
H	996.974	-2.96258	-0.0762448
H	996.873	-2.57836	-1.83518
