44
  This energy is 0 and Call times are: 164785
C	1.62151	-2.87699	1.09831
C	0.463989	-1.95435	1.09448
O	-0.595412	-2.26573	1.62091
H	1.33744	-3.82051	1.61305
H	2.47602	-2.41671	1.63747
H	1.92591	-3.11338	0.0568908
N	0.644028	-0.778899	0.48763
C	-0.402548	0.205096	0.365191
C	-0.144383	1.01643	-0.890452
O	0.907914	0.893588	-1.51439
H	1.49907	-0.556336	0.0280332
H	-1.35246	-0.298101	0.234474
C	-0.44298	1.12472	1.60531
H	0.527808	1.64922	1.7338
H	-1.25373	1.878	1.52931
H	-0.625042	0.508937	2.51307
N	-1.10992	1.86424	-1.29662
C	-0.955382	2.67332	-2.48308
H	-1.95623	1.94678	-0.780843
H	-1.85667	3.30359	-2.64942
H	-0.807046	2.03007	-3.38058
H	-0.0707906	3.34399	-2.389
C	524.668	1.79465	-2.47172
C	523.683	1.69887	-1.37132
O	523.173	2.70086	-0.889329
H	524.837	2.86469	-2.72133
H	524.287	1.27112	-3.37355
H	525.633	1.34123	-2.1617
N	523.391	0.469053	-0.941637
C	522.483	0.218367	0.150214
C	522.896	-1.07849	0.820352
O	523.753	-1.80241	0.316943
H	523.845	-0.334338	-1.31622
H	522.582	1.0072	0.88542
C	521.026	0.127413	-0.353359
H	520.921	-0.688603	-1.09984
H	520.316	-0.0516194	0.479927
H	520.748	1.08412	-0.847055
N	522.298	-1.39904	1.98445
C	522.63	-2.61054	2.69696
H	521.61	-0.79854	2.37818
H	522.032	-2.69469	3.63067
H	523.71	-2.62111	2.97085
H	522.425	-3.50609	2.06683
