44
  This energy is 0.1676 and Call times are: 177059
C	3.21479	1.11806	0.726479
C	1.76722	1.0308	1.02326
O	1.3166	1.41226	2.09463
H	3.74512	1.54304	1.60626
H	3.38669	1.77772	-0.1499
H	3.62348	0.107626	0.514129
N	0.994811	0.515248	0.064109
C	-0.425722	0.326688	0.222508
C	-0.847317	-0.843369	-0.646272
O	-0.0634377	-1.34646	-1.44886
H	1.38176	0.171352	-0.786698
H	-0.638119	0.0585707	1.24995
C	-1.19938	1.60283	-0.175197
H	-0.990049	1.87234	-1.23235
H	-2.29349	1.47495	-0.0444349
H	-0.869145	2.44761	0.467941
N	-2.10238	-1.31143	-0.498727
C	-2.59035	-2.42506	-1.2784
H	-2.72072	-0.893854	0.158813
H	-3.64439	-2.6599	-1.01181
H	-1.97186	-3.33352	-1.09553
H	-2.54744	-2.19158	-2.36688
C	991.936	-2.17908	0.0165174
C	992.7	-1.0537	-0.567217
O	992.426	-0.607909	-1.67273
H	991.155	-2.50545	-0.703965
H	991.445	-1.85956	0.95936
H	992.613	-3.03435	0.224335
N	993.696	-0.563545	0.175602
C	994.555	0.502454	-0.27567
C	995.905	0.338011	0.396176
O	996.065	-0.485076	1.29543
H	993.933	-0.963782	1.05601
H	994.712	0.407237	-1.34287
C	993.947	1.88153	0.0613529
H	993.795	1.98379	1.15709
H	994.593	2.71075	-0.293397
H	992.956	1.97667	-0.43411
N	996.917	1.1176	-0.0340062
C	998.238	1.02759	0.542136
H	996.769	1.77489	-0.765581
H	998.93	1.74904	0.0540992
H	998.654	0.00187215	0.413574
H	998.208	1.25356	1.63262
