44
  This energy is 0 and Call times are: 163805
C	1.14275	-1.16946	-3.07232
C	1.27181	-0.306663	-1.87647
O	2.30743	0.301221	-1.64329
H	2.09945	-1.15805	-3.63844
H	0.331407	-0.792963	-3.73012
H	0.917461	-2.21349	-2.76844
N	0.204222	-0.235556	-1.07798
C	0.192983	0.528519	0.144565
C	-0.784893	-0.12578	1.10227
O	-1.52418	-1.03299	0.725252
H	-0.6174	-0.768395	-1.25933
H	1.17291	0.483179	0.603178
C	-0.211608	1.99447	-0.124761
H	-1.22127	2.0421	-0.585578
H	-0.210543	2.59655	0.806915
H	0.513033	2.45081	-0.833985
N	-0.805143	0.317297	2.37479
C	-1.69862	-0.249007	3.35824
H	-0.196504	1.0495	2.66204
H	-1.56471	0.248575	4.34399
H	-1.50256	-1.33828	3.48599
H	-2.75991	-0.123853	3.04338
C	454.392	3.16484	0.397936
C	453.792	1.92689	0.944507
O	453.812	1.69031	2.14453
H	454.833	3.75701	1.22886
H	453.615	3.77668	-0.106021
H	455.193	2.91336	-0.328972
N	453.238	1.09495	0.0594132
C	452.653	-0.168208	0.43487
C	452.778	-1.11589	-0.743249
O	453.157	-0.710409	-1.84033
H	453.266	1.28181	-0.918416
H	453.22	-0.594864	1.25331
C	451.172	0.00686376	0.834717
H	450.588	0.434735	-0.00814426
H	450.714	-0.956586	1.13922
H	451.104	0.710244	1.69321
N	452.467	-2.41123	-0.539289
C	452.561	-3.38706	-1.60003
H	452.166	-2.72113	0.356515
H	452.264	-4.39478	-1.23467
H	453.604	-3.44796	-1.98686
H	451.894	-3.1107	-2.44832
