44
  This energy is -2.8803 and Call times are: 176808
C	0.930487	-1.25364	-3.11051
C	0.569509	-0.134522	-2.21139
O	0.722558	1.02913	-2.55621
H	1.34471	-0.844834	-4.05771
H	0.0315656	-1.86191	-3.34436
H	1.69776	-1.89749	-2.6311
N	0.0757467	-0.468581	-1.01683
C	-0.280622	0.508324	-0.0182173
C	-0.112513	-0.129074	1.34817
O	0.110446	-1.33318	1.45829
H	-0.00465888	-1.42037	-0.734875
H	0.408322	1.34203	-0.0722101
C	-1.73381	0.993045	-0.214509
H	-2.44191	0.139644	-0.148703
H	-2.01568	1.75584	0.539949
H	-1.83559	1.44857	-1.22371
N	-0.207961	0.671814	2.42775
C	-0.0565611	0.15511	3.768
H	-0.384717	1.64436	2.31831
H	-0.168465	0.968749	4.51813
H	0.948612	-0.307051	3.89957
H	-0.824846	-0.623831	3.97807
C	994.791	2.48806	-2.19989
C	994.718	1.89149	-0.847113
O	995.41	2.31387	0.0688352
H	995.546	3.3035	-2.20174
H	993.804	2.91123	-2.4848
H	995.091	1.71842	-2.94197
N	993.865	0.876778	-0.69089
C	993.715	0.167311	0.555196
C	993.28	-1.25209	0.24201
O	992.958	-1.57471	-0.89992
H	993.338	0.517505	-1.45604
H	994.676	0.108546	1.05068
C	992.678	0.862695	1.4647
H	991.689	0.913812	0.961021
H	992.564	0.333673	2.43299
H	993.013	1.90221	1.67425
N	993.269	-2.14058	1.25516
C	992.876	-3.51514	1.05086
H	993.537	-1.8617	2.17146
H	992.933	-4.0864	2.00354
H	993.542	-4.00796	0.306062
H	991.83	-3.57212	0.670032
