44
  This energy is 0 and Call times are: 158149
C	-0.307994	-0.761435	3.38202
C	0.262907	-1.00476	2.03814
O	1.20253	-1.77168	1.87895
H	0.258874	-1.35188	4.13429
H	-1.37295	-1.07438	3.40781
H	-0.233185	0.315978	3.64023
N	-0.3013	-0.343229	1.02501
C	0.171819	-0.443807	-0.333149
C	-0.149894	0.857436	-1.04366
O	-0.861887	1.70654	-0.510926
H	-1.03883	0.308776	1.17601
H	1.24935	-0.55123	-0.329036
C	-0.488465	-1.63552	-1.06054
H	-1.59328	-1.52051	-1.07427
H	-0.121935	-1.73198	-2.10307
H	-0.246341	-2.5759	-0.518877
N	0.378335	1.04815	-2.26866
C	0.131658	2.25789	-3.01823
H	0.955389	0.351257	-2.68148
H	0.652523	2.225	-4.0005
H	0.496831	3.14871	-2.45756
H	-0.958905	2.38989	-3.20367
C	50.4325	1.35917	-2.86589
C	50.4675	0.454381	-1.69487
O	51.337	-0.39831	-1.57955
H	51.2699	1.10512	-3.55149
H	50.5439	2.41404	-2.53792
H	49.4728	1.24144	-3.41186
N	49.5039	0.622244	-0.786187
C	49.3813	-0.209845	0.384771
C	47.9175	-0.256826	0.780416
O	47.0946	0.478554	0.238296
H	48.7794	1.29344	-0.914248
H	49.6813	-1.2206	0.137763
C	50.2385	0.341142	1.54534
H	49.9241	1.37419	1.80615
H	50.1634	-0.298599	2.44845
H	51.3044	0.374115	1.23076
N	47.5559	-1.13553	1.73602
C	46.1846	-1.25483	2.17345
H	48.2354	-1.72506	2.16011
H	46.0903	-2.03095	2.96464
H	45.5242	-1.53976	1.32253
H	45.818	-0.287036	2.58589
