44
  This energy is 0 and Call times are: 162993
C	2.37316	2.49076	0.526232
C	1.23104	1.6631	0.975342
O	0.875915	1.65626	2.14592
H	2.80128	3.03037	1.39883
H	2.03464	3.23448	-0.225445
H	3.16038	1.8469	0.0803431
N	0.622367	0.932986	0.0378887
C	-0.475985	0.0458916	0.329858
C	-0.455714	-1.08183	-0.684731
O	0.29626	-1.04114	-1.65663
H	0.948762	0.917674	-0.902908
H	-0.327729	-0.39663	1.30701
C	-1.8231	0.799237	0.27525
H	-1.98054	1.24449	-0.730233
H	-2.67555	0.130019	0.511916
H	-1.81242	1.62471	1.02012
N	-1.28184	-2.12581	-0.475804
C	-1.3276	-3.24726	-1.38489
H	-1.87998	-2.14259	0.318557
H	-2.06809	-4.00253	-1.04073
H	-0.330335	-3.73944	-1.45198
H	-1.61699	-2.91279	-2.4074
C	395.289	-0.290726	3.45612
C	395.185	0.517681	2.2205
O	394.986	1.72371	2.26804
H	395.142	0.368049	4.3395
H	396.292	-0.761773	3.52168
H	394.509	-1.08078	3.46353
N	395.317	-0.141503	1.0671
C	395.197	0.501186	-0.217856
C	394.697	-0.526347	-1.21579
O	394.624	-1.71546	-0.911981
H	395.438	-1.12978	1.04369
H	394.45	1.28274	-0.157975
C	396.554	1.08252	-0.672783
H	397.318	0.27943	-0.744539
H	396.471	1.59216	-1.65462
H	396.904	1.82599	0.0761148
N	394.332	-0.0866044	-2.43607
C	393.839	-0.990605	-3.44894
H	394.395	0.879904	-2.66189
H	393.591	-0.438309	-4.38217
H	392.92	-1.51225	-3.09613
H	394.603	-1.76397	-3.69128
