44
  This energy is 0 and Call times are: 167473
C	-1.4548	3.14592	-0.315374
C	-1.53723	1.69347	-0.0419608
O	-2.55119	1.19396	0.425778
H	-2.40898	3.63092	-0.0150603
H	-1.28728	3.32252	-1.39865
H	-0.623448	3.5981	0.265556
N	-0.451304	0.972631	-0.330987
C	-0.36527	-0.444522	-0.0803213
C	1.09058	-0.794031	0.164391
O	1.97841	0.0338793	-0.0306819
H	0.380795	1.39987	-0.672959
H	-0.910329	-0.680891	0.825036
C	-0.922426	-1.25073	-1.27399
H	-0.356758	-1.0165	-2.20091
H	-0.874473	-2.34316	-1.08738
H	-1.98628	-0.973104	-1.43978
N	1.36947	-2.03533	0.608709
C	2.72535	-2.45615	0.874598
H	0.637195	-2.68998	0.764544
H	2.74732	-3.50915	1.23227
H	3.19093	-1.81125	1.65473
H	3.3467	-2.38578	-0.0474169
C	714.081	-2.83842	-1.79194
C	714.364	-2.13468	-0.520846
O	714.085	-2.63949	0.557945
H	713.593	-3.81295	-1.5715
H	715.025	-3.02587	-2.34434
H	713.399	-2.22995	-2.42244
N	714.932	-0.930998	-0.622824
C	715.229	-0.10773	0.523036
C	715.175	1.34479	0.0884298
O	715.075	1.64325	-1.10012
H	715.116	-0.515856	-1.50928
H	714.46	-0.248774	1.27259
C	716.619	-0.448511	1.10248
H	717.409	-0.293881	0.337073
H	716.853	0.169163	1.99368
H	716.638	-1.5179	1.40642
N	715.232	2.28757	1.04964
C	715.182	3.69554	0.731358
H	715.309	2.02643	2.0062
H	715.242	4.31021	1.65647
H	714.233	3.94588	0.205051
H	716.03	3.97852	0.0666763
