44
  This energy is -4.1741 and Call times are: 179961
C	-1.1528	3.03108	-1.26344
C	-0.402152	2.23616	-0.265551
O	0.334385	2.77531	0.548849
H	-0.908874	4.10794	-1.13393
H	-2.24497	2.89042	-1.12161
H	-0.870616	2.7198	-2.29133
N	-0.574169	0.912979	-0.309901
C	0.121329	0.00524889	0.568089
C	0.275054	-1.32243	-0.149675
O	-0.299937	-1.53215	-1.21603
H	-1.14529	0.485681	-1.00496
H	1.11697	0.385719	0.759341
C	-0.650761	-0.18146	1.89257
H	-1.66853	-0.581718	1.6977
H	-0.118397	-0.867528	2.58281
H	-0.758343	0.803754	2.39668
N	1.06731	-2.25254	0.418874
C	1.27774	-3.54327	-0.194252
H	1.52743	-2.06284	1.27991
H	1.96005	-4.16628	0.425043
H	1.72964	-3.42847	-1.20612
H	0.311904	-4.08693	-0.307169
C	996.886	-0.928612	-2.87011
C	995.644	-0.839677	-2.06975
O	994.553	-1.08637	-2.56482
H	996.631	-1.21885	-3.91255
H	997.564	-1.69455	-2.4395
H	997.402	0.0546395	-2.88671
N	995.785	-0.47647	-0.792867
C	994.666	-0.304917	0.0989227
C	995.046	0.727763	1.14303
O	996.202	1.13932	1.2297
H	996.676	-0.239221	-0.415192
H	993.825	0.0921898	-0.455848
C	994.287	-1.64205	0.772719
H	995.146	-2.04459	1.35063
H	993.417	-1.52594	1.45136
H	994.02	-2.38487	-0.0103227
N	994.074	1.17902	1.9598
C	994.341	2.16596	2.97992
H	993.144	0.837091	1.87166
H	993.415	2.40717	3.54619
H	994.729	3.10623	2.52482
H	995.105	1.7907	3.69945
