44
  This energy is 0 and Call times are: 159017
C	-1.67354	-2.87955	1.01
C	-1.64022	-1.43244	0.70032
O	-2.67154	-0.781285	0.606524
H	-2.73048	-3.20993	1.10806
H	-1.14464	-3.07868	1.9657
H	-1.19088	-3.45686	0.193402
N	-0.432443	-0.889723	0.529741
C	-0.241209	0.496242	0.181759
C	1.05493	0.613664	-0.597858
O	1.82211	-0.342523	-0.691935
H	0.395901	-1.44125	0.568833
H	-1.04213	0.813628	-0.474302
C	-0.194367	1.38123	1.44661
H	0.633759	1.06276	2.11505
H	-0.0613575	2.4525	1.19122
H	-1.14954	1.27345	2.00551
N	1.32608	1.79554	-1.1858
C	2.53294	1.99899	-1.95279
H	0.691093	2.55634	-1.10183
H	2.57312	3.03513	-2.35529
H	2.57836	1.2882	-2.80952
H	3.43406	1.83367	-1.31891
C	109.709	-2.91348	1.3993
C	109.798	-1.92217	0.30357
O	109.294	-2.14051	-0.789728
H	109.16	-3.81062	1.0395
H	109.163	-2.48067	2.26379
H	110.727	-3.22008	1.72101
N	110.453	-0.791973	0.57729
C	110.659	0.247678	-0.400094
C	111.943	0.977617	-0.0509707
O	112.523	0.758687	1.01069
H	110.893	-0.646136	1.45896
H	110.799	-0.201545	-1.37547
C	109.467	1.22892	-0.421356
H	109.33	1.69797	0.576274
H	109.607	2.02629	-1.17967
H	108.538	0.671796	-0.67105
N	112.422	1.86229	-0.947166
C	113.64	2.59987	-0.703748
H	111.941	2.02287	-1.80248
H	113.868	3.27571	-1.55734
H	114.5	1.90457	-0.56817
H	113.548	3.21824	0.218299
