44
  This energy is 0 and Call times are: 170077
C	-0.859801	3.34728	0.411256
C	-0.248044	2.08978	0.896636
O	0.442508	2.07028	1.90617
H	-0.567117	4.18196	1.0847
H	-1.96653	3.25851	0.409038
H	-0.505263	3.57354	-0.61646
N	-0.490945	0.994003	0.173695
C	0.0702188	-0.294348	0.495886
C	0.211094	-1.08426	-0.791652
O	-0.277449	-0.670175	-1.84121
H	-1.02126	1.03335	-0.668375
H	1.06496	-0.159277	0.901934
C	-0.826479	-1.05115	1.50009
H	-1.84404	-1.19926	1.07976
H	-0.398064	-2.03901	1.76678
H	-0.922018	-0.45119	2.43136
N	0.89482	-2.24446	-0.74181
C	1.08485	-3.06098	-1.91797
H	1.28632	-2.56095	0.115879
H	1.67231	-3.97311	-1.67276
H	1.63114	-2.49359	-2.70595
H	0.1034	-3.37842	-2.33884
C	900.095	2.30364	-2.447
C	901.109	1.6174	-1.61398
O	902.304	1.73194	-1.84828
H	900.607	2.86856	-3.25636
H	899.509	3.01453	-1.82796
H	899.41	1.56021	-2.90563
N	900.644	0.874296	-0.606771
C	901.505	0.113086	0.263722
C	900.726	-1.08655	0.76886
O	899.519	-1.1874	0.558451
H	899.667	0.757936	-0.453736
H	902.345	-0.264506	-0.305769
C	901.997	0.97644	1.44619
H	901.136	1.35539	2.03693
H	902.672	0.405561	2.11625
H	902.557	1.85245	1.05288
N	901.405	-2.03406	1.44463
C	900.749	-3.2135	1.95839
H	902.382	-1.93672	1.60138
H	901.476	-3.87152	2.48299
H	900.283	-3.79584	1.13057
H	899.946	-2.93419	2.67829
