44
  This energy is 0 and Call times are: 170301
C	1.2117	1.85967	-2.68068
C	0.111427	1.19273	-1.94876
O	-1.05754	1.37517	-2.25962
H	0.783822	2.50769	-3.47622
H	1.87282	1.10193	-3.15131
H	1.8071	2.48905	-1.98608
N	0.468183	0.392891	-0.941106
C	-0.490878	-0.290703	-0.109565
C	0.129008	-0.491341	1.26049
O	1.31741	-0.244247	1.45635
H	1.42169	0.286477	-0.673972
H	-1.36333	0.337525	0.0199968
C	-0.888498	-1.64883	-0.728138
H	0.00468112	-2.29771	-0.85151
H	-1.63703	-2.17872	-0.104088
H	-1.33243	-1.47841	-1.73324
N	-0.670049	-0.939465	2.24878
C	-0.169541	-1.1551	3.58638
H	-1.63001	-1.12992	2.07192
H	-0.978784	-1.52412	4.25434
H	0.232172	-0.207512	4.01296
H	0.652152	-1.9074	3.58206
C	914.329	2.22861	-0.102046
C	915.762	1.90373	-0.276766
O	916.525	2.68304	-0.831244
H	914.119	3.22187	-0.555305
H	914.074	2.26538	0.977892
H	913.699	1.46434	-0.604628
N	916.166	0.723405	0.199233
C	917.521	0.249304	0.0657483
C	917.49	-1.26714	0.033392
O	916.454	-1.88155	0.27816
H	915.525	0.0823115	0.611566
H	917.924	0.58409	-0.881564
C	918.397	0.748411	1.23506
H	917.989	0.396397	2.20648
H	919.446	0.401464	1.13639
H	918.399	1.86028	1.24418
N	918.633	-1.90899	-0.280129
C	918.698	-3.3506	-0.340866
H	919.46	-1.39441	-0.479064
H	919.722	-3.68689	-0.614941
H	917.985	-3.74428	-1.10088
H	918.434	-3.79784	0.644714
