44
  This energy is -3.5134 and Call times are: 184729
C	1.07284	1.89632	2.71398
C	0.81333	0.597603	2.05281
O	1.2223	-0.450298	2.5335
H	1.67356	1.72659	3.63388
H	0.11427	2.38096	2.99507
H	1.63961	2.56586	2.03312
N	0.117265	0.639876	0.914356
C	-0.17686	-0.536685	0.134771
C	-0.306315	-0.120967	-1.31849
O	-0.326366	1.06714	-1.63428
H	-0.173607	1.50429	0.514291
H	0.655801	-1.22591	0.200174
C	-1.47769	-1.21102	0.623004
H	-2.33418	-0.507768	0.546209
H	-1.70762	-2.12602	0.0395524
H	-1.36309	-1.49959	1.69068
N	-0.389229	-1.09769	-2.24324
C	-0.509245	-0.797591	-3.65098
H	-0.367166	-2.0533	-1.96867
H	-0.563607	-1.73364	-4.24938
H	0.367562	-0.207108	-4.00285
H	-1.42906	-0.200922	-3.84864
C	995.895	-0.229258	3.18029
C	994.975	0.394157	2.20272
O	994.119	1.19289	2.5588
H	995.649	0.135954	4.20103
H	996.945	0.0430325	2.94471
H	995.786	-1.33409	3.1579
N	995.132	0.0343593	0.926701
C	994.285	0.522981	-0.132459
C	994.234	-0.531083	-1.22242
O	994.978	-1.50957	-1.18695
H	995.806	-0.647919	0.657844
H	993.277	0.645731	0.244187
C	994.819	1.85842	-0.694846
H	995.849	1.73058	-1.09096
H	994.167	2.25202	-1.50176
H	994.855	2.61241	0.121592
N	993.344	-0.358354	-2.21877
C	993.22	-1.31217	-3.29637
H	992.748	0.437711	-2.22799
H	992.434	-0.993555	-4.01562
H	992.948	-2.3177	-2.90165
H	994.183	-1.40762	-3.84875
