44
  This energy is 0 and Call times are: 162069
C	0.306174	-2.9602	1.80449
C	0.369301	-2.19174	0.540912
O	0.861531	-2.67444	-0.469591
H	0.772814	-3.95756	1.65151
H	-0.750678	-3.10158	2.11403
H	0.857414	-2.42468	2.60601
N	-0.134813	-0.955907	0.572107
C	-0.106449	-0.0720171	-0.56653
C	-0.0694626	1.35607	-0.0558992
O	-0.23187	1.60254	1.13766
H	-0.495018	-0.562124	1.41297
H	0.806037	-0.238506	-1.12535
C	-1.34123	-0.293119	-1.46746
H	-2.2774	-0.112175	-0.897468
H	-1.32396	0.372022	-2.35505
H	-1.35216	-1.34657	-1.82308
N	0.155168	2.33555	-0.953785
C	0.212903	3.72382	-0.559403
H	0.28831	2.11605	-1.9146
H	0.406952	4.37506	-1.44
H	1.02672	3.88753	0.183678
H	-0.74844	4.0405	-0.0939157
C	327.009	2.55841	-1.26547
C	327.419	1.64339	-0.176553
O	327.016	1.80113	0.967914
H	326.342	3.34618	-0.851812
H	326.458	1.99747	-2.0498
H	327.901	3.04248	-1.71502
N	328.245	0.65069	-0.515061
C	328.764	-0.293554	0.442466
C	330.114	-0.776128	-0.0539488
O	330.51	-0.489123	-1.18219
H	328.596	0.559593	-1.44256
H	328.929	0.209606	1.38709
C	327.797	-1.48383	0.624311
H	327.636	-2.00677	-0.342455
H	328.18	-2.21109	1.36952
H	326.814	-1.1065	0.980322
N	330.861	-1.51883	0.78701
C	332.161	-2.01759	0.403716
H	330.525	-1.73723	1.69749
H	332.616	-2.60539	1.23103
H	332.846	-1.17572	0.153436
H	332.081	-2.67569	-0.491649
