44
  This energy is 0 and Call times are: 170021
C	1.84191	-2.14129	2.03345
C	0.580364	-1.46289	1.66006
O	-0.485667	-1.78576	2.16577
H	1.62461	-2.93594	2.77991
H	2.55056	-1.41264	2.48023
H	2.30579	-2.60642	1.13815
N	0.675852	-0.492181	0.748479
C	-0.469836	0.229385	0.253201
C	-0.165619	0.686789	-1.16094
O	0.964542	0.57066	-1.63101
H	1.54456	-0.268511	0.315833
H	-1.31854	-0.441055	0.199818
C	-0.792024	1.44005	1.15638
H	0.0745927	2.13347	1.20303
H	-1.68074	1.99582	0.793299
H	-1.00351	1.0825	2.18777
N	-1.17709	1.21346	-1.87897
C	-0.983208	1.67091	-3.23519
H	-2.0856	1.29542	-1.48279
H	-1.93274	2.06997	-3.65515
H	-0.636047	0.835625	-3.88561
H	-0.216647	2.47849	-3.27181
C	897.098	-2.83869	2.01119
C	896.827	-2.16367	0.722045
O	896.612	-2.80661	-0.296151
H	897.084	-3.93987	1.85939
H	896.321	-2.56824	2.75592
H	898.097	-2.54214	2.3957
N	896.834	-0.828726	0.738175
C	896.629	-0.0324137	-0.446112
C	897.366	1.28165	-0.265612
O	897.859	1.58339	0.819541
H	897.051	-0.31963	1.56611
H	897.072	-0.536181	-1.29626
C	895.125	0.2188	-0.688765
H	894.672	0.744993	0.178659
H	894.953	0.819258	-1.60559
H	894.605	-0.756482	-0.810059
N	897.465	2.09501	-1.3355
C	898.152	3.36318	-1.2599
H	897.063	1.83168	-2.20625
H	898.125	3.88423	-2.24226
H	899.218	3.21581	-0.970453
H	897.676	4.02351	-0.49938
