44
  This energy is 0 and Call times are: 171001
C	0.320419	-3.25855	1.17978
C	0.235145	-2.27406	0.0776665
O	0.487822	-2.59215	-1.07619
H	0.64855	-4.2392	0.771702
H	-0.673176	-3.38317	1.65934
H	1.05716	-2.92048	1.93874
N	-0.127133	-1.03443	0.41597
C	-0.212444	0.0422558	-0.539033
C	0.0598318	1.34425	0.190507
O	0.138579	1.3743	1.41713
H	-0.289852	-0.780822	1.36522
H	0.564161	-0.0786066	-1.28395
C	-1.60396	0.0772407	-1.20814
H	-2.40028	0.211795	-0.445381
H	-1.67762	0.893472	-1.95571
H	-1.78505	-0.888232	-1.72912
N	0.219223	2.45643	-0.553594
C	0.487047	3.73967	0.0528293
H	0.156042	2.41141	-1.54508
H	0.586237	4.52898	-0.72458
H	1.4326	3.7064	0.641136
H	-0.338746	4.02845	0.742622
C	970.379	0.164382	-0.816084
C	969.005	0.714692	-0.837041
O	968.787	1.85929	-1.20967
H	971.093	0.945012	-1.15858
H	970.451	-0.711128	-1.49509
H	970.652	-0.14438	0.215072
N	968.032	-0.102732	-0.427757
C	966.651	0.303999	-0.351363
C	965.98	-0.504834	0.742484
O	966.561	-1.44834	1.27508
H	968.23	-1.01799	-0.088627
H	966.601	1.34554	-0.0592843
C	965.936	0.0855794	-1.70277
H	965.978	-0.984601	-1.99774
H	964.876	0.407915	-1.66084
H	966.449	0.680514	-2.48972
N	964.734	-0.145866	1.11045
C	964.018	-0.853649	2.14631
H	964.282	0.622961	0.670705
H	963.012	-0.407761	2.30372
H	964.576	-0.80894	3.10981
H	963.888	-1.92559	1.87211
