44
  This energy is 0 and Call times are: 159773
C	-2.12345	-0.0886071	2.75605
C	-1.86664	0.134389	1.3154
O	-2.78766	0.268784	0.521631
H	-3.22052	-0.122504	2.93262
H	-1.68847	0.738976	3.35491
H	-1.67745	-1.05274	3.07951
N	-0.586002	0.176878	0.940508
C	-0.179438	0.3437	-0.432604
C	1.16621	-0.333232	-0.613023
O	1.79482	-0.753475	0.356494
H	0.151975	0.0249381	1.59179
H	-0.885082	-0.164019	-1.0783
C	-0.08664	1.84028	-0.802557
H	0.644955	2.35942	-0.147348
H	0.21214	1.98181	-1.86144
H	-1.08034	2.317	-0.655408
N	1.63779	-0.462418	-1.86879
C	2.90662	-1.09782	-2.13811
H	1.11279	-0.119728	-2.64081
H	3.11786	-1.10706	-3.23013
H	2.90424	-2.15031	-1.77268
H	3.73413	-0.55619	-1.62527
C	162.198	-2.06177	-0.0917484
C	163.625	-1.79006	-0.372493
O	164.381	-2.68251	-0.732129
H	161.993	-3.14356	-0.245115
H	161.554	-1.47304	-0.778499
H	161.957	-1.79584	0.959167
N	164.033	-0.529246	-0.209086
C	165.402	-0.119675	-0.402359
C	165.668	1.07568	0.492879
O	164.75	1.63082	1.09274
H	163.416	0.177934	0.123616
H	166.061	-0.916293	-0.0820573
C	165.666	0.241154	-1.88058
H	164.997	1.06552	-2.20663
H	166.72	0.544874	-2.04494
H	165.457	-0.645603	-2.51791
N	166.943	1.49648	0.610517
C	167.294	2.62263	1.44431
H	167.673	1.03189	0.120496
H	168.389	2.81209	1.40931
H	167.005	2.43226	2.50331
H	166.767	3.54326	1.10293
