44
  This energy is 0 and Call times are: 162797
C	2.228	0.391057	2.64495
C	1.37013	0.941287	1.57143
O	1.13077	2.13901	1.50379
H	2.5542	1.21682	3.31397
H	3.12625	-0.0926855	2.2069
H	1.66196	-0.353797	3.24318
N	0.878671	0.0620279	0.695218
C	-0.00587071	0.440704	-0.378443
C	-0.894307	-0.746179	-0.700227
O	-0.679462	-1.84798	-0.198648
H	1.0491	-0.914872	0.78735
H	-0.64992	1.24445	-0.0440461
C	0.794751	0.871958	-1.62675
H	1.44781	0.0441638	-1.97648
H	0.124945	1.17915	-2.45591
H	1.4436	1.73646	-1.366
N	-1.92535	-0.544794	-1.54427
C	-2.82728	-1.61389	-1.90445
H	-2.08551	0.354835	-1.93682
H	-3.60823	-1.24944	-2.60767
H	-3.33333	-2.02238	-0.999836
H	-2.27363	-2.44644	-2.39586
C	378.538	-0.791839	-2.32874
C	379.904	-0.934804	-1.77685
O	380.652	-1.82269	-2.16152
H	378.357	-1.59582	-3.07496
H	378.428	0.193555	-2.82846
H	377.786	-0.879888	-1.51647
N	380.263	-0.049	-0.84481
C	381.544	-0.0864311	-0.184415
C	381.38	0.513055	1.19957
O	380.336	1.07461	1.52313
H	379.628	0.64281	-0.512576
H	381.849	-1.11731	-0.0553609
C	382.604	0.695356	-0.991307
H	382.296	1.75555	-1.11494
H	383.598	0.662314	-0.500132
H	382.701	0.244304	-2.00295
N	382.414	0.399196	2.05653
C	382.348	0.934129	3.39652
H	383.25	-0.0622605	1.7778
H	383.295	0.73965	3.94513
H	381.511	0.466469	3.96506
H	382.176	2.03459	3.37235
