44
  This energy is -3.203 and Call times are: 176167
C	-0.989253	-0.960913	-3.19542
C	-0.450833	0.0355386	-2.24236
O	0.0436733	1.08352	-2.63429
H	-0.841931	-0.59277	-4.234
H	-2.07484	-1.11219	-3.01836
H	-0.457457	-1.92869	-3.07838
N	-0.534793	-0.276483	-0.946991
C	-0.0156198	0.572722	0.0960185
C	0.374609	-0.305056	1.27023
O	0.0778549	-1.49805	1.29072
H	-0.902843	-1.15141	-0.645482
H	0.885078	1.06034	-0.25555
C	-1.06509	1.62014	0.528193
H	-1.98533	1.12032	0.898833
H	-0.672431	2.28903	1.32124
H	-1.34168	2.24583	-0.348369
N	1.06143	0.267952	2.27819
C	1.48014	-0.48987	3.43429
H	1.29588	1.23375	2.24166
H	2.0315	0.15818	4.1507
H	2.14954	-1.32802	3.13315
H	0.598979	-0.923657	3.96014
C	994.912	-3.01457	1.73568
C	995.539	-1.97348	0.890297
O	996.744	-1.9662	0.684649
H	995.699	-3.70149	2.1161
H	994.18	-3.60074	1.14133
H	994.395	-2.54607	2.59989
N	994.719	-1.05443	0.375203
C	995.186	0.0450796	-0.431563
C	994.225	1.2053	-0.252698
O	993.164	1.05669	0.349567
H	993.745	-1.04985	0.585021
H	996.154	0.368572	-0.068184
C	995.274	-0.360561	-1.91915
H	994.28	-0.6825	-2.29529
H	995.647	0.473399	-2.54885
H	995.977	-1.21604	-2.02525
N	994.582	2.39802	-0.768523
C	993.734	3.56029	-0.642639
H	995.447	2.4996	-1.24896
H	994.202	4.44332	-1.13114
H	993.559	3.80483	0.430217
H	992.744	3.37827	-1.12067
