44
  This energy is 0 and Call times are: 164197
C	2.62953	1.91744	1.23357
C	1.25868	1.36789	1.33314
O	0.614325	1.45794	2.36905
H	2.91807	2.3639	2.20994
H	2.67023	2.70516	0.45216
H	3.34834	1.10946	0.98144
N	0.776407	0.774171	0.238938
C	-0.524639	0.154507	0.195846
C	-0.481095	-0.966321	-0.825625
O	0.491177	-1.10724	-1.56491
H	1.32831	0.672508	-0.583824
H	-0.738733	-0.294012	1.15794
C	-1.61404	1.18411	-0.176142
H	-1.40051	1.63686	-1.16784
H	-2.62229	0.722136	-0.199053
H	-1.6225	1.99897	0.580346
N	-1.53816	-1.80009	-0.884471
C	-1.58319	-2.89862	-1.82117
H	-2.31379	-1.67246	-0.275231
H	-2.53316	-3.46738	-1.71488
H	-0.734195	-3.59865	-1.64667
H	-1.51312	-2.52527	-2.86847
C	481.948	-0.607076	3.29311
C	482.268	-0.311957	1.87819
O	483.397	0.0132619	1.53881
H	482.86	-0.463625	3.91309
H	481.605	-1.65781	3.39677
H	481.155	0.0787064	3.65724
N	481.261	-0.418752	1.00776
C	481.408	-0.122109	-0.395505
C	480.064	0.344038	-0.922985
O	479.052	0.261385	-0.229412
H	480.338	-0.644676	1.30531
H	482.104	0.698407	-0.516489
C	481.894	-1.36412	-1.1742
H	481.174	-2.20286	-1.05902
H	482.023	-1.14471	-2.2538
H	482.875	-1.69243	-0.766151
N	480.025	0.856184	-2.16885
C	478.791	1.33029	-2.75276
H	480.854	0.918627	-2.7132
H	478.966	1.71399	-3.78214
H	478.358	2.15402	-2.14042
H	478.041	0.508818	-2.80699
