44
  This energy is 0 and Call times are: 160781
C	-3.41615	0.256348	-0.613906
C	-2.02658	0.0105138	-1.06091
O	-1.79018	-0.447276	-2.17039
H	-4.12033	-0.0527083	-1.41671
H	-3.56456	1.33602	-0.40172
H	-3.63366	-0.333373	0.301525
N	-1.06082	0.312697	-0.190069
C	0.336628	0.0888695	-0.465035
C	1.04602	-0.14977	0.854575
O	0.465056	0.0292373	1.92329
H	-1.27082	0.646184	0.724565
H	0.444517	-0.811631	-1.05672
C	0.954594	1.29781	-1.20112
H	0.853566	2.21991	-0.589917
H	2.02708	1.1319	-1.43082
H	0.414942	1.45874	-2.15988
N	2.32543	-0.570621	0.809535
C	3.07901	-0.829043	2.01432
H	2.77721	-0.713739	-0.0648113
H	4.10992	-1.16672	1.76852
H	2.58652	-1.62143	2.62329
H	3.15066	0.0912244	2.63811
C	234.759	0.426738	2.62834
C	236.072	0.657833	1.98445
O	236.857	1.48489	2.42693
H	234.65	1.11182	3.49709
H	234.688	-0.621811	2.9864
H	233.938	0.627589	1.90752
N	236.341	-0.0798557	0.904832
C	237.559	0.062138	0.146136
C	237.269	-0.329711	-1.2906
O	236.196	-0.844831	-1.59892
H	235.675	-0.719854	0.532605
H	237.858	1.1028	0.142594
C	238.681	-0.822173	0.733014
H	238.378	-1.89106	0.727146
H	239.628	-0.711145	0.165829
H	238.87	-0.523182	1.78707
N	238.224	-0.0850152	-2.2099
C	238.035	-0.418795	-3.60247
H	239.084	0.336253	-1.94187
H	238.932	-0.139979	-4.19854
H	237.155	0.121409	-4.0202
H	237.859	-1.51208	-3.72426
