44
  This energy is 0 and Call times are: 157701
C	1.43854	-2.15932	2.31962
C	0.323729	-1.30641	1.84964
O	-0.773084	-1.34367	2.39004
H	1.08854	-2.78677	3.16796
H	2.28428	-1.52804	2.66451
H	1.78391	-2.82383	1.49972
N	0.584564	-0.506887	0.812767
C	-0.410972	0.348758	0.216664
C	-0.0556444	0.540315	-1.24573
O	1.02011	0.143588	-1.68965
H	1.47029	-0.517635	0.357526
H	-1.37411	-0.144899	0.25261
C	-0.473233	1.71099	0.941699
H	0.511771	2.22258	0.895995
H	-1.24577	2.37378	0.500756
H	-0.726816	1.54601	2.01166
N	-0.962091	1.15008	-2.03477
C	-0.713704	1.37104	-3.44035
H	-1.82866	1.46043	-1.6582
H	-1.57741	1.88563	-3.91619
H	-0.548863	0.403185	-3.96699
H	0.193343	2.00155	-3.58484
C	19.4497	2.3359	0.809381
C	18.1779	1.63162	1.08773
O	17.6203	1.73644	2.17149
H	19.7608	2.9034	1.71329
H	19.3172	3.04665	-0.0332321
H	20.2445	1.60379	0.553598
N	17.6848	0.883581	0.097929
C	16.4787	0.105501	0.23354
C	16.581	-1.09106	-0.693464
O	17.495	-1.17782	-1.51127
H	18.1712	0.775534	-0.764364
H	16.4109	-0.274999	1.2451
C	15.234	0.952533	-0.111016
H	15.2981	1.3344	-1.15222
H	14.2978	0.368544	0.00300294
H	15.1838	1.82662	0.574389
N	15.6427	-2.05175	-0.580266
C	15.6621	-3.22944	-1.41624
H	14.9133	-1.96569	0.090221
H	14.8089	-3.89969	-1.17121
H	16.6083	-3.79913	-1.27044
H	15.5902	-2.94902	-2.49204
