44
  This energy is 0 and Call times are: 169965
C	1.23957	-3.2422	0.253526
C	0.147917	-2.28256	-0.0266885
O	-0.899225	-2.64806	-0.542748
H	0.935717	-4.25479	-0.0902937
H	1.44565	-3.27972	1.34388
H	2.16187	-2.94103	-0.286619
N	0.374172	-1.01103	0.311535
C	-0.575902	0.0442794	0.0620504
C	0.192459	1.34041	-0.114634
O	1.39735	1.39579	0.123854
H	1.24738	-0.721779	0.693245
H	-1.09325	-0.153436	-0.868484
C	-1.58322	0.166361	1.22637
H	-1.05383	0.379658	2.17942
H	-2.32858	0.966459	1.03981
H	-2.12827	-0.795813	1.34252
N	-0.490649	2.41815	-0.548086
C	0.157755	3.69277	-0.750788
H	-1.46434	2.35268	-0.739672
H	-0.571445	4.45232	-1.10937
H	0.971351	3.60376	-1.50671
H	0.60822	4.06015	0.199608
C	894.132	-3.26415	0.421343
C	893.048	-2.27686	0.215129
O	891.914	-2.63269	-0.0752022
H	893.733	-4.28794	0.252518
H	894.519	-3.19605	1.45968
H	894.96	-3.07861	-0.294752
N	893.38	-0.992054	0.361121
C	892.445	0.0850244	0.150538
C	893.225	1.30633	-0.299994
O	894.454	1.31506	-0.27144
H	894.317	-0.715978	0.557401
H	891.769	-0.180665	-0.652581
C	891.657	0.391921	1.44273
H	892.35	0.674779	2.2641
H	890.924	1.2103	1.28973
H	891.101	-0.517833	1.75829
N	892.522	2.36987	-0.737374
C	893.178	3.57418	-1.19111
H	891.528	2.34239	-0.756917
H	892.429	4.33281	-1.51053
H	893.846	3.35574	-2.05522
H	893.798	4.01439	-0.37726
