44
  This energy is 0.8309 and Call times are: 181195
C	-1.22921	-0.137453	3.25312
C	-0.224868	0.298191	2.25681
O	0.628378	1.12799	2.53932
H	-1.06468	0.41251	4.20515
H	-1.13011	-1.22646	3.44544
H	-2.25366	0.0808664	2.88444
N	-0.307792	-0.260632	1.04717
C	0.57203	0.093611	-0.0386363
C	-0.17211	-0.128122	-1.34196
O	-1.26321	-0.694718	-1.35567
H	-1.03314	-0.9042	0.820103
H	0.808109	1.14867	0.0225492
C	1.86302	-0.753264	-0.00137074
H	1.62204	-1.8352	-0.0747302
H	2.55485	-0.480245	-0.824384
H	2.38696	-0.581356	0.964176
N	0.40148	0.324486	-2.47429
C	-0.235184	0.163524	-3.76073
H	1.28284	0.784123	-2.44254
H	0.392697	0.601311	-4.56778
H	-1.22709	0.670691	-3.77429
H	-0.395935	-0.915309	-3.98749
C	997.009	-2.34756	-2.43881
C	997.347	-1.18768	-1.58347
O	998.497	-0.782988	-1.49147
H	997.936	-2.73787	-2.91157
H	996.3	-2.04105	-3.23675
H	996.55	-3.15332	-1.82736
N	996.333	-0.6198	-0.925968
C	996.512	0.489628	-0.0227929
C	995.419	0.425676	1.02727
O	994.485	-0.367012	0.917223
H	995.408	-0.98599	-0.979034
H	997.459	0.382959	0.490831
C	996.456	1.83351	-0.781781
H	995.48	1.94814	-1.30025
H	996.606	2.69498	-0.0992877
H	997.259	1.85492	-1.55017
N	995.515	1.25951	2.08153
C	994.525	1.26603	3.13291
H	996.28	1.89097	2.15509
H	994.78	2.02021	3.90945
H	994.464	0.266616	3.62155
H	993.518	1.51174	2.72333
