44
  This energy is -2.7345 and Call times are: 177795
C	2.40259	-1.42354	2.07697
C	1.4197	-1.50662	0.973263
O	1.37169	-2.48513	0.240725
H	3.03139	-2.34032	2.0786
H	1.87739	-1.34624	3.05213
H	3.05852	-0.538143	1.93942
N	0.601841	-0.46158	0.827026
C	-0.377747	-0.378189	-0.227495
C	-0.602323	1.08719	-0.549642
O	-0.120555	1.96884	0.159097
H	0.680288	0.345299	1.40552
H	0.0170872	-0.847791	-1.1198
C	-1.70293	-1.04871	0.196239
H	-2.11383	-0.560451	1.10553
H	-2.46086	-1.00329	-0.612463
H	-1.51329	-2.11804	0.434823
N	-1.33782	1.38219	-1.63962
C	-1.59971	2.74859	-2.02763
H	-1.71583	0.655047	-2.20303
H	-2.22128	2.7834	-2.94941
H	-0.646533	3.28985	-2.22703
H	-2.14141	3.28999	-1.21857
C	993.542	3.2708	-0.872473
C	994.334	2.28513	-0.102977
O	995.326	2.62388	0.527089
H	994.01	4.27425	-0.776116
H	992.505	3.31925	-0.478971
H	993.517	2.98743	-1.94585
N	993.906	1.02101	-0.140265
C	994.597	-0.0569208	0.522923
C	994.325	-1.33637	-0.245769
O	993.493	-1.36313	-1.15013
H	993.12	0.753772	-0.690784
H	995.663	0.123674	0.482136
C	994.126	-0.195	1.9875
H	993.034	-0.390766	2.0295
H	994.661	-1.0128	2.51302
H	994.327	0.755264	2.52868
N	995.033	-2.43174	0.0933637
C	994.847	-3.69254	-0.586211
H	995.705	-2.3894	0.825132
H	995.52	-4.47043	-0.163536
H	995.069	-3.58955	-1.67307
H	993.795	-4.04415	-0.480777
