44
  This energy is -4.0478 and Call times are: 181799
C	-1.80382	-2.01519	-2.19042
C	-0.820694	-1.83047	-1.09933
O	-0.403729	-2.78305	-0.455011
H	-2.0646	-3.09284	-2.27129
H	-1.37237	-1.67642	-3.15573
H	-2.72726	-1.43716	-1.97538
N	-0.424368	-0.577609	-0.863434
C	0.494802	-0.23521	0.193187
C	0.19306	1.18231	0.64169
O	-0.593723	1.88772	0.0131406
H	-0.803665	0.191914	-1.36924
H	0.32213	-0.885624	1.04158
C	1.95746	-0.350808	-0.288988
H	2.13795	0.324082	-1.15269
H	2.67522	-0.103073	0.519701
H	2.15349	-1.39414	-0.619734
N	0.81006	1.63142	1.75238
C	0.580548	2.96485	2.25782
H	1.44023	1.04442	2.24976
H	1.17839	3.14478	3.17838
H	-0.495926	3.1114	2.5048
H	0.867493	3.72783	1.49844
C	991.156	-2.03517	0.402427
C	992.419	-1.44332	0.897314
O	992.745	-1.5391	2.07239
H	990.619	-2.51639	1.24887
H	991.37	-2.80304	-0.370427
H	990.507	-1.24511	-0.0314382
N	993.169	-0.805458	-0.0045181
C	994.403	-0.14213	0.33484
C	994.608	1.00305	-0.638923
O	993.881	1.13102	-1.62241
H	992.87	-0.700588	-0.948773
H	994.317	0.287848	1.32496
C	995.593	-1.12498	0.272756
H	995.688	-1.55839	-0.745645
H	996.547	-0.629423	0.545505
H	995.418	-1.95866	0.987367
N	995.604	1.87262	-0.380853
C	995.871	2.99622	-1.24846
H	996.179	1.75481	0.422148
H	996.728	3.59315	-0.866833
H	994.98	3.66293	-1.31229
H	996.116	2.64835	-2.27801
