44
  This energy is 0 and Call times are: 164617
C	0.0259086	2.02979	-2.82701
C	0.139695	0.707855	-2.17074
O	0.153551	-0.325043	-2.82598
H	-0.0550495	1.88816	-3.92668
H	0.924809	2.64394	-2.60898
H	-0.880319	2.55987	-2.46528
N	0.222739	0.711987	-0.838272
C	0.294893	-0.497299	-0.0566206
C	-0.317468	-0.218796	1.30316
O	-0.617311	0.926125	1.63628
H	0.168914	1.55849	-0.316357
H	-0.30517	-1.26469	-0.529562
C	1.7574	-0.969955	0.0946942
H	2.37111	-0.187202	0.589365
H	1.82502	-1.90797	0.682978
H	2.18775	-1.16008	-0.912781
N	-0.526091	-1.26868	2.12185
C	-1.10906	-1.10093	3.43265
H	-0.280705	-2.18814	1.83297
H	-1.19922	-2.08078	3.95128
H	-2.12506	-0.650227	3.35591
H	-0.479662	-0.428717	4.05965
C	513.041	-0.346909	2.79743
C	512.826	-0.346804	1.33285
O	513.77	-0.366356	0.55467
H	514.133	-0.348675	3.00855
H	512.586	-1.25237	3.25092
H	512.589	0.560418	3.25058
N	511.557	-0.322022	0.919191
C	511.191	-0.275481	-0.474439
C	509.854	0.431378	-0.588579
O	509.198	0.704544	0.415034
H	510.801	-0.264928	1.56451
H	511.917	0.318831	-1.01499
C	511.104	-1.69787	-1.06987
H	510.352	-2.30471	-0.52239
H	510.837	-1.67482	-2.14611
H	512.092	-2.19906	-0.968321
N	509.42	0.753198	-1.82319
C	508.162	1.43189	-2.02926
H	509.966	0.527522	-2.62289
H	507.983	1.60832	-3.11283
H	508.157	2.41672	-1.50834
H	507.317	0.825161	-1.62862
