44
  This energy is 0.1059 and Call times are: 175231
C	-3.41608	0.155514	0.647235
C	-2.26642	0.122471	-0.284615
O	-2.43001	-0.0377723	-1.48627
H	-4.35675	-0.00045772	0.0756641
H	-3.46559	1.13948	1.15919
H	-3.318	-0.650528	1.40471
N	-1.05679	0.273837	0.259689
C	0.159287	0.221351	-0.512938
C	1.27213	-0.276672	0.389891
O	1.09341	-0.400773	1.6
H	-0.936853	0.362367	1.24439
H	0.0442318	-0.500876	-1.31155
C	0.508878	1.61201	-1.08661
H	0.637391	2.35094	-0.26716
H	1.43591	1.58189	-1.69508
H	-0.322651	1.96009	-1.73757
N	2.45245	-0.583415	-0.183508
C	3.56736	-1.06992	0.595256
H	2.57662	-0.480311	-1.16485
H	4.44701	-1.2654	-0.0568369
H	3.29917	-2.01793	1.11546
H	3.86244	-0.323644	1.36801
C	994.487	-2.7426	1.88791
C	994.578	-2.00281	0.609015
O	994.277	-2.53271	-0.451602
H	994.14	-3.77988	1.68834
H	993.762	-2.24588	2.56662
H	995.483	-2.78433	2.37754
N	995.005	-0.740112	0.682945
C	995.186	0.0922698	-0.48016
C	996.278	1.10063	-0.174625
O	996.726	1.21783	0.964244
H	995.285	-0.335696	1.54879
H	995.532	-0.517531	-1.30541
C	993.872	0.813016	-0.853064
H	993.522	1.44697	-0.0105821
H	993.995	1.44638	-1.75541
H	993.086	0.0560439	-1.06472
N	996.739	1.85104	-1.19448
C	997.781	2.83271	-0.999906
H	996.367	1.7389	-2.10984
H	998.022	3.34537	-1.95715
H	998.709	2.34988	-0.617511
H	997.462	3.60245	-0.260233
