44
  This energy is 0 and Call times are: 169853
C	3.0921	0.627932	1.46877
C	2.22194	0.464609	0.282478
O	2.61187	0.771496	-0.835637
H	4.06544	1.06262	1.15326
H	3.27648	-0.357132	1.94668
H	2.6145	1.31095	2.20257
N	1.00166	-0.0290994	0.50505
C	0.0272808	-0.20482	-0.542935
C	-1.35471	-0.0816212	0.0706489
O	-1.49994	-0.0309175	1.29051
H	0.684194	-0.235835	1.42611
H	0.131799	0.594819	-1.26563
C	0.195203	-1.57896	-1.22761
H	0.0775999	-2.39996	-0.488589
H	-0.540474	-1.72064	-2.04568
H	1.21609	-1.65001	-1.66246
N	-2.40803	-0.0218155	-0.767782
C	-3.7602	0.101336	-0.275195
H	-2.27015	-0.0602136	-1.75195
H	-4.4845	0.134915	-1.1187
H	-3.87659	1.03337	0.323998
H	-4.02117	-0.763273	0.377099
C	881.743	1.16845	-0.376922
C	882.946	0.472253	-0.888158
O	882.911	-0.169135	-1.92923
H	880.891	0.982079	-1.06518
H	881.929	2.2618	-0.322101
H	881.481	0.787203	0.632373
N	884.054	0.583853	-0.152281
C	885.29	-0.0723769	-0.498051
C	886.057	-0.342357	0.782987
O	885.68	0.130744	1.85366
H	884.056	1.07541	0.713876
H	885.071	-1.03124	-0.951034
C	886.129	0.800694	-1.4571
H	886.363	1.78046	-0.98874
H	887.077	0.300298	-1.74176
H	885.545	0.99215	-2.38403
N	887.153	-1.1221	0.703187
C	887.942	-1.43809	1.87069
H	887.439	-1.4991	-0.171434
H	888.801	-2.09112	1.59981
H	887.324	-1.96894	2.63075
H	888.342	-0.509137	2.33823
