44
  This energy is 0 and Call times are: 171057
C	2.88728	1.06705	1.62411
C	2.1944	0.431203	0.480967
O	2.7872	0.1829	-0.559874
H	3.9459	1.26463	1.34816
H	2.86562	0.394213	2.50704
H	2.39723	2.02978	1.88117
N	0.900306	0.151443	0.652497
C	0.0826311	-0.428113	-0.383882
C	-1.34848	0.0261313	-0.166759
O	-1.67013	0.626966	0.856594
H	0.421709	0.396882	1.49069
H	0.400256	-0.0450263	-1.34565
C	0.171072	-1.9698	-0.358989
H	-0.164666	-2.36395	0.623845
H	-0.443386	-2.42747	-1.16118
H	1.22806	-2.27928	-0.51181
N	-2.24451	-0.245242	-1.13604
C	-3.62797	0.153085	-1.01957
H	-1.96439	-0.728779	-1.95872
H	-4.20438	-0.160273	-1.91779
H	-3.71096	1.25949	-0.918309
H	-4.09664	-0.31184	-0.12217
C	974.022	0.632177	-1.60599
C	973.009	0.933775	-0.569891
O	973.245	1.72129	0.33596
H	974.951	1.20393	-1.3892
H	973.645	0.926482	-2.60774
H	974.26	-0.452576	-1.60472
N	971.839	0.300556	-0.68191
C	970.771	0.458441	0.273609
C	969.956	-0.821065	0.287738
O	970.15	-1.70062	-0.549185
H	971.676	-0.368525	-1.40147
H	971.193	0.583281	1.2632
C	969.878	1.66496	-0.0909549
H	969.437	1.53245	-1.10182
H	969.06	1.80545	0.645048
H	970.497	2.58876	-0.10311
N	969.024	-0.958196	1.25145
C	968.204	-2.14361	1.34716
H	968.885	-0.23732	1.92222
H	967.5	-2.06632	2.20428
H	968.838	-3.04823	1.49468
H	967.61	-2.2866	0.415932
