44
  This energy is 0 and Call times are: 170273
C	3.13487	-0.0823782	1.50947
C	2.23698	-0.318538	0.356577
O	2.6845	-0.589553	-0.749172
H	4.1916	-0.176752	1.17737
H	2.9402	-0.83115	2.30583
H	2.97566	0.93879	1.91562
N	0.927134	-0.216686	0.593892
C	-0.0679908	-0.376706	-0.436971
C	-1.28	0.452996	-0.0572586
O	-1.36176	0.977592	1.05172
H	0.579606	0.0448588	1.48982
H	0.31567	0.0202699	-1.36855
C	-0.458383	-1.86193	-0.601128
H	-0.861876	-2.26677	0.351413
H	-1.2139	-1.9999	-1.40155
H	0.445086	-2.4512	-0.87104
N	-2.25204	0.598312	-0.979244
C	-3.4398	1.3746	-0.709479
H	-2.16599	0.169612	-1.87249
H	-4.11829	1.37447	-1.59089
H	-3.17368	2.43014	-0.472217
H	-3.9947	0.95457	0.160465
C	916.71	1.07657	-2.83339
C	916.68	0.504055	-1.46868
O	917.679	0.00710531	-0.968087
H	917.728	0.949984	-3.26197
H	916.467	2.15926	-2.79976
H	915.979	0.553238	-3.48445
N	915.51	0.560486	-0.827612
C	915.314	0.00674748	0.488952
C	913.858	-0.401449	0.618056
O	913.038	-0.0916179	-0.244243
H	914.695	0.9312	-1.26389
H	915.911	-0.890785	0.591719
C	915.687	1.03347	1.58062
H	915.067	1.95023	1.4821
H	915.553	0.614264	2.59889
H	916.754	1.32382	1.46198
N	913.504	-1.11877	1.70243
C	912.143	-1.55638	1.90749
H	914.182	-1.36333	2.38728
H	912.053	-2.13216	2.85496
H	911.809	-2.20871	1.06815
H	911.453	-0.683168	1.96116
