44
  This energy is 0 and Call times are: 169825
C	1.08025	3.09564	1.16737
C	0.499215	1.75155	1.38403
O	0.358481	1.29693	2.51094
H	1.34876	3.54235	2.14932
H	0.34288	3.75447	0.662425
H	1.99627	3.02064	0.544171
N	0.145334	1.07448	0.289171
C	-0.393656	-0.261828	0.337572
C	-0.0264738	-0.967017	-0.954496
O	0.47977	-0.34759	-1.88817
H	0.303909	1.44114	-0.623123
H	0.0752971	-0.80706	1.14716
C	-1.92681	-0.231988	0.521366
H	-2.40924	0.318186	-0.314463
H	-2.35216	-1.25514	0.574029
H	-2.17266	0.295507	1.46881
N	-0.267314	-2.29049	-1.03478
C	0.0540145	-3.04657	-2.22275
H	-0.673768	-2.77509	-0.267296
H	-0.218563	-4.11715	-2.09324
H	1.14443	-2.98677	-2.44342
H	-0.498909	-2.64789	-3.10393
C	884.269	-2.99447	-1.23901
C	883.339	-2.23056	-0.377207
O	882.399	-2.77871	0.181387
H	883.946	-4.05744	-1.27654
H	885.299	-2.94647	-0.827357
H	884.263	-2.58053	-2.2694
N	883.585	-0.924386	-0.250703
C	882.743	-0.0426212	0.519374
C	882.838	1.34686	-0.0821663
O	883.667	1.6	-0.954727
H	884.33	-0.484967	-0.744354
H	881.713	-0.363222	0.429355
C	883.176	-0.0217688	2.00166
H	884.23	0.317168	2.09538
H	882.527	0.642995	2.60783
H	883.107	-1.05003	2.41894
N	881.98	2.28321	0.367979
C	881.993	3.63159	-0.149588
H	881.314	2.05826	1.07156
H	881.213	4.25049	0.346094
H	881.797	3.6332	-1.24635
H	882.984	4.1102	0.0248068
