44
  This energy is 0 and Call times are: 166045
C	-1.89328	2.88971	0.421562
C	-1.02782	1.81039	0.94803
O	-0.558776	1.86872	2.07631
H	-1.99442	3.687	1.18967
H	-2.90143	2.49007	0.183512
H	-1.44391	3.32809	-0.494396
N	-0.792015	0.784834	0.126436
C	0.065033	-0.318869	0.481215
C	0.669519	-0.877017	-0.793392
O	0.277154	-0.497719	-1.89516
H	-1.14751	0.771155	-0.803781
H	0.881195	0.0448985	1.09292
C	-0.726548	-1.41361	1.22967
H	-1.55752	-1.79458	0.598494
H	-0.0747013	-2.26275	1.5205
H	-1.1665	-0.980862	2.15462
N	1.65175	-1.79153	-0.671326
C	2.29011	-2.37422	-1.82854
H	1.95853	-2.08288	0.22872
H	3.07171	-3.10345	-1.52105
H	2.77207	-1.58522	-2.45021
H	1.54434	-2.90589	-2.46281
C	611.483	2.43045	1.97597
C	612.554	1.44139	1.71937
O	613.557	1.39877	2.41837
H	611.772	3.06866	2.83926
H	610.532	1.91074	2.21546
H	611.337	3.0763	1.08456
N	612.362	0.611871	0.69109
C	613.334	-0.37528	0.291899
C	613.178	-0.617027	-1.19769
O	612.229	-0.139836	-1.81736
H	611.559	0.685702	0.106198
H	614.33	0.0186392	0.452378
C	613.139	-1.69072	1.07726
H	612.121	-2.10079	0.9046
H	613.89	-2.45426	0.788786
H	613.249	-1.48854	2.16504
N	614.118	-1.36251	-1.81177
C	614.056	-1.64097	-3.22767
H	614.88	-1.73662	-1.29428
H	614.918	-2.26878	-3.54324
H	614.077	-0.694732	-3.8154
H	613.116	-2.18302	-3.48075
