44
  This energy is -2.6772 and Call times are: 179060
C	0.417113	3.29586	1.0373
C	0.0444135	2.28698	0.0202447
O	-0.524896	2.61027	-1.01309
H	0.0828851	4.30035	0.697922
H	1.51868	3.3113	1.17532
H	-0.0733202	3.06218	2.00578
N	0.361262	1.01999	0.297227
C	0.025325	-0.0775663	-0.575166
C	-0.138932	-1.32376	0.274284
O	0.171543	-1.32045	1.46395
H	0.787909	0.767393	1.16096
H	-0.929527	0.119878	-1.04623
C	1.12182	-0.290002	-1.64185
H	2.09944	-0.503026	-1.15925
H	0.868161	-1.12358	-2.32839
H	1.23032	0.636947	-2.24629
N	-0.642627	-2.4235	-0.319775
C	-0.83963	-3.65399	0.410467
H	-0.891828	-2.40554	-1.2824
H	-1.26282	-4.44097	-0.251957
H	-1.54144	-3.49762	1.26152
H	0.126325	-4.02503	0.823264
C	994.054	-0.122077	-3.41759
C	994.147	-0.760424	-2.08532
O	993.712	-1.88733	-1.89149
H	993.539	-0.812632	-4.12045
H	995.069	0.0975461	-3.80876
H	993.472	0.821305	-3.34996
N	994.725	-0.0398484	-1.12118
C	994.849	-0.509299	0.236245
C	994.86	0.697864	1.15505
O	994.937	1.83665	0.697805
H	995.037	0.891773	-1.28412
H	993.979	-1.10063	0.491156
C	996.139	-1.33908	0.416668
H	997.033	-0.729636	0.165398
H	996.24	-1.71791	1.45441
H	996.113	-2.21254	-0.270874
N	994.776	0.474947	2.48138
C	994.774	1.56236	3.43201
H	994.711	-0.453407	2.83211
H	994.697	1.17538	4.47201
H	993.912	2.24394	3.24722
H	995.71	2.1596	3.34813
