44
  This energy is 0 and Call times are: 159185
C	-2.88871	1.44303	1.29834
C	-1.79768	0.443642	1.3432
O	-1.61158	-0.246172	2.33615
H	-3.42939	1.44039	2.2697
H	-3.60473	1.19182	0.487811
H	-2.47184	2.45702	1.12187
N	-1.03842	0.344448	0.24956
C	0.0871692	-0.551888	0.159046
C	1.09039	0.0450069	-0.809878
O	0.803062	1.03079	-1.48618
H	-1.1766	0.941457	-0.535522
H	0.571184	-0.616264	1.12559
C	-0.359098	-1.95154	-0.317449
H	-0.846275	-1.88745	-1.31374
H	0.496633	-2.65482	-0.37791
H	-1.09876	-2.36563	0.402116
N	2.30243	-0.538131	-0.89319
C	3.32308	-0.0363607	-1.78352
H	2.5177	-1.33251	-0.334886
H	4.24773	-0.649894	-1.70727
H	3.58031	1.01799	-1.53162
H	2.97066	-0.0627648	-2.84004
C	121.409	-2.96188	-0.899661
C	121.485	-1.48418	-0.856339
O	120.722	-0.791861	-1.51674
H	120.606	-3.26817	-1.60447
H	121.175	-3.36284	0.108783
H	122.375	-3.38417	-1.24975
N	122.424	-0.960793	-0.0651101
C	122.647	0.459014	0.0482084
C	124.107	0.682025	0.394281
O	124.836	-0.263173	0.689958
H	123.064	-1.53769	0.434706
H	122.468	0.926531	-0.912011
C	121.734	1.07652	1.12982
H	121.925	0.60456	2.11722
H	121.887	2.1718	1.21702
H	120.671	0.894429	0.860095
N	124.573	1.94613	0.356822
C	125.95	2.25406	0.665472
H	123.969	2.69725	0.11134
H	126.137	3.347	0.578686
H	126.637	1.724	-0.0332054
H	126.2	1.93643	1.70346
