44
  This energy is 0 and Call times are: 169797
C	1.5487	-2.92977	1.06331
C	0.987947	-2.06316	0.0023324
O	1.16927	-2.31364	-1.18122
H	2.12482	-3.75736	0.595268
H	0.730302	-3.36315	1.67581
H	2.22852	-2.34342	1.71685
N	0.283984	-1.00489	0.410839
C	-0.28709	-0.046962	-0.50284
C	-0.365733	1.29277	0.204607
O	-0.131881	1.38409	1.40822
H	0.179615	-0.79143	1.378
H	0.3739	0.0749071	-1.35188
C	-1.68936	-0.496621	-0.968346
H	-2.37082	-0.611603	-0.0986181
H	-2.13395	0.225884	-1.68308
H	-1.60885	-1.48256	-1.47608
N	-0.691137	2.37183	-0.534162
C	-0.784786	3.68871	0.0517045
H	-0.872813	2.27863	-1.5075
H	-1.06336	4.4424	-0.717426
H	0.189802	3.98932	0.500131
H	-1.55527	3.70712	0.856168
C	878.11	1.13074	1.57502
C	878.873	0.760265	0.362102
O	878.319	0.639143	-0.721924
H	877.035	1.24273	1.31279
H	878.483	2.09395	1.98247
H	878.211	0.339191	2.34726
N	880.184	0.566844	0.52218
C	881.051	0.160675	-0.555915
C	882.207	-0.6233	0.0363036
O	882.374	-0.676999	1.25329
H	880.614	0.629113	1.41863
H	880.512	-0.508134	-1.21515
C	881.572	1.38705	-1.33674
H	882.135	2.06828	-0.663064
H	882.23	1.08667	-2.17812
H	880.709	1.95006	-1.75438
N	883.033	-1.26061	-0.817073
C	884.156	-2.03558	-0.344881
H	882.879	-1.20877	-1.79831
H	884.713	-2.48146	-1.19843
H	883.813	-2.86157	0.319074
H	884.859	-1.39537	0.236115
