44
  This energy is -3.6554 and Call times are: 182333
C	-1.71442	-2.05644	2.22362
C	-0.675962	-1.04671	1.91837
O	-0.0938944	-0.447285	2.81185
H	-1.84632	-2.12619	3.32526
H	-1.40796	-3.05022	1.83474
H	-2.68138	-1.76197	1.76386
N	-0.418936	-0.831743	0.626048
C	0.534056	0.150308	0.172238
C	0.0976999	0.635177	-1.19745
O	-0.818441	0.0790241	-1.80002
H	-0.929947	-1.29789	-0.0904984
H	0.512371	1.00367	0.838517
C	1.95568	-0.449623	0.106706
H	1.98084	-1.31864	-0.584817
H	2.70093	0.300703	-0.228168
H	2.25102	-0.805026	1.11805
N	0.7431	1.69656	-1.7199
C	0.393165	2.23154	-3.01509
H	1.47909	2.13577	-1.21543
H	1.03726	3.10242	-3.26794
H	-0.669456	2.56613	-3.02781
H	0.521266	1.45873	-3.80723
C	997.066	-2.4995	-1.7575
C	995.829	-1.87462	-1.23885
O	994.726	-2.25041	-1.61132
H	996.799	-3.28706	-2.49511
H	997.637	-2.96439	-0.926615
H	997.699	-1.73703	-2.25931
N	995.988	-0.887913	-0.353743
C	994.88	-0.155512	0.207074
C	995.363	1.23967	0.555673
O	996.558	1.52386	0.502436
H	996.893	-0.565709	-0.0912367
H	994.105	-0.0507024	-0.542167
C	994.327	-0.866396	1.46185
H	995.119	-0.964752	2.23492
H	993.465	-0.319453	1.89495
H	993.987	-1.88805	1.18485
N	994.437	2.15051	0.914936
C	994.803	3.5049	1.25868
H	993.475	1.90283	0.948171
H	993.902	4.09986	1.52538
H	995.311	4.00391	0.402114
H	995.5	3.51536	2.12764
