44
  This energy is 0.1136 and Call times are: 173517
C	-3.45846	0.0772994	-0.381806
C	-2.23976	-0.249858	0.392071
O	-2.30645	-0.581558	1.56763
H	-4.34852	-0.0166003	0.277629
H	-3.56874	-0.623077	-1.23624
H	-3.40176	1.11881	-0.762779
N	-1.0794	-0.15965	-0.261999
C	0.193621	-0.405043	0.36868
C	1.24389	0.422431	-0.348101
O	0.97489	1.01476	-1.39142
H	-1.03789	0.151276	-1.20723
H	0.156352	-0.0604542	1.3946
C	0.556247	-1.9053	0.31413
H	0.604957	-2.2568	-0.738539
H	1.52797	-2.10918	0.808804
H	-0.22983	-2.49214	0.837628
N	2.47138	0.489088	0.204029
C	3.53305	1.25676	-0.404018
H	2.66877	0.00625709	1.05078
H	4.46451	1.18682	0.19989
H	3.24608	2.33043	-0.482554
H	3.75123	0.881784	-1.43014
C	993.923	1.48595	-1.48125
C	994.657	0.300499	-0.983158
O	994.103	-0.784507	-0.869526
H	992.868	1.20487	-1.68765
H	994.387	1.85613	-2.41983
H	993.938	2.29309	-0.718751
N	995.94	0.486215	-0.667744
C	996.772	-0.561636	-0.1299
C	997.838	0.0793412	0.737901
O	997.988	1.29962	0.753676
H	996.366	1.38474	-0.726881
H	996.174	-1.19833	0.510706
C	997.42	-1.38795	-1.26246
H	998.041	-0.737072	-1.91377
H	998.051	-2.20671	-0.861106
H	996.621	-1.84106	-1.88929
N	998.604	-0.734538	1.49142
C	999.64	-0.214284	2.35241
H	998.465	-1.71906	1.46831
H	1000.16	-1.04021	2.88892
H	999.21	0.480266	3.10978
H	1000.4	0.34766	1.75994
