44
  This energy is 0 and Call times are: 167753
C	-1.9839	-1.19293	-2.5988
C	-1.80928	-0.472436	-1.31757
O	-2.71623	0.192932	-0.836807
H	-3.00521	-0.999223	-2.99286
H	-1.85979	-2.28528	-2.44358
H	-1.23878	-0.838346	-3.34187
N	-0.617029	-0.589876	-0.728396
C	-0.282895	0.0871112	0.499856
C	1.2138	0.334724	0.511395
O	1.94182	-0.16738	-0.34277
H	0.124623	-1.10168	-1.15251
H	-0.769976	1.05408	0.518699
C	-0.701983	-0.754352	1.72523
H	-0.194437	-1.74241	1.71195
H	-0.462558	-0.237578	2.67715
H	-1.79944	-0.92993	1.69188
N	1.70896	1.12746	1.48218
C	3.11985	1.42398	1.5697
H	1.10352	1.52794	2.16198
H	3.3284	2.09208	2.4342
H	3.47306	1.93032	0.642262
H	3.71084	0.488448	1.69873
C	734.309	-3.28535	0.917254
C	735.217	-2.12003	0.83121
O	736.282	-2.10163	1.43354
H	734.753	-4.0481	1.5933
H	734.167	-3.73504	-0.0879292
H	733.324	-2.97344	1.32479
N	734.808	-1.10356	0.0683875
C	735.564	0.115539	-0.0788693
C	734.59	1.24371	-0.363674
O	733.406	1.00989	-0.595494
H	733.921	-1.11624	-0.382911
H	736.058	0.344648	0.856903
C	736.596	-0.00977644	-1.22048
H	736.089	-0.234398	-2.1827
H	737.194	0.917795	-1.33477
H	737.293	-0.846255	-0.994775
N	735.07	2.50303	-0.344283
C	734.217	3.64052	-0.598241
H	736.03	2.67249	-0.150713
H	734.796	4.58806	-0.537126
H	733.39	3.68619	0.147809
H	733.762	3.57211	-1.61303
