44
  This energy is 0 and Call times are: 170777
C	-0.873347	2.10051	-2.63397
C	-0.0780377	1.78738	-1.42543
O	0.88391	2.47212	-1.10575
H	-0.43671	2.98818	-3.14118
H	-1.92326	2.32742	-2.35301
H	-0.856494	1.24073	-3.33654
N	-0.468242	0.7252	-0.71699
C	0.231503	0.270875	0.45881
C	0.0208911	-1.22616	0.585649
O	-0.781696	-1.81277	-0.137856
H	-1.22834	0.153536	-1.01248
H	1.29362	0.437345	0.329062
C	-0.2805	0.99859	1.72116
H	-1.36794	0.819488	1.86058
H	0.260167	0.667464	2.63141
H	-0.123634	2.09301	1.60288
N	0.748719	-1.88392	1.50957
C	0.619791	-3.31008	1.69833
H	1.39606	-1.3926	2.08283
H	1.30144	-3.66347	2.50312
H	0.873126	-3.85495	0.760131
H	-0.424413	-3.57635	1.98097
C	952.835	-1.24024	-2.68483
C	952.328	-1.33669	-1.29753
O	952.437	-2.3714	-0.654186
H	953.271	-2.21752	-2.98502
H	953.621	-0.45953	-2.75129
H	952.005	-0.988883	-3.37893
N	951.75	-0.241073	-0.799381
C	951.17	-0.19494	0.520024
C	950.05	0.827336	0.508961
O	949.879	1.56482	-0.459978
H	951.632	0.580684	-1.34952
H	950.728	-1.15625	0.749718
C	952.233	0.178363	1.57649
H	952.68	1.16928	1.34716
H	951.803	0.203616	2.59843
H	953.048	-0.578752	1.56138
N	949.249	0.888907	1.59105
C	948.153	1.82656	1.668
H	949.4	0.281092	2.36361
H	947.613	1.72258	2.63523
H	947.427	1.65096	0.841295
H	948.525	2.87343	1.58441
