44
  This energy is 0.137 and Call times are: 175415
C	-2.41269	-2.48634	-0.331247
C	-1.68027	-1.47953	0.469407
O	-2.06128	-1.16067	1.58725
H	-3.30024	-2.83508	0.240165
H	-1.7572	-3.35695	-0.543633
H	-2.75456	-2.03909	-1.28842
N	-0.594847	-0.946619	-0.0964836
C	0.196123	0.0760751	0.5415
C	0.840188	0.920531	-0.541842
O	0.780977	0.582478	-1.72249
H	-0.320624	-1.18631	-1.02342
H	-0.454405	0.726156	1.1132
C	1.27439	-0.549082	1.45351
H	1.94847	-1.20783	0.865547
H	1.88115	0.228437	1.96128
H	0.780848	-1.16888	2.23365
N	1.46754	2.05142	-0.162973
C	2.10455	2.92089	-1.12444
H	1.50135	2.31037	0.796649
H	2.5643	3.7978	-0.617602
H	1.36341	3.29449	-1.86768
H	2.90384	2.37655	-1.67759
C	1000.21	-0.996276	-0.896039
C	999.165	-0.728709	0.115765
O	999.305	-1.07957	1.27928
H	1001.05	-1.54469	-0.418423
H	1000.6	-0.040842	-1.31136
H	999.799	-1.61734	-1.71878
N	998.073	-0.0919294	-0.314054
C	996.952	0.200393	0.543117
C	995.7	0.243955	-0.313677
O	995.776	0.21032	-1.54042
H	997.956	0.150915	-1.2728
H	996.827	-0.605554	1.25551
C	997.153	1.54478	1.27612
H	997.271	2.37351	0.545745
H	996.302	1.77445	1.94986
H	998.078	1.49278	1.89051
N	994.512	0.311821	0.318106
C	993.268	0.351922	-0.414311
H	994.471	0.333982	1.31154
H	992.403	0.406247	0.282754
H	993.153	-0.559725	-1.04446
H	993.235	1.24123	-1.08451
