44
  This energy is 0 and Call times are: 165765
C	-0.680605	-0.769265	-3.32531
C	0.0442946	-1.00205	-2.05587
O	0.72084	-2.00737	-1.88845
H	-0.507384	-1.62784	-4.00995
H	-0.312272	0.15831	-3.81181
H	-1.77033	-0.677608	-3.13246
N	-0.0857441	-0.0616669	-1.11718
C	0.524476	-0.168199	0.184684
C	-0.332056	0.600807	1.17288
O	-1.25789	1.3107	0.784821
H	-0.672881	0.731229	-1.25302
H	0.523564	-1.20541	0.495838
C	1.96419	0.390497	0.166523
H	1.96465	1.45754	-0.142451
H	2.44974	0.301443	1.15991
H	2.57067	-0.181771	-0.569026
N	-0.0457681	0.469471	2.48316
C	-0.809961	1.15871	3.49664
H	0.704662	-0.112764	2.77799
H	-0.420755	0.922166	4.51142
H	-1.88167	0.857311	3.45328
H	-0.755192	2.26147	3.34814
C	590.847	2.65792	-0.642439
C	591.542	1.73906	0.287026
O	591.549	1.94435	1.49294
H	590.399	3.49506	-0.0645192
H	590.039	2.11911	-1.1803
H	591.567	3.07429	-1.37841
N	592.154	0.688497	-0.264196
C	592.908	-0.269143	0.50645
C	593.99	-0.847807	-0.385626
O	594.006	-0.608638	-1.59154
H	592.174	0.557134	-1.25121
H	593.402	0.240128	1.32431
C	591.99	-1.39035	1.04198
H	591.491	-1.92002	0.202801
H	592.556	-2.12663	1.64867
H	591.202	-0.943185	1.68555
N	594.929	-1.62133	0.192732
C	596.001	-2.21075	-0.57563
H	594.902	-1.8001	1.17066
H	596.67	-2.81106	0.0791937
H	596.611	-1.42015	-1.06971
H	595.594	-2.8792	-1.36874
