44
  This energy is -3.1643 and Call times are: 177663
C	-2.05555	2.61269	1.03017
C	-1.79733	1.17543	0.78781
O	-2.56408	0.316189	1.20038
H	-2.98949	2.72321	1.62297
H	-2.17711	3.14776	0.0649405
H	-1.21398	3.06221	1.59833
N	-0.69046	0.878587	0.102901
C	-0.283255	-0.476457	-0.173866
C	1.22902	-0.501092	-0.292064
O	1.87577	0.544246	-0.318534
H	-0.0549102	1.58684	-0.190906
H	-0.551682	-1.10826	0.663634
C	-0.936508	-0.994181	-1.47404
H	-0.652939	-0.352513	-2.33537
H	-0.641665	-2.04139	-1.69071
H	-2.0428	-0.959756	-1.36785
N	1.83154	-1.7047	-0.357793
C	3.26666	-1.82669	-0.466076
H	1.29161	-2.53946	-0.330775
H	3.56844	-2.8965	-0.506863
H	3.76819	-1.35421	0.409426
H	3.63547	-1.32272	-1.38865
C	993.982	3.24994	1.18954
C	994.131	1.79287	1.40367
O	994.357	1.33639	2.51582
H	994.125	3.77981	2.15625
H	992.967	3.47786	0.801902
H	994.743	3.61026	0.465882
N	994.007	1.01854	0.323133
C	994.169	-0.413411	0.365959
C	994.666	-0.874044	-0.991524
O	994.705	-0.0979257	-1.94431
H	993.864	1.40793	-0.582218
H	994.933	-0.66499	1.09123
C	992.837	-1.10904	0.719563
H	992.056	-0.859706	-0.0300265
H	992.951	-2.21125	0.769243
H	992.488	-0.751064	1.71288
N	995.067	-2.15517	-1.10881
C	995.56	-2.68132	-2.36035
H	995.032	-2.76692	-0.325496
H	995.84	-3.75251	-2.2536
H	996.459	-2.11601	-2.6972
H	994.783	-2.59925	-3.15451
