44
  This energy is -4.8366 and Call times are: 187411
C	-0.558286	-2.68563	-2.14205
C	-0.905432	-1.87039	-0.956296
O	-1.96678	-2.0276	-0.368737
H	-1.39479	-3.38269	-2.36621
H	0.35971	-3.27787	-1.94387
H	-0.391714	-2.02937	-3.0222
N	-0.00264483	-0.964071	-0.574282
C	-0.216698	-0.0680082	0.534688
C	0.569298	1.20317	0.274167
O	1.36601	1.27074	-0.659852
H	0.838764	-0.819764	-1.08719
H	-1.26412	0.203459	0.577577
C	0.229199	-0.717719	1.86295
H	1.30626	-0.986807	1.82331
H	0.0565917	-0.0428585	2.72626
H	-0.353313	-1.65014	2.02914
N	0.355204	2.25006	1.09527
C	1.05343	3.5024	0.921183
H	-0.296455	2.17758	1.84304
H	0.740397	4.238	1.69457
H	0.83819	3.93592	-0.0823149
H	2.15438	3.3534	1.00395
C	996.79	2.61788	1.22377
C	996.295	1.22399	1.28329
O	996.806	0.402272	2.03145
H	997.648	2.73294	1.92041
H	995.986	3.32235	1.52459
H	997.127	2.86048	0.194095
N	995.272	0.922361	0.479768
C	994.71	-0.402641	0.394796
C	994.134	-0.583644	-0.996842
O	994.048	0.367339	-1.77138
H	994.893	1.59126	-0.153374
H	995.5	-1.13387	0.514513
C	993.616	-0.607422	1.465
H	992.8	0.135817	1.33611
H	993.185	-1.62861	1.41888
H	994.058	-0.462385	2.47477
N	993.731	-1.81996	-1.35091
C	993.175	-2.08884	-2.65652
H	993.813	-2.57764	-0.71189
H	992.905	-3.16337	-2.75532
H	993.91	-1.83705	-3.45568
H	992.258	-1.47967	-2.82613
