44
  This energy is 0 and Call times are: 163105
C	-1.40597	-0.537799	3.13794
C	-1.26728	0.244027	1.88868
O	-2.05074	1.14242	1.61392
H	-2.29553	-0.178211	3.69943
H	-0.504082	-0.408487	3.77246
H	-1.54076	-1.6146	2.90252
N	-0.250216	-0.0884974	1.09032
C	-0.0118304	0.552589	-0.178829
C	0.679927	-0.444119	-1.08965
O	1.08805	-1.51856	-0.652923
H	0.354717	-0.849137	1.30792
H	-0.960812	0.803043	-0.636363
C	0.855547	1.81832	-0.00325226
H	1.83341	1.5604	0.456419
H	1.0346	2.3287	-0.971744
H	0.33358	2.53	0.673065
N	0.82075	-0.111655	-2.38798
C	1.46113	-0.999315	-3.3304
H	0.480366	0.760494	-2.72349
H	1.47946	-0.547193	-4.34651
H	0.916743	-1.96965	-3.38834
H	2.51047	-1.2101	-3.02122
C	405.504	2.41297	0.150841
C	404.884	1.14783	0.605322
O	405.484	0.377577	1.3418
H	406.532	2.48869	0.567121
H	404.907	3.28004	0.505339
H	405.562	2.43361	-0.957846
N	403.647	0.901419	0.166287
C	402.931	-0.30769	0.487887
C	401.967	-0.602248	-0.646084
O	401.779	0.218563	-1.54195
H	403.187	1.51844	-0.465646
H	403.629	-1.13353	0.54029
C	402.168	-0.158415	1.82222
H	401.444	0.682022	1.76544
H	401.623	-1.08767	2.08783
H	402.892	0.0646077	2.63615
N	401.337	-1.79324	-0.637389
C	400.406	-2.16346	-1.67805
H	401.505	-2.44597	0.0938263
H	399.993	-3.17974	-1.49329
H	400.909	-2.16476	-2.67231
H	399.558	-1.44281	-1.72115
