44
  This energy is 0 and Call times are: 164225
C	1.96435	2.30321	-1.71734
C	1.62947	1.52432	-0.503943
O	2.39717	1.47278	0.447048
H	2.96823	2.76419	-1.59243
H	1.21609	3.10842	-1.87384
H	1.9825	1.63791	-2.60623
N	0.455556	0.88852	-0.512093
C	0.010464	0.0566465	0.578062
C	-0.908873	-1.01027	0.0140829
O	-1.28826	-0.961198	-1.15441
H	-0.140297	0.906639	-1.3099
H	0.863513	-0.449436	1.01259
C	-0.724398	0.894693	1.64713
H	-1.60574	1.4057	1.20424
H	-1.05994	0.267688	2.49848
H	-0.0353933	1.67393	2.04007
N	-1.28352	-2.01075	0.835487
C	-2.15209	-3.07331	0.385231
H	-0.962891	-2.03546	1.77658
H	-2.34349	-3.79921	1.206
H	-1.69145	-3.62228	-0.467827
H	-3.13027	-2.66347	0.0441534
C	484.336	-2.71683	-1.71696
C	483.724	-1.36917	-1.68337
O	483.689	-0.665033	-2.68305
H	484.73	-2.91601	-2.73718
H	483.576	-3.48782	-1.46813
H	485.173	-2.7752	-0.990377
N	483.223	-0.974001	-0.510812
C	482.635	0.327264	-0.311591
C	482.827	0.715301	1.14245
O	483.253	-0.097628	1.96021
H	483.296	-1.54196	0.304029
H	483.166	1.05497	-0.912381
C	481.134	0.316229	-0.675698
H	480.587	-0.422672	-0.0522857
H	480.673	1.31601	-0.539717
H	481.017	0.0219759	-1.74157
N	482.521	1.97878	1.49792
C	482.677	2.43996	2.85782
H	482.181	2.62329	0.821168
H	482.374	3.50641	2.94847
H	483.738	2.34795	3.18492
H	482.048	1.8365	3.55182
