44
  This energy is 0 and Call times are: 161397
C	3.38688	0.670798	-0.437939
C	2.07958	0.185621	-0.93465
O	1.89951	-0.0442376	-2.12257
H	4.08571	0.785659	-1.29486
H	3.81706	-0.0572632	0.281515
H	3.26521	1.65535	0.0610053
N	1.12183	0.0188984	-0.0196129
C	-0.214145	-0.40601	-0.356051
C	-1.16663	0.165954	0.676998
O	-0.740119	0.721303	1.68764
H	1.27125	0.249282	0.937708
H	-0.490744	0.0117166	-1.31607
C	-0.311404	-1.94704	-0.387693
H	-0.0379146	-2.37551	0.600059
H	-1.33192	-2.2867	-0.659181
H	0.399654	-2.34418	-1.14468
N	-2.4883	0.0498082	0.440957
C	-3.46965	0.568783	1.36497
H	-2.81413	-0.399208	-0.384446
H	-4.50021	0.375547	0.993718
H	-3.34424	1.66821	1.49463
H	-3.36101	0.0886835	2.36439
C	283.67	0.499559	2.17583
C	282.332	0.855045	1.65128
O	281.613	1.65198	2.23831
H	283.848	1.04429	3.1285
H	284.456	0.786454	1.4459
H	283.727	-0.592254	2.37014
N	281.963	0.258993	0.515285
C	280.673	0.471107	-0.0942698
C	280.305	-0.780067	-0.869119
O	281.124	-1.68191	-1.03536
H	282.542	-0.418367	0.0708952
H	279.929	0.601341	0.68107
C	280.701	1.69922	-1.03034
H	281.458	1.56155	-1.83215
H	279.711	1.8813	-1.49513
H	280.981	2.60151	-0.443773
N	279.052	-0.867112	-1.35691
C	278.609	-2.0225	-2.10221
H	278.402	-0.128912	-1.2086
H	277.549	-1.90494	-2.41708
H	278.691	-2.9446	-1.4822
H	279.233	-2.16397	-3.01468
