44
  This energy is -7.8394 and Call times are: 182843
C	2.04765	-0.745256	2.71375
C	1.36808	-1.11831	1.45273
O	1.63679	-2.16175	0.873571
H	2.78954	-1.53013	2.97727
H	1.30725	-0.659776	3.5367
H	2.57716	0.223078	2.59113
N	0.458307	-0.256904	0.991562
C	-0.254343	-0.461294	-0.244931
C	-0.616274	0.898255	-0.812545
O	-0.44784	1.92158	-0.152128
H	0.279967	0.607724	1.45252
H	0.400538	-0.944996	-0.958931
C	-1.52537	-1.30815	-0.0156488
H	-2.20239	-0.807261	0.708769
H	-2.07555	-1.48422	-0.962656
H	-1.23729	-2.2953	0.407317
N	-1.1178	0.94056	-2.06263
C	-1.48565	2.18965	-2.68763
H	-1.24297	0.102241	-2.58284
H	-1.87716	2.01549	-3.71409
H	-0.604452	2.86764	-2.759
H	-2.27345	2.70865	-2.09505
C	993.8	-2.98534	-1.04828
C	994.606	-1.76946	-1.29907
O	995.254	-1.64042	-2.32903
H	993.918	-3.68651	-1.90295
H	992.727	-2.71883	-0.946691
H	994.145	-3.48867	-0.120571
N	994.586	-0.836421	-0.344393
C	995.353	0.381263	-0.42592
C	995.676	0.832224	0.986134
O	995.16	0.281881	1.95668
H	994.087	-0.973732	0.506488
H	996.294	0.178099	-0.92271
C	994.569	1.47837	-1.17869
H	993.609	1.69463	-0.663551
H	995.155	2.41669	-1.26021
H	994.337	1.12363	-2.20655
N	996.552	1.84627	1.1339
C	996.924	2.33942	2.43947
H	996.962	2.27624	0.336698
H	997.654	3.17409	2.35124
H	997.389	1.52981	3.04724
H	996.029	2.71242	2.98844
