44
  This energy is 0 and Call times are: 159381
C	0.422571	-2.08208	2.75664
C	0.45378	-1.82756	1.29877
O	0.962045	-2.62909	0.527005
H	0.926633	-3.04937	2.97148
H	-0.62749	-2.13707	3.11314
H	0.954578	-1.27159	3.29808
N	-0.0970768	-0.684354	0.884011
C	-0.104761	-0.277972	-0.49923
C	-0.121288	1.23828	-0.546651
O	-0.290586	1.89857	0.476614
H	-0.47036	-0.022994	1.52832
H	0.812291	-0.605534	-0.972887
C	-1.33201	-0.856205	-1.2373
H	-2.27325	-0.511936	-0.75816
H	-1.34193	-0.561788	-2.30676
H	-1.30343	-1.96642	-1.18298
N	0.0639869	1.82848	-1.74389
C	0.0694792	3.26589	-1.88527
H	0.203479	1.27742	-2.55994
H	0.236758	3.55609	-2.94594
H	0.87795	3.71835	-1.26645
H	-0.902314	3.69728	-1.5526
C	137.466	3.3534	-0.80661
C	136.599	2.20547	-0.456164
O	135.423	2.36684	-0.162125
H	136.878	4.29376	-0.731841
H	137.841	3.24611	-1.84592
H	138.326	3.4111	-0.106951
N	137.173	1.0003	-0.478124
C	136.47	-0.206169	-0.119501
C	137.48	-1.19733	0.427576
O	138.687	-0.972867	0.353358
H	138.142	0.889236	-0.679628
H	135.769	0.0121907	0.676189
C	135.735	-0.800324	-1.3411
H	136.456	-1.03431	-2.15374
H	135.179	-1.72215	-1.07471
H	135.007	-0.0551016	-1.72963
N	137.006	-2.32076	1.00129
C	137.892	-3.3187	1.55445
H	136.026	-2.48275	1.05562
H	137.311	-4.16668	1.98047
H	138.519	-2.88133	2.36458
H	138.572	-3.71909	0.768649
