44
  This energy is -4.6928 and Call times are: 176334
C	-0.706531	3.15701	1.28328
C	-0.762632	1.67946	1.35295
O	-1.12488	1.1071	2.37157
H	-1.0147	3.58286	2.26286
H	-1.39588	3.52949	0.496644
H	0.328016	3.49039	1.05599
N	-0.396458	1.01911	0.251937
C	-0.357626	-0.420356	0.181323
C	0.702334	-0.815897	-0.829412
O	1.23891	0.0295599	-1.54286
H	-0.0649106	1.49812	-0.555836
H	-0.0518054	-0.816989	1.14142
C	-1.73402	-0.990035	-0.226421
H	-2.04341	-0.591619	-1.21616
H	-1.72078	-2.09836	-0.270815
H	-2.49546	-0.681552	0.522839
N	1.03612	-2.11915	-0.907874
C	2.03825	-2.5882	-1.83627
H	0.593817	-2.78781	-0.319382
H	2.17042	-3.68918	-1.74916
H	3.01941	-2.10039	-1.63471
H	1.74415	-2.35201	-2.88454
C	993.245	-0.0809729	-3.34582
C	994.277	-0.0953306	-2.28424
O	995.441	-0.370585	-2.53709
H	993.711	-0.364429	-4.31453
H	992.808	0.935214	-3.44098
H	992.441	-0.808359	-3.10755
N	993.863	0.204097	-1.05071
C	994.741	0.189636	0.0925182
C	993.913	-0.133324	1.32155
O	992.685	-0.168738	1.26193
H	992.904	0.385982	-0.853541
H	995.467	-0.605091	-0.0248833
C	995.451	1.55109	0.260342
H	994.707	2.36533	0.39137
H	996.14	1.54823	1.12921
H	996.045	1.77055	-0.653697
N	994.57	-0.386287	2.47029
C	993.866	-0.708188	3.68941
H	995.564	-0.356882	2.49782
H	994.581	-0.88296	4.52276
H	993.251	-1.62785	3.55671
H	993.184	0.123515	3.98088
