44
  This energy is -7.0834 and Call times are: 175997
C	-1.52515	-2.59067	-1.75358
C	-0.828129	-2.05702	-0.561722
O	-0.758071	-2.7049	0.473536
H	-1.94192	-3.59374	-1.51689
H	-0.814461	-2.68765	-2.60109
H	-2.35722	-1.91535	-2.04461
N	-0.290204	-0.841231	-0.683631
C	0.382059	-0.172308	0.402262
C	0.230883	1.3239	0.202133
O	-0.238609	1.77557	-0.840601
H	-0.390905	-0.309294	-1.51956
H	-0.107519	-0.424115	1.33475
C	1.8752	-0.563879	0.45155
H	2.38032	-0.296152	-0.500929
H	2.40081	-0.0659885	1.29201
H	1.9618	-1.66367	0.59054
N	0.620513	2.1318	1.20788
C	0.509249	3.56852	1.10972
H	0.994209	1.74748	2.04557
H	0.880897	4.05606	2.03783
H	-0.552033	3.87069	0.955939
H	1.1052	3.95105	0.249685
C	996.003	-2.62513	2.20409
C	995.599	-1.23011	1.91836
O	995.089	-0.529223	2.78184
H	995.75	-2.87239	3.25793
H	997.097	-2.74345	2.06027
H	995.464	-3.32515	1.53127
N	995.819	-0.7908	0.677048
C	995.44	0.528855	0.237005
C	995.162	0.468882	-1.25318
O	995.43	-0.539385	-1.90377
H	996.197	-1.3863	-0.026075
H	994.518	0.817478	0.72584
C	996.557	1.55257	0.538762
H	997.5	1.26257	0.028924
H	996.271	2.57515	0.21713
H	996.749	1.57386	1.63372
N	994.606	1.55271	-1.82964
C	994.301	1.58525	-3.24095
H	994.393	2.35762	-1.28593
H	993.849	2.56162	-3.52308
H	993.582	0.776523	-3.50596
H	995.224	1.43818	-3.84648
