44
  This energy is -4.0154 and Call times are: 184396
C	-1.90469	-1.76894	2.31424
C	-1.63717	-0.566166	1.49392
O	-2.47309	0.319312	1.37741
H	-2.93029	-1.70368	2.73822
H	-1.17452	-1.83358	3.14816
H	-1.83221	-2.68311	1.68804
N	-0.445094	-0.509073	0.895531
C	-0.0565241	0.577333	0.0310691
C	0.939019	0.0432548	-0.981457
O	1.40469	-1.08919	-0.869889
H	0.209012	-1.2567	0.966714
H	-0.922548	0.92306	-0.519482
C	0.565537	1.73381	0.843991
H	1.46022	1.38216	1.40069
H	0.856209	2.58223	0.191133
H	-0.177616	2.10363	1.58379
N	1.28367	0.849552	-2.00475
C	2.21978	0.424986	-3.01945
H	0.893098	1.76105	-2.08029
H	2.37252	1.22766	-3.77417
H	1.84463	-0.483129	-3.54467
H	3.20664	0.178135	-2.56522
C	994.136	-2.46962	-2.44964
C	994.445	-1.09367	-1.99965
O	995.09	-0.327603	-2.70244
H	994.588	-2.6388	-3.45098
H	993.037	-2.61058	-2.52312
H	994.556	-3.20911	-1.73586
N	993.985	-0.745799	-0.795507
C	994.242	0.54378	-0.204232
C	994.237	0.381872	1.30419
O	993.877	-0.672918	1.82326
H	993.497	-1.39388	-0.217944
H	995.232	0.876975	-0.489838
C	993.177	1.57316	-0.641611
H	992.162	1.23686	-0.339529
H	993.371	2.57371	-0.203937
H	993.193	1.66956	-1.74922
N	994.648	1.42865	2.04668
C	994.683	1.36492	3.48921
H	994.94	2.27242	1.60835
H	995.05	2.32411	3.91652
H	995.359	0.547929	3.8301
H	993.666	1.16465	3.8984
