44
  This energy is -3.0727 and Call times are: 187469
C	-1.37222	-1.79292	-2.64861
C	-0.475053	-1.68133	-1.47653
O	0.0620827	-2.6689	-0.99424
H	-1.455	-2.86049	-2.94746
H	-0.962103	-1.21183	-3.50118
H	-2.38359	-1.41155	-2.39407
N	-0.292555	-0.454104	-0.983585
C	0.517827	-0.192402	0.179751
C	-0.0229237	1.04936	0.863255
O	-0.886228	1.73939	0.324486
H	-0.768939	0.334515	-1.36175
H	0.417166	-1.01438	0.877493
C	1.99825	0.00671106	-0.212603
H	2.10334	0.856572	-0.920225
H	2.63483	0.195239	0.676075
H	2.37057	-0.910995	-0.718116
N	0.470265	1.35913	2.07851
C	0.0118704	2.51895	2.80711
H	1.16546	0.786303	2.49999
H	0.536483	2.6021	3.78439
H	-1.08316	2.4531	3.00164
H	0.203837	3.44961	2.22559
C	996.997	-1.54659	1.64817
C	996.014	-1.47244	0.543437
O	996.106	-2.20071	-0.435146
H	997.763	-2.31439	1.40679
H	996.489	-1.83084	2.59363
H	997.499	-0.565307	1.77954
N	995.037	-0.572844	0.677744
C	994.032	-0.354412	-0.333006
C	993.569	1.08707	-0.236045
O	993.921	1.79958	0.702377
H	994.999	0.0410603	1.46104
H	994.476	-0.485513	-1.31201
C	992.841	-1.31943	-0.144703
H	992.379	-1.178	0.855472
H	992.067	-1.17052	-0.925191
H	993.205	-2.36819	-0.211513
N	992.771	1.55469	-1.21589
C	992.286	2.91501	-1.21075
H	992.501	0.964207	-1.96915
H	991.645	3.10737	-2.09962
H	993.135	3.63538	-1.22853
H	991.683	3.11399	-0.294816
