44
  This energy is -2.3882 and Call times are: 186823
C	-2.23694	0.590481	-2.60002
C	-0.951549	0.0734272	-2.0789
O	-0.223259	-0.625077	-2.77035
H	-2.38519	0.225645	-3.63963
H	-2.22841	1.70072	-2.60657
H	-3.07766	0.231203	-1.96978
N	-0.641395	0.409636	-0.824652
C	0.55443	-0.0526879	-0.165243
C	0.278181	-0.116475	1.32512
O	-0.758139	0.350245	1.79408
H	-1.26362	0.944924	-0.260586
H	0.777829	-1.05956	-0.49528
C	1.74372	0.888832	-0.455688
H	1.51919	1.91964	-0.107747
H	2.67376	0.535971	0.0352707
H	1.92273	0.926393	-1.55245
N	1.20232	-0.707862	2.10759
C	1.02312	-0.819849	3.53641
H	2.03264	-1.08327	1.70921
H	1.89078	-1.33694	4.00224
H	0.10154	-1.39973	3.77243
H	0.925011	0.188214	4.00044
C	993.906	1.50693	-3.09806
C	993.406	0.794932	-1.9006
O	992.207	0.686968	-1.68325
H	993.043	1.89587	-3.6813
H	994.49	0.813754	-3.73927
H	994.549	2.36017	-2.79516
N	994.331	0.286993	-1.08261
C	993.999	-0.394848	0.14359
C	995.148	-0.206039	1.11566
O	996.208	0.296977	0.747712
H	995.303	0.418469	-1.25164
H	993.124	0.0676615	0.584193
C	993.746	-1.89704	-0.111338
H	994.647	-2.37427	-0.553605
H	993.477	-2.43049	0.823046
H	992.907	-2.01113	-0.831337
N	994.96	-0.600481	2.39045
C	995.995	-0.455209	3.38715
H	994.094	-1.0016	2.67016
H	995.649	-0.837007	4.37271
H	996.279	0.615737	3.50611
H	996.907	-1.02279	3.09213
