44
  This energy is 0 and Call times are: 159661
C	-0.189963	-2.94088	1.85144
C	-0.190512	-2.2084	0.565125
O	-0.110377	-2.8021	-0.501411
H	-0.0914205	-4.03039	1.65365
H	-1.14038	-2.75898	2.39583
H	0.664419	-2.61093	2.47934
N	-0.280218	-0.878439	0.63958
C	-0.249809	-0.0273878	-0.523755
C	0.328972	1.31367	-0.113719
O	0.525481	1.5792	1.07059
H	-0.303513	-0.406934	1.51651
H	0.41765	-0.454744	-1.26165
C	-1.66591	0.151567	-1.11356
H	-2.34842	0.599719	-0.360314
H	-1.65384	0.793715	-2.01801
H	-2.07289	-0.842989	-1.39918
N	0.624892	2.19233	-1.09169
C	1.18437	3.49096	-0.797227
H	0.462614	1.95776	-2.04443
H	1.35762	4.066	-1.73346
H	2.15724	3.38782	-0.264174
H	0.49527	4.07769	-0.147577
C	156.96	0.86545	3.37078
C	157.48	0.0703218	2.23557
O	158.486	-0.615301	2.3513
H	157.627	0.730252	4.24982
H	155.937	0.52567	3.63965
H	156.932	1.9427	3.10271
N	156.793	0.148216	1.09297
C	157.2	-0.534134	-0.110174
C	156.702	0.266208	-1.29905
O	155.934	1.21288	-1.14354
H	155.999	0.742636	1.00246
H	158.282	-0.551448	-0.162857
C	156.633	-1.97014	-0.148547
H	155.523	-1.95248	-0.105154
H	156.951	-2.51071	-1.06367
H	157.004	-2.53485	0.734644
N	157.14	-0.0932098	-2.52196
C	156.724	0.613453	-3.71118
H	157.765	-0.859436	-2.62727
H	157.192	0.167776	-4.61687
H	157.022	1.68568	-3.65497
H	155.618	0.567926	-3.82896
