44
  This energy is 0 and Call times are: 166409
C	0.384193	0.894157	3.34149
C	0.594114	1.13368	1.89591
O	1.02159	2.20451	1.48725
H	0.653812	1.81145	3.90873
H	1.02512	0.0562051	3.6876
H	-0.681093	0.650113	3.53822
N	0.290261	0.12414	1.07684
C	0.400747	0.221801	-0.357323
C	-0.619959	-0.715163	-0.975232
O	-1.24689	-1.51119	-0.278808
H	-0.0953804	-0.727076	1.42119
H	0.145079	1.22726	-0.667659
C	1.82578	-0.144088	-0.827051
H	2.08459	-1.17926	-0.51807
H	1.92749	-0.0593153	-1.92841
H	2.55667	0.549192	-0.356402
N	-0.817045	-0.635297	-2.30595
C	-1.77196	-1.4831	-2.98088
H	-0.303189	0.0179891	-2.85206
H	-1.78831	-1.26625	-4.07172
H	-2.79697	-1.32024	-2.57579
H	-1.51195	-2.55728	-2.84059
C	640.062	-3.07485	-1.23676
C	640.142	-1.59819	-1.17182
O	641.075	-0.9919	-1.6811
H	640.952	-3.46762	-1.77577
H	639.146	-3.38474	-1.78176
H	640.045	-3.50258	-0.212148
N	639.15	-0.977595	-0.530212
C	639.111	0.45199	-0.347539
C	638.344	0.7454	0.927892
O	637.741	-0.147932	1.52002
H	638.419	-1.48746	-0.0854629
H	640.12	0.821704	-0.209605
C	638.441	1.14455	-1.55425
H	637.403	0.773289	-1.68977
H	638.418	2.24682	-1.43188
H	639.014	0.909611	-2.47741
N	638.356	2.0122	1.38733
C	637.659	2.38438	2.59622
H	638.852	2.72046	0.896581
H	637.788	3.46881	2.80701
H	638.048	1.80906	3.46723
H	636.569	2.17308	2.50226
