44
  This energy is -4.0667 and Call times are: 185602
C	0.871242	-0.634594	-3.30922
C	1.19195	-0.15418	-1.94632
O	2.34415	0.0905414	-1.61622
H	1.81102	-0.731347	-3.89517
H	0.200981	0.0871958	-3.82158
H	0.375658	-1.62702	-3.25841
N	0.161122	-0.00867556	-1.1105
C	0.320137	0.408998	0.260204
C	-0.816086	-0.185675	1.07071
O	-1.75653	-0.751197	0.516214
H	-0.766195	-0.250992	-1.38111
H	1.24375	0.00220299	0.652747
C	0.316321	1.9494	0.371534
H	-0.635355	2.36652	-0.0213463
H	0.451939	2.28373	1.42051
H	1.15089	2.3633	-0.235535
N	-0.750256	-0.0779882	2.41238
C	-1.78275	-0.618423	3.26565
H	0.0207213	0.379536	2.84289
H	-1.54726	-0.429198	4.33614
H	-1.87919	-1.71839	3.11714
H	-2.76755	-0.151298	3.03519
C	996.919	2.52372	-1.20948
C	996.188	1.85217	-0.111509
O	996.382	2.15668	1.05728
H	997.621	3.27101	-0.779995
H	996.206	3.04555	-1.88137
H	997.5	1.77929	-1.79389
N	995.318	0.905347	-0.470082
C	994.564	0.134727	0.487139
C	994.266	-1.22063	-0.126048
O	994.509	-1.44308	-1.31056
H	995.201	0.640227	-1.42291
H	995.172	-0.035728	1.36684
C	993.252	0.857021	0.866757
H	992.623	1.02272	-0.0338532
H	992.669	0.28017	1.61373
H	993.494	1.8495	1.30601
N	993.737	-2.16648	0.674615
C	993.425	-3.48749	0.180438
H	993.551	-1.9689	1.63141
H	992.999	-4.11986	0.990065
H	994.342	-3.98734	-0.208737
H	992.684	-3.43218	-0.648997
