44
  This energy is 0 and Call times are: 164477
C	-2.10794	0.72205	2.67356
C	-0.7628	0.629363	2.0627
O	0.217585	1.10936	2.61483
H	-2.03841	1.28135	3.6318
H	-2.506	-0.293957	2.87854
H	-2.80107	1.26003	1.99295
N	-0.68679	0.000565878	0.887445
C	0.545423	-0.131437	0.150705
C	0.207053	-0.215119	-1.3258
O	-0.958561	-0.332039	-1.69914
H	-1.5	-0.34899	0.430968
H	1.14466	0.759022	0.294343
C	1.32481	-1.38693	0.599608
H	0.714499	-2.30176	0.442639
H	2.28225	-1.49212	0.0493521
H	1.55472	-1.30773	1.68461
N	1.22571	-0.148186	-2.2055
C	0.999395	-0.213922	-3.63051
H	2.16177	-0.0494578	-1.88436
H	1.96085	-0.141748	-4.18513
H	0.339874	0.62045	-3.96236
H	0.506507	-1.1742	-3.90632
C	504.229	-1.2678	0.285637
C	502.849	-1.32442	-0.247035
O	502.547	-2.10184	-1.14205
H	504.864	-1.99622	-0.263121
H	504.233	-1.52837	1.36491
H	504.65	-0.24937	0.149667
N	501.966	-0.484975	0.300102
C	500.597	-0.39377	-0.142167
C	500.107	1.01719	0.123747
O	500.785	1.80579	0.780329
H	502.237	0.170493	0.999511
H	500.556	-0.553136	-1.21247
C	499.71	-1.42249	0.592942
H	499.744	-1.2528	1.69027
H	498.656	-1.37164	0.251107
H	500.092	-2.44706	0.390641
N	498.914	1.37206	-0.391277
C	498.369	2.69523	-0.194764
H	498.382	0.721352	-0.923308
H	497.38	2.79176	-0.69514
H	499.052	3.46784	-0.616381
H	498.235	2.908	0.890575
