44
  This energy is 0 and Call times are: 159213
C	1.23376	1.39482	-2.94024
C	1.12433	0.280238	-1.97232
O	1.54621	-0.835906	-2.24185
H	1.71468	1.02603	-3.87222
H	1.85386	2.21165	-2.5148
H	0.224866	1.78735	-3.18753
N	0.542921	0.56346	-0.804356
C	0.326254	-0.427057	0.220579
C	-0.895304	-0.0187692	1.02223
O	-1.41699	1.08245	0.858269
H	0.167723	1.46647	-0.615507
H	0.103466	-1.37934	-0.244337
C	1.56127	-0.548964	1.13987
H	1.78393	0.425139	1.62524
H	1.41215	-1.31843	1.92486
H	2.44468	-0.840735	0.530931
N	-1.38736	-0.907062	1.90815
C	-2.54991	-0.608517	2.7116
H	-0.953957	-1.79468	2.02376
H	-2.79815	-1.4643	3.37736
H	-3.43229	-0.40097	2.06383
H	-2.36901	0.288892	3.34648
C	122.163	0.0833808	2.01445
C	123.622	0.233311	1.8106
O	124.332	0.73632	2.66974
H	121.886	0.50221	3.00621
H	121.881	-0.990125	1.98613
H	121.608	0.632164	1.22471
N	124.106	-0.205884	0.646789
C	125.497	-0.0891699	0.28643
C	125.588	0.0040873	-1.22507
O	124.599	-0.188942	-1.92856
H	123.509	-0.575571	-0.0592169
H	125.895	0.833237	0.690992
C	126.305	-1.29988	0.803722
H	125.904	-2.24557	0.380673
H	127.38	-1.21498	0.544558
H	126.218	-1.35312	1.91092
N	126.785	0.312837	-1.76168
C	126.966	0.428978	-3.18997
H	127.574	0.469509	-1.17593
H	128.02	0.689305	-3.43316
H	126.304	1.22239	-3.60644
H	126.716	-0.530849	-3.69717
