44
  This energy is 0.1195 and Call times are: 181565
C	-0.31155	-3.45093	0.326687
C	-0.868664	-2.08077	0.385341
O	-2.07202	-1.89097	0.496372
H	-1.14223	-4.18779	0.380441
H	0.375971	-3.62143	1.18166
H	0.23953	-3.59951	-0.625851
N	0.0103899	-1.07892	0.308331
C	-0.384061	0.307794	0.308601
C	0.655111	1.09528	-0.466994
O	1.70647	0.568141	-0.825433
H	0.982839	-1.24909	0.176983
H	-1.32545	0.411515	-0.21644
C	-0.506186	0.846345	1.75092
H	0.462187	0.749858	2.28663
H	-0.822821	1.90939	1.76485
H	-1.26606	0.250396	2.30208
N	0.378868	2.38293	-0.752786
C	1.30545	3.20887	-1.49132
H	-0.478955	2.79061	-0.457821
H	0.897351	4.23495	-1.62491
H	1.50089	2.77551	-2.49893
H	2.27827	3.28546	-0.953842
C	998.564	0.334427	0.0624753
C	997.223	0.552289	0.649937
O	997.092	0.960303	1.79576
H	999.34	0.579057	0.819324
H	998.705	0.990075	-0.822342
H	998.68	-0.727097	-0.241899
N	996.179	0.277709	-0.135825
C	994.813	0.399113	0.30942
C	993.972	-0.595518	-0.468228
O	994.445	-1.21147	-1.42118
H	996.301	-0.0926284	-1.05225
H	994.752	0.124687	1.3552
C	994.288	1.83591	0.095313
H	994.341	2.11413	-0.978898
H	993.242	1.94579	0.447032
H	994.924	2.54738	0.666988
N	992.698	-0.78216	-0.0711161
C	991.824	-1.71241	-0.747207
H	992.334	-0.277537	0.704762
H	990.818	-1.7235	-0.27215
H	992.242	-2.74434	-0.706833
H	991.703	-1.43062	-1.81823
