44
  This energy is 0 and Call times are: 170861
C	-1.27462	-1.2991	-2.96654
C	-0.907913	-0.161431	-2.0934
O	-0.887975	0.984314	-2.52151
H	-1.48559	-0.922661	-3.99108
H	-2.18246	-1.80462	-2.57539
H	-0.438455	-2.02808	-3.01665
N	-0.602279	-0.458773	-0.828267
C	-0.184768	0.535534	0.128601
C	0.718799	-0.136439	1.14525
O	0.84886	-1.35895	1.16141
H	-0.583334	-1.40068	-0.505294
H	0.403628	1.29184	-0.375799
C	-1.40452	1.17513	0.827423
H	-2.00269	0.401112	1.35385
H	-1.09673	1.95228	1.55669
H	-2.05567	1.6539	0.0637819
N	1.37479	0.653878	2.01766
C	2.26059	0.104068	3.01729
H	1.2599	1.64124	1.98632
H	2.70451	0.913725	3.63746
H	3.08986	-0.464424	2.53729
H	1.70964	-0.591666	3.69075
C	956.286	-0.506123	3.36845
C	956.175	0.274977	2.11591
O	955.377	1.19633	2.01274
H	955.548	-0.12269	4.10661
H	957.306	-0.404649	3.79407
H	956.073	-1.57791	3.17109
N	956.987	-0.0843913	1.11891
C	956.966	0.553212	-0.173981
C	957.417	-0.460376	-1.20873
O	957.878	-1.54737	-0.866194
H	957.603	-0.862748	1.20411
H	955.948	0.832192	-0.417918
C	957.887	1.79294	-0.193017
H	958.933	1.50566	0.0468379
H	957.868	2.30073	-1.17908
H	957.543	2.5174	0.577192
N	957.285	-0.128373	-2.50812
C	957.683	-1.03138	-3.56306
H	956.906	0.754179	-2.76566
H	957.495	-0.577059	-4.56093
H	957.111	-1.98548	-3.49949
H	958.767	-1.27318	-3.4857
