44
  This energy is 0 and Call times are: 168565
C	0.0161683	-2.32358	2.59103
C	0.59535	-1.74032	1.35997
O	1.71014	-2.06083	0.971478
H	0.748705	-3.02624	3.04439
H	-0.91385	-2.88009	2.34998
H	-0.212845	-1.52111	3.32362
N	-0.162173	-0.853639	0.710099
C	0.282161	-0.169545	-0.478658
C	-0.417462	1.1752	-0.539931
O	-1.32733	1.44789	0.240763
H	-1.05077	-0.572376	1.06103
H	1.34515	0.0229982	-0.403772
C	-0.0299986	-1.00041	-1.74256
H	-1.12156	-1.18924	-1.82548
H	0.319797	-0.490588	-2.66356
H	0.485611	-1.98305	-1.67239
N	0.00012805	2.05544	-1.47096
C	-0.602556	3.36166	-1.6004
H	0.740572	1.81814	-2.09104
H	-0.121415	3.93711	-2.42173
H	-0.491739	3.94079	-0.655099
H	-1.69007	3.27224	-1.82501
C	793.339	-1.10957	3.2813
C	793.761	-0.265252	2.14099
O	794.572	0.638431	2.28852
H	793.853	-0.763805	4.20431
H	793.611	-2.16955	3.09392
H	792.241	-1.03073	3.43033
N	793.207	-0.545198	0.958647
C	793.486	0.215814	-0.233711
C	792.27	0.141496	-1.13738
O	791.34	-0.620381	-0.880131
H	792.518	-1.2574	0.86254
H	793.628	1.25611	0.0314598
C	794.734	-0.333025	-0.959318
H	794.585	-1.39723	-1.24093
H	794.967	0.25325	-1.87169
H	795.61	-0.276326	-0.276778
N	792.245	0.94342	-2.22013
C	791.127	0.945411	-3.13418
H	793.006	1.5561	-2.40937
H	791.295	1.67193	-3.95952
H	790.188	1.22701	-2.60512
H	790.982	-0.0650932	-3.58034
