44
  This energy is 0 and Call times are: 158373
C	-0.388096	3.41505	0.547295
C	0.44201	2.19095	0.486883
O	1.66303	2.25139	0.530055
H	0.274497	4.30524	0.613591
H	-1.04475	3.38837	1.44219
H	-1.01276	3.49931	-0.366917
N	-0.214556	1.03328	0.381492
C	0.456662	-0.237704	0.26913
C	-0.441393	-1.17956	-0.510591
O	-1.59799	-0.864681	-0.784172
H	-1.20718	1.00321	0.306269
H	1.36682	-0.111596	-0.303878
C	0.771419	-0.820612	1.66426
H	-0.162987	-0.960047	2.24862
H	1.3007	-1.79275	1.59115
H	1.42303	-0.111344	2.21987
N	0.0771952	-2.36219	-0.895928
C	-0.700786	-3.32013	-1.64644
H	1.01641	-2.59736	-0.668676
H	-0.0984298	-4.22854	-1.86819
H	-1.04002	-2.88021	-2.61219
H	-1.60375	-3.62954	-1.07194
C	64.2432	-3.32378	0.701749
C	64.0249	-1.87107	0.883683
O	63.0457	-1.44826	1.48278
H	63.4004	-3.88254	1.1637
H	65.1905	-3.63269	1.19152
H	64.2886	-3.57143	-0.379769
N	64.9481	-1.0619	0.359035
C	64.8509	0.375346	0.417565
C	65.5731	0.947713	-0.787606
O	66.2496	0.225987	-1.51775
H	65.7182	-1.41973	-0.161258
H	63.8109	0.666558	0.338723
C	65.4673	0.917159	1.72588
H	66.5371	0.627627	1.80222
H	65.3862	2.02166	1.7892
H	64.9287	0.479024	2.59435
N	65.4379	2.26654	-1.02934
C	66.0838	2.89858	-2.15607
H	64.883	2.83343	-0.42955
H	65.8512	3.98594	-2.18359
H	65.74	2.44233	-3.11259
H	67.1896	2.77783	-2.0938
