44
  This energy is 0 and Call times are: 168789
C	2.4418	0.74357	-2.36588
C	1.76395	-0.194811	-1.44333
O	1.99461	-1.3956	-1.4796
H	3.11849	0.17292	-3.03844
H	3.04306	1.47857	-1.79054
H	1.69202	1.28201	-2.98312
N	0.895796	0.342124	-0.582873
C	0.12794	-0.447976	0.34702
C	-1.1717	0.282527	0.627845
O	-1.34837	1.43082	0.22545
H	0.688254	1.31613	-0.592977
H	-0.126951	-1.39426	-0.113635
C	0.913994	-0.677423	1.65649
H	1.16658	0.292801	2.13493
H	0.338862	-1.29625	2.37538
H	1.86464	-1.20612	1.42604
N	-2.12082	-0.37473	1.32298
C	-3.39146	0.238126	1.63292
H	-1.96096	-1.30487	1.6366
H	-4.03537	-0.461794	2.20973
H	-3.92952	0.520515	0.699097
H	-3.24515	1.161	2.23958
C	808.663	-0.0573971	3.46348
C	808.342	0.504143	2.13199
O	807.428	1.30389	1.98582
H	807.952	0.350621	4.21504
H	809.696	0.221495	3.75744
H	808.57	-1.16378	3.44471
N	809.099	0.0881521	1.11428
C	808.881	0.512514	-0.246141
C	809.361	-0.591775	-1.16895
O	809.985	-1.55475	-0.727307
H	809.813	-0.594312	1.24218
H	807.818	0.635459	-0.415748
C	809.632	1.82928	-0.540721
H	810.723	1.70072	-0.377027
H	809.461	2.1738	-1.58111
H	809.271	2.6209	0.151312
N	809.071	-0.480738	-2.48039
C	809.483	-1.48557	-3.43297
H	808.562	0.303773	-2.81823
H	809.15	-1.21417	-4.45911
H	809.044	-2.47617	-3.17293
H	810.592	-1.59019	-3.43982
