44
  This energy is -2.7389 and Call times are: 186625
C	-1.11975	3.27039	0.404204
C	-0.897589	1.89709	0.909986
O	-1.03188	1.62994	2.09616
H	-1.38741	3.93581	1.25359
H	-1.94994	3.27709	-0.333011
H	-0.195701	3.65532	-0.0764843
N	-0.544306	0.981298	0.0050549
C	-0.252235	-0.387238	0.351992
C	0.740695	-0.929792	-0.658592
O	1.03007	-0.286012	-1.66533
H	-0.399133	1.22287	-0.95016
H	0.227378	-0.415184	1.32247
C	-1.53903	-1.24126	0.359045
H	-2.0258	-1.22146	-0.639299
H	-1.32929	-2.29414	0.638297
H	-2.25413	-0.821362	1.09976
N	1.29517	-2.132	-0.407035
C	2.25431	-2.72569	-1.30912
H	1.05153	-2.63602	0.41496
H	2.59377	-3.71381	-0.927532
H	3.14664	-2.06821	-1.42195
H	1.80539	-2.87453	-2.31781
C	994.923	-3.08647	1.5515
C	994.996	-2.20288	0.366103
O	995.572	-2.55727	-0.653279
H	995.467	-4.03254	1.33818
H	993.865	-3.32519	1.7867
H	995.394	-2.59143	2.42712
N	994.404	-1.01115	0.477159
C	994.428	-0.0266406	-0.575809
C	994.337	1.34792	0.0597833
O	994.098	1.47261	1.25921
H	993.975	-0.720819	1.32752
H	995.377	-0.0804928	-1.09423
C	993.259	-0.245337	-1.56156
H	992.285	-0.179716	-1.0321
H	993.274	0.498077	-2.38474
H	993.341	-1.26014	-2.00854
N	994.537	2.4183	-0.734171
C	994.476	3.76532	-0.216512
H	994.734	2.29713	-1.70143
H	994.668	4.50597	-1.0239
H	995.238	3.91365	0.583234
H	993.472	3.97373	0.219524
