44
  This energy is 0 and Call times are: 158821
C	1.44632	-2.85452	1.36842
C	1.35485	-1.38497	1.21611
O	1.96868	-0.632101	1.95962
H	2.10947	-3.09412	2.2279
H	1.87149	-3.30885	0.448878
H	0.439953	-3.28269	1.56074
N	0.570386	-0.937961	0.232656
C	0.347609	0.465297	-0.0118817
C	-1.02618	0.62446	-0.635526
O	-1.67055	-0.357661	-0.998761
H	0.0450085	-1.5624	-0.338241
H	0.336509	0.995118	0.932468
C	1.43552	1.0424	-0.943886
H	1.44028	0.506171	-1.91675
H	1.28291	2.12549	-1.12869
H	2.43289	0.907915	-0.471107
N	-1.51224	1.87447	-0.766852
C	-2.81276	2.12305	-1.34394
H	-0.977744	2.65629	-0.463294
H	-3.03203	3.21333	-1.36443
H	-3.60874	1.61656	-0.751355
H	-2.86019	1.73599	-2.38753
C	93.9729	0.625823	-1.59934
C	95.2539	-0.105288	-1.47403
O	95.4784	-1.1075	-2.13857
H	93.324	0.10595	-2.33722
H	94.157	1.66293	-1.95045
H	93.4513	0.654604	-0.619465
N	96.1359	0.388081	-0.60167
C	97.4078	-0.237786	-0.338586
C	97.812	0.0927619	1.08583
O	97.1799	0.916155	1.74484
H	95.9224	1.18106	-0.0382323
H	97.2965	-1.31311	-0.401014
C	98.4812	0.254258	-1.33404
H	98.6033	1.35611	-1.26294
H	99.4618	-0.230826	-1.15059
H	98.1608	0.008939	-2.37015
N	98.8775	-0.552926	1.59927
C	99.3324	-0.30741	2.94798
H	99.3737	-1.21878	1.05197
H	100.22	-0.934476	3.18384
H	98.5296	-0.546045	3.68278
H	99.6136	0.762541	3.07929
