44
  This energy is 0 and Call times are: 160109
C	0.906318	-2.66282	2.04955
C	0.618913	-2.08154	0.718888
O	0.883018	-2.69082	-0.308458
H	1.38178	-3.65935	1.92011
H	-0.0352684	-2.78589	2.62488
H	1.60022	-2.00407	2.61314
N	0.0636757	-0.867463	0.709008
C	-0.23444	-0.155018	-0.50841
C	-0.162093	1.33188	-0.216098
O	-0.0485783	1.74217	0.937373
H	-0.107754	-0.366989	1.55281
H	0.526058	-0.375942	-1.24697
C	-1.63341	-0.534649	-1.04133
H	-2.41505	-0.298441	-0.288152
H	-1.86906	-0.00302502	-1.98599
H	-1.66589	-1.62805	-1.24075
N	-0.218123	2.17842	-1.26313
C	-0.151105	3.60984	-1.08228
H	-0.305907	1.82734	-2.18947
H	-0.212932	4.1333	-2.06176
H	0.805586	3.89919	-0.590042
H	-0.990305	3.96475	-0.441239
C	190.182	3.26367	0.254596
C	189.726	2.1009	-0.540104
O	189.491	2.20456	-1.73611
H	190.237	4.15856	-0.402615
H	191.188	3.06627	0.679102
H	189.466	3.46744	1.07924
N	189.587	0.948761	0.119935
C	189.111	-0.258541	-0.508185
C	188.419	-1.09969	0.547539
O	188.48	-0.793563	1.73675
H	189.743	0.889722	1.10183
H	188.37	-0.0041765	-1.25534
C	190.277	-1.04419	-1.1476
H	191.033	-1.31453	-0.379624
H	189.922	-1.96902	-1.64651
H	190.774	-0.406731	-1.91112
N	187.732	-2.18241	0.132886
C	187.037	-3.03909	1.06499
H	187.69	-2.41159	-0.833975
H	186.532	-3.87417	0.530664
H	186.264	-2.46441	1.62556
H	187.747	-3.47416	1.80438
