44
  This energy is 0 and Call times are: 164701
C	-0.443029	-1.13628	3.25964
C	-0.386458	-0.0515251	2.25403
O	-0.761709	1.08126	2.52311
H	-0.873943	-0.739198	4.20438
H	0.577806	-1.52188	3.46446
H	-1.08434	-1.96523	2.89268
N	0.0904089	-0.381406	1.05147
C	0.166474	0.554964	-0.0421387
C	0.0517508	-0.22283	-1.33961
O	0.083891	-1.45192	-1.34203
H	0.353686	-1.31721	0.835092
H	-0.679415	1.22937	0.00553374
C	1.4925	1.34562	-0.000230998
H	2.36052	0.654935	-0.059737
H	1.55702	2.07977	-0.829315
H	1.55866	1.90059	0.961006
N	-0.0942148	0.480802	-2.47962
C	-0.216701	-0.173613	-3.76139
H	-0.122117	1.47467	-2.45702
H	-0.328459	0.575264	-4.5762
H	-1.10662	-0.843745	-3.77681
H	0.684987	-0.792173	-3.97465
C	519.093	1.50403	2.33844
C	517.954	1.54219	1.39447
O	517.177	2.48727	1.37745
H	519.076	2.41717	2.97227
H	520.052	1.47262	1.77966
H	519.018	0.610486	2.9934
N	517.826	0.495312	0.575883
C	516.743	0.369346	-0.367462
C	516.479	-1.10793	-0.589613
O	517.242	-1.95924	-0.137698
H	518.442	-0.285313	0.62963
H	515.845	0.796941	0.0605284
C	517.091	1.06397	-1.70236
H	518.006	0.618563	-2.1471
H	516.259	0.985906	-2.43238
H	517.288	2.14201	-1.51463
N	515.378	-1.44796	-1.28905
C	515.042	-2.82911	-1.54565
H	514.77	-0.744979	-1.64319
H	514.102	-2.90222	-2.13545
H	514.9	-3.38296	-0.589451
H	515.856	-3.3315	-2.118
