44
  This energy is 0 and Call times are: 160949
C	1.48985	1.25368	2.88467
C	0.567024	1.37978	1.73418
O	-0.237595	2.29865	1.66588
H	1.29579	2.07931	3.60338
H	2.5431	1.318	2.53929
H	1.32865	0.283341	3.39999
N	0.66388	0.440844	0.790038
C	-0.195213	0.405593	-0.367233
C	-0.331399	-1.03862	-0.811377
O	0.366605	-1.91939	-0.312627
H	1.29569	-0.323778	0.879705
H	-1.18286	0.752203	-0.0896487
C	0.381442	1.27114	-1.50896
H	1.39028	0.909424	-1.80129
H	-0.278037	1.26329	-2.4009
H	0.479868	2.32196	-1.15906
N	-1.24644	-1.31723	-1.76065
C	-1.45041	-2.66368	-2.24192
H	-1.8047	-0.591714	-2.14929
H	-2.24503	-2.68708	-3.0199
H	-1.75615	-3.33667	-1.40832
H	-0.512434	-3.06861	-2.6862
C	245.636	0.569887	-0.685753
C	246.721	-0.192384	-0.0277352
O	246.476	-1.02505	0.834469
H	244.658	0.263855	-0.25431
H	245.629	0.361305	-1.77625
H	245.777	1.65854	-0.518777
N	247.965	0.0825641	-0.425843
C	249.127	-0.546202	0.151934
C	250.293	0.417179	0.0359101
O	250.194	1.44918	-0.625059
H	248.151	0.792136	-1.09953
H	248.953	-0.716735	1.20709
C	249.449	-1.87532	-0.565615
H	249.638	-1.6995	-1.64613
H	250.333	-2.37603	-0.120847
H	248.579	-2.56173	-0.474721
N	251.43	0.10389	0.68778
C	252.59	0.962969	0.639686
H	251.49	-0.733572	1.22087
H	253.423	0.53311	1.23879
H	252.349	1.97144	1.04742
H	252.942	1.0899	-0.409704
