44
  This energy is 0 and Call times are: 167949
C	-2.12565	2.15837	1.7134
C	-1.03057	1.89876	0.751862
O	-0.608388	2.78296	0.0194958
H	-2.45558	3.21565	1.61762
H	-1.7725	1.98476	2.75162
H	-2.98805	1.49209	1.50025
N	-0.540466	0.657083	0.731695
C	0.496871	0.241728	-0.179332
C	0.324099	-1.24127	-0.448428
O	-0.478337	-1.90977	0.200356
H	-0.922251	-0.0622188	1.30503
H	0.371077	0.757612	-1.12309
C	1.89558	0.525613	0.410813
H	2.02905	-0.0118328	1.37381
H	2.70284	0.222892	-0.287188
H	1.99679	1.61536	0.607165
N	1.07282	-1.79099	-1.42478
C	0.972512	-3.19341	-1.7554
H	1.71365	-1.233	-1.94156
H	1.66773	-3.45281	-2.58402
H	-0.0639473	-3.44853	-2.07469
H	1.22718	-3.8244	-0.87328
C	746.077	0.917976	1.65097
C	747.277	1.24325	0.848354
O	747.413	2.34291	0.33004
H	745.393	1.79406	1.65988
H	746.368	0.678753	2.69535
H	745.544	0.0502705	1.20803
N	748.189	0.275451	0.724679
C	749.388	0.427977	-0.0606219
C	749.799	-0.941537	-0.568143
O	749.239	-1.95784	-0.160328
H	748.045	-0.627981	1.1183
H	749.173	1.04158	-0.926452
C	750.522	1.05606	0.779662
H	750.75	0.421558	1.66235
H	751.446	1.19147	0.182247
H	750.196	2.0538	1.14715
N	750.786	-0.999164	-1.48282
C	751.24	-2.25776	-2.02708
H	751.224	-0.165642	-1.80366
H	752.058	-2.09582	-2.76351
H	750.405	-2.78719	-2.54108
H	751.623	-2.92075	-1.21778
