44
  This energy is 0 and Call times are: 170721
C	2.34332	-1.05251	2.34813
C	1.06737	-0.396401	1.984
O	0.241278	-0.101607	2.8367
H	2.37112	-1.2171	3.44723
H	3.20068	-0.408871	2.05934
H	2.42895	-2.03384	1.83554
N	0.875236	-0.151712	0.685701
C	-0.334712	0.441914	0.17365
C	-0.539394	-0.051405	-1.24631
O	0.33752	-0.691746	-1.82311
H	1.53904	-0.434585	-0.000746548
H	-1.17754	0.0970311	0.759589
C	-0.248577	1.98363	0.204128
H	0.609649	2.33849	-0.405432
H	-1.17971	2.4526	-0.174794
H	-0.0907987	2.32175	1.25157
N	-1.71445	0.230355	-1.84286
C	-2.00097	-0.202795	-3.19063
H	-2.41334	0.746139	-1.35852
H	-3.01704	0.125905	-3.50171
H	-1.95397	-1.31347	-3.2646
H	-1.26033	0.222488	-3.90598
C	948.928	-1.18774	2.64271
C	948.776	-0.447076	1.37011
O	949.679	0.253241	0.933675
H	949.929	-0.973014	3.07543
H	948.841	-2.27986	2.4626
H	948.148	-0.869345	3.36617
N	947.609	-0.586534	0.737963
C	947.297	0.105063	-0.488039
C	945.795	0.310265	-0.546595
O	945.053	-0.229248	0.272224
H	946.868	-1.12755	1.12641
H	947.756	1.08565	-0.471692
C	947.782	-0.699544	-1.71394
H	947.303	-1.70169	-1.73694
H	947.56	-0.170885	-2.66359
H	948.882	-0.844518	-1.64602
N	945.31	1.10783	-1.51869
C	943.895	1.36586	-1.64928
H	945.927	1.53882	-2.16946
H	943.697	2.04489	-2.50765
H	943.496	1.84337	-0.725167
H	943.336	0.41669	-1.81638
