44
  This energy is 0 and Call times are: 163469
C	0.28887	-1.64715	3.05224
C	0.252238	-0.413003	2.23573
O	0.170254	0.689793	2.75873
H	0.213623	-1.37803	4.12824
H	1.24278	-2.1896	2.88332
H	-0.563585	-2.30728	2.78646
N	0.310985	-0.57533	0.911879
C	0.242417	0.527745	-0.0139099
C	-0.362225	0.020833	-1.30967
O	-0.547076	-1.18118	-1.49054
H	0.336219	-1.48153	0.499536
H	-0.425674	1.28356	0.379823
C	1.64468	1.12332	-0.267278
H	2.32754	0.351	-0.681106
H	1.6034	1.98238	-0.967871
H	2.07113	1.48052	0.695477
N	-0.694048	0.933532	-2.24397
C	-1.28012	0.54503	-3.50562
H	-0.540646	1.90198	-2.07767
H	-1.48138	1.43813	-4.13735
H	-2.24203	0.00698456	-3.34276
H	-0.595586	-0.133148	-4.06475
C	429.153	-3.41792	0.638141
C	428.514	-2.23527	0.017919
O	427.626	-2.35891	-0.813644
H	428.707	-4.34237	0.211366
H	428.985	-3.41167	1.73573
H	430.244	-3.41658	0.430749
N	428.963	-1.04211	0.414578
C	428.47	0.198275	-0.12999
C	429.58	1.22829	-0.0421002
O	430.614	0.988212	0.57818
H	429.715	-0.958213	1.06203
H	428.239	0.0611822	-1.17913
C	427.221	0.681007	0.640237
H	427.46	0.831915	1.71463
H	426.823	1.62819	0.221597
H	426.425	-0.0915446	0.569101
N	429.393	2.40438	-0.672946
C	430.397	3.44271	-0.648995
H	428.552	2.57858	-1.17317
H	430.057	4.33155	-1.22495
H	431.35	3.0783	-1.09677
H	430.607	3.76211	0.397395
