44
  This energy is 0 and Call times are: 170357
C	1.52216	1.52156	-2.73506
C	0.821847	0.382393	-2.10024
O	0.390956	-0.547444	-2.76818
H	1.5486	1.36909	-3.83594
H	2.56373	1.58947	-2.35655
H	0.987053	2.46967	-2.51634
N	0.689187	0.432587	-0.772741
C	-0.00597782	-0.580597	-0.0185776
C	-0.580484	0.0676449	1.22693
O	-0.280613	1.22022	1.53248
H	1.0091	1.21577	-0.247249
H	-0.838953	-0.951973	-0.602413
C	0.946126	-1.7355	0.362135
H	1.79526	-1.35671	0.970018
H	0.419415	-2.5287	0.931285
H	1.36076	-2.1898	-0.564165
N	-1.43248	-0.660965	1.97477
C	-2.0331	-0.125547	3.17425
H	-1.66618	-1.59041	1.70908
H	-2.70314	-0.876701	3.64758
H	-2.63456	0.782714	2.94062
H	-1.24923	0.159989	3.9126
C	917.614	0.771362	-0.224243
C	918.977	1.02606	0.293707
O	919.246	2.06221	0.885757
H	916.965	1.6452	0.00310798
H	917.183	-0.130972	0.258684
H	917.644	0.622807	-1.32428
N	919.883	0.0698284	0.0759631
C	921.26	0.192301	0.482366
C	922.109	-0.629912	-0.469122
O	921.586	-1.3811	-1.29027
H	919.659	-0.750039	-0.443323
H	921.572	1.22459	0.382471
C	921.452	-0.29297	1.93599
H	921.143	-1.35509	2.03666
H	922.506	-0.190759	2.26538
H	920.816	0.317336	2.61353
N	923.448	-0.499063	-0.385225
C	924.335	-1.23724	-1.2533
H	923.852	0.116854	0.282899
H	925.397	-0.992833	-1.02982
H	924.136	-0.989716	-2.32114
H	924.192	-2.33412	-1.12069
