44
  This energy is 0 and Call times are: 163217
C	1.79213	0.548356	2.93262
C	1.07196	-0.339291	1.9921
O	1.12306	-1.55625	2.10528
H	2.34507	-0.0710439	3.67186
H	1.07193	1.19692	3.47431
H	2.51771	1.1825	2.38082
N	0.374909	0.261476	1.02485
C	-0.342141	-0.469379	0.00983554
C	-0.396047	0.387525	-1.24091
O	-0.0258578	1.55976	-1.21764
H	0.376212	1.25199	0.921147
H	0.20779	-1.36853	-0.238632
C	-1.76823	-0.821229	0.487023
H	-2.33633	0.101421	0.732008
H	-2.32584	-1.39619	-0.280454
H	-1.70459	-1.44166	1.40754
N	-0.854101	-0.184787	-2.37169
C	-0.936249	0.551216	-3.61175
H	-1.14523	-1.13574	-2.37172
H	-1.33698	-0.0926675	-4.42541
H	0.0701891	0.91774	-3.91837
H	-1.60629	1.43435	-3.50101
C	408.856	-2.73862	-0.128812
C	410.172	-2.12651	0.160654
O	411.038	-2.74369	0.765527
H	408.827	-3.76509	0.297043
H	408.695	-2.79988	-1.22571
H	408.044	-2.13573	0.330351
N	410.353	-0.876129	-0.270889
C	411.565	-0.133458	-0.0272323
C	411.214	1.34191	0.017312
O	410.093	1.73275	-0.301831
H	409.625	-0.372378	-0.725877
H	411.958	-0.40102	0.945489
C	412.611	-0.408298	-1.12914
H	412.212	-0.124126	-2.12605
H	413.554	0.147142	-0.945357
H	412.847	-1.49482	-1.14889
N	412.17	2.19965	0.425461
C	411.926	3.62106	0.505048
H	413.07	1.86401	0.68353
H	412.834	4.15637	0.861649
H	411.092	3.83752	1.21071
H	411.648	4.02871	-0.493798
