44
  This energy is 0 and Call times are: 167193
C	0.65075	3.04596	-1.55285
C	0.56911	2.18784	-0.349473
O	1.02568	2.5573	0.723586
H	1.17937	3.98958	-1.29589
H	-0.368753	3.2928	-1.91675
H	1.21393	2.52587	-2.35624
N	-0.0230575	1.00153	-0.505611
C	-0.139374	0.0402191	0.562522
C	-0.17478	-1.34674	-0.0511848
O	-0.272931	-1.49478	-1.26781
H	-0.353251	0.697992	-1.39483
H	0.742525	0.0934807	1.18866
C	-1.41298	0.295303	1.39805
H	-2.31875	0.230347	0.758211
H	-1.50667	-0.429939	2.23217
H	-1.36915	1.31859	1.83083
N	-0.0865013	-2.40183	0.782501
C	-0.106256	-3.75905	0.288792
H	-0.00351455	-2.26189	1.76362
H	-0.0225642	-4.4841	1.12815
H	0.742051	-3.93453	-0.411817
H	-1.05444	-3.96431	-0.258885
C	697.745	-1.66121	-1.34902
C	697.141	-0.700296	-0.398636
O	697.79	-0.23267	0.526828
H	698.799	-1.85637	-1.05414
H	697.731	-1.24249	-2.37723
H	697.184	-2.61936	-1.3327
N	695.862	-0.381633	-0.60925
C	695.125	0.506301	0.255721
C	693.66	0.116497	0.197376
O	693.26	-0.705624	-0.624368
H	695.335	-0.801897	-1.34252
H	695.456	0.36554	1.27718
C	695.312	1.97735	-0.176095
H	694.963	2.12458	-1.2204
H	694.761	2.67203	0.490624
H	696.392	2.23824	-0.133425
N	692.824	0.695965	1.08049
C	691.414	0.382801	1.10346
H	693.167	1.35581	1.74048
H	690.895	0.960871	1.89995
H	691.256	-0.702595	1.29889
H	690.94	0.630127	0.125848
