44
  This energy is -2.6827 and Call times are: 177146
C	-2.53437	2.3188	-0.559287
C	-1.81888	1.35328	0.304984
O	-2.0483	1.28674	1.50471
H	-3.23577	2.91771	0.0613868
H	-3.11408	1.77932	-1.33751
H	-1.81052	3.00514	-1.04721
N	-0.918701	0.572096	-0.296535
C	-0.113288	-0.385646	0.419424
C	1.19487	-0.557356	-0.329443
O	1.35323	-0.060038	-1.44269
H	-0.713727	0.666248	-1.26658
H	0.125266	0.0095063	1.399
C	-0.846829	-1.73891	0.545278
H	-1.08243	-2.14982	-0.459551
H	-0.24263	-2.48068	1.10674
H	-1.8047	-1.58793	1.08938
N	2.17191	-1.26375	0.272566
C	3.45248	-1.47478	-0.361313
H	2.02642	-1.65497	1.17526
H	4.11999	-2.07863	0.292148
H	3.95286	-0.501353	-0.569487
H	3.3282	-2.01293	-1.32883
C	994.889	-2.00864	2.6251
C	994.265	-1.82714	1.29552
O	994.051	-2.78168	0.561014
H	995.114	-3.08613	2.78133
H	994.198	-1.66641	3.42308
H	995.836	-1.43179	2.68484
N	993.955	-0.574893	0.951101
C	993.382	-0.235626	-0.327446
C	993.803	1.18023	-0.673758
O	994.375	1.88739	0.153484
H	994.173	0.196149	1.54267
H	993.792	-0.888979	-1.08749
C	991.842	-0.348903	-0.289061
H	991.42	0.328984	0.483306
H	991.39	-0.103556	-1.27169
H	991.557	-1.39101	-0.0260164
N	993.534	1.62588	-1.9169
C	993.902	2.95748	-2.33836
H	993.074	1.03751	-2.57362
H	993.597	3.1346	-3.39314
H	995.004	3.1027	-2.26354
H	993.409	3.72317	-1.69695
