44
  This energy is 0.1195 and Call times are: 176748
C	-3.30226	0.147415	1.08907
C	-1.95534	-0.466554	1.09162
O	-1.64448	-1.30723	1.92412
H	-3.89628	-0.266719	1.93257
H	-3.8246	-0.0797893	0.13603
H	-3.22138	1.24798	1.21276
N	-1.1117	-0.0505119	0.144226
C	0.246393	-0.52414	0.0451903
C	1.08416	0.570756	-0.587983
O	0.554489	1.5714	-1.06744
H	-1.36571	0.664265	-0.501097
H	0.638325	-0.6957	1.03997
C	0.319764	-1.81714	-0.796237
H	-0.0724417	-1.63898	-1.82018
H	1.35858	-2.1995	-0.868331
H	-0.306762	-2.60184	-0.318668
N	2.42194	0.408597	-0.596507
C	3.29994	1.40044	-1.1723
H	2.83226	-0.405977	-0.200044
H	4.3627	1.08492	-1.08175
H	3.17969	2.37952	-0.654405
H	3.06924	1.55032	-2.25187
C	992.794	0.0518193	0.922155
C	993.885	-0.319412	-0.00748896
O	993.692	-1.09784	-0.931148
H	991.867	-0.490852	0.636155
H	992.602	1.14409	0.869821
H	993.067	-0.225906	1.96216
N	995.076	0.237924	0.22228
C	996.243	-0.0591536	-0.570343
C	997.469	0.122576	0.305466
O	997.374	0.623074	1.42453
H	995.228	0.837877	1.00259
H	996.214	-1.09846	-0.873061
C	996.32	0.86313	-1.80678
H	996.36	1.92902	-1.49645
H	997.207	0.634937	-2.43263
H	995.409	0.719237	-2.42888
N	998.654	-0.290804	-0.184247
C	999.873	-0.163381	0.579562
H	998.71	-0.697118	-1.09028
H	1000.74	-0.559929	0.00602562
H	999.798	-0.728802	1.53661
H	1000.07	0.904761	0.824485
