44
  This energy is 0 and Call times are: 168117
C	3.02837	0.764977	-1.53508
C	2.22858	0.377885	-0.351175
O	2.76666	-0.00386795	0.678943
H	4.10827	0.62743	-1.30974
H	2.84688	1.8308	-1.7877
H	2.75864	0.128262	-2.40395
N	0.902375	0.467518	-0.4758
C	-0.00825238	0.0853456	0.574562
C	-1.30722	-0.365584	-0.0664582
O	-1.50302	-0.209234	-1.27017
H	0.477874	0.740916	-1.33424
H	0.399263	-0.763529	1.10933
C	-0.261573	1.26327	1.54077
H	-0.689485	2.13076	0.994509
H	-0.95043	0.977471	2.36194
H	0.703431	1.58184	1.99202
N	-2.2274	-0.947478	0.727706
C	-3.49078	-1.41332	0.205181
H	-2.04909	-1.06897	1.69854
H	-4.10943	-1.8616	1.01359
H	-3.32968	-2.18529	-0.581825
H	-4.06274	-0.57183	-0.248593
C	764.134	1.16577	0.964475
C	762.68	0.998821	1.18784
O	762.171	1.26528	2.26771
H	764.61	1.52898	1.90106
H	764.315	1.90762	0.158383
H	764.592	0.194349	0.681912
N	761.97	0.54369	0.153522
C	760.553	0.289388	0.231428
C	760.215	-0.812349	-0.755315
O	761.051	-1.21181	-1.56369
H	762.405	0.292378	-0.70636
H	760.309	-0.0778874	1.22067
C	759.745	1.56679	-0.0857475
H	759.986	1.93803	-1.10458
H	758.652	1.3874	-0.0154885
H	760.014	2.36176	0.643626
N	758.975	-1.33774	-0.705588
C	758.565	-2.39379	-1.60161
H	758.314	-1.00421	-0.0417746
H	757.511	-2.6904	-1.40388
H	759.212	-3.29163	-1.47257
H	758.643	-2.06174	-2.66219
