44
  This energy is -4.1659 and Call times are: 184149
C	1.50184	1.67944	-2.65267
C	0.472451	0.769503	-2.10174
O	-0.481488	0.409682	-2.77772
H	1.23296	1.94868	-3.69722
H	2.49322	1.17952	-2.65425
H	1.55698	2.60737	-2.04522
N	0.645473	0.373091	-0.838694
C	-0.294157	-0.477477	-0.151532
C	-0.218072	-0.165386	1.33116
O	0.663002	0.567772	1.77602
H	1.40517	0.707113	-0.288099
H	-1.29812	-0.239397	-0.480177
C	0.020599	-1.96756	-0.408074
H	1.04664	-2.2148	-0.0614565
H	-0.704335	-2.63259	0.104504
H	-0.0330346	-2.17131	-1.49984
N	-1.15208	-0.712297	2.13399
C	-1.16267	-0.467305	3.55738
H	-1.85949	-1.29963	1.75493
H	-2.00735	-1.00426	4.04257
H	-1.2723	0.621268	3.76777
H	-0.212197	-0.814919	4.02312
C	994.424	3.22982	1.29434
C	993.767	1.9504	0.944419
O	992.636	1.69318	1.33185
H	993.742	3.8303	1.9342
H	994.654	3.80645	0.373723
H	995.364	3.03695	1.85349
N	994.476	1.10527	0.192495
C	993.988	-0.195307	-0.192806
C	995.182	-1.11265	-0.379564
O	996.327	-0.666438	-0.364274
H	995.412	1.31143	-0.0808993
H	993.389	-0.604673	0.611323
C	993.161	-0.110717	-1.49456
H	993.778	0.29935	-2.32245
H	992.768	-1.1037	-1.79421
H	992.298	0.571816	-1.33717
N	994.939	-2.42687	-0.552994
C	996.013	-3.37621	-0.733002
H	994.006	-2.76958	-0.558306
H	995.611	-4.40552	-0.859175
H	996.693	-3.37157	0.149168
H	996.615	-3.12196	-1.635
