44
  This energy is 0 and Call times are: 164645
C	-3.12429	0.976062	1.18271
C	-2.26359	0.194371	0.26658
O	-2.72878	-0.690991	-0.437791
H	-4.16996	0.605756	1.10972
H	-3.10329	2.05058	0.903957
H	-2.77394	0.859151	2.22994
N	-0.96617	0.509033	0.258149
C	0.00198719	-0.19136	-0.548499
C	1.3458	-0.113279	0.151229
O	1.50345	0.609545	1.13326
H	-0.595614	1.20449	0.867167
H	-0.271213	-1.23761	-0.606435
C	0.0910177	0.424199	-1.96215
H	0.381549	1.49482	-1.90381
H	0.823203	-0.115109	-2.59742
H	-0.905178	0.363425	-2.4523
N	2.34979	-0.868034	-0.337018
C	3.66188	-0.86288	0.266768
H	2.2018	-1.44972	-1.13
H	4.34823	-1.54788	-0.278145
H	3.60672	-1.19413	1.32908
H	4.09971	0.161351	0.246817
C	512.44	3.04284	1.59373
C	513.121	2.21026	0.576895
O	513.796	2.71788	-0.307983
H	512.641	4.11597	1.38447
H	512.82	2.79683	2.60729
H	511.344	2.86921	1.5586
N	512.954	0.889902	0.682029
C	513.518	-0.0460743	-0.257898
C	512.624	-1.27084	-0.301137
O	511.709	-1.41138	0.507922
H	512.368	0.494003	1.38342
H	513.512	0.393405	-1.24756
C	514.955	-0.438794	0.150365
H	514.961	-0.899332	1.16126
H	515.406	-1.14853	-0.573126
H	515.59	0.473672	0.183237
N	512.865	-2.18744	-1.25917
C	512.063	-3.38217	-1.38117
H	513.608	-2.05414	-1.9073
H	512.417	-4.00924	-2.22867
H	510.995	-3.12126	-1.56116
H	512.117	-3.98928	-0.448659
