44
  This energy is -4.1816 and Call times are: 181309
C	2.49506	1.79481	-1.6328
C	1.20891	1.71873	-0.903982
O	0.652078	2.72847	-0.495609
H	2.81619	2.85692	-1.70121
H	2.37796	1.38795	-2.6592
H	3.27533	1.21751	-1.09335
N	0.702266	0.497281	-0.72026
C	-0.519443	0.259993	0.00753344
C	-0.439913	-1.12246	0.627248
O	0.473274	-1.8921	0.334901
H	1.18764	-0.31809	-1.02267
H	-0.596267	0.973197	0.818748
C	-1.74631	0.365779	-0.924588
H	-1.67312	-0.372894	-1.75105
H	-2.69421	0.19873	-0.373143
H	-1.77996	1.38272	-1.37297
N	-1.39742	-1.46783	1.51039
C	-1.40061	-2.76043	2.15486
H	-2.12592	-0.829959	1.73728
H	-2.26744	-2.8533	2.84566
H	-0.466156	-2.90826	2.74326
H	-1.46536	-3.57632	1.39903
C	995.071	-2.67846	-2.13391
C	994.996	-1.22729	-1.85147
O	995.448	-0.405591	-2.63736
H	995.589	-2.83772	-3.10442
H	994.049	-3.10871	-2.19716
H	995.64	-3.19553	-1.3332
N	994.417	-0.875408	-0.70129
C	994.309	0.495608	-0.268506
C	994.29	0.512594	1.24836
O	994.195	-0.532711	1.88869
H	994.091	-1.55756	-0.0529096
H	995.19	1.04043	-0.585667
C	993.032	1.15412	-0.834197
H	992.128	0.601741	-0.500471
H	992.945	2.21422	-0.519367
H	993.065	1.12333	-1.9452
N	994.388	1.70852	1.86162
C	994.383	1.82231	3.30148
H	994.468	2.54296	1.32649
H	994.473	2.88653	3.61217
H	995.234	1.25491	3.74313
H	993.438	1.41213	3.72508
