44
  This energy is 0.138 and Call times are: 172771
C	3.17041	-1.39162	-0.35298
C	2.15297	-0.367411	-0.68001
O	2.44746	0.638645	-1.31051
H	4.15773	-1.06787	-0.748278
H	2.89851	-2.36298	-0.816967
H	3.24748	-1.51668	0.747707
N	0.912033	-0.604695	-0.248555
C	-0.175625	0.319451	-0.452306
C	-1.16707	0.140541	0.681972
O	-1.05425	-0.791469	1.47591
H	0.696359	-1.40831	0.298756
H	0.20121	1.333	-0.394487
C	-0.860886	0.0733166	-1.81432
H	-1.25694	-0.963057	-1.87008
H	-1.69133	0.787703	-1.98908
H	-0.115056	0.201764	-2.62893
N	-2.16361	1.04132	0.789299
C	-3.15074	0.95488	1.84015
H	-2.23596	1.79094	0.139754
H	-3.88553	1.78596	1.7588
H	-2.665	1.01326	2.84111
H	-3.70445	-0.0100198	1.78088
C	991.846	0.342029	0.863809
C	992.916	-0.12429	-0.0461313
O	992.673	-0.886361	-0.971574
H	990.881	-0.120196	0.562787
H	991.749	1.44657	0.806159
H	992.076	0.0454132	1.90889
N	994.147	0.329745	0.203214
C	995.298	-0.0687999	-0.568534
C	996.519	0.010219	0.32803
O	996.449	0.520651	1.44438
H	994.336	0.917071	0.984934
H	995.185	-1.10281	-0.869809
C	995.474	0.839451	-1.80514
H	995.6	1.89899	-1.4961
H	996.349	0.534072	-2.41512
H	994.565	0.771986	-2.44265
N	997.673	-0.504775	-0.140324
C	998.885	-0.479708	0.644252
H	997.709	-0.917352	-1.04451
H	999.724	-0.950905	0.0865344
H	998.745	-1.03345	1.60088
H	999.172	0.568139	0.89066
