44
  This energy is -2.8616 and Call times are: 187640
C	-1.46153	1.63109	-2.70484
C	-0.51964	0.642677	-2.13298
O	0.044005	-0.178837	-2.84279
H	-1.54755	1.46514	-3.80071
H	-1.0901	2.66193	-2.52553
H	-2.46505	1.51459	-2.24389
N	-0.327588	0.700588	-0.813081
C	0.526048	-0.22205	-0.106963
C	0.00285983	-0.360514	1.31031
O	-0.886549	0.378365	1.72831
H	-0.824827	1.34838	-0.243005
H	0.459614	-1.19769	-0.57209
C	1.98816	0.275324	-0.0982389
H	2.05841	1.27152	0.388274
H	2.65786	-0.433438	0.430615
H	2.34751	0.376923	-1.14557
N	0.541229	-1.32339	2.08429
C	0.102767	-1.53317	3.44441
H	1.25709	-1.9141	1.72697
H	0.664933	-2.37014	3.91417
H	-0.983155	-1.78058	3.47329
H	0.26416	-0.615639	4.05534
C	994.76	0.894822	-3.36153
C	994.678	-0.117103	-2.28434
O	994.404	-1.28359	-2.53128
H	994.525	0.41413	-4.33587
H	995.785	1.32042	-3.40901
H	994.03	1.7104	-3.17729
N	994.914	0.315988	-1.04383
C	994.829	-0.541271	0.112174
C	994.448	0.312589	1.30711
O	994.429	1.53915	1.2241
H	995.095	1.27674	-0.853944
H	994.034	-1.26178	-0.035456
C	996.171	-1.26065	0.366143
H	996.985	-0.521948	0.528119
H	996.114	-1.93437	1.24555
H	996.434	-1.87306	-0.524054
N	994.127	-0.321649	2.45178
C	993.747	0.407825	3.63905
H	994.144	-1.31493	2.49831
H	993.52	-0.290967	4.47412
H	992.842	1.02879	3.44581
H	994.568	1.08654	3.96325
