44
  This energy is 0 and Call times are: 162041
C	3.08695	1.12181	1.15108
C	2.01985	1.06623	0.1267
O	2.02097	1.82795	-0.830478
H	3.80055	1.93467	0.894345
H	3.63686	0.157812	1.18355
H	2.64836	1.33075	2.14961
N	1.06817	0.148092	0.310342
C	-0.0579071	0.00214563	-0.578028
C	-1.22299	-0.549501	0.221855
O	-1.064	-0.945117	1.37508
H	1.0587	-0.437329	1.11598
H	-0.351879	0.97748	-0.945363
C	0.2853	-0.938536	-1.75385
H	0.576787	-1.94243	-1.37799
H	-0.569322	-1.0481	-2.45253
H	1.14538	-0.519275	-2.32027
N	-2.43139	-0.580659	-0.373827
C	-3.59919	-1.08348	0.311435
H	-2.54102	-0.252308	-1.30616
H	-4.49546	-1.02584	-0.344772
H	-3.80032	-0.489574	1.23236
H	-3.45174	-2.14623	0.61136
C	329.588	-2.29146	0.404322
C	329.05	-1.00943	-0.103703
O	329.791	-0.145564	-0.552562
H	330.696	-2.28607	0.314581
H	329.184	-3.13822	-0.189067
H	329.315	-2.42483	1.47228
N	327.726	-0.855115	-0.040615
C	327.059	0.353915	-0.456814
C	325.784	0.49394	0.352595
O	325.392	-0.421677	1.07338
H	327.14	-1.55072	0.365113
H	327.686	1.20564	-0.222043
C	326.741	0.316135	-1.96751
H	326.09	-0.551491	-2.20721
H	326.24	1.24746	-2.30304
H	327.688	0.205274	-2.53973
N	325.108	1.65564	0.257754
C	323.887	1.88175	0.99533
H	325.443	2.38639	-0.327588
H	323.482	2.896	0.784169
H	324.069	1.79823	2.09132
H	323.113	1.13007	0.715469
