44
  This energy is 0.1333 and Call times are: 180384
C	-3.15769	1.44893	-0.20559
C	-2.22293	0.431039	0.32475
O	-2.53839	-0.292081	1.25963
H	-4.09985	1.42503	0.384025
H	-3.39377	1.23456	-1.2691
H	-2.7081	2.46098	-0.123698
N	-1.03024	0.353389	-0.2701
C	2.07204e-05	-0.557885	0.161983
C	1.34578	0.0523099	-0.181763
O	1.41962	1.06307	-0.877915
H	-0.773012	0.976554	-1.00315
H	-0.0421667	-0.659971	1.23922
C	-0.160099	-1.9347	-0.51917
H	-0.106337	-1.83193	-1.62397
H	0.619147	-2.64958	-0.184128
H	-1.15483	-2.35878	-0.260279
N	2.44808	-0.547584	0.309237
C	3.77125	-0.0351687	0.0393724
H	2.36789	-1.36223	0.874027
H	4.54487	-0.665705	0.530454
H	3.87435	1.00657	0.420714
H	3.97218	-0.0231629	-1.05636
C	992.382	-1.46173	-2.54707
C	993.642	-1.2904	-1.7881
O	994.585	-2.05324	-1.94617
H	992.469	-2.35279	-3.20612
H	992.19	-0.567098	-3.17578
H	991.532	-1.61258	-1.8488
N	993.683	-0.267864	-0.930739
C	994.824	0.000865458	-0.0907932
C	994.332	0.687763	1.16927
O	993.167	1.06978	1.26453
H	992.893	0.319852	-0.783207
H	995.276	-0.936539	0.208357
C	995.853	0.888431	-0.824888
H	995.392	1.85455	-1.12271
H	996.742	1.09103	-0.193493
H	996.193	0.36956	-1.74761
N	995.213	0.853768	2.17549
C	994.834	1.49175	3.41457
H	996.15	0.534304	2.08126
H	995.696	1.53331	4.1156
H	994.007	0.930724	3.90841
H	994.482	2.53241	3.22922
