44
  This energy is 0 and Call times are: 165933
C	3.35433	0.364584	0.853359
C	2.19069	0.658306	-0.0131364
O	2.23518	1.54645	-0.853158
H	4.18031	1.0677	0.609911
H	3.7054	-0.674923	0.683306
H	3.07778	0.491068	1.92136
N	1.10408	-0.0935828	0.177437
C	-0.119706	0.101745	-0.559278
C	-1.27476	-0.35138	0.313694
O	-1.07006	-0.942426	1.37222
H	1.06921	-0.785461	0.892948
H	-0.256047	1.15864	-0.751651
C	-0.0986568	-0.691577	-1.88421
H	0.0306221	-1.77711	-1.68686
H	-1.02989	-0.538385	-2.46718
H	0.759023	-0.349106	-2.50344
N	-2.52408	-0.075144	-0.109301
C	-3.68487	-0.46261	0.657911
H	-2.66948	0.407609	-0.966552
H	-4.61933	-0.146093	0.144276
H	-3.66332	0.00788807	1.66759
H	-3.71583	-1.56805	0.792756
C	601.597	-0.713661	-0.148621
C	602.885	-0.366698	-0.790291
O	603.019	-0.410587	-2.00542
H	600.865	-1.00953	-0.931067
H	601.197	0.161753	0.405068
H	601.736	-1.56287	0.553302
N	603.878	-0.0101899	0.0273809
C	605.201	0.313585	-0.445782
C	606.192	-0.0233325	0.652546
O	605.804	-0.333562	1.77725
H	603.766	-0.0187677	1.01691
H	605.439	-0.311495	-1.29749
C	605.301	1.80725	-0.825583
H	605.067	2.44897	0.0506206
H	606.311	2.06602	-1.20451
H	604.562	2.03286	-1.62498
N	607.504	0.022161	0.346877
C	608.519	-0.287838	1.32606
H	607.798	0.271362	-0.569822
H	609.535	-0.194207	0.882405
H	608.396	-1.32887	1.70342
H	608.451	0.404958	2.19585
