44
  This energy is -2.7225 and Call times are: 185961
C	-1.45101	-2.96782	-1.09512
C	-0.52477	-2.2157	-0.219027
O	0.0156301	-2.75122	0.738887
H	-1.54993	-4.00873	-0.717478
H	-1.05684	-2.99789	-2.13265
H	-2.45267	-2.4885	-1.0942
N	-0.320114	-0.93428	-0.532811
C	0.520408	-0.063189	0.250313
C	0.00679723	1.35573	0.0940107
O	-0.863521	1.62303	-0.732313
H	-0.79892	-0.501611	-1.29137
H	0.429832	-0.325559	1.29702
C	1.99249	-0.15962	-0.206755
H	2.08749	0.119624	-1.27775
H	2.65199	0.496172	0.397826
H	2.34475	-1.2079	-0.0911424
N	0.531891	2.3027	0.896223
C	0.101018	3.67935	0.822969
H	1.23229	2.0663	1.56152
H	0.649859	4.30309	1.56253
H	-0.989484	3.76147	1.03589
H	0.286597	4.09573	-0.193561
C	994.694	0.608634	-3.3657
C	994.362	-0.301029	-2.24605
O	993.998	-1.45071	-2.45114
H	994.536	0.0774422	-4.32949
H	995.756	0.925663	-3.2994
H	994.038	1.50457	-3.33791
N	994.481	0.204064	-1.01593
C	994.153	-0.545613	0.171041
C	993.715	0.434222	1.24345
O	993.84	1.64612	1.07818
H	994.739	1.15426	-0.866447
H	993.31	-1.19344	-0.0370627
C	995.365	-1.37174	0.654369
H	996.226	-0.706605	0.878064
H	995.121	-1.96424	1.55985
H	995.673	-2.07612	-0.148997
N	993.18	-0.0717884	2.37204
C	992.73	0.78403	3.44509
H	993.083	-1.05503	2.48568
H	992.322	0.17995	4.28497
H	991.931	1.47404	3.08864
H	993.572	1.4018	3.83417
