44
  This energy is 0 and Call times are: 161621
C	3.29721	1.08604	-0.248188
C	2.02102	0.645587	-0.855207
O	1.8202	0.756152	-2.05681
H	3.95266	1.51122	-1.03906
H	3.81482	0.223863	0.222428
H	3.10702	1.86624	0.518754
N	1.11443	0.129644	-0.0219761
C	-0.18998	-0.302878	-0.457872
C	-1.15217	-0.149594	0.704992
O	-0.740899	0.124629	1.83077
H	1.27658	0.0839209	0.959596
H	-0.535853	0.348541	-1.25075
C	-0.152324	-1.76971	-0.93978
H	0.192374	-2.43973	-0.123517
H	-1.14791	-2.11023	-1.29103
H	0.563854	-1.85987	-1.78554
N	-2.46598	-0.316136	0.455601
C	-3.45608	-0.184226	1.49891
H	-2.77987	-0.533647	-0.462678
H	-4.47805	-0.357232	1.09536
H	-3.42341	0.836327	1.94464
H	-3.27053	-0.922368	2.31246
C	296.406	-2.69478	-2.12081
C	296.165	-1.94494	-0.867469
O	295.235	-2.23237	-0.12667
H	295.626	-3.47887	-2.23534
H	297.403	-3.18159	-2.08983
H	296.356	-2.00883	-2.99264
N	297.012	-0.948094	-0.600179
C	296.88	-0.101455	0.559331
C	297.47	1.25546	0.223513
O	298.095	1.42956	-0.820898
H	297.739	-0.699868	-1.23326
H	295.83	0.0478204	0.775355
C	297.601	-0.718613	1.7777
H	298.681	-0.8622	1.56031
H	297.496	-0.0827551	2.68049
H	297.159	-1.71417	2.00038
N	297.276	2.25684	1.10418
C	297.795	3.58352	0.866777
H	296.764	2.09761	1.94186
H	297.531	4.26521	1.70496
H	297.376	4.00673	-0.074768
H	298.905	3.55986	0.770677
