44
  This energy is 0 and Call times are: 161425
C	-2.46161	-0.552946	-2.39738
C	-1.08671	-0.726638	-1.87716
O	-0.317344	-1.53443	-2.37912
H	-2.62678	-1.25762	-3.2412
H	-2.60397	0.48559	-2.76332
H	-3.20286	-0.768227	-1.59907
N	-0.743543	0.0401022	-0.839509
C	0.544444	-0.045654	-0.197408
C	0.377506	0.363044	1.25402
O	-0.679548	0.846732	1.65452
H	-1.39428	0.663752	-0.415865
H	0.880079	-1.07517	-0.206068
C	1.57368	0.865447	-0.901548
H	1.23485	1.92323	-0.883666
H	2.57305	0.797721	-0.424912
H	1.67379	0.553318	-1.96405
N	1.42243	0.168658	2.0825
C	1.35394	0.521966	3.48131
H	2.26808	-0.227807	1.74081
H	2.31225	0.285409	3.99405
H	0.536833	-0.0401805	3.98886
H	1.15078	1.61066	3.60224
C	283.588	0.949817	3.29613
C	282.773	0.278089	2.25917
O	281.841	-0.45404	2.56248
H	283.217	0.656585	4.30217
H	283.509	2.05224	3.19093
H	284.652	0.645733	3.20291
N	283.114	0.515207	0.990352
C	282.442	-0.100221	-0.126891
C	283.432	-0.213019	-1.2707
O	284.533	0.331798	-1.2071
H	283.901	1.08101	0.760141
H	282.146	-1.10606	0.144093
C	281.212	0.729078	-0.555617
H	281.516	1.75788	-0.843793
H	280.678	0.258235	-1.40629
H	280.505	0.805238	0.299044
N	283.064	-0.935395	-2.34722
C	283.943	-1.10276	-3.48133
H	282.172	-1.37218	-2.3785
H	283.46	-1.72909	-4.26364
H	284.893	-1.59724	-3.17295
H	284.198	-0.11547	-3.93018
