44
  This energy is 0 and Call times are: 159689
C	-3.34571	0.868319	-0.406111
C	-2.26989	0.103442	0.263754
O	-2.48398	-0.520459	1.29396
H	-4.28402	0.775082	0.182755
H	-3.52089	0.468498	-1.42699
H	-3.06809	1.94147	-0.472244
N	-1.06785	0.137799	-0.31615
C	0.0870129	-0.521419	0.240885
C	1.32307	0.24528	-0.190251
O	1.24701	1.14453	-1.02528
H	-0.899341	0.68344	-1.13208
H	0.0387053	-0.474065	1.32165
C	0.167069	-1.98888	-0.233865
H	0.227278	-2.03761	-1.34203
H	1.04453	-2.51132	0.1993
H	-0.751058	-2.52859	0.0856752
N	2.49723	-0.0897886	0.379944
C	3.72528	0.588327	0.036089
H	2.53807	-0.817415	1.05667
H	4.58014	0.169581	0.611484
H	3.64979	1.67655	0.262704
H	3.94519	0.476371	-1.0503
C	158.483	1.49175	3.10159
C	158.995	1.51602	1.713
O	159.376	2.55769	1.19686
H	158.501	2.52238	3.5179
H	159.12	0.837629	3.73316
H	157.438	1.11633	3.1175
N	159.013	0.347926	1.06677
C	159.444	0.220164	-0.303235
C	158.715	-0.958702	-0.920079
O	158.042	-1.71685	-0.22456
H	158.662	-0.484202	1.48621
H	159.15	1.10506	-0.853967
C	160.972	0.0143029	-0.384331
H	161.273	-0.899223	0.171688
H	161.318	-0.0715972	-1.43487
H	161.485	0.884912	0.0799
N	158.827	-1.1358	-2.25132
C	158.164	-2.22694	-2.92689
H	159.372	-0.509447	-2.7979
H	158.377	-2.20157	-4.0182
H	157.061	-2.16518	-2.78418
H	158.51	-3.2065	-2.5244
