44
  This energy is -5.1315 and Call times are: 180005
C	-0.0926077	-3.03769	1.69604
C	0.352631	-2.18731	0.569206
O	1.22173	-2.56536	-0.204203
H	0.489668	-3.9847	1.69393
H	-1.17126	-3.2788	1.59062
H	0.0763552	-2.51411	2.66062
N	-0.242629	-0.998075	0.451903
C	0.114075	-0.0434976	-0.567951
C	-0.172124	1.34761	-0.0346073
O	-0.779774	1.50403	1.02275
H	-0.919305	-0.687574	1.11339
H	1.17862	-0.103772	-0.757027
C	-0.68195	-0.299985	-1.86633
H	-1.77386	-0.227848	-1.67513
H	-0.406125	0.420007	-2.66386
H	-0.463326	-1.32626	-2.23418
N	0.269942	2.39685	-0.755513
C	0.0489872	3.75737	-0.323838
H	0.763318	2.25014	-1.60647
H	0.487424	4.47657	-1.05031
H	0.517667	3.93475	0.671225
H	-1.04109	3.96934	-0.234723
C	993.8	-1.01967	-3.1575
C	994.861	-0.671508	-2.1867
O	996.039	-0.900352	-2.42721
H	994.26	-1.50079	-4.04795
H	993.262	-0.103845	-3.48135
H	993.079	-1.72845	-2.69823
N	994.461	-0.102501	-1.04743
C	995.373	0.253235	0.0109149
C	994.62	0.185992	1.32644
O	993.401	0.0301284	1.34711
H	993.495	0.0400096	-0.848744
H	996.169	-0.47892	0.0571904
C	995.95	1.66839	-0.210844
H	995.134	2.42124	-0.247858
H	996.665	1.94849	0.59021
H	996.49	1.69649	-1.18271
N	995.336	0.294424	2.4628
C	994.707	0.23643	3.76147
H	996.323	0.415982	2.42585
H	995.463	0.344202	4.57016
H	994.181	-0.736211	3.90024
H	993.957	1.05273	3.87148
