44
  This energy is 0 and Call times are: 161257
C	0.622391	3.08598	-1.48394
C	-0.204721	1.87256	-1.2978
O	-1.3374	1.80241	-1.75444
H	0.0403221	3.8436	-2.05234
H	1.54259	2.8382	-2.05365
H	0.902157	3.51336	-0.497951
N	0.352802	0.874314	-0.60856
C	-0.343432	-0.35212	-0.309096
C	0.217426	-0.910479	0.985211
O	1.21939	-0.419035	1.50123
H	1.26042	0.962057	-0.208075
H	-1.39099	-0.136086	-0.140052
C	-0.179313	-1.37377	-1.45563
H	0.894621	-1.60373	-1.62243
H	-0.722433	-2.31738	-1.24313
H	-0.589146	-0.940997	-2.39429
N	-0.425819	-1.9528	1.54719
C	0.0316412	-2.54677	2.78174
H	-1.2373	-2.33413	1.11689
H	-0.629218	-3.38991	3.08106
H	0.0329558	-1.7939	3.603
H	1.06908	-2.93696	2.66945
C	269.722	-0.354916	-3.21767
C	270.439	0.417386	-2.17793
O	271.047	1.44152	-2.45666
H	269.861	0.139279	-4.20368
H	268.637	-0.394136	-2.98547
H	270.125	-1.38796	-3.27326
N	270.383	-0.0669885	-0.935068
C	271.066	0.55009	0.174678
C	271.398	-0.530923	1.18601
O	270.946	-1.66791	1.06366
H	269.918	-0.923833	-0.730963
H	272.004	0.967828	-0.170402
C	270.19	1.64576	0.821015
H	269.233	1.2157	1.18466
H	270.71	2.13798	1.66814
H	269.953	2.42187	0.0609256
N	272.208	-0.200679	2.21111
C	272.583	-1.16486	3.21898
H	272.567	0.723407	2.29089
H	273.254	-0.701673	3.97614
H	273.118	-2.02693	2.75819
H	271.681	-1.55756	3.74223
