44
  This energy is 0 and Call times are: 163273
C	-1.40473	-2.35426	-2.14404
C	-1.51922	-1.29907	-1.11224
O	-2.60375	-0.814503	-0.820026
H	-2.41201	-2.5701	-2.56199
H	-0.994459	-3.28397	-1.69677
H	-0.739703	-2.01508	-2.96611
N	-0.381712	-0.912501	-0.529979
C	-0.327791	0.133616	0.460623
C	1.0385	0.788442	0.383099
O	1.93065	0.30394	-0.310471
H	0.49826	-1.28727	-0.807578
H	-1.06286	0.89155	0.220131
C	-0.577166	-0.433036	1.87553
H	0.182988	-1.20312	2.12687
H	-0.55193	0.364913	2.6457
H	-1.57903	-0.91432	1.9068
N	1.23164	1.91803	1.09215
C	2.4972	2.6139	1.07545
H	0.496396	2.29706	1.64427
H	2.45676	3.51918	1.72048
H	2.7565	2.93273	0.0398901
H	3.31365	1.95382	1.44807
C	414.494	-2.09689	-2.73126
C	415.239	-1.027	-2.03001
O	416.321	-0.634159	-2.44287
H	415.083	-2.43947	-3.60957
H	413.514	-1.71287	-3.0837
H	414.33	-2.95855	-2.05027
N	414.666	-0.525815	-0.933285
C	415.289	0.489269	-0.120978
C	414.796	0.323138	1.30418
O	413.881	-0.454206	1.56736
H	413.804	-0.88434	-0.586681
H	416.36	0.331912	-0.112198
C	414.953	1.90133	-0.648862
H	413.855	2.06711	-0.648155
H	415.439	2.69139	-0.0399717
H	415.316	1.99763	-1.69556
N	415.402	1.04917	2.26406
C	415.004	0.952962	3.64924
H	416.144	1.66977	2.03217
H	415.622	1.62692	4.28335
H	415.128	-0.0896254	4.02198
H	413.935	1.23849	3.7717
