44
  This energy is 0 and Call times are: 158121
C	-1.87528	2.88958	-0.496303
C	-1.58077	1.63667	0.234864
O	-2.12018	1.38581	1.30375
H	-2.60183	3.49422	0.088863
H	-2.31662	2.65888	-1.48864
H	-0.944953	3.48004	-0.63398
N	-0.700816	0.809927	-0.334836
C	-0.281146	-0.426136	0.277198
C	1.12772	-0.733016	-0.194475
O	1.64982	-0.0724078	-1.09042
H	-0.239349	1.04692	-1.18498
H	-0.240681	-0.297072	1.3516
C	-1.2396	-1.57886	-0.0940705
H	-1.27339	-1.7186	-1.1956
H	-0.934999	-2.5332	0.382352
H	-2.26586	-1.32922	0.25352
N	1.78247	-1.74487	0.408428
C	3.12876	-2.10597	0.0298807
H	1.34489	-2.26523	1.13425
H	3.49307	-2.96112	0.640797
H	3.82265	-1.24732	0.179914
H	3.16976	-2.3994	-1.04406
C	49.0408	-1.3431	2.4787
C	48.7317	-1.0533	1.06038
O	49.5691	-1.21717	0.183779
H	50.0948	-1.6866	2.56214
H	48.3711	-2.14203	2.8608
H	48.9116	-0.427367	3.09335
N	47.5009	-0.606104	0.800609
C	47.0664	-0.240585	-0.524583
C	45.9941	0.824604	-0.393745
O	45.5223	1.11174	0.704761
H	46.8435	-0.438916	1.52982
H	47.8955	0.200866	-1.06333
C	46.5195	-1.469	-1.28429
H	45.6621	-1.91597	-0.737333
H	46.1945	-1.2032	-2.31105
H	47.3184	-2.23852	-1.36118
N	45.5883	1.44486	-1.51918
C	44.5766	2.47533	-1.49156
H	45.9847	1.20167	-2.39826
H	44.3812	2.86225	-2.51595
H	44.901	3.32728	-0.851107
H	43.6214	2.07739	-1.0788
