44
  This energy is 0.103 and Call times are: 173723
C	-3.40546	-0.350156	-0.626849
C	-2.21282	-0.53176	0.230929
O	-2.31992	-0.882834	1.39784
H	-4.32089	-0.56198	-0.0327161
H	-3.36684	-1.04883	-1.48888
H	-3.45298	0.694651	-0.999961
N	-1.02981	-0.289953	-0.338619
C	0.216417	-0.381995	0.380417
C	1.20257	0.578272	-0.257499
O	0.935529	1.14452	-1.31569
H	-0.961219	0.0346931	-1.27764
H	0.0642713	-0.056698	1.40202
C	0.766975	-1.82458	0.347708
H	0.933188	-2.155	-0.699781
H	1.71939	-1.91143	0.909749
H	0.0257285	-2.51092	0.812302
N	2.37019	0.791057	0.380802
C	3.36747	1.69215	-0.148008
H	2.56647	0.326797	1.23813
H	4.25559	1.7319	0.520489
H	2.95455	2.72249	-0.243831
H	3.70247	1.35927	-1.15702
C	999.105	-1.36274	-0.549779
C	997.996	-0.961796	0.345671
O	997.976	-1.30397	1.51994
H	999.825	-1.99183	0.0166939
H	999.634	-0.463738	-0.929867
H	998.712	-1.94966	-1.40645
N	997.033	-0.216196	-0.200021
C	995.869	0.214735	0.533662
C	994.725	0.380474	-0.448928
O	994.921	0.315559	-1.66091
H	997.043	0.0199746	-1.16748
H	995.582	-0.558836	1.23507
C	996.144	1.54213	1.27381
H	996.428	2.3388	0.553599
H	995.259	1.87732	1.8537
H	996.989	1.39954	1.98148
N	993.493	0.591498	0.0553025
C	992.343	0.755371	-0.802836
H	993.354	0.63679	1.03892
H	991.423	0.918353	-0.199952
H	992.192	-0.14972	-1.43481
H	992.479	1.63007	-1.47931
