44
  This energy is 0 and Call times are: 163133
C	0.332067	1.43732	-3.15223
C	0.647105	1.37832	-1.70709
O	1.54975	2.05075	-1.22805
H	1.03511	2.13785	-3.6531
H	-0.706063	1.80101	-3.30307
H	0.441036	0.431069	-3.60904
N	-0.102416	0.555872	-0.96941
C	0.112256	0.359136	0.442599
C	-0.35029	-1.04061	0.800824
O	-0.961049	-1.72985	-0.0138156
H	-0.806674	-0.0156733	-1.38078
H	1.17309	0.412152	0.653446
C	-0.657565	1.41205	1.26964
H	-1.74708	1.35103	1.0616
H	-0.489257	1.27971	2.35807
H	-0.308613	2.42879	0.985355
N	-0.0601505	-1.49842	2.03462
C	-0.455145	-2.82014	2.46268
H	0.438461	-0.927495	2.67844
H	-0.124752	-3.01019	3.50764
H	-0.00272788	-3.59751	1.8052
H	-1.56263	-2.93287	2.4189
C	405.612	-3.18524	1.26171
C	405.99	-1.76814	1.06109
O	406.925	-1.26969	1.67228
H	406.283	-3.6398	2.02316
H	405.716	-3.74743	0.309931
H	404.563	-3.2547	1.61919
N	405.256	-1.0765	0.18611
C	405.476	0.322723	-0.0833299
C	404.153	0.936555	-0.503144
O	403.173	0.228914	-0.724145
H	404.473	-1.48488	-0.273173
H	405.786	0.817696	0.828418
C	406.536	0.511773	-1.19016
H	406.213	0.0131073	-2.12887
H	406.724	1.58526	-1.39709
H	407.493	0.0481137	-0.864782
N	404.094	2.27819	-0.615125
C	402.877	2.95145	-1.00366
H	404.898	2.8342	-0.428157
H	403.031	4.05256	-1.03868
H	402.06	2.7345	-0.278438
H	402.544	2.61144	-2.01098
