44
  This energy is 0 and Call times are: 169237
C	-2.2657	-0.907513	-2.48107
C	-1.31465	-1.24487	-1.3981
O	-1.24232	-2.38095	-0.95032
H	-2.84927	-1.81383	-2.75293
H	-1.71485	-0.552544	-3.37734
H	-2.96745	-0.116727	-2.14152
N	-0.552985	-0.246474	-0.944827
C	0.388283	-0.410525	0.134832
C	0.531944	0.922997	0.843799
O	0.0304922	1.9429	0.374691
H	-0.652216	0.682021	-1.29112
H	-0.0109606	-1.11614	0.852705
C	1.75671	-0.892423	-0.394718
H	2.17162	-0.163697	-1.12331
H	2.48614	-1.03582	0.428627
H	1.62627	-1.86558	-0.916547
N	1.21823	0.943925	2.00337
C	1.40187	2.16596	2.75109
H	1.61316	0.107659	2.3691
H	1.99216	1.97694	3.67469
H	0.418015	2.59752	3.04614
H	1.9417	2.92408	2.13873
C	844.11	0.0542819	1.56067
C	842.732	0.565062	1.38279
O	842.238	1.34419	2.18561
H	844.54	0.475709	2.49513
H	844.746	0.360004	0.702866
H	844.101	-1.05348	1.63708
N	842.071	0.127438	0.30863
C	840.708	0.50185	0.0243533
C	840.062	-0.624952	-0.759238
O	840.734	-1.56199	-1.18562
H	842.473	-0.538416	-0.313704
H	840.164	0.601414	0.95499
C	840.654	1.82012	-0.778441
H	841.204	1.71523	-1.73808
H	839.61	2.12636	-0.99165
H	841.14	2.62863	-0.189481
N	838.731	-0.563159	-0.960622
C	838.028	-1.59272	-1.69027
H	838.203	0.200946	-0.604351
H	836.942	-1.36173	-1.74831
H	838.15	-2.58106	-1.19069
H	838.424	-1.67917	-2.72791
