44
  This energy is 0 and Call times are: 168201
C	-2.33181	1.49709	2.10572
C	-1.97977	0.657743	0.938375
O	-2.82546	-0.0134609	0.363301
H	-3.41413	1.37863	2.33025
H	-2.1254	2.56548	1.88506
H	-1.74406	1.18308	2.99401
N	-0.700032	0.676212	0.558509
C	-0.197776	-0.12111	-0.532627
C	1.26375	-0.425314	-0.262533
O	1.86109	0.123917	0.661181
H	-0.0154699	1.19574	1.06183
H	-0.725024	-1.06667	-0.556382
C	-0.356741	0.621533	-1.87741
H	0.192707	1.5868	-1.85728
H	0.0137138	0.0121999	-2.72712
H	-1.43297	0.840883	-2.05054
N	1.87444	-1.32068	-1.06341
C	3.26189	-1.67717	-0.878809
H	1.37337	-1.75767	-1.80304
H	3.57906	-2.42803	-1.63566
H	3.42456	-2.11071	0.134529
H	3.91492	-0.780189	-0.979446
C	766.518	3.37338	-0.70789
C	766.606	2.24048	0.240772
O	766.654	2.42851	1.44856
H	766.525	4.32916	-0.140184
H	765.577	3.30981	-1.29369
H	767.386	3.36079	-1.40048
N	766.632	1.01808	-0.295396
C	766.759	-0.179669	0.49698
C	767.445	-1.2359	-0.348825
O	767.641	-1.05216	-1.54856
H	766.633	0.882779	-1.28208
H	767.4	0.0201194	1.34627
C	765.375	-0.678202	0.968647
H	764.72	-0.893351	0.097502
H	765.461	-1.59223	1.59136
H	764.888	0.11354	1.57889
N	767.835	-2.37107	0.263678
C	768.5	-3.42984	-0.459272
H	767.671	-2.49971	1.2361
H	768.741	-4.27811	0.218777
H	769.45	-3.06112	-0.91
H	767.853	-3.81104	-1.28194
