44
  This energy is 0 and Call times are: 167417
C	1.61353	-2.50565	1.79748
C	0.457109	-1.99049	1.03038
O	-0.441228	-2.73514	0.6631
H	1.50452	-3.60364	1.93318
H	1.65606	-2.02257	2.79626
H	2.55749	-2.30334	1.24875
N	0.456001	-0.681936	0.76568
C	-0.579318	-0.0425215	-0.00751072
C	0.0247492	1.16454	-0.700081
O	1.16129	1.54483	-0.42554
H	1.21455	-0.0959127	1.03595
H	-0.919006	-0.721154	-0.779975
C	-1.75777	0.38441	0.89483
H	-1.41179	1.08886	1.68101
H	-2.56763	0.865599	0.309077
H	-2.17912	-0.513441	1.3975
N	-0.724427	1.7935	-1.627
C	-0.231008	2.94765	-2.3416
H	-1.64026	1.46848	-1.83838
H	-0.993641	3.32096	-3.06011
H	0.691709	2.692	-2.91126
H	0.0172778	3.77153	-1.63399
C	713.382	-0.0987246	2.53537
C	712.658	-0.718287	1.40272
O	713.036	-1.77212	0.910045
H	714.262	-0.726588	2.79654
H	712.717	-0.0260206	3.42118
H	713.736	0.915812	2.25455
N	711.583	-0.064194	0.95662
C	710.802	-0.520204	-0.165821
C	710.175	0.691667	-0.82951
O	710.237	1.80076	-0.302456
H	711.311	0.813364	1.34125
H	711.457	-0.983348	-0.892829
C	709.71	-1.51327	0.289177
H	709.031	-1.0353	1.02712
H	709.11	-1.88233	-0.567955
H	710.19	-2.38811	0.77899
N	709.56	0.507621	-2.01443
C	708.94	1.60327	-2.72261
H	709.524	-0.396542	-2.42704
H	708.489	1.25016	-3.67591
H	709.691	2.39151	-2.96101
H	708.137	2.0666	-2.1047
