44
  This energy is 0 and Call times are: 158401
C	0.0742955	-1.73419	-3.01658
C	-0.376182	-1.57519	-1.61553
O	-1.26315	-2.27871	-1.1521
H	-0.522063	-2.53494	-3.5055
H	1.14738	-2.0179	-3.04369
H	-0.0712988	-0.785684	-3.57535
N	0.23487	-0.628453	-0.899513
C	-0.123816	-0.326959	0.463941
C	0.191718	1.13398	0.724027
O	0.818538	1.79902	-0.0984916
H	0.926653	-0.0363433	-1.30289
H	-1.19204	-0.453402	0.588613
C	0.647333	-1.23137	1.45015
H	1.74313	-1.09424	1.32992
H	0.369561	-1.01838	2.50277
H	0.40748	-2.29583	1.23626
N	-0.246091	1.67217	1.87932
C	0.0021238	3.05598	2.21045
H	-0.755207	1.11919	2.53053
H	-0.437092	3.30826	3.20074
H	-0.447813	3.72967	1.44562
H	1.09655	3.26054	2.24969
C	69.7652	-1.07003	1.82244
C	68.6947	-0.0892946	1.53385
O	68.4574	0.832973	2.30165
H	70.24	-0.819653	2.79597
H	70.5387	-1.03761	1.02651
H	69.34	-2.09403	1.88285
N	68.0121	-0.271983	0.401125
C	66.914	0.574488	0.00598729
C	65.9652	-0.248157	-0.845283
O	66.2763	-1.37544	-1.22497
H	68.1897	-1.05102	-0.193357
H	66.3682	0.886431	0.887702
C	67.42	1.80344	-0.780669
H	67.971	1.48412	-1.69091
H	66.5851	2.47021	-1.07861
H	68.1187	2.38617	-0.141382
N	64.7738	0.29774	-1.15931
C	63.8044	-0.412728	-1.96037
H	64.5385	1.20952	-0.839381
H	62.8897	0.202641	-2.10832
H	63.5091	-1.36622	-1.4655
H	64.2268	-0.659647	-2.96124
