44
  This energy is 0 and Call times are: 170161
C	-2.30528	-1.45427	-2.16413
C	-0.919127	-1.10575	-1.7791
O	0.0406443	-1.58636	-2.36584
H	-2.28115	-2.18547	-3.00117
H	-2.85016	-0.54567	-2.49626
H	-2.83823	-1.91072	-1.30349
N	-0.782687	-0.248464	-0.764791
C	0.502408	0.152409	-0.24866
C	0.33578	0.497756	1.21917
O	-0.78199	0.569972	1.72621
H	-1.57284	0.102545	-0.270508
H	1.1877	-0.683982	-0.307474
C	1.05749	1.36333	-1.0302
H	0.359809	2.22504	-0.961393
H	2.05301	1.67289	-0.651223
H	1.16371	1.09042	-2.10285
N	1.45286	0.712206	1.94178
C	1.39266	1.04093	3.34695
H	2.34854	0.645202	1.51478
H	2.41507	1.17897	3.76269
H	0.888395	0.228735	3.91909
H	0.819131	1.98267	3.50609
C	907.526	1.7956	2.93465
C	907.287	1.72428	1.47545
O	907.008	2.72511	0.830102
H	907.389	2.84399	3.27829
H	908.562	1.47246	3.16945
H	906.805	1.14439	3.47243
N	907.393	0.517033	0.915233
C	907.147	0.28225	-0.485906
C	906.659	-1.14488	-0.647876
O	906.688	-1.93156	0.296579
H	907.581	-0.294829	1.46052
H	906.353	0.935542	-0.823715
C	908.428	0.513622	-1.31677
H	909.241	-0.163738	-0.977582
H	908.249	0.349439	-2.39905
H	908.772	1.56172	-1.17685
N	906.187	-1.51106	-1.85602
C	905.696	-2.84674	-2.1026
H	906.168	-0.859215	-2.60688
H	905.352	-2.95117	-3.15523
H	904.84	-3.08088	-1.42927
H	906.496	-3.59997	-1.91854
