44
  This energy is -1.9105 and Call times are: 181537
C	0.0497397	0.0265598	-3.47987
C	-0.416912	0.55705	-2.17912
O	-1.03229	1.612	-2.10979
H	-0.235802	0.733765	-4.2887
H	-0.41987	-0.959033	-3.6819
H	1.15455	-0.0849775	-3.47351
N	-0.126904	-0.175188	-1.10111
C	-0.476954	0.232162	0.236832
C	0.538519	-0.363658	1.19358
O	1.36171	-1.1897	0.804069
H	0.41029	-1.01105	-1.16917
H	-0.39947	1.30951	0.31403
C	-1.90315	-0.23568	0.600611
H	-1.98028	-1.34173	0.531788
H	-2.18968	0.0838653	1.6235
H	-2.62851	0.205922	-0.117153
N	0.508477	0.0512868	2.47536
C	1.43945	-0.456156	3.45616
H	-0.162384	0.723439	2.7707
H	1.25405	0.00640803	4.45058
H	2.48836	-0.231477	3.1552
H	1.33887	-1.56091	3.55888
C	996.738	0.642051	3.40388
C	996.348	-0.232393	2.27507
O	996.073	-1.41113	2.453
H	996.744	0.0480263	4.34353
H	996.012	1.47585	3.51057
H	997.754	1.05596	3.23371
N	996.316	0.335925	1.06742
C	995.997	-0.396859	-0.132421
C	996.706	0.269462	-1.2964
O	997.273	1.35116	-1.15287
H	996.582	1.28625	0.932705
H	996.387	-1.40366	-0.0506256
C	994.472	-0.425115	-0.372089
H	994.072	0.607242	-0.46659
H	994.212	-0.998295	-1.28563
H	993.973	-0.909689	0.495459
N	996.698	-0.370104	-2.48253
C	997.351	0.184795	-3.64508
H	996.237	-1.24652	-2.57804
H	997.233	-0.489276	-4.52193
H	998.44	0.324236	-3.45469
H	996.916	1.17715	-3.9042
