44
  This energy is 0 and Call times are: 167697
C	-3.23887	0.455151	1.18964
C	-2.10814	0.831472	0.311597
O	-2.25335	1.63747	-0.597076
H	-4.1538	0.994953	0.861948
H	-3.01542	0.732224	2.24133
H	-3.42468	-0.63785	1.12706
N	-0.937057	0.243615	0.567287
C	0.24332	0.47607	-0.227216
C	1.10956	-0.767711	-0.162441
O	0.84285	-1.68108	0.616235
H	-0.844364	-0.441114	1.28452
H	-0.0442248	0.61537	-1.26189
C	1.02222	1.70586	0.28869
H	1.32658	1.55903	1.34691
H	1.92596	1.90358	-0.323433
H	0.366577	2.60257	0.239684
N	2.16973	-0.835203	-0.991602
C	3.04746	-1.9822	-1.00448
H	2.36697	-0.0879092	-1.61748
H	3.85852	-1.84835	-1.75381
H	2.48171	-2.90686	-1.26178
H	3.51497	-2.13063	-0.00420773
C	730.722	-2.48982	-2.4158
C	731.393	-1.30335	-1.83844
O	732.488	-0.936993	-2.24126
H	731.374	-2.93596	-3.19806
H	729.756	-2.19628	-2.87753
H	730.538	-3.24805	-1.62555
N	730.739	-0.667951	-0.863075
C	731.283	0.47626	-0.175023
C	730.706	0.502711	1.22796
O	729.797	-0.259738	1.54958
H	729.867	-1.00226	-0.517936
H	732.355	0.359842	-0.0808313
C	730.944	1.78334	-0.924557
H	729.843	1.90851	-1.0122
H	731.369	2.6705	-0.41206
H	731.369	1.73851	-1.95113
N	731.232	1.3821	2.10349
C	730.751	1.47521	3.46218
H	731.97	1.98802	1.82584
H	731.309	2.25593	4.0244
H	730.878	0.503265	3.99159
H	729.668	1.73756	3.47869
