44
  This energy is 0 and Call times are: 170385
C	-2.75141	-1.68123	1.30992
C	-2.14719	-0.560175	0.555404
O	-2.83933	0.211642	-0.0939425
H	-3.85231	-1.67687	1.15535
H	-2.54033	-1.57047	2.39432
H	-2.34194	-2.64893	0.950793
N	-0.818785	-0.446213	0.624278
C	-0.0839309	0.567705	-0.0902281
C	1.30394	0.0288744	-0.381823
O	1.68754	-1.02685	0.118191
H	-0.26525	-1.10654	1.12372
H	-0.564728	0.752931	-1.04268
C	0.00327317	1.87037	0.734816
H	0.50589	1.68306	1.70761
H	0.554905	2.6634	0.189531
H	-1.02368	2.24223	0.943218
N	2.09054	0.743067	-1.21081
C	3.42455	0.305797	-1.55051
H	1.76099	1.59279	-1.60886
H	3.91017	1.02713	-2.2441
H	3.39672	-0.691908	-2.04557
H	4.05486	0.219908	-0.635914
C	921.763	3.17526	0.707367
C	922.768	2.27349	0.101047
O	923.617	2.69921	-0.669667
H	921.923	4.20916	0.331432
H	921.866	3.17488	1.81288
H	920.739	2.84704	0.431595
N	922.691	0.984625	0.440456
C	923.572	-0.0198692	-0.100898
C	922.832	-1.34427	-0.107458
O	921.743	-1.46016	0.451822
H	921.968	0.646396	1.03702
H	923.803	0.225262	-1.1299
C	924.866	-0.126825	0.735004
H	924.63	-0.388646	1.78836
H	925.559	-0.887336	0.320141
H	925.387	0.855579	0.732432
N	923.407	-2.37838	-0.752729
C	922.774	-3.67521	-0.81655
H	924.286	-2.26408	-1.20282
H	923.402	-4.39146	-1.39065
H	921.78	-3.60324	-1.31486
H	922.618	-4.08728	0.206698
