44
  This energy is 0 and Call times are: 165681
C	0.0393141	-2.03918	-2.82009
C	-0.589065	-1.55588	-1.57001
O	-1.74036	-1.85428	-1.28383
H	-0.695243	-2.65074	-3.3878
H	0.924576	-2.66691	-2.58557
H	0.352495	-1.17883	-3.44842
N	0.166565	-0.783196	-0.786193
C	-0.319907	-0.20264	0.440534
C	0.437361	1.08891	0.685473
O	1.40719	1.39138	-0.0071016
H	1.08812	-0.515472	-1.05252
H	-1.36561	0.053606	0.324413
C	-0.128946	-1.17525	1.62493
H	0.944894	-1.43018	1.75109
H	-0.512328	-0.745209	2.57288
H	-0.68504	-2.11616	1.42048
N	0.00332774	1.88947	1.67882
C	0.657779	3.14094	1.98165
H	-0.785663	1.62962	2.22567
H	0.152953	3.65354	2.82995
H	0.635213	3.81977	1.0985
H	1.72325	2.97033	2.2588
C	586.748	2.33645	-2.56714
C	586.595	1.93509	-1.15059
O	586.362	2.76228	-0.2799
H	586.636	3.43935	-2.65053
H	585.969	1.84814	-3.18963
H	587.753	2.048	-2.94002
N	586.726	0.633363	-0.885027
C	586.647	0.0969197	0.45079
C	587.495	-1.15933	0.507505
O	587.969	-1.64589	-0.5173
H	586.956	-0.0224072	-1.59846
H	587.075	0.807136	1.14713
C	585.184	-0.220172	0.831442
H	584.747	-0.956735	0.123558
H	585.108	-0.620963	1.86298
H	584.58	0.711663	0.775388
N	587.714	-1.71179	1.71696
C	588.514	-2.90485	1.8693
H	587.326	-1.30124	2.53518
H	588.577	-3.20224	2.93928
H	589.548	-2.73532	1.49142
H	588.071	-3.75084	1.29545
