44
  This energy is 0 and Call times are: 169909
C	-0.655841	2.89	1.82495
C	0.26927	1.85483	1.3114
O	1.48185	1.9883	1.40221
H	-0.0662725	3.73244	2.24756
H	-1.29965	2.46559	2.62378
H	-1.29397	3.27527	1.00187
N	-0.293185	0.782694	0.74878
C	0.476828	-0.287579	0.165552
C	-0.350102	-0.917521	-0.939398
O	-1.53081	-0.611758	-1.09478
H	-1.28086	0.707338	0.64543
H	1.3684	0.122247	-0.292454
C	0.850699	-1.34197	1.23031
H	-0.0638623	-1.77034	1.69304
H	1.45561	-2.16436	0.796398
H	1.44852	-0.8572	2.03278
N	0.258075	-1.81214	-1.74302
C	-0.447603	-2.45891	-2.82463
H	1.21527	-2.0436	-1.60417
H	0.223612	-3.1592	-3.36895
H	-0.830289	-1.70504	-3.55025
H	-1.31727	-3.03695	-2.43646
C	887.254	-0.289593	2.99664
C	888.405	-0.610556	2.12259
O	889.392	-1.18373	2.56131
H	887.472	-0.631044	4.03177
H	886.341	-0.806558	2.63287
H	887.077	0.806629	3.00961
N	888.301	-0.239132	0.844449
C	889.356	-0.444232	-0.116519
C	889.252	0.641171	-1.17139
O	888.283	1.39678	-1.20455
H	887.508	0.263075	0.511473
H	890.314	-0.326726	0.3743
C	889.247	-1.84169	-0.765043
H	888.269	-1.95891	-1.27771
H	890.062	-2.01706	-1.49687
H	889.318	-2.61986	0.0260636
N	890.261	0.749145	-2.0585
C	890.252	1.75553	-3.09449
H	891.039	0.131166	-2.0131
H	891.168	1.68236	-3.7218
H	890.212	2.77641	-2.65005
H	889.363	1.63179	-3.75498
