44
  This energy is 0 and Call times are: 166941
C	-1.15247	-2.72126	-1.83827
C	-0.302719	-1.51917	-1.6832
O	0.584989	-1.26377	-2.48517
H	-0.826197	-3.28822	-2.73715
H	-2.21483	-2.42504	-1.96626
H	-1.05628	-3.37557	-0.946231
N	-0.55957	-0.742995	-0.627757
C	0.209973	0.436774	-0.320334
C	0.167071	0.651575	1.18086
O	-0.581399	-0.0165971	1.89153
H	-1.25855	-0.985932	0.0387817
H	1.24457	0.269466	-0.59281
C	-0.352202	1.67043	-1.06013
H	-1.41039	1.84877	-0.772939
H	0.240253	2.58265	-0.84246
H	-0.318492	1.48781	-2.15643
N	0.98154	1.5904	1.7017
C	1.01335	1.86089	3.12015
H	1.58303	2.11805	1.11104
H	1.74615	2.66528	3.35076
H	1.3052	0.947672	3.6877
H	0.0106433	2.18582	3.4809
C	678.54	-2.34399	2.06076
C	678.052	-1.89236	0.738274
O	678.351	-2.49166	-0.28532
H	679.185	-3.23991	1.92798
H	677.683	-2.61149	2.71403
H	679.136	-1.54086	2.54342
N	677.278	-0.804605	0.731165
C	676.763	-0.220684	-0.482185
C	676.574	1.2663	-0.248298
O	676.691	1.7467	0.877371
H	677.077	-0.303868	1.56821
H	677.496	-0.332429	-1.27155
C	675.426	-0.87944	-0.887139
H	674.671	-0.755907	-0.0820225
H	675.026	-0.447949	-1.82755
H	675.586	-1.96827	-1.04533
N	676.283	2.03517	-1.31607
C	676.091	3.46123	-1.19087
H	676.196	1.6288	-2.21962
H	675.86	3.91531	-2.17971
H	677.009	3.94719	-0.787668
H	675.248	3.68504	-0.496935
