44
  This energy is -3.4191 and Call times are: 177629
C	0.755965	3.33607	-0.641725
C	0.128652	2.04745	-1.01196
O	-0.646674	1.96868	-1.95487
H	0.3897	4.13266	-1.32523
H	1.86019	3.26426	-0.73263
H	0.487958	3.60642	0.401433
N	0.454681	0.991742	-0.262588
C	-0.107436	-0.31903	-0.473446
C	-0.120397	-1.04774	0.857105
O	0.449596	-0.57601	1.83909
H	1.05545	1.07981	0.526837
H	-1.13618	-0.218826	-0.796376
C	0.712857	-1.1099	-1.51598
H	1.76582	-1.22209	-1.18024
H	0.281992	-2.11587	-1.69738
H	0.715348	-0.554336	-2.47915
N	-0.783347	-2.2192	0.922004
C	-0.854448	-2.98063	2.1473
H	-1.24186	-2.58271	0.117832
H	-1.44332	-3.91233	1.99771
H	-1.3409	-2.38409	2.95278
H	0.165862	-3.26245	2.4947
C	996.339	1.61827	-2.75039
C	995.238	0.880631	-2.09151
O	994.133	0.795708	-2.61057
H	995.972	2.04733	-3.70814
H	997.185	0.931815	-2.96466
H	996.69	2.44491	-2.09745
N	995.519	0.323521	-0.911364
C	994.539	-0.389132	-0.130542
C	994.916	-0.260678	1.33334
O	995.994	0.227319	1.66542
H	996.411	0.436033	-0.482546
H	993.571	0.0806013	-0.256888
C	994.478	-1.87551	-0.545481
H	995.467	-2.36054	-0.406096
H	993.717	-2.43199	0.0390554
H	994.208	-1.9452	-1.62194
N	994.025	-0.691337	2.24848
C	994.295	-0.604327	3.66479
H	993.156	-1.07951	1.96047
H	993.442	-1.00903	4.25302
H	994.459	0.454791	3.96902
H	995.209	-1.18469	3.92735
