44
  This energy is 0 and Call times are: 159241
C	2.95978	1.78511	0.407128
C	1.9696	0.78265	0.860715
O	2.21271	0.0301213	1.79399
H	3.88037	1.69731	1.02413
H	2.54705	2.80951	0.5212
H	3.22247	1.60907	-0.657341
N	0.812023	0.749184	0.196422
C	-0.231795	-0.199805	0.493784
C	-1.01593	-0.454891	-0.779642
O	-0.825246	0.227995	-1.78414
H	0.644786	1.34044	-0.587361
H	0.214716	-1.14034	0.791527
C	-1.1623	0.333737	1.60497
H	-1.62881	1.29331	1.29572
H	-1.9621	-0.393912	1.8527
H	-0.565964	0.520804	2.52461
N	-1.91664	-1.45721	-0.769151
C	-2.7053	-1.777	-1.93617
H	-2.05389	-2.00134	0.0519206
H	-3.38698	-2.63098	-1.72821
H	-2.047	-2.05422	-2.7912
H	-3.32258	-0.902545	-2.24511
C	129.601	2.11095	-0.945089
C	129.093	0.831111	-0.401515
O	129.836	-0.127925	-0.242342
H	130.685	2.01023	-1.17
H	129.462	2.92421	-0.202074
H	129.062	2.36969	-1.88102
N	127.793	0.787681	-0.102058
C	127.145	-0.400704	0.394797
C	125.69	-0.360365	-0.0328396
O	125.212	0.649548	-0.546168
H	127.193	1.56346	-0.275559
H	127.593	-1.27148	-0.0674095
C	127.255	-0.486964	1.93287
H	126.786	0.401048	2.40792
H	126.772	-1.40483	2.3264
H	128.328	-0.507237	2.2234
N	124.95	-1.46936	0.162767
C	123.558	-1.52575	-0.217625
H	125.355	-2.27812	0.575853
H	123.124	-2.52111	0.0240165
H	123.442	-1.34927	-1.31158
H	122.971	-0.747177	0.321637
