44
  This energy is 0 and Call times are: 164869
C	-2.01615	-2.11357	-1.89225
C	-1.34485	-0.814643	-1.66145
O	-1.28598	0.0327004	-2.54177
H	-2.39595	-2.15031	-2.93642
H	-2.87156	-2.23162	-1.19434
H	-1.29847	-2.94739	-1.74137
N	-0.812983	-0.628283	-0.451175
C	-0.0909003	0.566494	-0.0910834
C	0.92565	0.201752	0.974348
O	0.915951	-0.909767	1.49984
H	-0.833251	-1.34343	0.241657
H	0.458997	0.924803	-0.952396
C	-1.05301	1.65688	0.429152
H	-1.60972	1.29353	1.31915
H	-0.510583	2.58678	0.696706
H	-1.79279	1.90229	-0.363843
N	1.83794	1.13386	1.31335
C	2.84755	0.874888	2.31326
H	1.83233	2.0261	0.874084
H	3.50258	1.76339	2.45005
H	3.48539	0.0121176	2.01314
H	2.37687	0.631811	3.29331
C	528.509	-3.19893	1.2799
C	528.844	-1.76662	1.44478
O	528.92	-1.25794	2.5547
H	528.34	-3.65419	2.28
H	529.343	-3.73214	0.778282
H	527.584	-3.30824	0.674935
N	529.053	-1.07325	0.323294
C	529.346	0.338458	0.32117
C	528.838	0.924866	-0.982477
O	528.435	0.19536	-1.88653
H	528.948	-1.49163	-0.574308
H	528.801	0.817548	1.12466
C	530.863	0.58771	0.472248
H	531.422	0.105296	-0.357616
H	531.1	1.67135	0.485939
H	531.214	0.14333	1.42899
N	528.837	2.26676	-1.10632
C	528.367	2.91474	-2.3084
H	529.163	2.84053	-0.362255
H	528.446	4.02037	-2.21596
H	527.301	2.65487	-2.5034
H	528.968	2.59241	-3.18951
