44
  This energy is 0 and Call times are: 164981
C	0.338505	-1.2453	-3.23223
C	0.79926	-1.11288	-1.83176
O	1.69256	-1.82202	-1.38956
H	0.909855	-2.05775	-3.73159
H	0.508355	-0.295971	-3.78238
H	-0.742421	-1.49843	-3.25715
N	0.186926	-0.186502	-1.09065
C	0.496085	0.0300555	0.300784
C	-0.749249	0.561892	0.984778
O	-1.7357	0.891722	0.329159
H	-0.566428	0.354933	-1.45282
H	0.738899	-0.917907	0.764507
C	1.66674	1.02518	0.457427
H	1.41403	2.00125	-0.00891296
H	1.92346	1.18965	1.524
H	2.56484	0.619272	-0.057352
N	-0.734863	0.649849	2.32943
C	-1.87613	1.13915	3.06718
H	0.0711327	0.374308	2.84277
H	-1.66904	1.13527	4.16003
H	-2.76945	0.500968	2.87749
H	-2.12485	2.18102	2.76094
C	539.234	-2.42093	-1.12294
C	538.041	-1.56423	-1.30495
O	537.499	-1.45751	-2.39634
H	539.509	-2.87979	-2.09751
H	539.017	-3.22939	-0.393508
H	540.089	-1.81361	-0.757894
N	537.6	-0.922328	-0.220456
C	536.476	-0.0198545	-0.250059
C	536.672	1.01523	0.841678
O	537.572	0.894538	1.66983
H	538.076	-0.987106	0.651791
H	536.466	0.507059	-1.19604
C	535.15	-0.783268	-0.0410233
H	535.156	-1.31544	0.934069
H	534.276	-0.101161	-0.0755656
H	535.031	-1.54058	-0.846505
N	535.831	2.0684	0.862672
C	535.944	3.10602	1.86102
H	535.111	2.15073	0.181673
H	535.164	3.88392	1.70998
H	536.943	3.59655	1.80623
H	535.824	2.68194	2.88412
