44
  This energy is 0 and Call times are: 170329
C	-2.60928	2.22709	-0.586888
C	-1.79121	1.38709	0.316607
O	-1.88671	1.48603	1.53213
H	-3.24575	2.90718	0.019955
H	-3.26411	1.58768	-1.21545
H	-1.952	2.83825	-1.24077
N	-0.952789	0.528538	-0.268478
C	-0.0617287	-0.324293	0.478014
C	1.15837	-0.600365	-0.380297
O	1.18734	-0.260559	-1.56157
H	-0.856724	0.488458	-1.25895
H	0.27794	0.200616	1.36217
C	-0.760025	-1.64564	0.867456
H	-1.09934	-2.18962	-0.0397309
H	-0.0886093	-2.30515	1.45463
H	-1.6542	-1.41906	1.48832
N	2.20436	-1.22027	0.200784
C	3.41015	-1.51947	-0.535915
H	2.16373	-1.48384	1.15888
H	4.15286	-2.02994	0.116023
H	3.87243	-0.585041	-0.928857
H	3.18717	-2.18469	-1.40131
C	917.934	-0.143233	3.30983
C	918.021	0.534787	1.99687
O	917.337	1.51781	1.74556
H	917.177	0.372553	3.94011
H	918.916	-0.106361	3.82546
H	917.627	-1.20186	3.17425
N	918.877	0.013391	1.11531
C	919.041	0.536944	-0.217979
C	919.474	-0.600906	-1.12306
O	919.785	-1.69459	-0.655029
H	919.396	-0.811459	1.31985
H	918.085	0.892552	-0.581924
C	920.085	1.67407	-0.239779
H	921.069	1.30708	0.123563
H	920.21	2.09491	-1.25851
H	919.752	2.49208	0.435384
N	919.496	-0.370068	-2.45054
C	919.89	-1.39473	-3.38937
H	919.238	0.520145	-2.8106
H	919.843	-1.01134	-4.43247
H	919.217	-2.27912	-3.3105
H	920.931	-1.73434	-3.18687
