44
  This energy is -3.5412 and Call times are: 140126
C	0.211937	2.35775	-2.55123
C	0.396362	1.9416	-1.1427
O	1.03033	2.63186	-0.356552
H	0.737541	3.32253	-2.72099
H	-0.867726	2.49298	-2.7721
H	0.635884	1.59239	-3.23503
N	-0.161923	0.781713	-0.788635
C	-0.0324761	0.224582	0.534773
C	-0.121958	-1.28573	0.422972
O	-0.44107	-1.82098	-0.636932
H	-0.640145	0.211204	-1.45022
H	0.948428	0.461394	0.927683
C	-1.13572	0.764545	1.47101
H	-2.14212	0.512697	1.0738
H	-1.03856	0.353593	2.49678
H	-1.05609	1.87195	1.53156
N	0.168143	-2.01223	1.52027
C	0.115328	-3.45556	1.50695
H	0.428344	-1.56124	2.36761
H	0.387499	-3.86826	2.50336
H	0.823248	-3.86756	0.751716
H	-0.909144	-3.80902	1.24876
C	4.87716	0.647276	-3.41741
C	5.61193	0.278306	-2.1865
O	6.75824	-0.145802	-2.23667
H	5.52258	0.455171	-4.30194
H	4.60957	1.72461	-3.39496
H	3.95272	0.0388016	-3.50816
N	4.95502	0.432455	-1.0345
C	5.52269	0.0758884	0.241885
C	4.38798	-0.302373	1.17512
O	3.21682	-0.116586	0.85021
H	4.00805	0.740073	-1.01283
H	6.14789	-0.800194	0.122584
C	6.3391	1.2479	0.829349
H	5.69567	2.14373	0.961785
H	6.79286	0.981009	1.80577
H	7.15877	1.51292	0.126328
N	4.71149	-0.85362	2.36149
C	3.69882	-1.25045	3.31185
H	5.66464	-0.999812	2.60483
H	4.16423	-1.68272	4.22497
H	3.02173	-2.01571	2.86778
H	3.07933	-0.37537	3.61452
