44
  This energy is -7.5661 and Call times are: 141671
C	0.34616	-1.05042	-3.29992
C	-0.0404552	-0.0428784	-2.28674
O	-0.302775	1.10828	-2.60681
H	0.362083	-0.573994	-4.30423
H	-0.386733	-1.8844	-3.30937
H	1.35766	-1.45002	-3.07567
N	-0.0823887	-0.461287	-1.01964
C	-0.399759	0.413552	0.0814922
C	0.297848	-0.114097	1.32104
O	0.8546	-1.2103	1.31187
H	0.173548	-1.39084	-0.770045
H	0.000510453	1.3996	-0.118828
C	-1.92588	0.484276	0.30777
H	-2.3354	-0.52552	0.523736
H	-2.18392	1.16565	1.14423
H	-2.41636	0.865314	-0.6145
N	0.29065	0.663736	2.42148
C	0.933548	0.247026	3.6459
H	-0.161548	1.54941	2.40827
H	0.817934	1.02285	4.43454
H	2.0218	0.0758179	3.47956
H	0.487887	-0.702912	4.02026
C	2.91907	-3.12339	-0.115901
C	3.64294	-2.00229	-0.756439
O	4.10724	-2.10998	-1.88305
H	2.90994	-3.99596	-0.804664
H	1.8716	-2.82731	0.102942
H	3.42519	-3.41605	0.828167
N	3.75838	-0.882861	-0.0381452
C	4.47221	0.277518	-0.509867
C	5.01377	1.02218	0.695855
O	4.67861	0.704124	1.83525
H	3.41076	-0.824316	0.893301
H	5.32199	-0.0414804	-1.1004
C	3.54787	1.19344	-1.34168
H	2.68144	1.52949	-0.733073
H	4.08946	2.08359	-1.72226
H	3.15697	0.625527	-2.21404
N	5.87658	2.03263	0.471
C	6.4479	2.79453	1.55694
H	6.13898	2.27251	-0.457807
H	7.13274	3.58023	1.16846
H	7.02682	2.13151	2.23998
H	5.64773	3.29006	2.15303
