44
  This energy is -4.7591 and Call times are: 140934
C	0.697867	-3.37059	-0.514545
C	0.084924	-2.08858	-0.929135
O	-0.363583	-1.93691	-2.05707
H	0.679122	-4.08029	-1.37003
H	0.128503	-3.81138	0.330602
H	1.75195	-3.20844	-0.20519
N	0.0542359	-1.1208	-0.00998287
C	-0.471299	0.194629	-0.278335
C	0.245563	1.18309	0.622007
O	0.990249	0.792554	1.51903
H	0.460191	-1.24587	0.890808
H	-0.245325	0.467687	-1.30157
C	-1.99477	0.241467	-0.0291488
H	-2.22635	-0.0283437	1.02328
H	-2.41367	1.24555	-0.245629
H	-2.49801	-0.495232	-0.692755
N	0.042218	2.49597	0.396138
C	0.686144	3.50964	1.19864
H	-0.560724	2.79258	-0.337043
H	0.392605	4.52674	0.857222
H	1.7945	3.42213	1.12677
H	0.400181	3.40311	2.27009
C	5.60042	-3.0589	1.09196
C	4.93568	-1.7596	1.3392
O	4.39463	-1.51895	2.4096
H	5.49259	-3.7036	1.99117
H	6.68081	-2.90346	0.888648
H	5.13113	-3.56997	0.224985
N	4.96055	-0.879756	0.335391
C	4.31966	0.409469	0.41096
C	3.91938	0.821712	-0.993106
O	4.29673	0.177825	-1.97021
H	5.36925	-1.10562	-0.544273
H	3.41075	0.322982	0.993216
C	5.26469	1.45962	1.03494
H	6.19273	1.55634	0.432094
H	4.77786	2.45344	1.11134
H	5.5509	1.13349	2.05869
N	3.13301	1.90803	-1.12558
C	2.69714	2.37209	-2.42204
H	2.83453	2.41363	-0.322867
H	2.0585	3.27723	-2.32147
H	2.10779	1.58356	-2.94375
H	3.57202	2.62937	-3.06199
