44
  This energy is 0.1034 and Call times are: 143337
C	0.771108	3.12996	-1.31202
C	0.832503	2.11779	-0.233658
O	1.58598	2.25415	0.720327
H	1.49759	3.94286	-1.09454
H	-0.248546	3.56542	-1.37057
H	1.03151	2.66665	-2.28702
N	0.0279662	1.06057	-0.365569
C	0.00667492	-0.0273353	0.580243
C	-0.407575	-1.28691	-0.156926
O	-0.814631	-1.23331	-1.31587
H	-0.54991	0.943603	-1.16822
H	1.00764	-0.190233	0.959931
C	-0.970675	0.268101	1.73901
H	-1.99971	0.424876	1.351
H	-0.985723	-0.55615	2.48124
H	-0.652837	1.19805	2.25913
N	-0.304542	-2.45871	0.500573
C	-0.670364	-3.70956	-0.122106
H	0.0308746	-2.48233	1.43653
H	-0.514443	-4.5585	0.579466
H	-0.0544474	-3.88987	-1.03282
H	-1.74193	-3.69841	-0.42668
C	6.38248	-2.40416	1.82519
C	6.29968	-1.08867	1.15154
O	7.17177	-0.244223	1.30245
H	7.30369	-2.44136	2.44635
H	6.42423	-3.21821	1.07131
H	5.49981	-2.5539	2.48211
N	5.22852	-0.882481	0.381804
C	4.98731	0.362905	-0.303312
C	3.48807	0.533536	-0.460602
O	2.7174	-0.383761	-0.184301
H	4.50679	-1.56402	0.301389
H	5.34271	1.18219	0.309126
C	5.68158	0.377144	-1.68281
H	5.30962	-0.456895	-2.31532
H	5.51482	1.33636	-2.21444
H	6.77658	0.242828	-1.54398
N	3.03728	1.72375	-0.903529
C	1.62672	1.98003	-1.07904
H	3.67607	2.45521	-1.118
H	1.45824	3.01497	-1.45018
H	1.0828	1.8609	-0.114033
H	1.18627	1.26779	-1.8138
