44
  This energy is 0.1644 and Call times are: 145235
C	-3.46451	0.268533	0.19429
C	-2.17567	-0.311673	0.634045
O	-2.10144	-0.994492	1.6463
H	-4.25897	-0.00848864	0.920905
H	-3.73979	-0.125249	-0.806658
H	-3.38992	1.37551	0.148078
N	-1.11366	-0.0457168	-0.130019
C	0.214619	-0.504497	0.192082
C	1.20967	0.483286	-0.387329
O	0.839957	1.37919	-1.14389
H	-1.18228	0.545547	-0.928496
H	0.343503	-0.499073	1.26725
C	0.462572	-1.9191	-0.375954
H	0.340812	-1.92292	-1.48013
H	1.47718	-2.28919	-0.122726
H	-0.281747	-2.6235	0.0555079
N	2.50346	0.346342	-0.0360793
C	3.52073	1.24295	-0.533501
H	2.78269	-0.382313	0.580494
H	4.51987	0.966523	-0.130338
H	3.29988	2.29286	-0.233207
H	3.56848	1.20482	-1.64589
C	9.59877	-0.627881	-1.34304
C	8.71592	-0.0389176	-0.311126
O	9.17257	0.411464	0.730526
H	10.6522	-0.591113	-0.989651
H	9.51704	-0.053551	-2.28973
H	9.31842	-1.68636	-1.52769
N	7.40871	-0.0317163	-0.582325
C	6.42212	0.468536	0.342302
C	5.12173	-0.271987	0.0929063
O	4.99544	-1.01267	-0.880307
H	7.04829	-0.439077	-1.4166
H	6.73353	0.241679	1.35432
C	6.22152	1.98964	0.165517
H	5.89186	2.22191	-0.869575
H	5.47423	2.38928	0.881313
H	7.18738	2.51048	0.344877
N	4.12117	-0.0939971	0.977898
C	2.8495	-0.761664	0.825446
H	4.2437	0.506136	1.76142
H	2.15939	-0.48706	1.65344
H	2.9832	-1.86772	0.832903
H	2.37001	-0.478386	-0.13943
