44
  This energy is 0.1096 and Call times are: 144164
C	1.98529	1.12117	2.62951
C	1.81848	0.544516	1.27644
O	2.76791	0.437423	0.512548
H	3.04631	1.42037	2.773
H	1.71619	0.369942	3.40151
H	1.34028	2.01758	2.74564
N	0.584979	0.156099	0.944813
C	0.258291	-0.383648	-0.351531
C	-1.19344	-0.0574164	-0.647534
O	-1.92098	0.421225	0.22039
H	-0.185361	0.287416	1.56223
H	0.859761	0.108799	-1.10543
C	0.488358	-1.91042	-0.387377
H	-0.136363	-2.41712	0.378788
H	0.253525	-2.33586	-1.38456
H	1.55521	-2.12623	-0.160212
N	-1.64831	-0.30306	-1.89203
C	-3.01395	-0.0195754	-2.26734
H	-1.0434	-0.686783	-2.58189
H	-3.19365	-0.290062	-3.33119
H	-3.24	1.0637	-2.13816
H	-3.72404	-0.598413	-1.63342
C	2.04787	-2.53119	0.637206
C	3.02801	-1.51741	1.08744
O	3.13039	-1.21677	2.26878
H	1.47494	-2.90307	1.51431
H	2.57278	-3.3864	0.161977
H	1.33955	-2.08194	-0.0904753
N	3.78125	-0.957453	0.137978
C	4.74841	0.0749214	0.416086
C	4.8834	0.942306	-0.821247
O	4.3537	0.614225	-1.88119
H	3.65791	-1.18286	-0.824226
H	4.3775	0.706377	1.21378
C	6.11351	-0.536933	0.799992
H	6.49943	-1.17644	-0.0222882
H	6.86301	0.247844	1.02998
H	5.98932	-1.17383	1.70292
N	5.59408	2.08199	-0.71143
C	5.77187	2.97309	-1.83415
H	6.01178	2.33255	0.155647
H	6.38528	3.85429	-1.54354
H	4.78703	3.33866	-2.20526
H	6.28465	2.45017	-2.67365
