44
  This energy is 0.112 and Call times are: 143537
C	1.69772	0.096206	-3.03664
C	0.677347	0.61319	-2.09711
O	0.119435	1.68373	-2.29481
H	1.84185	0.827693	-3.86128
H	1.36524	-0.871166	-3.46838
H	2.66492	-0.0471095	-2.51027
N	0.408848	-0.148942	-1.03436
C	-0.528527	0.240873	-0.0106733
C	-0.0990521	-0.403276	1.294
O	0.79739	-1.24448	1.31591
H	0.900784	-0.998311	-0.865726
H	-0.48028	1.31375	0.128064
C	-1.96336	-0.193167	-0.382279
H	-2.01573	-1.29491	-0.514392
H	-2.69653	0.113509	0.391637
H	-2.25357	0.283648	-1.34393
N	-0.728091	-0.0139119	2.42038
C	-0.383009	-0.567803	3.70891
H	-1.44817	0.671049	2.38307
H	-1.01144	-0.120519	4.5103
H	0.686281	-0.367228	3.94905
H	-0.53749	-1.67108	3.71661
C	3.58551	0.951693	3.31924
C	4.09056	0.76269	1.94071
O	5.17211	1.21773	1.59486
H	4.3197	1.55086	3.90046
H	3.45116	-0.0322168	3.81585
H	2.61539	1.49169	3.30069
N	3.3031	0.0767062	1.10901
C	3.63912	-0.151679	-0.274271
C	2.3476	-0.286941	-1.05864
O	1.26485	-0.362051	-0.480949
H	2.40716	-0.252191	1.39359
H	4.16299	0.713062	-0.662094
C	4.50265	-1.42267	-0.429652
H	3.96145	-2.31179	-0.0415627
H	4.77958	-1.60171	-1.48879
H	5.43863	-1.30466	0.158864
N	2.43247	-0.312727	-2.40331
C	1.25619	-0.433352	-3.23277
H	3.31721	-0.246598	-2.85267
H	1.53319	-0.435849	-4.31003
H	0.559284	0.416914	-3.05208
H	0.712211	-1.37929	-3.00821
