44
  This energy is 0.1726 and Call times are: 143969
C	-3.42485	0.487498	0.381369
C	-2.25146	-0.380916	0.136121
O	-2.35224	-1.59996	0.149943
H	-4.31631	-0.146716	0.578725
H	-3.6245	1.12127	-0.508135
H	-3.24293	1.13634	1.26398
N	-1.09216	0.239376	-0.0955116
C	0.144429	-0.470587	-0.308483
C	1.28447	0.414288	0.15934
O	1.08471	1.58689	0.470506
H	-1.01773	1.23198	-0.0629882
H	0.154929	-1.36208	0.306134
C	0.320231	-0.837788	-1.79828
H	0.320101	0.0772229	-2.4282
H	1.26219	-1.39699	-1.97302
H	-0.529122	-1.47873	-2.12099
N	2.5137	-0.133709	0.228025
C	3.65829	0.629962	0.667247
H	2.65479	-1.08536	-0.0240269
H	4.57725	0.00340571	0.655075
H	3.50462	1.0066	1.70446
H	3.82361	1.50818	0.0020056
C	6.49402	-3.43361	0.566668
C	7.163	-2.11473	0.502248
O	8.2952	-1.9573	0.937859
H	7.16929	-4.16411	1.06288
H	6.2628	-3.79585	-0.457085
H	5.55393	-3.35762	1.15278
N	6.46365	-1.12093	-0.0506175
C	6.96429	0.227753	-0.145284
C	5.77884	1.17438	-0.13149
O	4.62952	0.745612	-0.214704
H	5.5277	-1.25487	-0.363551
H	7.56358	0.448536	0.729205
C	7.79482	0.418793	-1.4333
H	7.17745	0.202617	-2.33116
H	8.19747	1.44951	-1.51089
H	8.65208	-0.289287	-1.4256
N	6.03282	2.49284	-0.0167277
C	4.96787	3.46818	0.0107568
H	6.96926	2.82029	0.0535514
H	5.37916	4.49684	0.110408
H	4.28433	3.27928	0.870044
H	4.36649	3.42001	-0.925816
