44
  This energy is 0.1152 and Call times are: 145419
C	0.465152	-3.43809	-0.275407
C	0.969917	-2.07166	-0.0122981
O	2.08227	-1.88828	0.462528
H	1.23148	-4.17958	0.0389353
H	0.261762	-3.56888	-1.35904
H	-0.467221	-3.61901	0.299955
N	0.147149	-1.06587	-0.318593
C	0.480725	0.316247	-0.0797813
C	-0.809304	1.08188	0.146469
O	-1.90014	0.550405	-0.0518248
H	-0.771136	-1.23247	-0.666252
H	1.06392	0.390998	0.829576
C	1.26042	0.909805	-1.27352
H	0.658338	0.842938	-2.20468
H	1.53517	1.96975	-1.09585
H	2.19644	0.329225	-1.42564
N	-0.713411	2.35485	0.578181
C	-1.88706	3.15937	0.82614
H	0.178038	2.76619	0.73689
H	-1.60049	4.17578	1.17544
H	-2.52836	2.6886	1.60613
H	-2.49407	3.26555	-0.101975
C	7.36287	1.77802	0.869131
C	6.5709	0.968033	-0.0836827
O	6.91247	0.852273	-1.25259
H	8.23147	2.22458	0.338122
H	7.73716	1.13865	1.69609
H	6.73856	2.59543	1.28766
N	5.47496	0.381727	0.403709
C	4.58069	-0.402285	-0.411254
C	3.19042	-0.310167	0.18895
O	3.0119	0.213609	1.2869
H	5.18769	0.518713	1.34741
H	4.53259	0.0276064	-1.40398
C	5.04428	-1.87387	-0.480229
H	5.08366	-2.31852	0.537015
H	4.37152	-2.48497	-1.11622
H	6.06674	-1.91655	-0.915065
N	2.16568	-0.813485	-0.526996
C	0.807164	-0.765862	-0.0387839
H	2.32944	-1.22976	-1.41524
H	0.109754	-1.2297	-0.770704
H	0.487411	0.28785	0.130715
H	0.717207	-1.31356	0.927177
