44
  This energy is -2.902 and Call times are: 146522
C	0.771108	-2.92429	-1.72239
C	0.832503	-1.45461	-1.55684
O	1.58598	-0.771926	-2.237
H	1.49759	-3.23654	-2.5038
H	-0.248546	-3.2318	-2.03621
H	1.03151	-3.42814	-0.767704
N	0.0279662	-0.927587	-0.630903
C	0.00667492	0.481222	-0.325353
C	-0.407575	0.644444	1.12493
O	-0.814631	-0.316127	1.77556
H	-0.54991	-1.50063	-0.0568388
H	1.00764	0.882898	-0.422075
C	-0.970675	1.23277	-1.25552
H	-1.99971	0.828088	-1.14891
H	-0.985723	2.32069	-1.03936
H	-0.652837	1.09293	-2.31182
N	-0.304542	1.87247	1.67023
C	-0.670364	2.1222	3.045
H	0.0308746	2.63645	1.12902
H	-0.514443	3.19232	3.30527
H	-0.0544474	1.50048	3.73449
H	-1.74193	1.87152	3.21834
C	2.96024	3.18186	-0.67195
C	3.90915	2.07347	-0.921326
O	4.63951	2.07415	-1.90265
H	3.03754	3.92395	-1.49608
H	3.20249	3.68435	0.28803
H	1.9204	2.79412	-0.633875
N	3.91711	1.08566	-0.0232324
C	4.75468	-0.0806443	-0.152638
C	4.06331	-1.23886	0.541709
O	3.05856	-1.0539	1.2258
H	3.28776	1.0793	0.748608
H	4.84597	-0.340462	-1.19991
C	6.14726	0.168725	0.466859
H	6.05488	0.424998	1.54382
H	6.80624	-0.717341	0.361208
H	6.63133	1.02527	-0.0511532
N	4.5848	-2.47002	0.373487
C	3.99155	-3.63308	0.991154
H	5.3959	-2.60026	-0.187079
H	4.5648	-4.55077	0.733364
H	2.9407	-3.7679	0.646453
H	3.98014	-3.52648	2.10005
