44
  This energy is 0.128 and Call times are: 142861
C	-3.28851	1.02164	0.504648
C	-2.18244	0.575477	-0.372106
O	-2.38636	0.254786	-1.53485
H	-4.24411	0.98522	-0.0622547
H	-3.11138	2.0639	0.843845
H	-3.36932	0.3542	1.38844
N	-0.966036	0.542803	0.177142
C	0.201479	0.0900943	-0.537367
C	1.17974	-0.483659	0.470287
O	0.986132	-0.358053	1.67795
H	-0.822329	0.767679	1.13665
H	-0.0789909	-0.712687	-1.20782
C	0.851485	1.24988	-1.32326
H	1.14898	2.06922	-0.634629
H	1.74358	0.910975	-1.8888
H	0.115264	1.65951	-2.04889
N	2.2565	-1.13873	-0.00667169
C	3.2385	-1.72289	0.876856
H	2.39383	-1.23359	-0.987088
H	4.04687	-2.21734	0.294372
H	2.76719	-2.48499	1.53893
H	3.6996	-0.941598	1.52348
C	2.24482	1.43721	-2.22741
C	2.63094	0.991408	-0.869716
O	1.96852	1.30181	0.110728
H	1.32956	2.06475	-2.16149
H	2.03269	0.558949	-2.8727
H	3.06138	2.03901	-2.67924
N	3.73246	0.242191	-0.781962
C	4.25737	-0.230349	0.474913
C	5.75883	-0.391876	0.329674
O	6.29965	-0.291035	-0.769894
H	4.28388	0.032032	-1.58422
H	4.08583	0.51867	1.23791
C	3.60479	-1.57141	0.87608
H	3.78945	-2.34307	0.0985912
H	3.99059	-1.93881	1.84906
H	2.50563	-1.43145	0.968824
N	6.47191	-0.639838	1.44594
C	7.90647	-0.802925	1.40583
H	6.01694	-0.713913	2.32718
H	8.30855	-0.999511	2.42412
H	8.39522	0.115569	1.00735
H	8.18675	-1.65658	0.747144
