44
  This energy is 0.2106 and Call times are: 139734
C	2.52807	-1.04139	-2.15338
C	1.5006	-1.31168	-1.12266
O	1.17501	-2.45603	-0.838251
H	2.88431	-2.00489	-2.5784
H	3.39052	-0.506538	-1.703
H	2.09735	-0.42544	-2.9708
N	0.957014	-0.244655	-0.532455
C	-0.0854057	-0.346667	0.45826
C	-0.927499	0.913416	0.390259
O	-0.574999	1.87014	-0.296864
H	1.20294	0.681518	-0.803729
H	-0.731578	-1.18012	0.212392
C	0.511987	-0.523087	1.8715
H	1.16664	0.336839	2.12839
H	-0.280876	-0.616734	2.64164
H	1.13056	-1.44674	1.89578
N	-2.07251	0.939351	1.1004
C	-2.9409	2.09348	1.0925
H	-2.34298	0.153905	1.6472
H	-3.83079	1.92048	1.73701
H	-3.29409	2.31221	0.0587214
H	-2.40303	2.99267	1.47104
C	3.75329	-1.32715	-2.89838
C	3.63334	-0.720278	-1.55359
O	2.55601	-0.322095	-1.13261
H	2.75795	-1.32258	-3.39349
H	4.10826	-2.37583	-2.81472
H	4.46606	-0.744245	-3.51906
N	4.7579	-0.633281	-0.839313
C	4.80754	-0.0283163	0.468398
C	6.19958	0.538421	0.674816
O	7.10249	0.297554	-0.124215
H	5.63449	-0.924389	-1.21172
H	4.11277	0.801501	0.504717
C	4.47511	-1.06146	1.56719
H	5.19399	-1.90784	1.53714
H	4.49648	-0.604544	2.57778
H	3.45545	-1.46867	1.39165
N	6.40372	1.31719	1.75549
C	7.69407	1.90486	2.03084
H	5.65971	1.50403	2.38843
H	7.6594	2.51078	2.96299
H	8.01042	2.56802	1.19334
H	8.46796	1.11323	2.15557
