44
  This energy is 0.1171 and Call times are: 142623
C	-2.64875	0.721868	-2.13909
C	-2.09095	0.490004	-0.787707
O	-2.74306	0.737432	0.217255
H	-3.67322	1.14342	-2.04622
H	-2.70328	-0.234813	-2.69992
H	-2.01327	1.44152	-2.69709
N	-0.848954	0.00327095	-0.73383
C	-0.156409	-0.233944	0.508213
C	1.33203	-0.0841816	0.255898
O	1.76838	0.0321657	-0.887685
H	-0.315806	-0.154536	-1.5601
H	-0.43993	0.525653	1.22603
C	-0.473644	-1.6425	1.05646
H	-0.173285	-2.4226	0.324848
H	0.0428173	-1.83206	2.01971
H	-1.56887	-1.73221	1.22609
N	2.14998	-0.0751932	1.32684
C	3.58015	0.068078	1.18448
H	1.77783	-0.166456	2.24458
H	4.0779	0.0521881	2.17908
H	3.83044	1.03079	0.682665
H	3.99892	-0.76098	0.569315
C	6.82503	2.69599	-0.337073
C	6.43873	1.40076	0.266499
O	7.22743	0.759038	0.946606
H	7.88262	2.92078	-0.0785499
H	6.17857	3.50897	0.0552272
H	6.72777	2.64736	-1.44217
N	5.1948	0.980733	0.0244243
C	4.68817	-0.279503	0.507834
C	3.62266	-0.762722	-0.457971
O	3.21086	-0.0331957	-1.35792
H	4.57776	1.49438	-0.564884
H	5.48599	-1.01165	0.500654
C	4.10296	-0.130141	1.92927
H	3.27741	0.613139	1.9351
H	3.7221	-1.0967	2.31814
H	4.89789	0.231981	2.61723
N	3.15512	-2.01633	-0.297125
C	2.14457	-2.5642	-1.17165
H	3.50358	-2.59298	0.434403
H	1.89312	-3.60698	-0.877334
H	2.50188	-2.57437	-2.22688
H	1.21395	-1.9533	-1.12817
