44
  This energy is -7.1266 and Call times are: 145768
C	0.761969	2.75503	-1.98542
C	-0.0934622	1.5997	-1.63245
O	-1.19568	1.44934	-2.1413
H	0.228745	3.39568	-2.72103
H	1.71277	2.40309	-2.43803
H	0.984742	3.35719	-1.0794
N	0.403954	0.745108	-0.735441
C	-0.328295	-0.402364	-0.260384
C	0.140512	-0.712407	1.14875
O	1.11483	-0.136672	1.62931
H	1.28543	0.902993	-0.299631
H	-1.38113	-0.15562	-0.203103
C	-0.106838	-1.61957	-1.18484
H	0.971964	-1.87965	-1.23562
H	-0.676511	-2.50572	-0.83738
H	-0.449488	-1.36735	-2.21213
N	-0.552819	-1.6304	1.85061
C	-0.183916	-1.98621	3.20098
H	-1.34088	-2.08258	1.44618
H	-0.875098	-2.75719	3.60728
H	-0.223612	-1.09399	3.86704
H	0.852588	-2.39353	3.2309
C	7.25019	-0.747879	-2.81828
C	6.1149	-1.00917	-1.90504
O	5.23286	-1.80281	-2.20262
H	7.12515	-1.35326	-3.74225
H	8.20669	-1.03026	-2.33031
H	7.27961	0.327293	-3.09435
N	6.1116	-0.333138	-0.753804
C	5.0518	-0.448969	0.216743
C	4.96292	0.859994	0.97851
O	5.82054	1.72977	0.838243
H	6.81504	0.339849	-0.543752
H	4.1093	-0.587099	-0.298273
C	5.31666	-1.6223	1.18544
H	6.27838	-1.47583	1.7218
H	4.50069	-1.73056	1.92908
H	5.38584	-2.5685	0.60556
N	3.91056	1.03393	1.8021
C	3.73948	2.24923	2.56365
H	3.22472	0.320308	1.89924
H	2.81489	2.2002	3.18006
H	3.66243	3.13001	1.88573
H	4.60649	2.41207	3.24403
