44
  This energy is 0.1031 and Call times are: 146332
C	2.07755	-2.45802	-1.3246
C	1.83374	-1.29341	-0.444054
O	2.65742	-0.948573	0.39203
H	3.06034	-2.91126	-1.07045
H	2.09375	-2.13743	-2.38748
H	1.28252	-3.21977	-1.18056
N	0.674818	-0.652905	-0.614472
C	0.277404	0.471301	0.195949
C	-1.23817	0.496923	0.258615
O	-1.91057	-0.247388	-0.45244
H	-0.00327039	-0.970321	-1.27121
H	0.63967	0.329017	1.20647
C	0.817466	1.79345	-0.391843
H	0.437629	1.94507	-1.42469
H	0.529832	2.66524	0.230871
H	1.92763	1.74917	-0.435713
N	-1.81379	1.35493	1.12378
C	-3.2492	1.44541	1.25642
H	-1.25294	1.94628	1.69371
H	-3.52652	2.20719	2.01801
H	-3.67733	0.465434	1.56889
H	-3.71621	1.73269	0.286623
C	6.24036	-2.99115	0.370012
C	6.19459	-1.51687	0.245333
O	7.18513	-0.832295	0.461188
H	7.25944	-3.30138	0.687956
H	6.0088	-3.4652	-0.606923
H	5.5069	-3.33386	1.13004
N	5.02158	-0.987474	-0.109908
C	4.81059	0.433647	-0.230121
C	3.34983	0.721269	0.0614402
O	2.53899	-0.195326	0.180201
H	4.2137	-1.55461	-0.242329
H	5.39675	0.9467	0.522087
C	5.18869	0.929961	-1.64291
H	4.5802	0.411532	-2.41429
H	5.04375	2.0251	-1.74379
H	6.2594	0.701956	-1.83765
N	2.98049	2.01061	0.192583
C	1.61323	2.38019	0.475724
H	3.65177	2.73817	0.0971225
H	1.51127	3.48554	0.546715
H	1.27757	1.93463	1.44014
H	0.93313	2.01605	-0.328024
