44
  This energy is -1.8119 and Call times are: 146238
C	0.0490307	3.02114	1.72713
C	0.725672	1.83255	1.16097
O	1.94547	1.77161	1.09175
H	0.813127	3.77184	2.02461
H	-0.541402	2.73499	2.62281
H	-0.624742	3.47482	0.969966
N	-0.0661416	0.84594	0.734337
C	0.443986	-0.354715	0.120531
C	-0.609794	-0.881831	-0.835111
O	-1.73865	-0.395164	-0.858553
H	-1.0584	0.927419	0.759733
H	1.31983	-0.110812	-0.467716
C	0.787042	-1.41703	1.18779
H	-0.113566	-1.67533	1.78464
H	1.19387	-2.34123	0.728593
H	1.55391	-1.00686	1.88063
N	-0.259966	-1.89097	-1.65687
C	-1.19458	-2.45343	-2.60362
H	0.659451	-2.26885	-1.62602
H	-0.718484	-3.27185	-3.18734
H	-1.54807	-1.674	-3.31692
H	-2.08438	-2.86926	-2.07781
C	6.39777	1.83619	-2.74519
C	5.69283	0.67928	-2.14871
O	4.99553	-0.0579543	-2.83184
H	6.16171	1.89055	-3.83017
H	7.49511	1.72099	-2.62148
H	6.06791	2.77797	-2.25803
N	5.86061	0.493885	-0.837274
C	5.20506	-0.562876	-0.107848
C	5.01632	-0.101948	1.32515
O	5.54111	0.934553	1.72762
H	6.39836	1.12635	-0.287118
H	4.2199	-0.727759	-0.526058
C	6.03725	-1.86312	-0.153265
H	7.04432	-1.69721	0.285276
H	5.53631	-2.68832	0.393214
H	6.16949	-2.17743	-1.21159
N	4.24978	-0.862958	2.13094
C	4.0093	-0.500825	3.50833
H	3.83024	-1.69606	1.78597
H	3.35539	-1.25179	4.00399
H	3.51129	0.493781	3.57177
H	4.96806	-0.443472	4.07281
