44
  This energy is -4.2111 and Call times are: 142918
C	1.28914	-1.77933	2.69903
C	0.929452	-1.66163	1.26798
O	1.29767	-2.4954	0.45211
H	1.91649	-2.68513	2.84677
H	0.37196	-1.87258	3.31776
H	1.86459	-0.886808	3.02364
N	0.190795	-0.603144	0.926852
C	-0.201354	-0.330277	-0.433414
C	-0.366512	1.17004	-0.58614
O	-0.332045	1.91051	0.394791
H	-0.0667192	0.0886934	1.59537
H	0.592835	-0.637138	-1.10254
C	-1.51723	-1.05843	-0.784853
H	-2.33486	-0.736127	-0.105418
H	-1.82246	-0.867383	-1.83407
H	-1.37549	-2.154	-0.658407
N	-0.542582	1.65624	-1.83058
C	-0.703018	3.07093	-2.07371
H	-0.56354	1.04171	-2.61223
H	-0.834912	3.27079	-3.15994
H	0.190712	3.63414	-1.71972
H	-1.59482	3.46387	-1.53388
C	4.39558	-2.97059	-1.79545
C	5.17771	-1.97168	-1.03281
O	6.32276	-2.20592	-0.671683
H	5.00769	-3.88814	-1.93425
H	4.12531	-2.56457	-2.79287
H	3.47047	-3.23614	-1.24161
N	4.56438	-0.816471	-0.765036
C	5.18121	0.235088	0.00457029
C	4.08398	1.01607	0.702934
O	2.90072	0.816747	0.434862
H	3.61785	-0.65639	-1.0302
H	5.80446	-0.203694	0.773758
C	6.01523	1.16613	-0.902528
H	5.37419	1.62472	-1.68535
H	6.50656	1.97194	-0.31962
H	6.80676	0.57205	-1.40936
N	4.45409	1.92379	1.62764
C	3.47952	2.71015	2.34737
H	5.41627	2.06801	1.83377
H	3.98067	3.39858	3.06302
H	2.78874	2.05051	2.92095
H	2.86891	3.32011	1.64292
