44
  This energy is -3.221 and Call times are: 144294
C	0.00635543	1.80673	-2.97462
C	-0.446008	0.670107	-2.14119
O	-1.37235	-0.0457248	-2.49598
H	-0.627509	1.86922	-3.88577
H	1.0632	1.65952	-3.28147
H	-0.0847577	2.75714	-2.4076
N	0.208449	0.478364	-0.993457
C	-0.14446	-0.559749	-0.0573278
C	0.245511	-0.0952225	1.33325
O	0.912846	0.925105	1.49234
H	0.933557	1.09428	-0.698956
H	-1.21879	-0.695423	-0.0626341
C	0.57032	-1.88359	-0.406284
H	1.67272	-1.74756	-0.390651
H	0.29597	-2.69452	0.299163
H	0.276436	-2.20036	-1.4308
N	-0.17233	-0.834573	2.37957
C	0.145804	-0.467225	3.73973
H	-0.714897	-1.65471	2.231
H	-0.287209	-1.19945	4.45637
H	-0.262085	0.541364	3.97983
H	1.24914	-0.438447	3.89128
C	5.18022	1.14946	3.27696
C	5.2444	1.36273	1.81356
O	5.30228	2.48913	1.33997
H	5.17691	2.13469	3.79191
H	6.06281	0.5686	3.61812
H	4.25186	0.601566	3.54347
N	5.23303	0.265621	1.05289
C	5.24706	0.314213	-0.387942
C	4.5407	-0.922827	-0.909813
O	4.22058	-1.8336	-0.148419
H	5.1443	-0.642764	1.45141
H	4.68025	1.17434	-0.721895
C	6.69417	0.377988	-0.923724
H	7.27308	-0.509492	-0.590141
H	6.71795	0.429764	-2.03155
H	7.19425	1.28656	-0.522782
N	4.27239	-0.979835	-2.2292
C	3.59856	-2.11508	-2.81517
H	4.53556	-0.231198	-2.82866
H	3.46979	-1.97343	-3.91088
H	2.59152	-2.25262	-2.35884
H	4.18353	-3.04843	-2.64843
