44
  This energy is -4.0411 and Call times are: 143258
C	1.20196	-2.4929	-2.11032
C	0.927935	-1.07292	-1.79457
O	1.38732	-0.17151	-2.4822
H	1.86238	-2.54988	-3.00277
H	0.253237	-3.02592	-2.33069
H	1.71133	-2.98385	-1.2544
N	0.161273	-0.839671	-0.726761
C	-0.157173	0.490025	-0.26953
C	-0.385716	0.432777	1.22915
O	-0.44955	-0.645908	1.81573
H	-0.171513	-1.58262	-0.153044
H	0.691738	1.13988	-0.44178
C	-1.41097	1.03499	-0.988038
H	-2.28466	0.374336	-0.802983
H	-1.65839	2.06366	-0.654656
H	-1.22396	1.06059	-2.08381
N	-0.50654	1.60192	1.88834
C	-0.720474	1.64609	3.31609
H	-0.447987	2.4646	1.39698
H	-0.793209	2.69791	3.67049
H	0.120454	1.15213	3.85472
H	-1.66275	1.11802	3.58886
C	6.43606	0.661217	-3.2045
C	6.64071	0.492247	-1.74823
O	7.76478	0.418119	-1.27138
H	7.42383	0.683479	-3.71406
H	5.905	1.61475	-3.40823
H	5.84239	-0.185874	-3.60832
N	5.53848	0.424307	-0.997986
C	5.57625	0.21798	0.428393
C	4.29976	-0.492501	0.837484
O	3.37956	-0.645208	0.0364712
H	4.62991	0.44508	-1.40531
H	6.40279	-0.437565	0.672746
C	5.71152	1.56213	1.17687
H	4.8583	2.23102	0.934713
H	5.75563	1.41554	2.27554
H	6.64823	2.06814	0.856131
N	4.21824	-0.95359	2.10111
C	3.04459	-1.64703	2.57848
H	4.97483	-0.824039	2.73345
H	3.17055	-1.94713	3.64211
H	2.85809	-2.56487	1.9751
H	2.14455	-0.994929	2.50218
