44
  This energy is -1.653 and Call times are: 144132
C	3.01453	-1.60049	-0.680982
C	2.05507	-0.971865	0.254652
O	2.19712	-1.06732	1.4659
H	3.79634	-2.13652	-0.100192
H	3.50153	-0.824604	-1.30834
H	2.49006	-2.32874	-1.33495
N	1.03809	-0.305635	-0.296963
C	0.00106463	0.322252	0.483349
C	-1.26894	0.341717	-0.346263
O	-1.25058	0.0226936	-1.53353
H	0.91328	-0.271379	-1.28444
H	-0.197224	-0.27781	1.36269
C	0.406312	1.7569	0.886819
H	0.599616	2.37588	-0.0151475
H	-0.378181	2.24612	1.49981
H	1.34211	1.7191	1.48615
N	-2.41067	0.711375	0.266795
C	-3.66896	0.754562	-0.441042
H	-2.40625	0.962075	1.22919
H	-4.48941	1.08182	0.234955
H	-3.92741	-0.251292	-0.844445
H	-3.61444	1.46606	-1.29658
C	5.92146	-1.05917	3.30737
C	5.64694	-0.0818819	2.23001
O	4.86184	0.841125	2.39761
H	5.30699	-0.805725	4.19846
H	6.99474	-1.02608	3.58971
H	5.65962	-2.08421	2.97003
N	6.29797	-0.268489	1.07947
C	6.10264	0.574261	-0.0738625
C	6.37758	-0.252516	-1.31581
O	6.86086	-1.37964	-1.22779
H	6.90282	-1.04811	0.944573
H	5.0666	0.88631	-0.116926
C	7.03674	1.80316	-0.0237303
H	8.10016	1.48369	0.00982
H	6.88605	2.46711	-0.899507
H	6.82344	2.38896	0.896965
N	6.06572	0.289553	-2.5095
C	6.28682	-0.425011	-3.74509
H	5.67166	1.20127	-2.56021
H	5.96632	0.187587	-4.61644
H	5.71046	-1.37841	-3.75601
H	7.36602	-0.672591	-3.86827
