44
  This energy is 0.1659 and Call times are: 140591
C	3.28035	-1.11499	-0.329836
C	1.87949	-1.29913	0.111571
O	1.47197	-2.39011	0.485845
H	3.81511	-2.0878	-0.270221
H	3.79486	-0.381305	0.3257
H	3.30648	-0.754307	-1.37975
N	1.09846	-0.217008	0.0743874
C	-0.297801	-0.249081	0.432143
C	-1.01155	0.837314	-0.350069
O	-0.376912	1.66453	-1.00173
H	1.43357	0.654745	-0.271462
H	-0.722754	-1.19758	0.128172
C	-0.483417	-0.0341364	1.95023
H	-0.0570093	0.9435	2.26078
H	-1.55347	-0.0705045	2.24037
H	0.053668	-0.835755	2.50276
N	-2.35844	0.854641	-0.309709
C	-3.12345	1.84778	-1.02707
H	-2.85443	0.174457	0.219836
H	-4.21368	1.69429	-0.868723
H	-2.91638	1.78894	-2.1202
H	-2.85952	2.87311	-0.680413
C	2.82807	-0.515228	-0.371027
C	4.19693	-1.00457	-0.0918906
O	4.3893	-2.12826	0.351647
H	2.09344	-1.30391	-0.0987034
H	2.71864	-0.279441	-1.45046
H	2.61723	0.394932	0.229165
N	5.19456	-0.155186	-0.348147
C	6.57659	-0.472398	-0.0874939
C	7.3135	0.822706	0.197519
O	6.76722	1.91003	0.0214117
H	5.01955	0.770774	-0.670364
H	6.64084	-1.0831	0.804433
C	7.21139	-1.20303	-1.291
H	7.15517	-0.572613	-2.20394
H	8.27172	-1.46504	-1.09718
H	6.65138	-2.14355	-1.48636
N	8.57771	0.734944	0.655882
C	9.35509	1.91371	0.95981
H	9.00125	-0.153922	0.795915
H	10.3682	1.63363	1.32374
H	8.85504	2.52144	1.74841
H	9.47169	2.55194	0.0541609
