44
  This energy is -6.8944 and Call times are: 145263
C	-1.53831	1.39128	-2.79475
C	-0.335216	1.06538	-1.99631
O	0.788278	1.19684	-2.46203
H	-1.22697	1.72673	-3.80788
H	-2.11213	2.20692	-2.30669
H	-2.18486	0.49419	-2.89615
N	-0.548752	0.623128	-0.754866
C	0.520154	0.225332	0.127041
C	-0.0187442	-0.825385	1.07948
O	-1.22132	-1.07745	1.12412
H	-1.47018	0.482547	-0.404038
H	1.3079	-0.238864	-0.453138
C	1.06794	1.43751	0.91176
H	0.262556	1.90772	1.51533
H	1.90083	1.14659	1.5842
H	1.44954	2.19684	0.194716
N	0.866732	-1.47257	1.8625
C	0.446903	-2.49203	2.79557
H	1.83628	-1.25764	1.80912
H	1.32068	-2.9052	3.34604
H	-0.0586348	-3.32904	2.2616
H	-0.269952	-2.07358	3.53864
C	6.30693	-3.15089	0.690356
C	5.29393	-2.08911	0.884269
O	4.25865	-2.30653	1.49855
H	5.94681	-4.09218	1.15955
H	7.26597	-2.85629	1.16596
H	6.47144	-3.32952	-0.393202
N	5.57462	-0.896929	0.352943
C	4.66777	0.221748	0.421812
C	4.911	1.10301	-0.788884
O	5.86941	0.901468	-1.53221
H	6.40277	-0.746675	-0.179448
H	3.64902	-0.139802	0.358172
C	4.87773	1.0227	1.72551
H	5.9198	1.40277	1.78628
H	4.17584	1.87872	1.79685
H	4.70235	0.356142	2.59803
N	4.03714	2.10238	-1.02051
C	4.18476	2.98862	-2.15142
H	3.26547	2.24717	-0.41007
H	3.36767	3.74314	-2.16907
H	4.15324	2.4155	-3.10631
H	5.15877	3.52734	-2.10412
