44
  This energy is 0.1208 and Call times are: 139999
C	-2.83744	1.03532	-1.72908
C	-1.90945	1.11875	-0.578857
O	-1.97346	2.04262	0.220379
H	-3.51806	1.91423	-1.71638
H	-3.44571	0.10878	-1.66364
H	-2.26704	1.03626	-2.68183
N	-1.00942	0.138694	-0.470195
C	-0.012834	0.105623	0.571098
C	1.19923	-0.637927	0.0423276
O	1.15429	-1.23083	-1.03385
H	-0.943177	-0.58462	-1.15159
H	0.302094	1.1169	0.796405
C	-0.5618	-0.58567	1.83837
H	-0.875238	-1.62667	1.61011
H	0.191649	-0.605093	2.65229
H	-1.45279	-0.0293859	2.20312
N	2.32098	-0.615972	0.788795
C	3.52522	-1.29065	0.363582
H	2.33919	-0.127385	1.65483
H	4.33682	-1.15567	1.11212
H	3.87812	-0.886278	-0.612747
H	3.34101	-2.38227	0.238828
C	8.13044	-1.29306	-1.24811
C	6.65832	-1.14259	-1.28536
O	6.00661	-1.5292	-2.24569
H	8.47529	-1.7663	-2.19308
H	8.42778	-1.93734	-0.394151
H	8.61428	-0.298728	-1.14673
N	6.09372	-0.564957	-0.222369
C	4.67742	-0.311072	-0.131835
C	4.46998	0.90048	0.757368
O	5.4063	1.38519	1.38987
H	6.64163	-0.218459	0.533665
H	4.2961	-0.0596688	-1.11367
C	3.93269	-1.53691	0.440822
H	4.31628	-1.78879	1.45248
H	2.83952	-1.35892	0.502531
H	4.10502	-2.41333	-0.221394
N	3.23046	1.42559	0.819516
C	2.93933	2.58174	1.63483
H	2.48657	1.02191	0.297262
H	1.86584	2.86103	1.55216
H	3.55404	3.45368	1.31371
H	3.16654	2.37483	2.70568
