44
  This energy is -1.7211 and Call times are: 143740
C	0.144239	-0.046329	3.47703
C	-0.238509	-0.649228	2.18043
O	-0.628434	-1.80662	2.11106
H	0.0293067	-0.80387	4.28251
H	-0.510328	0.821374	3.70369
H	1.20284	0.287587	3.44615
N	-0.131262	0.136084	1.10612
C	-0.425846	-0.322217	-0.228703
C	0.422345	0.475991	-1.20081
O	1.07046	1.44873	-0.819438
H	0.226588	1.06309	1.17304
H	-0.133236	-1.36058	-0.3226
C	-1.92626	-0.150994	-0.552231
H	-2.22458	0.915619	-0.466317
H	-2.16835	-0.513169	-1.5724
H	-2.528	-0.737129	0.176268
N	0.44399	0.0748353	-2.48713
C	1.22679	0.769544	-3.48251
H	-0.0838276	-0.71708	-2.77584
H	1.11349	0.287661	-4.47859
H	2.30692	0.760226	-3.20952
H	0.901353	1.83162	-3.56754
C	2.79787	-2.50536	-0.732235
C	3.77801	-1.85913	0.169361
O	3.88039	-2.19808	1.34028
H	2.22494	-3.27017	-0.164203
H	3.32278	-3.00218	-1.57508
H	2.08955	-1.74948	-1.13224
N	4.53125	-0.895497	-0.36584
C	5.49841	-0.146086	0.396737
C	5.6334	1.22842	-0.231026
O	5.1037	1.48223	-1.31117
H	4.40791	-0.602642	-1.3097
H	5.1275	-0.0054925	1.40435
C	6.86351	-0.868096	0.417964
H	7.24943	-1.00318	-0.614926
H	7.61301	-0.307828	1.01367
H	6.73932	-1.87452	0.874068
N	6.34408	2.15558	0.440768
C	6.52187	3.4925	-0.0761551
H	6.76178	1.93258	1.31534
H	7.13528	4.10522	0.620655
H	5.53703	3.99566	-0.21106
H	7.03465	3.46667	-1.06486
