44
  This energy is 0.1224 and Call times are: 144371
C	-3.42485	-0.201745	0.585145
C	-2.25146	-0.25279	-0.315789
O	-2.35224	-0.662999	-1.46382
H	-4.31631	-0.59495	0.0498255
H	-3.6245	0.845702	0.894557
H	-3.24293	-0.824821	1.48613
N	-1.09216	0.168285	0.195201
C	0.144429	0.138345	-0.545413
C	1.28447	-0.0156799	0.443596
O	1.08471	0.0721396	1.6536
H	-1.01773	0.460909	1.14425
H	0.154929	-0.733174	-1.18804
C	0.320231	1.42724	-1.37793
H	0.320101	2.32088	-0.718051
H	1.26219	1.41027	-1.96355
H	-0.529122	1.52353	-2.08904
N	2.5137	-0.259145	-0.0521279
C	3.65829	-0.425615	0.812971
H	2.65479	-0.330873	-1.03397
H	4.57725	-0.618228	0.216631
H	3.50462	-1.28354	1.50697
H	3.82361	0.48944	1.42655
C	3.69001	2.30557	2.59865
C	4.41127	1.25868	1.84039
O	5.59814	1.03812	2.03814
H	4.39579	2.80499	3.29745
H	2.86364	1.85229	3.1855
H	3.27553	3.06515	1.90273
N	3.6974	0.581086	0.938364
C	4.27052	-0.437415	0.094122
C	3.47739	-0.481875	-1.19837
O	2.43155	0.153486	-1.31767
H	2.74235	0.799939	0.759901
H	5.28618	-0.160888	-0.160023
C	4.24299	-1.81391	0.793931
H	3.20025	-2.10286	1.04541
H	4.6942	-2.6041	0.159472
H	4.82268	-1.75579	1.74099
N	3.965	-1.23258	-2.20569
C	3.28165	-1.331	-3.47436
H	4.81491	-1.73627	-2.09161
H	3.8399	-1.99419	-4.17133
H	3.18535	-0.326962	-3.94755
H	2.25761	-1.74799	-3.33792
