44
  This energy is 0.1266 and Call times are: 145909
C	0.400568	-2.59179	2.28798
C	0.441605	-2.05152	0.910457
O	0.953069	-2.68459	-0.00279656
H	0.901191	-3.58418	2.30834
H	-0.651857	-2.71331	2.62021
H	0.930838	-1.90747	2.98339
N	-0.104163	-0.846694	0.72904
C	-0.10217	-0.172385	-0.545269
C	-0.115166	1.32288	-0.289177
O	-0.289575	1.76621	0.844291
H	-0.480134	-0.325988	1.49021
H	0.817181	-0.401896	-1.06943
C	-1.32592	-0.587548	-1.39103
H	-2.26946	-0.34268	-0.8583
H	-1.3284	-0.0855701	-2.38024
H	-1.30005	-1.68636	-1.55925
N	0.0789874	2.13952	-1.34341
C	0.0884401	3.57621	-1.195
H	0.222502	1.76196	-2.25222
H	0.26309	4.0717	-2.17541
H	0.893914	3.89333	-0.49363
H	-0.884532	3.93578	-0.78858
C	4.23077	-0.414217	2.35295
C	3.50336	-0.833606	1.13387
O	3.95288	-1.6983	0.394518
H	5.18213	-0.9845	2.42745
H	3.61678	-0.620109	3.25482
H	4.46468	0.670243	2.30495
N	2.34393	-0.217099	0.893005
C	1.54407	-0.48696	-0.275737
C	0.761843	0.768225	-0.613671
O	0.746308	1.72694	0.155957
H	2.0111	0.513601	1.4822
H	2.1963	-0.696171	-1.11445
C	0.585308	-1.67183	-0.0265431
H	-0.0911195	-1.45338	0.827136
H	-0.0263363	-1.89838	-0.923809
H	1.17892	-2.57725	0.226766
N	0.0968259	0.794045	-1.78546
C	-0.67008	1.94776	-2.1941
H	0.124691	0.0101304	-2.39684
H	-1.14188	1.77499	-3.18646
H	-0.0169699	2.84732	-2.2684
H	-1.47548	2.16591	-1.45594
