44
  This energy is 0.1014 and Call times are: 145740
C	3.39222	-0.362958	-0.688302
C	2.27824	0.150251	0.14043
O	2.48236	0.637105	1.24393
H	4.34876	-0.238467	-0.135652
H	3.4519	0.202596	-1.64189
H	3.24128	-1.44113	-0.907044
N	1.05396	0.0483981	-0.382192
C	-0.132995	0.464559	0.322446
C	-1.29375	-0.381844	-0.165207
O	-1.16484	-1.13043	-1.13201
H	0.8995	-0.387569	-1.2642
H	-0.00954961	0.264421	1.37949
C	-0.418566	1.96363	0.0848241
H	-0.55574	2.16765	-0.998503
H	-1.32235	2.29952	0.633348
H	0.447141	2.56323	0.441742
N	-2.46019	-0.287983	0.503107
C	-3.61795	-1.0594	0.11494
H	-2.54391	0.320233	1.2855
H	-4.47774	-0.843359	0.786736
H	-3.39833	-2.15044	0.166618
H	-3.9195	-0.817057	-0.929799
C	4.99623	-0.505752	-2.46554
C	5.43929	-0.528036	-1.05332
O	4.64021	-0.691977	-0.141718
H	3.89311	-0.637274	-2.5065
H	5.47781	-1.33118	-3.03078
H	5.25993	0.465867	-2.93404
N	6.74597	-0.358234	-0.838541
C	7.32075	-0.313085	0.482878
C	8.56602	0.551682	0.427716
O	9.01692	0.938561	-0.648722
H	7.37817	-0.185025	-1.58833
H	6.62439	0.166928	1.15911
C	7.66895	-1.7326	0.981836
H	8.39144	-2.22152	0.294068
H	8.09956	-1.71242	2.00394
H	6.74451	-2.34996	1.00658
N	9.14905	0.883598	1.59644
C	10.3345	1.7074	1.64266
H	8.76713	0.564364	2.45743
H	10.6609	1.86826	2.69377
H	10.1399	2.70206	1.18
H	11.1703	1.22516	1.08572
