44
  This energy is -2.3232 and Call times are: 140233
C	-0.737254	-0.787426	3.30894
C	-1.13018	-0.610454	1.89281
O	-2.21986	-0.989427	1.48615
H	-1.55646	-1.303	3.85572
H	-0.555551	0.200466	3.78201
H	0.183626	-1.4043	3.37635
N	-0.233808	-0.0221693	1.09731
C	-0.455085	0.180206	-0.312885
C	0.893427	0.181052	-1.00792
O	1.93699	0.190267	-0.357833
H	0.665008	0.243836	1.43382
H	-1.02154	-0.653447	-0.70885
C	-1.19739	1.50999	-0.569593
H	-0.611708	2.36653	-0.172927
H	-1.38601	1.67068	-1.65085
H	-2.1777	1.49022	-0.045233
N	0.902397	0.162821	-2.35536
C	2.13817	0.156686	-3.10303
H	0.0477393	0.151406	-2.86379
H	1.93604	0.140866	-4.1967
H	2.74809	-0.739634	-2.84635
H	2.74244	1.06343	-2.87102
C	3.27252	0.905608	2.64135
C	4.32121	1.21411	1.64323
O	4.68654	2.36442	1.44385
H	2.91646	1.85152	3.10431
H	3.68266	0.248358	3.43668
H	2.41405	0.400271	2.15069
N	4.83496	0.174564	0.981577
C	5.83182	0.320718	-0.0496661
C	5.67572	-0.83077	-1.025
O	4.92197	-1.76958	-0.775596
H	4.49832	-0.751587	1.12573
H	5.64657	1.23566	-0.59847
C	7.2532	0.329825	0.554337
H	7.44755	-0.613086	1.10859
H	8.02912	0.455734	-0.228367
H	7.34213	1.17553	1.27072
N	6.38377	-0.780304	-2.17048
C	6.29517	-1.82809	-3.16067
H	6.9853	-0.0104289	-2.35632
H	6.95154	-1.60393	-4.03025
H	5.24896	-1.93291	-3.52909
H	6.60824	-2.80564	-2.72761
