44
  This energy is -3.2659 and Call times are: 140445
C	-0.366218	-0.796042	-3.36822
C	-0.784587	-0.898217	-1.952
O	-1.85134	-1.41071	-1.6425
H	-1.16028	-1.22458	-4.0176
H	0.575229	-1.36168	-3.53092
H	-0.21058	0.267915	-3.64546
N	0.0609835	-0.401502	-1.0461
C	-0.226633	-0.389513	0.366594
C	0.50034	0.788532	0.987301
O	1.31633	1.43874	0.336843
H	0.906889	0.0493891	-1.31629
H	-1.28723	-0.228013	0.513858
C	0.217369	-1.71101	1.03123
H	1.30735	-1.87194	0.88951
H	-0.0113453	-1.71964	2.11665
H	-0.3212	-2.55985	0.556072
N	0.212431	1.0971	2.26711
C	0.850513	2.20476	2.93952
H	-0.453706	0.561779	2.7758
H	0.480828	2.2961	3.98461
H	0.639413	3.16104	2.40827
H	1.95511	2.06291	2.96927
C	4.09848	2.02009	-2.66957
C	4.7932	1.80612	-1.3801
O	5.56015	2.64478	-0.927492
H	4.41064	2.99762	-3.09716
H	2.99906	2.03013	-2.51489
H	4.36349	1.21364	-3.38545
N	4.53669	0.656639	-0.751384
C	5.16953	0.287644	0.490354
C	5.24003	-1.22649	0.553637
O	4.6563	-1.91942	-0.277511
H	3.94161	-0.0340086	-1.15231
H	6.18691	0.658482	0.496807
C	4.38266	0.84398	1.69724
H	3.34193	0.455489	1.69693
H	4.86756	0.578314	2.65891
H	4.33692	1.95266	1.62598
N	5.96902	-1.77765	1.544
C	6.09813	-3.20973	1.68052
H	6.43751	-1.20043	2.20461
H	6.73696	-3.46546	2.55444
H	6.55983	-3.65127	0.76775
H	5.09975	-3.68234	1.82551
