44
  This energy is 0.1213 and Call times are: 145191
C	3.35009	0.5815	0.742583
C	2.02138	1.03525	0.273764
O	1.77643	2.22381	0.119773
H	3.9981	1.46672	0.922466
H	3.82725	-0.0630761	-0.025262
H	3.2476	0.0125713	1.69069
N	1.11868	0.081067	0.0349208
C	-0.230137	0.369556	-0.384629
C	-1.12788	-0.750704	0.105916
O	-0.650025	-1.77037	0.599518
H	1.31996	-0.879519	0.20412
H	-0.564671	1.28289	0.0913371
C	-0.314444	0.497454	-1.92144
H	0.0186586	-0.442975	-2.40998
H	-1.34545	0.733257	-2.25602
H	0.356272	1.31763	-2.25879
N	-2.45965	-0.581834	-0.0119414
C	-3.39189	-1.59158	0.432486
H	-2.8275	0.251902	-0.410242
H	-4.43997	-1.26663	0.250394
H	-3.26975	-1.78638	1.52263
H	-3.22222	-2.54945	-0.110506
C	4.63343	-0.492574	3.44272
C	3.88252	-0.339103	2.17633
O	2.6848	-0.580796	2.11733
H	3.94481	-0.855676	4.23633
H	5.05951	0.483762	3.75571
H	5.454	-1.2296	3.31413
N	4.58345	0.0712964	1.11678
C	4.00068	0.225771	-0.192834
C	5.08889	-0.00325474	-1.22478
O	6.26625	-0.107144	-0.886038
H	5.566	0.224669	1.17075
H	3.2488	-0.539159	-0.341736
C	3.38345	1.63163	-0.359689
H	4.15664	2.41648	-0.217436
H	2.91925	1.75822	-1.35919
H	2.59543	1.78023	0.410549
N	4.71614	-0.0961505	-2.51646
C	5.68138	-0.318903	-3.5676
H	3.75818	-0.0135746	-2.77057
H	5.17937	-0.365516	-4.55909
H	6.22525	-1.27753	-3.40474
H	6.43202	0.503923	-3.59277
