44
  This energy is 0.1742 and Call times are: 146459
C	2.11008	-2.24588	1.61749
C	1.83684	-0.930141	0.996753
O	2.62107	0.00108662	1.11596
H	3.07247	-2.19768	2.17189
H	2.18497	-3.03003	0.835034
H	1.29871	-2.50955	2.32831
N	0.696747	-0.823067	0.310392
C	0.273195	0.405849	-0.313249
C	-1.24313	0.414075	-0.36063
O	-1.88796	-0.589699	-0.0634097
H	0.049083	-1.57773	0.256677
H	0.581272	1.2428	0.300944
C	0.860095	0.533281	-1.73612
H	0.535738	-0.31961	-2.36968
H	0.552458	1.48201	-2.2217
H	1.97037	0.517004	-1.67796
N	-1.85096	1.55861	-0.730226
C	-3.28996	1.6622	-0.798959
H	-1.3123	2.36155	-0.963062
H	-3.59587	2.68172	-1.12182
H	-3.74645	1.45816	0.196661
H	-3.70281	0.925478	-1.52555
C	6.82623	-1.55416	2.22741
C	5.58185	-1.52651	1.42622
O	4.89822	-2.5309	1.28386
H	6.99249	-2.58378	2.61224
H	6.74271	-0.857886	3.08821
H	7.69307	-1.26138	1.59817
N	5.25728	-0.355004	0.87431
C	4.0994	-0.182317	0.0328495
C	4.38832	0.941495	-0.944465
O	5.39358	1.63892	-0.822933
H	5.84533	0.443596	0.965347
H	3.94251	-1.08262	-0.548066
C	2.84752	0.142604	0.876921
H	3.00405	1.07193	1.46505
H	1.94641	0.264204	0.241517
H	2.65977	-0.689416	1.59025
N	3.51097	1.13821	-1.94824
C	3.70594	2.18023	-2.92924
H	2.70549	0.560984	-2.03241
H	2.878	2.18096	-3.67204
H	4.66598	2.03154	-3.47468
H	3.73857	3.18023	-2.43927
