44
  This energy is -4.683 and Call times are: 140735
C	0.43793	1.34927	3.17811
C	-0.24522	1.30047	1.86583
O	-1.27765	1.92544	1.66604
H	-0.144113	1.99459	3.87141
H	1.4576	1.77332	3.0632
H	0.508686	0.329082	3.61088
N	0.325412	0.541204	0.927602
C	-0.244866	0.360481	-0.384146
C	0.181386	-1.00036	-0.901813
O	1.02268	-1.66702	-0.30223
H	1.14344	0.00601464	1.11805
H	-1.3249	0.352089	-0.306071
C	0.219917	1.47568	-1.3462
H	1.32725	1.47792	-1.43483
H	-0.223447	1.35547	-2.35591
H	-0.0958068	2.46287	-0.943556
N	-0.400146	-1.44992	-2.0313
C	-0.0616704	-2.73564	-2.59568
H	-1.08178	-0.897874	-2.50002
H	-0.646421	-2.92436	-3.52287
H	-0.280774	-3.55279	-1.87074
H	1.02222	-2.78054	-2.84926
C	4.33623	0.969656	-3.3406
C	4.03244	0.017127	-2.24901
O	3.26589	-0.920358	-2.42202
H	3.7598	0.684925	-4.24752
H	5.41994	0.943615	-3.58068
H	4.04888	1.99953	-3.0408
N	4.6362	0.242288	-1.07975
C	4.40694	-0.572729	0.0871862
C	4.62347	0.289668	1.3164
O	5.09579	1.42049	1.21711
H	5.22569	1.03319	-0.942511
H	3.37395	-0.897401	0.0988215
C	5.35743	-1.78989	0.105418
H	6.41731	-1.45719	0.104136
H	5.18127	-2.43281	0.992071
H	5.1871	-2.40224	-0.806921
N	4.27249	-0.225309	2.51123
C	4.43685	0.524038	3.73501
H	3.88809	-1.14059	2.57096
H	4.09056	-0.0699347	4.60937
H	3.84874	1.46959	3.69859
H	5.50734	0.789168	3.89279
