44
  This energy is 0.1852 and Call times are: 139935
C	3.41828	0.577813	0.306886
C	2.15572	0.607512	-0.465259
O	2.0794	1.2031	-1.53103
H	4.19122	1.16951	-0.230096
H	3.7765	-0.467567	0.414614
H	3.26187	1.0203	1.31328
N	1.11929	-0.0445646	0.066697
C	-0.185469	-0.0694365	-0.546126
C	-1.2204	-0.231659	0.551209
O	-0.879985	-0.480264	1.70621
H	1.1855	-0.490236	0.954875
H	-0.372237	0.882411	-1.02751
C	-0.293505	-1.22314	-1.56717
H	-0.112386	-2.20076	-1.07171
H	-1.28903	-1.24441	-2.05605
H	0.478119	-1.08827	-2.35632
N	-2.51701	-0.0852286	0.214442
C	-3.57152	-0.216421	1.19269
H	-2.77258	0.119855	-0.724545
H	-4.5669	-0.0610848	0.721174
H	-3.44813	0.534574	2.00635
H	-3.5561	-1.23053	1.65364
C	3.27624	2.37847	2.19845
C	3.10026	1.31503	1.18391
O	1.99926	0.83265	0.95695
H	2.29472	2.60219	2.67007
H	3.66444	3.30256	1.72085
H	3.98484	2.04344	2.98504
N	4.20198	0.918615	0.542461
C	4.19648	-0.136123	-0.440419
C	5.56246	-0.796141	-0.43357
O	6.4938	-0.309591	0.204847
H	5.09751	1.29195	0.767208
H	3.4731	-0.888806	-0.152643
C	3.87062	0.419521	-1.8441
H	4.61848	1.18416	-2.14421
H	3.84975	-0.385062	-2.60747
H	2.87042	0.904823	-1.82359
N	5.71137	-1.93255	-1.14239
C	6.97322	-2.63369	-1.19029
H	4.94499	-2.3131	-1.64927
H	6.89336	-3.54425	-1.82411
H	7.28874	-2.9448	-0.168066
H	7.77009	-1.98033	-1.61366
