44
  This energy is -3.715 and Call times are: 142362
C	0.42816	3.36588	-0.77474
C	0.186622	2.27173	0.192548
O	0.236421	2.47054	1.39853
H	0.658995	4.30163	-0.220691
H	-0.475096	3.53128	-1.39885
H	1.28886	3.11449	-1.4298
N	-0.0828246	1.07089	-0.324908
C	-0.29767	-0.099694	0.488802
C	0.124872	-1.3167	-0.312385
O	0.40651	-1.21873	-1.5052
H	-0.0794849	0.915744	-1.30867
H	0.341433	-0.0502667	1.36158
C	-1.77946	-0.215467	0.908484
H	-2.4347	-0.276826	0.013533
H	-1.95511	-1.10541	1.54698
H	-2.06896	0.689233	1.48646
N	0.187115	-2.49868	0.331885
C	0.584392	-3.70984	-0.347415
H	-0.0405999	-2.55725	1.29821
H	0.573523	-4.57466	0.352003
H	1.61319	-3.60787	-0.762698
H	-0.10805	-3.9324	-1.19129
C	3.87523	3.28818	-0.188466
C	4.51464	2.09339	-0.784112
O	4.73242	2.02484	-1.98589
H	3.64469	4.02061	-0.992366
H	4.5602	3.76325	0.54493
H	2.92999	3.00305	0.319756
N	4.83243	1.10802	0.05876
C	5.42047	-0.133808	-0.377856
C	5.00902	-1.22064	0.597377
O	4.43112	-0.940228	1.64576
H	4.61162	1.16147	1.02842
H	5.01585	-0.399555	-1.34651
C	6.95931	-0.0216707	-0.445981
H	7.37577	0.240606	0.54992
H	7.42302	-0.967293	-0.794246
H	7.23729	0.784737	-1.15926
N	5.29209	-2.4963	0.267855
C	4.93386	-3.59734	1.1313
H	5.7566	-2.70367	-0.586721
H	5.25099	-4.56588	0.685665
H	3.83164	-3.62906	1.29061
H	5.4236	-3.49194	2.12639
