44
  This energy is 0.1003 and Call times are: 141057
C	0.7267	-0.26152	-3.39355
C	1.02151	0.240458	-2.03258
O	2.09043	0.775696	-1.77308
H	1.60543	-0.080701	-4.05007
H	-0.152344	0.26966	-3.8153
H	0.519545	-1.35204	-3.36268
N	0.0634209	0.0733668	-1.11796
C	0.220348	0.471045	0.258915
C	-0.643867	-0.435863	1.1146
O	-1.44292	-1.21489	0.59851
H	-0.785205	-0.400882	-1.33427
H	1.24863	0.315497	0.560694
C	-0.18433	1.94842	0.456002
H	-1.24234	2.10634	0.156482
H	-0.0547792	2.27065	1.50952
H	0.455554	2.59293	-0.185486
N	-0.496272	-0.360629	2.45198
C	-1.27174	-1.18881	3.34582
H	0.158382	0.272985	2.85077
H	-1.00582	-0.979975	4.40549
H	-1.0838	-2.26817	3.1435
H	-2.36118	-0.997308	3.21322
C	5.38194	-1.55378	-0.447438
C	4.5003	-0.579885	0.234766
O	4.85441	-0.016057	1.26098
H	6.32634	-1.66097	0.129153
H	5.62422	-1.19896	-1.47123
H	4.88349	-2.54421	-0.507998
N	3.31062	-0.35954	-0.329581
C	2.32799	0.527829	0.241013
C	0.952596	0.0393288	-0.172787
O	0.826569	-0.855	-1.00705
H	3.02032	-0.856662	-1.14226
H	2.37922	0.470388	1.32115
C	2.55295	1.97961	-0.235392
H	2.49003	2.04093	-1.34279
H	1.81102	2.67491	0.208036
H	3.56827	2.31335	0.0713279
N	-0.117044	0.613887	0.41182
C	-1.46479	0.210218	0.0850253
H	0.00518769	1.33317	1.08766
H	-2.20466	0.799256	0.670578
H	-1.61749	-0.869662	0.312673
H	-1.67022	0.366986	-0.998657
