44
  This energy is 0.1033 and Call times are: 139804
C	-3.19749	0.931758	1.01024
C	-2.26896	0.0325459	0.288857
O	-2.64641	-1.04299	-0.155167
H	-4.19977	0.454395	1.06885
H	-3.29059	1.89799	0.471281
H	-2.82717	1.11759	2.04049
N	-1.01129	0.460476	0.156525
C	0.0167044	-0.322335	-0.483006
C	1.35164	0.0609446	0.127393
O	1.44265	1.01988	0.891505
H	-0.709166	1.31987	0.559056
H	-0.147091	-1.37095	-0.268052
C	0.0282695	-0.0774554	-2.00785
H	0.206778	0.996422	-2.22911
H	0.806468	-0.685097	-2.51352
H	-0.960781	-0.357168	-2.43198
N	2.42387	-0.690406	-0.191715
C	3.73393	-0.404633	0.345181
H	2.3296	-1.46485	-0.808496
H	4.48248	-1.13424	-0.0350359
H	3.7233	-0.461076	1.45782
H	4.06302	0.619278	0.0545819
C	8.08256	0.38002	0.725685
C	6.81446	0.862469	0.13381
O	6.69654	2.01578	-0.256562
H	8.81679	1.21435	0.751202
H	8.4999	-0.447406	0.114176
H	7.90917	0.0220849	1.76245
N	5.8205	-0.0253884	0.0554823
C	4.51456	0.307583	-0.456596
C	3.49883	-0.599082	0.212596
O	3.86155	-1.54393	0.910736
H	5.9185	-0.948988	0.414948
H	4.2708	1.32544	-0.178808
C	4.46388	0.138001	-1.99084
H	4.70357	-0.908627	-2.27573
H	3.46742	0.404694	-2.39885
H	5.22061	0.804745	-2.45897
N	2.19351	-0.325043	0.0201193
C	1.15557	-1.12957	0.621448
H	1.91961	0.446284	-0.544777
H	0.149444	-0.744184	0.345017
H	1.24269	-1.11699	1.73209
H	1.23162	-2.18767	0.281168
