44
  This energy is 0.1232 and Call times are: 145311
C	3.27941	-0.815947	-0.832098
C	2.28636	-0.0300973	-0.0656505
O	2.62583	0.672009	0.876802
H	4.2893	-0.657878	-0.395049
H	3.29134	-0.48742	-1.8926
H	3.03189	-1.89735	-0.783101
N	1.01496	-0.135064	-0.459198
C	-0.0689747	0.535351	0.214745
C	-1.32754	-0.289792	0.0231713
O	-1.34246	-1.24535	-0.750387
H	0.748891	-0.742468	-1.20226
H	0.136746	0.567917	1.27741
C	-0.266834	1.96207	-0.342543
H	-0.488335	1.9286	-1.43059
H	-1.0897	2.49368	0.17784
H	0.668923	2.54523	-0.198896
N	-2.4176	0.057925	0.735141
C	-3.65864	-0.672354	0.622452
H	-2.38489	0.831686	1.35908
H	-4.43505	-0.233253	1.28698
H	-3.51412	-1.7391	0.909565
H	-4.03707	-0.644988	-0.425011
C	0.227519	-1.78261	-1.67985
C	1.4438	-1.71795	-0.838638
O	1.87778	-2.71354	-0.275726
H	-0.170681	-2.8205	-1.67061
H	0.470166	-1.50007	-2.72581
H	-0.549524	-1.09604	-1.28249
N	2.02849	-0.52251	-0.731642
C	3.19391	-0.293584	0.0856412
C	3.17004	1.15066	0.5495
O	2.3524	1.94606	0.0906705
H	1.64011	0.286956	-1.16266
H	3.13865	-0.917128	0.969248
C	4.48809	-0.587248	-0.704356
H	4.5504	0.0596222	-1.60531
H	5.39215	-0.42799	-0.0815908
H	4.4803	-1.64706	-1.04062
N	4.06777	1.52241	1.48325
C	4.11649	2.87444	1.98902
H	4.7187	0.863498	1.84547
H	4.9214	2.98116	2.74927
H	3.14728	3.15147	2.46353
H	4.31551	3.59589	1.16376
