44
  This energy is 0.1 and Call times are: 144646
C	-3.10616	-1.15613	-1.06199
C	-2.24659	-0.145654	-0.40531
O	-2.67916	0.961309	-0.115606
H	-4.11635	-0.724312	-1.23207
H	-3.20321	-2.05396	-0.416071
H	-2.67168	-1.4503	-2.04065
N	-0.9872	-0.510752	-0.154296
C	-0.0203683	0.377935	0.440709
C	1.35793	-0.0285998	-0.0456766
O	1.51993	-1.06794	-0.682257
H	-0.63827	-1.40092	-0.43307
H	-0.200773	1.38716	0.0920662
C	-0.0903475	0.3169	1.98234
H	0.105083	-0.716126	2.34109
H	0.639882	1.00714	2.45229
H	-1.10978	0.610528	2.31535
N	2.38836	0.792259	0.237925
C	3.73484	0.490363	-0.188735
H	2.23682	1.63088	0.750588
H	4.43934	1.28566	0.140528
H	3.78714	0.413526	-1.29898
H	4.07512	-0.479587	0.240857
C	2.39205	0.998499	0.416229
C	3.46337	0.325653	-0.352346
O	3.20278	-0.379682	-1.31723
H	1.40468	0.732643	-0.0199665
H	2.52108	2.10024	0.368611
H	2.417	0.669086	1.47639
N	4.71383	0.531133	0.0678068
C	5.85781	-0.0901434	-0.551764
C	6.93905	-0.246534	0.500868
O	6.82021	0.274738	1.60805
H	4.90711	1.07483	0.879531
H	5.58716	-1.08386	-0.886287
C	6.37285	0.75812	-1.73516
H	6.66056	1.77427	-1.39063
H	7.24516	0.283323	-2.22929
H	5.56286	0.866127	-2.48922
N	8.02257	-0.98072	0.179984
C	9.09977	-1.18898	1.11938
H	8.09882	-1.39802	-0.719528
H	9.89809	-1.81906	0.66892
H	8.72729	-1.69858	2.03744
H	9.55003	-0.216262	1.42305
