44
  This energy is 0.1197 and Call times are: 144240
C	3.30552	-0.561951	-0.932982
C	2.27902	-0.185827	0.0650016
O	2.55775	-0.0824479	1.25161
H	4.27554	-0.730158	-0.416616
H	3.43129	0.251689	-1.67791
H	3.00869	-1.49682	-1.45356
N	1.04704	0.028349	-0.402682
C	-0.0660575	0.359123	0.45182
C	-1.33494	-0.14919	-0.206284
O	-1.31755	-0.582876	-1.35664
H	0.826562	-0.0996542	-1.36542
H	0.0398205	-0.163024	1.39457
C	-0.149636	1.88377	0.683574
H	-0.268856	2.4192	-0.282417
H	-0.994505	2.15	1.35129
H	0.792388	2.23497	1.15855
N	-2.47144	-0.114838	0.517052
C	-3.72629	-0.582498	-0.0240921
H	-2.46478	0.235825	1.44768
H	-4.54247	-0.472118	0.723496
H	-3.65499	-1.65721	-0.309014
H	-4.00284	-0.00179917	-0.933735
C	3.82418	-3.14984	-1.38437
C	4.29627	-1.80113	-0.998024
O	5.48609	-1.51758	-1.01651
H	4.69875	-3.78374	-1.64735
H	3.15159	-3.08212	-2.26516
H	3.27976	-3.62138	-0.539184
N	3.35705	-0.926168	-0.631026
C	3.66556	0.410584	-0.187774
C	2.57711	0.853785	0.771613
O	1.55881	0.181536	0.922756
H	2.39642	-1.18428	-0.581822
H	4.59685	0.397748	0.364644
C	3.7597	1.38103	-1.38553
H	2.80106	1.40252	-1.94642
H	4.01047	2.41091	-1.05843
H	4.55678	1.03287	-2.07819
N	2.77267	2.00003	1.45271
C	1.79438	2.49776	2.39152
H	3.60491	2.52809	1.31998
H	2.13817	3.45149	2.84917
H	1.6222	1.75937	3.20787
H	0.820675	2.68358	1.88308
