44
  This energy is -1.6334 and Call times are: 144076
C	-0.719926	2.80057	-1.9368
C	0.177358	1.699	-1.52138
O	1.18936	1.43368	-2.15532
H	-0.3222	3.26865	-2.8634
H	-0.774097	3.57138	-1.13951
H	-1.73843	2.40814	-2.14108
N	-0.181949	1.02084	-0.428966
C	0.566792	-0.104225	0.0731953
C	-0.395232	-1.02768	0.796591
O	-1.55402	-0.681534	1.01819
H	-1.03	1.22222	0.0528295
H	0.980841	-0.658317	-0.759978
C	1.68992	0.361356	1.02559
H	1.26478	0.920775	1.88602
H	2.2825	-0.494814	1.40814
H	2.37726	1.04209	0.477387
N	0.0643282	-2.23628	1.17622
C	-0.780342	-3.18383	1.86532
H	1.00387	-2.49995	0.984373
H	-0.220329	-4.11782	2.09174
H	-1.66472	-3.44799	1.24132
H	-1.15041	-2.75532	2.82478
C	3.85572	-2.81068	-0.183691
C	5.16499	-2.16531	0.0622179
O	6.09229	-2.78578	0.563769
H	3.89361	-3.8643	0.168878
H	3.62324	-2.80313	-1.26934
H	3.05531	-2.27527	0.36926
N	5.26939	-0.88177	-0.289923
C	6.46615	-0.107505	-0.0734577
C	6.0648	1.34534	0.098964
O	4.91073	1.70988	-0.11768
H	4.49316	-0.378923	-0.659321
H	6.93456	-0.424526	0.849962
C	7.44495	-0.261945	-1.25808
H	6.96845	0.0730475	-2.204
H	8.37641	0.318542	-1.09701
H	7.71875	-1.33373	-1.37058
N	7.01365	2.2123	0.504028
C	6.7231	3.61343	0.700518
H	7.94088	1.89771	0.678255
H	7.63219	4.16051	1.03444
H	5.931	3.74578	1.47275
H	6.36288	4.07672	-0.246447
