44
  This energy is 0.1061 and Call times are: 142239
C	-3.46451	0.137331	-0.30166
C	-2.17567	0.68317	0.180092
O	-2.10144	1.81049	0.64918
H	-4.25897	0.904386	-0.173847
H	-3.73979	-0.765942	0.282342
H	-3.38992	-0.126942	-1.37762
N	-1.11366	-0.118406	0.0705329
C	0.214619	0.288083	0.456532
C	1.20967	-0.475276	-0.397117
O	0.839957	-1.39411	-1.12566
H	-1.18228	-1.01806	-0.351098
H	0.343503	1.34093	0.238532
C	0.462572	0.0110987	1.95554
H	0.340812	-1.0705	2.17771
H	1.47718	0.332532	2.26823
H	-0.281747	0.573374	2.56068
N	2.50346	-0.103878	-0.332361
C	3.52073	-0.768831	-1.11285
H	2.78269	0.64465	0.259929
H	4.51987	-0.318954	-0.921641
H	3.29988	-0.682159	-2.20142
H	3.56848	-1.85169	-0.855429
C	3.43415	3.29984	-0.296255
C	3.16553	1.8528	-0.137975
O	2.04882	1.44393	0.148731
H	2.50076	3.87044	-0.0986128
H	3.77459	3.51494	-1.33094
H	4.21376	3.62539	0.424376
N	4.20295	1.03296	-0.322458
C	4.10701	-0.396448	-0.16081
C	5.46859	-0.917408	0.25903
O	6.45489	-0.183401	0.246864
H	5.11503	1.38341	-0.515172
H	3.41484	-0.619552	0.641531
C	3.65038	-1.07065	-1.47313
H	4.36576	-0.850766	-2.29407
H	3.55932	-2.17014	-1.35762
H	2.65579	-0.668608	-1.76551
N	5.55215	-2.20405	0.65093
C	6.805	-2.78586	1.07287
H	4.74225	-2.78119	0.657908
H	6.66748	-3.85258	1.3565
H	7.21527	-2.23935	1.9528
H	7.55779	-2.73503	0.253199
