44
  This energy is 0.11 and Call times are: 143040
C	-3.30909	0.373078	-1.01164
C	-2.07924	-0.434471	-0.84892
O	-2.09059	-1.64601	-1.01758
H	-4.15656	-0.297087	-1.27346
H	-3.17402	1.11632	-1.82534
H	-3.54807	0.901411	-0.0646224
N	-0.972888	0.231094	-0.509239
C	0.290214	-0.422661	-0.273145
C	1.07595	0.411431	0.721071
O	0.684676	1.52841	1.05421
H	-0.988399	1.21162	-0.335492
H	0.112823	-1.38787	0.184599
C	1.08203	-0.584725	-1.5892
H	1.27342	0.406006	-2.0538
H	2.05056	-1.09928	-1.42278
H	0.484843	-1.19145	-2.30447
N	2.20639	-0.119533	1.22724
C	3.01645	0.59835	2.1836
H	2.50459	-1.02647	0.94864
H	3.9027	-0.0050263	2.47977
H	2.42816	0.830537	3.10081
H	3.37552	1.56019	1.75108
C	4.37123	-0.175571	-3.25431
C	3.25817	-0.0743063	-2.28374
O	2.12132	0.19035	-2.6497
H	3.98843	0.0386082	-4.2758
H	4.8006	-1.19936	-3.23875
H	5.1639	0.561299	-3.00577
N	3.56742	-0.284305	-1.00208
C	2.60052	-0.178044	0.0620491
C	3.33228	0.229065	1.3271
O	4.56104	0.250471	1.3647
H	4.50504	-0.45841	-0.715
H	1.89712	0.611323	-0.171931
C	1.86118	-1.51773	0.271487
H	2.58129	-2.32567	0.521916
H	1.10417	-1.4449	1.07904
H	1.33959	-1.79999	-0.669049
N	2.58817	0.571866	2.39705
C	3.1969	0.978139	3.64227
H	1.59515	0.552258	2.34606
H	2.41911	1.21995	4.39976
H	3.83284	1.88061	3.49254
H	3.84138	0.165195	4.04837
