44
  This energy is -4.8232 and Call times are: 145712
C	-1.03746	-2.09319	2.57971
C	-0.259076	-1.82945	1.34858
O	0.586697	-2.61974	0.952952
H	-0.704082	-3.05525	3.02601
H	-2.11942	-2.16374	2.34067
H	-0.874379	-1.27927	3.3173
N	-0.53138	-0.690882	0.706793
C	0.172949	-0.276256	-0.48088
C	0.162068	1.23993	-0.53217
O	-0.522124	1.89178	0.254389
H	-1.19371	-0.0382579	1.06354
H	1.20722	-0.589209	-0.410413
C	-0.486123	-0.865622	-1.74718
H	-1.54416	-0.536306	-1.82551
H	0.0553098	-0.56488	-2.66746
H	-0.474217	-1.97569	-1.68433
N	0.932472	1.83968	-1.46104
C	0.990208	3.27788	-1.58118
H	1.48229	1.2954	-2.08597
H	1.67869	3.57661	-2.40214
H	1.35468	3.73686	-0.633666
H	-0.0193001	3.6948	-1.80074
C	7.63025	-0.404653	-2.64102
C	6.2648	-0.196781	-2.10858
O	5.33721	0.106728	-2.84605
H	7.62822	-0.223788	-3.7379
H	7.96121	-1.44698	-2.44926
H	8.33969	0.30236	-2.16155
N	6.11051	-0.356361	-0.792097
C	4.85124	-0.146206	-0.122304
C	5.13995	0.287171	1.30262
O	6.28308	0.247417	1.75361
H	6.88339	-0.563383	-0.199096
H	4.3209	0.665165	-0.60505
C	3.99832	-1.43369	-0.134409
H	4.5376	-2.2636	0.370039
H	3.02032	-1.28081	0.366255
H	3.8061	-1.73669	-1.18683
N	4.10354	0.722113	2.04605
C	4.2833	1.15995	3.41066
H	3.1865	0.750882	1.66227
H	3.3137	1.47987	3.85198
H	4.9903	2.01974	3.4574
H	4.69884	0.336915	4.03602
