10
	Energy:     -68.1380901
C         -0.30193       -0.11071       -0.15690
O          0.54521       -0.10210       -1.03602
O          0.00284       -0.10567        1.14957
H         -1.39135       -0.12332       -0.30909
H          0.99369       -0.09434        1.21776
C          3.46509       -0.06856        0.12127
O          2.61795       -0.07656        1.00038
O          3.16032       -0.07354       -1.18520
H          4.55452       -0.05662        0.27345
H          2.16947       -0.08437       -1.25339
