44
  This energy is 0.1459 and Call times are: 234127
C	-2.34113	1.73759	-1.90068
C	-1.6331	1.4736	-0.62783
O	-1.73486	2.23635	0.323099
H	-2.90812	2.68998	-1.81489
H	-3.05278	0.914242	-2.12064
H	-1.6115	1.82747	-2.73293
N	-0.885235	0.368585	-0.582875
C	-0.103782	0.000988321	0.571579
C	1.09113	-0.804308	0.0969889
O	1.17428	-1.17899	-1.07109
H	-0.779746	-0.220861	-1.37867
H	0.278393	0.897128	1.04434
C	-0.948046	-0.820365	1.5705
H	-1.33162	-1.74509	1.08905
H	-0.361428	-1.09769	2.47021
H	-1.82099	-0.214614	1.89819
N	2.05445	-1.08332	0.997092
C	3.23085	-1.83928	0.635428
H	1.97131	-0.768028	1.93664
H	3.9037	-1.96317	1.51244
H	3.79826	-1.32087	-0.171151
H	2.94903	-2.85101	0.26377
C	4.02982	-0.569639	-3.07375
C	2.85141	-0.217979	-2.24982
O	1.83166	0.224901	-2.76009
H	3.8115	-0.347079	-4.14083
H	4.25904	-1.65122	-2.97182
H	4.91099	0.0263705	-2.75534
N	2.96913	-0.408981	-0.933747
C	1.92373	-0.0733667	0.000619655
C	2.56932	0.265501	1.33102
O	3.76869	0.0691657	1.51717
H	3.81997	-0.731665	-0.529008
H	1.40866	0.814836	-0.343505
C	0.931759	-1.24589	0.163178
H	1.45786	-2.15442	0.526275
H	0.114277	-0.994726	0.86969
H	0.477457	-1.48179	-0.823888
N	1.78426	0.794024	2.29037
C	2.31182	1.15295	3.58614
H	0.816893	0.949292	2.11956
H	1.51081	1.57108	4.23481
H	3.11566	1.91772	3.48484
H	2.74546	0.261581	4.09462
