44
  This energy is -2.5685 and Call times are: 227539
C	-1.82407	2.57972	-1.45963
C	-1.508	1.14428	-1.28422
O	-2.23591	0.275111	-1.74367
H	-2.77689	2.67976	-2.02355
H	-1.01477	3.08296	-2.0293
H	-1.93908	3.06996	-0.469916
N	-0.396481	0.860506	-0.601308
C	0.0193073	-0.489389	-0.312409
C	0.815528	-0.472945	0.978837
O	1.1475	0.589759	1.50054
H	0.163998	1.57838	-0.198336
H	-0.855888	-1.10442	-0.143889
C	0.870557	-1.06333	-1.46619
H	1.77399	-0.438682	-1.63251
H	1.18528	-2.10723	-1.26183
H	0.270748	-1.0584	-2.40243
N	1.13479	-1.65971	1.53172
C	1.88573	-1.74253	2.76274
H	0.853734	-2.50886	1.09694
H	2.04694	-2.80373	3.05443
H	1.34222	-1.23048	3.58959
H	2.88091	-1.25471	2.64965
C	4.36905	-0.0325283	-3.12536
C	5.18479	0.626378	-2.08058
O	5.79807	1.65882	-2.31371
H	4.44593	0.546745	-4.07108
H	3.3044	-0.0702161	-2.81254
H	4.73809	-1.06434	-3.30494
N	5.21157	0.031648	-0.885606
C	5.9946	0.530319	0.217455
C	6.37299	-0.645315	1.09852
O	5.88171	-1.7567	0.910963
H	4.74013	-0.830407	-0.722928
H	6.91417	0.958248	-0.161884
C	5.20199	1.58029	1.02651
H	4.26362	1.13881	1.42475
H	5.79928	1.98206	1.87051
H	4.92886	2.42742	0.360096
N	7.26828	-0.427124	2.08181
C	7.69273	-1.48702	2.96647
H	7.65785	0.478123	2.21537
H	8.43199	-1.10907	3.70667
H	8.16606	-2.31429	2.38953
H	6.82327	-1.90706	3.52211
