44
  This energy is -2.9177 and Call times are: 231921
C	1.47764	2.79523	1.45463
C	0.391106	1.79402	1.36426
O	-0.454826	1.69692	2.24254
H	1.37533	3.36352	2.40461
H	1.41597	3.50485	0.602938
H	2.46609	2.28935	1.44318
N	0.392481	1.01287	0.281586
C	-0.57511	-0.0355498	0.0738818
C	0.0712852	-1.11445	-0.77447
O	1.16953	-0.931784	-1.29621
H	1.11134	1.07639	-0.40476
H	-0.827424	-0.482798	1.02726
C	-1.84177	0.512182	-0.619517
H	-1.58495	0.961699	-1.60238
H	-2.60014	-0.282789	-0.772525
H	-2.29354	1.30561	0.0150826
N	-0.596629	-2.2751	-0.925474
C	-0.0573248	-3.36096	-1.71048
H	-1.48221	-2.40569	-0.492165
H	-0.754109	-4.22797	-1.71346
H	0.91999	-3.6982	-1.29527
H	0.10769	-3.03988	-2.76444
C	4.3262	0.0506426	-3.32596
C	5.31892	-0.259214	-2.27256
O	6.30496	-0.942036	-2.51316
H	4.6335	-0.43879	-4.27563
H	4.27051	1.14755	-3.48859
H	3.32536	-0.330637	-3.03266
N	5.07418	0.243348	-1.06016
C	5.92593	-0.00756711	0.0756742
C	5.07435	0.0594907	1.32943
O	3.91112	0.454673	1.28026
H	4.24621	0.763102	-0.86995
H	6.32334	-1.01268	0.00904445
C	7.07261	1.02475	0.1441
H	6.66548	2.05531	0.223087
H	7.74351	0.833859	1.00664
H	7.67768	0.963403	-0.786742
N	5.63607	-0.336157	2.48872
C	4.90084	-0.312447	3.73172
H	6.57733	-0.656668	2.50778
H	5.53478	-0.675292	4.57059
H	3.99893	-0.963339	3.66707
H	4.56343	0.722412	3.96914
