44
  This energy is 0.1077 and Call times are: 232204
C	-3.35151	-0.512142	0.786008
C	-2.28455	-0.0202057	-0.11441
O	-2.53361	0.326225	-1.26087
H	-4.32022	-0.514559	0.240606
H	-3.43985	0.150487	1.6725
H	-3.12417	-1.54672	1.11927
N	-1.05063	0.0193741	0.393762
C	0.0971461	0.433783	-0.37399
C	1.31872	-0.273044	0.182529
O	1.25216	-0.916624	1.22804
H	-0.856997	-0.304545	1.31542
H	-0.0235144	0.109642	-1.40015
C	0.281091	1.96579	-0.308048
H	0.415461	2.29762	0.743556
H	1.1536	2.29885	-0.906646
H	-0.627715	2.46231	-0.712885
N	2.46866	-0.175554	-0.513281
C	3.68101	-0.819279	-0.0638246
H	2.50181	0.346274	-1.35925
H	4.51658	-0.621702	-0.770932
H	3.53668	-1.92162	0.00890548
H	3.97629	-0.442648	0.942206
C	3.86346	1.08745	2.85711
C	3.06095	0.0873984	2.1175
O	2.88782	-1.03915	2.56172
H	4.24777	0.629518	3.79437
H	3.23554	1.96539	3.11726
H	4.72481	1.41921	2.23979
N	2.54687	0.484204	0.951032
C	1.78015	-0.38934	0.0980345
C	1.96173	0.0710318	-1.33607
O	2.5316	1.13049	-1.59003
H	2.73066	1.3913	0.583254
H	2.17707	-1.39449	0.166853
C	0.285926	-0.369243	0.488096
H	-0.124439	0.659908	0.407517
H	-0.312924	-1.04855	-0.152563
H	0.177634	-0.702024	1.5435
N	1.48508	-0.724976	-2.31341
C	1.61679	-0.371632	-3.70767
H	1.03055	-1.58044	-2.08833
H	1.1628	-1.15316	-4.35601
H	2.69028	-0.26535	-3.98623
H	1.10817	0.597113	-3.91739
