44
  This energy is 0.1128 and Call times are: 226289
C	0.204125	-3.46889	0.194404
C	0.46941	-2.11563	0.732411
O	0.876817	-1.95734	1.87494
H	0.416041	-4.22503	0.981312
H	0.85803	-3.66784	-0.680565
H	-0.859634	-3.55726	-0.111702
N	0.23771	-1.09269	-0.0935926
C	0.40818	0.28352	0.300798
C	-0.550688	1.13122	-0.513773
O	-1.17962	0.645414	-1.45194
H	-0.13277	-1.23526	-1.00698
H	0.131466	0.393665	1.34192
C	1.86458	0.745568	0.0757159
H	2.14552	0.642679	-0.994106
H	2.01199	1.79957	0.388571
H	2.54915	0.106424	0.675047
N	-0.691261	2.42553	-0.165879
C	-1.58504	3.30737	-0.879814
H	-0.176894	2.79941	0.598789
H	-1.56059	4.32998	-0.442909
H	-2.63208	2.92988	-0.829921
H	-1.29404	3.3773	-1.95293
C	1.66925	0.545977	-0.211198
C	2.96259	0.641663	0.502432
O	3.08025	1.32437	1.51064
H	0.916486	1.17955	0.306282
H	1.3118	-0.50519	-0.216236
H	1.78172	0.902965	-1.25666
N	3.97913	-0.0513442	-0.0159949
C	5.30828	-0.0233064	0.541803
C	6.29758	-0.275453	-0.580374
O	5.91073	-0.62017	-1.69537
H	3.87825	-0.569796	-0.860321
H	5.51037	0.965681	0.933828
C	5.46398	-1.08746	1.65021
H	5.26706	-2.10331	1.24608
H	6.47901	-1.06658	2.0972
H	4.72512	-0.888025	2.45684
N	7.60632	-0.0997987	-0.311386
C	8.61997	-0.311045	-1.31839
H	7.89964	0.183379	0.595722
H	9.63331	-0.115616	-0.90343
H	8.45942	0.369138	-2.18606
H	8.59022	-1.36017	-1.69203
