44
  This energy is -2.8026 and Call times are: 227709
C	-2.66789	1.31353	-1.80823
C	-1.35925	1.45169	-1.13036
O	-0.680503	2.46057	-1.26408
H	-2.86507	2.22384	-2.41514
H	-3.47777	1.19989	-1.05728
H	-2.65967	0.428947	-2.47945
N	-0.969655	0.42101	-0.37651
C	0.297727	0.390757	0.310067
C	0.72824	-1.05772	0.444731
O	-0.0393885	-1.97265	0.152566
H	-1.51427	-0.410173	-0.310242
H	1.04295	0.894005	-0.293271
C	0.188044	1.05453	1.70025
H	-0.568818	0.53207	2.32334
H	1.16085	1.0499	2.2333
H	-0.135902	2.11114	1.57791
N	1.97839	-1.30005	0.885659
C	2.47766	-2.64653	1.04029
H	2.58626	-0.546513	1.11315
H	3.52556	-2.637	1.41317
H	2.45711	-3.18732	0.0664301
H	1.85256	-3.21671	1.76505
C	6.30395	0.61174	3.38236
C	6.22509	-0.255811	2.18558
O	5.93076	-1.43939	2.28002
H	6.07964	0.00842541	4.28875
H	5.56383	1.43593	3.30701
H	7.32431	1.03913	3.47861
N	6.49348	0.324198	1.01342
C	6.49928	-0.400171	-0.233096
C	7.47126	0.286002	-1.17437
O	7.96789	1.37273	-0.884373
H	6.77152	1.27886	0.957008
H	6.86984	-1.40313	-0.0616971
C	5.08515	-0.443763	-0.852426
H	4.70881	0.584776	-1.03821
H	5.07377	-1.01073	-1.80581
H	4.38915	-0.942791	-0.143278
N	7.77311	-0.341679	-2.32802
C	8.69231	0.232421	-3.28283
H	7.3643	-1.22239	-2.54318
H	8.80968	-0.434145	-4.16552
H	9.69515	0.382601	-2.82127
H	8.32365	1.2222	-3.6372
