44
  This energy is 0.107 and Call times are: 231674
C	-2.78953	0.576536	1.99971
C	-2.13695	-0.0263667	0.815734
O	-2.71046	-0.866206	0.135906
H	-3.79917	0.129825	2.12989
H	-2.8968	1.67286	1.86078
H	-2.18792	0.376798	2.91145
N	-0.900413	0.395174	0.540678
C	-0.121551	-0.130024	-0.552986
C	1.34609	-0.0155846	-0.186251
O	1.69873	0.607374	0.81339
H	-0.431317	1.04927	1.12717
H	-0.342285	-1.18308	-0.675398
C	-0.414962	0.64021	-1.85908
H	-0.178701	1.71882	-1.73732
H	0.168431	0.236218	-2.71171
H	-1.49581	0.549418	-2.10378
N	2.24047	-0.626085	-0.988373
C	3.65799	-0.576163	-0.715738
H	1.93558	-1.12889	-1.79044
H	4.22715	-1.1381	-1.48872
H	3.88257	-1.0239	0.279435
H	4.02028	0.477333	-0.710011
C	6.26228	-0.0169766	2.50866
C	4.93553	0.370888	1.97908
O	4.08107	0.857466	2.70679
H	6.29748	0.191839	3.6
H	7.06102	0.567096	2.00505
H	6.43787	-1.10106	2.34437
N	4.73081	0.157824	0.677129
C	3.47631	0.443969	0.02682
C	3.32532	-0.504281	-1.14774
O	4.25926	-1.22082	-1.50276
H	5.42149	-0.276837	0.10626
H	2.66363	0.2398	0.71275
C	3.42518	1.91142	-0.451934
H	4.25247	2.11853	-1.1638
H	2.45859	2.14802	-0.942076
H	3.5456	2.58724	0.422774
N	2.13377	-0.536234	-1.77639
C	1.89548	-1.41118	-2.9006
H	1.38879	0.0480631	-1.47196
H	0.856273	-1.29152	-3.27872
H	2.04126	-2.47609	-2.60735
H	2.60007	-1.18271	-3.73276
