44
  This energy is -1.5705 and Call times are: 229091
C	-0.540649	1.92062	-2.8516
C	-0.410127	1.77424	-1.3844
O	-0.325503	2.7531	-0.655649
H	-0.526329	3.0004	-3.1157
H	-1.49916	1.47897	-3.1965
H	0.304769	1.41425	-3.36341
N	-0.388382	0.525672	-0.912178
C	-0.223295	0.22303	0.48772
C	0.446782	-1.1332	0.602606
O	0.602821	-1.8445	-0.388054
H	-0.417024	-0.26152	-1.52158
H	0.442694	0.950742	0.934403
C	-1.58559	0.21729	1.2153
H	-2.26556	-0.536487	0.764194
H	-1.47043	-0.000873637	2.29681
H	-2.06136	1.21689	1.11139
N	0.868633	-1.52089	1.82235
C	1.52193	-2.79265	2.02731
H	0.737123	-0.929786	2.61126
H	1.79331	-2.92739	3.09755
H	2.45281	-2.85863	1.41872
H	0.852834	-3.63118	1.72678
C	6.43988	-1.76857	2.86234
C	6.52578	-0.578353	1.98647
O	7.07448	0.447512	2.36454
H	6.91611	-1.5399	3.84049
H	6.96979	-2.62573	2.39628
H	5.37726	-2.0408	3.03493
N	5.97325	-0.69094	0.776338
C	5.93978	0.395375	-0.170949
C	4.71834	0.216488	-1.05279
O	4.05049	-0.814586	-1.00205
H	5.49427	-1.51862	0.498167
H	5.81884	1.33033	0.36183
C	7.22571	0.421646	-1.02589
H	7.34473	-0.533287	-1.58085
H	7.21814	1.26211	-1.74983
H	8.10708	0.54532	-0.359383
N	4.39178	1.22787	-1.88133
C	3.24311	1.14968	-2.75347
H	4.94203	2.05596	-1.90524
H	3.14246	2.07951	-3.35556
H	2.30919	1.01259	-2.16162
H	3.3384	0.287581	-3.45264
