44
  This energy is 0.1183 and Call times are: 230804
C	-3.21945	0.716354	-1.11116
C	-2.2573	0.368143	-0.0415036
O	-2.57899	0.41152	1.13792
H	-4.18765	1.01256	-0.652123
H	-3.3885	-0.158548	-1.77352
H	-2.83216	1.56568	-1.71261
N	-1.03332	0.0111026	-0.437446
C	0.0230757	-0.313894	0.488274
C	1.34824	0.0225879	-0.169206
O	1.40066	0.333503	-1.35761
H	-0.774395	0.0201002	-1.39908
H	-0.0682635	0.310712	1.36814
C	-0.02449	-1.80776	0.877295
H	0.0797595	-2.44901	-0.0238014
H	0.775542	-2.06748	1.6005
H	-1.00576	-2.03304	1.34922
N	2.45597	-0.0240671	0.596802
C	3.76034	0.285443	0.0591926
H	2.39292	-0.273801	1.55739
H	4.54205	0.19084	0.844808
H	3.78517	1.3267	-0.336336
H	4.01596	-0.407012	-0.775257
C	5.83557	-0.574327	2.99028
C	4.59543	-0.512342	2.18444
O	3.53924	-0.956485	2.61294
H	5.62004	-1.07738	3.95792
H	6.21131	0.450433	3.19383
H	6.6144	-1.15288	2.45012
N	4.69954	0.0481149	0.977201
C	3.58999	0.141731	0.0614104
C	4.14164	0.13926	-1.35183
O	5.35062	0.230573	-1.55612
H	5.57483	0.368095	0.625994
H	2.96574	-0.73696	0.165543
C	2.76816	1.42359	0.319637
H	3.40561	2.32581	0.202593
H	1.90282	1.50022	-0.370168
H	2.38112	1.40766	1.36188
N	3.26189	0.0253239	-2.36626
C	3.69496	0.00827872	-3.74406
H	2.28783	-0.0516007	-2.18087
H	2.82419	-0.0923998	-4.42878
H	4.38606	-0.846021	-3.92802
H	4.23417	0.949436	-3.99826
