44
  This energy is 0.1153 and Call times are: 230346
C	2.26782	-0.840215	2.50274
C	1.19314	0.0156367	1.95163
O	0.622631	0.843083	2.64895
H	2.4111	-0.602366	3.57921
H	3.22025	-0.653384	1.96356
H	1.99196	-1.9114	2.40503
N	0.88747	-0.170064	0.665369
C	-0.164649	0.557104	-8.92584e-05
C	-0.711252	-0.315567	-1.11419
O	-0.150206	-1.36439	-1.4255
H	1.33258	-0.875773	0.121566
H	-0.973608	0.733577	0.697817
C	0.362003	1.89335	-0.567819
H	1.18486	1.71228	-1.2918
H	-0.441944	2.46899	-1.07064
H	0.764271	2.51228	0.263723
N	-1.83207	0.0966203	-1.7386
C	-2.42817	-0.671275	-2.80686
H	-2.27399	0.946065	-1.46985
H	-3.34249	-0.16732	-3.19064
H	-2.71211	-1.68745	-2.44904
H	-1.71228	-0.790442	-3.65211
C	1.00574	-0.534855	2.19877
C	2.09537	0.303648	1.65034
O	2.19201	1.48733	1.94357
H	0.354893	0.0883615	2.84981
H	1.42866	-1.36507	2.80262
H	0.392602	-0.953657	1.37309
N	2.9528	-0.302289	0.825696
C	4.03867	0.392412	0.180065
C	4.33627	-0.309931	-1.13132
O	3.80817	-1.38646	-1.40317
H	2.83715	-1.25631	0.564312
H	3.72582	1.40137	-0.0581422
C	5.29341	0.412767	1.08032
H	5.62098	-0.622142	1.31634
H	6.13229	0.95694	0.600034
H	5.05027	0.924202	2.03722
N	5.18904	0.292102	-1.98358
C	5.52783	-0.298842	-3.25723
H	5.60318	1.16498	-1.74769
H	6.2426	0.347356	-3.81289
H	4.61601	-0.431979	-3.88343
H	5.99735	-1.29894	-3.11405
