44
  This energy is 0.167 and Call times are: 230529
C	-2.70703	-0.720199	2.06543
C	-1.84621	-1.01007	0.896626
O	-1.93566	-2.06964	0.291874
H	-3.36691	-1.59321	2.2611
H	-3.33914	0.17003	1.86378
H	-2.08202	-0.533598	2.96412
N	-0.976753	-0.058325	0.549356
C	-0.0437831	-0.21235	-0.538947
C	1.17977	0.631892	-0.236087
O	1.18427	1.41793	0.709347
H	-0.88737	0.781988	1.07638
H	0.280513	-1.24436	-0.588111
C	-0.681601	0.219257	-1.87766
H	-1.00492	1.28103	-1.8313
H	0.0223235	0.0922645	-2.72553
H	-1.57941	-0.406317	-2.07498
N	2.25617	0.481292	-1.03278
C	3.46744	1.23815	-0.817914
H	2.23489	-0.162706	-1.79033
H	4.23676	0.972672	-1.57613
H	3.886	1.03071	0.193545
H	3.26588	2.33142	-0.890551
C	2.54722	-2.7801	1.97229
C	3.42218	-1.65665	1.56798
O	4.39655	-1.34079	2.23675
H	2.92153	-3.21246	2.9256
H	2.55383	-3.5702	1.19226
H	1.50789	-2.42002	2.12462
N	3.0859	-1.01675	0.445558
C	3.81539	0.122861	-0.0521203
C	2.8531	0.9945	-0.836864
O	1.71755	0.60197	-1.09791
H	2.26656	-1.25936	-0.0659933
H	4.17417	0.710206	0.783894
C	4.99341	-0.323461	-0.945602
H	4.62487	-0.917152	-1.80918
H	5.57132	0.54459	-1.32379
H	5.68033	-0.966442	-0.353104
N	3.28574	2.20994	-1.22615
C	2.43834	3.11065	-1.97235
H	4.20653	2.51152	-1.00193
H	2.9744	4.05882	-2.19782
H	1.51966	3.35689	-1.39212
H	2.12441	2.6475	-2.93572
