44
  This energy is 0.1019 and Call times are: 228983
C	3.20067	0.840162	-1.07821
C	2.24699	0.42793	-0.0238288
O	2.63893	0.0507474	1.07186
H	4.23946	0.724239	-0.699586
H	3.03399	1.90356	-1.35049
H	3.0735	0.203779	-1.97928
N	0.951057	0.489986	-0.338589
C	-0.0930752	0.0812135	0.56764
C	-1.27546	-0.393037	-0.256134
O	-1.2987	-0.23268	-1.47493
H	0.649087	0.7601	-1.24838
H	0.251627	-0.762379	1.15259
C	-0.509414	1.2468	1.49139
H	-0.873045	2.10864	0.892184
H	-1.30318	0.940694	2.20326
H	0.372955	1.58287	2.07861
N	-2.28759	-0.999932	0.394476
C	-3.45157	-1.48914	-0.306959
H	-2.24879	-1.12422	1.38044
H	-4.17044	-1.9561	0.401844
H	-3.16136	-2.25208	-1.06523
H	-3.97049	-0.657009	-0.835572
C	1.06419	1.31432	-1.21256
C	1.82674	0.46648	-0.268707
O	1.29427	-0.0148406	0.721858
H	0.0189729	1.42018	-0.849025
H	1.04883	0.847368	-2.21977
H	1.52516	2.32232	-1.27965
N	3.11391	0.264166	-0.559636
C	3.9945	-0.502522	0.286121
C	5.40492	0.0252043	0.102273
O	5.66227	0.839838	-0.78195
H	3.54325	0.696208	-1.34759
H	3.72297	-0.343172	1.32222
C	3.92823	-2.00475	-0.0662244
H	4.21688	-2.16991	-1.12615
H	4.59155	-2.60754	0.587364
H	2.88574	-2.3675	0.0678181
N	6.35548	-0.424129	0.945208
C	7.72454	0.0261493	0.8498
H	6.1271	-1.0801	1.65698
H	8.35283	-0.457333	1.63002
H	7.78523	1.13031	0.985528
H	8.15157	-0.222935	-0.148573
