44
  This energy is 0.1101 and Call times are: 231213
C	1.26554	1.46312	2.89316
C	1.13775	1.38581	1.42046
O	1.54759	2.28657	0.701383
H	1.74679	2.42626	3.17001
H	1.8932	0.627156	3.26725
H	0.26272	1.41309	3.36744
N	0.553782	0.289011	0.932222
C	0.319962	0.0900583	-0.476432
C	-0.900717	-0.797134	-0.632591
O	-1.40829	-1.34737	0.342769
H	0.188486	-0.416833	1.5324
H	0.0881545	1.04183	-0.937989
C	1.54868	-0.55537	-1.15386
H	1.78051	-1.53669	-0.687702
H	1.38629	-0.701019	-2.24149
H	2.43165	0.107094	-1.02021
N	-1.40796	-0.950343	-1.87165
C	-2.57096	-1.77122	-2.11615
H	-0.985844	-0.49375	-2.6478
H	-2.83289	-1.77009	-3.19717
H	-3.44744	-1.39133	-1.54278
H	-2.38257	-2.82331	-1.80191
C	6.71403	0.405929	1.93528
C	6.00978	0.408636	0.633286
O	6.5401	0.860288	-0.37229
H	7.71534	0.87292	1.8122
H	6.84521	-0.635473	2.29725
H	6.13597	0.987316	2.68422
N	4.77661	-0.102833	0.624541
C	3.95098	-0.13031	-0.557042
C	2.49883	-0.0819004	-0.120593
O	2.1935	-0.19437	1.06508
H	4.34293	-0.429257	1.45954
H	4.14057	0.758368	-1.14605
C	4.22362	-1.40121	-1.39114
H	4.01916	-2.31318	-0.790669
H	3.60388	-1.42729	-2.3108
H	5.29366	-1.41967	-1.69279
N	1.56461	0.0964045	-1.07529
C	0.157968	0.160808	-0.753744
H	1.83145	0.189495	-2.02881
H	-0.449165	0.311751	-1.67344
H	-0.0471966	1.00476	-0.0559411
H	-0.176667	-0.781835	-0.263247
