44
  This energy is 0.1465 and Call times are: 231015
C	-2.7808	-1.10325	1.77839
C	-2.08222	-0.798443	0.509446
O	-2.54384	-1.14988	-0.567498
H	-3.70725	-1.6772	1.55894
H	-3.05598	-0.162189	2.29937
H	-2.12788	-1.71322	2.43772
N	-0.9323	-0.127854	0.611318
C	-0.117795	0.203632	-0.531161
C	1.32666	0.285116	-0.0745869
O	1.61261	0.245049	1.12055
H	-0.548835	0.115543	1.49765
H	-0.181391	-0.595499	-1.25916
C	-0.564246	1.54313	-1.15698
H	-0.48917	2.36521	-0.413613
H	0.046396	1.80258	-2.04599
H	-1.62625	1.46304	-1.47649
N	2.27723	0.393705	-1.02362
C	3.67893	0.471906	-0.684048
H	2.02656	0.420415	-1.98566
H	4.30174	0.556646	-1.60173
H	3.99918	-0.437582	-0.125889
H	3.8787	1.35963	-0.041265
C	4.01309	3.42843	-0.409571
C	3.53674	2.0971	0.0283985
O	2.52588	1.97822	0.706962
H	3.33216	4.21156	-0.0109659
H	4.01848	3.48727	-1.51829
H	5.03812	3.61372	-0.0247912
N	4.26921	1.04895	-0.355329
C	3.9564	-0.304953	0.0289342
C	5.25009	-1.09642	0.068003
O	6.29727	-0.612943	-0.357865
H	5.11208	1.16492	-0.872983
H	3.54707	-0.306234	1.03147
C	2.96043	-0.94399	-0.963499
H	3.38421	-0.952482	-1.99033
H	2.70094	-1.98201	-0.67077
H	2.02447	-0.344005	-0.981657
N	5.20829	-2.33742	0.591637
C	6.39071	-3.16266	0.675525
H	4.35238	-2.70979	0.934889
H	6.15173	-4.14656	1.13602
H	7.1728	-2.66658	1.29482
H	6.81634	-3.34377	-0.337973
