44
  This energy is 0.113 and Call times are: 232100
C	-2.5638	2.18078	0.885331
C	-1.72512	0.986443	1.13295
O	-1.75053	0.40743	2.21021
H	-3.14358	2.4192	1.80342
H	-3.27256	1.98493	0.0534386
H	-1.92387	3.05114	0.628293
N	-0.948405	0.587014	0.12322
C	-0.0459163	-0.532423	0.227797
C	1.11564	-0.293516	-0.718387
O	1.09079	0.634704	-1.5243
H	-0.908176	1.09288	-0.733721
H	0.358624	-0.57259	1.23147
C	-0.764362	-1.85463	-0.119844
H	-1.17043	-1.81791	-1.15319
H	-0.0835305	-2.72574	-0.0295675
H	-1.61529	-2.00492	0.579925
N	2.17123	-1.12711	-0.635545
C	3.32443	-0.973856	-1.4916
H	2.17469	-1.86991	0.0257489
H	4.08482	-1.75503	-1.27065
H	3.79459	0.0250882	-1.34212
H	3.03282	-1.06128	-2.56326
C	0.0166415	-0.388201	-0.717596
C	1.43238	-0.799906	-0.849299
O	1.73585	-1.86809	-1.36242
H	-0.638051	-1.18811	-1.12671
H	-0.163715	0.549023	-1.2849
H	-0.237328	-0.227666	0.351422
N	2.34481	0.0532317	-0.378114
C	3.7589	-0.227064	-0.396368
C	4.4022	0.510077	0.763097
O	3.7623	1.32658	1.42307
H	2.08041	0.900406	0.0738228
H	3.91534	-1.28591	-0.232053
C	4.39121	0.212466	-1.73511
H	4.24016	1.30073	-1.89916
H	5.47734	-0.0107303	-1.76693
H	3.89986	-0.333571	-2.56983
N	5.69014	0.230566	1.04435
C	6.384	0.878664	2.13278
H	6.19012	-0.436123	0.501558
H	7.43282	0.514887	2.20265
H	5.87558	0.67054	3.10205
H	6.40473	1.98254	1.98387
