44
  This energy is -2.1682 and Call times are: 225929
C	-0.466702	-3.44493	-0.165302
C	-0.524342	-2.09186	-0.762807
O	-0.726319	-1.93631	-1.95923
H	-0.612492	-4.20526	-0.963127
H	-1.26825	-3.56247	0.593942
H	0.521921	-3.61046	0.312521
N	-0.342551	-1.06615	0.072215
C	-0.328262	0.306484	-0.368491
C	0.555212	1.09779	0.577483
O	0.979957	0.591515	1.6143
H	-0.138433	-1.21013	1.03631
H	0.121758	0.361262	-1.35191
C	-1.75682	0.892872	-0.393209
H	-2.21503	0.846559	0.617701
H	-1.76069	1.94518	-0.74415
H	-2.3876	0.293572	-1.08552
N	0.860729	2.36484	0.23504
C	1.69944	3.19235	1.07049
H	0.510921	2.75562	-0.609944
H	1.83383	4.19948	0.617899
H	2.70445	2.72911	1.19944
H	1.24564	3.31911	2.08002
C	4.82684	-3.45793	-0.225966
C	4.2653	-2.10946	0.0137213
O	3.05746	-1.93098	0.0891033
H	3.99562	-4.18871	-0.330273
H	5.46826	-3.76262	0.62755
H	5.42794	-3.46172	-1.15964
N	5.14566	-1.11357	0.138473
C	4.74962	0.259155	0.331679
C	5.8273	1.14974	-0.257426
O	6.89702	0.677083	-0.636915
H	6.12397	-1.26797	0.0339008
H	3.83729	0.448761	-0.219975
C	4.55026	0.569989	1.8313
H	5.48897	0.385701	2.39602
H	4.2317	1.6203	1.9922
H	3.7631	-0.0986409	2.2432
N	5.56464	2.46784	-0.355503
C	6.52786	3.39147	-0.908042
H	4.69175	2.83096	-0.0468426
H	6.12586	4.42858	-0.903214
H	6.7772	3.11714	-1.95869
H	7.47066	3.37789	-0.31467
