44
  This energy is 0.1251 and Call times are: 228056
C	1.8432	-2.55168	1.48467
C	1.74812	-1.28731	0.720812
O	2.73817	-0.601816	0.505599
H	2.8969	-2.71127	1.8011
H	1.52479	-3.40626	0.85139
H	1.20014	-2.50195	2.3886
N	0.532082	-0.944699	0.289261
C	0.274493	0.277981	-0.429947
C	-1.15548	0.699665	-0.149042
O	-1.92678	-0.0483245	0.448725
H	-0.27071	-1.4922	0.507509
H	0.921566	1.05886	-0.0502687
C	0.493514	0.0827265	-1.94624
H	-0.177582	-0.710983	-2.33827
H	0.311723	1.02085	-2.50962
H	1.54404	-0.233275	-2.12761
N	-1.54153	1.92033	-0.569733
C	-2.88144	2.40938	-0.342475
H	-0.901911	2.51287	-1.04811
H	-3.00315	3.43232	-0.762019
H	-3.1054	2.44898	0.748189
H	-3.63091	1.74093	-0.824764
C	7.73129	1.85899	-1.795
C	7.37069	0.740739	-0.894644
O	8.17558	-0.140372	-0.625937
H	8.7763	1.72314	-2.14903
H	7.65814	2.82536	-1.25322
H	7.05335	1.87618	-2.6743
N	6.12963	0.751492	-0.402652
C	5.61943	-0.291384	0.45213
C	4.11839	-0.377112	0.249344
O	3.52259	0.471847	-0.410956
H	5.4729	1.45345	-0.663075
H	6.04086	-1.24119	0.147371
C	5.95015	-0.00228065	1.93277
H	5.5091	0.96704	2.24889
H	5.57459	-0.805143	2.59976
H	7.05319	0.0641433	2.05622
N	3.47009	-1.41703	0.80995
C	2.04269	-1.58428	0.666018
H	3.97004	-2.09607	1.33725
H	1.69818	-2.49826	1.19817
H	1.76468	-1.67874	-0.408723
H	1.49974	-0.70741	1.08727
