44
  This energy is -2.9182 and Call times are: 226194
C	-1.76194	-1.82471	2.383
C	-0.503892	-1.44011	1.70436
O	0.584707	-1.76787	2.15596
H	-1.52166	-2.39836	3.30445
H	-2.37855	-2.46111	1.71403
H	-2.33777	-0.917826	2.6642
N	-0.62854	-0.721592	0.586073
C	0.505189	-0.23716	-0.161284
C	0.0933911	1.03864	-0.871425
O	-1.08199	1.39909	-0.887699
H	-1.52002	-0.42769	0.253271
H	1.30262	0.0187616	0.525179
C	0.986077	-1.29316	-1.18053
H	0.171579	-1.54829	-1.89154
H	1.86733	-0.937398	-1.75268
H	1.27465	-2.22071	-0.639484
N	1.06039	1.76014	-1.47175
C	0.763826	2.99088	-2.16709
H	2.00634	1.45438	-1.44426
H	1.6905	3.43538	-2.59243
H	0.305343	3.73295	-1.47398
H	0.0475471	2.80861	-3.00068
C	5.13288	-1.61068	3.0764
C	5.02053	-0.386832	2.25134
O	4.77257	0.698201	2.75892
H	4.94289	-1.35442	4.14133
H	6.15267	-2.04047	2.9866
H	4.38473	-2.36304	2.74883
N	5.20157	-0.538279	0.93731
C	5.08111	0.551968	0.00167778
C	4.64216	-0.0175046	-1.33421
O	4.61016	-1.23232	-1.52104
H	5.36221	-1.43472	0.534265
H	4.30239	1.22577	0.336639
C	6.42206	1.3041	-0.144637
H	7.21888	0.615618	-0.498358
H	6.33865	2.1545	-0.852008
H	6.72783	1.70531	0.846258
N	4.28333	0.853623	-2.29774
C	3.8466	0.403827	-3.59894
H	4.31192	1.83285	-2.12635
H	3.59545	1.26966	-4.25047
H	2.94236	-0.240739	-3.50863
H	4.64582	-0.190586	-4.09801
