44
  This energy is 0.1236 and Call times are: 233552
C	-2.31191	0.761922	2.48741
C	-1.94419	0.55862	1.06805
O	-2.7995	0.489603	0.196207
H	-3.41889	0.81259	2.57641
H	-1.87732	1.71207	2.86303
H	-1.94016	-0.0835427	3.10392
N	-0.64009	0.454323	0.801944
C	-0.130803	0.211871	-0.524858
C	1.18719	-0.528571	-0.397591
O	1.72411	-0.674766	0.698794
H	0.0418688	0.471551	1.52755
H	-0.815176	-0.436908	-1.05716
C	0.0650747	1.53819	-1.29151
H	0.775231	2.19984	-0.751193
H	0.443794	1.36401	-2.31949
H	-0.910372	2.06673	-1.36567
N	1.73772	-1.02331	-1.52372
C	2.98752	-1.7469	-1.49939
H	1.28624	-0.898445	-2.40102
H	3.27352	-2.07235	-2.52385
H	2.90508	-2.65164	-0.854468
H	3.80432	-1.10703	-1.09373
C	4.54655	-3.39484	-0.537692
C	3.75367	-2.15791	-0.717948
O	2.83812	-2.10525	-1.52752
H	4.17696	-4.17358	-1.2397
H	4.44076	-3.76907	0.502262
H	5.61804	-3.19718	-0.751999
N	4.09592	-1.11714	0.0449813
C	3.44535	0.166131	-0.0472942
C	4.44445	1.2332	0.358594
O	5.53092	0.92614	0.84542
H	4.86985	-1.16266	0.670138
H	3.17255	0.355038	-1.07808
C	2.19771	0.218781	0.861481
H	2.47853	0.0354853	1.92053
H	1.68005	1.19718	0.788746
H	1.4841	-0.575578	0.551494
N	4.10032	2.52061	0.158183
C	4.9891	3.60393	0.508428
H	3.21844	2.74913	-0.240737
H	4.52621	4.58609	0.266934
H	5.94862	3.52151	-0.0517524
H	5.22245	3.5844	1.59761
