44
  This energy is -2.428 and Call times are: 231576
C	0.68409	-1.65877	2.98214
C	0.5779	-1.62178	1.50617
O	1.01351	-2.53386	0.817147
H	1.20839	-2.58966	3.28944
H	-0.327797	-1.6487	3.43901
H	1.26256	-0.78362	3.34625
N	-0.0121472	-0.545756	0.98043
C	-0.150428	-0.347146	-0.440835
C	-0.174961	1.14574	-0.709614
O	-0.249183	1.95122	0.216346
H	-0.324978	0.207398	1.55206
H	0.718972	-0.751292	-0.944265
C	-1.44006	-1.01352	-0.968109
H	-2.33307	-0.591769	-0.45949
H	-1.55089	-0.879483	-2.06368
H	-1.40386	-2.10394	-0.753544
N	-0.104139	1.55129	-1.99279
C	-0.115369	2.95213	-2.34451
H	-0.040432	0.884657	-2.72805
H	-0.0489433	3.08126	-3.4473
H	0.74646	3.48137	-1.87714
H	-1.05273	3.43886	-1.99013
C	3.25094	1.31975	0.370165
C	4.71689	1.47436	0.235121
O	5.22197	2.57024	0.0342486
H	2.76379	2.31084	0.242567
H	2.99907	0.922305	1.37582
H	2.86591	0.627251	-0.407827
N	5.44357	0.359527	0.342176
C	6.87723	0.344348	0.190706
C	7.28342	-1.02153	-0.329827
O	6.46777	-1.93935	-0.393427
H	5.01494	-0.531018	0.464875
H	7.16521	1.0731	-0.556702
C	7.57719	0.641644	1.53492
H	7.29029	-0.111832	2.29912
H	8.68136	0.646464	1.42851
H	7.25919	1.6423	1.90085
N	8.56139	-1.1855	-0.72469
C	9.0375	-2.44843	-1.239
H	9.20563	-0.429872	-0.669506
H	10.1144	-2.38203	-1.50959
H	8.46518	-2.74309	-2.14834
H	8.91584	-3.25349	-0.478593
