44
  This energy is -2.3804 and Call times are: 228483
C	0.810369	-1.27718	-3.13445
C	0.395639	-1.45041	-1.72409
O	-0.00419509	-2.52974	-1.30987
H	0.673524	-2.23719	-3.67809
H	1.88018	-0.984564	-3.18559
H	0.19	-0.49619	-3.6226
N	0.481363	-0.370774	-0.943428
C	0.0737077	-0.372717	0.439458
C	-0.370476	1.03144	0.803592
O	-0.190846	1.96949	0.0293097
H	0.769954	0.511116	-1.30516
H	-0.783795	-1.02327	0.558188
C	1.23069	-0.82918	1.35504
H	2.10693	-0.155882	1.24142
H	0.92507	-0.84819	2.42123
H	1.54475	-1.85575	1.06543
N	-0.972693	1.20721	1.99626
C	-1.434	2.50675	2.4259
H	-1.11286	0.435255	2.60741
H	-1.90147	2.44484	3.4333
H	-2.18917	2.91081	1.71334
H	-0.586309	3.22788	2.47621
C	7.95129	-2.5871	1.641
C	7.63827	-1.15249	1.45379
O	7.97535	-0.317724	2.28202
H	8.48542	-2.72354	2.60638
H	8.60151	-2.9477	0.816425
H	7.01491	-3.18365	1.66096
N	6.9727	-0.830441	0.342176
C	6.55974	0.517908	0.0422143
C	5.30906	0.450159	-0.813814
O	4.91518	-0.621655	-1.26964
H	6.66936	-1.52629	-0.302527
H	6.29385	1.02313	0.962362
C	7.67876	1.28676	-0.693926
H	7.94457	0.774574	-1.64317
H	7.37808	2.3307	-0.918189
H	8.58648	1.31697	-0.0524738
N	4.6472	1.60083	-1.04602
C	3.4442	1.63293	-1.84473
H	4.97913	2.4575	-0.665227
H	3.04899	2.67001	-1.91895
H	2.65541	0.988808	-1.39285
H	3.64626	1.25993	-2.87487
