44
  This energy is 0.1021 and Call times are: 226970
C	-3.26157	0.919896	-0.792871
C	-2.22997	0.479557	0.173068
O	-2.44552	0.488076	1.37718
H	-4.16947	1.24318	-0.238723
H	-3.53307	0.0834744	-1.47069
H	-2.88381	1.77424	-1.39328
N	-1.06533	0.0803548	-0.343301
C	0.0487916	-0.335266	0.4719
C	1.32782	-0.0361636	-0.287156
O	1.29332	0.322415	-1.46272
H	-0.890587	0.117844	-1.32306
H	0.0669447	0.254812	1.3797
C	-0.0432255	-1.8403	0.806015
H	-0.051248	-2.44671	-0.124709
H	0.801725	-2.16957	1.44489
H	-0.990377	-2.03732	1.35414
N	2.49379	-0.169704	0.375204
C	3.7611	0.098368	-0.263731
H	2.50119	-0.456956	1.32731
H	4.60191	-0.067911	0.445228
H	3.80619	1.15314	-0.619669
H	3.90676	-0.569396	-1.14351
C	1.87176	1.86206	-0.266274
C	2.59315	0.601747	0.020696
O	2.02477	-0.34876	0.540206
H	0.818354	1.7685	0.0764075
H	1.87787	2.06655	-1.35755
H	2.35058	2.70786	0.270778
N	3.88475	0.567485	-0.315454
C	4.72824	-0.57339	-0.0595734
C	6.15165	-0.0791103	0.116999
O	6.44735	1.08925	-0.126318
H	4.34344	1.36343	-0.700075
H	4.42963	-1.03651	0.872613
C	4.64803	-1.59	-1.21945
H	4.96435	-1.1183	-2.17416
H	5.28253	-2.47953	-1.02792
H	3.59643	-1.93204	-1.3356
N	7.07025	-0.962077	0.555802
C	8.44853	-0.58091	0.758831
H	6.811	-1.90211	0.751237
H	9.04629	-1.44571	1.1222
H	8.52301	0.237444	1.51118
H	8.90004	-0.217349	-0.192543
