44
  This energy is -5.5973 and Call times are: 226913
C	1.60413	2.26406	-2.10083
C	1.37035	1.66252	-0.768679
O	2.11157	1.90431	0.173942
H	2.5155	2.8995	-2.06207
H	0.738423	2.89478	-2.3932
H	1.75365	1.46721	-2.85963
N	0.316925	0.849405	-0.661294
C	-0.0137298	0.156833	0.559186
C	-0.73132	-1.12892	0.193877
O	-1.08363	-1.34647	-0.963822
H	-0.253266	0.630152	-1.44785
H	0.899257	-0.117974	1.07257
C	-0.902934	1.03389	1.46766
H	-1.84441	1.30734	0.945288
H	-1.15298	0.517004	2.41679
H	-0.361037	1.97258	1.71574
N	-0.958037	-2.02006	1.17902
C	-1.62918	-3.27349	0.924734
H	-0.66185	-1.82799	2.10877
H	-1.72011	-3.86782	1.86054
H	-1.06324	-3.87791	0.179301
H	-2.65221	-3.09667	0.520643
C	6.42261	-2.24132	-2.56263
C	5.54286	-1.24328	-1.9137
O	4.57355	-0.779012	-2.49792
H	6.05667	-2.43819	-3.59374
H	6.4107	-3.19212	-1.9894
H	7.46266	-1.85621	-2.61783
N	5.8691	-0.884233	-0.669904
C	5.13404	0.107576	0.0747774
C	6.08871	0.770626	1.04973
O	7.22263	0.327202	1.22095
H	6.68457	-1.24038	-0.222652
H	4.78129	0.874584	-0.603374
C	3.94938	-0.534871	0.829145
H	4.31165	-1.31451	1.53268
H	3.36723	0.220818	1.39532
H	3.26818	-1.02081	0.0969033
N	5.65127	1.86136	1.70925
C	6.49134	2.56177	2.65259
H	4.73194	2.20761	1.5543
H	5.95217	3.43109	3.0894
H	7.41439	2.9365	2.15376
H	6.79802	1.8857	3.48326
