44
  This energy is -5.353 and Call times are: 233761
C	0.795346	0.372543	3.36769
C	-0.155603	0.0444795	2.28177
O	-1.23491	-0.478706	2.52215
H	0.364605	0.0539978	4.34179
H	0.979939	1.46699	3.39707
H	1.75661	-0.1601	3.20846
N	0.232629	0.34829	1.04107
C	-0.565733	0.050555	-0.121919
C	0.369961	-0.151435	-1.29888
O	1.56824	0.106434	-1.20227
H	1.13126	0.736439	0.857571
H	-1.09215	-0.882576	0.0355031
C	-1.56355	1.19279	-0.413272
H	-1.02344	2.14816	-0.585263
H	-2.1937	0.969203	-1.2984
H	-2.23285	1.32817	0.464263
N	-0.158367	-0.629005	-2.44292
C	0.655938	-0.858461	-3.61357
H	-1.12948	-0.835633	-2.5005
H	0.0387457	-1.25246	-4.45087
H	1.46066	-1.59694	-3.39368
H	1.1383	0.088248	-3.94856
C	6.90161	2.94833	0.724301
C	5.71468	2.21734	0.226316
O	4.65988	2.79706	0.00784963
H	6.64247	4.02095	0.859192
H	7.7342	2.86884	-0.00591927
H	7.22582	2.53137	1.70109
N	5.86334	0.904419	0.0351838
C	4.78669	0.0525094	-0.404831
C	5.03299	-1.34128	0.141289
O	6.09602	-1.62362	0.690796
H	6.71601	0.439816	0.256439
H	3.85534	0.405535	0.0201225
C	4.7016	0.0227408	-1.94662
H	5.65315	-0.349344	-2.38268
H	3.86762	-0.618964	-2.29764
H	4.52906	1.05409	-2.32463
N	4.04511	-2.24827	0.00901316
C	4.18711	-3.59807	0.503012
H	3.19054	-1.99986	-0.434919
H	3.26772	-4.19012	0.299416
H	4.36696	-3.59705	1.60253
H	5.04814	-4.10748	0.0128324
