44
  This energy is -3.7634 and Call times are: 228226
C	2.6424	0.431682	2.22352
C	1.99266	0.655335	0.912431
O	2.43507	1.47372	0.118124
H	3.51515	1.11323	2.32194
H	2.99559	-0.618042	2.3015
H	1.927	0.642844	3.04613
N	0.907937	-0.0790611	0.654706
C	0.14345	0.0568476	-0.560057
C	-1.29366	-0.325365	-0.259749
O	-1.59881	-0.83017	0.819034
H	0.536081	-0.711728	1.328
H	0.143519	1.09505	-0.867913
C	0.719874	-0.839524	-1.67786
H	0.710269	-1.90587	-1.36665
H	0.148191	-0.733345	-2.62255
H	1.77439	-0.547418	-1.87538
N	-2.21682	-0.08381	-1.2113
C	-3.61002	-0.409	-1.01273
H	-1.95129	0.329089	-2.07622
H	-4.20948	-0.13449	-1.90856
H	-4.02032	0.140457	-0.134646
H	-3.73633	-1.50018	-0.826973
C	4.30738	-2.84445	-1.44307
C	4.79144	-2.08186	-0.270341
O	4.57169	-2.46694	0.869762
H	3.74431	-3.73709	-1.09378
H	5.16578	-3.1805	-2.06191
H	3.63309	-2.21248	-2.05871
N	5.47105	-0.962381	-0.529754
C	5.96796	-0.092526	0.507059
C	6.02476	1.31881	-0.0465402
O	5.8368	1.53429	-1.24234
H	5.60655	-0.640422	-1.4624
H	5.26885	-0.086754	1.334
C	7.36608	-0.54415	0.98302
H	8.08621	-0.54013	0.137182
H	7.75367	0.109569	1.79107
H	7.30221	-1.5821	1.37661
N	6.27893	2.32013	0.818777
C	6.34664	3.69586	0.384107
H	6.42425	2.1264	1.78336
H	6.56508	4.3691	1.24217
H	5.38046	4.01167	-0.0720144
H	7.14797	3.82816	-0.378464
