44
  This energy is -0.5687 and Call times are: 227511
C	1.79534	2.40228	1.76592
C	0.550453	1.65353	1.48173
O	-0.415821	1.72527	2.22844
H	1.67555	2.96694	2.71602
H	2.00602	3.12001	0.945425
H	2.64898	1.69983	1.87056
N	0.547936	0.903778	0.37708
C	-0.574553	0.0853691	-0.00864389
C	-0.0485031	-1.09429	-0.804403
O	1.12772	-1.14015	-1.15951
H	1.35641	0.823462	-0.198923
H	-1.04966	-0.31112	0.880007
C	-1.58625	0.896492	-0.84757
H	-1.10203	1.29463	-1.76466
H	-2.46192	0.281068	-1.13905
H	-1.95184	1.75892	-0.248473
N	-0.912445	-2.08624	-1.0971
C	-0.500663	-3.25098	-1.84543
H	-1.8593	-2.03308	-0.797566
H	-1.35344	-3.95174	-1.98301
H	0.314973	-3.7918	-1.31296
H	-0.12145	-2.95813	-2.8512
C	5.2359	0.105491	2.76265
C	6.54054	0.355946	2.10968
O	7.40097	1.03406	2.65395
H	5.20873	0.630336	3.74227
H	5.09629	-0.982595	2.9339
H	4.40998	0.48838	2.12679
N	6.71706	-0.194081	0.906066
C	7.91642	-0.00397336	0.128929
C	7.55065	-0.111927	-1.33945
O	6.43179	-0.487822	-1.68377
H	5.99199	-0.709433	0.458254
H	8.29438	0.997216	0.294441
C	8.98605	-1.05472	0.499173
H	8.60255	-2.08172	0.319593
H	9.91943	-0.910353	-0.0826204
H	9.23246	-0.962628	1.57951
N	8.4903	0.22596	-2.24437
C	8.2311	0.160086	-3.66376
H	9.3885	0.531743	-1.94636
H	9.12649	0.477773	-4.2422
H	7.38149	0.826095	-3.93921
H	7.96776	-0.878943	-3.96742
