44
  This energy is -0.5319 and Call times are: 228283
C	1.49918	-1.981	2.43737
C	1.48049	-1.35694	1.09523
O	2.47503	-1.35756	0.382969
H	2.51374	-2.38834	2.63892
H	0.762993	-2.81082	2.48387
H	1.25431	-1.22594	3.21392
N	0.32832	-0.799123	0.716134
C	0.168495	-0.116454	-0.543619
C	-0.90329	0.943823	-0.374368
O	-1.58324	0.994294	0.648785
H	-0.460465	-0.770636	1.32348
H	1.09051	0.39382	-0.7929
C	-0.221751	-1.10712	-1.66234
H	-1.17309	-1.62318	-1.41199
H	-0.334238	-0.595705	-2.64025
H	0.572793	-1.87841	-1.76315
N	-1.0736	1.82658	-1.37824
C	-2.0656	2.87376	-1.30381
H	-0.511001	1.77219	-2.19653
H	-2.0509	3.49564	-2.22592
H	-1.8713	3.53749	-0.43033
H	-3.0858	2.44126	-1.18857
C	6.14551	1.70267	3.03191
C	6.06827	1.67734	1.55389
O	5.8259	2.69211	0.915211
H	5.93735	2.73329	3.39296
H	7.1605	1.40253	3.36728
H	5.39328	1.01093	3.46632
N	6.27417	0.494987	0.969048
C	6.18915	0.304045	-0.45744
C	5.76955	-1.13031	-0.718468
O	5.72352	-1.94958	0.197164
H	6.42988	-0.330141	1.50456
H	5.41369	0.944972	-0.858048
C	7.54377	0.603945	-1.1359
H	8.3375	-0.0605397	-0.732787
H	7.48754	0.47391	-2.2361
H	7.83488	1.65614	-0.924985
N	5.44358	-1.46632	-1.98213
C	5.02725	-2.80633	-2.32451
H	5.48305	-0.788478	-2.7088
H	4.80239	-2.88271	-3.41118
H	4.11193	-3.09047	-1.75641
H	5.82776	-3.54134	-2.07939
