44
  This energy is 0.1167 and Call times are: 228528
C	3.16191	1.3227	-0.604547
C	1.97248	0.54644	-1.02147
O	1.81563	0.204969	-2.1856
H	3.8008	1.52102	-1.49245
H	3.75121	0.74895	0.141291
H	2.85025	2.29243	-0.162282
N	1.09259	0.248103	-0.0627386
C	-0.133556	-0.464436	-0.322391
C	-1.15902	-0.0325944	0.708862
O	-0.833122	0.665439	1.66712
H	1.21382	0.568247	0.872504
H	-0.513942	-0.178226	-1.29503
C	0.0909374	-1.99103	-0.256458
H	0.471182	-2.2865	0.744615
H	-0.842896	-2.55102	-0.468336
H	0.850618	-2.28332	-1.01396
N	-2.43296	-0.433998	0.530009
C	-3.47826	-0.0671725	1.45682
H	-2.67807	-0.995022	-0.253729
H	-4.45475	-0.493003	1.13689
H	-3.58107	1.0407	1.51449
H	-3.2482	-0.446203	2.47885
C	2.90903	0.0254866	0.783213
C	4.10184	0.618013	0.137242
O	3.99861	1.5475	-0.651306
H	1.99686	0.544455	0.416511
H	2.97177	0.144648	1.88531
H	2.83409	-1.05355	0.531953
N	5.28053	0.0815977	0.461794
C	6.5251	0.522579	-0.117116
C	7.48716	-0.650451	-0.120292
O	7.20979	-1.69403	0.467685
H	5.34483	-0.701402	1.07387
H	6.35856	0.805964	-1.1489
C	7.11618	1.70549	0.680756
H	7.29705	1.41208	1.73681
H	8.06772	2.06316	0.236742
H	6.39213	2.54933	0.676462
N	8.64499	-0.5077	-0.794876
C	9.61926	-1.57212	-0.857925
H	8.8498	0.34283	-1.26787
H	10.5024	-1.2618	-1.45871
H	9.17804	-2.48116	-1.32723
H	9.96873	-1.84612	0.163805
