44
  This energy is -2.871 and Call times are: 228953
C	-1.31631	1.8992	2.60251
C	-0.753408	1.76867	1.2397
O	-0.791447	2.6998	0.44727
H	-1.75122	2.915	2.72452
H	-0.518549	1.7563	3.36139
H	-2.11568	1.14473	2.76026
N	-0.211348	0.588023	0.932095
C	0.337635	0.295958	-0.368627
C	0.201589	-1.1947	-0.615582
O	-0.155768	-1.95216	0.284563
H	-0.224552	-0.17345	1.57385
H	-0.247717	0.803055	-1.12549
C	1.81879	0.725577	-0.451449
H	2.42165	0.19772	0.31794
H	2.24904	0.518586	-1.45273
H	1.89527	1.81816	-0.259699
N	0.477477	-1.65122	-1.85312
C	0.370486	-3.05337	-2.18285
H	0.761211	-1.02234	-2.56941
H	0.638336	-3.22839	-3.24814
H	-0.669677	-3.41721	-2.01867
H	1.05322	-3.6603	-1.54516
C	4.7163	-3.35143	0.0942286
C	5.55699	-2.24676	-0.419673
O	6.5514	-2.47005	-1.0962
H	5.154	-4.32342	-0.221197
H	3.68713	-3.27118	-0.314573
H	4.67685	-3.31815	1.20347
N	5.16997	-1.00917	-0.1019
C	5.90977	0.164923	-0.492741
C	5.66326	1.24579	0.542885
O	4.81225	1.09737	1.41779
H	4.3814	-0.845027	0.483828
H	6.96908	-0.0593484	-0.479047
C	5.47671	0.648772	-1.89402
H	4.39219	0.889031	-1.90581
H	6.04896	1.54422	-2.21218
H	5.65865	-0.160733	-2.63425
N	6.41386	2.36273	0.471785
C	6.25374	3.44253	1.4176
H	7.10029	2.46275	-0.240876
H	6.96133	4.2707	1.19246
H	6.44848	3.08762	2.45558
H	5.21651	3.84735	1.38007
