44
  This energy is -5.1187 and Call times are: 230242
C	0.997168	2.2941	2.4198
C	0.490015	0.963337	2.01607
O	0.428808	0.0398867	2.81601
H	1.29563	2.26414	3.49027
H	0.205331	3.0613	2.28883
H	1.88208	2.56827	1.80755
N	0.111025	0.834046	0.742483
C	-0.363268	-0.410927	0.19144
C	-0.0318679	-0.429688	-1.28889
O	0.396492	0.576328	-1.85117
H	0.205174	1.58327	0.0931263
H	0.171421	-1.23221	0.652125
C	-1.88459	-0.565968	0.407749
H	-2.4343	0.270723	-0.0737027
H	-2.25956	-1.52706	5.2727e-05
H	-2.10473	-0.541464	1.49738
N	-0.215985	-1.58587	-1.95626
C	0.0773922	-1.69995	-3.3659
H	-0.55956	-2.39034	-1.48313
H	-0.139025	-2.72822	-3.73067
H	1.15103	-1.47691	-3.56296
H	-0.538102	-0.981997	-3.95484
C	3.13775	-1.90476	2.7313
C	3.83294	-0.738471	2.14169
O	4.22647	0.184278	2.84175
H	3.046	-1.76086	3.82982
H	3.7155	-2.83286	2.53743
H	2.12117	-2.00464	2.29581
N	3.99964	-0.754229	0.817169
C	4.61924	0.328984	0.0951626
C	4.04306	0.352778	-1.30806
O	3.32111	-0.558576	-1.70795
H	3.63751	-1.49308	0.256075
H	4.35836	1.26812	0.566949
C	6.15303	0.154376	0.0478272
H	6.42147	-0.804046	-0.445541
H	6.64296	0.989461	-0.493581
H	6.55201	0.131694	1.08544
N	4.34445	1.40817	-2.08993
C	3.8373	1.51968	-3.43771
H	4.92693	2.13779	-1.74721
H	4.19639	2.45714	-3.91672
H	2.72322	1.53017	-3.43856
H	4.17488	0.657532	-4.0573
