44
  This energy is 0.1067 and Call times are: 230490
C	-3.00343	-1.35614	-1.11936
C	-2.17927	-0.215091	-0.661198
O	-2.58057	0.936142	-0.76138
H	-3.95592	-0.973304	-1.54607
H	-3.23603	-2.02726	-0.265995
H	-2.46305	-1.92834	-1.90274
N	-0.986786	-0.515279	-0.141351
C	-0.0555291	0.489405	0.308015
C	1.34831	-0.0655737	0.157021
O	1.53095	-1.24726	-0.129275
H	-0.657047	-1.45429	-0.104086
H	-0.129775	1.3581	-0.334235
C	-0.329215	0.877444	1.77763
H	-0.242802	-0.0113952	2.43833
H	0.372577	1.66042	2.13113
H	-1.36446	1.27345	1.86595
N	2.37913	0.783089	0.33925
C	3.74979	0.346106	0.210744
H	2.21127	1.73667	0.566379
H	4.45057	1.18949	0.397386
H	3.94173	-0.0490098	-0.81313
H	3.97401	-0.464566	0.941275
C	4.94321	1.90463	-2.78407
C	5.91312	1.11081	-1.9965
O	6.98593	0.767726	-2.47377
H	5.35457	2.08284	-3.80135
H	4.76191	2.88383	-2.2931
H	3.98325	1.35408	-2.876
N	5.54919	0.794721	-0.751496
C	6.36808	-0.00934231	0.121111
C	5.45383	-0.745289	1.08241
O	4.25486	-0.479064	1.13983
H	4.6555	1.04627	-0.391073
H	6.88822	-0.756494	-0.465274
C	7.37514	0.868297	0.896241
H	6.84165	1.62818	1.50617
H	8.02092	0.259125	1.56137
H	8.0284	1.4034	0.172878
N	6.00177	-1.70081	1.85879
C	5.20867	-2.45735	2.79944
H	6.97306	-1.90476	1.79508
H	5.84002	-3.19464	3.34261
H	4.39742	-3.01089	2.27336
H	4.73595	-1.78127	3.54816
