44
  This energy is -0.2975 and Call times are: 228025
C	0.129865	3.47726	-0.0671434
C	-0.29632	2.20072	0.54927
O	-0.777834	2.17029	1.67338
H	-0.0479613	4.30849	0.649315
H	-0.453479	3.66912	-0.992153
H	1.21197	3.44067	-0.313709
N	-0.123134	1.0998	-0.185814
C	-0.449703	-0.219568	0.295011
C	0.462763	-1.2145	-0.397133
O	1.18587	-0.86421	-1.32779
H	0.307892	1.13579	-1.08291
H	-0.241252	-0.274781	1.3562
C	-1.93054	-0.557684	0.0156674
H	-2.14238	-0.511487	-1.07384
H	-2.19797	-1.56572	0.39365
H	-2.57958	0.187693	0.525085
N	0.455851	-2.4856	0.0504009
C	1.29489	-3.5005	-0.543055
H	-0.133082	-2.74902	0.807263
H	1.14612	-4.47945	-0.036359
H	2.36996	-3.22108	-0.456902
H	1.05614	-3.62513	-1.62408
C	4.73919	2.06848	2.56909
C	5.7959	1.57636	1.65676
O	6.86669	2.1591	1.55563
H	5.0906	2.9956	3.07191
H	4.51417	1.30371	3.34191
H	3.8158	2.29805	1.99662
N	5.51156	0.474186	0.959084
C	6.42233	-0.0995412	-2.1237e-05
C	5.6052	-0.818596	-1.05682
O	4.39475	-0.98073	-0.91465
H	4.62019	0.0344204	1.0217
H	6.96488	0.694959	-0.497048
C	7.40155	-1.07748	0.68555
H	6.8459	-1.89856	1.18669
H	8.11704	-1.5154	-0.0402793
H	7.98311	-0.531639	1.46026
N	6.25186	-1.26164	-2.15298
C	5.55594	-1.95202	-3.21376
H	7.23088	-1.11739	-2.25192
H	6.26021	-2.2357	-4.02664
H	4.76115	-1.30384	-3.649
H	5.0729	-2.87913	-2.82867
