44
  This energy is 0.1075 and Call times are: 231054
C	-2.69368	-0.15163	-2.19859
C	-2.11661	0.10925	-0.860651
O	-2.77253	0.654357	0.0162913
H	-3.7358	0.234151	-2.23068
H	-2.70797	-1.24284	-2.40306
H	-2.0958	0.3629	-2.98018
N	-0.853191	-0.279385	-0.673237
C	-0.142012	-0.0549123	0.560617
C	1.33621	0.0618092	0.240011
O	1.75893	-0.196817	-0.885217
H	-0.318997	-0.68478	-1.40955
H	-0.455271	0.890065	0.986665
C	-0.39037	-1.20756	1.5581
H	-0.0594425	-2.17579	1.1256
H	0.140822	-1.03957	2.51733
H	-1.47913	-1.27958	1.77201
N	2.16016	0.465219	1.22712
C	3.58123	0.610557	1.01349
H	1.79887	0.673851	2.1299
H	4.08595	0.951676	1.94414
H	3.78353	1.35684	0.211358
H	4.03349	-0.359558	0.704493
C	2.53039	1.09325	-2.88001
C	2.52229	0.665944	-1.46279
O	1.52644	0.803599	-0.765834
H	1.5435	1.53661	-3.13559
H	2.71469	0.220913	-3.54168
H	3.32055	1.85576	-3.04527
N	3.65355	0.130739	-0.997838
C	3.81218	-0.292531	0.371188
C	5.27873	-0.166185	0.738412
O	6.12359	0.0826863	-0.119479
H	4.46878	0.0628714	-1.56586
H	3.25882	0.376495	1.01834
C	3.33067	-1.74804	0.557959
H	3.90527	-2.4362	-0.0980279
H	3.43479	-2.08107	1.61094
H	2.25745	-1.8186	0.275904
N	5.61524	-0.327769	2.03327
C	6.98543	-0.220102	2.47729
H	4.91694	-0.524598	2.71351
H	7.05717	-0.38449	3.57505
H	7.39481	0.790107	2.24672
H	7.62462	-0.976386	1.96679
