44
  This energy is -1.0763 and Call times are: 227222
C	-0.0787688	3.20711	-1.34941
C	0.352155	2.23791	-0.316892
O	1.20717	2.52987	0.507794
H	0.499284	4.1495	-1.23262
H	-1.16	3.43227	-1.23546
H	0.107805	2.79441	-2.36329
N	-0.239731	1.04149	-0.342138
C	0.104826	-0.0196008	0.571053
C	-0.166803	-1.34354	-0.11811
O	-0.756852	-1.38303	-1.19607
H	-0.904432	0.80471	-1.04497
H	1.16595	0.0219955	0.78299
C	-0.712881	0.0889775	1.87673
H	-1.80129	0.0357594	1.66092
H	-0.446671	-0.714484	2.59375
H	-0.5046	1.06857	2.35982
N	0.268276	-2.46527	0.488899
C	0.060131	-3.76995	-0.0947747
H	0.747396	-2.41278	1.35882
H	0.49006	-4.56431	0.554363
H	0.545364	-3.83445	-1.09561
H	-1.02746	-3.97347	-0.224649
C	8.58843	-0.604665	3.24999
C	8.84105	-0.435373	1.80131
O	9.97881	-0.324279	1.36591
H	9.55678	-0.590108	3.79584
H	8.08357	-1.57519	3.43957
H	7.95115	0.223055	3.6266
N	7.76576	-0.409381	1.01045
C	7.8493	-0.208439	-0.414748
C	6.56501	0.45519	-0.874925
O	5.61095	0.579396	-0.109386
H	6.84395	-0.459956	1.38403
H	8.66111	0.474405	-0.632248
C	8.05882	-1.55048	-1.14977
H	7.22091	-2.24761	-0.935375
H	8.1386	-1.40752	-2.24691
H	8.99996	-2.02203	-0.79165
N	6.51454	0.907324	-2.1434
C	5.33609	1.55719	-2.66791
H	7.29814	0.80133	-2.74657
H	5.49098	1.8566	-3.72791
H	5.09558	2.47074	-2.07726
H	4.45699	0.874455	-2.62107
