44
  This energy is -2.807 and Call times are: 228703
C	2.80175	-1.90476	0.796729
C	1.395	-1.50046	1.01749
O	0.663872	-2.13512	1.7652
H	3.01582	-2.82473	1.383
H	3.48847	-1.09841	1.12984
H	2.97476	-2.11616	-0.279593
N	0.978379	-0.417117	0.357807
C	-0.375024	0.0732897	0.437561
C	-0.698283	0.783258	-0.863594
O	0.18015	1.00623	-1.69447
H	1.57338	0.0650381	-0.278881
H	-1.05435	-0.765484	0.52476
C	-0.544078	1.03387	1.63503
H	0.145171	1.89994	1.54069
H	-1.58544	1.40753	1.71544
H	-0.294695	0.495521	2.57542
N	-1.97784	1.14945	-1.07493
C	-2.38048	1.82511	-2.28636
H	-2.67527	0.956692	-0.392652
H	-3.47141	2.04164	-2.27188
H	-2.15988	1.19588	-3.17893
H	-1.83301	2.78876	-2.39948
C	4.60738	2.26923	2.24142
C	5.09144	1.90039	0.892049
O	4.87169	2.61466	-0.0764232
H	4.04431	3.22586	2.18083
H	5.46578	2.40066	2.93324
H	3.93309	1.47968	2.63513
N	5.77105	0.75511	0.797888
C	6.26796	0.24268	-0.454727
C	6.32476	-1.27024	-0.357662
O	6.1368	-1.83996	0.715554
H	5.90655	0.16419	1.58802
H	5.56885	0.489244	-1.24408
C	7.66608	0.81789	-0.770378
H	8.38621	0.556242	0.0339838
H	8.05367	0.441582	-1.73924
H	7.60221	1.92642	-0.828864
N	6.57893	-1.96015	-1.48701
C	6.64664	-3.40291	-1.49237
H	6.72425	-1.48163	-2.34665
H	6.86508	-3.78257	-2.5148
H	5.68046	-3.84272	-1.15421
H	7.44797	-3.76134	-0.806408
