44
  This energy is -5.0616 and Call times are: 226528
C	0.0561144	-1.7901	2.98414
C	-0.333201	-1.63532	1.56442
O	-0.795557	-2.57282	0.929022
H	-0.127308	-2.83917	3.30301
H	-0.546133	-1.10995	3.62246
H	1.13458	-1.5588	3.11262
N	-0.14909	-0.427196	1.0269
C	-0.440143	-0.134518	-0.354475
C	0.481476	0.982941	-0.805539
O	1.18182	1.58728	0.0044039
H	0.266387	0.314888	1.54512
H	-0.213287	-1.00366	-0.959255
C	-1.91796	0.277714	-0.531547
H	-2.14848	1.17562	0.0805427
H	-2.15808	0.492284	-1.59307
H	-2.57402	-0.551636	-0.187872
N	0.508415	1.27906	-2.11993
C	1.35866	2.32331	-2.64223
H	-0.0624529	0.776172	-2.76046
H	1.23866	2.41371	-3.74435
H	2.42893	2.10482	-2.42298
H	1.10495	3.30471	-2.18004
C	7.94953	2.24424	-0.236964
C	7.25706	1.10951	0.414222
O	7.81589	0.430925	1.2649
H	8.98424	2.32099	0.162204
H	7.41179	3.1925	-0.0263014
H	7.99881	2.08346	-1.33459
N	6.0035	0.874031	0.0198758
C	5.21674	-0.220704	0.530878
C	4.22564	-0.631925	-0.541586
O	4.08007	0.0450983	-1.55754
H	5.57631	1.40959	-0.70299
H	5.86319	-1.06966	0.715284
C	4.47715	0.187739	1.82371
H	3.80588	1.05199	1.63263
H	3.87874	-0.651039	2.23465
H	5.22137	0.492308	2.59165
N	3.52272	-1.76427	-0.342311
C	2.5609	-2.23718	-1.31053
H	3.65735	-2.30083	0.484162
H	2.0879	-3.1829	-0.965393
H	3.05294	-2.42909	-2.29152
H	1.75831	-1.48095	-1.46895
