44
  This energy is -0.3177 and Call times are: 228312
C	-1.37044	-1.28282	-2.93069
C	-0.848236	-0.160997	-2.11831
O	-0.620692	0.931375	-2.61967
H	-1.479	-0.952304	-3.98656
H	-2.36357	-1.60127	-2.54989
H	-0.667712	-2.14182	-2.89349
N	-0.641534	-0.411865	-0.823432
C	-0.096354	0.566653	0.0842243
C	0.645001	-0.16973	1.18408
O	0.566729	-1.39244	1.2869
H	-0.792772	-1.31786	-0.438502
H	0.628281	1.17637	-0.440925
C	-1.21473	1.44849	0.681588
H	-1.95274	0.824574	1.22941
H	-0.806227	2.21501	1.37159
H	-1.74881	1.9715	-0.141553
N	1.39372	0.562539	2.03216
C	2.13874	-0.0519941	3.10616
H	1.44788	1.55036	1.93043
H	2.69064	0.716019	3.69163
H	2.87675	-0.783328	2.70397
H	1.45527	-0.596017	3.79757
C	5.59828	-3.42675	-0.456906
C	5.23862	-2.14811	0.196461
O	4.23545	-2.0518	0.889857
H	4.82674	-4.19078	-0.218512
H	6.58267	-3.78226	-0.0863086
H	5.64423	-3.29397	-1.55842
N	6.06355	-1.12024	-0.0164739
C	5.82317	0.197431	0.51694
C	6.45678	1.20942	-0.419013
O	7.18618	0.845539	-1.33949
H	6.85403	-1.20333	-0.61655
H	4.7576	0.389976	0.52662
C	6.41089	0.332705	1.93875
H	7.50584	0.145621	1.92764
H	6.22018	1.33855	2.36587
H	5.93875	-0.422485	2.60441
N	6.1839	2.51221	-0.208618
C	6.73736	3.54617	-1.0517
H	5.58813	2.78685	0.538855
H	6.39567	4.55067	-0.717829
H	6.42005	3.40187	-2.10989
H	7.85077	3.52566	-1.0193
