44
  This energy is -4.8214 and Call times are: 226224
C	1.29395	-3.19722	-0.464936
C	0.276695	-2.26935	0.0785621
O	-0.770851	-2.68608	0.55332
H	0.924726	-4.24178	-0.373035
H	2.2429	-3.10019	0.103233
H	1.48074	-2.9751	-1.53679
N	0.567677	-0.967821	0.0174726
C	-0.340911	0.0574002	0.466861
C	-0.073321	1.31359	-0.34056
O	0.900224	1.38639	-1.08797
H	1.40651	-0.641803	-0.409074
H	-1.35798	-0.249938	0.257711
C	-0.158089	0.334053	1.97526
H	0.882331	0.659544	2.18885
H	-0.861693	1.11191	2.33638
H	-0.351018	-0.600602	2.54583
N	-0.942704	2.33542	-0.21377
C	-0.772337	3.56821	-0.946832
H	-1.7268	2.25618	0.39285
H	-1.58924	4.28418	-0.707483
H	-0.784013	3.37734	-2.04442
H	0.20025	4.04702	-0.690014
C	5.49252	-2.4362	-2.46823
C	4.68383	-1.54949	-1.60167
O	3.4845	-1.40112	-1.79144
H	4.84118	-2.87374	-3.25573
H	5.93333	-3.25967	-1.86795
H	6.30574	-1.8576	-2.95502
N	5.33517	-0.928502	-0.615508
C	4.69244	-0.00173954	0.28258
C	5.73149	0.998389	0.75342
O	6.92321	0.835656	0.498413
H	6.31928	-1.0275	-0.498951
H	3.93393	0.551189	-0.257387
C	4.0691	-0.742115	1.48613
H	4.84858	-1.30101	2.04657
H	3.55916	-0.0407879	2.17795
H	3.31772	-1.47419	1.11758
N	5.2992	2.0683	1.44942
C	6.21452	3.07531	1.93347
H	4.33055	2.18477	1.64236
H	5.66707	3.87358	2.48145
H	6.76471	3.5457	1.08652
H	6.96376	2.62582	2.62466
