44
  This energy is -4.7054 and Call times are: 225960
C	-0.552019	-3.04121	1.59969
C	-0.581252	-2.17618	0.398853
O	-0.788721	-2.643	-0.712652
H	-0.722581	-4.09696	1.29607
H	-1.35023	-2.73793	2.30935
H	0.435972	-2.96663	2.10109
N	-0.367925	-0.873765	0.600338
C	-0.323548	0.0857456	-0.474804
C	0.586372	1.22476	-0.0549785
O	1.00672	1.30289	1.09781
H	-0.159849	-0.51469	1.50568
H	0.119969	-0.376375	-1.34794
C	-1.7375	0.61439	-0.801165
H	-2.18878	1.09794	0.0913412
H	-1.7184	1.34373	-1.63677
H	-2.38814	-0.23699	-1.09811
N	0.92007	2.13574	-0.990276
C	1.78526	3.2511	-0.684332
H	0.573315	2.05335	-1.91874
H	1.94068	3.88656	-1.58392
H	2.77963	2.89199	-0.332866
H	1.3426	3.88301	0.119341
C	5.22588	2.78692	-2.01724
C	4.64372	1.44871	-1.7694
O	3.80705	0.972698	-2.52425
H	4.76824	3.2229	-2.93176
H	6.3228	2.70507	-2.16831
H	5.02049	3.45881	-1.15733
N	5.08009	0.803218	-0.68528
C	4.57569	-0.488087	-0.289468
C	4.69922	-0.60226	1.21827
O	5.31304	0.243747	1.86573
H	5.73122	1.22095	-0.0580729
H	3.52223	-0.549885	-0.532404
C	5.35923	-1.62313	-0.984448
H	6.4384	-1.56647	-0.727114
H	4.97123	-2.62223	-0.698486
H	5.26142	-1.51506	-2.08676
N	4.107	-1.65474	1.81624
C	4.16671	-1.84329	3.247
H	3.61133	-2.32665	1.27594
H	3.61966	-2.76465	3.54541
H	3.70883	-0.976738	3.77682
H	5.22338	-1.9369	3.58735
