44
  This energy is 0.1166 and Call times are: 227427
C	-3.18237	-0.0120491	-1.40891
C	-2.16519	0.549983	-0.492067
O	-2.33638	1.6289	0.058424
H	-4.03441	0.697246	-1.49142
H	-3.55771	-0.980557	-1.01667
H	-2.74459	-0.166716	-2.41763
N	-1.06386	-0.181665	-0.3073
C	0.0324933	0.253153	0.521854
C	1.30706	-0.371892	-0.0132661
O	1.26628	-1.23361	-0.889333
H	-0.920894	-1.0386	-0.79422
H	0.139959	1.32739	0.437556
C	-0.193819	-0.154593	1.99419
H	-0.293604	-1.25744	2.0826
H	0.637016	0.186685	2.64516
H	-1.13577	0.307509	2.36234
N	2.47707	0.0573836	0.499404
C	3.74118	-0.475792	0.0478304
H	2.48997	0.758378	1.20475
H	4.58623	0.00412527	0.588937
H	3.87621	-0.295565	-1.0433
H	3.79007	-1.57461	0.224885
C	10.071	2.03361	-1.16918
C	9.56875	0.915162	-0.339755
O	10.3383	0.134723	0.203545
H	11.1817	1.99775	-1.20041
H	9.75491	3.00487	-0.733888
H	9.67946	1.94795	-2.20475
N	8.24278	0.810588	-0.22462
C	7.60433	-0.250487	0.513658
C	6.24166	-0.502725	-0.103643
O	5.78809	0.254486	-0.959571
H	7.62845	1.42908	-0.706199
H	8.18172	-1.15994	0.403457
C	7.4622	0.123358	2.0054
H	6.86103	1.0505	2.11961
H	6.98449	-0.691369	2.58723
H	8.47068	0.311234	2.43436
N	5.55695	-1.58578	0.313706
C	4.25478	-1.90913	-0.221066
H	5.94226	-2.18896	1.0042
H	3.85608	-2.83564	0.247823
H	4.3112	-2.06988	-1.32209
H	3.53452	-1.08108	-0.0295336
