44
  This energy is -1.9002 and Call times are: 233580
C	-0.00985928	3.0344	-1.70441
C	0.480727	2.14703	-0.62596
O	1.46102	2.4452	0.0422676
H	0.651222	3.9253	-1.77621
H	-1.04413	3.37136	-1.48195
H	0.00289744	2.49815	-2.67671
N	-0.201494	1.01601	-0.431699
C	0.180216	0.0328532	0.551287
C	-0.286808	-1.32673	0.0665294
O	-1.02027	-1.42753	-0.915098
H	-0.972815	0.76779	-1.01077
H	1.26032	-0.00278625	0.620153
C	-0.439727	0.359274	1.92764
H	-1.54822	0.385558	1.85982
H	-0.141951	-0.382894	2.69643
H	-0.0906406	1.36163	2.25897
N	0.137548	-2.41171	0.743851
C	-0.250816	-3.74672	0.352573
H	0.733989	-2.31023	1.53317
H	0.200036	-4.50267	1.03264
H	0.0860826	-3.96508	-0.686703
H	-1.35857	-3.8599	0.387345
C	7.49521	-0.300732	-3.05215
C	6.47184	0.316256	-2.17853
O	5.87284	1.32635	-2.52104
H	7.60001	0.304205	-3.97893
H	7.1909	-1.33208	-3.32866
H	8.47508	-0.331941	-2.53066
N	6.24761	-0.287637	-1.00916
C	5.31307	0.218947	-0.0352221
C	5.78584	-0.209198	1.34128
O	6.71212	-1.00758	1.46891
H	6.77229	-1.08566	-0.726792
H	5.32497	1.30152	-0.0580993
C	3.88906	-0.312893	-0.308332
H	3.87419	-1.42315	-0.274543
H	3.15763	0.0811113	0.426714
H	3.56684	0.00556028	-1.32376
N	5.16104	0.322455	2.41037
C	5.54599	-0.0216905	3.75928
H	4.41634	0.969975	2.28698
H	4.91459	0.518842	4.49847
H	6.61104	0.247729	3.94465
H	5.43133	-1.11603	3.93368
