44
  This energy is -1.0779 and Call times are: 227866
C	0.0336333	-3.43268	-0.572923
C	0.265299	-2.03665	-1.00715
O	0.871905	-1.78733	-2.03976
H	0.500241	-4.12723	-1.30488
H	-1.05557	-3.64211	-0.522727
H	0.489078	-3.60353	0.425312
N	-0.219661	-1.07974	-0.212467
C	-0.0362462	0.324986	-0.48015
C	-0.0410471	1.06356	0.845004
O	-0.346848	0.486315	1.88663
H	-0.675552	-1.29776	0.645728
H	0.935991	0.478654	-0.931562
C	-1.15262	0.861124	-1.40292
H	-2.14952	0.713269	-0.935611
H	-1.01482	1.93863	-1.62769
H	-1.13548	0.301048	-2.36332
N	0.308612	2.36499	0.836759
C	0.338242	3.14743	2.05047
H	0.55684	2.81357	-0.0154279
H	0.650347	4.19339	1.83654
H	1.05573	2.7103	2.78218
H	-0.66854	3.17219	2.52683
C	4.65051	-1.75058	-2.94769
C	4.47325	-1.55048	-1.49177
O	3.63503	-2.18214	-0.863429
H	3.91828	-2.50623	-3.30639
H	5.67718	-2.11513	-3.16168
H	4.47685	-0.796685	-3.48899
N	5.27165	-0.649174	-0.915063
C	5.18816	-0.314177	0.484709
C	5.65238	1.11991	0.656343
O	6.1678	1.73109	-0.277737
H	5.92105	-0.113455	-1.44717
H	4.15361	-0.35844	0.801518
C	6.05575	-1.26939	1.33329
H	7.11895	-1.21655	1.01568
H	5.98899	-1.03041	2.41447
H	5.70336	-2.31365	1.18603
N	5.47118	1.69584	1.86112
C	5.8765	3.0585	2.11617
H	5.04856	1.18654	2.60347
H	5.64304	3.3486	3.1643
H	5.34688	3.76042	1.43201
H	6.97209	3.17952	1.9544
