44
  This energy is 0.1018 and Call times are: 231348
C	-3.1642	-0.557958	-1.33761
C	-2.21729	0.227397	-0.514371
O	-2.51333	1.33774	-0.0949418
H	-4.09492	0.0308238	-1.48917
H	-3.41999	-1.50876	-0.824487
H	-2.71535	-0.78195	-2.32829
N	-1.03597	-0.341626	-0.263262
C	0.00432404	0.316968	0.486812
C	1.34196	-0.214431	0.00732846
O	1.40034	-1.17535	-0.75749
H	-0.794086	-1.22875	-0.645845
H	-0.0171486	1.37802	0.271569
C	-0.165699	0.0680972	2.00154
H	-0.13318	-1.01975	2.22417
H	0.621342	0.581547	2.59099
H	-1.15439	0.457658	2.32876
N	2.45471	0.408758	0.44258
C	3.77139	-0.0231394	0.0351321
H	2.38706	1.18717	1.05786
H	4.55558	0.615215	0.498557
H	3.87944	0.0372655	-1.07209
H	3.95141	-1.07873	0.34249
C	5.24045	-0.513999	-2.56951
C	4.56396	-0.937137	-1.32273
O	4.68678	-2.07498	-0.890722
H	5.80706	-1.3732	-2.98973
H	5.94856	0.314715	-2.3584
H	4.49074	-0.178056	-3.31661
N	3.82003	-0.0142195	-0.708572
C	3.06753	-0.288854	0.490125
C	1.86345	0.633726	0.514488
O	1.75305	1.54681	-0.301481
H	3.69679	0.895632	-1.09437
H	2.69473	-1.30486	0.452958
C	3.93761	-0.0769277	1.74842
H	4.31167	0.968145	1.79252
H	3.37352	-0.298636	2.67749
H	4.81674	-0.756345	1.7054
N	0.922788	0.409455	1.45304
C	-0.260171	1.23255	1.54942
H	1.02781	-0.336824	2.10197
H	-0.911381	0.889091	2.3832
H	-0.848117	1.1875	0.604132
H	0.0150173	2.29612	1.73445
