44
  This energy is 0.1297 and Call times are: 234028
C	-2.47444	-2.02344	-1.37678
C	-1.92931	-1.19763	-0.27586
O	-2.62363	-0.877879	0.679176
H	-3.54425	-2.24694	-1.17324
H	-1.91529	-2.97979	-1.45085
H	-2.39867	-1.47565	-2.33973
N	-0.651873	-0.826485	-0.388873
C	0.00593406	0.0135783	0.580736
C	1.09606	0.79276	-0.130638
O	1.4008	0.531582	-1.29281
H	-0.111368	-1.06027	-1.19203
H	-0.703559	0.733273	0.969697
C	0.604128	-0.831077	1.72702
H	1.33987	-1.56242	1.32971
H	1.10142	-0.194503	2.48728
H	-0.210135	-1.39868	2.22817
N	1.70661	1.78042	0.553313
C	2.75168	2.57905	-0.0435168
H	1.44341	1.97954	1.49147
H	3.12683	3.33828	0.677628
H	2.37276	3.11047	-0.946449
H	3.6077	1.9374	-0.354417
C	1.31766	3.07376	-0.0142596
C	1.4379	1.66405	0.420941
O	0.736418	1.21634	1.31755
H	0.545596	3.58378	0.601901
H	1.01432	3.12032	-1.0813
H	2.28715	3.59893	0.117473
N	2.34789	0.922274	-0.214729
C	2.61	-0.453809	0.126223
C	4.05494	-0.759951	-0.220186
O	4.73515	0.0455028	-0.852855
H	2.9398	1.31189	-0.914517
H	2.50011	-0.584037	1.19561
C	1.65802	-1.40187	-0.635455
H	1.7779	-1.27617	-1.73267
H	1.84064	-2.46357	-0.370985
H	0.606243	-1.15453	-0.372898
N	4.56214	-1.93669	0.197015
C	5.92889	-2.31186	-0.0811872
H	3.99741	-2.57363	0.711274
H	6.15601	-3.3141	0.344458
H	6.63664	-1.57432	0.361984
H	6.11079	-2.34783	-1.17971
