44
  This energy is -0.3243 and Call times are: 232906
C	0.200519	3.27619	1.15717
C	0.760541	2.11372	0.431791
O	1.76168	2.22327	-0.262567
H	0.814685	4.17654	0.937962
H	0.216062	3.08825	2.25133
H	-0.843572	3.46493	0.829536
N	0.113545	0.955105	0.578032
C	0.513303	-0.253377	-0.0989638
C	-0.721211	-1.11086	-0.304511
O	-1.79029	-0.812774	0.224569
H	-0.723522	0.890776	1.1138
H	0.898878	-0.00278324	-1.07935
C	1.57451	-1.01968	0.720705
H	1.17578	-1.28622	1.72271
H	1.90066	-1.94516	0.203371
H	2.46549	-0.370448	0.865636
N	-0.602913	-2.19899	-1.09065
C	-1.72508	-3.07113	-1.3481
H	0.269378	-2.42152	-1.51333
H	-1.42705	-3.90847	-2.01687
H	-2.55437	-2.51028	-1.83698
H	-2.11366	-3.50274	-0.397375
C	9.07191	1.65912	1.49029
C	8.30706	0.428245	1.18845
O	8.76719	-0.678683	1.43219
H	10.058	1.3821	1.92251
H	8.51981	2.28228	2.22487
H	9.23835	2.24377	0.561014
N	7.10204	0.597989	0.639359
C	6.25879	-0.504814	0.250391
C	5.38683	-0.0491	-0.904423
O	5.35536	1.13286	-1.24158
H	6.75822	1.5039	0.40922
H	6.87692	-1.31636	-0.112831
C	5.38638	-0.976543	1.43429
H	4.74438	-0.147227	1.8005
H	4.74256	-1.83439	1.15127
H	6.04513	-1.29775	2.27049
N	4.66033	-0.984948	-1.5466
C	3.80591	-0.645677	-2.66062
H	4.70212	-1.9369	-1.2618
H	3.29327	-1.55141	-3.05316
H	4.39977	-0.193046	-3.4875
H	3.02923	0.0903131	-2.3504
