44
  This energy is -0.9208 and Call times are: 232156
C	-1.98656	0.37211	-2.83334
C	-0.708626	0.0192886	-2.17489
O	0.185872	-0.544512	-2.79004
H	-1.96163	0.029907	-3.89077
H	-2.13555	1.4722	-2.81505
H	-2.83394	-0.124144	-2.31492
N	-0.594794	0.347518	-0.885828
C	0.571487	0.0311669	-0.0995254
C	0.138779	-0.126864	1.34593
O	-1.00015	0.173206	1.69878
H	-1.34721	0.769374	-0.388066
H	0.97223	-0.921652	-0.422283
C	1.63986	1.13914	-0.226876
H	1.23255	2.1148	0.114035
H	2.54847	0.900566	0.363076
H	1.93575	1.24278	-1.29367
N	1.04227	-0.613352	2.21947
C	0.718871	-0.803261	3.61429
H	1.9576	-0.854359	1.91426
H	1.59241	-1.21206	4.16839
H	-0.131578	-1.5141	3.72706
H	0.425845	0.16306	4.08493
C	5.27803	-1.26229	3.10956
C	6.25863	-1.07967	2.01583
O	7.43427	-1.38436	2.16229
H	5.79628	-1.67473	4.0024
H	4.48287	-1.97102	2.79624
H	4.8191	-0.287619	3.37874
N	5.78816	-0.566969	0.876452
C	6.62905	-0.291341	-0.261738
C	6.01387	0.858552	-1.03689
O	4.89268	1.27837	-0.75688
H	4.83703	-0.285785	0.786211
H	7.60166	0.0362813	0.0836835
C	6.76596	-1.53907	-1.16156
H	5.76942	-1.86931	-1.52475
H	7.42236	-1.34367	-2.03419
H	7.21073	-2.37	-0.571591
N	6.74252	1.40308	-2.03116
C	6.24142	2.50462	-2.81962
H	7.64939	1.05239	-2.24015
H	6.98704	2.81081	-3.58613
H	6.0235	3.38433	-2.17162
H	5.29954	2.21824	-3.34114
