44
  This energy is 0.1292 and Call times are: 233011
C	2.94064	-1.73964	-0.662518
C	2.04787	-0.988524	0.248474
O	2.2569	-0.953839	1.45326
H	3.74421	-2.2278	-0.0693283
H	3.40542	-1.04964	-1.39779
H	2.36636	-2.52213	-1.20196
N	1.01364	-0.361977	-0.31739
C	0.034574	0.373269	0.443789
C	-1.28006	0.332884	-0.312302
O	-1.33528	-0.114977	-1.45602
H	0.833432	-0.43332	-1.29427
H	-0.124387	-0.121487	1.39383
C	0.488678	1.8331	0.66272
H	0.641724	2.34428	-0.311603
H	-0.250414	2.40593	1.25948
H	1.45624	1.83822	1.21057
N	-2.37795	0.795759	0.317299
C	-3.6735	0.792031	-0.321227
H	-2.31406	1.15047	1.24421
H	-4.44791	1.21175	0.358006
H	-3.97312	-0.245347	-0.595721
H	-3.65463	1.40368	-1.25218
C	3.23753	-0.560205	3.4322
C	3.7297	-0.784767	2.05434
O	4.78659	-1.36451	1.84631
H	3.97244	-0.973643	4.15666
H	2.26255	-1.07091	3.57831
H	3.11735	0.527066	3.62317
N	2.96113	-0.320108	1.06653
C	3.32813	-0.424993	-0.323746
C	2.69419	0.734413	-1.06904
O	1.87472	1.46568	-0.516388
H	2.12377	0.185778	1.25298
H	4.40182	-0.320974	-0.418599
C	2.85989	-1.77147	-0.917879
H	1.75723	-1.87405	-0.830332
H	3.14873	-1.87017	-1.98434
H	3.32981	-2.60544	-0.352193
N	3.06812	0.934823	-2.34811
C	2.52239	2.01641	-3.13457
H	3.73562	0.334989	-2.77674
H	2.95431	2.01419	-4.1596
H	2.7485	2.99927	-2.66113
H	1.41573	1.92082	-3.21998
