44
  This energy is -4.8405 and Call times are: 226635
C	-1.7726	-2.14315	2.09225
C	-0.665843	-1.86167	1.15044
O	0.247484	-2.65956	0.990391
H	-1.59697	-3.12541	2.58234
H	-2.73891	-2.18135	1.54678
H	-1.82016	-1.35524	2.8733
N	-0.723678	-0.698713	0.497322
C	0.301664	-0.265997	-0.419187
C	0.327142	1.25088	-0.418536
O	-0.547387	1.89519	0.157461
H	-1.45211	-0.0415371	0.668705
H	1.26616	-0.604962	-0.0621354
C	0.0318688	-0.802406	-1.84211
H	-0.952841	-0.446303	-2.21302
H	0.821949	-0.487531	-2.55426
H	0.0096158	-1.91382	-1.81725
N	1.34288	1.85946	-1.06192
C	1.45296	3.29882	-1.10987
H	2.04328	1.32105	-1.51867
H	2.35475	3.60533	-1.68438
H	1.532	3.72116	-0.0819393
H	0.557018	3.74547	-1.59868
C	4.09872	-3.17302	-0.284797
C	5.21742	-2.26905	0.0652048
O	6.19489	-2.67869	0.676072
H	4.31332	-4.19136	0.106097
H	3.98223	-3.22854	-1.38756
H	3.15386	-2.80584	0.168499
N	5.09468	-0.996479	-0.319345
C	6.08067	0.0100979	-0.0140794
C	5.37722	1.35175	0.0678808
O	4.20164	1.46832	-0.272874
H	4.27462	-0.669051	-0.779949
H	6.50639	-0.191008	0.961081
C	7.18675	0.0435625	-1.09144
H	6.75182	0.260282	-2.0904
H	7.95942	0.805234	-0.860454
H	7.68249	-0.950557	-1.13946
N	6.08363	2.40073	0.533323
C	5.49611	3.71486	0.651828
H	7.03253	2.28582	0.808016
H	6.23603	4.44166	1.05371
H	4.61865	3.69239	1.33801
H	5.14847	4.081	-0.341263
