44
  This energy is -3.5947 and Call times are: 233608
C	-3.09598	0.117763	1.58548
C	-1.96781	0.765946	0.879621
O	-2.05012	1.91899	0.479466
H	-3.94832	0.828876	1.64643
H	-2.79092	-0.166617	2.61447
H	-3.42287	-0.788508	1.0333
N	-0.871159	0.024386	0.706913
C	0.291601	0.502435	0.00120989
C	0.993507	-0.691747	-0.617508
O	0.648019	-1.83864	-0.340055
H	-0.834127	-0.926078	1.00206
H	-0.0228574	1.14754	-0.809708
C	1.24437	1.25633	0.95468
H	1.57561	0.591807	1.78095
H	2.13697	1.6414	0.420343
H	0.707388	2.12121	1.40189
N	1.99719	-0.447731	-1.48302
C	2.71931	-1.5212	-2.12518
H	2.25959	0.48713	-1.69807
H	3.50563	-1.11746	-2.8004
H	2.02863	-2.15265	-2.72975
H	3.20932	-2.174	-1.36697
C	7.71907	-1.49734	-2.75012
C	6.92973	-1.56556	-1.49974
O	6.35153	-2.59234	-1.17139
H	7.65914	-2.4749	-3.27608
H	8.78277	-1.27783	-2.5197
H	7.31424	-0.705859	-3.41551
N	6.88631	-0.452455	-0.763867
C	6.12435	-0.351981	0.455917
C	5.7086	1.09588	0.635985
O	6.16083	1.97634	-0.0933852
H	7.32838	0.38768	-1.06487
H	5.21883	-0.938158	0.360766
C	6.9551	-0.831344	1.66642
H	7.87901	-0.223436	1.77075
H	6.37462	-0.77189	2.60983
H	7.25507	-1.89045	1.50938
N	4.82443	1.37555	1.61376
C	4.36662	2.72387	1.8559
H	4.4666	0.649055	2.19102
H	3.64312	2.74783	2.70042
H	3.86335	3.13617	0.951464
H	5.2229	3.3903	2.10849
