44
  This energy is -4.3122 and Call times are: 228651
C	0.324579	0.89345	-3.348
C	0.825298	0.852752	-1.9556
O	1.97758	1.16422	-1.68794
H	1.14575	1.21617	-4.02432
H	-0.514772	1.61539	-3.43191
H	-0.0224074	-0.114349	-3.6595
N	-0.0451119	0.458482	-1.02323
C	0.307436	0.327299	0.368554
C	-0.575778	-0.743214	0.981325
O	-1.52174	-1.21478	0.353242
H	-0.967608	0.168926	-1.26203
H	1.33157	-0.015706	0.446846
C	0.127295	1.6689	1.11212
H	-0.925576	2.01596	1.04105
H	0.408793	1.5844	2.18176
H	0.7768	2.43921	0.641889
N	-0.279773	-1.15978	2.22827
C	-1.06098	-2.17839	2.89034
H	0.492102	-0.769231	2.71894
H	-0.659654	-2.38276	3.90739
H	-1.04164	-3.12833	2.30853
H	-2.12279	-1.85637	2.99036
C	3.83348	2.62602	1.07258
C	4.64781	1.41769	1.33327
O	4.95277	1.09359	2.47273
H	3.60299	3.12867	2.03698
H	2.88047	2.34559	0.576702
H	4.39351	3.33231	0.424057
N	5.02569	0.714485	0.263173
C	5.85638	-0.460334	0.354296
C	6.64891	-0.580293	-0.933758
O	6.40348	0.146955	-1.89427
H	4.80417	1.0136	-0.66058
H	6.56821	-0.332872	1.16033
C	5.00006	-1.72511	0.582961
H	4.27679	-1.86215	-0.248995
H	5.62921	-2.63469	0.6687
H	4.42287	-1.61187	1.52655
N	7.63054	-1.50238	-0.980351
C	8.44089	-1.68469	-2.16199
H	7.81688	-2.07875	-0.191585
H	9.19267	-2.48893	-2.00304
H	8.98191	-0.744485	-2.41613
H	7.80675	-1.96463	-3.03414
