44
  This energy is 0.1041 and Call times are: 229533
C	3.31999	-0.566054	-0.877461
C	1.86664	-0.678412	-1.13494
O	1.44299	-1.04861	-2.22116
H	3.87857	-0.844065	-1.79756
H	3.61718	-1.25114	-0.0558276
H	3.58005	0.47743	-0.600689
N	1.05792	-0.353188	-0.123713
C	-0.37928	-0.371135	-0.236388
C	-0.941975	0.658785	0.724962
O	-0.215987	1.21792	1.54474
H	1.41699	-0.014401	0.741248
H	-0.663013	-0.067817	-1.23645
C	-0.940279	-1.77401	0.0836983
H	-0.658392	-2.08123	1.11335
H	-2.04492	-1.80434	-0.0130936
H	-0.508997	-2.51262	-0.626801
N	-2.25701	0.940719	0.639941
C	-2.87981	1.91113	1.50978
H	-2.8274	0.48092	-0.0326025
H	-3.96529	2.00172	1.28451
H	-2.4102	2.91312	1.38037
H	-2.76674	1.61211	2.57699
C	0.1626	-0.538679	-0.0828411
C	1.4323	-0.122933	-0.720167
O	1.50261	0.0666348	-1.92662
H	-0.621732	-0.647204	-0.863161
H	-0.165096	0.226269	0.652154
H	0.294275	-1.51352	0.432345
N	2.48189	0.0280255	0.0909762
C	3.79361	0.386735	-0.387848
C	4.82057	-0.196618	0.564322
O	4.47483	-0.705677	1.62876
H	2.41917	-0.169647	1.06506
H	3.95698	-0.0683306	-1.35679
C	3.94788	1.92084	-0.477085
H	3.79077	2.38726	0.518814
H	4.94902	2.20951	-0.857733
H	3.18146	2.3269	-1.17283
N	6.11586	-0.142941	0.196422
C	7.16278	-0.677559	1.03565
H	6.37567	0.269234	-0.670574
H	8.15827	-0.53827	0.55936
H	7.00765	-1.76676	1.21132
H	7.17278	-0.16623	2.02539
