44
  This energy is -2.2261 and Call times are: 232878
C	-2.09724	-2.61326	-0.94084
C	-1.65883	-1.57499	0.0188235
O	-2.33766	-1.28846	0.995294
H	-3.0828	-3.0162	-0.621186
H	-1.3612	-3.44405	-0.968555
H	-2.19989	-2.17659	-1.95665
N	-0.49446	-0.977239	-0.244444
C	0.042228	0.0816893	0.573601
C	0.900096	0.970903	-0.306693
O	1.17252	0.641347	-1.45947
H	0.0268771	-1.19248	-1.06526
H	-0.771155	0.689153	0.950465
C	0.876008	-0.491266	1.74055
H	1.71684	-1.10592	1.35424
H	1.28327	0.313885	2.38583
H	0.230256	-1.14493	2.36671
N	1.34126	2.13124	0.217735
C	2.15889	3.04387	-0.546968
H	1.10694	2.38251	1.15102
H	2.41922	3.9401	0.058199
H	1.61954	3.38279	-1.46103
H	3.10474	2.55007	-0.867378
C	10.7894	-0.46819	1.53264
C	9.57456	0.334896	1.26751
O	9.32185	1.33596	1.92358
H	11.3491	-0.0183178	2.3813
H	11.4441	-0.479233	0.635969
H	10.5094	-1.50934	1.79848
N	8.78147	-0.0957887	0.283681
C	7.54292	0.55575	-0.0627813
C	6.60565	-0.487253	-0.641778
O	7.0067	-1.62057	-0.899597
H	8.97938	-0.935301	-0.214222
H	7.07921	0.942674	0.836045
C	7.7833	1.69229	-1.08049
H	8.24935	1.29418	-2.00696
H	6.83894	2.21082	-1.34474
H	8.47798	2.43967	-0.638696
N	5.32408	-0.127966	-0.852752
C	4.35866	-1.05513	-1.39543
H	5.01736	0.792446	-0.634033
H	3.36163	-0.571944	-1.49394
H	4.25306	-1.94475	-0.73307
H	4.67745	-1.41016	-2.40214
