44
  This energy is -3.2148 and Call times are: 228602
C	-0.796401	3.16136	-1.2183
C	-0.601648	2.20442	-0.105873
O	-0.570065	2.58332	1.05682
H	-0.878806	4.19088	-0.806987
H	-1.72796	2.91998	-1.77209
H	0.0681104	3.12048	-1.91403
N	-0.46219	0.920688	-0.444918
C	-0.222826	-0.120956	0.522678
C	0.558224	-1.22888	-0.158512
O	0.73532	-1.21836	-1.37516
H	-0.449176	0.632921	-1.39827
H	0.39794	0.268044	1.32015
C	-1.55307	-0.664955	1.08814
H	-2.18582	-1.07374	0.271706
H	-1.38175	-1.45808	1.84453
H	-2.1114	0.164336	1.57485
N	1.05371	-2.2129	0.617517
C	1.81448	-3.30596	0.0583799
H	0.903472	-2.20192	1.60056
H	2.13428	-4.0114	0.856698
H	2.72509	-2.92639	-0.459298
H	1.20483	-3.86971	-0.684365
C	7.45226	-0.114402	3.28207
C	7.45139	0.466822	1.9207
O	8.02322	1.52164	1.6824
H	8.01097	0.558458	3.96833
H	7.94575	-1.10895	3.27325
H	6.41111	-0.221864	3.65293
N	6.79535	-0.220118	0.982556
C	6.67011	0.239968	-0.378029
C	5.3772	-0.313148	-0.947247
O	4.72449	-1.15153	-0.32854
H	6.30022	-1.05623	1.20078
H	6.58926	1.31981	-0.383958
C	7.87552	-0.217532	-1.22827
H	7.95268	-1.32572	-1.23113
H	7.79767	0.142262	-2.2747
H	8.81116	0.192161	-0.788873
N	4.97106	0.15333	-2.14452
C	3.7507	-0.310791	-2.76217
H	5.51058	0.83464	-2.62806
H	3.59017	0.191092	-3.74175
H	2.87362	-0.0949744	-2.10992
H	3.7908	-1.4108	-2.93397
