44
  This energy is 0.1035 and Call times are: 232375
C	2.72974	2.15869	-0.0351875
C	1.95668	1.02609	-0.592629
O	2.22706	0.553377	-1.688
H	3.51258	2.46287	-0.763557
H	3.21999	1.85696	0.914215
H	2.05926	3.02346	0.153814
N	0.958694	0.560278	0.161968
C	0.0909677	-0.509255	-0.264308
C	-1.25732	-0.319632	0.404819
O	-1.4102	0.52476	1.28535
H	0.724776	0.982094	1.0333
H	-0.066424	-0.437055	-1.33325
C	0.689223	-1.88482	0.10332
H	0.841067	-1.96338	1.20096
H	0.036932	-2.71704	-0.232004
H	1.67884	-1.99851	-0.390726
N	-2.27504	-1.10124	-0.00671711
C	-3.59515	-0.988403	0.568392
H	-2.13287	-1.77599	-0.723358
H	-4.29276	-1.71556	0.097419
H	-4.00319	0.0371994	0.417003
H	-3.56525	-1.18986	1.66368
C	4.72024	-2.62288	2.27162
C	3.91978	-1.70108	1.43454
O	2.7227	-1.88259	1.26002
H	4.06577	-3.43853	2.64873
H	5.15011	-2.07745	3.13791
H	5.54123	-3.0692	1.67174
N	4.57591	-0.675119	0.887467
C	3.94179	0.281041	0.0144275
C	4.99118	0.818398	-0.940345
O	6.18154	0.555126	-0.780877
H	5.55854	-0.563766	1.00539
H	3.19098	-0.222538	-0.581662
C	3.30712	1.43221	0.825135
H	4.07878	1.95586	1.42877
H	2.80366	2.16792	0.164991
H	2.54823	1.01503	1.52254
N	4.56962	1.58268	-1.96707
C	5.49534	2.13347	-2.92928
H	3.60192	1.78132	-2.08187
H	4.95583	2.73197	-3.69606
H	6.0529	1.32023	-3.44797
H	6.23771	2.79474	-2.42654
