44
  This energy is 0.1 and Call times are: 232725
C	2.97027	0.382519	1.77309
C	2.08384	0.701274	0.631257
O	2.32922	1.63584	-0.118931
H	3.80648	1.11441	1.80438
H	3.39059	-0.638653	1.65785
H	2.40359	0.443394	2.72611
N	1.01382	-0.0814984	0.474087
C	0.0369955	0.130565	-0.564852
C	-1.29874	-0.393606	-0.0723042
O	-1.37593	-1.03893	0.9714
H	0.805476	-0.812977	1.11705
H	-0.0770643	1.19368	-0.736329
C	0.452936	-0.586616	-1.86788
H	0.559827	-1.67873	-1.69499
H	-0.284316	-0.419442	-2.67969
H	1.43652	-0.193027	-2.20553
N	-2.39007	-0.118881	-0.813619
C	-3.7042	-0.571691	-0.42092
H	-2.30814	0.408222	-1.65298
H	-4.46948	-0.245435	-1.15924
H	-3.98044	-0.158235	0.576087
H	-3.73307	-1.68335	-0.353696
C	2.55951	1.44051	-2.8935
C	3.16375	1.54015	-1.54586
O	3.58053	2.60702	-1.11633
H	2.58446	2.43884	-3.38192
H	1.50408	1.1047	-2.8158
H	3.13117	0.721057	-3.51694
N	3.22715	0.409454	-0.838833
C	3.82644	0.339816	0.470578
C	4.36628	-1.06394	0.669619
O	4.11139	-1.95686	-0.136253
H	2.92101	-0.459049	-1.21809
H	4.66898	1.01866	0.514382
C	2.79581	0.684267	1.56803
H	1.93624	-0.0184099	1.53027
H	3.24866	0.64765	2.58001
H	2.40838	1.71252	1.39793
N	5.13726	-1.28978	1.75156
C	5.69969	-2.59272	2.02029
H	5.33575	-0.553615	2.3901
H	6.30284	-2.57559	2.95471
H	6.35978	-2.91589	1.18296
H	4.89327	-3.35244	2.13713
