44
  This energy is 0.1141 and Call times are: 233796
C	-1.10464	3.26757	0.464184
C	-1.33894	1.80666	0.4194
O	-2.3849	1.32055	0.826902
H	-1.98727	3.76732	0.919251
H	-0.957436	3.66321	-0.562724
H	-0.207664	3.49261	1.0789
N	-0.351415	1.06241	-0.0838565
C	-0.415288	-0.376226	-0.153178
C	1.00025	-0.916701	-0.0777381
O	1.96742	-0.160169	-0.140615
H	0.510388	1.4688	-0.373707
H	-0.950487	-0.752045	0.709929
C	-1.10151	-0.835743	-1.45824
H	-0.546853	-0.459269	-2.34405
H	-1.16922	-1.9414	-1.51704
H	-2.13295	-0.422147	-1.49583
N	1.1545	-2.24745	0.0683523
C	2.46354	-2.85168	0.154874
H	0.35974	-2.84295	0.121423
H	2.38057	-3.9546	0.272864
H	3.02595	-2.4472	1.02743
H	3.05536	-2.64082	-0.765139
C	3.28849	-1.48363	3.11014
C	2.81641	-1.5219	1.7077
O	2.49102	-2.57537	1.17786
H	3.29867	-2.51595	3.52254
H	2.60902	-0.857405	3.7257
H	4.31717	-1.06801	3.15643
N	2.77046	-0.352686	1.06488
C	2.3736	-0.235944	-0.316214
C	3.07299	0.972918	-0.90874
O	3.69655	1.75368	-0.192302
H	3.07744	0.490676	1.49658
H	2.71673	-1.10644	-0.861294
C	0.841106	-0.0892182	-0.439353
H	0.489845	0.809598	0.110911
H	0.521679	-0.0123647	-1.49887
H	0.349955	-0.981022	0.00763225
N	2.99164	1.15117	-2.24201
C	3.62992	2.27005	-2.89537
H	2.48595	0.506416	-2.80561
H	3.4479	2.24101	-3.9923
H	4.73032	2.25055	-2.72208
H	3.23515	3.23374	-2.49964
