44
  This energy is -5.1122 and Call times are: 227754
C	-0.528447	0.479595	3.40638
C	0.136941	0.823685	2.12966
O	0.803295	1.84343	2.01788
H	-0.325472	1.27776	4.15312
H	-0.136505	-0.483909	3.79469
H	-1.62572	0.398492	3.25634
N	-0.0344274	-0.0341218	1.12111
C	0.515136	0.186284	-0.193408
C	-0.384535	-0.500687	-1.20347
O	-1.2903	-1.24628	-0.835512
H	-0.613296	-0.839026	1.21549
H	0.49809	1.24619	-0.414613
C	1.95515	-0.36374	-0.288673
H	1.9717	-1.45318	-0.072161
H	2.39439	-0.187709	-1.29197
H	2.59378	0.147291	0.464552
N	-0.158991	-0.256692	-2.50946
C	-0.967724	-0.861506	-3.5421
H	0.576066	0.352777	-2.78751
H	-0.625979	-0.537254	-4.54971
H	-2.03684	-0.570991	-3.42433
H	-0.904234	-1.97258	-3.49083
C	5.9621	3.03081	0.74954
C	6.55038	2.07036	-0.210993
O	6.42266	2.22357	-1.4179
H	5.42091	3.82467	0.190298
H	6.76225	3.50187	1.35832
H	5.24536	2.51118	1.41987
N	7.21757	1.03978	0.313559
C	7.80841	0.000526817	-0.492297
C	7.83347	-1.27634	0.326575
O	7.5485	-1.26321	1.52254
H	7.27802	0.906475	1.29866
H	7.18094	-0.182257	-1.35571
C	9.23663	0.389102	-0.933264
H	9.88357	0.566459	-0.0477958
H	9.69717	-0.397091	-1.56597
H	9.19505	1.33018	-1.52402
N	8.16947	-2.41805	-0.305567
C	8.21496	-3.68253	0.390995
H	8.39285	-2.40928	-1.27464
H	8.51133	-4.50193	-0.300366
H	7.21739	-3.93029	0.820835
H	8.9511	-3.64486	1.22635
