44
  This energy is 0.1115 and Call times are: 230572
C	-2.89193	-0.636908	-1.82859
C	-1.91135	0.291629	-1.22244
O	-1.92095	1.48532	-1.48969
H	-3.55388	-0.071848	-2.52027
H	-3.5147	-1.10554	-1.03784
H	-2.36534	-1.4288	-2.40191
N	-1.02675	-0.246622	-0.37974
C	0.0151135	0.521941	0.254605
C	1.18715	-0.402653	0.524818
O	1.08189	-1.61686	0.362549
H	-1.00565	-1.22665	-0.203758
H	0.359726	1.28849	-0.428241
C	-0.489387	1.15524	1.56976
H	-0.833228	0.368591	2.27474
H	0.299613	1.76103	2.06071
H	-1.35184	1.82144	1.3491
N	2.34176	0.155844	0.938307
C	3.51203	-0.644302	1.21476
H	2.40876	1.14063	1.05988
H	4.35918	-0.00208713	1.54205
H	3.82825	-1.20501	0.305429
H	3.30095	-1.38413	2.02052
C	3.2091	1.48421	0.814115
C	4.59116	1.07502	1.1512
O	5.13852	1.47327	2.17013
H	2.82881	2.17439	1.59826
H	2.54714	0.594068	0.767059
H	3.1932	2.00858	-0.164585
N	5.19594	0.257924	0.285764
C	6.55514	-0.191822	0.455595
C	7.13956	-0.460637	-0.918364
O	6.42651	-0.446161	-1.91989
H	4.75216	-0.0248913	-0.559773
H	7.14006	0.600685	0.905508
C	6.60982	-1.46637	1.3261
H	6.01853	-2.28298	0.859656
H	7.65231	-1.81473	1.47574
H	6.16986	-1.24855	2.32376
N	8.4623	-0.705574	-0.998217
C	9.10764	-0.966694	-2.26373
H	9.02353	-0.709002	-0.177186
H	10.1964	-1.14386	-2.12081
H	8.98103	-0.102152	-2.95497
H	8.6669	-1.86612	-2.7515
