44
  This energy is 0.1058 and Call times are: 227369
C	-2.35024	2.54278	0.351186
C	-1.35539	1.60112	0.912153
O	-0.966735	1.7049	2.0674
H	-2.62069	3.29478	1.12399
H	-3.26664	1.99483	0.0467133
H	-1.92492	3.06923	-0.529181
N	-0.9128	0.646401	0.0905644
C	0.0874332	-0.3164	0.479292
C	0.844786	-0.740239	-0.765028
O	0.460504	-0.40056	-1.88246
H	-1.20794	0.599745	-0.859479
H	0.799017	0.156539	1.14458
C	-0.561084	-1.54069	1.16176
H	-1.28341	-2.03247	0.475883
H	0.200012	-2.28306	1.47822
H	-1.11636	-1.20598	2.06508
N	1.95154	-1.49074	-0.598108
C	2.73949	-1.93636	-1.72361
H	2.24896	-1.75213	0.31419
H	3.60842	-2.54026	-1.38085
H	3.12431	-1.06594	-2.30288
H	2.12531	-2.56335	-2.40975
C	8.61659	1.49934	-1.16545
C	7.82546	0.839413	-0.10254
O	8.35097	0.461299	0.935383
H	9.6819	1.55101	-0.851932
H	8.24205	2.53037	-1.33704
H	8.54764	0.919274	-2.10982
N	6.52183	0.682326	-0.343903
C	5.63151	0.0199783	0.576528
C	4.50292	-0.603484	-0.222932
O	4.37035	-0.359984	-1.42078
H	6.11631	0.958449	-1.2106
H	6.16152	-0.785834	1.06885
C	5.07266	1.0156	1.61656
H	4.51983	1.83683	1.11257
H	4.3965	0.514917	2.3395
H	5.91629	1.46543	2.18424
N	3.66304	-1.43494	0.424597
C	2.56332	-2.07873	-0.255349
H	3.78892	-1.62287	1.39306
H	1.98963	-2.72283	0.446971
H	2.93631	-2.71569	-1.08988
H	1.86819	-1.32078	-0.683661
