44
  This energy is 0.102 and Call times are: 232686
C	-0.340905	0.00634029	3.46359
C	-0.789188	-0.39349	2.11069
O	-1.65762	-1.24108	1.95637
H	-0.895394	-0.585367	4.22405
H	-0.54296	1.08527	3.6304
H	0.746202	-0.188182	3.57956
N	-0.194113	0.217559	1.08362
C	-0.493275	-0.0961538	-0.29139
C	0.744691	0.187134	-1.12129
O	1.71422	0.761976	-0.630089
H	0.53995	0.875748	1.22435
H	-0.704722	-1.15462	-0.37845
C	-1.68892	0.738605	-0.800158
H	-1.46839	1.82448	-0.720882
H	-1.93793	0.496123	-1.85359
H	-2.58134	0.521307	-0.173489
N	0.743167	-0.220545	-2.40575
C	1.87889	0.000495212	-3.2703
H	-0.0490893	-0.687731	-2.78408
H	1.6844	-0.406804	-4.28692
H	2.78716	-0.49815	-2.86083
H	2.09545	1.08928	-3.3641
C	0.603466	0.124153	-0.748931
C	1.82923	-0.616507	-0.374648
O	1.77681	-1.78123	-0.00439176
H	-0.280408	-0.536501	-0.61418
H	0.65701	0.440458	-1.81187
H	0.484893	1.0193	-0.102622
N	2.97913	0.0560857	-0.462518
C	4.24914	-0.516725	-0.0916553
C	5.15918	0.607254	0.36667
O	4.82903	1.78294	0.223621
H	3.00134	1.01617	-0.726339
H	4.10851	-1.18193	0.751169
C	4.88073	-1.27437	-1.28006
H	5.03493	-0.589954	-2.14136
H	5.85264	-1.73177	-1.0031
H	4.19422	-2.0869	-1.60384
N	6.33079	0.268791	0.940065
C	7.25854	1.27016	1.41198
H	6.57856	-0.687984	1.05081
H	8.16211	0.793112	1.85154
H	6.7843	1.90824	2.19252
H	7.58245	1.93112	0.5757
