44
  This energy is -0.0853 and Call times are: 228925
C	0.283797	3.12234	1.51101
C	-0.356877	2.18991	0.556408
O	-1.40875	2.47605	0.00134262
H	-0.34603	4.03259	1.61414
H	1.28728	3.41975	1.14046
H	0.385318	2.64092	2.50651
N	0.273815	1.03269	0.343239
C	-0.248485	0.00710171	-0.525051
C	0.251254	-1.33533	-0.0253658
O	1.10204	-1.40084	0.859839
H	1.10801	0.796902	0.833538
H	-1.32901	-0.00439845	-0.454642
C	0.196615	0.241179	-1.9853
H	1.30499	0.242551	-2.05979
H	-0.210625	-0.534245	-2.66603
H	-0.173224	1.23245	-2.32729
N	-0.276202	-2.44464	-0.579677
C	0.134056	-3.76567	-0.16404
H	-0.96655	-2.3714	-1.29181
H	-0.413909	-4.54601	-0.736766
H	-0.0713943	-3.91773	0.920367
H	1.22601	-3.90913	-0.331965
C	4.50089	-3.19963	1.112
C	4.53895	-1.73038	1.28813
O	3.92637	-1.18562	2.19609
H	3.84689	-3.64624	1.89218
H	5.522	-3.62375	1.21309
H	4.09231	-3.45464	0.111455
N	5.27077	-1.0457	0.406064
C	5.36962	0.39253	0.422549
C	5.62524	0.865349	-0.996137
O	5.87595	0.0617237	-1.89226
H	5.73056	-1.49941	-0.351959
H	4.42203	0.812143	0.736597
C	6.50506	0.856764	1.36089
H	7.47906	0.43506	1.03295
H	6.5823	1.9629	1.39293
H	6.30124	0.492868	2.39161
N	5.55878	2.18988	-1.23531
C	5.78213	2.73176	-2.55541
H	5.35058	2.82415	-0.498137
H	5.68357	3.83967	-2.54759
H	5.04276	2.31925	-3.27959
H	6.80288	2.47291	-2.91902
