44
  This energy is -5.0111 and Call times are: 226686
C	0.584345	-2.4457	-2.40619
C	-0.189408	-1.89143	-1.27251
O	-1.27168	-2.36408	-0.953598
H	0.0150128	-3.28316	-2.86489
H	1.56348	-2.82937	-2.05004
H	0.752087	-1.66182	-3.17462
N	0.35776	-0.856967	-0.629964
C	-0.295174	-0.184099	0.465246
C	0.17792	1.25721	0.484411
O	1.1022	1.62632	-0.237518
H	1.22022	-0.457277	-0.927082
H	-1.36372	-0.170559	0.290138
C	0.0248458	-0.87694	1.80793
H	1.12017	-0.881732	1.99307
H	-0.483331	-0.376406	2.65748
H	-0.322822	-1.93236	1.76833
N	-0.455525	2.11229	1.31122
C	-0.0780504	3.50405	1.39309
H	-1.20389	1.79584	1.8847
H	-0.716449	4.04208	2.12806
H	-0.190185	4.00038	0.401952
H	0.984778	3.60497	1.71145
C	5.66277	-3.09941	-1.57478
C	5.0363	-1.77442	-1.36716
O	4.18109	-1.35161	-2.13283
H	5.24231	-3.56468	-2.49271
H	5.45392	-3.76147	-0.708294
H	6.76067	-2.98839	-1.69874
N	5.45781	-1.07794	-0.309028
C	4.973	0.24443	-0.0010532
C	6.06889	0.989976	0.737033
O	7.08109	0.40569	1.11882
H	6.18396	-1.41785	0.281751
H	4.78376	0.779319	-0.923389
C	3.69139	0.175968	0.858027
H	3.88765	-0.363507	1.80908
H	3.30043	1.18778	1.09023
H	2.9059	-0.380589	0.301617
N	5.89441	2.30938	0.948556
C	6.88607	3.10214	1.63726
H	5.07053	2.76532	0.628544
H	6.55941	4.16281	1.71144
H	7.85881	3.07213	1.09491
H	7.05332	2.71367	2.66792
