44
  This energy is 0.1249 and Call times are: 229505
C	-3.02583	0.345102	1.68462
C	-1.99626	0.83577	0.741024
O	-2.2075	1.80054	0.0192205
H	-3.9407	0.969109	1.58705
H	-2.65292	0.414746	2.72809
H	-3.28427	-0.710008	1.4543
N	-0.840003	0.168548	0.724725
C	0.240675	0.500677	-0.169917
C	1.0308	-0.764354	-0.447335
O	0.811091	-1.79556	0.185175
H	-0.697918	-0.639836	1.28881
H	-0.168173	0.839145	-1.1138
C	1.15265	1.58477	0.445119
H	1.58071	1.23394	1.4083
H	1.98077	1.85915	-0.240058
H	0.551907	2.49836	0.647146
N	1.9698	-0.716022	-1.41272
C	2.76722	-1.87207	-1.75013
H	2.13023	0.126369	-1.91642
H	3.48212	-1.63168	-2.56766
H	2.11796	-2.71204	-2.08804
H	3.34925	-2.2197	-0.866075
C	1.2591	1.48421	0.814115
C	2.64116	1.07502	1.1512
O	3.18852	1.47327	2.17013
H	0.878812	2.17439	1.59826
H	0.597143	0.594068	0.767059
H	1.2432	2.00858	-0.164585
N	3.24594	0.257924	0.285764
C	4.60514	-0.191822	0.455595
C	5.18956	-0.460637	-0.918364
O	4.47651	-0.446161	-1.91989
H	2.80216	-0.0248913	-0.559773
H	5.19006	0.600685	0.905508
C	4.65982	-1.46637	1.3261
H	4.06853	-2.28298	0.859656
H	5.70231	-1.81473	1.47574
H	4.21986	-1.24855	2.32376
N	6.5123	-0.705574	-0.998217
C	7.15764	-0.966694	-2.26373
H	7.07353	-0.709002	-0.177186
H	8.24641	-1.14386	-2.12081
H	7.03103	-0.102152	-2.95497
H	6.7169	-1.86612	-2.7515
