44
  This energy is 0.2473 and Call times are: 229798
C	0.687474	-1.85987	-2.86023
C	0.271572	-1.75356	-1.4436
O	-0.205654	-2.71106	-0.850429
H	0.474215	-2.88651	-3.22957
H	1.77595	-1.6626	-2.95537
H	0.124305	-1.13074	-3.48016
N	0.444717	-0.564419	-0.861915
C	0.0486262	-0.295234	0.497942
C	-0.285205	1.18042	0.61005
O	-0.0409826	1.95337	-0.314404
H	0.796475	0.216772	-1.36973
H	-0.854733	-0.848323	0.723032
C	1.17467	-0.672196	1.48545
H	2.09847	-0.0973114	1.26155
H	0.876618	-0.482512	2.53697
H	1.40791	-1.75428	1.38039
N	-0.86329	1.60582	1.75061
C	-1.22162	2.99142	1.9453
H	-1.05683	0.964624	2.48578
H	-1.68475	3.14105	2.94547
H	-1.94944	3.3217	1.16911
H	-0.321411	3.64391	1.87437
C	5.60617	-1.91725	2.59438
C	4.57911	-1.64639	1.5634
O	3.73426	-2.4832	1.27634
H	5.46531	-2.94589	2.99178
H	5.5098	-1.19276	3.43019
H	6.6219	-1.83865	2.15259
N	4.63221	-0.450304	0.972675
C	3.72737	-0.0578607	-0.0788989
C	4.43986	0.945722	-0.965893
O	5.52934	1.4128	-0.639444
H	5.35083	0.204743	1.188
H	3.49464	-0.920714	-0.690406
C	2.43618	0.556296	0.50495
H	2.67348	1.44778	1.12381
H	1.7254	0.849838	-0.294517
H	1.9357	-0.192687	1.15678
N	3.84022	1.29588	-2.12081
C	4.44576	2.23984	-3.031
H	2.96066	0.904083	-2.36967
H	3.79958	2.39625	-3.92275
H	5.43794	1.87011	-3.37766
H	4.59921	3.224	-2.53198
