44
  This energy is -2.1715 and Call times are: 233523
C	0.691943	1.76432	2.91909
C	1.11352	0.944912	1.76065
O	2.29626	0.803867	1.48201
H	1.5913	2.19193	3.41323
H	0.143245	1.13667	3.65238
H	0.0377029	2.59579	2.58186
N	0.137155	0.379121	1.04723
C	0.388969	-0.410693	-0.13232
C	-0.816072	-0.293078	-1.04643
O	-1.84807	0.252891	-0.66094
H	-0.822455	0.536635	1.26218
H	1.23811	0.00108521	-0.663388
C	0.645984	-1.88801	0.237436
H	-0.229088	-2.31399	0.772997
H	0.854886	-2.50389	-0.661213
H	1.52704	-1.94932	0.912959
N	-0.708702	-0.799075	-2.2908
C	-1.80162	-0.728358	-3.23246
H	0.135873	-1.2335	-2.58583
H	-1.51826	-1.19856	-4.19985
H	-2.08414	0.33157	-3.42742
H	-2.69798	-1.25699	-2.83469
C	4.63945	3.31426	0.957269
C	4.7187	2.25433	-0.0729851
O	4.37091	2.46561	-1.22659
H	4.22062	4.23808	0.502316
H	5.65152	3.53693	1.35588
H	3.97783	2.99122	1.78852
N	5.18434	1.06948	0.329144
C	5.27935	-0.0707629	-0.547997
C	5.14278	-1.32653	0.292229
O	5.14603	-1.26606	1.52025
H	5.42496	0.900889	1.28074
H	4.44967	-0.0563572	-1.24374
C	6.6237	-0.0714824	-1.30824
H	7.47508	-0.0969027	-0.595118
H	6.70314	-0.937173	-1.99729
H	6.70554	0.859965	-1.90994
N	5.01022	-2.50083	-0.355412
C	4.86884	-3.74721	0.360639
H	5.00574	-2.52912	-1.34952
H	4.77243	-4.59913	-0.348004
H	3.96337	-3.72691	1.00949
H	5.75515	-3.92994	1.01041
