44
  This energy is 0.1179 and Call times are: 227320
C	3.36018	-0.344823	-0.838444
C	2.28475	0.0231152	0.109827
O	2.52926	0.252236	1.28632
H	4.33049	-0.381477	-0.297126
H	3.42963	0.409819	-1.64988
H	3.15661	-1.34353	-1.27917
N	1.04854	0.0863533	-0.390327
C	-0.106272	0.389301	0.417881
C	-1.31239	-0.284044	-0.209365
O	-1.23391	-0.811598	-1.31717
H	0.85965	-0.14283	-1.34094
H	0.0255625	-0.0385702	1.40387
C	-0.327136	1.91479	0.514615
H	-0.472945	2.35266	-0.495851
H	-1.20538	2.16142	1.14579
H	0.570847	2.38754	0.969016
N	-2.46201	-0.288584	0.493762
C	-3.66006	-0.910304	-0.020351
H	-2.50483	0.139857	1.39024
H	-4.49776	-0.808933	0.704356
H	-3.48957	-1.99494	-0.209467
H	-3.96766	-0.43661	-0.980631
C	8.81908	-1.00584	1.51183
C	7.99	-0.00154221	0.808142
O	8.34876	1.16447	0.718019
H	9.73124	-0.513044	1.91303
H	9.12431	-1.80991	0.809663
H	8.24932	-1.44891	2.35572
N	6.84158	-0.439898	0.287211
C	5.90932	0.427549	-0.388789
C	4.51657	-0.148697	-0.216247
O	4.35307	-1.26572	0.270828
H	6.54379	-1.38302	0.404215
H	5.91712	1.40033	0.0868744
C	6.26093	0.554589	-1.88728
H	6.24275	-0.441836	-2.37804
H	5.5585	1.231	-2.41602
H	7.28698	0.970667	-1.98949
N	3.47333	0.609592	-0.606963
C	2.11145	0.146607	-0.476254
H	3.62546	1.51254	-0.995069
H	1.39788	0.912588	-0.852196
H	1.86905	-0.0645597	0.590486
H	1.95767	-0.791333	-1.05743
