44
  This energy is -1.4562 and Call times are: 227278
C	1.42048	0.903389	3.04611
C	0.870843	-0.105395	2.11263
O	0.994926	-1.30282	2.32984
H	1.93224	0.385883	3.88645
H	0.601925	1.5316	3.45606
H	2.15516	1.55004	2.52154
N	0.242224	0.365358	1.033
C	-0.307287	-0.492825	0.0131331
C	-0.285451	0.262175	-1.30256
O	-0.00342744	1.4584	-1.33763
H	0.185019	1.34249	0.849123
H	0.328278	-1.36184	-0.103054
C	-1.74838	-0.919485	0.36874
H	-2.40324	-0.0287956	0.477684
H	-2.1776	-1.5918	-0.402156
H	-1.7414	-1.46309	1.33868
N	-0.57675	-0.426588	-2.42362
C	-0.575564	0.206788	-3.7217
H	-0.798476	-1.39488	-2.37555
H	-0.83937	-0.525127	-4.51664
H	0.429868	0.627649	-3.95248
H	-1.31417	1.04022	-3.75306
C	7.29864	-1.37895	2.73738
C	6.06313	-1.00349	2.01371
O	4.96664	-1.39729	2.38662
H	7.03745	-2.0422	3.59045
H	7.80339	-0.471064	3.12945
H	7.98971	-1.92184	2.05859
N	6.2171	-0.221525	0.942632
C	5.1133	0.191829	0.112384
C	5.63715	0.416415	-1.29357
O	6.84452	0.4029	-1.52544
H	7.1198	0.0573262	0.627611
H	4.38541	-0.6083	0.0614318
C	4.46332	1.48117	0.660442
H	5.20705	2.30524	0.703005
H	3.60332	1.802	0.0375564
H	4.09439	1.29593	1.69288
N	4.73362	0.621221	-2.2722
C	5.13858	0.838486	-3.64149
H	3.76077	0.624543	-2.06574
H	4.251	0.986751	-4.29529
H	5.7138	-0.0354789	-4.02436
H	5.78752	1.74054	-3.72105
