44
  This energy is 0.1007 and Call times are: 233828
C	-2.4096	1.43082	2.06379
C	-1.89322	0.310375	1.24582
O	-2.41313	-0.796127	1.28778
H	-3.26911	1.07539	2.67272
H	-2.75208	2.25799	1.4071
H	-1.61646	1.80439	2.74531
N	-0.838506	0.577324	0.472063
C	-0.198303	-0.421433	-0.347194
C	1.26194	-0.0405791	-0.502736
O	1.67307	1.05079	-0.113377
H	-0.401022	1.47198	0.479543
H	-0.230101	-1.37603	0.163065
C	-0.881582	-0.522698	-1.72854
H	-0.839929	0.453624	-2.25684
H	-0.406439	-1.29814	-2.36372
H	-1.95083	-0.794511	-1.59004
N	2.08599	-0.941998	-1.07231
C	3.49239	-0.669708	-1.2569
H	1.73558	-1.82136	-1.37729
H	3.99982	-1.53292	-1.74126
H	3.98702	-0.47697	-0.277377
H	3.63778	0.228504	-1.89972
C	4.42242	2.8286	-2.01996
C	3.79754	1.80835	-1.14832
O	2.64791	1.93457	-0.749765
H	3.69904	3.65421	-2.1959
H	4.69971	2.37947	-2.99677
H	5.33008	3.24371	-1.53323
N	4.55593	0.757811	-0.826448
C	4.10163	-0.294632	0.0479267
C	5.31203	-0.883934	0.747374
O	6.45097	-0.569108	0.407662
H	5.50353	0.689322	-1.12515
H	3.46117	0.127506	0.812275
C	3.35052	-1.3858	-0.746061
H	4.01047	-1.82655	-1.5234
H	2.98362	-2.19502	-0.0819283
H	2.47353	-0.930556	-1.25593
N	5.09129	-1.7528	1.75354
C	6.18153	-2.36011	2.48067
H	4.16253	-1.99205	2.01665
H	5.79602	-3.04378	3.26885
H	6.81	-1.58077	2.96949
H	6.83268	-2.94807	1.79406
