%nprocshared=1
%mem=8GB
%chk=C:\Users\Tao\Desktop\SSH\Result\0428-GC\opt-g-final.chk
# opt b3lyp/6-31g geom=connectivity

Title Card Required

0 1
 C                 -0.20997600    1.46783800   -0.00007300
 O                 -0.18000700    2.71099400    0.00010300
 N                 -1.49155600    0.80244800   -0.00004900
 C                 -1.69562600   -0.56412400   -0.00022400
 H                 -2.27563100    1.44338800   -0.00027200
 N                 -2.98186600   -1.02010800    0.00016500
 H                 -3.78144100   -0.41147300   -0.00010200
 H                 -3.12001000   -2.01683100    0.00055800
 N                 -0.70009200   -1.44189000   -0.00016600
 C                  0.53546900   -0.86183900    0.00008900
 C                  0.84933800    0.50300300    0.00010400
 N                  2.23424800    0.68454900   -0.00006100
 C                  2.74103400   -0.53688400   -0.00000900
 N                  1.74506600   -1.51809600    0.00004500
 H                  3.78990900   -0.78104600    0.00006200
 H                  1.86519500   -2.51828300    0.00007000

 1 2 2.0 3 1.0 11 1.5
 2
 3 4 1.5 5 1.0
 4 6 1.5 9 1.5
 5
 6 7 1.0 8 1.0
 7
 8
 9 10 1.5
 10 11 1.5 14 1.5
 11 12 1.0
 12 13 2.0
 13 14 1.0 15 1.0
 14 16 1.0
 15
 16

