%nprocshared=1
%mem=8GB
%chk=C:\Users\Tao\Desktop\SSH\Result\0428-GC\opt-c-final.chk
# opt b3lyp/6-31g geom=connectivity

Title Card Required

0 1
 C                  1.16548500   -0.20730000   -0.00000200
 N                  2.46594000   -0.76324500   -0.00000200
 H                  2.59143500   -1.78582200    0.00005000
 H                  3.29781800   -0.15487800   -0.00004000
 N                  0.07952000   -1.02557300    0.00000000
 C                 -1.18057800   -0.51666900    0.00000500
 O                 -2.13788700   -1.26963200   -0.00000600
 N                 -1.37286100    0.84327400    0.00000200
 C                 -0.30939800    1.68981900    0.00000000
 H                 -2.34173900    1.23532300   -0.00000500
 C                  0.98751100    1.17929000    0.00000000
 H                 -0.46855500    2.76075300    0.00000500
 H                  1.83782600    1.84964200    0.00000400

 1 2 1.0 5 1.5 11 1.5
 2 3 1.0 4 1.0
 3
 4
 5 6 1.5
 6 7 2.0 8 1.5
 7
 8 9 1.5 10 1.0
 9 11 1.5 12 1.0
 10
 11 13 1.0
 12
 13

