30
  This energy is -0.0033007 and Call times are: 304
C	0.998612	0.241788	0.929163
N	1.81119	-0.763062	0.50718
C	1.41146	-1.53845	-0.530049
C	-0.231484	0.434819	0.265863
C	-0.523024	-0.439916	-0.79379
N	0.262898	-1.44504	-1.23451
H	2.09588	-2.32355	-0.825413
N	1.40273	1.01401	1.96634
H	2.29305	0.822378	2.39552
H	0.823604	1.76563	2.30185
N	-1.2682	1.35665	0.451106
C	-2.16243	1.04258	-0.476578
N	-1.7632	-0.0377296	-1.25902
H	-3.10094	1.5487	-0.630836
H	-2.26526	-0.461557	-2.02251
C	8.14982	-1.47906	-1.4274
C	7.12003	-0.577406	-0.809356
H	7.78681	-2.51223	-1.47419
H	9.06439	-1.49896	-0.823617
H	8.40808	-1.15456	-2.43994
C	6.67071	-0.883568	0.551077
C	6.58511	0.499567	-1.43778
N	5.63442	1.31311	-0.83846
H	6.87169	0.782912	-2.4431
N	5.70384	0.000743451	1.07245
C	5.14215	1.10843	0.448658
H	5.37905	-0.192227	2.01196
H	5.25131	2.10893	-1.32657
O	4.28992	1.84569	0.974065
O	7.0817	-1.84119	1.2371
