30
  This energy is -0.00282895 and Call times are: 146
C	1.11379	0.765606	0.303881
N	1.50885	0.933266	-0.986038
C	0.774302	0.36967	-1.97581
C	-0.0493352	0.00853127	0.55752
C	-0.71664	-0.519697	-0.559932
N	-0.348679	-0.370128	-1.85005
H	1.13312	0.534101	-2.9839
N	1.85145	1.33097	1.28957
H	2.67121	1.85926	1.03958
H	1.58497	1.22492	2.25427
N	-0.70662	-0.341865	1.74245
C	-1.7455	-1.06441	1.34553
N	-1.80099	-1.20432	-0.0386684
H	-2.48024	-1.50605	1.99812
H	-2.48956	-1.70377	-0.578134
C	7.20192	1.15455	-2.22128
C	6.4049	0.471387	-1.14728
H	8.22852	0.771519	-2.24931
H	7.2778	2.23055	-2.02673
H	6.74935	1.01002	-3.20695
C	6.88625	0.57509	0.232551
C	5.26952	-0.233204	-1.38263
N	4.55599	-0.853307	-0.36715
H	4.8581	-0.350044	-2.37769
N	6.09318	-0.0880301	1.19172
C	4.92845	-0.814593	0.974739
H	6.40758	-0.0292236	2.1525
H	3.71382	-1.37194	-0.567456
O	4.27944	-1.37483	1.8752
O	7.91288	1.19129	0.583132
