30
  This energy is -0.00664046 and Call times are: 1607
C	-0.657191	-1.21479	0.106902
N	-0.936125	-1.0925	1.43178
C	-0.528589	0.0210584	2.0881
C	0.0478326	-0.172167	-0.530477
C	0.410903	0.925842	0.266753
N	0.148193	1.07484	1.58241
H	-0.776572	0.0674258	3.1409
N	-1.06672	-2.32978	-0.54458
H	-1.56595	-3.03642	-0.0297729
H	-0.875473	-2.44971	-1.52537
N	0.480396	0.00478512	-1.84973
C	1.08966	1.18277	-1.84496
N	1.07751	1.78512	-0.589694
H	1.55117	1.64653	-2.70094
H	1.47227	2.67528	-0.332039
C	7.09246	-2.39724	0.0832259
C	6.22405	-1.17594	0.181752
H	8.15058	-2.13428	0.195597
H	6.99315	-2.86875	-0.90126
H	6.83345	-3.13384	0.849763
C	6.45081	-0.0957064	-0.78161
C	5.24607	-1.01801	1.10887
N	4.46074	0.123903	1.17325
H	5.02521	-1.77605	1.85026
N	5.60278	1.02142	-0.634759
C	4.59594	1.20536	0.305459
H	5.74214	1.78025	-1.29062
H	3.7391	0.217937	1.87235
O	3.885	2.22308	0.374143
O	7.31488	-0.115085	-1.68138
