30
  This energy is -0.00308619 and Call times are: 5782
C	-0.444236	-1.27719	0.300776
N	-1.20557	-0.900536	1.36218
C	-1.25357	0.410336	1.70299
C	0.266324	-0.282359	-0.403337
C	0.128418	1.03809	0.0553866
N	-0.619003	1.44155	1.10456
H	-1.87444	0.655395	2.55535
N	-0.399598	-2.5887	-0.0358374
H	-0.931165	-3.24757	0.509071
H	0.154812	-2.89893	-0.816407
N	1.1178	-0.338467	-1.51271
C	1.48314	0.920179	-1.71574
N	0.913877	1.79648	-0.795573
H	2.14468	1.25635	-2.49684
H	1.03663	2.79477	-0.741355
C	7.48649	1.93975	0.836099
C	6.64076	0.78022	0.39377
H	7.09502	2.37833	1.76119
H	7.47683	2.73886	0.0859553
H	8.52343	1.63502	1.00684
C	5.22277	1.03123	0.124132
C	7.11446	-0.480739	0.230941
N	6.30594	-1.53096	-0.179144
H	8.15117	-0.736209	0.412722
N	4.48535	-0.0983055	-0.287008
C	4.94805	-1.3973	-0.460491
H	3.5026	0.052558	-0.478972
H	6.6818	-2.46052	-0.29316
O	4.23474	-2.34723	-0.827535
O	4.66345	2.14095	0.23485
