30
  This energy is 0.000173685 and Call times are: 6881
C	-0.378788	-0.953	0.931311
N	-1.25869	-1.58836	0.112679
C	-1.42993	-1.12777	-1.15041
C	0.321345	0.163678	0.428115
C	0.0493424	0.535662	-0.898785
N	-0.81751	-0.0749833	-1.73416
H	-2.14191	-1.67007	-1.75955
N	-0.211233	-1.41729	2.19294
H	-0.742677	-2.21947	2.48904
H	0.432753	-0.9686	2.82291
N	1.27259	1.01629	0.999993
C	1.56537	1.88105	0.0380404
N	0.853971	1.63729	-1.13378
H	2.27027	2.69119	0.124914
H	0.900598	2.15166	-1.99856
C	7.47256	1.84287	-0.739742
C	6.38533	0.829906	-0.522343
H	8.41248	1.51104	-0.283831
H	7.21779	2.79733	-0.264893
H	7.64591	2.01957	-1.80556
C	6.03657	0.486282	0.858484
C	5.71152	0.21814	-1.52865
N	4.71148	-0.714406	-1.29386
H	5.91829	0.424904	-2.57151
N	5.00901	-0.470101	0.993166
C	4.30568	-1.10923	-0.0209346
H	4.75168	-0.722452	1.93948
H	4.22443	-1.15599	-2.05945
O	3.40751	-1.94628	0.175402
O	6.57753	0.97463	1.87113
