30
  This energy is 7.5288e-05 and Call times are: 10549
C	-0.596552	-0.211919	1.23217
N	-0.0439029	0.876706	1.83012
C	0.781134	1.67372	1.10837
C	-0.28578	-0.466038	-0.12031
C	0.583089	0.439777	-0.750857
N	1.14632	1.52757	-0.183711
H	1.19369	2.52635	1.63264
N	-1.42056	-1.00543	1.95792
H	-1.60064	-0.767014	2.91934
H	-1.84507	-1.81851	1.5437
N	-0.679693	-1.47692	-1.00451
C	-0.0612187	-1.18477	-2.14074
N	0.717085	-0.0342704	-2.04452
H	-0.134121	-1.75526	-3.05178
H	1.27813	0.389501	-2.76579
C	15.8691	-0.297001	-2.50199
C	15.1945	-0.319913	-1.1604
H	16.8698	0.144181	-2.42859
H	15.3082	0.323142	-3.21066
H	15.9624	-1.30435	-2.91887
C	14.996	0.958304	-0.472544
C	14.761	-1.45298	-0.552822
N	14.1412	-1.43996	0.688318
H	14.8757	-2.43067	-1.00452
N	14.3575	0.867238	0.781537
C	13.9055	-0.279893	1.4229
H	14.21	1.73928	1.27468
H	13.8272	-2.29643	1.11992
O	13.3485	-0.282404	2.53448
O	15.3468	2.06875	-0.920226
