30
  This energy is -2.249e-06 and Call times are: 3703
C	0.175197	0.652929	1.20914
N	-0.283395	-0.372297	1.97509
C	-0.693025	-1.5127	1.36802
C	0.204967	0.484505	-0.191256
C	-0.248491	-0.747786	-0.690109
N	-0.708667	-1.78243	0.0446882
H	-1.04864	-2.29686	2.02427
N	0.58348	1.79072	1.82077
H	0.535961	1.84537	2.82494
H	0.928064	2.56734	1.2813
N	0.609852	1.32594	-1.23381
C	0.404161	0.614886	-2.33426
N	-0.114631	-0.648706	-2.06434
H	0.606403	0.951226	-3.33762
H	-0.353935	-1.36852	-2.72706
C	16.5104	1.07316	2.24046
C	17.3479	0.473858	1.14738
H	15.6004	0.484129	2.40286
H	16.1816	2.08353	1.97126
H	17.0634	1.12656	3.18308
C	16.7435	0.335812	-0.180021
C	18.6269	0.0550412	1.31997
N	19.3741	-0.495064	0.288532
H	19.1346	0.127471	2.27395
N	17.5822	-0.233548	-1.16037
C	18.893	-0.669251	-1.00727
H	17.1845	-0.338254	-2.08572
H	20.324	-0.799303	0.441764
O	19.5738	-1.16364	-1.92274
O	15.5803	0.680627	-0.471085
