30
  This energy is -0.00254548 and Call times are: 5885
C	-0.356304	-1.32949	-0.156675
N	-0.997315	-1.15067	-1.34209
C	-1.05297	0.0934262	-1.87684
C	0.226016	-0.206797	0.468495
C	0.0950802	1.02499	-0.193762
N	-0.534615	1.2328	-1.36955
H	-1.57498	0.179762	-2.82135
N	-0.303455	-2.575	0.373659
H	-0.740097	-3.33312	-0.124536
H	0.16376	-2.73964	1.24973
N	0.9386	-0.0570389	1.66376
C	1.22916	1.23583	1.71817
N	0.742823	1.93911	0.619286
H	1.77829	1.71592	2.51109
H	0.833639	2.92463	0.431928
C	4.67891	-0.64644	2.32315
C	5.57706	-0.402771	1.14442
H	3.73816	-1.11218	2.00775
H	4.40926	0.297578	2.81049
H	5.15805	-1.29545	3.06238
C	5.07377	0.451531	0.0658761
C	6.82247	-0.927359	1.02329
N	7.62763	-0.682786	-0.0797731
H	7.25623	-1.56666	1.78239
N	5.96535	0.639908	-1.01036
C	7.24343	0.113803	-1.15622
H	5.63774	1.2274	-1.76729
H	8.5509	-1.08455	-0.146855
O	7.97529	0.325012	-2.13891
O	3.95029	0.993955	0.053838
