30
  This energy is -0.000811866 and Call times are: 6815
C	-0.274691	1.35232	0.121632
N	-1.45708	1.30276	-0.547367
C	-1.88866	0.112013	-1.02977
C	0.455389	0.156297	0.285532
C	-0.106128	-1.0081	-0.26393
N	-1.27626	-1.08784	-0.932224
H	-2.83568	0.128896	-1.5541
N	0.152295	2.54498	0.601862
H	-0.417552	3.36096	0.450054
H	1.0233	2.61424	1.10133
N	1.67649	-0.125186	0.908855
C	1.84462	-1.42952	0.737587
N	0.79558	-2.01528	0.0339789
H	2.688	-1.99861	1.09198
H	0.692471	-2.98444	-0.220359
C	4.86234	1.78361	1.65152
C	5.73012	0.814745	0.900729
H	3.85315	1.37864	1.78907
H	4.74725	2.71929	1.09237
H	5.28164	2.01523	2.63529
C	5.2994	0.406498	-0.438754
C	6.88504	0.29886	1.39158
N	7.66442	-0.595219	0.671821
H	7.26168	0.557408	2.3736
N	6.15784	-0.503959	-1.08902
C	7.34374	-1.04519	-0.607083
H	5.87925	-0.799635	-2.01659
H	8.51989	-0.965201	1.05863
O	8.05156	-1.84681	-1.24135
O	4.26145	0.805568	-1.0044
