30
  This energy is -0.00167521 and Call times are: 5658
C	-0.16743	-1.18211	-0.702577
N	-1.41411	-0.885199	-1.15611
C	-1.97422	0.298883	-0.808159
C	0.492443	-0.240217	0.114594
C	-0.201823	0.947325	0.39878
N	-1.43833	1.26931	-0.0366115
H	-2.96766	0.484786	-1.19619
N	0.388029	-2.36697	-1.05321
H	-0.137552	-2.9943	-1.63956
H	1.30932	-2.61572	-0.733457
N	1.75014	-0.241681	0.728651
C	1.80991	0.919066	1.36738
N	0.655285	1.67948	1.20224
H	2.64499	1.26176	1.95556
H	0.460122	2.59045	1.58518
C	6.12466	2.63981	0.103839
C	5.71277	1.19945	0.209277
H	5.2472	3.29287	0.0333001
H	6.71318	2.81228	-0.804615
H	6.72006	2.94881	0.968286
C	4.90759	0.636804	-0.877697
C	6.04307	0.394225	1.25016
N	5.64609	-0.933448	1.31753
H	6.63542	0.744927	2.08634
N	4.55462	-0.719088	-0.717523
C	4.88073	-1.5624	0.337961
H	3.99787	-1.1286	-1.45762
H	5.90451	-1.51252	2.10254
O	4.53188	-2.75358	0.410749
O	4.53739	1.26761	-1.88844
