30
  This energy is 0.000154522 and Call times are: 10769
C	0.942988	1.00641	-0.130165
N	1.86601	0.234932	-0.763351
C	1.57649	-1.06609	-1.00903
C	-0.282198	0.416407	0.24557
C	-0.453295	-0.941756	-0.0692957
N	0.443757	-1.73191	-0.696296
H	2.34599	-1.6348	-1.51546
N	1.23721	2.30627	0.11308
H	2.13071	2.66458	-0.181651
H	0.574771	2.90304	0.579918
N	-1.41315	0.92394	0.895356
C	-2.24493	-0.106394	0.969107
N	-1.71542	-1.26186	0.400604
H	-3.2262	-0.081584	1.41324
H	-2.15034	-2.16791	0.333406
C	15.8655	-0.250433	0.630647
C	14.3925	-0.292139	0.341068
H	16.0939	0.511129	1.38515
H	16.4324	0.0226362	-0.266803
H	16.2288	-1.21757	0.99108
C	13.7572	0.932568	-0.151772
C	13.621	-1.39546	0.509821
N	12.2615	-1.4009	0.23303
H	14.0254	-2.33327	0.870494
N	12.3738	0.82631	-0.403848
C	11.564	-0.291078	-0.238754
H	11.9141	1.66145	-0.745457
H	11.7087	-2.2345	0.366617
O	10.345	-0.309721	-0.483087
O	14.3512	2.01169	-0.349777
