30
  This energy is 0.000220742 and Call times are: 11632
C	-1.27679	-0.53091	0.0834967
N	-1.89319	0.526048	-0.508928
C	-1.14349	1.57945	-0.915294
C	0.123356	-0.485193	0.250414
C	0.778883	0.666265	-0.215902
N	0.194391	1.72973	-0.807158
H	-1.68421	2.39379	-1.38061
N	-2.03062	-1.58141	0.487904
H	-3.02577	-1.55017	0.338561
H	-1.60378	-2.37865	0.929619
N	1.03644	-1.38736	0.808297
C	2.21408	-0.791059	0.679914
N	2.11752	0.455143	0.0664599
H	3.15615	-1.20084	1.00448
H	2.86572	1.09662	-0.141637
C	12.965	-2.65984	0.378652
C	13.2937	-1.19527	0.329366
H	13.8786	-3.26408	0.419003
H	12.4278	-2.97022	-0.52494
H	12.349	-2.90137	1.25014
C	14.1152	-0.7156	-0.784814
C	12.8743	-0.296055	1.25484
N	13.1959	1.0515	1.18047
H	12.2649	-0.582033	2.10331
N	14.3872	0.668068	-0.772083
C	13.9693	1.60698	0.163549
H	14.9536	1.02136	-1.53349
H	12.8719	1.70115	1.8814
O	14.25	2.81699	0.108805
O	14.5636	-1.43605	-1.69939
