30
  This energy is -0.0034815 and Call times are: 1974
C	-0.606713	-0.645984	-1.06472
N	-1.84967	-0.151836	-0.821926
C	-2.02997	0.682665	0.230664
C	0.446726	-0.266854	-0.206301
C	0.122417	0.604213	0.846831
N	-1.10049	1.11036	1.11234
H	-3.03868	1.04688	0.378616
N	-0.431727	-1.47974	-2.1181
H	-1.22656	-1.71008	-2.69148
H	0.47625	-1.86202	-2.32387
N	1.80793	-0.591609	-0.183579
C	2.2904	0.0696465	0.859903
N	1.31393	0.810285	1.52068
H	3.31789	0.0543562	1.1836
H	1.43047	1.39159	2.33499
C	5.88398	-2.64195	-0.641019
C	6.08723	-1.1763	-0.384133
H	5.83264	-3.20019	0.30086
H	6.72638	-3.06038	-1.20375
H	4.96394	-2.82441	-1.20448
C	7.28125	-0.77167	0.362178
C	5.23069	-0.210797	-0.802549
N	5.44751	1.13577	-0.548402
H	4.3297	-0.439386	-1.35844
N	7.41239	0.617089	0.56914
C	6.54956	1.62311	0.150795
H	8.23101	0.919173	1.08297
H	4.79552	1.83553	-0.870248
O	6.73189	2.83305	0.371486
O	8.14523	-1.55712	0.801694
