30
  This energy is -0.00294085 and Call times are: 2246
C	0.866121	-1.02549	-0.342386
N	1.84755	-0.211302	-0.813506
C	1.65711	1.13025	-0.785183
C	-0.313793	-0.435777	0.158014
C	-0.3815	0.966936	0.129131
N	0.575392	1.80002	-0.331861
H	2.46964	1.73197	-1.17218
N	1.06135	-2.36576	-0.372896
H	1.92731	-2.72136	-0.743393
H	0.353712	-2.9947	-0.0314423
N	-1.48301	-0.980346	0.701377
C	-2.23613	0.0718056	0.992344
N	-1.61888	1.27669	0.66689
H	-3.21898	0.0293839	1.43162
H	-1.98473	2.20698	0.790596
C	5.40255	2.78721	0.157571
C	5.3878	1.30502	-0.0839516
H	5.8886	3.02276	1.11134
H	4.38232	3.18235	0.223741
H	5.92974	3.31648	-0.641925
C	4.71533	0.457539	0.903952
C	5.95995	0.710039	-1.16078
N	5.92885	-0.663396	-1.35458
H	6.47292	1.27599	-1.92865
N	4.73745	-0.923231	0.618171
C	5.31621	-1.55461	-0.476344
H	4.27811	-1.52785	1.28813
H	6.36183	-1.08257	-2.164
O	5.29549	-2.78381	-0.662263
O	4.15163	0.877202	1.93482
