30
  This energy is 0.00213351 and Call times are: 7013
C	-1.3313	0.322034	0.207279
N	-1.14866	1.66751	0.140966
C	0.099167	2.15049	-0.0747076
C	-0.208545	-0.517249	0.0479429
C	1.02732	0.113807	-0.169826
N	1.23898	1.44512	-0.240463
H	0.18846	3.22851	-0.118582
N	-2.58053	-0.155702	0.423038
H	-3.33847	0.498567	0.52821
H	-2.74806	-1.14661	0.477234
N	-0.0620838	-1.90909	0.0621097
C	1.23284	-2.1095	-0.142581
N	1.94059	-0.919516	-0.289876
H	1.7114	-3.0734	-0.193974
H	2.92836	-0.808875	-0.453197
C	8.70197	-2.32631	-1.51617
C	8.36088	-1.15705	-0.637589
H	9.68633	-2.73411	-1.25903
H	8.75774	-2.02169	-2.5676
H	7.95944	-3.12467	-1.42391
C	9.26462	-0.0040317	-0.651788
C	7.26779	-1.1094	0.164788
N	6.98102	-0.0131809	0.965364
H	6.55875	-1.92599	0.223983
N	8.88756	1.05906	0.194585
C	7.77463	1.13035	1.02396
H	9.49831	1.86675	0.200331
H	6.16137	-0.0014179	1.5539
O	7.50579	2.10621	1.74598
O	10.3004	0.0791735	-1.34231
