30
  This energy is -0.00478049 and Call times are: 6220
C	-0.571955	-1.02494	-0.735798
N	-1.79487	-0.936069	-0.14872
C	-1.99373	-0.0046179	0.815487
C	0.442035	-0.139417	-0.313853
C	0.102065	0.777422	0.694536
N	-1.10168	0.888899	1.29515
H	-2.98514	0.023183	1.24951
N	-0.378279	-1.95765	-1.69907
H	-1.14491	-2.55871	-1.95323
H	0.515656	-2.04823	-2.15248
N	1.7752	0.0238451	-0.707406
C	2.22587	1.01658	0.0477537
N	1.25522	1.51078	0.915096
H	3.22572	1.41659	0.0155519
H	1.35222	2.25822	1.58332
C	6.2502	2.28932	-1.2212
C	6.94414	1.06599	-0.694573
H	6.20205	3.07147	-0.454832
H	5.21418	2.06213	-1.49767
H	6.76423	2.6929	-2.09877
C	6.37199	0.408493	0.483026
C	8.06608	0.538502	-1.24589
N	8.68351	-0.593802	-0.734505
H	8.54132	0.97362	-2.11645
N	7.07078	-0.733385	0.926306
C	8.2199	-1.29133	0.378782
H	6.69246	-1.20384	1.7393
H	9.51758	-0.967355	-1.16245
O	8.78302	-2.30532	0.82671
O	5.34706	0.790601	1.08309
