30
  This energy is -0.000490434 and Call times are: 10615
C	0.281937	1.28817	0.424461
N	0.762179	1.71477	-0.77364
C	0.790981	0.848112	-1.81523
C	-0.167821	-0.0446807	0.532142
C	-0.0822695	-0.836737	-0.624728
N	0.389156	-0.441312	-1.82622
H	1.18269	1.23913	-2.74567
N	0.255261	2.15832	1.46248
H	0.591625	3.09615	1.31786
H	-0.0944135	1.87261	2.36193
N	-0.705342	-0.775293	1.59804
C	-0.937446	-1.97928	1.09264
N	-0.579044	-2.07313	-0.249531
H	-1.3555	-2.81056	1.63574
H	-0.657692	-2.87713	-0.851202
C	7.03489	0.292543	0.803753
C	8.40908	0.190412	0.206597
H	7.02633	0.993183	1.64662
H	6.70912	-0.675293	1.20194
H	6.30237	0.628999	0.0638547
C	9.50225	-0.24987	1.07696
C	8.69317	0.481947	-1.08771
N	9.97472	0.3774	-1.60882
H	7.93362	0.812771	-1.78535
N	10.7658	-0.324376	0.455241
C	11.0804	-0.0313249	-0.866387
H	11.5362	-0.626802	1.03872
H	10.161	0.599953	-2.57532
O	12.224	-0.120903	-1.34614
O	9.37597	-0.547644	2.28193
