30
  This energy is 3.1658e-05 and Call times are: 10153
C	-1.04413	0.189423	-0.890479
N	-1.71557	1.07896	-0.112046
C	-1.19701	1.41846	1.09323
C	0.169251	-0.344331	-0.407585
C	0.593313	0.0925231	0.858255
N	-0.0511815	0.973221	1.65272
H	-1.77164	2.1302	1.67225
N	-1.56666	-0.14665	-2.09438
H	-2.43718	0.271445	-2.37895
H	-1.09337	-0.802334	-2.69353
N	1.07932	-1.25879	-0.950184
C	2.02877	-1.36871	-0.0307578
N	1.78586	-0.572645	1.08546
H	2.90132	-1.99556	-0.111193
H	2.35561	-0.482883	1.91125
C	17.666	-2.23962	-0.207418
C	16.7176	-1.1074	0.0646304
H	18.6909	-1.87027	-0.328045
H	17.408	-2.74902	-1.14302
H	17.6537	-2.97396	0.603657
C	16.6211	-0.0405715	-0.934854
C	15.949	-1.01787	1.17916
N	15.0822	0.0425109	1.4007
H	15.9706	-1.77056	1.95766
N	15.7135	0.991542	-0.619049
C	14.917	1.10451	0.514251
H	15.6309	1.73964	-1.29649
H	14.5205	0.0866568	2.23794
O	14.1362	2.04882	0.725112
O	17.2706	-0.00266485	-1.99941
