30
  This energy is 2.2529e-05 and Call times are: 4605
C	0.156248	1.29634	0.462736
N	-0.608327	1.12786	1.57409
C	-1.17447	-0.0819071	1.80386
C	0.328058	0.199242	-0.40745
C	-0.314322	-0.997901	-0.0507754
N	-1.07848	-1.19469	1.04445
H	-1.77299	-0.161444	2.70247
N	0.719936	2.50751	0.237592
H	0.557056	3.24871	0.899165
H	1.29117	2.66368	-0.576167
N	1.03623	0.0474852	-1.60509
C	0.823915	-1.21267	-1.95979
N	0.0129376	-1.89266	-1.05503
H	1.2213	-1.68438	-2.84316
H	-0.289933	-2.85213	-1.10283
C	23.3804	2.68328	-0.341369
C	23.7357	1.22411	-0.337961
H	24.2221	3.29109	0.0100133
H	22.5468	2.88392	0.34152
H	23.0996	3.02318	-1.3428
C	24.1341	0.619961	0.935876
C	23.7085	0.43809	-1.44357
N	24.0431	-0.907833	-1.4067
H	23.4238	0.819458	-2.41648
N	24.4545	-0.751789	0.870375
C	24.4341	-1.57603	-0.24845
H	24.7327	-1.18995	1.7399
H	24.0151	-1.47199	-2.24294
O	24.7312	-2.7832	-0.229381
O	24.2002	1.22981	2.02228
