30
  This energy is 0.00031242 and Call times are: 7997
C	1.28123	0.0652496	-0.5227
N	1.55661	-1.25475	-0.349939
C	0.610505	-2.05632	0.197056
C	0.0164004	0.5458	-0.123161
C	-0.871062	-0.392166	0.429697
N	-0.625932	-1.70684	0.613332
H	0.881564	-3.09812	0.312075
N	2.23028	0.862274	-1.06989
H	3.1126	0.455135	-1.33323
H	2.05666	1.84357	-1.21067
N	-0.564911	1.8183	-0.16429
C	-1.77451	1.64839	0.352331
N	-2.01374	0.329522	0.729194
H	-2.51041	2.42509	0.478551
H	-2.85087	-0.048691	1.14243
C	14.8947	1.15786	-0.998078
C	13.5467	0.669841	-0.550819
H	15.4229	0.382039	-1.5642
H	15.5284	1.3987	-0.136809
H	14.8079	2.0493	-1.62659
C	13.4983	-0.52086	0.301406
C	12.3768	1.26727	-0.890564
N	11.1468	0.79074	-0.460489
H	12.3397	2.14997	-1.51709
N	12.2035	-0.926272	0.68584
C	10.993	-0.331313	0.350814
H	12.1466	-1.74753	1.27551
H	10.2901	1.25276	-0.726686
O	9.88423	-0.747669	0.729351
O	14.4975	-1.16193	0.684898
