30
  This energy is 6.5428e-05 and Call times are: 9009
C	-1.20926	-0.455891	0.498878
N	-1.64026	-0.985794	-0.676501
C	-0.843917	-0.893074	-1.76925
C	0.0544115	0.170608	0.530347
C	0.777526	0.197334	-0.673568
N	0.375961	-0.319583	-1.85413
H	-1.23513	-1.3313	-2.67862
N	-2.00898	-0.55118	1.58825
H	-2.89971	-1.0115	1.49715
H	-1.71813	-0.168822	2.47262
N	0.77006	0.799034	1.55592
C	1.89782	1.19437	0.9808
N	1.95603	0.856426	-0.368673
H	2.6968	1.71983	1.47706
H	2.7031	1.04564	-1.01728
C	19.1578	-0.758552	-2.13593
C	19.8841	-0.322256	-0.895964
H	19.4453	-1.77771	-2.41887
H	19.4157	-0.116483	-2.986
H	18.0732	-0.729452	-1.99408
C	21.3487	-0.307436	-0.930467
C	19.2625	0.0569222	0.248901
N	19.9634	0.454748	1.37821
H	18.1836	0.0694652	0.343411
N	21.9687	0.111656	0.264803
C	21.3539	0.503968	1.4479
H	22.9812	0.129589	0.263125
H	19.4781	0.732515	2.21829
O	21.9697	0.862799	2.46672
O	22.0401	-0.631341	-1.91721
