30
  This energy is 5.986e-06 and Call times are: 8569
C	-0.0331203	1.33732	0.359862
N	1.12812	1.30795	1.06606
C	1.81242	0.141507	1.15547
C	-0.477716	0.146538	-0.252289
C	0.327132	-0.991793	-0.0807024
N	1.48315	-1.05111	0.613767
H	2.72993	0.173745	1.72922
N	-0.713373	2.50572	0.273492
H	-0.340246	3.31931	0.734416
H	-1.57607	2.55964	-0.242023
N	-1.6031	-0.150995	-1.02937
C	-1.47697	-1.43926	-1.31806
N	-0.326366	-1.99928	-0.769281
H	-2.17102	-2.01403	-1.90855
H	-0.0108172	-2.95276	-0.846215
C	20.8075	0.564291	-1.75341
C	19.5987	0.415442	-0.874745
H	20.9185	-0.302358	-2.41523
H	21.723	0.6149	-1.15291
H	20.7446	1.46669	-2.36901
C	19.5366	-0.749268	0.0118158
C	18.5659	1.29519	-0.856504
N	17.4624	1.12848	-0.0322935
H	18.5469	2.17667	-1.48555
N	18.3765	-0.829653	0.809605
C	17.3074	0.0577043	0.845382
H	18.3128	-1.62718	1.43033
H	16.7064	1.79697	-0.036715
O	16.313	-0.0795232	1.57898
O	20.4167	-1.62994	0.0916213
