30
  This energy is -7.2526e-05 and Call times are: 8613
C	-1.35403	0.0459018	0.289026
N	-1.53357	-1.30152	0.272206
C	-0.470747	-2.10195	0.0141975
C	-0.0628747	0.555059	0.035948
C	0.949618	-0.385079	-0.217079
N	0.80147	-1.7266	-0.240316
H	-0.668991	-3.16625	0.012879
N	-2.41956	0.841654	0.54742
H	-3.31423	0.413305	0.719705
H	-2.31882	1.84284	0.566844
N	0.442648	1.85905	-0.0181347
C	1.73002	1.70552	-0.297409
N	2.09204	0.367468	-0.428698
H	2.4397	2.50753	-0.415239
H	3.00477	-0.00395716	-0.637399
C	15.5116	-1.94379	0.319958
C	16.6597	-0.975958	0.294585
H	15.4497	-2.50119	-0.62178
H	14.5577	-1.41541	0.430641
H	15.6109	-2.65905	1.14202
C	16.6684	0.0477786	-0.753404
C	17.6843	-0.996927	1.18374
N	18.7311	-0.0877882	1.13266
H	17.7408	-1.72585	1.98284
N	17.773	0.923975	-0.721253
C	18.8326	0.921835	0.178066
H	17.7992	1.63989	-1.43693
H	19.4821	-0.123724	1.80571
O	19.7764	1.73047	0.143828
O	15.7896	0.176006	-1.6296
