30
  This energy is -2.8137e-05 and Call times are: 8503
C	0.161232	1.2313	0.613948
N	-0.913721	1.10517	1.43653
C	-1.65944	-0.0247647	1.3732
C	0.455353	0.175401	-0.274269
C	-0.398912	-0.939	-0.237342
N	-1.47196	-1.09219	0.567188
H	-2.50335	-0.0734919	2.04957
N	0.903407	2.36268	0.681123
H	0.638415	3.07819	1.33795
H	1.70513	2.48587	0.0853311
N	1.46526	-0.00182401	-1.22692
C	1.22295	-1.196	-1.75047
N	0.105979	-1.80869	-1.18864
H	1.80756	-1.66473	-2.52461
H	-0.278495	-2.7115	-1.41605
C	15.2619	0.318021	2.71272
C	15.0999	0.216861	1.22311
H	15.1629	-0.666523	3.18418
H	14.4799	0.950405	3.14863
H	16.2371	0.735824	2.9805
C	13.8406	-0.325871	0.707187
C	16.0502	0.598093	0.332904
N	15.8692	0.491269	-1.03847
H	17.0033	1.00702	0.645183
N	13.7527	-0.393948	-0.698628
C	14.7112	-0.0101621	-1.62892
H	12.8903	-0.766065	-1.07709
H	16.5913	0.781759	-1.68078
O	14.562	-0.100245	-2.85998
O	12.8891	-0.711546	1.41601
