30
  This energy is -0.000291815 and Call times are: 11676
C	0.777296	-0.587968	-0.984447
N	1.49577	0.531491	-1.26494
C	1.2332	1.66925	-0.576905
C	-0.215308	-0.516465	0.0155468
C	-0.384691	0.72455	0.651324
N	0.312596	1.85148	0.394426
H	1.83397	2.53068	-0.839699
N	1.0436	-1.72269	-1.67499
H	1.76574	-1.70541	-2.37627
H	0.528995	-2.5677	-1.49044
N	-1.10619	-1.46572	0.529458
C	-1.79526	-0.809482	1.45327
N	-1.40028	0.520607	1.56959
H	-2.57825	-1.23212	2.06076
H	-1.76944	1.21817	2.19547
C	7.70445	0.392201	0.377535
C	9.1446	0.203257	-0.00417177
H	7.59009	1.23928	1.06367
H	7.32163	-0.488503	0.905926
H	7.07854	0.569765	-0.502206
C	10.11	-0.0452303	1.06945
C	9.59918	0.24983	-1.28171
N	10.9374	0.0712577	-1.6011
H	8.94086	0.429378	-2.12281
N	11.4439	-0.213642	0.644115
C	11.9324	-0.170208	-0.6563
H	12.1283	-0.386698	1.37015
H	11.2513	0.110346	-2.55938
O	13.1285	-0.328697	-0.956356
O	9.82356	-0.112035	2.28191
