30
  This energy is -0.00332562 and Call times are: 2976
C	0.604846	1.23614	-0.158605
N	0.27118	1.37394	-1.46923
C	-0.437317	0.388904	-2.07304
C	0.197157	0.0680672	0.519453
C	-0.532099	-0.873746	-0.224989
N	-0.87766	-0.764474	-1.52531
H	-0.676251	0.549226	-3.11672
N	1.3131	2.22356	0.440344
H	1.5725	3.03148	-0.101473
H	1.57528	2.15096	1.40931
N	0.375303	-0.367956	1.83741
C	-0.233368	-1.54536	1.88351
N	-0.80047	-1.90144	0.66274
H	-0.297791	-2.17731	2.7537
H	-1.3123	-2.74127	0.445248
C	7.05058	1.46729	1.81029
C	6.37685	0.612074	0.775825
H	6.70351	1.20862	2.81728
H	6.80729	2.52554	1.66093
H	8.13815	1.35194	1.77652
C	4.91466	0.658377	0.696633
C	7.04368	-0.197229	-0.0851571
N	6.39079	-0.975651	-1.02995
H	8.12361	-0.279664	-0.0814182
N	4.34517	-0.167234	-0.294695
C	5.00671	-1.00316	-1.18641
H	3.33527	-0.150655	-0.367101
H	6.90912	-1.56991	-1.65966
O	4.43422	-1.70556	-2.03776
O	4.18475	1.3583	1.42732
