30
  This energy is 3.7959e-05 and Call times are: 9559
C	-0.879665	-0.73021	-0.782314
N	-0.523349	-1.94132	-0.278
C	0.434233	-1.99744	0.67946
C	-0.234057	0.421291	-0.284722
C	0.740243	0.221603	0.707188
N	1.11452	-0.966841	1.22651
H	0.679689	-2.98608	1.04606
N	-1.83735	-0.679474	-1.7392
H	-2.2583	-1.53957	-2.05006
H	-2.12293	0.201899	-2.1323
N	-0.367277	1.78153	-0.586144
C	0.507481	2.38533	0.207022
N	1.20594	1.48912	1.01177
H	0.679879	3.44812	0.245949
H	1.91789	1.70104	1.69208
C	20.3931	1.73905	1.18869
C	19.2869	0.858915	0.681613
H	20.7133	2.44803	0.416536
H	21.2765	1.14497	1.44949
H	20.0803	2.30404	2.07198
C	19.5545	0.0365277	-0.500954
C	18.0595	0.783504	1.25483
N	17.0583	-0.0403379	0.761132
H	17.7942	1.36345	2.13026
N	18.4754	-0.766141	-0.925152
C	17.2114	-0.859803	-0.35508
H	18.6386	-1.34309	-1.74119
H	16.1529	-0.0791247	1.20523
O	16.3055	-1.59379	-0.787002
O	20.6373	0.0127137	-1.12035
