30
  This energy is 5.34e-06 and Call times are: 8107
C	0.626376	0.136589	-1.22802
N	0.355391	1.46194	-1.36246
C	-0.336219	2.093	-0.382521
C	0.173717	-0.527683	-0.0686194
C	-0.531601	0.24503	0.868645
N	-0.815287	1.56049	0.762524
H	-0.524661	3.14741	-0.539854
N	1.31799	-0.489587	-2.21033
H	1.61189	0.043662	-3.01211
H	1.53417	-1.47001	-2.14002
N	0.285431	-1.85464	0.362151
C	-0.338853	-1.87837	1.53202
N	-0.853111	-0.634439	1.88816
H	-0.451073	-2.7478	2.15833
H	-1.36441	-0.397668	2.72309
C	16.1101	2.42131	-1.39125
C	16.3619	1.08921	-0.745103
H	16.1126	3.22415	-0.645027
H	15.1232	2.44403	-1.86757
H	16.8673	2.64711	-2.14816
C	15.4286	0.64502	0.293099
C	17.4008	0.278269	-1.06763
N	17.6057	-0.947541	-0.450988
H	18.1277	0.544455	-1.82513
N	15.7214	-0.613062	0.858938
C	16.7777	-1.46002	0.545313
H	15.0887	-0.93983	1.57889
H	18.3862	-1.5332	-0.708391
O	16.9728	-2.56069	1.08971
O	14.4361	1.29347	0.681708
