30
  This energy is 2.2837e-05 and Call times are: 8789
C	1.11731	0.800151	-0.174358
N	1.79325	0.310573	0.898722
C	1.21429	-0.653902	1.65466
C	-0.163722	0.280497	-0.455908
C	-0.646002	-0.716473	0.408082
N	0.00131049	-1.22154	1.47956
H	1.79551	-1.00811	2.49655
N	1.70037	1.76413	-0.926786
H	2.61748	2.09097	-0.670512
H	1.22551	2.14672	-1.72743
N	-1.09602	0.563185	-1.46078
C	-2.11548	-0.245936	-1.20601
N	-1.89725	-1.04334	-0.0856564
H	-3.0232	-0.301762	-1.78366
H	-2.51765	-1.73256	0.307631
C	20.0132	0.796162	2.58687
C	19.8089	0.335951	1.17198
H	19.4382	0.17767	3.28567
H	19.6575	1.82455	2.71832
H	21.0688	0.753784	2.87174
C	18.4427	0.336078	0.642998
C	20.8143	-0.0780768	0.360382
N	20.5919	-0.497749	-0.943166
H	21.8467	-0.103559	0.686779
N	18.3199	-0.106875	-0.690191
C	19.3333	-0.534988	-1.53945
H	17.3838	-0.114812	-1.07628
H	21.3565	-0.801256	-1.5276
O	19.148	-0.913281	-2.70926
O	17.4324	0.691655	1.2829
