30
  This energy is -0.000674888 and Call times are: 5182
C	-0.431523	0.997319	-0.859171
N	0.74489	1.10347	-1.53212
C	1.7803	0.305907	-1.17343
C	-0.523993	0.0569692	0.188472
C	0.624271	-0.70625	0.456814
N	1.80434	-0.623088	-0.193335
H	2.69329	0.431279	-1.74157
N	-1.46346	1.79679	-1.22155
H	-1.33053	2.44692	-1.97868
H	-2.34698	1.74195	-0.742706
N	-1.567	-0.289911	1.05489
C	-1.05656	-1.24025	1.82638
N	0.267163	-1.53246	1.50852
H	-1.5833	-1.74705	2.61787
H	0.868375	-2.2113	1.94706
C	8.41816	-1.32438	2.45618
C	8.15567	-0.528181	1.21015
H	9.423	-1.12217	2.84452
H	8.37679	-2.39981	2.24849
H	7.68932	-1.0926	3.23868
C	9.05123	-0.729468	0.0682858
C	7.14037	0.362948	1.08376
N	6.92503	1.08346	-0.0821459
H	6.4419	0.56053	1.88761
N	8.75025	0.0477123	-1.06929
C	7.71759	0.96528	-1.22178
H	9.3568	-0.0756907	-1.87072
H	6.16256	1.74084	-0.151859
O	7.51325	1.61719	-2.26061
O	10.0193	-1.51633	0.0538916
