30
  This energy is -0.000143973 and Call times are: 3241
C	0.997325	-0.00432889	-0.961434
N	2.02813	0.0291188	-0.0757704
C	1.75276	0.0517305	1.25107
C	-0.320762	-0.0140993	-0.458529
C	-0.465181	0.0119061	0.938428
N	0.537874	0.0452791	1.84117
H	2.6098	0.0780179	1.912
N	1.27786	-0.0268294	-2.28663
H	2.24134	-0.0181605	-2.57856
H	0.53673	-0.0517589	-2.96708
N	-1.57017	-0.0456908	-1.08849
C	-2.44545	-0.0388129	-0.0921276
N	-1.83195	-0.00433094	1.15731
H	-3.51658	-0.0573081	-0.206561
H	-2.2782	0.00714547	2.06027
C	11.8419	-1.98985	1.22371
C	10.936	-0.89797	0.731091
H	12.8941	-1.7224	1.07261
H	11.6747	-2.91788	0.664974
H	11.683	-2.19049	2.28753
C	11.0311	-0.514581	-0.679712
C	10.039	-0.249876	1.51609
N	9.21607	0.755636	1.02972
H	9.91668	-0.482687	2.56676
N	10.1542	0.515603	-1.07765
C	9.22853	1.19305	-0.292936
H	10.203	0.796495	-2.04931
H	8.55642	1.22306	1.63364
O	8.48512	2.09547	-0.715887
O	11.8115	-1.02984	-1.50558
