30
  This energy is 3.3604e-05 and Call times are: 3615
C	-0.221003	-1.11429	0.792807
N	0.352349	-1.99782	-0.066676
C	0.866174	-1.53871	-1.23374
C	-0.256456	0.248832	0.43087
C	0.31212	0.589653	-0.80751
N	0.887496	-0.264257	-1.68041
H	1.31069	-2.28407	-1.88095
N	-0.733148	-1.57823	1.95807
H	-0.674946	-2.56383	2.15502
H	-1.16401	-0.949215	2.61503
N	-0.762181	1.38302	1.0764
C	-0.50313	2.38272	0.244312
N	0.146266	1.95995	-0.9125
H	-0.75511	3.41581	0.417502
H	0.446844	2.52599	-1.68958
C	17.4165	0.59947	1.66774
C	16.2397	0.120892	0.866758
H	17.1939	1.55512	2.15619
H	18.2833	0.776614	1.02073
H	17.6981	-0.126948	2.43601
C	15.7433	0.987988	-0.204743
C	15.6137	-1.06393	1.0793
N	14.5278	-1.47701	0.320974
H	15.9281	-1.75254	1.85389
N	14.6375	0.480576	-0.917779
C	13.9807	-0.727909	-0.718468
H	14.2779	1.0639	-1.66335
H	14.0788	-2.36318	0.498331
O	13.007	-1.11023	-1.39057
O	16.2275	2.09859	-0.502605
