30
  This energy is -0.0052593 and Call times are: 11451
C	0.696847	0.876862	0.815198
N	-0.200668	0.842577	1.83567
C	-1.3067	0.0692723	1.71106
C	0.436752	0.102221	-0.334865
C	-0.746809	-0.654221	-0.333847
N	-1.65539	-0.708062	0.66303
H	-1.98799	0.0785208	2.55237
N	1.80079	1.6514	0.944657
H	1.92577	2.17976	1.79248
H	2.48368	1.6979	0.206818
N	1.14281	-0.0782005	-1.52976
C	0.399905	-0.924119	-2.23076
N	-0.75604	-1.30603	-1.55503
H	0.638835	-1.29182	-3.21487
H	-1.4748	-1.93499	-1.87503
C	4.55332	0.820723	-1.59767
C	5.77475	0.304857	-0.892399
H	4.48158	1.91077	-1.50794
H	3.64096	0.412044	-1.14827
H	4.5656	0.558884	-2.66
C	5.90275	0.576644	0.541527
C	6.76155	-0.395312	-1.50633
N	7.87832	-0.858076	-0.825506
H	6.73093	-0.631173	-2.56298
N	7.07141	0.0654934	1.14289
C	8.09419	-0.653238	0.5355
H	7.1803	0.241786	2.13409
H	8.59923	-1.37695	-1.30447
O	9.09985	-1.07382	1.13355
O	5.0692	1.20701	1.223
