30
  This energy is -2.1983e-05 and Call times are: 8987
C	0.639866	-0.0433782	1.22789
N	-0.416429	-0.568689	1.90344
C	-1.56314	-0.828063	1.22919
C	0.495884	0.210233	-0.152438
C	-0.746274	-0.105037	-0.727479
N	-1.81153	-0.626669	-0.0830427
H	-2.37244	-1.24554	1.81468
N	1.78384	0.214078	1.90641
H	1.81992	0.00934751	2.89149
H	2.58321	0.602933	1.4345
N	1.37083	0.733555	-1.11133
C	0.669815	0.732616	-2.23714
N	-0.619021	0.235302	-2.06322
H	1.03091	1.07245	-3.19364
H	-1.33741	0.133844	-2.76195
C	17.2963	-0.571379	1.6939
C	18.5288	-0.181805	0.929366
H	17.1626	-1.65928	1.69141
H	16.3983	-0.147758	1.22947
H	17.3458	-0.229046	2.73197
C	18.6107	-0.570813	-0.480728
C	19.5657	0.506837	1.46929
N	20.6914	0.851381	0.735108
H	19.5709	0.825304	2.50448
N	19.7925	-0.174884	-1.14041
C	20.8662	0.529691	-0.609077
H	19.8701	-0.433414	-2.11639
H	21.4499	1.36416	1.15933
O	21.8804	0.844958	-1.25554
O	17.7292	-1.2039	-1.0961
