30
  This energy is -0.000121138 and Call times are: 10417
C	1.2615	-0.322799	0.472714
N	1.81225	-0.515089	-0.755197
C	1.03863	-0.346137	-1.85511
C	-0.098079	0.0460784	0.549175
C	-0.784743	0.187414	-0.66801
N	-0.265211	0.0033768	-1.90024
H	1.52677	-0.511686	-2.80714
N	2.039	-0.492925	1.56903
H	3.00248	-0.756871	1.44402
H	1.66051	-0.357955	2.49176
N	-0.943361	0.312505	1.6324
C	-2.11162	0.607276	1.07818
N	-2.07328	0.547158	-0.312357
H	-3.00685	0.867698	1.61809
H	-2.82718	0.727148	-0.955664
C	12.2204	1.13816	1.61867
C	13.1466	0.436245	0.667452
H	12.2993	2.22594	1.50952
H	12.4828	0.911176	2.65838
H	11.1794	0.845945	1.45055
C	14.5794	0.724801	0.769499
C	12.7324	-0.445805	-0.276657
N	13.6146	-1.07772	-1.14107
H	11.6888	-0.704709	-0.406937
N	15.3935	0.033678	-0.151515
C	14.9926	-0.872795	-1.12576
H	16.3877	0.218141	-0.0985951
H	13.2821	-1.73028	-1.8353
O	15.7722	-1.44609	-1.90636
O	15.0892	1.51315	1.59116
