30
  This energy is 7.4758e-05 and Call times are: 3263
C	1.12178	0.160265	0.796844
N	0.46286	0.755784	1.82604
C	-0.873792	0.954307	1.72215
C	0.382032	-0.227154	-0.340277
C	-0.997308	0.0373244	-0.318065
N	-1.67808	0.626174	0.687909
H	-1.34865	1.43219	2.5696
N	2.45783	-0.0359124	0.905594
H	2.92534	0.26459	1.74507
H	2.97383	-0.47407	0.160835
N	0.751557	-0.847517	-1.53922
C	-0.380569	-0.953269	-2.22186
N	-1.47161	-0.433617	-1.53029
H	-0.475586	-1.38776	-3.20316
H	-2.43096	-0.39719	-1.83511
C	11.7743	2.01301	1.94081
C	11.5859	1.03946	0.812912
H	12.8224	2.32447	2.01709
H	11.5172	1.55226	2.90153
H	11.155	2.90489	1.8056
C	12.3508	-0.209442	0.852245
C	10.751	1.2512	-0.235434
N	10.5999	0.330827	-1.26252
H	10.1564	2.1518	-0.327498
N	12.1283	-1.079	-0.235428
C	11.2797	-0.883905	-1.31864
H	12.647	-1.94867	-0.228452
H	9.97228	0.511181	-2.03191
O	11.1346	-1.70012	-2.24528
O	13.15	-0.525696	1.75665
