30
  This energy is -0.0033912 and Call times are: 11522
C	-0.546695	1.24168	0.279984
N	0.548559	1.95166	-0.100043
C	1.63717	1.285	-0.555399
C	-0.502425	-0.165118	0.183413
C	0.687866	-0.728646	-0.30512
N	1.78979	-0.0502621	-0.689492
H	2.48115	1.89831	-0.844496
N	-1.63228	1.91275	0.734432
H	-1.59778	2.91798	0.778065
H	-2.45833	1.4156	1.02322
N	-1.43812	-1.16098	0.486052
C	-0.823534	-2.29726	0.185985
N	0.46645	-2.09508	-0.297477
H	-1.2497	-3.28088	0.293835
H	1.12872	-2.7949	-0.591148
C	6.03287	1.69439	-2.00701
C	6.3804	0.783286	-0.864847
H	6.26098	1.22004	-2.96844
H	6.62658	2.61488	-1.96698
H	4.97232	1.96331	-1.99438
C	7.76994	0.334425	-0.746139
C	5.48347	0.354671	0.0585852
N	5.83705	-0.487847	1.10261
H	4.44107	0.647415	0.0305866
N	8.02939	-0.518247	0.34671
C	7.12854	-0.970016	1.30376
H	8.98398	-0.840621	0.44798
H	5.15148	-0.793023	1.77731
O	7.43196	-1.72468	2.24414
O	8.68963	0.654194	-1.5262
