30
  This energy is -4.0976e-05 and Call times are: 9493
C	-0.338041	0.0328745	-1.34301
N	-1.64106	-0.305858	-1.15467
C	-2.08629	-0.525424	0.106443
C	0.498293	0.141684	-0.212051
C	-0.0909582	-0.112506	1.03743
N	-1.37967	-0.450236	1.25502
H	-3.13138	-0.792097	0.199759
N	0.102078	0.251298	-2.60553
H	-0.547658	0.156753	-3.36874
H	1.06109	0.503501	-2.77757
N	1.85259	0.464293	-0.0682959
C	2.07184	0.405182	1.23835
N	0.929807	0.0603312	1.95634
H	3.01692	0.597347	1.71862
H	0.84117	-0.0481357	2.95382
C	18.5661	2.1667	-1.41536
C	17.9161	0.95371	-0.814086
H	19.6553	2.12345	-1.30073
H	18.2368	3.07945	-0.90561
H	18.3314	2.2586	-2.48013
C	18.1375	0.694262	0.61071
C	17.1391	0.088891	-1.51357
N	16.5526	-1.02368	-0.927787
H	16.9343	0.220386	-2.56896
N	17.4999	-0.459173	1.11247
C	16.7008	-1.35833	0.416444
H	17.6395	-0.657626	2.09561
H	15.9785	-1.65251	-1.4693
O	16.1693	-2.35873	0.928894
O	18.8284	1.40893	1.36466
