30
  This energy is 7.983e-06 and Call times are: 9933
C	-0.439319	-1.19804	0.539199
N	-0.101	-1.95439	-0.538547
C	0.467801	-1.35145	-1.61082
C	-0.182405	0.188455	0.494519
C	0.411501	0.684439	-0.677785
N	0.757965	-0.0410658	-1.76212
H	0.717284	-1.99965	-2.44126
N	-1.0076	-1.80549	1.60851
H	-1.16349	-2.79957	1.57532
H	-1.26926	-1.27287	2.42138
N	-0.405468	1.21894	1.41496
C	0.0444195	2.30949	0.808997
N	0.550324	2.04455	-0.460861
H	0.0326417	3.30208	1.2278
H	0.946224	2.70183	-1.11343
C	22.2449	1.46898	-1.62232
C	21.1725	0.762552	-0.843603
H	22.8967	0.749342	-2.13086
H	22.8895	2.05455	-0.956735
H	21.8165	2.14103	-2.37203
C	21.5909	-0.174817	0.201693
C	19.8442	0.943113	-1.05336
N	18.8779	0.274192	-0.316028
H	19.4657	1.62027	-1.80915
N	20.5362	-0.804123	0.894714
C	19.1708	-0.635358	0.697781
H	20.8029	-1.45631	1.62201
H	17.8956	0.425482	-0.490815
O	18.2947	-1.22802	1.35124
O	22.7765	-0.430677	0.494344
