30
  This energy is -1.3618e-05 and Call times are: 3747
C	-0.219006	-0.0103889	-1.36783
N	-1.57244	-0.102337	-1.27939
C	-2.1485	-0.145333	-0.0533549
C	0.530865	0.036517	-0.173738
C	-0.191701	-0.0163276	1.02964
N	-1.53325	-0.107569	1.14841
H	-3.22855	-0.218522	-0.0401182
N	0.351941	0.0322668	-2.59566
H	-0.241579	-0.00529028	-3.40801
H	1.35123	0.100263	-2.69415
N	1.90534	0.1288	0.0735809
C	2.00604	0.131324	1.39598
N	0.767335	0.0453863	2.02598
H	2.92913	0.192046	1.94822
H	0.581804	0.0296057	3.01589
C	17.1971	2.76529	0.309557
C	17.3143	1.30762	-0.0323499
H	18.1463	3.1533	0.696638
H	16.453	2.92275	1.09882
H	16.9089	3.35802	-0.56387
C	17.6941	0.382227	1.03808
C	17.0894	0.802536	-1.27139
N	17.2065	-0.550564	-1.55466
H	16.8058	1.42938	-2.10789
N	17.7864	-0.97073	0.651215
C	17.5611	-1.51065	-0.609459
H	18.0476	-1.62812	1.37581
H	17.0339	-0.902277	-2.48463
O	17.6623	-2.72068	-0.876838
O	17.928	0.716302	2.21716
