30
  This energy is -7.208e-05 and Call times are: 3769
C	1.2779	-0.529089	0.0779165
N	0.88283	-1.8277	0.00308828
C	-0.439047	-2.10617	-0.106165
C	0.289952	0.477272	0.038407
C	-1.04341	0.0507833	-0.0768479
N	-1.4652	-1.22924	-0.153045
H	-0.698647	-3.15571	-0.162144
N	2.60035	-0.256005	0.187026
H	3.25341	-1.0219	0.20965
H	2.92426	0.695146	0.244436
N	0.363859	1.87387	0.0924392
C	-0.896961	2.27718	0.0114446
N	-1.79158	1.21535	-0.0928025
H	-1.2222	3.30423	0.0225814
H	-2.795	1.26298	-0.166748
C	14.7671	0.579698	2.5151
C	15.5091	0.323005	1.23484
H	14.2919	-0.3374	2.88178
H	13.961	1.30604	2.36047
H	15.4348	0.961075	3.29356
C	14.7474	-0.19172	0.0940959
C	16.839	0.54003	1.0767
N	17.4951	0.292189	-0.120385
H	17.4617	0.919021	1.87781
N	15.5026	-0.411	-1.07649
C	16.8632	-0.196464	-1.26179
H	14.9958	-0.766748	-1.87775
H	18.4855	0.461721	-0.213399
O	17.4633	-0.414037	-2.32874
O	13.5235	-0.433388	0.10709
