30
  This energy is 2.9799e-05 and Call times are: 8657
C	0.0460166	-1.38199	-0.0838095
N	-1.30117	-1.55744	-0.0351184
C	-2.10157	-0.468262	0.0644409
C	0.554974	-0.0673598	-0.0283225
C	-0.385102	0.971261	0.07437
N	-1.7264	0.827815	0.124697
H	-3.16568	-0.664426	0.0994928
N	0.841735	-2.47391	-0.183326
H	0.413537	-3.3844	-0.218437
H	1.84275	-2.37687	-0.221478
N	1.8587	0.440988	-0.0554055
C	1.70508	1.75557	0.0291335
N	0.367219	2.13271	0.11012
H	2.5069	2.47515	0.0365605
H	-0.00422769	3.06626	0.181659
C	18.9955	1.99473	0.794691
C	17.9584	1.05069	0.257568
H	20.0058	1.61613	0.601457
H	18.9054	2.09632	1.88232
H	18.9034	2.98729	0.343484
C	17.953	-0.322419	0.768377
C	17.0307	1.39696	-0.670022
N	16.0854	0.500016	-1.14619
H	16.9778	2.39398	-1.08981
N	16.9551	-1.15687	0.223833
C	15.9958	-0.825093	-0.725521
H	16.933	-2.11073	0.563075
H	15.4053	0.781535	-1.83652
O	15.1432	-1.61863	-1.16051
O	18.7489	-0.767483	1.61985
