30
  This energy is -0.00278026 and Call times are: 2340
C	-0.716919	-0.800522	-0.874198
N	-1.82973	-0.019683	-0.878406
C	-1.84177	1.1096	-0.12913
C	0.382473	-0.399519	-0.0862284
C	0.23745	0.792684	0.642225
N	-0.853501	1.58752	0.657711
H	-2.75207	1.69426	-0.168727
N	-0.709903	-1.92829	-1.62483
H	-1.5285	-2.15665	-2.1646
H	0.098831	-2.52707	-1.6427
N	1.64353	-0.966409	0.131115
C	2.24252	-0.133284	0.971346
N	1.43731	0.949561	1.3145
H	3.23943	-0.255057	1.36136
H	1.66456	1.71231	1.93189
C	6.12651	-2.56978	1.10903
C	5.98816	-1.2556	0.395419
H	5.87238	-2.46668	2.17025
H	7.16191	-2.92746	1.07162
H	5.47828	-3.33323	0.668351
C	6.79645	-0.130218	0.871421
C	5.16019	-1.0535	-0.660297
N	5.05538	0.174222	-1.29792
H	4.53506	-1.84095	-1.06305
N	6.61965	1.07385	0.158927
C	5.77897	1.30432	-0.923533
H	7.16898	1.86516	0.471137
H	4.43209	0.299745	-2.08158
O	5.67558	2.39896	-1.50405
O	7.59441	-0.182653	1.82906
