30
  This energy is -5.046e-06 and Call times are: 8393
C	0.498788	0.987437	0.833792
N	-0.66418	1.18233	1.51025
C	-1.74984	0.44338	1.17537
C	0.525268	0.019723	-0.192459
C	-0.670266	-0.675842	-0.437222
N	-1.83848	-0.504172	0.21699
H	-2.64939	0.638563	1.74523
N	1.58112	1.72859	1.17234
H	1.49417	2.40271	1.91503
H	2.45627	1.60765	0.690282
N	1.53874	-0.411365	-1.05611
C	0.964723	-1.345	-1.80291
N	-0.372557	-1.54636	-1.47154
H	1.45344	-1.90158	-2.5853
H	-1.01797	-2.19589	-1.89123
C	14.3014	-0.725347	2.67341
C	14.1383	-0.167498	1.28863
H	15.024	-1.54951	2.67992
H	13.3557	-1.1394	3.04164
H	14.6422	0.0419965	3.37506
C	13.6853	-1.07739	0.233488
C	14.386	1.12588	0.961926
N	14.2255	1.61012	-0.328268
H	14.7231	1.85157	1.69185
N	13.5528	-0.491372	-1.04232
C	13.8003	0.828544	-1.40029
H	13.2406	-1.10253	-1.78695
H	14.4162	2.57674	-0.546562
O	13.6604	1.27548	-2.55206
O	13.4238	-2.28582	0.400461
