30
  This energy is -0.00357901 and Call times are: 11326
C	-0.362731	1.00702	0.879409
N	-1.62134	1.15777	0.388235
C	-2.02026	0.377039	-0.64529
C	0.477666	0.0397302	0.289123
C	-0.0612101	-0.701767	-0.775215
N	-1.30518	-0.574463	-1.28365
H	-3.03124	0.538097	-0.997469
N	0.0311966	1.78983	1.91256
H	-0.618694	2.46105	2.28766
H	0.956651	1.70213	2.29823
N	1.79464	-0.35304	0.554037
C	2.04123	-1.30909	-0.331423
N	0.95251	-1.56148	-1.16188
H	2.97015	-1.8474	-0.421401
H	0.892512	-2.23597	-1.90757
C	6.47836	1.63797	-1.97316
C	7.2122	0.885653	-0.900349
H	5.45555	1.87207	-1.6562
H	6.39011	1.03368	-2.88335
H	6.98774	2.57325	-2.22422
C	6.65117	-0.392396	-0.45511
C	8.36012	1.32168	-0.323218
N	9.01395	0.602185	0.666567
H	8.82894	2.2567	-0.604321
N	7.38773	-1.04745	0.55339
C	8.56391	-0.621013	1.15865
H	7.01784	-1.93311	0.876158
H	9.86692	0.947562	1.08071
O	9.15997	-1.25574	2.04619
O	5.6052	-0.90436	-0.90278
