30
  This energy is 8.3371e-05 and Call times are: 3637
C	-1.32978	0.325945	-0.210871
N	-1.82237	-0.867899	0.213593
C	-0.957181	-1.82238	0.634621
C	0.0674457	0.520492	-0.194613
C	0.850161	-0.551121	0.265845
N	0.390037	-1.74616	0.692871
H	-1.40213	-2.75354	0.961747
N	-2.19875	1.27672	-0.630727
H	-3.18457	1.07287	-0.616741
H	-1.86508	2.17064	-0.950836
N	0.872606	1.60627	-0.557485
C	2.11125	1.19593	-0.320264
N	2.15701	-0.102929	0.17927
H	3.00124	1.7801	-0.485865
H	2.97385	-0.633836	0.435225
C	17.9551	2.44041	0.206205
C	17.107	1.20103	0.214243
H	18.0348	2.85264	-0.80627
H	18.9777	2.21606	0.530867
H	17.542	3.21081	0.864285
C	17.5326	0.075326	-0.621224
C	15.9739	1.06657	0.948448
N	15.2121	-0.0928322	0.93342
H	15.6021	1.85845	1.58701
N	16.6934	-1.05672	-0.568395
C	15.5299	-1.21724	0.174763
H	16.969	-1.847	-1.1384
H	14.3728	-0.16879	1.48859
O	14.8382	-2.25039	0.170704
O	18.5513	0.0695997	-1.34149
