30
  This energy is 0.00128826 and Call times are: 2106
C	1.11808	0.718348	-0.391016
N	0.572301	1.1851	-1.54529
C	-0.697281	0.831043	-1.86096
C	0.335443	-0.118404	0.432197
C	-0.965094	-0.406942	-0.0131918
N	-1.53323	0.0412383	-1.15272
H	-1.08277	1.23018	-2.79055
N	2.38747	1.07515	-0.0800108
H	2.89104	1.67569	-0.711962
H	2.8194	0.745972	0.767322
N	0.595441	-0.749204	1.65423
C	-0.523948	-1.40203	1.93649
N	-1.5027	-1.23021	0.961203
H	-0.686378	-2.00526	2.81426
H	-2.43098	-1.62099	0.947462
C	8.57646	-2.25696	-1.2131
C	8.13154	-0.962013	-0.596183
H	7.91727	-2.542	-2.04112
H	8.52885	-3.07378	-0.483765
H	9.60074	-2.18741	-1.59159
C	6.7769	-0.898089	-0.0418656
C	8.91044	0.146615	-0.524137
N	8.46889	1.32865	0.0526489
H	9.92076	0.168955	-0.913785
N	6.42183	0.344781	0.521941
C	7.20128	1.49229	0.606998
H	5.48941	0.411257	0.911288
H	9.06724	2.14017	0.0943709
O	6.81826	2.55756	1.12119
O	5.96236	-1.84312	-0.0440019
