30
  This energy is -0.00187379 and Call times are: 6176
C	-0.723317	-0.66526	0.976357
N	0.245323	-1.57824	1.25255
C	1.41429	-1.52184	0.569034
C	-0.46847	0.306036	-0.0146019
C	0.784831	0.251534	-0.646493
N	1.76476	-0.641776	-0.393696
H	2.15076	-2.27187	0.828086
N	-1.88998	-0.725898	1.66234
H	-2.00715	-1.44496	2.35719
H	-2.62629	-0.064242	1.4808
N	-1.2375	1.35944	-0.522337
C	-0.463363	1.92499	-1.43872
N	0.772764	1.29499	-1.55604
H	-0.733971	2.77704	-2.04
H	1.52814	1.53596	-2.17729
C	6.16024	2.51105	1.1125
C	6.30837	1.10195	0.614604
H	5.98881	3.20343	0.280262
H	7.07631	2.84727	1.61167
H	5.32739	2.59993	1.81656
C	7.38509	0.822899	-0.338911
C	5.50434	0.0779996	0.996691
N	5.66777	-1.21367	0.517402
H	4.6899	0.213775	1.69764
N	7.46951	-0.51822	-0.766645
C	6.65872	-1.58227	-0.389818
H	8.20711	-0.733603	-1.42617
H	5.05664	-1.95882	0.816774
O	6.79423	-2.74413	-0.811269
O	8.19138	1.67203	-0.769542
