30
  This energy is 9.6148e-05 and Call times are: 11588
C	1.36264	-0.181661	-0.170977
N	1.6945	0.131263	1.10966
C	0.710286	0.464183	1.97991
C	0.00151996	-0.146109	-0.540357
C	-0.916248	0.215269	0.459708
N	-0.616765	0.530671	1.7376
H	1.02941	0.70426	2.98617
N	2.35012	-0.513758	-1.03698
H	3.30171	-0.519583	-0.708287
H	2.13653	-0.750378	-1.9916
N	-0.654772	-0.407234	-1.74864
C	-1.93806	-0.207155	-1.48027
N	-2.15431	0.17152	-0.157959
H	-2.74452	-0.317627	-2.18609
H	-3.03483	0.378753	0.285148
C	8.71065	-0.803731	1.3099
C	10.0181	-0.548032	0.616657
H	7.86731	-0.514707	0.672216
H	8.62874	-0.203145	2.22313
H	8.60004	-1.85922	1.57626
C	10.3129	0.824251	0.196755
C	10.9369	-1.5125	0.358686
N	12.1363	-1.24306	-0.284518
H	10.7835	-2.54675	0.641265
N	11.5554	0.996253	-0.447804
C	12.511	0.0252454	-0.722581
H	11.7797	1.93743	-0.746551
H	12.804	-1.9778	-0.465158
O	13.5895	0.252957	-1.2978
O	9.55579	1.80006	0.373129
