30
  This energy is -0.000131394 and Call times are: 2932
C	0.427268	-0.777125	1.06421
N	0.460442	-1.94276	0.365456
C	0.111804	-1.93287	-0.944199
C	0.0294326	0.397997	0.392515
C	-0.305777	0.267982	-0.965333
N	-0.282389	-0.87417	-1.68444
H	0.155781	-2.88747	-1.45297
N	0.776681	-0.792318	2.37304
H	1.05104	-1.66589	2.7916
H	0.762318	0.0541802	2.91723
N	-0.107168	1.7253	0.814967
C	-0.515309	2.3779	-0.265043
N	-0.652546	1.54486	-1.37224
H	-0.72492	3.43373	-0.310234
H	-0.946469	1.80141	-2.30089
C	5.7987	2.5026	1.21681
C	5.88235	1.23493	0.415898
H	6.79472	2.82771	1.53874
H	5.21239	2.34959	2.13017
H	5.33877	3.30996	0.638998
C	6.4766	0.0589381	1.05644
C	5.44054	1.11879	-0.861692
N	5.53277	-0.0677542	-1.57476
H	4.99129	1.94751	-1.39504
N	6.52504	-1.09762	0.251017
C	6.0796	-1.24017	-1.05773
H	6.93202	-1.92271	0.674103
H	5.19682	-0.129265	-2.52434
O	6.15595	-2.29721	-1.70791
O	6.91984	0.0320788	2.22237
