30
  This energy is 5.0905e-05 and Call times are: 9097
C	-0.105369	-1.29123	0.490564
N	0.590978	-1.86992	-0.523483
C	1.07484	-1.08651	-1.51796
C	-0.295067	0.1065	0.463604
C	0.259092	0.79934	-0.625387
N	0.954227	0.252686	-1.64526
H	1.62148	-1.59799	-2.30002
N	-0.586939	-2.07866	1.48223
H	-0.415848	-3.06992	1.44068
H	-1.10631	-1.68016	2.24665
N	-0.949051	0.986302	1.33373
C	-0.7912	2.18088	0.779706
N	-0.0672652	2.12699	-0.408437
H	-1.1695	3.10634	1.18118
H	0.182447	2.89489	-1.01057
C	19.4521	2.45008	-1.12788
C	19.9139	1.2327	-0.37943
H	18.3783	2.39376	-1.34082
H	19.9568	2.52707	-2.0978
H	19.647	3.36508	-0.560387
C	19.7209	-0.0740639	-1.01307
C	20.4968	1.27552	0.844997
N	20.9124	0.131258	1.51044
H	20.6696	2.20687	1.3702
N	20.1757	-1.17517	-0.258512
C	20.7748	-1.15587	0.995405
H	20.0522	-2.08859	-0.677824
H	21.3438	0.188948	2.4209
O	21.1519	-2.17324	1.60254
O	19.1996	-0.251458	-2.13262
