30
  This energy is 1.5473e-05 and Call times are: 4429
C	-1.26559	0.499598	0.260224
N	-1.49467	-0.291124	1.34205
C	-0.535862	-1.16725	1.72927
C	-0.0337414	0.373282	-0.415762
C	0.871622	-0.57381	0.0905549
N	0.672202	-1.37171	1.16096
H	-0.769634	-1.77222	2.59611
N	-2.22715	1.37371	-0.122784
H	-3.08414	1.4134	0.404075
H	-2.08751	1.97259	-0.91949
N	0.498561	1.02322	-1.53518
C	1.69687	0.478642	-1.69756
N	1.97524	-0.49434	-0.741277
H	2.39759	0.739815	-2.47316
H	2.81295	-1.04669	-0.653231
C	21.3646	1.78999	1.93789
C	21.7186	0.728117	0.93662
H	21.2513	2.76486	1.44986
H	22.1611	1.90652	2.68178
H	20.433	1.55151	2.45981
C	22.9452	0.906075	0.155398
C	20.9693	-0.381335	0.716219
N	21.3244	-1.34432	-0.217277
H	20.0518	-0.575556	1.25791
N	23.2197	-0.125515	-0.766106
C	22.4683	-1.26923	-1.00894
H	24.0631	-0.02287	-1.31693
H	20.7504	-2.16137	-0.363111
O	22.775	-2.13983	-1.84196
O	23.7206	1.87779	0.260614
