30
  This energy is 0.000144378 and Call times are: 7101
C	-0.670096	-1.15044	0.382738
N	-0.927794	-0.731985	1.65024
C	-0.49717	0.493511	2.03698
C	0.0378594	-0.286683	-0.479286
C	0.425936	0.955709	0.0488053
N	0.184643	1.3979	1.30117
H	-0.728885	0.776904	3.05582
N	-1.10266	-2.37623	0.00105319
H	-1.60264	-2.94288	0.666278
H	-0.927482	-2.71444	-0.93052
N	0.452843	-0.414509	-1.80982
C	1.07624	0.725655	-2.07493
N	1.09002	1.59255	-0.985442
H	1.53051	0.980135	-3.01814
H	1.49925	2.51169	-0.937361
C	7.25774	1.80969	-2.07777
C	7.36151	0.761488	-1.00728
H	8.10727	1.74887	-2.76769
H	7.28283	2.81562	-1.64319
H	6.3334	1.70201	-2.6533
C	8.54884	0.775243	-0.149108
C	6.42154	-0.192963	-0.791864
N	6.54774	-1.14811	0.206443
H	5.5203	-0.261121	-1.38868
N	8.58461	-0.234346	0.834832
C	7.63542	-1.22097	1.07394
H	9.39679	-0.243408	1.43956
H	5.83465	-1.84814	0.347154
O	7.73587	-2.08241	1.96485
O	9.48366	1.59628	-0.241661
