30
  This energy is -0.00274319 and Call times are: 7169
C	-1.2226	0.0613443	0.648467
N	-1.93784	-0.471227	-0.377629
C	-1.29056	-0.824743	-1.51468
C	0.169186	0.223734	0.484412
C	0.713237	-0.183995	-0.744729
N	0.0291903	-0.715206	-1.78014
H	-1.90724	-1.24362	-2.29972
N	-1.87429	0.413078	1.7829
H	-2.86956	0.270377	1.83451
H	-1.37278	0.809836	2.56007
N	1.16553	0.728599	1.32778
C	2.28304	0.626376	0.62095
N	2.06813	0.0803491	-0.641722
H	3.26142	0.924227	0.959798
H	2.75314	-0.0970199	-1.3586
C	5.48685	2.51446	0.200385
C	6.19333	1.19082	0.265794
H	4.42204	2.3784	-0.021115
H	5.89426	3.13524	-0.605865
H	5.57915	3.06295	1.14266
C	6.15956	0.337725	-0.924791
C	6.85773	0.743185	1.36084
N	7.50055	-0.485979	1.38894
H	6.92225	1.32209	2.27395
N	6.84131	-0.89016	-0.79755
C	7.5276	-1.3693	0.311951
H	6.83084	-1.49577	-1.60906
H	7.98841	-0.796986	2.21575
O	8.10791	-2.46824	0.350512
O	5.58552	0.630291	-1.99318
