30
  This energy is -0.000114262 and Call times are: 3593
C	0.951838	-0.832798	-0.565229
N	0.311856	-0.967163	-1.75705
C	-0.867984	-0.326992	-1.94414
C	0.357199	-0.0288921	0.430011
C	-0.867313	0.577823	0.105221
N	-1.52542	0.46289	-1.06775
H	-1.33491	-0.467864	-2.91067
N	2.13089	-1.47472	-0.383208
H	2.50016	-2.0331	-1.13517
H	2.62875	-1.39499	0.487813
N	0.749693	0.305397	1.73119
C	-0.217492	1.09525	2.17792
N	-1.22247	1.29447	1.23505
H	-0.24875	1.54635	3.15582
H	-2.05684	1.84983	1.33511
C	16.3016	0.855369	-1.15546
C	15.0317	0.244392	-0.636396
H	16.9997	1.06097	-0.33581
H	16.1021	1.81742	-1.6413
H	16.7954	0.196988	-1.8765
C	14.2539	1.00979	0.341203
C	14.5669	-0.971115	-1.02042
N	13.3889	-1.50777	-0.521197
H	15.0913	-1.58941	-1.7386
N	13.0737	0.380428	0.78801
C	12.5783	-0.86175	0.409645
H	12.5204	0.8921	1.46435
H	13.0638	-2.41434	-0.82247
O	11.5245	-1.3542	0.848804
O	14.5692	2.13586	0.776087
