30
  This energy is -0.0017132 and Call times are: 6991
C	-0.623405	-0.661165	1.04559
N	0.284184	-0.292867	1.9883
C	1.33276	0.483611	1.62169
C	-0.433479	-0.21697	-0.279922
C	0.695389	0.582573	-0.523665
N	1.61234	0.963854	0.39067
H	2.02507	0.747613	2.41103
N	-1.66974	-1.43736	1.41714
H	-1.74608	-1.71971	2.38049
H	-2.35834	-1.7266	0.742544
N	-1.16729	-0.415182	-1.45512
C	-0.494178	0.250453	-2.38396
N	0.642459	0.873849	-1.87592
H	-0.771806	0.3187	-3.42272
H	1.31179	1.43423	-2.37847
C	4.69765	-0.501121	-1.51078
C	5.92995	-0.410519	-0.657168
H	4.91066	-0.186558	-2.53893
H	3.91408	0.168455	-1.13787
H	4.30223	-1.5211	-1.53359
C	6.5776	0.89718	-0.527275
C	6.47428	-1.46721	-0.00292614
N	7.61477	-1.34997	0.77835
H	6.04731	-2.4612	-0.055345
N	7.72866	0.913771	0.287254
C	8.30387	-0.153829	0.966175
H	8.19241	1.80795	0.391086
H	8.00081	-2.15103	1.25547
O	9.3251	-0.062654	1.66951
O	6.17988	1.94523	-1.07498
