30
  This energy is -3.8106e-05 and Call times are: 4077
C	0.538866	-1.26593	0.161514
N	-0.629604	-1.92909	-0.0457563
C	-1.75283	-1.21515	-0.301685
C	0.531547	0.143555	0.100921
C	-0.701193	0.758694	-0.172897
N	-1.87578	0.127428	-0.382736
H	-2.65507	-1.79243	-0.458996
N	1.6588	-1.98415	0.416961
H	1.59467	-2.98846	0.446183
H	2.539	-1.52234	0.57468
N	1.54062	1.09964	0.263835
C	0.927613	2.26303	0.0917062
N	-0.430976	2.11634	-0.175478
H	1.40193	3.22883	0.146625
H	-1.10613	2.84509	-0.34188
C	18.985	-0.735803	1.51585
C	17.8481	-0.457215	0.575003
H	18.6144	-1.11737	2.47422
H	19.5393	0.182475	1.74137
H	19.6807	-1.46806	1.09513
C	16.8298	0.507017	0.998973
C	17.712	-1.04607	-0.639769
N	16.6486	-0.766742	-1.48595
H	18.4274	-1.76742	-1.01528
N	15.7905	0.723067	0.0705725
C	15.6304	0.132612	-1.17734
H	15.0755	1.3862	0.343277
H	16.5694	-1.21784	-2.38516
O	14.6828	0.373928	-1.94532
O	16.837	1.11645	2.0876
