30
  This energy is -0.00055475 and Call times are: 7342
C	-0.74269	0.547434	1.03332
N	-1.88771	0.677485	0.312159
C	-1.89579	0.280237	-0.983593
C	0.39304	0.00194649	0.398562
C	0.248015	-0.36895	-0.948444
N	-0.874404	-0.251888	-1.68915
H	-2.83265	0.405856	-1.51138
N	-0.739791	0.945983	2.32813
H	-1.58517	1.32717	2.72007
H	0.0922345	0.862603	2.8882
N	1.69182	-0.258523	0.850421
C	2.31299	-0.774343	-0.201707
N	1.48646	-0.864425	-1.31858
H	3.34097	-1.09634	-0.219532
H	1.72383	-1.21899	-2.23101
C	6.68238	2.64586	0.856105
C	6.96752	1.206	0.538433
H	5.612	2.80236	1.03272
H	6.95551	3.293	0.0146764
H	7.23332	2.97562	1.74209
C	6.30092	0.617276	-0.625802
C	7.80388	0.42383	1.26619
N	8.0459	-0.904208	0.945886
H	8.32868	0.794422	2.13815
N	6.61133	-0.736734	-0.868674
C	7.46334	-1.55672	-0.13843
H	6.16147	-1.16397	-1.66899
H	8.67257	-1.46582	1.50286
O	7.68922	-2.74782	-0.414428
O	5.51111	1.22552	-1.37601
