30
  This energy is 5.5663e-05 and Call times are: 9031
C	-1.33034	-0.0269698	-0.385341
N	-1.48839	-1.36493	-0.20383
C	-0.433788	-2.09736	0.230001
C	-0.0692745	0.543863	-0.112916
C	0.937795	-0.328986	0.330895
N	0.810502	-1.65946	0.520143
H	-0.614038	-3.1572	0.357642
N	-2.38755	0.700704	-0.819125
H	-3.26035	0.230687	-0.994912
H	-2.30219	1.69312	-0.963099
N	0.409488	1.85639	-0.19609
C	1.67583	1.7737	0.189165
N	2.0495	0.473865	0.520032
H	2.36189	2.60224	0.249168
H	2.95089	0.156372	0.838299
C	22.7838	-0.184191	-2.72007
C	22.2975	0.0122261	-1.31282
H	22.85	-1.25045	-2.96525
H	23.7925	0.225881	-2.84557
H	22.1192	0.298669	-3.44289
C	23.0854	-0.578221	-0.227992
C	21.1744	0.702534	-0.991807
N	20.7519	0.865686	0.319589
H	20.5457	1.16427	-1.7432
N	22.5748	-0.357318	1.06784
C	21.4286	0.34513	1.42048
H	23.1041	-0.756755	1.83315
H	19.9126	1.38374	0.533131
O	21.039	0.499049	2.5911
O	24.1346	-1.23442	-0.386866
