30
  This energy is -0.000826265 and Call times are: 7777
C	-0.00155518	1.34706	0.323195
N	-1.01018	1.68038	-0.525122
C	-1.57847	0.71039	-1.2821
C	0.411881	-0.000644963	0.379063
C	-0.261824	-0.9044	-0.459012
N	-1.26523	-0.603112	-1.31024
H	-2.37665	1.03002	-1.93996
N	0.563177	2.3203	1.07768
H	0.220415	3.26278	0.989232
H	1.31176	2.10525	1.71508
N	1.39675	-0.654564	1.12825
C	1.31636	-1.92275	0.748611
N	0.32902	-2.13138	-0.210711
H	1.93264	-2.72319	1.12312
H	0.0763947	-3.00051	-0.652753
C	6.86893	1.97641	1.96194
C	6.94271	0.801194	1.02981
H	6.27934	2.78838	1.52093
H	7.86721	2.38669	2.15299
H	6.41762	1.69863	2.91923
C	7.52567	1.01589	-0.297005
C	6.5015	-0.442183	1.34648
N	6.58399	-1.50757	0.461608
H	6.06013	-0.670725	2.30878
N	7.56518	-0.126777	-1.12249
C	7.1201	-1.40827	-0.820432
H	7.96449	-0.00102826	-2.04453
H	6.24883	-2.42353	0.720502
O	7.18819	-2.37157	-1.60359
O	7.96731	2.10657	-0.71167
