30
  This energy is 2.2416e-05 and Call times are: 8327
C	0.490204	1.24507	-0.358522
N	0.654579	0.943282	-1.67381
C	0.325923	-0.297685	-2.10836
C	-0.0178331	0.248541	0.501243
C	-0.317885	-0.994926	-0.0790839
N	-0.165387	-1.32318	-1.37954
H	0.476329	-0.484832	-3.16401
N	0.820193	2.48689	0.0708389
H	1.17777	3.15134	-0.595667
H	0.709961	2.74078	1.03846
N	-0.297846	0.239406	1.87251
C	-0.75585	-0.982272	2.11046
N	-0.789576	-1.77247	0.964545
H	-1.07343	-1.3499	3.0721
H	-1.09502	-2.72921	0.887313
C	10.539	0.803844	-1.35928
C	11.8357	0.546129	-0.646862
H	9.68513	0.564317	-0.715163
H	10.447	0.165994	-2.24588
H	10.4567	1.84907	-1.67227
C	12.0934	-0.813359	-0.165395
C	12.7772	1.49765	-0.42524
N	13.9658	1.22673	0.237068
H	12.6516	2.52203	-0.753798
N	13.3275	-0.987991	0.49429
C	14.3059	-0.0301162	0.73266
H	13.5263	-1.92048	0.835398
H	14.651	1.95172	0.389819
O	15.3751	-0.259322	1.32442
O	11.3128	-1.77669	-0.303932
