30
  This energy is -0.000125486 and Call times are: 10461
C	-1.32836	-0.346111	0.186249
N	-1.34087	-0.0894236	1.52117
C	-0.205774	0.353134	2.11494
C	-0.128531	-0.13968	-0.526598
C	0.974282	0.321626	0.21098
N	0.991738	0.584782	1.53485
H	-0.270775	0.54189	3.17898
N	-2.46554	-0.788297	-0.402523
H	-3.2878	-0.91445	0.164551
H	-2.48816	-0.987127	-1.38886
N	0.207689	-0.305802	-1.87501
C	1.48394	0.0478365	-1.94572
N	1.99939	0.436756	-0.712134
H	2.0803	0.0445704	-2.843
H	2.93599	0.746182	-0.508088
C	14.7124	0.950992	-0.931028
C	13.4817	0.289753	-0.379984
H	14.9021	1.90538	-0.426534
H	14.5882	1.18228	-1.99521
H	15.5941	0.313788	-0.81375
C	12.2155	1.02191	-0.46463
C	13.4773	-0.94186	0.189257
N	12.322	-1.52501	0.689464
H	14.3769	-1.53743	0.284288
N	11.0994	0.345985	0.0703078
C	11.0707	-0.913457	0.657288
H	10.2135	0.833984	0.0221666
H	12.3442	-2.44277	1.10847
O	10.0429	-1.44765	1.10917
O	12.083	2.15817	-0.962568
