30
  This energy is -2.2307e-05 and Call times are: 3571
C	-0.327205	0.205331	-1.33034
N	-1.52872	-0.427263	-1.26505
C	-1.92594	-0.961071	-0.0843284
C	0.457916	0.27908	-0.160508
C	-0.0724674	-0.316033	0.996019
N	-1.26044	-0.949994	1.09091
H	-2.89026	-1.45312	-0.0878573
N	0.0652786	0.737226	-2.51288
H	-0.543386	0.649297	-3.31
H	0.949208	1.21168	-2.59329
N	1.71049	0.846454	0.100265
C	1.92756	0.597662	1.38474
N	0.880653	-0.103538	1.97716
H	2.80589	0.892745	1.93449
H	0.809886	-0.407931	2.93473
C	15.6826	2.56994	-1.10102
C	15.4746	1.15971	-0.62832
H	16.7052	2.71179	-1.46898
H	15.5477	3.28155	-0.278332
H	14.9849	2.82881	-1.90318
C	16.3369	0.664629	0.447629
C	14.5373	0.322679	-1.13988
N	14.3708	-0.975872	-0.680653
H	13.8672	0.623363	-1.9359
N	16.0902	-0.665915	0.844469
C	15.1376	-1.54084	0.336069
H	16.6751	-1.02871	1.58728
H	13.6661	-1.57959	-1.07733
O	14.9776	-2.70638	0.738371
O	17.2345	1.33006	1.00271
