30
  This energy is 0.00118186 and Call times are: 11544
C	-0.237038	1.11743	-0.783706
N	1.04549	1.24389	-1.21638
C	1.97361	0.354519	-0.786895
C	-0.547775	0.0607575	0.0979113
C	0.508815	-0.789346	0.463921
N	1.79008	-0.688684	0.0511048
H	2.97862	0.500942	-1.16178
N	-1.161	2.00897	-1.21592
H	-0.872352	2.73994	-1.84516
H	-2.11861	1.94194	-0.913601
N	-1.74179	-0.335241	0.7114
C	-1.40975	-1.39942	1.42983
N	-0.0593413	-1.71945	1.31735
H	-2.08744	-1.97185	2.04124
H	0.430976	-2.47816	1.76293
C	10.7351	0.360898	-1.4196
C	9.37878	0.125658	-0.819282
H	11.4805	-0.308808	-0.975296
H	11.0786	1.38253	-1.22039
H	10.7254	0.201723	-2.5021
C	9.23136	0.300801	0.62778
C	8.28771	-0.238434	-1.53895
N	7.04761	-0.44842	-0.95336
H	8.32584	-0.385254	-2.61136
N	7.9339	0.0649203	1.12742
C	6.80296	-0.308218	0.410965
H	7.80928	0.180417	2.12569
H	6.2506	-0.718835	-1.51013
O	5.68613	-0.499347	0.922907
O	10.1523	0.632339	1.40143
