30
  This energy is -4.1287e-05 and Call times are: 8877
C	0.205984	1.30839	-0.405853
N	1.46971	1.39722	0.0872686
C	2.0063	0.322404	0.71472
C	-0.495528	0.0953416	-0.242277
C	0.177895	-0.939685	0.427233
N	1.43049	-0.880758	0.926951
H	3.01482	0.446973	1.08809
N	-0.325833	2.38553	-1.03219
H	0.229267	3.22135	-1.11501
H	-1.25885	2.35102	-1.40794
N	-1.77926	-0.310505	-0.624603
C	-1.87472	-1.56136	-0.194325
N	-0.718718	-1.99411	0.449915
H	-2.7373	-2.19545	-0.315414
H	-0.546542	-2.89738	0.861081
C	16.708	1.98197	1.70003
C	16.1058	1.05574	0.68277
H	17.7851	1.80502	1.80018
H	16.2723	1.81026	2.691
H	16.5512	3.03003	1.42758
C	16.2338	-0.385972	0.909635
C	15.453	1.47776	-0.429322
N	14.9077	0.595293	-1.35059
H	15.3222	2.52819	-0.658563
N	15.6473	-1.19958	-0.0816799
C	14.9748	-0.790769	-1.22722
H	15.724	-2.19997	0.05525
H	14.4265	0.933722	-2.1705
O	14.4814	-1.57055	-2.06052
O	16.808	-0.903488	1.88895
