30
  This energy is -1.9839e-05 and Call times are: 9713
C	0.145055	1.14712	-0.762961
N	-0.461711	1.97219	0.130994
C	-0.929105	1.45184	1.29187
C	0.262465	-0.221651	-0.441949
C	-0.264941	-0.629051	0.794534
N	-0.87185	0.165967	1.70106
H	-1.40322	2.15231	1.96759
N	0.610533	1.67214	-1.92186
H	0.494239	2.65815	-2.08875
H	1.06437	1.0873	-2.60369
N	0.81933	-1.30679	-1.12841
C	0.630593	-2.3428	-0.322218
N	-0.0213616	-1.99032	0.856503
H	0.936627	-3.35476	-0.529675
H	-0.276615	-2.59429	1.62114
C	21.5961	-0.486557	0.926105
C	20.282	-0.147864	0.282904
H	21.6839	-1.56674	1.09013
H	21.6814	-0.015432	1.91209
H	22.4384	-0.158477	0.309508
C	19.0563	-0.52473	0.991398
C	20.1673	0.484464	-0.912055
N	18.937	0.78295	-1.4796
H	21.0314	0.790858	-1.48866
N	17.8576	-0.178427	0.334089
C	17.7156	0.468152	-0.88793
H	16.9978	-0.429567	0.806355
H	18.8775	1.2542	-2.36996
O	16.6197	0.74175	-1.4076
O	19.0228	-1.10815	2.0937
