30
  This energy is -3.2901e-05 and Call times are: 4627
C	-0.388497	0.343634	-1.28453
N	-1.57809	-0.31268	-1.23764
C	-1.91587	-0.978799	-0.106701
C	0.446879	0.302684	-0.148382
C	-0.0242538	-0.423994	0.957509
N	-1.19898	-1.08467	1.03306
H	-2.8733	-1.48388	-0.122891
N	-0.0555	1.00797	-2.41728
H	-0.697869	0.997171	-3.19242
H	0.818108	1.50335	-2.48293
N	1.70277	0.859475	0.119179
C	1.97974	0.475773	1.35811
N	0.968859	-0.3036	1.91431
H	2.87795	0.724038	1.89879
H	0.944452	-0.711803	2.83484
C	23.896	2.3291	-0.564511
C	23.2249	0.997281	-0.387841
H	24.3376	2.67213	0.37823
H	23.1714	3.09498	-0.864124
H	24.6848	2.28108	-1.3213
C	22.1425	0.901622	0.594907
C	23.5635	-0.11687	-1.08418
N	22.9233	-1.33334	-0.896904
H	24.3535	-0.116987	-1.82511
N	21.555	-0.375026	0.711896
C	21.8845	-1.52885	0.0107052
H	20.8043	-0.463821	1.3857
H	23.1933	-2.14828	-1.42727
O	21.319	-2.62484	0.168477
O	21.7352	1.84798	1.29851
