30
  This energy is -5.6739e-05 and Call times are: 9339
C	-0.697778	-1.1966	-0.0169366
N	0.0730924	-1.78	-0.972692
C	1.10841	-1.08063	-1.49789
C	-0.38511	0.117947	0.388735
C	0.714475	0.728472	-0.23672
N	1.49708	0.174996	-1.18718
H	1.68944	-1.59191	-2.25488
N	-1.73145	-1.89988	0.504873
H	-1.89992	-2.83446	0.170557
H	-2.32036	-1.49559	1.21385
N	-0.967332	0.97927	1.32575
C	-0.233808	2.08248	1.26444
N	0.798457	1.98637	0.335
H	-0.395033	2.96887	1.85527
H	1.48601	2.68614	0.106556
C	18.4801	2.26981	0.466566
C	19.1647	0.961761	0.191298
H	18.7961	3.03489	-0.251888
H	18.7465	2.64865	1.45999
H	17.3918	2.1697	0.412452
C	20.629	0.934918	0.228144
C	18.5057	-0.190823	-0.0884218
N	19.1685	-1.38369	-0.338564
H	17.4247	-0.242151	-0.131798
N	21.2088	-0.322554	-0.0387947
C	20.5555	-1.51479	-0.327338
H	22.2204	-0.364013	-0.0183971
H	18.6559	-2.22822	-0.544335
O	21.1369	-2.59036	-0.553136
O	21.3524	1.92165	0.472355
