30
  This energy is -5.0452e-05 and Call times are: 10351
C	-1.14381	-0.469908	0.624437
N	-1.53	-1.27128	-0.403535
C	-0.76463	-1.31983	-1.52099
C	0.0426922	0.280098	0.482761
C	0.741041	0.136871	-0.727535
N	0.382578	-0.649807	-1.76427
H	-1.11767	-1.97344	-2.30851
N	-1.9123	-0.424911	1.73923
H	-2.74754	-0.985855	1.7754
H	-1.65312	0.158602	2.51721
N	0.69864	1.17692	1.33382
C	1.7671	1.56369	0.649946
N	1.8432	0.965407	-0.605019
H	2.50973	2.26105	1.00059
H	2.55523	1.09625	-1.30537
C	14.2835	1.46389	-1.48584
C	15.3632	0.636652	-0.849152
H	14.3095	2.49415	-1.11262
H	13.2915	1.06924	-1.2377
H	14.3873	1.48537	-2.57489
C	15.3582	0.511543	0.610546
C	16.3384	0.00196729	-1.54713
N	17.3225	-0.755134	-0.928067
H	16.4016	0.052183	-2.6272
N	16.3976	-0.277855	1.14451
C	17.4058	-0.936462	0.450724
H	16.4132	-0.377957	2.15206
H	18.0375	-1.21801	-1.46919
O	18.2933	-1.61806	0.992727
O	14.5203	1.04297	1.36693
