30
  This energy is -0.000809875 and Call times are: 4957
C	0.104485	1.37953	0.0708035
N	1.10915	1.47803	-0.839699
C	1.5867	0.347517	-1.41479
C	-0.399908	0.0985456	0.379076
C	0.185045	-0.989513	-0.28949
N	1.18219	-0.922561	-1.1969
H	2.38602	0.482694	-2.13232
N	-0.369364	2.51251	0.642792
H	0.0354395	3.39542	0.377842
H	-1.11254	2.47253	1.32029
N	-1.40602	-0.334099	1.25052
C	-1.42492	-1.65257	1.10852
N	-0.482348	-2.1041	0.188549
H	-2.08439	-2.32409	1.63284
H	-0.303536	-3.05526	-0.0905831
C	6.08779	-1.82764	2.06894
C	6.22645	-0.732171	1.05102
H	7.06537	-2.10534	2.47956
H	5.67423	-2.7345	1.61293
H	5.4366	-1.525	2.89453
C	7.07041	-0.98814	-0.118851
C	5.61673	0.475532	1.15411
N	5.7657	1.46727	0.195408
H	4.97974	0.731285	1.9919
N	7.15831	0.0800123	-1.03537
C	6.54404	1.32385	-0.951114
H	7.73671	-0.0753828	-1.8519
H	5.30163	2.35787	0.294504
O	6.66879	2.22106	-1.80279
O	7.6847	-2.05267	-0.33331
