30
  This energy is 7.2057e-05 and Call times are: 3549
C	-0.943918	0.951193	0.351117
N	-1.35927	0.309489	1.47529
C	-0.782248	-0.870769	1.80827
C	0.0747167	0.357838	-0.423916
C	0.586338	-0.867287	0.0347072
N	0.194361	-1.52709	1.1452
H	-1.15007	-1.33908	2.71239
N	-1.52386	2.13065	0.0226341
H	-2.24589	2.49895	0.619816
H	-1.23824	2.62978	-0.803319
N	0.710376	0.75217	-1.60684
C	1.58427	-0.214534	-1.85318
N	1.55239	-1.22095	-0.891522
H	2.25611	-0.244455	-2.6949
H	2.11568	-2.05529	-0.857125
C	16.7545	2.7532	0.236328
C	16.8136	1.261	0.0773492
H	17.4046	3.2498	-0.493196
H	17.1133	3.05496	1.22709
H	15.7349	3.12822	0.106169
C	18.117	0.608361	0.224584
C	15.7324	0.487465	-0.193898
N	15.8209	-0.889879	-0.335121
H	14.74	0.904046	-0.315212
N	18.1035	-0.792563	0.0636072
C	17.0104	-1.60483	-0.214066
H	18.9941	-1.26439	0.161406
H	15.0019	-1.4439	-0.5369
O	17.0756	-2.83976	-0.342865
O	19.1856	1.20228	0.473401
