30
  This energy is -2.777e-05 and Call times are: 11011
C	0.369238	-0.0753831	1.33305
N	1.33913	0.873586	1.25038
C	1.56941	1.47433	0.0575219
C	-0.359068	-0.39525	0.167878
C	-0.018852	0.302889	-1.00254
N	0.937744	1.24867	-1.11477
H	2.35219	2.22212	0.0474152
N	0.142951	-0.672904	2.52767
H	0.69901	-0.397739	3.32056
H	-0.568058	-1.37906	2.62103
N	-1.39582	-1.30313	-0.0765975
C	-1.67211	-1.1536	-1.36508
N	-0.868773	-0.194128	-1.9756
H	-2.42771	-1.69936	-1.90543
H	-0.886006	0.0979194	-2.93945
C	8.64832	-0.20514	-2.77548
C	8.5515	0.0762388	-1.30345
H	7.66866	-0.473935	-3.18708
H	9.3097	-1.05784	-2.96749
H	9.03009	0.661809	-3.32312
C	8.05511	-0.99313	-0.433714
C	8.89629	1.25995	-0.737005
N	8.79464	1.48811	0.627715
H	9.27005	2.09233	-1.32054
N	7.9887	-0.664575	0.936076
C	8.33569	0.538921	1.53837
H	7.64829	-1.38953	1.55573
H	9.05748	2.37749	1.02553
O	8.24976	0.756559	2.7595
O	7.70571	-2.1246	-0.826464
