30
  This energy is -7.0479e-05 and Call times are: 10989
C	1.20018	0.135198	0.678472
N	1.2185	1.49383	0.635315
C	0.196911	2.14487	0.0275802
C	0.113257	-0.541417	0.0858865
C	-0.878434	0.254728	-0.510538
N	-0.887215	1.60333	-0.568741
H	0.2612	3.22555	0.0215784
N	2.22368	-0.51085	1.2871
H	2.96897	0.0328188	1.69028
H	2.2389	-1.51601	1.33542
N	-0.197376	-1.90051	-0.0374843
C	-1.3499	-1.92021	-0.693363
N	-1.80873	-0.643128	-1.00516
H	-1.893	-2.80933	-0.96772
H	-2.65318	-0.397003	-1.49599
C	9.87531	-1.78067	-2.15594
C	9.76911	-0.780793	-1.04041
H	10.1094	-2.77785	-1.76575
H	10.6895	-1.51688	-2.84073
H	8.9446	-1.84032	-2.72818
C	10.9402	-0.586863	-0.181705
C	8.65438	-0.050776	-0.784741
N	8.58859	0.865526	0.254927
H	7.75393	-0.144069	-1.37935
N	10.7747	0.364979	0.845577
C	9.64451	1.12347	1.12635
H	11.5722	0.515095	1.45132
H	7.74774	1.39691	0.425067
O	9.57218	1.94786	2.05429
O	12.0234	-1.19275	-0.308858
