30
  This energy is 0.000141034 and Call times are: 8481
C	0.463196	0.504816	1.20401
N	1.31759	-0.522911	1.45272
C	1.40185	-1.53737	0.557956
C	-0.302432	0.470626	0.0195247
C	-0.118109	-0.639442	-0.821186
N	0.721466	-1.67324	-0.600846
H	2.09714	-2.32966	0.804711
N	0.382662	1.51643	2.10151
H	0.95744	1.47903	2.92724
H	-0.240363	2.29136	1.94582
N	-1.24937	1.35063	-0.516923
C	-1.62538	0.78179	-1.65443
N	-0.972498	-0.425414	-1.8891
H	-2.35212	1.1853	-2.33984
H	-1.08526	-1.04107	-2.67831
C	15.5139	1.68436	-0.309899
C	14.2743	0.836445	-0.310513
H	16.4105	1.06542	-0.189807
H	15.5067	2.38611	0.532047
H	15.607	2.2556	-1.23848
C	14.0098	0.0105945	0.870325
C	13.3903	0.792752	-1.33884
N	12.2536	-0.00216224	-1.30815
H	13.5243	1.37695	-2.24095
N	12.8311	-0.7609	0.805972
C	11.912	-0.821875	-0.234728
H	12.6286	-1.33947	1.61198
H	11.6107	-0.017536	-2.08584
O	10.8897	-1.52941	-0.220151
O	14.7404	-0.0407138	1.88038
