30
  This energy is -0.000322416 and Call times are: 10571
C	-1.14407	0.326691	-0.709518
N	-1.923	0.521333	0.387497
C	-1.37922	0.350362	1.6171
C	0.203109	-0.0466475	-0.519525
C	0.638834	-0.189665	0.808146
N	-0.110351	-0.00337607	1.91548
H	-2.04305	0.517934	2.45572
N	-1.69235	0.49885	-1.93634
H	-2.66085	0.76599	-2.00151
H	-1.14168	0.362228	-2.76761
N	1.24247	-0.316319	-1.41722
C	2.27929	-0.614642	-0.645933
N	1.9708	-0.553766	0.710456
H	3.26174	-0.878224	-1.00101
H	2.58421	-0.735919	1.48836
C	15.6713	-0.253298	0.796486
C	14.2173	-0.291587	0.422665
H	15.8636	0.531016	1.53762
H	16.2924	-0.0154441	-0.0747139
H	16.0025	-1.21103	1.20917
C	13.625	0.921542	-0.146526
C	13.4254	-1.38175	0.582126
N	12.0844	-1.38438	0.226523
H	13.7979	-2.31053	0.996494
N	12.2576	0.819199	-0.475559
C	11.4275	-0.284808	-0.32153
H	11.8277	1.6465	-0.870766
H	11.5157	-2.20811	0.354836
O	10.2247	-0.30079	-0.636085
O	14.2412	1.98812	-0.344769
