30
  This energy is -2.1275e-05 and Call times are: 8525
C	0.423886	0.479405	1.22863
N	-0.430899	1.53616	1.25476
C	-1.27811	1.72076	0.213125
C	0.391835	-0.383469	0.112927
C	-0.534796	-0.0772773	-0.897332
N	-1.39472	0.963253	-0.898979
H	-1.9369	2.57686	0.284777
N	1.26873	0.299262	2.27225
H	1.2401	0.952598	3.0377
H	1.91335	-0.473571	2.28235
N	1.12277	-1.53188	-0.212272
C	0.645792	-1.90705	-1.39152
N	-0.359864	-1.06239	-1.85399
H	0.97962	-2.76448	-1.95199
H	-0.874765	-1.13571	-2.7166
C	13.7176	0.819866	1.39743
C	15.0349	0.411959	0.80265
H	12.9951	-0.00294169	1.34798
H	13.2774	1.6529	0.837381
H	13.8287	1.12329	2.44281
C	15.0488	-0.021454	-0.596763
C	16.2071	0.422267	1.4859
N	17.408	0.0387588	0.90673
H	16.2688	0.730836	2.52226
N	16.3159	-0.390661	-1.09364
C	17.5281	-0.388308	-0.413909
H	16.3487	-0.693581	-2.05934
H	18.2672	0.0550936	1.43582
O	18.6111	-0.729144	-0.920691
O	14.0439	-0.0768797	-1.33405
