30
  This energy is -1.5948e-05 and Call times are: 3307
C	-0.252661	1.35748	-0.111537
N	-0.54662	1.32369	-1.43838
C	-0.495392	0.137419	-2.09182
C	0.0946677	0.150371	0.530813
C	0.109292	-1.00778	-0.263854
N	-0.177469	-1.07194	-1.58136
H	-0.738482	0.166997	-3.14637
N	-0.305314	2.54572	0.537055
H	-0.560522	3.37022	0.0187279
H	-0.0931987	2.6034	1.51919
N	0.443223	-0.147766	1.85312
C	0.6623	-1.45578	1.85264
N	0.474734	-2.02813	0.597291
H	0.953688	-2.03678	2.71187
H	0.57953	-2.99697	0.342422
C	16.4243	0.586506	1.78537
C	15.4416	0.25327	0.699683
H	16.355	-0.13303	2.6093
H	16.2117	1.57188	2.21572
H	17.4514	0.585733	1.40789
C	14.02	0.215462	1.05169
C	15.7955	-0.0135948	-0.582708
N	14.8621	-0.318552	-1.56285
H	16.8275	-0.00312776	-0.911226
N	13.151	-0.103238	-0.0122186
C	13.4897	-0.379914	-1.33143
H	12.1633	-0.134819	0.208835
H	15.1501	-0.513395	-2.51018
O	12.6637	-0.654317	-2.21938
O	13.5632	0.440601	2.19065
