30
  This energy is 0.000652519 and Call times are: 3153
C	1.13052	0.748077	0.2852
N	1.77612	-0.245716	0.951265
C	1.16869	-1.45017	1.08221
C	-0.150003	0.481237	-0.243404
C	-0.663627	-0.809611	-0.0362227
N	-0.0467858	-1.81513	0.619998
H	1.72645	-2.20552	1.62109
N	1.74197	1.95019	0.157044
H	2.65694	2.07408	0.558389
H	1.28994	2.70576	-0.330474
N	-1.05592	1.26878	-0.963098
C	-2.09054	0.468792	-1.18325
N	-1.90726	-0.801809	-0.644132
H	-2.9856	0.743778	-1.71617
H	-2.54463	-1.58103	-0.678343
C	12.0397	-0.224294	0.039512
C	10.549	-0.136418	0.198727
H	12.4451	0.710107	-0.36543
H	12.3108	-1.01344	-0.671228
H	12.5314	-0.432076	0.994668
C	9.74819	0.137674	-0.997112
C	9.90565	-0.295783	1.38265
N	8.52568	-0.208183	1.49607
H	10.4355	-0.500225	2.30491
N	8.35665	0.20747	-0.779308
C	7.67619	0.0479566	0.421984
H	7.78374	0.395989	-1.59272
H	8.07012	-0.330601	2.38816
O	6.44055	0.123688	0.537588
O	10.2144	0.303933	-2.14237
