30
  This energy is -3.883e-06 and Call times are: 8349
C	0.164102	1.09336	0.834665
N	1.4792	0.862344	1.09006
C	2.0808	-0.208214	0.516631
C	-0.520725	0.204369	-0.0203612
C	0.222108	-0.864833	-0.547644
N	1.52675	-1.11927	-0.312348
H	3.12824	-0.345656	0.753349
N	-0.432619	2.16479	1.41028
H	0.114097	2.7598	2.01082
H	-1.40477	2.36251	1.24076
N	-1.84438	0.163162	-0.473236
C	-1.8954	-0.906898	-1.25506
N	-0.672444	-1.56752	-1.33647
H	-2.77076	-1.25048	-1.78085
H	-0.457717	-2.39912	-1.86271
C	15.7131	2.26919	-0.62907
C	14.8684	1.13215	-0.130047
H	15.2948	2.69177	-1.54986
H	16.7238	1.92534	-0.877117
H	15.7897	3.06641	0.116456
C	14.6719	-0.0156432	-1.01906
C	14.2798	1.10893	1.09224
N	13.5045	0.0422295	1.52338
H	14.3834	1.92331	1.79873
N	13.8695	-1.048	-0.490787
C	13.2571	-1.09393	0.75602
H	13.7205	-1.85156	-1.08871
H	13.077	0.0482717	2.43746
O	12.5603	-2.04324	1.15487
O	15.1561	-0.119265	-2.16419
