30
  This energy is -0.000136188 and Call times are: 8437
C	-0.469069	0.997388	-0.83918
N	0.00338227	0.434262	-1.98275
C	0.673514	-0.741338	-1.90704
C	-0.240192	0.330385	0.382739
C	0.468364	-0.880795	0.319402
N	0.94894	-1.46347	-0.7994
H	1.0279	-1.14556	-2.84675
N	-1.13826	2.17254	-0.92021
H	-1.26701	2.59591	-1.82452
H	-1.50018	2.61445	-0.0915811
N	-0.586922	0.636752	1.70364
C	-0.0975391	-0.367991	2.4177
N	0.551567	-1.31579	1.63093
H	-0.177995	-0.466344	3.48756
H	1.00225	-2.16304	1.93693
C	8.59998	-0.238071	-1.94361
C	9.54605	-0.0294575	-0.79607
H	8.51365	-1.30257	-2.19015
H	8.96692	0.260738	-2.848
H	7.60238	0.148033	-1.71347
C	10.9261	-0.495418	-0.953742
C	9.19553	0.563464	0.372905
N	10.0944	0.741024	1.41472
H	8.19329	0.93077	0.556432
N	11.7621	-0.269498	0.159223
C	11.426	0.334633	1.3649
H	12.7207	-0.583747	0.0718383
H	9.80963	1.18518	2.27495
O	12.2213	0.500167	2.30617
O	11.3756	-1.05459	-1.97444
