30
  This energy is 0.000283052 and Call times are: 7430
C	-0.0931195	-1.26753	0.551122
N	-0.156939	-1.91985	-0.639875
C	-0.112915	-1.19841	-1.78636
C	0.0167028	0.138965	0.541983
C	0.0518877	0.762699	-0.716086
N	-0.00950766	0.142257	-1.91336
H	-0.167278	-1.76717	-2.70592
N	-0.137512	-1.99322	1.69426
H	-0.216483	-2.99483	1.63004
H	-0.0923797	-1.53949	2.59147
N	0.101709	1.08486	1.57005
C	0.186065	2.25067	0.943434
N	0.160545	2.11524	-0.44209
H	0.266286	3.21056	1.42607
H	0.210368	2.84785	-1.13158
C	9.81088	-0.530829	-2.49098
C	9.34492	-0.161053	-1.112
H	9.14603	-0.109837	-3.25395
H	9.7938	-1.61784	-2.63066
H	10.8273	-0.171655	-2.67833
C	7.9978	-0.574607	-0.711221
C	10.0984	0.531467	-0.221115
N	9.63782	0.857723	1.04629
H	11.1018	0.867788	-0.451553
N	7.62206	-0.196372	0.594322
C	8.37534	0.511791	1.52311
H	6.6944	-0.472205	0.892277
H	10.2174	1.37374	1.69143
O	7.97511	0.810466	2.66176
O	7.20593	-1.21379	-1.43299
