30
  This energy is 3.7791e-05 and Call times are: 2406
C	-0.561296	0.446233	-1.18527
N	-1.25373	-0.69638	-1.43635
C	-1.16217	-1.72535	-0.559044
C	0.226399	0.511665	-0.0166688
C	0.232527	-0.626284	0.806772
N	-0.44371	-1.77306	0.583648
H	-1.73337	-2.61098	-0.806901
N	-0.65616	1.47187	-2.06528
H	-1.23646	1.35945	-2.88027
H	-0.155703	2.33065	-1.90738
N	1.03917	1.51809	0.517525
C	1.52266	0.996258	1.63681
N	1.0674	-0.300207	1.86172
H	2.19403	1.49585	2.31537
H	1.2903	-0.903323	2.63706
C	9.65919	-1.52548	2.23704
C	9.41152	-0.591199	1.0876
H	9.91212	-2.52935	1.87697
H	8.75887	-1.63472	2.85258
H	10.4746	-1.16804	2.87314
C	8.34526	-0.935427	0.143682
C	10.117	0.548247	0.875615
N	9.86309	1.39053	-0.197213
H	10.9179	0.86247	1.53346
N	8.16448	-0.0176594	-0.91164
C	8.87353	1.15389	-1.14888
H	7.43226	-0.236043	-1.57615
H	10.4017	2.23291	-0.333614
O	8.65633	1.91748	-2.10578
O	7.62475	-1.95079	0.224153
