30
  This energy is 7.4458e-05 and Call times are: 11698
C	0.964264	-0.149273	0.983333
N	1.99438	0.305341	0.221587
C	1.74705	0.690433	-1.0541
C	-0.323808	-0.200733	0.41011
C	-0.44103	0.228376	-0.922236
N	0.562088	0.684011	-1.70219
H	2.60218	1.04397	-1.61607
N	1.21671	-0.532992	2.25785
H	2.1596	-0.470856	2.60525
H	0.47529	-0.874001	2.84684
N	-1.56448	-0.608059	0.913772
C	-2.40802	-0.427619	-0.0935819
N	-1.78207	0.0769777	-1.23035
H	-3.46408	-0.638922	-0.0644835
H	-2.2051	0.296941	-2.11762
C	9.69375	0.162329	-1.83623
C	10.9168	-0.0125679	-0.982479
H	9.44677	1.22392	-1.95208
H	8.82126	-0.309768	-1.3701
H	9.83548	-0.272658	-2.83018
C	10.8805	0.519526	0.382054
C	12.0481	-0.632736	-1.40255
N	13.162	-0.777815	-0.588278
H	12.1431	-1.04871	-2.39805
N	12.0596	0.322487	1.13006
C	13.2287	-0.308554	0.721779
H	12.0564	0.682472	2.07654
H	13.9922	-1.24327	-0.923709
O	14.2336	-0.445528	1.44099
O	9.90519	1.10922	0.889619
