30
  This energy is -0.00288339 and Call times are: 7703
C	-1.08937	0.558642	-0.648244
N	-0.394365	0.953863	-1.74772
C	0.934804	0.696734	-1.81127
C	-0.393514	-0.105252	0.383933
C	0.982869	-0.308063	0.190389
N	1.69881	0.0725535	-0.888838
H	1.43956	1.03265	-2.70817
N	-2.41777	0.818024	-0.589559
H	-2.85309	1.29597	-1.36134
H	-2.95977	0.538098	0.210925
N	-0.806169	-0.627281	1.61522
C	0.297727	-1.13235	2.14926
N	1.41124	-0.967147	1.32984
H	0.356356	-1.62115	3.10759
H	2.35674	-1.26294	1.51186
C	5.39134	0.892295	-2.30773
C	5.9304	0.42453	-0.98635
H	5.56203	0.140951	-3.08731
H	5.90335	1.80342	-2.638
H	4.31803	1.09726	-2.25075
C	7.35871	0.109266	-0.903074
C	5.17192	0.278199	0.129098
N	5.7011	-0.156731	1.3356
H	4.11043	0.493226	0.138046
N	7.8004	-0.323929	0.36418
C	7.04345	-0.48128	1.51909
H	8.78483	-0.547266	0.444397
H	5.11627	-0.25762	2.15178
O	7.5048	-0.869809	2.60634
O	8.16368	0.20105	-1.85184
