30
  This energy is 0.000242614 and Call times are: 11566
C	0.16761	0.248252	-1.35252
N	1.48447	-0.0880752	-1.38148
C	2.08405	-0.491469	-0.234913
C	-0.521092	0.162369	-0.124238
C	0.219986	-0.270376	0.987768
N	1.5263	-0.610559	0.989393
H	3.13303	-0.747303	-0.31394
N	-0.427078	0.650843	-2.50127
H	0.122395	0.689744	-3.34398
H	-1.40045	0.906433	-2.51225
N	-1.84733	0.430095	0.233939
C	-1.90158	0.164086	1.53208
N	-0.678284	-0.263967	2.041
H	-2.77956	0.259329	2.14919
H	-0.465596	-0.524197	2.99055
C	11.3601	0.678473	2.14895
C	10.5979	0.191883	0.94995
H	10.7741	0.543924	3.0654
H	11.5695	1.75145	2.06967
H	12.3094	0.145934	2.26131
C	9.30136	0.81204	0.66562
C	11.0409	-0.785436	0.119563
N	10.3116	-1.21264	-0.980661
H	11.9893	-1.28598	0.270957
N	8.6377	0.310227	-0.472988
C	9.07094	-0.688455	-1.33699
H	7.73936	0.724992	-0.688306
H	10.6625	-1.94163	-1.5838
O	8.42779	-1.08051	-2.32621
O	8.7815	1.71798	1.34796
