30
  This energy is -0.00255093 and Call times are: 2428
C	0.618774	-0.6772	-1.03805
N	-0.400791	-1.5523	-1.24484
C	-1.50863	-1.46424	-0.46909
C	0.478757	0.28936	-0.019955
C	-0.721176	0.270196	0.709987
N	-1.74942	-0.585159	0.52762
H	-2.28973	-2.18479	-0.675787
N	1.72397	-0.769381	-1.81613
H	1.75951	-1.48296	-2.52545
H	2.49557	-0.136128	-1.68757
N	1.32299	1.3087	0.435091
C	0.645244	1.88881	1.41643
N	-0.599236	1.30066	1.62624
H	0.993266	2.72303	2.00269
H	-1.29346	1.55961	2.30858
C	4.72404	0.171298	1.08144
C	6.15185	0.213442	0.61774
H	4.4659	-0.823934	1.46127
H	4.03762	0.373833	0.251265
H	4.53966	0.904472	1.87245
C	6.55433	-0.713528	-0.442983
C	7.08527	1.05796	1.12414
N	8.39737	1.07161	0.673525
H	6.85628	1.76831	1.90903
N	7.9068	-0.622932	-0.831982
C	8.87961	0.23254	-0.328624
H	8.2067	-1.2548	-1.56424
H	9.07363	1.70949	1.06612
O	10.0584	0.255347	-0.723334
O	5.79618	-1.53836	-0.992001
