30
  This energy is -3.544e-06 and Call times are: 8151
C	0.420182	0.299057	1.28571
N	1.53765	-0.473599	1.23742
C	1.80747	-1.16709	0.104679
C	-0.41423	0.345726	0.149071
C	-0.017865	-0.421522	-0.95874
N	1.0844	-1.19693	-1.03571
H	2.70915	-1.76608	0.119811
N	0.15495	0.990289	2.42026
H	0.792391	0.912613	3.19565
H	-0.66437	1.57095	2.48697
N	-1.60746	1.02695	-0.117412
C	-1.92075	0.676664	-1.35759
N	-0.993094	-0.198958	-1.91563
H	-2.78899	1.01569	-1.89794
H	-1.00924	-0.604891	-2.83734
C	19.6082	2.63578	0.719123
C	19.267	1.18786	0.512953
H	18.8797	3.28391	0.218506
H	20.5853	2.8728	0.282663
H	19.6302	2.893	1.78242
C	19.1993	0.690181	-0.863321
C	19.019	0.319292	1.52538
N	18.7059	-1.01356	1.30093
H	19.0518	0.619948	2.56538
N	18.8745	-0.676495	-0.987442
C	18.6167	-1.58406	0.0330751
H	18.8224	-1.04179	-1.93044
H	18.5255	-1.64038	2.07093
O	18.3354	-2.78062	-0.153973
O	19.405	1.38237	-1.88073
