30
  This energy is -1.4376e-05 and Call times are: 10813
C	0.553702	0.122152	1.26393
N	-0.42513	-0.574849	1.89966
C	-1.45401	-1.07351	1.17193
C	0.45557	0.297023	-0.132547
C	-0.66267	-0.271613	-0.764381
N	-1.64893	-0.967777	-0.160368
H	-2.20558	-1.61998	1.72742
N	1.57999	0.618545	1.99584
H	1.58926	0.457568	2.98962
H	2.31979	1.13881	1.55434
N	1.27592	0.947551	-1.06136
C	0.664048	0.77351	-2.22507
N	-0.514684	0.0422673	-2.10446
H	1.01605	1.14477	-3.17323
H	-1.15263	-0.219483	-2.8387
C	10.5541	-1.1302	1.13396
C	11.7213	-0.582064	0.364104
H	10.0362	-0.332491	1.67882
H	10.8878	-1.8536	1.88678
H	9.83557	-1.62296	0.472033
C	12.7726	0.108639	1.11516
C	11.8556	-0.690238	-0.981701
N	12.9471	-0.172109	-1.66347
H	11.1165	-1.18765	-1.59773
N	13.8391	0.598915	0.333661
C	13.9981	0.500287	-1.04351
H	14.5774	1.07993	0.832698
H	13.0245	-0.26537	-2.66531
O	14.9709	0.959677	-1.66674
O	12.7705	0.27579	2.35153
