30
  This energy is -0.00110124 and Call times are: 11500
C	-0.538144	0.868575	0.93542
N	-1.28323	1.57208	0.042113
C	-1.24132	1.22256	-1.26668
C	0.25024	-0.200008	0.459034
C	0.201761	-0.455767	-0.921277
N	-0.527386	0.22457	-1.83104
H	-1.85323	1.81527	-1.93474
N	-0.583513	1.2219	2.2425
H	-1.1674	1.99518	2.51582
H	-0.0434145	0.720606	2.92799
N	1.10877	-1.09854	1.1028
C	1.56572	-1.87659	0.130832
N	1.04968	-1.53255	-1.11576
H	2.25897	-2.6909	0.261459
H	1.24295	-1.97004	-2.00224
C	4.32381	1.30067	1.08938
C	5.58116	0.590582	0.676736
H	3.43687	0.73248	0.786254
H	4.2483	2.27802	0.599014
H	4.28763	1.4509	2.1726
C	5.77545	0.316345	-0.749252
C	6.5424	0.1907	1.54682
N	7.69344	-0.463984	1.1329
H	6.463	0.361082	2.61347
N	6.97508	-0.352284	-1.06941
C	7.97266	-0.77101	-0.197012
H	7.12996	-0.551907	-2.05001
H	8.39432	-0.751603	1.79952
O	9.00869	-1.3582	-0.554423
O	4.97106	0.630244	-1.6498
