30
  This energy is 0.00110816 and Call times are: 2062
C	-0.838591	1.08843	0.176391
N	-1.4155	0.621431	1.31532
C	-1.02028	-0.578162	1.80687
C	0.151311	0.300275	-0.447521
C	0.466707	-0.922732	0.167134
N	-0.088366	-1.41182	1.29623
H	-1.51158	-0.90254	2.71541
N	-1.23714	2.28805	-0.310872
H	-1.94906	2.80006	0.183712
H	-0.82908	2.66081	-1.15197
N	0.91897	0.490609	-1.60222
C	1.67847	-0.593872	-1.67936
N	1.44651	-1.48368	-0.633845
H	2.40223	-0.791242	-2.45265
H	1.89464	-2.37116	-0.472129
C	7.35837	-2.10487	-1.7235
C	6.82983	-1.01867	-0.831174
H	8.00008	-2.79379	-1.16225
H	7.97906	-1.68554	-2.52369
H	6.54518	-2.67873	-2.17809
C	7.80159	-0.160792	-0.148433
C	5.50893	-0.788876	-0.622996
N	5.053	0.223747	0.208607
H	4.73758	-1.38461	-1.09543
N	7.24043	0.838287	0.673536
C	5.89323	1.09226	0.901849
H	7.89435	1.44309	1.15521
H	4.06497	0.375008	0.347458
O	5.47118	1.99608	1.64406
O	9.04032	-0.265725	-0.253758
