30
  This energy is -0.00173685 and Call times are: 5116
C	0.54786	0.122195	-1.26647
N	1.14439	1.32105	-1.03203
C	1.01023	1.89304	0.189314
C	-0.188576	-0.477455	-0.223185
C	-0.247641	0.222641	0.99312
N	0.333496	1.41258	1.25486
H	1.50499	2.84675	0.322287
N	0.68497	-0.445384	-2.48893
H	1.2245	0.0361336	-3.18939
H	0.255365	-1.33226	-2.69336
N	-0.904473	-1.67743	-0.143101
C	-1.38283	-1.69759	1.09369
N	-1.01615	-0.571847	1.82644
H	-1.98972	-2.48343	1.5119
H	-1.25367	-0.356714	2.78137
C	4.37367	-0.154009	-0.320433
C	5.85736	0.0714707	-0.263396
H	3.92806	-0.0761848	0.677953
H	4.14555	-1.1626	-0.683873
H	3.88482	0.57167	-0.977436
C	6.65374	-0.824986	0.578358
C	6.49814	1.0545	-0.944566
N	7.87154	1.23636	-0.870057
H	5.97128	1.75175	-1.58436
N	8.03871	-0.55956	0.58782
C	8.71646	0.43974	-0.100381
H	8.6085	-1.16752	1.16327
H	8.32533	1.9751	-1.38647
O	9.94623	0.613637	-0.0427496
O	6.18927	-1.76556	1.25376
