30
  This energy is 7.2731e-05 and Call times are: 9537
C	-0.522241	-1.17305	0.519862
N	0.249607	-2.0008	-0.233234
C	1.13454	-1.45966	-1.10553
C	-0.367849	0.220134	0.35995
C	0.585552	0.647434	-0.578913
N	1.36518	-0.149659	-1.33983
H	1.72363	-2.16332	-1.67989
N	-1.40526	-1.7189	1.39031
H	-1.4653	-2.72179	1.45524
H	-1.99068	-1.1327	1.96175
N	-0.993842	1.31421	0.96822
C	-0.429024	2.37493	0.407212
N	0.534466	2.03014	-0.536966
H	-0.668643	3.40002	0.63644
H	1.09808	2.65178	-1.09418
C	19.2918	1.85964	-0.0260203
C	18.1566	0.895634	0.16776
H	19.0252	2.63612	-0.752247
H	20.1739	1.34852	-0.428558
H	19.5692	2.34372	0.915231
C	17.6705	0.166243	-1.00616
C	17.559	0.663888	1.36362
N	16.5113	-0.233926	1.50904
H	17.8679	1.16819	2.271
N	16.6042	-0.722162	-0.756282
C	15.977	-0.975693	0.457761
H	16.2525	-1.23712	-1.55409
H	16.083	-0.389207	2.40946
O	15.0377	-1.77743	0.602059
O	18.1314	0.286672	-2.15928
