30
  This energy is 0.00014652 and Call times are: 8063
C	-0.991374	0.966698	0.0412883
N	-0.210115	1.97083	-0.437703
C	1.0835	1.70673	-0.743715
C	-0.41889	-0.312947	0.199828
C	0.93324	-0.449597	-0.155266
N	1.73279	0.527612	-0.632722
H	1.66058	2.54139	-1.12102
N	-2.28377	1.23582	0.345676
H	-2.62951	2.17141	0.208781
H	-2.88744	0.513754	0.702185
N	-0.939637	-1.52885	0.657287
C	0.0770327	-2.37684	0.578699
N	1.2361	-1.77731	0.0931212
H	0.0395889	-3.41812	0.852738
H	2.13398	-2.2086	-0.056581
C	13.6933	0.00862919	2.79743
C	13.6867	-0.173905	1.30677
H	12.7171	0.358364	3.15253
H	14.4225	0.771235	3.0943
H	13.9371	-0.925388	3.31265
C	13.3764	0.992338	0.47609
C	13.9505	-1.35305	0.689565
N	13.9359	-1.48852	-0.691117
H	14.187	-2.25399	1.24223
N	13.3867	0.753686	-0.913738
C	13.6536	-0.44323	-1.56777
H	13.175	1.5465	-1.50705
H	14.1357	-2.37651	-1.12693
O	13.6441	-0.578381	-2.80371
O	13.1166	2.13031	0.916632
