30
  This energy is -2.225e-06 and Call times are: 8019
C	0.740525	-0.212848	1.15124
N	-0.253318	-0.849181	1.82609
C	-1.45131	-1.02554	1.21736
C	0.480498	0.238537	-0.159868
C	-0.804066	-0.00926938	-0.671248
N	-1.80946	-0.637539	-0.0257734
H	-2.20701	-1.5379	1.79913
N	1.93616	-0.0390578	1.76412
H	2.05539	-0.385772	2.70176
H	2.69159	0.42813	1.29087
N	1.26993	0.911562	-1.09939
C	0.477201	1.06456	-2.15155
N	-0.790449	0.525822	-1.94786
H	0.755565	1.54726	-3.07366
H	-1.56434	0.516327	-2.59253
C	16.1822	1.61258	0.159468
C	14.9856	0.745258	-0.107366
H	16.8877	1.1092	0.83057
H	15.8872	2.54181	0.660357
H	16.7049	1.86744	-0.767421
C	14.1798	0.319439	1.03973
C	14.6111	0.335954	-1.34558
N	13.4992	-0.466046	-1.55831
H	15.1609	0.613498	-2.23648
N	13.0716	-0.492332	0.720986
C	12.669	-0.923694	-0.537358
H	12.5004	-0.798201	1.4992
H	13.2408	-0.757526	-2.48924
O	11.6751	-1.64207	-0.742048
O	14.4146	0.625109	2.22633
