30
  This energy is 6.5934e-05 and Call times are: 10263
C	-0.841094	-1.06838	-0.264866
N	0.156159	-1.95049	-0.539517
C	1.44255	-1.53006	-0.46689
C	-0.492008	0.252872	0.0855522
C	0.878964	0.556237	0.123308
N	1.89001	-0.297295	-0.14397
H	2.19678	-2.27239	-0.695208
N	-2.12527	-1.49357	-0.338867
H	-2.30527	-2.45042	-0.595048
H	-2.88564	-0.864505	-0.141376
N	-1.26024	1.37448	0.418238
C	-0.370532	2.33015	0.650618
N	0.94041	1.89053	0.486812
H	-0.606405	3.34202	0.935631
H	1.7863	2.42445	0.6051
C	16.4428	2.13258	1.78666
C	16.7407	1.08758	0.749992
H	16.5772	1.72983	2.79717
H	15.3995	2.46208	1.72059
H	17.0918	3.00589	1.67075
C	15.9503	-0.145736	0.775005
C	17.6965	1.22138	-0.20367
N	17.9472	0.236093	-1.14772
H	18.3167	2.10605	-0.279659
N	16.2797	-1.08491	-0.224069
C	17.2529	-0.970142	-1.20962
H	15.7454	-1.94512	-0.225384
H	18.6638	0.359033	-1.84747
O	17.4876	-1.84489	-2.06145
O	15.0445	-0.39332	1.59648
