30
  This energy is -0.00895273 and Call times are: 5350
C	0.883145	-0.802041	-0.704142
N	1.76528	-0.949462	0.31966
C	1.50413	-0.343108	1.50329
C	-0.271518	-0.0204648	-0.489075
C	-0.419916	0.551786	0.785102
N	0.437811	0.423173	1.81948
H	2.2388	-0.493035	2.2842
N	1.14877	-1.41015	-1.88525
H	1.99156	-1.95401	-1.97192
H	0.515233	-1.31999	-2.66204
N	-1.34797	0.319064	-1.31662
C	-2.12553	1.07829	-0.556447
N	-1.61229	1.2525	0.726094
H	-3.05532	1.52372	-0.86922
H	-2.01516	1.78281	1.48178
C	6.47471	2.16518	1.37166
C	5.88631	1.10597	0.484356
H	7.37395	1.79554	1.87776
H	5.76948	2.44942	2.16112
H	6.73922	3.06113	0.801973
C	5.48026	-0.157824	1.10431
C	5.71088	1.25353	-0.852945
N	5.16403	0.254501	-1.64525
H	5.98884	2.16071	-1.37529
N	4.9359	-1.10903	0.216855
C	4.74678	-0.980607	-1.15402
H	4.64825	-1.99029	0.624341
H	5.04353	0.388142	-2.63821
O	4.25793	-1.86742	-1.87547
O	5.58712	-0.420507	2.31928
