30
  This energy is -6.407e-05 and Call times are: 9669
C	-0.556922	-0.230299	1.24733
N	0.623361	-0.200612	1.92121
C	1.76878	0.0141702	1.22932
C	-0.53819	-0.0352967	-0.149805
C	0.717561	0.177217	-0.742214
N	1.90431	0.211935	-0.0998658
H	2.67963	0.0281076	1.8143
N	-1.69904	-0.445331	1.94352
H	-1.64202	-0.577092	2.94001
H	-2.58844	-0.472896	1.4733
N	-1.55439	-0.00809891	-1.11182
C	-0.923062	0.215753	-2.25646
N	0.454272	0.336318	-2.09188
H	-1.39659	0.299702	-3.22056
H	1.14517	0.50671	-2.80478
C	13.8825	0.917716	-1.0713
C	15.191	0.587834	-0.412244
H	13.1067	0.200175	-0.780304
H	13.9681	0.856067	-2.16229
H	13.544	1.92356	-0.804927
C	15.7757	-0.729797	-0.673706
C	15.8584	1.43794	0.407972
N	17.0665	1.10221	1.00191
H	15.4836	2.42631	0.643994
N	17.0035	-0.976157	-0.0252635
C	17.7048	-0.122362	0.817836
H	17.4258	-1.88128	-0.192168
H	17.5441	1.75204	1.6085
O	18.7879	-0.410353	1.35625
O	15.2656	-1.60149	-1.40616
