30
  This energy is -0.000968736 and Call times are: 2686
C	-0.897907	-0.293198	-1.01333
N	-1.39944	0.966824	-1.10757
C	-0.910645	1.93052	-0.289516
C	0.11455	-0.544232	-0.0634447
C	0.53001	0.544276	0.721135
N	0.0512632	1.80441	0.65018
H	-1.34475	2.9154	-0.406129
N	-1.38985	-1.25291	-1.83327
H	-2.11275	-1.00646	-2.48922
H	-1.03916	-2.19516	-1.78765
N	0.823102	-1.70259	0.275716
C	1.64575	-1.31837	1.24241
N	1.51119	0.0323044	1.55264
H	2.3498	-1.95744	1.74904
H	2.02025	0.556691	2.24581
C	5.959	-2.69822	0.427945
C	5.51276	-1.30909	0.0721106
H	5.78331	-2.90494	1.48992
H	7.03614	-2.81668	0.263215
H	5.4312	-3.45104	-0.165277
C	6.13167	-0.188234	0.784179
C	4.57281	-1.03571	-0.867394
N	4.18234	0.260134	-1.17265
H	4.07544	-1.81561	-1.43081
N	5.66876	1.08821	0.403276
C	4.70868	1.39229	-0.554513
H	6.08338	1.87779	0.882924
H	3.48077	0.438024	-1.87585
O	4.34978	2.54847	-0.83792
O	7.0054	-0.302331	1.66744
