30
  This energy is -0.00230824 and Call times are: 2224
C	0.392192	-0.927409	-0.951383
N	0.702821	-0.00883252	-1.90417
C	0.541036	1.30734	-1.62424
C	-0.0874402	-0.468551	0.293513
C	-0.207627	0.92197	0.451713
N	0.0925783	1.85669	-0.47476
H	0.803105	1.99573	-2.41764
N	0.555676	-2.24177	-1.23613
H	0.902458	-2.50159	-2.14488
H	0.334539	-2.94583	-0.551803
N	-0.486301	-1.13893	1.45556
C	-0.838189	-0.172619	2.293
N	-0.689723	1.09555	1.73767
H	-1.20159	-0.32222	3.29615
H	-0.889037	1.98271	2.17105
C	3.52547	1.24704	1.05159
C	4.68273	0.627067	0.322314
H	3.87237	2.01028	1.75765
H	2.99028	0.496565	1.64467
H	2.81852	1.71082	0.357063
C	5.71768	-0.0360623	1.11951
C	4.8225	0.646979	-1.02713
N	5.90484	0.0645213	-1.67064
H	4.09553	1.11958	-1.67616
N	6.7756	-0.596927	0.374583
C	6.93991	-0.588984	-1.00546
H	7.50239	-1.06059	0.905809
H	5.98647	0.0924117	-2.67608
O	7.90439	-1.10707	-1.59474
O	5.70902	-0.124591	2.36396
