30
  This energy is 2.6818e-05 and Call times are: 10857
C	-0.694912	0.949897	0.730633
N	0.159027	1.97143	0.456158
C	1.23879	1.7316	-0.327065
C	-0.418756	-0.321745	0.185631
C	0.734024	-0.432696	-0.609233
N	1.59921	0.562202	-0.898738
H	1.88568	2.57933	-0.513943
N	-1.77274	1.19479	1.51401
H	-1.91129	2.12592	1.87093
H	-2.42323	0.459396	1.73528
N	-1.08276	-1.55053	0.275321
C	-0.345246	-2.38096	-0.449493
N	0.767247	-1.75771	-1.00859
H	-0.558439	-3.42541	-0.60579
H	1.47367	-2.17273	-1.59451
C	17.2147	1.20987	-1.89721
C	16.4746	0.522785	-0.785638
H	16.8795	2.24767	-2.0067
H	17.0209	0.718605	-2.85766
H	18.294	1.20975	-1.71765
C	15.015	0.441618	-0.883275
C	17.0795	-0.0241363	0.298769
N	16.3661	-0.652324	1.30942
H	18.1537	0.000217871	0.434471
N	14.3815	-0.215269	0.191832
C	14.9791	-0.782291	1.31122
H	13.3723	-0.28291	0.144775
H	16.839	-1.05174	2.10643
O	14.3521	-1.34812	2.22369
O	14.3386	0.902415	-1.82491
