30
  This energy is 0.000537501 and Call times are: 7843
C	0.483192	0.597763	1.15249
N	-0.573973	1.43715	1.3134
C	-1.58647	1.39724	0.413345
C	0.480477	-0.282766	0.0502098
C	-0.631204	-0.221048	-0.806165
N	-1.6938	0.600575	-0.672015
H	-2.40295	2.08624	0.588487
N	1.49271	0.641559	2.05489
H	1.43201	1.29412	2.81914
H	2.28896	0.0328989	1.96313
N	1.39449	-1.24788	-0.38797
C	0.844051	-1.7545	-1.48307
N	-0.383399	-1.16977	-1.78328
H	1.27511	-2.53173	-2.09206
H	-0.991166	-1.3815	-2.55812
C	11.6818	0.643488	0.868612
C	10.3635	0.132205	0.362614
H	11.6005	0.967507	1.91254
H	12.0064	1.52019	0.296393
H	12.4594	-0.123391	0.801661
C	9.21962	1.04725	0.387728
C	10.1738	-1.12389	-0.113987
N	8.94178	-1.56568	-0.574288
H	10.9751	-1.85101	-0.160867
N	8.01256	0.505758	-0.100605
C	7.79452	-0.775524	-0.592887
H	7.20855	1.12132	-0.0925104
H	8.82569	-2.50503	-0.924286
O	6.69624	-1.18412	-1.0085
O	9.25944	2.22426	0.799582
