30
  This energy is -0.00101482 and Call times are: 2150
C	-0.0748714	1.37411	-0.158871
N	1.06531	1.6443	0.530375
C	1.77361	0.615394	1.05623
C	-0.473311	0.0278673	-0.297549
C	0.352365	-0.940767	0.296613
N	1.48836	-0.702897	0.985888
H	2.67272	0.886194	1.59503
N	-0.779265	2.40608	-0.68254
H	-0.438987	3.34383	-0.546803
H	-1.62733	2.23854	-1.19793
N	-1.56795	-0.571027	-0.931551
C	-1.40339	-1.87035	-0.722833
N	-0.256829	-2.15157	0.0154001
H	-2.06608	-2.64425	-1.07308
H	0.0829576	-3.05571	0.301176
C	6.56909	-1.9877	1.88308
C	6.76013	-0.816416	0.962738
H	7.5157	-2.26944	2.35844
H	6.22669	-2.86872	1.32815
H	5.83887	-1.76436	2.66676
C	7.71078	-0.962619	-0.142382
C	6.10465	0.363916	1.09722
N	6.30417	1.42767	0.229191
H	5.38903	0.539982	1.89092
N	7.84332	0.172577	-0.968484
C	7.18376	1.39021	-0.850532
H	8.49547	0.0934433	-1.7391
H	5.8044	2.29599	0.349992
O	7.35293	2.35115	-1.62118
O	8.37584	-1.99184	-0.376829
