30
  This energy is 0.00255748 and Call times are: 6198
C	-1.34457	-0.217156	0.253008
N	-1.16525	-0.654837	1.52751
C	0.092111	-0.715305	2.02974
C	-0.208523	0.156952	-0.495197
C	1.03622	0.0456928	0.146098
N	1.24488	-0.38485	1.40835
H	0.178225	-1.07065	3.04874
N	-2.60336	-0.158565	-0.244349
H	-3.37059	-0.440613	0.343359
H	-2.76874	0.161077	-1.18423
N	-0.0555844	0.63713	-1.80092
C	1.25182	0.810399	-1.94072
N	1.9616	0.467951	-0.792841
H	1.73829	1.17377	-2.8307
H	2.95792	0.511475	-0.651223
C	7.63554	2.55133	1.07393
C	7.71654	1.21851	0.386586
H	8.57566	3.10439	0.965782
H	7.47159	2.42633	2.15044
H	6.82376	3.16157	0.66666
C	8.75798	0.285434	0.823811
C	6.88309	0.832376	-0.612008
N	6.9847	-0.407086	-1.22703
H	6.09205	1.47197	-0.983836
N	8.77972	-0.946954	0.13866
C	7.93788	-1.36401	-0.885513
H	9.49191	-1.60741	0.425018
H	6.35263	-0.67144	-1.96795
O	8.01775	-2.47152	-1.44493
O	9.58564	0.516524	1.72833
