30
  This energy is 0.000644242 and Call times are: 7821
C	0.763071	-1.13993	0.193192
N	0.144614	-1.51351	1.34472
C	-0.860764	-0.744356	1.82894
C	0.329415	0.0379319	-0.450979
C	-0.722787	0.741471	0.158056
N	-1.35523	0.395465	1.29931
H	-1.31849	-1.08726	2.74815
N	1.76744	-1.91215	-0.286672
H	2.02777	-2.74072	0.222528
H	2.2448	-1.66224	-1.13672
N	0.746944	0.680626	-1.62208
C	-0.0369868	1.74638	-1.71435
N	-0.945899	1.83328	-0.663164
H	0.00227895	2.47959	-2.50278
H	-1.64131	2.54574	-0.510163
C	8.91229	1.39337	-2.13119
C	8.23588	0.521849	-1.1122
H	9.97535	1.51771	-1.89491
H	8.47626	2.39898	-2.13624
H	8.82623	0.971522	-3.13712
C	8.26526	0.955845	0.286789
C	7.60235	-0.639489	-1.41363
N	6.98682	-1.42243	-0.447718
H	7.54284	-1.01895	-2.42632
N	7.61268	0.0936087	1.19198
C	6.95821	-1.09889	0.907052
H	7.62068	0.374488	2.16484
H	6.52168	-2.28261	-0.696875
O	6.40257	-1.80975	1.76254
O	8.81232	1.99974	0.69615
