30
  This energy is -4.8716e-05 and Call times are: 2450
C	0.377141	-1.24462	0.477202
N	-0.648876	-1.92038	-0.104781
C	-1.55259	-1.23188	-0.843764
C	0.457083	0.150846	0.285756
C	-0.54504	0.739729	-0.502906
N	-1.57427	0.0954496	-1.09263
H	-2.34883	-1.81824	-1.28448
N	1.27782	-1.93742	1.21487
H	1.16237	-2.93287	1.31151
H	2.04841	-1.46574	1.65829
N	1.36656	1.11403	0.737412
C	0.920623	2.25591	0.231316
N	-0.234187	2.08842	-0.528308
H	1.37967	3.21996	0.375017
H	-0.759094	2.79892	-1.0123
C	4.5116	0.56196	-2.49452
C	5.11349	0.440796	-1.12395
H	3.59199	-0.0295447	-2.571
H	5.19532	0.171902	-3.25726
H	4.27716	1.60294	-2.7367
C	5.48289	-0.89705	-0.654793
C	5.33295	1.49619	-0.299987
N	5.89113	1.35022	0.961751
H	5.08373	2.51149	-0.583035
N	6.04222	-0.941434	0.638988
C	6.27617	0.124239	1.49991
H	6.30509	-1.8567	0.983377
H	6.04465	2.15095	1.55641
O	6.77565	0.00755636	2.63252
O	5.33428	-1.9472	-1.3118
