30
  This energy is 5.604e-05 and Call times are: 9779
C	-0.0870129	0.501731	-1.2883
N	1.25352	0.651503	-1.45743
C	2.08541	0.30469	-0.445244
C	-0.55638	-0.0107079	-0.0605156
C	0.413536	-0.330175	0.903966
N	1.74913	-0.192465	0.764696
H	3.14255	0.444018	-0.632523
N	-0.91431	0.849845	-2.30307
H	-0.513613	1.20957	-3.15374
H	-1.91137	0.75073	-2.20848
N	-1.84362	-0.27928	0.418814
C	-1.65111	-0.749553	1.64383
N	-0.303484	-0.802162	1.98994
H	-2.43071	-1.06333	2.31803
H	0.0952924	-1.11943	2.8588
C	21.882	1.65745	1.31565
C	20.9669	0.631361	0.711334
H	21.308	2.46222	1.78919
H	22.5014	2.1306	0.545028
H	22.541	1.21137	2.06665
C	20.0216	1.07763	-0.315079
C	20.9669	-0.679492	1.06146
N	20.1076	-1.60282	0.483595
H	21.6387	-1.07674	1.81241
N	19.1919	0.0659907	-0.841266
C	19.1737	-1.28085	-0.498836
H	18.5305	0.352438	-1.5526
H	20.1266	-2.57291	0.760915
O	18.4095	-2.1186	-1.0087
O	19.9199	2.25117	-0.726224
