30
  This energy is -4.6253e-05 and Call times are: 9185
C	1.16283	-0.731761	0.177136
N	1.47228	-0.801076	-1.1448
C	0.647213	-0.21104	-2.04367
C	-0.00942753	-0.0453016	0.557848
C	-0.77505	0.520431	-0.475008
N	-0.493364	0.467939	-1.79413
H	0.940316	-0.296246	-3.08236
N	1.99078	-1.32317	1.07162
H	2.81173	-1.79728	0.732726
H	1.78902	-1.28929	2.05704
N	-0.595109	0.200847	1.80494
C	-1.68809	0.898834	1.5273
N	-1.84692	1.12163	0.162085
H	-2.39232	1.26545	2.25559
H	-2.59172	1.62187	-0.295769
C	20.1277	-0.802576	-2.62904
C	19.8075	-0.206459	-1.2883
H	19.4693	-1.65151	-2.84635
H	21.1521	-1.19185	-2.64887
H	20.0201	-0.0646258	-3.42972
C	19.9071	-1.07446	-0.112263
C	19.4329	1.08486	-1.10646
N	19.1435	1.60508	0.146732
H	19.3391	1.78064	-1.93118
N	19.5936	-0.453872	1.11463
C	19.2081	0.864711	1.32511
H	19.656	-1.03576	1.94102
H	18.8669	2.56934	0.256399
O	18.9462	1.34364	2.44223
O	20.2396	-2.27661	-0.141819
