30
  This energy is -0.00119861 and Call times are: 337
C	-0.929155	-0.97671	0.318968
N	-0.641596	-1.77719	-0.741509
C	0.319708	-1.38947	-1.61467
C	-0.210948	0.228747	0.465308
C	0.758737	0.510059	-0.511215
N	1.06573	-0.264325	-1.57341
H	0.508704	-2.06341	-2.44058
N	-1.89088	-1.36875	1.18888
H	-2.36561	-2.24149	1.02593
H	-2.12662	-0.798073	1.98365
N	-0.264984	1.24832	1.42261
C	0.651778	2.12247	1.02981
N	1.30255	1.72639	-0.135644
H	0.888074	3.04389	1.53568
H	2.03221	2.21599	-0.628065
C	6.50009	2.29693	1.11166
C	6.02846	1.05934	0.403585
H	6.62291	2.11022	2.18472
H	5.76414	3.10397	1.01975
H	7.45442	2.64837	0.707935
C	4.75924	0.467004	0.833238
C	6.70916	0.462121	-0.606813
N	6.24573	-0.681718	-1.24062
H	7.65286	0.846556	-0.973847
N	4.37386	-0.692138	0.128571
C	5.05344	-1.32097	-0.907916
H	3.49917	-1.11824	0.409239
H	6.77031	-1.10764	-1.99011
O	4.64954	-2.34584	-1.48447
O	4.03815	0.916084	1.74698
