30
  This energy is 0.000295678 and Call times are: 3087
C	-0.381053	1.33154	0.0290452
N	-1.34327	1.20942	-0.923472
C	-1.55906	-0.00442101	-1.48638
C	0.354745	0.183842	0.392038
C	0.0295472	-1.01171	-0.269714
N	-0.919149	-1.16316	-1.21798
H	-2.33626	-0.0458077	-2.2389
N	-0.169249	2.547	0.588644
H	-0.729984	3.32559	0.283741
H	0.535781	2.66961	1.29632
N	1.38689	-0.0217576	1.31468
C	1.67517	-1.31199	1.20942
N	0.884035	-1.96055	0.264882
H	2.43131	-1.8276	1.77789
H	0.911557	-2.93326	0.00472293
C	5.60258	0.188268	2.32475
C	6.30108	-0.0223196	1.01205
H	5.40025	1.25225	2.4933
H	6.23093	-0.143709	3.15922
H	4.65472	-0.356925	2.36427
C	7.58879	0.645739	0.807377
C	5.80826	-0.792921	0.00993601
N	6.47896	-0.96694	-1.19203
H	4.8629	-1.31473	0.0941264
N	8.19153	0.407006	-0.444982
C	7.70656	-0.376982	-1.48505
H	9.08284	0.859171	-0.607828
H	6.09175	-1.54543	-1.92263
O	8.29717	-0.541557	-2.56671
O	8.15056	1.37923	1.64581
