30
  This energy is -9.71e-05 and Call times are: 10175
C	0.68761	-0.450118	-1.11518
N	0.697491	0.750884	-1.75202
C	0.111852	1.81617	-1.15283
C	0.0651394	-0.535909	0.147968
C	-0.503436	0.644365	0.65462
N	-0.509079	1.84932	0.0461498
H	0.148197	2.74784	-1.70302
N	1.27434	-1.51187	-1.71833
H	1.70113	-1.38206	-2.62088
H	1.28352	-2.41408	-1.27243
N	-0.112229	-1.59838	1.04159
C	-0.772589	-1.06807	2.06217
N	-1.03606	0.28713	1.88138
H	-1.08337	-1.60157	2.94509
H	-1.52002	0.907682	2.5101
C	13.2546	-1.55549	-2.05305
C	13.677	-0.642582	-0.937884
H	13.3909	-2.60583	-1.7709
H	13.8693	-1.3921	-2.94569
H	12.2049	-1.40004	-2.31996
C	15.0616	-0.732411	-0.467484
C	12.8518	0.256207	-0.344581
N	13.2735	1.08571	0.684465
H	11.8173	0.374901	-0.642581
N	15.3934	0.151045	0.580417
C	14.5666	1.07862	1.20287
H	16.346	0.105943	0.921111
H	12.6405	1.74654	1.10996
O	14.9315	1.82789	2.12555
O	15.9193	-1.51375	-0.92633
