30
  This energy is -2.5807e-05 and Call times are: 1798
C	-0.984037	0.0842295	-0.971395
N	-0.964735	1.44096	-1.05489
C	-0.107741	2.13476	-0.266826
C	-0.106882	-0.54577	-0.0636155
C	0.729184	0.291742	0.693079
N	0.770531	1.6396	0.63187
H	-0.133292	3.21183	-0.373197
N	-1.84248	-0.604658	-1.76125
H	-2.44192	-0.0930182	-2.38774
H	-1.88043	-1.60963	-1.7226
N	0.114306	-1.89059	0.25483
C	1.06206	-1.86143	1.18208
N	1.47187	-0.565954	1.48618
H	1.4864	-2.7268	1.66356
H	2.17288	-0.284248	2.15238
C	5.959	-2.11003	1.73531
C	5.51276	-1.09234	0.725059
H	5.78331	-1.75054	2.75575
H	7.03614	-2.29559	1.65325
H	5.4312	-3.05959	1.60497
C	6.13167	0.234763	0.771528
C	4.57281	-1.33233	-0.223524
N	4.18234	-0.369472	-1.14292
H	4.07544	-2.29015	-0.31445
N	5.66876	1.14259	-0.20328
C	4.70868	0.919809	-1.18317
H	6.08338	2.06634	-0.189485
H	3.48077	-0.572152	-1.83938
O	4.34978	1.7733	-2.01301
O	7.0054	0.583628	1.59095
