30
  This energy is 1.816e-06 and Call times are: 10241
C	-1.04164	-0.91245	0.0380796
N	-1.33997	-0.820421	-1.28502
C	-0.612823	0.0160931	-2.06499
C	0.0170769	-0.12939	0.544336
C	0.688764	0.695465	-0.372981
N	0.415415	0.807552	-1.69014
H	-0.8921	0.05106	-3.11038
N	-1.77144	-1.75004	0.813445
H	-2.51399	-2.28075	0.388521
H	-1.57503	-1.84026	1.79639
N	0.562343	0.00335027	1.82649
C	1.5397	0.888175	1.68246
N	1.66128	1.34079	0.371341
H	2.18343	1.2364	2.4731
H	2.32314	2.00944	0.0115673
C	15.8975	-1.11435	2.51895
C	15.7229	-0.369475	1.22662
H	16.4203	-2.0637	2.3551
H	14.9257	-1.36747	2.95823
H	16.4652	-0.525172	3.2455
C	14.9802	-1.03073	0.150768
C	16.2126	0.875628	1.00103
N	16.034	1.53689	-0.205481
H	16.7705	1.42164	1.75184
N	14.8523	-0.278132	-1.03495
C	15.3444	0.996613	-1.28876
H	14.3422	-0.716261	-1.79206
H	16.4079	2.46312	-0.349212
O	15.1914	1.60046	-2.3648
O	14.4798	-2.17094	0.228702
