30
  This energy is -2.6032e-05 and Call times are: 10439
C	-0.656617	-0.219478	1.19988
N	-0.43387	-1.56033	1.22352
C	0.256498	-2.12888	0.205189
C	-0.157053	0.525677	0.111055
C	0.541278	-0.188073	-0.876829
N	0.777655	-1.51709	-0.880313
H	0.405515	-3.19899	0.273673
N	-1.34721	0.344	2.22014
H	-1.67608	-0.245546	2.96705
H	-1.52831	1.33394	2.23141
N	-0.214306	1.88799	-0.204695
C	0.435139	1.99016	-1.3565
N	0.914161	0.763969	-1.81
H	0.590203	2.90579	-1.90272
H	1.43471	0.581938	-2.6529
C	10.7885	0.415259	-2.13519
C	11.7981	0.04982	-1.08516
H	10.9516	1.43773	-2.49484
H	9.77212	0.389187	-1.72567
H	10.8371	-0.266338	-2.98976
C	11.8549	0.873177	0.125323
C	12.6565	-0.995193	-1.19471
N	13.5784	-1.30627	-0.205651
H	12.6687	-1.64416	-2.06175
N	12.8235	0.477019	1.07056
C	13.7122	-0.587738	0.980393
H	12.88	1.03247	1.91536
H	14.2066	-2.08907	-0.310306
O	14.5428	-0.877619	1.85899
O	11.1239	1.85901	0.349698
