30
  This energy is 8.7429e-05 and Call times are: 8547
C	-1.23583	0.324168	0.535421
N	-1.28971	1.56729	-0.0121316
C	-0.257545	1.99062	-0.781728
C	-0.102319	-0.47522	0.277548
C	0.895398	0.0855512	-0.536773
N	0.869608	1.31498	-1.09356
H	-0.351449	2.98775	-1.19279
N	-2.27008	-0.0942851	1.30391
H	-3.04937	0.52661	1.44807
H	-2.25977	-1.00917	1.72317
N	0.251716	-1.76767	0.681397
C	1.43563	-1.97844	0.122117
N	1.87379	-0.889568	-0.62691
H	2.01623	-2.88082	0.219002
H	2.73452	-0.806185	-1.14343
C	15.8825	0.598979	-2.30695
C	16.5102	0.285328	-0.979182
H	16.0698	-0.205579	-3.02738
H	16.3156	1.50859	-2.73867
H	14.8012	0.738439	-2.21405
C	17.9591	0.0715194	-0.940876
C	15.8136	0.189248	0.18117
N	16.4242	-0.10253	1.39233
H	14.7413	0.335237	0.224832
N	18.4851	-0.218827	0.334962
C	17.7925	-0.322282	1.53545
H	19.4851	-0.37019	0.384587
H	15.8843	-0.168615	2.24232
O	18.327	-0.582833	2.62738
O	18.7132	0.131078	-1.93304
