30
  This energy is 0.000252155 and Call times are: 6154
C	0.12134	-1.21085	0.661925
N	0.766977	-1.84603	-0.351867
C	1.02727	-1.16363	-1.49354
C	-0.251544	0.137662	0.480739
C	0.0790357	0.725463	-0.751425
N	0.718621	0.120802	-1.7749
H	1.54319	-1.71648	-2.26829
N	-0.136493	-1.89735	1.80105
H	0.157023	-2.85825	1.86511
H	-0.612784	-1.45499	2.5694
N	-0.91133	1.05299	1.30882
C	-0.975586	2.1657	0.590044
N	-0.391381	2.02455	-0.665922
H	-1.42341	3.09001	0.915419
H	-0.314809	2.72138	-1.38922
C	7.83552	2.45787	1.23637
C	8.19432	1.09054	0.729307
H	6.75044	2.61097	1.21266
H	8.2724	3.23706	0.601237
H	8.18596	2.60766	2.26204
C	7.79139	0.739217	-0.634736
C	8.86742	0.166956	1.46065
N	9.18354	-1.08869	0.962375
H	9.19483	0.360176	2.47482
N	8.15845	-0.557799	-1.0491
C	8.84669	-1.51947	-0.31897
H	7.88987	-0.82171	-1.98911
H	9.68521	-1.75876	1.52601
O	9.13648	-2.64791	-0.753197
O	7.17015	1.49444	-1.40951
