30
  This energy is -4.985e-05 and Call times are: 10043
C	-1.21695	0.295338	0.592324
N	-0.796558	1.44708	1.17955
C	0.487211	1.84359	1.0019
C	-0.294163	-0.440789	-0.180302
C	1.00515	0.0829413	-0.282788
N	1.45076	1.22211	0.288092
H	0.769375	2.7672	1.49115
N	-2.50111	-0.0966597	0.772955
H	-3.10805	0.475514	1.33672
H	-2.84235	-0.944412	0.351324
N	-0.407653	-1.63701	-0.897963
C	0.796615	-1.82748	-1.41983
N	1.69182	-0.816666	-1.07993
H	1.07939	-2.6613	-2.04074
H	2.65849	-0.735875	-1.35124
C	20.9737	-0.219213	-0.606265
C	19.5191	0.0630491	-0.361512
H	21.0999	-1.12963	-1.20344
H	21.5023	-0.392342	0.338192
H	21.4586	0.610423	-1.1296
C	18.7315	-0.958421	0.333155
C	18.8969	1.20574	-0.746206
N	17.5502	1.43579	-0.5049
H	19.4187	2.00149	-1.26351
N	17.374	-0.631616	0.531193
C	16.7156	0.530352	0.146681
H	16.8107	-1.32378	1.00976
H	17.1098	2.29417	-0.800878
O	15.5098	0.749331	0.356743
O	19.181	-2.04946	0.738288
