30
  This energy is 0.00171929 and Call times are: 6903
C	-1.0463	-0.183898	0.889086
N	-0.962766	-1.54067	0.905153
C	-0.0159642	-2.14879	0.149775
C	-0.139385	0.535759	0.0828814
C	0.791748	-0.218407	-0.650089
N	0.898396	-1.56406	-0.654111
H	0.00672693	-3.23003	0.199374
N	-1.99442	0.419162	1.64589
H	-2.61043	-0.153868	2.19884
H	-2.08154	1.42177	1.65531
N	0.0342968	1.90493	-0.149669
C	1.04713	1.9716	-1.00325
N	1.54459	0.715679	-1.3407
H	1.45987	2.88117	-1.4071
H	2.3058	0.504472	-1.96564
C	9.1639	1.21692	-0.999684
C	7.96268	0.422799	-0.573228
H	9.80537	1.44645	-0.14106
H	8.86343	2.17995	-1.42827
H	9.75713	0.675152	-1.74252
C	7.06666	1.01835	0.421185
C	7.66265	-0.809542	-1.05515
N	6.54416	-1.51763	-0.639892
H	8.28119	-1.30815	-1.79126
N	5.95893	0.221888	0.77795
C	5.63161	-1.04094	0.298684
H	5.32608	0.614394	1.46413
H	6.34218	-2.43313	-1.01328
O	4.63276	-1.68611	0.661931
O	7.22779	2.14059	0.941935
