30
  This energy is -0.004414 and Call times are: 6763
C	-0.250778	-0.0778608	-1.36018
N	0.920344	0.499349	-1.73882
C	1.79736	0.892276	-0.78316
C	-0.503648	-0.243631	0.0178439
C	0.489881	0.207787	0.902232
N	1.66062	0.78378	0.556142
H	2.71366	1.34579	-1.13921
N	-1.12406	-0.468874	-2.31927
H	-0.881617	-0.321216	-3.28519
H	-1.99931	-0.89916	-2.07089
N	-1.58558	-0.788037	0.719208
C	-1.24937	-0.666309	1.99633
N	-0.00262064	-0.0699976	2.16576
H	-1.85298	-0.984084	2.83025
H	0.469393	0.130285	3.03276
C	6.89931	2.51464	-1.22822
C	6.69328	1.19344	-0.544546
H	7.30056	2.37337	-2.23839
H	7.63122	3.1248	-0.686553
H	5.96323	3.07654	-1.30084
C	7.85936	0.323592	-0.371292
C	5.49317	0.762602	-0.0808394
N	5.33629	-0.464776	0.546679
H	4.59107	1.35445	-0.175727
N	7.5981	-0.901034	0.277338
C	6.3795	-1.36314	0.760078
H	8.39038	-1.51804	0.407773
H	4.43293	-0.763137	0.883229
O	6.22504	-2.46028	1.32428
O	9.01531	0.599938	-0.750728
