30
  This energy is 0.000471038 and Call times are: 2290
C	-0.0154033	0.654921	-1.2206
N	-1.06324	-0.0467187	-1.72836
C	-1.64176	-1.00608	-0.965622
C	0.426504	0.352516	0.0846291
C	-0.261855	-0.664887	0.765859
N	-1.30395	-1.37765	0.288181
H	-2.47154	-1.53412	-1.41805
N	0.559404	1.61282	-1.98701
H	0.194828	1.77836	-2.91074
H	1.33676	2.14932	-1.63945
N	1.45302	0.877618	0.87797
C	1.38276	0.190924	2.0104
N	0.36252	-0.756504	1.99793
H	2.0291	0.328889	2.86126
H	0.109829	-1.39633	2.73371
C	5.48656	2.07042	1.87645
C	5.52745	0.846858	1.00659
H	4.76371	2.79912	1.49189
H	6.45956	2.57495	1.88688
H	5.2136	1.81917	2.90582
C	5.87979	1.02218	-0.404625
C	5.25739	-0.40573	1.4527
N	5.30378	-1.51624	0.622363
H	4.99038	-0.60686	2.4829
N	5.9001	-0.164892	-1.16563
C	5.62758	-1.45667	-0.731336
H	6.14143	-0.0668609	-2.14418
H	5.09874	-2.43816	0.977855
O	5.66569	-2.4602	-1.46439
O	6.14966	2.11654	-0.939527
