30
  This energy is 0.001137 and Call times are: 11238
C	-1.33866	0.0756646	0.348287
N	-1.74492	0.626275	-0.826381
C	-0.823364	0.872176	-1.78924
C	0.0312924	-0.21732	0.514906
C	0.879195	0.0878732	-0.562563
N	0.505141	0.633948	-1.73903
H	-1.20038	1.31101	-2.7043
N	-2.26371	-0.16818	1.30755
H	-3.22574	0.0650062	1.12395
H	-1.99431	-0.575037	2.18777
N	0.754368	-0.773211	1.57651
C	2.00855	-0.801263	1.14625
N	2.14239	-0.291993	-0.1427
H	2.84979	-1.17085	1.70882
H	2.98721	-0.207013	-0.684589
C	7.22206	2.26579	1.62827
C	7.03547	0.964495	0.90216
H	6.64947	3.06713	1.14724
H	8.27229	2.57867	1.60554
H	6.90412	2.18918	2.67244
C	7.4182	0.908542	-0.510917
C	6.53446	-0.156675	1.47913
N	6.37434	-1.34415	0.779756
H	6.23175	-0.185388	2.51865
N	7.21794	-0.34086	-1.13347
C	6.7072	-1.50117	-0.563912
H	7.47598	-0.402075	-2.11075
H	5.99936	-2.16506	1.23123
O	6.55871	-2.57156	-1.17883
O	7.88964	1.86516	-1.15837
