30
  This energy is -8.181e-06 and Call times are: 3923
C	0.288331	1.03131	0.878805
N	-1.00512	1.27284	1.22045
C	-1.98351	0.522509	0.657783
C	0.557398	0.00508411	-0.0511559
C	-0.549409	-0.695968	-0.557638
N	-1.84269	-0.478886	-0.237527
H	-2.99505	0.756417	0.964583
N	1.26261	1.78408	1.44403
H	1.00184	2.50102	2.10098
H	2.22956	1.62958	1.21156
N	1.74957	-0.482228	-0.598987
C	1.36732	-1.45426	-1.41625
N	-0.0141667	-1.62736	-1.43071
H	2.02895	-2.05875	-2.01425
H	-0.543519	-2.2962	-1.96647
C	14.4552	-0.216441	-2.09388
C	15.4886	-0.274921	-1.00575
H	14.6962	0.568735	-2.8197
H	13.4698	0.0325824	-1.68367
H	14.3804	-1.17029	-2.62476
C	15.7051	0.930888	-0.202275
C	16.2295	-1.37687	-0.72687
N	17.1773	-1.3981	0.286062
H	16.121	-2.30116	-1.28093
N	16.6881	0.809507	0.801595
C	17.4582	-0.306824	1.10528
H	16.854	1.63145	1.3693
H	17.7161	-2.23032	0.474405
O	18.3105	-0.339497	2.00999
O	15.0922	2.0068	-0.355206
