30
  This energy is 0.000746192 and Call times are: 5958
C	-0.383983	-1.30653	-0.254103
N	-1.26889	-1.38164	0.775152
C	-1.43849	-0.300688	1.57491
C	0.322867	-0.100756	-0.446028
C	0.0518607	0.94189	0.455341
N	-0.819854	0.896563	1.48502
H	-2.15464	-0.414329	2.37881
N	-0.218094	-2.38976	-1.05063
H	-0.754433	-3.21979	-0.85831
H	0.429482	-2.36538	-1.82066
N	1.28026	0.291254	-1.38867
C	1.57763	1.54143	-1.06078
N	0.863396	1.98687	0.0483233
H	2.28789	2.16633	-1.57634
H	0.912439	2.89227	0.487002
C	8.13108	1.08108	-2.32085
C	7.55136	0.665553	-0.999221
H	7.39554	0.962183	-3.12475
H	8.98665	0.450112	-2.58779
H	8.46039	2.12435	-2.30173
C	7.06477	-0.710072	-0.867744
C	7.45349	1.48926	0.0744905
N	6.91198	1.07409	1.28249
H	7.79324	2.5173	0.0466256
N	6.53308	-1.03571	0.397146
C	6.42256	-0.210306	1.50983
H	6.19083	-1.98201	0.510272
H	6.85007	1.70569	2.06709
O	5.93982	-0.569438	2.59789
O	7.09651	-1.56539	-1.77548
