30
  This energy is -2.6503e-05 and Call times are: 9383
C	0.242071	-1.23012	-0.589271
N	-0.892177	-1.81883	-0.125617
C	-1.74089	-1.09362	0.642899
C	0.487709	0.11674	-0.248691
C	-0.473861	0.751757	0.554527
N	-1.60772	0.19376	1.02906
H	-2.62837	-1.61049	0.985337
N	1.08716	-1.95929	-1.35706
H	0.851851	-2.91631	-1.56282
H	1.93483	-1.55188	-1.71534
N	1.53577	0.991415	-0.557515
C	1.21092	2.12642	0.0467332
N	0.00375596	2.03844	0.734972
H	1.79589	3.03091	0.0249192
H	-0.452823	2.76059	1.26848
C	18.5501	1.41727	1.60787
C	17.7079	0.674431	0.610784
H	18.7698	0.789005	2.47874
H	18.0202	2.29856	1.98725
H	19.4966	1.74346	1.16624
C	16.405	0.172598	1.05478
C	18.0846	0.443184	-0.671999
N	17.2824	-0.247393	-1.56893
H	19.0336	0.785628	-1.06591
N	15.6647	-0.51527	0.0711763
C	16.0293	-0.763982	-1.24668
H	14.7605	-0.870818	0.356573
H	17.5848	-0.406793	-2.5184
O	15.3203	-1.38101	-2.06062
O	15.9413	0.317207	2.20397
