30
  This energy is -1.0489e-05 and Call times are: 10219
C	-0.0125509	-0.772567	1.14979
N	-1.07573	-0.141845	1.71539
C	-1.66537	0.878625	1.04621
C	0.433061	-0.335381	-0.115384
C	-0.267955	0.732973	-0.698665
N	-1.32538	1.37784	-0.161845
H	-2.50718	1.34566	1.54147
N	0.573326	-1.792	1.82273
H	0.205307	-2.05402	2.72246
H	1.36214	-2.27869	1.43054
N	1.47386	-0.762566	-0.947914
C	1.39961	0.0314922	-2.00756
N	0.363206	0.956191	-1.91029
H	2.05406	-0.0110507	-2.86234
H	0.104636	1.6614	-2.58143
C	16.4309	-0.759458	-1.26061
C	15.251	-0.218141	-0.505426
H	16.2448	-0.742076	-2.34064
H	16.6177	-1.80636	-0.995115
H	17.3363	-0.180976	-1.05395
C	13.9608	-0.890232	-0.6789
C	15.3131	0.853563	0.324345
N	14.2034	1.32925	1.00786
H	16.2338	1.39677	0.498262
N	12.8949	-0.332945	0.0572701
C	12.9344	0.762333	0.911887
H	11.9934	-0.782181	-0.0477006
H	14.2749	2.12849	1.61977
O	11.9481	1.19872	1.53044
O	13.7687	-1.8828	-1.40997
