30
  This energy is 1.1011e-05 and Call times are: 9845
C	-0.0267819	-1.24335	-0.610234
N	0.267231	-0.78095	-1.85434
C	0.456303	0.549253	-2.03227
C	-0.122802	-0.313984	0.446844
C	0.0963635	1.03554	0.124708
N	0.389466	1.52355	-1.09927
H	0.687842	0.863567	-3.04204
N	-0.214859	-2.57384	-0.437633
H	-0.131717	-3.18281	-1.23503
H	-0.433725	-2.9469	0.471117
N	-0.403248	-0.462042	1.81004
C	-0.353626	0.771029	2.29579
N	-0.0549987	1.71788	1.31959
H	-0.521198	1.03987	3.32555
H	0.0379085	2.7138	1.43833
C	23.6111	1.10844	0.54776
C	22.3065	0.532919	0.0765186
H	24.1542	0.387473	1.16955
H	23.4446	1.99328	1.17284
H	24.2494	1.39223	-0.294455
C	21.3411	0.104734	1.09192
C	21.9738	0.387989	-1.23087
N	20.7592	-0.148147	-1.63343
H	22.6396	0.683359	-2.03242
N	20.1375	-0.426078	0.583557
C	19.7751	-0.584136	-0.748831
H	19.4555	-0.728395	1.26829
H	20.5347	-0.245739	-2.61242
O	18.6904	-1.06269	-1.12323
O	21.5228	0.18316	2.32375
