30
  This energy is -0.00365334 and Call times are: 6110
C	-0.213217	-1.11318	-0.796486
N	-0.975372	-1.77644	0.113062
C	-1.22247	-1.19389	1.31157
C	0.2899	0.15896	-0.451692
C	-0.0418018	0.646267	0.82327
N	-0.795237	0.0114697	1.74606
H	-1.83441	-1.7649	1.99824
N	0.0308697	-1.69979	-1.99301
H	-0.358711	-2.61007	-2.17527
H	0.591436	-1.23424	-2.68722
N	1.08583	1.07788	-1.1452
C	1.22897	2.0944	-0.305502
N	0.567129	1.88694	0.90181
H	1.78862	2.99256	-0.507617
H	0.526244	2.50761	1.69408
C	6.32834	1.7861	2.04551
C	6.14468	0.808086	0.920702
H	5.86723	1.41263	2.96708
H	5.83804	2.73963	1.81799
H	7.3882	1.97705	2.23909
C	4.7754	0.450459	0.54179
C	7.17126	0.239925	0.239347
N	6.96753	-0.661142	-0.795746
H	8.20716	0.459303	0.467077
N	4.67256	-0.47153	-0.520305
C	5.70785	-1.06584	-1.23202
H	3.73473	-0.732818	-0.798878
H	7.74776	-1.07047	-1.28772
O	5.5394	-1.87434	-2.16146
O	3.74659	0.899861	1.08599
