30
  This energy is 0.000132626 and Call times are: 7035
C	-0.226935	1.08598	-0.829563
N	-0.0154403	2.02553	0.12991
C	0.299124	1.6224	1.38505
C	-0.109229	-0.274565	-0.475415
C	0.222142	-0.554215	0.860628
N	0.437655	0.356061	1.83383
H	0.457064	2.41091	2.10986
N	-0.541104	1.4941	-2.0826
H	-0.609181	2.48125	-2.26831
H	-0.703528	0.822825	-2.81466
N	-0.260308	-1.45653	-1.20958
C	-0.0249316	-2.42446	-0.33403
N	0.272378	-1.93557	0.935325
H	-0.053434	-3.47919	-0.551956
H	0.486125	-2.46749	1.76356
C	10.6098	-2.57565	-0.610432
C	10.0507	-1.19085	-0.451997
H	10.1988	-3.25203	0.147793
H	11.6969	-2.57641	-0.469776
H	10.3866	-2.98524	-1.60019
C	10.2691	-0.506791	0.825003
C	9.35767	-0.541287	-1.42088
N	8.85361	0.73893	-1.2425
H	9.15997	-0.987808	-2.38763
N	9.71915	0.789057	0.908549
C	9.00676	1.47374	-0.0688355
H	9.85847	1.28047	1.78291
H	8.34117	1.20144	-1.97859
O	8.54991	2.62079	0.0777067
O	10.8877	-0.990871	1.79432
