30
  This energy is 0.000950529 and Call times are: 11055
C	-1.16979	0.661019	-0.337155
N	-0.754301	1.88213	0.0921713
C	0.486156	2.0034	0.624527
C	-0.287418	-0.43234	-0.209304
C	0.969175	-0.168076	0.360046
N	1.40885	1.03188	0.79475
H	0.7664	2.99708	0.950262
N	-2.41059	0.545068	-0.868517
H	-2.99015	1.36594	-0.93065
H	-2.74706	-0.345394	-1.19527
N	-0.407628	-1.78547	-0.546118
C	0.7509	-2.32193	-0.187076
N	1.62257	-1.38843	0.367387
H	1.01577	-3.36016	-0.299676
H	2.55466	-1.54888	0.713905
C	9.69027	0.653124	2.17195
C	8.67745	0.274017	1.12988
H	10.0697	1.66652	1.99744
H	10.559	-0.0140534	2.13321
H	9.26269	0.609917	3.17821
C	9.10198	0.283866	-0.27229
C	7.39736	-0.0752127	1.41333
N	6.48544	-0.420257	0.426316
H	7.0174	-0.103457	2.42718
N	8.10427	-0.0815171	-1.19952
C	6.78881	-0.442393	-0.933233
H	8.37616	-0.081604	-2.17496
H	5.53837	-0.676564	0.662356
O	5.96169	-0.753899	-1.80773
O	10.2468	0.58471	-0.666566
