30
  This energy is -0.000719816 and Call times are: 3065
C	1.12871	0.610219	0.522187
N	0.457544	1.35524	1.44009
C	-0.891985	1.25131	1.5095
C	0.387732	-0.242961	-0.322443
C	-1.0056	-0.254818	-0.144962
N	-1.69872	0.472638	0.756471
H	-1.37625	1.86616	2.25749
N	2.47761	0.717707	0.456822
H	2.94524	1.34596	1.08945
H	3.00287	0.179391	-0.211927
N	0.767521	-1.119	-1.34576
C	-0.372264	-1.64526	-1.77334
N	-1.47805	-1.15792	-1.08168
H	-0.462878	-2.37041	-2.56499
H	-2.44539	-1.4022	-1.22019
C	8.97797	0.147142	1.97494
C	7.96487	-0.107725	0.896003
H	8.49056	0.486446	2.89619
H	9.67111	0.943247	1.67972
H	9.55737	-0.7536	2.19899
C	7.10915	1.0077	0.483738
C	7.79868	-1.30768	0.284922
N	6.85243	-1.51043	-0.70924
H	8.39663	-2.17378	0.540653
N	6.18029	0.702176	-0.532408
C	5.99208	-0.517227	-1.1721
H	5.5784	1.45903	-0.832939
H	6.74784	-2.41265	-1.14902
O	5.14838	-0.712484	-2.06426
O	7.1598	2.15807	0.964004
