30
  This energy is 8.247e-06 and Call times are: 3505
C	1.10554	-0.831863	0.0694021
N	1.3048	-0.891174	-1.27404
C	0.466772	-0.209419	-2.09243
C	0.0298199	-0.0594588	0.555798
C	-0.761615	0.596704	-0.401335
N	-0.588256	0.556417	-1.73943
H	0.670312	-0.290863	-3.15261
N	1.94597	-1.51511	0.883164
H	2.6943	-2.04748	0.470635
H	1.82462	-1.49106	1.88196
N	-0.43434	0.201343	1.85017
C	-1.48118	0.996394	1.67437
N	-1.72517	1.26875	0.33088
H	-2.09276	1.40127	2.46354
H	-2.45716	1.84233	-0.0561699
C	16.823	-1.22865	2.42209
C	17.2504	-0.733138	1.07033
H	15.7471	-1.08074	2.57016
H	17.3254	-0.669521	3.21983
H	17.0487	-2.29201	2.54689
C	17.0142	0.677414	0.752625
C	17.84	-1.51532	0.131472
N	18.223	-1.02631	-1.1091
H	18.0439	-2.56564	0.299863
N	17.4382	1.07815	-0.531229
C	18.0433	0.296351	-1.50805
H	17.2846	2.0497	-0.771915
H	18.6602	-1.62816	-1.79104
O	18.3916	0.721679	-2.62327
O	16.4825	1.50083	1.52458
