30
  This energy is -0.000882972 and Call times are: 6002
C	0.0205683	-1.24161	0.614021
N	0.898346	-1.80144	-0.260143
C	1.37639	-1.05005	-1.28178
C	-0.356515	0.10379	0.41888
C	0.213717	0.767738	-0.679769
N	1.08652	0.238724	-1.56325
H	2.07182	-1.54456	-1.94802
N	-0.45435	-1.99688	1.63352
H	-0.144222	-2.95119	1.7154
H	-1.10536	-1.61117	2.29709
N	-1.21831	0.953084	1.12235
C	-1.16682	2.10148	0.46098
N	-0.315199	2.04635	-0.639189
H	-1.71166	2.99344	0.722368
H	-0.10894	2.78388	-1.29348
C	3.70576	2.34381	0.956413
C	4.35082	1.16864	0.279442
H	4.33221	2.71493	1.7757
H	2.74682	2.05866	1.40419
H	3.53142	3.16334	0.252695
C	4.64805	-0.0119825	1.09442
C	4.67224	1.13969	-1.03843
N	5.26827	0.0373411	-1.63376
H	4.48072	1.97704	-1.69815
N	5.25285	-1.07927	0.398874
C	5.59089	-1.13175	-0.948176
H	5.46702	-1.9059	0.943144
H	5.4979	0.0398469	-2.61642
O	6.12493	-2.11284	-1.49424
O	4.40399	-0.114213	2.31366
