30
  This energy is -0.00376621 and Call times are: 2268
C	-0.692428	-0.820667	-0.875261
N	0.112253	-1.90215	-0.699353
C	1.16206	-1.8073	0.152557
C	-0.398383	0.35924	-0.159915
C	0.719353	0.321963	0.689966
N	1.53548	-0.735493	0.884666
H	1.77007	-2.69712	0.255441
N	-1.74047	-0.920592	-1.7279
H	-1.89418	-1.79246	-2.20728
H	-2.35434	-0.137596	-1.87948
N	-1.01491	1.61503	-0.118118
C	-0.283787	2.31633	0.737758
N	0.77947	1.58301	1.25776
H	-0.468018	3.3401	1.01831
H	1.47175	1.89153	1.92121
C	6.333	2.39868	1.17765
C	6.04927	1.04393	0.594899
H	5.59196	2.65789	1.94254
H	6.2688	3.17627	0.407827
H	7.32856	2.43788	1.62994
C	4.75016	0.834681	-0.0492419
C	6.92475	0.00802682	0.631749
N	6.63158	-1.23236	0.0837221
H	7.90151	0.0934178	1.09189
N	4.54722	-0.457895	-0.57531
C	5.4276	-1.53299	-0.54949
H	3.65555	-0.624622	-1.02536
H	7.29963	-1.98765	0.123649
O	5.17779	-2.64927	-1.03674
O	3.85867	1.70163	-0.150271
