30
  This energy is -0.00191884 and Call times are: 7257
C	-0.798619	-0.568853	0.978594
N	-0.73539	0.491573	1.82687
C	-0.0130135	1.57956	1.46452
C	-0.106174	-0.490427	-0.248081
C	0.604188	0.695092	-0.498985
N	0.685063	1.76286	0.322903
H	0.00388724	2.39507	2.17635
N	-1.522	-1.65398	1.34544
H	-1.99237	-1.64493	2.23553
H	-1.58811	-2.45471	0.73933
N	0.0269111	-1.38672	-1.31476
C	0.799945	-0.753658	-2.18684
N	1.17913	0.511014	-1.7447
H	1.1153	-1.14874	-3.13827
H	1.76001	1.1802	-2.22361
C	8.06538	-0.259057	-1.62338
C	6.94517	-0.21039	-0.62428
H	8.36621	0.7516	-1.92249
H	7.75004	-0.772319	-2.53908
H	8.93972	-0.7768	-1.21753
C	5.70134	0.453262	-1.02284
C	7.02064	-0.744062	0.62088
N	5.96671	-0.681886	1.521
H	7.9093	-1.24825	0.98026
N	4.69036	0.464287	-0.0397359
C	4.74465	-0.0748071	1.24011
H	3.82156	0.918016	-0.294155
H	6.04706	-1.08657	2.44193
O	3.80794	-0.0263294	2.05628
O	5.50264	0.982843	-2.13488
