30
  This energy is 3.2604e-05 and Call times are: 3967
C	-0.119036	1.37473	0.122335
N	0.924669	1.66646	-0.698425
C	1.61646	0.649184	-1.26714
C	-0.438343	0.0191309	0.347599
C	0.359713	-0.935609	-0.304014
N	1.40073	-0.676325	-1.1233
H	2.43739	0.937054	-1.91152
N	-0.807328	2.39515	0.688343
H	-0.526941	3.34059	0.485539
H	-1.58485	2.21164	1.30047
N	-1.42804	-0.600939	1.11888
C	-1.22885	-1.89911	0.934616
N	-0.159241	-2.15948	0.0820768
H	-1.81308	-2.68643	1.38132
H	0.187521	-3.05864	-0.210935
C	20.4893	-2.33074	0.428922
C	19.6418	-1.09209	0.375288
H	21.5271	-2.10608	0.156923
H	20.1351	-3.07783	-0.290648
H	20.4801	-2.77753	1.42769
C	19.5534	-0.37837	-0.901107
C	18.9569	-0.599546	1.43798
N	18.1823	0.548483	1.35528
H	18.978	-1.07664	2.41009
N	18.7425	0.775243	-0.883807
C	18.0327	1.29816	0.190596
H	18.667	1.28421	-1.75598
H	17.6819	0.895215	2.1601
O	17.3349	2.32546	0.130207
O	20.1318	-0.724505	-1.95094
