30
  This energy is 1.8506e-05 and Call times are: 8965
C	1.17503	-0.0729899	-0.730072
N	1.98874	-0.203916	0.351044
C	1.43797	-0.215099	1.58934
C	-0.214197	0.046142	-0.515098
C	-0.652556	0.0195783	0.819127
N	0.130521	-0.109032	1.91111
H	2.13059	-0.321728	2.41453
N	1.73048	-0.0623807	-1.96568
H	2.72982	-0.151697	-2.0489
H	1.15475	0.0330426	-2.78564
N	-1.29505	0.191739	-1.39226
C	-2.35882	0.251292	-0.602501
N	-2.02857	0.152044	0.746481
H	-3.37621	0.363548	-0.938762
H	-2.65515	0.170745	1.53493
C	19.6717	0.276146	2.29952
C	18.9674	0.206071	0.97498
H	19.79	-0.723846	2.73245
H	19.0888	0.859486	3.02152
H	20.6614	0.732356	2.20144
C	17.6258	-0.381844	0.943784
C	19.5018	0.654577	-0.188712
N	18.8243	0.574891	-1.39681
H	20.4879	1.09973	-0.237663
N	17.0204	-0.417563	-0.329332
C	17.5473	0.0349182	-1.53315
H	16.0922	-0.819974	-0.37401
H	19.2431	0.915613	-2.24938
O	16.9512	-0.0301894	-2.62232
O	17.0226	-0.830146	1.93961
