30
  This energy is -0.00161762 and Call times are: 2362
C	0.614374	-1.23122	-0.160265
N	0.444238	-1.28395	-1.50798
C	-0.180097	-0.255111	-2.13131
C	0.131311	-0.102321	0.534438
C	-0.496475	0.892302	-0.233437
N	-0.679561	0.867544	-1.57062
H	-0.289236	-0.347919	-3.2044
N	1.23905	-2.26214	0.458069
H	1.55974	-3.0382	-0.0973385
H	1.38009	-2.25256	1.45452
N	0.147516	0.249473	1.889
C	-0.457039	1.42905	1.93368
N	-0.867747	1.86649	0.677246
H	-0.625491	2.00691	2.82725
H	-1.34518	2.72424	0.451599
C	4.86607	-0.626743	-2.35081
C	5.71784	-0.187247	-1.19463
H	3.81955	-0.339815	-2.1963
H	4.87662	-1.71818	-2.45107
H	5.21236	-0.187373	-3.29117
C	5.37811	-0.694529	0.137148
C	6.77919	0.649513	-1.31422
N	7.54637	1.03681	-0.225057
H	7.08544	1.06125	-2.26803
N	6.21623	-0.244134	1.17801
C	7.30711	0.611375	1.0798
H	5.99946	-0.5827	2.10741
H	8.33141	1.66047	-0.339544
O	8.00294	0.966163	2.0472
O	4.4303	-1.46764	0.383149
