30
  This energy is -2.6989e-05 and Call times are: 9075
C	0.972734	-0.82137	-0.546051
N	0.347668	-0.980852	-1.74268
C	-0.841715	-0.364691	-1.94898
C	0.353208	-0.0174819	0.433906
C	-0.878801	0.562865	0.0898534
N	-1.52254	0.422687	-1.08833
H	-1.29597	-0.524965	-2.91852
N	2.16141	-1.43936	-0.344811
H	2.54861	-1.99921	-1.08659
H	2.64871	-1.34071	0.530242
N	0.726046	0.338535	1.7351
C	-0.26002	1.11536	2.163
N	-1.25869	1.28544	1.2078
H	-0.309643	1.57673	3.13533
H	-2.10409	1.82639	1.29308
C	18.1918	0.746153	2.61619
C	18.7105	0.417582	1.24562
H	17.8706	-0.161365	3.14023
H	17.3118	1.39676	2.55523
H	18.9536	1.24662	3.22162
C	17.8028	-0.257062	0.314245
C	19.9667	0.709173	0.824057
N	20.4154	0.391585	-0.449779
H	20.6886	1.20638	1.46027
N	18.351	-0.536887	-0.954569
C	19.6326	-0.248306	-1.40823
H	17.7406	-1.00306	-1.61452
H	21.3547	0.619003	-0.740141
O	20.0473	-0.527007	-2.54675
O	16.6265	-0.579969	0.575943
