30
  This energy is -0.00853969 and Call times are: 11260
C	-0.606974	-1.10186	-0.580107
N	0.515838	-1.55509	-1.19812
C	1.67184	-0.863653	-1.04837
C	-0.519747	0.0742998	0.194108
C	0.739411	0.692691	0.265771
N	1.87011	0.266588	-0.336013
H	2.53513	-1.268	-1.56146
N	-1.75995	-1.79659	-0.732936
H	-1.75323	-2.62871	-1.29961
H	-2.6079	-1.48665	-0.288161
N	-1.46764	0.785453	0.938839
C	-0.792854	1.80813	1.44646
N	0.54807	1.8019	1.07155
H	-1.20912	2.57309	2.08075
H	1.25992	2.46739	1.32648
C	6.94514	2.73366	-0.453161
C	6.5569	1.30866	-0.181024
H	7.37734	2.83623	-1.4552
H	7.71381	3.07053	0.251863
H	6.08362	3.40371	-0.37531
C	7.60671	0.288919	-0.247512
C	5.29415	0.91499	0.121328
N	4.9681	-0.410908	0.367369
H	4.47085	1.61566	0.186961
N	7.17636	-1.02752	0.0179754
C	5.89078	-1.45404	0.329298
H	7.88607	-1.74869	-0.0224852
H	4.02116	-0.679014	0.590446
O	5.58504	-2.63842	0.552151
O	8.80393	0.517193	-0.514201
