30
  This energy is 6.6083e-05 and Call times are: 10109
C	-0.11505	-0.837483	1.09746
N	0.676315	-0.0898827	1.91165
C	1.22216	1.05241	1.42785
C	-0.334857	-0.389658	-0.2222
C	0.290989	0.811217	-0.595345
N	1.08087	1.57382	0.189961
H	1.84359	1.60924	2.11764
N	-0.658286	-1.97843	1.58582
H	-0.460957	-2.24081	2.53756
H	-1.24842	-2.55342	1.00786
N	-1.07922	-0.915089	-1.2846
C	-0.904351	-0.0491239	-2.27375
N	-0.0834988	1.01584	-1.91221
H	-1.33635	-0.134229	-3.25706
H	0.196965	1.79638	-2.48378
C	15.7035	1.49289	-2.29125
C	16.1807	0.647463	-1.14541
H	15.5249	2.52473	-1.96753
H	14.7489	1.12051	-2.68039
H	16.4314	1.50532	-3.10811
C	15.3111	0.531727	0.0280024
C	17.3666	-0.0117378	-1.1364
N	17.7785	-0.785175	-0.0607955
H	18.0571	0.0303169	-1.96977
N	15.8174	-0.275687	1.06747
C	17.0269	-0.959464	1.09921
H	15.2322	-0.369711	1.88857
H	18.6655	-1.26621	-0.0778286
O	17.4081	-1.65589	2.05609
O	14.1993	1.08522	0.146527
