30
  This energy is -0.00039603 and Call times are: 2506
C	-0.195928	-1.21257	-0.640569
N	-1.54145	-1.07071	-0.772922
C	-2.13287	0.0519955	-0.296897
C	0.529953	-0.17994	-0.0103752
C	-0.20662	0.929312	0.436887
N	-1.54081	1.09773	0.319629
H	-3.2057	0.113942	-0.428202
N	0.390455	-2.33663	-1.11805
H	-0.18617	-3.03527	-1.55737
H	1.38442	-2.47104	-1.03519
N	1.89107	-0.0226326	0.275061
C	1.97022	1.15481	0.880245
N	0.730105	1.77545	1.00507
H	2.87826	1.60564	1.24492
H	0.530239	2.66896	1.42494
C	5.63613	-2.44391	0.0392115
C	6.23122	-1.0675	0.121674
H	6.32569	-3.19263	0.445825
H	5.45041	-2.72736	-1.00317
H	4.69251	-2.50424	0.589836
C	7.5009	-0.82859	-0.569134
C	5.66129	-0.0380386	0.797179
N	6.23749	1.22275	0.8542
H	4.72413	-0.14496	1.32951
N	8.0051	0.483224	-0.452454
C	7.44008	1.55221	0.232818
H	8.88217	0.670643	-0.922597
H	5.79405	1.97275	1.36332
O	7.94546	2.68668	0.291779
O	8.12686	-1.68678	-1.22354
