30
  This energy is -3.4178e-05 and Call times are: 4363
C	1.04306	0.906548	0.0960331
N	0.320034	1.97771	-0.325749
C	-0.985145	1.80319	-0.646523
C	0.400303	-0.346384	0.181965
C	-0.956097	-0.387854	-0.180638
N	-1.69888	0.657402	-0.602411
H	-1.514	2.68841	-0.976293
N	2.3473	1.08624	0.415469
H	2.74461	2.0075	0.331673
H	2.90899	0.312966	0.73083
N	0.851606	-1.61305	0.570231
C	-0.210038	-2.39776	0.443648
N	-1.33261	-1.70867	-0.00764046
H	-0.231041	-3.45329	0.658509
H	-2.2524	-2.08054	-0.18168
C	17.4699	0.509285	-2.0557
C	18.5495	0.375833	-1.02025
H	16.4976	0.693928	-1.5847
H	17.3644	-0.417321	-2.63159
H	17.6818	1.32829	-2.74966
C	18.4075	-0.68157	-0.0161922
C	19.6436	1.17624	-0.963067
N	20.6236	1.02669	0.00747281
H	19.8113	1.97673	-1.67311
N	19.4542	-0.752907	0.926177
C	20.5827	0.054501	1.0045
H	19.3764	-1.47706	1.62971
H	21.4287	1.63478	0.0291583
O	21.4683	-0.0687026	1.86847
O	17.4528	-1.48266	0.0427268
