30
  This energy is -0.000521444 and Call times are: 5270
C	-0.552036	-1.23182	0.311288
N	-0.689543	-1.63929	-0.978336
C	-0.29255	-0.810267	-1.97431
C	0.000636924	0.0425309	0.558145
C	0.370392	0.800263	-0.565307
N	0.246015	0.42261	-1.8553
H	-0.424261	-1.1838	-2.98186
N	-0.950363	-2.06418	1.30319
H	-1.33691	-2.96083	1.05786
H	-0.861558	-1.79133	2.26785
N	0.269508	0.740719	1.74098
C	0.789146	1.89208	1.33697
N	0.873752	1.9823	-0.0498907
H	1.11773	2.68671	1.98609
H	1.2297	2.75125	-0.594523
C	6.59364	0.492118	2.23871
C	7.31908	0.121476	0.977047
H	6.45586	1.57745	2.30563
H	7.17159	0.198013	3.12237
H	5.61142	0.0126566	2.28969
C	8.65362	0.687111	0.763861
C	6.80973	-0.703881	0.0282171
N	7.50625	-1.0265	-1.12748
H	5.83009	-1.15624	0.121707
N	9.27975	0.299865	-0.43892
C	8.7786	-0.542696	-1.42406
H	10.2035	0.679294	-0.606666
H	7.10597	-1.64307	-1.81883
O	9.39196	-0.840145	-2.46388
O	9.23461	1.4566	1.55564
