30
  This energy is 0.000620736 and Call times are: 1561
C	-0.446972	-0.071272	1.30926
N	-0.0488379	1.18359	1.64822
C	0.560325	1.95355	0.713919
C	-0.20761	-0.519796	-0.0067525
C	0.432728	0.379615	-0.875112
N	0.838873	1.62962	-0.567361
H	0.856823	2.94355	1.03645
N	-1.05542	-0.836926	2.24677
H	-1.19575	-0.455569	3.1679
H	-1.36166	-1.77002	2.02663
N	-0.487192	-1.72724	-0.656958
C	-0.0250883	-1.55683	-1.88834
N	0.542447	-0.299378	-2.07643
H	-0.0699809	-2.29111	-2.67548
H	0.958808	0.0667096	-2.9174
C	10.7783	-0.145513	0.60778
C	9.32209	0.106121	0.340494
H	11.2992	-0.438636	-0.311024
H	10.9084	-0.972654	1.31511
H	11.2682	0.743086	1.01731
C	8.52767	-0.994266	-0.211279
C	8.70429	1.29008	0.58024
N	7.35597	1.4903	0.321762
H	9.23116	2.14452	0.986951
N	7.16901	-0.692665	-0.438755
C	6.51506	0.510495	-0.201433
H	6.60103	-1.43931	-0.819979
H	6.91898	2.38049	0.508699
O	5.30786	0.703286	-0.428188
O	8.97262	-2.12929	-0.476445
