30
  This energy is 1.5873e-05 and Call times are: 9955
C	-1.18613	-0.136402	0.702515
N	-0.6793	-0.972573	1.64698
C	0.626788	-1.32752	1.57633
C	-0.326374	0.327864	-0.315151
C	1.00501	-0.117628	-0.27074
N	1.53592	-0.946427	0.653058
H	0.978629	-1.99484	2.35283
N	-2.49225	0.215391	0.777569
H	-3.05093	-0.151969	1.53025
H	-2.89692	0.832738	0.0934375
N	-0.531752	1.1773	-1.40838
C	0.6499	1.24057	-2.00719
N	1.61753	0.475717	-1.36115
H	0.866261	1.81135	-2.89497
H	2.58414	0.361871	-1.62056
C	23.9494	1.70529	0.720427
C	22.8894	0.799041	0.163144
H	24.5205	1.20035	1.50801
H	23.5013	2.59236	1.18275
H	24.6446	2.03229	-0.0586284
C	21.8802	0.276895	1.08802
C	22.8148	0.438575	-1.14278
N	21.822	-0.40146	-1.62611
H	23.5275	0.787567	-1.87988
N	20.9146	-0.567144	0.501735
C	20.8182	-0.94985	-0.830861
H	20.207	-0.939451	1.12313
H	21.7876	-0.655196	-2.60222
O	19.934	-1.70146	-1.27714
O	21.8356	0.530263	2.30883
