30
  This energy is -4.3707e-05 and Call times are: 8217
C	1.12692	0.796647	-0.120135
N	0.615383	1.59474	-1.09453
C	-0.642459	1.3605	-1.54153
C	0.322343	-0.245887	0.385967
C	-0.962669	-0.378173	-0.165636
N	-1.49694	0.397888	-1.13231
H	-1.00048	2.02507	-2.31754
N	2.3847	1.03493	0.323244
H	2.90532	1.79597	-0.0809391
H	2.79143	0.461699	1.04357
N	0.546761	-1.2192	1.36635
C	-0.578346	-1.92041	1.40276
N	-1.52707	-1.45514	0.496052
H	-0.765592	-2.76058	2.05069
H	-2.45299	-1.81796	0.335927
C	14.7523	-0.265423	2.77936
C	15.0171	-0.0364055	1.31893
H	14.6583	-1.33572	2.99617
H	13.8054	0.196438	3.08178
H	15.5542	0.146292	3.39958
C	14.0284	-0.532537	0.358352
C	16.1157	0.601121	0.841934
N	16.3309	0.796482	-0.514668
H	16.8856	0.992597	1.49548
N	14.3366	-0.28535	-0.995376
C	15.4537	0.364326	-1.50692
H	13.6664	-0.619833	-1.67681
H	17.1563	1.27394	-0.845065
O	15.6587	0.546246	-2.71968
O	12.9787	-1.13326	0.664533
