30
  This energy is -1.8462e-05 and Call times are: 4583
C	-0.932435	0.970374	-0.328588
N	-0.180488	2.01931	0.0984689
C	1.0459	1.77736	0.622177
C	-0.400987	-0.330882	-0.207515
C	0.882226	-0.44062	0.353149
N	1.65129	0.581084	0.785404
H	1.60223	2.64763	0.946471
N	-2.15761	1.21752	-0.851296
H	-2.47699	2.17055	-0.908923
H	-2.73811	0.462279	-1.17616
N	-0.9075	-1.59142	-0.544204
C	0.0501186	-2.43931	-0.193583
N	1.15707	-1.79734	0.355253
H	0.00444263	-3.50956	-0.308596
H	2.00587	-2.21996	0.69514
C	20.542	0.73588	1.55487
C	21.6057	0.294266	0.590992
H	20.6758	1.78873	1.82874
H	20.5983	0.163397	2.48786
H	19.5416	0.611121	1.12965
C	23.003	0.400465	1.01834
C	21.3458	-0.195019	-0.64756
N	22.3524	-0.594485	-1.51482
H	20.3369	-0.300301	-1.027
N	23.9512	-0.0302803	0.0675812
C	23.7093	-0.534128	-1.20488
H	24.9237	0.0342944	0.342275
H	22.1337	-0.955415	-2.43149
O	24.6014	-0.895785	-1.99173
O	23.3764	0.831935	2.1278
