30
  This energy is -1.2213e-05 and Call times are: 4209
C	0.0551725	1.08746	0.856393
N	-0.106735	0.361678	1.99441
C	-0.245611	-0.983234	1.90077
C	0.0716919	0.405896	-0.37874
C	-0.0828138	-0.989491	-0.333515
N	-0.24513	-1.73601	0.779379
H	-0.371438	-1.51243	2.83681
N	0.193563	2.43149	0.955363
H	0.172672	2.85521	1.86839
H	0.315059	2.9963	0.131266
N	0.216268	0.849059	-1.69842
C	0.150072	-0.255501	-2.42948
N	-0.0304346	-1.39841	-1.65498
H	0.224435	-0.2945	-3.50359
H	-0.110195	-2.3503	-1.97456
C	22.8612	1.90657	-1.7824
C	22.1744	0.995134	-0.806151
H	23.035	1.39674	-2.73699
H	23.8462	2.20851	-1.4084
H	22.2694	2.80732	-1.97146
C	22.8461	-0.257317	-0.450437
C	20.9722	1.26566	-0.238187
N	20.364	0.401599	0.660861
H	20.4213	2.17228	-0.456368
N	22.1489	-1.06691	0.469925
C	20.9187	-0.811132	1.06395
H	22.5953	-1.93781	0.730051
H	19.4691	0.625175	1.07017
O	20.3627	-1.57633	1.87098
O	23.9506	-0.624355	-0.899763
