30
  This energy is -8.4147e-05 and Call times are: 8635
C	-0.0577402	-0.848174	-1.09375
N	0.295039	-1.96666	-0.406296
C	0.543918	-1.86906	0.922378
C	-0.149924	0.371589	-0.390871
C	0.134467	0.332559	0.984127
N	0.486731	-0.76109	1.69266
H	0.820674	-2.7893	1.42098
N	-0.305465	-0.951025	-2.42169
H	-0.221472	-1.85237	-2.86227
H	-0.568692	-0.141227	-2.9582
N	-0.480178	1.6702	-0.795089
C	-0.396017	2.39495	0.312408
N	-0.0275299	1.63631	1.42027
H	-0.585735	3.45349	0.377587
H	0.102062	1.95499	2.36698
C	14.2931	1.17699	-2.0063
C	14.9701	0.500865	-0.848731
H	14.5776	0.706308	-2.95441
H	14.5981	2.22734	-2.07793
H	13.2039	1.13648	-1.91054
C	16.4348	0.473156	-0.833944
C	14.304	-0.0830383	0.179011
N	14.9599	-0.700223	1.23434
H	13.2223	-0.0991106	0.231252
N	17.0073	-0.176097	0.279349
C	16.3466	-0.780384	1.34226
H	18.019	-0.206856	0.309953
H	14.442	-1.12772	1.9876
O	16.9217	-1.33651	2.29399
O	17.1644	0.971589	-1.71476
