30
  This energy is -2.4831e-05 and Call times are: 9867
C	-0.891907	-0.700391	-0.795605
N	-0.0301368	-1.70779	-1.09656
C	1.22343	-1.67451	-0.582446
C	-0.441773	0.341074	0.0429027
C	0.881034	0.252769	0.507021
N	1.75844	-0.733685	0.22552
H	1.86834	-2.50071	-0.853595
N	-2.14381	-0.738296	-1.312
H	-2.40102	-1.51099	-1.90393
H	-2.80485	-0.00740367	-1.10773
N	-1.06537	1.49521	0.53072
C	-0.137802	2.08687	1.27129
N	1.06062	1.37834	1.29256
H	-0.268467	3.01212	1.80758
H	1.90838	1.62042	1.7797
C	20.2338	-1.67818	2.09851
C	19.9603	-0.840369	0.882503
H	19.3915	-2.3471	2.30955
H	20.3594	-1.04827	2.98667
H	21.136	-2.28395	1.97091
C	18.7811	0.0288931	0.901733
C	20.7405	-0.843806	-0.227538
N	20.4597	-0.0572945	-1.33543
H	21.6261	-1.46189	-0.309072
N	18.5815	0.788297	-0.269651
C	19.3656	0.80133	-1.41704
H	17.7719	1.39649	-0.277967
H	21.0555	-0.0772604	-2.14967
O	19.1257	1.50112	-2.41635
O	17.9843	0.125451	1.85694
