30
  This energy is -6.852e-06 and Call times are: 10725
C	0.182233	0.444722	1.29925
N	-0.139945	1.73916	1.03713
C	-0.478583	2.08781	-0.228023
C	0.149947	-0.484054	0.237788
C	-0.218103	0.010214	-1.02446
N	-0.542724	1.28798	-1.31446
H	-0.725959	3.13054	-0.381536
N	0.520016	0.10131	2.56547
H	0.523058	0.813833	3.27674
H	0.763519	-0.848767	2.79122
N	0.419965	-1.856	0.176721
C	0.218585	-2.17852	-1.09383
N	-0.169383	-1.08727	-1.86671
H	0.334451	-3.16564	-1.50968
H	-0.379348	-1.07627	-2.85179
C	8.7284	2.0466	-0.82577
C	9.60506	0.861824	-0.537341
H	9.31961	2.96852	-0.869704
H	7.99013	2.18958	-0.0283345
H	8.19711	1.92813	-1.77495
C	10.3835	0.872743	0.703756
C	9.71587	-0.212762	-1.35826
N	10.5357	-1.29222	-1.06255
H	9.16947	-0.286141	-2.29054
N	11.1852	-0.268124	0.914335
C	11.3147	-1.37898	0.0892308
H	11.7319	-0.281656	1.76659
H	10.6013	-2.08034	-1.68938
O	12.0452	-2.35274	0.342172
O	10.3721	1.79655	1.54222
