30
  This energy is -1.586e-05 and Call times are: 10527
C	0.925427	-0.86726	0.557204
N	1.23341	-0.065157	1.6107
C	0.611642	1.13352	1.72657
C	-0.0327133	-0.414919	-0.37431
C	-0.600725	0.84734	-0.13538
N	-0.315153	1.66483	0.900155
H	0.893738	1.73224	2.58331
N	1.5497	-2.06444	0.445903
H	2.22396	-2.3267	1.14604
H	1.34334	-2.68061	-0.322641
N	-0.559058	-0.986286	-1.53851
C	-1.42389	-0.0872634	-1.98875
N	-1.48984	1.04292	-1.17819
H	-2.022	-0.192436	-2.87867
H	-2.06705	1.85823	-1.30737
C	12.111	1.89963	-1.6769
C	12.606	0.772461	-0.816758
H	12.8435	2.14962	-2.45297
H	11.9658	2.80943	-1.08311
H	11.1634	1.64528	-2.16144
C	13.8689	0.963311	-0.0989934
C	11.9521	-0.407071	-0.668283
N	12.437	-1.42944	0.134544
H	11.0147	-0.614822	-1.16941
N	14.2772	-0.131837	0.690074
C	13.6252	-1.34779	0.857282
H	15.1478	-0.0214471	1.19527
H	11.9321	-2.29807	0.229009
O	14.0483	-2.27189	1.57349
O	14.5662	1.99665	-0.149172
