30
  This energy is -4.0257e-05 and Call times are: 10021
C	0.374368	0.0725121	1.33177
N	1.00701	1.27068	1.22115
C	1.04241	1.885	0.0135876
C	-0.22078	-0.482171	0.179173
C	-0.110555	0.259023	-1.00889
N	0.510406	1.44939	-1.14892
H	1.55854	2.8361	-0.0186992
N	0.341776	-0.537474	2.54099
H	0.786705	-0.0867864	3.32363
H	-0.118793	-1.42503	2.65508
N	-0.9296	-1.66935	-0.0376973
C	-1.23821	-1.6418	-1.32723
N	-0.767245	-0.496994	-1.96463
H	-1.79024	-2.4052	-1.84995
H	-0.872946	-0.246887	-2.93462
C	21.3688	0.974715	-2.17415
C	20.4497	0.569967	-1.05754
H	21.6086	0.116987	-2.81305
H	22.3227	1.34416	-1.78042
H	20.9219	1.75713	-2.79495
C	20.9098	-0.472231	-0.136404
C	19.2228	1.11299	-0.855433
N	18.3972	0.716264	0.186603
H	18.8208	1.88681	-1.4978
N	20.0004	-0.805524	0.888535
C	18.7406	-0.263985	1.11508
H	20.2983	-1.52394	1.53704
H	17.4885	1.13542	0.316283
O	17.991	-0.609999	2.04472
O	22.0128	-1.0506	-0.210755
