30
  This energy is 2.7761e-05 and Call times are: 9757
C	-0.00987033	1.3806	-0.113519
N	-0.266728	1.39677	-1.44837
C	-0.403303	0.218838	-2.10463
C	0.103937	0.132286	0.533885
C	-0.0597043	-1.01176	-0.264483
N	-0.315019	-1.02674	-1.58991
H	-0.606963	0.288911	-3.1656
N	0.125784	2.56071	0.537859
H	0.0326617	3.41637	0.0155976
H	0.316192	2.58186	1.52589
N	0.357057	-0.220257	1.86449
C	0.345694	-1.54644	1.86527
N	0.09802	-2.07904	0.602863
H	0.506834	-2.16818	2.73027
H	0.0403887	-3.05166	0.347382
C	19.5355	2.24559	1.44696
C	19.2444	0.962271	0.723212
H	18.7551	2.4634	2.18516
H	19.5487	3.09222	0.750953
H	20.4999	2.20324	1.96205
C	17.9841	0.865158	-0.0173478
C	20.0796	-0.107027	0.7172
N	19.7807	-1.27935	0.0380865
H	21.0263	-0.103382	1.24324
N	17.772	-0.364728	-0.673917
C	18.6114	-1.47221	-0.694258
H	16.9066	-0.453645	-1.19226
H	20.4185	-2.06137	0.0485308
O	18.356	-2.52834	-1.29864
O	17.1314	1.77285	-0.0919478
