30
  This energy is 7.6316e-05 and Call times are: 3417
C	0.8798	0.828035	0.677748
N	1.93369	0.598588	-0.149742
C	1.77241	-0.242952	-1.19981
C	-0.342018	0.177035	0.406224
C	-0.372674	-0.669172	-0.714497
N	0.655996	-0.916071	-1.55298
H	2.64285	-0.390159	-1.82648
N	1.04615	1.67004	1.72594
H	1.94508	2.1022	1.86289
H	0.285055	1.86022	2.3564
N	-1.58529	0.199015	1.0486
C	-2.34569	-0.615798	0.329736
N	-1.66289	-1.16948	-0.750031
H	-3.37883	-0.842745	0.534394
H	-2.02019	-1.81299	-1.43766
C	15.6706	-1.24918	2.43892
C	15.5384	-0.614534	1.08424
H	14.9537	-2.06979	2.55752
H	15.4483	-0.52633	3.23229
H	16.6792	-1.64218	2.59863
C	14.2405	-0.0396738	0.721807
C	16.549	-0.544427	0.181686
N	16.394	0.0490653	-1.06273
H	17.5332	-0.948792	0.384082
N	14.1833	0.540087	-0.562439
C	15.2034	0.623533	-1.50258
H	13.2951	0.943768	-0.833705
H	17.1611	0.0889525	-1.71716
O	15.0782	1.15256	-2.62076
O	13.233	-0.0379355	1.45778
