30
  This energy is -0.0059676 and Call times are: 11033
C	-0.536528	0.489689	1.17957
N	0.661456	0.699312	1.78699
C	1.79934	0.396655	1.11582
C	-0.543369	-0.0363698	-0.129472
C	0.707168	-0.305709	-0.709675
N	1.91106	-0.108183	-0.131921
H	2.72504	0.582844	1.6454
N	-1.67101	0.793839	1.85469
H	-1.59544	1.16643	2.78692
H	-2.57307	0.650011	1.43217
N	-1.58182	-0.360424	-1.01008
C	-0.968665	-0.814258	-2.09496
N	0.417905	-0.803458	-1.96857
H	-1.46203	-1.15922	-2.98846
H	1.09883	-1.09715	-2.65024
C	8.53611	-0.568025	-2.03481
C	7.68199	-0.315184	-0.825684
H	8.65758	0.347199	-2.62558
H	8.06704	-1.30456	-2.69729
H	9.52777	-0.934799	-1.75314
C	6.32033	0.180516	-1.04146
C	8.09924	-0.519113	0.449168
N	7.2847	-0.275286	1.54549
H	9.09252	-0.883782	0.680427
N	5.57181	0.397117	0.133905
C	5.97722	0.195758	1.44793
H	4.62729	0.739812	0.00798726
H	7.618	-0.434834	2.48454
O	5.25774	0.409923	2.43908
O	5.81551	0.408892	-2.1593
