30
  This energy is -8.0926e-05 and Call times are: 10087
C	1.21904	0.0502076	-0.656082
N	1.63729	1.19816	-0.0599674
C	0.825335	1.8033	0.840801
C	-0.048218	-0.463902	-0.309525
C	-0.788049	0.262345	0.638228
N	-0.39939	1.40326	1.24604
H	1.20686	2.71375	1.28528
N	2.03435	-0.55081	-1.55576
H	2.92678	-0.130873	-1.75777
H	1.75319	-1.40164	-2.01396
N	-0.753806	-1.59663	-0.731343
C	-1.892	-1.55171	-0.0520995
N	-1.96659	-0.447227	0.792427
H	-2.68754	-2.27458	-0.125147
H	-2.72379	-0.193972	1.40652
C	12.3573	0.852258	0.621047
C	13.766	0.552575	0.195668
H	12.2725	0.860272	1.71382
H	11.6681	0.0790672	0.262407
H	12.0227	1.82136	0.238758
C	14.3572	-0.715161	0.63128
C	14.5181	1.38656	-0.565732
N	15.8179	1.07987	-0.941682
H	14.144	2.33856	-0.921771
N	15.6812	-0.935135	0.198373
C	16.4701	-0.0970371	-0.580541
H	16.1095	-1.80576	0.488084
H	16.3575	1.71682	-1.50875
O	17.6357	-0.35957	-0.924645
O	13.775	-1.5677	1.33185
