30
  This energy is 2.8624e-05 and Call times are: 4319
C	0.110363	1.36655	0.198452
N	0.835893	1.27067	1.34409
C	1.15075	0.0415281	1.82046
C	-0.285286	0.17665	-0.448043
C	0.107944	-1.03064	0.152648
N	0.827258	-1.15679	1.28793
H	1.72943	0.0223482	2.73522
N	-0.201764	2.59746	-0.273574
H	0.112066	3.4065	0.236868
H	-0.737617	2.70144	-1.11912
N	-1.02038	-0.0630912	-1.61467
C	-1.06759	-1.38487	-1.71248
N	-0.400768	-2.02165	-0.669156
H	-1.55931	-1.932	-2.49964
H	-0.296333	-3.01253	-0.521359
C	21.7201	1.82509	0.0934617
C	20.4979	0.966855	-0.0654819
H	22.615	1.29959	-0.259223
H	21.896	2.06266	1.14893
H	21.6246	2.76227	-0.463141
C	20.4752	-0.325669	0.623911
C	19.419	1.32009	-0.808511
N	18.3046	0.503464	-0.935271
H	19.3693	2.26025	-1.34395
N	19.3002	-1.08189	0.433699
C	18.1843	-0.741361	-0.321417
H	19.2631	-1.97921	0.901522
H	17.514	0.788488	-1.49388
O	17.1794	-1.46334	-0.443263
O	21.3991	-0.768039	1.33614
