30
  This energy is -4.2946e-05 and Call times are: 2888
C	-1.099	-0.841612	-0.0540821
N	-1.3329	-0.831819	1.28505
C	-0.520058	-0.102655	2.08782
C	-0.0150109	-0.0886694	-0.552493
C	0.747769	0.621895	0.388935
N	0.539802	0.650576	1.72239
H	-0.750736	-0.129822	3.14522
N	-1.91436	-1.57204	-0.852224
H	-2.67039	-2.08699	-0.431725
H	-1.76714	-1.59951	-1.84745
N	0.481364	0.10706	-1.84639
C	1.5191	0.917095	-1.68567
N	1.72657	1.26102	-0.352494
H	2.14893	1.28412	-2.47899
H	2.44521	1.85887	0.0226318
C	11.5137	1.8258	0.182338
C	10.4046	0.816475	0.263764
H	11.1363	2.79346	-0.167838
H	12.2761	1.51093	-0.539383
H	11.9936	1.97054	1.15495
C	9.66406	0.51323	-0.963453
C	10.0518	0.173108	1.40507
N	9.02118	-0.7547	1.44676
H	10.5565	0.34939	2.34703
N	8.6366	-0.441799	-0.818823
C	8.25771	-1.11279	0.337804
H	8.11164	-0.666695	-1.65503
H	8.77749	-1.22035	2.30823
O	7.33658	-1.94633	0.389064
O	9.88729	1.03295	-2.07549
