30
  This energy is -4.2965e-05 and Call times are: 4517
C	0.376758	-1.31826	-0.19815
N	1.2267	-1.05468	-1.22586
C	1.38277	0.227644	-1.63589
C	-0.30931	-0.240299	0.3999
C	-0.0556596	1.03883	-0.122126
N	0.781432	1.33072	-1.14009
H	2.07095	0.381524	-2.45733
N	0.224269	-2.60169	0.207955
H	0.744309	-3.32417	-0.262339
H	-0.397529	-2.82898	0.965986
N	-1.23082	-0.176019	1.45135
C	-1.52408	1.11294	1.55844
N	-0.841218	1.8948	0.630507
H	-2.20979	1.53632	2.2735
H	-0.893945	2.8937	0.51216
C	22.1111	-0.25932	-1.03181
C	23.5535	-0.0874751	-0.650604
H	21.4788	0.4644	-0.504659
H	21.7476	-1.25347	-0.747256
H	21.9648	-0.130165	-2.10846
C	23.9094	-0.231919	0.763216
C	24.5405	0.192909	-1.53833
N	25.8646	0.345933	-1.15333
H	24.3479	0.312797	-2.59738
N	25.2784	-0.0587089	1.05377
C	26.3058	0.228465	0.162915
H	25.5468	-0.154374	2.02548
H	26.5812	0.554355	-1.83265
O	27.496	0.367875	0.494323
O	23.1002	-0.48828	1.67758
