30
  This energy is -0.00106639 and Call times are: 10637
C	-0.0982615	1.22028	0.648302
N	1.20266	1.26109	1.04074
C	2.02185	0.234925	0.704948
C	-0.541329	0.106091	-0.0950947
C	0.411486	-0.887361	-0.374769
N	1.70793	-0.874217	0.00106105
H	3.04718	0.317847	1.04238
N	-0.913015	2.24847	0.986475
H	-0.532669	3.01376	1.5187
H	-1.88095	2.24748	0.710767
N	-1.78716	-0.2314	-0.636278
C	-1.58705	-1.40143	-1.22778
N	-0.273757	-1.8462	-1.10092
H	-2.33748	-1.96716	-1.75462
H	0.123012	-2.69922	-1.46084
C	6.25752	-1.33255	-1.68693
C	7.34611	-0.735667	-0.841862
H	5.83655	-0.583758	-2.36773
H	5.42811	-1.68553	-1.06334
H	6.62899	-2.17321	-2.28068
C	7.00186	0.403258	0.0129715
C	8.62444	-1.19016	-0.826221
N	9.60754	-0.615761	-0.033484
H	8.94723	-2.02732	-1.43288
N	8.06816	0.916243	0.780134
C	9.38333	0.468095	0.812616
H	7.85241	1.70408	1.37861
H	10.5517	-0.97194	-0.0391723
O	10.2738	0.973277	1.51819
O	5.8672	0.916019	0.0915969
