30
  This energy is -6.8551e-05 and Call times are: 4297
C	-0.526511	1.15306	0.558818
N	0.652475	1.59666	1.06997
C	1.77101	0.855767	0.878167
C	-0.5346	-0.0652164	-0.152594
C	0.694843	-0.732878	-0.277966
N	1.87961	-0.317504	0.217984
H	2.68209	1.25462	1.30582
N	-1.64171	1.89729	0.753286
H	-1.5664	2.75768	1.27063
H	-2.52942	1.59572	0.387315
N	-1.55695	-0.779462	-0.787827
C	-0.95497	-1.85215	-1.28365
N	0.409012	-1.87569	-1.00496
H	-1.44118	-2.63392	-1.84329
H	1.07807	-2.57982	-1.27171
C	18.6931	1.99184	-1.91589
C	18.3588	1.04893	-0.795815
H	18.3239	1.60725	-2.8736
H	19.7784	2.10135	-2.02349
H	18.2583	2.98168	-1.74731
C	18.8726	-0.320589	-0.878033
C	17.6108	1.39307	0.282643
N	17.3195	0.497245	1.30122
H	17.1998	2.38741	0.406927
N	18.5231	-1.15416	0.204407
C	17.7595	-0.824502	1.31791
H	18.868	-2.10554	0.168136
H	16.7609	0.777137	2.09362
O	17.4913	-1.61707	2.23757
O	19.5702	-0.763444	-1.81283
