30
  This energy is 5.3815e-05 and Call times are: 8085
C	-0.191328	1.36394	0.148633
N	-0.0782973	1.36149	1.50336
C	0.150045	0.187369	2.14065
C	-0.0654228	0.138217	-0.538472
C	0.170268	-1.00436	0.243824
N	0.287022	-1.03749	1.58824
H	0.231548	0.242017	3.2188
N	-0.419566	2.54015	-0.483654
H	-0.499084	3.37925	0.0669671
H	-0.508054	2.57472	-1.48559
N	-0.12908	-0.192089	-1.89704
C	0.0640656	-1.50377	-1.92997
N	0.250785	-2.04799	-0.662046
H	0.0798767	-2.10677	-2.82266
H	0.414573	-3.01351	-0.426406
C	12.1731	0.00368049	0.350893
C	13.6349	-0.122318	0.0304607
H	11.8317	1.03671	0.217937
H	11.9792	-0.254437	1.39834
H	11.5674	-0.647918	-0.286145
C	14.5772	0.691027	0.80305
C	14.129	-0.943326	-0.930136
N	15.4863	-1.0364	-1.20184
H	13.4894	-1.57148	-1.53799
N	15.9332	0.525861	0.452925
C	16.4621	-0.307471	-0.525555
H	16.6023	1.07869	0.974665
H	15.8296	-1.65477	-1.92165
O	17.6758	-0.400658	-0.779084
O	14.2544	1.48344	1.71104
