30
  This energy is 1.2747e-05 and Call times are: 4165
C	1.12446	-0.397816	0.704535
N	2.00113	-0.150341	-0.304557
C	1.52941	0.331471	-1.48022
C	-0.245009	-0.141118	0.483106
C	-0.598921	0.357274	-0.781557
N	0.24794	0.612428	-1.80131
H	2.26976	0.510792	-2.24948
N	1.601	-0.879368	1.87772
H	2.59054	-1.04048	1.96962
H	0.977316	-1.0726	2.64361
N	-1.37499	-0.285636	1.2962
C	-2.38502	0.116971	0.53684
N	-1.973	0.517406	-0.731449
H	-3.41843	0.142243	0.840462
H	-2.54796	0.861093	-1.48371
C	17.9541	2.51369	-0.292326
C	18.7459	1.24036	-0.208935
H	17.6109	2.82605	0.700692
H	17.0537	2.37454	-0.901757
H	18.5467	3.32436	-0.726832
C	18.0855	0.0594967	0.352946
C	20.0328	1.12334	-0.622809
N	20.7371	-0.0685034	-0.531674
H	20.5809	1.95547	-1.04734
N	18.8833	-1.10226	0.402888
C	20.2012	-1.2458	-0.0142828
H	18.4464	-1.93077	0.787763
H	21.6938	-0.130552	-0.846482
O	20.8437	-2.30757	0.0614386
O	16.9094	0.0328611	0.76871
