30
  This energy is -0.00233426 and Call times are: 6242
C	1.01242	-0.274059	-0.904944
N	0.462701	0.431641	-1.9286
C	-0.718256	1.06583	-1.72862
C	0.326422	-0.315859	0.327135
C	-0.888364	0.38567	0.399062
N	-1.45804	1.09391	-0.59896
H	-1.11124	1.61288	-2.57617
N	2.193	-0.906183	-1.10992
H	2.63017	-0.835803	-2.01409
H	2.62533	-1.43655	-0.371875
N	0.616037	-0.937825	1.54703
C	-0.402074	-0.617013	2.33406
N	-1.34271	0.183096	1.69087
H	-0.515271	-0.926254	3.35988
H	-2.19723	0.554501	2.07356
C	6.99906	1.72774	-2.0708
C	6.70118	0.904882	-0.850309
H	6.07708	2.13343	-2.50297
H	7.46361	1.11449	-2.85151
H	7.66959	2.56015	-1.83685
C	5.81386	-0.250713	-1.00414
C	7.20548	1.17093	0.38088
N	6.91025	0.390412	1.48925
H	7.86684	2.00854	0.565464
N	5.57507	-0.980268	0.178822
C	6.07952	-0.727244	1.44889
H	4.96426	-1.78362	0.0953657
H	7.29789	0.608694	2.39502
O	5.82333	-1.4184	2.45018
O	5.28543	-0.60356	-2.07784
