30
  This energy is 0.000738236 and Call times are: 5226
C	-0.0186361	-0.983067	0.975839
N	1.09131	-0.540234	1.62391
C	1.73417	0.555118	1.15087
C	-0.455301	-0.279803	-0.166573
C	0.303098	0.838894	-0.549155
N	1.40775	1.30157	0.0736228
H	2.61169	0.864745	1.70416
N	-0.657621	-2.07837	1.45267
H	-0.29296	-2.53369	2.27322
H	-1.48189	-2.43066	0.995091
N	-1.53414	-0.472249	-1.03717
C	-1.42611	0.508958	-1.92286
N	-0.331506	1.33324	-1.67571
H	-2.09527	0.67438	-2.75088
H	-0.0391097	2.1401	-2.20304
C	8.50874	1.78642	-2.07208
C	9.00255	0.85899	-0.99902
H	7.89037	2.58417	-1.64474
H	7.87392	1.2522	-2.78832
H	9.33971	2.24418	-2.61722
C	8.00408	0.167364	-0.179802
C	10.3155	0.627265	-0.747154
N	10.7391	-0.236204	0.25277
H	11.1053	1.10473	-1.31393
N	8.53326	-0.687878	0.808742
C	9.8717	-0.940665	1.08483
H	7.86049	-1.17642	1.38678
H	11.7218	-0.392232	0.420913
O	10.2649	-1.71185	1.97735
O	6.76931	0.291836	-0.307941
