30
  This energy is -0.00564099 and Call times are: 5704
C	0.311804	-0.577962	1.21974
N	-0.396535	0.310271	1.96631
C	-1.06467	1.30885	1.33918
C	0.320735	-0.421	-0.182274
C	-0.414134	0.656902	-0.702962
N	-1.12585	1.55357	0.0123194
H	-1.61223	1.98772	1.98054
N	0.97792	-1.5743	1.85138
H	0.929891	-1.62921	2.8555
H	1.51115	-2.24744	1.32655
N	0.936069	-1.147	-1.2085
C	0.578749	-0.519158	-2.32072
N	-0.238938	0.580469	-2.07398
H	0.872872	-0.805114	-3.31695
H	-0.63771	1.21279	-2.74908
C	5.52342	2.4459	-0.999643
C	5.15085	1.05462	-0.57423
H	5.85831	3.04021	-0.141716
H	4.65817	2.97035	-1.42115
H	6.32174	2.43399	-1.74784
C	4.09158	0.905901	0.426879
C	5.73792	-0.0667476	-1.06291
N	5.37039	-1.33874	-0.648433
H	6.5267	-0.0295666	-1.8042
N	3.7902	-0.425094	0.782278
C	4.37699	-1.58739	0.296145
H	3.06054	-0.551189	1.47301
H	5.82209	-2.15793	-1.02692
O	4.0572	-2.73292	0.65862
O	3.47346	1.85272	0.954159
