30
  This energy is -4.1957e-05 and Call times are: 9735
C	1.19588	0.585391	-0.382399
N	0.775567	1.86515	-0.199011
C	-0.490041	2.08457	0.233352
C	0.292011	-0.463906	-0.113387
C	-0.989627	-0.0971315	0.32922
N	-1.43469	1.16287	0.52027
H	-0.773016	3.12151	0.362601
N	2.46184	0.371384	-0.814704
H	3.05584	1.16556	-0.988043
H	2.80252	-0.564421	-0.960001
N	0.410563	-1.85583	-0.199112
C	-0.773439	-2.31481	0.183468
N	-1.66019	-1.29382	0.515005
H	-1.04692	-3.35531	0.24102
H	-2.61194	-1.38602	0.831664
C	17.1083	2.07991	1.85741
C	17.419	0.991892	0.869934
H	16.569	1.67912	2.72341
H	16.456	2.83871	1.41012
H	18.0204	2.56978	2.21142
C	16.2958	0.241179	0.303163
C	18.6759	0.666961	0.475561
N	18.9293	-0.344776	-0.439326
H	19.551	1.18058	0.854351
N	16.6555	-0.765456	-0.616613
C	17.9337	-1.11578	-1.03519
H	15.8944	-1.297	-1.02099
H	19.8735	-0.567867	-0.717117
O	18.1747	-2.01972	-1.85414
O	15.0957	0.439427	0.580727
