30
  This energy is 0.000299369 and Call times are: 11282
C	-1.17011	-0.104822	-0.734081
N	-0.938433	-1.37404	-1.16243
C	0.198496	-2.0007	-0.773171
C	-0.212362	0.507946	0.101137
C	0.921491	-0.253771	0.42853
N	1.17831	-1.5141	0.0189003
H	0.33328	-3.00937	-1.14258
N	-2.30803	0.517211	-1.12598
H	-2.95009	0.0225482	-1.7232
H	-2.50809	1.45673	-0.825679
N	-0.153083	1.77236	0.698299
C	0.990834	1.77011	1.36937
N	1.68259	0.568539	1.2414
H	1.36803	2.59119	1.95614
H	2.56867	0.323417	1.65297
C	10.5868	0.239118	0.74714
C	9.17602	0.251298	0.232434
H	11.0611	-0.731901	0.563923
H	10.6082	0.394714	1.83191
H	11.1916	1.01725	0.27181
C	8.2407	-0.736385	0.776552
C	8.72172	1.12172	-0.703991
N	7.4111	1.10646	-1.15884
H	9.35872	1.87681	-1.148
N	6.93339	-0.671349	0.251784
C	6.4458	0.209752	-0.706069
H	6.27004	-1.34519	0.614156
H	7.09681	1.76456	-1.85632
O	5.27416	0.207153	-1.12221
O	8.5301	-1.59	1.6392
