30
  This energy is 1.2063e-05 and Call times are: 9581
C	0.512446	-0.718727	-1.06764
N	-0.416338	-1.70982	-1.01146
C	-1.38148	-1.65157	-0.0617507
C	0.430975	0.33257	-0.13036
C	-0.619261	0.270513	0.800326
N	-1.5548	-0.699312	0.880246
H	-2.09516	-2.46564	-0.0615861
N	1.47511	-0.781576	-2.0188
H	1.47593	-1.56004	-2.65722
H	2.17677	-0.063222	-2.08613
N	1.21254	1.47527	0.0752229
C	0.644398	2.08588	1.10636
N	-0.468923	1.40061	1.58551
H	0.984139	3.00931	1.54525
H	-1.06509	1.65975	2.35494
C	20.7881	1.75844	1.98835
C	20.145	0.88708	0.947866
H	21.5877	2.36602	1.54916
H	21.2553	1.15105	2.77207
H	20.0586	2.42747	2.45476
C	20.9967	-0.0665442	0.232613
C	18.8257	0.933766	0.634798
N	18.2622	0.114425	-0.332686
H	18.1397	1.61444	1.12394
N	20.3318	-0.853684	-0.730193
C	18.9839	-0.823612	-1.06758
H	20.9018	-1.52005	-1.23669
H	17.2777	0.167801	-0.54779
O	18.4662	-1.55206	-1.93199
O	22.2212	-0.209313	0.424493
