30
  This energy is -1.8914e-05 and Call times are: 4759
C	0.0205969	1.3245	-0.405354
N	-0.956025	1.73377	0.447158
C	-1.52529	0.826077	1.27715
C	0.401035	-0.0339434	-0.389043
C	-0.269781	-0.867993	0.520566
N	-1.24184	-0.490633	1.37781
H	-2.29722	1.20488	1.93492
N	0.586447	2.23567	-1.23296
H	0.268173	3.19	-1.19369
H	1.31181	1.96371	-1.87545
N	1.34927	-0.756496	-1.12228
C	1.25017	-1.99682	-0.663306
N	0.28538	-2.12209	0.332763
H	1.8371	-2.83362	-1.00396
H	0.0251336	-2.95615	0.833983
C	12.128	-0.290901	2.75167
C	12.1747	-0.165932	1.2558
H	12.4783	0.630114	3.23174
H	12.7911	-1.09218	3.09759
H	11.1136	-0.502531	3.10286
C	13.4702	0.117421	0.633066
C	11.0892	-0.300006	0.452946
N	11.1661	-0.178351	-0.926957
H	10.1021	-0.509484	0.846484
N	13.4452	0.222419	-0.773004
C	12.3476	0.089231	-1.61502
H	14.3303	0.417913	-1.22449
H	10.3442	-0.282413	-1.50308
O	12.4025	0.195573	-2.85259
O	14.5417	0.262962	1.25539
