30
  This energy is -2.0312e-05 and Call times are: 10307
C	0.596509	-1.22347	-0.257523
N	-0.118959	-1.91192	0.671032
C	-1.03591	-1.24876	1.41686
C	0.352289	0.158155	-0.405235
C	-0.625507	0.720862	0.431603
N	-1.35072	0.0634871	1.36118
H	-1.57731	-1.84428	2.14093
N	1.51186	-1.89095	-1.00047
H	1.63674	-2.87768	-0.844391
H	2.05722	-1.40934	-1.69585
N	0.905135	1.12856	-1.24876
C	0.273484	2.24909	-0.925752
N	-0.664285	2.06077	0.0860763
H	0.445777	3.2115	-1.37833
H	-1.26626	2.75312	0.501843
C	16.6345	2.79234	-0.0565434
C	16.4848	1.31223	0.149116
H	15.976	3.14379	-0.859198
H	17.6569	3.04273	-0.362406
H	16.3982	3.34786	0.856034
C	16.7681	0.431547	-0.986901
C	16.1034	0.748045	1.32265
N	15.9742	-0.624338	1.47988
H	15.8787	1.33949	2.20171
N	16.6086	-0.945422	-0.727636
C	16.2197	-1.54559	0.464042
H	16.7995	-1.57268	-1.49935
H	15.689	-1.02028	2.36317
O	16.1002	-2.7735	0.618589
O	17.1261	0.821185	-2.11676
