30
  This energy is -0.000156553 and Call times are: 3439
C	-0.703032	0.412673	1.12003
N	0.117338	-0.196282	2.01683
C	1.18512	-0.895015	1.56027
C	-0.40586	0.290283	-0.253672
C	0.731247	-0.462452	-0.590422
N	1.56322	-1.07756	0.276553
H	1.80511	-1.35976	2.31636
N	-1.76901	1.1099	1.58148
H	-1.92394	1.15766	2.57511
H	-2.39479	1.57178	0.942756
N	-1.03512	0.784007	-1.40221
C	-0.292521	0.337767	-2.40635
N	0.790317	-0.422643	-1.97287
H	-0.481627	0.526529	-3.45008
H	1.49404	-0.867773	-2.53964
C	11.0148	-0.682567	1.19925
C	12.3645	-0.236316	0.715089
H	10.9191	-1.77281	1.13919
H	10.2177	-0.266475	0.572355
H	10.8403	-0.374233	2.23449
C	12.7452	-0.57542	-0.658416
C	13.2468	0.459851	1.47525
N	14.4873	0.857378	0.997587
H	13.0303	0.743311	2.4979
N	14.0237	-0.127637	-1.05023
C	14.9433	0.585672	-0.290489
H	14.3073	-0.351105	-1.9963
H	15.1265	1.37467	1.58254
O	16.0576	0.948165	-0.706014
O	12.0286	-1.2096	-1.45895
