30
  This energy is -0.000201366 and Call times are: 5248
C	-0.75983	-0.743514	0.888188
N	-1.70665	0.213378	1.07783
C	-1.58805	1.39307	0.421244
C	0.310347	-0.465703	0.011885
C	0.312304	0.796631	-0.604175
N	-0.612545	1.76533	-0.435499
H	-2.36878	2.11941	0.608151
N	-0.882932	-1.92098	1.5468
H	-1.6717	-2.05457	2.15802
H	-0.19843	-2.64906	1.42738
N	1.41985	-1.21834	-0.389864
C	2.07358	-0.425737	-1.22849
N	1.44801	0.806906	-1.39557
H	2.9882	-0.680224	-1.73788
H	1.74737	1.57361	-1.97621
C	11.3519	2.14136	0.996605
C	10.5689	0.91449	0.626336
H	10.7366	3.04278	0.895391
H	12.2092	2.2745	0.326762
H	11.7196	2.08451	2.0256
C	10.0096	0.842091	-0.72581
C	10.3516	-0.125427	1.4703
N	9.62286	-1.24546	1.09701
H	10.7357	-0.137472	2.48289
N	9.28613	-0.334789	-1.00916
C	9.05072	-1.41139	-0.162361
H	8.89062	-0.405932	-1.93864
H	9.47483	-2.00649	1.74298
O	8.39994	-2.42082	-0.483993
O	10.136	1.72716	-1.596
