30
  This energy is -0.000321427 and Call times are: 7975
C	-0.000257088	1.20996	-0.674558
N	1.35294	1.3338	-0.714437
C	2.11738	0.363391	-0.156961
C	-0.552825	0.0711362	-0.0515717
C	0.352994	-0.858122	0.486009
N	1.69924	-0.762148	0.461515
H	3.18815	0.511581	-0.216502
N	-0.759933	2.18267	-1.23321
H	-0.301519	2.96974	-1.66213
H	-1.76431	2.11981	-1.21981
N	-1.87358	-0.344876	0.151893
C	-1.76347	-1.49824	0.797267
N	-0.437901	-1.85759	1.02617
H	-2.58924	-2.11007	1.12057
H	-0.0973147	-2.68242	1.49335
C	9.89867	2.4128	0.565112
C	10.4808	1.04072	0.380899
H	9.52732	2.81055	-0.386355
H	10.6612	3.11637	0.918661
H	9.07387	2.40301	1.28403
C	11.5984	0.891669	-0.554573
C	10.0314	-0.0631454	1.0293
N	10.5915	-1.31771	0.836399
H	9.20956	-0.0246815	1.7337
N	12.0984	-0.42084	-0.681375
C	11.655	-1.56505	-0.0288434
H	12.8715	-0.546796	-1.32304
H	10.2395	-2.12404	1.33067
O	12.1478	-2.69481	-0.192212
O	12.1047	1.82344	-1.21193
