30
  This energy is 4.6118e-05 and Call times are: 4803
C	1.16605	-0.0250022	0.747481
N	1.94247	-0.535517	-0.244802
C	1.37836	-0.802334	-1.44789
C	-0.199867	0.206037	0.48056
C	-0.655671	-0.114702	-0.808778
N	0.0905101	-0.622027	-1.81278
H	2.0411	-1.20734	-2.20207
N	1.73469	0.239978	1.94823
H	2.71587	0.0515778	2.07227
H	1.18642	0.618291	2.70267
N	-1.24213	0.710434	1.26677
C	-2.3003	0.693028	0.467482
N	-2.003	0.202906	-0.801402
H	-3.29095	1.01569	0.741811
H	-2.63261	0.0921714	-1.57982
C	10.7558	-0.691672	-2.26346
C	11.7061	-0.343373	-1.154
H	10.0648	0.136122	-2.46021
H	10.1366	-1.55412	-1.99105
H	11.2911	-0.925731	-3.1886
C	11.1374	-0.00519234	0.153116
C	13.0556	-0.324386	-1.2942
N	13.9067	0.00227088	-0.248367
H	13.5422	-0.563479	-2.23178
N	12.0828	0.311787	1.15033
C	13.4672	0.337906	1.03034
H	11.7114	0.548652	2.06213
H	14.9075	0.00933022	-0.377444
O	14.2411	0.628527	1.95901
O	9.91755	0.0148291	0.41419
