30
  This energy is -0.00233328 and Call times are: 7799
C	0.254806	0.0188098	-1.36153
N	-0.37742	-1.15533	-1.62562
C	-0.953558	-1.83461	-0.604106
C	0.283907	0.481546	-0.0290873
C	-0.352345	-0.319964	0.933091
N	-0.987053	-1.48849	0.700992
H	-1.44326	-2.76292	-0.869568
N	0.82911	0.693976	-2.38607
H	0.771773	0.307665	-3.31401
H	1.30448	1.5659	-2.22274
N	0.838853	1.62301	0.560796
C	0.542518	1.5096	1.84851
N	-0.177974	0.352039	2.13069
H	0.815449	2.21786	2.61312
H	-0.517275	0.04337	3.02746
C	4.55549	1.99954	-0.658794
C	5.40299	0.810816	-0.306509
H	4.89774	2.46033	-1.59257
H	4.62816	2.77375	0.113673
H	3.5039	1.71984	-0.773553
C	6.83985	1.02656	-0.118652
C	4.91444	-0.445695	-0.153462
N	5.72505	-1.52346	0.172379
H	3.8634	-0.675826	-0.277721
N	7.57794	-0.129172	0.210242
C	7.10025	-1.42424	0.372048
H	8.57362	-0.00289785	0.344799
H	5.33793	-2.44905	0.28087
O	7.81525	-2.39862	0.664031
O	7.41395	2.12866	-0.22977
