30
  This energy is -0.000162182 and Call times are: 3857
C	0.707127	-0.745927	0.928761
N	1.25002	0.325341	1.56573
C	0.948616	1.57171	1.12689
C	-0.150639	-0.51267	-0.166772
C	-0.378832	0.828227	-0.517405
N	0.145353	1.91077	0.0953827
H	1.40754	2.38845	1.66945
N	1.01153	-1.98966	1.37127
H	1.63096	-2.08598	2.15907
H	0.625565	-2.80269	0.920806
N	-0.853023	-1.37636	-1.01504
C	-1.48888	-0.572149	-1.85637
N	-1.23801	0.773485	-1.6014
H	-2.13361	-0.895373	-2.65674
H	-1.6017	1.57067	-2.09822
C	11.8619	-2.7238	-0.514481
C	11.915	-1.27016	-0.140929
H	12.7581	-3.24971	-0.165771
H	11.8345	-2.84654	-1.60332
H	10.9821	-3.2138	-0.0866313
C	13.0397	-0.475822	-0.641342
C	10.9839	-0.654645	0.630574
N	11.0623	0.691285	0.957956
H	10.1277	-1.18161	1.03345
N	13.0301	0.880336	-0.254785
C	12.0889	1.53192	0.533382
H	13.7986	1.44822	-0.589832
H	10.357	1.1266	1.53363
O	12.1469	2.73697	0.834052
O	13.9601	-0.91881	-1.35769
