30
  This energy is -0.00219767 and Call times are: 7645
C	0.188714	1.34401	0.277573
N	-0.0102272	1.76684	-0.999027
C	-0.28484	0.850027	-1.95865
C	0.100255	-0.0375186	0.549433
C	-0.190742	-0.878819	-0.5371
N	-0.392907	-0.488411	-1.81338
H	-0.434432	1.24037	-2.9573
N	0.462916	2.26439	1.23313
H	0.511711	3.23533	0.971447
H	0.615106	1.98283	2.18731
N	0.248405	-0.778064	1.72778
C	0.0507982	-2.03605	1.35724
N	-0.219033	-2.1558	-0.00346562
H	0.0885785	-2.88978	2.01336
H	-0.402583	-3.00025	-0.52097
C	4.60088	2.63128	0.742827
C	4.80437	1.16766	0.474802
H	4.23784	3.14591	-0.154258
H	5.5466	3.11363	1.01548
H	3.88189	2.79256	1.55172
C	5.74288	0.790227	-0.584974
C	4.17038	0.180304	1.15605
N	4.38058	-1.16371	0.88348
H	3.46455	0.388223	1.95081
N	5.88805	-0.598048	-0.785728
C	5.25044	-1.62615	-0.101605
H	6.5323	-0.881527	-1.51373
H	3.89691	-1.88003	1.40433
O	5.4297	-2.83408	-0.335456
O	6.3883	1.59737	-1.28392
