30
  This energy is 0.00238798 and Call times are: 11407
C	-0.538952	0.76354	-1.02253
N	0.243174	0.235898	-2.00128
C	1.14828	-0.718595	-1.67483
C	-0.373729	0.292363	0.296961
C	0.60053	-0.699455	0.497302
N	1.39076	-1.24156	-0.453398
H	1.74482	-1.10444	-2.49173
N	-1.44213	1.71735	-1.35399
H	-1.50898	2.00874	-2.31536
H	-2.03559	2.12731	-0.652103
N	-1.00568	0.621136	1.50171
C	-0.423959	-0.155873	2.40544
N	0.556238	-0.976018	1.85295
H	-0.662444	-0.172242	3.45597
H	1.13427	-1.64891	2.33013
C	10.4852	0.629839	1.22778
C	9.1096	0.278248	0.738402
H	10.8008	1.60487	0.839009
H	11.2237	-0.0986777	0.873893
H	10.5238	0.661783	2.32082
C	8.8987	0.195773	-0.709051
C	8.05636	0.0341085	1.55817
N	6.79692	-0.288304	1.07371
H	8.14186	0.0779029	2.63698
N	7.58613	-0.138142	-1.1019
C	6.49309	-0.392121	-0.281944
H	7.41791	-0.200758	-2.09849
H	6.02895	-0.465703	1.70388
O	5.35962	-0.682188	-0.702698
O	9.78035	0.396448	-1.5687
