30
  This energy is 1.2584e-05 and Call times are: 8833
C	0.376237	1.28294	-0.362671
N	-0.853357	1.65542	-0.807002
C	-1.87127	0.762678	-0.746107
C	0.540156	-0.0230929	0.145029
C	-0.597452	-0.847006	0.151044
N	-1.82919	-0.505317	-0.282839
H	-2.82863	1.11064	-1.11275
N	1.3904	2.17897	-0.425689
H	1.2054	3.09525	-0.799601
H	2.31206	1.93332	-0.104607
N	1.64856	-0.699595	0.667191
C	1.18696	-1.90295	0.979839
N	-0.166893	-2.04776	0.688683
H	1.77066	-2.69888	1.41176
H	-0.742372	-2.86167	0.833479
C	18.2277	0.805087	2.56707
C	18.6399	0.201732	1.255
H	17.292	1.36619	2.46223
H	18.9795	1.51958	2.92173
H	18.0889	0.0366074	3.33349
C	18.8654	1.10786	0.126075
C	18.814	-1.12934	1.05786
N	19.1954	-1.65523	-0.16803
H	18.6642	-1.85468	1.84813
N	19.2499	0.478243	-1.07577
C	19.4342	-0.880727	-1.30118
H	19.4112	1.08606	-1.86946
H	19.3185	-2.64939	-0.289835
O	19.7758	-1.36512	-2.39412
O	18.7403	2.34828	0.17386
