30
  This energy is -0.00255282 and Call times are: 11473
C	-0.608286	-0.550089	1.11643
N	-1.57349	0.401867	1.21759
C	-1.59557	1.41246	0.314788
C	0.333103	-0.444228	0.0709931
C	0.19599	0.653004	-0.795208
N	-0.750559	1.61244	-0.719695
H	-2.38457	2.14292	0.44115
N	-0.590538	-1.55818	2.02131
H	-1.29221	-1.57433	2.7431
H	0.111249	-2.27795	1.97304
N	1.42359	-1.23923	-0.300066
C	1.93011	-0.63301	-1.36534
N	1.22633	0.517961	-1.70976
H	2.78879	-0.97021	-1.92188
H	1.41385	1.14659	-2.47413
C	6.6863	0.600469	-2.67022
C	6.52143	0.172357	-1.2402
H	6.78164	1.68995	-2.74331
H	5.80691	0.3258	-3.26405
H	7.57007	0.142366	-3.12446
C	5.37801	0.70407	-0.49436
C	7.36843	-0.675147	-0.603612
N	7.18795	-1.05105	0.719631
H	8.23289	-1.10475	-1.09476
N	5.28108	0.263343	0.841697
C	6.13502	-0.602764	1.51416
H	4.49767	0.618605	1.376
H	7.83194	-1.68317	1.17134
O	5.98489	-0.947887	2.69917
O	4.52765	1.48892	-0.9607
