30
  This energy is -5.596e-06 and Call times are: 4011
C	1.11427	0.203836	-0.797418
N	1.47455	1.37818	-0.215011
C	0.719937	1.86613	0.79954
C	-0.0350761	-0.459227	-0.318144
C	-0.726064	0.156171	0.738664
N	-0.39272	1.31988	1.33602
H	1.05125	2.80383	1.22731
N	1.87187	-0.279664	-1.81114
H	2.68014	0.243821	-2.10484
H	1.63122	-1.14639	-2.26257
N	-0.658524	-1.65519	-0.692107
C	-1.70069	-1.75584	0.121923
N	-1.79044	-0.68654	1.00917
H	-2.41441	-2.56291	0.119881
H	-2.4881	-0.53533	1.7198
C	17.0387	-0.21187	2.24267
C	17.9379	-0.281423	1.04179
H	16.0986	0.295818	1.9979
H	17.5048	0.369584	3.04645
H	16.8059	-1.21026	2.62511
C	18.3401	0.979885	0.41436
C	18.396	-1.44169	0.508113
N	19.226	-1.47162	-0.603202
H	18.138	-2.40903	0.921369
N	19.1838	0.844843	-0.707552
C	19.6651	-0.330738	-1.27136
H	19.4743	1.70451	-1.15695
H	19.5538	-2.3477	-0.981829
O	20.4094	-0.371804	-2.2665
O	17.9901	2.11187	0.805106
