30
  This energy is -2.2649e-05 and Call times are: 9251
C	-0.265566	0.0120647	-1.35954
N	-1.39925	-0.733322	-1.27446
C	-1.81116	-1.16465	-0.0574406
C	0.436406	0.305714	-0.171534
C	-0.100142	-0.203215	1.02267
N	-1.22201	-0.945039	1.13792
H	-2.71925	-1.75397	-0.0465137
N	0.14194	0.44079	-2.57835
H	-0.40578	0.195622	-3.38674
H	0.977003	0.99432	-2.67415
N	1.60774	1.03032	0.0770364
C	1.77105	0.958206	1.3912
N	0.766096	0.223301	2.01462
H	2.58065	1.40778	1.94181
H	0.668786	0.0272596	2.99782
C	17.9959	0.665801	0.58913
C	19.352	0.16271	0.184991
H	17.8213	1.67494	0.198562
H	17.915	0.737321	1.67987
H	17.2013	0.00855291	0.223361
C	20.5222	0.938925	0.602878
C	19.5528	-0.96504	-0.542191
N	20.8199	-1.40285	-0.899647
H	18.7334	-1.58557	-0.883707
N	21.7642	0.412829	0.191337
C	21.9941	-0.738378	-0.552582
H	22.5868	0.933677	0.469518
H	20.9435	-2.24535	-1.44117
O	23.1238	-1.14201	-0.879448
O	20.4757	1.99073	1.27229
