30
  This energy is -0.00483705 and Call times are: 5403
C	0.559388	-1.24814	0.219661
N	-0.135024	-1.49983	1.36094
C	-1.00817	-0.5688	1.81661
C	0.339953	-0.0227488	-0.444128
C	-0.5927	0.852888	0.135905
N	-1.29613	0.63058	1.26637
H	-1.53445	-0.819742	2.72881
N	1.43095	-2.18199	-0.231651
H	1.5401	-3.0359	0.290374
H	1.95979	-2.02515	-1.07346
N	0.881303	0.52737	-1.61168
C	0.287054	1.70707	-1.73023
N	-0.615345	1.95636	-0.699601
H	0.462948	2.41386	-2.52413
H	-1.18577	2.77604	-0.567904
C	6.89824	2.42155	-0.124168
C	6.31164	1.04015	-0.0686594
H	6.63034	2.99593	0.770102
H	6.50308	2.97958	-0.980815
H	7.98908	2.38889	-0.203157
C	4.85549	0.918997	0.0378484
C	7.05159	-0.0963272	-0.111269
N	6.47831	-1.3586	-0.0576132
H	8.13172	-0.0796623	-0.18947
N	4.36955	-0.403979	0.085542
C	5.10681	-1.58137	0.0435478
H	3.36529	-0.511082	0.159103
H	7.05013	-2.18941	-0.0910562
O	4.60602	-2.71844	0.0905338
O	4.06344	1.88176	0.085822
