30
  This energy is 0.00071416 and Call times are: 3043
C	0.903331	-0.127186	-1.04252
N	1.92406	-0.586785	-0.271195
C	1.72383	-0.736988	1.06079
C	-0.326105	0.174957	-0.419978
C	-0.398636	-0.0262299	0.968289
N	0.596518	-0.480602	1.75911
H	2.569	-1.10594	1.62789
N	1.10856	0.0212011	-2.37339
H	2.01074	-0.212871	-2.754
H	0.37264	0.359271	-2.97092
N	-1.54276	0.654582	-0.918553
C	-2.32847	0.739563	0.146489
N	-1.6875	0.339907	1.31615
H	-3.3518	1.07643	0.137775
H	-2.06979	0.314269	2.2477
C	8.10265	2.60724	-0.359376
C	7.67526	1.16795	-0.32465
H	8.69432	2.86056	0.527842
H	7.23228	3.27343	-0.352028
H	8.7	2.82466	-1.24996
C	6.86499	0.722107	0.811608
C	7.99637	0.261946	-1.28224
N	7.58552	-1.06177	-1.22031
H	8.59194	0.523428	-2.14826
N	6.49742	-0.639068	0.783691
C	6.81397	-1.58436	-0.184698
H	5.93673	-0.968776	1.55979
H	7.83721	-1.71705	-1.9453
O	6.45231	-2.77317	-0.141644
O	6.50202	1.45205	1.75606
