30
  This energy is 0.000191555 and Call times are: 3219
C	-0.745896	-0.407786	-1.09379
N	0.0767872	0.147118	-2.02296
C	1.18274	0.811124	-1.60724
C	-0.411117	-0.26771	0.269536
C	0.763394	0.444764	0.56267
N	1.59863	1.00599	-0.337099
H	1.80277	1.2333	-2.38786
N	-1.85009	-1.07046	-1.51446
H	-2.03063	-1.13354	-2.50291
H	-2.47862	-1.49212	-0.851086
N	-1.03217	-0.709869	1.44327
C	-0.248177	-0.272717	2.41955
N	0.853954	0.432809	1.94393
H	-0.419699	-0.430656	3.4714
H	1.58858	0.860884	2.484
C	9.44603	-1.70194	-1.98239
C	10.0495	-0.939942	-0.837542
H	9.86564	-1.36794	-2.9383
H	8.36536	-1.52831	-2.04074
H	9.62096	-2.77739	-1.88213
C	9.8977	0.517215	-0.829956
C	10.7242	-1.52305	0.18502
N	11.2704	-0.789841	1.22855
H	10.8734	-2.59429	0.242061
N	10.4867	1.17192	0.271473
C	11.1815	0.596853	1.3289
H	10.3937	2.17994	0.296939
H	11.7681	-1.24669	1.97816
O	11.6755	1.24183	2.27006
O	9.30195	1.1747	-1.70709
