30
  This energy is -0.00631488 and Call times are: 1480
C	1.18265	0.233382	0.682575
N	1.02336	1.58145	0.756056
C	-0.0834589	2.14212	0.210665
C	0.184049	-0.527226	0.0386511
C	-0.911839	0.179722	-0.483148
N	-1.09692	1.51561	-0.425405
H	-0.160437	3.21852	0.297128
N	2.29073	-0.32217	1.22928
H	2.96503	0.278384	1.67451
H	2.43735	-1.31713	1.19113
N	0.05105	-1.89997	-0.199567
C	-1.09904	-2.01493	-0.849922
N	-1.72487	-0.787191	-1.0491
H	-1.52597	-2.94112	-1.19728
H	-2.60159	-0.613181	-1.5135
C	8.76107	1.33266	-1.34552
C	7.77624	0.590304	-0.48851
H	8.40193	2.34441	-1.56637
H	8.8926	0.832631	-2.31198
H	9.73725	1.40859	-0.857094
C	6.41916	0.405927	-1.00883
C	8.07188	0.0835224	0.734885
N	7.13819	-0.597776	1.50228
H	9.05442	0.183682	1.17948
N	5.54458	-0.298577	-0.155904
C	5.82433	-0.826068	1.09911
H	4.60095	-0.437638	-0.495948
H	7.38227	-0.965684	2.40971
O	4.99746	-1.43865	1.79693
O	6.01929	0.821152	-2.11529
