30
  This energy is -2.7754e-05 and Call times are: 4099
C	-0.139785	0.234592	1.35811
N	-0.0774942	-1.07418	1.72047
C	0.0778751	-2.01502	0.75739
C	-0.0395097	0.558251	-0.0113998
C	0.119109	-0.513858	-0.904956
N	0.184225	-1.82118	-0.575019
H	0.121367	-3.04091	1.10047
N	-0.29515	1.17118	2.32456
H	-0.360123	0.872129	3.28369
H	-0.344741	2.14821	2.08822
N	-0.0662137	1.77849	-0.696365
C	0.0732523	1.44666	-1.97282
N	0.189797	0.0715165	-2.15738
H	0.0971873	2.14146	-2.79588
H	0.304357	-0.423674	-3.02702
C	15.9452	2.24858	1.43663
C	15.5364	0.944306	0.814394
H	15.1009	2.94673	1.47075
H	16.727	2.73644	0.84314
H	16.3196	2.10493	2.45469
C	15.0127	0.973313	-0.553545
C	15.6245	-0.25351	1.44558
N	15.2378	-1.44148	0.842236
H	16.002	-0.347305	2.4564
N	14.6475	-0.283543	-1.07855
C	14.7285	-1.52148	-0.452044
H	14.2829	-0.286804	-2.02326
H	15.313	-2.32029	1.33252
O	14.3858	-2.59323	-0.980993
O	14.8807	2.0049	-1.24274
