30
  This energy is -0.00304956 and Call times are: 2040
C	-0.409923	0.929924	0.941402
N	0.801427	1.03875	1.54874
C	1.838	0.300651	1.0823
C	-0.536092	0.0490948	-0.153397
C	0.617484	-0.655956	-0.534432
N	1.83183	-0.568612	0.0485961
H	2.77953	0.425347	1.60194
N	-1.44286	1.66984	1.41143
H	-1.28479	2.27938	2.19697
H	-2.35179	1.6114	0.983257
N	-1.61847	-0.283961	-0.975832
C	-1.12597	-1.16928	-1.83171
N	0.223402	-1.43209	-1.61079
H	-1.6836	-1.64784	-2.61961
H	0.818121	-2.06258	-2.124
C	4.91589	-2.37003	0.121516
C	5.72203	-1.1084	0.239192
H	5.43561	-3.10924	-0.498858
H	3.95483	-2.17523	-0.368167
H	4.72297	-2.81323	1.10315
C	6.06188	-0.396042	-0.995088
C	6.15117	-0.594212	1.41918
N	6.89513	0.574469	1.49366
H	5.93594	-1.06913	2.3685
N	6.81941	0.77974	-0.815192
C	7.26964	1.32498	0.381292
H	7.06552	1.28831	-1.65555
H	7.20288	0.937163	2.38366
O	7.93663	2.37115	0.46226
O	5.72993	-0.760829	-2.14108
