30
  This energy is 9.0588e-05 and Call times are: 5138
C	1.12366	-0.402443	0.703174
N	1.45118	0.841606	1.14266
C	0.670002	1.89021	0.786253
C	-0.0207513	-0.548698	-0.108793
C	-0.741512	0.620505	-0.402884
N	-0.440965	1.86721	0.0185136
H	0.975781	2.85793	1.16318
N	1.90772	-1.44729	1.06221
H	2.71068	-1.27353	1.64416
H	1.69162	-2.38031	0.752901
N	-0.614519	-1.66481	-0.709279
C	-1.66837	-1.17685	-1.34973
N	-1.79394	0.201576	-1.19858
H	-2.36627	-1.75776	-1.9296
H	-2.50648	0.79923	-1.58549
C	8.53071	0.545422	-2.74517
C	8.65723	0.366912	-1.25939
H	7.53975	0.932344	-3.00915
H	8.63718	-0.414023	-3.26432
H	9.28773	1.2354	-3.13
C	7.70984	-0.531795	-0.595169
C	9.59538	0.988719	-0.50166
N	9.68541	0.802347	0.870203
H	10.326	1.66551	-0.927415
N	7.88275	-0.655063	0.798959
C	8.83465	-0.0292867	1.59511
H	7.23843	-1.27171	1.27855
H	10.3923	1.27629	1.41239
O	8.92655	-0.187502	2.82492
O	6.80241	-1.16247	-1.17429
