30
  This energy is -9.0041e-05 and Call times are: 10923
C	0.627842	-0.855673	0.89032
N	-0.389845	-1.75556	0.941237
C	-1.50442	-1.52805	0.204479
C	0.478902	0.281531	0.068769
C	-0.727359	0.395072	-0.641911
N	-1.75394	-0.480928	-0.611291
H	-2.28366	-2.27562	0.281705
N	1.73979	-1.08767	1.62863
H	1.78155	-1.91956	2.19415
H	2.51022	-0.440306	1.61222
N	1.31909	1.3686	-0.198098
C	0.632777	2.1183	-1.05004
N	-0.613464	1.57677	-1.35384
H	0.975634	3.04675	-1.4757
H	-1.31363	1.95574	-1.97089
C	11.9931	-2.29	-0.090425
C	12.9385	-1.12746	-0.191377
H	10.9517	-1.95242	-0.144221
H	12.1039	-2.80102	0.87289
H	12.1658	-3.01536	-0.891221
C	12.8305	-0.0684686	0.81524
C	13.8822	-1.00386	-1.15831
N	14.7409	0.0839398	-1.22375
H	14.0166	-1.7489	-1.93287
N	13.7462	0.993245	0.663718
C	14.72	1.14129	-0.316842
H	13.6893	1.73654	1.34906
H	15.435	0.153225	-1.95291
O	15.4957	2.11042	-0.386969
O	12.0086	-0.0606584	1.75385
