30
  This energy is -0.00361815 and Call times are: 2999
C	-0.257136	-0.987377	-0.937016
N	-1.58153	-0.705809	-1.05853
C	-2.1084	0.302173	-0.321486
C	0.515165	-0.214358	-0.0446285
C	-0.156069	0.80002	0.65787
N	-1.46787	1.10236	0.558071
H	-3.16705	0.484013	-0.456509
N	0.264668	-1.99589	-1.67593
H	-0.342491	-2.5085	-2.29413
H	1.24149	-2.22858	-1.60824
N	1.87059	-0.248345	0.302533
C	2.01031	0.723913	1.19364
N	0.815203	1.39194	1.44685
H	2.93258	0.989669	1.68309
H	0.663954	2.16129	2.07917
C	6.15796	0.459134	2.75955
C	6.06668	0.0979395	1.30468
H	6.02181	1.53713	2.9037
H	7.14826	0.215394	3.16113
H	5.40319	-0.0691434	3.34989
C	7.01593	0.726773	0.382793
C	5.15835	-0.773934	0.799011
N	5.1002	-1.08627	-0.551511
H	4.42814	-1.27406	1.4233
N	6.87681	0.345206	-0.967666
C	5.95576	-0.544243	-1.50813
H	7.52318	0.767942	-1.62258
H	4.41516	-1.73822	-0.903707
O	5.89285	-0.83312	-2.71581
O	7.89805	1.543	0.717769
