30
  This energy is 0.000637313 and Call times are: 7733
C	-1.03581	0.373359	0.84068
N	-1.34513	1.51116	0.164066
C	-0.629221	1.83271	-0.940886
C	0.0221587	-0.427244	0.360981
C	0.681601	0.0218908	-0.795062
N	0.397174	1.14543	-1.48711
H	-0.916961	2.74853	-1.44141
N	-1.7544	0.0563896	1.94454
H	-2.49708	0.671885	2.23295
H	-1.54968	-0.77914	2.46693
N	0.57674	-1.62889	0.816345
C	1.54759	-1.89551	-0.0469311
N	1.65607	-0.929344	-1.04364
H	2.19545	-2.7554	-0.00656678
H	2.31104	-0.907256	-1.80858
C	4.668	0.166825	2.70951
C	5.14572	-0.0598891	1.30387
H	3.5813	0.0410616	2.77783
H	4.88244	1.19143	3.03446
H	5.14348	-0.527071	3.40928
C	4.59774	0.796025	0.248636
C	6.05199	-1.00875	0.958509
N	6.47268	-1.19282	-0.350683
H	6.49675	-1.6751	1.68736
N	5.08709	0.531601	-1.04724
C	6.01364	-0.433147	-1.4245
H	4.72159	1.11187	-1.7923
H	7.14821	-1.90569	-0.582659
O	6.39933	-0.608575	-2.59342
O	3.76068	1.7029	0.431616
