30
  This energy is 0.00414166 and Call times are: 5094
C	-1.01109	-0.575503	-0.752017
N	-1.72611	0.570866	-0.902523
C	-1.26057	1.71311	-0.340922
C	0.190377	-0.526205	-0.0141721
C	0.557638	0.722393	0.514169
N	-0.130953	1.87582	0.381361
H	-1.86831	2.59635	-0.491215
N	-1.4807	-1.71459	-1.31531
H	-2.34565	-1.68051	-1.82941
H	-0.974278	-2.57927	-1.22166
N	1.13492	-1.50477	0.316166
C	2.04906	-0.858328	1.02704
N	1.75035	0.493168	1.17835
H	2.93357	-1.30292	1.45219
H	2.28577	1.18868	1.6725
C	7.36413	-2.29397	1.56189
C	7.02287	-1.02812	0.829363
H	8.37421	-2.24075	1.98417
H	7.35767	-3.15303	0.881181
H	6.657	-2.48796	2.37403
C	7.88155	-0.632633	-0.289857
C	5.96885	-0.234178	1.14498
N	5.68074	0.930186	0.447773
H	5.29422	-0.466692	1.95977
N	7.50676	0.564336	-0.934431
C	6.43336	1.39281	-0.62946
H	8.08675	0.85658	-1.71136
H	4.89063	1.50431	0.701662
O	6.1638	2.4384	-1.24589
O	8.87893	-1.27181	-0.681352
