30
  This energy is -3.9068e-05 and Call times are: 8745
C	-0.579408	-0.579906	1.1167
N	-0.908289	0.595862	1.7146
C	-0.59584	1.75849	1.0921
C	0.0760618	-0.538657	-0.131904
C	0.340641	0.733298	-0.665899
N	0.0264901	1.91607	-0.0962091
H	-0.880119	2.66481	1.61154
N	-0.893908	-1.73929	1.74303
H	-1.36217	-1.69796	2.63332
H	-0.66372	-2.62589	1.32607
N	0.538404	-1.54484	-0.987882
C	1.06883	-0.891782	-2.01309
N	0.976852	0.490259	-1.87106
H	1.52634	-1.35236	-2.87292
H	1.30402	1.19628	-2.51066
C	17.3354	0.206742	-2.69273
C	17.1077	0.161323	-1.20899
H	16.5931	0.847503	-3.18245
H	17.225	-0.789801	-3.13555
H	18.3339	0.585191	-2.93168
C	15.8114	-0.325669	-0.730407
C	18.0309	0.544493	-0.291567
N	17.7889	0.490391	1.07347
H	19.0086	0.914111	-0.575645
N	15.6622	-0.343071	0.671773
C	16.5921	0.0438344	1.62949
H	14.7735	-0.676373	1.02464
H	18.4919	0.78107	1.73648
O	16.3883	0.000277336	2.85525
O	14.8792	-0.707147	-1.46661
