30
  This energy is 0.000192271 and Call times are: 2708
C	0.490279	-0.777539	-1.03638
N	1.70259	-0.164988	-1.09264
C	1.96569	0.849495	-0.233315
C	-0.44592	-0.328458	-0.0812808
C	-0.0447244	0.731894	0.748006
N	1.15031	1.35879	0.715358
H	2.94532	1.30194	-0.320829
N	0.232202	-1.79106	-1.89751
H	0.944948	-2.06229	-2.55479
H	-0.655823	-2.26438	-1.88064
N	-1.74881	-0.736693	0.22643
C	-2.12181	0.0606694	1.21838
N	-1.1291	0.969544	1.57498
H	-3.07899	0.0314201	1.71204
H	-1.17099	1.6737	2.29401
C	6.75856	-2.73259	-0.488658
C	6.70308	-1.23867	-0.345327
H	5.79772	-3.12742	-0.838348
H	6.95687	-3.21059	0.477561
H	7.53759	-3.03704	-1.19412
C	5.7063	-0.675646	0.568912
C	7.52059	-0.385565	-1.01228
N	7.44341	0.991007	-0.857554
H	8.27891	-0.733578	-1.70287
N	5.70671	0.731777	0.657484
C	6.53292	1.62461	-0.014672
H	5.02546	1.14245	1.28411
H	8.06289	1.60516	-1.3649
O	6.47458	2.85981	0.114824
O	4.89714	-1.34754	1.24002
