30
  This energy is 6.9963e-05 and Call times are: 11764
C	0.134588	1.03661	-0.909047
N	-1.0914	1.57396	-0.671844
C	-1.89951	0.98614	0.243732
C	0.514374	-0.11523	-0.188354
C	-0.418683	-0.622739	0.73081
N	-1.6414	-0.111476	0.987249
H	-2.86404	1.45435	0.393715
N	0.938579	1.62791	-1.82519
H	0.605995	2.44837	-2.3046
H	1.85177	1.25397	-2.02307
N	1.6782	-0.892578	-0.198144
C	1.44926	-1.84569	0.695195
N	0.194922	-1.73113	1.28865
H	2.13785	-2.63306	0.953313
H	-0.208697	-2.3293	1.99142
C	14.9227	0.352063	1.84778
C	13.8302	-0.0168386	0.885584
H	14.5394	1.00033	2.64416
H	15.7142	0.917172	1.34217
H	15.3676	-0.536404	2.30596
C	13.1362	1.06941	0.189347
C	13.452	-1.29386	0.626609
N	12.4377	-1.60125	-0.268679
H	13.9221	-2.1439	1.10568
N	12.1222	0.655712	-0.699111
C	11.7178	-0.643925	-0.980163
H	11.6292	1.3906	-1.19141
H	12.1743	-2.5594	-0.444592
O	10.8109	-0.933293	-1.77999
O	13.3863	2.28278	0.336723
