30
  This energy is -0.000751889 and Call times are: 11099
C	1.34019	-0.210589	-0.280309
N	1.79958	0.334624	0.87718
C	0.906693	0.823602	1.77189
C	-0.052837	-0.243912	-0.50105
C	-0.866475	0.297119	0.508059
N	-0.439612	0.844266	1.6659
H	1.3258	1.24629	2.67617
N	2.23675	-0.69797	-1.17137
H	3.21773	-0.642891	-0.951739
H	1.92797	-1.10769	-2.03721
N	-0.828132	-0.724712	-1.56247
C	-2.07948	-0.477959	-1.19897
N	-2.16189	0.139737	0.0461537
H	-2.95382	-0.717381	-1.78117
H	-2.99444	0.425868	0.53563
C	7.34527	2.47714	1.03233
C	6.9096	1.23152	0.31537
H	8.31471	2.32753	1.52141
H	6.63548	2.74002	1.82511
H	7.42909	3.32442	0.345063
C	6.75126	0.00760338	1.1049
C	6.65588	1.1768	-1.01638
N	6.25482	0.00894724	-1.64894
H	6.753	2.04328	-1.65891
N	6.34052	-1.12517	0.372233
C	6.07519	-1.20514	-0.989668
H	6.22465	-1.98252	0.898474
H	6.07193	-0.00653338	-2.64124
O	5.71504	-2.24468	-1.56893
O	6.952	-0.0771153	2.33336
