30
  This energy is -0.00142749 and Call times are: 7213
C	0.506202	-0.585755	-1.14877
N	1.81041	-0.344426	-0.850681
C	2.11173	0.295509	0.305406
C	-0.481863	-0.157515	-0.237346
C	-0.0324803	0.493976	0.923101
N	1.25363	0.747245	1.24551
H	3.16475	0.462169	0.493627
N	0.21026	-1.22574	-2.30558
H	0.963956	-1.50467	-2.91199
H	-0.745598	-1.41892	-2.55442
N	-1.87834	-0.250191	-0.248095
C	-2.25919	0.332626	0.880694
N	-1.18279	0.8017	1.62903
H	-3.27952	0.444943	1.2079
H	-1.21282	1.2768	2.51671
C	5.24668	-0.954828	-2.48888
C	5.74327	-0.285312	-1.23965
H	4.20533	-1.27634	-2.37223
H	5.82775	-1.85873	-2.705
H	5.30982	-0.285622	-3.35226
C	5.72189	-1.05754	0.00517833
C	6.20816	0.988747	-1.1999
N	6.65998	1.57855	-0.0282254
H	6.25166	1.61546	-2.08218
N	6.20097	-0.371465	1.14029
C	6.68121	0.93112	1.20517
H	6.19526	-0.88675	2.01199
H	7.00131	2.5282	-0.0241404
O	7.08914	1.4716	2.24795
O	5.3205	-2.2346	0.105007
