30
  This energy is 3.2603e-05 and Call times are: 4275
C	0.697994	0.774287	0.912313
N	1.71347	1.08619	0.0640234
C	1.68681	0.596592	-1.19947
C	-0.344615	-0.0495207	0.438319
C	-0.248899	-0.488478	-0.892536
N	0.745646	-0.195604	-1.75699
H	2.51931	0.875522	-1.83287
N	0.729301	1.26618	2.17423
H	1.50326	1.84869	2.44857
H	-0.00764456	1.05327	2.82575
N	-1.50605	-0.542827	1.04378
C	-2.09475	-1.26201	0.097686
N	-1.37736	-1.26408	-1.09564
H	-3.02387	-1.79553	0.21108
H	-1.6157	-1.73339	-1.95444
C	20.0318	2.59347	1.04448
C	19.9746	1.14353	0.657406
H	19.1319	3.12274	0.710519
H	20.8812	3.09273	0.564224
H	20.1245	2.71376	2.12808
C	19.8504	0.819818	-0.766039
C	20.031	0.121711	1.54826
N	19.9753	-1.20841	1.15771
H	20.1225	0.289342	2.61437
N	19.802	-0.558192	-1.06173
C	19.858	-1.6209	-0.167804
H	19.7164	-0.80476	-2.04013
H	20.0192	-1.95108	1.83951
O	19.8093	-2.81689	-0.504163
O	19.7887	1.66233	-1.68415
