30
  This energy is 6.9288e-05 and Call times are: 7909
C	0.250438	1.35985	-0.0843471
N	-0.587017	1.70664	0.928805
C	-1.2753	0.733263	1.57351
C	0.367307	-0.00486175	-0.422372
C	-0.402638	-0.9103	0.326219
N	-1.24142	-0.595897	1.33606
H	-1.92759	1.06409	2.37171
N	0.93616	2.33654	-0.725611
H	0.806585	3.29147	-0.434216
H	1.56375	2.1118	-1.47962
N	1.12364	-0.67505	-1.39071
C	0.81484	-1.95444	-1.22735
N	-0.104941	-2.15496	-0.201452
H	1.21496	-2.76878	-1.80831
H	-0.492778	-3.02974	0.113083
C	14.1419	0.654966	-2.53407
C	13.5266	0.161787	-1.25594
H	15.2349	0.681931	-2.45651
H	13.8213	1.68024	-2.75177
H	13.8685	0.017575	-3.38039
C	13.8014	0.914435	-0.0293872
C	12.7345	-0.936743	-1.17429
N	12.1812	-1.3664	0.0232483
H	12.4909	-1.53884	-2.04101
N	13.1944	0.399129	1.13453
C	12.3806	-0.722346	1.24239
H	13.371	0.904194	1.99427
H	11.5948	-2.18694	0.0584216
O	11.8784	-1.11813	2.30869
O	14.5111	1.9387	0.032501
