30
  This energy is 0.000141275 and Call times are: 4121
C	-0.818637	1.01316	-0.471565
N	-1.98244	0.427698	-0.083136
C	-1.93582	-0.774076	0.541691
C	0.39307	0.341096	-0.20612
C	0.299009	-0.898224	0.448296
N	-0.840381	-1.50347	0.845338
H	-2.89068	-1.19532	0.829489
N	-0.870617	2.21443	-1.09575
H	-1.76913	2.63994	-1.25451
H	-0.0264797	2.6733	-1.39537
N	1.72871	0.665417	-0.470229
C	2.42137	-0.356305	0.0147331
N	1.60662	-1.33224	0.582531
H	3.49448	-0.448015	-0.0133367
H	1.893	-2.19627	1.01385
C	15.4536	2.195	1.42251
C	15.8448	0.923791	0.725076
H	15.2982	3.00483	0.700417
H	16.2488	2.53054	2.09808
H	14.5353	2.0652	2.00309
C	17.0588	0.939013	-0.0949116
C	15.1398	-0.232275	0.811556
N	15.5285	-1.39044	0.153937
H	14.2339	-0.313707	1.39954
N	17.3697	-0.285276	-0.721897
C	16.664	-1.48031	-0.648167
H	18.2053	-0.297379	-1.2938
H	14.9872	-2.23837	0.23389
O	17.0011	-2.52506	-1.23193
O	17.7948	1.93325	-0.257355
