30
  This energy is -0.000408876 and Call times are: 2954
C	-0.967238	0.575751	0.807461
N	-2.02139	-0.0138101	0.183556
C	-1.78507	-0.841808	-0.863067
C	0.333327	0.298766	0.336107
C	0.436953	-0.577405	-0.756874
N	-0.590007	-1.17689	-1.39574
H	-2.65934	-1.28444	-1.32326
N	-1.20876	1.40256	1.85313
H	-2.16162	1.55732	2.13894
H	-0.449571	1.85397	2.33559
N	1.59818	0.733782	0.748126
C	2.44263	0.132312	-0.0789299
N	1.79432	-0.673884	-1.01081
H	3.51468	0.236962	-0.0560124
H	2.21341	-1.2295	-1.73899
C	7.95723	2.36823	1.14438
C	7.53021	1.14974	0.377327
H	8.53285	2.08791	2.03404
H	7.08645	2.92923	1.50273
H	8.5702	3.03299	0.528268
C	6.70013	0.161208	1.07026
C	7.86889	0.914517	-0.915303
N	7.45785	-0.222408	-1.59596
H	8.47962	1.60266	-1.48674
N	6.33398	-0.958157	0.294607
C	6.66833	-1.22027	-1.02868
H	5.75977	-1.65434	0.753978
H	7.72282	-0.374952	-2.55767
O	6.30671	-2.23449	-1.65035
O	6.31994	0.256822	2.2547
