30
  This energy is -1.9907e-05 and Call times are: 3945
C	-0.242698	1.36097	0.0888743
N	-1.11073	1.40404	-0.956462
C	-1.39228	0.258187	-1.62324
C	0.330188	0.11932	0.435975
C	-0.0477125	-0.990304	-0.337942
N	-0.905821	-0.978075	-1.3799
H	-2.08922	0.348735	-2.44672
N	0.0354199	2.50907	0.7521
H	-0.408196	3.36177	0.452586
H	0.673866	2.50978	1.5301
N	1.23665	-0.254696	1.43462
C	1.39954	-1.55982	1.2643
N	0.645705	-2.05826	0.205076
H	2.03689	-2.18928	1.8629
H	0.599041	-3.01024	-0.120758
C	19.2522	-0.687581	-2.18969
C	18.4202	-0.489864	-0.955114
H	20.0835	0.0261543	-2.21895
H	18.6584	-0.509002	-3.09355
H	19.6616	-1.70116	-2.23673
C	17.8012	0.822076	-0.750146
C	18.2111	-1.45385	-0.0234803
N	17.4366	-1.23875	1.10731
H	18.6384	-2.44514	-0.112178
N	17.0339	0.94154	0.427007
C	16.8059	-0.0301151	1.39421
H	16.5966	1.84045	0.588663
H	17.2957	-1.97195	1.78622
O	16.1141	0.149162	2.41165
O	17.914	1.79095	-1.52804
