30
  This energy is -0.00132217 and Call times are: 2844
C	0.434085	-1.25817	0.384194
N	0.289603	-1.82319	-0.84379
C	-0.165228	-1.06049	-1.86764
C	0.102693	0.104243	0.540299
C	-0.357112	0.778576	-0.602887
N	-0.51062	0.244774	-1.8332
H	-0.261547	-1.55979	-2.82339
N	0.889076	-2.0248	1.4043
H	1.10743	-2.99107	1.22475
H	1.00674	-1.63564	2.32496
N	0.137835	0.962641	1.64519
C	-0.291283	2.12655	1.17607
N	-0.605244	2.07291	-0.179367
H	-0.395488	3.02901	1.75526
H	-0.948681	2.82086	-0.760069
C	3.99834	-0.491336	-0.542259
C	5.45176	-0.136836	-0.410583
H	3.42199	-0.0970083	0.302559
H	3.85897	-1.57847	-0.532005
H	3.5733	-0.0945575	-1.46916
C	6.16349	-0.599997	0.783286
C	6.13897	0.585121	-1.33115
N	7.4825	0.896132	-1.17934
H	5.6751	0.958495	-2.23586
N	7.52389	-0.233787	0.845568
C	8.24803	0.503863	-0.0834454
H	8.03538	-0.543748	1.6627
H	7.97205	1.43473	-1.87834
O	9.45184	0.789347	0.0400386
O	5.65006	-1.26979	1.70216
