30
  This energy is -0.00540084 and Call times are: 6741
C	-1.29349	-0.313743	0.38403
N	-1.69649	0.975296	0.539078
C	-0.811919	1.97305	0.296445
C	0.0345014	-0.558153	-0.0247044
C	0.846809	0.56696	-0.242183
N	0.47499	1.85643	-0.0965749
H	-1.18447	2.98004	0.435066
N	-2.18147	-1.30743	0.627799
H	-3.11459	-1.06381	0.916831
H	-1.91342	-2.27172	0.521941
N	0.74337	-1.73982	-0.269716
C	1.95439	-1.33349	-0.626386
N	2.07348	0.0537671	-0.627071
H	2.77362	-1.98117	-0.891216
H	2.88718	0.599988	-0.859747
C	4.46163	0.763509	2.01325
C	5.48125	0.226289	1.05034
H	3.45187	0.692627	1.59281
H	4.63857	1.82582	2.21714
H	4.48282	0.21867	2.9619
C	5.5747	0.856104	-0.269125
C	6.31649	-0.804945	1.33294
N	7.24814	-1.27802	0.420209
H	6.30105	-1.31564	2.28794
N	6.55097	0.305041	-1.12464
C	7.41634	-0.749201	-0.857659
H	6.63284	0.725498	-2.0422
H	7.85868	-2.04675	0.653976
O	8.25568	-1.18276	-1.66602
O	4.86765	1.80937	-0.653746
