30
  This energy is -0.00112572 and Call times are: 3109
C	-0.176594	1.13033	-0.781146
N	-0.353824	0.453288	-1.94659
C	-0.302076	-0.900959	-1.93314
C	0.0546348	0.390298	0.397515
C	0.0837481	-1.00833	0.27099
N	-0.088596	-1.70733	-0.870883
H	-0.449643	-1.38981	-2.88776
N	-0.229238	2.48394	-0.799909
H	-0.398046	2.95057	-1.67589
H	-0.101935	3.0136	0.0463523
N	0.270699	0.775431	1.72562
C	0.426112	-0.366394	2.3821
N	0.322665	-1.47859	1.55084
H	0.612545	-0.45414	3.43959
H	0.403012	-2.44855	1.81028
C	3.87762	0.827077	0.0933941
C	5.26573	0.290432	-0.108111
H	3.8779	1.92314	0.0876203
H	3.47868	0.522389	1.06776
H	3.19653	0.474956	-0.68723
C	6.29511	0.674594	0.861005
C	5.61784	-0.52623	-1.13281
N	6.91039	-1.00496	-1.29088
H	4.90778	-0.849083	-1.88424
N	7.57551	0.137377	0.614732
C	7.95926	-0.699659	-0.426266
H	8.30261	0.39001	1.2727
H	7.14783	-1.61151	-2.06164
O	9.11344	-1.13588	-0.579527
O	6.10354	1.41708	1.84517
