30
  This energy is -0.00388142 and Call times are: 6859
C	1.05714	-0.819211	0.361085
N	0.348772	-1.55217	1.26056
C	-0.960229	-1.26174	1.45808
C	0.395729	0.217008	-0.331122
C	-0.962633	0.41176	-0.0312116
N	-1.69114	-0.298993	0.855512
H	-1.4769	-1.87571	2.18481
N	2.36527	-1.11349	0.167296
H	2.77622	-1.86635	0.694471
H	2.91642	-0.589141	-0.491643
N	0.829287	1.13225	-1.29715
C	-0.2447	1.86045	-1.57132
N	-1.3585	1.46794	-0.833719
H	-0.28089	2.67086	-2.28032
H	-2.28456	1.8631	-0.862898
C	8.81189	1.65611	-1.52637
C	7.80683	0.911205	-0.695472
H	8.96883	1.15737	-2.48971
H	9.78792	1.68227	-1.02829
H	8.48969	2.68459	-1.71517
C	8.09838	-0.484123	-0.357168
C	6.64941	1.45582	-0.243046
N	5.74098	0.739787	0.523047
H	6.37142	2.48075	-0.455921
N	7.11531	-1.12572	0.424243
C	5.92414	-0.589273	0.898475
H	7.29661	-2.09122	0.669927
H	4.88653	1.16719	0.848003
O	5.10169	-1.21941	1.5858
O	9.12358	-1.10189	-0.709159
