30
  This energy is 0.000369113 and Call times are: 5636
C	-0.371825	-1.29929	-0.304327
N	-0.814109	-1.60116	0.945207
C	-0.744188	-0.654477	1.91255
C	0.143272	-0.00739856	-0.541068
C	0.158314	0.877448	0.549731
N	-0.273328	0.606377	1.79969
H	-1.10959	-0.947241	2.88867
N	-0.443876	-2.24904	-1.26774
H	-0.822731	-3.15145	-1.0317
H	-0.124533	-2.05619	-2.20247
N	0.66567	0.604168	-1.68647
C	0.987285	1.82898	-1.2924
N	0.70177	2.04944	0.0524186
H	1.42201	2.58905	-1.92014
H	0.853557	2.89269	0.58204
C	4.91344	2.30969	1.46822
C	5.38862	1.14994	0.640816
H	4.69453	1.99356	2.49464
H	3.98088	2.72102	1.06506
H	5.66047	3.10847	1.50175
C	4.49451	-0.00212167	0.50036
C	6.59406	1.10984	0.019337
N	7.00353	0.0221235	-0.738323
H	7.30321	1.92614	0.0812667
N	5.00013	-1.05613	-0.28837
C	6.22944	-1.11961	-0.933616
H	4.39821	-1.8629	-0.39895
H	7.9053	0.0159337	-1.19121
O	6.60862	-2.08764	-1.61554
O	3.36324	-0.0916545	1.0188
