30
  This energy is -0.00240038 and Call times are: 3021
C	-0.159988	0.0471657	-1.37521
N	0.2949	1.32084	-1.51272
C	0.68936	1.99959	-0.407938
C	-0.201923	-0.515567	-0.0821792
C	0.236333	0.297362	0.976169
N	0.692482	1.56342	0.870319
H	1.04267	3.0094	-0.573796
N	-0.553092	-0.62703	-2.48259
H	-0.497462	-0.166363	-3.37606
H	-0.894561	-1.57124	-2.41356
N	-0.606902	-1.77027	0.387479
C	-0.416136	-1.71221	1.69863
N	0.0929854	-0.483377	2.11025
H	-0.622857	-2.51046	2.39204
H	0.320598	-0.196345	3.04854
C	4.45145	2.20762	1.06876
C	5.05699	1.03302	0.355271
H	5.19478	2.99901	1.21901
H	4.09937	1.91974	2.06604
H	3.60855	2.62346	0.508557
C	6.19979	0.365655	0.983788
C	4.60692	0.557932	-0.833279
N	5.18931	-0.530208	-1.46701
H	3.76727	1.00327	-1.35265
N	6.7209	-0.728789	0.263148
C	6.27739	-1.23274	-0.953773
H	7.51154	-1.20512	0.679587
H	4.83628	-0.865143	-2.35106
O	6.78974	-2.20679	-1.53224
O	6.70918	0.701703	2.07198
