30
  This energy is -4.442e-06 and Call times are: 4055
C	-0.481074	-0.867035	-0.967393
N	-1.2822	-1.56871	-0.122457
C	-1.32101	-1.21949	1.18651
C	0.278875	0.199416	-0.442491
C	0.145152	0.455111	0.932195
N	-0.641031	-0.22344	1.79455
H	-1.9749	-1.81069	1.81496
N	-0.445833	-1.22006	-2.27487
H	-1.01357	-1.99178	-2.58427
H	0.13723	-0.720088	-2.92523
N	1.17818	1.09579	-1.03124
C	1.57571	1.87251	-0.0324596
N	0.982101	1.52964	1.17946
H	2.27787	2.68502	-0.119395
H	1.12091	1.96651	2.07638
C	17.0416	1.85636	-1.30128
C	16.1072	0.807377	-0.770303
H	18.0689	1.66945	-0.96768
H	16.7692	2.84895	-0.924541
H	17.0304	1.88394	-2.39506
C	16.0112	0.649089	0.683009
C	15.3509	0.00194089	-1.55778
N	14.4968	-0.9585	-1.03526
H	15.373	0.0651563	-2.63879
N	15.1171	-0.351966	1.11558
C	14.3332	-1.1878	0.329121
H	15.0349	-0.478461	2.11691
H	13.9442	-1.54581	-1.64187
O	13.5639	-2.05209	0.784145
O	16.6502	1.32367	1.51556
