30
  This energy is -4.5047e-05 and Call times are: 10065
C	-0.432583	1.13859	-0.659931
N	-0.559222	1.8957	0.462042
C	-0.2588	1.34429	1.6631
C	0.0082146	-0.194741	-0.524732
C	0.28532	-0.640498	0.778163
N	0.169067	0.0870908	1.90921
H	-0.376955	1.99062	2.52353
N	-0.734118	1.69442	-1.85805
H	-1.04342	2.65215	-1.88423
H	-0.650511	1.15982	-2.70665
N	0.237341	-1.21146	-1.45889
C	0.643003	-2.24479	-0.73325
N	0.690801	-1.9555	0.627888
H	0.912013	-3.21149	-1.12553
H	0.964973	-2.57054	1.37699
C	17.3956	-0.274709	2.66946
C	17.0623	0.0304369	1.23725
H	17.927	-1.22981	2.75192
H	16.484	-0.374362	3.26993
H	18.0186	0.509543	3.10991
C	16.2304	-0.9306	0.508684
C	17.4868	1.14109	0.583657
N	17.1611	1.39359	-0.741123
H	18.104	1.89193	1.06149
N	15.9546	-0.585035	-0.830414
C	16.3776	0.544963	-1.52013
H	15.3808	-1.23553	-1.35296
H	17.489	2.22727	-1.20565
O	16.093	0.783524	-2.70672
O	15.7763	-1.98762	0.991482
