30
  This energy is -0.00480589 and Call times are: 2822
C	-0.587215	-1.12035	-0.564821
N	-1.85901	-0.644788	-0.498201
C	-2.07237	0.587087	0.0250673
C	0.460471	-0.306985	-0.0840383
C	0.100549	0.948454	0.433021
N	-1.15149	1.44678	0.512009
H	-3.10309	0.916917	0.0543512
N	-0.379247	-2.35227	-1.08872
H	-1.17185	-2.88104	-1.41397
H	0.550607	-2.73215	-1.15173
N	1.84507	-0.497891	-0.0112923
C	2.30645	0.617977	0.537212
N	1.29398	1.52885	0.826842
H	3.3429	0.824268	0.74688
H	1.38948	2.44107	1.24318
C	6.40153	-2.18349	1.75122
C	6.24646	-1.08242	0.74175
H	6.4102	-1.78057	2.77052
H	7.35575	-2.70562	1.61623
H	5.59074	-2.91402	1.67249
C	7.25938	-0.024115	0.722671
C	5.22538	-1.01348	-0.149079
N	5.1108	0.0182925	-1.0695
H	4.44303	-1.76136	-0.189888
N	7.05544	0.978475	-0.247846
C	6.01902	1.06999	-1.16928
H	7.74413	1.72021	-0.27878
H	4.34181	0.0475159	-1.7223
O	5.90449	1.98859	-1.99931
O	8.24515	0.0305467	1.48545
