30
  This energy is -2.681e-06 and Call times are: 9273
C	0.559707	-1.07991	-0.662993
N	-0.583391	-1.4427	-1.30313
C	-1.71021	-0.719068	-1.0946
C	0.523279	0.0395643	0.194806
C	-0.709915	0.700116	0.320999
N	-1.85973	0.363488	-0.300926
H	-2.59151	-1.05095	-1.62864
N	1.68335	-1.80648	-0.874802
H	1.64065	-2.59445	-1.50001
H	2.54522	-1.56314	-0.415599
N	1.5025	0.657092	0.981346
C	0.871518	1.66601	1.56687
N	-0.470499	1.73964	1.20322
H	1.32111	2.36604	2.25139
H	-1.15401	2.41235	1.51122
C	21.6423	2.248	-1.62877
C	21.764	0.944235	-0.893389
H	22.6212	2.72941	-1.73515
H	21.0096	2.9512	-1.07499
H	21.2143	2.10531	-2.62563
C	22.3221	0.972193	0.460911
C	21.388	-0.252256	-1.41098
N	21.514	-1.43985	-0.704866
H	20.9684	-0.345249	-2.40517
N	22.4092	-0.284123	1.09555
C	22.0311	-1.52072	0.586245
H	22.7922	-0.288063	2.03295
H	21.227	-2.31765	-1.11159
O	22.1383	-2.59207	1.20803
O	22.7051	2.00254	1.05111
