30
  This energy is -3.6525e-05 and Call times are: 9801
C	1.37312	-0.167058	-0.0752156
N	1.4922	-0.786421	1.12906
C	0.378808	-0.992569	1.87385
C	0.0894973	0.236212	-0.49953
C	-0.979435	-0.0385422	0.369329
N	-0.891873	-0.65096	1.5691
H	0.529997	-1.4896	2.82367
N	2.48904	0.0366506	-0.815878
H	3.37498	-0.276115	-0.454092
H	2.43364	0.492343	-1.71152
N	-0.361663	0.881504	-1.65664
C	-1.6723	0.991852	-1.48655
N	-2.10114	0.451544	-0.277072
H	-2.35354	1.4439	-2.18821
H	-3.04259	0.413924	0.0790818
C	16.5611	2.0069	0.652089
C	17.4364	0.814731	0.391239
H	16.2382	2.46771	-0.288533
H	17.1082	2.77983	1.20407
H	15.6724	1.73106	1.22777
C	18.6697	1.02516	-0.371073
C	17.1499	-0.44025	0.82002
N	17.9802	-1.5213	0.561838
H	16.2558	-0.666508	1.38792
N	19.4455	-0.133603	-0.580985
C	19.1728	-1.42719	-0.152229
H	20.3028	-0.0110191	-1.10581
H	17.7454	-2.44566	0.891604
O	19.908	-2.40448	-0.376383
O	19.0485	2.12537	-0.821211
