30
  This energy is 0.000147206 and Call times are: 10681
C	0.26217	1.2835	-0.450463
N	-0.762858	1.86742	0.225134
C	-1.56716	1.09361	0.993997
C	0.445113	-0.109412	-0.321309
C	-0.460175	-0.792292	0.507637
N	-1.48583	-0.240264	1.1899
H	-2.36738	1.6089	1.5099
N	1.06327	2.06135	-1.21764
H	0.877352	3.04962	-1.26609
H	1.83036	1.65878	-1.7299
N	1.38167	-0.99243	-0.870863
C	1.04636	-2.17916	-0.382876
N	-0.0618093	-2.11708	0.457823
H	1.55576	-3.10438	-0.595563
H	-0.505131	-2.8782	0.946452
C	13.0173	-1.51496	-0.631547
C	11.7198	-0.861334	-0.251137
H	13.8403	-1.13841	-0.0133675
H	13.2801	-1.28581	-1.67066
H	12.965	-2.6019	-0.517219
C	11.6333	0.597676	-0.35215
C	10.6286	-1.54348	0.178951
N	9.4438	-0.908998	0.523214
H	10.6234	-2.62209	0.277117
N	10.3892	1.14798	0.0194467
C	9.25931	0.470546	0.462238
H	10.3072	2.15536	-0.0428866
H	8.64549	-1.4385	0.840526
O	8.19165	1.02646	0.773645
O	12.5608	1.3404	-0.732374
