30
  This energy is 0.000106495 and Call times are: 7887
C	-0.930092	0.785847	0.66061
N	-0.477517	0.496217	1.90935
C	0.577785	-0.343038	2.04658
C	-0.278453	0.197376	-0.443669
C	0.802449	-0.653816	-0.160571
N	1.27362	-0.95964	1.06688
H	0.897318	-0.539617	3.06211
N	-1.98523	1.62529	0.5288
H	-2.40462	2.01107	1.35878
H	-2.34348	1.85913	-0.38218
N	-0.493328	0.28839	-1.82367
C	0.437732	-0.490744	-2.35749
N	1.25051	-1.08661	-1.39676
H	0.573731	-0.662263	-3.4124
H	2.02235	-1.71542	-1.54998
C	9.13619	0.0953856	-0.854061
C	10.5485	-0.138373	-0.39987
H	9.11599	0.67083	-1.78672
H	8.58046	0.683678	-0.114829
H	8.60774	-0.848931	-1.01607
C	11.3866	1.03483	-0.139945
C	11.0888	-1.36958	-0.217924
N	12.3983	-1.5515	0.202716
H	10.5262	-2.27863	-0.391634
N	12.7006	0.746506	0.283137
C	13.2752	-0.504106	0.476201
H	13.2975	1.54313	0.468681
H	12.7776	-2.47782	0.330944
O	14.4468	-0.681274	0.852872
O	11.0128	2.21823	-0.268123
