30
  This energy is -6.4279e-05 and Call times are: 8305
C	1.20512	0.682981	0.0162398
N	0.657052	1.91277	-0.171661
C	-0.68865	2.02006	-0.291741
C	0.34513	-0.433676	0.0783936
C	-1.02973	-0.181975	-0.0609401
N	-1.6021	1.02612	-0.248239
H	-1.07233	3.02152	-0.439752
N	2.55074	0.581076	0.135683
H	3.10714	1.41842	0.0820083
H	2.98646	-0.315301	0.275537
N	0.586125	-1.80064	0.257837
C	-0.617133	-2.3575	0.226967
N	-1.6327	-1.42423	0.0364653
H	-0.816743	-3.41077	0.334449
H	-2.62312	-1.59804	-0.0222909
C	11.408	1.47134	2.3793
C	11.5109	0.837501	1.0217
H	12.0676	0.968735	3.09608
H	10.3908	1.37964	2.77711
H	11.6744	2.53208	2.34559
C	11.1839	-0.58579	0.904615
C	11.8882	1.50632	-0.0969024
N	11.9735	0.890783	-1.33734
H	12.1438	2.55872	-0.0820211
N	11.3006	-1.11899	-0.39568
C	11.6845	-0.454652	-1.5545
H	11.0792	-2.10161	-0.499604
H	12.2567	1.4098	-2.15514
O	11.7649	-0.993849	-2.67196
O	10.8247	-1.31321	1.85246
