30
  This energy is 5.557e-06 and Call times are: 9119
C	-1.2562	-0.527324	-0.250838
N	-0.879693	-1.82593	-0.109623
C	0.413047	-2.10591	0.185804
C	-0.280187	0.477446	-0.0829234
C	1.0226	0.0494869	0.221409
N	1.42544	-1.23057	0.367542
H	0.658859	-3.15537	0.28714
N	-2.54955	-0.252725	-0.546154
H	-3.19554	-1.01753	-0.652767
H	-2.85916	0.698462	-0.656989
N	-0.341271	1.8736	-0.159574
C	0.897179	2.27521	0.0930804
N	1.765	1.2127	0.331047
H	1.22413	3.30149	0.118065
H	2.7484	1.25908	0.544024
C	21.1497	0.0596631	-1.03548
C	19.7714	0.209028	-0.458216
H	21.1071	-0.3727	-2.04178
H	21.7549	-0.624504	-0.429618
H	21.6651	1.0232	-1.09209
C	18.9539	-0.998618	-0.317829
C	19.2436	1.39437	-0.0615841
N	17.9655	1.49849	0.468062
H	19.7923	2.3251	-0.137215
N	17.6714	-0.789657	0.230156
C	17.1101	0.412873	0.642915
H	17.0891	-1.6113	0.336282
H	17.595	2.39186	0.756098
O	15.9666	0.520229	1.11922
O	19.3191	-2.14636	-0.643208
