30
  This energy is -6.516e-06 and Call times are: 3813
C	-0.347142	0.46605	-1.25751
N	-1.46734	1.11776	-0.847008
C	-1.80149	1.08509	0.466048
C	0.422691	-0.219345	-0.294203
C	-0.0365949	-0.173054	1.03242
N	-1.14322	0.464813	1.46911
H	-2.7023	1.62012	0.738703
N	-0.0174687	0.501729	-2.57105
H	-0.610855	1.00958	-3.20633
H	0.805628	0.0292102	-2.90593
N	1.60076	-0.969139	-0.388145
C	1.8436	-1.36435	0.854319
N	0.884264	-0.911137	1.75595
H	2.68114	-1.96866	1.16111
H	0.848056	-1.0769	2.74883
C	12.8785	0.330923	-2.75988
C	12.6542	-0.0195674	-1.31687
H	13.9094	0.664509	-2.92517
H	12.2314	1.16117	-3.06532
H	12.6801	-0.523832	-3.41354
C	12.8797	1.02614	-0.315828
C	12.2566	-1.24481	-0.890755
N	12.0584	-1.53658	0.451047
H	12.0722	-2.0629	-1.57617
N	12.6516	0.632343	1.01895
C	12.2448	-0.614543	1.47866
H	12.8014	1.33992	1.72769
H	11.7622	-2.45593	0.743324
O	12.0633	-0.889294	2.67761
O	13.2453	2.19072	-0.573972
