30
  This energy is 0.000117774 and Call times are: 7953
C	-0.229369	1.27407	0.493132
N	0.168067	1.92061	-0.63474
C	0.589736	1.19028	-1.69571
C	-0.185433	-0.135947	0.510361
C	0.272412	-0.769017	-0.656953
N	0.672965	-0.154468	-1.79012
H	0.894709	1.75475	-2.56773
N	-0.64999	2.00863	1.55089
H	-0.656555	3.01232	1.47235
H	-0.950483	1.55935	2.39986
N	-0.517412	-1.0778	1.49096
C	-0.264599	-2.25036	0.925227
N	0.21581	-2.12319	-0.375428
H	-0.405506	-3.20963	1.39504
H	0.478053	-2.86188	-1.00801
C	11.9472	-0.218496	2.64038
C	12.4995	-0.270329	1.24478
H	10.8629	-0.0588387	2.62569
H	12.3765	0.620874	3.19943
H	12.1556	-1.14346	3.18651
C	12.3	0.899868	0.386155
C	13.1695	-1.33544	0.737295
N	13.6674	-1.35171	-0.55757
H	13.3522	-2.23223	1.31649
N	12.8423	0.786794	-0.910679
C	13.5313	-0.292141	-1.45181
H	12.716	1.58463	-1.52135
H	14.1627	-2.15616	-0.912356
O	13.9827	-0.319802	-2.60997
O	11.7033	1.94036	0.729509
