30
  This energy is 7.243e-06 and Call times are: 9229
C	-1.32647	0.270505	0.293838
N	-1.25605	-0.13836	1.58842
C	-0.0757642	-0.601854	2.06689
C	-0.162213	0.194241	-0.499293
C	0.994506	-0.305664	0.121287
N	1.09441	-0.718514	1.4026
H	-0.0750759	-0.914164	3.10347
N	-2.50855	0.732975	-0.179621
H	-3.30154	0.760998	0.440036
H	-2.59267	1.04294	-1.13343
N	0.0926125	0.527341	-1.83457
C	1.37378	0.234046	-2.012
N	1.96968	-0.273899	-0.860676
H	1.91869	0.363698	-2.93234
H	2.9258	-0.56812	-0.742891
C	21.4114	-1.9799	1.76772
C	21.9576	-1.05436	0.718658
H	20.3258	-1.86367	1.8643
H	21.8365	-1.74957	2.75141
H	21.6299	-3.02541	1.53018
C	21.7445	0.384059	0.89739
C	22.6339	-1.47415	-0.380133
N	23.1258	-0.592419	-1.33166
H	22.8265	-2.52212	-0.574352
N	22.2816	1.19718	-0.121934
C	22.9768	0.790608	-1.25464
H	22.146	2.19532	-0.0184194
H	23.626	-0.929143	-2.14085
O	23.423	1.56978	-2.11469
O	21.141	0.899311	1.86011
