30
  This energy is -9.691e-05 and Call times are: 8261
C	-1.02983	0.782908	-0.495525
N	-0.562561	1.95012	0.0215463
C	0.586792	1.93614	0.739625
C	-0.294488	-0.398056	-0.261082
C	0.879673	-0.271829	0.499467
N	1.36771	0.871755	1.02503
H	0.913811	2.89222	1.12822
N	-2.17912	0.802202	-1.21254
H	-2.65495	1.67987	-1.34247
H	-2.55066	-0.0453226	-1.60822
N	-0.499375	-1.7283	-0.644912
C	0.528776	-2.38634	-0.126467
N	1.39556	-1.55406	0.576855
H	0.70001	-3.44569	-0.222431
H	2.24165	-1.8143	1.05748
C	14.9369	2.78194	0.113546
C	14.64	1.31069	0.165533
H	14.8857	3.15465	-0.915949
H	15.9536	2.98799	0.467489
H	14.2326	3.35295	0.726031
C	15.5009	0.411324	-0.60677
C	13.6238	0.77072	0.884272
N	13.3759	-0.594081	0.910972
H	12.9498	1.37693	1.477
N	15.1687	-0.956115	-0.515054
C	14.1343	-1.5316	0.21332
H	15.7511	-1.59597	-1.04117
H	12.6135	-0.971888	1.45353
O	13.9013	-2.75246	0.246193
O	16.4662	0.778152	-1.30695
