30
  This energy is 1.0163e-05 and Call times are: 8767
C	-0.709771	1.15165	0.298251
N	0.383439	1.89897	0.605633
C	1.61111	1.3308	0.522785
C	-0.517996	-0.189428	-0.0955643
C	0.807341	-0.652661	-0.139343
N	1.9109	0.0648927	0.159746
H	2.44671	1.96992	0.778387
N	-1.93468	1.72422	0.382641
H	-2.0013	2.68667	0.670472
H	-2.76313	1.1972	0.161658
N	-1.41192	-1.19977	-0.468341
C	-0.640695	-2.24646	-0.730165
N	0.712069	-1.97195	-0.547562
H	-0.993334	-3.21297	-1.04995
H	1.4892	-2.59869	-0.681234
C	19.0561	-2.5548	0.289886
C	18.6299	-1.12972	0.0825012
H	18.4757	-3.23263	-0.346559
H	18.8754	-2.86995	1.32402
H	20.1183	-2.69032	0.0651262
C	17.2292	-0.78948	0.344311
C	19.4659	-0.14467	-0.331975
N	19.0403	1.16318	-0.51427
H	20.5125	-0.326313	-0.543468
N	16.8947	0.563706	0.13056
C	17.7323	1.5887	-0.293017
H	15.9311	0.821137	0.305702
H	19.6814	1.87857	-0.82337
O	17.3641	2.76447	-0.460143
O	16.3607	-1.59863	0.728436
