30
  This energy is -0.00714277 and Call times are: 11429
C	1.01096	0.617715	-0.717923
N	1.99397	0.335313	0.177636
C	1.67987	-0.355297	1.30069
C	-0.299863	0.177509	-0.438073
C	-0.487679	-0.528204	0.761809
N	0.467516	-0.823053	1.66892
H	2.49966	-0.553133	1.97955
N	1.33007	1.30828	-1.83893
H	2.28576	1.59298	-1.97754
H	0.624746	1.53272	-2.52087
N	-1.50594	0.30248	-1.13709
C	-2.39821	-0.314403	-0.374069
N	-1.83696	-0.836404	0.788332
H	-3.44621	-0.415817	-0.602465
H	-2.30488	-1.34444	1.52151
C	5.71753	1.22962	2.1628
C	6.23781	0.536296	0.936407
H	6.09142	2.25848	2.21812
H	6.06252	0.725158	3.07267
H	4.62369	1.25568	2.17257
C	7.68991	0.421116	0.77978
C	5.44179	0.0133688	-0.0299375
N	5.95454	-0.621407	-1.15199
H	4.36112	0.063363	0.0222832
N	8.11226	-0.239939	-0.392105
C	7.31695	-0.782802	-1.39427
H	9.11257	-0.330906	-0.520622
H	5.34169	-1.00255	-1.85732
O	7.76317	-1.3542	-2.40437
O	8.52967	0.857651	1.59268
