30
  This energy is -0.00208521 and Call times are: 7533
C	-0.33763	1.24716	0.499639
N	-1.43165	1.40912	-0.290897
C	-1.75921	0.428269	-1.16695
C	0.412957	0.0593018	0.37321
C	-0.0367719	-0.875553	-0.573792
N	-1.11757	-0.742483	-1.3715
H	-2.63891	0.608174	-1.77177
N	-0.0144504	2.2305	1.37368
H	-0.593109	3.0534	1.41346
H	0.789449	2.14023	1.97243
N	1.56316	-0.403001	1.02296
C	1.79898	-1.58904	0.478355
N	0.861498	-1.92582	-0.494462
H	2.61632	-2.24063	0.739396
H	0.825144	-2.76737	-1.04679
C	6.59531	2.65129	-0.415382
C	6.2973	1.2224	-0.0619952
H	5.7073	3.27993	-0.28248
H	6.88373	2.74109	-1.46901
H	7.40323	3.05488	0.202366
C	5.23521	0.540805	-0.806178
C	6.95359	0.53102	0.903508
N	6.65363	-0.789345	1.20601
H	7.74847	0.973221	1.49147
N	5.00572	-0.797621	-0.42587
C	5.664	-1.52549	0.558225
H	4.27562	-1.28812	-0.92764
H	7.15623	-1.28256	1.92884
O	5.40547	-2.70876	0.839206
O	4.55745	1.06106	-1.71532
