30
  This energy is -4.1318e-05 and Call times are: 8811
C	0.743413	1.16703	0.0664246
N	0.101136	1.6653	1.15605
C	-0.900791	0.94326	1.71431
C	0.337168	-0.0861415	-0.438444
C	-0.714531	-0.728908	0.235204
N	-1.37023	-0.259467	1.31773
H	-1.37818	1.38595	2.57927
N	1.74422	1.89262	-0.48789
H	1.98437	2.78014	-0.0777323
H	2.23878	1.55082	-1.29504
N	0.782742	-0.85715	-1.5182
C	0.0157788	-1.93884	-1.4936
N	-0.908655	-1.91438	-0.452695
H	0.0782946	-2.76016	-2.18806
H	-1.59615	-2.61465	-0.225586
C	17.6168	0.555749	2.74307
C	17.7558	0.125725	1.31088
H	16.5771	0.466357	3.0786
H	17.8915	1.61007	2.86276
H	18.2487	-0.0458245	3.4034
C	16.969	0.840306	0.30254
C	18.5654	-0.88291	0.900872
N	18.6711	-1.25604	-0.431215
H	19.174	-1.45247	1.59247
N	17.1453	0.387837	-1.02142
C	17.9674	-0.64142	-1.46461
H	16.6108	0.868045	-1.73498
H	19.2806	-2.0099	-0.711545
O	18.0716	-0.985776	-2.65476
O	16.1892	1.78329	0.54605
