30
  This energy is 5.5007e-05 and Call times are: 9647
C	0.0456154	-1.07854	0.868159
N	1.40065	-1.18783	0.864372
C	2.12669	-0.322199	0.115773
C	-0.54896	-0.0638596	0.088887
C	0.319715	0.765204	-0.639865
N	1.66675	0.68075	-0.66317
H	3.2008	-0.453422	0.148793
N	-0.675577	-1.94622	1.61808
H	-0.188293	-2.64743	2.15142
H	-1.68021	-1.891	1.64174
N	-1.8827	0.305893	-0.119179
C	-1.81655	1.33408	-0.954253
N	-0.507401	1.65548	-1.30284
H	-2.66377	1.87878	-1.33671
H	-0.198805	2.39099	-1.91796
C	18.3304	1.15483	2.52112
C	18.3047	0.492742	1.17338
H	17.6294	0.668061	3.20893
H	18.0158	2.20222	2.44784
H	19.331	1.12195	2.96273
C	17.0295	0.456992	0.452952
C	19.3913	-0.0715482	0.588788
N	19.3339	-0.676159	-0.65861
H	20.364	-0.0807071	1.06513
N	17.0735	-0.178323	-0.805268
C	18.1727	-0.762485	-1.42347
H	16.2027	-0.214322	-1.32085
H	20.1563	-1.08912	-1.07276
O	18.1353	-1.30718	-2.54052
O	15.9593	0.937721	0.877328
