30
  This energy is 0.000165516 and Call times are: 3285
C	-0.53662	0.725145	1.0513
N	-1.57216	1.23907	0.336031
C	-1.69559	0.905811	-0.971849
C	0.369046	-0.136991	0.397962
C	0.124913	-0.399645	-0.960137
N	-0.893225	0.0953142	-1.69539
H	-2.53727	1.34256	-1.49422
N	-0.417665	1.06133	2.35828
H	-1.09905	1.68204	2.76329
H	0.338048	0.697297	2.91441
N	1.5107	-0.815494	0.839682
C	1.94261	-1.47102	-0.229253
N	1.14146	-1.2557	-1.34749
H	2.81245	-2.10606	-0.258644
H	1.26059	-1.63942	-2.27116
C	13.0725	1.53573	-2.33895
C	13.0019	0.567657	-1.19296
H	14.0448	2.04118	-2.36398
H	12.3168	2.32253	-2.23275
H	12.9175	1.03127	-3.29747
C	13.1901	1.09516	0.16081
C	12.7747	-0.761797	-1.3409
N	12.7156	-1.63017	-0.260494
H	12.6272	-1.21795	-2.31209
N	13.112	0.13496	1.19066
C	12.8808	-1.22957	1.06357
H	13.2391	0.477916	2.13493
H	12.5452	-2.61552	-0.396193
O	12.8251	-2.0186	2.02286
O	13.4053	2.29344	0.433533
