30
  This energy is -4.4437e-05 and Call times are: 10945
C	-1.05232	-0.784101	-0.443664
N	-1.34435	-0.00771879	-1.52071
C	-0.604473	1.10493	-1.7475
C	0.0134318	-0.396046	0.395352
C	0.698264	0.779438	0.0456869
N	0.431415	1.56947	-1.01583
H	-0.879213	1.68675	-2.61816
N	-1.79485	-1.89522	-0.221351
H	-2.54184	-2.11498	-0.859552
H	-1.60337	-2.4903	0.567398
N	0.55516	-0.962592	1.55484
C	1.5433	-0.145618	1.894
N	1.67528	0.926338	1.01527
H	2.18791	-0.271948	2.74797
H	2.34628	1.67635	1.0582
C	12.7225	-2.73457	0.151535
C	13.18	-1.30432	0.172511
H	12.6573	-3.10883	-0.876612
H	11.7182	-2.82971	0.580172
H	13.4038	-3.37971	0.714403
C	12.3673	-0.315498	-0.540335
C	14.2988	-0.879077	0.811617
N	14.6944	0.450716	0.81162
H	14.9448	-1.55588	1.35722
N	12.8516	1.00765	-0.481675
C	13.9928	1.46622	0.165495
H	12.3049	1.70785	-0.967755
H	15.531	0.742612	1.2946
O	14.3586	2.65453	0.173637
O	11.3192	-0.574188	-1.16574
