44
  This energy is -3.601 and Call times are: 153224
C	0.628842	-3.31884	0.838188
C	0.520022	-2.22253	-0.150447
O	0.918718	-2.36341	-1.29832
H	1.11823	-4.19592	0.361633
H	-0.380653	-3.61804	1.19053
H	1.24118	-2.99282	1.70528
N	-0.0301539	-1.08566	0.282252
C	-0.164744	0.0832879	-0.550814
C	-0.133254	1.30797	0.344015
O	-0.174219	1.19511	1.56766
H	-0.312531	-0.972394	1.23057
H	0.687255	0.14787	-1.21606
C	-1.48025	0.0365702	-1.35859
H	-2.35516	-0.0190523	-0.676337
H	-1.58895	0.924606	-2.01441
H	-1.48493	-0.871593	-2.00013
N	-0.0506416	2.51463	-0.250265
C	-0.0095877	3.73554	0.520372
H	-0.0143739	2.58549	-1.2416
H	0.0586246	4.62111	-0.149199
H	0.873037	3.7414	1.20024
H	-0.926779	3.83743	1.14449
C	3.59961	2.65433	1.58305
C	3.66757	1.23604	1.16471
O	2.88124	0.4082	1.60378
H	2.77674	2.78092	2.31974
H	3.39868	3.30318	0.704779
H	4.55629	2.95979	2.05689
N	4.62784	0.919871	0.292754
C	4.84618	-0.426547	-0.174195
C	6.315	-0.573392	-0.524305
O	7.05795	0.406	-0.547142
H	5.28607	1.59672	-0.0242122
H	4.63489	-1.12177	0.628704
C	3.96316	-0.734193	-1.40337
H	4.187	-0.0278781	-2.23106
H	4.11197	-1.77264	-1.76393
H	2.89321	-0.612755	-1.12625
N	6.77164	-1.81119	-0.79881
C	8.15567	-2.04856	-1.13688
H	6.1561	-2.59184	-0.771206
H	8.33402	-3.12977	-1.32775
H	8.82401	-1.72437	-0.306517
H	8.44014	-1.4793	-2.05129
