44
  This energy is -0.9414 and Call times are: 154818
C	1.60912	2.27601	2.08404
C	0.389935	1.72552	1.45025
O	-0.724921	2.07261	1.81498
H	1.31657	2.98309	2.89046
H	2.21869	2.82035	1.33247
H	2.21373	1.45644	2.52659
N	0.579188	0.8376	0.471388
C	-0.509525	0.18316	-0.2105
C	-0.0226037	-1.17235	-0.686999
O	1.16687	-1.47517	-0.615184
H	1.4921	0.534404	0.213456
H	-1.31625	0.00802926	0.490326
C	-1.00285	1.03125	-1.40324
H	-0.178295	1.20231	-2.12773
H	-1.85025	0.544489	-1.92811
H	-1.34681	2.02137	-1.03216
N	-0.939349	-2.02804	-1.18036
C	-0.569865	-3.34209	-1.65251
H	-1.89775	-1.7665	-1.22659
H	-1.46342	-3.89396	-2.01888
H	-0.102094	-3.93627	-0.834338
H	0.163455	-3.26776	-2.48789
C	8.04203	1.20295	-2.66194
C	7.8468	0.929803	-1.22026
O	8.77218	1.02848	-0.426314
H	9.10574	1.46947	-2.8445
H	7.39935	2.05009	-2.9814
H	7.78965	0.301835	-3.25974
N	6.61647	0.571857	-0.845351
C	6.28247	0.232721	0.515525
C	5.12811	-0.75128	0.488067
O	4.53602	-0.998391	-0.56078
H	5.88333	0.456144	-1.50941
H	7.12414	-0.270175	0.975214
C	5.89976	1.49406	1.32039
H	5.02969	2.00454	0.855161
H	5.65382	1.24781	2.37367
H	6.75614	2.20325	1.32041
N	4.78542	-1.34564	1.64794
C	3.7034	-2.29989	1.71749
H	5.27899	-1.1359	2.48548
H	3.57722	-2.67633	2.75653
H	3.90378	-3.17017	1.05135
H	2.7452	-1.83182	1.39514
