44
  This energy is -6.0357 and Call times are: 154144
C	1.70476	0.928418	2.88869
C	1.00504	-0.0736338	2.05357
O	1.03945	-1.26441	2.33157
H	2.22748	0.411148	3.7224
H	0.974898	1.64888	3.31409
H	2.45413	1.47745	2.28033
N	0.345269	0.395263	0.991865
C	-0.347312	-0.461534	0.0619239
C	-0.352613	0.218679	-1.29411
O	0.0292556	1.38089	-1.4172
H	0.360494	1.36262	0.755531
H	0.200455	-1.38953	-0.0448421
C	-1.79142	-0.736467	0.535441
H	-2.35698	0.21446	0.634994
H	-2.33075	-1.40635	-0.1652
H	-1.76345	-1.22711	1.53286
N	-0.780993	-0.498351	-2.35165
C	-0.816156	0.0636994	-3.68171
H	-1.08219	-1.43869	-2.23283
H	-1.19799	-0.681724	-4.41367
H	0.203318	0.37893	-4.00198
H	-1.47981	0.957969	-3.71309
C	5.3045	-0.215522	3.40147
C	5.16714	0.555476	2.14534
O	5.17675	1.77871	2.14916
H	5.38931	0.488851	4.25734
H	6.21645	-0.847778	3.36464
H	4.41361	-0.860619	3.55388
N	5.03163	-0.156246	1.02397
C	4.84507	0.452505	-0.269541
C	4.05255	-0.509044	-1.13493
O	3.82703	-1.65705	-0.756884
H	4.98456	-1.1509	1.04166
H	4.25135	1.35134	-0.159049
C	6.204	0.778502	-0.927019
H	6.80921	-0.144856	-1.05022
H	6.07366	1.26033	-1.91766
H	6.77001	1.47708	-0.272838
N	3.60169	-0.0561682	-2.32137
C	2.8341	-0.897746	-3.20947
H	3.79079	0.877153	-2.60812
H	2.55588	-0.344113	-4.13323
H	1.89855	-1.24292	-2.71259
H	3.42124	-1.79779	-3.5033
