44
  This energy is -2.0747 and Call times are: 149112
C	-0.780505	3.39165	0.0132702
C	-0.213774	2.1823	0.651566
O	0.452077	2.25964	1.67483
H	-0.481797	4.28933	0.59708
H	-1.88884	3.32936	-0.00819311
H	-0.396031	3.49299	-1.02355
N	-0.468463	1.01852	0.0489672
C	0.0507308	-0.238557	0.527248
C	0.200943	-1.17075	-0.660188
O	-0.251661	-0.86535	-1.76182
H	-0.977597	0.975867	-0.805919
H	1.03886	-0.0824173	0.941787
C	-0.889028	-0.85678	1.5855
H	-1.89997	-1.02693	1.15762
H	-0.493254	-1.81841	1.9717
H	-0.990567	-0.154242	2.44135
N	0.852416	-2.3339	-0.463507
C	1.04843	-3.28123	-1.53604
H	1.21513	-2.56155	0.434094
H	1.60566	-4.1738	-1.17543
H	1.6279	-2.8187	-2.36763
H	0.0691083	-3.62052	-1.94465
C	4.00228	-3.00844	1.27574
C	4.40805	-1.59403	1.43686
O	4.17084	-0.981037	2.46855
H	3.47423	-3.34592	2.19396
H	4.89656	-3.64775	1.11994
H	3.31728	-3.11357	0.408104
N	5.03791	-1.0356	0.400608
C	5.45551	0.344283	0.391991
C	5.45852	0.82857	-1.04572
O	5.29923	0.0406159	-1.97603
H	5.18743	-1.53517	-0.447883
H	4.73021	0.940382	0.931642
C	6.85842	0.500037	1.01876
H	7.60483	-0.103028	0.459089
H	7.18543	1.55996	1.03058
H	6.83459	0.132228	2.0678
N	5.63276	2.14741	-1.26091
C	5.64455	2.70053	-2.59511
H	5.75597	2.76989	-0.495124
H	5.80009	3.80145	-2.56306
H	4.67906	2.49792	-3.11285
H	6.46274	2.24812	-3.20094
