44
  This energy is -5.481 and Call times are: 156562
C	-0.115379	-2.0945	-2.77713
C	0.563223	-1.56059	-1.5748
O	1.57087	-2.09148	-1.12847
H	0.425187	-2.99838	-3.13303
H	-0.115348	-1.33397	-3.58604
H	-1.16193	-2.37444	-2.53328
N	0.0142721	-0.480557	-1.01395
C	0.535829	0.127287	0.184823
C	-0.613945	0.795168	0.91524
O	-1.71953	0.899575	0.387509
H	-0.82929	-0.0841166	-1.36482
H	0.926591	-0.644749	0.835897
C	1.63487	1.15851	-0.152731
H	1.23175	1.95649	-0.812097
H	2.05417	1.62351	0.76295
H	2.46217	0.64935	-0.693722
N	-0.379883	1.25828	2.15893
C	-1.41502	1.90338	2.93257
H	0.520153	1.16088	2.57066
H	-1.02691	2.21293	3.92795
H	-2.27498	1.21298	3.09095
H	-1.79235	2.80964	2.40583
C	6.02555	2.44167	-2.2802
C	5.351	1.1677	-1.94386
O	4.6295	0.600674	-2.75277
H	5.7448	2.74458	-3.31232
H	7.12757	2.31615	-2.22971
H	5.71178	3.23893	-1.5738
N	5.57344	0.683553	-0.719721
C	4.95324	-0.523402	-0.232726
C	4.82157	-0.412541	1.27457
O	5.35779	0.508568	1.88754
H	6.13052	1.17753	-0.0582764
H	3.95246	-0.599852	-0.639191
C	5.78871	-1.76531	-0.613394
H	6.81222	-1.6923	-0.187792
H	5.31442	-2.70223	-0.25599
H	5.8787	-1.8219	-1.72021
N	4.09228	-1.35134	1.90924
C	3.90706	-1.32427	3.34142
H	3.66266	-2.08664	1.39561
H	3.2775	-2.1793	3.67278
H	3.4076	-0.379052	3.65509
H	4.88797	-1.38689	3.86586
