44
  This energy is -5.893 and Call times are: 157108
C	-0.249604	2.13267	2.739
C	0.315767	0.945746	2.05877
O	1.27848	0.34963	2.52163
H	0.343712	2.34901	3.6539
H	-1.3034	1.94056	3.03114
H	-0.207705	3.01531	2.06647
N	-0.279786	0.572464	0.923712
C	0.18303	-0.536488	0.127102
C	-0.188221	-0.267494	-1.31905
O	-0.922465	0.67284	-1.61633
H	-1.03683	1.09219	0.538172
H	1.2635	-0.587053	0.178712
C	-0.444848	-1.86243	0.609689
H	-1.55293	-1.81487	0.546995
H	-0.085596	-2.72581	0.0129996
H	-0.166654	-2.03487	1.67234
N	0.32141	-1.08831	-2.2585
C	0.0277746	-0.906469	-3.66096
H	0.91697	-1.84127	-1.99885
H	0.539774	-1.68092	-4.27359
H	0.368966	0.0961162	-4.00692
H	-1.0683	-0.980917	-3.84592
C	3.37951	2.53572	1.53907
C	4.65407	1.94622	1.07094
O	5.68516	2.60406	1.04826
H	3.5467	3.59919	1.81642
H	3.00795	1.98624	2.42944
H	2.61776	2.4902	0.732392
N	4.60927	0.670996	0.678257
C	5.75853	-0.0265611	0.157525
C	5.26864	-1.09629	-0.800206
O	4.07086	-1.35791	-0.89292
H	3.75403	0.160883	0.663907
H	6.36681	0.663669	-0.413611
C	6.58411	-0.658977	1.29933
H	5.96348	-1.37506	1.87906
H	7.4794	-1.1873	0.912227
H	6.92541	0.141014	1.99205
N	6.19004	-1.73755	-1.54573
C	5.8169	-2.76643	-2.48825
H	7.15413	-1.5091	-1.45963
H	6.71522	-3.17217	-3.00364
H	5.12396	-2.35957	-3.25998
H	5.30084	-3.60641	-1.96933
