44
  This energy is -2.1693 and Call times are: 148855
C	-0.504877	-2.17617	2.66872
C	0.258165	-1.72084	1.48484
O	1.36513	-2.17585	1.23186
H	0.0957759	-2.92741	3.22615
H	-1.46053	-2.64391	2.3514
H	-0.718692	-1.31753	3.33963
N	-0.326833	-0.794317	0.722136
C	0.309589	-0.222543	-0.438296
C	-0.228493	1.18311	-0.628423
O	-1.17842	1.58936	0.0381544
H	-1.21061	-0.403895	0.963748
H	1.37391	-0.138754	-0.257115
C	0.0398746	-1.08005	-1.69415
H	-1.05146	-1.15758	-1.88653
H	0.536218	-0.657692	-2.5918
H	0.434781	-2.10636	-1.52952
N	0.376484	1.96576	-1.54357
C	-0.0629713	3.3195	-1.78944
H	1.14627	1.62066	-2.07027
H	0.560171	3.79841	-2.57656
H	0.0128589	3.93169	-0.86167
H	-1.12486	3.333	-2.12613
C	5.66892	1.54629	-3.05592
C	5.72707	1.51219	-1.5772
O	6.39134	2.32636	-0.95089
H	6.30949	2.37445	-3.42967
H	4.62546	1.7184	-3.39401
H	6.0399	0.58752	-3.47569
N	5.02173	0.550233	-0.977589
C	5.01397	0.363229	0.451929
C	4.75937	-1.10523	0.735466
O	4.44012	-1.87506	-0.168496
H	4.51875	-0.130247	-1.50277
H	5.99237	0.603503	0.848946
C	3.92961	1.23906	1.11701
H	2.92444	0.985635	0.717689
H	3.92282	1.11441	2.21925
H	4.13137	2.30862	0.889699
N	4.90411	-1.53102	2.00581
C	4.6881	-2.91208	2.36937
H	5.167	-0.893942	2.72281
H	4.85634	-3.06298	3.45848
H	5.38494	-3.57873	1.81144
H	3.64579	-3.22342	2.12894
