44
  This energy is -3.3001 and Call times are: 151870
C	-0.0293416	-1.85089	-2.94721
C	-0.0111466	-0.563404	-2.21701
O	0.202465	0.491275	-2.79876
H	0.189994	-1.66702	-4.02143
H	-1.0292	-2.3258	-2.86074
H	0.741718	-2.53551	-2.53507
N	-0.236712	-0.623437	-0.902515
C	-0.208193	0.539896	-0.0513969
C	0.204938	0.0980455	1.33988
O	0.289977	-1.09557	1.62228
H	-0.368425	-1.49372	-0.43655
H	0.548722	1.22633	-0.409891
C	-1.58974	1.22916	-0.0126967
H	-2.36473	0.528599	0.364988
H	-1.57712	2.1343	0.628455
H	-1.87534	1.53684	-1.04231
N	0.481161	1.05792	2.24452
C	0.887492	0.73246	3.59179
H	0.410656	2.01832	1.99606
H	1.06897	1.65755	4.18213
H	1.82563	0.131518	3.58477
H	0.0996193	0.136527	4.10683
C	4.32574	3.27118	1.15624
C	4.78837	1.87249	1.30039
O	5.58312	1.55555	2.17465
H	4.82281	3.90338	1.92377
H	3.2264	3.32752	1.30126
H	4.58577	3.65831	0.148479
N	4.29367	0.990931	0.428312
C	4.68239	-0.397337	0.415703
C	4.54407	-0.914366	-1.00385
O	4.00391	-0.232386	-1.87266
H	3.67914	1.27181	-0.303346
H	5.72733	-0.478192	0.688062
C	3.80552	-1.22457	1.38112
H	2.73447	-1.15046	1.09582
H	4.10411	-2.29287	1.39081
H	3.91625	-0.823663	2.41231
N	5.04035	-2.13757	-1.27492
C	4.9594	-2.70982	-2.59861
H	5.47758	-2.67267	-0.559673
H	5.42315	-3.72064	-2.6191
H	5.48907	-2.06619	-3.33785
H	3.8974	-2.80446	-2.92164
