44
  This energy is -1.5625 and Call times are: 152303
C	1.07719	1.77223	2.79491
C	0.942527	0.519078	2.01863
O	1.5566	-0.490523	2.3349
H	1.79741	1.6134	3.62674
H	0.0949115	2.06579	3.22117
H	1.45547	2.58756	2.14281
N	0.122969	0.558551	0.965473
C	-0.0775573	-0.568745	0.0893728
C	-0.432744	-0.0402977	-1.28763
O	-0.667219	1.15389	-1.46272
H	-0.338336	1.39923	0.696556
H	0.851324	-1.11724	-0.00533457
C	-1.19791	-1.48882	0.621824
H	-2.1536	-0.929307	0.709181
H	-1.35244	-2.36793	-0.0368272
H	-0.920359	-1.85737	1.6335
N	-0.472463	-0.923079	-2.30505
C	-0.795794	-0.511066	-3.65112
H	-0.275699	-1.88462	-2.14446
H	-0.776435	-1.38098	-4.34401
H	-0.0636886	0.244829	-4.01706
H	-1.81139	-0.0547222	-3.68924
C	9.81299	2.50733	0.0594142
C	9.30218	1.2012	-0.41414
O	9.83641	0.611833	-1.34348
H	10.6833	2.80891	-0.563089
H	10.1381	2.43002	1.11823
H	9.02243	3.28213	-0.0287039
N	8.23609	0.713881	0.224877
C	7.59993	-0.524566	-0.149437
C	6.13344	-0.436245	0.228934
O	5.71271	0.500823	0.904654
H	7.78746	1.22465	0.952687
H	7.64914	-0.640628	-1.22495
C	8.26984	-1.72411	0.555936
H	8.21031	-1.6107	1.6594
H	7.79784	-2.68494	0.265165
H	9.34382	-1.76448	0.270856
N	5.31487	-1.41325	-0.208574
C	3.90328	-1.41017	0.0973419
H	5.67311	-2.1611	-0.757635
H	3.4017	-2.29576	-0.351411
H	3.4166	-0.491436	-0.303097
H	3.73981	-1.43522	1.19906
