44
  This energy is -0.9434 and Call times are: 157080
C	0.359161	2.80764	-2.02505
C	-0.465183	1.87786	-1.22062
O	-1.62539	2.14328	-0.938
H	-0.240308	3.71094	-2.27115
H	0.676213	2.31834	-2.96993
H	1.25719	3.11795	-1.4503
N	0.127825	0.748684	-0.826058
C	-0.532066	-0.233185	-0.00202184
C	0.524989	-0.953647	0.813529
O	1.72114	-0.779224	0.58878
H	1.08543	0.56554	-1.02933
H	-1.1902	0.26991	0.695395
C	-1.32527	-1.2366	-0.867603
H	-0.648816	-1.76061	-1.57602
H	-1.84924	-1.98956	-0.243884
H	-2.08751	-0.686546	-1.46156
N	0.104631	-1.77938	1.79204
C	1.0381	-2.50324	2.62322
H	-0.867339	-1.90441	1.96149
H	0.498404	-3.12799	3.36862
H	1.70325	-1.7983	3.17267
H	1.67945	-3.17141	2.00405
C	8.17958	2.38649	2.12466
C	7.81751	1.89622	0.775701
O	7.87601	2.63003	-0.201297
H	8.46626	3.45869	2.06106
H	9.03878	1.80784	2.52428
H	7.31427	2.28611	2.81331
N	7.42639	0.62246	0.692402
C	7.00211	0.0151591	-0.544422
C	6.01128	-1.08555	-0.215399
O	5.82312	-1.43647	0.947853
H	7.3447	0.0493435	1.50278
H	6.47976	0.751039	-1.14296
C	8.20867	-0.556668	-1.32062
H	8.73867	-1.31929	-0.711067
H	7.8966	-1.01478	-2.28149
H	8.9242	0.26467	-1.54366
N	5.34441	-1.65321	-1.23963
C	4.37802	-2.70443	-1.02234
H	5.50724	-1.35296	-2.17366
H	3.93795	-3.03969	-1.98731
H	3.55171	-2.34863	-0.365155
H	4.85621	-3.58251	-0.530955
