44
  This energy is -1.9577 and Call times are: 157024
C	1.98763	2.78993	-0.615072
C	0.690373	2.16346	-0.274778
O	-0.252277	2.83496	0.121331
H	1.92624	3.88464	-0.43146
H	2.22655	2.61794	-1.68562
H	2.79556	2.36433	0.0167631
N	0.614193	0.838782	-0.422435
C	-0.56778	0.0827921	-0.0908034
C	-0.137937	-1.31657	0.30741
O	1.02457	-1.6861	0.153324
H	1.40266	0.300882	-0.706776
H	-1.04794	0.530124	0.770574
C	-1.5426	0.029834	-1.28753
H	-1.05388	-0.438589	-2.1683
H	-2.46297	-0.537861	-1.0402
H	-1.83752	1.06493	-1.56673
N	-1.07127	-2.12946	0.840439
C	-0.753394	-3.47632	1.25407
H	-2.00571	-1.8111	0.961016
H	-1.65307	-3.98358	1.66697
H	0.036723	-3.46984	2.03953
H	-0.37829	-4.07405	0.391995
C	4.83214	-2.82832	1.69226
C	5.31428	-2.14654	0.470019
O	5.63503	-2.78224	-0.524675
H	4.84415	-3.92782	1.5285
H	3.79362	-2.5107	1.92324
H	5.49241	-2.58574	2.55148
N	5.37889	-0.813985	0.52009
C	5.86849	-0.0142228	-0.575002
C	6.46476	1.25774	-0.00217273
O	6.32741	1.53766	1.18715
H	5.15325	-0.31311	1.35079
H	6.66638	-0.546708	-1.07745
C	4.73185	0.319104	-1.56606
H	3.9178	0.874616	-1.05345
H	5.09905	0.922982	-2.42105
H	4.3051	-0.626336	-1.96652
N	7.15281	2.05824	-0.839906
C	7.76022	3.28653	-0.383261
H	7.25663	1.8128	-1.79806
H	8.28061	3.80269	-1.21993
H	8.5051	3.08161	0.419515
H	6.98911	3.97668	0.0293018
