44
  This energy is -2.7897 and Call times are: 155741
C	-2.78323	-0.926251	1.87306
C	-1.4289	-1.18654	1.3353
O	-0.756255	-2.12434	1.74088
H	-3.0185	-1.67948	2.65612
H	-3.53809	-1.00277	1.06246
H	-2.82742	0.0873012	2.32456
N	-0.991856	-0.34528	0.395276
C	0.321072	-0.444413	-0.192051
C	0.752656	0.944748	-0.622772
O	-0.0385272	1.8856	-0.59935
H	-1.53462	0.437586	0.10477
H	1.02396	-0.78209	0.559317
C	0.314171	-1.40786	-1.3991
H	-0.399018	-1.0562	-2.17481
H	1.32247	-1.50343	-1.85156
H	-0.0122499	-2.41596	-1.06215
N	2.0298	1.10739	-1.02086
C	2.53191	2.39416	-1.4431
H	2.65619	0.334966	-1.02905
H	3.60376	2.32266	-1.73163
H	2.43922	3.14084	-0.621415
H	1.95715	2.77207	-2.31944
C	6.6545	-0.215522	3.40147
C	6.51714	0.555476	2.14534
O	6.52675	1.77871	2.14916
H	6.73931	0.488851	4.25734
H	7.56645	-0.847778	3.36464
H	5.76361	-0.860619	3.55388
N	6.38163	-0.156246	1.02397
C	6.19507	0.452505	-0.269541
C	5.40255	-0.509044	-1.13493
O	5.17703	-1.65705	-0.756884
H	6.33456	-1.1509	1.04166
H	5.60135	1.35134	-0.159049
C	7.554	0.778502	-0.927019
H	8.15921	-0.144856	-1.05022
H	7.42366	1.26033	-1.91766
H	8.12001	1.47708	-0.272838
N	4.95169	-0.0561682	-2.32137
C	4.1841	-0.897746	-3.20947
H	5.14079	0.877153	-2.60812
H	3.90588	-0.344113	-4.13323
H	3.24855	-1.24292	-2.71259
H	4.77124	-1.79779	-3.5033
