44
  This energy is -2.3759 and Call times are: 152787
C	0.588734	3.32209	0.854286
C	-0.0548864	2.2868	0.014601
O	-0.949393	2.57344	-0.769046
H	0.115602	4.30711	0.649935
H	1.67163	3.38764	0.618082
H	0.459326	3.07747	1.9297
N	0.393001	1.0381	0.164713
C	-0.163876	-0.0825865	-0.551179
C	0.0202053	-1.32556	0.298924
O	0.708091	-1.29569	1.31757
H	1.09353	0.813942	0.836191
H	-1.22893	0.0673988	-0.676902
C	0.523978	-0.257919	-1.9228
H	1.61502	-0.422338	-1.79385
H	0.0944663	-1.10926	-2.48961
H	0.383287	0.666327	-2.52474
N	-0.60206	-2.45282	-0.0986928
C	-0.489172	-3.68285	0.649955
H	-1.1577	-2.45629	-0.923513
H	-1.07247	-4.49486	0.162492
H	-0.87439	-3.54843	1.68669
H	0.574814	-4.00639	0.716253
C	3.71428	1.24361	-2.89116
C	4.65811	1.36102	-1.75689
O	5.49673	2.25085	-1.72074
H	3.92771	2.0454	-3.63106
H	2.66935	1.35439	-2.53256
H	3.83222	0.25682	-3.38655
N	4.54102	0.447437	-0.790432
C	5.41536	0.406146	0.355163
C	5.50521	-1.03192	0.829993
O	4.76812	-1.89716	0.361194
H	3.88041	-0.295142	-0.853853
H	6.41078	0.709838	0.0559474
C	4.88779	1.31745	1.48496
H	3.87085	0.999781	1.79954
H	5.55972	1.30503	2.36749
H	4.82268	2.36318	1.11273
N	6.42345	-1.32301	1.77239
C	6.58517	-2.66509	2.28117
H	7.0136	-0.610165	2.1366
H	7.38989	-2.70056	3.04824
H	6.85366	-3.3672	1.45883
H	5.63972	-3.02518	2.74764
