44
  This energy is -2.5505 and Call times are: 149619
C	1.70653	-2.28519	1.99458
C	0.498175	-1.50185	1.65195
O	-0.577235	-1.72993	2.1885
H	1.44246	-3.05563	2.75126
H	2.48739	-1.61882	2.41759
H	2.10364	-2.79159	1.08961
N	0.651505	-0.546067	0.732524
C	-0.441142	0.269878	0.264639
C	-0.138064	0.694582	-1.15991
O	0.964423	0.479893	-1.66005
H	1.52389	-0.399563	0.274985
H	-1.34554	-0.325097	0.238364
C	-0.632747	1.50685	1.16931
H	0.29129	2.12316	1.18824
H	-1.48007	2.13592	0.827495
H	-0.845503	1.17235	2.20815
N	-1.12	1.30404	-1.85301
C	-0.925194	1.7385	-3.21664
H	-2.00673	1.46533	-1.43259
H	-1.84815	2.21649	-3.61274
H	-0.669396	0.874201	-3.8715
H	-0.0932896	2.47688	-3.27887
C	9.79644	-1.11505	-0.984561
C	8.36659	-0.843588	-1.25474
O	7.91806	-0.886344	-2.39202
H	10.3182	-1.32421	-1.94367
H	9.89929	-1.99812	-0.31947
H	10.2691	-0.232999	-0.503265
N	7.60771	-0.551002	-0.196026
C	6.20835	-0.221764	-0.305353
C	5.84735	0.697457	0.84629
O	6.6436	0.904983	1.75987
H	7.99577	-0.479876	0.718419
H	6.04164	0.329382	-1.22245
C	5.3375	-1.49686	-0.273877
H	5.5003	-2.05717	0.671425
H	4.25871	-1.25756	-0.37123
H	5.62431	-2.15816	-1.12049
N	4.63225	1.27975	0.824309
C	4.20341	2.17385	1.87448
H	4.00333	1.10277	0.0745059
H	3.17553	2.5496	1.67572
H	4.88833	3.04942	1.94894
H	4.20195	1.652	2.85877
