44
  This energy is 0.151 and Call times are: 153368
C	-3.21172	-1.27326	0.419925
C	-2.24036	-0.384331	-0.256393
O	-2.53251	0.203689	-1.28852
H	-4.15584	-1.29934	-0.166457
H	-3.4324	-0.893563	1.43967
H	-2.80344	-2.30357	0.48967
N	-1.04183	-0.267275	0.319977
C	0.0213006	0.527085	-0.243314
C	1.34372	-0.0790461	0.18723
O	1.38147	-0.977035	1.02622
H	-0.805134	-0.784233	1.13765
H	-0.0235023	0.46926	-1.32372
C	-0.0794189	1.99531	0.225086
H	-0.0229062	2.0561	1.33285
H	0.725661	2.62023	-0.212923
H	-1.05801	2.41599	-0.093891
N	2.46602	0.395977	-0.387933
C	3.76932	-0.123633	-0.0450124
H	2.41493	1.12002	-1.0678
H	4.56444	0.394946	-0.624749
H	3.82833	-1.21385	-0.266872
H	3.97645	0.0195286	1.04023
C	1.59139	1.08462	-1.37281
C	2.66608	1.16802	-0.358294
O	2.7374	2.11577	0.411829
H	0.945998	1.98679	-1.29919
H	0.968864	0.182125	-1.19755
H	2.02995	1.03871	-2.39194
N	3.54185	0.160559	-0.337301
C	4.66641	0.122099	0.564053
C	5.77393	-0.678015	-0.0953329
O	5.56813	-1.29915	-1.13627
H	3.4946	-0.583588	-0.997506
H	5.03958	1.12771	0.712755
C	4.26954	-0.5135	1.91451
H	3.89652	-1.54894	1.76365
H	5.12346	-0.536248	2.6222
H	3.45253	0.0836758	2.37518
N	6.98503	-0.674203	0.49563
C	8.10068	-1.40231	-0.0623692
H	7.13321	-0.162286	1.33531
H	9.0083	-1.2747	0.567843
H	8.33311	-1.03827	-1.08937
H	7.86788	-2.48992	-0.126066
