44
  This energy is 0.1078 and Call times are: 153855
C	-1.47396	0.346009	-3.13375
C	-1.50882	-0.0826571	-1.71736
O	-2.55617	-0.422458	-1.18445
H	-2.503	0.312457	-3.55307
H	-0.823308	-0.333523	-3.72335
H	-1.0886	1.38466	-3.20986
N	-0.34363	-0.0735094	-1.06572
C	-0.225608	-0.423078	0.327994
C	0.957546	0.330296	0.906033
O	1.72491	0.954001	0.175372
H	0.493517	0.244724	-1.50136
H	-1.10996	-0.0890606	0.85619
C	-0.0345627	-1.94589	0.500556
H	0.878363	-2.28735	-0.0323666
H	0.0437211	-2.22941	1.57014
H	-0.908064	-2.47721	0.063473
N	1.12809	0.296269	2.24236
C	2.22266	0.98784	2.88255
H	0.494337	-0.210424	2.81742
H	2.19075	0.839623	3.98447
H	2.17193	2.08117	2.67437
H	3.20055	0.609699	2.50587
C	8.60489	0.818572	-0.921088
C	7.20046	0.488859	-1.2528
O	6.76912	0.627499	-2.38908
H	9.11809	1.19743	-1.83155
H	9.13565	-0.0873496	-0.560057
H	8.63859	1.60375	-0.136591
N	6.44344	0.0394022	-0.249162
C	5.04693	-0.281868	-0.407645
C	4.35701	-0.0631818	0.925683
O	5.00951	0.165457	1.94239
H	6.79755	-0.0292516	0.67914
H	4.60109	0.403393	-1.11776
C	4.86661	-1.74197	-0.877575
H	5.31456	-2.44592	-0.144201
H	3.79611	-1.99735	-1.01663
H	5.38609	-1.88109	-1.85078
N	3.01086	-0.120487	0.949975
C	2.26767	0.080362	2.17206
H	2.50018	-0.302587	0.116232
H	1.17437	-0.00539525	1.98608
H	2.47302	1.09036	2.59517
H	2.55424	-0.67859	2.93562
