44
  This energy is -3.8187 and Call times are: 156641
C	2.06279	2.70264	0.743859
C	1.1714	1.59294	1.15023
O	1.08371	1.24756	2.32046
H	2.59149	3.09578	1.63929
H	1.46938	3.52285	0.287946
H	2.81557	2.3405	0.0122376
N	0.480495	0.998972	0.174412
C	-0.394544	-0.122695	0.408356
C	-0.439506	-0.959339	-0.856381
O	0.0701398	-0.552843	-1.89885
H	0.593447	1.26443	-0.778814
H	0.0223735	-0.743794	1.19133
C	-1.81227	0.354362	0.792691
H	-2.2446	0.982915	-0.0148047
H	-2.49187	-0.50013	0.988914
H	-1.75422	0.97108	1.71608
N	-1.04786	-2.16	-0.790529
C	-1.13455	-3.02763	-1.94201
H	-1.45078	-2.47341	0.0629927
H	-1.67071	-3.96804	-1.68633
H	-0.117461	-3.29332	-2.31107
H	-1.68275	-2.52576	-2.77191
C	2.84804	-2.28166	0.804371
C	3.95081	-1.80861	-0.0624023
O	4.41707	-2.52229	-0.939707
H	2.58106	-3.32356	0.52329
H	1.95515	-1.63453	0.675109
H	3.1644	-2.26643	1.86868
N	4.40054	-0.573335	0.170462
C	5.49717	0.00942716	-0.561894
C	6.18773	1.0144	0.340732
O	5.69523	1.333	1.42131
H	4.03853	-0.0196861	0.914956
H	6.21947	-0.76218	-0.797548
C	4.99655	0.694884	-1.85215
H	4.26342	1.49366	-1.61024
H	5.8333	1.13553	-2.43198
H	4.48776	-0.0573905	-2.49368
N	7.35743	1.53368	-0.0813817
C	8.08906	2.49289	0.71285
H	7.74209	1.26049	-0.956868
H	9.02459	2.79994	0.195406
H	8.36204	2.05758	1.70142
H	7.47364	3.40356	0.894727
