44
  This energy is -4.6966 and Call times are: 155854
C	-2.66067	0.979925	-2.01823
C	-1.64274	-0.00656771	-1.59187
O	-1.68124	-1.16506	-1.98279
H	-3.39827	0.481987	-2.68448
H	-2.17854	1.81153	-2.57386
H	-3.19343	1.38698	-1.13304
N	-0.69468	0.438962	-0.764181
C	0.338333	-0.412772	-0.229398
C	0.759578	0.143368	1.11775
O	0.357315	1.24061	1.4998
H	-0.70019	1.37437	-0.42234
H	-0.0676397	-1.40183	-0.0574005
C	1.54703	-0.482705	-1.18826
H	1.97041	0.530408	-1.35672
H	2.34356	-1.14657	-0.794122
H	1.21394	-0.884868	-2.16992
N	1.57885	-0.610564	1.87697
C	2.02797	-0.16581	3.17568
H	1.89043	-1.49753	1.55248
H	2.6936	-0.92475	3.64276
H	1.16075	0.0046985	3.85402
H	2.59253	0.790779	3.08999
C	4.47026	-2.57071	-2.17492
C	5.03306	-2.08047	-0.896608
O	5.26892	-2.84747	0.0266959
H	4.30926	-3.66866	-2.10826
H	5.17327	-2.36051	-3.00819
H	3.49703	-2.07653	-2.37908
N	5.262	-0.767802	-0.813616
C	5.76703	-0.137171	0.380454
C	5.25883	1.29193	0.411715
O	4.68223	1.7767	-0.560005
H	5.0266	-0.150579	-1.55892
H	5.36337	-0.642144	1.24918
C	7.31099	-0.163527	0.407468
H	7.72567	0.363559	-0.478122
H	7.71176	0.30682	1.3287
H	7.66064	-1.21855	0.375835
N	5.45519	2.00083	1.54083
C	5.00123	3.3664	1.66457
H	5.92019	1.58999	2.31805
H	5.25609	3.77627	2.66672
H	3.89668	3.42669	1.53183
H	5.47763	4.01064	0.890536
