44
  This energy is -2.3131 and Call times are: 155165
C	3.13196	-1.42436	0.524098
C	2.02616	-0.524795	0.923002
O	1.99263	-0.0178888	2.03581
H	3.83742	-1.53913	1.37559
H	3.68005	-0.996515	-0.34152
H	2.73262	-2.4239	0.251069
N	1.07971	-0.305638	0.00726456
C	-0.0800556	0.511709	0.263094
C	-1.21509	0.00829432	-0.60859
O	-1.01301	-0.83357	-1.4816
H	1.09956	-0.757864	-0.879846
H	-0.38522	0.385995	1.29445
C	0.215143	1.99765	-0.0370564
H	0.518073	2.12863	-1.09777
H	-0.665978	2.63919	0.169261
H	1.054	2.34238	0.60624
N	-2.44555	0.510015	-0.384381
C	-3.58756	0.086429	-1.16063
H	-2.59	1.18743	0.329277
H	-4.5082	0.612844	-0.825178
H	-3.75153	-1.01018	-1.05184
H	-3.43164	0.306626	-2.24153
C	8.14623	-3.26268	0.610794
C	7.28917	-2.09225	0.905217
O	6.332	-2.18284	1.66155
H	7.75636	-4.14975	1.15574
H	9.18794	-3.06703	0.9414
H	8.13864	-3.47818	-0.478506
N	7.619	-0.94824	0.301189
C	6.85516	0.264733	0.455461
C	7.02056	1.09148	-0.805774
O	7.8394	0.771845	-1.66545
H	8.37645	-0.900045	-0.343638
H	5.80473	0.0166866	0.543112
C	7.32844	1.06135	1.69103
H	8.40341	1.32518	1.59675
H	6.73869	1.99075	1.82863
H	7.20579	0.4343	2.60103
N	6.23474	2.17675	-0.949543
C	6.31762	3.02044	-2.11894
H	5.57523	2.41694	-0.244961
H	5.59126	3.86005	-2.0504
H	6.09278	2.43692	-3.04102
H	7.34065	3.44918	-2.22259
