44
  This energy is -0.7024 and Call times are: 150369
C	1.00683	-2.04755	2.62803
C	0.726521	-0.714887	2.04787
O	0.682106	0.285026	2.75116
H	1.13446	-1.94979	3.72804
H	1.93928	-2.46555	2.19379
H	0.162113	-2.73897	2.42431
N	0.525653	-0.672252	0.728701
C	0.200339	0.544605	0.0272812
C	-0.621026	0.180727	-1.19522
O	-0.761574	-0.993116	-1.53294
H	0.524514	-1.50051	0.175667
H	-0.420836	1.1664	0.659849
C	1.48105	1.30201	-0.386678
H	2.11363	0.668362	-1.04422
H	1.24369	2.2478	-0.915499
H	2.07028	1.55107	0.522782
N	-1.19313	1.1864	-1.88612
C	-1.997	0.935766	-3.05965
H	-1.07135	2.12951	-1.59496
H	-2.37888	1.8896	-3.48579
H	-2.86947	0.290373	-2.8076
H	-1.39827	0.416545	-3.84265
C	5.71829	-1.56966	3.1052
C	5.18824	-0.599113	2.1212
O	4.1071	-0.0524203	2.29057
H	4.98531	-1.69184	3.93204
H	6.67751	-1.20218	3.52664
H	5.88117	-2.55549	2.62076
N	5.95088	-0.362183	1.05133
C	5.54985	0.524155	-0.0126887
C	6.20798	0.0515531	-1.2953
O	7.06487	-0.829966	-1.27572
H	6.80957	-0.845657	0.907263
H	4.47871	0.451097	-0.153859
C	5.9568	1.98085	0.299846
H	7.05679	2.05825	0.434353
H	5.64122	2.67519	-0.505651
H	5.47015	2.30283	1.24633
N	5.81332	0.625555	-2.44889
C	6.37965	0.236343	-3.71931
H	5.11567	1.33432	-2.44496
H	5.92546	0.822413	-4.54844
H	6.19906	-0.845507	-3.91493
H	7.48007	0.409887	-3.7288
