44
  This energy is -5.3356 and Call times are: 154050
C	1.03936	3.2628	-0.621729
C	0.987238	1.82388	-0.965141
O	1.37923	1.4175	-2.05032
H	1.45107	3.83145	-1.48372
H	1.69489	3.4223	0.260075
H	0.0193484	3.63974	-0.396799
N	0.49089	1.00859	-0.0316933
C	0.336879	-0.410247	-0.235975
C	-0.822335	-0.887997	0.618151
O	-1.34411	-0.142908	1.44538
H	0.137929	1.35939	0.830993
H	0.0737134	-0.595808	-1.26987
C	1.63156	-1.16509	0.13718
H	1.89621	-0.983521	1.20068
H	1.53029	-2.25719	-0.0289086
H	2.46789	-0.793821	-0.494536
N	-1.25978	-2.14865	0.429921
C	-2.361	-2.68847	1.19287
H	-0.827484	-2.7351	-0.247034
H	-2.57021	-3.73875	0.892268
H	-3.28428	-2.08666	1.02961
H	-2.12832	-2.67508	2.28228
C	5.07574	2.3905	-2.51457
C	5.53837	1.95131	-1.17881
O	6.33312	2.62013	-0.532692
H	5.57281	3.3492	-2.77852
H	3.9764	2.54588	-2.50683
H	5.33577	1.62844	-3.27925
N	5.04367	0.795407	-0.729879
C	5.43239	0.217368	0.532388
C	5.29407	-1.28959	0.425114
O	4.75391	-1.80447	-0.552043
H	4.42914	0.242064	-1.28488
H	6.47733	0.433021	0.717349
C	4.55552	0.761165	1.68157
H	3.48447	0.530942	1.49749
H	4.85411	0.33405	2.66083
H	4.66625	1.86619	1.73638
N	5.79035	-2.03624	1.43121
C	5.7094	-3.47822	1.41348
H	6.22758	-1.60162	2.2116
H	6.17315	-3.90942	2.32794
H	6.23907	-3.89045	0.524207
H	4.6474	-3.81175	1.36805
