44
  This energy is -3.975 and Call times are: 154010
C	-0.908446	2.57528	2.15763
C	-1.21892	1.60216	1.08628
O	-2.37133	1.40023	0.729074
H	-1.85486	3.01843	2.53684
H	-0.264429	3.38825	1.76133
H	-0.387889	2.06743	2.9968
N	-0.17868	0.965603	0.543069
C	-0.325863	-0.0402766	-0.479234
C	0.837495	-1.00699	-0.362563
O	1.78251	-0.767655	0.386683
H	0.749841	1.11069	0.872714
H	-1.23278	-0.603609	-0.298164
C	-0.358086	0.601182	-1.88377
H	0.576626	1.17049	-2.07413
H	-0.485003	-0.161915	-2.67882
H	-1.21221	1.31056	-1.94375
N	0.790603	-2.13372	-1.10034
C	1.84964	-3.1146	-1.05034
H	0.0156389	-2.31175	-1.69767
H	1.6268	-3.96877	-1.72707
H	1.97066	-3.50957	-0.0156248
H	2.81884	-2.6629	-1.36299
C	7.02224	-2.84277	-0.580005
C	6.085	-2.04975	0.246952
O	5.51781	-2.54427	1.2114
H	7.07445	-3.88005	-0.18355
H	8.03698	-2.39346	-0.545821
H	6.66885	-2.87756	-1.63214
N	5.89757	-0.780086	-0.120746
C	4.98356	0.103153	0.559709
C	4.48211	1.12723	-0.440987
O	4.98197	1.21029	-1.56123
H	6.33501	-0.403606	-0.932392
H	4.12533	-0.463331	0.899067
C	5.67563	0.802917	1.74992
H	6.54991	1.39273	1.40094
H	4.9783	1.47528	2.29047
H	6.04151	0.0343169	2.46527
N	3.46937	1.9303	-0.0596063
C	2.92299	2.93085	-0.94647
H	3.07521	1.84529	0.849508
H	2.0981	3.48803	-0.450138
H	2.51977	2.45801	-1.8712
H	3.7088	3.66128	-1.24667
