44
  This energy is -2.2895 and Call times are: 154504
C	1.19078	-2.28886	2.33577
C	0.23446	-1.87947	1.28269
O	-0.546011	-2.6821	0.789673
H	1.06781	-3.37438	2.54172
H	0.996922	-1.72156	3.2703
H	2.2327	-2.1026	1.99991
N	0.277106	-0.598893	0.907623
C	-0.561563	-0.0622561	-0.135073
C	0.1695	1.10105	-0.778355
O	1.20779	1.54089	-0.288242
H	0.945825	0.0328782	1.28913
H	-0.706272	-0.814967	-0.900003
C	-1.92094	0.400324	0.433573
H	-1.77358	1.18012	1.2109
H	-2.5811	0.802815	-0.36186
H	-2.43464	-0.46511	0.906316
N	-0.355293	1.62375	-1.90415
C	0.273818	2.7288	-2.58916
H	-1.19397	1.25165	-2.28786
H	-0.30854	3.01416	-3.49285
H	1.3058	2.45654	-2.9088
H	0.342552	3.6176	-1.92099
C	5.33285	3.28891	0.956544
C	5.63651	1.87497	1.27236
O	5.96988	1.53561	2.39935
H	5.47864	3.90832	1.86809
H	4.27966	3.38804	0.619336
H	6.01228	3.65736	0.159245
N	5.528	1.00541	0.265147
C	5.83213	-0.396632	0.407755
C	6.29297	-0.920073	-0.939542
O	6.20116	-0.225528	-1.94993
H	5.29532	1.30313	-0.656307
H	6.65723	-0.514666	1.09905
C	4.59666	-1.18187	0.899956
H	3.75322	-1.06969	0.185758
H	4.82193	-2.26059	1.027
H	4.27212	-0.77671	1.88325
N	6.81077	-2.16344	-0.983437
C	7.28048	-2.74342	-2.22003
H	6.88061	-2.70862	-0.154593
H	7.67005	-3.7712	-2.04935
H	8.09878	-2.12659	-2.65729
H	6.45493	-2.80053	-2.96592
