44
  This energy is -2.9883 and Call times are: 151991
C	-1.92399	-0.704296	-2.81334
C	-0.636002	-0.367048	-2.16644
O	0.417192	-0.422086	-2.78625
H	-1.73802	-1.00478	-3.86739
H	-2.59898	0.177214	-2.8047
H	-2.41093	-1.5477	-2.27982
N	-0.693375	-0.00643809	-0.882286
C	0.480236	0.309005	-0.106598
C	0.190332	-0.0212958	1.34544
O	-0.945616	-0.320364	1.70861
H	-1.5534	-0.00592531	-0.380059
H	1.29919	-0.324314	-0.424172
C	0.857605	1.79893	-0.258069
H	0.0217109	2.4491	0.077497
H	1.76789	2.05119	0.323534
H	1.05763	2.01979	-1.32931
N	1.22061	0.0173958	2.21323
C	1.04117	-0.287122	3.61367
H	2.13336	0.25756	1.89972
H	2.00528	-0.200585	4.16161
H	0.655949	-1.32439	3.74386
H	0.309809	0.413541	4.0777
C	4.166	-2.51954	1.99628
C	4.61949	-1.99598	0.688078
O	4.75223	-2.73478	-0.277826
H	4.00919	-3.61733	1.91815
H	3.20863	-2.03971	2.28947
H	4.93257	-2.32053	2.77464
N	4.87342	-0.686641	0.628611
C	5.3628	-0.0394534	-0.563111
C	6.18223	1.16652	-0.143885
O	6.19931	1.53999	1.02741
H	4.8	-0.105435	1.43401
H	6.02719	-0.713946	-1.08873
C	4.19429	0.390927	-1.47667
H	3.51815	1.09117	-0.941369
H	4.55868	0.878139	-2.40423
H	3.60385	-0.506214	-1.76453
N	6.89189	1.80221	-1.09693
C	7.70512	2.95591	-0.790662
H	6.86861	1.48265	-2.03843
H	8.21004	3.33539	-1.70624
H	8.4874	2.69715	-0.040752
H	7.08049	3.77632	-0.368876
