44
  This energy is -4.7571 and Call times are: 155819
C	0.267668	2.82032	2.02158
C	0.277519	1.35347	1.82312
O	0.658616	0.597764	2.70634
H	0.659662	3.05652	3.03471
H	-0.768158	3.21102	1.93694
H	0.911639	3.31344	1.26315
N	-0.146928	0.912278	0.636711
C	-0.154858	-0.484677	0.280322
C	0.00847648	-0.589889	-1.22427
O	-0.0443065	0.411955	-1.93507
H	-0.415377	1.5419	-0.0867375
H	0.699084	-0.973545	0.732454
C	-1.46781	-1.16159	0.731098
H	-2.34356	-0.667139	0.259279
H	-1.48025	-2.24077	0.474696
H	-1.57036	-1.06549	1.83409
N	0.220568	-1.81412	-1.74611
C	0.392994	-2.01082	-3.16659
H	0.264175	-2.61229	-1.15442
H	0.556168	-3.08655	-3.39769
H	1.27117	-1.43521	-3.53908
H	-0.507827	-1.66507	-3.72347
C	6.0588	-1.98096	2.25725
C	4.88966	-1.15247	1.88595
O	3.8849	-1.12688	2.58325
H	5.83617	-2.52969	3.19809
H	6.94852	-1.33673	2.41887
H	6.27651	-2.71704	1.45485
N	4.99677	-0.446583	0.757837
C	3.9269	0.372178	0.244445
C	4.06227	0.435261	-1.26528
O	5.05896	-0.0143514	-1.82755
H	5.8052	-0.509507	0.179627
H	2.978	-0.101237	0.46372
C	3.97755	1.79101	0.85239
H	4.9467	2.28112	0.618755
H	3.15053	2.42698	0.475414
H	3.88474	1.72001	1.95814
N	3.05105	0.991489	-1.96103
C	3.08919	1.09034	-3.4015
H	2.25095	1.34607	-1.48862
H	2.16631	1.5772	-3.78685
H	3.17076	0.0793727	-3.86256
H	3.96701	1.69194	-3.7311
