44
  This energy is -6.2303 and Call times are: 154931
C	-0.082335	-0.0789041	-3.47846
C	0.604154	0.200573	-2.19714
O	1.8025	0.443595	-2.16092
H	0.657634	-0.0419204	-4.30729
H	-0.869172	0.681915	-3.66497
H	-0.543472	-1.08876	-3.45322
N	-0.153869	0.169228	-1.0986
C	0.379516	0.37826	0.224412
C	-0.486191	-0.384601	1.20937
O	-1.54324	-0.900252	0.850958
H	-1.11967	-0.0703765	-1.1397
H	1.37617	-0.0417657	0.278244
C	0.405554	1.88153	0.577589
H	-0.618157	2.31054	0.532786
H	0.827111	2.05663	1.5886
H	1.03818	2.42107	-0.160679
N	-0.0501376	-0.48132	2.4808
C	-0.804364	-1.19251	3.48655
H	0.809749	-0.0609058	2.75084
H	-0.280772	-1.15943	4.46736
H	-0.937392	-2.25986	3.19611
H	-1.81479	-0.74059	3.61285
C	5.17751	0.787039	-3.3788
C	5.70932	0.766519	-1.99753
O	6.87828	1.04211	-1.76515
H	5.99366	1.05991	-4.08258
H	4.36343	1.53717	-3.46434
H	4.78652	-0.2154	-3.65325
N	4.84744	0.431142	-1.03469
C	5.22789	0.325748	0.351922
C	4.32083	-0.693569	1.0151
O	3.34357	-1.14684	0.422461
H	3.90954	0.169665	-1.24407
H	6.24033	-0.0529162	0.416767
C	5.11476	1.69335	1.06053
H	4.07392	2.07733	1.00343
H	5.41829	1.62824	2.12549
H	5.78071	2.42547	0.553734
N	4.6309	-1.08597	2.26646
C	3.82882	-2.05586	2.97508
H	5.428	-0.710958	2.72805
H	4.24643	-2.24664	3.98822
H	3.79951	-3.02172	2.42053
H	2.7822	-1.69179	3.08988
