44
  This energy is -2.4231 and Call times are: 149420
C	2.13983	-1.73814	2.1243
C	1.13412	-0.683335	1.86534
O	0.593104	-0.0850869	2.78503
H	2.26518	-1.86465	3.22165
H	3.11705	-1.45216	1.68158
H	1.80432	-2.70233	1.68742
N	0.855967	-0.430226	0.58435
C	-0.131462	0.53773	0.176177
C	-0.695556	0.102031	-1.16305
O	-0.18838	-0.827691	-1.78763
H	1.27451	-0.95394	-0.152138
H	-0.948779	0.53559	0.886543
C	0.489469	1.94779	0.0692807
H	1.32115	1.95296	-0.667141
H	-0.264036	2.70453	-0.230861
H	0.902895	2.24269	1.05845
N	-1.77131	0.763481	-1.63344
C	-2.37996	0.415548	-2.89624
H	-2.17011	1.51037	-1.11173
H	-3.25132	1.07385	-3.10743
H	-2.73368	-0.640866	-2.88394
H	-1.64781	0.524793	-3.7288
C	5.79198	0.49592	3.14393
C	5.97046	-0.295997	1.90612
O	5.5544	-1.44336	1.8232
H	5.26987	-0.124239	3.90463
H	5.18082	1.39915	2.9356
H	6.77984	0.80326	3.54736
N	6.6066	0.309645	0.900682
C	6.89297	-0.346919	-0.350505
C	8.1472	0.275157	-0.934876
O	8.64074	1.28469	-0.435905
H	6.97552	1.22962	0.997562
H	7.10769	-1.39189	-0.164625
C	5.70945	-0.203547	-1.33233
H	5.49555	0.868178	-1.53156
H	5.91218	-0.71682	-2.2946
H	4.80085	-0.658401	-0.880787
N	8.69961	-0.322639	-2.00889
C	9.89689	0.19467	-2.62945
H	8.28805	-1.1411	-2.39595
H	10.1939	-0.435192	-3.4968
H	10.7409	0.210255	-1.90232
H	9.73373	1.23561	-2.99134
