44
  This energy is -2.3059 and Call times are: 149260
C	-2.04259	1.29044	2.50505
C	-1.24921	0.19343	1.9065
O	-0.996866	-0.823056	2.53855
H	-2.31151	1.02157	3.54969
H	-2.97493	1.4498	1.92361
H	-1.44958	2.22921	2.51692
N	-0.829876	0.379982	0.652809
C	-0.0124807	-0.578803	-0.0480176
C	0.834866	0.171059	-1.05859
O	0.63704	1.36319	-1.28533
H	-1.00851	1.23004	0.165612
H	0.664223	-1.05142	0.652939
C	-0.887118	-1.63778	-0.754288
H	-1.57418	-1.15442	-1.48116
H	-0.268916	-2.38983	-1.28605
H	-1.50429	-2.16848	0.00321044
N	1.81091	-0.513532	-1.68685
C	2.67096	0.118053	-2.66029
H	1.95833	-1.47656	-1.48703
H	3.40921	-0.609613	-3.06366
H	3.22937	0.965199	-2.20008
H	2.07366	0.519692	-3.51062
C	9.40453	-3.09084	0.666174
C	9.40546	-1.61154	0.719219
O	10.218	-1.00313	1.40187
H	10.207	-3.4826	1.32834
H	9.59423	-3.43668	-0.371687
H	8.42674	-3.48562	1.01423
N	8.47649	-0.990912	-0.0116885
C	8.32505	0.442736	-0.0282206
C	6.87085	0.761399	-0.320311
O	6.08716	-0.124469	-0.656144
H	7.79603	-1.50095	-0.53005
H	8.55055	0.837122	0.95475
C	9.24381	1.08231	-1.09221
H	9.00578	0.685855	-2.10226
H	9.14659	2.18726	-1.10526
H	10.3021	0.829482	-0.863086
N	6.47303	2.04232	-0.189902
C	5.10718	2.43897	-0.441461
H	7.12084	2.74435	0.0868046
H	4.97903	3.53204	-0.280168
H	4.40979	1.90002	0.240056
H	4.81612	2.20265	-1.49055
