44
  This energy is 0.1171 and Call times are: 156592
C	2.55779	0.770093	-2.23099
C	1.71317	-0.202841	-1.50219
O	1.72364	-1.39145	-1.79118
H	3.12659	0.239939	-3.02553
H	3.27646	1.25042	-1.53418
H	1.92327	1.54981	-2.70271
N	0.948212	0.290087	-0.525341
C	0.0417563	-0.525683	0.243695
C	-1.10725	0.350639	0.705645
O	-1.07003	1.5701	0.55318
H	0.919972	1.26606	-0.329022
H	-0.375443	-1.29484	-0.394254
C	0.761283	-1.15823	1.45506
H	1.18037	-0.369328	2.11539
H	0.077251	-1.79989	2.04742
H	1.603	-1.78861	1.09383
N	-2.16583	-0.256321	1.27752
C	-3.30782	0.495631	1.74293
H	-2.17939	-1.24454	1.38848
H	-4.07281	-0.182294	2.18159
H	-3.77737	1.05693	0.90285
H	-3.00299	1.23137	2.52198
C	2.00184	0.447151	-3.00484
C	2.72914	0.973819	-1.82806
O	3.09344	2.14057	-1.77915
H	1.89035	1.25558	-3.75974
H	0.992882	0.0941223	-2.70464
H	2.56728	-0.393508	-3.45942
N	2.9619	0.10869	-0.838233
C	3.69508	0.462341	0.351697
C	4.37199	-0.788591	0.879463
O	4.11477	-1.89252	0.403136
H	2.69518	-0.848147	-0.910211
H	4.47569	1.16723	0.0940303
C	2.75551	1.0617	1.42091
H	1.96071	0.334974	1.69329
H	3.31044	1.35088	2.33685
H	2.26515	1.97123	1.01026
N	5.26571	-0.642264	1.8774
C	5.96335	-1.7752	2.43947
H	5.46359	0.259583	2.24697
H	6.65468	-1.44982	3.24781
H	6.56033	-2.29674	1.6566
H	5.24189	-2.50767	2.86858
