44
  This energy is -4.8886 and Call times are: 153982
C	0.628842	-0.165114	-3.41906
C	0.520022	0.587119	-2.14885
O	0.918718	1.74018	-2.05989
H	1.11823	0.475523	-4.18455
H	-0.380653	-0.451304	-3.78205
H	1.24118	-1.07956	-3.27101
N	-0.0301539	-0.0619157	-1.12004
C	-0.164744	0.523455	0.190601
C	-0.133254	-0.595951	1.21407
O	-0.174219	-1.77309	0.861386
H	-0.312531	-1.0139	-1.1966
H	0.687255	1.16278	0.385502
C	-1.48025	1.32451	0.304596
H	-2.35516	0.666741	0.115113
H	-1.58895	1.79171	1.30481
H	-1.48493	2.13302	-0.458717
N	-0.0506416	-0.252108	2.51445
C	-0.0095877	-1.24903	3.55879
H	-0.0143739	0.705617	2.78
H	0.0586246	-0.767868	4.55931
H	0.873037	-1.91662	3.43004
H	-0.926779	-1.88097	3.5352
C	3.94694	-3.24782	1.06673
C	4.8624	-2.204	0.553391
O	6.07237	-2.38164	0.524674
H	4.54153	-4.12535	1.40179
H	3.2484	-3.57135	0.266655
H	3.36599	-2.8571	1.92865
N	4.29449	-1.0717	0.131769
C	5.05761	0.0507973	-0.354238
C	4.26891	1.316	-0.0735797
O	3.10885	1.25854	0.329747
H	3.3116	-0.926126	0.199517
H	5.98514	0.119179	0.200414
C	5.33976	-0.0871533	-1.86639
H	4.38841	-0.146744	-2.43686
H	5.93861	0.764262	-2.24979
H	5.91075	-1.02357	-2.04925
N	4.88792	2.49611	-0.274049
C	4.21845	3.75216	-0.0284527
H	5.82825	2.52225	-0.59681
H	4.89334	4.60772	-0.251553
H	3.8997	3.82569	1.03657
H	3.31079	3.84535	-0.667679
