44
  This energy is -2.7209 and Call times are: 153429
C	1.80697	1.89345	-2.29399
C	1.00294	1.76277	-1.05803
O	0.915523	2.68514	-0.259279
H	2.27782	2.90015	-2.32113
H	1.15778	1.77615	-3.18705
H	2.60584	1.12242	-2.31414
N	0.38956	0.591948	-0.870103
C	-0.39284	0.300061	0.305147
C	-0.334989	-1.19562	0.552406
O	0.164347	-1.9524	-0.278059
H	0.503473	-0.163432	-1.50908
H	0.055459	0.786331	1.16259
C	-1.85509	0.762673	0.12335
H	-2.31876	0.256171	-0.749865
H	-2.46452	0.555988	1.0269
H	-1.8727	1.85851	-0.064224
N	-0.840834	-1.65756	1.71291
C	-0.824766	-3.06489	2.03748
H	-1.23702	-1.02925	2.37422
H	-1.28552	-3.24396	3.0339
H	0.22012	-3.45087	2.06006
H	-1.39255	-3.64989	1.27817
C	3.71936	0.44302	2.95733
C	4.35033	-0.419055	1.9327
O	4.49688	-1.61926	2.11827
H	3.45532	-0.173421	3.84398
H	2.79441	0.904643	2.55222
H	4.42372	1.24178	3.27186
N	4.74623	0.185773	0.810281
C	5.41456	-0.512806	-0.259238
C	6.31279	0.474468	-0.980385
O	6.25589	1.67687	-0.730001
H	4.65723	1.17049	0.690796
H	6.05143	-1.28197	0.159592
C	4.39225	-1.1301	-1.23856
H	3.74554	-0.34016	-1.67653
H	4.89434	-1.68253	-2.05907
H	3.74067	-1.84309	-0.687721
N	7.17478	-0.0155617	-1.89299
C	8.07228	0.847559	-2.6249
H	7.20902	-0.991955	-2.07889
H	8.70085	0.256664	-3.32702
H	8.7464	1.39544	-1.92729
H	7.50028	1.6001	-3.21452
