44
  This energy is 0.1771 and Call times are: 155905
C	2.90187	-1.20163	1.4993
C	1.89032	-1.2182	0.418725
O	2.06939	-1.86161	-0.606152
H	3.7737	-1.82105	1.19579
H	2.47124	-1.62032	2.4331
H	3.24656	-0.162488	1.68491
N	0.787045	-0.496012	0.627513
C	-0.266639	-0.379669	-0.349613
C	-0.948984	0.960829	-0.152062
O	-0.689404	1.66185	0.824104
H	0.6739	0.055177	1.44925
H	0.165494	-0.378435	-1.34253
C	-1.28438	-1.53208	-0.203346
H	-1.73577	-1.52737	0.811672
H	-2.09324	-1.46145	-0.95917
H	-0.76167	-2.50337	-0.343803
N	-1.83762	1.35375	-1.08586
C	-2.5319	2.61627	-0.984765
H	-2.03138	0.774646	-1.87081
H	-3.21868	2.75763	-1.84823
H	-1.80767	3.46277	-0.970754
H	-3.13277	2.66047	-0.0476744
C	6.173	-0.600683	3.32686
C	5.85634	-0.621676	1.88102
O	4.87524	-1.21633	1.45647
H	5.41382	-1.1973	3.87781
H	6.15574	0.442252	3.7073
H	7.17599	-1.04251	3.50538
N	6.69685	0.0370827	1.0798
C	6.54445	0.0708792	-0.353447
C	7.91964	0.239573	-0.971472
O	8.89931	0.485463	-0.270405
H	7.5137	0.481964	1.43573
H	6.15236	-0.879517	-0.693499
C	5.6128	1.22566	-0.782107
H	6.01999	2.20187	-0.442616
H	5.4764	1.25375	-1.88262
H	4.61493	1.08596	-0.311931
N	8.02576	0.101906	-2.30781
C	9.29486	0.239749	-2.98349
H	7.22239	-0.101105	-2.85777
H	9.17514	0.0912207	-4.07932
H	10.0248	-0.512362	-2.60557
H	9.72358	1.25356	-2.81164
