44
  This energy is -2.8489 and Call times are: 154668
C	-2.66067	-2.11407	-0.751149
C	-1.64274	-1.58141	0.182249
O	-1.68124	-1.84206	1.37682
H	-3.39827	-2.72128	-0.182709
H	-2.17854	-2.7581	-1.51634
H	-3.19343	-1.27922	-1.25343
N	-0.69468	-0.807966	-0.351923
C	0.338333	-0.182431	0.435572
C	0.759578	1.0951	-0.265877
O	0.357315	1.35368	-1.39859
H	-0.70019	-0.571471	-1.31935
H	-0.0676397	0.0976944	1.3996
C	1.54703	-1.12771	0.610924
H	1.97041	-1.40698	-0.377402
H	2.34356	-0.662702	1.22723
H	1.21394	-2.05898	1.11899
N	1.57885	1.93289	0.399639
C	2.02797	3.17458	-0.185758
H	1.89043	1.7083	1.317
H	2.6936	3.72258	0.516985
H	1.16075	3.82994	-0.430104
H	2.59253	2.98381	-1.12704
C	4.90453	1.0832	-3.1379
C	4.78216	0.199341	-1.95681
O	3.79871	-0.510224	-1.79637
H	3.99364	0.983352	-3.76731
H	5.79133	0.795564	-3.7409
H	5.00435	2.1411	-2.81548
N	5.79584	0.225571	-1.08839
C	5.80118	-0.546479	0.129177
C	6.6432	0.191045	1.1532
O	7.31236	1.17071	0.830415
H	6.57081	0.838786	-1.21183
H	4.79318	-0.602916	0.520797
C	6.36626	-1.96242	-0.117882
H	7.40417	-1.90529	-0.509711
H	6.36274	-2.57143	0.809272
H	5.73944	-2.48057	-0.87613
N	6.62231	-0.261227	2.42246
C	7.38755	0.380129	3.46613
H	6.0715	-1.05292	2.66517
H	7.23814	-0.138579	4.43868
H	7.07631	1.44333	3.58456
H	8.47466	0.363671	3.22311
