44
  This energy is -1.5931 and Call times are: 149515
C	0.602335	-1.21458	-3.20541
C	0.151245	-0.153286	-2.27735
O	-0.0611006	0.984798	-2.67242
H	0.71182	-0.787796	-4.22607
H	-0.143019	-2.03686	-3.23777
H	1.58353	-1.61806	-2.87747
N	-0.00514852	-0.508971	-1.00008
C	-0.397195	0.423019	0.0276616
C	0.183417	-0.0542844	1.34547
O	0.717847	-1.15793	1.4353
H	0.211015	-1.42906	-0.686124
H	0.0373387	1.39201	-0.184172
C	-1.9353	0.527713	0.119897
H	-2.38082	-0.464094	0.347636
H	-2.24969	1.25274	0.898372
H	-2.33907	0.870876	-0.857631
N	0.0985853	0.776102	2.40344
C	0.628092	0.409687	3.69632
H	-0.333835	1.66682	2.31015
H	0.46144	1.22456	4.43485
H	1.723	0.214169	3.63128
H	0.134387	-0.5141	4.07581
C	4.149	-0.321129	-2.232
C	5.352	0.379983	-1.72963
O	5.88162	1.27209	-2.37775
H	3.87615	0.0864492	-3.22964
H	3.29779	-0.16734	-1.5359
H	4.35316	-1.40809	-2.33147
N	5.81833	-0.0171991	-0.543386
C	7.00512	0.540646	0.0556993
C	7.63295	-0.521131	0.938887
O	7.04217	-1.57299	1.17612
H	5.40052	-0.772512	-0.0466052
H	7.72036	0.777502	-0.722085
C	6.66603	1.80084	0.881643
H	5.94033	1.5562	1.68635
H	7.57362	2.24769	1.33675
H	6.20059	2.56102	0.216945
N	8.85782	-0.271529	1.44229
C	9.53615	-1.2256	2.28833
H	9.32167	0.58361	1.23576
H	10.5307	-0.837261	2.60023
H	9.6892	-2.18889	1.74988
H	8.93764	-1.43361	3.20466
