44
  This energy is -8.369 and Call times are: 153580
C	-0.493596	-0.384786	-3.42359
C	-0.14014	0.433353	-2.24171
O	0.351877	1.54635	-2.36651
H	-0.223277	0.169833	-4.34837
H	-1.58455	-0.590804	-3.43403
H	0.0635656	-1.34515	-3.40471
N	-0.385731	-0.111456	-1.04787
C	-0.0564915	0.545102	0.192733
C	0.211203	-0.522805	1.23651
O	-0.0271563	-1.70606	1.0024
H	-0.748654	-1.03494	-0.962254
H	0.859119	1.10929	0.0662979
C	-1.20503	1.47169	0.648291
H	-2.142	0.891589	0.788325
H	-0.957898	1.99366	1.59539
H	-1.38887	2.24015	-0.134024
N	0.724548	-0.127483	2.41813
C	1.01708	-1.07352	3.46962
H	0.914526	0.833934	2.58741
H	1.43275	-0.554404	4.36122
H	1.76144	-1.82706	3.1241
H	0.0942644	-1.61611	3.77808
C	3.21207	2.71288	-0.998713
C	3.62539	1.70536	0.00389019
O	3.2692	1.79069	1.17105
H	2.58995	3.4899	-0.503667
H	2.61448	2.23148	-1.80114
H	4.10585	3.19829	-1.44436
N	4.4019	0.712992	-0.437285
C	4.91911	-0.317586	0.428137
C	6.23224	-0.807736	-0.152388
O	6.5988	-0.450827	-1.2704
H	4.71713	0.67958	-1.38141
H	5.13495	0.107483	1.40043
C	3.9154	-1.4842	0.557813
H	3.70171	-1.92745	-0.438137
H	4.29621	-2.27793	1.23272
H	2.95948	-1.10102	0.977017
N	6.97933	-1.63652	0.603245
C	8.24612	-2.14956	0.136116
H	6.66792	-1.91082	1.50705
H	8.70767	-2.81295	0.900396
H	8.95325	-1.31537	-0.0769032
H	8.11111	-2.73566	-0.801651
