44
  This energy is 0.1321 and Call times are: 147910
C	-1.79077	-0.673686	-2.90723
C	-0.787301	0.10324	-2.14527
O	-0.0365952	0.889618	-2.70604
H	-1.70547	-0.424407	-3.98726
H	-2.81463	-0.421092	-2.55988
H	-1.61357	-1.76184	-2.7745
N	-0.750861	-0.10585	-0.827189
C	0.199455	0.5441	0.0405792
C	0.457796	-0.366938	1.22583
O	-0.223899	-1.37412	1.40636
H	-1.34065	-0.779368	-0.39085
H	1.13878	0.664308	-0.484636
C	-0.334174	1.91316	0.516137
H	-1.29248	1.7893	1.06417
H	0.394463	2.42976	1.17397
H	-0.523643	2.5604	-0.367906
N	1.46163	-0.0359561	2.06178
C	1.78452	-0.845889	3.21327
H	2.00475	0.780675	1.89685
H	2.63935	-0.408373	3.77458
H	2.06191	-1.87892	2.90155
H	0.911588	-0.915762	3.90192
C	6.45027	0.327517	-0.318035
C	5.16749	-0.331476	-0.651763
O	5.08758	-1.1304	-1.57466
H	7.23428	-0.0138833	-1.0284
H	6.76011	0.0611871	0.714348
H	6.34671	1.43008	-0.399845
N	4.11729	-0.00312038	0.104313
C	2.79464	-0.528659	-0.125774
C	1.78728	0.496148	0.36061
O	2.15054	1.48363	0.996706
H	4.18895	0.679586	0.825863
H	2.63987	-0.653071	-1.19029
C	2.59897	-1.87206	0.610586
H	2.74727	-1.74281	1.7039
H	1.58902	-2.29385	0.429996
H	3.3516	-2.60417	0.244655
N	0.489635	0.287508	0.0629385
C	-0.539418	1.2116	0.479212
H	0.215601	-0.515264	-0.456231
H	-1.54006	0.865505	0.13838
H	-0.354486	2.22385	0.0521125
H	-0.559391	1.30365	1.58929
