44
  This energy is -4.5258 and Call times are: 149084
C	1.48392	2.05266	-2.38689
C	0.481348	1.04331	-1.978
O	-0.444409	0.735573	-2.71603
H	1.22447	2.44021	-3.39603
H	2.49431	1.59412	-2.42686
H	1.49039	2.89877	-1.66775
N	0.645942	0.498795	-0.770196
C	-0.271923	-0.465398	-0.216648
C	-0.236637	-0.338532	1.29471
O	0.605832	0.365532	1.84812
H	1.38107	0.789396	-0.164386
H	-1.27814	-0.22563	-0.537071
C	0.106885	-1.89896	-0.648684
H	1.13518	-2.14922	-0.311042
H	-0.600571	-2.64937	-0.240142
H	0.0822509	-1.96645	-1.75827
N	-1.16321	-1.01592	2.00085
C	-1.2107	-0.951389	3.44299
H	-1.83926	-1.57716	1.53498
H	-2.04238	-1.57586	3.83741
H	-1.36769	0.0974939	3.78427
H	-0.256169	-1.31889	3.88452
C	4.20229	1.75998	2.93184
C	3.94641	1.46842	1.50332
O	2.96785	1.92594	0.929301
H	3.38521	2.40138	3.32787
H	5.16767	2.29641	3.04598
H	4.233	0.815843	3.51557
N	4.83555	0.684468	0.889118
C	4.6987	0.27777	-0.487262
C	5.37996	-1.0676	-0.652899
O	6.06197	-1.54388	0.252488
H	5.60496	0.286356	1.38041
H	3.64946	0.138346	-0.715918
C	5.32558	1.32264	-1.43621
H	6.40446	1.45831	-1.20894
H	5.21436	1.02762	-2.49975
H	4.81714	2.30094	-1.29219
N	5.20254	-1.71893	-1.81922
C	5.80745	-3.00725	-2.06514
H	4.64382	-1.31931	-2.53839
H	5.54349	-3.37837	-3.07995
H	5.45764	-3.75473	-1.31667
H	6.91721	-2.94049	-1.99369
