44
  This energy is 0.1258 and Call times are: 156101
C	-3.10175	-1.0572	1.17225
C	-2.19258	-0.647387	0.0783532
O	-2.50755	-0.793319	-1.09464
H	-4.02525	-1.49709	0.736919
H	-3.37932	-0.176843	1.78924
H	-2.60948	-1.81786	1.81426
N	-1.02312	-0.118287	0.445495
C	-0.0173603	0.288037	-0.50419
C	1.34046	0.156737	0.159608
O	1.43314	-0.0817999	1.3622
H	-0.764035	-0.0436738	1.40423
H	-0.0299918	-0.388745	-1.34943
C	-0.253889	1.74128	-0.970432
H	-0.230531	2.43729	-0.104953
H	0.506051	2.06129	-1.71246
H	-1.25631	1.81564	-1.4458
N	2.43253	0.302262	-0.616431
C	3.76618	0.188717	-0.0735845
H	2.33731	0.490897	-1.58824
H	4.52876	0.339554	-0.869162
H	3.92293	-0.818696	0.375661
H	3.93314	0.951042	0.721479
C	5.19132	1.87067	-2.31128
C	5.81397	1.6927	-0.980193
O	5.92741	2.63122	-0.203839
H	4.8997	2.93557	-2.44092
H	4.28399	1.23656	-2.39721
H	5.91145	1.59544	-3.11049
N	6.2403	0.462675	-0.684119
C	6.90506	0.143733	0.554799
C	7.8378	-1.02608	0.303572
O	7.80813	-1.63748	-0.762736
H	6.17801	-0.281978	-1.3425
H	7.51642	0.984226	0.85883
C	5.88073	-0.20729	1.65606
H	5.26032	-1.07614	1.34908
H	6.37967	-0.441326	2.61877
H	5.20382	0.659921	1.81753
N	8.69933	-1.36066	1.28431
C	9.62832	-2.45623	1.1331
H	8.71123	-0.851475	2.13851
H	10.2511	-2.57278	2.04732
H	10.3067	-2.27935	0.267161
H	9.0837	-3.41173	0.955467
