44
  This energy is -3.0858 and Call times are: 147036
C	-0.669811	-0.860054	3.3052
C	-1.05226	-0.239311	2.01696
O	-2.20301	0.115887	1.80242
H	-1.56808	-0.940304	3.95524
H	0.0913797	-0.236452	3.81945
H	-0.258946	-1.87719	3.13283
N	-0.0782371	-0.0951098	1.11538
C	-0.305459	0.452356	-0.198854
C	0.717032	-0.148622	-1.14484
O	1.64874	-0.827114	-0.716731
H	0.844714	-0.426482	1.28922
H	-1.28483	0.149345	-0.547629
C	-0.188839	1.99228	-0.182738
H	0.819272	2.30351	0.164955
H	-0.375417	2.42685	-1.18616
H	-0.940795	2.40993	0.52188
N	0.560236	0.0816052	-2.46334
C	1.48069	-0.454246	-3.43894
H	-0.20227	0.629656	-2.7909
H	1.18182	-0.154754	-4.46763
H	1.50113	-1.5671	-3.38992
H	2.51358	-0.0813863	-3.25114
C	4.1803	2.9093	0.92781
C	4.72191	1.56504	1.22912
O	4.78649	1.15169	2.37864
H	3.89494	3.41165	1.87758
H	3.28104	2.82369	0.282247
H	4.94785	3.52441	0.412464
N	5.13202	0.842537	0.18405
C	5.7215	-0.465871	0.322376
C	6.66998	-0.68278	-0.841628
O	6.70586	0.109795	-1.78091
H	5.111	1.20872	-0.741868
H	6.31177	-0.497633	1.22968
C	4.63332	-1.56158	0.345589
H	4.03426	-1.53625	-0.589571
H	5.07377	-2.57258	0.465647
H	3.94621	-1.37836	1.20037
N	7.47146	-1.76539	-0.801745
C	8.41003	-2.0505	-1.86192
H	7.43084	-2.39301	-0.0313391
H	8.97679	-2.98274	-1.64524
H	9.139	-1.21574	-1.97618
H	7.87899	-2.18039	-2.83262
