44
  This energy is -2.4441 and Call times are: 150453
C	3.26653	0.121189	-1.1949
C	1.90292	0.683389	-1.06984
O	1.65254	1.82386	-1.43458
H	3.94237	0.88989	-1.62875
H	3.25511	-0.765544	-1.86297
H	3.65197	-0.173689	-0.196118
N	0.976628	-0.118722	-0.539762
C	-0.384012	0.301523	-0.314789
C	-0.933309	-0.48388	0.861208
O	-0.302336	-1.42403	1.34049
H	1.20501	-1.03025	-0.209885
H	-0.39329	1.34796	-0.0363727
C	-1.24868	0.0681984	-1.57302
H	-1.24803	-1.00684	-1.85291
H	-2.29542	0.400647	-1.41705
H	-0.823732	0.646009	-2.42267
N	-2.12686	-0.108003	1.36138
C	-2.72594	-0.792895	2.48308
H	-2.62049	0.657809	0.96271
H	-3.70531	-0.335575	2.74563
H	-2.06271	-0.737967	3.3766
H	-2.89374	-1.86782	2.24324
C	8.17861	-1.82848	-2.82798
C	7.25855	-1.51802	-1.71073
O	6.13086	-1.99029	-1.66949
H	7.66477	-2.49778	-3.55176
H	9.08574	-2.34176	-2.44535
H	8.4752	-0.894498	-3.35026
N	7.72771	-0.700467	-0.765276
C	6.93541	-0.272792	0.360742
C	7.43232	1.09248	0.79742
O	8.46093	1.56988	0.322298
H	8.6332	-0.291499	-0.833728
H	5.90497	-0.156434	0.0488719
C	7.03841	-1.28391	1.52362
H	8.09406	-1.39573	1.85094
H	6.42167	-0.972813	2.39159
H	6.67709	-2.27745	1.17914
N	6.70292	1.75985	1.71318
C	7.09493	3.06758	2.18472
H	5.87132	1.3589	2.08297
H	6.36716	3.44992	2.93399
H	7.14127	3.7922	1.33971
H	8.10113	3.02823	2.66132
