44
  This energy is -0.7068 and Call times are: 146816
C	-0.315747	3.15166	-1.44222
C	0.303288	1.8092	-1.36656
O	1.02962	1.39582	-2.25986
H	-0.0209153	3.63879	-2.39703
H	0.0306592	3.78109	-0.595714
H	-1.42234	3.06519	-1.40964
N	0.0222235	1.08649	-0.279789
C	0.515593	-0.254013	-0.084354
C	-0.479782	-1.00278	0.781749
O	-1.41287	-0.41257	1.32279
H	-0.603468	1.42036	0.419431
H	0.557942	-0.76192	-1.0398
C	1.90858	-0.237463	0.582392
H	1.86352	0.274209	1.56738
H	2.30538	-1.2634	0.72564
H	2.61861	0.322286	-0.064821
N	-0.307233	-2.3314	0.926674
C	-1.20768	-3.12768	1.7275
H	0.451366	-2.79188	0.477714
H	-0.898332	-4.19609	1.72228
H	-2.24731	-3.0619	1.33236
H	-1.2161	-2.77003	2.78256
C	4.97409	-3.15177	0.381912
C	6.12837	-2.22724	0.445331
O	7.17622	-2.55885	0.982415
H	5.2372	-4.10336	0.8929
H	4.71698	-3.37095	-0.67573
H	4.0952	-2.70203	0.8902
N	5.95714	-1.02521	-0.109814
C	6.97405	-0.00344	-0.0890272
C	6.28681	1.34862	-0.123746
O	5.07719	1.43523	-0.326304
H	5.0847	-0.755222	-0.507073
H	7.52147	-0.0631866	0.843381
C	7.93266	-0.154609	-1.29047
H	7.37305	-0.0828469	-2.24741
H	8.72851	0.61804	-1.27812
H	8.41823	-1.15403	-1.24905
N	7.04702	2.44193	0.0830595
C	6.47944	3.77006	0.0736402
H	8.02335	2.3514	0.249381
H	7.26475	4.5347	0.262965
H	5.69734	3.86857	0.860975
H	6.00713	3.98869	-0.911385
