44
  This energy is -2.7445 and Call times are: 148586
C	-0.589538	-0.844702	3.3244
C	-1.05202	-0.392387	1.99298
O	-2.24374	-0.332715	1.72346
H	-1.47049	-1.10788	3.94934
H	-0.0210573	-0.0345656	3.82764
H	0.0579537	-1.74083	3.22051
N	-0.101794	-0.0604565	1.1159
C	-0.395111	0.356721	-0.232618
C	0.780831	-0.0245511	-1.11202
O	1.8274	-0.440498	-0.618666
H	0.864975	-0.153325	1.33635
H	-1.25857	-0.187134	-0.594971
C	-0.647907	1.87897	-0.296525
H	0.241536	2.43762	0.0652039
H	-0.888493	2.21043	-1.32743
H	-1.50733	2.13618	0.360428
N	0.631296	0.10157	-2.44535
C	1.69405	-0.242269	-3.36104
H	-0.224486	0.436006	-2.82595
H	1.37762	-0.0698146	-4.41335
H	1.97573	-1.31457	-3.25103
H	2.59986	0.374841	-3.16146
C	4.64243	-3.37061	-0.702918
C	5.12188	-2.28053	0.17629
O	5.44824	-2.49893	1.33483
H	4.62826	-4.32406	-0.131428
H	5.31971	-3.48455	-1.5753
H	3.61424	-3.15022	-1.05975
N	5.17327	-1.06102	-0.364585
C	5.57766	0.106385	0.378505
C	4.88353	1.31383	-0.22302
O	4.25754	1.22014	-1.27709
H	4.86548	-0.891932	-1.29653
H	5.23591	0.0144856	1.40192
C	7.11104	0.285155	0.333567
H	7.46094	0.390043	-0.715534
H	7.43622	1.17297	0.913716
H	7.59826	-0.613323	0.771394
N	4.97227	2.48213	0.442735
C	4.33941	3.68314	-0.05046
H	5.47982	2.53724	1.29622
H	4.52719	4.53728	0.636856
H	3.23808	3.53926	-0.137915
H	4.73375	3.95003	-1.05764
