44
  This energy is -1.7777 and Call times are: 150397
C	-1.15807	2.98741	-1.35903
C	-1.09615	1.50885	-1.32458
O	-1.8673	0.82743	-1.98593
H	-1.98444	3.30483	-2.03152
H	-0.202456	3.40161	-1.74371
H	-1.35021	3.38621	-0.340632
N	-0.161558	0.972232	-0.536565
C	-0.00701229	-0.451007	-0.366084
C	0.570613	-0.702081	1.01409
O	0.975197	0.229859	1.70656
H	0.431947	1.53955	0.0271483
H	-0.98128	-0.92257	-0.398686
C	0.916449	-1.04001	-1.45491
H	1.91939	-0.56403	-1.41505
H	1.03229	-2.13751	-1.34273
H	0.478253	-0.837625	-2.45659
N	0.614588	-1.97605	1.45123
C	1.1423	-2.31057	2.75346
H	0.278696	-2.71619	0.87814
H	1.09204	-3.40792	2.92812
H	0.560801	-1.80102	3.55565
H	2.20557	-1.98973	2.84095
C	6.33164	-3.07177	1.60218
C	5.63328	-1.78524	1.38244
O	4.52743	-1.57539	1.86146
H	5.68823	-3.73872	2.21623
H	7.28826	-2.90108	2.1393
H	6.53723	-3.56658	0.629573
N	6.27453	-0.881537	0.637781
C	5.70453	0.399255	0.301278
C	6.28575	0.840916	-1.02864
O	7.21529	0.224165	-1.54564
H	7.15635	-1.08242	0.220768
H	4.63571	0.290125	0.165887
C	6.00767	1.44336	1.39818
H	7.10413	1.56339	1.53012
H	5.56221	2.43031	1.15734
H	5.58013	1.09573	2.36395
N	5.74166	1.92241	-1.62054
C	6.22553	2.41297	-2.88995
H	4.9874	2.40584	-1.18873
H	5.64998	3.30922	-3.21045
H	6.12431	1.63141	-3.67748
H	7.30123	2.69388	-2.81859
