44
  This energy is -0.1101 and Call times are: 149543
C	-0.00554718	1.80888	2.97331
C	0.697296	1.16765	1.83931
O	1.88808	1.36431	1.63988
H	0.708233	2.4539	3.53041
H	-0.404581	1.03554	3.66284
H	-0.841325	2.43725	2.59952
N	-0.0385211	0.374451	1.05714
C	0.494645	-0.284412	-0.109135
C	-0.636459	-0.478259	-1.1014
O	-1.80103	-0.247135	-0.781914
H	-1.01584	0.256588	1.2082
H	1.22875	0.358633	-0.578406
C	1.12553	-1.64352	0.265094
H	0.370186	-2.30746	0.736985
H	1.55199	-2.15441	-0.622403
H	1.94527	-1.47826	0.99794
N	-0.31607	-0.902292	-2.33977
C	-1.32497	-1.10969	-3.35234
H	0.632301	-1.08007	-2.58073
H	-0.86298	-1.45828	-4.30222
H	-1.87612	-0.16338	-3.55728
H	-2.0638	-1.87451	-3.02019
C	8.25733	3.28889	0.264159
C	8.48932	1.85435	-0.0176615
O	9.53168	1.4704	-0.530003
H	9.13779	3.87686	-0.0748704
H	8.11768	3.44705	1.35422
H	7.35668	3.64484	-0.279172
N	7.50386	1.01729	0.314872
C	7.56563	-0.400929	0.063091
C	6.14866	-0.910871	-0.120524
O	5.18328	-0.186858	0.115177
H	6.64473	1.34952	0.693542
H	8.09439	-0.576176	-0.865524
C	8.25972	-1.13852	1.22904
H	7.71166	-0.967656	2.18008
H	8.32586	-2.22972	1.04078
H	9.29212	-0.743818	1.35027
N	5.99108	-2.17607	-0.556933
C	4.68042	-2.74575	-0.766219
H	6.7844	-2.74519	-0.746178
H	4.76064	-3.79508	-1.12636
H	4.11291	-2.15775	-1.52349
H	4.09512	-2.74395	0.181707
