44
  This energy is -0.5402 and Call times are: 153731
C	0.677055	3.41384	0.00293025
C	-0.207479	2.26092	-0.279067
O	-1.38275	2.42284	-0.577264
H	0.0932113	4.35552	-0.0877905
H	1.51578	3.43955	-0.724131
H	1.08373	3.34104	1.03366
N	0.347898	1.05036	-0.186946
C	-0.396132	-0.167658	-0.390441
C	0.253791	-1.26236	0.434655
O	1.33398	-1.07445	0.991079
H	1.2953	0.932926	0.0967941
H	-1.40404	-0.0372632	-0.0166113
C	-0.418912	-0.557092	-1.88478
H	0.614454	-0.701284	-2.2661
H	-1.00057	-1.48596	-2.05629
H	-0.891423	0.261637	-2.47025
N	-0.398519	-2.43686	0.539885
C	0.140302	-3.53454	1.30862
H	-1.27347	-2.56854	0.0858109
H	-0.542581	-4.41184	1.27345
H	0.276035	-3.23856	2.3741
H	1.13208	-3.84565	0.907713
C	4.18893	2.63432	0.846447
C	4.68599	1.25209	1.02953
O	4.36066	0.586115	2.0027
H	3.54065	2.90849	1.70692
H	3.59464	2.70659	-0.0886199
H	5.04139	3.34429	0.798209
N	5.50163	0.784326	0.0817406
C	6.09954	-0.526134	0.143079
C	7.4194	-0.479238	-0.603461
O	7.73256	0.506893	-1.26768
H	5.78991	1.35284	-0.683471
H	6.32093	-0.769837	1.17469
C	5.16486	-1.5885	-0.475783
H	4.9459	-1.34461	-1.53721
H	5.6081	-2.60397	-0.422066
H	4.20251	-1.59973	0.0810773
N	8.23253	-1.54923	-0.503735
C	9.51077	-1.5924	-1.17487
H	7.96355	-2.3361	0.0417565
H	10.0302	-2.55441	-0.970047
H	10.165	-0.760054	-0.827733
H	9.37981	-1.49206	-2.27665
