44
  This energy is -4.3251 and Call times are: 146967
C	-2.58383	0.242691	2.31897
C	-1.32401	0.732478	1.71556
O	-0.875685	1.83594	1.99446
H	-2.99631	1.02438	2.99329
H	-2.39261	-0.677472	2.91013
H	-3.32858	0.0235869	1.52497
N	-0.71686	-0.0916144	0.858462
C	0.493347	0.262119	0.159298
C	0.515366	-0.489646	-1.15824
O	-0.313501	-1.36572	-1.39739
H	-1.11545	-0.969925	0.610349
H	0.47561	1.31965	-0.0729821
C	1.73952	-0.0863391	1.00243
H	1.76373	-1.17294	1.23208
H	2.67746	0.194006	0.480708
H	1.69831	0.468729	1.96501
N	1.46656	-0.15606	-2.05266
C	1.56192	-0.813323	-3.33527
H	2.12588	0.558274	-1.84268
H	2.40733	-0.399004	-3.92759
H	0.623314	-0.67351	-3.91901
H	1.72773	-1.90725	-3.20499
C	4.86004	0.339187	3.38381
C	5.52092	-0.358416	2.25787
O	6.35698	-1.22917	2.45591
H	5.26367	-0.0490567	4.34412
H	3.76477	0.159396	3.35544
H	5.0569	1.43052	3.32628
N	5.15529	0.0175297	1.03013
C	5.74086	-0.539233	-0.163891
C	5.67268	0.509891	-1.25763
O	5.0357	1.54887	-1.09488
H	4.5034	0.756306	0.884848
H	6.78767	-0.749767	0.0163347
C	4.99721	-1.82177	-0.596696
H	3.92548	-1.60419	-0.791901
H	5.44736	-2.26773	-1.5072
H	5.0532	-2.57236	0.221729
N	6.33966	0.263892	-2.40246
C	6.33666	1.2068	-3.49658
H	6.85286	-0.580669	-2.5139
H	6.94178	0.82363	-4.34761
H	6.76434	2.18379	-3.1743
H	5.29816	1.38678	-3.8575
