44
  This energy is 0.1716 and Call times are: 152966
C	2.12115	-2.69495	0.592139
C	1.2798	-1.8713	-0.305003
O	1.31482	-2.01994	-1.51871
H	2.73869	-3.38914	-0.0183043
H	1.48138	-3.29058	1.27673
H	2.79508	-2.04453	1.18868
N	0.493167	-0.967288	0.283512
C	-0.349757	-0.0639049	-0.459413
C	-0.523179	1.20188	0.358669
O	-0.125448	1.26022	1.52062
H	0.505985	-0.830044	1.26985
H	0.147798	0.212962	-1.38051
C	-1.72136	-0.708261	-0.757319
H	-2.23681	-0.982877	0.187635
H	-2.37456	-0.0276715	-1.34097
H	-1.56968	-1.63684	-1.34984
N	-1.11805	2.25446	-0.236511
C	-1.32115	3.50233	0.461874
H	-1.42947	2.18943	-1.17877
H	-1.82528	4.24384	-0.19634
H	-0.347038	3.93121	0.791179
H	-1.95381	3.34838	1.36585
C	7.96074	1.42608	-1.26753
C	7.06238	1.07813	-0.143681
O	7.42793	1.19353	1.01799
H	8.9412	1.76038	-0.864044
H	7.52023	2.24885	-1.86899
H	8.12261	0.53973	-1.91657
N	5.84651	0.634602	-0.471269
C	4.87704	0.216581	0.51054
C	3.98051	-0.829079	-0.125385
O	4.04193	-1.06223	-1.33103
H	5.57788	0.507304	-1.42179
H	5.3889	-0.257827	1.33853
C	4.04141	1.41695	1.00661
H	3.50775	1.89756	0.1591
H	3.30059	1.11031	1.77321
H	4.71862	2.17284	1.46086
N	3.12681	-1.49317	0.67847
C	2.23905	-2.50938	0.163318
H	3.09453	-1.29342	1.65219
H	1.61681	-2.93844	0.97938
H	2.81927	-3.33626	-0.306696
H	1.55899	-2.08246	-0.608945
