44
  This energy is -3.4898 and Call times are: 156811
C	-2.8189	-0.395623	-2.00249
C	-1.68072	-0.944274	-1.23134
O	-1.59744	-2.1407	-0.990435
H	-3.51479	-1.22103	-2.26767
H	-2.45404	0.0808931	-2.93659
H	-3.36674	0.354907	-1.39449
N	-0.764699	-0.0650725	-0.818683
C	0.37632	-0.442006	-0.022091
C	0.773047	0.749286	0.829369
O	0.258984	1.8515	0.648881
H	-0.867439	0.911059	-0.987441
H	0.0930764	-1.24049	0.65232
C	1.55391	-0.882739	-0.918909
H	1.85177	-0.0603228	-1.6037
H	2.43396	-1.18867	-0.316883
H	1.23851	-1.75037	-1.53867
N	1.6977	0.55138	1.78952
C	2.13343	1.62484	2.65207
H	2.09924	-0.348619	1.92306
H	2.89684	1.2628	3.3755
H	1.27431	2.03973	3.22745
H	2.58062	2.45212	2.05478
C	6.29394	2.82283	-1.93125
C	6.10723	1.36222	-1.77989
O	5.99105	0.634382	-2.75619
H	6.28609	3.08407	-3.01178
H	7.26661	3.13166	-1.4939
H	5.47073	3.36847	-1.42364
N	6.07157	0.894892	-0.529798
C	5.85347	-0.496659	-0.222267
C	5.18417	-0.581495	1.13656
O	5.06907	0.416568	1.84531
H	6.12651	1.50506	0.255398
H	5.16817	-0.919372	-0.946346
C	7.18659	-1.27642	-0.218854
H	7.88613	-0.849741	0.531232
H	7.03042	-2.35201	0.00304613
H	7.66254	-1.19397	-1.22036
N	4.71677	-1.78283	1.52943
C	4.06047	-1.95857	2.80401
H	4.8156	-2.57799	0.940347
H	3.74833	-3.0171	2.94299
H	3.15407	-1.3142	2.87124
H	4.74361	-1.68169	3.63936
