44
  This energy is 0.1132 and Call times are: 155774
C	-2.6172	-0.489097	2.24137
C	-1.55147	0.347184	1.64471
O	-1.48167	1.54579	1.87898
H	-3.27895	0.149649	2.86584
H	-2.17073	-1.27836	2.88204
H	-3.22505	-0.962414	1.44164
N	-0.684681	-0.277914	0.84452
C	0.380168	0.40992	0.157833
C	0.686679	-0.348655	-1.11973
O	0.183084	-1.4495	-1.33477
H	-0.778861	-1.2461	0.630967
H	0.0416228	1.39824	-0.127181
C	1.63948	0.504307	1.04691
H	1.99336	-0.509672	1.3309
H	2.46206	1.04407	0.534522
H	1.38987	1.05616	1.97939
N	1.51949	0.230953	-2.00658
C	1.86472	-0.413558	-3.25221
H	1.91386	1.12397	-1.81668
H	2.56031	0.221422	-3.84398
H	0.9526	-0.598943	-3.86453
H	2.3591	-1.39396	-3.06368
C	8.06873	0.236524	-1.02121
C	6.84961	-0.548514	-0.723515
O	6.76318	-1.72735	-1.03861
H	8.80017	-0.408982	-1.55428
H	8.52979	0.599537	-0.0786641
H	7.81708	1.10385	-1.66735
N	5.86308	0.100637	-0.10082
C	4.6	-0.517637	0.216851
C	3.53533	0.563005	0.233473
O	3.84294	1.7513	0.162449
H	5.93232	1.07096	0.112571
H	4.33747	-1.21707	-0.567049
C	4.66496	-1.23482	1.58311
H	4.92392	-0.515674	2.38923
H	3.70252	-1.72668	1.83273
H	5.45584	-2.0157	1.55046
N	2.24866	0.171832	0.31987
C	1.16713	1.129	0.336835
H	2.0193	-0.794459	0.372324
H	0.185289	0.6117	0.411887
H	1.17021	1.74169	-0.593694
H	1.26707	1.81966	1.20525
