44
  This energy is -2.1581 and Call times are: 152163
C	0.670211	0.96047	-3.27735
C	0.0157897	1.16912	-1.96611
O	-0.530461	2.22899	-1.69281
H	0.580987	1.88774	-3.88405
H	0.179505	0.12633	-3.82155
H	1.74632	0.726311	-3.13502
N	0.0598024	0.144642	-1.11119
C	-0.494965	0.212237	0.217804
C	0.291958	-0.731654	1.1074
O	1.11449	-1.5098	0.628176
H	0.543657	-0.697216	-1.33261
H	-0.360897	1.21249	0.61042
C	-1.99108	-0.17096	0.211246
H	-2.12821	-1.20096	-0.181595
H	-2.43324	-0.109371	1.22674
H	-2.54601	0.527854	-0.452127
N	0.0618701	-0.678056	2.43413
C	0.767438	-1.53434	3.35886
H	-0.604585	-0.0389222	2.80348
H	0.439159	-1.33984	4.40367
H	1.86577	-1.35763	3.29796
H	0.576837	-2.6068	3.12513
C	3.39472	2.97105	1.57038
C	3.7624	2.19313	0.365889
O	3.63629	2.66534	-0.755503
H	3.00286	3.96422	1.26069
H	4.28574	3.1215	2.21552
H	2.60833	2.43773	2.14505
N	4.23134	0.960847	0.575581
C	4.59024	0.0686336	-0.498523
C	4.38922	-1.35597	-0.0171952
O	4.14232	-1.59279	1.16376
H	4.28973	0.575464	1.49206
H	3.91777	0.225177	-1.33273
C	6.05502	0.291263	-0.934521
H	6.74609	0.120501	-0.0817006
H	6.33926	-0.380338	-1.77039
H	6.18083	1.34218	-1.27524
N	4.48275	-2.3433	-0.929577
C	4.30108	-3.72905	-0.565068
H	4.67917	-2.13159	-1.88125
H	4.4164	-4.38785	-1.45384
H	3.2856	-3.89269	-0.136928
H	5.05146	-4.03613	0.198982
