44
  This energy is -1.1913 and Call times are: 146675
C	-0.48387	-2.53601	-2.33393
C	-0.408988	-1.10563	-1.96035
O	-0.385285	-0.229053	-2.81327
H	-0.492903	-2.62625	-3.44193
H	-1.413	-2.9892	-1.92887
H	0.397393	-3.08207	-1.93609
N	-0.367125	-0.83495	-0.653695
C	-0.250026	0.506048	-0.13739
C	0.457341	0.436749	1.2029
O	0.676243	-0.64524	1.74429
H	-0.345872	-1.56113	0.0275358
H	0.373759	1.09131	-0.80146
C	-1.64011	1.16103	0.0172214
H	-2.27685	0.566672	0.706665
H	-1.56251	2.19893	0.400962
H	-2.1426	1.19395	-0.974123
N	0.84093	1.59832	1.76827
C	1.52518	1.63039	3.03987
H	0.658588	2.4635	1.31299
H	1.75662	2.67738	3.33561
H	2.48182	1.06193	2.98558
H	0.895808	1.17176	3.83655
C	7.69497	-1.28349	-2.86888
C	6.50128	-0.932759	-2.06685
O	5.38147	-0.946989	-2.55902
H	7.38229	-1.51792	-3.90961
H	8.19898	-2.17307	-2.43603
H	8.40551	-0.430413	-2.89067
N	6.71914	-0.60229	-0.791819
C	5.66259	-0.196083	0.101071
C	6.25422	0.737835	1.13998
O	7.47042	0.898159	1.22292
H	7.64052	-0.555667	-0.416675
H	4.92229	0.36643	-0.454042
C	5.01363	-1.42135	0.781377
H	5.77061	-1.99289	1.35963
H	4.18933	-1.12265	1.46095
H	4.59451	-2.09466	0.00205955
N	5.40039	1.38627	1.95638
C	5.87148	2.29917	2.97169
H	4.41939	1.24668	1.8713
H	5.01766	2.73165	3.53845
H	6.44635	3.13542	2.51182
H	6.54086	1.77496	3.6916
