44
  This energy is -2.5791 and Call times are: 154362
C	-0.00460433	-1.6278	3.07619
C	-0.312665	-1.57488	1.62931
O	-0.664109	-2.57567	1.01995
H	-0.131262	-2.67035	3.44078
H	-0.694244	-0.964047	3.63883
H	1.04378	-1.30905	3.25614
N	-0.182921	-0.38493	1.03808
C	-0.405657	-0.185284	-0.372272
C	0.459204	0.974782	-0.82814
O	1.06059	1.67068	-0.0121908
H	0.143554	0.411776	1.53862
H	-0.0780478	-1.06408	-0.913582
C	-1.8952	0.10401	-0.660035
H	-2.22902	1.01155	-0.113242
H	-2.08199	0.245882	-1.74424
H	-2.50984	-0.754389	-0.311148
N	0.54844	1.20539	-2.15286
C	1.35213	2.28354	-2.67998
H	0.0577248	0.62891	-2.79779
H	1.29652	2.30883	-3.79061
H	2.41926	2.15834	-2.38528
H	0.998744	3.26489	-2.28858
C	7.18235	-3.22679	0.42654
C	6.26668	-2.25543	-0.213137
O	5.59791	-2.56436	-1.18973
H	7.14496	-4.18833	-0.130143
H	6.87445	-3.40793	1.47779
H	8.22341	-2.84092	0.407752
N	6.21801	-1.03781	0.332208
C	5.40694	0.0264029	-0.204616
C	6.07118	1.34649	0.138516
O	7.02932	1.38816	0.907893
H	6.79889	-0.78901	1.10197
H	5.3838	-0.0519831	-1.2844
C	3.97554	-0.0257673	0.372971
H	3.99801	0.0652021	1.47989
H	3.3372	0.780335	-0.043249
H	3.51176	-1.00329	0.116638
N	5.57888	2.46196	-0.435393
C	6.14996	3.76235	-0.172667
H	4.80564	2.40762	-1.05847
H	5.60696	4.55177	-0.73764
H	7.22181	3.78909	-0.475506
H	6.09184	4.00509	0.913077
