44
  This energy is -3.2351 and Call times are: 152844
C	-1.36885	-2.59366	1.874
C	-1.34282	-1.18362	1.42427
O	-2.27142	-0.424878	1.66599
H	-2.32502	-2.79215	2.40523
H	-0.524713	-2.78962	2.56811
H	-1.29481	-3.27535	1.00055
N	-0.259808	-0.796918	0.746097
C	-0.109183	0.531703	0.20699
C	0.780716	0.446699	-1.01874
O	1.3688	-0.596064	-1.29895
H	0.469467	-1.43698	0.521727
H	-1.075	0.896055	-0.120236
C	0.502958	1.48636	1.2554
H	1.49847	1.11859	1.58364
H	0.611168	2.51591	0.856848
H	-0.160716	1.52692	2.1466
N	0.893608	1.54805	-1.78706
C	1.71369	1.55947	-2.97598
H	0.406779	2.38117	-1.5463
H	1.67617	2.55533	-3.47003
H	1.36069	0.793546	-3.704
H	2.77486	1.33276	-2.72369
C	6.99753	-2.97111	1.40302
C	7.20181	-1.74573	0.598113
O	8.32185	-1.39285	0.255493
H	7.98341	-3.43704	1.61934
H	6.37206	-3.69731	0.842511
H	6.50045	-2.71953	2.36359
N	6.1041	-1.0577	0.275584
C	6.14666	0.177398	-0.466898
C	4.94682	1.01348	-0.0632987
O	4.057	0.539542	0.640484
H	5.20312	-1.33537	0.596513
H	7.03434	0.731394	-0.188083
C	6.13191	-0.0922418	-1.98753
H	5.21628	-0.651386	-2.27567
H	6.17835	0.850501	-2.57028
H	7.01422	-0.712096	-2.25891
N	4.8993	2.28879	-0.496127
C	3.79915	3.16136	-0.157785
H	5.6308	2.65557	-1.06133
H	3.94344	4.16854	-0.607243
H	3.71669	3.27917	0.947024
H	2.83679	2.74423	-0.533274
