44
  This energy is 0.1767 and Call times are: 153524
C	3.44912	-0.429463	-0.178294
C	2.14118	-0.646184	0.480078
O	2.01716	-1.45276	1.39137
H	4.20607	-1.10403	0.27764
H	3.77665	0.622596	-0.0417597
H	3.37362	-0.655079	-1.26296
N	1.119	0.0808688	0.0229871
C	-0.222656	-0.0500898	0.534219
C	-1.18965	0.316191	-0.575875
O	-0.784322	0.807684	-1.62747
H	1.22673	0.703562	-0.746763
H	-0.406597	-1.0852	0.793741
C	-0.436786	0.862299	1.76179
H	-0.258474	1.92543	1.49348
H	-1.46192	0.760175	2.17312
H	0.286546	0.581662	2.55827
N	-2.49935	0.0755981	-0.368907
C	-3.49248	0.386249	-1.37059
H	-2.80765	-0.326439	0.486892
H	-4.51015	0.115083	-1.01277
H	-3.29054	-0.17542	-2.31135
H	-3.48292	1.47439	-1.60936
C	6.17845	2.93091	1.49971
C	5.85252	2.12032	0.304775
O	5.80778	2.62424	-0.808992
H	6.33678	3.98805	1.19439
H	7.10622	2.55208	1.9777
H	5.34299	2.88907	2.23001
N	5.61144	0.824094	0.514674
C	5.23938	-0.0822542	-0.542994
C	4.3898	-1.18649	0.0573897
O	4.26434	-1.2927	1.27586
H	5.61147	0.436919	1.43225
H	4.62425	0.442564	-1.26327
C	6.49067	-0.673689	-1.22836
H	7.11672	-1.22118	-0.491904
H	6.21745	-1.36261	-2.05375
H	7.10137	0.152575	-1.65342
N	3.77594	-2.03458	-0.791097
C	2.94291	-3.1126	-0.311419
H	3.8862	-1.93008	-1.77395
H	2.52816	-3.69741	-1.16184
H	2.09234	-2.71478	0.288209
H	3.52891	-3.80361	0.336843
