44
  This energy is -3.3012 and Call times are: 152704
C	-0.589956	0.735699	-3.35013
C	0.321209	0.439326	-2.22182
O	1.50424	0.192622	-2.41155
H	-0.0247318	0.671573	-4.30527
H	-1.0063	1.75979	-3.24699
H	-1.4211	-0.00030527	-3.37431
N	-0.22043	0.455291	-1.00168
C	0.529627	0.144764	0.189769
C	-0.428985	-0.429297	1.21596
O	-1.64325	-0.409269	1.02392
H	-1.19374	0.617522	-0.866702
H	1.25791	-0.623935	-0.0367953
C	1.22769	1.40499	0.746342
H	0.480073	2.19005	0.988822
H	1.8198	1.17616	1.65605
H	1.91817	1.81253	-0.0240487
N	0.0992018	-0.965578	2.33375
C	-0.734844	-1.54039	3.36338
H	1.08438	-0.976226	2.46933
H	-0.11434	-1.92881	4.20083
H	-1.33891	-2.38268	2.95481
H	-1.43721	-0.777966	3.77144
C	4.16428	2.53638	-1.86338
C	5.10811	2.06326	-0.825831
O	5.94673	2.81228	-0.344074
H	4.37771	3.60243	-2.09541
H	3.11935	2.45032	-1.49806
H	4.28222	1.93629	-2.79024
N	4.99102	0.786081	-0.455037
C	5.86536	0.170385	0.511923
C	5.95521	-1.31012	0.193189
O	5.21812	-1.81885	-0.64919
H	4.33041	0.177855	-0.885743
H	6.86078	0.583777	0.407682
C	5.33779	0.384135	1.94762
H	4.32085	-0.0490971	2.05804
H	6.00972	-0.0734639	2.70235
H	5.27268	1.47437	2.15616
N	6.87345	-2.03833	0.858435
C	7.03517	-3.45326	0.617585
H	7.4636	-1.60806	1.53347
H	7.83989	-3.87227	1.26108
H	7.30366	-3.6423	-0.447053
H	6.08972	-3.99998	0.837495
