44
  This energy is -2.5608 and Call times are: 151755
C	-0.0293416	1.67206	-3.05222
C	-0.0111466	1.66162	-1.57212
O	0.202465	2.68349	-0.934491
H	0.189994	2.69976	-3.415
H	-1.0292	1.36517	-3.42483
H	0.741718	0.9786	-3.44931
N	-0.236712	0.484433	-0.98414
C	-0.208193	0.307916	0.44645
C	0.204938	-1.12235	0.738395
O	0.289977	-1.95049	-0.166406
H	-0.368425	-0.346485	-1.51715
H	0.548722	0.955411	0.871258
C	-1.58974	0.609918	1.06723
H	-2.36473	-0.0612158	0.639442
H	-1.57712	0.490978	2.17006
H	-1.87534	1.65898	0.83432
N	0.481161	-1.44473	2.01738
C	0.887492	-2.77986	2.38953
H	0.410656	-0.759854	2.73505
H	1.06897	-2.84471	3.48502
H	1.82563	-3.0665	1.86131
H	0.0996193	-3.51997	2.12002
C	6.21543	0.472267	3.24523
C	6.04572	-0.353942	2.02878
O	6.65294	-1.4066	1.88876
H	6.95231	-0.0148411	3.92019
H	5.24733	0.569182	3.78015
H	6.58981	1.48165	2.97308
N	5.2028	0.114965	1.10574
C	4.96669	-0.555377	-0.148628
C	4.58727	0.490666	-1.17984
O	4.3653	1.65291	-0.845729
H	4.74706	0.993609	1.21592
H	5.88551	-1.02026	-0.483714
C	3.84631	-1.60913	-0.00869696
H	2.90067	-1.13109	0.324905
H	3.6646	-2.14193	-0.964539
H	4.14193	-2.35972	0.756524
N	4.51203	0.100724	-2.46759
C	4.16356	1.02774	-3.51896
H	4.69917	-0.843144	-2.71892
H	4.15501	0.51678	-4.50692
H	4.8974	1.86486	-3.56368
H	3.15373	1.46307	-3.34039
