44
  This energy is -2.9943 and Call times are: 155582
C	0.392287	2.06118	2.77675
C	-0.183512	0.873854	2.10603
O	-0.7702	0.00959814	2.74264
H	0.209365	1.98966	3.87097
H	-0.0850916	2.98696	2.39234
H	1.4872	2.10838	2.59778
N	-0.0233672	0.804024	0.782457
C	-0.490602	-0.311087	-0.00289602
C	0.407241	-0.442534	-1.21869
O	1.2391	0.42316	-1.48383
H	0.49212	1.49494	0.28369
H	-0.388195	-1.22195	0.573713
C	-1.95927	-0.105315	-0.434069
H	-2.06303	0.823486	-1.03457
H	-2.33505	-0.963685	-1.0278
H	-2.59675	-0.0036514	0.47127
N	0.264068	-1.54115	-1.98587
C	1.0782	-1.75479	-3.15964
H	-0.411717	-2.23259	-1.75286
H	0.810186	-2.71403	-3.65486
H	2.15798	-1.79058	-2.88751
H	0.9343	-0.928956	-3.89342
C	5.86573	1.83139	-2.93683
C	5.615	1.7397	-1.48085
O	5.60927	2.73902	-0.775352
H	6.04722	2.89306	-3.21212
H	4.9848	1.45937	-3.50104
H	6.75947	1.23156	-3.20975
N	5.40083	0.516179	-0.991444
C	5.18525	0.26298	0.4114
C	5.6744	-1.13965	0.719496
O	6.00232	-1.90515	-0.18504
H	5.44921	-0.291916	-1.57153
H	5.78606	0.949528	0.99476
C	3.69117	0.407433	0.774854
H	3.07551	-0.304046	0.184265
H	3.51417	0.228464	1.85521
H	3.35286	1.4388	0.533692
N	5.7429	-1.50771	2.01404
C	6.20161	-2.82081	2.4033
H	5.47711	-0.87294	2.73203
H	6.18595	-2.93076	3.51006
H	7.24346	-2.99405	2.04861
H	5.55117	-3.61089	1.96303
