44
  This energy is -2.7799 and Call times are: 152758
C	1.02768	-2.6129	-2.05653
C	0.996675	-1.17973	-1.68747
O	1.74602	-0.372633	-2.2199
H	1.81195	-2.77683	-2.8272
H	0.0455792	-2.92251	-2.4717
H	1.26409	-3.23242	-1.1658
N	0.114598	-0.827476	-0.74926
C	-0.0029729	0.521846	-0.255229
C	-0.503769	0.45975	1.17547
O	-0.89042	-0.601198	1.66189
H	-0.460148	-1.50274	-0.295885
H	0.977405	0.981246	-0.234166
C	-0.969485	1.34806	-1.13185
H	-1.97821	0.882939	-1.14528
H	-1.05781	2.39288	-0.769837
H	-0.587474	1.37334	-2.17578
N	-0.500149	1.60271	1.88938
C	-0.953475	1.6391	3.26027
H	-0.179711	2.45041	1.47976
H	-0.872743	2.66844	3.67398
H	-0.341597	0.95748	3.89453
H	-2.01694	1.31484	3.33133
C	3.78107	0.107816	2.83285
C	4.52626	-0.634214	1.7911
O	4.71181	-1.83983	1.88314
H	3.47807	-0.595342	3.63884
H	2.86996	0.568629	2.39665
H	4.42294	0.901172	3.27064
N	4.9791	0.0835601	0.760511
C	5.75761	-0.490306	-0.30867
C	6.6631	0.591052	-0.867533
O	6.53352	1.76308	-0.519302
H	4.85548	1.07095	0.72003
H	6.39449	-1.26933	0.0915042
C	4.84159	-1.05536	-1.4163
H	4.19544	-0.254317	-1.83446
H	5.42898	-1.51244	-2.23883
H	4.18248	-1.83911	-0.983102
N	7.61322	0.217974	-1.74736
C	8.52436	1.17671	-2.32772
H	7.7052	-0.73577	-2.01379
H	9.23044	0.675501	-3.02592
H	9.11814	1.68482	-1.53367
H	7.96587	1.95699	-2.89376
