44
  This energy is 0.1103 and Call times are: 155025
C	-2.78323	1.96386	0.713827
C	-1.4289	1.45812	1.03189
O	-0.756255	1.96474	1.91918
H	-3.0185	2.82528	1.37601
H	-3.53809	1.16666	0.879355
H	-2.82742	2.30072	-0.34337
N	-0.991856	0.430975	0.299537
C	0.321072	-0.141819	0.462897
C	0.752656	-0.723254	-0.870228
O	-0.0385272	-0.803833	-1.80791
H	-1.53462	0.0558258	-0.446477
H	1.02396	0.642231	0.715569
C	0.314171	-1.23513	1.5537
H	-0.399018	-2.04493	1.28982
H	1.32247	-1.67429	1.69863
H	-0.0122499	-0.788968	2.51845
N	2.0298	-1.13686	-0.987933
C	2.53191	-1.69856	-2.22023
H	2.65619	-1.05974	-0.219325
H	3.60376	-1.97744	-2.11732
H	2.43922	-0.964325	-3.05305
H	1.95715	-2.61127	-2.49909
C	8.83573	2.3498	1.79479
C	8.37058	0.964849	1.55669
O	8.8732	0.0181343	2.14619
H	9.66629	2.33638	2.53361
H	8.00625	2.96814	2.19773
H	9.20426	2.79781	0.847926
N	7.38419	0.814344	0.669682
C	6.85548	-0.475299	0.301128
C	6.33321	-0.383727	-1.12029
O	6.25334	0.701205	-1.69322
H	7.01319	1.59035	0.16766
H	7.65655	-1.20392	0.304131
C	5.72843	-0.905567	1.26543
H	4.90162	-0.163734	1.25481
H	5.32251	-1.90333	1.00044
H	6.13122	-0.958226	2.30048
N	5.97114	-1.53047	-1.72849
C	5.46798	-1.54184	-3.08233
H	6.04684	-2.39904	-1.25004
H	5.22584	-2.57898	-3.40318
H	6.22446	-1.12491	-3.78602
H	4.54398	-0.924764	-3.16345
