44
  This energy is 0.1177 and Call times are: 153400
C	-2.8189	-1.98961	-0.455998
C	-1.68072	-1.50949	0.359581
O	-1.59744	-1.77779	1.55016
H	-3.51479	-2.56854	0.18934
H	-2.45404	-2.64794	-1.27222
H	-3.36674	-1.12826	-0.893076
N	-0.764699	-0.773967	-0.274682
C	0.37632	-0.200543	0.394512
C	0.773047	1.06294	-0.345607
O	0.258984	1.34796	-1.42552
H	-0.867439	-0.529693	-1.2347
H	0.0930764	0.0893118	1.3987
C	1.55391	-1.19914	0.430903
H	1.85177	-1.48871	-0.599372
H	2.43396	-0.774372	0.955875
H	1.23851	-2.11901	0.970084
N	1.6977	1.85874	0.226891
C	2.13343	3.08427	-0.401125
H	2.09924	1.61338	1.10304
H	2.89684	3.59698	0.224617
H	1.27431	3.77886	-0.545098
H	2.58062	2.87657	-1.40014
C	0.829321	2.5006	-0.0068051
C	2.07381	1.89293	0.515827
O	2.80969	2.50983	1.27367
H	0.733751	3.53655	0.385035
H	-0.0518648	1.9098	0.320624
H	0.85799	2.53727	-1.11627
N	2.3412	0.648486	0.113026
C	3.53575	-0.0586137	0.502378
C	3.88182	-1.04417	-0.597847
O	3.10197	-1.25196	-1.5254
H	1.75355	0.174377	-0.536395
H	4.35749	0.642621	0.577481
C	3.32824	-0.79542	1.84376
H	2.49215	-1.52251	1.76414
H	4.24548	-1.33242	2.1613
H	3.06822	-0.0558782	2.6323
N	5.07209	-1.67165	-0.523554
C	5.48955	-2.62205	-1.52787
H	5.69139	-1.48731	0.232463
H	6.49715	-3.02864	-1.28986
H	5.53443	-2.13926	-2.53096
H	4.77268	-3.47285	-1.58601
