44
  This energy is -3.2679 and Call times are: 147223
C	0.580248	-2.50127	-2.34939
C	0.511855	-1.07697	-1.95213
O	0.948892	-0.195412	-2.67896
H	1.08056	-2.58301	-3.33878
H	-0.442484	-2.92629	-2.42765
H	1.16435	-3.07925	-1.60249
N	-0.046184	-0.817448	-0.767388
C	-0.145247	0.51508	-0.225987
C	-0.137323	0.412438	1.2876
O	-0.220933	-0.680186	1.84519
H	-0.360284	-1.54893	-0.168934
H	0.729454	1.08415	-0.515287
C	-1.43249	1.21477	-0.714527
H	-2.33062	0.636859	-0.408875
H	-1.51341	2.24667	-0.315576
H	-1.42046	1.27168	-1.82492
N	-0.0272916	1.55642	1.99133
C	-0.0055693	1.55636	3.43552
H	0.0434028	2.43051	1.52225
H	0.0907755	2.59287	3.82742
H	0.853214	0.956816	3.81541
H	-0.943034	1.11307	3.8427
C	5.94144	-3.35159	0.827503
C	5.70018	-2.27328	-0.157492
O	5.75881	-2.48971	-1.36005
H	6.18091	-4.29416	0.288931
H	5.0351	-3.51267	1.44826
H	6.79653	-3.08573	1.48417
N	5.42091	-1.06639	0.340293
C	5.20494	0.0907715	-0.492111
C	5.61571	1.32188	0.293521
O	5.89021	1.2432	1.48942
H	5.41708	-0.896615	1.32163
H	5.84989	0.0319074	-1.35998
C	3.72527	0.192107	-0.922863
H	3.06397	0.263137	-0.0330948
H	3.5489	1.07147	-1.57565
H	3.44441	-0.722664	-1.48912
N	5.67568	2.49447	-0.367879
C	6.06199	3.71776	0.295805
H	5.45385	2.53741	-1.3364
H	6.05093	4.57203	-0.416475
H	7.08864	3.62767	0.71908
H	5.36295	3.94901	1.13187
