44
  This energy is -3.0993 and Call times are: 150306
C	1.6962	2.88308	0.960965
C	0.881851	1.68612	1.26964
O	0.707746	1.31936	2.42359
H	2.08743	3.31524	1.90757
H	1.07497	3.6465	0.447137
H	2.55308	2.60583	0.311364
N	0.358356	1.03917	0.22572
C	-0.42071	-0.165957	0.364603
C	-0.25088	-0.987269	-0.899581
O	0.321473	-0.519747	-1.8822
H	0.542839	1.32622	-0.709928
H	-0.0278697	-0.752652	1.18564
C	-1.91096	0.164508	0.599506
H	-2.31725	0.757407	-0.247513
H	-2.51919	-0.755064	0.721853
H	-2.01058	0.772485	1.52514
N	-0.74073	-2.24269	-0.900134
C	-0.620893	-3.10033	-2.0561
H	-1.19707	-2.60474	-0.0940676
H	-1.08482	-4.09203	-1.8598
H	0.450337	-3.26008	-2.3173
H	-1.12696	-2.64461	-2.93778
C	3.4489	-2.12742	2.50236
C	4.50411	-1.29326	1.88441
O	5.53494	-1.02752	2.48705
H	3.76027	-2.41087	3.53122
H	3.2935	-3.05133	1.90654
H	2.49628	-1.55962	2.5588
N	4.26396	-0.85296	0.647128
C	5.17694	0.00370998	-0.0678141
C	4.37143	0.851938	-1.03386
O	3.17766	0.627664	-1.2244
H	3.40251	-1.04366	0.185183
H	5.65593	0.677847	0.631278
C	6.233	-0.827958	-0.828279
H	5.74264	-1.5122	-1.55313
H	6.95032	-0.179307	-1.37163
H	6.80498	-1.44662	-0.102716
N	5.00892	1.85846	-1.66357
C	4.32253	2.72171	-2.59623
H	5.97416	2.0269	-1.49327
H	5.01684	3.48704	-3.00785
H	3.47772	3.24801	-2.09564
H	3.90729	2.1319	-3.44525
