44
  This energy is 0.1037 and Call times are: 150916
C	-3.26248	-0.747964	0.953643
C	-2.22417	-0.528795	-0.0783468
O	-2.42684	-0.813459	-1.25065
H	-4.16188	-1.19807	0.479962
H	-3.54773	0.218056	1.42074
H	-2.88443	-1.43929	1.7361
N	-1.06825	-0.0107888	0.343451
C	0.0511682	0.219471	-0.535433
C	1.32437	0.113971	0.282719
O	1.2802	0.0321833	1.50872
H	-0.903641	0.177579	1.30745
H	0.0836001	-0.561616	-1.28475
C	-0.0491117	1.60788	-1.20439
H	-0.0717857	2.41018	-0.43639
H	0.799967	1.7915	-1.89423
H	-0.991904	1.66535	-1.79107
N	2.49623	0.104903	-0.382645
C	3.75874	0.00214504	0.31138
H	2.51149	0.167855	-1.37505
H	4.6057	0.0110681	-0.409596
H	3.80833	-0.943355	0.898616
H	3.8898	0.85414	1.01712
C	9.9541	-1.79911	0.386366
C	8.57243	-1.65663	-0.125357
O	8.11127	-2.45167	-0.932614
H	10.4329	-2.68217	-0.0898681
H	9.94132	-1.947	1.48669
H	10.5479	-0.89309	0.142245
N	7.87115	-0.620273	0.339989
C	6.52917	-0.326115	-0.0971758
C	6.30883	1.16983	0.0259758
O	7.13483	1.88362	0.591599
H	8.27415	0.0416247	0.965562
H	6.43073	-0.581487	-1.1449
C	5.49203	-1.09759	0.74805
H	5.58561	-0.828037	1.82166
H	4.45536	-0.890204	0.412151
H	5.67722	-2.18951	0.649237
N	5.18491	1.68271	-0.51233
C	4.89294	3.09582	-0.448656
H	4.53041	1.08974	-0.9696
H	3.92442	3.32015	-0.947537
H	5.69214	3.68518	-0.953828
H	4.82947	3.43675	0.61006
