44
  This energy is 0.1004 and Call times are: 148944
C	2.04194	2.10194	-1.8775
C	1.84579	1.0123	-0.89498
O	2.78177	0.316222	-0.526442
H	3.10949	2.1302	-2.18638
H	1.77303	3.0791	-1.42407
H	1.41264	1.92558	-2.77526
N	0.601563	0.836866	-0.443866
C	0.246994	-0.20969	0.48218
C	-1.20385	-0.582331	0.241897
O	-1.91071	0.0889422	-0.507413
H	-0.157219	1.38491	-0.784104
H	0.844487	-1.08848	0.273948
C	0.452947	0.251871	1.94156
H	-0.167825	1.14712	2.15882
H	0.196506	-0.549982	2.66391
H	1.51967	0.52703	2.09238
N	-1.68127	-1.67453	0.870549
C	-3.0479	-2.10902	0.698183
H	-1.09286	-2.20726	1.46975
H	-3.24785	-3.0249	1.29685
H	-3.25526	-2.33784	-0.372293
H	-3.75714	-1.31448	1.02503
C	5.98446	-0.582279	0.564941
C	4.82251	0.325238	0.432868
O	4.89937	1.50295	0.754574
H	6.84261	-0.0202471	0.993359
H	6.27549	-0.97873	-0.430485
H	5.73507	-1.4274	1.2407
N	3.7005	-0.213618	-0.0499636
C	2.4756	0.532671	-0.195599
C	1.31413	-0.434763	-0.0665669
O	1.50619	-1.64879	-0.0354797
H	3.64153	-1.18337	-0.26896
H	2.39313	1.24565	0.615251
C	2.429	1.25582	-1.55946
H	2.50296	0.523855	-2.3918
H	1.49674	1.84521	-1.67796
H	3.29229	1.95248	-1.63515
N	0.0739623	0.085231	0.0205557
C	-1.09163	-0.757663	0.151296
H	-0.0610155	1.07029	-0.0022723
H	-2.01698	-0.143085	0.208336
H	-1.02586	-1.37855	1.07404
H	-1.17989	-1.44451	-0.721399
