44
  This energy is -3.3614 and Call times are: 147008
C	1.56887	0.702859	-3.02611
C	0.624729	-0.0817884	-2.19902
O	-0.166211	-0.862711	-2.70989
H	1.40296	0.464294	-4.09916
H	2.61569	0.447034	-2.75877
H	1.40268	1.78961	-2.86973
N	0.687004	0.114203	-0.879899
C	-0.196161	-0.544515	0.0499765
C	-0.36471	0.354663	1.26019
O	0.329117	1.36014	1.39924
H	1.30812	0.783474	-0.482202
H	-1.17217	-0.659691	-0.404739
C	0.370769	-1.91812	0.470734
H	1.36742	-1.79952	0.946822
H	-0.306952	-2.44137	1.17602
H	0.493292	-2.55652	-0.431368
N	-1.30345	0.0152033	2.16549
C	-1.53895	0.813604	3.34587
H	-1.85782	-0.799858	2.03353
H	-2.34967	0.370371	3.96513
H	-1.83829	1.84963	3.066
H	-0.616953	0.876812	3.96802
C	5.75405	2.44796	2.47349
C	6.32854	1.23312	1.85277
O	7.40781	0.786487	2.21625
H	6.45528	2.83255	3.24564
H	4.78357	2.20841	2.95673
H	5.59981	3.23415	1.70461
N	5.60759	0.66418	0.883787
C	6.05528	-0.497659	0.156973
C	5.43995	-0.454619	-1.22906
O	4.57481	0.373079	-1.5086
H	4.75028	1.06287	0.570871
H	7.13014	-0.450038	0.0343337
C	5.65071	-1.79604	0.88894
H	4.54733	-1.85041	1.00566
H	6.00183	-2.69757	0.346276
H	6.10554	-1.80231	1.90355
N	5.88165	-1.34686	-2.13725
C	5.35839	-1.37759	-3.48314
H	6.58522	-2.00614	-1.8935
H	5.84788	-2.18058	-4.07715
H	5.53597	-0.404558	-3.99593
H	4.26069	-1.56764	-3.47385
