44
  This energy is -0.2415 and Call times are: 146646
C	-0.585967	-1.17641	3.22264
C	-0.72815	-0.152489	2.16315
O	-1.50553	0.783744	2.28791
H	-1.28181	-0.940695	4.05697
H	0.45364	-1.18199	3.61242
H	-0.834941	-2.18088	2.81996
N	0.0318213	-0.312649	1.07725
C	-0.0268799	0.577672	-0.0551953
C	0.354095	-0.208729	-1.29535
O	0.800852	-1.3506	-1.20445
H	0.629791	-1.10218	0.972666
H	-1.04605	0.918064	-0.189536
C	0.924354	1.77901	0.137626
H	1.97155	1.43086	0.264955
H	0.877958	2.47912	-0.721569
H	0.63189	2.33516	1.05497
N	0.176916	0.385786	-2.49167
C	0.506186	-0.28736	-3.72644
H	-0.189666	1.30873	-2.54514
H	0.289304	0.36572	-4.60032
H	-0.0871032	-1.2243	-3.83331
H	1.58656	-0.558221	-3.75044
C	5.88682	2.65549	-2.22779
C	6.40002	2.06041	-0.973334
O	7.2505	2.63048	-0.303909
H	6.40478	3.62116	-2.41499
H	4.79574	2.84324	-2.14394
H	6.07964	1.97277	-3.08207
N	5.88654	0.878731	-0.623549
C	6.31717	0.155922	0.547206
C	6.11832	-1.3256	0.288123
O	5.51083	-1.71486	-0.707437
H	5.2248	0.407956	-1.20002
H	7.37735	0.31773	0.697047
C	5.52017	0.599418	1.79354
H	4.43344	0.423851	1.64444
H	5.85205	0.0599496	2.70423
H	5.67406	1.68807	1.95933
N	6.63712	-2.19162	1.18079
C	6.50245	-3.62003	1.01439
H	7.12897	-1.85765	1.97805
H	6.99574	-4.16169	1.85135
H	6.97092	-3.95007	0.058941
H	5.42798	-3.91351	0.991493
