44
  This energy is 0.1118 and Call times are: 154872
C	-3.15121	1.43922	-0.33349
C	-1.99012	1.01923	0.482981
O	-1.87407	1.37384	1.64797
H	-3.81161	2.09339	0.276278
H	-3.72984	0.550303	-0.661728
H	-2.80756	2.00596	-1.22445
N	-1.08879	0.242423	-0.122464
C	0.114835	-0.21082	0.529001
C	1.1783	-0.417633	-0.532992
O	0.894407	-0.361111	-1.72795
H	-1.17633	-0.00419988	-1.08339
H	0.472357	0.562712	1.19718
C	-0.137998	-1.52216	1.3047
H	-0.494735	-2.31906	0.617879
H	0.777932	-1.87405	1.82216
H	-0.925087	-1.34942	2.07086
N	2.43824	-0.655419	-0.118223
C	3.51718	-0.859138	-1.0566
H	2.6492	-0.693376	0.852924
H	4.47527	-1.03959	-0.521132
H	3.64367	0.0345457	-1.70975
H	3.30949	-1.73746	-1.70972
C	5.57555	1.99673	2.67845
C	4.901	1.80308	1.37514
O	4.1795	2.66964	0.900873
H	5.2948	2.98911	3.09345
H	6.67757	1.96041	2.54812
H	5.26178	1.20665	3.39286
N	5.12344	0.639867	0.758823
C	4.50324	0.289081	-0.494514
C	4.37157	-1.22124	-0.550716
O	4.90779	-1.93214	0.2971
H	5.68052	-0.0720644	1.17677
H	3.50246	0.7015	-0.525627
C	5.33871	0.804513	-1.68681
H	6.36222	0.373453	-1.66123
H	4.86442	0.552718	-2.65746
H	5.4287	1.91081	-1.62088
N	3.64228	-1.74841	-1.55384
C	3.45706	-3.17482	-1.68503
H	3.21266	-1.15674	-2.22795
H	2.8275	-3.40976	-2.57141
H	2.9576	-3.59091	-0.780211
H	4.43797	-3.68914	-1.80516
