44
  This energy is -0.3753 and Call times are: 152019
C	1.45827	0.955007	3.01232
C	1.21758	-0.0325666	1.93626
O	1.87218	-1.06353	1.86527
H	2.28922	0.598368	3.65901
H	0.545603	1.07457	3.63319
H	1.73893	1.93647	2.57522
N	0.25722	0.267965	1.0589
C	-0.0630347	-0.573589	-0.067058
C	-0.610453	0.306595	-1.17483
O	-0.869647	1.49063	-0.968457
H	-0.239112	1.13012	1.10597
H	0.84417	-1.03332	-0.43889
C	-1.09502	-1.65298	0.32682
H	-2.02983	-1.18174	0.698444
H	-1.33946	-2.31611	-0.528186
H	-0.676446	-2.28007	1.14408
N	-0.791981	-0.253935	-2.38681
C	-1.30326	0.507267	-3.50276
H	-0.572618	-1.21251	-2.53544
H	-1.38043	-0.130042	-4.41111
H	-0.631746	1.36592	-3.73309
H	-2.31492	0.912522	-3.27155
C	7.41955	-3.13906	1.00284
C	6.33593	-2.18485	0.676642
O	5.17873	-2.56051	0.549434
H	6.99586	-4.16405	1.07862
H	7.88653	-2.87052	1.97369
H	8.19231	-3.12768	0.205483
N	6.69452	-0.907289	0.529542
C	5.75977	0.129686	0.169721
C	6.51714	1.21024	-0.578863
O	7.74485	1.18996	-0.642336
H	7.64681	-0.623372	0.595822
H	5.02054	-0.27581	-0.509788
C	5.07743	0.717052	1.42457
H	5.83457	1.14263	2.11715
H	4.34512	1.50703	1.15966
H	4.53602	-0.0926469	1.96086
N	5.7964	2.18092	-1.1741
C	6.43027	3.24767	-1.91331
H	4.80363	2.17806	-1.1151
H	5.66935	3.9455	-2.32717
H	7.02735	2.83797	-2.76002
H	7.11715	3.82767	-1.25533
