44
  This energy is -3.3161 and Call times are: 148670
C	-2.63708	-1.67649	-1.53228
C	-1.23513	-1.60567	-1.06253
O	-0.526512	-2.60235	-1.03246
H	-2.88101	-2.72669	-1.8033
H	-2.77385	-1.03341	-2.42698
H	-3.32722	-1.34316	-0.728735
N	-0.798448	-0.404436	-0.676869
C	0.527871	-0.186083	-0.155562
C	0.474046	0.995404	0.794567
O	-0.538013	1.68816	0.881373
H	-1.39962	0.389536	-0.668469
H	0.831661	-1.05054	0.421551
C	1.53218	0.0828141	-1.29762
H	1.22667	0.975808	-1.88351
H	2.55976	0.238811	-0.910001
H	1.54916	-0.791196	-1.98477
N	1.56771	1.24856	1.54011
C	1.60678	2.34827	2.47569
H	2.37562	0.674314	1.45886
H	2.59096	2.39033	2.99226
H	0.81064	2.23625	3.24698
H	1.44461	3.31721	1.95034
C	4.35719	-2.35783	-1.40063
C	5.68167	-1.70723	-1.2839
O	6.67303	-2.19021	-1.81339
H	4.45781	-3.29159	-1.99546
H	3.64199	-1.6806	-1.91306
H	3.96649	-2.61385	-0.393213
N	5.72759	-0.578001	-0.573184
C	6.95163	0.145602	-0.335112
C	6.81745	0.880541	0.985278
O	5.73763	0.930965	1.57108
H	4.91998	-0.219187	-0.113979
H	7.76813	-0.558061	-0.231091
C	7.23656	1.14011	-1.48185
H	6.40405	1.86876	-1.58211
H	8.18368	1.69357	-1.31703
H	7.32295	0.58133	-2.43926
N	7.9218	1.46413	1.4911
C	7.89125	2.18081	2.74473
H	8.7874	1.40899	1.00452
H	8.89715	2.58736	2.98992
H	7.57344	1.50816	3.57408
H	7.17224	3.03031	2.69443
