44
  This energy is -4.4667 and Call times are: 156017
C	1.47092	2.52801	1.88633
C	1.10325	1.91501	0.590107
O	1.21371	2.53626	-0.45787
H	1.8137	3.57158	1.71502
H	2.29315	1.95318	2.36199
H	0.5918	2.54529	2.56453
N	0.647846	0.660824	0.634701
C	0.210397	-0.0532892	-0.538857
C	-0.840785	-1.06153	-0.114563
O	-1.06352	-1.27616	1.07541
H	0.524962	0.182481	1.49954
H	-0.264472	0.639558	-1.2223
C	1.39666	-0.764503	-1.22602
H	1.87763	-1.48311	-0.528651
H	1.07505	-1.30657	-2.13885
H	2.15695	-0.00856614	-1.52075
N	-1.52147	-1.70141	-1.08577
C	-2.54408	-2.67368	-0.777319
H	-1.32993	-1.5113	-2.04298
H	-2.98707	-3.08778	-1.70979
H	-3.36015	-2.20873	-0.178046
H	-2.11914	-3.51698	-0.186203
C	4.3617	-2.85559	-1.78026
C	5.30336	-1.7588	-1.46166
O	6.45204	-1.76855	-1.8822
H	4.88103	-3.61635	-2.40267
H	3.49199	-2.4609	-2.34644
H	4.0059	-3.33807	-0.845549
N	4.82929	-0.77328	-0.695903
C	5.63836	0.340069	-0.266462
C	5.09486	0.835719	1.06038
O	4.03045	0.409034	1.50385
H	3.90442	-0.799808	-0.327445
H	6.65154	-0.000526461	-0.0930291
C	5.62	1.47273	-1.31621
H	4.58196	1.82971	-1.48675
H	6.25049	2.33015	-1.00345
H	6.01434	1.08538	-2.28099
N	5.82328	1.74868	1.73264
C	5.38828	2.27399	3.00582
H	6.68403	2.07885	1.35958
H	6.12246	3.01157	3.39848
H	5.28109	1.45445	3.75292
H	4.40128	2.78084	2.90538
