44
  This energy is 0.1565 and Call times are: 152191
C	2.69476	1.95134	1.02139
C	2.02298	1.06696	0.0427541
O	2.46485	0.924158	-1.08896
H	3.58226	2.42047	0.54376
H	3.0292	1.36349	1.90191
H	2.00037	2.75168	1.35361
N	0.919337	0.445293	0.464514
C	0.133132	-0.413066	-0.386169
C	-1.30468	-0.368154	0.0957499
O	-1.59754	0.187352	1.1528
H	0.549113	0.603454	1.37544
H	0.146919	-0.0241844	-1.39672
C	0.669431	-1.86106	-0.355745
H	0.645638	-2.26418	0.679132
H	0.0808592	-2.52892	-1.01762
H	1.72515	-1.86882	-0.704669
N	-2.24212	-0.949171	-0.678612
C	-3.63701	-0.951326	-0.303797
H	-1.9863	-1.39015	-1.53252
H	-4.24912	-1.47711	-1.06937
H	-4.01878	0.0906732	-0.204985
H	-3.78048	-1.46573	0.673926
C	8.38003	-2.03001	-1.9145
C	7.06288	-1.70248	-1.32373
O	6.05028	-2.29779	-1.66528
H	8.2537	-2.83618	-2.66947
H	9.07645	-2.38286	-1.12505
H	8.80915	-1.13517	-2.41268
N	7.04783	-0.729435	-0.409762
C	5.83599	-0.27007	0.221887
C	6.02371	1.18651	0.602292
O	7.12575	1.7241	0.511668
H	7.87376	-0.22624	-0.172057
H	5.02231	-0.314936	-0.491223
C	5.5091	-1.11803	1.47062
H	6.339	-1.06387	2.20709
H	4.57064	-0.782966	1.95801
H	5.38381	-2.18112	1.16982
N	4.94157	1.86499	1.03199
C	5.02306	3.25642	1.41076
H	4.05744	1.41392	1.09466
H	4.02862	3.63454	1.73533
H	5.37127	3.87709	0.553556
H	5.74183	3.39366	2.2508
