44
  This energy is -4.9025 and Call times are: 157302
C	0.670211	0.0842055	3.41415
C	0.0157897	-0.514192	2.22891
O	-0.530461	-1.60693	2.29167
H	0.580987	-0.614005	4.27463
H	0.179505	1.04453	3.6782
H	1.74632	0.26384	3.20722
N	0.0598024	0.200943	1.1024
C	-0.494965	-0.268526	-0.142747
C	0.291958	0.35929	-1.27772
O	1.11449	1.24648	-1.05849
H	0.543657	1.07023	1.05667
H	-0.360897	-1.34086	-0.211792
C	-1.99108	0.0984342	-0.253304
H	-2.12821	1.19917	-0.193113
H	-2.43324	-0.269756	-1.2017
H	-2.54601	-0.364922	0.591507
N	0.0618701	-0.0961587	-2.52497
C	0.767438	0.437505	-3.66671
H	-0.604585	-0.817459	-2.68193
H	0.439159	-0.0662033	-4.60251
H	1.86577	0.287767	-3.55484
H	0.576837	1.53018	-3.771
C	5.30108	-2.63835	2.23405
C	4.45537	-1.74451	1.41127
O	3.26801	-1.98093	1.23606
H	4.68741	-3.48974	2.60066
H	5.70615	-2.08505	3.10727
H	6.14124	-3.03623	1.62668
N	5.0602	-0.680626	0.87768
C	4.3789	0.25604	0.0191681
C	5.39912	0.856555	-0.929568
O	6.60111	0.648644	-0.775663
H	6.03659	-0.523794	0.995641
H	3.65185	-0.274688	-0.582789
C	3.69142	1.3639	0.84698
H	4.43835	1.91557	1.45673
H	3.15171	2.08369	0.198036
H	2.95501	0.900983	1.53962
N	4.93901	1.61396	-1.94478
C	5.83505	2.22204	-2.90057
H	3.96263	1.7674	-2.05527
H	5.26568	2.80457	-3.65802
H	6.42991	1.4439	-3.43152
H	6.54588	2.91117	-2.38973
