44
  This energy is 0.1421 and Call times are: 149171
C	3.02849	-0.918839	1.44799
C	1.67866	-0.315768	1.52154
O	1.17007	-0.0316164	2.59718
H	3.42494	-1.0585	2.47717
H	3.71544	-0.252035	0.885668
H	2.97903	-1.90746	0.944719
N	1.05815	-0.106136	0.358178
C	-0.27587	0.433605	0.270844
C	-0.918829	-0.0972211	-0.996588
O	-0.257165	-0.718872	-1.82572
H	1.46826	-0.380444	-0.506942
H	-0.862814	0.0722546	1.10604
C	-0.246484	1.97769	0.257377
H	0.346759	2.34903	-0.605297
H	-1.26858	2.40551	0.204339
H	0.235235	2.34374	1.19028
N	-2.23539	0.130305	-1.17244
C	-2.93403	-0.341698	-2.34517
H	-2.75479	0.631723	-0.488426
H	-4.00814	-0.055529	-2.30481
H	-2.86959	-1.45139	-2.42068
H	-2.48948	0.0936086	-3.2693
C	0.781838	-0.240199	2.62878
C	1.16664	0.227751	1.27819
O	0.340776	0.712741	0.517165
H	-0.309717	-0.0870575	2.77339
H	1.33116	0.334502	3.40384
H	1.01074	-1.3212	2.73886
N	2.45197	0.0877508	0.945459
C	2.96821	0.45716	-0.348984
C	4.16514	-0.425003	-0.650174
O	4.63819	-1.16113	0.213569
H	3.10414	-0.346396	1.56031
H	2.21907	0.253166	-1.10383
C	3.37318	1.94729	-0.376681
H	4.14936	2.15488	0.39046
H	3.75936	2.24746	-1.37231
H	2.48394	2.57361	-0.145828
N	4.68014	-0.376701	-1.89455
C	5.81549	-1.18459	-2.27462
H	4.2811	0.222146	-2.581
H	6.08873	-1.00362	-3.33755
H	5.58567	-2.26777	-2.15137
H	6.69884	-0.944669	-1.63957
