44
  This energy is -2.3492 and Call times are: 155639
C	0.850518	-2.82325	1.84894
C	0.661063	-2.11652	0.562168
O	1.05641	-2.59992	-0.489704
H	1.39073	-3.7778	1.66764
H	-0.133909	-3.04939	2.30992
H	1.44923	-2.198	2.54442
N	0.042948	-0.934566	0.619663
C	-0.175345	-0.110147	-0.542767
C	-0.214044	1.3387	-0.0945618
O	-0.235252	1.62796	1.10026
H	-0.236558	-0.535431	1.48824
H	0.663927	-0.216368	-1.21876
C	-1.49318	-0.493175	-1.25118
H	-2.35572	-0.374289	-0.561305
H	-1.66568	0.125283	-2.15576
H	-1.44562	-1.55932	-1.56329
N	-0.215623	2.28898	-1.05008
C	-0.245791	3.69441	-0.718368
H	-0.194038	2.03539	-2.01148
H	-0.241744	4.3163	-1.64057
H	0.641438	3.97221	-0.104425
H	-1.16129	3.94059	-0.133224
C	4.23764	-0.857244	3.03964
C	5.27757	-1.02685	1.99996
O	6.26747	-1.71672	2.20141
H	4.53472	-1.41958	3.95144
H	3.2651	-1.2504	2.67585
H	4.128	0.216755	3.2996
N	5.07276	-0.387657	0.84589
C	6.01601	-0.422044	-0.243902
C	5.87521	0.866525	-1.03215
O	4.95341	1.64729	-0.803251
H	4.28233	0.203142	0.711638
H	7.0223	-0.447655	0.1553
C	5.76318	-1.64392	-1.15403
H	4.7345	-1.61261	-1.57222
H	6.49186	-1.68926	-1.98919
H	5.86357	-2.57504	-0.554624
N	6.79801	1.12374	-1.97993
C	6.74827	2.32763	-2.77639
H	7.53887	0.481839	-2.14777
H	7.59306	2.35602	-3.49941
H	6.81199	3.23091	-2.12732
H	5.79426	2.38078	-3.34927
