44
  This energy is -10.367 and Call times are: 149767
C	-0.515085	-2.28241	2.57643
C	0.324584	-1.68292	1.51496
O	1.51702	-1.94205	1.42916
H	0.11559	-2.934	3.21951
H	-1.32237	-2.89642	2.12474
H	-0.965042	-1.48488	3.20458
N	-0.290397	-0.851842	0.670279
C	0.402873	-0.159112	-0.387105
C	-0.329903	1.14075	-0.660853
O	-1.42112	1.36975	-0.142672
H	-1.25272	-0.618982	0.777861
H	1.40029	0.0972013	-0.0523014
C	0.466152	-1.02447	-1.66476
H	-0.557029	-1.27889	-2.01463
H	1.00971	-0.507588	-2.48201
H	0.999408	-1.9737	-1.43905
N	0.261705	2.03126	-1.48124
C	-0.358099	3.29748	-1.79541
H	1.1467	1.82975	-1.88775
H	0.283556	3.88904	-2.48502
H	-0.521619	3.89521	-0.869531
H	-1.34686	3.14057	-2.28416
C	4.83909	3.38808	-0.779619
C	4.21139	2.05788	-0.613132
O	2.99521	1.92646	-0.620438
H	4.04459	4.1589	-0.881864
H	5.47199	3.40112	-1.69177
H	5.46298	3.6304	0.106442
N	5.04247	1.02517	-0.454371
C	4.58013	-0.323183	-0.238197
C	5.63094	-1.05945	0.571301
O	6.7301	-0.552116	0.786203
H	6.02907	1.15356	-0.409641
H	3.6743	-0.299478	0.354701
C	4.32936	-1.04248	-1.58169
H	5.26097	-1.07637	-2.18584
H	3.95977	-2.07713	-1.42863
H	3.56312	-0.482062	-2.16059
N	5.31157	-2.27837	1.04905
C	6.24567	-3.05099	1.83436
H	4.4157	-2.67048	0.868131
H	5.79725	-4.02383	2.13392
H	6.53343	-2.4985	2.75806
H	7.17293	-3.25658	1.25207
