44
  This energy is -3.2552 and Call times are: 150678
C	-2.4069	1.75091	1.80384
C	-1.03472	1.22255	1.63322
O	-0.124409	1.57527	2.37033
H	-2.41929	2.47545	2.64691
H	-3.11038	0.922628	2.03144
H	-2.73473	2.27037	0.878751
N	-0.853746	0.351396	0.63787
C	0.433196	-0.216072	0.321136
C	0.454909	-0.54152	-1.16047
O	-0.569528	-0.468398	-1.83641
H	-1.59562	0.105259	0.0206964
H	1.2036	0.523544	0.500254
C	0.697078	-1.48665	1.15854
H	-0.0871762	-2.24978	0.96719
H	1.6909	-1.9252	0.933792
H	0.668659	-1.22642	2.2392
N	1.63388	-0.902853	-1.70407
C	1.75214	-1.22555	-3.10695
H	2.45272	-0.952321	-1.14183
H	2.80032	-1.49771	-3.36087
H	1.45345	-0.356221	-3.73649
H	1.09319	-2.08459	-3.36958
C	5.18091	2.97375	-1.77981
C	5.77457	1.6328	-1.57838
O	6.44787	1.10113	-2.45039
H	5.43925	3.34077	-2.79688
H	5.58111	3.68628	-1.02822
H	4.07564	2.92081	-1.68687
N	5.53143	1.0465	-0.403846
C	6.00545	-0.275513	-0.0780331
C	5.03775	-0.893995	0.913234
O	4.14461	-0.221458	1.4248
H	4.94754	1.47438	0.280145
H	5.99073	-0.890064	-0.969511
C	7.42918	-0.219805	0.517898
H	7.44269	0.401938	1.43839
H	7.81083	-1.23282	0.760098
H	8.11857	0.243473	-0.221322
N	5.18919	-2.2015	1.20224
C	4.31213	-2.87711	2.12985
H	5.91529	-2.73007	0.775084
H	4.59836	-3.94694	2.23363
H	3.25617	-2.82941	1.77777
H	4.36241	-2.40131	3.13595
