44
  This energy is -1.7256 and Call times are: 152605
C	-1.64302	-2.84724	1.14298
C	-0.446888	-1.97963	1.05548
O	0.522066	-2.16252	1.77942
H	-1.4884	-3.60667	1.93999
H	-1.80899	-3.36878	0.176958
H	-2.53848	-2.24032	1.39376
N	-0.490911	-0.997539	0.152187
C	0.578734	-0.0463232	-0.019882
C	-0.0194078	1.25062	-0.531475
O	-1.19626	1.30582	-0.883158
H	-1.30288	-0.835994	-0.401415
H	1.02851	0.163444	0.942581
C	1.63858	-0.580698	-1.00802
H	1.17981	-0.786092	-1.99867
H	2.47446	0.136825	-1.13836
H	2.05691	-1.53399	-0.6174
N	0.781457	2.33348	-0.576874
C	0.298293	3.61192	-1.04411
H	1.72982	2.27013	-0.284188
H	1.10605	4.37563	-1.00543
H	-0.54918	3.96589	-0.413424
H	-0.0621954	3.5355	-2.09547
C	6.3872	3.46982	-0.0638508
C	6.37086	2.1746	0.652604
O	6.37664	2.12725	1.87495
H	6.42195	4.29855	0.676314
H	5.47052	3.57736	-0.681008
H	7.28242	3.53418	-0.717685
N	6.35208	1.07662	-0.10665
C	6.37773	-0.255006	0.445327
C	7.0404	-1.17293	-0.564549
O	7.29884	-0.77813	-1.69991
H	6.38898	1.13069	-1.10042
H	6.99158	-0.260159	1.33739
C	4.94945	-0.746108	0.767921
H	4.32227	-0.751027	-0.148957
H	4.95686	-1.765	1.20647
H	4.48097	-0.0552478	1.50248
N	7.34005	-2.42569	-0.168544
C	7.97653	-3.36806	-1.05906
H	7.12689	-2.72551	0.755439
H	8.14005	-4.34271	-0.54863
H	8.96406	-2.98095	-1.39996
H	7.34555	-3.54534	-1.95994
