44
  This energy is -4.4608 and Call times are: 156669
C	1.24457	-1.9273	-2.6171
C	1.42272	-0.954374	-1.51582
O	2.53791	-0.635282	-1.12731
H	2.24141	-2.27927	-2.96108
H	0.718746	-1.44829	-3.46963
H	0.65697	-2.80107	-2.26449
N	0.307058	-0.455306	-0.978596
C	0.318817	0.468364	0.128316
C	-0.96592	0.282158	0.913384
O	-1.87179	-0.427126	0.479749
H	-0.59401	-0.755668	-1.27814
H	1.13982	0.222333	0.790171
C	0.442654	1.92496	-0.36991
H	-0.405039	2.18122	-1.04057
H	0.466751	2.64486	0.473711
H	1.38576	2.03607	-0.948312
N	-1.07089	0.913061	2.09954
C	-2.25401	0.790302	2.9189
H	-0.325601	1.47937	2.43556
H	-2.14768	1.38256	3.8544
H	-2.43102	-0.274141	3.19621
H	-3.15153	1.15813	2.37091
C	5.77409	0.872314	3.36167
C	5.16863	0.651405	2.02909
O	3.95452	0.623373	1.88222
H	4.96704	0.976042	4.11914
H	6.38324	1.80057	3.35612
H	6.41716	0.0100743	3.63749
N	6.01718	0.484621	1.01197
C	5.57852	0.217829	-0.335231
C	6.6594	-0.584977	-1.03436
O	7.75683	-0.756609	-0.507207
H	7.0028	0.469213	1.154
H	4.68791	-0.397443	-0.305677
C	5.30309	1.53312	-1.09641
H	6.21931	2.16001	-1.13615
H	4.95134	1.34082	-2.13073
H	4.51489	2.10783	-0.562756
N	6.36862	-1.10572	-2.24278
C	7.33269	-1.88842	-2.98042
H	5.47371	-0.959453	-2.65122
H	6.90507	-2.22737	-3.94969
H	7.63659	-2.78808	-2.39771
H	8.24742	-1.28843	-3.19119
