44
  This energy is -4.7043 and Call times are: 154390
C	-3.06158	-1.45569	-0.787646
C	-1.62179	-1.22851	-1.04558
O	-1.01115	-1.90274	-1.86347
H	-3.41973	-2.29696	-1.42
H	-3.64382	-0.544244	-1.03866
H	-3.22286	-1.71471	0.280056
N	-1.03825	-0.257688	-0.338921
C	0.365507	0.0521677	-0.448506
C	0.828938	0.622717	0.878619
O	0.0194727	0.903893	1.76033
H	-1.53885	0.255148	0.352649
H	0.920888	-0.861818	-0.618248
C	0.620382	1.06069	-1.59007
H	0.059147	2.0025	-1.41105
H	1.6993	1.29676	-1.6936
H	0.266418	0.625484	-2.5501
N	2.15318	0.79984	1.05482
C	2.6873	1.33198	2.28678
H	2.7929	0.562583	0.331266
H	3.7963	1.4016	2.23695
H	2.41548	0.678648	3.14733
H	2.28038	2.3501	2.48425
C	6.28517	3.1587	1.03142
C	5.65503	2.25088	0.0465484
O	5.03941	2.68949	-0.915245
H	6.07949	4.2126	0.743579
H	7.38378	2.99926	1.05066
H	5.86734	2.97455	2.04363
N	5.79591	0.942325	0.270637
C	5.20297	-0.0631182	-0.575568
C	4.93405	-1.294	0.26953
O	5.36301	-1.37476	1.41896
H	6.26491	0.600727	1.08008
H	4.24732	0.293889	-0.938741
C	6.13572	-0.410339	-1.75653
H	7.11249	-0.786603	-1.38454
H	5.68436	-1.17346	-2.42319
H	6.32515	0.506496	-2.35641
N	4.20491	-2.28404	-0.282006
C	3.89393	-3.49073	0.448305
H	3.86305	-2.19862	-1.21201
H	3.28589	-4.18233	-0.175565
H	3.31761	-3.25344	1.37179
H	4.82717	-4.01912	0.749998
