44
  This energy is -1.1365 and Call times are: 151565
C	0.459909	0.322816	3.43467
C	0.420223	0.886411	2.06649
O	0.443119	2.09499	1.87884
H	0.491823	1.15317	4.17316
H	1.3651	-0.307194	3.56294
H	-0.446634	-0.290401	3.62239
N	0.356427	0.00699019	1.06403
C	0.268515	0.404467	-0.31903
C	-0.471482	-0.68147	-1.07712
O	-0.735881	-1.75568	-0.540583
H	0.297187	-0.972483	1.23429
H	-0.32152	1.30939	-0.393836
C	1.67405	0.623114	-0.920622
H	2.27617	-0.308019	-0.853672
H	1.61939	0.942944	-1.9814
H	2.20013	1.41608	-0.345473
N	-0.832316	-0.421118	-2.34914
C	-1.54451	-1.39216	-3.14666
H	-0.613081	0.455452	-2.76463
H	-1.75058	-0.990911	-4.16341
H	-2.5166	-1.65495	-2.66995
H	-0.948095	-2.32713	-3.25272
C	4.50499	-2.16605	0.397415
C	5.70062	-1.69442	-0.336894
O	6.19013	-2.35683	-1.24133
H	4.19708	-3.15744	-0.00031743
H	3.66718	-1.44965	0.264838
H	4.7358	-2.26859	1.47875
N	6.2062	-0.519226	0.0448083
C	7.39182	0.049737	-0.546082
C	8.06927	0.919173	0.496369
O	7.51291	1.17258	1.56311
H	5.82105	-0.0110834	0.809861
H	8.08128	-0.745687	-0.800169
C	7.03923	0.881526	-1.7987
H	6.34018	1.70413	-1.53662
H	7.94531	1.31356	-2.27081
H	6.53749	0.227072	-2.54454
N	9.29889	1.39209	0.212817
C	10.023	2.22297	1.14634
H	9.73444	1.17281	-0.653954
H	11.0141	2.50982	0.73073
H	10.1887	1.68262	2.10647
H	9.45281	3.154	1.36813
