44
  This energy is -2.2139 and Call times are: 149664
C	0.952231	3.3367	0.268995
C	1.15829	1.95894	-0.231464
O	1.9979	1.71524	-1.08707
H	1.64207	4.0276	-0.262661
H	1.16465	3.38417	1.35774
H	-0.0938108	3.65923	0.0822684
N	0.380747	1.01229	0.299238
C	0.434866	-0.366907	-0.117236
C	-0.935209	-0.980886	0.10066
O	-1.81021	-0.368351	0.70966
H	-0.326249	1.23271	0.96515
H	0.643195	-0.411548	-1.17895
C	1.50819	-1.14172	0.678309
H	1.28912	-1.10513	1.76675
H	1.56917	-2.20174	0.357133
H	2.5011	-0.670271	0.510339
N	-1.1564	-2.21107	-0.403078
C	-2.43113	-2.8727	-0.249729
H	-0.437321	-2.68917	-0.89644
H	-2.41477	-3.87462	-0.73254
H	-3.2444	-2.27162	-0.717234
H	-2.67715	-3.00683	0.82852
C	5.15813	2.57266	-0.0990641
C	6.41204	1.97058	0.407253
O	7.20824	2.6259	1.06531
H	5.11599	3.64175	0.202806
H	4.2801	2.04384	0.327739
H	5.12403	2.51055	-1.20724
N	6.61882	0.687008	0.103818
C	7.8123	-0.0240482	0.489248
C	8.06517	-1.11398	-0.535293
O	7.22746	-1.37544	-1.39645
H	5.98101	0.178241	-0.467332
H	8.65742	0.652186	0.456079
C	7.66051	-0.632343	1.90069
H	6.80004	-1.33421	1.93248
H	8.57816	-1.17077	2.21458
H	7.46829	0.182273	2.63267
N	9.23862	-1.77335	-0.470091
C	9.56928	-2.82231	-1.40631
H	9.90555	-1.54477	0.231354
H	10.5764	-3.24105	-1.18816
H	9.57072	-2.4315	-2.44965
H	8.82535	-3.64958	-1.34857
