44
  This energy is -4.2839 and Call times are: 153111
C	-2.54392	-0.629289	-2.29023
C	-1.50515	-1.08398	-1.33872
O	-1.44073	-2.25254	-0.982729
H	-3.19327	-1.48921	-2.56364
H	-2.07041	-0.229368	-3.21142
H	-3.17048	0.160254	-1.82425
N	-0.656258	-0.152893	-0.897323
C	0.380471	-0.43427	0.0642278
C	0.656487	0.835414	0.847345
O	0.158057	1.90646	0.506554
H	-0.746799	0.80222	-1.16458
H	0.0234069	-1.176	0.767771
C	1.66473	-0.927559	-0.637611
H	2.03736	-0.162602	-1.35177
H	2.46604	-1.16081	0.093159
H	1.43742	-1.8528	-1.21085
N	1.45643	0.742211	1.92782
C	1.77093	1.89634	2.7373
H	1.84708	-0.133938	2.19017
H	2.44196	1.61546	3.57876
H	0.842883	2.34224	3.16295
H	2.28078	2.67697	2.12755
C	6.05055	3.4534	-0.162355
C	6.03035	2.11287	-0.789827
O	6.04915	1.98289	-2.00604
H	6.06517	4.23069	-0.956998
H	6.95723	3.56711	0.468322
H	5.14469	3.59654	0.463733
N	5.98856	1.06906	0.0415042
C	5.92138	-0.294978	-0.420491
C	5.20065	-1.11594	0.632191
O	4.93375	-0.635276	1.73193
H	5.93234	1.19186	1.02822
H	5.32728	-0.336973	-1.32487
C	7.33543	-0.861649	-0.674632
H	7.94191	-0.828527	0.255497
H	7.29659	-1.90692	-1.044
H	7.84709	-0.240867	-1.44221
N	4.85956	-2.38018	0.313825
C	4.1666	-3.23462	1.24972
H	5.08046	-2.75005	-0.58254
H	3.97514	-4.23464	0.801905
H	3.18827	-2.78741	1.53981
H	4.77028	-3.37457	2.17554
