44
  This energy is -2.5124 and Call times are: 157461
C	-1.11036	3.29839	-0.0194726
C	-0.550601	2.10774	-0.697818
O	-0.466837	2.05482	-1.91708
H	-1.42156	4.04384	-0.783238
H	-0.344871	3.75811	0.6404
H	-1.99643	3.01274	0.585815
N	-0.150561	1.10823	0.0916873
C	0.375218	-0.131374	-0.423587
C	0.0641353	-1.22907	0.57634
O	-0.392588	-0.959562	1.68561
H	-0.262974	1.1494	1.08039
H	-0.135694	-0.380409	-1.34531
C	1.89815	-0.029159	-0.659111
H	2.4238	0.215927	0.28834
H	2.31262	-0.972972	-1.06893
H	2.10297	0.785362	-1.38778
N	0.298292	-2.50187	0.200609
C	0.0276943	-3.61256	1.0834
H	0.664241	-2.70031	-0.702594
H	0.285578	-4.57686	0.59263
H	-1.05057	-3.63875	1.36257
H	0.624736	-3.52483	2.01987
C	5.15864	2.8502	-1.96789
C	5.14053	1.38105	-1.78779
O	4.70168	0.641973	-2.65818
H	4.71474	3.10473	-2.95482
H	6.20257	3.22689	-1.93546
H	4.56377	3.34103	-1.16896
N	5.62366	0.918822	-0.632226
C	5.63289	-0.482762	-0.294541
C	5.55104	-0.606054	1.21532
O	5.65584	0.385469	1.93476
H	5.93962	1.53535	0.0832591
H	4.7491	-0.954952	-0.705123
C	6.91015	-1.16976	-0.825465
H	7.81687	-0.692506	-0.396356
H	6.92255	-2.25234	-0.583828
H	6.95325	-1.0602	-1.93112
N	5.35193	-1.83443	1.73248
C	5.25519	-2.04796	3.15769
H	5.26549	-2.62402	1.13403
H	5.0909	-3.12459	3.38378
H	4.40638	-1.46658	3.58524
H	6.18966	-1.72084	3.66847
