44
  This energy is -5.0961 and Call times are: 153784
C	-2.52632	1.90724	1.44667
C	-1.55782	1.63579	0.360637
O	-1.60618	2.24686	-0.697978
H	-3.24117	2.69091	1.11392
H	-1.99462	2.26708	2.35251
H	-3.09338	0.984844	1.69311
N	-0.642565	0.694602	0.603223
C	0.338889	0.289928	-0.37225
C	0.704221	-1.15772	-0.10317
O	0.311427	-1.728	0.912809
H	-0.641404	0.177211	1.45421
H	-0.101039	0.333201	-1.3608
C	1.59333	1.18776	-0.29796
H	2.05109	1.13553	0.712866
H	2.35086	0.894967	-1.05357
H	1.30111	2.24324	-0.490073
N	1.46323	-1.79161	-1.01866
C	1.85599	-3.17132	-0.850381
H	1.76798	-1.31466	-1.83641
H	2.4766	-3.51102	-1.70868
H	0.959581	-3.82957	-0.783843
H	2.44894	-3.30004	0.0839573
C	4.27833	-0.537194	-3.31281
C	4.82869	-1.0054	-2.02089
O	5.01503	-2.19518	-1.80619
H	4.07608	-1.41423	-3.96531
H	5.00769	0.128139	-3.82087
H	3.32869	0.0139373	-3.14698
N	5.10313	-0.0627325	-1.11621
C	5.60282	-0.366889	0.2015
C	5.14623	0.729665	1.14525
O	4.61035	1.74884	0.714179
H	4.90767	0.89814	-1.2905
H	5.16102	-1.29359	0.545972
C	7.14376	-0.470411	0.196868
H	7.59777	0.483573	-0.14641
H	7.53982	-0.717952	1.20304
H	7.45553	-1.27336	-0.506274
N	5.3419	0.540318	2.46505
C	4.93504	1.52658	3.43867
H	5.77349	-0.292715	2.79499
H	5.18125	1.18706	4.46889
H	3.8368	1.70511	3.38158
H	5.45238	2.49615	3.25579
