44
  This energy is 0.2118 and Call times are: 157561
C	3.02128	-0.570766	-1.63057
C	2.23836	-0.142862	-0.449434
O	2.77735	0.0479296	0.632003
H	4.08854	-0.686255	-1.34159
H	2.94721	0.190728	-2.43517
H	2.64369	-1.54459	-2.00765
N	0.925863	0.0175232	-0.633806
C	0.0273667	0.388712	0.430845
C	-1.34124	-0.18546	0.116511
O	-1.57315	-0.698237	-0.976645
H	0.495505	-0.181193	-1.50969
H	0.362633	-0.0643437	1.35549
C	-0.0502039	1.92424	0.577101
H	-0.404191	2.38869	-0.367891
H	-0.728309	2.22244	1.40279
H	0.963586	2.32345	0.798936
N	-2.28291	-0.119493	1.07824
C	-3.61244	-0.644699	0.871633
H	-2.07511	0.295499	1.95783
H	-4.23935	-0.495873	1.77831
H	-3.57349	-1.73538	0.647649
H	-4.1081	-0.133767	0.0146548
C	7.0446	0.700957	2.86686
C	6.38935	-0.247481	1.93827
O	6.58294	-1.45235	2.02324
H	7.69588	0.136629	3.56915
H	6.27983	1.25405	3.45163
H	7.66887	1.42277	2.29911
N	5.58719	0.285641	1.01377
C	4.91402	-0.505465	0.013994
C	4.70885	0.360177	-1.21488
O	4.94445	1.56646	-1.18198
H	5.47169	1.27139	0.931257
H	5.55096	-1.33174	-0.276175
C	3.55918	-1.02562	0.542265
H	2.90139	-0.17801	0.830216
H	3.0374	-1.64775	-0.213531
H	3.73281	-1.64982	1.44591
N	4.26975	-0.241974	-2.33765
C	4.05071	0.500168	-3.55725
H	4.08855	-1.21982	-2.3459
H	3.69044	-0.171757	-4.36717
H	4.99478	0.984188	-3.89745
H	3.29035	1.2991	-3.40003
