44
  This energy is -4.0728 and Call times are: 155386
C	1.17456	-3.26234	0.300424
C	1.36538	-1.79639	0.376059
O	2.36749	-1.31395	0.885403
H	2.04158	-3.77058	0.775642
H	1.10561	-3.5851	-0.759676
H	0.24769	-3.55579	0.836983
N	0.389141	-1.04364	-0.136496
C	0.412228	0.397388	-0.0981063
C	-1.02147	0.893015	-0.0775309
O	-1.9585	0.117713	-0.258089
H	-0.439272	-1.45036	-0.510895
H	0.879258	0.722763	0.823113
C	1.16556	0.969792	-1.3188
H	0.680591	0.644918	-2.26394
H	1.20223	2.07819	-1.29356
H	2.20974	0.587656	-1.31791
N	-1.22631	2.20483	0.153138
C	-2.55649	2.76604	0.196332
H	-0.455595	2.81573	0.301028
H	-2.51578	3.85909	0.398325
H	-3.16046	2.28362	0.998679
H	-3.08153	2.60779	-0.773424
C	7.30151	0.14263	-3.40592
C	6.35167	0.0703502	-2.2729
O	5.15139	0.235527	-2.4416
H	6.74333	0.374655	-4.3389
H	7.82246	-0.829823	-3.53121
H	8.05053	0.942629	-3.2269
N	6.87837	-0.180344	-1.07202
C	6.08654	-0.237823	0.131413
C	6.96774	0.169299	1.29731
O	8.17938	0.316834	1.1495
H	7.8618	-0.271863	-0.94416
H	5.28375	0.485939	0.0657115
C	5.51926	-1.65736	0.351282
H	6.34283	-2.39878	0.429292
H	4.89623	-1.71118	1.2675
H	4.88426	-1.93744	-0.517435
N	6.3735	0.369615	2.49011
C	7.13072	0.764198	3.65506
H	5.39126	0.249291	2.58908
H	6.46341	0.878899	4.53754
H	7.64701	1.73538	3.4775
H	7.90507	0.000857232	3.89762
