44
  This energy is -4.1703 and Call times are: 151607
C	2.12735	1.75559	2.12249
C	0.813972	1.15403	1.79954
O	-0.0574053	1.04195	2.65074
H	2.14913	2.03416	3.1985
H	2.29089	2.66819	1.51162
H	2.94134	1.02698	1.92337
N	0.642131	0.744911	0.540384
C	-0.565457	0.101387	0.0863278
C	-0.205992	-0.82256	-1.062
O	0.91854	-0.801813	-1.5587
H	1.37532	0.805532	-0.130905
H	-0.963491	-0.514309	0.883271
C	-1.61051	1.14506	-0.365187
H	-1.20648	1.77005	-1.18992
H	-2.55008	0.66248	-0.70408
H	-1.85255	1.8151	0.48851
N	-1.15779	-1.66636	-1.50709
C	-0.905484	-2.58591	-2.59196
H	-2.0605	-1.67132	-1.08975
H	-1.81071	-3.19424	-2.81044
H	-0.0717254	-3.27843	-2.334
H	-0.622044	-2.03392	-3.51722
C	6.33284	1.53495	3.01049
C	6.13524	1.56395	1.54377
O	6.12246	2.6206	0.92755
H	6.43604	2.57553	3.38783
H	7.25431	0.96864	3.26138
H	5.46018	1.05833	3.50483
N	5.97177	0.382697	0.943513
C	5.72663	0.252996	-0.471281
C	4.92069	-1.01223	-0.697632
O	4.7304	-1.81003	0.218342
H	5.9437	-0.465863	1.4641
H	5.12092	1.08561	-0.806679
C	7.05425	0.197397	-1.25841
H	7.67143	-0.662826	-0.92202
H	6.87875	0.111493	-2.35035
H	7.63095	1.12953	-1.07163
N	4.41828	-1.22139	-1.93045
C	3.63421	-2.39474	-2.23811
H	4.5795	-0.562366	-2.65762
H	3.3121	-2.38445	-3.30271
H	2.72407	-2.43817	-1.59699
H	4.22664	-3.32122	-2.05977
