44
  This energy is -1.4782 and Call times are: 150509
C	-2.64444	-1.74279	-1.44302
C	-1.39321	-0.957929	-1.54078
O	-0.785028	-0.865382	-2.59812
H	-2.87212	-2.19576	-2.43239
H	-3.48748	-1.08372	-1.14695
H	-2.52946	-2.55453	-0.694054
N	-0.973889	-0.367472	-0.419219
C	0.248347	0.393807	-0.347438
C	0.777117	0.306773	1.07185
O	0.0991938	-0.194299	1.96687
H	-1.45779	-0.485777	0.44317
H	0.988944	-0.0575682	-0.995827
C	0.00541054	1.86616	-0.745428
H	-0.746528	2.33276	-0.073933
H	0.94181	2.45966	-0.707518
H	-0.388706	1.90525	-1.78441
N	2.01293	0.788824	1.30936
C	2.6013	0.744044	2.62769
H	2.54783	1.18683	0.57142
H	3.62107	1.18813	2.61851
H	2.68022	-0.307568	2.98708
H	1.97793	1.31185	3.35581
C	5.88731	2.54577	1.53165
C	6.53434	1.21453	1.54882
O	6.68746	0.598591	2.59457
H	5.61888	2.8371	2.57036
H	4.96317	2.51421	0.917053
H	6.58293	3.30398	1.11416
N	6.93702	0.735151	0.369656
C	7.62071	-0.526659	0.231986
C	8.51905	-0.447224	-0.987953
O	8.45128	0.508214	-1.75883
H	6.8423	1.2662	-0.467523
H	8.2588	-0.682995	1.09281
C	6.61242	-1.68755	0.0872819
H	5.96454	-1.53295	-0.801756
H	7.12641	-2.66617	-0.00558983
H	5.96047	-1.72173	0.987349
N	9.39338	-1.45313	-1.18718
C	10.292	-1.46077	-2.31796
H	9.43629	-2.21566	-0.550168
H	10.9315	-2.37073	-2.3059
H	10.9553	-0.565872	-2.29855
H	9.72054	-1.44623	-3.27421
