44
  This energy is -1.2725 and Call times are: 150537
C	1.16691	2.72635	-1.82155
C	1.38634	1.46343	-1.08125
O	2.46606	0.889418	-1.11485
H	2.09516	2.99634	-2.37049
H	0.916018	3.54538	-1.11517
H	0.340198	2.60274	-2.55255
N	0.347261	0.994705	-0.386278
C	0.394777	-0.244464	0.349088
C	-1.00849	-0.818812	0.399219
O	-1.97231	-0.161351	0.011263
H	-0.537534	1.45161	-0.401736
H	1.01462	-0.953504	-0.185414
C	0.938579	-0.0182272	1.77679
H	0.297031	0.70106	2.32913
H	0.993047	-0.967233	2.34858
H	1.96301	0.40975	1.71578
N	-1.15482	-2.07146	0.874084
C	-2.45141	-2.70282	0.954195
H	-0.362512	-2.58919	1.17949
H	-2.36334	-3.73051	1.37051
H	-2.91745	-2.77241	-0.0553811
H	-3.1345	-2.11596	1.61004
C	10.4513	-2.27803	1.58366
C	10.1996	-1.20935	0.590813
O	11.1225	-0.654756	0.0101225
H	11.5473	-2.43309	1.68654
H	9.98363	-3.22817	1.25005
H	10.035	-1.98831	2.57153
N	8.92158	-0.8908	0.372841
C	8.52157	0.157834	-0.532097
C	7.20096	0.724243	-0.0455349
O	6.57841	0.17863	0.863553
H	8.18349	-1.32275	0.883237
H	9.24939	0.958775	-0.494803
C	8.3819	-0.380364	-1.97296
H	7.62768	-1.19494	-2.01369
H	8.08774	0.420632	-2.68175
H	9.35776	-0.797013	-2.30529
N	6.74487	1.84508	-0.638605
C	5.50043	2.45931	-0.238312
H	7.26476	2.27435	-1.36971
H	5.29908	3.37056	-0.843554
H	5.53489	2.75266	0.835951
H	4.65082	1.75195	-0.375932
