44
  This energy is -7.9425 and Call times are: 155611
C	0.258104	-3.40693	-0.662478
C	-0.376287	-2.08467	-0.863266
O	-1.17615	-1.89745	-1.76967
H	-0.100842	-4.10928	-1.4459
H	-0.011312	-3.81314	0.335097
H	1.36228	-3.31719	-0.738911
N	-0.024973	-1.12185	-0.00773203
C	-0.524846	0.227141	-0.102067
C	0.521144	1.16075	0.47745
O	1.50308	0.716626	1.06929
H	0.658278	-1.2785	0.699725
H	-0.649262	0.489873	-1.1452
C	-1.86196	0.37434	0.656689
H	-1.7325	0.11507	1.7291
H	-2.26416	1.40529	0.579883
H	-2.60991	-0.323592	0.221026
N	0.337414	2.48545	0.311834
C	1.28294	3.44961	0.824247
H	-0.461268	2.82554	-0.173473
H	0.955764	4.48583	0.586705
H	2.29008	3.28862	0.375889
H	1.3786	3.35678	1.93031
C	8.43683	-1.66913	0.837722
C	7.03939	-1.26971	1.1184
O	6.40335	-1.78707	2.02625
H	8.73915	-2.47054	1.54639
H	9.11632	-0.80051	0.966376
H	8.52339	-2.05541	-0.19976
N	6.52231	-0.325014	0.329366
C	5.16207	0.136706	0.452316
C	4.69706	0.607212	-0.912954
O	5.48937	0.708691	-1.84765
H	7.03886	0.0574165	-0.431412
H	4.52811	-0.692396	0.740947
C	5.05921	1.28171	1.48364
H	5.70131	2.13675	1.18252
H	4.01441	1.63658	1.59754
H	5.412	0.917209	2.47309
N	3.38992	0.899104	-1.06196
C	2.85519	1.34898	-2.32602
H	2.7635	0.806878	-0.295037
H	1.76174	1.53658	-2.24605
H	3.02242	0.583437	-3.11802
H	3.3505	2.29331	-2.64858
