44
  This energy is -0.808 and Call times are: 146609
C	1.49848	3.13682	-0.16611
C	0.967753	1.91069	-0.803355
O	0.808813	1.84475	-2.01447
H	1.68164	3.90672	-0.946868
H	2.4553	2.91551	0.351827
H	0.76536	3.53536	0.56656
N	0.675105	0.896261	0.0137506
C	0.110758	-0.345274	-0.453864
C	-0.720422	-0.939143	0.667748
O	-0.691	-0.455197	1.79763
H	0.771388	0.979521	1.00151
H	-0.559422	-0.14418	-1.28033
C	1.22123	-1.32867	-0.884027
H	1.9029	-1.54351	-0.033612
H	0.798926	-2.28339	-1.25911
H	1.82161	-0.870181	-1.69992
N	-1.4928	-2.00448	0.377041
C	-2.32184	-2.63299	1.37896
H	-1.50639	-2.37935	-0.544023
H	-2.88088	-3.49112	0.945007
H	-3.05936	-1.90646	1.79068
H	-1.70043	-3.01003	2.22325
C	10.3012	-2.77434	-0.456649
C	10.0917	-1.35316	-0.09956
O	10.9808	-0.693501	0.420685
H	11.3283	-3.07985	-0.160685
H	10.1861	-2.91468	-1.552
H	9.56785	-3.41509	0.0769856
N	8.88872	-0.84336	-0.37418
C	8.52137	0.511586	-0.0459687
C	7.02207	0.553154	0.181952
O	6.31778	-0.419591	-0.0815893
H	8.1619	-1.40417	-0.760295
H	8.99708	0.79526	0.884541
C	8.92409	1.482	-1.17794
H	8.42804	1.19766	-2.13037
H	8.659	2.53048	-0.931088
H	10.0239	1.42908	-1.33274
N	6.49784	1.68646	0.688721
C	5.0822	1.81616	0.944285
H	7.08437	2.46147	0.899437
H	4.8481	2.82083	1.3603
H	4.74283	1.04655	1.67491
H	4.49915	1.68098	0.00464633
