44
  This energy is -5.86 and Call times are: 151154
C	-2.52563	-2.20252	0.939558
C	-1.47726	-1.20823	1.26118
O	-1.38517	-0.725292	2.38131
H	-3.15385	-2.37812	1.83977
H	-2.06088	-3.16305	0.632729
H	-3.17147	-1.82572	0.118582
N	-0.651439	-0.873862	0.266893
C	0.390722	0.111252	0.41525
C	0.63533	0.74871	-0.939508
O	0.111684	0.292359	-1.95403
H	-0.764608	-1.24496	-0.650355
H	0.0508251	0.893077	1.08297
C	1.68721	-0.533778	0.952185
H	2.04212	-1.32875	0.262187
H	2.49311	0.217024	1.0839
H	1.48279	-1.00082	1.94033
N	1.43613	1.83159	-0.985588
C	1.72196	2.50797	-2.22937
H	1.84743	2.1886	-0.153453
H	2.39864	3.37425	-2.05945
H	0.783014	2.88317	-2.69722
H	2.21356	1.81481	-2.94978
C	5.50684	0.101138	3.44874
C	5.11412	0.729282	2.16719
O	4.53598	1.80701	2.14146
H	5.17738	0.747769	4.29087
H	6.60999	-0.0155753	3.49552
H	5.02537	-0.894319	3.55036
N	5.42326	0.0556085	1.0568
C	5.06818	0.518336	-0.261671
C	4.9029	-0.69328	-1.15958
O	5.22677	-1.81394	-0.771075
H	5.85745	-0.839847	1.09553
H	4.1098	1.02055	-0.217924
C	6.15073	1.46544	-0.824084
H	7.13189	0.947412	-0.879042
H	5.88227	1.83954	-1.83329
H	6.26031	2.34066	-0.147085
N	4.38319	-0.495595	-2.38711
C	4.18395	-1.58968	-3.30877
H	4.12332	0.417964	-2.682
H	3.74664	-1.22446	-4.26408
H	3.49313	-2.34826	-2.87448
H	5.1513	-2.09353	-3.53574
