44
  This energy is 0.1007 and Call times are: 157331
C	2.21005	1.48804	2.23922
C	1.82413	1.06924	0.872907
O	2.44753	1.45382	-0.106829
H	3.08519	2.1711	2.18058
H	2.4864	0.601316	2.84758
H	1.36849	2.02331	2.72745
N	0.767233	0.259231	0.776783
C	0.246358	-0.198167	-0.487352
C	-1.23977	-0.454205	-0.321785
O	-1.76373	-0.425573	0.790133
H	0.245168	-0.0122858	1.58027
H	0.35824	0.586796	-1.22488
C	0.968896	-1.48252	-0.949542
H	0.845533	-2.29137	-0.198156
H	0.586269	-1.83696	-1.92857
H	2.05583	-1.27391	-1.05637
N	-1.95894	-0.703887	-1.43376
C	-3.3803	-0.953692	-1.37447
H	-1.51792	-0.718813	-2.32502
H	-3.79014	-1.13708	-2.39213
H	-3.91442	-0.0809978	-0.933569
H	-3.5966	-1.84576	-0.743148
C	2.44456	0.869854	-2.30801
C	3.02882	0.911901	-0.948589
O	2.60818	1.6889	-0.102572
H	1.63939	1.63246	-2.38547
H	2.01055	-0.1325	-2.50718
H	3.22431	1.09221	-3.0667
N	4.03063	0.0632168	-0.706702
C	4.72762	0.0170142	0.554498
C	6.1436	-0.461818	0.295107
O	6.47136	-0.889171	-0.810175
H	4.38914	-0.534594	-1.418
H	4.79518	1.01794	0.962179
C	4.01081	-0.924676	1.54679
H	3.95059	-1.95405	1.13352
H	4.53017	-0.958092	2.52642
H	2.97418	-0.559644	1.71557
N	7.0234	-0.39286	1.31354
C	8.3942	-0.820707	1.1585
H	6.74053	-0.0402756	2.1994
H	8.95823	-0.685112	2.10756
H	8.90211	-0.230586	0.361592
H	8.44028	-1.89676	0.87368
