44
  This energy is -1.1194 and Call times are: 152496
C	-1.65848	1.96252	-2.34748
C	-1.58791	0.792711	-1.4432
O	-2.5789	0.116389	-1.20461
H	-2.7033	2.08684	-2.70633
H	-0.993442	1.80984	-3.22335
H	-1.35221	2.88298	-1.80707
N	-0.393458	0.526283	-0.909646
C	-0.17741	-0.552743	0.0217968
C	0.978338	-0.17142	0.927554
O	1.65987	0.824768	0.693376
H	0.394827	1.11029	-1.08116
H	-1.05401	-0.665435	0.647502
C	0.129863	-1.87072	-0.722357
H	1.0352	-1.7588	-1.35629
H	0.284504	-2.71225	-0.0163603
H	-0.725713	-2.12609	-1.38502
N	1.22132	-0.956705	1.99541
C	2.29649	-0.669273	2.91604
H	0.656354	-1.7562	2.17059
H	2.3335	-1.42951	3.72715
H	2.15752	0.333363	3.38154
H	3.2774	-0.671718	2.38789
C	4.09938	-0.927412	-2.79783
C	5.30213	-1.02372	-1.94035
O	6.12676	-1.91231	-2.10409
H	4.10297	-1.76326	-3.53077
H	4.09968	0.0354131	-3.35075
H	3.1808	-0.997098	-2.1778
N	5.42863	-0.0955668	-0.989078
C	6.52267	-0.0837172	-0.0501965
C	6.03851	0.566659	1.23206
O	4.9424	1.12143	1.28192
H	4.72839	0.597127	-0.841785
H	6.79881	-1.103	0.189426
C	7.73338	0.684858	-0.623527
H	7.45337	1.7336	-0.859685
H	8.5873	0.689224	0.0845147
H	8.0657	0.196215	-1.5654
N	6.84722	0.505389	2.30828
C	6.46825	1.09131	3.57289
H	7.72867	0.0485898	2.24955
H	7.26534	0.935808	4.33296
H	5.5273	0.63125	3.95268
H	6.29712	2.18666	3.46304
