44
  This energy is -6.0154 and Call times are: 149836
C	1.94059	-2.85426	-0.447237
C	0.929791	-1.87917	-0.914819
O	0.54855	-1.87082	-2.07714
H	2.25556	-3.49422	-1.29995
H	1.51067	-3.49998	0.347097
H	2.83035	-2.3221	-0.0494704
N	0.467999	-1.0199	-0.00334072
C	-0.486062	0.0142252	-0.317829
C	-0.262743	1.1705	0.638575
O	0.49969	1.05723	1.59648
H	0.81811	-1.01252	0.928987
H	-0.297089	0.382256	-1.31857
C	-1.93221	-0.514824	-0.199455
H	-2.12991	-0.8828	0.829887
H	-2.67594	0.268304	-0.452622
H	-2.07053	-1.36531	-0.902226
N	-0.921295	2.32048	0.393876
C	-0.767004	3.47606	1.24653
H	-1.53077	2.39422	-0.388542
H	-1.38969	4.32152	0.879545
H	0.296256	3.80806	1.26953
H	-1.07726	3.23889	2.28991
C	3.20184	0.179776	-3.03261
C	3.92914	0.808408	-1.90699
O	4.29344	1.97492	-1.96141
H	3.09035	0.918305	-3.85601
H	2.19288	-0.145333	-2.70238
H	3.76728	-0.697776	-3.41109
N	4.1619	0.0341653	-0.844559
C	4.89508	0.491621	0.309449
C	5.57199	-0.707761	0.945731
O	5.31477	-1.84947	0.568854
H	3.89518	-0.925288	-0.831673
H	5.67569	1.17098	-0.00951986
C	3.95551	1.18315	1.32149
H	3.16071	0.483347	1.65705
H	4.51044	1.55217	2.20829
H	3.46515	2.05282	0.832047
N	6.46571	-0.473791	1.92682
C	7.16335	-1.5526	2.58685
H	6.66359	0.457197	2.21523
H	7.85468	-1.15704	3.36326
H	7.76033	-2.14131	1.85314
H	6.44189	-2.24427	3.07903
