44
  This energy is -4.6579 and Call times are: 153167
C	1.42695	-3.1607	0.294059
C	1.10306	-1.82158	0.835341
O	1.26257	-1.56219	2.02011
H	1.78929	-3.81236	1.11864
H	2.22249	-3.07996	-0.476224
H	0.522042	-3.62058	-0.156214
N	0.630539	-0.927545	-0.0363295
C	0.230811	0.402977	0.349012
C	-0.848866	0.868743	-0.609587
O	-1.12106	0.217345	-1.61622
H	0.46763	-1.16613	-0.989432
H	-0.207986	0.371654	1.33851
C	1.43425	1.37054	0.320636
H	1.87826	1.41107	-0.696834
H	1.14213	2.39534	0.628814
H	2.215	1.00586	1.02333
N	-1.49867	2.01125	-0.312151
C	-2.54478	2.52929	-1.16272
H	-1.26714	2.52225	0.509031
H	-2.9558	3.47616	-0.748326
H	-3.37796	1.79507	-1.25216
H	-2.15412	2.73444	-2.18568
C	8.63736	2.39505	-0.660133
C	7.23251	1.99878	-0.414112
O	6.36574	2.83647	-0.205787
H	8.72264	3.50184	-0.600258
H	8.95698	2.06411	-1.67061
H	9.30245	1.94148	0.104725
N	6.97365	0.689165	-0.430983
C	5.66358	0.148647	-0.166224
C	5.83464	-1.23833	0.424193
O	6.93798	-1.78027	0.449675
H	7.69737	0.017519	-0.561322
H	5.16977	0.758297	0.580169
C	4.82077	0.0866882	-1.45892
H	5.32184	-0.547214	-2.22125
H	3.80493	-0.314894	-1.26571
H	4.71529	1.11129	-1.87773
N	4.73967	-1.84477	0.923482
C	4.80695	-3.16285	1.51024
H	3.85633	-1.38858	0.897533
H	3.80343	-3.48793	1.86312
H	5.50364	-3.17069	2.37963
H	5.17492	-3.90598	0.766264
