44
  This energy is 0.1179 and Call times are: 153940
C	2.96099	-0.0813728	1.82718
C	1.85502	0.650581	1.16975
O	1.69472	1.84992	1.34949
H	3.53811	0.621821	2.46619
H	3.64111	-0.513661	1.06344
H	2.55563	-0.895642	2.46416
N	1.05307	-0.0690445	0.381466
C	-0.0907634	0.494193	-0.291564
C	-1.11946	-0.605391	-0.47666
O	-0.840744	-1.77686	-0.228262
H	1.17178	-1.05238	0.277406
H	-0.538711	1.25218	0.33885
C	0.312324	1.09393	-1.65651
H	0.762295	0.314345	-2.30752
H	-0.557343	1.54313	-2.17845
H	1.07142	1.89069	-1.49751
N	-2.34387	-0.249231	-0.912533
C	-3.38866	-1.22619	-1.11291
H	-2.5517	0.704247	-1.10426
H	-4.32041	-0.737215	-1.47343
H	-3.6175	-1.75745	-0.16072
H	-3.07721	-1.98592	-1.86588
C	8.86896	-0.0568602	-0.275447
C	7.5294	-0.616904	-0.563718
O	7.37855	-1.50092	-1.39569
H	9.6218	-0.551499	-0.926912
H	9.13869	-0.237102	0.786392
H	8.87928	1.0347	-0.479087
N	6.50994	-0.103452	0.128708
C	5.14319	-0.516081	-0.0719758
C	4.24032	0.651922	0.277547
O	4.69539	1.6623	0.810219
H	6.64294	0.644213	0.773043
H	4.98822	-0.741293	-1.11978
C	4.80349	-1.74344	0.801768
H	4.95221	-1.50962	1.87752
H	3.75783	-2.07933	0.645892
H	5.4815	-2.5832	0.534453
N	2.9315	0.542668	-0.0242539
C	1.99755	1.6055	0.266079
H	2.58274	-0.281076	-0.458862
H	0.970625	1.32582	-0.0570843
H	2.28941	2.54069	-0.264502
H	1.97491	1.82126	1.35882
