44
  This energy is -1.4443 and Call times are: 150481
C	-0.522077	-1.1997	-3.22503
C	-0.0432497	-1.36609	-1.83429
O	0.272368	-2.46557	-1.40077
H	-0.546615	-2.19172	-3.7262
H	0.161569	-0.52969	-3.78758
H	-1.546	-0.76997	-3.2284
N	0.0198591	-0.258311	-1.09184
C	0.425198	-0.267573	0.291694
C	-0.256748	0.89256	0.99212
O	-0.874713	1.74014	0.350679
H	-0.279331	0.623073	-1.44612
H	0.074602	-1.17855	0.760559
C	1.95994	-0.149599	0.417734
H	2.31898	0.78994	-0.0538555
H	2.28572	-0.169531	1.47792
H	2.43819	-1.00431	-0.108666
N	-0.166411	0.952349	2.33536
C	-0.78802	2.01683	3.08813
H	0.334506	0.254977	2.83718
H	-0.600692	1.8897	4.17715
H	-1.88945	2.02507	2.92059
H	-0.383908	3.00695	2.77587
C	5.27993	-0.702203	2.11906
C	6.10866	0.241496	1.3356
O	5.74976	1.39628	1.15097
H	4.351	-0.188453	2.4492
H	5.83716	-1.04805	3.01495
H	5.00373	-1.57809	1.49487
N	7.25469	-0.239085	0.847714
C	8.14567	0.546138	0.030322
C	8.89526	-0.396425	-0.892321
O	8.81548	-1.61483	-0.747968
H	7.5136	-1.19272	0.971846
H	7.56367	1.21307	-0.593455
C	9.13439	1.34773	0.905032
H	9.73906	0.663311	1.53748
H	9.81683	1.96715	0.287686
H	8.56376	2.02478	1.57757
N	9.6394	0.149931	-1.87403
C	10.383	-0.668332	-2.80334
H	9.68826	1.13786	-1.97744
H	10.9305	-0.0340797	-3.53495
H	9.69884	-1.34292	-3.36733
H	11.1244	-1.30115	-2.26382
