44
  This energy is -3.9282 and Call times are: 153636
C	-2.34992	-1.51587	2.07188
C	-1.72354	-0.31722	1.47019
O	-2.24038	0.786646	1.57394
H	-3.30092	-1.2235	2.56787
H	-1.67206	-1.96248	2.82937
H	-2.57127	-2.26767	1.28519
N	-0.577106	-0.512587	0.81452
C	0.127495	0.549162	0.140142
C	0.8996	-0.0560049	-1.01709
O	0.987411	-1.27555	-1.14637
H	-0.189954	-1.42346	0.703694
H	-0.589631	1.24402	-0.278825
C	1.0854	1.27749	1.10823
H	1.82792	0.567131	1.53024
H	1.62364	2.10623	0.604243
H	0.499897	1.70547	1.95107
N	1.47377	0.789203	-1.89571
C	2.22377	0.304702	-3.03103
H	1.38821	1.77285	-1.77662
H	2.61611	1.15296	-3.63415
H	1.57983	-0.323996	-3.68781
H	3.08607	-0.316272	-2.69643
C	5.90055	1.26105	-3.21902
C	5.88035	0.141153	-2.25124
O	5.89915	-1.02222	-2.6289
H	5.91517	0.852782	-4.25292
H	6.80723	1.88323	-3.06546
H	4.99469	1.89105	-3.0942
N	5.83856	0.474156	-0.959057
C	5.77138	-0.504261	0.0977042
C	5.05065	0.121761	1.27678
O	4.78375	1.32192	1.28674
H	5.78234	1.42509	-0.668505
H	5.17728	-1.34705	-0.233018
C	7.18543	-0.967526	0.511333
H	7.79191	-0.104852	0.860663
H	7.14659	-1.73129	1.31487
H	7.69709	-1.41496	-0.368643
N	4.70956	-0.684805	2.30104
C	4.0166	-0.179062	3.46303
H	4.93046	-1.65407	2.27292
H	3.82514	-0.995986	4.19324
H	3.03827	0.268271	3.17312
H	4.62028	0.609042	3.9686
