44
  This energy is -1.5913 and Call times are: 156157
C	-2.60026	1.02713	2.07276
C	-2.08009	0.564239	0.766506
O	-2.83736	0.218798	-0.129943
H	-3.71082	0.97734	2.06437
H	-2.28897	2.07658	2.2585
H	-2.21761	0.378357	2.8887
N	-0.752209	0.544972	0.629623
C	-0.0972483	0.079045	-0.567247
C	1.26185	-0.47187	-0.178783
O	1.70049	-0.321118	0.959893
H	-0.148063	0.790244	1.38243
H	-0.667317	-0.738113	-0.9914
C	0.0553806	1.22297	-1.59359
H	0.649108	2.05709	-1.16258
H	0.545906	0.873553	-2.52516
H	-0.950729	1.61611	-1.85728
N	1.96028	-1.13524	-1.12121
C	3.26029	-1.69917	-0.841688
H	1.58694	-1.25055	-2.03575
H	3.67178	-2.20458	-1.74305
H	3.19507	-2.44784	-0.0191859
H	3.97472	-0.903732	-0.528628
C	7.25004	3.13009	1.39834
C	7.97564	2.23546	0.468664
O	8.71111	2.68604	-0.398791
H	7.48234	4.18771	1.14668
H	7.56529	2.93199	2.44435
H	6.15495	2.97093	1.30608
N	7.77897	0.925015	0.631299
C	8.38203	-0.0671226	-0.223416
C	7.47034	-1.27924	-0.257487
O	6.50637	-1.36375	0.501014
H	7.14551	0.575054	1.31548
H	8.44193	0.319926	-1.23298
C	9.78475	-0.45891	0.290498
H	9.72255	-0.865863	1.32228
H	10.2653	-1.21213	-0.366978
H	10.4323	0.444629	0.314626
N	7.75154	-2.24823	-1.1508
C	6.93668	-3.43582	-1.25939
H	8.5335	-2.15998	-1.75893
H	7.32991	-4.11159	-2.05056
H	5.886	-3.16909	-1.51672
H	6.92493	-3.99395	-0.295282
