44
  This energy is -3.8709 and Call times are: 151318
C	0.592466	-2.48265	-2.36604
C	-0.00287193	-1.19208	-1.95234
O	-0.489288	-0.42714	-2.77372
H	0.523736	-2.58135	-3.47121
H	0.0441395	-3.32548	-1.89517
H	1.66116	-2.52435	-2.0673
N	0.0253986	-0.917059	-0.646218
C	-0.476301	0.318048	-0.0972471
C	0.298576	0.62105	1.17134
O	1.06617	-0.209358	1.65397
H	0.461479	-1.53118	0.00535663
H	-0.281929	1.12375	-0.794168
C	-1.9877	0.214594	0.20311
H	-2.1865	-0.605005	0.926138
H	-2.38882	1.16397	0.613371
H	-2.53393	-0.0154346	-0.73767
N	0.120263	1.83006	1.73924
C	0.819257	2.20934	2.94495
H	-0.501983	2.4902	1.33169
H	0.53902	3.24039	3.25418
H	1.92157	2.1785	2.78613
H	0.570982	1.51334	3.77867
C	3.89705	0.364577	-3.14146
C	4.49986	0.925528	-1.91138
O	4.81151	2.10634	-1.84085
H	3.81781	1.1645	-3.90938
H	2.88121	-0.0278929	-2.92519
H	4.53242	-0.454359	-3.53986
N	4.68212	0.0749125	-0.898646
C	5.29661	0.463289	0.346392
C	5.97586	-0.756754	0.939426
O	5.80464	-1.8723	0.451628
H	4.46114	-0.892288	-0.985519
H	6.06737	1.19822	0.150378
C	4.24618	1.02859	1.32734
H	3.46091	0.271324	1.53698
H	4.70911	1.3441	2.28477
H	3.75639	1.91562	0.86948
N	6.77484	-0.569836	2.0084
C	7.46707	-1.67099	2.63646
H	6.90418	0.34092	2.38638
H	8.0735	-1.31423	3.49797
H	8.14895	-2.17122	1.91114
H	6.74173	-2.43032	3.00853
