44
  This energy is 0.0936 and Call times are: 155053
C	-0.749103	3.18024	-1.19901
C	-1.0893	1.96653	-0.422914
O	-2.05619	1.94451	0.326128
H	-1.47763	3.98522	-0.959992
H	-0.796172	2.96441	-2.2871
H	0.271537	3.52941	-0.93544
N	-0.285911	0.912897	-0.586612
C	-0.463664	-0.323848	0.132712
C	0.894155	-0.984038	0.281144
O	1.87643	-0.544763	-0.313749
H	0.520898	0.959401	-1.16865
H	-0.828175	-0.108223	1.12934
C	-1.44203	-1.25904	-0.611223
H	-1.06334	-1.48904	-1.62991
H	-1.59797	-2.20916	-0.0603166
H	-2.42634	-0.752461	-0.715453
N	0.982328	-2.05744	1.09113
C	2.23424	-2.7474	1.29809
H	0.177296	-2.39563	1.56717
H	2.1012	-3.60238	1.99705
H	2.99617	-2.05798	1.72872
H	2.63029	-3.1408	0.333976
C	6.55982	-2.63833	2.06592
C	7.5141	-1.58697	1.64743
O	8.47878	-1.29536	2.34081
H	6.87106	-3.04522	3.05254
H	6.55018	-3.46389	1.32355
H	5.53829	-2.21296	2.15869
N	7.25949	-0.983352	0.484158
C	8.07321	0.087933	-0.0342649
C	7.19469	0.974321	-0.896876
O	6.049	0.634876	-1.18646
H	6.44769	-1.20321	-0.0492256
H	8.43329	0.693219	0.788286
C	9.25663	-0.466716	-0.85714
H	8.88752	-1.0791	-1.70731
H	9.89861	0.348067	-1.25022
H	9.88129	-1.11863	-0.208174
N	7.71256	2.14325	-1.32281
C	6.94886	3.05395	-2.14353
H	8.64011	2.40243	-1.07471
H	7.54791	3.95831	-2.38954
H	6.0245	3.37939	-1.61351
H	6.64573	2.56388	-3.09699
