44
  This energy is -4.1402 and Call times are: 153703
C	0.628842	-3.1888	-1.24452
C	0.520022	-1.72219	-1.41291
O	0.918718	-1.17043	-2.42929
H	1.11823	-3.62621	-2.14176
H	-0.380653	-3.63697	-1.13137
H	1.24118	-3.42681	-0.349259
N	-0.0301539	-1.0478	-0.400544
C	-0.164744	0.38762	-0.400105
C	-0.133254	0.865184	1.03951
O	-0.174219	0.0628331	1.97025
H	-0.312531	-1.50618	0.437321
H	0.687255	0.826453	-0.904241
C	-1.48025	0.81859	-1.08491
H	-2.35516	0.377177	-0.561722
H	-1.58895	1.92239	-1.10326
H	-1.48493	0.451663	-2.13452
N	-0.0506416	2.19267	1.25626
C	-0.0095877	2.73927	2.59257
H	-0.0143739	2.82594	0.490279
H	0.0586246	3.84905	2.56159
H	0.873037	2.3493	3.1495
H	-0.926779	2.45986	3.15987
C	5.98453	2.21225	-2.64271
C	5.22922	1.73945	-1.46072
O	4.34679	2.422	-0.958849
H	5.62332	3.22395	-2.9288
H	5.83009	1.52053	-3.49735
H	7.06788	2.27108	-2.40613
N	5.56712	0.540118	-0.981327
C	4.95173	-0.0347797	0.188864
C	5.96008	-0.956001	0.849286
O	7.01944	-1.23412	0.2906
H	6.31528	0.0142248	-1.37572
H	4.72314	0.753015	0.895792
C	3.67194	-0.81332	-0.186944
H	3.90759	-1.62834	-0.904064
H	3.18121	-1.24916	0.707345
H	2.95171	-0.121451	-0.675743
N	5.65506	-1.44684	2.06668
C	6.55572	-2.32675	2.7743
H	4.79483	-1.20711	2.50443
H	6.12626	-2.62151	3.75711
H	7.53367	-1.82472	2.95557
H	6.74676	-3.25164	2.18335
