44
  This energy is 0.1021 and Call times are: 147874
C	0.609933	2.71587	2.0892
C	1.03857	1.73903	1.06294
O	2.09247	1.87815	0.457687
H	1.36766	3.52584	2.16447
H	0.517368	2.21742	3.07698
H	-0.366952	3.16267	1.80786
N	0.214648	0.712468	0.839973
C	0.474814	-0.295176	-0.157788
C	-0.857128	-0.837898	-0.640425
O	-1.90427	-0.533554	-0.0724617
H	-0.659159	0.634883	1.31147
H	0.964031	0.162476	-1.00858
C	1.34537	-1.43229	0.420425
H	0.839208	-1.90908	1.28674
H	1.56425	-2.20762	-0.342124
H	2.31152	-1.01099	0.774585
N	-0.84827	-1.65358	-1.71309
C	-2.06792	-2.21366	-2.2469
H	0.00859922	-1.88504	-2.16172
H	-1.85241	-2.85715	-3.1282
H	-2.76498	-1.40502	-2.56546
H	-2.58536	-2.83269	-1.47865
C	0.58407	-0.276339	0.154022
C	1.87399	0.241838	0.662707
O	1.91212	1.12019	1.51327
H	-0.250533	0.265778	0.649401
H	0.491873	-1.3599	0.377971
H	0.514136	-0.118543	-0.94292
N	2.97777	-0.299116	0.141725
C	4.30483	0.13136	0.505252
C	5.22248	-0.11465	-0.677528
O	4.83319	-0.75077	-1.65503
H	2.93071	-0.984329	-0.579472
H	4.29613	1.19827	0.69033
C	4.81017	-0.630158	1.75023
H	4.82928	-1.72398	1.55729
H	5.82559	-0.29774	2.04845
H	4.11935	-0.442061	2.60095
N	6.46865	0.394869	-0.618676
C	7.41015	0.216183	-1.69933
H	6.76402	0.910282	0.178935
H	8.37898	0.708541	-1.46229
H	7.01409	0.657825	-2.6424
H	7.60154	-0.866529	-1.87891
