44
  This energy is 0.1235 and Call times are: 153023
C	3.44912	-0.429463	-0.178294
C	2.14118	-0.646184	0.480078
O	2.01716	-1.45276	1.39137
H	4.20607	-1.10403	0.27764
H	3.77665	0.622596	-0.0417597
H	3.37362	-0.655079	-1.26296
N	1.119	0.0808688	0.0229871
C	-0.222656	-0.0500898	0.534219
C	-1.18965	0.316191	-0.575875
O	-0.784322	0.807684	-1.62747
H	1.22673	0.703562	-0.746763
H	-0.406597	-1.0852	0.793741
C	-0.436786	0.862299	1.76179
H	-0.258474	1.92543	1.49348
H	-1.46192	0.760175	2.17312
H	0.286546	0.581662	2.55827
N	-2.49935	0.0755981	-0.368907
C	-3.49248	0.386249	-1.37059
H	-2.80765	-0.326439	0.486892
H	-4.51015	0.115083	-1.01277
H	-3.29054	-0.17542	-2.31135
H	-3.48292	1.47439	-1.60936
C	5.69589	2.47571	0.035728
C	5.2735	1.06281	-0.0925833
O	6.04915	0.20371	-0.488492
H	6.75391	2.57388	-0.291094
H	5.61428	2.80503	1.09291
H	5.06065	3.12456	-0.603444
N	4.01097	0.787982	0.24339
C	3.44265	-0.532205	0.130831
C	1.9516	-0.386476	-0.108109
O	1.40271	0.709607	-0.0130575
H	3.37976	1.50503	0.524927
H	3.86121	-1.02861	-0.735782
C	3.7081	-1.35791	1.40872
H	3.26976	-0.854327	2.29658
H	3.28736	-2.3812	1.32891
H	4.80507	-1.44491	1.56818
N	1.2593	-1.49563	-0.434479
C	-0.162432	-1.45276	-0.685476
H	1.72173	-2.37281	-0.510595
H	-0.547751	-2.46498	-0.938823
H	-0.390977	-0.768209	-1.53426
H	-0.709134	-1.08386	0.212395
