44
  This energy is -4.7237 and Call times are: 153912
C	-2.34992	1.27292	2.2294
C	-1.72354	1.21276	0.889565
O	-2.24038	1.75793	-0.0758697
H	-3.30092	1.84504	2.16489
H	-1.67206	1.78221	2.94625
H	-2.57127	0.247912	2.59473
N	-0.577106	0.534435	0.800355
C	0.127495	0.352045	-0.444166
C	0.8996	-0.951401	-0.363926
O	0.987411	-1.5671	0.696693
H	-0.189954	0.0615439	1.58671
H	-0.589631	0.253111	-1.24951
C	1.0854	1.53308	-0.714027
H	1.82792	1.62846	0.106704
H	1.62364	1.41115	-1.67629
H	0.499897	2.47719	-0.760803
N	1.47377	-1.40862	-1.4941
C	2.22377	-2.64282	-1.51508
H	1.38821	-0.898484	-2.34352
H	2.61611	-2.84728	-2.53562
H	1.57983	-3.49899	-1.20914
H	3.08607	-2.59076	-0.811625
C	4.96031	-0.467981	-3.42664
C	5.48099	-0.885105	-2.10526
O	5.96376	-1.99646	-1.93722
H	5.07565	-1.30592	-4.14804
H	5.52739	0.40979	-3.80172
H	3.8839	-0.206552	-3.34864
N	5.39045	0.0127353	-1.12136
C	5.81496	-0.262705	0.228636
C	4.97929	0.584716	1.16944
O	4.23173	1.45837	0.734023
H	4.95767	0.898371	-1.26353
H	5.61153	-1.3003	0.462395
C	7.31686	0.0486922	0.409066
H	7.52433	1.11562	0.179556
H	7.65907	-0.172445	1.44082
H	7.90846	-0.576772	-0.294599
N	5.08141	0.338326	2.49037
C	4.3205	1.09049	3.46064
H	5.68863	-0.375493	2.82327
H	4.54224	0.739038	4.49241
H	3.22755	0.974436	3.27819
H	4.56757	2.17505	3.39876
