44
  This energy is -4.0539 and Call times are: 156533
C	1.70476	1.75866	-2.47257
C	1.00504	1.68929	-1.16999
O	1.03945	2.62464	-0.382365
H	2.22748	2.73616	-2.5571
H	0.974898	1.66831	-3.30436
H	2.45413	0.942694	-2.54835
N	0.345269	0.558086	-0.910257
C	-0.347312	0.32582	0.3327
C	-0.352613	-1.16765	0.59928
O	0.0292556	-1.9618	-0.258169
H	0.360494	-0.210178	-1.54382
H	0.200455	0.795655	1.14006
C	-1.79142	0.869716	0.269583
H	-2.35698	0.380381	-0.551834
H	-2.33075	0.709294	1.22557
H	-1.76345	1.96243	0.0657476
N	-0.780993	-1.58579	1.80662
C	-0.816156	-2.98773	2.15232
H	-1.08219	-0.927844	2.48887
H	-1.19799	-3.12803	3.18757
H	0.203318	-3.43297	2.09145
H	-1.47981	-3.54806	1.45466
C	5.06394	2.5756	2.32319
C	4.94826	1.15182	1.9351
O	4.76128	0.280489	2.7731
H	4.97251	2.66384	3.42759
H	4.25524	3.16895	1.84708
H	6.05052	2.97839	2.01095
N	5.06131	0.880621	0.632774
C	5.01348	-0.46116	0.107522
C	5.8371	-0.500221	-1.16594
O	6.26754	0.535523	-1.66959
H	5.25425	1.59601	-0.0326941
H	5.47865	-1.13789	0.813405
C	3.55744	-0.891078	-0.175925
H	3.08313	-0.203278	-0.908055
H	3.50621	-1.92759	-0.567769
H	2.97148	-0.847309	0.768045
N	6.08361	-1.70622	-1.71441
C	6.86275	-1.84194	-2.923
H	5.73028	-2.53333	-1.29001
H	6.95384	-2.91161	-3.21413
H	7.8876	-1.4297	-2.77801
H	6.384	-1.28915	-3.76345
