44
  This energy is -0.7918 and Call times are: 156893
C	-0.181006	-3.00686	1.74319
C	-0.814185	-1.84364	1.08202
O	-2.01668	-1.81958	0.858777
H	-0.954907	-3.77746	1.95088
H	0.283067	-2.69587	2.7027
H	0.59572	-3.44655	1.08254
N	-0.0031845	-0.83749	0.746887
C	-0.465574	0.34234	0.0593139
C	0.68514	0.892631	-0.762023
O	1.82129	0.439572	-0.637067
H	0.979818	-0.889212	0.898208
H	-1.25273	0.0676365	-0.631744
C	-0.970895	1.40278	1.06199
H	-0.160688	1.69269	1.76453
H	-1.34253	2.31064	0.544116
H	-1.80722	0.975743	1.65743
N	0.413438	1.88408	-1.63336
C	1.44386	2.46622	-2.46133
H	-0.512878	2.2347	-1.72325
H	1.02229	3.26527	-3.1102
H	1.90673	1.69178	-3.11497
H	2.24785	2.91267	-1.83251
C	4.11039	-2.81528	1.15421
C	5.24177	-1.86213	1.20563
O	6.02935	-1.86443	2.14165
H	4.12382	-3.45081	2.06622
H	4.1999	-3.46762	0.260238
H	3.14721	-2.26412	1.11442
N	5.34695	-1.01017	0.183141
C	6.36974	0.00353392	0.113395
C	5.82857	1.1665	-0.696673
O	4.76164	1.07117	-1.30023
H	4.6744	-0.993333	-0.551198
H	6.57524	0.372836	1.11039
C	7.65642	-0.554547	-0.533312
H	7.44834	-0.923907	-1.56011
H	8.45627	0.212645	-0.58013
H	8.03016	-1.40942	0.071549
N	6.55351	2.30222	-0.721489
C	6.11508	3.46282	-1.46106
H	7.4123	2.36159	-0.223452
H	6.84636	4.29452	-1.35744
H	5.12687	3.81646	-1.08736
H	6.00875	3.222	-2.54358
