44
  This energy is -3.0476 and Call times are: 149448
C	-0.185673	-0.847485	3.37046
C	-0.194935	-1.20561	1.93421
O	-0.127286	-2.37216	1.57227
H	-0.0937386	-1.77314	3.97922
H	-1.1302	-0.330988	3.64219
H	0.675927	-0.183495	3.59374
N	-0.278123	-0.191253	1.07019
C	-0.254769	-0.379	-0.359062
C	0.333652	0.868666	-0.990444
O	0.542288	1.87647	-0.317749
H	-0.291226	0.755454	1.37913
H	0.403946	-1.20395	-0.600275
C	-1.67548	-0.643173	-0.904073
H	-2.34901	0.207559	-0.666062
H	-1.66898	-0.803142	-2.00175
H	-2.08944	-1.55593	-0.422545
N	0.624341	0.826315	-2.30564
C	1.1922	1.96369	-2.99127
H	0.452216	0.000448948	-2.83232
H	1.35928	1.73169	-4.0662
H	2.16951	2.24777	-2.53802
H	0.51173	2.84321	-2.92385
C	9.14762	-0.779614	-1.67824
C	8.20824	0.194222	-1.07794
O	8.52673	1.36427	-0.916771
H	10.1088	-0.269903	-1.90665
H	8.72497	-1.18847	-2.62002
H	9.34173	-1.61143	-0.968678
N	7.00966	-0.276852	-0.725979
C	6.00537	0.539728	-0.091031
C	5.14263	-0.359246	0.774469
O	5.25339	-1.58247	0.718255
H	6.77976	-1.24071	-0.825837
H	6.48771	1.25319	0.565425
C	5.1417	1.26956	-1.14301
H	4.6383	0.537712	-1.81012
H	4.37353	1.91244	-0.666417
H	5.79468	1.91529	-1.7699
N	4.2629	0.231419	1.60707
C	3.40394	-0.542992	2.4723
H	4.19068	1.22272	1.64137
H	2.75322	0.123965	3.07974
H	4.00853	-1.17016	3.16686
H	2.75168	-1.22023	1.87477
