108
  This energy is -7.2004 and Call times are: 2727
C	-2.22882	-7.57827	1.76641
C	-2.96017	-6.2908	1.43287
C	-2.56426	-5.12234	2.34873
C	-3.31761	-3.83223	1.99094
C	-2.91648	-2.69667	2.89982
C	-1.91256	-1.83115	2.68385
C	-0.991294	-1.82682	1.49023
C	-1.54942	-0.967503	0.38478
C	-1.31958	0.344534	0.211815
C	-0.458566	1.22009	1.0871
C	0.966338	1.22625	0.594077
C	1.50246	2.07618	-0.297196
C	0.794729	3.20834	-0.997556
C	0.904255	4.48055	-0.19591
C	1.88158	5.39577	-0.30144
C	3.05919	5.32922	-1.24185
C	2.73312	5.99903	-2.58488
C	3.92184	5.94126	-3.55733
C	3.5978	6.61094	-4.90194
C	4.78746	6.55061	-5.86897
O	-2.60106	-8.5789	0.943925
O	-1.41227	-7.73649	2.64302
H	-2.73995	-6.01276	0.375475
H	-4.05824	-6.46464	1.52186
H	-2.78056	-5.39445	3.40921
H	-1.46576	-4.94377	2.26585
H	-3.11084	-3.55715	0.931004
H	-4.41605	-4.00454	2.06602
H	-3.51319	-2.58166	3.8214
H	-1.73337	-1.04632	3.43962
H	0.0126929	-1.45127	1.7898
H	-0.845338	-2.8671	1.12242
H	-2.2059	-1.47704	-0.342169
H	-1.79975	0.843137	-0.648468
H	-0.495306	0.859358	2.13906
H	-0.860832	2.25745	1.10009
H	1.62296	0.446422	1.01857
H	2.56858	1.94622	-0.554033
H	-0.276112	2.94849	-1.1535
H	1.22933	3.35916	-2.01093
H	0.101858	4.66302	0.54023
H	1.83564	6.28468	0.351662
H	3.34894	4.26657	-1.41001
H	3.94243	5.82453	-0.777099
H	2.45055	7.06385	-2.40851
H	1.85227	5.49331	-3.04654
H	4.20421	4.87631	-3.73323
H	4.8025	6.44688	-3.09519
H	3.3155	7.67661	-4.72713
H	2.71703	6.10558	-5.36536
H	4.53916	7.03947	-6.83949
H	5.08099	5.49639	-6.07956
H	5.67877	7.06561	-5.44207
H	-2.10171	-9.37011	1.20628
C	-0.447002	-6.16695	-3.00376
C	0.226919	-5.86957	-1.67669
C	1.71493	-5.51698	-1.82612
C	2.37327	-5.2206	-0.470152
C	3.83292	-4.87665	-0.636286
C	4.33604	-3.64611	-0.826812
C	3.53879	-2.36914	-0.911621
C	3.37435	-1.74772	0.451737
C	4.20579	-0.858943	1.02004
C	5.46859	-0.3051	0.409592
C	5.1734	0.947238	-0.37652
C	5.18316	2.20702	0.0893485
C	5.4916	2.64116	1.49986
C	6.96662	2.90694	1.66367
C	7.58131	4.08423	1.46353
C	6.91621	5.36899	1.03619
C	6.45747	6.1858	2.25318
C	5.77681	7.49962	1.83768
C	5.31695	8.31862	3.05391
C	4.63823	9.62895	2.63384
O	-1.74874	-6.47149	-2.83337
O	0.0711709	-6.14677	-4.09524
H	-0.299607	-5.01753	-1.1861
H	0.130918	-6.76145	-1.01395
H	2.24797	-6.36509	-2.31809
H	1.81859	-4.62577	-2.48979
H	1.84247	-4.37793	0.0298992
H	2.26872	-6.10456	0.200345
H	4.53707	-5.7258	-0.59478
H	5.43044	-3.54439	-0.932658
H	4.04666	-1.65185	-1.59451
H	2.53915	-2.57709	-1.35462
H	2.48397	-2.0614	1.02434
H	3.95397	-0.4897	2.02975
H	5.93725	-1.06744	-0.251691
H	6.2125	-0.0865021	1.20767
H	4.92581	0.796185	-1.44205
H	4.94311	3.01884	-0.619744
H	5.16463	1.85712	2.21883
H	4.91037	3.55626	1.75146
H	7.58465	2.04723	1.97668
H	8.67277	4.13554	1.62132
H	6.04317	5.1431	0.381801
H	7.62125	5.9727	0.419836
H	7.33798	6.41335	2.89949
H	5.74715	5.57704	2.86115
H	4.89653	7.27163	1.19122
H	6.48739	8.10795	1.22956
H	6.19699	8.54759	3.70121
H	4.60567	7.71103	3.66285
H	4.30983	10.2128	3.52482
H	3.74194	9.43241	2.00143
H	5.33144	10.268	2.03974
H	-2.12162	-6.65034	-3.71268
