108
  This energy is -4.5619 and Call times are: 1953
C	-0.576982	1.63576	-7.90629
C	-0.5962	2.46002	-6.63195
C	-1.65563	1.98364	-5.62622
C	-1.65473	2.83327	-4.34636
C	-2.70043	2.3514	-3.37127
C	-2.51959	1.42585	-2.41508
C	-1.23542	0.688602	-2.1308
C	-0.399188	1.43611	-1.12387
C	-0.449538	1.28786	0.21018
C	-1.35106	0.345576	0.967419
C	-0.680564	-0.991187	1.15966
C	0.0968056	-1.35688	2.1922
C	0.467031	-0.509101	3.38273
C	-0.539717	-0.681533	4.49173
C	-0.47932	-1.59478	5.47471
C	0.606701	-2.62511	5.66057
C	1.74131	-2.0803	6.54065
C	2.85832	-3.1166	6.74173
C	3.99476	-2.57357	7.6221
C	5.1071	-3.61169	7.81974
O	0.362927	2.08208	-8.76284
O	-1.28917	0.694804	-8.16631
H	0.408873	2.40725	-6.15139
H	-0.797818	3.52546	-6.89286
H	-2.6643	2.03234	-6.10127
H	-1.4608	0.91708	-5.36176
H	-0.648448	2.79405	-3.86914
H	-1.84317	3.90116	-4.60325
H	-3.69898	2.8122	-3.46693
H	-3.37963	1.17121	-1.77108
H	-1.4627	-0.331969	-1.74929
H	-0.660187	0.555011	-3.07421
H	0.316067	2.16969	-1.53533
H	0.227408	1.9079	0.823818
H	-2.31037	0.214362	0.419127
H	-1.61528	0.783935	1.95541
H	-0.856436	-1.73394	0.361615
H	0.515117	-2.37885	2.18359
H	0.523634	0.561456	3.08398
H	1.48241	-0.785416	3.74494
H	-1.39852	0.0122958	4.48219
H	-1.28969	-1.60769	6.22435
H	1.01144	-2.93075	4.6685
H	0.179712	-3.54538	6.12125
H	1.32915	-1.78286	7.53385
H	2.1676	-1.16327	6.06936
H	3.27002	-3.41392	5.7483
H	2.43156	-4.03352	7.21282
H	3.58398	-2.27613	8.61643
H	4.42269	-1.65634	7.15149
H	5.92439	-3.20526	8.4596
H	5.55201	-3.91456	6.84392
H	4.71427	-4.53363	8.30718
H	0.325666	1.51787	-9.55308
C	1.12699	5.50068	-4.32102
C	2.3003	4.57549	-4.58765
C	3.43838	4.74233	-3.56894
C	4.61267	3.79578	-3.86051
C	5.71984	3.97346	-2.85101
C	5.84354	3.30743	-1.69137
C	4.89905	2.25234	-1.17352
C	5.31712	0.881775	-1.64121
C	6.1517	0.0484528	-0.998383
C	6.837	0.315918	0.318012
C	5.98325	-0.157839	1.46698
C	6.0009	-1.37768	2.02899
C	6.8788	-2.53737	1.63203
C	8.17393	-2.51205	2.40349
C	8.39756	-3.10832	3.58602
C	7.39728	-3.91891	4.37212
C	7.45831	-5.40284	3.9811
C	6.44548	-6.24577	4.77212
C	6.50479	-7.73107	4.38245
C	5.492	-8.56806	5.17477
O	0.150086	5.32627	-5.23291
O	1.03302	6.30458	-3.42373
H	1.9422	3.51958	-4.5608
H	2.69679	4.77893	-5.61005
H	3.80069	5.79768	-3.58932
H	3.0481	4.54166	-2.54284
H	4.25716	2.73969	-3.84741
H	5.00426	3.98654	-4.88625
H	6.48938	4.72307	-3.10495
H	6.70988	3.54279	-1.04847
H	4.87513	2.28045	-0.0611285
H	3.86388	2.46975	-1.5198
H	4.89012	0.545255	-2.60218
H	6.36592	-0.92873	-1.4658
H	7.04664	1.4036	0.423379
H	7.82523	-0.194847	0.342827
H	5.27692	0.585613	1.87668
H	5.30832	-1.56679	2.86806
H	7.0866	-2.50005	0.539342
H	6.34618	-3.49724	1.8151
H	9.00439	-1.94892	1.94276
H	9.39899	-3.00687	4.03952
H	6.37014	-3.52402	4.19753
H	7.59417	-3.80716	5.46308
H	8.48761	-5.79208	4.16503
H	7.2537	-5.50666	2.88925
H	5.41638	-5.85606	4.58809
H	6.65032	-6.14149	5.86388
H	7.53393	-8.12208	4.56653
H	6.29964	-7.83657	3.29035
H	5.5455	-9.64247	4.88265
H	4.45063	-8.21395	4.99572
H	5.68351	-8.49914	6.27042
H	-0.567517	5.94223	-5.00968
