108
  This energy is 0.1244 and Call times are: 3312
C	3.17214	-2.82067	6.89198
C	1.87546	-2.13285	6.50565
C	2.099	-0.803212	5.76882
C	0.772585	-0.127639	5.38918
C	1.01146	1.17546	4.66713
C	1.13974	1.32872	3.33909
C	1.06978	0.227197	2.31185
C	-0.345904	0.0280593	1.83423
C	-0.923144	0.650587	0.793343
C	-0.27225	1.67199	-0.10507
C	0.391764	0.999415	-1.27989
C	-0.169024	0.727026	-2.46964
C	-1.58449	1.03519	-2.88755
C	-1.66663	2.40166	-3.51935
C	-1.51697	2.67513	-4.82577
C	-1.23775	1.66918	-5.91466
C	-2.54333	1.12404	-6.51213
C	-2.27924	0.0966992	-7.62429
C	-3.5843	-0.450154	-8.22362
C	-3.31525	-1.47513	-9.33318
O	2.93683	-3.98143	7.53507
O	4.29179	-2.42146	6.67461
H	1.28495	-2.81521	5.85023
H	1.27916	-1.93981	7.42818
H	2.69103	-0.115712	6.41867
H	2.6968	-0.988796	4.84489
H	0.173094	-0.810893	4.74446
H	0.167369	0.0558179	6.30675
H	1.08476	2.07419	5.30392
H	1.31238	2.3473	2.94927
H	1.72805	0.473618	1.44888
H	1.4578	-0.720523	2.74779
H	-0.952239	-0.699427	2.40182
H	-1.97346	0.401172	0.561232
H	0.477068	2.26089	0.46922
H	-1.03185	2.4015	-0.464124
H	1.44626	0.707332	-1.13085
H	0.456489	0.226872	-3.22994
H	-2.261	0.983143	-2.00541
H	-1.94599	0.263338	-3.60317
H	-1.86847	3.24369	-2.83431
H	-1.6028	3.72661	-5.15111
H	-0.629384	0.829641	-5.50661
H	-0.623248	2.14027	-6.71584
H	-3.14329	1.96965	-6.92418
H	-3.14947	0.648431	-5.70518
H	-1.67908	-0.748593	-7.21187
H	-1.6729	0.572646	-8.43089
H	-4.18538	0.394737	-8.63686
H	-4.19157	-0.926893	-7.41749
H	-4.26947	-1.86344	-9.7589
H	-2.73263	-2.34265	-8.94609
H	-2.72645	-1.02255	-10.1641
H	3.79964	-4.3709	7.7543
C	2.11438	1.51792	-7.94237
C	2.57954	2.23298	-6.68697
C	1.44778	2.46081	-5.67304
C	1.94396	3.18548	-4.41265
C	0.820066	3.40039	-3.42921
C	0.455218	2.55444	-2.45201
C	1.09876	1.2251	-2.14843
C	2.22235	1.38691	-1.1568
C	2.11155	1.31973	0.180136
C	0.843207	1.06938	0.956477
C	0.640444	-0.407874	1.18023
C	1.08513	-1.12917	2.22243
C	1.88359	-0.617067	3.39434
C	0.968574	-0.166684	4.50478
C	0.511754	-0.933715	5.50822
C	0.8249	-2.39414	5.71959
C	2.0781	-2.57088	6.5896
C	2.41357	-4.05347	6.81638
C	3.66728	-4.23271	7.68674
C	3.99783	-5.71424	7.91011
O	3.13226	1.33601	-8.80673
O	0.991608	1.14125	-8.18265
H	3.38307	1.6295	-6.20318
H	3.01417	3.21969	-6.97226
H	0.639048	3.06308	-6.15124
H	1.00697	1.47709	-5.38419
H	2.75611	2.5924	-3.93251
H	2.39088	4.16681	-4.69395
H	0.25732	4.3439	-3.53738
H	-0.390603	2.84477	-1.80429
H	0.337482	0.520779	-1.74451
H	1.48667	0.77044	-3.08735
H	3.22277	1.57774	-1.58315
H	3.02735	1.45902	0.7811
H	-0.0275832	1.49404	0.409218
H	0.884719	1.59974	1.93377
H	0.0659542	-0.935826	0.398754
H	0.850715	-2.2082	2.23775
H	2.53346	0.226789	3.07167
H	2.56765	-1.41287	3.76487
H	0.653938	0.891291	4.47775
H	-0.155029	-0.470327	6.25621
H	0.974313	-2.89488	4.73552
H	-0.0432302	-2.90111	6.19997
H	1.91794	-2.07267	7.57495
H	2.94371	-2.06638	6.09868
H	2.57342	-4.55133	5.8308
H	1.54764	-4.55762	7.3071
H	3.50827	-3.73526	8.67323
H	4.53435	-3.72898	7.1965
H	4.90853	-5.82991	8.5424
H	4.18209	-6.23513	6.94232
H	3.15719	-6.24141	8.41736
H	2.77322	0.876738	-9.58414
