108
  This energy is 0.1024 and Call times are: 3047
C	-7.65295	0.313716	-2.61763
C	-6.49794	1.2959	-2.54703
C	-5.91523	1.43479	-1.13211
C	-4.74886	2.43354	-1.0875
C	-4.18975	2.5569	0.308448
C	-3.19897	1.81469	0.829151
C	-2.45304	0.713583	0.118793
C	-1.24292	1.25925	-0.595208
C	-0.00838223	1.37785	-0.0794103
C	0.414479	0.989691	1.31507
C	0.878872	-0.444406	1.34926
C	2.13187	-0.886107	1.1516
C	3.34534	-0.0427251	0.852658
C	4.03235	0.371489	2.12922
C	5.00517	-0.309803	2.75642
C	5.59952	-1.62115	2.30621
C	6.80376	-1.39387	1.38055
C	7.4235	-2.71955	0.910915
C	8.62872	-2.49453	-0.015496
C	9.24366	-3.82073	-0.481443
O	-8.13737	0.21835	-3.87164
O	-8.11413	-0.323009	-1.69996
H	-5.69161	0.956988	-3.23904
H	-6.85112	2.29565	-2.89293
H	-6.71753	1.7723	-0.433642
H	-5.56109	0.437177	-0.778837
H	-3.94571	2.10592	-1.78714
H	-5.09371	3.4313	-1.44447
H	-4.64854	3.33274	0.945765
H	-2.89184	2.01739	1.87023
H	-2.14032	-0.0638632	0.851289
H	-3.12685	0.210991	-0.610691
H	-1.40094	1.58777	-1.63739
H	0.782354	1.7977	-0.725722
H	-0.432417	1.13202	2.02261
H	1.229	1.66153	1.6662
H	0.0972347	-1.19564	1.55941
H	2.30815	-1.97465	1.2106
H	3.04787	0.858572	0.271522
H	4.05266	-0.609912	0.207258
H	3.69513	1.32252	2.57739
H	5.41996	0.113082	3.68805
H	4.82611	-2.22532	1.77871
H	5.91209	-2.21871	3.19315
H	7.57589	-0.794202	1.91813
H	6.48113	-0.800863	0.492271
H	6.65099	-3.31898	0.373604
H	7.74576	-3.31232	1.79949
H	9.40241	-1.89517	0.52125
H	8.30731	-1.90184	-0.905054
H	10.1161	-3.64324	-1.15215
H	8.49954	-4.43452	-1.03951
H	9.59338	-4.42786	0.385146
H	-8.8691	-0.420682	-3.85141
C	8.31793	4.54806	6.07392
C	8.09956	3.06243	5.85267
C	6.65947	2.72384	5.43752
C	6.46468	1.21565	5.21996
C	5.04596	0.902194	4.81319
C	4.57916	0.853864	3.55485
C	5.3833	1.10373	2.3041
C	5.99123	-0.177043	1.79226
C	5.4248	-1.02652	0.919481
C	4.06935	-0.870057	0.277362
C	4.18066	-0.107928	-1.01888
C	4.38496	-0.628848	-2.23998
C	4.54721	-2.08909	-2.57838
C	3.21025	-2.71581	-2.8832
C	2.63145	-2.78625	-4.09314
C	3.20579	-2.25247	-5.38185
C	4.05979	-3.31521	-6.08893
C	4.65419	-2.78962	-7.40517
C	5.50915	-3.85142	-8.11445
C	6.1001	-3.32188	-9.42762
O	9.59008	4.80637	6.43616
O	7.49313	5.42303	5.95412
H	8.79809	2.70806	5.05872
H	8.34279	2.5165	6.79431
H	5.95454	3.07728	6.22721
H	6.40864	3.26833	4.4962
H	7.16964	0.854181	4.43622
H	6.71886	0.664528	6.15459
H	4.34129	0.696467	5.63763
H	3.51233	0.610455	3.40689
H	4.73255	1.55216	1.52038
H	6.18639	1.84528	2.51366
H	6.99471	-0.426959	2.17905
H	5.99348	-1.92947	0.63568
H	3.37875	-0.341174	0.97123
H	3.6184	-1.87038	0.0927038
H	4.08197	0.989051	-0.939022
H	4.44246	0.069607	-3.0934
H	5.03326	-2.62359	-1.73185
H	5.22831	-2.20351	-3.45105
H	2.66978	-3.15206	-2.02494
H	1.6451	-3.27599	-4.1711
H	3.82296	-1.34825	-5.17464
H	2.38151	-1.92125	-6.05438
H	3.43315	-4.21418	-6.29865
H	4.88624	-3.63655	-5.4118
H	5.28054	-1.89057	-7.19503
H	3.82743	-2.4682	-8.08189
H	4.88333	-4.75126	-8.32549
H	6.33687	-4.17346	-7.43837
H	6.71745	-4.10138	-9.93143
H	6.74774	-2.43312	-9.24721
H	5.29588	-3.01025	-10.1333
H	9.66579	5.7669	6.56203
