108
  This energy is -5.5554 and Call times are: 1508
C	-1.87486	-7.36845	2.77649
C	-0.64349	-6.73183	2.1583
C	-0.928876	-6.06828	0.802176
C	0.332152	-5.43202	0.198113
C	0.0331327	-4.78582	-1.13211
C	-0.352521	-3.51338	-1.32133
C	-0.561456	-2.48352	-0.240032
C	0.71245	-1.72517	0.0320424
C	1.10375	-0.594077	-0.577624
C	0.348756	0.143221	-1.65486
C	-0.580668	1.16382	-1.04822
C	-0.291393	2.44542	-0.768929
C	1.02601	3.14065	-1.00187
C	1.06295	3.76346	-2.37443
C	0.668275	5.00928	-2.68441
C	0.111573	6.02735	-1.72047
C	1.23199	6.88369	-1.11217
C	0.684003	7.92781	-0.126481
C	1.80344	8.78588	0.483456
C	1.25128	9.82643	1.46654
O	-1.58651	-7.93938	3.96274
O	-2.98825	-7.38786	2.30722
H	-0.242112	-5.96349	2.86004
H	0.138655	-7.51492	2.02079
H	-1.33255	-6.83152	0.0950912
H	-1.71231	-5.28418	0.93212
H	0.744419	-4.67231	0.901513
H	1.12141	-6.20836	0.0705927
H	0.146842	-5.43232	-2.01964
H	-0.537031	-3.1763	-2.3565
H	-1.3647	-1.77537	-0.543494
H	-0.91102	-2.98085	0.6923
H	1.37498	-2.1504	0.806169
H	2.0674	-0.150189	-0.271657
H	-0.230099	-0.57727	-2.27447
H	1.06346	0.643123	-2.3458
H	-1.59897	0.805323	-0.815802
H	-1.08824	3.06654	-0.323142
H	1.86307	2.4157	-0.890911
H	1.1858	3.92199	-0.225646
H	1.45179	3.12642	-3.18807
H	0.751497	5.33571	-3.73576
H	-0.452248	5.51136	-0.909722
H	-0.622369	6.6819	-2.24423
H	1.78716	7.40182	-1.92955
H	1.95865	6.22182	-0.584261
H	0.12874	7.40928	0.690583
H	-0.0427576	8.58929	-0.654728
H	2.35941	9.30542	-0.333171
H	2.53096	8.12505	1.01254
H	2.07303	10.4415	1.90127
H	0.706621	9.33646	2.30629
H	0.53527	10.5155	0.962127
H	-2.40931	-8.32657	4.30519
C	9.69917	-7.56005	-2.69499
C	10.0689	-6.17655	-3.19795
C	8.86008	-5.23364	-3.30078
C	9.26041	-3.84127	-3.81162
C	8.0618	-2.92974	-3.90609
C	7.60373	-2.12644	-2.93216
C	8.19921	-1.98001	-1.55469
C	9.23848	-0.888501	-1.53267
C	9.01547	0.409034	-1.26648
C	7.68308	1.03358	-0.936737
C	7.43969	1.01086	0.551117
C	7.78473	1.96217	1.43437
C	8.49037	3.25899	1.12857
C	7.4929	4.34849	0.826557
C	6.94221	5.18238	1.72393
C	7.21417	5.19139	3.20769
C	8.38753	6.12152	3.54936
C	8.6801	6.14409	5.05799
C	9.85391	7.07422	5.4022
C	10.1419	7.0932	6.90912
O	10.7827	-8.35773	-2.61801
O	8.59472	-7.9445	-2.39066
H	10.8199	-5.72837	-2.50583
H	10.5409	-6.27119	-4.204
H	8.10342	-5.67692	-3.99101
H	8.38164	-5.13553	-2.29732
H	10.0205	-3.39438	-3.13008
H	9.74427	-3.93182	-4.81141
H	7.5246	-2.93648	-4.87044
H	6.71137	-1.51169	-3.14434
H	7.39615	-1.75135	-0.81877
H	8.65709	-2.94349	-1.23714
H	10.2738	-1.19895	-1.75797
H	9.87996	1.09568	-1.28731
H	6.86762	0.49003	-1.46369
H	7.65103	2.08087	-1.31125
H	6.92438	0.114098	0.938089
H	7.53331	1.79279	2.49625
H	9.17778	3.12284	0.26401
H	9.12883	3.55653	1.99019
H	7.1979	4.45912	-0.231635
H	6.22253	5.9368	1.36099
H	7.43748	4.15728	3.55725
H	6.3013	5.5171	3.75725
H	8.15337	7.15565	3.2022
H	9.29873	5.78484	3.00059
H	8.91398	5.10976	5.40477
H	7.76861	6.48059	5.60638
H	9.62078	8.10945	5.05599
H	10.7665	6.73821	4.85432
H	10.9948	7.77114	7.14481
H	10.3982	6.07482	7.28204
H	9.25384	7.44448	7.48348
H	10.4828	-9.22267	-2.29226
