108
  This energy is -4.7302 and Call times are: 3461
C	-2.57882	4.00703	-6.54305
C	-2.96443	3.98039	-5.07529
C	-3.29595	2.56828	-4.56847
C	-3.68271	2.56843	-3.08175
C	-4.00462	1.17464	-2.60195
C	-3.13017	0.299082	-2.08005
C	-1.65625	0.539823	-1.87247
C	-1.39561	1.12995	-0.510203
C	-1.15394	0.439652	0.616416
C	-1.09489	-1.06171	0.744771
C	0.309144	-1.5597	0.512032
C	1.26487	-1.7262	1.44103
C	1.14001	-1.4509	2.91812
C	0.660702	-2.67935	3.64911
C	1.4417	-3.63621	4.17673
C	2.94943	-3.66825	4.1408
C	3.5471	-2.96066	5.36586
C	5.08373	-2.9829	5.34716
C	5.68397	-2.27538	6.57213
C	7.21789	-2.30034	6.54871
O	-2.29549	5.2598	-6.95121
O	-2.51878	3.05852	-7.28934
H	-2.12203	4.39312	-4.47204
H	-3.85229	4.63778	-4.92218
H	-4.13757	2.14831	-5.16911
H	-2.41189	1.9043	-4.72016
H	-2.84881	2.99196	-2.47585
H	-4.5619	3.23419	-2.92152
H	-5.05943	0.862974	-2.69594
H	-3.5099	-0.690443	-1.77038
H	-1.09847	-0.417046	-1.98222
H	-1.27114	1.22499	-2.6605
H	-1.40753	2.23223	-0.447974
H	-0.980129	1.01198	1.54458
H	-1.79118	-1.53324	0.0161131
H	-1.44548	-1.37103	1.75448
H	0.561448	-1.80846	-0.533886
H	2.24752	-2.10211	1.10551
H	0.434366	-0.607472	3.08912
H	2.12158	-1.12366	3.32796
H	-0.433082	-2.78896	3.75235
H	0.953363	-4.48457	4.68724
H	3.31563	-3.18205	3.20755
H	3.30422	-4.72379	4.10361
H	3.18099	-3.45733	6.29541
H	3.19249	-1.90314	5.39211
H	5.44939	-2.48634	4.41737
H	5.43789	-4.04056	5.32068
H	5.31903	-2.77164	7.50297
H	5.33054	-1.21696	6.59938
H	7.63997	-1.78425	7.44205
H	7.61412	-1.7933	5.63888
H	7.60264	-3.34619	6.54142
H	-2.05765	5.21081	-7.89208
C	4.27548	6.25449	5.0629
C	3.49748	6.00533	3.7837
C	4.38507	5.51856	2.62782
C	3.57465	5.27394	1.34591
C	4.46186	4.79685	0.222644
C	4.75589	3.51737	-0.0604353
C	4.25579	2.30911	0.690199
C	2.95987	1.81121	0.103144
C	2.83495	0.902501	-0.878098
C	3.9639	0.198979	-1.58843
C	4.32272	-1.0813	-0.87738
C	3.79951	-2.29755	-1.10358
C	2.73975	-2.64543	-2.118
C	3.36836	-3.02059	-3.43605
C	3.73644	-4.25728	-3.80892
C	3.59273	-5.51092	-2.98228
C	2.23884	-6.18957	-3.23742
C	2.07364	-7.46985	-2.40336
C	0.719526	-8.15064	-2.65707
C	0.559582	-9.42797	-1.82225
O	3.46544	6.67951	6.0526
O	5.46395	6.10637	5.22358
H	2.70977	5.24108	3.982
H	2.991	6.95079	3.47795
H	5.177	6.27825	2.42492
H	4.89652	4.57305	2.92763
H	2.77777	4.5201	1.54238
H	3.05621	6.21285	1.04333
H	4.90061	5.58455	-0.414246
H	5.42275	3.31625	-0.917237
H	5.02035	1.50096	0.656746
H	4.11009	2.56527	1.76347
H	2.03662	2.24195	0.528719
H	1.81519	0.635061	-1.20646
H	4.85305	0.865745	-1.64272
H	3.6741	-0.0187842	-2.64043
H	5.09584	-0.993026	-0.0938184
H	4.17248	-3.13886	-0.49318
H	2.04992	-1.78336	-2.25772
H	2.11517	-3.48626	-1.7419
H	3.53514	-2.19413	-4.14892
H	4.18712	-4.38765	-4.80827
H	3.69377	-5.26393	-1.90051
H	4.42055	-6.21762	-3.22047
H	2.14838	-6.43945	-4.321
H	1.41573	-5.47805	-2.99038
H	2.16438	-7.21956	-1.31989
H	2.89705	-8.18096	-2.65054
H	0.627847	-8.40181	-3.74077
H	-0.105032	-7.44012	-2.40973
H	-0.426046	-9.91137	-2.01568
H	0.626487	-9.20649	-0.732129
H	1.35852	-10.1671	-2.06163
H	4.01861	6.82035	6.83897
