108
  This energy is -5.3633 and Call times are: 1671
C	-6.11857	-4.30936	-3.08393
C	-4.60568	-4.43128	-3.08891
C	-3.90455	-3.16816	-3.61214
C	-2.37557	-3.3169	-3.6071
C	-1.70456	-2.06813	-4.12361
C	-1.31852	-1.01671	-3.38257
C	-1.48117	-0.880742	-1.88975
C	-0.278284	-1.43047	-1.16668
C	0.822078	-0.739695	-0.825766
C	1.07489	0.721953	-1.09732
C	0.572004	1.56884	0.0443278
C	1.26628	1.94204	1.13193
C	2.69931	1.59445	1.44624
C	3.63428	2.63488	0.883648
C	4.05517	3.74085	1.51893
C	3.67475	4.15725	2.91802
C	4.65572	3.58452	3.95163
C	4.28436	3.99823	5.38446
C	5.26466	3.42622	6.42045
C	4.88962	3.84204	7.84891
O	-6.69794	-5.43409	-2.6196
O	-6.76524	-3.3523	-3.43902
H	-4.25547	-4.63576	-2.04996
H	-4.31436	-5.29799	-3.72754
H	-4.25172	-2.95656	-4.65145
H	-4.19298	-2.29609	-2.9783
H	-2.02185	-3.53409	-2.57289
H	-2.08016	-4.18974	-4.23382
H	-1.52211	-2.03258	-5.21175
H	-0.837143	-0.167633	-3.8989
H	-1.6258	0.189814	-1.62187
H	-2.39815	-1.41823	-1.55956
H	-0.319662	-2.50084	-0.899055
H	1.6264	-1.27973	-0.295969
H	0.575022	1.02472	-2.04419
H	2.16293	0.897545	-1.25039
H	-0.475518	1.90874	-0.0372112
H	0.749763	2.56702	1.88165
H	2.94819	0.593786	1.02759
H	2.83816	1.51455	2.54755
H	3.99758	2.45859	-0.143961
H	4.74276	4.41908	0.984099
H	2.64037	3.81213	3.14695
H	3.65665	5.269	2.9897
H	5.68748	3.93992	3.71937
H	4.66299	2.47128	3.8779
H	3.25248	3.64284	5.61622
H	4.27699	5.1115	5.45769
H	6.29735	3.78148	6.1897
H	5.27254	2.31239	6.34828
H	5.60813	3.42079	8.58975
H	3.86901	3.48363	8.11683
H	4.89263	4.95104	7.95843
H	-7.65932	-5.29447	-2.64096
C	1.44764	-1.75212	6.27579
C	2.63973	-0.83917	6.05406
C	3.86345	-1.57787	5.49045
C	5.05523	-0.632739	5.27528
C	6.24668	-1.37485	4.72193
C	6.52564	-1.55972	3.4213
C	5.70138	-1.06097	2.26143
C	6.14892	0.314452	1.83732
C	7.09132	0.590698	0.920929
C	7.88963	-0.417694	0.133586
C	7.18556	-0.763757	-1.15404
C	7.3309	-0.146349	-2.33805
C	8.23004	1.02681	-2.63538
C	9.59294	0.554207	-3.07393
C	9.9694	0.301878	-4.33826
C	9.10267	0.442044	-5.56491
C	9.20997	1.85394	-6.15966
C	8.33314	2.01639	-7.41139
C	8.43896	3.4285	-8.00822
C	7.56195	3.58547	-9.25734
O	0.395254	-1.07041	6.7698
O	1.39841	-2.93907	6.05452
H	2.34819	-0.0285274	5.34572
H	2.91819	-0.365106	7.02443
H	4.15987	-2.39198	6.19388
H	3.59137	-2.05629	4.5196
H	4.76488	0.186542	4.57788
H	5.32922	-0.146696	6.23994
H	6.94168	-1.79759	5.46817
H	7.43745	-2.12609	3.16229
H	5.78858	-1.76686	1.40535
H	4.62559	-1.03678	2.54579
H	5.64713	1.16323	2.33412
H	7.31357	1.65226	0.713683
H	8.04526	-1.33706	0.740743
H	8.90331	-0.0137561	-0.0840827
H	6.48231	-1.61355	-1.10149
H	6.73899	-0.523965	-3.19041
H	8.32365	1.672	-1.73343
H	7.7754	1.66286	-3.4274
H	10.3383	0.406612	-2.27291
H	11.004	-0.0402827	-4.51535
H	8.04191	0.220891	-5.30542
H	9.40213	-0.313044	-6.32754
H	10.2735	2.06494	-6.42275
H	8.90227	2.60319	-5.39237
H	7.26979	1.80509	-7.1479
H	8.64102	1.26683	-8.1783
H	9.50243	3.64081	-8.27254
H	8.13079	4.17922	-7.24184
H	7.64798	4.61341	-9.67982
H	6.48899	3.399	-9.02095
H	7.85904	2.8612	-10.0505
H	-0.33066	-1.70527	6.889
