108
  This energy is -4.7242 and Call times are: 2090
C	4.51208	-6.10641	2.80552
C	3.38338	-5.25758	3.36162
C	3.67232	-3.75054	3.28295
C	2.51592	-2.91423	3.85147
C	2.81701	-1.43825	3.76601
C	2.51614	-0.630777	2.7359
C	1.81865	-1.04343	1.46441
C	0.324323	-0.901907	1.60194
C	-0.395599	0.193321	1.30804
C	0.145288	1.49915	0.78239
C	0.170102	1.49518	-0.725201
C	-0.814831	1.89946	-1.54413
C	-2.15877	2.44488	-1.13244
C	-2.10062	3.94393	-0.981979
C	-2.344	4.84226	-1.95032
C	-2.72267	4.5267	-3.37601
C	-4.24708	4.42818	-3.5346
C	-4.65287	4.10696	-4.98174
C	-6.1779	4.00791	-5.14277
C	-6.57771	3.68714	-6.58892
O	4.22349	-7.42006	2.89117
O	5.55138	-5.70555	2.33714
H	2.45024	-5.47759	2.79177
H	3.21056	-5.538	4.42717
H	4.60624	-3.52333	3.85008
H	3.84792	-3.46309	2.219
H	1.57811	-3.14009	3.29345
H	2.33089	-3.19989	4.91262
H	3.33163	-0.998914	4.63821
H	2.79871	0.433914	2.81234
H	2.18026	-0.420047	0.616234
H	2.07673	-2.09755	1.21745
H	-0.214744	-1.78811	1.98021
H	-1.48828	0.148416	1.46064
H	1.17021	1.6733	1.17902
H	-0.477992	2.34437	1.15012
H	1.09961	1.11868	-1.18752
H	-0.638417	1.83207	-2.63217
H	-2.48061	1.97903	-0.174337
H	-2.92849	2.16832	-1.88716
H	-1.83258	4.32288	0.0198152
H	-2.26449	5.9142	-1.69846
H	-2.24737	3.56919	-3.69018
H	-2.32196	5.31286	-4.05632
H	-4.7146	5.39255	-3.22443
H	-4.63941	3.63479	-2.85534
H	-4.18496	3.14267	-5.29156
H	-4.26016	4.90046	-5.66065
H	-6.64702	4.97233	-4.83339
H	-6.5718	3.21401	-4.46419
H	-7.68552	3.61818	-6.69167
H	-6.14002	2.71764	-6.92115
H	-6.21516	4.47392	-7.28993
H	4.97897	-7.90702	2.52195
C	3.59609	7.18434	2.76293
C	4.90398	6.41483	2.79453
C	4.75545	5.005	3.38711
C	6.09184	4.24768	3.40787
C	5.92687	2.86655	3.99247
C	5.63236	1.75023	3.30636
C	5.40941	1.66116	1.81779
C	6.70394	1.38446	1.09698
C	7.20435	0.171466	0.809859
C	6.5729	-1.15499	1.15025
C	5.66559	-1.61257	0.0363032
C	6.01051	-2.36849	-1.01907
C	7.38031	-2.92303	-1.31791
C	7.55144	-4.2834	-0.690813
C	7.2549	-5.45926	-1.26817
C	6.69328	-5.64782	-2.65547
C	7.81706	-5.79307	-3.69215
C	7.26414	-5.98626	-5.11307
C	8.38692	-6.13183	-6.15211
C	7.82982	-6.32441	-7.56866
O	3.76514	8.41396	2.2378
O	2.51953	6.79102	3.14573
H	5.29994	6.33092	1.75527
H	5.64566	6.9861	3.40071
H	4.35789	5.08137	4.42709
H	4.01309	4.42792	2.786
H	6.49801	4.17235	2.37286
H	6.8403	4.82103	4.00198
H	6.06422	2.78475	5.08473
H	5.54204	0.804627	3.86932
H	4.67344	0.856796	1.59392
H	4.96565	2.61141	1.44515
H	7.28343	2.26993	0.782054
H	8.16874	0.125129	0.274091
H	5.99728	-1.06979	2.09867
H	7.36331	-1.91635	1.33379
H	4.61378	-1.28442	0.110465
H	5.2227	-2.61818	-1.75152
H	8.16256	-2.22845	-0.938195
H	7.53122	-2.99025	-2.41848
H	7.95807	-4.29895	0.335561
H	7.43167	-6.38289	-0.689835
H	6.04367	-4.78242	-2.92104
H	6.0387	-6.54916	-2.6789
H	8.45865	-6.6652	-3.42285
H	8.46366	-4.88419	-3.66696
H	6.62244	-5.11404	-5.38187
H	6.61743	-6.89508	-5.13776
H	9.02935	-7.00445	-5.88432
H	9.03436	-5.22289	-6.12849
H	8.65406	-6.42859	-8.31185
H	7.19879	-5.45793	-7.87347
H	7.19378	-7.23744	-7.62957
H	2.89848	8.85335	2.24494
