108
  This energy is -3.3654 and Call times are: 336
C	-7.12399	3.84262	-0.0330844
C	-5.6687	4.27267	-0.00288536
C	-4.87895	3.63372	1.14988
C	-3.41042	4.08456	1.15837
C	-2.6511	3.4477	2.29606
C	-1.99364	2.27764	2.24761
C	-1.88706	1.37332	1.04582
C	-0.679754	1.72528	0.214863
C	0.553626	1.21274	0.357218
C	0.977779	0.184066	1.37505
C	0.803299	-1.20939	0.826142
C	1.71485	-1.92218	0.144096
C	3.11028	-1.48252	-0.220128
C	4.08766	-1.86524	0.862194
C	4.77006	-3.01981	0.934219
C	4.69166	-4.15775	-0.0529592
C	5.73002	-3.99156	-1.17228
C	5.66557	-5.14238	-2.1889
C	6.70377	-4.97815	-3.30988
C	6.63533	-6.12931	-4.32192
O	-7.78366	4.42205	-1.05553
O	-7.66697	3.08396	0.734925
H	-5.1883	3.99285	-0.969738
H	-5.62108	5.38247	0.0969955
H	-5.35537	3.90844	2.12097
H	-4.92373	2.52249	1.05705
H	-2.9293	3.81849	0.189028
H	-3.35779	5.19433	1.24518
H	-2.64605	4.00818	3.24707
H	-1.47991	1.93364	3.16248
H	-1.82143	0.312567	1.37639
H	-2.80849	1.45757	0.427253
H	-0.838982	2.47472	-0.580137
H	1.34227	1.56866	-0.328801
H	0.381528	0.302989	2.30695
H	2.03994	0.34918	1.66254
H	-0.17942	-1.67747	1.01227
H	1.42917	-2.93485	-0.191111
H	3.1322	-0.381363	-0.379861
H	3.41381	-1.94346	-1.18654
H	4.2467	-1.11957	1.66077
H	5.45579	-3.16738	1.78675
H	3.66846	-4.20814	-0.491099
H	4.85477	-5.12632	0.473079
H	6.75169	-3.94863	-0.726034
H	5.55579	-3.02303	-1.698
H	4.6437	-5.18509	-2.63471
H	5.83961	-6.1107	-1.66273
H	7.72657	-4.93567	-2.86494
H	6.5303	-4.00978	-3.83722
H	7.39295	-5.99791	-5.12895
H	5.6299	-6.18539	-4.79927
H	6.82479	-7.1102	-3.82812
H	-8.70301	4.10929	-1.02109
C	10.4051	-2.56299	7.61176
C	9.87706	-3.17899	6.32901
C	8.74929	-2.35504	5.68864
C	8.23275	-2.99905	4.39313
C	7.12672	-2.17694	3.77889
C	7.28381	-1.18616	2.88596
C	8.59705	-0.703304	2.32408
C	8.95661	-1.46225	1.07241
C	8.61767	-1.12234	-0.182085
C	7.81078	0.0846061	-0.589844
C	8.71371	1.26385	-0.849769
C	9.27835	1.59804	-2.02181
C	9.13111	0.865677	-3.33144
C	7.9547	1.39882	-4.10924
C	7.98913	2.40677	-4.99625
C	9.21056	3.20119	-5.38682
C	9.93009	2.55795	-6.58147
C	11.1783	3.35375	-6.99456
C	11.8999	2.71188	-8.18986
C	13.1451	3.50995	-8.59824
O	11.3912	-3.31193	8.14373
O	10.0252	-1.53889	8.12861
H	10.716	-3.27241	5.60009
H	9.49644	-4.2039	6.54941
H	7.90658	-2.25616	6.41357
H	9.12294	-1.32713	5.46675
H	9.07043	-3.10629	3.66602
H	7.86294	-4.02854	4.60592
H	6.10176	-2.4261	4.10441
H	6.37894	-0.669109	2.52108
H	8.53444	0.385211	2.10051
H	9.40078	-0.826485	3.08409
H	9.55372	-2.37988	1.21541
H	8.95459	-1.77923	-1.00321
H	7.0755	0.336987	0.206251
H	7.21528	-0.146336	-1.50097
H	8.92212	1.90838	0.0223707
H	9.91823	2.49775	-2.04574
H	9.00111	-0.223771	-3.14503
H	10.0623	0.969916	-3.93187
H	6.98408	0.906777	-3.92264
H	7.04712	2.69418	-5.49507
H	9.90728	3.27359	-4.52034
H	8.91691	4.2457	-5.64025
H	9.22809	2.49521	-7.44637
H	10.2265	1.51525	-6.31742
H	11.8799	3.41644	-6.12934
H	10.8815	4.39641	-7.25831
H	11.199	2.64901	-9.05622
H	12.1976	1.66875	-7.92691
H	13.6586	3.0339	-9.46556
H	13.8749	3.57348	-7.75845
H	12.8773	4.55261	-8.88645
H	11.6851	-2.86824	8.95672
