108
  This energy is -3.9125 and Call times are: 2414
C	-4.35558	4.30433	5.29336
C	-3.4029	3.12658	5.38838
C	-3.80338	1.95693	4.47605
C	-2.82428	0.778723	4.59058
C	-3.23303	-0.359558	3.68851
C	-2.84623	-0.533393	2.41422
C	-1.92785	0.376174	1.63787
C	-0.490329	-0.0469073	1.80061
C	0.170546	-0.915975	1.01821
C	-0.39164	-1.64183	-0.178096
C	-0.182467	-0.835541	-1.43492
C	0.879291	-0.891513	-2.25573
C	2.092	-1.77324	-2.09745
C	1.8839	-3.09356	-2.79504
C	2.19683	-3.36694	-4.07224
C	2.817	-2.40702	-5.05689
C	4.35037	-2.47773	-5.00749
C	5.00103	-1.50594	-6.00465
C	6.53544	-1.57499	-5.95695
C	7.18002	-0.603183	-6.95404
O	-3.97298	5.30914	6.10594
O	-5.3402	4.37995	4.59692
H	-2.37753	3.46704	5.11162
H	-3.3738	2.76867	6.44429
H	-4.82971	1.61203	4.74654
H	-3.83607	2.30855	3.4174
H	-1.79565	1.11705	4.32727
H	-2.78204	0.425618	5.64671
H	-3.9119	-1.10814	4.13275
H	-3.2268	-1.41753	1.87317
H	-2.2056	0.362311	0.560169
H	-2.05395	1.4259	1.98564
H	0.0571566	0.407545	2.64487
H	1.22627	-1.12923	1.26158
H	-1.47664	-1.83797	-0.0284228
H	0.0930185	-2.63818	-0.28054
H	-0.993796	-0.132187	-1.69283
H	0.879729	-0.231195	-3.14086
H	2.30018	-1.94278	-1.01742
H	2.98992	-1.26226	-2.51119
H	1.43283	-3.89881	-2.18912
H	1.98838	-4.38166	-4.45398
H	2.47926	-1.36846	-4.83609
H	2.46094	-2.63949	-6.08675
H	4.68049	-3.51868	-5.23602
H	4.69896	-2.23737	-3.97526
H	4.67048	-0.465169	-5.77591
H	4.65201	-1.7465	-7.03669
H	6.86725	-2.61582	-6.18603
H	6.88572	-1.33411	-4.92487
H	8.29219	-0.663375	-6.90915
H	6.88312	0.449114	-6.7386
H	6.86467	-0.831115	-7.9983
H	-4.61803	6.02818	6.00052
C	5.66835	8.0609	0.594643
C	6.60766	6.99112	1.12092
C	5.87995	5.88714	1.90354
C	6.85175	4.81774	2.425
C	6.12013	3.74279	3.19029
C	5.60817	2.61508	2.67085
C	5.66557	2.20475	1.22109
C	6.90636	1.39606	0.941072
C	7.01548	0.0603298	1.03107
C	5.92068	-0.897094	1.4296
C	5.15017	-1.35677	0.217795
C	5.42097	-2.42858	-0.545147
C	6.55461	-3.4041	-0.354421
C	6.13113	-4.54326	0.537852
C	5.57589	-5.6968	0.131698
C	5.26801	-6.07713	-1.29523
C	6.45789	-6.79939	-1.94423
C	6.16307	-7.19528	-3.39971
C	7.3524	-7.91817	-4.05115
C	7.05308	-8.31117	-5.50374
O	6.34105	9.01048	-0.0851206
O	4.46929	8.1011	0.739121
H	7.14842	6.52947	0.261646
H	7.36374	7.469	1.78716
H	5.33504	6.34247	2.76448
H	5.1203	5.40542	1.24299
H	7.40397	4.36227	1.5709
H	7.61714	5.29247	3.08128
H	6.00432	3.91543	4.27444
H	5.0961	1.91546	3.35464
H	4.76115	1.61049	0.961012
H	5.64993	3.10883	0.572118
H	7.79991	1.96774	0.634813
H	7.99337	-0.394304	0.79382
H	5.23276	-0.407579	2.15434
H	6.3563	-1.77394	1.95826
H	4.27738	-0.738619	-0.0571593
H	4.75545	-2.62981	-1.40309
H	7.43407	-2.88327	0.0858446
H	6.88736	-3.79753	-1.34084
H	6.29857	-4.4025	1.62007
H	5.31416	-6.44721	0.897981
H	5.01319	-5.16538	-1.88279
H	4.3665	-6.73117	-1.32591
H	6.70233	-7.71413	-1.35407
H	7.35425	-6.13569	-1.91544
H	5.91848	-6.2803	-3.98945
H	5.26655	-7.85877	-3.42806
H	7.59773	-8.83399	-3.46209
H	8.24986	-7.25506	-4.02364
H	7.92322	-8.83424	-5.96397
H	6.82345	-7.41395	-6.12354
H	6.17207	-8.99106	-5.56264
H	5.68938	9.66164	-0.394179
