108
  This energy is 0.1582 and Call times are: 3119
C	-6.84368	0.00217125	4.32228
C	-6.10651	-1.01755	3.47347
C	-5.81913	-0.516427	2.0497
C	-5.07308	-1.56583	1.2118
C	-4.79969	-1.05678	-0.181973
C	-3.70636	-0.382927	-0.574674
C	-2.53957	-0.00442024	0.302133
C	-1.48963	-1.08587	0.294486
C	-0.455917	-1.17696	-0.558345
C	-0.13845	-0.217473	-1.67757
C	0.767479	0.885148	-1.19076
C	2.11066	0.8795	-1.19492
C	3.00311	-0.231344	-1.6876
C	3.31613	-0.0520209	-3.1515
C	4.35669	0.631071	-3.65603
C	5.41413	1.35141	-2.85697
C	6.59607	0.423333	-2.54018
C	7.6848	1.13994	-1.7258
C	8.86853	0.213113	-1.40765
C	9.95242	0.933103	-0.594705
O	-7.07782	-0.47167	5.56201
O	-7.19599	1.10577	3.97849
H	-5.14057	-1.2714	3.96986
H	-6.71795	-1.94836	3.4132
H	-6.78182	-0.258899	1.54733
H	-5.20861	0.41627	2.10252
H	-4.11273	-1.83232	1.7104
H	-5.67446	-2.50256	1.15927
H	-5.57981	-1.26617	-0.934407
H	-3.64169	-0.0712528	-1.632
H	-2.09705	0.953674	-0.0514137
H	-2.89155	0.172456	1.34309
H	-1.59261	-1.86831	1.06663
H	0.235553	-2.02985	-0.441254
H	-1.07886	0.215392	-2.08544
H	0.343885	-0.761847	-2.51966
H	0.259438	1.78154	-0.793459
H	2.62936	1.77125	-0.800952
H	2.51111	-1.21576	-1.52205
H	3.94618	-0.251328	-1.09704
H	2.61864	-0.530796	-3.86095
H	4.46427	0.680848	-4.75365
H	4.97352	1.73896	-1.90981
H	5.77369	2.24183	-3.42205
H	7.03551	0.0450463	-3.49337
H	6.22887	-0.461885	-1.96892
H	7.2449	1.51824	-0.772831
H	8.05155	2.02518	-2.29731
H	9.30964	-0.165677	-2.36046
H	8.50275	-0.672765	-0.835525
H	10.8045	0.250085	-0.370982
H	9.5468	1.30636	0.37382
H	10.3528	1.81286	-1.14935
H	-7.54882	0.222176	6.05287
C	1.04128	6.21594	-5.01672
C	1.16538	6.05371	-3.51272
C	0.198619	5.00497	-2.94145
C	0.343855	4.85985	-1.41903
C	-0.612359	3.82671	-0.876107
C	-0.36018	2.51488	-0.737786
C	0.928469	1.82016	-1.09863
C	1.87584	1.80405	0.0736171
C	1.95262	0.847919	1.01389
C	1.10808	-0.39934	1.08576
C	1.76349	-1.52855	0.331579
C	2.62941	-2.42758	0.827682
C	3.13335	-2.50174	2.24673
C	2.23602	-3.37714	3.08438
C	2.37126	-4.70156	3.26197
C	3.44646	-5.57062	2.65845
C	4.6737	-5.65122	3.57826
C	5.78108	-6.53313	2.97992
C	7.01014	-6.61522	3.89868
C	8.1125	-7.49659	3.29695
O	1.903	7.14228	-5.48106
O	0.285831	5.61766	-5.74582
H	2.21111	5.7547	-3.26585
H	0.963604	7.03605	-3.02469
H	-0.85024	5.29719	-3.18633
H	0.393966	4.01922	-3.42684
H	1.39077	4.57351	-1.16631
H	0.155644	5.84215	-0.927554
H	-1.60471	4.20076	-0.569631
H	-1.15882	1.87448	-0.323861
H	0.716299	0.777986	-1.42671
H	1.40564	2.33491	-1.96241
H	2.56405	2.66368	0.153815
H	2.70021	0.973156	1.81681
H	0.0970889	-0.19857	0.666608
H	0.951657	-0.691864	2.14786
H	1.49364	-1.6111	-0.736058
H	3.02147	-3.19719	0.139592
H	3.18491	-1.48029	2.68552
H	4.17268	-2.89942	2.26058
H	1.39643	-2.8702	3.59147
H	1.63787	-5.21853	3.90517
H	3.74532	-5.16633	1.66412
H	3.04561	-6.59348	2.47263
H	4.36738	-6.06292	4.56895
H	5.07274	-4.62424	3.75391
H	6.08693	-6.12122	1.98918
H	5.38156	-7.55992	2.80423
H	6.7053	-7.02757	4.89012
H	7.41088	-5.58844	4.07483
H	8.99741	-7.54751	3.9729
H	8.45298	-7.0986	2.3133
H	7.74821	-8.53607	3.12765
H	1.7759	7.19953	-6.44271
