108
  This energy is -5.5071 and Call times are: 1283
C	-2.29998	-5.07111	-5.87469
C	-1.88232	-3.61321	-5.81304
C	-2.71272	-2.79386	-4.81308
C	-2.27081	-1.32324	-4.76958
C	-3.09652	-0.534737	-3.78319
C	-2.81529	-0.360201	-2.48161
C	-1.61891	-0.918977	-1.75366
C	-0.459855	0.0430533	-1.80873
C	-0.195095	1.01245	-0.917461
C	-1.00262	1.33271	0.315179
C	-0.502097	0.542732	1.49792
C	0.449003	0.918985	2.36857
C	1.22198	2.21334	2.35118
C	0.511031	3.26793	3.16083
C	0.68537	3.50468	4.47136
C	1.62573	2.76215	5.38785
C	3.01001	3.42671	5.4164
C	3.98301	2.68381	6.34561
C	5.36887	3.34708	6.37574
C	6.33628	2.60182	7.3046
O	-1.55096	-5.75699	-6.7606
O	-3.1807	-5.59574	-5.2349
H	-0.806942	-3.55659	-5.52279
H	-1.98951	-3.16263	-6.82763
H	-3.79075	-2.84745	-5.09673
H	-2.61131	-3.24036	-3.79534
H	-1.19319	-1.26199	-4.49234
H	-2.36402	-0.871942	-5.78423
H	-4.01136	-0.0655858	-4.18512
H	-3.51384	0.244647	-1.87709
H	-1.88592	-1.12785	-0.693542
H	-1.3232	-1.89235	-2.20519
H	0.226235	-0.071585	-2.66616
H	0.694857	1.64281	-1.09033
H	-2.07724	1.10739	0.134806
H	-0.946065	2.42216	0.534263
H	-0.975766	-0.443174	1.64993
H	0.702403	0.220999	3.18593
H	1.35334	2.56342	1.30297
H	2.24587	2.04993	2.75552
H	-0.215345	3.8944	2.61406
H	0.095151	4.31267	4.93785
H	1.72156	1.70351	5.05386
H	1.20153	2.72814	6.41758
H	2.90619	4.48375	5.75796
H	3.43042	3.45085	4.38322
H	4.08636	1.62679	6.00384
H	3.56212	2.65971	7.3786
H	5.26666	4.40461	6.71791
H	5.79105	3.37139	5.34275
H	7.33688	3.09295	7.31715
H	6.47505	1.54589	6.97652
H	5.95126	2.57792	8.3501
H	-1.86458	-6.67666	-6.75402
C	7.33721	-5.06004	5.94528
C	6.09544	-4.86025	5.09569
C	5.55926	-3.42127	5.14744
C	4.30352	-3.2454	4.2802
C	3.79156	-1.82751	4.3432
C	4.14836	-0.823596	3.52558
C	5.13046	-0.919357	2.38551
C	4.43033	-1.29352	1.1042
C	3.90805	-0.437455	0.210572
C	3.91705	1.06729	0.309249
C	5.15354	1.63465	-0.340872
C	5.28704	2.00101	-1.62623
C	4.22861	1.92399	-2.69719
C	3.42913	3.20129	-2.74721
C	3.71352	4.27909	-3.49647
C	4.88732	4.42157	-4.4332
C	4.52915	3.93834	-5.84631
C	5.71354	4.07575	-6.81605
C	5.35739	3.59277	-8.23074
C	6.54285	3.732	-9.19478
O	7.77787	-6.33173	5.87518
O	7.89496	-4.22215	6.61393
H	6.33496	-5.11959	4.03774
H	5.29899	-5.55636	5.44921
H	5.31887	-3.15436	6.20405
H	6.35211	-2.71873	4.79631
H	4.53451	-3.51569	3.22404
H	3.50882	-3.94814	4.62151
H	3.0578	-1.61381	5.13976
H	3.68962	0.167138	3.69069
H	5.65659	0.0531129	2.25797
H	5.91197	-1.67535	2.62316
H	4.34657	-2.37421	0.894134
H	3.42282	-0.860775	-0.68643
H	3.87182	1.37855	1.37657
H	3.00684	1.48549	-0.17524
H	6.02965	1.75492	0.320527
H	6.26486	2.40124	-1.94743
H	3.55371	1.06065	-2.50302
H	4.70191	1.73299	-3.68615
H	2.53187	3.23979	-2.10497
H	3.03777	5.1499	-3.43421
H	5.75448	3.8405	-4.04356
H	5.21486	5.48593	-4.46947
H	3.66478	4.52926	-6.23161
H	4.20876	2.87054	-5.80226
H	6.57773	3.48488	-6.43027
H	6.03374	5.14362	-6.85963
H	4.49308	4.18355	-8.61782
H	5.03723	2.52431	-8.18833
H	6.27119	3.37846	-10.2164
H	7.41713	3.13589	-8.84524
H	6.87361	4.79322	-9.27423
H	8.56882	-6.39529	6.43605
