108
  This energy is -5.2565 and Call times are: 1556
C	-2.29404	0.607796	-7.73861
C	-1.67104	1.54822	-6.72313
C	-2.48538	1.6522	-5.42434
C	-1.83441	2.60905	-4.41409
C	-2.64713	2.69853	-3.14603
C	-2.50672	1.91686	-2.06302
C	-1.50882	0.797655	-1.90471
C	-0.219519	1.30795	-1.31374
C	0.0763121	1.37804	-0.00539696
C	-0.820213	0.96111	1.13323
C	-0.596267	-0.488619	1.48194
C	0.285181	-0.971814	2.37287
C	1.24162	-0.16836	3.21717
C	0.603756	0.208521	4.53028
C	0.64768	-0.512735	5.66243
C	1.34322	-1.83939	5.8407
C	2.79786	-1.64491	6.29334
C	3.52377	-2.98658	6.48054
C	4.97957	-2.79438	6.93348
C	5.69968	-4.13644	7.11889
O	-1.55344	0.542238	-8.86267
O	-3.31676	-0.0217574	-7.60473
H	-0.644043	1.18842	-6.47877
H	-1.58167	2.5632	-7.17672
H	-3.51533	2.0104	-5.66173
H	-2.58018	0.63926	-4.96563
H	-0.802895	2.26072	-4.17635
H	-1.73121	3.62186	-4.86737
H	-3.42309	3.48338	-3.12395
H	-3.17512	2.09804	-1.20298
H	-1.93413	0.00230964	-1.25255
H	-1.31034	0.326405	-2.89329
H	0.542463	1.65242	-2.03468
H	1.06608	1.77657	0.278841
H	-1.88571	1.12572	0.858054
H	-0.626762	1.60044	2.02314
H	-1.22916	-1.21418	0.941121
H	0.32618	-2.0664	2.51316
H	1.55384	0.748675	2.66935
H	2.17057	-0.753307	3.40003
H	0.0544768	1.16613	4.54788
H	0.133469	-0.114149	6.55436
H	1.31816	-2.41074	4.88447
H	0.794079	-2.45655	6.58836
H	2.81391	-1.07812	7.25422
H	3.34222	-1.03194	5.53655
H	3.50729	-3.55311	5.51953
H	2.97896	-3.5993	7.23722
H	4.99719	-2.22795	7.89512
H	5.52566	-2.18176	6.17693
H	6.75377	-3.98271	7.44724
H	5.71639	-4.7181	6.16848
H	5.18852	-4.76425	7.8847
H	-2.00127	-0.0709954	-9.46896
C	11.4692	5.1001	1.9688
C	10.3692	4.3842	2.73123
C	8.9697	4.65205	2.15636
C	7.87526	3.91694	2.94485
C	6.50896	4.19143	2.36661
C	5.90016	3.47438	1.40804
C	6.46482	2.25525	0.723685
C	6.08387	0.999203	1.46476
C	4.98234	0.260407	1.25262
C	3.90726	0.538422	0.23234
C	4.23011	-0.136751	-1.07662
C	3.86854	-1.37523	-1.45029
C	3.06124	-2.35833	-0.641008
C	1.58827	-2.18929	-0.914771
C	0.886951	-2.82394	-1.86834
C	1.43591	-3.82875	-2.85047
C	1.34474	-5.25604	-2.2908
C	1.89975	-6.29497	-3.27804
C	1.80953	-7.72395	-2.72007
C	2.36474	-8.75712	-3.7092
O	12.6802	4.84197	2.50079
O	11.3292	5.81731	1.00638
H	10.5668	3.28681	2.7067
H	10.3926	4.71475	3.79616
H	8.76583	5.74909	2.17639
H	8.93958	4.32493	1.08981
H	8.07535	2.8207	2.93405
H	7.90286	4.23447	4.0127
H	5.97569	5.06476	2.78075
H	4.89511	3.79416	1.08112
H	6.09145	2.20346	-0.323544
H	7.57321	2.33604	0.662863
H	6.78418	0.668081	2.2515
H	4.83641	-0.638724	1.87674
H	3.8035	1.63557	0.0787419
H	2.92303	0.183171	0.610739
H	4.82492	0.461113	-1.78953
H	4.18679	-1.72411	-2.44853
H	3.26497	-2.21544	0.443713
H	3.37574	-3.39818	-0.882572
H	1.05076	-1.47649	-0.265136
H	-0.191067	-2.60276	-1.9565
H	2.49622	-3.58345	-3.08923
H	0.875605	-3.76307	-3.81129
H	0.279754	-5.49608	-2.06064
H	1.91346	-5.31501	-1.33275
H	2.96465	-6.05443	-3.50809
H	1.33092	-6.23551	-4.23599
H	0.744425	-7.96577	-2.4899
H	2.37864	-7.78465	-1.76177
H	2.29334	-9.78848	-3.29238
H	3.43502	-8.55389	-3.94394
H	1.80269	-8.73481	-4.67122
H	13.3373	5.32513	1.97258
