108
  This energy is -2.3381 and Call times are: 2614
C	0.546658	-8.04746	-0.676475
C	0.262054	-7.07901	0.457024
C	1.35327	-6.00958	0.619556
C	1.04197	-5.04284	1.77213
C	2.12331	-4.00059	1.9167
C	2.15413	-2.80639	1.30303
C	1.11314	-2.27577	0.350014
C	0.0453247	-1.51339	1.09198
C	0.0589485	-0.198218	1.36458
C	1.1432	0.778286	0.983907
C	0.863185	1.38167	-0.369234
C	0.16144	2.49947	-0.618738
C	-0.498226	3.3928	0.401048
C	0.451657	4.47146	0.856433
C	0.592953	5.68386	0.296051
C	-0.170594	6.2022	-0.897222
C	-1.46051	6.91326	-0.462253
C	-2.25295	7.44883	-1.66527
C	-3.54415	8.16077	-1.23236
C	-4.33142	8.69346	-2.43673
O	-0.430101	-8.96924	-0.788519
O	1.50707	-8.03584	-1.40976
H	-0.713919	-6.5743	0.265611
H	0.172403	-7.65251	1.40937
H	2.33351	-6.50793	0.809894
H	1.44953	-5.43257	-0.330837
H	0.0612465	-4.54533	1.59174
H	0.938774	-5.61284	2.72414
H	2.95704	-4.25997	2.59212
H	3.01289	-2.1422	1.5046
H	1.59446	-1.61372	-0.404163
H	0.652935	-3.11815	-0.213356
H	-0.821776	-2.10338	1.43707
H	-0.798153	0.2223	1.91938
H	2.13058	0.265368	0.974485
H	1.21759	1.58153	1.7503
H	1.28484	0.837198	-1.23251
H	0.0466159	2.80951	-1.67239
H	-0.834641	2.78954	1.27366
H	-1.41485	3.85178	-0.0321728
H	1.08142	4.2288	1.73025
H	1.33052	6.37806	0.735259
H	-0.416529	5.35966	-1.58358
H	0.469586	6.90371	-1.47989
H	-1.20523	7.75909	0.219058
H	-2.09851	6.20257	0.114524
H	-2.50782	6.60273	-2.34641
H	-1.61453	8.15927	-2.24187
H	-3.29026	9.00772	-0.551104
H	-4.18382	7.45072	-0.655672
H	-5.26482	9.20712	-2.10891
H	-4.61756	7.86682	-3.12716
H	-3.72503	9.42203	-3.02271
H	-0.191646	-9.55543	-1.5259
C	4.76014	-1.2079	-7.89074
C	5.85549	-0.54797	-7.07318
C	5.32277	0.532174	-6.11907
C	6.44989	1.18414	-5.30394
C	5.90859	2.24131	-4.37342
C	5.49748	2.04389	-3.11022
C	5.49735	0.726405	-2.37695
C	6.80155	0.516193	-1.65112
C	7.07453	0.895342	-0.391787
C	6.13294	1.60622	0.547425
C	5.33614	0.611967	1.35368
C	5.6758	0.0888946	2.54331
C	6.92797	0.383191	3.32983
C	6.70868	1.54762	4.26214
C	6.26602	1.47009	5.52782
C	5.90228	0.203874	6.26264
C	7.11893	-0.378452	6.99703
C	6.76788	-1.67009	7.75234
C	7.98389	-2.25458	8.48797
C	7.62825	-3.54364	9.24025
O	5.26419	-2.14798	-8.71445
O	3.57851	-0.959004	-7.84575
H	6.38313	-1.32922	-6.47724
H	6.59609	-0.0850781	-7.76683
H	4.79189	1.31687	-6.70888
H	4.5795	0.0760154	-5.4227
H	6.98851	0.405382	-4.71631
H	7.19936	1.63718	-5.9931
H	5.85242	3.26413	-4.78484
H	5.12316	2.91541	-2.5449
H	4.65324	0.698054	-1.65207
H	5.32739	-0.105779	-3.09622
H	7.59631	0.00194399	-2.2194
H	8.07953	0.672221	0.00752866
H	5.44648	2.26527	-0.0292171
H	6.70679	2.27431	1.22746
H	4.37852	0.291362	0.90686
H	4.97811	-0.63136	3.00585
H	7.7692	0.605235	2.63588
H	7.23227	-0.516254	3.9103
H	6.93664	2.54791	3.85411
H	6.15164	2.40842	6.09814
H	5.49903	-0.546992	5.54498
H	5.08484	0.411079	6.99086
H	7.51244	0.376644	7.71798
H	7.92998	-0.589167	6.26042
H	6.37422	-2.42481	7.03107
H	5.95668	-1.45898	8.48866
H	8.37833	-1.5004	9.21014
H	8.796	-2.46651	7.75212
H	8.51841	-3.95671	9.76896
H	7.24932	-4.32494	8.54177
H	6.83213	-3.35994	9.9981
H	4.51914	-2.53087	-9.20689
