108
  This energy is -5.54 and Call times are: 863
C	-0.539219	-0.569496	-8.05624
C	0.189903	0.34377	-7.08771
C	-0.74761	1.00191	-6.06363
C	0.0139396	1.92034	-5.09593
C	-0.921877	2.55731	-4.09844
C	-1.25995	2.05224	-2.90083
C	-0.76926	0.749777	-2.32095
C	0.492847	0.95898	-1.52391
C	0.56098	1.24292	-0.212829
C	-0.609247	1.4092	0.723646
C	-0.979955	0.0886602	1.34991
C	-0.497953	-0.417989	2.49671
C	0.51852	0.224788	3.40599
C	-0.162422	1.08254	4.4422
C	-0.576198	0.674771	5.65316
C	-0.44037	-0.719785	6.21203
C	0.885408	-0.885515	6.96935
C	1.04222	-2.3012	7.54667
C	2.3682	-2.46932	8.30493
C	2.51987	-3.88399	8.87919
O	0.313741	-1.12775	-8.93777
O	-1.72551	-0.798787	-8.07576
H	0.962303	-0.248538	-6.54323
H	0.712033	1.14187	-7.6659
H	-1.52451	1.59532	-6.60191
H	-1.2749	0.20858	-5.4822
H	0.795729	1.33561	-4.55855
H	0.547942	2.71222	-5.67008
H	-1.35916	3.52606	-4.39661
H	-1.95942	2.63158	-2.27284
H	-1.55642	0.305508	-1.67151
H	-0.581972	0.0191054	-3.13937
H	1.44085	0.867308	-2.08241
H	1.56186	1.36943	0.236041
H	-1.48102	1.82655	0.172343
H	-0.359672	2.14913	1.51631
H	-1.72464	-0.51083	0.797155
H	-0.873985	-1.40448	2.82063
H	1.2269	0.841034	2.80851
H	1.13158	-0.55882	3.90465
H	-0.329364	2.13868	4.16696
H	-1.06235	1.41377	6.31373
H	-0.499579	-1.46533	5.38614
H	-1.29456	-0.938849	6.89307
H	0.933908	-0.140259	7.79822
H	1.73531	-0.670989	6.27911
H	0.993439	-3.04612	6.71752
H	0.192021	-2.51539	8.23665
H	2.41789	-1.7247	9.13498
H	3.21954	-2.2556	7.6154
H	3.48508	-3.99223	9.4262
H	2.49433	-4.65063	8.07079
H	1.6936	-4.12035	9.58862
H	-0.209651	-1.69703	-9.52614
C	7.27599	6.57006	-4.31775
C	6.01959	6.0598	-3.63598
C	5.62715	4.6438	-4.08517
C	4.35372	4.15093	-3.38136
C	3.98388	2.76008	-3.83439
C	4.39553	1.61226	-3.27164
C	5.30773	1.4914	-2.07718
C	4.5139	1.46697	-0.796091
C	4.03369	0.371251	-0.185358
C	4.19187	-1.05214	-0.65759
C	5.44429	-1.66565	-0.0844396
C	5.55015	-2.33726	1.07398
C	4.43877	-2.62285	2.05195
C	3.76413	-3.93042	1.72287
C	4.11419	-5.13772	2.19593
C	5.24966	-5.42049	3.14794
C	4.77897	-5.34609	4.60794
C	5.92289	-5.63159	5.59384
C	5.45417	-5.55767	7.05544
C	6.5996	-5.84338	8.03545
O	7.58863	7.81253	-3.89962
O	7.94322	5.9793	-5.13386
H	6.18176	6.05773	-2.53254
H	5.17798	6.75676	-3.85921
H	5.46478	4.63816	-5.18928
H	6.46591	3.94097	-3.86612
H	4.50644	4.15918	-2.2775
H	3.51262	4.85128	-3.591
H	3.31333	2.69929	-4.70918
H	4.04253	0.663313	-3.71226
H	5.91802	0.56439	-2.16068
H	6.02361	2.34348	-2.06132
H	4.31673	2.44733	-0.328059
H	3.46734	0.509991	0.75233
H	4.22829	-1.08203	-1.76929
H	3.3037	-1.65249	-0.35953
H	6.35879	-1.54138	-0.690839
H	6.54523	-2.72632	1.35314
H	3.69427	-1.79586	2.03317
H	4.84327	-2.65422	3.08826
H	2.90676	-3.87517	1.0294
H	3.52895	-6.01499	1.86926
H	6.07482	-4.69105	2.97925
H	5.67573	-6.42861	2.93914
H	3.95774	-6.08369	4.77016
H	4.36005	-4.33208	4.8106
H	6.74397	-4.89393	5.43112
H	6.34166	-6.64557	5.39069
H	4.63289	-6.29558	7.21942
H	5.03532	-4.54343	7.25987
H	6.24626	-5.7866	9.09114
H	7.42846	-5.10916	7.90976
H	7.02649	-6.85929	7.86936
H	8.39596	8.08123	-4.36888
