108
  This energy is 0.1181 and Call times are: 3827
C	6.01583	1.74839	-5.12552
C	4.60741	2.26765	-4.90097
C	3.546	1.15741	-4.94131
C	2.13051	1.70832	-4.71158
C	1.10234	0.60492	-4.75456
C	0.680834	-0.120965	-3.70619
C	1.154	0.0264912	-2.28217
C	0.302438	1.01996	-1.53396
C	-0.811031	0.739006	-0.837227
C	-1.43196	-0.624229	-0.663725
C	-0.872987	-1.31086	0.556747
C	-1.35816	-1.24293	1.80742
C	-2.56726	-0.464927	2.26123
C	-3.81103	-1.31165	2.16497
C	-4.30212	-2.10202	3.1335
C	-3.70545	-2.29643	4.50527
C	-4.26919	-1.27455	5.50359
C	-3.67264	-1.45679	6.90822
C	-4.23535	-0.435269	7.90887
C	-3.63679	-0.621403	9.30928
O	6.91798	2.74871	-5.08332
O	6.3376	0.60006	-5.32053
H	4.5626	2.77556	-3.90904
H	4.37071	3.02358	-5.68611
H	3.58631	0.643561	-5.93116
H	3.77769	0.396198	-4.15879
H	2.08402	2.22809	-3.72691
H	1.89404	2.47365	-5.48634
H	0.667603	0.388071	-5.74581
H	-0.0806276	-0.899733	-3.88772
H	1.12077	-0.96076	-1.76933
H	2.21705	0.355958	-2.26995
H	0.636968	2.07151	-1.57093
H	-1.33211	1.57519	-0.338707
H	-1.2452	-1.24493	-1.56813
H	-2.53705	-0.530031	-0.574267
H	0.0267898	-1.92854	0.388355
H	-0.829522	-1.80847	2.59493
H	-2.68324	0.452438	1.64193
H	-2.4243	-0.117428	3.30878
H	-4.35694	-1.26807	1.20626
H	-5.22617	-2.66894	2.92479
H	-2.59663	-2.20077	4.45211
H	-3.91338	-3.33033	4.86478
H	-5.37854	-1.38127	5.55585
H	-4.05115	-0.242585	5.13985
H	-2.5633	-1.35022	6.85545
H	-3.89071	-2.48892	7.27146
H	-5.3452	-0.541283	7.96269
H	-4.01739	0.597755	7.54657
H	-4.05311	0.125252	10.0246
H	-2.52902	-0.501261	9.29196
H	-3.85529	-1.63899	9.70761
H	7.79374	2.35513	-5.23282
C	-0.376015	3.5004	-4.32871
C	-0.235985	2.20201	-3.55521
C	0.975845	1.36805	-3.99884
C	1.09518	0.0603519	-3.20161
C	2.28964	-0.744808	-3.65044
C	3.53192	-0.659367	-3.14736
C	3.97364	0.258544	-2.0357
C	3.81598	-0.409445	-0.693733
C	4.74343	-1.15234	-0.0675305
C	6.12631	-1.46693	-0.580121
C	7.11185	-0.420139	-0.125829
C	7.83515	-0.437703	1.00586
C	7.81771	-1.50864	2.06697
C	8.84697	-2.56923	1.7687
C	10.1235	-2.56688	2.18634
C	10.7756	-1.50349	3.03456
C	10.6286	-1.82137	4.52989
C	11.2874	-0.74829	5.41111
C	11.1415	-1.06434	6.90786
C	11.8007	0.00968229	7.78309
O	-1.44777	4.20378	-3.9129
O	0.350648	3.89614	-5.20938
H	-0.136313	2.43635	-2.46937
H	-1.16236	1.59651	-3.69337
H	0.88343	1.13115	-5.08549
H	1.90677	1.96876	-3.86472
H	1.1822	0.288862	-2.11436
H	0.166328	-0.542642	-3.32622
H	2.10768	-1.46456	-4.46742
H	4.31085	-1.31402	-3.57626
H	5.03627	0.552175	-2.18856
H	3.37689	1.19767	-2.0622
H	2.84343	-0.266154	-0.191083
H	4.48318	-1.57995	0.916683
H	6.11625	-1.52279	-1.69137
H	6.44549	-2.4707	-0.221405
H	7.24055	0.442138	-0.803617
H	8.51658	0.410834	1.19324
H	6.80563	-1.96757	2.12706
H	8.01495	-1.05778	3.06515
H	8.50649	-3.41816	1.15029
H	10.7696	-3.41223	1.89178
H	10.3203	-0.511097	2.81261
H	11.8548	-1.41863	2.77056
H	11.0926	-2.81297	4.7449
H	9.54572	-1.89811	4.78729
H	10.8233	0.243145	5.19562
H	12.3702	-0.671732	5.15323
H	11.6059	-2.05595	7.12462
H	10.0585	-1.1408	7.16702
H	11.6876	-0.231624	8.86547
H	11.3438	1.01018	7.60377
H	12.8894	0.0960899	7.56142
H	-1.48274	5.01792	-4.4422
