108
  This energy is -3.4243 and Call times are: 2326
C	-3.21986	-4.14464	-6.16218
C	-1.81514	-3.91927	-5.63334
C	-1.45493	-2.43113	-5.50483
C	-0.0296413	-2.23013	-4.9681
C	0.3063	-0.76406	-4.84864
C	0.0979824	0.0068808	-3.76887
C	-0.512462	-0.443974	-2.46597
C	0.550345	-0.937214	-1.51775
C	1.21726	-0.19113	-0.621777
C	1.03721	1.2872	-0.384728
C	-0.0166181	1.53208	0.665483
C	0.180093	1.63151	1.99048
C	1.498	1.51964	2.71419
C	2.15366	2.87179	2.83655
C	1.98835	3.73799	3.8496
C	1.11515	3.52698	5.06145
C	1.89852	2.85193	6.19693
C	1.02492	2.62833	7.44147
C	1.80678	1.95294	8.57901
C	0.930383	1.73199	9.81884
O	-3.49967	-5.45925	-6.26123
O	-4.01972	-3.2921	-6.46817
H	-1.72345	-4.40179	-4.63201
H	-1.08649	-4.41017	-6.32035
H	-1.54613	-1.94136	-6.50346
H	-2.18141	-1.93301	-4.81958
H	0.0707396	-2.72167	-3.97302
H	0.701379	-2.72997	-5.64461
H	0.764225	-0.29928	-5.73907
H	0.395376	1.06879	-3.82515
H	-1.07243	0.397703	-2.00037
H	-1.25324	-1.25258	-2.65614
H	0.792406	-2.01285	-1.57645
H	1.97203	-0.693922	0.00812727
H	0.752324	1.79255	-1.33423
H	2.00223	1.74177	-0.068185
H	-1.05	1.6382	0.290852
H	-0.702566	1.81358	2.62863
H	2.17105	0.81867	2.1718
H	1.34052	1.08087	3.72475
H	2.82767	3.1627	2.01186
H	2.53328	4.69727	3.80902
H	0.233335	2.90328	4.78788
H	0.710607	4.50466	5.41062
H	2.77552	3.48557	6.46926
H	2.29439	1.87125	5.84148
H	0.147954	1.99485	7.16865
H	0.629089	3.60919	7.79644
H	2.68423	2.58611	8.853
H	2.20295	0.971284	8.22503
H	1.50929	1.24182	10.6356
H	0.0544149	1.08524	9.5816
H	0.535137	2.6982	10.2089
H	-4.40601	-5.5373	-6.60277
C	10.4755	4.55327	5.80746
C	10.7205	3.15923	5.25937
C	9.46007	2.28055	5.2719
C	9.73417	0.876195	4.71283
C	8.48637	0.0282236	4.73289
C	7.58179	-0.0665405	3.74475
C	7.6383	0.656806	2.42299
C	8.37944	-0.159976	1.3956
C	7.83528	-1.05937	0.559439
C	6.37623	-1.43217	0.480484
C	5.65476	-0.547668	-0.504709
C	5.49261	-0.776646	-1.81828
C	5.99735	-1.96834	-2.59175
C	4.97076	-3.07254	-2.5965
C	4.00075	-3.24159	-3.50997
C	3.74959	-2.36031	-4.70824
C	4.53755	-2.85198	-5.93137
C	4.2944	-1.96597	-7.16342
C	5.08191	-2.45612	-8.38858
C	4.83579	-1.56845	-9.61559
O	11.6014	5.29363	5.78074
O	9.4287	4.98961	6.22452
H	11.0934	3.24248	4.21158
H	11.5128	2.66458	5.86882
H	9.08029	2.1942	6.31774
H	8.66204	2.77058	4.66488
H	10.1193	0.954672	3.67004
H	10.5345	0.382508	5.31084
H	8.31753	-0.561149	5.65089
H	6.71286	-0.73006	3.89952
H	6.60619	0.868156	2.06405
H	8.13812	1.64268	2.55341
H	9.46923	0.00703613	1.33635
H	8.50743	-1.58353	-0.142514
H	5.90646	-1.34419	1.48531
H	6.27203	-2.49874	0.181049
H	5.22136	0.378649	-0.0880752
H	4.93545	-0.0256698	-2.40572
H	6.94848	-2.33571	-2.14574
H	6.23836	-1.66909	-3.63622
H	5.03429	-3.80025	-1.76859
H	3.31501	-4.09833	-3.38926
H	4.03596	-1.30989	-4.47148
H	2.66045	-2.34242	-4.94255
H	4.24037	-3.90153	-6.16573
H	5.62698	-2.86066	-5.69085
H	4.5915	-0.916513	-6.92856
H	3.20486	-1.9574	-7.40344
H	4.78515	-3.50593	-8.62465
H	6.1722	-2.46474	-8.14963
H	5.41244	-1.9348	-10.4964
H	5.14174	-0.515338	-9.41749
H	3.75629	-1.55533	-9.89196
H	11.381	6.16852	6.14159
