108
  This energy is -5.3382 and Call times are: 1772
C	-2.00424	-6.26578	-4.71605
C	-2.35901	-4.79054	-4.67715
C	-2.91178	-4.34297	-3.31518
C	-3.26281	-2.84748	-3.30187
C	-3.80358	-2.42628	-1.95775
C	-3.07755	-1.97247	-0.923065
C	-1.58023	-1.79596	-0.904498
C	-1.19694	-0.414915	-1.37114
C	-1.05137	0.669759	-0.592369
C	-1.24176	0.723937	0.902584
C	0.0541449	0.427261	1.61398
C	0.987194	1.31933	1.98521
C	0.940148	2.81094	1.77057
C	0.27699	3.4954	2.93885
C	0.897422	3.9537	4.03838
C	2.37749	3.87297	4.31845
C	3.10986	5.11301	3.78494
C	4.6204	5.04912	4.06107
C	5.3553	6.28899	3.52806
C	6.86262	6.22034	3.80616
O	-1.52364	-6.62113	-5.92396
O	-2.11891	-7.05829	-3.81105
H	-1.44737	-4.19256	-4.91215
H	-3.12107	-4.58051	-5.46395
H	-3.82382	-4.9387	-3.07278
H	-2.15454	-4.55178	-2.52244
H	-2.35768	-2.24609	-3.54877
H	-4.01478	-2.63019	-4.0951
H	-4.89736	-2.50482	-1.83094
H	-3.61114	-1.70001	0.00446401
H	-1.19275	-1.96762	0.124658
H	-1.10198	-2.56083	-1.55643
H	-1.02299	-0.299377	-2.45531
H	-0.765446	1.61902	-1.07858
H	-2.02176	-0.00627357	1.21319
H	-1.6186	1.72724	1.20171
H	0.239996	-0.636235	1.84618
H	1.88608	0.938014	2.50104
H	0.389192	3.04254	0.831766
H	1.97075	3.20769	1.63276
H	-0.817391	3.62463	2.87053
H	0.284484	4.43659	4.81936
H	2.80087	2.95407	3.85173
H	2.54985	3.77483	5.41485
H	2.68475	6.0277	4.26181
H	2.9378	5.20031	2.68605
H	5.04505	4.13419	3.58423
H	4.792	4.9616	5.16001
H	4.93144	7.20495	4.00478
H	5.18457	6.3773	2.42853
H	7.38314	7.125	3.41474
H	7.31956	5.32497	3.32513
H	7.06673	6.15166	4.89956
H	-1.31649	-7.56971	-5.88538
C	-1.99943	-5.77035	1.75135
C	-0.798029	-5.16958	2.45804
C	0.48206	-5.21777	1.60958
C	1.68225	-4.60429	2.34654
C	2.92922	-4.6603	1.49896
C	3.33981	-3.71538	0.637449
C	2.6334	-2.4146	0.350362
C	3.11106	-1.32816	1.27958
C	4.13924	-0.493281	1.05596
C	5.02083	-0.474979	-0.167372
C	4.45338	0.446791	-1.21704
C	4.71311	1.75706	-1.35822
C	5.62874	2.58957	-0.497
C	7.03259	2.57683	-1.04672
C	7.53702	3.44621	-1.93759
C	6.79786	4.60389	-2.56128
C	6.95403	5.87835	-1.71865
C	6.2072	7.07	-2.33854
C	6.3621	8.34642	-1.49699
C	5.61486	9.53285	-2.11996
O	-3.1016	-5.71048	2.52462
O	-2.01695	-6.25114	0.642848
H	-1.02256	-4.10769	2.71469
H	-0.622855	-5.72437	3.40957
H	0.711957	-6.27795	1.34762
H	0.313312	-4.66555	0.65458
H	1.45773	-3.54666	2.61653
H	1.85347	-5.1473	3.30451
H	3.54832	-5.5675	1.60981
H	4.27745	-3.89278	0.0819195
H	2.8122	-2.11323	-0.706036
H	1.5342	-2.54966	0.461193
H	2.5551	-1.22048	2.22739
H	4.37322	0.256144	1.83241
H	5.12122	-1.50384	-0.579047
H	6.04822	-0.149352	0.109258
H	3.75493	-0.0180545	-1.93507
H	4.21341	2.29378	-2.18388
H	5.62563	2.20195	0.54621
H	5.25176	3.63522	-0.441789
H	7.69419	1.7751	-0.674487
H	8.58681	3.31757	-2.25416
H	5.71801	4.35026	-2.66633
H	7.17874	4.7838	-3.59278
H	8.03707	6.12902	-1.62383
H	6.56453	5.69198	-0.689891
H	5.12428	6.81883	-2.43338
H	6.59684	7.25588	-3.36733
H	7.44521	8.59883	-1.40178
H	5.97221	8.16165	-0.46755
H	5.73536	10.4514	-1.5001
H	4.52494	9.3187	-2.21
H	5.99624	9.75538	-3.14316
H	-3.83098	-6.10763	2.02016
