108
  This energy is -4.0716 and Call times are: 1086
C	4.26309	-3.86055	5.69564
C	3.83264	-4.17486	4.27449
C	2.31505	-4.05308	4.06735
C	1.90552	-4.37591	2.62237
C	0.413254	-4.25128	2.43778
C	-0.245738	-3.13929	2.07328
C	0.378801	-1.79911	1.77777
C	0.738273	-1.68475	0.318432
C	-0.0566234	-1.21292	-0.656097
C	-1.46588	-0.703676	-0.486565
C	-1.46478	0.777102	-0.202389
C	-1.51804	1.76721	-1.1085
C	-1.59048	1.61159	-2.6064
C	-3.02515	1.54445	-3.06505
C	-3.78912	2.59179	-3.41624
C	-3.36095	4.03825	-3.42022
C	-2.7639	4.43466	-4.77855
C	-2.32135	5.90628	-4.80221
C	-1.72357	6.30517	-6.16052
C	-1.28344	7.77487	-6.17894
O	5.59801	-3.97759	5.8391
O	3.54318	-3.5428	6.6127
H	4.35061	-3.47614	3.57635
H	4.15048	-5.21347	4.02121
H	1.79004	-4.74881	4.76434
H	1.98964	-3.01607	4.32066
H	2.43051	-3.68844	1.91975
H	2.23236	-5.40854	2.36019
H	-0.174605	-5.16701	2.62337
H	-1.34428	-3.19597	1.97714
H	-0.325904	-0.984398	2.05779
H	1.28943	-1.66112	2.40265
H	1.75139	-2.0238	0.0397172
H	0.346096	-1.18951	-1.68397
H	-1.97023	-1.24935	0.341668
H	-2.05915	-0.914263	-1.40405
H	-1.41471	1.0597	0.863966
H	-1.5087	2.8064	-0.735053
H	-1.04801	0.691683	-2.91953
H	-1.07244	2.46261	-3.10233
H	-3.47505	0.537234	-3.1115
H	-4.82809	2.39555	-3.73382
H	-2.61301	4.21319	-2.61311
H	-4.23284	4.69111	-3.18564
H	-3.52086	4.26282	-5.57996
H	-1.88795	3.78105	-5.00281
H	-1.56458	6.07772	-4.00053
H	-3.19752	6.5595	-4.57769
H	-2.48005	6.13436	-6.9633
H	-0.84663	5.65244	-6.38597
H	-0.852068	8.0508	-7.16907
H	-0.511683	7.97295	-5.39981
H	-2.14322	8.45432	-5.97648
H	5.80947	-3.76526	6.76344
C	2.87358	7.36411	1.65044
C	3.32542	6.17464	2.47792
C	2.60599	4.87162	2.09665
C	3.0806	3.68404	2.94772
C	2.36398	2.41425	2.5597
C	2.76519	1.53669	1.62558
C	4.01051	1.65078	0.783183
C	5.17967	0.982989	1.46074
C	5.544	-0.302398	1.32207
C	4.85796	-1.33399	0.462292
C	5.44667	-1.3448	-0.925787
C	6.48015	-2.08921	-1.35235
C	7.27523	-3.07537	-0.534729
C	6.66246	-4.45046	-0.617249
C	6.95935	-5.39113	-1.5288
C	7.96295	-5.25524	-2.64679
C	9.35771	-5.71455	-2.19694
C	10.3949	-5.58348	-3.32344
C	11.7914	-6.04254	-2.87553
C	12.823	-5.90974	-4.00347
O	3.52506	8.48698	2.01243
O	2.04349	7.35701	0.772299
H	4.42356	6.03511	2.34189
H	3.13646	6.39059	3.55568
H	1.50587	5.00466	2.22894
H	2.78957	4.65013	1.01837
H	4.1799	3.54847	2.82507
H	2.90557	3.90042	4.02681
H	1.42656	2.20324	3.10312
H	2.13687	0.646418	1.44705
H	3.83604	1.18625	-0.213082
H	4.24386	2.72316	0.597947
H	5.78297	1.6215	2.12958
H	6.42766	-0.651469	1.88471
H	3.76698	-1.12134	0.410882
H	4.95678	-2.34109	0.925001
H	4.96821	-0.666183	-1.65382
H	6.79173	-1.97976	-2.40611
H	7.31866	-2.74176	0.526104
H	8.32782	-3.1062	-0.894798
H	5.9029	-4.69189	0.146824
H	6.43065	-6.35853	-1.47031
H	8.00612	-4.19583	-2.98918
H	7.63287	-5.85494	-3.5259
H	9.30723	-6.77762	-1.86208
H	9.6835	-5.10511	-1.32103
H	10.4449	-4.52034	-3.65814
H	10.0687	-6.19287	-4.19921
H	11.7426	-7.10625	-2.54078
H	12.119	-5.43322	-1.99956
H	13.8307	-6.24578	-3.66547
H	12.9095	-4.85296	-4.34644
H	12.5335	-6.52407	-4.88705
H	3.1942	9.20744	1.45059
