108
  This energy is 0.1004 and Call times are: 3927
C	-7.04428	-2.6028	-3.02019
C	-5.65215	-3.18991	-2.87534
C	-4.56078	-2.30406	-3.49583
C	-3.16248	-2.91981	-3.33613
C	-2.1045	-2.03699	-3.95077
C	-1.43231	-1.05836	-3.323
C	-1.60507	-0.652241	-1.88124
C	-0.674293	-1.43267	-0.988746
C	0.574431	-1.07618	-0.645538
C	1.29498	0.174139	-1.08324
C	1.04372	1.29947	-0.111656
C	1.77486	1.59882	0.974623
C	3.00549	0.873754	1.45731
C	4.2481	1.47181	0.84787
C	4.97523	2.47458	1.36714
C	4.69058	3.19731	2.66027
C	5.39101	2.51195	3.84279
C	5.11265	3.23448	5.17039
C	5.81258	2.55037	6.3551
C	5.5316	3.27535	7.6778
O	-7.9735	-3.40586	-2.46526
O	-7.33336	-1.55777	-3.55366
H	-5.4302	-3.33234	-1.79167
H	-5.62849	-4.19103	-3.36634
H	-4.77756	-2.15596	-4.58051
H	-4.5798	-1.29954	-3.01
H	-2.94109	-3.07597	-2.25517
H	-3.13742	-3.92614	-3.81422
H	-1.87484	-2.22667	-5.01373
H	-0.68226	-0.491152	-3.90175
H	-1.40887	0.437679	-1.7701
H	-2.65918	-0.819759	-1.56571
H	-1.06885	-2.38264	-0.587603
H	1.13941	-1.75267	0.0196084
H	0.959207	0.469476	-2.10212
H	2.38711	-0.0240389	-1.16124
H	0.165523	1.93258	-0.329419
H	1.45578	2.4605	1.58715
H	2.93671	-0.206168	1.19735
H	3.06495	0.923617	2.5675
H	4.57817	1.03629	-0.111511
H	5.86619	2.81442	0.810786
H	3.59152	3.23135	2.84017
H	5.02795	4.25642	2.58346
H	6.49104	2.48786	3.65801
H	5.043	1.4545	3.9168
H	4.01254	3.25854	5.35465
H	5.4606	4.29191	5.09586
H	6.91338	2.52609	6.17193
H	5.46489	1.49241	6.43079
H	6.04475	2.76924	8.52814
H	4.43965	3.29859	7.89915
H	5.88647	4.33108	7.64058
H	-8.83713	-2.97824	-2.5897
C	7.89343	-5.14684	-5.6368
C	7.01274	-3.91068	-5.64008
C	5.8269	-4.01732	-4.66888
C	4.95189	-2.75487	-4.69101
C	3.79346	-2.87748	-3.73211
C	3.796	-2.50649	-2.44137
C	4.95805	-1.89513	-1.70019
C	4.93026	-0.391746	-1.80516
C	4.31284	0.447807	-0.957736
C	3.52477	0.0559439	0.266789
C	4.42105	-0.00589599	1.47771
C	4.69553	1.0004	2.324
C	4.16634	2.41001	2.24578
C	2.87644	2.53701	3.01596
C	2.76348	2.86344	4.31389
C	3.90428	3.16637	5.25324
C	4.247	4.66341	5.24255
C	5.40808	4.99205	6.19437
C	5.75275	6.48957	6.18529
C	6.9122	6.81236	7.1369
O	8.92105	-5.01702	-6.49902
O	7.73656	-6.14123	-4.96836
H	7.63069	-3.0251	-5.36117
H	6.62217	-3.74708	-6.67186
H	5.20474	-4.90286	-4.94129
H	6.2106	-4.18279	-3.63406
H	5.56799	-1.86508	-4.42532
H	4.56947	-2.57989	-5.72301
H	2.86783	-3.31387	-4.14606
H	2.87102	-2.65646	-1.85727
H	4.92521	-2.19937	-0.630087
H	5.91564	-2.28457	-2.11265
H	5.47146	0.0454003	-2.66251
H	4.37979	1.53046	-1.16423
H	3.03606	-0.930468	0.104774
H	2.70253	0.785517	0.439267
H	4.892	-0.98506	1.67499
H	5.3761	0.790684	3.16799
H	4.00394	2.69648	1.18272
H	4.92096	3.12207	2.64837
H	1.94939	2.3412	2.44915
H	1.75113	2.92014	4.75064
H	4.80063	2.57139	4.96343
H	3.63767	2.84709	6.28688
H	3.3467	5.2514	5.54005
H	4.51906	4.97348	4.20591
H	6.30807	4.40369	5.89665
H	5.13569	4.68162	7.23082
H	4.85305	7.07914	6.48337
H	6.02578	6.80113	5.14881
H	7.15175	7.90089	7.12063
H	7.83304	6.25282	6.85253
H	6.66167	6.53051	8.18555
H	9.44407	-5.83455	-6.45114
