108
  This energy is -5.6245 and Call times are: 2192
C	-3.94643	-4.12315	5.73964
C	-3.54685	-4.39467	4.30077
C	-4.03648	-3.31058	3.32823
C	-3.6196	-3.6084	1.87998
C	-4.10862	-2.53428	0.939976
C	-3.44056	-1.41966	0.60092
C	-2.07139	-1.02572	1.09452
C	-0.997273	-1.56705	0.186115
C	-0.480874	-0.943163	-0.885468
C	-0.871085	0.421715	-1.3943
C	-0.0202611	1.4899	-0.755124
C	1.14916	1.9648	-1.2146
C	1.86402	1.53202	-2.46952
C	1.42641	2.36775	-3.64562
C	1.99489	3.51514	-4.0509
C	3.18104	4.19071	-3.40885
C	4.49858	3.69977	-4.02671
C	5.71971	4.37732	-3.38497
C	7.03925	3.88754	-4.00172
C	8.25498	4.56681	-3.35777
O	-3.50041	-5.09321	6.56204
O	-4.57998	-3.17737	6.14503
H	-2.43515	-4.46034	4.23993
H	-3.96776	-5.37889	3.98765
H	-5.14869	-3.23829	3.38509
H	-3.62012	-2.32218	3.63671
H	-2.50985	-3.68766	1.81638
H	-4.02726	-4.59708	1.56661
H	-5.10822	-2.69564	0.500245
H	-3.9247	-0.718857	-0.101755
H	-1.99496	0.0832556	1.15019
H	-1.91877	-1.40766	2.12873
H	-0.60881	-2.56966	0.436929
H	0.304698	-1.46681	-1.45812
H	-1.94614	0.61385	-1.18115
H	-0.761967	0.460374	-2.50096
H	-0.412392	1.91474	0.18574
H	1.65092	2.75244	-0.625238
H	1.66068	0.456555	-2.67097
H	2.96456	1.61992	-2.32943
H	0.559429	1.99033	-4.21564
H	1.56874	4.02464	-4.93273
H	3.18093	3.99271	-2.31239
H	3.0966	5.29538	-3.52729
H	4.49345	3.90757	-5.12288
H	4.57846	2.59438	-3.89816
H	5.72432	4.16946	-2.28882
H	5.63931	5.48266	-3.51355
H	7.03584	4.09536	-5.0984
H	7.12087	2.78176	-3.8733
H	9.20471	4.20284	-3.81395
H	8.29749	4.36078	-2.26341
H	8.21256	5.67286	-3.48709
H	-3.78611	-4.86369	7.46198
C	10.1022	-3.63689	-5.81221
C	9.09406	-2.50315	-5.7683
C	7.76982	-2.90452	-5.10038
C	6.7675	-1.7408	-5.06853
C	5.47423	-2.15296	-4.40971
C	5.19095	-2.05676	-3.10045
C	6.11138	-1.51777	-2.03473
C	5.92121	-0.0324646	-1.86255
C	5.05926	0.560994	-1.02051
C	4.11024	-0.137987	-0.0798363
C	4.76577	-0.374	1.25734
C	4.75331	0.455554	2.31369
C	4.08071	1.80273	2.39047
C	2.66411	1.66202	2.88709
C	2.27232	1.70381	4.1711
C	3.17255	1.89949	5.36561
C	3.32679	3.38963	5.70382
C	4.24134	3.60948	6.91927
C	4.39712	5.09992	7.25951
C	5.31084	5.31397	8.47334
O	11.2491	-3.24836	-6.40388
O	9.94548	-4.75706	-5.3869
H	9.53691	-1.64628	-5.20835
H	8.88579	-2.16326	-6.80993
H	7.32166	-3.76304	-5.65495
H	7.97105	-3.24743	-4.0576
H	7.2105	-0.877249	-4.52088
H	6.56584	-1.38909	-6.10656
H	4.70201	-2.56929	-5.07974
H	4.19848	-2.39924	-2.75846
H	5.91681	-2.03748	-1.06994
H	7.16918	-1.73394	-2.30509
H	6.55558	0.614791	-2.49315
H	5.03149	1.66473	-1.00427
H	3.78384	-1.10664	-0.519464
H	3.18782	0.47038	0.0510662
H	5.30709	-1.33074	1.36271
H	5.28491	0.133171	3.22635
H	4.08579	2.28761	1.38877
H	4.65482	2.47615	3.06533
H	1.8898	1.51165	2.11453
H	1.19703	1.58601	4.39179
H	4.17275	1.45262	5.16228
H	2.75869	1.35342	6.24423
H	2.32215	3.82778	5.91242
H	3.74764	3.92778	4.82174
H	5.24576	3.17099	6.71033
H	3.82025	3.07099	7.80103
H	3.39278	5.53954	7.46909
H	4.81871	5.63957	6.37807
H	5.41516	6.39845	8.70911
H	6.32959	4.90255	8.28688
H	4.9053	4.80264	9.37664
H	11.8494	-4.01245	-6.40128
