108
  This energy is -5.5277 and Call times are: 4071
C	-1.16164	-4.3354	6.73594
C	-1.55113	-4.48758	5.27688
C	-2.3047	-3.26649	4.72744
C	-2.68724	-3.44528	3.25041
C	-3.42578	-2.23758	2.7284
C	-2.86714	-1.15829	2.15682
C	-1.39253	-0.944522	1.926
C	-0.97674	-1.48125	0.580264
C	-0.969433	-0.79637	-0.57519
C	-1.37496	0.644511	-0.758153
C	-0.189135	1.55737	-0.57381
C	0.660363	1.97062	-1.52867
C	0.611563	1.61068	-2.99196
C	-0.228517	2.60276	-3.75564
C	0.216182	3.73054	-4.33381
C	1.64169	4.22398	-4.33177
C	2.41561	3.68425	-5.54355
C	3.87146	4.17652	-5.559
C	4.64781	3.63765	-6.77076
C	6.10029	4.13186	-6.78153
O	-0.503773	-5.42369	7.18219
O	-1.38815	-3.38461	7.44653
H	-0.62866	-4.64674	4.67057
H	-2.19602	-5.39082	5.16657
H	-3.22867	-3.10031	5.33087
H	-1.66546	-2.3582	4.83618
H	-1.76958	-3.61742	2.64202
H	-3.32138	-4.35412	3.1331
H	-4.52437	-2.2602	2.8341
H	-3.53507	-0.345899	1.82043
H	-1.15406	0.140776	1.98949
H	-0.808169	-1.44639	2.72938
H	-0.650614	-2.53584	0.557582
H	-0.637514	-1.32515	-1.48595
H	-2.17517	0.909401	-0.0318011
H	-1.81335	0.79047	-1.77038
H	-0.0151064	1.91359	0.456869
H	1.48357	2.64254	-1.22814
H	0.196987	0.58554	-3.11749
H	1.64215	1.58327	-3.4111
H	-1.30415	2.36803	-3.83896
H	-0.51377	4.36729	-4.86347
H	2.14844	3.91146	-3.38997
H	1.65599	5.33806	-4.33988
H	1.90577	4.00692	-6.48203
H	2.40221	2.5688	-5.52444
H	4.38084	3.85384	-4.62028
H	3.8844	5.29198	-5.57788
H	4.1392	3.96023	-7.71052
H	4.63579	2.52166	-6.75264
H	6.6516	3.73398	-7.66489
H	6.6418	3.80776	-5.86304
H	6.14578	5.24468	-6.81982
H	-0.283259	-5.26615	8.11534
C	3.73371	-1.17331	-8.00188
C	2.95648	-1.792	-6.85434
C	3.86297	-2.30805	-5.72616
C	3.05296	-2.92888	-4.57795
C	3.95883	-3.4297	-3.4802
C	4.37849	-2.72063	-2.41965
C	4.02524	-1.28563	-2.1206
C	2.77523	-1.20427	-1.28227
C	2.72328	-1.20138	0.0599223
C	3.90282	-1.27879	0.996278
C	4.41014	0.102166	1.3265
C	4.01199	0.879599	2.34692
C	2.97112	0.539031	3.38314
C	3.60467	-0.144616	4.56822
C	4.09138	0.465363	5.66136
C	4.09898	1.95215	5.91624
C	2.81799	2.39626	6.6377
C	2.80718	3.90945	6.90643
C	1.52623	4.35609	7.62832
C	1.52036	5.86717	7.8942
O	2.90692	-0.732808	-8.97073
O	4.93458	-1.06612	-8.08343
H	2.25793	-1.02913	-6.43725
H	2.34683	-2.64004	-7.24555
H	4.56609	-3.07112	-6.137
H	4.47742	-1.46447	-5.33085
H	2.34416	-2.17398	-4.1661
H	2.43218	-3.7689	-4.96638
H	4.29776	-4.47614	-3.57334
H	5.04259	-3.21995	-1.69239
H	4.8692	-0.792235	-1.58857
H	3.87857	-0.726962	-3.072
H	1.82213	-1.1418	-1.83612
H	1.72974	-1.13664	0.537365
H	4.71578	-1.88212	0.534556
H	3.61297	-1.81059	1.9297
H	5.18782	0.500453	0.651175
H	4.48509	1.87191	2.45172
H	2.19178	-0.118405	2.9371
H	2.44691	1.46355	3.71331
H	3.66736	-1.24584	4.51912
H	4.52983	-0.162475	6.45659
H	4.19879	2.50047	4.95144
H	4.99045	2.22655	6.52569
H	2.72896	1.84783	7.60522
H	1.9309	2.12396	6.01825
H	2.89645	4.45747	5.93871
H	3.69452	4.18133	7.5257
H	1.43612	3.80864	8.59686
H	0.637815	4.08486	7.0094
H	0.586504	6.1775	8.41781
H	1.58909	6.44285	6.94249
H	2.38648	6.16695	8.52812
H	3.46047	-0.350457	-9.67186
