108
  This energy is -4.8902 and Call times are: 3648
C	5.6175	-4.52991	3.6663
C	5.19797	-4.29066	2.22738
C	3.70177	-4.5465	1.98911
C	3.30297	-4.29761	0.526599
C	1.83167	-4.55355	0.311522
C	0.847784	-3.64777	0.434754
C	1.02336	-2.19858	0.812219
C	1.22601	-1.34553	-0.413829
C	0.258511	-0.74933	-1.12983
C	-1.22223	-0.813351	-0.851657
C	-1.64003	0.31131	0.0615992
C	-2.05021	1.53521	-0.309901
C	-2.18149	2.04904	-1.72125
C	-3.56088	1.77023	-2.26227
C	-4.62458	2.58429	-2.1634
C	-4.64641	3.93512	-1.49232
C	-4.29391	5.05206	-2.48574
C	-4.31095	6.43718	-1.82001
C	-3.95849	7.55641	-2.81225
C	-3.97688	8.93687	-2.14286
O	6.93374	-4.296	3.83689
O	4.90413	-4.88364	4.57525
H	5.43326	-3.23576	1.95223
H	5.79049	-4.96081	1.56126
H	3.45881	-5.60045	2.26406
H	3.10252	-3.87996	2.654
H	3.54796	-3.24814	0.242937
H	3.90164	-4.95607	-0.144156
H	1.55711	-5.58437	0.0276024
H	-0.188394	-3.97925	0.245779
H	0.130843	-1.84442	1.37503
H	1.89477	-2.08963	1.49599
H	2.27113	-1.20684	-0.741742
H	0.560587	-0.152326	-2.00824
H	-1.48055	-1.79284	-0.391264
H	-1.7911	-0.759081	-1.8064
H	-1.59899	0.090196	1.14276
H	-2.32265	2.24957	0.486934
H	-1.41463	1.57256	-2.37197
H	-1.97668	3.1426	-1.74808
H	-3.69373	0.806423	-2.78424
H	-5.57865	2.25119	-2.60793
H	-3.92768	3.94584	-0.640995
H	-5.65338	4.12312	-1.05401
H	-5.02175	5.03875	-3.33124
H	-3.28211	4.86003	-2.91489
H	-3.58317	6.44998	-0.974454
H	-5.32283	6.6287	-1.39081
H	-4.68627	7.54473	-3.65848
H	-2.9461	7.36596	-3.242
H	-3.71973	9.73889	-2.87307
H	-3.24437	8.98666	-1.30451
H	-4.98254	9.16523	-1.72051
H	7.13902	-4.4653	4.77145
C	13.3031	2.67323	4.9105
C	11.8552	3.05062	4.65597
C	11.5671	3.35824	3.1784
C	10.0963	3.73708	2.94747
C	9.83218	4.0355	1.49226
C	9.45148	3.14527	0.561555
C	9.21421	1.67406	0.791097
C	7.77906	1.41508	1.17222
C	6.77069	1.15713	0.323197
C	6.87135	1.07488	-1.17919
C	7.18098	-0.335202	-1.61422
C	6.29075	-1.29823	-1.90447
C	4.78864	-1.17707	-1.85791
C	4.2507	-0.72012	-3.19019
C	3.87638	-1.51816	-4.20357
C	3.92122	-3.02599	-4.20624
C	2.60491	-3.61947	-3.68299
C	2.63132	-5.15613	-3.67814
C	1.31511	-5.75218	-3.1549
C	1.34659	-7.28615	-3.15207
O	13.5177	2.41088	6.21489
O	14.1846	2.60293	4.08694
H	11.1989	2.21132	4.98574
H	11.6016	3.94741	5.26865
H	12.2219	4.19664	2.8411
H	11.8202	2.46514	2.55893
H	9.43576	2.90642	3.28738
H	9.83452	4.62529	3.56749
H	9.96914	5.086	1.18197
H	9.2941	3.50848	-0.469253
H	9.46924	1.10258	-0.129302
H	9.89053	1.30344	1.59359
H	7.5506	1.4432	2.25206
H	5.76708	0.986997	0.751074
H	7.66095	1.76788	-1.54581
H	5.9191	1.41545	-1.64322
H	8.25325	-0.585664	-1.69781
H	6.68224	-2.28461	-2.20986
H	4.4898	-0.459782	-1.06121
H	4.33689	-2.15579	-1.58118
H	4.162	0.371335	-3.33124
H	3.49878	-1.04531	-5.12696
H	4.77116	-3.37991	-3.57872
H	4.11888	-3.39637	-5.23832
H	1.76021	-3.26577	-4.32031
H	2.41777	-3.24918	-2.6473
H	3.47627	-5.50938	-3.04091
H	2.81871	-5.52597	-4.71394
H	0.46909	-5.39966	-3.79199
H	1.12685	-5.38307	-2.11846
H	0.386659	-7.70518	-2.77062
H	2.17032	-7.66992	-2.50702
H	1.51332	-7.6865	-4.17862
H	14.4558	2.17732	6.3126
