108
  This energy is -4.2881 and Call times are: 1352
C	1.43142	1.08989	7.89185
C	1.92292	1.73547	6.60912
C	2.50824	0.721446	5.61414
C	2.99804	1.39929	4.32552
C	3.56904	0.389108	3.36117
C	2.8835	-0.271176	2.41369
C	1.40929	-0.130549	2.13016
C	1.15974	0.951577	1.111
C	1.11264	0.786124	-0.221136
C	1.29957	-0.513028	-0.963649
C	-0.0221041	-1.21555	-1.14559
C	-0.869185	-1.07476	-2.17846
C	-0.681213	-0.18325	-3.37972
C	0.0372487	-0.920304	-4.48141
C	-0.543072	-1.6407	-5.45516
C	-2.02561	-1.85259	-5.63615
C	-2.63557	-0.761133	-6.52796
C	-4.14684	-0.960095	-6.72428
C	-4.75934	0.130979	-7.61639
C	-6.26786	-0.0721349	-7.80921
O	0.92581	2.00839	8.73861
O	1.46653	-0.0865927	8.16549
H	1.07265	2.26963	6.12371
H	2.70537	2.4896	6.86002
H	3.35906	0.181815	6.0941
H	1.73066	-0.0375762	5.35974
H	2.15465	1.94522	3.8433
H	3.77116	2.16301	4.5723
H	4.64994	0.18668	3.45742
H	3.43552	-0.984747	1.77703
H	1.00211	-1.0982	1.76053
H	0.864702	0.105081	3.0718
H	1.003	1.96869	1.51094
H	0.9196	1.67662	-0.844841
H	2.00597	-1.16975	-0.408845
H	1.7674	-0.320565	-1.95471
H	-0.308166	-1.91336	-0.338921
H	-1.80254	-1.66471	-2.16147
H	-0.106121	0.725201	-3.09244
H	-1.66929	0.176141	-3.74452
H	1.13927	-0.852868	-4.47445
H	0.108464	-2.12977	-6.20023
H	-2.53097	-1.85542	-4.64315
H	-2.21205	-2.85524	-6.08491
H	-2.12893	-0.769306	-7.52196
H	-2.45042	0.238589	-6.06855
H	-4.65305	-0.952082	-5.73006
H	-4.33155	-1.95999	-7.18349
H	-4.25382	0.123592	-8.61152
H	-4.57541	1.1318	-7.15766
H	-6.69913	0.725398	-8.45767
H	-6.80436	-0.0495982	-6.83272
H	-6.48314	-1.05664	-8.2849
H	0.630323	1.53631	9.53487
C	5.0533	7.05703	1.66738
C	5.0703	6.11103	0.480565
C	6.49008	5.80213	-0.0190814
C	6.47994	4.84356	-1.21948
C	7.88143	4.55184	-1.69614
C	8.66729	3.55056	-1.26775
C	8.30067	2.52336	-0.226649
C	7.65315	1.32075	-0.864147
C	8.28941	0.226211	-1.31288
C	9.77667	-0.0191738	-1.26923
C	10.1641	-0.705475	0.0162076
C	10.2255	-2.03001	0.230737
C	9.92	-3.11724	-0.768152
C	11.1626	-3.50421	-1.52924
C	12.037	-4.46019	-1.17495
C	11.9462	-5.33233	0.0525218
C	11.1578	-6.61766	-0.239241
C	11.0544	-7.52009	1.00051
C	10.2659	-8.80689	0.710858
C	10.1656	-9.70413	1.95141
O	3.79346	7.30434	2.07716
O	6.01425	7.5502	2.20921
H	4.57307	5.15606	0.771565
H	4.48396	6.56481	-0.352612
H	6.99439	6.75402	-0.310669
H	7.08326	5.349	0.810536
H	5.97257	3.89231	-0.937393
H	5.88435	5.28708	-2.05041
H	8.28113	5.23334	-2.46712
H	9.67556	3.45833	-1.70837
H	9.21124	2.21017	0.331515
H	7.60859	2.97318	0.519981
H	6.55426	1.35703	-0.964896
H	7.67893	-0.578732	-1.75857
H	10.324	0.94481	-1.36545
H	10.0853	-0.639938	-2.13959
H	10.4206	-0.0371386	0.85706
H	10.5287	-2.37422	1.23524
H	9.13285	-2.77305	-1.4756
H	9.50193	-4.00659	-0.245828
H	11.3587	-2.94276	-2.4595
H	12.9079	-4.63822	-1.82965
H	11.458	-4.76935	0.88085
H	12.9697	-5.58964	0.409854
H	11.6566	-7.17849	-1.06476
H	10.1327	-6.35157	-0.589964
H	10.5558	-6.95881	1.82583
H	12.0798	-7.78575	1.35102
H	10.7642	-9.36941	-0.114516
H	9.23974	-8.54223	0.360433
H	9.59173	-10.6332	1.72766
H	9.65346	-9.17628	2.78867
H	11.1761	-10.0025	2.31427
H	3.84914	7.91159	2.8337
