108
  This energy is -4.997 and Call times are: 2467
C	-1.2456	7.31682	3.22966
C	-2.10118	6.08669	2.98783
C	-2.08776	5.62629	1.52199
C	-2.96037	4.38095	1.30379
C	-2.93512	3.94365	-0.140029
C	-2.06529	3.07852	-0.686484
C	-0.944707	2.3763	0.0378344
C	-1.41318	1.06002	0.603416
C	-1.37407	-0.127458	-0.0231261
C	-0.85461	-0.382139	-1.41574
C	0.61769	-0.70568	-1.38235
C	1.16786	-1.9249	-1.25982
C	0.431519	-3.23405	-1.12911
C	0.172844	-3.83626	-2.4869
C	0.987435	-4.67945	-3.14218
C	2.31883	-5.18786	-2.64774
C	2.15193	-6.4881	-1.84762
C	3.4988	-7.02213	-1.33497
C	3.33418	-8.32321	-0.53402
C	4.68134	-8.85209	-0.0245924
O	-1.28185	7.69054	4.524
O	-0.598773	7.91785	2.40467
H	-1.73013	5.25522	3.63193
H	-3.15175	6.31179	3.28706
H	-2.4566	6.45449	0.871232
H	-1.03873	5.40072	1.2152
H	-2.60134	3.55088	1.95491
H	-4.00886	4.59696	1.61345
H	-3.70901	4.38481	-0.791995
H	-2.16729	2.85097	-1.76216
H	-0.0933788	2.20618	-0.658633
H	-0.560879	3.02403	0.85753
H	-1.82383	1.09013	1.62786
H	-1.75489	-1.01001	0.520328
H	-1.0335	0.50931	-2.05716
H	-1.41743	-1.21996	-1.88412
H	1.29965	0.158602	-1.46851
H	2.27005	-1.99274	-1.2523
H	-0.531271	-3.07666	-0.593563
H	1.02244	-3.94179	-0.505853
H	-0.775367	-3.54937	-2.97436
H	0.67031	-5.04435	-4.1347
H	2.80693	-4.41333	-2.01267
H	3.00174	-5.36039	-3.51105
H	1.66884	-7.26001	-2.49226
H	1.47245	-6.3053	-0.981772
H	3.98163	-6.24985	-0.69058
H	4.17802	-7.20457	-2.20109
H	2.8515	-9.0967	-1.17794
H	2.65506	-8.1417	0.333015
H	4.54767	-9.79532	0.554201
H	5.17988	-8.10853	0.639076
H	5.3761	-9.06243	-0.870142
H	-0.718859	8.4774	4.61392
C	-0.752407	-3.6795	3.83927
C	-0.515846	-2.28964	3.27709
C	0.761356	-1.63218	3.82238
C	0.977844	-0.227804	3.23863
C	2.23549	0.401809	3.78488
C	3.4634	0.301853	3.25017
C	3.82298	-0.459589	1.99943
C	3.70877	0.422669	0.782654
C	4.68743	1.18182	0.26294
C	6.09458	1.30395	0.791218
C	6.99091	0.269676	0.158494
C	7.70499	0.410608	-0.970406
C	7.76449	1.63424	-1.84923
C	8.87654	2.55185	-1.4082
C	10.1458	2.51752	-1.84615
C	10.7055	1.55496	-2.86384
C	10.5731	2.11605	-4.28732
C	11.1385	1.14867	-5.33926
C	11.0071	1.7081	-6.76446
C	11.5728	0.738809	-7.81063
O	-1.87945	-4.22359	3.33923
O	-0.0528546	-4.26444	4.63218
H	-0.442998	-2.35597	2.16615
H	-1.39041	-1.64424	3.52708
H	0.69595	-1.56401	4.93438
H	1.64086	-2.27386	3.57705
H	1.03853	-0.287207	2.12748
H	0.100522	0.417464	3.4749
H	2.11702	0.994887	4.70836
H	4.29478	0.81843	3.76126
H	4.86016	-0.85457	2.08315
H	3.15405	-1.34234	1.88961
H	2.72427	0.436039	0.283036
H	4.45457	1.77868	-0.636394
H	6.09714	1.18367	1.8974
H	6.48948	2.3243	0.588672
H	7.056	-0.696393	0.689487
H	8.3158	-0.447395	-1.30239
H	6.79144	2.17336	-1.81636
H	7.91812	1.33338	-2.90962
H	8.60881	3.31574	-0.657318
H	10.8588	3.25331	-1.43507
H	10.1748	0.577931	-2.79185
H	11.7765	1.3466	-2.63786
H	11.1125	3.09053	-4.35276
H	9.49783	2.31565	-4.508
H	10.5991	0.174284	-5.27332
H	12.2137	0.94918	-5.11808
H	11.5468	2.68284	-6.83163
H	9.93162	1.90771	-6.98691
H	11.4712	1.1565	-8.83911
H	11.0396	-0.239325	-7.78197
H	12.6529	0.534906	-7.62687
H	-1.97479	-5.10616	3.73442
