108
  This energy is -5.2892 and Call times are: 2137
C	5.54318	0.995696	5.81376
C	5.48071	0.228716	4.50549
C	4.27272	-0.717191	4.42264
C	4.23239	-1.4809	3.09034
C	3.04063	-2.40403	3.02689
C	1.82363	-2.08871	2.55454
C	1.41249	-0.749978	1.99578
C	1.65773	-0.690584	0.509748
C	0.785472	-1.04212	-0.449298
C	-0.611943	-1.56592	-0.232654
C	-1.60321	-0.430722	-0.18602
C	-2.2671	0.0969853	-1.22763
C	-2.16438	-0.33213	-2.66932
C	-3.17609	-1.40669	-2.97743
C	-4.42919	-1.20534	-3.41686
C	-5.06807	0.134113	-3.68755
C	-4.83584	0.57422	-5.1405
C	-5.47995	1.93803	-5.43583
C	-5.24883	2.38042	-6.88921
C	-5.89365	3.74218	-7.17886
O	6.61373	1.81356	5.8501
O	4.76136	0.918627	6.73193
H	5.42967	0.955987	3.66147
H	6.41613	-0.367621	4.39034
H	4.31655	-1.44711	5.26571
H	3.3327	-0.126999	4.53877
H	4.19422	-0.758053	2.24304
H	5.17089	-2.06853	2.96467
H	3.20168	-3.42765	3.40749
H	1.04331	-2.86981	2.57022
H	0.335333	-0.56715	2.20808
H	1.97944	0.0615015	2.50454
H	2.65002	-0.322245	0.195539
H	1.10789	-0.943767	-1.50079
H	-0.656878	-2.14899	0.713976
H	-0.88299	-2.27409	-1.04698
H	-1.79139	-0.000481839	0.813462
H	-2.9626	0.930378	-1.02459
H	-1.13758	-0.704549	-2.88269
H	-2.3236	0.542774	-3.33846
H	-2.84291	-2.44798	-2.82334
H	-5.06449	-2.08895	-3.60246
H	-4.65379	0.898202	-2.99043
H	-6.16127	0.0804312	-3.47908
H	-5.25913	-0.192514	-5.83168
H	-3.73947	0.631864	-5.33909
H	-5.05655	2.70439	-4.7443
H	-6.57624	1.88	-5.2369
H	-5.67239	1.61452	-7.58195
H	-4.15226	2.43916	-7.0892
H	-5.71861	4.05092	-8.23555
H	-5.47592	4.53387	-6.51507
H	-6.9943	3.71018	-7.00726
H	6.59791	2.27314	6.7061
C	0.882304	-6.29003	-0.521588
C	2.38163	-6.10063	-0.662548
C	2.75528	-5.02524	-1.69441
C	4.27676	-4.85293	-1.81817
C	4.62464	-3.79386	-2.83495
C	4.78417	-2.4839	-2.58556
C	4.64636	-1.81759	-1.24001
C	5.96764	-1.79424	-0.514993
C	6.89097	-0.82139	-0.58715
C	6.79165	0.440736	-1.40644
C	6.14744	1.54414	-0.605853
C	6.77459	2.4383	0.176034
C	8.25913	2.53178	0.422146
C	8.91002	3.43792	-0.591953
C	9.08725	4.76315	-0.464337
C	8.66996	5.60253	0.717559
C	9.79142	5.68084	1.76392
C	9.38473	6.53263	2.97681
C	10.5055	6.61238	4.02518
C	10.0945	7.46364	5.23372
O	0.593257	-7.23927	0.390387
O	0.0211588	-5.69372	-1.12415
H	2.80517	-5.8141	0.328615
H	2.84202	-7.06985	-0.966765
H	2.33304	-5.30489	-2.68888
H	2.29629	-4.05246	-1.39693
H	4.70647	-4.57896	-0.827125
H	4.74295	-5.82225	-2.10965
H	4.75629	-4.14552	-3.87302
H	5.03944	-1.82254	-3.43214
H	4.26898	-0.778656	-1.37026
H	3.88939	-2.35682	-0.627647
H	6.18257	-2.66334	0.13115
H	7.81568	-0.943245	0.00388482
H	6.20316	0.248483	-2.331
H	7.80428	0.756399	-1.74265
H	5.04767	1.61033	-0.680755
H	6.15454	3.18784	0.698732
H	8.71663	1.51835	0.375169
H	8.45062	2.91253	1.4502
H	9.26833	2.95481	-1.51783
H	9.5817	5.30451	-1.28972
H	7.7511	5.17411	1.17974
H	8.39941	6.62802	0.376081
H	10.7053	6.11671	1.29518
H	10.0517	4.65105	2.10534
H	8.47076	6.09655	3.44509
H	9.12431	7.56223	2.63493
H	11.4203	7.04889	3.55778
H	10.7665	5.58278	4.36819
H	10.9158	7.51317	5.98582
H	9.19347	7.04105	5.73509
H	9.84646	8.50548	4.92562
H	-0.374631	-7.31311	0.434443
