108
  This energy is -3.2751 and Call times are: 2571
C	-2.92994	-7.40861	-1.43038
C	-2.92308	-6.08981	-2.18167
C	-3.4951	-4.92701	-1.35613
C	-3.47704	-3.60486	-2.13812
C	-4.04189	-2.47533	-1.31254
C	-3.34337	-1.67051	-0.495233
C	-1.85822	-1.74012	-0.244363
C	-1.10758	-0.873423	-1.22279
C	-0.790678	0.420399	-1.05021
C	-1.12148	1.26452	0.154819
C	-0.0182185	1.18291	1.17932
C	1.05608	1.98452	1.26595
C	1.39095	3.13976	0.356858
C	0.789889	4.41957	0.880262
C	1.38063	5.27763	1.72801
C	2.75953	5.12819	2.32121
C	3.8204	5.78833	1.4282
C	5.23315	5.64642	2.01646
C	6.29636	6.30629	1.12449
C	7.70465	6.16187	1.71603
O	-2.42196	-8.40332	-2.18457
O	-3.32733	-7.59405	-0.304355
H	-1.87498	-5.8451	-2.47405
H	-3.52389	-6.20146	-3.11465
H	-4.54384	-5.16597	-1.05862
H	-2.89928	-4.81056	-0.419706
H	-2.43313	-3.36241	-2.44366
H	-4.06568	-3.71523	-3.07791
H	-5.12973	-2.30971	-1.40059
H	-3.89231	-0.881974	0.0489433
H	-1.63563	-1.41432	0.796345
H	-1.51013	-2.79387	-0.329392
H	-0.795974	-1.36042	-2.16341
H	-0.235334	0.927547	-1.8587
H	-2.08233	0.927087	0.603159
H	-1.27683	2.32241	-0.15313
H	-0.118484	0.376786	1.92738
H	1.7769	1.79133	2.07994
H	1.01529	2.93594	-0.670704
H	2.49524	3.24659	0.269212
H	-0.227883	4.66016	0.526292
H	0.821219	6.18039	2.0295
H	2.99794	4.04817	2.45599
H	2.78494	5.58342	3.33785
H	3.57822	6.87028	1.30369
H	3.79293	5.32264	0.414706
H	5.47482	4.56435	2.141
H	5.2601	6.11202	3.03
H	6.05571	7.38905	0.999519
H	6.27049	5.84092	0.110255
H	8.46554	6.64443	1.05972
H	7.98262	5.08922	1.83451
H	7.76809	6.63557	2.72275
H	-2.45341	-9.21539	-1.65188
C	2.95454	-3.33272	6.92327
C	2.93656	-1.93569	6.33023
C	4.32991	-1.44746	5.90475
C	4.28463	-0.0324976	5.30832
C	5.66052	0.42994	4.89656
C	6.22494	0.249257	3.69139
C	5.59223	-0.451309	2.51566
C	4.82471	0.52351	1.65974
C	5.31566	1.21886	0.620682
C	6.73075	1.16425	0.102416
C	6.86904	0.0957058	-0.952361
C	6.69125	0.247331	-2.27508
C	6.31477	1.51958	-2.99119
C	7.54794	2.28971	-3.39037
C	8.21409	2.16314	-4.54974
C	7.85856	1.22651	-5.67752
C	6.9044	1.89928	-6.67535
C	6.5303	0.959795	-7.83271
C	5.57556	1.63094	-8.83245
C	5.20523	0.689112	-9.98566
O	1.71715	-3.72639	7.2841
O	3.92343	-4.03906	7.07346
H	2.26321	-1.92837	5.44116
H	2.51939	-1.2276	7.0842
H	5.00977	-1.45376	6.78974
H	4.75426	-2.15268	5.15105
H	3.60284	-0.0170879	4.42695
H	3.85648	0.676724	6.05369
H	6.24196	0.963461	5.66849
H	7.24388	0.643736	3.53198
H	6.37832	-0.950867	1.90634
H	4.9111	-1.25414	2.87663
H	3.76237	0.669194	1.92289
H	4.63007	1.89906	0.0853637
H	7.43507	0.964668	0.940389
H	7.02009	2.15304	-0.317901
H	7.14498	-0.907935	-0.583519
H	6.83121	-0.64006	-2.91729
H	5.66994	2.1475	-2.33661
H	5.70647	1.28256	-3.89248
H	7.92601	3.01986	-2.65348
H	9.10584	2.794	-4.70977
H	7.38772	0.303456	-5.26798
H	8.78489	0.898615	-6.20272
H	7.38565	2.81849	-7.08551
H	5.9772	2.21853	-6.14322
H	6.04931	0.0406498	-7.42209
H	7.45779	0.640627	-8.3644
H	6.05598	2.5505	-9.24416
H	4.64709	1.95035	-8.30157
H	4.51291	1.18797	-10.7029
H	4.70431	-0.231673	-9.60734
H	6.11158	0.36779	-10.5488
H	1.79458	-4.62165	7.65386
