108
  This energy is -4.4856 and Call times are: 1608
C	-1.94354	-7.73027	1.40843
C	-1.51158	-6.93314	0.191172
C	-2.40002	-5.70662	-0.0679654
C	-1.94241	-4.91761	-1.30407
C	-2.82561	-3.71785	-1.54285
C	-2.63564	-2.48682	-1.04074
C	-1.50197	-2.06521	-0.140465
C	-0.328973	-1.57338	-0.949253
C	-0.11535	-0.306389	-1.34077
C	-1.00436	0.8766	-1.05049
C	-0.600297	1.53999	0.241834
C	0.291266	2.53394	0.388041
C	1.08103	3.20133	-0.709239
C	0.328501	4.38562	-1.26089
C	0.412069	5.64925	-0.813482
C	1.27445	6.12944	0.327255
C	2.66206	6.55927	-0.171205
C	3.55609	7.05212	0.977653
C	4.94515	7.48277	0.48116
C	5.83359	7.97384	1.63164
O	-1.14259	-8.79637	1.60385
O	-2.87472	-7.48323	2.13789
H	-0.45899	-6.59382	0.335411
H	-1.53996	-7.59662	-0.704869
H	-3.45568	-6.03886	-0.211715
H	-2.37757	-5.03871	0.825816
H	-0.886583	-4.58717	-1.17015
H	-1.95682	-5.58002	-2.20011
H	-3.70298	-3.88533	-2.19152
H	-3.36727	-1.70208	-1.30184
H	-1.84677	-1.26348	0.550277
H	-1.18804	-2.92163	0.497307
H	0.414937	-2.33594	-1.23931
H	0.793152	-0.095573	-1.93191
H	-2.06632	0.549281	-0.993981
H	-0.948787	1.60823	-1.88699
H	-1.09696	1.1584	1.15134
H	0.476183	2.91212	1.40895
H	1.2916	2.47222	-1.52324
H	2.07113	3.52803	-0.320009
H	-0.348424	4.18066	-2.10872
H	-0.198904	6.42062	-1.314
H	1.37948	5.32178	1.08759
H	0.777426	6.98252	0.843649
H	2.5485	7.37226	-0.926805
H	3.15543	5.69811	-0.680897
H	3.66919	6.23893	1.7331
H	3.06226	7.91311	1.48719
H	4.83315	8.29662	-0.274485
H	5.44026	6.62195	-0.0284994
H	6.83732	8.28283	1.258
H	5.98106	7.17502	2.39455
H	5.37464	8.84776	2.14885
H	-1.46836	-9.26255	2.39173
C	8.11273	3.84676	6.42964
C	7.93807	2.39395	6.02644
C	6.48652	2.04281	5.66512
C	6.33652	0.568325	5.26101
C	4.90587	0.242012	4.90994
C	4.35259	0.335926	3.68982
C	5.05473	0.786033	2.43369
C	5.67473	-0.385695	1.71633
C	5.08142	-1.14035	0.776823
C	3.6784	-0.967488	0.251748
C	3.6665	-0.037929	-0.935367
C	3.80344	-0.384164	-2.22593
C	3.99876	-1.77799	-2.76655
C	2.66928	-2.42384	-3.06408
C	2.0087	-2.3636	-4.23195
C	2.46786	-1.63859	-5.47256
C	3.31051	-2.55691	-6.36995
C	3.78802	-1.83543	-7.6402
C	4.63144	-2.75248	-8.5397
C	5.10558	-2.02766	-9.80615
O	9.39629	4.11715	6.73891
O	7.24749	4.68867	6.48235
H	8.59153	2.18086	5.14811
H	8.26942	1.7421	6.86858
H	5.82641	2.25522	6.53954
H	6.14768	2.69282	4.82362
H	6.9974	0.347183	4.39141
H	6.67848	-0.0872195	6.09481
H	4.27064	-0.103806	5.7439
H	3.28838	0.0622826	3.58095
H	4.33237	1.30083	1.76141
H	5.84077	1.53205	2.68742
H	6.71239	-0.63486	1.99952
H	5.66365	-1.96967	0.33808
H	3.01878	-0.568123	1.05394
H	3.25536	-1.95585	-0.0350804
H	3.53043	1.03308	-0.703177
H	3.77209	0.421831	-2.98016
H	4.56485	-2.39426	-2.03287
H	4.61972	-1.74402	-3.68948
H	2.20924	-2.99435	-2.2383
H	1.03946	-2.8864	-4.30984
H	3.06198	-0.740247	-5.1872
H	1.58515	-1.26283	-6.03919
H	2.70657	-3.45018	-6.65647
H	4.19533	-2.92338	-5.7976
H	4.39172	-0.942132	-7.35322
H	2.90292	-1.46895	-8.21211
H	4.02825	-3.64641	-8.8277
H	5.51748	-3.11944	-7.96856
H	5.7157	-2.7036	-10.4491
H	5.72877	-1.13963	-9.55135
H	4.24126	-1.66599	-10.4095
H	9.44273	5.05552	6.98691
