108
  This energy is 0.1188 and Call times are: 3209
C	-3.78037	2.37824	-6.75062
C	-2.84268	3.03416	-5.75352
C	-3.3444	2.93522	-4.30462
C	-2.37863	3.60592	-3.316
C	-2.88713	3.49904	-1.89949
C	-2.62161	2.50199	-1.03983
C	-1.76322	1.29544	-1.32424
C	-0.324059	1.56431	-0.965794
C	0.247854	1.33838	0.228384
C	-0.433516	0.771389	1.44835
C	-0.326977	-0.732548	1.46522
C	0.654064	-1.46039	2.02379
C	1.86136	-0.930349	2.75498
C	1.56835	-0.780779	4.22636
C	1.7584	-1.72107	5.16638
C	2.30163	-3.10895	4.93339
C	3.8317	-3.13318	5.06371
C	4.40434	-4.54005	4.82948
C	5.9353	-4.56666	4.9594
C	6.5019	-5.97306	4.72472
O	-3.30832	2.48471	-8.00845
O	-4.82324	1.82156	-6.50012
H	-1.84145	2.54788	-5.824
H	-2.72293	4.10987	-6.02258
H	-4.34722	3.41875	-4.22708
H	-3.46807	1.86088	-4.02902
H	-1.37297	3.13181	-3.39177
H	-2.2457	4.67831	-3.58838
H	-3.53479	4.32402	-1.5552
H	-3.06476	2.5567	-0.0299381
H	-2.1387	0.420757	-0.747431
H	-1.83949	1.02336	-2.40077
H	0.305923	1.98568	-1.76867
H	1.31774	1.58633	0.342902
H	-1.50335	1.0769	1.46274
H	0.0231103	1.19522	2.37028
H	-1.14673	-1.27602	0.963103
H	0.584394	-2.55993	1.94874
H	2.16474	0.0508417	2.3263
H	2.72598	-1.61534	2.60744
H	1.16136	0.194773	4.54525
H	1.49904	-1.47375	6.21059
H	2.00283	-3.46677	3.9214
H	1.84893	-3.81933	5.66268
H	4.12216	-2.78001	6.0814
H	4.27731	-2.4246	4.32605
H	4.11345	-4.89291	3.8118
H	3.95831	-5.24832	5.56717
H	6.22741	-4.21413	5.97738
H	6.3826	-3.85861	4.22149
H	7.61235	-5.97822	4.82182
H	6.2435	-6.34561	3.70672
H	6.08849	-6.70072	5.46059
H	-3.94828	2.04892	-8.5956
C	11.237	-0.980485	3.49034
C	10.5681	-1.50478	2.23279
C	9.21955	-2.18645	2.51118
C	8.56364	-2.70783	1.2236
C	7.24159	-3.3735	1.51608
C	6.04297	-2.76827	1.54174
C	5.78639	-1.30516	1.283
C	5.52844	-1.05637	-0.181077
C	4.33037	-1.08404	-0.787754
C	3.00492	-1.36904	-0.127439
C	2.37324	-0.0927502	0.368065
C	1.53909	0.707106	-0.316483
C	1.05397	0.501297	-1.72909
C	-0.21964	-0.305504	-1.74147
C	-1.46633	0.190602	-1.6818
C	-1.83492	1.65055	-1.59084
C	-2.00675	2.26574	-2.98751
C	-2.38278	3.75419	-2.91551
C	-2.55524	4.37188	-4.312
C	-2.93051	5.85756	-4.23464
O	12.4151	-0.390273	3.20746
O	10.8107	-1.05722	4.61844
H	10.406	-0.655724	1.52801
H	11.249	-2.23723	1.73899
H	9.37415	-3.0366	3.21745
H	8.5334	-1.45927	3.00703
H	8.41119	-1.86492	0.510764
H	9.2458	-3.43073	0.719651
H	7.282	-4.45654	1.72577
H	5.15607	-3.38458	1.77159
H	4.91384	-0.963116	1.88336
H	6.66007	-0.703493	1.61981
H	6.4153	-0.831977	-0.799276
H	4.29689	-0.880802	-1.87257
H	3.14645	-2.07687	0.719346
H	2.32352	-1.87644	-0.846011
H	2.63292	0.200237	1.40064
H	1.16116	1.61129	0.192532
H	1.83679	-0.0151891	-2.32824
H	0.884989	1.48566	-2.22003
H	-0.10142	-1.40138	-1.80569
H	-2.31118	-0.519841	-1.6998
H	-1.04885	2.20442	-1.02802
H	-2.77746	1.76676	-1.00813
H	-2.79969	1.71002	-3.54178
H	-1.05711	2.15121	-3.56184
H	-1.58972	4.30948	-2.36099
H	-3.33232	3.86828	-2.34093
H	-3.34876	3.81725	-4.86754
H	-1.60564	4.25859	-4.88761
H	-3.05244	6.29285	-5.25356
H	-2.14609	6.44287	-3.70173
H	-3.8872	6.00205	-3.68168
H	12.7912	-0.0777662	4.04714
