108
  This energy is 0.2421 and Call times are: 3982
C	1.02734	-3.70479	-7.123
C	1.40621	-2.35206	-6.54831
C	0.202458	-1.58334	-5.98183
C	0.612041	-0.218965	-5.40683
C	-0.581721	0.521014	-4.85562
C	-1.04105	0.44864	-3.59568
C	-0.452064	-0.386861	-2.48731
C	0.592236	0.389774	-1.72689
C	0.374004	1.15971	-0.648114
C	-0.957116	1.40154	0.017997
C	-1.20836	0.372911	1.09144
C	-0.86342	0.465019	2.38632
C	-0.150057	1.61762	3.04647
C	-1.14075	2.62785	3.56714
C	-1.69215	2.63068	4.79183
C	-1.42789	1.62445	5.88419
C	-0.251926	2.06423	6.7687
C	0.0328785	1.05084	7.88852
C	1.20927	1.48888	8.77489
C	1.48947	0.474062	9.891
O	2.10668	-4.34871	-7.60951
O	-0.0804944	-4.18578	-7.16283
H	2.1557	-2.50084	-5.73589
H	1.88301	-1.7392	-7.3489
H	-0.552695	-1.43223	-6.78952
H	-0.28073	-2.19186	-5.18077
H	1.37064	-0.361548	-4.60304
H	1.10066	0.392537	-6.20005
H	-1.11392	1.17688	-5.56639
H	-1.92937	1.04943	-3.33265
H	-1.25785	-0.715251	-1.79331
H	-0.000421782	-1.31164	-2.91106
H	1.62724	0.30877	-2.10273
H	1.24184	1.67042	-0.195014
H	-1.77239	1.36844	-0.738533
H	-0.982248	2.42349	0.457407
H	-1.72992	-0.543511	0.763382
H	-1.12117	-0.380672	3.04802
H	0.5412	2.10218	2.32127
H	0.485308	1.24388	3.88024
H	-1.42971	3.43187	2.86779
H	-2.40635	3.43521	5.03977
H	-1.21132	0.627799	5.4356
H	-2.34206	1.49484	6.50784
H	-0.47937	3.05934	7.21905
H	0.66051	2.1853	6.13816
H	0.260043	0.0558533	7.43775
H	-0.879855	0.929912	8.51866
H	0.982868	2.48414	9.22668
H	2.1231	1.60982	8.14545
H	2.34432	0.803713	10.5259
H	1.73906	-0.527219	9.47024
H	0.600134	0.34609	10.5502
H	1.80097	-5.20164	-7.96057
C	-5.03058	4.11855	-1.60601
C	-3.6404	4.48174	-1.11694
C	-3.21882	3.69106	0.131229
C	-1.80954	4.07666	0.605734
C	-1.41281	3.29094	1.83118
C	-0.780216	2.10627	1.83729
C	-0.343724	1.3316	0.619575
C	1.0539	1.71942	0.209464
C	2.1903	1.14353	0.635073
C	2.29627	-0.00464078	1.60694
C	2.27229	-1.3231	0.87581
C	3.33369	-1.99655	0.40244
C	4.7792	-1.57926	0.500028
C	5.40318	-2.11572	1.76337
C	6.02543	-3.29889	1.89303
C	6.22112	-4.32079	0.800784
C	7.53736	-4.07972	0.0470882
C	7.7547	-5.11186	-1.07072
C	9.07126	-4.87255	-1.82628
C	9.28347	-5.90535	-2.94089
O	-5.36528	4.83076	-2.7001
O	-5.77753	3.30567	-1.11455
H	-2.90669	4.28678	-1.93399
H	-3.61255	5.57159	-0.881698
H	-3.94996	3.88032	0.952854
H	-3.24597	2.59891	-0.0966581
H	-1.07431	3.89561	-0.211911
H	-1.77316	5.16767	0.829941
H	-1.67405	3.7461	2.80236
H	-0.552392	1.6455	2.81455
H	-0.385451	0.239841	0.831903
H	-1.04936	1.51977	-0.220327
H	1.13551	2.55536	-0.507181
H	3.14537	1.53731	0.245155
H	1.45996	0.0390361	2.33961
H	3.23369	0.0843445	2.19974
H	1.27286	-1.76688	0.721974
H	3.14582	-2.95487	-0.113122
H	4.85645	-0.469229	0.479758
H	5.34153	-1.94679	-0.387247
H	5.33482	-1.46676	2.654
H	6.43778	-3.56506	2.88194
H	5.36514	-4.28137	0.0886055
H	6.21789	-5.3459	1.23735
H	8.38949	-4.12735	0.765701
H	7.52984	-3.05422	-0.392325
H	6.90227	-5.06405	-1.78896
H	7.76193	-6.13719	-0.630917
H	9.92483	-4.92053	-1.10864
H	9.06492	-3.84707	-2.26702
H	10.2412	-5.72041	-3.48046
H	8.45566	-5.86813	-3.68604
H	9.31458	-6.94036	-2.52899
H	-6.25918	4.55481	-2.96278
