108
  This energy is 0.1431 and Call times are: 3741
C	7.61231	2.55436	1.02281
C	6.25303	3.22496	0.942956
C	5.47987	2.86175	-0.334203
C	4.10891	3.55253	-0.390909
C	3.36463	3.18453	-1.65071
C	2.52746	2.14454	-1.79635
C	2.16911	1.14262	-0.728079
C	0.962723	1.59852	0.0521372
C	-0.318415	1.32113	-0.240997
C	-0.806585	0.499373	-1.40739
C	-0.907134	-0.956034	-1.02642
C	-1.97892	-1.57614	-0.505897
C	-3.31374	-0.950359	-0.189972
C	-4.23692	-1.0388	-1.3787
C	-5.08517	-2.04594	-1.64339
C	-5.27936	-3.2839	-0.803559
C	-6.37555	-3.07074	0.250776
C	-6.58819	-4.32225	1.11713
C	-7.68468	-4.11121	2.17288
C	-7.89305	-5.36322	3.03494
O	8.25998	2.89584	2.15426
O	8.09511	1.80551	0.206493
H	5.64813	2.92406	1.83034
H	6.39218	4.33093	0.979818
H	6.08043	3.1588	-1.2267
H	5.33835	1.75565	-0.378428
H	3.50527	3.26494	0.500609
H	4.24194	4.65785	-0.341474
H	3.53561	3.84058	-2.5219
H	2.05097	1.99687	-2.78144
H	1.96566	0.151971	-1.19282
H	3.03197	1.00012	-0.0396546
H	1.16627	2.21656	0.94412
H	-1.09943	1.7263	0.426171
H	-0.116631	0.619209	-2.27209
H	-1.7982	0.872835	-1.74699
H	0.00124628	-1.55977	-1.19913
H	-1.89	-2.65357	-0.280729
H	-3.17435	0.113774	0.104541
H	-3.7736	-1.45847	0.686897
H	-4.20169	-0.192416	-2.08682
H	-5.70511	-1.97914	-2.55445
H	-4.32149	-3.55528	-0.303288
H	-5.54614	-4.14594	-1.45713
H	-7.33237	-2.80601	-0.258339
H	-6.09782	-2.21058	0.904829
H	-5.6311	-4.58674	1.62586
H	-6.86567	-5.18218	0.462673
H	-8.64281	-3.84688	1.66492
H	-7.40787	-3.25127	2.82845
H	-8.69036	-5.19667	3.79593
H	-6.95712	-5.64154	3.57202
H	-8.19063	-6.23647	2.40983
H	9.117	2.43796	2.1466
C	-3.54013	3.85004	0.652198
C	-2.91402	2.91115	-0.362785
C	-1.54923	3.40154	-0.87044
C	-0.937251	2.43477	-1.89549
C	0.401409	2.93208	-2.38247
C	1.5941	2.65143	-1.83259
C	1.82627	1.78428	-0.621143
C	2.02633	0.345059	-1.02186
C	3.20087	-0.237432	-1.314
C	4.55304	0.430021	-1.29988
C	5.19032	0.30983	0.0613293
C	5.99011	-0.681711	0.487205
C	6.4236	-1.88941	-0.304441
C	7.70375	-1.60565	-1.04866
C	8.94684	-1.81091	-0.583356
C	9.30415	-2.36492	0.773468
C	9.41708	-3.89604	0.733546
C	9.78083	-4.47962	2.10802
C	9.89438	-6.01166	2.07043
C	10.2576	-6.58919	3.44469
O	-4.73384	3.38802	1.07398
O	-3.07083	4.88603	1.06049
H	-2.787	1.90612	0.103772
H	-3.60575	2.80303	-1.23095
H	-1.66867	4.40809	-1.3374
H	-0.852086	3.51355	-0.00620584
H	-0.820137	1.42544	-1.43785
H	-1.63076	2.31345	-2.75933
H	0.379646	3.58466	-3.27256
H	2.49509	3.08778	-2.2985
H	2.71743	2.14772	-0.0621051
H	0.960015	1.86583	0.0729177
H	1.11461	-0.275318	-1.07599
H	3.19139	-1.30584	-1.59269
H	4.45056	1.50244	-1.57831
H	5.21183	-0.0293854	-2.06997
H	4.9669	1.12824	0.76827
H	6.37803	-0.621404	1.51937
H	5.62387	-2.18086	-1.0214
H	6.56421	-2.75908	0.375602
H	7.59402	-1.1922	-2.06653
H	9.79738	-1.55684	-1.23974
H	8.53444	-2.06208	1.51998
H	10.2668	-1.92388	1.1202
H	10.194	-4.19062	-0.0110481
H	8.44763	-4.32994	0.391966
H	9.00381	-4.18462	2.85233
H	10.7502	-4.0453	2.44931
H	10.6718	-6.30789	1.32628
H	8.9249	-6.44725	1.72942
H	10.3367	-7.70031	3.40336
H	9.48809	-6.32684	4.20689
H	11.233	-6.18764	3.80421
H	-5.0811	4.02823	1.7172
