108
  This energy is -6.1006 and Call times are: 1214
C	1.13614	7.45791	-2.93374
C	0.360912	6.23174	-3.3801
C	1.23549	4.97208	-3.47596
C	0.428146	3.74624	-3.92922
C	1.30248	2.51978	-4.0176
C	1.53406	1.64377	-3.02634
C	0.964581	1.71654	-1.63211
C	-0.348347	0.980756	-1.54971
C	-0.508378	-0.317199	-1.2433
C	0.591172	-1.2975	-0.920708
C	0.876214	-1.30737	0.559871
C	0.294256	-2.09056	1.48297
C	-0.77037	-3.12962	1.23782
C	-0.146896	-4.47241	0.952588
C	0.16182	-5.40701	1.86644
C	-0.0549171	-5.29543	3.35511
C	-1.43869	-5.82892	3.75416
C	-1.67834	-5.72355	5.2686
C	-3.06245	-6.25684	5.6702
C	-3.29671	-6.14944	7.1827
O	0.337737	8.54124	-2.86133
O	2.31364	7.50789	-2.66682
H	-0.466921	6.0436	-2.65678
H	-0.0932285	6.43408	-4.37845
H	2.06737	5.15391	-4.19734
H	1.69466	4.76446	-2.48021
H	-0.408292	3.56173	-3.21633
H	-0.038308	3.94834	-4.92092
H	1.78796	2.34189	-4.99293
H	2.1994	0.787858	-3.23609
H	1.68727	1.28134	-0.906105
H	0.820048	2.78036	-1.33857
H	-1.25317	1.57631	-1.76338
H	-1.53668	-0.71891	-1.22158
H	1.51371	-1.03282	-1.48371
H	0.302505	-2.31744	-1.25909
H	1.64396	-0.592171	0.904172
H	0.616943	-1.9742	2.53264
H	-1.41373	-2.82033	0.384013
H	-1.44121	-3.20244	2.12281
H	0.0698183	-4.69357	-0.107203
H	0.616504	-6.34951	1.51463
H	0.0463905	-4.23239	3.67313
H	0.738423	-5.86073	3.89594
H	-1.52956	-6.89511	3.43831
H	-2.22718	-5.25362	3.2137
H	-1.58716	-4.65727	5.58405
H	-0.889521	-6.29878	5.80866
H	-3.15461	-7.32375	5.35536
H	-3.85245	-5.68174	5.13068
H	-4.30346	-6.53934	7.46017
H	-3.23088	-5.09106	7.52531
H	-2.53384	-6.73117	7.74973
H	0.888473	9.28786	-2.57246
C	7.49575	7.83653	-1.10962
C	6.40932	6.89146	-1.58946
C	6.96798	5.63689	-2.2785
C	5.84945	4.69757	-2.75441
C	6.41624	3.47219	-3.42797
C	6.73725	2.31726	-2.82238
C	6.5932	2.02154	-1.3509
C	5.23693	1.43597	-1.05156
C	4.92184	0.130264	-1.05675
C	5.85977	-1.01028	-1.36252
C	6.52945	-1.49922	-0.10318
C	6.08228	-2.46108	0.720861
C	4.8133	-3.26006	0.564407
C	5.06775	-4.50974	-0.239788
C	5.42929	-5.70463	0.255638
C	5.65104	-6.02893	1.71208
C	4.35265	-6.5118	2.37518
C	4.55861	-6.84744	3.86077
C	3.26063	-7.33086	4.52635
C	3.47154	-7.66455	6.009
O	6.96894	8.92334	-0.511603
O	8.68851	7.68052	-1.22454
H	5.78936	6.57938	-0.71645
H	5.74801	7.43366	-2.3054
H	7.59108	5.94199	-3.15264
H	7.63232	5.08997	-1.56789
H	5.21923	4.39298	-1.88728
H	5.17829	5.23879	-3.46046
H	6.57496	3.54977	-4.51765
H	7.14456	1.50139	-3.44505
H	7.38934	1.31371	-1.02854
H	6.73956	2.95478	-0.762343
H	4.43894	2.15884	-0.807222
H	3.88123	-0.150026	-0.816273
H	6.62727	-0.684264	-2.09924
H	5.30098	-1.84337	-1.84399
H	7.48362	-1.00626	0.153773
H	6.69433	-2.70342	1.60751
H	4.03321	-2.64088	0.067787
H	4.40737	-3.52838	1.5653
H	4.94173	-4.41957	-1.33296
H	5.58275	-6.53746	-0.452636
H	6.03579	-5.12939	2.24522
H	6.43864	-6.811	1.80945
H	3.97773	-7.41607	1.8399
H	3.57162	-5.72087	2.2792
H	4.93373	-5.94299	4.3956
H	5.33984	-7.63822	3.9563
H	2.88464	-8.23598	3.99223
H	2.47841	-6.54025	4.43166
H	2.52308	-8.01362	6.47924
H	3.82863	-6.77321	6.57458
H	4.23439	-8.46698	6.13566
H	7.70934	9.48543	-0.228664
