108
  This energy is 0.1391 and Call times are: 3371
C	5.29083	-6.12215	0.210866
C	4.17085	-5.63533	1.11218
C	4.32567	-4.16132	1.51733
C	3.18074	-3.69348	2.42848
C	3.34929	-2.24503	2.81584
C	2.86452	-1.18792	2.14415
C	2.05732	-1.24419	0.871858
C	0.583203	-1.32824	1.17494
C	-0.252584	-0.28765	1.32601
C	0.115035	1.17122	1.22299
C	-0.0382363	1.65852	-0.195641
C	-1.14248	2.18969	-0.745807
C	-2.46803	2.41351	-0.0631649
C	-2.51389	3.7792	0.573972
C	-2.94182	4.90826	-0.0142533
C	-3.45955	5.02988	-1.4259
C	-4.97903	4.81284	-1.47843
C	-5.52567	4.93295	-2.9098
C	-7.04601	4.71612	-2.96475
C	-7.58666	4.83704	-4.39554
O	5.12155	-7.41678	-0.123155
O	6.23167	-5.47414	-0.183005
H	3.19777	-5.76508	0.582865
H	4.1484	-6.26363	2.0334
H	5.29861	-4.02384	2.04643
H	4.35049	-3.52661	0.599738
H	2.20492	-3.83309	1.90871
H	3.14611	-4.32669	3.34485
H	3.92616	-2.05551	3.73775
H	3.06713	-0.18026	2.54767
H	2.26458	-0.342434	0.253271
H	2.36879	-2.12433	0.265965
H	0.166042	-2.34512	1.27966
H	-1.31234	-0.505301	1.5469
H	1.16218	1.32458	1.56659
H	-0.526707	1.77395	1.90342
H	0.857505	1.5619	-0.834228
H	-1.09101	2.49907	-1.80463
H	-2.63566	1.62868	0.707867
H	-3.29663	2.30938	-0.798771
H	-2.16087	3.8416	1.61825
H	-2.92004	5.84251	0.573563
H	-2.94885	4.28729	-2.08102
H	-3.20693	6.03466	-1.83583
H	-5.48306	5.56406	-0.825438
H	-5.2229	3.80258	-1.07261
H	-5.02123	4.18173	-3.56247
H	-5.28139	5.94324	-3.3153
H	-7.55172	5.46747	-2.31234
H	-7.29148	3.70543	-2.55959
H	-8.68962	4.67773	-4.42111
H	-7.11435	4.08469	-5.06844
H	-7.37429	5.8447	-4.82147
H	5.86499	-7.66734	-0.696496
C	7.24066	-3.15639	4.87219
C	7.15087	-2.84401	3.3896
C	5.93278	-3.49205	2.71348
C	5.86479	-3.161	1.21491
C	4.66344	-3.80518	0.568169
C	3.44242	-3.25803	0.452428
C	3.0356	-1.89294	0.946866
C	3.25866	-0.848546	-0.116828
C	2.36852	-0.4663	-1.04728
C	0.969644	-1.00409	-1.21456
C	-0.0099115	-0.198712	-0.398899
C	-0.684573	0.890305	-0.802705
C	-0.608004	1.54296	-2.15966
C	-1.63452	0.951901	-3.09245
C	-2.89221	1.39246	-3.25985
C	-3.52233	2.56357	-2.54779
C	-3.30815	3.86736	-3.3307
C	-3.94363	5.07304	-2.62039
C	-3.73054	6.37881	-3.40206
C	-4.36668	7.57915	-2.68891
O	8.3194	-2.57225	5.43022
O	6.47226	-3.83359	5.51344
H	7.09389	-1.73829	3.25533
H	8.07868	-3.20477	2.8867
H	5.98251	-4.59911	2.84539
H	5.00032	-3.1365	3.21304
H	5.82059	-2.0563	1.07502
H	6.79561	-3.50823	0.710043
H	4.82051	-4.81808	0.158332
H	2.65501	-3.84903	-0.0475322
H	1.96361	-1.90394	1.246
H	3.61799	-1.63294	1.85901
H	4.2495	-0.36145	-0.119103
H	2.67576	0.31485	-1.76468
H	0.933615	-2.07245	-0.905688
H	0.679429	-0.981147	-2.2885
H	-0.178666	-0.553336	0.633207
H	-1.36889	1.36811	-0.0795929
H	0.411814	1.41424	-2.58622
H	-0.769067	2.63992	-2.06333
H	-1.30898	0.0788562	-3.68478
H	-3.53868	0.861481	-3.98024
H	-3.09017	2.66129	-1.52548
H	-4.61268	2.38009	-2.41029
H	-3.74925	3.76364	-4.35023
H	-2.21444	4.04712	-3.45827
H	-3.50242	5.17624	-1.60085
H	-5.03726	4.89276	-2.49282
H	-4.17194	6.27676	-4.42218
H	-2.63664	6.56032	-3.52994
H	-4.20487	8.519	-3.26603
H	-3.9313	7.71974	-1.67276
H	-5.46483	7.4365	-2.56397
H	8.32105	-2.8081	6.37286
