108
  This energy is -4.0752 and Call times are: 1465
C	-3.46261	5.17598	-5.17084
C	-2.72576	5.3044	-3.85014
C	-3.33649	4.4394	-2.73675
C	-2.57337	4.58707	-1.4117
C	-3.18667	3.73128	-0.330982
C	-2.85624	2.46038	-0.0494138
C	-1.80749	1.64222	-0.759486
C	-0.461957	1.80593	-0.100181
C	0.0265431	1.04921	0.896275
C	-0.671554	-0.114138	1.55457
C	-0.346864	-1.40158	0.840051
C	0.675977	-2.23036	1.10672
C	1.72098	-2.05213	2.1788
C	1.27722	-2.69895	3.46638
C	1.51771	-3.96839	3.83328
C	2.27805	-4.99355	3.02924
C	3.7769	-4.95692	3.36212
C	4.56912	-5.99533	2.55209
C	6.06923	-5.96047	2.88358
C	6.85547	-6.99874	2.07248
O	-2.89951	5.94748	-6.12163
O	-4.43058	4.4871	-5.39159
H	-1.66165	5.00517	-3.9986
H	-2.74174	6.37232	-3.52893
H	-4.4024	4.73254	-2.58386
H	-3.32517	3.369	-3.0523
H	-1.50621	4.30133	-1.55798
H	-2.57558	5.65492	-1.09296
H	-3.97714	4.2093	0.27338
H	-3.39216	1.95579	0.773645
H	-2.10083	0.568569	-0.756954
H	-1.74517	1.95269	-1.82649
H	0.169208	2.62753	-0.481812
H	1.03351	1.28965	1.2803
H	-1.77156	0.0534204	1.55503
H	-0.367574	-0.184986	2.62259
H	-1.02889	-1.67687	0.0163215
H	0.775924	-3.13896	0.487092
H	1.91423	-0.968761	2.3447
H	2.68673	-2.49318	1.84514
H	0.703961	-2.05958	4.16036
H	1.13137	-4.31073	4.80917
H	2.12796	-4.80745	1.94099
H	1.87069	-6.01064	3.23179
H	3.91895	-5.1506	4.45166
H	4.1783	-3.93768	3.15043
H	4.42661	-5.80143	1.46265
H	4.16725	-7.01437	2.76389
H	6.21297	-6.15471	3.97331
H	6.4724	-4.94142	2.67168
H	7.94121	-6.9628	2.32239
H	6.74789	-6.8189	0.977965
H	6.48876	-8.03079	2.2781
H	-3.4126	5.82234	-6.93728
C	7.14917	6.78446	4.28817
C	7.51887	5.32431	4.47531
C	6.31008	4.38182	4.36873
C	6.71041	2.91129	4.5616
C	5.5118	2.00124	4.45376
C	5.05373	1.43123	3.3273
C	5.64921	1.59062	1.95127
C	6.68848	0.53054	1.69028
C	6.46547	-0.676963	1.14586
C	5.13308	-1.21393	0.687115
C	4.88969	-0.865299	-0.759495
C	5.23473	-1.59962	-1.82997
C	5.94037	-2.93193	-1.81617
C	4.9429	-4.06115	-1.76058
C	4.39221	-4.67781	-2.81906
C	4.66417	-4.36102	-4.26864
C	5.83753	-5.19352	-4.80608
C	6.1301	-4.8845	-6.28289
C	7.30391	-5.71644	-6.82281
C	7.59188	-5.4043	-8.29717
O	8.23272	7.57959	4.3881
O	6.04472	7.22631	4.07562
H	8.26986	5.03892	3.70171
H	7.99089	5.19589	5.47761
H	5.55342	4.66284	5.13941
H	5.83164	4.50629	3.3682
H	7.47046	2.62484	3.79861
H	7.19427	2.78025	5.55689
H	4.9746	1.79622	5.39608
H	4.16137	0.784904	3.39941
H	4.84615	1.52901	1.18311
H	6.10709	2.60029	1.85287
H	7.7238	0.783991	1.97821
H	7.32996	-1.35145	1.01551
H	4.31762	-0.799258	1.32049
H	5.10103	-2.31788	0.822701
H	4.37438	0.0945235	-0.940263
H	4.98331	-1.20136	-2.8288
H	6.62778	-2.9888	-0.942806
H	6.57883	-3.03315	-2.72208
H	4.6479	-4.40128	-0.752454
H	3.67253	-5.49348	-2.63051
H	4.88748	-3.27541	-4.38277
H	3.7513	-4.55821	-4.87627
H	5.60337	-6.27862	-4.69429
H	6.74873	-4.98546	-4.1968
H	6.36398	-3.79929	-6.39426
H	5.21861	-5.09248	-6.89175
H	7.07078	-6.8024	-6.71219
H	8.2165	-5.50883	-6.21455
H	8.44475	-6.014	-8.67587
H	7.84824	-4.32891	-8.43754
H	6.70384	-5.62098	-8.93461
H	7.9328	8.49493	4.26008
