108
  This energy is 0.1099 and Call times are: 542
C	7.71935	-0.0586375	-2.43439
C	7.01205	0.0982357	-1.10066
C	5.96725	1.22483	-1.10544
C	5.2663	1.36298	0.254521
C	4.2447	2.47305	0.23111
C	2.94981	2.34569	-0.101603
C	2.26589	1.06757	-0.516475
C	1.70286	0.346951	0.681711
C	0.471472	0.508103	1.19348
C	-0.593369	1.4406	0.673262
C	-1.45249	0.745842	-0.352746
C	-2.57681	0.0495267	-0.117734
C	-3.22298	-0.187871	1.22363
C	-4.21277	0.905207	1.53772
C	-5.51778	0.900499	1.22015
C	-6.24691	-0.198487	0.48792
C	-6.8161	-1.23387	1.46909
C	-7.56326	-2.36258	0.741198
C	-8.13369	-3.39982	1.72109
C	-8.87845	-4.52425	0.989611
O	8.6267	-1.05425	-2.39222
O	7.53	0.597021	-3.43163
H	6.50744	-0.862482	-0.843198
H	7.77066	0.311271	-0.311345
H	6.46529	2.18947	-1.36405
H	5.20541	1.01882	-1.8945
H	4.77113	0.401211	0.522273
H	6.02181	1.56332	1.04885
H	4.61246	3.4741	0.516167
H	2.31625	3.24961	-0.073565
H	1.44981	1.29354	-1.23877
H	2.98817	0.408497	-1.04818
H	2.37593	-0.376891	1.1737
H	0.198489	-0.0922729	2.07908
H	-0.122162	2.34382	0.225768
H	-1.2246	1.80388	1.5145
H	-1.1087	0.827264	-1.39901
H	-3.09243	-0.401252	-0.983998
H	-2.44439	-0.235058	2.01744
H	-3.73405	-1.17646	1.22957
H	-3.81485	1.78224	2.07764
H	-6.12854	1.77206	1.51369
H	-5.55588	-0.697681	-0.22952
H	-7.07112	0.236484	-0.122754
H	-7.51167	-0.727459	2.17939
H	-5.98418	-1.66917	2.07176
H	-6.86741	-2.86856	0.0308659
H	-8.39492	-1.92683	0.138496
H	-8.83032	-2.89469	2.43203
H	-7.30236	-3.8367	2.32437
H	-9.28679	-5.26909	1.71144
H	-8.20263	-5.06194	0.285299
H	-9.72883	-4.12102	0.392837
H	9.04239	-1.1043	-3.26909
C	8.73282	-1.13063	7.75289
C	7.68703	-1.71075	6.81829
C	6.81129	-0.634982	6.15749
C	5.76194	-1.24728	5.21735
C	4.912	-0.177055	4.57806
C	5.17116	0.446559	3.4172
C	6.36271	0.197566	2.52743
C	6.06235	-0.880393	1.51761
C	5.54294	-0.69291	0.293172
C	5.15656	0.631191	-0.316358
C	6.32102	1.23248	-1.06197
C	6.62565	1.04673	-2.35692
C	5.86848	0.196315	-3.34517
C	4.80531	1.00844	-4.04038
C	4.9633	1.70066	-5.18046
C	6.23423	1.80038	-5.9869
C	6.312	0.682646	-7.03728
C	7.60113	0.76756	-7.86974
C	7.68108	-0.349983	-8.92148
C	8.96957	-0.260786	-9.74967
O	9.48047	-2.10209	8.3129
O	8.91167	0.0394149	7.99627
H	8.19983	-2.29962	6.02195
H	7.03288	-2.40668	7.39419
H	6.29607	-0.0405071	6.94907
H	7.45994	0.0662709	5.58046
H	6.26903	-1.84742	4.42704
H	5.11366	-1.95342	5.78566
H	3.99799	0.106706	5.12819
H	4.45637	1.21321	3.06996
H	6.64512	1.13779	2.00304
H	7.2399	-0.0980986	3.1454
H	6.29595	-1.91427	1.82674
H	5.37745	-1.58325	-0.338616
H	4.8126	1.3297	0.478545
H	4.29343	0.495153	-1.00527
H	6.9809	1.88998	-0.468901
H	7.5181	1.56203	-2.75375
H	5.40427	-0.670248	-2.82351
H	6.57089	-0.231417	-4.09497
H	3.81262	1.0266	-3.55741
H	4.09468	2.25338	-5.57899
H	7.11704	1.74444	-5.30944
H	6.28687	2.79417	-6.48796
H	5.42846	0.74967	-7.71526
H	6.26534	-0.308541	-6.52722
H	8.48438	0.700725	-7.19137
H	7.64749	1.75895	-8.37943
H	6.798	-0.283808	-9.60096
H	7.63515	-1.34235	-8.41255
H	9.01481	-1.07646	-10.5081
H	9.87127	-0.3441	-9.10014
H	9.03509	0.71322	-10.2872
H	10.1266	-1.67012	8.89609
