108
  This energy is -5.2006 and Call times are: 3690
C	-2.44356	5.0481	-5.83642
C	-2.61146	4.98266	-4.32935
C	-3.19717	3.64576	-3.84927
C	-3.35703	3.6049	-2.32195
C	-3.93294	2.28591	-1.86909
C	-3.22954	1.19072	-1.53827
C	-1.72689	1.06733	-1.55543
C	-1.141	1.46049	-0.223475
C	-0.914646	0.637431	0.813605
C	-1.2006	-0.842659	0.853916
C	-0.0052771	-1.62761	0.375887
C	1.00452	-2.08971	1.1315
C	1.16091	-1.92319	2.62179
C	0.509338	-3.06769	3.35578
C	1.10427	-4.22071	3.70293
C	2.53918	-4.59502	3.42633
C	3.45741	-4.15345	4.57548
C	4.92487	-4.5264	4.31177
C	5.84554	-4.08549	5.46043
C	7.30907	-4.46004	5.19236
O	-1.92841	6.23299	-6.21973
O	-2.72009	4.18008	-6.63034
H	-1.61757	5.1365	-3.84727
H	-3.28417	5.81048	-4.00368
H	-4.19168	3.48449	-4.32926
H	-2.52948	2.81229	-4.17327
H	-2.36832	3.77093	-1.83535
H	-4.01839	4.43823	-1.99021
H	-5.03405	2.23435	-1.81013
H	-3.78799	0.291747	-1.22326
H	-1.43695	0.0212537	-1.80124
H	-1.30449	1.71184	-2.35852
H	-0.878608	2.52626	-0.103796
H	-0.478146	1.07119	1.73043
H	-2.08618	-1.07611	0.221962
H	-1.46799	-1.15013	1.88932
H	0.0284162	-1.83534	-0.708176
H	1.80997	-2.65054	0.625318
H	0.710431	-0.958459	2.94568
H	2.24037	-1.86729	2.88669
H	-0.552575	-2.93167	3.62574
H	0.504043	-4.97545	4.24043
H	2.87494	-4.12635	2.47289
H	2.62081	-5.69645	3.27926
H	3.11869	-4.63197	5.52473
H	3.37487	-3.04919	4.71184
H	5.26309	-4.04787	3.36236
H	5.00691	-5.63067	4.17526
H	5.50823	-4.56399	6.41077
H	5.76449	-2.98072	5.59763
H	7.96549	-4.13478	6.03253
H	7.68202	-3.98012	4.2583
H	7.42605	-5.56156	5.0705
H	-1.84564	6.21305	-7.1877
C	10.9495	-0.96177	6.82162
C	11.2356	-1.13568	5.3412
C	10.2343	-2.06892	4.6431
C	10.5454	-2.22818	3.14718
C	9.55281	-3.14712	2.4787
C	8.39621	-2.77552	1.90613
C	7.8654	-1.36685	1.82052
C	8.34152	-0.689681	0.560871
C	7.71288	-0.697796	-0.626111
C	6.40682	-1.38469	-0.936689
C	5.24551	-0.457189	-0.682547
C	4.68565	0.386648	-1.56497
C	5.09782	0.588745	-3.00109
C	4.34639	-0.3532	-3.90733
C	3.16834	-0.101821	-4.5014
C	2.3681	1.17093	-4.37777
C	2.7622	2.18008	-5.46634
C	1.9569	3.48451	-5.35679
C	2.34963	4.49582	-6.44513
C	1.54302	5.79603	-6.33141
O	11.8465	-0.138283	7.39923
O	10.0497	-1.47214	7.44618
H	11.2048	-0.136507	4.84664
H	12.2637	-1.54987	5.21729
H	10.2587	-3.07075	5.13423
H	9.20263	-1.66112	4.76456
H	10.5284	-1.23058	2.65081
H	11.5768	-2.62992	3.01778
H	9.81749	-4.21877	2.46856
H	7.76641	-3.56118	1.45298
H	6.75274	-1.38077	1.84403
H	8.19535	-0.784554	2.70981
H	9.29628	-0.140281	0.63586
H	8.18499	-0.154333	-1.46338
H	6.30309	-2.30256	-0.316333
H	6.39801	-1.72332	-1.99657
H	4.82387	-0.486721	0.337659
H	3.83627	1.00205	-1.21955
H	6.19353	0.426122	-3.10842
H	4.90797	1.64201	-3.30627
H	4.81905	-1.33415	-4.09
H	2.7302	-0.886586	-5.14248
H	2.52624	1.62045	-3.37062
H	1.28014	0.941886	-4.45081
H	2.59476	1.72495	-6.47113
H	3.85092	2.409	-5.38221
H	2.12446	3.93917	-4.3518
H	0.868272	3.25511	-5.44074
H	2.18203	4.04206	-7.45106
H	3.43859	4.72632	-6.3618
H	1.83752	6.52017	-7.12604
H	1.70546	6.28447	-5.34301
H	0.450349	5.601	-6.43102
H	11.6113	-0.0679243	8.33941
