108
  This energy is -4.4668 and Call times are: 2235
C	2.79635	6.54394	-3.85686
C	2.7517	5.05613	-4.15375
C	3.37902	4.20382	-3.0398
C	3.32136	2.70334	-3.36406
C	3.94133	1.88272	-2.26012
C	3.29792	1.3849	-1.19155
C	1.83021	1.54993	-0.888124
C	1.0269	0.430041	-1.49845
C	0.72832	-0.739673	-0.909551
C	1.13593	-1.16699	0.478007
C	0.0959678	-0.752771	1.48814
C	-0.96659	-1.47195	1.88556
C	-1.34908	-2.8496	1.40709
C	-0.710324	-3.90829	2.26984
C	-1.24403	-4.44855	3.37763
C	-2.58549	-4.10166	3.97404
C	-3.69449	-4.99441	3.39801
C	-5.07	-4.65576	3.99411
C	-6.18127	-5.5479	3.41912
C	-7.55215	-5.20591	4.01729
O	2.23821	7.25822	-4.85414
O	3.25981	7.06826	-2.8717
H	1.68928	4.74621	-4.29202
H	3.29455	4.86092	-5.10826
H	4.4424	4.50988	-2.89489
H	2.84139	4.39548	-2.08081
H	2.26233	2.39138	-3.51576
H	3.85166	2.50494	-4.32391
H	5.02282	1.68308	-2.35565
H	3.88312	0.79981	-0.460475
H	1.6726	1.57054	0.213466
H	1.47166	2.52826	-1.27938
H	0.656417	0.601138	-2.52437
H	0.128146	-1.46751	-1.4834
H	2.12012	-0.718891	0.740051
H	1.27843	-2.27008	0.509596
H	0.236559	0.246079	1.93759
H	-1.63813	-1.0231	2.63859
H	-1.0372	-2.98396	0.347273
H	-2.45602	-2.96356	1.42278
H	0.285614	-4.26166	1.95004
H	-0.662349	-5.21844	3.91404
H	-2.82146	-3.03083	3.77632
H	-2.54701	-4.21414	5.08188
H	-3.45412	-6.0639	3.60586
H	-3.73079	-4.87104	2.28975
H	-5.30986	-3.58616	3.78624
H	-5.03318	-4.77905	5.10237
H	-5.94245	-6.61828	3.62687
H	-6.21921	-5.42504	2.31036
H	-8.34847	-5.85981	3.59202
H	-7.82856	-4.14666	3.80877
H	-7.55212	-5.33852	5.12377
H	2.29709	8.196	-4.60654
C	0.57994	-3.59536	-4.32647
C	1.70306	-4.07423	-3.42481
C	3.07976	-3.53752	-3.84607
C	4.19826	-4.03616	-2.91858
C	5.54172	-3.49956	-3.34713
C	6.10068	-2.35114	-2.93199
C	5.4932	-1.37504	-1.95645
C	5.89084	-1.7122	-0.54218
C	6.97365	-1.25089	0.105039
C	8.00735	-0.304705	-0.451976
C	7.62109	1.12631	-0.175448
C	7.95198	1.85123	0.905842
C	8.78163	1.39024	2.07731
C	10.2434	1.66976	1.83613
C	10.896	2.79413	2.17359
C	10.294	3.99545	2.85914
C	10.3924	3.86779	4.38645
C	9.7837	5.08341	5.10328
C	9.88107	4.95782	6.63174
C	9.27218	6.17361	7.3425
O	-0.610214	-4.08542	-3.92687
O	0.687014	-2.87043	-5.28732
H	1.49189	-3.7485	-2.37924
H	1.72902	-5.18913	-3.43973
H	3.29702	-3.85857	-4.89258
H	3.06052	-2.42175	-3.8349
H	3.98518	-3.72402	-1.87023
H	4.21996	-5.15035	-2.92019
H	6.10229	-4.12019	-4.06767
H	7.09449	-2.08412	-3.33234
H	5.82089	-0.340619	-2.20417
H	4.38423	-1.3887	-2.0501
H	5.22095	-2.40303	-0.000840415
H	7.13565	-1.58755	1.14412
H	8.11718	-0.463878	-1.54774
H	9.00265	-0.523002	-0.00495559
H	7.00338	1.61354	-0.950372
H	7.58738	2.89232	0.957598
H	8.62606	0.301589	2.24812
H	8.44505	1.90242	3.00626
H	10.8164	0.869196	1.33631
H	11.9718	2.86359	1.93544
H	9.22736	4.10778	2.55723
H	10.8135	4.92209	2.5231
H	11.4634	3.76243	4.68087
H	9.86443	2.94154	4.71527
H	8.71282	5.18853	4.80841
H	10.3118	6.00943	4.77401
H	10.9521	4.85295	6.92787
H	9.35272	4.03181	6.96228
H	9.34933	6.06972	8.44966
H	8.19529	6.29355	7.08208
H	9.79287	7.11375	7.04771
H	-1.28359	-3.74538	-4.53936
