108
  This energy is 0.109 and Call times are: 2284
C	-5.02366	5.53695	3.10212
C	-5.16694	4.10798	2.61097
C	-4.65135	3.91286	1.17677
C	-4.80742	2.45965	0.703745
C	-4.29637	2.28705	-0.705339
C	-3.04021	1.9646	-1.05426
C	-1.89663	1.71249	-0.104461
C	-1.82806	0.256187	0.278207
C	-1.13388	-0.697391	-0.364438
C	-0.285115	-0.503203	-1.59568
C	1.13464	-0.167953	-1.21442
C	2.13594	-1.03897	-1.00725
C	2.05637	-2.54097	-1.1113
C	2.37692	-2.99441	-2.51301
C	3.59722	-3.30526	-2.98006
C	4.88387	-3.26134	-2.19382
C	5.16012	-4.60814	-1.50935
C	6.46804	-4.58309	-0.702647
C	6.74649	-5.92979	-0.0168423
C	8.05301	-5.89956	0.787009
O	-5.48542	5.66952	4.36129
O	-4.5633	6.46809	2.48464
H	-4.60135	3.43182	3.29421
H	-6.24292	3.81729	2.65163
H	-5.2122	4.58799	0.487504
H	-3.57496	4.20355	1.12839
H	-4.25434	1.7786	1.39089
H	-5.87963	2.16024	0.754678
H	-5.03572	2.44381	-1.50994
H	-2.80872	1.87211	-2.12995
H	-0.938163	2.0241	-0.576705
H	-2.01959	2.33716	0.808465
H	-2.40666	-0.0392213	1.17095
H	-1.17926	-1.72586	0.0348599
H	-0.710948	0.30819	-2.22688
H	-0.303812	-1.42441	-2.21948
H	1.35758	0.907278	-1.09755
H	3.12405	-0.629829	-0.732103
H	1.03925	-2.88849	-0.822769
H	2.76198	-3.00977	-0.389576
H	1.52177	-3.07341	-3.20693
H	3.6863	-3.62417	-4.03324
H	4.83216	-2.45246	-1.42931
H	5.73067	-2.99989	-2.8691
H	5.21695	-5.41118	-2.2818
H	4.31118	-4.85932	-0.830377
H	6.41086	-3.7798	0.0695154
H	7.31665	-4.33166	-1.38193
H	6.80425	-6.73416	-0.788559
H	5.89819	-6.18213	0.663318
H	8.24278	-6.88171	1.27887
H	8.01848	-5.11795	1.5806
H	8.9235	-5.66935	0.130398
H	-5.36696	6.59957	4.61657
C	8.46894	-6.96566	-0.919667
C	7.00605	-6.56883	-0.840822
C	6.67109	-5.76344	0.424079
C	5.18602	-5.37441	0.479998
C	4.87582	-4.58482	1.72772
C	4.93577	-3.24877	1.85028
C	5.32502	-2.27855	0.763715
C	4.11539	-1.83643	-0.0194116
C	3.33868	-0.776456	0.258701
C	3.52024	0.18264	1.40815
C	4.40543	1.33438	1.00392
C	4.00914	2.49914	0.464965
C	2.59267	2.90667	0.147609
C	1.96316	3.60359	1.32708
C	1.99354	4.92436	1.5691
C	2.66291	5.96703	0.708663
C	1.69536	6.51371	-0.351368
C	2.35974	7.57829	-1.23868
C	1.39335	8.12674	-2.30017
C	2.06128	9.18894	-3.18316
O	8.72468	-7.66932	-2.04027
O	9.32945	-6.7091	-0.111012
H	6.74761	-5.95842	-1.73776
H	6.37918	-7.4911	-0.85944
H	6.92885	-6.36799	1.32604
H	7.2963	-4.83937	0.450037
H	4.9197	-4.7749	-0.420861
H	4.55493	-6.29236	0.448748
H	4.57384	-5.17508	2.61033
H	4.67975	-2.80616	2.82896
H	5.82909	-1.39297	1.21139
H	6.06392	-2.75381	0.0803992
H	3.85602	-2.44987	-0.900015
H	2.48219	-0.575539	-0.408628
H	3.96211	-0.34855	2.28032
H	2.53068	0.563781	1.74519
H	5.48679	1.18976	1.17487
H	4.78723	3.24476	0.223938
H	1.99263	2.01122	-0.129265
H	2.58008	3.57682	-0.740809
H	1.43287	2.95749	2.04846
H	1.48783	5.29963	2.47587
H	3.55904	5.52886	0.212275
H	3.0352	6.80123	1.3466
H	0.804452	6.95632	0.153769
H	1.33253	5.67368	-0.989721
H	3.25069	7.13533	-1.74343
H	2.7226	8.41799	-0.599925
H	0.501721	8.57049	-1.7962
H	1.02997	7.28745	-2.94005
H	1.34995	9.57804	-3.94812
H	2.94539	8.76986	-3.71665
H	2.41776	10.0514	-2.57412
H	9.67044	-7.89222	-2.03253
