108
  This energy is -3.6235 and Call times are: 584
C	0.0330548	5.59749	-5.8468
C	-0.777017	4.34686	-5.55797
C	0.0974969	3.09933	-5.35863
C	-0.74537	1.84833	-5.06799
C	0.129383	0.634188	-4.87524
C	0.642591	0.209562	-3.70907
C	0.443679	0.864634	-2.36565
C	-0.772467	0.306845	-1.67152
C	-0.793695	-0.750583	-0.843518
C	0.392616	-1.59081	-0.44258
C	1.04483	-1.03164	0.796537
C	0.750693	-1.34645	2.06877
C	-0.295844	-2.32757	2.5328
C	0.291466	-3.71025	2.66093
C	0.862025	-4.22411	3.76289
C	1.02628	-3.51854	5.08605
C	-0.186467	-3.76111	5.99659
C	-0.0375314	-3.04957	7.35069
C	-1.24997	-3.29093	8.26348
C	-1.0964	-2.57864	9.61372
O	-0.766284	6.66935	-6.01554
O	1.23647	5.67402	-5.92537
H	-1.38495	4.51368	-4.63792
H	-1.47825	4.16574	-6.40611
H	0.710099	2.92725	-6.27545
H	0.803158	3.27427	-4.51193
H	-1.36442	2.01488	-4.15644
H	-1.4568	1.6704	-5.90709
H	0.358126	0.0540744	-5.78614
H	1.26872	-0.699898	-3.71899
H	1.34511	0.707489	-1.73201
H	0.333163	1.96457	-2.49482
H	-1.72649	0.825371	-1.87155
H	-1.76455	-1.0445	-0.40727
H	1.12953	-1.63004	-1.27535
H	0.0712975	-2.64073	-0.262258
H	1.84357	-0.289019	0.623306
H	1.32434	-0.844694	2.86792
H	-1.14773	-2.34143	1.81681
H	-0.715917	-2.00108	3.51029
H	0.240901	-4.34635	1.7599
H	1.25221	-5.25574	3.71479
H	1.15956	-2.42528	4.91738
H	1.95446	-3.87269	5.59053
H	-0.30897	-4.85708	6.16582
H	-1.1103	-3.39797	5.48724
H	0.0851677	-1.9537	7.18099
H	0.886512	-3.41284	7.85959
H	-1.37343	-4.38706	8.43422
H	-2.17501	-2.9275	7.75542
H	-1.98192	-2.76182	10.2655
H	-0.990961	-1.47764	9.47747
H	-0.190303	-2.93552	10.1555
H	-0.192651	7.43262	-6.196
C	7.21189	-3.44364	-6.84379
C	7.12673	-3.86824	-5.38908
C	7.81782	-2.8814	-4.43548
C	7.71763	-3.33342	-2.97071
C	8.40113	-2.35317	-2.04961
C	7.82629	-1.29091	-1.46239
C	6.38539	-0.872086	-1.61015
C	5.5268	-1.52223	-0.555592
C	5.25376	-1.02062	0.660146
C	5.75031	0.291364	1.21351
C	4.78821	1.40466	0.884261
C	3.74597	1.80966	1.6285
C	3.31277	1.2381	2.95471
C	3.99515	1.95615	4.09134
C	3.53188	3.04591	4.72516
C	2.23958	3.76324	4.42355
C	1.08151	3.18882	5.25276
C	-0.244897	3.90748	4.95909
C	-1.40516	3.3343	5.78777
C	-2.72675	4.05499	5.49098
O	6.59599	-4.33173	-7.64894
O	7.74927	-2.45046	-7.27397
H	6.05321	-3.95899	-5.10061
H	7.59974	-4.87199	-5.27657
H	8.89272	-2.78447	-4.7195
H	7.35028	-1.87389	-4.544
H	6.64653	-3.43792	-2.68138
H	8.17771	-4.34186	-2.8556
H	9.47064	-2.54153	-1.8515
H	8.45257	-0.65768	-0.809663
H	6.30444	0.235263	-1.53273
H	6.01397	-1.14845	-2.6223
H	5.08877	-2.50036	-0.820975
H	4.60563	-1.61374	1.32902
H	6.75621	0.52288	0.797981
H	5.87971	0.214359	2.31597
H	4.97298	1.93052	-0.0690581
H	3.13412	2.64484	1.24434
H	3.54895	0.151312	2.99546
H	2.20811	1.32092	3.06155
H	4.96177	1.53724	4.42177
H	4.13871	3.4695	5.54439
H	2.00504	3.67884	3.33759
H	2.35288	4.85121	4.63551
H	1.32114	3.28308	6.33834
H	0.970496	2.10125	5.02993
H	-0.484029	3.81316	3.87341
H	-0.133377	4.99502	5.18184
H	-1.16709	3.4285	6.87421
H	-1.51784	2.2463	5.56539
H	-3.55928	3.6298	6.09816
H	-3.00252	3.96166	4.41528
H	-2.65217	5.1425	5.72259
H	6.68451	-4.00617	-8.56019
