108
  This energy is -3.103 and Call times are: 727
C	5.09111	6.11957	-1.46613
C	4.32873	5.62035	-0.252348
C	2.81894	5.48893	-0.505514
C	2.07083	4.98246	0.736957
C	0.590919	4.85971	0.469994
C	-0.0374454	3.76996	-0.00037562
C	0.615077	2.4572	-0.352973
C	0.647078	1.53642	0.839964
C	-0.303399	0.649989	1.17912
C	-1.59123	0.398162	0.436058
C	-1.40256	-0.676917	-0.604169
C	-1.57419	-1.99792	-0.43187
C	-1.99282	-2.69141	0.839735
C	-3.4942	-2.80912	0.911475
C	-4.22694	-3.83192	0.441479
C	-3.69094	-5.06124	-0.249215
C	-3.38202	-6.1741	0.763104
C	-2.83436	-7.43602	0.0777619
C	-2.52451	-8.55096	1.08887
C	-1.97819	-9.80826	0.399813
O	6.40967	6.22203	-1.20688
O	4.62393	6.40149	-2.54432
H	4.73394	4.62487	0.0455159
H	4.4937	6.32692	0.594664
H	2.40689	6.48167	-0.805731
H	2.6465	4.78411	-1.35343
H	2.48091	3.99349	1.04622
H	2.24305	5.67865	1.58992
H	-0.0150473	5.75664	0.686587
H	-1.13043	3.82502	-0.147402
H	0.0616864	1.97313	-1.18856
H	1.65074	2.63684	-0.718897
H	1.54007	1.60836	1.48528
H	-0.140449	0.0406749	2.08545
H	-1.94128	1.33739	-0.0470783
H	-2.3903	0.0997556	1.15058
H	-1.09161	-0.32607	-1.60401
H	-1.39451	-2.6568	-1.29967
H	-1.61318	-2.1291	1.72191
H	-1.52953	-3.70196	0.891664
H	-4.0258	-1.97186	1.39668
H	-5.32331	-3.78632	0.562695
H	-2.76938	-4.80271	-0.819582
H	-4.4304	-5.42647	-0.998392
H	-4.31081	-6.43157	1.32509
H	-2.63637	-5.80278	1.50535
H	-1.90572	-7.17806	-0.484274
H	-3.58019	-7.80686	-0.664531
H	-3.45306	-8.81008	1.65151
H	-1.7781	-8.18109	1.83182
H	-1.75783	-10.6084	1.14397
H	-1.03782	-9.58575	-0.155243
H	-2.71085	-10.214	-0.335346
H	6.83967	6.54397	-2.01661
C	6.97052	3.59979	7.23759
C	6.23895	3.87843	5.93725
C	7.17948	3.95142	4.72444
C	6.41538	4.23411	3.42208
C	7.3542	4.30227	2.24291
C	7.72161	3.26937	1.46716
C	7.26654	1.84054	1.62472
C	6.01351	1.58541	0.826727
C	5.96086	1.16497	-0.447888
C	7.14247	0.864186	-1.33524
C	7.54963	-0.581772	-1.20528
C	7.09644	-1.6112	-1.93951
C	6.08208	-1.54308	-3.05289
C	6.76232	-1.31066	-4.37819
C	7.20366	-2.26451	-5.21443
C	7.10485	-3.75306	-4.99079
C	5.79504	-4.31294	-5.56493
C	5.67597	-5.82959	-5.34659
C	4.36603	-6.39201	-5.92033
C	4.25204	-7.9061	-5.69983
O	6.11481	3.54292	8.27722
O	8.16069	3.44219	7.37498
H	5.48746	3.07258	5.76471
H	5.69167	4.8458	6.02979
H	7.93554	4.75519	4.89109
H	7.73188	2.98666	4.62671
H	5.65424	3.43815	3.25179
H	5.85642	5.19377	3.51424
H	7.76711	5.29947	2.01119
H	8.41936	3.46882	0.634922
H	8.07282	1.1489	1.29258
H	7.08076	1.62003	2.69972
H	5.05865	1.76489	1.3512
H	4.96501	1.0214	-0.902785
H	7.99669	1.52518	-1.06786
H	6.89093	1.09459	-2.39436
H	8.29717	-0.799915	-0.422293
H	7.49734	-2.61602	-1.71795
H	5.35194	-0.72747	-2.85234
H	5.49297	-2.4866	-3.08845
H	6.90359	-0.256615	-4.67495
H	7.68549	-1.94932	-6.1564
H	7.16566	-3.97634	-3.90089
H	7.97413	-4.26483	-5.46395
H	5.74499	-4.09115	-6.65722
H	4.92999	-3.80032	-5.08152
H	5.7263	-6.05095	-4.25423
H	6.54132	-6.34178	-5.82994
H	4.31483	-6.17139	-7.01331
H	3.49957	-5.88047	-5.43713
H	3.29814	-8.30081	-6.12037
H	4.2799	-8.15728	-4.61446
H	5.09421	-8.44786	-6.18883
H	6.63995	3.36321	9.0748
