108
  This energy is -1.5246 and Call times are: 399
C	7.36486	2.87314	-1.73838
C	5.9441	3.2565	-2.11015
C	5.15071	2.09273	-2.72415
C	3.71746	2.50611	-3.09133
C	2.95406	1.35176	-3.69231
C	2.217	0.456364	-3.01507
C	2.00964	0.431478	-1.5218
C	0.80265	1.24681	-1.13404
C	-0.457531	0.793081	-1.03273
C	-0.917407	-0.620568	-1.28606
C	-0.856547	-1.43402	-0.017976
C	-1.83648	-1.57891	0.889177
C	-3.20979	-0.959016	0.835279
C	-4.17508	-1.86722	0.116578
C	-4.93202	-2.81971	0.685554
C	-4.96385	-3.16615	2.15339
C	-6.0245	-2.33857	2.8942
C	-6.07209	-2.6777	4.39246
C	-7.13278	-1.85072	5.13577
C	-7.17627	-2.19295	6.63078
O	8.02875	3.91712	-1.20391
O	7.8796	1.78938	-1.88237
H	5.41433	3.61337	-1.19589
H	5.97567	4.09854	-2.84082
H	5.67629	1.72938	-3.63913
H	5.11644	1.2455	-1.99855
H	3.18783	2.87561	-2.18311
H	3.7436	3.35596	-3.81172
H	3.01842	1.24904	-4.78953
H	1.71119	-0.339263	-3.58986
H	1.88258	-0.618753	-1.17591
H	2.91395	0.828475	-1.00858
H	0.986584	2.31345	-0.916133
H	-1.24205	1.51157	-0.736841
H	-0.284253	-1.09149	-2.07057
H	-1.95584	-0.616667	-1.68575
H	0.0974769	-1.95771	0.169306
H	-1.63174	-2.21314	1.7697
H	-3.16167	0.0270936	0.321648
H	-3.57555	-0.755489	1.86646
H	-4.25661	-1.72513	-0.9753
H	-5.59796	-3.41352	0.0353738
H	-3.96136	-2.98752	2.60567
H	-5.17542	-4.25264	2.28075
H	-7.0257	-2.52803	2.43979
H	-5.80184	-1.25269	2.76734
H	-5.07066	-2.48831	4.8464
H	-6.29454	-3.76366	4.51885
H	-8.13518	-2.03975	4.68261
H	-6.91094	-0.764015	5.01026
H	-7.94915	-1.58656	7.15756
H	-6.19317	-1.99533	7.11695
H	-7.41601	-3.2696	6.78969
H	8.92523	3.61034	-0.988468
C	3.76362	0.944294	4.88267
C	5.14888	0.34083	5.02619
C	5.45	-0.727495	3.96372
C	6.85659	-1.32212	4.1306
C	7.13446	-2.3684	3.07962
C	7.68191	-2.14789	1.87325
C	8.12512	-0.810861	1.33532
C	9.56549	-0.541236	1.68827
C	10.6358	-0.876381	0.949116
C	10.6117	-1.58844	-0.379964
C	10.5334	-0.59622	-1.51259
C	11.5682	-0.0298726	-2.15501
C	13.0324	-0.264178	-1.88211
C	13.552	-1.40792	-2.71574
C	14.083	-1.30807	-3.9454
C	14.2627	-0.0331393	-4.73142
C	15.6293	0.605899	-4.44409
C	15.8311	1.9072	-5.23652
C	17.1981	2.54841	-4.95055
C	17.3946	3.8469	-5.74387
O	3.53571	1.87548	5.8299
O	2.93774	0.661416	4.04712
H	5.90805	1.15405	4.94729
H	5.24046	-0.118994	6.03815
H	4.69275	-1.54408	4.03591
H	5.35857	-0.274402	2.94794
H	7.61828	-0.511292	4.06527
H	6.95732	-1.7717	5.1453
H	6.85622	-3.40364	3.34317
H	7.82682	-3.01397	1.20381
H	7.99668	-0.787436	0.229999
H	7.47817	-0.0047531	1.74813
H	9.74164	-0.0195888	2.64529
H	11.6346	-0.612037	1.33856
H	9.74411	-2.28379	-0.42306
H	11.5215	-2.21958	-0.489648
H	9.51471	-0.317216	-1.83482
H	11.3407	0.681871	-2.96811
H	13.1876	-0.480348	-0.801507
H	13.6124	0.659995	-2.10127
H	13.4836	-2.41203	-2.26174
H	14.4247	-2.23297	-4.44201
H	13.449	0.684764	-4.47824
H	14.1657	-0.244175	-5.82116
H	16.4382	-0.11643	-4.70631
H	15.7157	0.820014	-3.35254
H	15.022	2.62913	-4.97418
H	15.7445	1.69267	-6.32797
H	18.0084	1.82706	-5.21302
H	17.2857	2.76379	-3.85883
H	18.3892	4.30124	-5.52734
H	16.6106	4.59648	-5.48824
H	17.3325	3.66083	-6.84087
H	2.63937	2.22182	5.68554
