108
  This energy is -2.9579 and Call times are: 2683
C	2.90893	-1.49478	-7.40418
C	2.25169	-2.32589	-6.31744
C	2.96719	-2.21393	-4.96232
C	2.28323	-3.0635	-3.8805
C	2.99885	-2.94131	-2.55783
C	2.74082	-2.0328	-1.60301
C	1.68512	-0.958225	-1.6682
C	0.377918	-1.45549	-1.10614
C	-0.0145835	-1.36888	0.175507
C	0.772077	-0.757907	1.30774
C	0.45793	0.710802	1.44065
C	-0.510157	1.25847	2.19369
C	-1.49238	0.522363	3.06922
C	-0.941671	0.356517	4.46291
C	-1.10471	1.21692	5.48127
C	-1.86998	2.51584	5.4291
C	-3.34516	2.30404	5.8001
C	-4.14204	3.61735	5.75259
C	-5.6185	3.40778	6.1235
C	-6.40948	4.72156	6.07458
O	2.2551	-1.6178	-8.57621
O	3.8894	-0.798609	-7.28479
H	1.19398	-1.99326	-6.19701
H	2.2426	-3.39503	-6.63486
H	4.02723	-2.5439	-5.07586
H	2.98138	-1.14583	-4.63917
H	1.22203	-2.74334	-3.76539
H	2.26025	-4.1312	-4.19889
H	3.80477	-3.67324	-2.3752
H	3.34824	-2.06285	-0.68139
H	2.0232	-0.0621741	-1.10114
H	1.54283	-0.632495	-2.72292
H	-0.310167	-1.93253	-1.82587
H	-1.00471	-1.77962	0.440449
H	1.86187	-0.899295	1.13319
H	0.539035	-1.28421	2.25999
H	1.09792	1.39218	0.85276
H	-0.610278	2.35815	2.18153
H	-1.7205	-0.474296	2.6297
H	-2.45765	1.07507	3.10535
H	-0.35353	-0.559287	4.64846
H	-0.643703	0.967511	6.45291
H	-1.79653	2.95702	4.4086
H	-1.40802	3.25478	6.12336
H	-3.41019	1.86847	6.82521
H	-3.80184	1.5683	5.09659
H	-4.07655	4.05267	4.72741
H	-3.6849	4.35284	6.45606
H	-5.68517	2.97259	7.14921
H	-6.07694	2.67232	5.42005
H	-7.47793	4.55545	6.34549
H	-6.37855	5.17145	5.05549
H	-5.98723	5.47137	6.78266
H	2.72079	-1.06625	-9.22669
C	2.90088	3.09132	-7.01473
C	3.71528	1.87635	-6.60939
C	4.93539	2.23361	-5.74652
C	5.74215	0.987909	-5.34993
C	6.93533	1.35766	-4.50372
C	6.95452	1.44542	-3.16372
C	5.78632	1.19118	-2.24496
C	5.73223	-0.258065	-1.8342
C	6.33165	-0.797329	-0.759919
C	7.17767	-0.0627511	0.249395
C	6.32483	0.458126	1.37848
C	6.02527	-0.184727	2.51917
C	6.4774	-1.56688	2.91714
C	7.78277	-1.50322	3.66888
C	7.91979	-1.3781	4.9991
C	6.79521	-1.27695	5.99943
C	6.37464	-2.66619	6.50126
C	5.22887	-2.58377	7.52228
C	4.80638	-3.9728	8.02581
C	3.66254	-3.88504	9.04463
O	1.84096	2.73963	-7.76916
O	3.13063	4.24178	-6.72509
H	3.06114	1.17577	-6.03914
H	4.06375	1.3507	-7.52926
H	5.59393	2.93609	-6.3107
H	4.59398	2.76163	-4.82452
H	5.08922	0.2788	-4.79071
H	6.08188	0.451989	-6.26605
H	7.86884	1.57226	-5.05244
H	7.90418	1.72822	-2.67648
H	5.86902	1.83652	-1.34193
H	4.83771	1.47499	-2.75327
H	5.14194	-0.925912	-2.48579
H	6.20174	-1.88001	-0.586186
H	7.7118	0.77977	-0.243512
H	7.96577	-0.73901	0.648975
H	5.91215	1.47271	1.23776
H	5.38378	0.338168	3.25031
H	6.59071	-2.20484	2.01231
H	5.69984	-2.0545	3.54656
H	8.70027	-1.56632	3.05793
H	8.94118	-1.34443	5.41676
H	5.92236	-0.762319	5.53604
H	7.11088	-0.643807	6.8602
H	7.25203	-3.1719	6.96947
H	6.05391	-3.29137	5.63461
H	4.35179	-2.07781	7.05374
H	5.54993	-1.95834	8.38862
H	5.68311	-4.47976	8.49511
H	4.48461	-4.59926	7.15983
H	3.3661	-4.89864	9.40141
H	2.76358	-3.40039	8.59867
H	3.96069	-3.28103	9.93241
H	1.36312	3.55504	-7.99495
