108
  This energy is -6.3304 and Call times are: 4028
C	3.43737	-6.24402	-3.83599
C	2.29354	-5.29285	-4.13707
C	1.2339	-5.25905	-3.02493
C	0.0881586	-4.28989	-3.35343
C	-0.941979	-4.26985	-2.25121
C	-0.939363	-3.45373	-1.18463
C	0.0944735	-2.39869	-0.882101
C	-0.291596	-1.07745	-1.4963
C	-1.02986	-0.120105	-0.910939
C	-1.61984	-0.174449	0.475797
C	-0.654449	0.391887	1.48612
C	-0.566816	1.67287	1.88055
C	-1.41542	2.82182	1.39789
C	-2.64424	2.97316	2.25826
C	-2.74271	3.72911	3.36404
C	-1.6439	4.57339	3.96018
C	-1.66279	5.99552	3.38064
C	-0.549487	6.8717	3.97641
C	-0.566485	8.29525	3.39791
C	0.546594	9.16571	3.99575
O	4.34548	-6.24697	-4.83179
O	3.56316	-6.9297	-2.84895
H	2.7043	-4.26545	-4.27719
H	1.80686	-5.60246	-5.09162
H	0.819501	-6.28481	-2.87818
H	1.71456	-4.95134	-2.0659
H	0.495237	-3.26393	-3.50698
H	-0.393291	-4.58767	-4.31334
H	-1.76544	-4.99887	-2.3463
H	-1.76196	-3.55235	-0.454649
H	0.206031	-2.28455	0.219396
H	1.08659	-2.72005	-1.27095
H	0.0731145	-0.893584	-2.52207
H	-1.23237	0.799661	-1.48737
H	-1.87376	-1.22508	0.740002
H	-2.5765	0.393068	0.504439
H	0.0448995	-0.333198	1.93849
H	0.19925	1.92707	2.63421
H	-1.71169	2.65637	0.337982
H	-0.82314	3.76392	1.41223
H	-3.53571	2.4057	1.9384
H	-3.70837	3.74666	3.89884
H	-0.654787	4.09896	3.76523
H	-1.75801	4.6151	5.06774
H	-2.65358	6.4657	3.58572
H	-1.54144	5.94539	2.27269
H	0.441077	6.40106	3.77131
H	-0.671081	6.92138	5.08435
H	-1.55702	8.76719	3.60288
H	-0.444533	8.24671	2.28945
H	0.522925	10.1948	3.56792
H	1.55152	8.73023	3.78994
H	0.44032	9.2501	5.10186
H	5.0474	-6.87057	-4.58152
C	4.41622	3.41984	-7.32458
C	3.3059	2.83527	-6.47066
C	3.59307	1.39527	-6.01813
C	2.45544	0.827103	-5.15622
C	2.75453	-0.586394	-4.72142
C	3.39945	-0.946252	-3.59972
C	3.94986	-0.00645285	-2.55698
C	2.91879	0.280696	-1.49567
C	2.73565	-0.417708	-0.363025
C	3.52322	-1.62725	0.0737946
C	4.71951	-1.21429	0.893438
C	4.76199	-1.05704	2.22672
C	3.62187	-1.25964	3.19226
C	3.58604	-2.68556	3.68074
C	4.22104	-3.16281	4.76375
C	5.09315	-2.36578	5.70171
C	4.26802	-1.76878	6.85124
C	5.13991	-0.952417	7.81841
C	4.3163	-0.354055	8.96953
C	5.19114	0.45979	9.93201
O	4.12972	4.68149	-7.702
O	5.44061	2.868	-7.65066
H	3.16628	3.47705	-5.56926
H	2.3553	2.84879	-7.05381
H	3.73553	0.747441	-6.91562
H	4.54436	1.37404	-5.43499
H	2.30347	1.47236	-4.26044
H	1.50054	0.850342	-5.73026
H	2.4042	-1.38453	-5.3988
H	3.5476	-2.02393	-3.41019
H	4.85789	-0.450143	-2.09073
H	4.27124	0.944413	-3.03796
H	2.26066	1.14787	-1.67981
H	1.9364	-0.0868485	0.323263
H	3.85411	-2.20721	-0.816289
H	2.87411	-2.31005	0.665856
H	5.64718	-1.02572	0.324794
H	5.72178	-0.748354	2.67728
H	2.65726	-1.00205	2.70061
H	3.72679	-0.564856	4.05528
H	2.97926	-3.38953	3.08467
H	4.10595	-4.23388	5.00535
H	5.60499	-1.55044	5.14075
H	5.89893	-3.01619	6.11297
H	3.76435	-2.59163	7.41161
H	3.46804	-1.11404	6.43154
H	5.64355	-0.129841	7.2576
H	5.93986	-1.60746	8.23769
H	3.81226	-1.17625	9.53152
H	3.51586	0.301799	8.55114
H	4.5818	0.887796	10.7615
H	5.69342	1.3025	9.40338
H	5.98948	-0.173846	10.3826
H	4.87304	4.99791	-8.24197
