44
  This energy is -3.4281 and Call times are: 42401
C	-0.27369	-0.423965	3.44355
C	0.514669	-0.133408	2.22486
O	1.65744	0.296887	2.29785
H	0.331853	-0.172564	4.34132
H	-0.539532	-1.50136	3.47955
H	-1.20154	0.186031	3.45358
N	-0.0905297	-0.36438	1.05748
C	0.532921	-0.0897181	-0.213119
C	-0.559535	0.22323	-1.21818
O	-1.74385	0.0550635	-0.933878
H	-1.03548	-0.675919	1.01412
H	1.15183	0.794356	-0.123666
C	1.37507	-1.29473	-0.68637
H	0.738549	-2.19942	-0.78844
H	1.87148	-1.09042	-1.65712
H	2.16294	-1.51072	0.0679209
N	-0.184084	0.697197	-2.42252
C	-1.15388	1.02798	-3.44049
H	0.778832	0.830437	-2.63255
H	-0.648707	1.40147	-4.35838
H	-1.85031	1.81824	-3.07752
H	-1.75896	0.132988	-3.71254
C	3.52095	2.503	0.433397
C	4.87743	1.94549	0.634117
O	5.78553	2.63426	1.07839
H	3.5176	3.57544	0.726195
H	2.78594	1.95677	1.0612
H	3.22774	2.42114	-0.634496
N	5.04709	0.66335	0.302891
C	6.31974	-0.00684991	0.40155
C	6.3575	-1.1064	-0.643029
O	5.3486	-1.40615	-1.27863
H	4.30872	0.127034	-0.0959093
H	7.11122	0.69247	0.162516
C	6.52536	-0.595155	1.81465
H	5.71946	-1.32056	2.05624
H	7.50778	-1.10187	1.90747
H	6.48603	0.225983	2.56333
N	7.53334	-1.73095	-0.851227
C	7.66623	-2.78583	-1.82884
H	8.33966	-1.47162	-0.330009
H	8.70911	-3.17201	-1.85139
H	7.40852	-2.41291	-2.84658
H	6.98361	-3.63281	-1.58842
