44
  This energy is -0.9812 and Call times are: 49201
C	2.30852	-2.60227	0.107741
C	0.958673	-2.04664	0.35338
O	0.0217691	-2.77144	0.658816
H	2.27894	-3.7068	0.230313
H	3.03436	-2.17944	0.833759
H	2.63818	-2.36408	-0.925545
N	0.82791	-0.724651	0.220647
C	-0.432386	-0.0441687	0.385442
C	-0.412034	1.20429	-0.476242
O	0.623376	1.57179	-1.02813
H	1.59042	-0.152941	-0.0684765
H	-1.23069	-0.676818	0.0178826
C	-0.671181	0.323798	1.86626
H	0.142008	0.981427	2.2408
H	-1.64483	0.836009	2.00827
H	-0.674219	-0.603992	2.47908
N	-1.56656	1.88457	-0.618743
C	-1.64444	3.0811	-1.424
H	-2.39494	1.56929	-0.16767
H	-2.67735	3.49371	-1.41638
H	-1.36181	2.86332	-2.47944
H	-0.951738	3.86226	-1.03527
C	9.39666	2.67334	1.99317
C	9.29124	1.99306	0.68272
O	9.55431	2.57968	-0.357991
H	9.7146	3.72686	1.83555
H	10.1489	2.16239	2.63017
H	8.41244	2.66809	2.50732
N	8.89467	0.718468	0.705933
C	8.70388	-0.0619049	-0.491219
C	7.64328	-1.10932	-0.209037
O	7.22574	-1.29102	0.933044
H	8.64475	0.266891	1.55768
H	8.32408	0.577932	-1.27797
C	10.0244	-0.732676	-0.928816
H	10.409	-1.39736	-0.126105
H	9.89373	-1.32529	-1.85739
H	10.7881	0.0519858	-1.1222
N	7.17433	-1.82128	-1.25268
C	6.16046	-2.83559	-1.08119
H	7.52155	-1.65704	-2.17004
H	5.9078	-3.30788	-2.05604
H	5.23097	-2.39367	-0.65452
H	6.51442	-3.63174	-0.386926
