44
  This energy is -2.7604 and Call times are: 43779
C	0.0858718	2.59429	-2.31839
C	0.684081	1.81686	-1.20984
O	1.85227	1.97582	-0.883522
H	0.856836	3.26699	-2.7531
H	-0.75772	3.21035	-1.94215
H	-0.281765	1.90935	-3.11135
N	-0.117807	0.942106	-0.598161
C	0.332612	0.0835719	0.468891
C	-0.504332	-1.18151	0.443365
O	-1.49219	-1.26854	-0.283466
H	-1.05475	0.794698	-0.901927
H	1.35991	-0.205534	0.285298
C	0.204896	0.78981	1.83643
H	-0.850558	1.07721	2.02996
H	0.561576	0.144034	2.66485
H	0.818993	1.71673	1.82956
N	-0.120424	-2.20132	1.23622
C	-0.852152	-3.44603	1.27429
H	0.684081	-2.11352	1.81427
H	-0.379606	-4.1584	1.98595
H	-0.873579	-3.92005	0.266259
H	-1.90438	-3.27368	1.59717
C	4.64075	2.40904	-2.50677
C	4.66328	1.00035	-2.05263
O	4.40264	0.0837542	-2.81965
H	4.34699	2.44482	-3.57835
H	5.64762	2.86338	-2.39479
H	3.90475	2.99087	-1.91277
N	4.97883	0.794722	-0.771798
C	5.00025	-0.516912	-0.173709
C	4.68666	-0.36848	1.30318
O	4.62985	0.742717	1.82636
H	5.14849	1.5536	-0.149567
H	4.21558	-1.12172	-0.610881
C	6.37615	-1.19039	-0.370088
H	7.18028	-0.575505	0.0874486
H	6.40092	-2.2066	0.0740232
H	6.58827	-1.28147	-1.45777
N	4.46611	-1.49337	2.0117
C	4.15544	-1.44997	3.42158
H	4.51244	-2.38315	1.56986
H	4.00813	-2.47657	3.8236
H	3.22343	-0.866394	3.60064
H	4.98107	-0.965248	3.99126
