44
  This energy is 0.1065 and Call times are: 47753
C	1.94514	2.85088	0.448996
C	1.1774	1.91856	-0.406862
O	0.904624	2.20159	-1.56527
H	2.17601	3.77303	-0.127394
H	2.8979	2.37954	0.769678
H	1.34956	3.12665	1.34472
N	0.804159	0.766953	0.156049
C	0.0158138	-0.221488	-0.536812
C	-0.795646	-0.985595	0.492376
O	-0.592808	-0.83131	1.69519
H	0.998371	0.568477	1.11248
H	-0.685043	0.277437	-1.19446
C	0.918812	-1.18468	-1.33812
H	1.63095	-1.70462	-0.662434
H	0.322717	-1.94208	-1.88725
H	1.50902	-0.603021	-2.07953
N	-1.74595	-1.82719	0.0399758
C	-2.57116	-2.59242	0.945313
H	-1.89804	-1.93552	-0.936858
H	-3.29204	-3.22451	0.381373
H	-3.14849	-1.91655	1.617
H	-1.94394	-3.25799	1.58151
C	10.1372	0.156408	0.975393
C	9.08648	0.0332003	-0.0599654
O	9.35717	0.118744	-1.24985
H	11.1168	0.343202	0.484128
H	10.2044	-0.781381	1.56598
H	9.90799	1.00485	1.65413
N	7.84229	-0.171797	0.378616
C	6.70844	-0.269355	-0.506497
C	5.47914	0.204689	0.245605
O	5.52744	0.429012	1.45352
H	7.63147	-0.198259	1.35161
H	6.85149	0.400266	-1.34541
C	6.51598	-1.72057	-0.998617
H	6.35868	-2.40634	-0.138959
H	5.65427	-1.80618	-1.69191
H	7.43048	-2.04916	-1.53903
N	4.34315	0.377073	-0.458551
C	3.12495	0.830568	0.171138
H	4.32477	0.19431	-1.43596
H	2.30302	0.909931	-0.574082
H	3.27296	1.83147	0.637578
H	2.80748	0.121239	0.96939
