44
  This energy is -1.3495 and Call times are: 45391
C	2.13173	0.263207	2.73846
C	0.942626	-0.302364	2.06221
O	0.341532	-1.25814	2.53295
H	2.3445	-0.323152	3.65867
H	1.94446	1.32042	3.02126
H	3.01467	0.211218	2.06704
N	0.573088	0.285068	0.921708
C	-0.537459	-0.17934	0.128253
C	-0.265566	0.178009	-1.32086
O	0.678515	0.905116	-1.62375
H	1.09674	1.03622	0.530018
H	-0.593256	-1.25906	0.189223
C	-1.86074	0.459073	0.604276
H	-1.80781	1.56633	0.531979
H	-2.72537	0.0987854	0.0100321
H	-2.03534	0.190972	1.66916
N	-1.08809	-0.335838	-2.25651
C	-0.90376	-0.0553007	-3.66132
H	-1.84411	-0.925494	-1.99229
H	-1.68019	-0.568892	-4.27009
H	0.0974407	-0.404299	-4.00348
H	-0.972797	1.03947	-3.85588
C	5.94155	-3.41105	0.682439
C	5.59102	-2.00749	0.995994
O	4.75547	-1.73895	1.84814
H	5.32848	-4.09211	1.31185
H	7.01565	-3.59408	0.89584
H	5.7353	-3.62721	-0.387053
N	6.23215	-1.06595	0.299697
C	5.96736	0.341885	0.46234
C	6.26957	1.03504	-0.852869
O	6.82039	0.430857	-1.77117
H	6.87984	-1.30116	-0.419352
H	4.91402	0.485801	0.668224
C	6.82753	0.937391	1.59844
H	7.90847	0.799368	1.38263
H	6.62267	2.018	1.74276
H	6.59563	0.409916	2.5494
N	5.90564	2.3266	-0.977055
C	6.14756	3.06647	-2.19371
H	5.45731	2.7973	-0.224381
H	5.77634	4.11075	-2.09935
H	5.62875	2.58657	-3.055
H	7.23729	3.10086	-2.42273
