44
  This energy is -0.6278 and Call times are: 42275
C	-2.69619	0.0223021	-2.20063
C	-2.08195	-0.310178	-0.89552
O	-2.76381	-0.688858	0.0468562
H	-3.79733	-0.115261	-2.13401
H	-2.29776	-0.646222	-2.99251
H	-2.48147	1.07884	-2.46656
N	-0.756877	-0.171054	-0.810628
C	-0.0224115	-0.415153	0.405734
C	1.21622	0.460752	0.394204
O	1.53474	1.08786	-0.614261
H	-0.220458	0.177361	-1.57399
H	-0.624151	-0.111755	1.25337
C	0.368688	-1.9045	0.524598
H	0.994821	-2.21353	-0.339403
H	0.92275	-2.1079	1.46384
H	-0.552561	-2.52711	0.523052
N	1.94325	0.530551	1.52672
C	3.13466	1.34269	1.61128
H	1.66726	0.0190734	2.33375
H	3.59049	1.26802	2.62314
H	2.89561	2.41259	1.41267
H	3.88941	1.0126	0.861259
C	7.83671	3.27841	-0.26959
C	6.89056	2.1944	-0.617257
O	5.85682	2.4282	-1.22811
H	7.43233	4.24881	-0.63104
H	8.82033	3.09705	-0.751604
H	7.96922	3.33212	0.831604
N	7.22888	0.963425	-0.226574
C	6.38949	-0.186431	-0.454205
C	6.65909	-1.19431	0.647194
O	7.58942	-1.03287	1.43467
H	8.05363	0.794849	0.305618
H	5.35055	0.108314	-0.374491
C	6.67095	-0.809466	-1.83907
H	7.73417	-1.12164	-1.91755
H	6.02107	-1.68751	-2.03196
H	6.47475	-0.0519549	-2.62902
N	5.83982	-2.26082	0.73304
C	6.01585	-3.26911	1.75212
H	5.08998	-2.372	0.0892589
H	5.24338	-4.06373	1.65673
H	5.93251	-2.81949	2.76808
H	7.02001	-3.74387	1.66603
