44
  This energy is 0.5334 and Call times are: 42076
C	1.46023	1.46046	-2.80133
C	0.308834	1.23936	-1.89771
O	-0.700594	1.92554	-1.97911
H	1.23465	2.30942	-3.4827
H	1.64898	0.551376	-3.41017
H	2.36849	1.70495	-2.21109
N	0.438872	0.260283	-0.999441
C	-0.578604	-0.045525	-0.0248733
C	0.0995438	-0.632846	1.19853
O	1.2931	-0.927213	1.17658
H	1.28259	-0.262627	-0.918421
H	-1.06408	0.871651	0.284539
C	-1.6126	-1.03829	-0.599775
H	-1.11661	-1.98342	-0.907614
H	-2.40904	-1.271	0.136467
H	-2.09048	-0.590991	-1.49861
N	-0.649976	-0.809884	2.30438
C	-0.0894887	-1.3574	3.51775
H	-1.61307	-0.561847	2.30409
H	-0.863892	-1.42433	4.31339
H	0.741692	-0.716083	3.89075
H	0.316971	-2.3788	3.33698
C	9.32526	-2.5667	2.21914
C	9.04073	-1.25697	1.59081
O	7.96397	-0.698857	1.75052
H	8.43215	-2.90198	2.78993
H	10.1849	-2.47805	2.91625
H	9.55814	-3.32253	1.43968
N	10.017	-0.730729	0.847572
C	9.87295	0.516408	0.138728
C	10.7716	0.472689	-1.08278
O	11.5801	-0.440572	-1.23743
H	10.8728	-1.21622	0.693595
H	8.85353	0.611141	-0.214022
C	10.2463	1.71134	1.04315
H	11.2954	1.62004	1.39677
H	10.1262	2.67836	0.513067
H	9.58144	1.7189	1.93433
N	10.6438	1.46201	-1.98882
C	11.4525	1.50073	-3.18491
H	9.98105	2.1901	-1.8482
H	11.1988	2.39036	-3.80252
H	11.2864	0.58746	-3.80106
H	12.5349	1.55045	-2.92607
