44
  This energy is -2.5545 and Call times are: 47885
C	2.1311	2.55926	-1.01058
C	1.8001	1.12522	-0.852174
O	2.47284	0.25706	-1.39081
H	3.01883	2.66042	-1.67208
H	2.36567	3.00924	-0.0230309
H	1.27721	3.10064	-1.46978
N	0.735726	0.841654	-0.0978018
C	0.264732	-0.50446	0.113626
C	-1.23124	-0.448954	0.359697
O	-1.80395	0.627468	0.517908
H	0.173911	1.56108	0.300521
H	0.422105	-1.08369	-0.787686
C	0.986567	-1.15976	1.31145
H	0.816723	-0.571678	2.23846
H	0.642545	-2.20145	1.47589
H	2.0804	-1.1825	1.11303
N	-1.90378	-1.61636	0.389308
C	-3.33019	-1.66152	0.611784
H	-1.42358	-2.47686	0.255102
H	-3.69693	-2.71157	0.600421
H	-3.86947	-1.09336	-0.180458
H	-3.58882	-1.21023	1.59697
C	9.78597	2.69673	-0.248877
C	8.54512	2.0673	0.256354
O	7.87542	2.60038	1.13029
H	9.96393	3.64831	0.297634
H	9.68925	2.91743	-1.33271
H	10.6518	2.02102	-0.0852729
N	8.20777	0.897291	-0.291061
C	7.0517	0.144039	0.126865
C	7.33042	-1.3265	-0.120939
O	8.32583	-1.68168	-0.74919
H	8.78484	0.456143	-0.972411
H	6.9094	0.270202	1.19291
C	5.79169	0.593857	-0.644683
H	5.93321	0.454768	-1.73769
H	4.89207	0.0307916	-0.321964
H	5.61154	1.67456	-0.455045
N	6.45529	-2.22153	0.378141
C	6.64116	-3.64238	0.196975
H	5.65787	-1.91503	0.887314
H	5.81679	-4.21162	0.680298
H	7.60563	-3.97279	0.646328
H	6.65833	-3.90156	-0.886386
