44
  This energy is -2.8347 and Call times are: 48534
C	0.135101	2.64457	2.25846
C	0.779846	1.57361	1.4657
O	1.99682	1.51026	1.35912
H	0.91777	3.31617	2.67352
H	-0.442701	2.20418	3.09807
H	-0.545267	3.24068	1.61438
N	-0.037142	0.694756	0.88044
C	0.44001	-0.376924	0.0423533
C	-0.641146	-0.702101	-0.971016
O	-1.76161	-0.204471	-0.878114
H	-1.02716	0.783404	0.942734
H	1.30837	-0.0392777	-0.509533
C	0.785218	-1.62435	0.884965
H	-0.107977	-1.97742	1.44316
H	1.16691	-2.45195	0.252572
H	1.57242	-1.36113	1.62481
N	-0.32495	-1.54466	-1.97408
C	-1.28742	-1.90782	-2.98796
H	0.588184	-1.93399	-2.03475
H	-0.83706	-2.60919	-3.72449
H	-1.64111	-1.00423	-3.53541
H	-2.17394	-2.40251	-2.52914
C	6.44824	-2.18586	-2.61672
C	6.70427	-0.944576	-1.85198
O	7.70773	-0.273921	-2.05125
H	7.28948	-2.36314	-3.32153
H	5.50684	-2.09021	-3.19755
H	6.36974	-3.05165	-1.92584
N	5.78672	-0.607949	-0.942489
C	5.91819	0.548448	-0.0915968
C	5.17891	0.26928	1.20343
O	4.46772	-0.726822	1.32048
H	4.99564	-1.18577	-0.763143
H	6.96224	0.691856	0.157451
C	5.34775	1.80773	-0.780108
H	4.27394	1.66508	-1.02632
H	5.45567	2.70761	-0.140507
H	5.89814	1.98822	-1.72923
N	5.33796	1.14479	2.21545
C	4.67826	0.958548	3.48678
H	5.92078	1.94277	2.10309
H	4.93489	1.78334	4.18757
H	4.98713	-0.00550338	3.95207
H	3.57198	0.940245	3.3566
