44
  This energy is -4.8111 and Call times are: 47781
C	-2.76164	2.11223	0.156597
C	-1.58622	1.55406	-0.549078
O	-1.40334	1.76601	-1.73989
H	-3.38317	2.68769	-0.563418
H	-2.43225	2.79195	0.970377
H	-3.37526	1.29227	0.585799
N	-0.750897	0.81353	0.183201
C	0.412607	0.168594	-0.372565
C	0.701087	-1.07483	0.447335
O	0.0965786	-1.2922	1.49568
H	-0.934955	0.616084	1.14185
H	0.193609	-0.154662	-1.3826
C	1.62935	1.11971	-0.360159
H	1.86095	1.44329	0.676997
H	2.52812	0.639365	-0.798337
H	1.39289	2.02596	-0.959453
N	1.63272	-1.92936	-0.0194317
C	1.96998	-3.14132	0.690199
H	2.10827	-1.73832	-0.871735
H	2.75648	-3.70955	0.146359
H	1.07491	-3.79613	0.796724
H	2.34937	-2.90646	1.71101
C	5.19557	1.30415	3.1946
C	5.68923	1.40737	1.80291
O	6.07736	2.47385	1.3464
H	5.23391	2.3068	3.67321
H	5.83209	0.604051	3.7755
H	4.14583	0.942127	3.2024
N	5.68271	0.281236	1.08585
C	6.09277	0.232645	-0.295468
C	5.33923	-0.896304	-0.973118
O	4.66505	-1.68708	-0.315948
H	5.32547	-0.570532	1.45831
H	5.80396	1.1536	-0.786443
C	7.61702	0.0122568	-0.411037
H	7.91238	-0.93768	0.0833547
H	7.94722	-0.0131609	-1.46973
H	8.14802	0.845799	0.0984511
N	5.43031	-0.992368	-2.31419
C	4.7434	-2.031	-3.04601
H	5.97741	-0.340654	-2.82901
H	4.94253	-1.94113	-4.13666
H	3.64318	-1.96378	-2.88393
H	5.08102	-3.03796	-2.70956
