44
  This energy is 0.2696 and Call times are: 49145
C	1.3999	-2.69882	1.69391
C	0.29211	-1.74909	1.44501
O	-0.814518	-1.92466	1.93588
H	1.03555	-3.52695	2.33993
H	2.2376	-2.18324	2.20886
H	1.76204	-3.12435	0.734288
N	0.570438	-0.704994	0.660926
C	-0.415745	0.280335	0.293329
C	-0.0336005	0.850056	-1.05979
O	1.05117	0.581615	-1.57256
H	1.46453	-0.597636	0.235563
H	-1.37826	-0.202685	0.179781
C	-0.494657	1.40311	1.35087
H	0.489855	1.90593	1.46014
H	-1.26034	2.16086	1.08616
H	-0.767805	0.962304	2.33445
N	-0.926543	1.64889	-1.67668
C	-0.652448	2.23228	-2.96924
H	-1.80071	1.85123	-1.24776
H	-1.5083	2.85655	-3.30841
H	-0.475584	1.43726	-3.72946
H	0.255693	2.87609	-2.9253
C	3.98624	-1.16523	1.68457
C	5.04707	-0.157305	1.46123
O	4.99803	0.942233	1.99511
H	3.21017	-0.73888	2.35672
H	4.41445	-2.07257	2.1601
H	3.51259	-1.44259	0.719272
N	6.04548	-0.516141	0.6508
C	7.12712	0.371682	0.303837
C	7.63592	-0.017556	-1.07137
O	7.24569	-1.04679	-1.61919
H	6.05048	-1.39969	0.191268
H	6.74961	1.38418	0.233435
C	8.26448	0.288958	1.34539
H	8.65924	-0.747371	1.4104
H	9.09729	0.97826	1.0968
H	7.86761	0.570162	2.34527
N	8.51909	0.807211	-1.66784
C	9.05388	0.521536	-2.97878
H	8.81986	1.63753	-1.21046
H	9.76285	1.31762	-3.29633
H	8.23533	0.46035	-3.73212
H	9.59626	-0.451582	-2.97852
