44
  This energy is -4.1102 and Call times are: 50429
C	1.69845	-1.74773	2.48463
C	1.1194	-1.64668	1.12609
O	1.35729	-2.48978	0.272279
H	2.34297	-2.65167	2.54287
H	0.889366	-1.83397	3.24006
H	2.31578	-0.85142	2.70514
N	0.334429	-0.592338	0.892487
C	-0.265934	-0.335308	-0.392838
C	-0.455885	1.16311	-0.534999
O	-0.27007	1.9149	0.419988
H	0.183141	0.107152	1.58509
H	0.414584	-0.649764	-1.17428
C	-1.61911	-1.06771	-0.526057
H	-2.3212	-0.73769	0.269046
H	-2.08487	-0.88887	-1.51682
H	-1.4572	-2.16171	-0.410811
N	-0.82515	1.63484	-1.74212
C	-1.02439	3.04659	-1.97333
H	-0.966741	1.0113	-2.50384
H	-1.32474	3.23384	-3.02782
H	-0.0874488	3.61401	-1.76976
H	-1.82169	3.4456	-1.30532
C	5.46634	2.97774	1.75285
C	5.03213	2.21812	0.558865
O	4.36349	2.74635	-0.318805
H	5.07505	4.01637	1.6897
H	6.575	3.0137	1.80124
H	5.0716	2.50043	2.67449
N	5.40785	0.938338	0.500698
C	5.02572	0.0605288	-0.577253
C	4.97331	-1.35632	-0.0374807
O	5.38917	-1.61654	1.08993
H	5.91725	0.511533	1.24246
H	4.02727	0.316321	-0.909369
C	6.02747	0.156954	-1.74876
H	7.05006	-0.115562	-1.41101
H	5.73656	-0.504048	-2.59077
H	6.0553	1.20375	-2.12262
N	4.44922	-2.3095	-0.832966
C	4.35307	-3.68478	-0.402229
H	4.11416	-2.07881	-1.74049
H	3.89424	-4.31438	-1.19616
H	3.72644	-3.76608	0.515384
H	5.36218	-4.09496	-0.168618
