44
  This energy is -3.331 and Call times are: 45155
C	3.08566	0.843638	-1.371
C	2.23432	0.0126262	-0.490218
O	2.66149	-1.01568	0.0162686
H	4.08429	0.366044	-1.47363
H	3.21474	1.85616	-0.934108
H	2.62424	0.931522	-2.37721
N	0.988345	0.447068	-0.287305
C	0.0294257	-0.275987	0.510332
C	-1.35821	0.0445628	-0.0124086
O	-1.52683	0.927857	-0.850903
H	0.64231	1.26427	-0.739306
H	0.185618	-1.33955	0.379672
C	0.148991	0.109844	2.001
H	-0.0215907	1.1991	2.13688
H	-0.574858	-0.450491	2.62757
H	1.17457	-0.12603	2.36002
N	-2.38968	-0.677159	0.468443
C	-3.74498	-0.446765	0.0254208
H	-2.23284	-1.39048	1.14346
H	-4.44893	-1.14013	0.536233
H	-3.83143	-0.606583	-1.07379
H	-4.05889	0.598726	0.248012
C	6.602	1.51085	-3.13364
C	6.62848	0.314646	-2.26212
O	6.53769	-0.811816	-2.73036
H	6.47526	1.19212	-4.19108
H	7.55428	2.07396	-3.03968
H	5.7537	2.17014	-2.8529
N	6.75343	0.537716	-0.951771
C	6.75155	-0.52306	0.0246027
C	6.20692	0.0334792	1.32661
O	6.01179	1.2397	1.46321
H	6.78506	1.46196	-0.582148
H	6.0765	-1.30541	-0.29921
C	8.17481	-1.08647	0.229863
H	8.86539	-0.286503	0.572205
H	8.18439	-1.91335	0.969261
H	8.55638	-1.4809	-0.737182
N	5.93945	-0.840505	2.31687
C	5.41355	-0.403528	3.58913
H	6.10005	-1.81322	2.18605
H	5.26036	-1.26981	4.26981
H	4.43565	0.112805	3.45349
H	6.11493	0.309021	4.08054
