44
  This energy is -3.3222 and Call times are: 47621
C	1.2292	-1.81292	-2.70464
C	0.769304	-1.71711	-1.30091
O	0.557474	-2.72071	-0.634323
H	1.31108	-2.8837	-2.99204
H	2.22489	-1.33414	-2.81467
H	0.502701	-1.31406	-3.38024
N	0.600037	-0.485339	-0.814642
C	0.116179	-0.23222	0.519664
C	-0.6085	1.10059	0.515093
O	-0.563471	1.83856	-0.467292
H	0.737214	0.321395	-1.38229
H	-0.607538	-0.991969	0.787331
C	1.2805	-0.212012	1.53415
H	2.01794	0.574307	1.26596
H	0.919293	-0.0317512	2.56737
H	1.80129	-1.19423	1.51472
N	-1.30514	1.43732	1.61842
C	-2.03071	2.68333	1.70326
H	-1.33309	0.825207	2.40175
H	-2.53874	2.77628	2.68839
H	-2.80381	2.74292	0.903239
H	-1.3404	3.54922	1.58144
C	7.77912	-2.24236	1.5284
C	6.66111	-1.2734	1.57645
O	5.96842	-1.15529	2.57778
H	7.83029	-2.79224	2.49321
H	8.74006	-1.71022	1.36662
H	7.61805	-2.97205	0.707009
N	6.45659	-0.548118	0.474396
C	5.38097	0.404413	0.354896
C	4.9949	0.500675	-1.10909
O	5.67608	-0.0419018	-1.97703
H	7.00299	-0.684627	-0.346988
H	4.51636	0.0362493	0.892963
C	5.80631	1.78747	0.894786
H	6.68683	2.17035	0.336093
H	4.98206	2.52618	0.821038
H	6.09203	1.69162	1.96507
N	3.87988	1.19175	-1.41756
C	3.43135	1.33244	-2.78328
H	3.33955	1.62033	-0.701011
H	2.49718	1.93439	-2.83038
H	3.22827	0.334356	-3.2348
H	4.20706	1.83963	-3.40148
