44
  This energy is -2.5385 and Call times are: 48683
C	-1.55057	-0.81695	-3.00683
C	-1.01367	-1.18114	-1.67632
O	-1.23668	-2.27777	-1.18228
H	-2.15219	-1.66309	-3.40429
H	-0.718244	-0.605944	-3.71071
H	-2.20116	0.079202	-2.92475
N	-0.283272	-0.251358	-1.05632
C	0.269914	-0.443191	0.261155
C	0.388726	0.914974	0.926607
O	0.195438	1.94801	0.288496
H	-0.144695	0.651435	-1.45335
H	-0.416799	-1.03408	0.85437
C	1.65038	-1.13148	0.185013
H	2.35832	-0.520531	-0.414656
H	2.08064	-1.2973	1.19393
H	1.54075	-2.11981	-0.312511
N	0.703648	0.944029	2.23657
C	0.833199	2.1901	2.9554
H	0.852278	0.0974771	2.7369
H	1.09616	2.0044	4.0201
H	-0.12232	2.76223	2.92505
H	1.62968	2.82402	2.50273
C	4.13447	-1.90543	-2.51681
C	5.17151	-1.688	-1.48316
O	5.92209	-2.59085	-1.13979
H	4.17333	-2.96229	-2.85944
H	4.31504	-1.23889	-3.38622
H	3.12701	-1.70052	-2.09715
N	5.23486	-0.463755	-0.95438
C	6.16262	-0.111979	0.091597
C	5.54676	1.00385	0.914518
O	4.51522	1.5624	0.546195
H	4.59023	0.249335	-1.21478
H	6.29782	-0.961255	0.74968
C	7.51716	0.335753	-0.50001
H	7.38047	1.21356	-1.16695
H	8.24475	0.596071	0.295839
H	7.94559	-0.493279	-1.10457
N	6.16536	1.35021	2.06055
C	5.64944	2.39707	2.91148
H	6.9968	0.883901	2.34397
H	6.29753	2.53256	3.80526
H	4.62034	2.14926	3.2591
H	5.60425	3.36457	2.36098
