44
  This energy is 0.1117 and Call times are: 46827
C	-1.3164	0.448695	-3.19037
C	-1.06351	0.913022	-1.80777
O	-1.27629	2.07234	-1.48049
H	-1.68403	1.30076	-3.80251
H	-2.08548	-0.352092	-3.19049
H	-0.378778	0.0604938	-3.64121
N	-0.59328	0.00209875	-0.952499
C	-0.258582	0.314069	0.414693
C	0.837342	-0.634969	0.861718
O	1.17088	-1.58739	0.159328
H	-0.38644	-0.927406	-1.24423
H	0.144299	1.31802	0.463679
C	-1.49585	0.181798	1.32953
H	-1.90325	-0.850825	1.28774
H	-1.25422	0.432891	2.38266
H	-2.28765	0.879355	0.979078
N	1.43211	-0.389907	2.04587
C	2.48856	-1.23575	2.55052
H	1.15132	0.388049	2.59815
H	2.84795	-0.869589	3.53743
H	3.35161	-1.2488	1.84608
H	2.12841	-2.28266	2.67469
C	0.379854	-1.81996	0.920473
C	1.50472	-0.9111	1.23638
O	1.56375	-0.326042	2.30905
H	-0.331318	-1.83489	1.77479
H	0.756814	-2.85007	0.748612
H	-0.154929	-1.4662	0.0138683
N	2.43662	-0.769312	0.29094
C	3.56762	0.113031	0.435376
C	3.98515	0.577017	-0.947359
O	3.4934	0.0738317	-1.95567
H	2.3536	-1.22039	-0.593079
H	3.26672	0.991127	0.993074
C	4.73899	-0.602833	1.14296
H	5.05501	-1.49781	0.565737
H	5.61106	0.0703912	1.27255
H	4.40845	-0.940633	2.14943
N	4.90285	1.5607	-1.0262
C	5.35703	2.0705	-2.29899
H	5.28623	1.95819	-0.1991
H	6.11101	2.87529	-2.15386
H	4.50452	2.48977	-2.88099
H	5.82218	1.25895	-2.9041
