44
  This energy is -1.8743 and Call times are: 43189
C	1.90698	-2.07448	2.0427
C	0.708426	-1.24549	1.78313
O	-0.256233	-1.27457	2.5348
H	1.74411	-2.67792	2.96206
H	2.79594	-1.42607	2.19123
H	2.08921	-2.76148	1.18952
N	0.74353	-0.47665	0.692248
C	-0.363692	0.35208	0.28503
C	-0.313319	0.500749	-1.22391
O	0.656275	0.0989033	-1.86432
H	1.51931	-0.494575	0.067975
H	-1.29276	-0.147829	0.529069
C	-0.297589	1.73573	0.967959
H	0.650671	2.25342	0.709433
H	-1.15241	2.3783	0.67317
H	-0.327834	1.60218	2.07141
N	-1.36874	1.07841	-1.83088
C	-1.41206	1.2574	-3.26346
H	-2.14584	1.39349	-1.29617
H	-2.36113	1.75004	-3.5697
H	-1.34323	0.274926	-3.7843
H	-0.56174	1.89025	-3.60638
C	5.72459	1.55866	3.10931
C	6.26099	0.616653	2.10132
O	7.37057	0.117602	2.22859
H	6.48086	1.70965	3.91
H	4.79833	1.14735	3.56278
H	5.50105	2.53835	2.63676
N	5.47138	0.35073	1.05815
C	5.87237	-0.512522	-0.0246982
C	5.14817	-0.0640961	-1.28009
O	4.25456	0.778574	-1.22466
H	4.58759	0.796355	0.947804
H	6.93346	-0.391568	-0.2038
C	5.54153	-1.98709	0.293792
H	4.4516	-2.11363	0.467245
H	5.85809	-2.6634	-0.526525
H	6.07576	-2.29122	1.22031
N	5.52581	-0.615223	-2.45042
C	4.89738	-0.246097	-3.69741
H	6.25369	-1.29245	-2.47564
H	5.3467	-0.808014	-4.5457
H	5.02296	0.843494	-3.89312
H	3.80604	-0.468098	-3.66841
