44
  This energy is 0.1078 and Call times are: 49738
C	-1.58533	2.95162	-0.941991
C	-1.25981	1.9085	0.0565431
O	-1.52661	2.06049	1.24066
H	-2.05698	3.81738	-0.428289
H	-2.29485	2.5512	-1.69631
H	-0.660462	3.29605	-1.45098
N	-0.663367	0.808023	-0.407777
C	-0.247111	-0.274858	0.448178
C	0.942977	-0.958267	-0.198505
O	1.28677	-0.673576	-1.34414
H	-0.415664	0.71638	-1.36804
H	0.0878505	0.127552	1.39607
C	-1.39836	-1.28155	0.663683
H	-1.73528	-1.70258	-0.307528
H	-1.09456	-2.1129	1.33233
H	-2.26112	-0.758006	1.13046
N	1.6085	-1.87638	0.529632
C	2.75659	-2.57417	-0.000607456
H	1.31773	-2.09025	1.45634
H	3.16446	-3.28707	0.749479
H	3.56185	-1.85443	-0.274124
H	2.48041	-3.14715	-0.915244
C	3.59632	-2.5993	-0.222438
C	4.62689	-1.83049	0.511065
O	4.81894	-2.00912	1.7059
H	3.07929	-3.28598	0.482539
H	4.06825	-3.2	-1.02817
H	2.8478	-1.90941	-0.666099
N	5.32254	-0.940926	-0.201071
C	6.32836	-0.0885376	0.382284
C	6.39349	1.19083	-0.430464
O	5.78331	1.29375	-1.49291
H	5.12667	-0.777806	-1.16382
H	6.02817	0.182402	1.38682
C	7.70412	-0.790151	0.398841
H	8.01737	-1.05888	-0.632518
H	8.48428	-0.149262	0.858327
H	7.63089	-1.72759	0.992296
N	7.13387	2.20516	0.0584036
C	7.2503	3.46243	-0.642943
H	7.61708	2.10439	0.921786
H	7.90105	4.1677	-0.0804943
H	6.24951	3.93505	-0.770743
H	7.69128	3.30889	-1.65443
