44
  This energy is -2.935 and Call times are: 49794
C	1.52057	1.40033	2.79993
C	0.892132	1.51391	1.46453
O	0.580458	2.60272	1.00216
H	1.61726	2.41326	3.24771
H	2.53106	0.949109	2.71023
H	0.892932	0.77142	3.46599
N	0.687129	0.370827	0.805965
C	0.0464828	0.317161	-0.484481
C	-0.646814	-1.02612	-0.612851
O	-0.466488	-1.91027	0.222299
H	0.90877	-0.510807	1.21274
H	-0.719006	1.08141	-0.535336
C	1.07627	0.50571	-1.61992
H	1.85594	-0.284291	-1.57456
H	0.593247	0.480202	-2.6182
H	1.57686	1.49147	-1.50142
N	-1.46836	-1.20769	-1.66553
C	-2.17526	-2.45102	-1.86706
H	-1.60471	-0.479034	-2.32851
H	-2.79963	-2.40386	-2.78638
H	-2.84199	-2.66855	-1.00137
H	-1.45899	-3.29777	-1.97249
C	8.87671	-1.34508	1.91417
C	7.44515	-1.05215	1.67759
O	6.57244	-1.56169	2.36691
H	8.96985	-2.06779	2.75374
H	9.41911	-0.413494	2.18005
H	9.33158	-1.79059	1.0044
N	7.16875	-0.211258	0.678144
C	5.82162	0.136347	0.300053
C	5.81729	0.472091	-1.17942
O	6.87096	0.580225	-1.80375
H	7.88771	0.163485	0.0997636
H	5.17872	-0.724142	0.437424
C	5.3077	1.33411	1.12861
H	5.96089	2.22025	0.979818
H	4.26638	1.60262	0.85646
H	5.32708	1.0688	2.20823
N	4.6221	0.637435	-1.77957
C	4.51936	0.953295	-3.18522
H	3.78033	0.541882	-1.25864
H	3.45389	1.04903	-3.48993
H	4.99004	0.154303	-3.80276
H	5.0365	1.91387	-3.41106
