44
  This energy is -2.5412 and Call times are: 45330
C	-2.2945	1.93287	1.76407
C	-1.00729	1.76322	1.05313
O	-0.314847	2.72773	0.758762
H	-2.48007	3.01565	1.93444
H	-2.26063	1.41524	2.74574
H	-3.12534	1.51724	1.15574
N	-0.654584	0.510583	0.755026
C	0.548241	0.190107	0.0276562
C	0.312324	-1.10268	-0.730362
O	-0.69949	-1.77277	-0.533067
H	-1.24834	-0.260951	0.964919
H	0.739125	0.963748	-0.705607
C	1.7503	0.0440804	0.98629
H	1.55933	-0.756663	1.7322
H	2.68532	-0.189044	0.436834
H	1.89942	0.999017	1.53602
N	1.24411	-1.48034	-1.62768
C	1.10235	-2.69274	-2.39982
H	2.05413	-0.922826	-1.77636
H	1.97057	-2.82847	-3.08172
H	0.174632	-2.65985	-3.01588
H	1.04044	-3.58055	-1.72967
C	6.65124	-3.02353	1.63315
C	5.93868	-1.73487	1.48219
O	4.92364	-1.49418	2.12107
H	6.10617	-3.66136	2.36248
H	7.68179	-2.84939	2.00783
H	6.69718	-3.55196	0.65759
N	6.46325	-0.864562	0.616294
C	5.85908	0.41281	0.330184
C	6.22836	0.803553	-1.08845
O	7.05965	0.157502	-1.7235
H	7.26685	-1.09113	0.0733925
H	4.78132	0.3146	0.367536
C	6.34	1.48695	1.33028
H	7.44462	1.59555	1.28483
H	5.87119	2.47195	1.129
H	6.06619	1.17639	2.36223
N	5.6079	1.87324	-1.624
C	5.89098	2.31616	-2.96931
H	4.93514	2.38085	-1.09598
H	5.28037	3.20982	-3.22579
H	5.66039	1.51141	-3.70448
H	6.96704	2.5839	-3.07673
