44
  This energy is 0.4622 and Call times are: 46562
C	-0.473091	2.58103	-2.2863
C	-0.793499	1.8887	-1.01777
O	-1.4989	2.41662	-0.169181
H	-0.948727	3.58584	-2.28662
H	-0.861551	1.99927	-3.14851
H	0.625839	2.7036	-2.38838
N	-0.270683	0.670703	-0.857979
C	-0.457976	-0.108379	0.340567
C	0.745728	-1.0166	0.507241
O	1.58367	-1.12202	-0.386324
H	0.335047	0.271052	-1.54006
H	-0.483316	0.553994	1.19687
C	-1.75688	-0.940064	0.260596
H	-1.72693	-1.62731	-0.611663
H	-1.91952	-1.53381	1.18338
H	-2.6235	-0.255624	0.130769
N	0.863897	-1.69148	1.66767
C	1.97884	-2.57485	1.9182
H	0.177831	-1.59004	2.38048
H	1.89638	-3.03578	2.92714
H	2.94167	-2.01678	1.86547
H	2.01119	-3.39142	1.16103
C	7.0591	1.82441	-2.91406
C	6.77653	0.675575	-2.0244
O	5.81328	-0.0531426	-2.21815
H	6.27486	1.88201	-3.69986
H	8.04813	1.69631	-3.40208
H	7.05425	2.76977	-2.33153
N	7.62436	0.487653	-1.01037
C	7.45617	-0.561678	-0.0361103
C	8.07621	-0.0991999	1.26897
O	8.74567	0.930908	1.31796
H	8.38044	1.11354	-0.841686
H	6.39961	-0.714829	0.145162
C	8.11874	-1.87156	-0.516154
H	9.20473	-1.71765	-0.692164
H	7.98415	-2.69107	0.219244
H	7.65507	-2.18693	-1.4763
N	7.85887	-0.851533	2.36568
C	8.40433	-0.487212	3.6525
H	7.31107	-1.67951	2.30701
H	8.11431	-1.23069	4.42734
H	8.02959	0.513129	3.969
H	9.51661	-0.44134	3.60922
