44
  This energy is 0.2667 and Call times are: 48034
C	2.636	-1.5386	-1.67239
C	2.10261	-0.680112	-0.590895
O	2.8093	-0.325469	0.342503
H	3.70039	-1.7787	-1.45955
H	2.57483	-1.00934	-2.6465
H	2.05852	-2.48537	-1.72944
N	0.820183	-0.3236	-0.694135
C	0.148649	0.473471	0.301998
C	-1.32452	0.111559	0.283015
O	-1.78443	-0.610035	-0.599876
H	0.246761	-0.653881	-1.43843
H	0.531195	0.217067	1.28207
C	0.339629	1.98049	0.0233436
H	-0.0621908	2.24607	-0.977679
H	-0.161221	2.60486	0.791356
H	1.42516	2.22103	0.0341088
N	-2.10147	0.601379	1.26914
C	-3.51372	0.305983	1.33614
H	-1.71032	1.1802	1.97698
H	-3.97735	0.799777	2.21843
H	-3.68173	-0.792157	1.42062
H	-4.03438	0.665345	0.419131
C	5.66323	-2.40028	-2.38538
C	6.03782	-1.33598	-1.42721
O	7.20646	-1.14101	-1.12275
H	6.57941	-2.93671	-2.71511
H	5.16651	-1.95753	-3.27419
H	4.97624	-3.12627	-1.90158
N	5.03567	-0.613598	-0.92101
C	5.23908	0.427867	0.0549662
C	3.98491	0.533842	0.90196
O	2.96479	-0.0807012	0.596355
H	4.0861	-0.811076	-1.14722
H	6.05066	0.146096	0.714186
C	5.54351	1.77673	-0.632889
H	4.70654	2.07141	-1.30124
H	5.71577	2.58384	0.108338
H	6.46039	1.67357	-1.25339
N	4.03526	1.31529	1.99869
C	2.89245	1.47261	2.86784
H	4.87097	1.80141	2.23181
H	3.13261	2.15363	3.71388
H	2.57983	0.489051	3.28755
H	2.02882	1.89937	2.30824
