44
  This energy is -2.2455 and Call times are: 49229
C	-0.370067	1.65178	-3.04095
C	-0.216164	0.417336	-2.2387
O	-0.381886	-0.686958	-2.73818
H	-0.657674	1.38102	-4.0801
H	0.587744	2.2127	-3.06773
H	-1.16297	2.2953	-2.60473
N	0.107789	0.581061	-0.953933
C	0.250183	-0.522935	-0.037704
C	-0.08752	-0.0275774	1.3559
O	-0.254544	1.17066	1.5751
H	0.199176	1.48767	-0.551975
H	-0.469553	-1.29167	-0.290014
C	1.68575	-1.09111	-0.0773281
H	2.42372	-0.305589	0.191711
H	1.80436	-1.95066	0.61378
H	1.91397	-1.44018	-1.10806
N	-0.204713	-0.946344	2.33476
C	-0.52893	-0.569021	3.69074
H	-0.0699576	-1.91166	2.13709
H	-0.580288	-1.46572	4.34687
H	-1.51392	-0.0497905	3.72912
H	0.242059	0.122443	4.10134
C	7.46122	-3.29746	-0.0684575
C	6.38772	-2.28641	0.0600785
O	5.20807	-2.60956	0.0395736
H	7.00513	-4.30351	-0.193778
H	8.09467	-3.3011	0.843394
H	8.09158	-3.07567	-0.955321
N	6.78056	-1.01766	0.195496
C	5.8523	0.0815518	0.2883
C	6.52897	1.32029	-0.267772
O	7.72685	1.31289	-0.544765
H	7.74374	-0.765732	0.169271
H	4.99185	-0.123829	-0.336249
C	5.41635	0.313446	1.75166
H	6.2976	0.534589	2.39082
H	4.69081	1.14845	1.83457
H	4.93096	-0.60828	2.14044
N	5.7694	2.41795	-0.452741
C	6.32527	3.64137	-0.982288
H	4.80105	2.40332	-0.226541
H	5.54239	4.42768	-1.06011
H	6.75339	3.47147	-1.99675
H	7.13933	4.02084	-0.323156
