44
  This energy is -3.4079 and Call times are: 46391
C	-1.30107	2.91154	1.39386
C	-0.830159	2.11843	0.236115
O	-1.01795	2.49988	-0.910898
H	-1.82357	3.82179	1.02737
H	-0.439315	3.22028	2.02219
H	-2.00854	2.31283	2.00552
N	-0.198798	0.976063	0.516739
C	0.278768	0.076698	-0.503865
C	0.272131	-1.32992	0.0644161
O	0.0583959	-1.5254	1.25933
H	-0.0896628	0.658816	1.45446
H	-0.40786	0.0895791	-1.34113
C	1.70032	0.46842	-0.963196
H	2.40729	0.445129	-0.106641
H	2.07378	-0.208327	-1.75885
H	1.68293	1.50391	-1.36792
N	0.49951	-2.34938	-0.787069
C	0.506895	-3.7221	-0.337883
H	0.666392	-2.17155	-1.75123
H	0.711322	-4.41227	-1.18588
H	-0.47748	-3.99517	0.106763
H	1.29119	-3.87759	0.437907
C	5.23065	-2.44311	-2.47739
C	5.08506	-2.0232	-1.06543
O	4.68753	-2.80303	-0.210884
H	4.91388	-3.5038	-2.57965
H	6.29023	-2.35213	-2.79639
H	4.59237	-1.81276	-3.13184
N	5.40752	-0.758105	-0.786255
C	5.27732	-0.192034	0.533278
C	5.02702	1.29706	0.386549
O	5.12796	1.84779	-0.70808
H	5.69056	-0.123809	-1.49999
H	4.40957	-0.618477	1.0209
C	6.54939	-0.447317	1.37108
H	7.4383	-0.000898786	0.876505
H	6.45609	-0.0282545	2.39392
H	6.7174	-1.54296	1.45866
N	4.68401	1.98546	1.4931
C	4.42126	3.40504	1.44905
H	4.60338	1.52156	2.36909
H	4.15483	3.7872	2.4591
H	3.57721	3.62696	0.756509
H	5.31793	3.95977	1.08934
