44
  This energy is -4.0846 and Call times are: 49364
C	3.21155	0.0345982	1.34069
C	2.08218	0.692715	0.646035
O	2.06868	1.90249	0.465281
H	3.95393	0.803987	1.64529
H	3.70565	-0.693251	0.663312
H	2.84789	-0.492829	2.2477
N	1.09199	-0.103758	0.236732
C	-0.0930443	0.39557	-0.41514
C	-1.23685	-0.552617	-0.108203
O	-1.03057	-1.6282	0.450615
H	1.09807	-1.08124	0.427422
H	-0.352014	1.3598	0.00416983
C	0.122303	0.508441	-1.9403
H	0.377666	-0.482501	-2.37258
H	-0.778487	0.904948	-2.45205
H	0.968848	1.2008	-2.14117
N	-2.47929	-0.168734	-0.461756
C	-3.63001	-1.00307	-0.205013
H	-2.62672	0.707048	-0.909351
H	-4.56	-0.513134	-0.568734
H	-3.7395	-1.19604	0.886796
H	-3.52623	-1.98524	-0.72048
C	5.25032	2.83386	-0.687884
C	6.5278	2.08621	-0.702352
O	7.49198	2.49267	-1.33604
H	5.34664	3.73798	-1.32753
H	5.00399	3.15063	0.347361
H	4.4306	2.19855	-1.08476
N	6.5618	0.955617	0.00687004
C	7.71993	0.098303	0.0546444
C	7.24686	-1.32267	0.29677
O	6.07296	-1.55632	0.577963
H	5.75617	0.616624	0.484273
H	8.21567	0.113623	-0.907972
C	8.69025	0.543531	1.17066
H	8.18524	0.517888	2.15978
H	9.5927	-0.100422	1.20857
H	9.01719	1.58856	0.977374
N	8.15509	-2.31182	0.183983
C	7.79562	-3.6953	0.39117
H	9.09936	-2.10337	-0.0483452
H	8.67963	-4.3562	0.25339
H	7.00764	-4.00883	-0.331373
H	7.40013	-3.84862	1.42133
