44
  This energy is -1.601 and Call times are: 50059
C	0.178204	-3.44998	-0.422575
C	0.0523352	-2.07611	-0.959019
O	0.146951	-1.85366	-2.15818
H	0.37587	-4.15441	-1.25958
H	-0.762384	-3.75019	0.0852733
H	1.02081	-3.50346	0.298709
N	-0.165405	-1.10794	-0.0659216
C	-0.267175	0.282999	-0.431281
C	0.192409	1.11707	0.749676
O	0.410159	0.596143	1.84189
H	-0.199203	-1.29929	0.910863
H	0.408421	0.486954	-1.25262
C	-1.71706	0.646758	-0.819544
H	-2.40905	0.447612	0.0263477
H	-1.80576	1.71195	-1.11625
H	-2.03501	0.018847	-1.68035
N	0.359504	2.43983	0.553671
C	0.799343	3.31201	1.61764
H	0.182237	2.84233	-0.338317
H	0.876236	4.36208	1.25892
H	1.79872	2.99686	1.99605
H	0.08284	3.28413	2.47027
C	4.31875	-1.32641	2.993
C	4.10174	-0.768653	1.63913
O	3.00446	-0.82183	1.10102
H	3.37017	-1.77296	3.36264
H	4.63414	-0.523263	3.69174
H	5.09908	-2.11581	2.9611
N	5.16289	-0.213872	1.04874
C	5.11791	0.332222	-0.284794
C	6.5032	0.213001	-0.891701
O	7.46387	-0.130756	-0.205667
H	6.05926	-0.214722	1.48277
H	4.44737	-0.262921	-0.89209
C	4.66202	1.80765	-0.261663
H	5.35555	2.42061	0.352624
H	4.61001	2.23545	-1.28382
H	3.64963	1.87185	0.193616
N	6.63668	0.488317	-2.2041
C	7.9154	0.396677	-2.86942
H	5.84691	0.760921	-2.74357
H	7.81872	0.661396	-3.94544
H	8.32192	-0.638195	-2.79827
H	8.65202	1.08981	-2.40243
