44
  This energy is -2.4622 and Call times are: 46618
C	0.58337	-1.5935	-3.0386
C	0.45481	-0.373288	-2.21054
O	0.793463	0.721211	-2.63925
H	1.0263	-1.32488	-4.02224
H	-0.415152	-2.04904	-3.20648
H	1.24532	-2.32949	-2.53538
N	-0.0442798	-0.538738	-0.983382
C	-0.18914	0.547315	-0.0463311
C	-0.0827143	-0.0208333	1.35632
O	-0.0670137	-1.23582	1.54416
H	-0.277204	-1.4418	-0.633955
H	0.63088	1.24261	-0.175802
C	-1.54313	1.26494	-0.238573
H	-2.38497	0.554401	-0.0954618
H	-1.66074	2.11198	0.467981
H	-1.60234	1.66567	-1.27407
N	0.00188051	0.851868	2.37968
C	0.111719	0.403551	3.7483
H	-0.00829246	1.83131	2.20743
H	0.170024	1.27056	4.44265
H	1.02622	-0.217763	3.8859
H	-0.771116	-0.214075	4.03164
C	6.13332	-3.32464	1.00254
C	6.49141	-2.20748	0.0998392
O	7.40567	-2.31297	-0.70603
H	6.81879	-4.18015	0.817966
H	5.08994	-3.65226	0.810734
H	6.232	-3.00719	2.06205
N	5.76693	-1.09246	0.21921
C	6.02418	0.0930752	-0.559813
C	5.57717	1.29648	0.24862
O	4.94474	1.15371	1.2933
H	5.05265	-1.00748	0.908012
H	7.09063	0.1905	-0.720483
C	5.2758	0.03933	-1.90973
H	4.18079	-0.0500082	-1.74539
H	5.47687	0.940386	-2.52471
H	5.61275	-0.853201	-2.48087
N	5.90543	2.51836	-0.215354
C	5.52776	3.72114	0.489531
H	6.42106	2.61353	-1.06042
H	5.88973	4.62361	-0.0506162
H	5.963	3.72845	1.5151
H	4.41984	3.78978	0.584197
