44
  This energy is -2.1737 and Call times are: 50630
C	0.365505	0.861723	3.35209
C	0.703775	0.0284273	2.17637
O	1.65798	-0.736753	2.19629
H	1.10353	0.671766	4.16148
H	-0.64902	0.605699	3.72349
H	0.398862	1.93798	3.08069
N	-0.0841188	0.163151	1.10704
C	0.144277	-0.548474	-0.125833
C	-0.402819	0.291068	-1.26487
O	-1.07342	1.29683	-1.04027
H	-0.832434	0.820157	1.09175
H	1.21016	-0.653434	-0.285527
C	-0.538133	-1.93367	-0.0978465
H	-1.63311	-1.82605	0.0554188
H	-0.357977	-2.49711	-1.03625
H	-0.128262	-2.52769	0.748026
N	-0.119838	-0.101158	-2.52269
C	-0.593035	0.638352	-3.6696
H	0.427764	-0.91546	-2.6843
H	-0.255834	0.157334	-4.61413
H	-0.205783	1.68284	-3.65055
H	-1.70619	0.682946	-3.67656
C	6.64062	-1.50965	2.85797
C	6.13581	-0.327995	2.12312
O	5.88659	0.719518	2.70365
H	6.71563	-1.26492	3.93979
H	7.64663	-1.79252	2.4829
H	5.94472	-2.36554	2.73057
N	5.96931	-0.474437	0.806598
C	5.44526	0.571966	-0.0354047
C	4.7416	-0.0761953	-1.21283
O	4.83057	-1.28632	-1.41129
H	6.13762	-1.34585	0.354746
H	4.70151	1.13455	0.515003
C	6.57537	1.5034	-0.525849
H	7.33326	0.928531	-1.09958
H	6.18278	2.32148	-1.16393
H	7.08142	1.9604	0.352448
N	4.01388	0.719174	-2.02142
C	3.30504	0.19037	-3.16338
H	3.95053	1.69536	-1.84221
H	2.76598	1.00095	-3.70154
H	2.55997	-0.573852	-2.84381
H	4.01218	-0.293499	-3.8754
