44
  This energy is -3.0847 and Call times are: 47665
C	0.705243	0.260907	-3.39812
C	0.490512	-0.535704	-2.16912
O	0.364997	-1.75159	-2.21677
H	0.707047	-0.416738	-4.27941
H	1.68161	0.787106	-3.3474
H	-0.109806	1.00535	-3.51891
N	0.440601	0.145112	-1.02179
C	0.195095	-0.486299	0.250848
C	-0.481638	0.524376	1.15756
O	-0.58111	1.7033	0.822955
H	0.503535	1.13888	-1.00346
H	-0.494834	-1.30964	0.113945
C	1.51333	-0.98381	0.883297
H	2.21745	-0.137857	1.03368
H	1.33604	-1.48427	1.85727
H	1.99514	-1.71608	0.199203
N	-0.973206	0.0808168	2.33129
C	-1.63829	0.96876	3.25617
H	-0.886734	-0.877516	2.58267
H	-1.97083	0.415715	4.16214
H	-2.53272	1.43281	2.78086
H	-0.953751	1.78731	3.57638
C	7.27852	-2.42673	1.97164
C	7.18051	-1.62979	0.728082
O	8.08256	-1.63245	-0.0981901
H	8.25655	-2.95478	1.99334
H	6.46293	-3.17916	2.00926
H	7.20921	-1.76211	2.85852
N	6.06378	-0.916087	0.567063
C	5.84231	-0.0585636	-0.570547
C	4.92322	1.06935	-0.140818
O	4.3722	1.04874	0.958114
H	5.35627	-0.892045	1.26757
H	6.78244	0.387699	-0.869902
C	5.21962	-0.847501	-1.74318
H	4.24999	-1.29675	-1.43979
H	5.05703	-0.201225	-2.62998
H	5.90539	-1.67243	-2.03569
N	4.7427	2.09095	-1.0009
C	3.89029	3.21082	-0.676151
H	5.20036	2.09176	-1.88386
H	3.87202	3.94611	-1.51057
H	4.25506	3.72939	0.239989
H	2.84702	2.86883	-0.487013
