44
  This energy is -4.2428 and Call times are: 49029
C	-0.176855	3.43859	-0.507429
C	-0.0610718	2.25574	0.37495
O	0.227445	2.37422	1.5578
H	0.0513368	4.35642	0.0768606
H	-1.20865	3.51616	-0.91007
H	0.543235	3.36011	-1.3491
N	-0.285437	1.06811	-0.192121
C	-0.168044	-0.17556	0.527649
C	0.216708	-1.25984	-0.461213
O	0.21465	-1.03871	-1.67068
H	-0.479135	0.984706	-1.16546
H	0.636015	-0.0964872	1.24867
C	-1.49489	-0.532097	1.23305
H	-2.31795	-0.623702	0.492626
H	-1.41318	-1.48076	1.80216
H	-1.76097	0.27871	1.94589
N	0.566343	-2.46305	0.0348523
C	0.952722	-3.55377	-0.829571
H	0.565842	-2.62159	1.01665
H	1.20411	-4.45827	-0.233004
H	1.844	-3.27619	-1.43773
H	0.125053	-3.81343	-1.52863
C	7.54803	-0.714166	2.75873
C	6.52554	-1.09215	1.75734
O	6.15893	-2.25267	1.63402
H	7.88541	-1.62429	3.30068
H	7.11999	0.00222485	3.49107
H	8.42279	-0.250256	2.25609
N	6.0366	-0.102857	1.00592
C	5.06782	-0.321622	-0.0391406
C	5.25781	0.753238	-1.09278
O	6.01002	1.70506	-0.892941
H	6.3747	0.830131	1.09007
H	5.26266	-1.2757	-0.512848
C	3.63022	-0.280003	0.52373
H	3.42629	0.702404	1.00053
H	2.87553	-0.460905	-0.268888
H	3.51639	-1.06953	1.29835
N	4.58147	0.620225	-2.25074
C	4.70378	1.59083	-3.31334
H	3.98068	-0.158987	-2.39551
H	4.0704	1.305	-4.18189
H	5.7604	1.66372	-3.65904
H	4.38474	2.5992	-2.96326
