44
  This energy is 0.1103 and Call times are: 48063
C	-2.97178	0.197423	-1.80062
C	-2.04746	0.68763	-0.753495
O	-2.22156	1.77063	-0.211997
H	-3.76173	0.959015	-1.97905
H	-3.45212	-0.748987	-1.47455
H	-2.41927	0.0239705	-2.74811
N	-1.0251	-0.112612	-0.442416
C	-0.0189432	0.246412	0.525734
C	1.2731	-0.452397	0.146453
O	1.29202	-1.3028	-0.741341
H	-0.87355	-0.972818	-0.920899
H	0.163395	1.31252	0.47285
C	-0.455301	-0.158349	1.95087
H	-0.632296	-1.25352	2.00834
H	0.30501	0.125286	2.70717
H	-1.40667	0.358489	2.20408
N	2.39215	-0.10093	0.809946
C	3.66877	-0.708077	0.513669
H	2.35762	0.592177	1.52232
H	4.46557	-0.286072	1.16502
H	3.95238	-0.527787	-0.548563
H	3.62791	-1.8092	0.67796
C	5.27874	-3.10104	-0.426684
C	5.49065	-1.84648	0.329842
O	4.75867	-1.5367	1.25971
H	4.39095	-3.63086	-0.0180403
H	6.16669	-3.76061	-0.330428
H	5.10049	-2.87563	-1.49929
N	6.51398	-1.08337	-0.0611037
C	6.8194	0.186243	0.549919
C	7.49003	1.06292	-0.490886
O	7.83422	0.600256	-1.57679
H	7.07586	-1.32886	-0.845889
H	5.89709	0.675256	0.837709
C	7.73975	0.00111895	1.77627
H	8.69049	-0.491002	1.4797
H	7.97096	0.970327	2.26381
H	7.23215	-0.64995	2.52111
N	7.68439	2.36063	-0.183992
C	8.30977	3.27182	-1.11393
H	7.39537	2.71747	0.698167
H	8.37916	4.2927	-0.677775
H	7.72234	3.33351	-2.0586
H	9.33852	2.92859	-1.36891
