44
  This energy is -2.23 and Call times are: 47317
C	0.287158	3.29367	1.08718
C	-0.176127	1.89886	1.26332
O	-0.620215	1.5099	2.33472
H	0.172062	3.84288	2.04687
H	-0.317722	3.80224	0.307297
H	1.35748	3.30697	0.791662
N	-0.078687	1.102	0.1966
C	-0.449075	-0.291023	0.226077
C	0.392764	-1.02608	-0.799862
O	1.09929	-0.408222	-1.59408
H	0.322933	1.42194	-0.65675
H	-0.20759	-0.704392	1.19739
C	-1.95249	-0.468723	-0.0795445
H	-2.19874	-0.0542735	-1.08036
H	-2.25301	-1.53601	-0.0461753
H	-2.54899	0.0839024	0.67884
N	0.342602	-2.37275	-0.800785
C	1.11356	-3.15724	-1.73694
H	-0.231862	-2.85498	-0.147707
H	0.937193	-4.24395	-1.57827
H	2.20263	-2.95726	-1.61364
H	0.83289	-2.90567	-2.78531
C	7.32546	-0.587264	-2.87237
C	6.03258	-0.408709	-2.17399
O	4.98973	-0.270391	-2.79828
H	7.15757	-0.551723	-3.97074
H	7.77052	-1.56962	-2.60844
H	8.02834	0.224649	-2.58982
N	6.07436	-0.405585	-0.839592
C	4.9048	-0.199339	-0.0221894
C	5.34598	0.435641	1.28308
O	6.53899	0.535995	1.56301
H	6.93629	-0.478278	-0.34598
H	4.24373	0.502544	-0.515107
C	4.17562	-1.53443	0.244412
H	4.85012	-2.25118	0.759538
H	3.26554	-1.38702	0.861298
H	3.869	-1.98503	-0.724752
N	4.38646	0.889548	2.11333
C	4.7115	1.51336	3.37482
H	3.42667	0.803083	1.86755
H	3.78681	1.81881	3.9123
H	5.33931	2.41971	3.21459
H	5.27982	0.810448	4.02602
