44
  This energy is 0.104 and Call times are: 46886
C	-1.80684	0.443302	-2.94134
C	-0.844117	-0.306909	-2.10379
O	-0.467428	-1.42667	-2.42106
H	-2.09438	-0.178474	-3.8169
H	-1.34474	1.3849	-3.30548
H	-2.71916	0.682141	-2.35507
N	-0.41995	0.304167	-0.99517
C	0.483844	-0.316107	-0.0586999
C	0.209945	0.262189	1.31684
O	-0.543287	1.22378	1.45718
H	-0.767018	1.19896	-0.729173
H	0.274694	-1.37748	-0.00989141
C	1.95345	-0.0718899	-0.465937
H	2.17141	1.01666	-0.5059
H	2.65905	-0.556316	0.239746
H	2.12902	-0.496143	-1.47863
N	0.813376	-0.320443	2.37156
C	0.608129	0.15774	3.71893
H	1.41622	-1.10014	2.23842
H	1.18954	-0.451742	4.44537
H	-0.469372	0.100081	3.99631
H	0.932468	1.2194	3.8129
C	8.58683	0.511457	0.198361
C	7.18936	0.976369	0.346986
O	6.92912	2.02781	0.915449
H	9.27043	1.24192	0.683104
H	8.85103	0.430902	-0.877027
H	8.71469	-0.478274	0.685348
N	6.24352	0.187496	-0.168227
C	4.83664	0.484916	-0.0643208
C	4.07384	-0.826403	-0.0763833
O	4.64584	-1.88544	-0.327289
H	6.4681	-0.685369	-0.591932
H	4.64188	0.962632	0.88777
C	4.37659	1.38968	-1.22836
H	4.56651	0.89558	-2.205
H	3.29796	1.63719	-1.15199
H	4.95347	2.33994	-1.20468
N	2.75655	-0.786105	0.20495
C	1.95034	-1.98439	0.222368
H	2.31231	0.0798557	0.409494
H	0.894013	-1.74404	0.47465
H	2.33575	-2.70615	0.978549
H	1.96823	-2.48467	-0.772892
