44
  This energy is 0.1066 and Call times are: 50116
C	-0.610221	0.0159529	-3.42638
C	-0.860321	0.516019	-2.05578
O	-1.52681	1.52317	-1.86123
H	-1.09413	0.696961	-4.15982
H	-1.03638	-1.0023	-3.54595
H	0.481061	-0.014075	-3.62959
N	-0.31939	-0.188528	-1.0591
C	-0.4393	0.197452	0.324811
C	0.77924	-0.318235	1.06696
O	1.5721	-1.08314	0.521051
H	0.254792	-0.982924	-1.2355
H	-0.427412	1.27788	0.396651
C	-1.73318	-0.372434	0.946379
H	-1.74105	-1.48143	0.882414
H	-1.84397	-0.0706389	2.00806
H	-2.61125	0.0117442	0.382685
N	0.961557	0.0986041	2.33543
C	2.09544	-0.335056	3.11801
H	0.311323	0.720844	2.75862
H	2.06789	0.116686	4.13408
H	3.04944	-0.0351399	2.62687
H	2.09691	-1.44378	3.22693
C	6.82647	-0.309761	-0.525492
C	5.65041	0.410101	0.0128858
O	5.78238	1.35186	0.78236
H	7.75403	0.135696	-0.104721
H	6.85544	-0.22187	-1.63192
H	6.78183	-1.38224	-0.241119
N	4.45351	-0.0270221	-0.385525
C	3.21678	0.544514	0.0860685
C	2.15169	-0.535145	0.047359
O	2.3724	-1.61853	-0.490476
H	4.36103	-0.820697	-0.979987
H	3.33358	0.84548	1.1197
C	2.79835	1.74937	-0.784838
H	2.66814	1.43894	-1.84348
H	1.85461	2.20681	-0.423416
H	3.59581	2.52335	-0.748022
N	0.966279	-0.265181	0.628678
C	-0.105144	-1.23365	0.645884
H	0.807947	0.615651	1.06243
H	-0.996811	-0.824389	1.16998
H	0.213946	-2.16313	1.1708
H	-0.403455	-1.50826	-0.391776
