44
  This energy is 0.1089 and Call times are: 45302
C	3.14745	-0.405331	-1.42898
C	1.86837	-0.947889	-0.918365
O	1.55182	-2.11312	-1.11443
H	3.68765	-1.20126	-1.98625
H	3.78239	-0.0635548	-0.584718
H	2.95515	0.446412	-2.11502
N	1.09126	-0.0986004	-0.242199
C	-0.201266	-0.468363	0.278571
C	-1.06593	0.77728	0.326367
O	-0.582985	1.88772	0.11327
H	1.34385	0.857735	-0.126043
H	-0.675175	-1.16405	-0.402653
C	-0.0713963	-1.09168	1.68564
H	0.405152	-0.374504	2.3875
H	-1.05861	-1.39331	2.09178
H	0.571745	-1.99689	1.62811
N	-2.37572	0.619082	0.601047
C	-3.27675	1.74629	0.662213
H	-2.74882	-0.287816	0.766589
H	-4.31028	1.41112	0.900349
H	-3.29888	2.2848	-0.312868
H	-2.95199	2.46692	1.44729
C	2.63624	0.596308	-1.95958
C	3.69707	-0.29558	-1.43965
O	3.64803	-1.50553	-1.61297
H	1.86017	-0.0146345	-2.46979
H	3.06445	1.31552	-2.68905
H	2.16259	1.1547	-1.12476
N	4.69548	0.293208	-0.777155
C	5.77712	-0.446607	-0.176086
C	6.28592	0.343285	1.01503
O	5.89569	1.49052	1.22307
H	4.70048	1.27478	-0.608807
H	5.39961	-1.38946	0.199586
C	6.91448	-0.685296	-1.19329
H	7.30924	0.281901	-1.57109
H	7.74729	-1.26602	-0.74642
H	6.51761	-1.25789	-2.05987
N	7.16909	-0.260424	1.83452
C	7.70388	0.411246	2.996
H	7.46986	-1.19064	1.65199
H	8.41285	-0.250162	3.54109
H	6.88533	0.699147	3.69484
H	8.24626	1.33798	2.69914
