44
  This energy is -2.3814 and Call times are: 45914
C	0.0573151	-3.47961	-0.0414989
C	0.154345	-2.18297	0.665938
O	0.158767	-2.1274	1.88795
H	-0.0217722	-4.30002	0.704528
H	0.962301	-3.6451	-0.663074
H	-0.844091	-3.49531	-0.689815
N	0.233261	-1.093	-0.100936
C	0.289522	0.241393	0.442019
C	-0.323956	1.19022	-0.570373
O	-0.612092	0.803956	-1.70152
H	0.187218	-1.15128	-1.09409
H	-0.317552	0.288586	1.33749
C	1.74621	0.649441	0.75315
H	2.36703	0.611361	-0.167268
H	1.80155	1.66983	1.18473
H	2.17756	-0.0630594	1.48978
N	-0.546797	2.46104	-0.181299
C	-1.13197	3.43349	-1.07466
H	-0.310745	2.75377	0.739385
H	-1.23463	4.41941	-0.570015
H	-2.14265	3.10312	-1.4073
H	-0.497095	3.56735	-1.98028
C	6.72405	-2.26647	2.39006
C	6.17869	-0.946657	2.00041
O	5.75591	-0.163611	2.83977
H	6.65305	-2.38199	3.49345
H	7.78972	-2.3444	2.08838
H	6.14256	-3.07898	1.90552
N	6.17447	-0.668282	0.694706
C	5.63643	0.557459	0.15933
C	5.1402	0.281486	-1.2475
O	5.38019	-0.789765	-1.80115
H	6.48421	-1.33239	0.0202561
H	4.78053	0.859813	0.749775
C	6.70665	1.67089	0.147324
H	7.58042	1.36547	-0.466924
H	6.30071	2.62375	-0.249894
H	7.06106	1.85049	1.18582
N	4.42426	1.24596	-1.85844
C	3.90616	1.07072	-3.19524
H	4.23688	2.10448	-1.3927
H	3.34533	1.97429	-3.52123
H	3.21715	0.196237	-3.23796
H	4.73516	0.892687	-3.91788
