44
  This energy is -4.8256 and Call times are: 42500
C	-0.124748	-1.32641	-3.21524
C	-0.779295	-0.801484	-1.99575
O	-1.97442	-0.540952	-1.98102
H	-0.876034	-1.40378	-4.031
H	0.297874	-2.33422	-3.01913
H	0.6875	-0.641693	-3.53851
N	0.00437674	-0.630052	-0.928577
C	-0.479367	-0.0871881	0.316353
C	0.675253	0.613706	1.00712
O	1.8228	0.509139	0.578249
H	0.983482	-0.807945	-0.968249
H	-1.2343	0.661316	0.11031
C	-1.05372	-1.20175	1.21808
H	-0.276671	-1.96443	1.43841
H	-1.44212	-0.79456	2.17405
H	-1.89185	-1.70611	0.689405
N	0.394519	1.35659	2.09585
C	1.42802	2.06413	2.81518
H	-0.540769	1.43243	2.42533
H	0.997762	2.61713	3.67906
H	1.93879	2.79689	2.14926
H	2.19543	1.35417	3.20014
C	9.35086	-1.91699	-0.151435
C	7.95527	-1.63106	-0.553612
O	7.43287	-2.22042	-1.48965
H	9.77751	-2.68849	-0.828641
H	9.37819	-2.29884	0.890769
H	9.96631	-0.99553	-0.22355
N	7.31155	-0.701745	0.156585
C	5.96413	-0.284928	-0.142196
C	5.80304	1.15429	0.309773
O	6.67684	1.70701	0.975112
H	7.76359	-0.201524	0.889593
H	5.8134	-0.305122	-1.21434
C	4.93566	-1.19337	0.566489
H	5.08312	-1.1648	1.66716
H	3.89415	-0.891144	0.333184
H	5.0772	-2.24259	0.226714
N	4.67705	1.80072	-0.051181
C	4.43901	3.17382	0.328422
H	3.98332	1.33799	-0.593122
H	3.45942	3.52602	-0.0635065
H	5.23738	3.83726	-0.0762166
H	4.4316	3.27939	1.43745
