44
  This energy is 0.1021 and Call times are: 47207
C	1.7074	3.0302	-0.123841
C	1.43774	1.66476	-0.627814
O	1.89844	1.28113	-1.69412
H	2.33702	3.57572	-0.859961
H	2.248	2.98084	0.844694
H	0.754009	3.58285	0.0129597
N	0.669656	0.88933	0.141037
C	0.284776	-0.447884	-0.236171
C	-1.05333	-0.754805	0.409442
O	-1.5401	0.00710699	1.24267
H	0.268408	1.22963	0.98665
H	0.142479	-0.489483	-1.30886
C	1.34905	-1.47464	0.209177
H	1.48781	-1.43972	1.3108
H	1.07086	-2.50661	-0.0877481
H	2.32162	-1.22594	-0.268953
N	-1.68652	-1.88236	0.0303431
C	-2.96677	-2.25378	0.586393
H	-1.27868	-2.48419	-0.648288
H	-3.32282	-3.21206	0.148041
H	-3.72864	-1.46823	0.377234
H	-2.89415	-2.37885	1.69103
C	8.96523	-2.55436	0.948566
C	8.70229	-1.20939	0.389051
O	9.61141	-0.412248	0.203352
H	10.052	-2.65915	1.15762
H	8.66192	-3.33713	0.221909
H	8.40221	-2.69152	1.89581
N	7.42948	-0.922938	0.105714
C	7.01246	0.359707	-0.403666
C	5.58352	0.604304	0.0433984
O	4.93022	-0.288043	0.580645
H	6.69548	-1.56722	0.300653
H	7.62569	1.1357	0.0372343
C	7.11229	0.400433	-1.94432
H	6.47515	-0.388698	-2.39749
H	6.80704	1.38765	-2.34774
H	8.16474	0.211109	-2.24902
N	5.06536	1.83119	-0.162204
C	3.71573	2.15803	0.235104
H	5.61086	2.54141	-0.594738
H	3.47598	3.21418	-0.0184761
H	3.58605	2.0232	1.33342
H	2.98278	1.49785	-0.282671
