44
  This energy is -3.7515 and Call times are: 45071
C	0.707834	0.169919	3.40335
C	0.356616	-0.588408	2.18158
O	0.389418	-1.81112	2.16416
H	0.995493	-0.541841	4.20742
H	-0.162926	0.767132	3.74665
H	1.56369	0.847687	3.20028
N	0.0089861	0.13408	1.11408
C	-0.31744	-0.460042	-0.158326
C	0.0309242	0.535737	-1.24857
O	0.351056	1.68943	-0.968893
H	0.0265865	1.12969	1.13164
H	0.300031	-1.33618	-0.312399
C	-1.81443	-0.834021	-0.224762
H	-2.44831	0.066243	-0.0772626
H	-2.07539	-1.30511	-1.19455
H	-2.04839	-1.55724	0.586755
N	-0.015699	0.106872	-2.52525
C	0.304682	0.981947	-3.62878
H	-0.272991	-0.831403	-2.73144
H	0.208257	0.444378	-4.59778
H	1.349	1.35982	-3.54004
H	-0.380117	1.86054	-3.64534
C	6.92663	-1.45708	-2.38271
C	5.71415	-1.46086	-1.53357
O	4.82367	-2.28183	-1.70526
H	6.84659	-2.26619	-3.14085
H	7.8295	-1.63476	-1.76142
H	7.02423	-0.48259	-2.90608
N	5.65197	-0.524813	-0.583656
C	4.51665	-0.375392	0.292285
C	4.42689	1.08146	0.705911
O	5.33002	1.87017	0.433867
H	6.36597	0.162115	-0.482742
H	3.61138	-0.612349	-0.252668
C	4.65462	-1.2833	1.53402
H	5.57775	-1.03351	2.09924
H	3.77994	-1.18763	2.20953
H	4.72666	-2.34365	1.20718
N	3.32296	1.47585	1.37061
C	3.14724	2.8438	1.79959
H	2.60109	0.823954	1.57798
H	2.17674	2.96848	2.32857
H	3.16117	3.53443	0.925452
H	3.96568	3.1468	2.49203
