44
  This energy is -5.662 and Call times are: 47288
C	1.74412	1.17325	2.77384
C	0.771422	1.35585	1.67309
O	0.0401541	2.33557	1.6306
H	1.65708	2.02277	3.48561
H	2.77818	1.14697	2.37037
H	1.53505	0.227115	3.31626
N	0.740082	0.397817	0.743814
C	-0.182445	0.414366	-0.36399
C	-0.458089	-1.02075	-0.771428
O	0.194181	-1.94729	-0.294157
H	1.31287	-0.413884	0.814003
H	-1.1222	0.843842	-0.0398906
C	0.396709	1.21291	-1.55233
H	1.35553	0.766441	-1.892
H	-0.31013	1.2447	-2.40667
H	0.598104	2.25758	-1.22915
N	-1.44409	-1.23903	-1.66372
C	-1.78147	-2.57183	-2.10647
H	-1.96352	-0.47683	-2.03562
H	-2.61768	-2.54286	-2.83936
H	-2.09286	-3.20506	-1.24431
H	-0.90512	-3.05796	-2.59312
C	3.67381	2.88357	-1.42794
C	4.21948	1.51131	-1.52952
O	4.1454	0.876236	-2.5724
H	3.21452	3.16901	-2.39924
H	4.48628	3.60182	-1.18972
H	2.89678	2.92875	-0.635944
N	4.78739	1.01543	-0.427718
C	5.32428	-0.320867	-0.359671
C	5.22336	-0.798565	1.07671
O	4.89931	-0.025512	1.97621
H	4.80359	1.52904	0.425392
H	4.71469	-0.981908	-0.963033
C	6.79235	-0.350628	-0.838323
H	7.42017	0.319324	-0.212983
H	7.21282	-1.37656	-0.80376
H	6.84326	0.0103513	-1.88877
N	5.49248	-2.09552	1.3247
C	5.41707	-2.64128	2.65985
H	5.74904	-2.70655	0.583147
H	5.67342	-3.72364	2.65733
H	4.38929	-2.52551	3.07403
H	6.12481	-2.11471	3.34027
