44
  This energy is -3.1313 and Call times are: 47857
C	-1.42364	-2.57184	-1.86322
C	-0.436493	-1.48314	-1.68595
O	0.500535	-1.34605	-2.46029
H	-1.14249	-3.18192	-2.74902
H	-2.43653	-2.14725	-2.0261
H	-1.43717	-3.22598	-0.96599
N	-0.627687	-0.672836	-0.642293
C	0.272412	0.404849	-0.315219
C	0.209882	0.635119	1.18299
O	-0.637449	0.0704723	1.87213
H	-1.37178	-0.822021	0.00263224
H	1.28621	0.108472	-0.553987
C	-0.109038	1.6928	-1.07739
H	-1.14531	2.00316	-0.824712
H	0.585007	2.52625	-0.844601
H	-0.0642101	1.4988	-2.17133
N	1.118	1.46984	1.72575
C	1.13905	1.74546	3.14341
H	1.79839	1.91421	1.15244
H	1.95851	2.45462	3.39404
H	1.29753	0.807603	3.72357
H	0.173708	2.19498	3.47081
C	6.94057	1.50608	-3.13444
C	7.54152	1.16036	-1.82658
O	8.73307	1.33472	-1.61157
H	7.73161	1.89826	-3.80994
H	6.16099	2.2857	-3.00328
H	6.48712	0.604418	-3.59754
N	6.71519	0.65149	-0.909728
C	7.16128	0.227405	0.394003
C	6.24078	-0.879806	0.871844
O	5.21306	-1.15439	0.255314
H	5.756	0.477359	-1.11342
H	8.15589	-0.192897	0.311999
C	7.15231	1.407	1.39086
H	6.13004	1.8318	1.48331
H	7.507	1.09631	2.39495
H	7.8263	2.20848	1.0171
N	6.59555	-1.55099	1.98524
C	5.78455	-2.62395	2.51174
H	7.43294	-1.31703	2.46807
H	6.24416	-3.04976	3.4308
H	5.67914	-3.44105	1.76173
H	4.76443	-2.25646	2.76757
