44
  This energy is -2.2037 and Call times are: 42105
C	-1.41563	-0.0780335	3.17846
C	-1.5048	-0.224506	1.70817
O	-2.49131	-0.718664	1.17996
H	-2.3365	-0.490401	3.64517
H	-1.32365	0.994259	3.45135
H	-0.536261	-0.634579	3.56584
N	-0.45607	0.207653	1.00405
C	-0.378244	0.0929989	-0.430995
C	1.08481	-0.011216	-0.8185
O	1.9713	0.173187	0.0132787
H	0.356848	0.570027	1.45095
H	-0.860672	-0.825007	-0.7427
C	-1.035	1.31028	-1.11812
H	-0.53362	2.25141	-0.806809
H	-0.993803	1.22712	-2.22352
H	-2.10277	1.37148	-0.814012
N	1.3722	-0.319871	-2.09841
C	2.73577	-0.446047	-2.55768
H	0.641173	-0.469488	-2.7559
H	2.76415	-0.704578	-3.63915
H	3.26834	-1.24479	-1.9923
H	3.29002	0.509114	-2.41064
C	6.11301	1.84756	-2.94817
C	6.65191	1.57435	-1.59684
O	7.66146	2.13466	-1.19277
H	6.77017	2.58076	-3.46432
H	5.08988	2.27225	-2.87349
H	6.08174	0.911151	-3.54419
N	5.97918	0.689455	-0.857395
C	6.40499	0.288839	0.460461
C	5.91648	-1.12639	0.705522
O	5.13933	-1.66887	-0.0777163
H	5.18243	0.211124	-1.21552
H	7.4871	0.267079	0.495001
C	5.84801	1.24769	1.53545
H	4.73758	1.26236	1.50743
H	6.18028	0.95787	2.55335
H	6.21175	2.27849	1.33175
N	6.37106	-1.76363	1.80247
C	5.96536	-3.11424	2.1146
H	7.00262	-1.30964	2.42222
H	6.44654	-3.46196	3.05523
H	6.25486	-3.81074	1.29462
H	4.86032	-3.1729	2.24334
