44
  This energy is -4.1279 and Call times are: 46225
C	0.705243	3.29774	-0.860372
C	0.490512	1.87626	-1.21314
O	0.364997	1.5252	-2.37822
H	0.707047	3.91019	-1.78816
H	1.68161	3.42121	-0.346356
H	-0.109806	3.65446	-0.19589
N	0.440601	1.01332	-0.195684
C	0.195095	-0.395591	-0.378048
C	-0.481638	-0.923575	0.87288
O	-0.58111	-0.223156	1.87848
H	0.503535	1.31974	0.749839
H	-0.494834	-0.534385	-1.20107
C	1.51333	-1.15562	-0.642377
H	2.21745	-1.0222	0.206417
H	1.33604	-2.2395	-0.798228
H	1.99514	-0.747403	-1.55756
N	-0.973206	-2.17778	0.835898
C	-1.63829	-2.76293	1.97671
H	-0.886734	-2.72765	0.011742
H	-1.97083	-3.79964	1.74898
H	-2.53272	-2.16237	2.2606
H	-0.953751	-2.799	2.85492
C	5.51318	1.55871	3.10447
C	5.37373	1.60178	1.63143
O	5.06753	2.63614	1.05456
H	5.28335	2.56195	3.52464
H	6.55182	1.28192	3.38261
H	4.80586	0.818445	3.53433
N	5.59723	0.457808	0.980461
C	5.45823	0.332801	-0.449087
C	5.08023	-1.10233	-0.763847
O	5.10323	-1.966	0.110946
H	5.80559	-0.385614	1.46737
H	4.64356	0.962072	-0.785164
C	6.77078	0.716873	-1.16668
H	7.60466	0.06467	-0.830026
H	6.67228	0.638017	-2.26877
H	7.03223	1.76806	-0.915707
N	4.7129	-1.38924	-2.02827
C	4.33126	-2.72616	-2.41964
H	4.69658	-0.676108	-2.72127
H	4.06303	-2.75859	-3.49864
H	3.45202	-3.07232	-1.82939
H	5.1677	-3.44087	-2.24444
