44
  This energy is -3.3541 and Call times are: 48848
C	-2.09503	-2.74186	-0.453583
C	-1.85901	-1.33095	-0.0731022
O	-2.79114	-0.559725	0.107867
H	-3.18853	-2.91908	-0.546985
H	-1.68592	-3.42134	0.32339
H	-1.61084	-2.96144	-1.42849
N	-0.584083	-0.956512	0.0563035
C	-0.195756	0.393758	0.379616
C	1.17247	0.649736	-0.223696
O	1.82451	-0.26799	-0.718009
H	0.16457	-1.58506	-0.134265
H	-0.887593	1.08535	-0.0848148
C	-0.161683	0.606837	1.90889
H	0.555743	-0.0952828	2.38467
H	0.122566	1.6467	2.17046
H	-1.17108	0.40637	2.32994
N	1.63775	1.91432	-0.204281
C	2.92691	2.25404	-0.760012
H	1.09381	2.64414	0.196418
H	3.12899	3.3421	-0.648173
H	2.96668	1.9998	-1.84401
H	3.73813	1.69164	-0.243522
C	6.32445	2.58627	2.32772
C	6.28844	2.08445	0.935582
O	5.97983	2.81758	0.0062328
H	6.02234	3.65604	2.34044
H	7.35162	2.49798	2.73988
H	5.62086	2.00659	2.96176
N	6.60673	0.799918	0.759361
C	6.57531	0.157548	-0.530959
C	6.2828	-1.31588	-0.318787
O	6.28064	-1.80122	0.810877
H	6.81603	0.205367	1.53044
H	5.76029	0.567473	-1.11432
C	7.91784	0.341857	-1.27183
H	8.75295	-0.0879184	-0.678582
H	7.90149	-0.136507	-2.27254
H	8.11528	1.42746	-1.40903
N	6.01905	-2.06417	-1.40806
C	5.72413	-3.4742	-1.30315
H	6.0214	-1.65264	-2.31343
H	5.535	-3.91224	-2.30793
H	4.82084	-3.6407	-0.672572
H	6.57598	-4.02032	-0.837042
