44
  This energy is 0.1052 and Call times are: 43750
C	-3.23115	1.27124	-0.237322
C	-2.25117	0.291351	0.282872
O	-2.54548	-0.479973	1.18556
H	-4.18368	1.17328	0.327448
H	-3.42971	1.07984	-1.31281
H	-2.84328	2.3041	-0.111355
N	-1.04257	0.302564	-0.284162
C	0.0287793	-0.562132	0.143714
C	1.34428	0.135677	-0.146241
O	1.37518	1.17203	-0.807105
H	-0.805214	0.963969	-0.989905
H	-0.0322573	-0.702931	1.21567
C	-0.0350875	-1.92199	-0.585624
H	0.0380976	-1.77891	-1.68481
H	0.776534	-2.60186	-0.254606
H	-1.00914	-2.41105	-0.365622
N	2.46802	-0.416192	0.352426
C	3.76498	0.180254	0.132548
H	2.42241	-1.25278	0.888255
H	4.56247	-0.421076	0.622076
H	3.79838	1.21267	0.550009
H	3.99011	0.24092	-0.956844
C	3.68847	0.9015	-0.0126792
C	4.79844	0.00370779	-0.40394
O	4.58095	-1.08501	-0.917562
H	2.71897	0.410312	-0.246466
H	3.75233	1.85659	-0.575236
H	3.73165	1.11095	1.07697
N	6.03414	0.44799	-0.163022
C	7.21345	-0.330501	-0.448917
C	8.30089	0.0833772	0.524605
O	8.15031	1.05687	1.26036
H	6.19414	1.31875	0.293079
H	7.00225	-1.3775	-0.270554
C	7.67883	-0.11236	-1.90531
H	7.90573	0.960009	-2.08583
H	8.57817	-0.717107	-2.14196
H	6.86471	-0.41425	-2.59985
N	9.42618	-0.657364	0.556948
C	10.5128	-0.342632	1.45497
H	9.52788	-1.44387	-0.0431717
H	11.3474	-1.06755	1.33173
H	10.17	-0.379631	2.51442
H	10.9045	0.68081	1.25443
