44
  This energy is -3.1686 and Call times are: 48370
C	-0.521363	2.48111	-2.38431
C	-0.422179	1.05984	-1.98272
O	-0.77299	0.162971	-2.73703
H	-0.956632	2.54479	-3.40527
H	0.486218	2.94742	-2.39348
H	-1.17755	3.03322	-1.67884
N	0.0646667	0.820418	-0.762871
C	0.180966	-0.508245	-0.215434
C	0.0667011	-0.409504	1.29412
O	0.0680416	0.684321	1.8556
H	0.307683	1.56264	-0.144882
H	-0.648376	-1.11163	-0.562919
C	1.52561	-1.15405	-0.615587
H	2.37684	-0.540913	-0.250209
H	1.62123	-2.18274	-0.211631
H	1.5909	-1.20883	-1.72423
N	-0.0440587	-1.55863	1.9893
C	-0.16323	-1.56279	3.42873
H	-0.0473721	-2.43378	1.51689
H	-0.243654	-2.60325	3.81367
H	-1.06934	-0.999423	3.74946
H	0.725829	-1.0828	3.89812
C	4.47423	3.03744	-1.48487
C	5.16484	2.23934	-0.446962
O	5.99759	2.74656	0.291737
H	4.85439	4.08177	-1.4586
H	3.38042	3.04825	-1.29454
H	4.67003	2.60892	-2.49041
N	4.82942	0.949441	-0.369264
C	5.44615	0.0368856	0.561029
C	5.40322	-1.35442	-0.0422896
O	4.76001	-1.5773	-1.06616
H	4.17975	0.541731	-1.00452
H	6.48856	0.302898	0.684518
C	4.71652	0.0596472	1.92204
H	3.64957	-0.223424	1.79742
H	5.19047	-0.62871	2.65146
H	4.75355	1.08888	2.34113
N	6.09938	-2.32696	0.578631
C	6.12186	-3.68023	0.0743412
H	6.61712	-2.12633	1.40372
H	6.74909	-4.3311	0.722552
H	6.53909	-3.7077	-0.958345
H	5.09238	-4.10484	0.0421445
