44
  This energy is -1.4183 and Call times are: 50152
C	-0.0401359	-0.932618	-3.3528
C	0.095459	0.082498	-2.28402
O	0.500839	1.21018	-2.52983
H	0.29121	-0.494737	-4.31942
H	-1.09986	-1.2503	-3.44667
H	0.591605	-1.81657	-3.1234
N	-0.244872	-0.303648	-1.05218
C	-0.126358	0.558628	0.0971688
C	0.104303	-0.310712	1.31889
O	-0.000692852	-1.53382	1.25042
H	-0.534241	-1.23724	-0.861016
H	0.745565	1.19029	-0.0185322
C	-1.39743	1.4175	0.275911
H	-2.29075	0.769957	0.405199
H	-1.31292	2.09574	1.14962
H	-1.55094	2.0394	-0.632945
N	0.434612	0.305084	2.47115
C	0.678356	-0.440657	3.68385
H	0.518807	1.29543	2.50584
H	0.936503	0.24416	4.52147
H	1.52146	-1.15519	3.54281
H	-0.224607	-1.02509	3.97408
C	6.48602	-1.8263	-2.86978
C	6.79565	-0.76531	-1.8851
O	7.88749	-0.21387	-1.87103
H	7.37689	-2.00397	-3.51059
H	5.63663	-1.51495	-3.51348
H	6.22602	-2.77034	-2.34608
N	5.82444	-0.453231	-1.02385
C	5.99118	0.528149	0.0190484
C	5.07825	0.153565	1.17135
O	4.24586	-0.743094	1.04955
H	4.95529	-0.939475	-1.02143
H	7.00865	0.488436	0.387567
C	5.65732	1.94468	-0.497878
H	4.61025	1.98872	-0.866335
H	5.79524	2.71111	0.292108
H	6.33202	2.19446	-1.34566
N	5.2203	0.831299	2.32743
C	4.39957	0.540553	3.47983
H	5.90221	1.55073	2.40803
H	4.66816	1.20387	4.33136
H	4.5363	-0.516965	3.8027
H	3.32161	0.692614	3.24312
