44
  This energy is 0.2632 and Call times are: 50602
C	0.872767	3.3435	-0.414667
C	1.02103	1.90762	-0.742393
O	1.67981	1.54316	-1.70654
H	1.41807	3.95073	-1.16951
H	1.29745	3.55266	0.589644
H	-0.199824	3.6306	-0.429325
N	0.39836	1.04697	0.0662749
C	0.414748	-0.378487	-0.149015
C	-0.86211	-0.958869	0.429211
O	-1.61754	-0.266345	1.10851
H	-0.167823	1.36082	0.823112
H	0.407339	-0.57916	-1.21311
C	1.65152	-1.02253	0.514954
H	1.65405	-0.825897	1.60828
H	1.68288	-2.11819	0.344496
H	2.57395	-0.577213	0.082344
N	-1.13785	-2.251	0.163896
C	-2.33267	-2.88769	0.667099
H	-0.516466	-2.79407	-0.391112
H	-2.37939	-3.95003	0.340801
H	-3.24314	-2.3658	0.292998
H	-2.35277	-2.86151	1.78067
C	5.34309	1.00656	3.1758
C	6.38829	0.619513	2.20169
O	7.57561	0.773918	2.45241
H	5.82515	1.43962	4.07909
H	4.75132	0.116398	3.47608
H	4.66707	1.7664	2.73003
N	5.96141	0.100995	1.04787
C	6.85718	-0.282898	-0.0145685
C	6.11706	-0.141916	-1.33135
O	4.90888	0.0850526	-1.35356
H	4.99045	0.0194695	0.841861
H	7.6951	0.402549	-0.0405135
C	7.35022	-1.73394	0.176798
H	6.49168	-2.4387	0.192922
H	8.0516	-2.03674	-0.627503
H	7.88174	-1.8156	1.15002
N	6.83207	-0.265808	-2.46688
C	6.21424	-0.141606	-3.76651
H	7.8095	-0.445354	-2.42859
H	6.96727	-0.274654	-4.57427
H	5.74702	0.862868	-3.88493
H	5.4186	-0.910158	-3.89855
