44
  This energy is -2.1152 and Call times are: 49574
C	0.680651	-0.504848	-3.37558
C	0.0244027	-0.891717	-2.1064
O	-0.837976	-1.75885	-2.07837
H	0.247829	-1.0997	-4.20906
H	1.77118	-0.705631	-3.31925
H	0.513656	0.573878	-3.57943
N	0.424296	-0.243513	-1.00991
C	-0.151629	-0.47967	0.290515
C	-0.0340891	0.798599	1.09907
O	0.626512	1.74846	0.68304
H	1.0981	0.488481	-1.05502
H	-1.207	-0.695525	0.179957
C	0.566686	-1.64285	1.00904
H	1.64744	-1.41733	1.13212
H	0.123335	-1.84359	2.00586
H	0.474658	-2.56579	0.395785
N	-0.684207	0.854657	2.27815
C	-0.634586	2.03193	3.11347
H	-1.21703	0.0773999	2.59603
H	-1.23236	1.88254	4.03952
H	-1.04289	2.91557	2.5715
H	0.415296	2.26173	3.40686
C	6.06332	-0.995155	3.10649
C	6.03354	-1.08508	1.62927
O	6.88136	-1.71921	1.01649
H	6.94337	-1.55517	3.49087
H	5.14005	-1.43814	3.53554
H	6.14596	0.0658014	3.42369
N	5.03979	-0.438667	1.01528
C	4.90331	-0.398412	-0.419404
C	4.20034	0.893439	-0.791586
O	3.70827	1.61466	0.0740968
H	4.38094	0.107071	1.52513
H	5.88708	-0.372062	-0.871218
C	4.1044	-1.61671	-0.931987
H	3.09129	-1.63834	-0.476812
H	4.00435	-1.60446	-2.03669
H	4.633	-2.5508	-0.641482
N	4.1444	1.22104	-2.09756
C	3.50066	2.43385	-2.54573
H	4.55195	0.626734	-2.78296
H	3.5598	2.5245	-3.65276
H	3.98909	3.32769	-2.09432
H	2.42658	2.44112	-2.25002
