44
  This energy is -4.0964 and Call times are: 42711
C	-1.98095	-2.84448	-0.312178
C	-1.40343	-1.59293	-0.851839
O	-1.48724	-1.31834	-2.04095
H	-2.44027	-3.42466	-1.14181
H	-2.7638	-2.61158	0.43992
H	-1.18649	-3.46008	0.160008
N	-0.791984	-0.79455	0.0262836
C	-0.144831	0.435814	-0.355758
C	0.982032	0.701728	0.624561
O	1.10771	0.0195844	1.63974
H	-0.696123	-1.05125	0.983772
H	0.301271	0.315654	-1.33514
C	-1.14866	1.60951	-0.3582
H	-1.59877	1.73992	0.648991
H	-0.665451	2.55999	-0.664183
H	-1.96849	1.38976	-1.07648
N	1.83823	1.70179	0.336749
C	2.94405	2.02439	1.2081
H	1.72261	2.23998	-0.491534
H	3.53188	2.87541	0.798895
H	3.62484	1.14947	1.31913
H	2.57673	2.30675	2.22126
C	6.24877	2.34009	-2.52744
C	5.64402	1.09351	-2.00641
O	4.75804	0.515085	-2.62031
H	5.75772	2.61355	-3.48658
H	7.33413	2.1922	-2.70873
H	6.10491	3.16779	-1.80129
N	6.1167	0.64683	-0.840465
C	5.59825	-0.528819	-0.186539
C	5.79413	-0.363509	1.30875
O	6.46217	0.566066	1.75743
H	6.80946	1.15083	-0.332609
H	4.53265	-0.597155	-0.36666
C	6.31515	-1.80109	-0.68917
H	7.407	-1.73603	-0.495091
H	5.91526	-2.71457	-0.203218
H	6.16512	-1.89753	-1.78668
N	5.20457	-1.26376	2.1199
C	5.33088	-1.18358	3.55648
H	4.66454	-2.00663	1.73832
H	4.77491	-2.01272	4.04704
H	4.92361	-0.217426	3.93327
H	6.40039	-1.24972	3.86132
