44
  This energy is 0.1488 and Call times are: 45015
C	-3.43623	0.550501	-0.0438893
C	-2.22371	-0.0740123	0.531349
O	-2.25804	-0.645077	1.61261
H	-4.28717	0.416147	0.658778
H	-3.69084	0.0711222	-1.01245
H	-3.26887	1.63681	-0.202043
N	-1.10546	0.0249482	-0.191229
C	0.162343	-0.495155	0.256789
C	1.26358	0.344543	-0.362673
O	1.00809	1.17733	-1.23038
H	-1.08409	0.528352	-1.05029
H	0.235577	-0.38138	1.33118
C	0.322494	-1.97834	-0.142906
H	0.257979	-2.09426	-1.24583
H	1.28893	-2.39431	0.208523
H	-0.498332	-2.57249	0.314891
N	2.52194	0.149214	0.0782542
C	3.6336	0.905878	-0.44887
H	2.70831	-0.526334	0.783926
H	4.58457	0.600393	0.0405735
H	3.48434	1.99616	-0.274836
H	3.7354	0.742187	-1.54613
C	2.82239	-0.419064	-2.30067
C	3.31955	-0.255702	-0.916002
O	2.55151	-0.0369988	0.0106564
H	1.71795	-0.292807	-2.31164
H	3.07208	-1.43227	-2.67989
H	3.27818	0.34626	-2.96369
N	4.63946	-0.357947	-0.743432
C	5.27553	-0.18008	0.538102
C	6.68176	0.33725	0.30044
O	7.15427	0.378601	-0.833901
H	5.25565	-0.495481	-1.51366
H	4.74336	0.578174	1.09887
C	5.31308	-1.50875	1.32453
H	5.86802	-2.28397	0.754325
H	5.7881	-1.38188	2.3189
H	4.27399	-1.87272	1.47993
N	7.384	0.754422	1.37228
C	8.72785	1.26763	1.24242
H	6.98315	0.717051	2.28167
H	9.13537	1.55862	2.23564
H	8.74381	2.16389	0.580813
H	9.401	0.498861	0.79857
