44
  This energy is 0.1133 and Call times are: 43832
C	-3.25224	-1.09428	0.581535
C	-2.24173	-0.388222	-0.237915
O	-2.49205	-0.0283413	-1.37995
H	-4.18103	-1.22709	-0.0147776
H	-3.49005	-0.501907	1.48999
H	-2.87163	-2.09349	0.881206
N	-1.05617	-0.173425	0.337142
C	0.0407457	0.462624	-0.348988
C	1.33598	-0.0624146	0.24115
O	1.32943	-0.761499	1.25256
H	-0.853877	-0.50856	1.25291
H	0.0228344	0.176705	-1.39329
C	-0.0357243	1.99857	-0.206631
H	-0.00675388	2.29299	0.864123
H	0.795819	2.50062	-0.74236
H	-0.994877	2.3598	-0.637778
N	2.48441	0.258056	-0.386887
C	3.76498	-0.200783	0.0986957
H	2.46913	0.821386	-1.20634
H	4.58763	0.167373	-0.553167
H	3.80269	-1.31414	0.11551
H	3.9471	0.166494	1.13459
C	8.02064	0.643808	1.77992
C	7.30238	0.326173	0.52518
O	7.86783	0.377822	-0.558343
H	9.06867	0.927706	1.5414
H	8.03171	-0.24195	2.44929
H	7.52755	1.4928	2.29871
N	6.01689	-0.0131004	0.646816
C	5.17633	-0.307527	-0.486903
C	3.74709	0.0452643	-0.120328
O	3.44826	0.34278	1.03461
H	5.55981	-0.0109188	1.53165
H	5.46203	0.32583	-1.31748
C	5.28247	-1.79723	-0.880294
H	4.97939	-2.44724	-0.031958
H	4.65039	-2.03352	-1.76072
H	6.338	-2.03477	-1.13677
N	2.82673	0.0281378	-1.10453
C	1.44286	0.355017	-0.851093
H	3.0885	-0.211153	-2.03366
H	0.844454	0.284216	-1.78604
H	1.35058	1.39173	-0.453602
H	1.00524	-0.342613	-0.100797
