44
  This energy is -4.8106 and Call times are: 49766
C	-2.895	-1.9115	0.278934
C	-1.58422	-1.61444	-0.341334
O	-1.04623	-2.41194	-1.09697
H	-3.23452	-2.91939	-0.0447299
H	-3.64777	-1.15961	-0.0384677
H	-2.80589	-1.90059	1.38575
N	-1.03188	-0.440105	-0.0279208
C	0.259847	-0.0289074	-0.518766
C	0.876813	0.909174	0.501485
O	0.218862	1.32547	1.45307
H	-1.46272	0.180793	0.620713
H	0.905955	-0.894736	-0.593033
C	0.131962	0.670586	-1.88975
H	-0.522311	1.56495	-1.81182
H	1.12138	0.979637	-2.28481
H	-0.329035	-0.0314966	-2.61839
N	2.16691	1.25871	0.329722
C	2.83997	2.14243	1.25288
H	2.68405	0.908348	-0.444152
H	3.89447	2.3085	0.940365
H	2.8427	1.7098	2.27957
H	2.32707	3.13047	1.29596
C	7.08461	3.08586	0.281443
C	6.37592	2.05177	-0.505676
O	5.97048	2.28404	-1.6362
H	7.14223	4.024	-0.312222
H	8.11492	2.74691	0.518785
H	6.53654	3.2909	1.22518
N	6.2067	0.867347	0.0866901
C	5.49895	-0.223308	-0.536289
C	4.88576	-1.07596	0.558499
O	5.16841	-0.883406	1.73949
H	6.50619	0.706398	1.02278
H	4.68506	0.172338	-1.131
C	6.44906	-1.06851	-1.41274
H	7.27839	-1.48331	-0.801038
H	5.91306	-1.90338	-1.90894
H	6.89225	-0.4226	-2.20187
N	4.01924	-2.03965	0.189084
C	3.38207	-2.89655	1.16165
H	3.79995	-2.17756	-0.771108
H	2.70509	-3.62371	0.661489
H	2.78032	-2.29492	1.88083
H	4.14331	-3.46728	1.74125
