44
  This energy is -1.1088 and Call times are: 49173
C	-1.2215	-0.640437	-3.19538
C	-0.117653	-0.323523	-2.26145
O	1.05035	-0.374324	-2.62146
H	-0.797094	-0.923009	-4.18326
H	-1.87813	0.245238	-3.3264
H	-1.8207	-1.49011	-2.80537
N	-0.470135	0.0141468	-1.01883
C	0.492566	0.307687	0.0134498
C	-0.126579	-0.0469206	1.35228
O	-1.31643	-0.344963	1.43672
H	-1.4231	0.0112784	-0.729499
H	1.36137	-0.325204	-0.117913
C	0.898138	1.79758	-0.017945
H	0.00872244	2.4471	0.127316
H	1.6495	2.03321	0.763372
H	1.34139	2.03646	-1.00931
N	0.674726	-0.0307955	2.43564
C	0.175052	-0.359425	3.75037
H	1.63581	0.208937	2.34669
H	0.986189	-0.289232	4.50823
H	-0.232205	-1.3963	3.76792
H	-0.642323	0.337564	4.04575
C	4.62231	1.45574	0.459523
C	6.07951	1.39128	0.71168
O	6.66592	2.30657	1.27274
H	4.22704	2.42442	0.835361
H	4.10546	0.627328	0.988061
H	4.41885	1.38291	-0.629683
N	6.70608	0.289282	0.292881
C	8.12894	0.100656	0.428655
C	8.59508	-0.806584	-0.694376
O	7.78379	-1.37579	-1.42205
H	6.22231	-0.429108	-0.198787
H	8.62913	1.05281	0.302822
C	8.47521	-0.515696	1.80177
H	7.97071	-1.49745	1.92705
H	9.56915	-0.653049	1.92399
H	8.1179	0.161049	2.60843
N	9.92319	-0.956101	-0.867001
C	10.4597	-1.7951	-1.91312
H	10.5641	-0.48409	-0.270705
H	11.5718	-1.78755	-1.89176
H	10.126	-1.43686	-2.91391
H	10.1136	-2.84683	-1.78985
