44
  This energy is -4.3284 and Call times are: 42670
C	-0.0472097	-3.4797	0.0465518
C	-0.682	-2.17134	-0.229838
O	-1.72673	-2.09555	-0.861662
H	-0.655408	-4.28781	-0.414896
H	0.0099119	-3.65363	1.14164
H	0.975209	-3.50794	-0.38583
N	-0.0518231	-1.09404	0.244172
C	-0.524395	0.249256	0.0188334
C	0.673625	1.17996	0.0284333
O	1.78344	0.774459	0.368435
H	0.819148	-1.16884	0.721331
H	-0.972204	0.310037	-0.965242
C	-1.54201	0.665328	1.10354
H	-1.07991	0.613274	2.1124
H	-1.92378	1.69283	0.933222
H	-2.40622	-0.034016	1.08358
N	0.476729	2.4566	-0.355575
C	1.55875	3.41296	-0.383591
H	-0.427712	2.765	-0.63116
H	1.19632	4.40687	-0.727091
H	2.36377	3.07509	-1.07574
H	2.00351	3.53309	0.630755
C	3.40623	-1.41787	-2.51479
C	4.46527	-0.49351	-2.05095
O	5.20967	0.065505	-2.84453
H	3.44712	-1.49682	-3.62291
H	2.40715	-1.03479	-2.2184
H	3.55996	-2.42661	-2.07673
N	4.55829	-0.311785	-0.73159
C	5.56582	0.524042	-0.127575
C	5.85511	-0.0127174	1.26159
O	5.15567	-0.896069	1.7537
H	3.97176	-0.805448	-0.0958787
H	6.48218	0.449028	-0.69966
C	5.09256	1.99228	-0.0530479
H	4.15822	2.07118	0.542621
H	5.8652	2.6484	0.397554
H	4.87913	2.36164	-1.07987
N	6.90593	0.506795	1.92634
C	7.26082	0.0543231	3.2513
H	7.46258	1.21802	1.50996
H	8.15277	0.601785	3.62805
H	7.49507	-1.03488	3.24477
H	6.41984	0.222317	3.9624
