44
  This energy is -3.4523 and Call times are: 49913
C	0.825785	3.0754	1.40451
C	0.221719	1.72637	1.4843
O	-0.125111	1.25054	2.55654
H	0.90323	3.50423	2.42725
H	0.192474	3.74211	0.782293
H	1.8427	3.01383	0.962718
N	0.0828028	1.06917	0.33054
C	-0.44849	-0.268846	0.253086
C	0.157972	-0.949083	-0.959777
O	0.82676	-0.311358	-1.77079
H	0.407439	1.4531	-0.529154
H	-0.136513	-0.828183	1.12627
C	-1.98908	-0.245415	0.146905
H	-2.3094	0.319327	-0.75448
H	-2.41123	-1.27019	0.100555
H	-2.41086	0.263829	1.04084
N	-0.0564208	-2.27129	-1.10753
C	0.485779	-3.00444	-2.22766
H	-0.596791	-2.77091	-0.438615
H	0.199557	-4.07778	-2.17077
H	1.59789	-2.93842	-2.23903
H	0.105517	-2.59046	-3.18951
C	6.99418	-0.863264	-2.91501
C	6.51339	0.135936	-1.9344
O	6.91255	1.29195	-1.96109
H	7.733	-0.385196	-3.59431
H	6.14497	-1.24555	-3.51953
H	7.48435	-1.7099	-2.38963
N	5.63146	-0.296601	-1.03024
C	5.10582	0.547335	0.0137998
C	4.75445	-0.330865	1.19992
O	4.7777	-1.55648	1.10488
H	5.34713	-1.25045	-0.995816
H	5.87628	1.23534	0.338855
C	3.86121	1.31988	-0.475467
H	3.06652	0.614378	-0.799177
H	3.45532	1.98377	0.315107
H	4.13986	1.94957	-1.34849
N	4.42669	0.28053	2.35525
C	4.08304	-0.473324	3.53837
H	4.41747	1.27328	2.4138
H	3.84487	0.208906	4.38399
H	4.92925	-1.12981	3.84537
H	3.19582	-1.11982	3.34859
