44
  This energy is -2.2172 and Call times are: 48145
C	-1.00264	-1.85263	-2.77041
C	-0.416682	-0.639925	-2.15628
O	0.147258	0.205226	-2.83753
H	-0.8184	-1.83484	-3.8666
H	-2.09787	-1.88168	-2.5905
H	-0.533569	-2.76337	-2.34192
N	-0.537757	-0.52797	-0.831447
C	0.0186106	0.574098	-0.0868265
C	0.337348	0.085675	1.31367
O	-0.0330952	-1.02352	1.69336
H	-0.963509	-1.24401	-0.285658
H	0.952602	0.878002	-0.542825
C	-0.969742	1.75972	-0.034955
H	-1.92426	1.45126	0.442311
H	-0.547362	2.61981	0.52395
H	-1.19483	2.09547	-1.07079
N	1.04437	0.905636	2.11605
C	1.39923	0.523816	3.46307
H	1.33877	1.79771	1.78954
H	1.97976	1.33159	3.96078
H	2.01945	-0.4017	3.4585
H	0.485662	0.324191	4.06862
C	5.67887	-2.69581	2.16837
C	4.85947	-1.63886	1.53387
O	3.64139	-1.62925	1.64619
H	5.01112	-3.41141	2.69551
H	6.37819	-2.24742	2.90501
H	6.25778	-3.24605	1.39689
N	5.52206	-0.711032	0.83926
C	4.85933	0.355303	0.130551
C	5.72836	0.751494	-1.04817
O	6.8671	0.30402	-1.16959
H	6.51015	-0.755387	0.722782
H	3.92133	-0.00999522	-0.268624
C	4.61828	1.56719	1.05709
H	5.58119	1.94889	1.45853
H	4.09614	2.38973	0.526701
H	3.98698	1.25226	1.91651
N	5.20399	1.59994	-1.95436
C	5.95466	2.02861	-3.11147
H	4.27931	1.9481	-1.84109
H	5.35169	2.72417	-3.73586
H	6.24236	1.15418	-3.73907
H	6.88744	2.55358	-2.80247
