44
  This energy is -1.6518 and Call times are: 42840
C	1.15393	3.21318	0.675712
C	0.95388	2.06552	-0.23752
O	1.15152	2.17155	-1.44006
H	1.47032	4.10094	0.0860848
H	1.94271	2.97668	1.42045
H	0.206686	3.45158	1.2039
N	0.547914	0.924234	0.323761
C	0.269413	-0.266056	-0.440573
C	-0.779425	-1.07118	0.30325
O	-1.12054	-0.760589	1.44294
H	0.351896	0.864789	1.29839
H	-0.156686	0.014343	-1.39579
C	1.55105	-1.10343	-0.644143
H	1.98275	-1.40026	0.33543
H	1.35241	-2.01571	-1.24315
H	2.30725	-0.491888	-1.18316
N	-1.32443	-2.12691	-0.332686
C	-2.33384	-2.9482	0.294035
H	-1.03847	-2.36008	-1.25623
H	-2.65616	-3.76483	-0.388932
H	-3.22821	-2.33844	0.557815
H	-1.94122	-3.40791	1.2298
C	4.61586	-2.55483	-2.12512
C	5.25755	-2.07437	-0.880717
O	5.53777	-2.84642	0.0258351
H	4.44634	-3.65104	-2.05135
H	5.27168	-2.35049	-2.99742
H	3.63818	-2.04906	-2.27144
N	5.50605	-0.764625	-0.808618
C	6.08681	-0.142909	0.355318
C	5.5978	1.29181	0.418822
O	4.97137	1.78565	-0.516817
H	5.23491	-0.142817	-1.53779
H	5.72848	-0.645509	1.24505
C	7.62933	-0.186939	0.292542
H	7.99793	0.33769	-0.614618
H	8.08831	0.276403	1.18985
H	7.96435	-1.2458	0.238603
N	5.86756	1.99548	1.536
C	5.43733	3.36581	1.68855
H	6.37214	1.57733	2.28409
H	5.75466	3.77013	2.67499
H	4.32771	3.43903	1.62032
H	5.87538	4.00659	0.889398
