44
  This energy is -3.7697 and Call times are: 46123
C	0.0294387	-2.47701	-2.44464
C	0.431773	-1.14845	-1.93062
O	1.30271	-0.492405	-2.48513
H	0.642479	-2.72628	-3.3379
H	-1.04198	-2.46635	-2.73566
H	0.193609	-3.25356	-1.66804
N	-0.203766	-0.717297	-0.838573
C	0.108052	0.53566	-0.197146
C	-0.216803	0.405062	1.27899
O	-0.815473	-0.579721	1.70737
H	-0.881634	-1.28054	-0.374767
H	1.17145	0.723463	-0.278023
C	-0.695915	1.69356	-0.828132
H	-1.78703	1.50643	-0.73604
H	-0.454319	2.66593	-0.352048
H	-0.448446	1.76547	-1.90977
N	0.181094	1.39922	2.09713
C	-0.0788713	1.35912	3.51734
H	0.667927	2.18605	1.7325
H	0.326185	2.26656	4.01705
H	0.396615	0.463315	3.97855
H	-1.17408	1.30902	3.71519
C	4.82339	-0.499337	3.4398
C	5.53656	-0.58458	2.14548
O	6.72764	-0.858951	2.0959
H	5.53859	-0.699234	4.26708
H	4.00925	-1.25327	3.47853
H	4.39358	0.515745	3.57376
N	4.81065	-0.344653	1.051
C	5.37411	-0.348296	-0.276048
C	4.55935	0.59722	-1.13844
O	3.50865	1.08171	-0.722481
H	3.8517	-0.0824024	1.11
H	6.384	0.0405303	-0.23641
C	5.36495	-1.77165	-0.875394
H	4.328	-2.1669	-0.926035
H	5.80902	-1.79005	-1.89175
H	5.96037	-2.448	-0.22396
N	5.03328	0.889593	-2.3656
C	4.32893	1.78384	-3.25464
H	5.88737	0.490949	-2.68292
H	4.87837	1.89688	-4.21515
H	4.21989	2.79175	-2.79256
H	3.30934	1.39409	-3.47747
