44
  This energy is 0.183 and Call times are: 50670
C	-3.16025	-1.45104	-0.141342
C	-2.26755	-0.290977	0.0788517
O	-2.71548	0.843355	0.17402
H	-4.21168	-1.09706	-0.212675
H	-3.07771	-2.16373	0.706006
H	-2.89016	-1.9678	-1.08638
N	-0.961576	-0.55482	0.163661
C	0.0335917	0.474416	0.333578
C	1.3262	-0.00882346	-0.296665
O	1.4415	-1.16921	-0.686425
H	-0.608565	-1.47827	0.0433051
H	-0.275256	1.3622	-0.204096
C	0.246902	0.793998	1.82944
H	0.573942	-0.114015	2.37953
H	1.00094	1.59487	1.97282
H	-0.713477	1.13799	2.27181
N	2.33229	0.879297	-0.419295
C	3.59728	0.511462	-1.01148
H	2.21864	1.81488	-0.10175
H	4.29353	1.37884	-1.02215
H	3.45379	0.164321	-2.06038
H	4.0749	-0.314749	-0.436686
C	8.0372	0.622464	-0.767068
C	6.98648	-0.0668236	0.0152552
O	7.25717	-1.01047	0.745093
H	9.0168	0.131835	-0.578607
H	8.10435	1.68796	-0.462193
H	7.80799	0.562348	-1.85193
N	5.74229	0.39669	-0.124506
C	4.60844	-0.197754	0.538502
C	3.37914	0.0464884	-0.31632
O	3.42744	0.796911	-1.28907
H	5.53147	1.13933	-0.753713
H	4.75149	-1.26943	0.599059
C	4.41598	0.40343	1.94803
H	4.25868	1.50134	1.88568
H	3.55427	-0.0560532	2.4742
H	5.33048	0.219908	2.55329
N	2.24315	-0.593157	0.0248634
C	1.02495	-0.42642	-0.733006
H	2.22477	-1.19955	0.812916
H	0.203016	-1.03462	-0.295125
H	1.17296	-0.746411	-1.78988
H	0.707483	0.641447	-0.73686
