44
  This energy is -3.2067 and Call times are: 44567
C	-1.35875	-0.105964	3.20238
C	-1.36794	0.360589	1.79761
O	-2.33994	0.936075	1.3281
H	-2.33353	0.139364	3.67725
H	-0.546724	0.397837	3.76766
H	-1.20756	-1.20545	3.23948
N	-0.266517	0.116032	1.08386
C	-0.142998	0.471398	-0.307912
C	0.816142	-0.505156	-0.962089
O	1.46267	-1.30214	-0.284942
H	0.500636	-0.389718	1.46799
H	-1.10387	0.353883	-0.793241
C	0.369028	1.92008	-0.464059
H	1.35961	2.03848	0.0245726
H	0.455191	2.21036	-1.53122
H	-0.344046	2.61649	0.0287866
N	0.924371	-0.470706	-2.30489
C	1.80772	-1.36584	-3.01525
H	0.389949	0.178484	-2.83595
H	1.75523	-1.18256	-4.1111
H	1.52845	-2.42725	-2.82367
H	2.86201	-1.22135	-2.68549
C	7.26489	-2.40486	2.4725
C	6.47987	-1.32106	1.83984
O	5.32696	-1.09334	2.17947
H	6.63471	-2.92156	3.22864
H	8.15998	-1.98451	2.97735
H	7.58497	-3.14264	1.70679
N	7.09801	-0.618725	0.88747
C	6.44992	0.438127	0.151539
C	7.09191	0.521639	-1.22048
O	8.10669	-0.121758	-1.48118
H	8.02285	-0.842568	0.593478
H	5.4075	0.184141	0.00498734
C	6.57969	1.78666	0.893068
H	7.64891	2.05282	1.03434
H	6.07268	2.6059	0.343242
H	6.11031	1.69992	1.89731
N	6.50578	1.31602	-2.13777
C	7.04233	1.45392	-3.47167
H	5.68284	1.8256	-1.90936
H	6.41977	2.14997	-4.07596
H	7.06751	0.467415	-3.98883
H	8.08206	1.85261	-3.43784
