44
  This energy is -2.1819 and Call times are: 49878
C	-0.179369	-3.47076	-0.185342
C	-0.358806	-2.19347	0.540939
O	-0.965973	-2.1485	1.60195
H	-0.681758	-4.28713	0.377698
H	0.900902	-3.70994	-0.277804
H	-0.630497	-3.40199	-1.19769
N	0.173265	-1.10839	-0.026396
C	0.0442013	0.211431	0.539275
C	0.093435	1.21868	-0.59412
O	0.386831	0.868461	-1.7356
H	0.629225	-1.15428	-0.910625
H	-0.925839	0.30439	1.01152
C	1.17135	0.487512	1.55837
H	2.16643	0.402628	1.07192
H	1.07502	1.49555	2.01127
H	1.121	-0.266095	2.3744
N	-0.203103	2.50093	-0.304418
C	-0.187699	3.52826	-1.31957
H	-0.442147	2.76428	0.624333
H	-0.459338	4.51522	-0.884422
H	-0.914364	3.29059	-2.12997
H	0.824379	3.61329	-1.7774
C	3.60694	-1.22275	-2.61575
C	4.49032	-0.196521	-2.01771
O	4.95722	0.709107	-2.69465
H	3.49139	-1.01968	-3.70261
H	2.60604	-1.19268	-2.13613
H	4.0496	-2.23258	-2.48392
N	4.7445	-0.319716	-0.712871
C	5.62004	0.576687	0.000177762
C	6.23525	-0.185197	1.1589
O	5.83747	-1.31031	1.45486
H	4.39018	-1.08558	-0.18394
H	6.42925	0.879936	-0.652394
C	4.84668	1.81106	0.51347
H	4.02297	1.50115	1.19134
H	5.51274	2.5157	1.05233
H	4.39848	2.34869	-0.350481
N	7.23293	0.411705	1.84032
C	7.8823	-0.238968	2.95438
H	7.5438	1.32076	1.58331
H	8.67603	0.412439	3.38205
H	8.35123	-1.19648	2.63103
H	7.14638	-0.469217	3.75846
