44
  This energy is 0.112 and Call times are: 49431
C	-1.27561	-2.98066	1.26538
C	-1.02016	-2.04195	0.149717
O	-1.20021	-2.3767	-1.01301
H	-1.61201	-3.95714	0.854058
H	-2.06872	-2.5783	1.93009
H	-0.346552	-3.13897	1.85264
N	-0.585022	-0.825314	0.485639
C	-0.252319	0.182117	-0.490553
C	0.810424	1.08578	0.105701
O	1.12059	0.995548	1.29203
H	-0.404199	-0.581045	1.43406
H	0.180557	-0.293718	-1.36166
C	-1.50058	1.00147	-0.885188
H	-1.93892	1.49837	0.00643281
H	-1.26015	1.77145	-1.64666
H	-2.26782	0.318961	-1.31166
N	1.40255	1.97856	-0.71183
C	2.4285	2.8762	-0.234484
H	1.14103	2.03383	-1.66976
H	2.79069	3.53216	-1.05653
H	3.29657	2.30351	0.165209
H	2.0356	3.52291	0.583158
C	5.15302	-3.24884	1.2387
C	5.74107	-1.90787	1.02154
O	6.76695	-1.56634	1.59368
H	5.77355	-3.80752	1.97265
H	5.12851	-3.81514	0.284004
H	4.12145	-3.15411	1.63866
N	5.09079	-1.10446	0.17652
C	5.51697	0.244182	-0.102935
C	4.2921	1.06098	-0.469132
O	3.20382	0.517949	-0.649351
H	4.23465	-1.38174	-0.250092
H	5.93804	0.67905	0.794957
C	6.54836	0.269884	-1.2522
H	6.11336	-0.166526	-2.17652
H	6.89467	1.30148	-1.46761
H	7.43245	-0.340517	-0.965618
N	4.44085	2.39576	-0.579869
C	3.33019	3.25454	-0.919139
H	5.32845	2.81726	-0.426276
H	3.65387	4.31787	-0.961417
H	2.51867	3.16511	-0.161035
H	2.90747	2.97676	-1.91176
