44
  This energy is -5.3287 and Call times are: 46323
C	-0.293885	3.24149	-1.2325
C	0.370199	2.22391	-0.387125
O	1.44894	2.4485	0.144181
H	0.346328	4.14873	-1.28648
H	-1.27593	3.52011	-0.795794
H	-0.444856	2.84659	-2.25932
N	-0.270453	1.06137	-0.244091
C	0.270216	-0.0402333	0.512678
C	-0.272414	-1.3293	-0.075036
O	-1.1603	-1.30908	-0.925308
H	-1.12819	0.878615	-0.716065
H	1.34653	-0.0601508	0.395269
C	-0.109696	0.0765248	2.00508
H	-1.21382	0.0863788	2.12691
H	0.31243	-0.75857	2.60086
H	0.29069	1.03064	2.41215
N	0.258923	-2.48808	0.361947
C	-0.190456	-3.76405	-0.144145
H	0.979458	-2.48396	1.04743
H	0.367673	-4.59687	0.337654
H	-0.0329234	-3.82741	-1.24526
H	-1.27673	-3.90656	0.057952
C	6.87912	0.480277	2.67087
C	5.76111	0.919567	1.80586
O	5.06842	1.88192	2.10666
H	6.93029	1.1367	3.5666
H	7.84006	0.549741	2.11903
H	6.71805	-0.567381	3.00184
N	5.55659	0.20942	0.693995
C	4.48097	0.489034	-0.22438
C	4.0949	-0.808222	-0.909689
O	4.77608	-1.82202	-0.768535
H	6.10299	-0.596165	0.483427
H	3.61636	0.830019	0.331309
C	4.90631	1.54633	-1.26672
H	5.78683	1.19251	-1.84425
H	4.08206	1.78045	-1.97121
H	5.19203	2.48432	-0.742442
N	2.97988	-0.807819	-1.66649
C	2.53135	-1.99724	-2.35225
H	2.43955	0.0212414	-1.76534
H	1.59718	-1.79459	-2.92102
H	2.32827	-2.81675	-1.62531
H	3.30706	-2.35465	-3.06757
