44
  This energy is 0.1014 and Call times are: 47724
C	1.00499	-3.11714	-1.17734
C	1.26044	-1.85631	-0.44509
O	2.2588	-1.71803	0.248139
H	1.8238	-3.83817	-0.963933
H	0.971274	-2.92484	-2.27033
H	0.0410391	-3.56099	-0.850408
N	0.345879	-0.893661	-0.583932
C	0.434562	0.372252	0.100289
C	-0.973722	0.895338	0.311641
O	-1.93642	0.344362	-0.218785
H	-0.482012	-1.03595	-1.11893
H	0.872176	0.219467	1.07895
C	1.27081	1.3827	-0.715131
H	0.816458	1.5478	-1.7153
H	1.3581	2.35714	-0.192273
H	2.29475	0.975746	-0.864439
N	-1.12761	1.97418	1.10439
C	-2.43061	2.53904	1.36768
H	-0.337008	2.40375	1.52804
H	-2.34838	3.42023	2.04145
H	-3.09381	1.78709	1.85348
H	-2.91598	2.86625	0.419798
C	0.549468	2.39552	-0.348662
C	1.00391	1.02227	-0.0343214
O	0.249843	0.208305	0.480714
H	-0.508592	2.51446	-0.0289486
H	0.617702	2.58051	-1.44131
H	1.17374	3.13823	0.191474
N	2.27031	0.731454	-0.341008
C	2.8685	-0.548987	-0.0560639
C	4.35728	-0.340591	0.14808
O	4.88108	0.743993	-0.0989179
H	2.8838	1.4171	-0.722285
H	2.46604	-0.932412	0.873255
C	2.6142	-1.54539	-1.20835
H	3.03616	-1.15731	-2.15986
H	3.05806	-2.5393	-0.994685
H	1.51855	-1.67648	-1.34509
N	5.07593	-1.38043	0.615286
C	6.49777	-1.27377	0.845872
H	4.63357	-2.24889	0.813203
H	6.90695	-2.23399	1.23029
H	6.71586	-0.476008	1.59239
H	7.031	-1.01815	-0.0983029
