44
  This energy is -3.628 and Call times are: 42758
C	1.92102	0.646171	2.82928
C	0.775696	0.936378	1.93757
O	-0.108783	1.71114	2.27498
H	1.80049	1.2127	3.77817
H	2.87112	0.954763	2.34469
H	1.96007	-0.439089	3.06118
N	0.766282	0.307585	0.759897
C	-0.303131	0.455304	-0.195663
C	-0.390373	-0.822272	-1.00914
O	0.474216	-1.69104	-0.911965
H	1.47218	-0.351423	0.516425
H	-1.24175	0.565875	0.332915
C	-0.0549195	1.66877	-1.11823
H	0.902774	1.55087	-1.66864
H	-0.878381	1.80142	-1.84956
H	0.0133513	2.59114	-0.501032
N	-1.44908	-0.969987	-1.82971
C	-1.61914	-2.15456	-2.63844
H	-2.14048	-0.257803	-1.89166
H	-2.54965	-2.087	-3.24408
H	-1.68415	-3.06262	-1.99619
H	-0.757359	-2.28364	-3.33257
C	5.22516	3.22493	1.3065
C	5.65477	1.80839	1.30677
O	6.59088	1.43095	1.9979
H	5.88395	3.80865	1.98555
H	4.17726	3.30709	1.66415
H	5.30016	3.64736	0.282296
N	4.96891	0.980083	0.515634
C	5.29622	-0.417124	0.376962
C	4.86775	-0.868222	-1.00669
O	4.19585	-0.133924	-1.72854
H	4.23568	1.31009	-0.0720138
H	6.37035	-0.540167	0.438127
C	4.59192	-1.2592	1.46329
H	3.48945	-1.14157	1.39426
H	4.84699	-2.3352	1.37569
H	4.91416	-0.906523	2.46734
N	5.25681	-2.0926	-1.41357
C	4.90102	-2.60465	-2.71641
H	5.80361	-2.67058	-0.816899
H	5.31436	-3.62678	-2.86354
H	5.30169	-1.94552	-3.52033
H	3.79391	-2.65418	-2.83036
