44
  This energy is -3.7748 and Call times are: 46914
C	1.06003	-0.504097	3.27642
C	0.323876	0.266077	2.24877
O	-0.444308	1.16533	2.56124
H	0.774823	-0.135784	4.28581
H	2.15433	-0.37303	3.142
H	0.805209	-1.58235	3.20208
N	0.544968	-0.077806	0.977852
C	-0.130113	0.551034	-0.130021
C	-0.224043	-0.456608	-1.26024
O	0.374493	-1.52888	-1.19936
H	1.14194	-0.839064	0.741257
H	-1.14185	0.801479	0.163759
C	0.627961	1.81456	-0.592695
H	1.66259	1.55655	-0.904169
H	0.110627	2.3156	-1.4364
H	0.691613	2.5344	0.252366
N	-0.990255	-0.136217	-2.32151
C	-1.14379	-1.03488	-3.44179
H	-1.47013	0.734379	-2.35073
H	-1.81219	-0.591822	-4.21261
H	-1.58408	-2.00336	-3.11095
H	-0.157057	-1.24739	-3.9133
C	3.52315	-1.48441	-2.32073
C	4.7353	-0.709173	-1.97309
O	5.59696	-0.473104	-2.80869
H	3.57491	-1.78759	-3.38902
H	2.61509	-0.864374	-2.16671
H	3.45873	-2.39675	-1.69099
N	4.83014	-0.291319	-0.708659
C	5.97045	0.436565	-0.21023
C	6.11041	0.139864	1.27097
O	5.23472	-0.476255	1.87534
H	4.14019	-0.526382	-0.0300013
H	6.86672	0.0739716	-0.697933
C	5.80215	1.95373	-0.445018
H	4.88847	2.32821	0.0639079
H	6.68	2.52399	-0.0779973
H	5.69355	2.14665	-1.53466
N	7.22762	0.567445	1.89147
C	7.45045	0.326337	3.29803
H	7.92682	1.06077	1.3847
H	8.42498	0.754483	3.62087
H	7.4597	-0.766914	3.5125
H	6.64331	0.791223	3.90921
