44
  This energy is -3.6578 and Call times are: 48104
C	-2.62717	1.32174	-1.86109
C	-1.27626	0.726175	-1.754
O	-0.672689	0.34347	-2.7468
H	-2.94373	1.32495	-2.92676
H	-2.61545	2.36688	-1.48653
H	-3.35578	0.726172	-1.27158
N	-0.765195	0.631553	-0.524267
C	0.52002	0.0356754	-0.256477
C	0.489242	-0.545439	1.14456
O	-0.455309	-0.320805	1.89894
H	-1.28544	0.909859	0.278081
H	0.682888	-0.785842	-0.942928
C	1.65005	1.0806	-0.38457
H	1.48906	1.91844	0.326871
H	2.64608	0.630904	-0.194268
H	1.64869	1.49817	-1.4151
N	1.52586	-1.31854	1.52374
C	1.58065	-1.91892	2.83627
H	2.27897	-1.4922	0.897857
H	2.51042	-2.51753	2.95639
H	0.707372	-2.59179	2.99717
H	1.56318	-1.13531	3.62797
C	4.63124	-1.83867	-2.66876
C	5.75861	-1.25714	-1.90586
O	6.91577	-1.57129	-2.14816
H	5.02696	-2.5604	-3.416
H	4.07618	-1.03804	-3.20134
H	3.94075	-2.37362	-1.98311
N	5.43919	-0.382741	-0.948895
C	6.42322	0.234026	-0.0945866
C	5.76248	0.5553	1.23273
O	4.54676	0.439645	1.37536
H	4.49025	-0.168049	-0.736115
H	7.21814	-0.474044	0.103826
C	6.98962	1.51672	-0.741998
H	6.17596	2.2477	-0.936095
H	7.75846	1.9934	-0.0999881
H	7.46117	1.25905	-1.71544
N	6.55547	0.961097	2.24393
C	6.01644	1.28369	3.54453
H	7.53744	1.04465	2.11045
H	6.8267	1.59616	4.23957
H	5.49803	0.401228	3.98475
H	5.27886	2.11521	3.4691
