44
  This energy is 0.1035 and Call times are: 44616
C	3.08598	-1.39193	-0.807431
C	2.18941	-0.228784	-0.621941
O	2.62763	0.91328	-0.613897
H	4.13424	-1.03543	-0.907165
H	2.80642	-1.94781	-1.72698
H	3.019	-2.07035	0.0691219
N	0.891609	-0.499133	-0.46383
C	-0.0964798	0.52447	-0.230428
C	-1.22921	-0.0860189	0.573182
O	-1.27902	-1.29853	0.770768
H	0.555595	-1.43611	-0.431752
H	0.339578	1.311	0.372776
C	-0.625338	1.0952	-1.56453
H	-1.08225	0.290554	-2.17919
H	-1.3768	1.89402	-1.39807
H	0.221621	1.52946	-2.13935
N	-2.16675	0.747543	1.06533
C	-3.27862	0.257833	1.84644
H	-2.10713	1.72613	0.898335
H	-3.93874	1.09646	2.15974
H	-2.9161	-0.263631	2.76182
H	-3.88626	-0.464896	1.25519
C	6.27031	3.00607	0.341784
C	5.37437	2.09494	-0.405394
O	4.74876	2.48292	-1.38238
H	6.23596	4.01619	-0.121172
H	7.31437	2.62996	0.306654
H	5.94113	3.08412	1.39943
N	5.2904	0.841887	0.0475919
C	4.42786	-0.147756	-0.548384
C	4.02813	-1.13758	0.529595
O	4.55999	-1.11072	1.6378
H	5.77419	0.551994	0.868429
H	3.52205	0.331798	-0.897896
C	5.14051	-0.872207	-1.71138
H	6.06429	-1.37319	-1.35125
H	4.48182	-1.62716	-2.18752
H	5.43095	-0.12773	-2.48451
N	3.06855	-2.03496	0.229743
C	2.6195	-3.01208	1.19398
H	2.64709	-2.03842	-0.671053
H	1.8262	-3.65872	0.75835
H	2.20513	-2.51002	2.09814
H	3.46428	-3.6626	1.51697
