44
  This energy is -2.9133 and Call times are: 42363
C	0.767041	-2.10981	-2.65952
C	0.253322	-1.8706	-1.29203
O	-0.335525	-2.74729	-0.674702
H	0.508947	-3.1447	-2.97302
H	1.87099	-1.99303	-2.67949
H	0.306782	-1.39316	-3.37202
N	0.467099	-0.655517	-0.781892
C	-0.0108411	-0.259815	0.519474
C	-0.244834	1.23901	0.501781
O	0.124178	1.92283	-0.451075
H	0.911948	0.0604507	-1.31233
H	-0.966272	-0.733241	0.708288
C	1.00664	-0.636064	1.61875
H	1.98389	-0.142221	1.43127
H	0.643923	-0.349003	2.62699
H	1.16848	-1.73608	1.60807
N	-0.875801	1.78589	1.55953
C	-1.14694	3.20291	1.6282
H	-1.1705	1.21566	2.31918
H	-1.67281	3.45727	2.57476
H	-1.78784	3.522	0.774559
H	-0.199198	3.78696	1.58553
C	4.32769	-2.43072	2.24822
C	4.71338	-1.99331	0.887679
O	4.89865	-2.80427	-0.00922037
H	4.26966	-3.54059	2.27454
H	3.33512	-2.01246	2.51768
H	5.08409	-2.09279	2.98763
N	4.84703	-0.67788	0.702812
C	5.25896	-0.103811	-0.553899
C	5.97187	1.20391	-0.265463
O	5.97174	1.68503	0.86601
H	4.73282	-0.0329054	1.45302
H	5.97407	-0.762787	-1.03033
C	4.04347	0.134148	-1.47652
H	3.31446	0.818515	-0.992541
H	4.34913	0.563121	-2.45277
H	3.53253	-0.834747	-1.66762
N	6.60757	1.80837	-1.28846
C	7.31744	3.05317	-1.10755
H	6.59992	1.4016	-2.19596
H	7.77294	3.38889	-2.06518
H	8.13047	2.93588	-0.354884
H	6.62726	3.85069	-0.748753
