44
  This energy is 0.0283 and Call times are: 50003
C	-2.28201	1.44232	-2.19655
C	-1.06992	0.639558	-1.91805
O	-0.52217	-0.00673773	-2.80048
H	-2.56352	1.32368	-3.26546
H	-2.08485	2.516	-1.99389
H	-3.12488	1.09534	-1.56232
N	-0.618959	0.662066	-0.661663
C	0.524221	-0.102193	-0.228524
C	0.347398	-0.424783	1.24329
O	-0.558352	0.089768	1.89641
H	-1.09931	1.1602	0.0545729
H	0.548789	-1.04295	-0.764256
C	1.83299	0.685369	-0.456805
H	1.81265	1.64579	0.101053
H	2.72168	0.101913	-0.140043
H	1.93764	0.917412	-1.53919
N	1.21027	-1.29731	1.80022
C	1.11626	-1.66884	3.19281
H	1.93413	-1.70638	1.25455
H	1.91387	-2.39646	3.46041
H	0.128394	-2.13659	3.40871
H	1.22452	-0.773376	3.84669
C	8.61621	3.34267	-0.0756746
C	7.73146	2.25213	0.392394
O	6.93632	2.42967	1.30489
H	8.43046	4.25355	0.533957
H	8.40704	3.57451	-1.14116
H	9.68058	3.04647	0.0359093
N	7.85457	1.07864	-0.232225
C	7.09298	-0.0876347	0.139724
C	7.90968	-1.31728	-0.210331
O	8.94432	-1.22003	-0.867423
H	8.53501	0.93801	-0.945725
H	6.94731	-0.0918864	1.21275
C	5.73293	-0.114717	-0.59156
H	5.882	-0.121011	-1.69237
H	5.13128	-1.00088	-0.303023
H	5.15573	0.798054	-0.326941
N	7.46445	-2.51012	0.231156
C	8.17851	-3.73409	-0.0484497
H	6.62732	-2.56817	0.764932
H	7.65378	-4.60661	0.399436
H	9.20965	-3.69194	0.371377
H	8.25961	-3.89962	-1.14716
