44
  This energy is -0.4405 and Call times are: 47145
C	0.996615	1.45859	-2.99866
C	0.267391	0.42339	-2.23202
O	-0.52678	-0.328334	-2.7803
H	0.680911	1.41736	-4.06379
H	2.09059	1.27801	-2.94084
H	0.766762	2.46701	-2.5945
N	0.524369	0.362974	-0.923323
C	-0.138967	-0.562695	-0.0391959
C	-0.185759	0.0563197	1.34507
O	0.434162	1.08835	1.59474
H	1.14274	1.00853	-0.484293
H	-1.1622	-0.698502	-0.366572
C	0.601998	-1.91725	-0.00185122
H	1.64868	-1.77991	0.344031
H	0.0931343	-2.64326	0.66485
H	0.63113	-2.348	-1.02652
N	-0.934601	-0.560064	2.28066
C	-1.04354	-0.0410713	3.62415
H	-1.4323	-1.39194	2.05853
H	-1.70378	-0.687676	4.24318
H	-1.47025	0.988053	3.61427
H	-0.042102	0.00508274	4.11009
C	4.19546	-0.326703	3.28421
C	4.30797	0.428628	2.01615
O	3.64381	1.43677	1.81881
H	3.44062	0.162579	3.93741
H	5.17289	-0.338302	3.81075
H	3.87286	-1.36965	3.08105
N	5.16512	-0.0526244	1.11278
C	5.35188	0.548474	-0.184278
C	5.77602	-0.539272	-1.15304
O	6.0634	-1.66468	-0.749831
H	5.6684	-0.897238	1.27151
H	4.40604	0.942039	-0.535141
C	6.41562	1.66666	-0.12613
H	7.38893	1.2613	0.223706
H	6.55854	2.14671	-1.1159
H	6.08821	2.44753	0.594547
N	5.81682	-0.228226	-2.46361
C	6.20346	-1.20026	-3.45951
H	5.57678	0.686633	-2.771
H	6.17431	-0.753148	-4.47758
H	5.51508	-2.07611	-3.44156
H	7.23696	-1.56948	-3.26795
