44
  This energy is -2.4571 and Call times are: 49975
C	-2.9294	0.988137	-1.59839
C	-1.7986	1.24063	-0.677156
O	-1.57356	2.36218	-0.2437
H	-3.4584	1.94461	-1.80137
H	-3.64395	0.272509	-1.14009
H	-2.55571	0.573431	-2.55832
N	-1.04852	0.184298	-0.354802
C	0.111119	0.280569	0.496394
C	1.07837	-0.820446	0.104287
O	0.743889	-1.70041	-0.686604
H	-1.21958	-0.714589	-0.748002
H	0.608351	1.22569	0.317143
C	-0.283884	0.149967	1.98373
H	-0.784605	-0.823952	2.17027
H	0.598705	0.236332	2.65014
H	-0.998013	0.960768	2.24635
N	2.31186	-0.791381	0.646215
C	3.30124	-1.7943	0.327708
H	2.56528	-0.0689975	1.28105
H	4.25065	-1.59713	0.872664
H	3.5187	-1.79843	-0.764981
H	2.93811	-2.80864	0.611268
C	5.50612	2.93273	-1.44447
C	5.88924	1.50491	-1.52006
O	5.61595	0.827283	-2.50116
H	4.95738	3.21521	-2.3691
H	6.41244	3.56799	-1.35618
H	4.84664	3.1061	-0.568063
N	6.54018	1.00849	-0.465441
C	6.94022	-0.373617	-0.374401
C	6.97658	-0.759865	1.09225
O	6.853	0.0912566	1.9709
H	6.71933	1.56189	0.342959
H	6.19281	-0.994101	-0.852938
C	8.32327	-0.59172	-1.02622
H	9.09241	0.036755	-0.528753
H	8.63628	-1.65469	-0.97485
H	8.2753	-0.295165	-2.09678
N	7.13984	-2.0636	1.39163
C	7.18126	-2.52562	2.75948
H	7.234	-2.73802	0.666808
H	7.3218	-3.62835	2.79801
H	6.23303	-2.27451	3.28776
H	8.0215	-2.04538	3.3113
