44
  This energy is -0.301 and Call times are: 42048
C	-2.46028	1.77958	1.70082
C	-1.45932	1.64955	0.618086
O	-1.4131	2.45515	-0.301313
H	-3.10277	2.66492	1.50266
H	-1.95136	1.91638	2.67808
H	-3.10023	0.872986	1.74126
N	-0.62332	0.612218	0.704202
C	0.375974	0.329546	-0.295832
C	0.628322	-1.16639	-0.302704
O	0.147414	-1.8902	0.567091
H	-0.699834	-0.0580962	1.43679
H	-0.0100061	0.596047	-1.27186
C	1.68315	1.09783	-0.00213694
H	2.08518	0.816918	0.994608
H	2.45592	0.899304	-0.772815
H	1.4732	2.18972	0.00593865
N	1.38741	-1.66789	-1.29684
C	1.67674	-3.08002	-1.3882
H	1.76434	-1.06689	-1.99383
H	2.31503	-3.2942	-2.27361
H	0.735531	-3.66841	-1.48411
H	2.21211	-3.43134	-0.476553
C	11.5581	0.93624	0.540734
C	10.1374	0.87474	0.951523
O	9.79266	1.17724	2.08558
H	12.1764	1.26405	1.40456
H	11.6855	1.66314	-0.2888
H	11.9047	-0.0657032	0.210464
N	9.26773	0.472214	0.0219546
C	7.85822	0.320942	0.284569
C	7.31748	-0.753462	-0.639998
O	8.01085	-1.21223	-1.5458
H	9.56868	0.190171	-0.884541
H	7.71952	-0.0278585	1.30031
C	7.10955	1.6534	0.0625328
H	7.24283	2.00629	-0.982336
H	6.02539	1.5534	0.274953
H	7.527	2.42682	0.743629
N	6.05997	-1.1879	-0.425665
C	5.46284	-2.21153	-1.25137
H	5.5159	-0.807507	0.314849
H	4.42515	-2.43125	-0.916473
H	6.05503	-3.15376	-1.19862
H	5.42629	-1.88591	-2.31617
