44
  This energy is -0.5578 and Call times are: 49517
C	1.71343	1.60343	-2.57019
C	0.715444	0.625929	-2.08063
O	-0.0725178	0.0883089	-2.84646
H	1.58735	1.73937	-3.66632
H	2.74113	1.23412	-2.36972
H	1.56823	2.5829	-2.06756
N	0.726478	0.372443	-0.769907
C	-0.211799	-0.522582	-0.139725
C	-0.408915	-0.0681831	1.29423
O	0.303541	0.807765	1.78089
H	1.34681	0.84861	-0.15321
H	-1.17018	-0.443908	-0.637666
C	0.301849	-1.97851	-0.180622
H	1.28002	-2.0618	0.339263
H	-0.418259	-2.67935	0.289271
H	0.446475	-2.28706	-1.23903
N	-1.39358	-0.651903	2.00537
C	-1.65885	-0.28014	3.37563
H	-1.96225	-1.35591	1.59298
H	-2.50612	-0.872045	3.78673
H	-1.91975	0.800723	3.44589
H	-0.762851	-0.461109	4.01249
C	7.26834	-3.31568	0.604183
C	7.21633	-2.12013	-0.267096
O	7.84553	-2.07277	-1.31509
H	7.94814	-4.07027	0.152161
H	6.25568	-3.75943	0.705893
H	7.65379	-3.0407	1.60862
N	6.45307	-1.10994	0.15638
C	6.33651	0.134918	-0.561462
C	6.03788	1.23317	0.441648
O	5.77398	0.962725	1.61166
H	5.97938	-1.1473	1.03164
H	7.2866	0.370592	-1.02449
C	5.22023	0.055568	-1.62582
H	4.24339	-0.175785	-1.15009
H	5.12987	1.00351	-2.19482
H	5.45555	-0.759699	-2.34436
N	6.0813	2.50738	0.00516205
C	5.81664	3.61861	0.889074
H	6.30069	2.7065	-0.944204
H	5.90135	4.58409	0.343274
H	6.54197	3.62926	1.73469
H	4.79008	3.54567	1.31568
