44
  This energy is -6.2991 and Call times are: 46444
C	-2.0898	1.25608	-2.48349
C	-0.803158	1.23217	-1.75196
O	0.174598	1.83611	-2.17109
H	-1.97553	1.86304	-3.40783
H	-2.88129	1.71015	-1.85095
H	-2.38882	0.224533	-2.76562
N	-0.775159	0.51904	-0.623671
C	0.415903	0.366271	0.174196
C	0.333853	-0.965382	0.896362
O	-0.701045	-1.62898	0.878136
H	-1.56752	-0.000492602	-0.316876
H	1.27984	0.327103	-0.477501
C	0.553653	1.52397	1.18711
H	-0.327483	1.55805	1.86274
H	1.47423	1.42515	1.79809
H	0.603894	2.48894	0.636956
N	1.43412	-1.39298	1.54644
C	1.45146	-2.65036	2.25699
H	2.26338	-0.843982	1.54639
H	2.44554	-2.82402	2.72482
H	1.23771	-3.49612	1.56397
H	0.679472	-2.65862	3.06018
C	5.46796	-0.879926	-3.36722
C	6.08331	-0.86436	-2.02101
O	7.05746	-1.55752	-1.76225
H	6.01707	-1.59849	-4.01375
H	5.52319	0.130118	-3.82494
H	4.40596	-1.19701	-3.29888
N	5.51626	-0.0603411	-1.11857
C	5.97591	0.030079	0.244916
C	4.79447	0.408334	1.11823
O	3.72208	0.741192	0.617336
H	4.69887	0.466922	-1.3324
H	6.31967	-0.943531	0.571311
C	7.10466	1.07571	0.378402
H	6.74935	2.07687	0.0536159
H	7.47665	1.14475	1.42118
H	7.95529	0.782953	-0.2751
N	4.96282	0.357286	2.45429
C	3.89309	0.694337	3.36438
H	5.83671	0.0816357	2.84083
H	4.22753	0.590409	4.42011
H	3.0173	0.0239857	3.20659
H	3.55726	1.74448	3.20452
