44
  This energy is -0.8113 and Call times are: 47376
C	-1.00473	2.54859	-2.1466
C	-0.835409	1.97683	-0.79177
O	-0.987442	2.66397	0.208797
H	-1.25431	3.62852	-2.06095
H	-1.82899	2.03049	-2.68037
H	-0.0641638	2.44209	-2.7272
N	-0.508844	0.683812	-0.729875
C	-0.268384	-0.00212266	0.515208
C	0.7115	-1.13006	0.252245
O	1.03075	-1.43207	-0.89605
H	-0.348464	0.147792	-1.55379
H	0.203149	0.678724	1.21287
C	-1.58494	-0.554807	1.10381
H	-2.06373	-1.26144	0.392845
H	-1.41499	-1.07322	2.06966
H	-2.2897	0.286848	1.28071
N	1.22081	-1.77728	1.31889
C	2.16434	-2.86016	1.16629
H	0.95356	-1.51579	2.24045
H	2.46554	-3.26212	2.15872
H	3.08041	-2.51125	0.636791
H	1.71742	-3.69016	0.57256
C	4.25921	2.89514	-1.52084
C	4.10559	1.48163	-1.10907
O	3.02212	0.917489	-1.1743
H	3.27352	3.29152	-1.84817
H	4.97589	2.97199	-2.36536
H	4.62633	3.50438	-0.668131
N	5.2063	0.869574	-0.666097
C	5.20516	-0.491306	-0.190116
C	6.31363	-0.634512	0.835725
O	7.12987	0.268092	1.0111
H	6.07213	1.35415	-0.580273
H	4.26919	-0.69187	0.31621
C	5.41408	-1.48342	-1.35515
H	6.3791	-1.28482	-1.86831
H	5.40132	-2.5354	-1.00344
H	4.5961	-1.35543	-2.09734
N	6.36286	-1.77765	1.54765
C	7.37889	-2.00095	2.54965
H	5.69112	-2.49483	1.39436
H	7.25042	-2.99858	3.02446
H	7.32259	-1.2239	3.34608
H	8.39523	-1.95682	2.0955
