44
  This energy is -7.1872 and Call times are: 47809
C	1.17801	-1.67141	2.81627
C	0.103146	-1.33213	1.85674
O	-0.954891	-1.94605	1.84837
H	0.851803	-2.52793	3.44543
H	1.39175	-0.803034	3.47428
H	2.1018	-1.95765	2.27058
N	0.356776	-0.330486	1.0113
C	-0.574431	0.0863062	-0.00737367
C	0.21768	0.670606	-1.1618
O	1.42524	0.876646	-1.05658
H	1.23839	0.132712	1.00314
H	-1.10272	-0.780416	-0.384642
C	-1.57013	1.12799	0.548242
H	-1.02932	2.02188	0.925781
H	-2.30116	1.44655	-0.222889
H	-2.13293	0.681492	1.39691
N	-0.447607	0.944816	-2.3012
C	0.223952	1.49758	-3.45431
H	-1.42385	0.767379	-2.36861
H	-0.493044	1.65166	-4.29061
H	1.02978	0.812895	-3.8052
H	0.688842	2.47895	-3.20545
C	6.57462	-2.43051	2.19673
C	5.51855	-1.51439	1.71034
O	4.36919	-1.59875	2.12057
H	6.13348	-3.14646	2.92382
H	7.37808	-1.8544	2.70201
H	7.00703	-3.00104	1.34785
N	5.8918	-0.60466	0.807313
C	4.96808	0.327052	0.20965
C	5.48131	0.680492	-1.17355
O	6.59884	0.322973	-1.54099
H	6.82197	-0.574937	0.452698
H	4.0064	-0.154507	0.0835602
C	4.82798	1.59773	1.07625
H	5.81248	2.09792	1.19715
H	4.10881	2.31706	0.633678
H	4.45881	1.31439	2.08608
N	4.66704	1.38892	-1.98046
C	5.06779	1.76649	-3.31576
H	3.76474	1.66559	-1.66681
H	4.26168	2.34385	-3.81982
H	5.28846	0.863384	-3.92975
H	5.98568	2.39719	-3.28711
