44
  This energy is 0.1076 and Call times are: 43616
C	3.04192	-1.16099	-1.22943
C	1.78511	-0.392715	-1.37544
O	1.61328	0.36643	-2.31915
H	3.72729	-0.906623	-2.06695
H	2.82984	-2.25049	-1.25686
H	3.53748	-0.90514	-0.269197
N	0.864474	-0.574914	-0.425908
C	-0.390433	0.13464	-0.408544
C	-0.841689	0.262275	1.03424
O	-0.256174	-0.338986	1.93278
H	1.03534	-1.16512	0.357884
H	-0.239285	1.13711	-0.789132
C	-1.45544	-0.607486	-1.24535
H	-1.61852	-1.6323	-0.848864
H	-2.42238	-0.063877	-1.2512
H	-1.10066	-0.696378	-2.29539
N	-1.89609	1.06115	1.29126
C	-2.39305	1.24818	2.63448
H	-2.3543	1.54262	0.551462
H	-3.26364	1.94047	2.63886
H	-1.60095	1.67704	3.29018
H	-2.71551	0.276213	3.07316
C	6.22142	1.33204	-3.14446
C	5.36563	1.18969	-1.94508
O	4.40942	1.92943	-1.75833
H	5.85274	2.18116	-3.76003
H	6.18457	0.404223	-3.75318
H	7.27089	1.5352	-2.8438
N	5.69826	0.219457	-1.09046
C	4.98676	-0.0137454	0.141591
C	5.95577	-0.618079	1.14027
O	7.07789	-0.978527	0.790075
H	6.50366	-0.348091	-1.23567
H	4.65469	0.9338	0.547183
C	3.78488	-0.956712	-0.0853991
H	4.12611	-1.93273	-0.491599
H	3.22069	-1.13302	0.853287
H	3.0932	-0.498068	-0.82538
N	5.54445	-0.735479	2.41818
C	6.39989	-1.29371	3.43935
H	4.63438	-0.434433	2.68318
H	5.88177	-1.30479	4.42356
H	7.33303	-0.693592	3.54126
H	6.68788	-2.33885	3.1827
