44
  This energy is -3.4352 and Call times are: 48820
C	0.420343	0.319318	-3.44006
C	-0.209197	0.719167	-2.16141
O	-0.881372	1.73782	-2.07811
H	0.187341	1.079	-4.21754
H	0.0258385	-0.664817	-3.76959
H	1.52237	0.254194	-3.32013
N	0.000715672	-0.0877458	-1.11872
C	-0.510753	0.191299	0.200025
C	0.425542	-0.439157	1.21365
O	1.32667	-1.19442	0.854107
H	0.583965	-0.891662	-1.19224
H	-0.496928	1.26073	0.369634
C	-1.942	-0.364858	0.365737
H	-1.95491	-1.46355	0.20221
H	-2.35223	-0.144237	1.3725
H	-2.60795	0.104284	-0.391079
N	0.23745	-0.134402	2.51279
C	1.08277	-0.682431	3.54782
H	-0.494507	0.481915	2.78383
H	0.768729	-0.312787	4.5488
H	2.14505	-0.389483	3.38347
H	1.02816	-1.79515	3.55175
C	7.82663	2.69191	0.744306
C	6.61415	2.11451	0.121691
O	5.72367	2.83128	-0.313867
H	7.74659	3.80072	0.745081
H	8.7295	2.39717	0.169242
H	7.92423	2.33793	1.79228
N	6.55197	0.781992	0.067609
C	5.41665	0.0744082	-0.469907
C	5.32689	-1.27198	0.223447
O	6.23002	-1.66202	0.960965
H	7.26597	0.211453	0.463259
H	4.51138	0.619766	-0.233884
C	5.55462	-0.111041	-1.99694
H	6.47775	-0.679615	-2.23899
H	4.67994	-0.642434	-2.42482
H	5.62666	0.886521	-2.48275
N	4.22296	-2.01411	0.00755057
C	4.04724	-3.30607	0.628948
H	3.50109	-1.67979	-0.589274
H	3.07674	-3.75853	0.327875
H	4.06117	-3.21313	1.73911
H	4.86568	-4.00043	0.330352
