44
  This energy is 0.131 and Call times are: 50559
C	3.09197	1.4639	-0.639834
C	2.20396	0.283566	-0.542999
O	2.55426	-0.808684	-0.968068
H	4.03697	1.17191	-1.14737
H	3.33214	1.84637	0.374453
H	2.59995	2.26557	-1.23003
N	1.01297	0.482096	0.0266691
C	0.0245398	-0.559786	0.153334
C	-1.3476	0.0873587	0.15244
O	-1.46771	1.30917	0.219281
H	0.726025	1.38599	0.33082
H	0.0759599	-1.20814	-0.712472
C	0.240196	-1.37011	1.4503
H	0.177057	-0.707206	2.33946
H	-0.506277	-2.18427	1.55247
H	1.2533	-1.828	1.43278
N	-2.42103	-0.722928	0.0675476
C	-3.76609	-0.196798	0.054329
H	-2.30355	-1.70882	0.0101333
H	-4.50983	-1.02048	-0.0206848
H	-3.91184	0.487074	-0.813052
H	-3.97234	0.378355	0.985888
C	7.27017	2.43871	1.29242
C	6.16285	1.4666	1.43385
O	5.71384	1.17418	2.53353
H	7.58135	2.79012	2.30015
H	6.93796	3.31276	0.693742
H	8.13932	1.95898	0.794899
N	5.69248	0.93427	0.303466
C	4.64627	-0.0574935	0.283583
C	4.83814	-0.922785	-0.947687
O	5.66237	-0.619714	-1.80821
H	6.09568	1.1514	-0.580922
H	4.74733	-0.700738	1.14883
C	3.25365	0.609971	0.264669
H	3.1456	1.26178	-0.628369
H	2.43934	-0.1433	0.263254
H	3.13838	1.24431	1.17057
N	4.08149	-2.03262	-1.05606
C	4.19855	-2.91952	-2.19003
H	3.42288	-2.26337	-0.347493
H	3.49329	-3.77441	-2.09513
H	5.23326	-3.32557	-2.26593
H	3.96943	-2.37916	-3.13695
