44
  This energy is -1.7012 and Call times are: 46534
C	1.45195	3.10224	-0.616962
C	1.09359	1.9882	0.289479
O	1.5569	1.91747	1.41941
H	2.1726	3.7757	-0.104143
H	0.54515	3.68389	-0.885562
H	1.92443	2.70698	-1.54088
N	0.247343	1.07686	-0.19602
C	-0.160702	-0.0864223	0.551525
C	-0.486367	-1.19218	-0.434775
O	-0.540643	-0.96375	-1.64167
H	-0.0892907	1.12607	-1.13203
H	0.66766	-0.429482	1.15878
C	-1.38682	0.228457	1.43624
H	-2.24025	0.570379	0.812708
H	-1.70219	-0.655647	2.02736
H	-1.12813	1.04555	2.14461
N	-0.703729	-2.42689	0.0594767
C	-1.01465	-3.5426	-0.803482
H	-0.651355	-2.59297	1.03863
H	-1.15836	-4.47157	-0.208855
H	-0.190294	-3.71705	-1.53237
H	-1.94831	-3.34631	-1.37872
C	4.36797	-2.95059	1.22341
C	4.79197	-2.07441	0.108211
O	4.84157	-2.49138	-1.04074
H	4.14777	-3.96641	0.829093
H	3.45215	-2.5446	1.70216
H	5.17759	-3.02637	1.97962
N	5.11467	-0.819345	0.429259
C	5.58637	0.137982	-0.540057
C	6.4884	1.12773	0.172916
O	6.57714	1.1288	1.39922
H	5.10858	-0.506292	1.37468
H	6.18907	-0.371673	-1.28143
C	4.4045	0.869848	-1.21295
H	3.79191	1.40156	-0.45396
H	4.75426	1.59989	-1.97139
H	3.75362	0.125553	-1.72159
N	7.18962	1.99333	-0.585392
C	8.07766	2.96767	0.00470806
H	7.10771	1.9744	-1.57635
H	8.5622	3.58597	-0.782796
H	8.87654	2.46388	0.595699
H	7.51811	3.64612	0.688628
