44
  This energy is -2.5053 and Call times are: 50401
C	0.316497	2.67402	2.20503
C	-0.0945943	2.09897	0.904462
O	-0.784544	2.73594	0.120466
H	-0.111598	3.69491	2.30698
H	1.42333	2.74122	2.26103
H	-0.0579072	2.0425	3.03815
N	0.326073	0.858904	0.64436
C	-0.0283916	0.150647	-0.560333
C	-0.0286762	-1.33496	-0.252877
O	0.400014	-1.75619	0.81974
H	0.852822	0.337963	1.30996
H	-1.03641	0.420334	-0.849801
C	0.965292	0.467682	-1.69933
H	1.99806	0.181455	-1.40691
H	0.695125	-0.0609385	-2.6364
H	0.954707	1.56094	-1.9019
N	-0.521363	-2.16754	-1.19101
C	-0.567214	-3.59636	-0.984683
H	-0.867503	-1.80754	-2.05104
H	-1.00614	-4.1076	-1.86967
H	-1.18741	-3.84476	-0.093097
H	0.456608	-4.00233	-0.817001
C	4.39145	-3.31625	-0.734725
C	5.06464	-2.28431	0.0856771
O	5.58654	-2.56712	1.15528
H	4.44353	-4.29464	-0.209467
H	4.89457	-3.41009	-1.72002
H	3.32512	-3.04726	-0.888524
N	5.06515	-1.04288	-0.405496
C	5.64297	0.0750203	0.298042
C	4.89941	1.33057	-0.11705
O	4.08972	1.30623	-1.04199
H	4.60059	-0.820551	-1.25791
H	5.48883	-0.0542476	1.36207
C	7.14869	0.207689	-0.01888
H	7.3067	0.350878	-1.1091
H	7.60818	1.05659	0.527702
H	7.67143	-0.725203	0.28574
N	5.15308	2.46286	0.568202
C	4.48909	3.70496	0.248077
H	5.80854	2.46182	1.31616
H	4.83165	4.5195	0.923657
H	3.38533	3.59986	0.357456
H	4.70473	4.00654	-0.802491
