44
  This energy is 0.1079 and Call times are: 48791
C	-0.311975	3.36403	0.835849
C	-0.685369	1.94086	0.998006
O	-1.37781	1.57106	1.93618
H	-0.738558	3.95372	1.67619
H	-0.714367	3.75866	-0.120755
H	0.79306	3.47316	0.844831
N	-0.22446	1.09714	0.0716778
C	-0.467987	-0.323087	0.118647
C	0.687757	-1.02417	-0.570039
O	1.53364	-0.382973	-1.19057
H	0.371993	1.40683	-0.663309
H	-0.474883	-0.650399	1.15085
C	-1.80404	-0.676822	-0.570601
H	-1.7935	-0.350686	-1.63247
H	-2.00966	-1.76609	-0.528872
H	-2.63451	-0.146644	-0.0552493
N	0.754923	-2.36626	-0.468469
C	1.82189	-3.11862	-1.08631
H	0.0633775	-2.86719	0.0413396
H	1.7014	-4.20661	-0.888868
H	2.81122	-2.79745	-0.687121
H	1.82679	-2.96062	-2.1891
C	1.93805	-2.63218	-0.714404
C	2.87421	-1.56449	-1.13249
O	3.28808	-1.49982	-2.28181
H	1.7332	-3.30031	-1.57898
H	0.980942	-2.18815	-0.368659
H	2.38437	-3.23278	0.106049
N	3.23589	-0.690063	-0.190701
C	4.17312	0.377827	-0.435171
C	4.87867	0.695874	0.869673
O	4.50058	0.197017	1.92793
H	2.92265	-0.779904	0.750397
H	4.92666	0.0385586	-1.13496
C	3.45248	1.63031	-0.980344
H	2.68657	1.98499	-0.258103
H	4.1653	2.45507	-1.18569
H	2.93671	1.37229	-1.931
N	5.93325	1.53351	0.822258
C	6.66975	1.88971	2.01258
H	6.22675	1.92393	-0.0440571
H	7.50018	2.58781	1.76704
H	7.10449	0.982643	2.49164
H	6.00233	2.38549	2.75412
