44
  This energy is 0.1199 and Call times are: 44018
C	-1.87725	-1.04674	-2.73732
C	-1.71861	-0.274482	-1.48449
O	-2.54894	0.556726	-1.14383
H	-2.80781	-0.723617	-3.25263
H	-1.94952	-2.13146	-2.51171
H	-1.0126	-0.86617	-3.41027
N	-0.6277	-0.535569	-0.760525
C	-0.314237	0.165148	0.459843
C	1.19377	0.175549	0.625292
O	1.91312	-0.492969	-0.114521
H	0.059716	-1.18564	-1.07155
H	-0.636331	1.19537	0.373058
C	-0.98746	-0.51234	1.67352
H	-0.64929	-1.56615	1.76922
H	-0.764979	0.0260008	2.61757
H	-2.0897	-0.515815	1.52719
N	1.71033	0.947039	1.60202
C	3.13437	1.02438	1.8307
H	1.11241	1.48402	2.18786
H	3.36014	1.71052	2.67656
H	3.65795	1.40291	0.92304
H	3.54853	0.0192284	2.07417
C	1.47918	0.0717677	-0.246951
C	2.81482	0.665831	-0.479972
O	2.95715	1.63643	-1.21079
H	0.720397	0.631638	-0.835725
H	1.21556	0.133264	0.829836
H	1.47153	-0.990894	-0.569075
N	3.84053	0.0839171	0.145868
C	5.20447	0.521966	-0.0164335
C	6.11379	-0.673426	0.197446
O	5.6658	-1.7381	0.618723
H	3.71437	-0.730489	0.705047
H	5.35194	0.861436	-1.03409
C	5.54526	1.64752	0.984683
H	5.40425	1.29645	2.02915
H	6.58868	2.00299	0.860403
H	4.86251	2.50859	0.815159
N	7.42025	-0.526075	-0.0983053
C	8.35989	-1.6103	0.0680995
H	7.76324	0.341873	-0.441961
H	9.38371	-1.29243	-0.228511
H	8.06806	-2.48289	-0.560156
H	8.39028	-1.94454	1.13041
