44
  This energy is -3.3894 and Call times are: 45419
C	0.431441	-2.17099	2.68577
C	0.927247	-1.12582	1.76222
O	1.98075	-0.541479	1.97454
H	1.14299	-2.28014	3.53292
H	0.351675	-3.1434	2.15588
H	-0.564029	-1.88617	3.08703
N	0.163495	-0.862161	0.699419
C	0.492354	0.158049	-0.264729
C	-0.801066	0.67637	-0.864698
O	-1.87131	0.117263	-0.632962
H	-0.711584	-1.31735	0.561919
H	0.968367	0.988286	0.241975
C	1.41476	-0.403233	-1.36898
H	0.922635	-1.2482	-1.89613
H	1.68639	0.376293	-2.10998
H	2.3514	-0.784018	-0.906323
N	-0.732432	1.77031	-1.64867
C	-1.91205	2.33844	-2.25851
H	0.142151	2.21123	-1.8212
H	-1.6492	3.23317	-2.86481
H	-2.6472	2.64626	-1.48
H	-2.40629	1.59551	-2.92553
C	5.88842	-3.39387	-0.395874
C	5.55811	-1.96758	-0.614394
O	4.68678	-1.63361	-1.40538
H	5.25085	-4.0235	-1.05384
H	5.69891	-3.67286	0.661952
H	6.95477	-3.5818	-0.64217
N	6.26139	-1.0804	0.0931999
C	6.08373	0.343873	-0.0426396
C	7.40031	1.01887	0.292863
O	8.33405	0.376304	0.769249
H	6.99548	-1.36571	0.702761
H	5.85476	0.578476	-1.0747
C	4.962	0.851334	0.889806
H	5.20143	0.620249	1.94967
H	4.80612	1.94454	0.784332
H	4.00995	0.338269	0.631569
N	7.50811	2.33855	0.0421608
C	8.72457	3.06456	0.32376
H	6.74301	2.84053	-0.347347
H	8.61539	4.13669	0.048375
H	9.57796	2.63975	-0.252908
H	8.97624	3.00455	1.40737
