44
  This energy is -4.056 and Call times are: 50528
C	1.80951	-1.25564	-2.69476
C	1.25694	-1.37567	-1.32676
O	1.26738	-2.44422	-0.731371
H	2.17782	-2.24934	-3.0306
H	2.65566	-0.536837	-2.70402
H	1.02203	-0.90835	-3.39645
N	0.751436	-0.262153	-0.791112
C	0.139943	-0.231403	0.514143
C	-0.897915	0.875079	0.524281
O	-0.982938	1.6674	-0.412048
H	0.713001	0.590743	-1.30391
H	-0.381751	-1.16459	0.686295
C	1.19786	0.00841624	1.61348
H	1.72608	0.970724	1.44323
H	0.741346	0.0203871	2.62441
H	1.95127	-0.808743	1.5823
N	-1.72219	0.949494	1.5878
C	-2.74422	1.9657	1.68237
H	-1.6407	0.296841	2.33377
H	-3.3174	1.86002	2.62975
H	-3.45763	1.88577	0.830354
H	-2.2905	2.98291	1.65846
C	6.02539	2.52388	2.28398
C	5.22916	1.96558	1.16798
O	4.18768	2.4956	0.806293
H	5.51123	3.42278	2.68829
H	7.03403	2.81788	1.92488
H	6.12659	1.77245	3.09527
N	5.7096	0.862137	0.59007
C	5.0249	0.179251	-0.479232
C	5.39419	-1.29079	-0.414596
O	6.28013	-1.68493	0.341356
H	6.53733	0.419118	0.922409
H	3.95589	0.250518	-0.321866
C	5.41129	0.774813	-1.85082
H	6.50653	0.692407	-2.01728
H	4.88	0.266541	-2.68143
H	5.1393	1.85272	-1.87264
N	4.71237	-2.14215	-1.206
C	4.99065	-3.55944	-1.2082
H	3.99615	-1.80491	-1.80798
H	4.32529	-4.08975	-1.92465
H	4.83027	-3.99279	-0.19441
H	6.04769	-3.752	-1.50268
