44
  This energy is 0.1404 and Call times are: 48434
C	-3.4447	0.0505436	0.494107
C	-2.07936	-0.374277	0.876852
O	-1.86165	-0.908134	1.95575
H	-4.14751	-0.180971	1.32377
H	-3.77308	-0.492283	-0.417073
H	-3.46513	1.14377	0.300358
N	-1.11328	-0.140119	-0.0143553
C	0.271044	-0.457968	0.232968
C	1.12776	0.509854	-0.561335
O	0.621553	1.26813	-1.38625
H	-1.29932	0.332336	-0.87112
H	0.492271	-0.299248	1.28106
C	0.583297	-1.91533	-0.171782
H	0.366484	-2.07587	-1.2494
H	1.64295	-2.17658	0.0267355
H	-0.0605324	-2.60546	0.41606
N	2.45409	0.511654	-0.32285
C	3.34746	1.40191	-1.02678
H	2.84459	-0.106391	0.351388
H	4.39717	1.2523	-0.690676
H	3.06857	2.46471	-0.842531
H	3.30103	1.21814	-2.1246
C	6.94057	-2.38982	2.52621
C	7.54152	-1.6619	1.38597
O	8.73307	-1.76242	1.12804
H	7.73161	-2.96924	3.05003
H	6.16099	-3.09236	2.16366
H	6.48712	-1.67222	3.24211
N	6.71519	-0.897782	0.667856
C	7.16128	-0.0964869	-0.444569
C	6.24078	1.10369	-0.562181
O	5.21306	1.17728	0.108706
H	5.756	-0.794025	0.914929
H	8.15589	0.278818	-0.238355
C	7.15231	-0.916096	-1.75354
H	6.13004	-1.2925	-1.97108
H	7.507	-0.314138	-2.61515
H	7.8263	-1.79336	-1.64187
N	6.59555	2.0823	-1.41802
C	5.78455	3.26469	-1.59241
H	7.43294	2.00665	-1.94917
H	6.24416	3.95038	-2.33794
H	5.67914	3.81429	-0.629028
H	4.76443	2.99267	-1.94808
