44
  This energy is -2.0431 and Call times are: 48462
C	-0.764933	3.13842	-1.29533
C	-1.06733	1.70386	-1.09103
O	-2.16234	1.24057	-1.37864
H	-1.66364	3.64846	-1.70529
H	0.07327	3.25425	-2.01418
H	-0.491562	3.61322	-0.329448
N	-0.0860355	0.957648	-0.578574
C	-0.244237	-0.444583	-0.28314
C	0.68726	-0.794711	0.86197
O	1.52352	0.0125323	1.2629
H	0.786131	1.35741	-0.311393
H	-1.25612	-0.626008	0.0571626
C	0.073292	-1.30887	-1.52307
H	1.11474	-1.13095	-1.86625
H	-0.0583038	-2.38997	-1.31231
H	-0.614903	-1.03011	-2.35074
N	0.557276	-2.01275	1.42367
C	1.39605	-2.43194	2.52227
H	-0.127978	-2.65067	1.08816
H	1.13533	-3.46413	2.84451
H	1.27061	-1.75027	3.39454
H	2.46957	-2.41792	2.22475
C	8.81259	0.638813	2.08483
C	7.38835	0.797202	1.71386
O	6.58613	1.3054	2.48495
H	8.96876	1.02484	3.11559
H	9.45636	1.21202	1.38502
H	9.09864	-0.43375	2.0556
N	7.0376	0.355365	0.503841
C	5.68077	0.40171	0.0186499
C	5.4921	-0.735363	-0.967779
O	6.45167	-1.40046	-1.35323
H	7.69358	-0.0931751	-0.0964539
H	5.00042	0.22954	0.843335
C	5.38203	1.75867	-0.655632
H	6.07286	1.931	-1.50833
H	4.33605	1.81197	-1.02115
H	5.53418	2.57648	0.0821803
N	4.23988	-0.991199	-1.39501
C	3.96304	-2.05711	-2.32955
H	3.47574	-0.444719	-1.06864
H	2.8755	-2.10778	-2.55739
H	4.27932	-3.03949	-1.90983
H	4.51433	-1.89595	-3.28415
