44
  This energy is -1.5301 and Call times are: 42537
C	-2.20531	2.1852	1.57295
C	-1.81913	1.31555	0.43906
O	-2.62026	1.02785	-0.439475
H	-3.27463	2.47094	1.46909
H	-1.58586	3.10662	1.57683
H	-2.06944	1.64465	2.53338
N	-0.561032	0.868836	0.43544
C	-0.0510509	-0.0204207	-0.578317
C	1.05458	-0.856314	0.0384687
O	1.4852	-0.601108	1.16148
H	0.0675003	1.07837	1.17902
H	-0.836271	-0.700037	-0.885209
C	0.482589	0.773468	-1.79084
H	1.29539	1.46321	-1.47836
H	0.865405	0.0994029	-2.58432
H	-0.341187	1.3838	-2.22124
N	1.53646	-1.88681	-0.683948
C	2.58509	-2.74067	-0.176514
H	1.17245	-2.0801	-1.58905
H	2.84306	-3.5293	-0.917274
H	2.26438	-3.23796	0.767477
H	3.50372	-2.14872	0.0399753
C	6.44618	-3.21857	1.26357
C	6.79752	-2.13905	0.313646
O	7.78613	-2.22253	-0.401965
H	7.20909	-4.0248	1.20184
H	5.45257	-3.64376	1.00921
H	6.42425	-2.82325	2.30102
N	5.98186	-1.08244	0.287957
C	6.21667	0.0650524	-0.552688
C	5.6076	1.27907	0.123164
O	4.89633	1.15518	1.11838
H	5.20396	-1.01067	0.905676
H	7.28264	0.239498	-0.629463
C	5.59945	-0.14155	-1.95326
H	4.50416	-0.310075	-1.87585
H	5.78548	0.729504	-2.61445
H	6.05398	-1.03958	-2.42579
N	5.8817	2.48984	-0.401144
C	5.35087	3.70199	0.177726
H	6.46265	2.57018	-1.20434
H	5.68983	4.59284	-0.395625
H	5.68998	3.81456	1.23301
H	4.23695	3.68477	0.17304
