44
  This energy is -5.7366 and Call times are: 102700
C	-0.28513	-2.81688	2.02399
C	0.516097	-1.85822	1.23018
O	1.73786	-1.85184	1.29071
H	0.396452	-3.44746	2.63531
H	-0.874258	-3.4736	1.3499
H	-0.974003	-2.27045	2.7022
N	-0.167173	-1.01128	0.456743
C	0.470945	0.00679888	-0.340056
C	-0.499044	1.16287	-0.495562
O	-1.66684	1.05932	-0.1251
H	-1.16302	-1.00151	0.449293
H	1.33841	0.382399	0.188203
C	0.877363	-0.548738	-1.72261
H	-0.0136804	-0.924562	-2.26926
H	1.38222	0.221911	-2.34045
H	1.58088	-1.39861	-1.58427
N	-0.0316893	2.30181	-1.04367
C	-0.880085	3.45637	-1.22641
H	0.917362	2.36785	-1.33352
H	-0.312188	4.29201	-1.69163
H	-1.28177	3.80739	-0.248296
H	-1.74356	3.20925	-1.88556
C	3.99208	0.943104	-3.31139
C	4.41665	-0.036109	-2.2857
O	4.6422	-1.20215	-2.57875
H	3.9137	0.432971	-4.29601
H	4.73698	1.76271	-3.38956
H	3.00099	1.36858	-3.04721
N	4.53435	0.424553	-1.03818
C	4.89675	-0.417774	0.074344
C	4.2764	0.164653	1.33034
O	3.73807	1.26991	1.31262
H	4.30769	1.36662	-0.807993
H	4.47002	-1.40259	-0.0693657
C	6.43155	-0.508657	0.220508
H	6.86876	0.500269	0.378494
H	6.7235	-1.16563	1.0653
H	6.86479	-0.929938	-0.712855
N	4.33069	-0.575088	2.45543
C	3.76232	-0.105036	3.69728
H	4.76689	-1.46882	2.44905
H	3.90791	-0.855421	4.50534
H	2.66958	0.0802855	3.58384
H	4.24324	0.848829	4.0135
