44
  This energy is -3.5368 and Call times are: 102290
C	0.142904	-1.63812	-3.06738
C	-0.230483	-0.479834	-2.22471
O	-0.603851	0.572388	-2.72454
H	0.0383099	-1.36156	-4.13904
H	-0.524079	-2.49913	-2.85169
H	1.19666	-1.92921	-2.87257
N	-0.133816	-0.650971	-0.904196
C	-0.421085	0.397964	0.0422564
C	0.416209	0.156792	1.28416
O	1.05019	-0.887443	1.42328
H	0.210761	-1.4998	-0.513522
H	-0.113668	1.34905	-0.374349
C	-1.9236	0.423138	0.398689
H	-2.23712	-0.548773	0.835875
H	-2.15992	1.23546	1.11619
H	-2.51735	0.59289	-0.525975
N	0.444296	1.12825	2.2177
C	1.2177	0.989798	3.42967
H	-0.072029	1.96788	2.08537
H	1.11183	1.89372	4.06916
H	2.29769	0.852534	3.1929
H	0.877216	0.10465	4.01424
C	8.50151	-2.13118	-0.00231114
C	7.3556	-1.48316	0.674524
O	6.98344	-1.85041	1.78044
H	8.89282	-2.9495	0.640413
H	9.3115	-1.39186	-0.175758
H	8.17893	-2.5606	-0.97422
N	6.76006	-0.488743	0.012065
C	5.60628	0.208829	0.522694
C	4.79496	0.708588	-0.657803
O	5.23909	0.638297	-1.80214
H	7.04867	-0.228388	-0.904874
H	4.98283	-0.485879	1.07161
C	6.02952	1.3874	1.42662
H	6.66044	2.10578	0.861017
H	5.14977	1.92406	1.83718
H	6.62855	0.999297	2.2792
N	3.57428	1.22078	-0.405587
C	2.72833	1.71583	-1.46646
H	3.23051	1.26547	0.52656
H	1.76609	2.09538	-1.05748
H	2.50312	0.907164	-2.199
H	3.2294	2.54718	-2.01321
