44
  This energy is -4.1899 and Call times are: 102453
C	1.57282	2.99218	0.828118
C	0.783379	1.79227	1.18607
O	0.577234	1.49568	2.35481
H	1.91541	3.4971	1.7574
H	0.948853	3.70039	0.243432
H	2.46122	2.70102	0.228905
N	0.318683	1.06256	0.169232
C	-0.428931	-0.155374	0.359654
C	-0.187688	-1.05103	-0.840827
O	0.406859	-0.630079	-1.8313
H	0.529401	1.29413	-0.776201
H	-0.049811	-0.674727	1.23096
C	-1.93607	0.141689	0.519433
H	-2.32783	0.665114	-0.378668
H	-2.52089	-0.78704	0.680575
H	-2.0882	0.804877	1.39886
N	-0.639713	-2.3189	-0.775912
C	-0.451372	-3.24538	-1.86785
H	-1.11491	-2.64239	0.0356394
H	-0.892685	-4.23663	-1.62311
H	0.633137	-3.38731	-2.07992
H	-0.937439	-2.86423	-2.795
C	7.63754	2.00514	1.87699
C	7.12928	0.680714	1.45422
O	7.72214	-0.348121	1.74822
H	8.58519	1.8714	2.44262
H	6.89582	2.50832	2.53228
H	7.83618	2.64034	0.988099
N	6.00114	0.67826	0.740311
C	5.4079	-0.52904	0.221605
C	4.64392	-0.17613	-1.04068
O	4.47096	0.997196	-1.36487
H	5.55221	1.52645	0.474048
H	6.19252	-1.22062	-0.058949
C	4.46581	-1.17225	1.26275
H	3.6546	-0.466972	1.54305
H	4.01347	-2.11016	0.880332
H	5.04435	-1.41484	2.18078
N	4.17336	-1.1916	-1.79127
C	3.43947	-0.952283	-3.01205
H	4.32689	-2.13448	-1.51471
H	3.13826	-1.91311	-3.48463
H	4.06265	-0.383904	-3.73998
H	2.51941	-0.358306	-2.80755
