44
  This energy is 0.1586 and Call times are: 105988
C	3.21339	0.771025	-1.09193
C	1.88326	0.152265	-1.2895
O	1.53284	-0.258205	-2.38728
H	3.75538	0.794428	-2.06228
H	3.80636	0.179231	-0.363289
H	3.10018	1.81061	-0.718398
N	1.09962	0.0729597	-0.211542
C	-0.237548	-0.464218	-0.25602
C	-1.05217	0.203782	0.835638
O	-0.511861	0.922354	1.67435
H	1.3829	0.448567	0.666263
H	-0.694751	-0.206451	-1.2032
C	-0.223449	-1.99616	-0.0605779
H	0.235937	-2.26063	0.915668
H	-1.24608	-2.42352	-0.106645
H	0.384746	-2.46327	-0.865721
N	-2.3822	-0.0129248	0.84469
C	-3.23876	0.585267	1.84202
H	-2.80167	-0.594155	0.155279
H	-4.29817	0.287409	1.68033
H	-3.17652	1.69677	1.79763
H	-2.93591	0.263103	2.86458
C	5.71787	1.24468	2.92458
C	4.72047	1.30319	1.83237
O	3.76569	2.06595	1.88725
H	5.42624	1.95687	3.72682
H	6.72146	1.52582	2.54182
H	5.75876	0.220182	3.35097
N	4.92285	0.48214	0.799272
C	4.01576	0.394492	-0.317892
C	4.10665	-1.00677	-0.89215
O	4.97557	-1.78856	-0.510719
H	5.68219	-0.162163	0.787874
H	3.00116	0.533693	0.0340042
C	4.36422	1.44483	-1.39521
H	5.40141	1.29589	-1.76412
H	3.66434	1.39669	-2.25449
H	4.29902	2.46196	-0.950756
N	3.19925	-1.36096	-1.82337
C	3.20431	-2.6753	-2.42226
H	2.50123	-0.715916	-2.11623
H	2.38106	-2.77271	-3.16388
H	3.07034	-3.4618	-1.6446
H	4.17033	-2.86607	-2.94337
