44
  This energy is -2.4868 and Call times are: 107099
C	-2.56837	2.3484	0.034426
C	-1.48935	1.60727	-0.656651
O	-1.36756	1.65447	-1.87294
H	-3.18728	2.88303	-0.718564
H	-2.13386	3.09161	0.73555
H	-3.21641	1.64412	0.597563
N	-0.670166	0.892293	0.118024
C	0.399779	0.0848617	-0.412855
C	0.640556	-1.06876	0.542518
O	0.089711	-1.10203	1.64123
H	-0.806997	0.830994	1.1026
H	0.090815	-0.339725	-1.3599
C	1.68677	0.92043	-0.588091
H	2.01006	1.34757	0.385089
H	2.51412	0.313265	-1.00924
H	1.48511	1.7633	-1.28469
N	1.46888	-2.05221	0.139136
C	1.75357	-3.19255	0.978644
H	1.90204	-2.00963	-0.755086
H	2.45539	-3.88978	0.470174
H	0.817876	-3.74865	1.21634
H	2.21572	-2.86802	1.93898
C	7.55857	-0.733319	3.11918
C	7.44374	-0.962306	1.66126
O	8.23879	-1.67844	1.06842
H	8.4436	-1.28192	3.50854
H	6.64936	-1.10394	3.63756
H	7.68696	0.349826	3.32747
N	6.43465	-0.345952	1.04139
C	6.21916	-0.437977	-0.38116
C	5.53095	0.834315	-0.838567
O	5.10743	1.64985	-0.0217202
H	5.8201	0.266449	1.53042
H	7.17642	-0.485978	-0.885099
C	5.36076	-1.67349	-0.730326
H	4.37452	-1.61954	-0.221943
H	5.19936	-1.76317	-1.82414
H	5.87984	-2.59205	-0.379409
N	5.41067	1.03786	-2.16526
C	4.77523	2.22241	-2.6937
H	5.76329	0.368435	-2.8107
H	4.77466	2.20546	-3.80588
H	5.31171	3.13914	-2.35745
H	3.71997	2.29189	-2.34336
