44
  This energy is 0.1445 and Call times are: 106847
C	-1.08384	-1.42316	-2.98539
C	-0.343975	-1.48588	-1.70485
O	0.085987	-2.54678	-1.27353
H	-1.16898	-2.44667	-3.4109
H	-0.543083	-0.777152	-3.70858
H	-2.10393	-1.01738	-2.8185
N	-0.179127	-0.329978	-1.05748
C	0.481852	-0.238067	0.220493
C	-0.094114	0.950774	0.966466
O	-0.851565	1.73985	0.404907
H	-0.570395	0.519005	-1.401
H	0.258368	-1.12332	0.802743
C	2.00758	-0.0780154	0.0422373
H	2.23784	0.835733	-0.546048
H	2.52941	-0.0200522	1.0194
H	2.40623	-0.955105	-0.512869
N	0.247757	1.10191	2.26119
C	-0.255763	2.20016	3.05271
H	0.858652	0.450778	2.69926
H	0.139397	2.15004	4.09124
H	-1.36857	2.17284	3.09945
H	0.0472657	3.17597	2.60875
C	3.17728	0.784595	0.675773
C	4.31298	0.618538	-0.258972
O	4.1427	0.629871	-1.47029
H	2.23563	0.890588	0.0944644
H	3.32149	1.69457	1.29537
H	3.09319	-0.103298	1.33732
N	5.51738	0.455561	0.293527
C	6.71107	0.239223	-0.485486
C	7.68046	-0.574859	0.350651
O	7.45719	-0.792891	1.5399
H	5.63432	0.407593	1.28139
H	6.46508	-0.350513	-1.35974
C	7.34993	1.58263	-0.900645
H	7.61212	2.18352	-0.00385287
H	8.26229	1.42949	-1.51275
H	6.6202	2.16491	-1.50463
N	8.7831	-1.0531	-0.258845
C	9.75922	-1.84263	0.455298
H	8.94435	-0.869596	-1.2229
H	10.592	-2.14191	-0.218541
H	9.29204	-2.7666	0.866758
H	10.1868	-1.26382	1.30577
