44
  This energy is -1.9826 and Call times are: 111509
C	-2.24801	1.62484	-2.10215
C	-0.873446	1.35187	-1.62549
O	0.102604	1.74548	-2.24903
H	-2.19974	2.18878	-3.05898
H	-2.79881	2.23286	-1.35404
H	-2.78989	0.670972	-2.27416
N	-0.765918	0.657378	-0.49037
C	0.504638	0.277719	0.0754098
C	0.307938	-1.00458	0.861906
O	-0.819355	-1.44915	1.06996
H	-1.56909	0.308599	-0.0158811
H	1.2017	0.0617139	-0.724636
C	1.05742	1.39374	0.988744
H	0.347464	1.60839	1.81574
H	2.04206	1.11911	1.41954
H	1.18589	2.32453	0.394218
N	1.40935	-1.6368	1.3127
C	1.32036	-2.86618	2.06561
H	2.31314	-1.26379	1.13081
H	2.33348	-3.23003	2.34567
H	0.816832	-3.65858	1.46574
H	0.731905	-2.71362	2.9992
C	7.5964	1.50328	-2.90199
C	7.42631	1.45882	-1.43221
O	8.05	2.21434	-0.699671
H	8.34979	2.27855	-3.16125
H	6.63334	1.76027	-3.39108
H	7.94983	0.519365	-3.27624
N	6.56421	0.554534	-0.961646
C	6.32456	0.363184	0.44708
C	5.9145	-1.08106	0.665206
O	5.67642	-1.81911	-0.288896
H	6.09462	-0.0811199	-1.56769
H	7.24719	0.522239	0.991221
C	5.22446	1.32099	0.954649
H	4.27477	1.15099	0.403974
H	5.04044	1.19299	2.04105
H	5.54237	2.37168	0.77769
N	5.83041	-1.52209	1.93581
C	5.45311	-2.88265	2.24027
H	6.03086	-0.911092	2.69447
H	5.44145	-3.05087	3.33972
H	6.17168	-3.60113	1.78341
H	4.43811	-3.108	1.84009
