44
  This energy is -1.8095 and Call times are: 104202
C	-0.769269	-3.38873	0.193399
C	-0.942738	-2.04494	-0.402654
O	-1.5747	-1.88864	-1.43832
H	-1.27025	-4.1437	-0.450742
H	-1.2252	-3.42033	1.20526
H	0.310259	-3.63843	0.266648
N	-0.373077	-1.02858	0.249163
C	-0.41869	0.330279	-0.230408
C	0.820325	1.04972	0.268383
O	1.56793	0.521253	1.08906
H	0.172727	-1.17692	1.06889
H	-0.377171	0.328791	-1.31249
C	-1.69556	1.04638	0.261578
H	-1.73339	1.05745	1.37175
H	-1.74918	2.08931	-0.112516
H	-2.58943	0.498292	-0.108486
N	1.07187	2.27784	-0.226074
C	2.23024	3.03589	0.185914
H	0.457475	2.68715	-0.892451
H	2.26125	4.01953	-0.332455
H	3.16723	2.48324	-0.0547058
H	2.20982	3.21884	1.28466
C	4.68685	-3.30513	0.402957
C	5.18881	-2.02103	0.941716
O	5.23082	-1.81323	2.14649
H	4.37269	-3.9591	1.24526
H	5.4868	-3.81807	-0.171255
H	3.81318	-3.12704	-0.258906
N	5.58512	-1.11538	0.0444289
C	6.05706	0.195728	0.414333
C	5.74698	1.14877	-0.724584
O	5.33511	0.727592	-1.80379
H	5.50655	-1.28361	-0.934029
H	5.50901	0.54098	1.28212
C	7.57376	0.174457	0.704868
H	8.13727	-0.169616	-0.188508
H	7.94666	1.17537	1.00427
H	7.7783	-0.535251	1.53602
N	5.9312	2.46564	-0.505676
C	5.65733	3.44757	-1.5289
H	6.26126	2.78756	0.37552
H	5.87052	4.47372	-1.15635
H	4.58854	3.40278	-1.84026
H	6.28718	3.26328	-2.42916
