44
  This energy is 0.1056 and Call times are: 105835
C	-3.44791	0.0505185	-0.471242
C	-2.23474	0.375811	0.312054
O	-2.28317	1.14034	1.26576
H	-4.31406	0.61045	-0.0563585
H	-3.6615	-1.03741	-0.411844
H	-3.30712	0.341913	-1.53349
N	-1.09992	-0.206506	-0.082247
C	0.169081	0.0454716	0.553912
C	1.26296	-0.14946	-0.479036
O	1.00836	-0.625133	-1.58386
H	-1.06876	-0.794469	-0.885488
H	0.208867	1.07896	0.874764
C	0.382479	-0.902799	1.75411
H	0.352265	-1.96299	1.42378
H	1.3501	-0.70935	2.26088
H	-0.433653	-0.748539	2.49336
N	2.51349	0.224308	-0.143616
C	3.61755	0.0815876	-1.06387
H	2.69911	0.611045	0.753631
H	4.5627	0.444848	-0.603502
H	3.43253	0.667595	-1.99319
H	3.75472	-0.986171	-1.35061
C	-0.605838	-1.35595	0.967477
C	0.218739	-0.496283	0.0887266
O	-0.238768	-0.0200831	-0.940999
H	-1.61697	-1.47488	0.521015
H	-0.7083	-0.891225	1.97061
H	-0.138382	-2.35792	1.0705
N	1.47557	-0.277585	0.482352
C	2.41099	0.502307	-0.289205
C	3.80897	-0.00713441	0.00693583
O	4.00525	-0.820037	0.908251
H	1.84591	-0.705474	1.30187
H	2.22574	0.341424	-1.34392
C	2.29664	2.00284	0.0580198
H	2.49697	2.1697	1.13787
H	3.00226	2.6156	-0.539599
H	1.26356	2.35207	-0.159053
N	4.81813	0.456348	-0.756469
C	6.18097	0.023976	-0.551736
H	4.63897	1.11065	-1.4837
H	6.86343	0.517232	-1.2785
H	6.26705	-1.07902	-0.683137
H	6.52303	0.27671	0.477952
