44
  This energy is 0.1364 and Call times are: 103381
C	-2.08497	2.66188	-0.824587
C	-1.26602	1.48523	-1.1933
O	-1.31874	1.00429	-2.31683
H	-2.70523	2.96526	-1.69587
H	-1.42865	3.51028	-0.537867
H	-2.75575	2.41056	0.0239306
N	-0.479107	0.986687	-0.23695
C	0.343069	-0.181402	-0.432286
C	0.516952	-0.867207	0.909724
O	0.137067	-0.327123	1.94689
H	-0.477695	1.36399	0.684738
H	-0.171664	-0.875473	-1.08493
C	1.71606	0.203308	-1.0257
H	2.24903	0.907131	-0.351455
H	2.35325	-0.689037	-1.19372
H	1.56416	0.710648	-2.00339
N	1.09199	-2.08592	0.919267
C	1.29383	-2.81689	2.14855
H	1.38911	-2.5084	0.0693832
H	1.7802	-3.79691	1.948
H	0.320874	-3.00609	2.6573
H	1.94217	-2.23988	2.84702
C	4.94039	0.997135	-2.2173
C	4.47138	0.638058	-0.860009
O	5.26241	0.450299	0.0540041
H	6.05143	1.03458	-2.22402
H	4.54546	1.99339	-2.50757
H	4.602	0.236999	-2.95266
N	3.15058	0.530901	-0.697547
C	2.54635	0.14667	0.553785
C	1.23114	-0.546187	0.25091
O	0.770664	-0.552727	-0.889101
H	2.52151	0.646602	-1.46092
H	3.18329	-0.573758	1.0517
C	2.3142	1.37875	1.45563
H	1.65227	2.11343	0.949531
H	1.86206	1.09429	2.42783
H	3.28874	1.87452	1.65767
N	0.596632	-1.15677	1.27101
C	-0.657571	-1.84627	1.07675
H	0.986983	-1.14416	2.18564
H	-1.01892	-2.28248	2.03403
H	-0.541702	-2.67148	0.337238
H	-1.4356	-1.14663	0.694229
