44
  This energy is -1.9768 and Call times are: 104480
C	0.499709	3.35813	0.765483
C	-0.259779	2.09322	0.885219
O	-1.13951	1.96016	1.72473
H	0.144042	4.07458	1.53754
H	0.343088	3.80496	-0.238784
H	1.58299	3.17028	0.921402
N	0.0713401	1.11937	0.0341336
C	-0.548721	-0.182	0.0570575
C	0.453957	-1.19296	-0.466545
O	1.51275	-0.825895	-0.972457
H	0.817445	1.22852	-0.616466
H	-0.774415	-0.452177	1.08112
C	-1.83185	-0.196952	-0.802351
H	-1.59922	0.0698796	-1.85531
H	-2.32613	-1.18982	-0.781632
H	-2.54784	0.555771	-0.40597
N	0.144606	-2.49924	-0.348474
C	1.03974	-3.53305	-0.813411
H	-0.71506	-2.77681	0.0674643
H	0.607296	-4.54075	-0.627013
H	2.01993	-3.46958	-0.287596
H	1.22701	-3.42839	-1.90662
C	3.1598	1.80163	-2.54846
C	4.13717	0.798996	-2.06822
O	4.71688	0.0559953	-2.84815
H	3.06628	1.72343	-3.65345
H	3.50242	2.8252	-2.28834
H	2.16553	1.61711	-2.08972
N	4.34245	0.754466	-0.749785
C	5.23117	-0.196343	-0.129544
C	4.72853	-0.466353	1.27617
O	3.82235	0.208248	1.76141
H	3.83269	1.33787	-0.123976
H	5.1885	-1.13219	-0.672682
C	6.67784	0.343152	-0.0930146
H	6.72394	1.29785	0.473093
H	7.37432	-0.385712	0.369792
H	7.02203	0.541124	-1.13161
N	5.30412	-1.47245	1.96354
C	4.88764	-1.80622	3.30567
H	6.03313	-2.00973	1.5525
H	5.47979	-2.66126	3.7
H	3.80996	-2.08829	3.32381
H	5.02861	-0.937303	3.9885
