44
  This energy is 0.1171 and Call times are: 106616
C	-0.67454	0.577458	-3.36515
C	-0.414989	1.05331	-1.98771
O	-0.192595	2.23392	-1.75724
H	-0.609759	1.43585	-4.0686
H	-1.69025	0.134038	-3.43184
H	0.0804485	-0.183171	-3.65588
N	-0.435918	0.127383	-1.02615
C	-0.159449	0.430513	0.355961
C	0.421669	-0.81127	1.00545
O	0.43199	-1.88711	0.410324
H	-0.577865	-0.83605	-1.23475
H	0.595619	1.205	0.407691
C	-1.44299	0.875596	1.09058
H	-2.2142	0.0772417	1.04687
H	-1.2406	1.12516	2.15231
H	-1.85517	1.78081	0.593531
N	0.929903	-0.687752	2.24741
C	1.50889	-1.81364	2.94263
H	0.916216	0.191933	2.71113
H	1.87119	-1.51008	3.94952
H	2.37041	-2.22785	2.37036
H	0.756933	-2.62565	3.07045
C	9.90908	-0.510589	0.479818
C	8.77185	0.255664	-0.0776065
O	8.93544	1.36405	-0.568654
H	10.8398	0.0892636	0.380894
H	10.0358	-1.46458	-0.0738797
H	9.73403	-0.727709	1.55466
N	7.57307	-0.3281	-0.0103029
C	6.36614	0.311301	-0.471854
C	5.20446	-0.228045	0.341281
O	5.3577	-1.18066	1.10335
H	7.44944	-1.21317	0.429269
H	6.42894	1.37491	-0.278459
C	6.14257	0.0467953	-1.97694
H	6.06753	-1.04381	-2.17439
H	5.22358	0.545471	-2.3475
H	7.00826	0.442542	-2.55167
N	4.00924	0.37884	0.202877
C	2.84796	-0.0616293	0.940158
H	3.90587	1.15078	-0.415586
H	1.96266	0.563415	0.689569
H	3.0286	0.0103824	2.03718
H	2.60814	-1.12244	0.698679
