44
  This energy is -1.9871 and Call times are: 107479
C	1.0296	0.650578	3.26027
C	0.160188	0.912907	2.09132
O	-0.823616	1.63407	2.18331
H	0.621906	1.18162	4.14777
H	2.05826	1.01864	3.06242
H	1.06198	-0.43814	3.47646
N	0.509541	0.320471	0.947051
C	-0.261712	0.446095	-0.264537
C	-0.0522295	-0.808865	-1.09082
O	0.797884	-1.63804	-0.772253
H	1.2898	-0.29648	0.897787
H	-1.31416	0.495739	-0.014515
C	0.164896	1.69749	-1.06282
H	1.24206	1.64209	-1.32867
H	-0.431233	1.81295	-1.99117
H	0.0104957	2.60287	-0.436089
N	-0.834391	-0.981798	-2.1745
C	-0.710735	-2.14799	-3.01763
H	-1.51949	-0.30178	-2.41383
H	-1.4407	-2.10643	-3.85587
H	-0.900845	-3.07722	-2.4331
H	0.314561	-2.21473	-3.44828
C	6.18261	-2.07639	-2.74184
C	5.39125	-1.06238	-2.00925
O	4.46816	-0.468541	-2.54933
H	5.80432	-2.15465	-3.78426
H	6.08576	-3.06662	-2.24908
H	7.25251	-1.78035	-2.76908
N	5.74345	-0.837225	-0.741322
C	5.09536	0.150046	0.0856155
C	6.10104	0.644332	1.10829
O	7.1913	0.0909402	1.23786
H	6.52318	-1.29897	-0.328207
H	4.81323	0.998342	-0.525468
C	3.85658	-0.446616	0.788939
H	4.147	-1.31038	1.42424
H	3.34078	0.307645	1.41788
H	3.13799	-0.809017	0.0217145
N	5.75835	1.71085	1.85736
C	6.65323	2.25485	2.85206
H	4.8733	2.14769	1.73514
H	6.19062	3.12886	3.36131
H	7.60716	2.58747	2.3823
H	6.8969	1.48825	3.62284
