44
  This energy is 0.1159 and Call times are: 112038
C	-2.4118	-2.50763	-0.0878911
C	-1.87197	-1.20257	-0.531243
O	-2.34608	-0.615603	-1.4941
H	-3.24075	-2.81092	-0.763707
H	-2.80352	-2.42778	0.947927
H	-1.61721	-3.28251	-0.123664
N	-0.848666	-0.713485	0.173043
C	-0.190047	0.524159	-0.163137
C	1.24943	0.437046	0.307895
O	1.6264	-0.498278	1.0113
H	-0.447186	-1.22238	0.929157
H	-0.170801	0.637569	-1.23989
C	-0.903473	1.72531	0.495271
H	-0.914197	1.61462	1.60056
H	-0.413984	2.68551	0.232717
H	-1.95717	1.76477	0.142407
N	2.09412	1.41313	-0.0791057
C	3.48342	1.41107	0.315917
H	1.77149	2.15955	-0.651675
H	4.01247	2.29565	-0.102228
H	3.99459	0.491446	-0.0505111
H	3.57653	1.43886	1.42574
C	2.29294	3.30841	0.223098
C	2.06351	1.88749	-0.122582
O	0.943944	1.47418	-0.391208
H	1.32336	3.85196	0.205078
H	2.98038	3.77523	-0.513275
H	2.73115	3.38885	1.24024
N	3.13816	1.09533	-0.120883
C	3.06665	-0.318325	-0.394785
C	4.20176	-1.00136	0.344511
O	5.08108	-0.342139	0.895817
H	4.03632	1.43768	0.1398
H	2.1396	-0.712683	0.00232034
C	3.16603	-0.592126	-1.91149
H	4.12166	-0.197069	-2.31738
H	3.09828	-1.67625	-2.13643
H	2.3304	-0.0763442	-2.43306
N	4.20364	-2.34848	0.380136
C	5.24044	-3.08508	1.06469
H	3.48132	-2.86437	-0.0684068
H	5.06555	-4.18035	0.98079
H	5.26522	-2.81593	2.14553
H	6.23945	-2.85492	0.628621
