44
  This energy is -2.3484 and Call times are: 110211
C	-0.928943	-3.34036	-0.302884
C	-0.720269	-2.11322	0.49819
O	-1.12964	-2.03063	1.64797
H	-1.49599	-4.08144	0.301384
H	0.0489438	-3.78208	-0.588124
H	-1.50941	-3.10474	-1.21974
N	-0.0689997	-1.11523	-0.103671
C	0.171887	0.155889	0.532567
C	0.251708	1.21797	-0.547783
O	0.281687	0.905969	-1.73668
H	0.22211	-1.1823	-1.05374
H	-0.670397	0.403339	1.16657
C	1.47801	0.12192	1.35604
H	2.34392	-0.12153	0.704144
H	1.66745	1.09069	1.86213
H	1.40022	-0.667544	2.13517
N	0.279626	2.50717	-0.156362
C	0.349633	3.58645	-1.11368
H	0.250396	2.74	0.810081
H	0.362673	4.57094	-0.596151
H	-0.529083	3.56194	-1.79817
H	1.27202	3.50337	-1.7329
C	4.92186	-2.64251	2.04283
C	5.16267	-1.20212	1.8011
O	4.77785	-0.354141	2.59436
H	4.35766	-2.76622	2.99268
H	5.88795	-3.18341	2.12561
H	4.32599	-3.07559	1.2119
N	5.81445	-0.889576	0.678655
C	6.08468	0.470954	0.285603
C	6.15629	0.520375	-1.22899
O	6.15806	-0.514108	-1.89348
H	6.0853	-1.58828	0.0226774
H	5.25874	1.10154	0.590224
C	7.40672	0.972457	0.906843
H	8.25598	0.332148	0.586189
H	7.61895	2.02356	0.622839
H	7.33455	0.919984	2.01516
N	6.20887	1.7336	-1.81322
C	6.2734	1.87912	-3.24878
H	6.20231	2.55933	-1.25895
H	6.30971	2.95365	-3.53391
H	5.38071	1.41861	-3.73078
H	7.18185	1.37767	-3.65424
