44
  This energy is 0.1363 and Call times are: 107367
C	2.21355	2.18215	1.5656
C	1.08401	1.22601	1.59828
O	0.652261	0.792296	2.65748
H	2.55675	2.38082	2.60417
H	1.8915	3.13932	1.10424
H	3.05805	1.75703	0.983203
N	0.574092	0.869285	0.417134
C	-0.498562	-0.0850328	0.285796
C	-0.35786	-0.772622	-1.05919
O	0.454566	-0.37081	-1.88999
H	0.962901	1.19925	-0.438328
H	-0.395294	-0.845871	1.0494
C	-1.87282	0.610873	0.39703
H	-1.98348	1.38425	-0.392699
H	-2.70689	-0.115421	0.311337
H	-1.95052	1.11389	1.38561
N	-1.14631	-1.83813	-1.30224
C	-1.07875	-2.55905	-2.552
H	-1.79469	-2.15084	-0.616031
H	-1.80439	-3.40203	-2.55945
H	-0.0572886	-2.97449	-2.71107
H	-1.3146	-1.88555	-3.40751
C	8.16663	1.05438	-0.0318875
C	7.13326	-9.1702e-06	-0.139415
O	7.41227	-1.12111	-0.541526
H	9.14204	0.649421	-0.378921
H	8.26917	1.38351	1.02353
H	7.89294	1.92443	-0.665273
N	5.89489	0.343657	0.222141
C	4.77577	-0.560796	0.132181
C	3.51887	0.261659	-0.0807476
O	3.54458	1.48723	0.0142328
H	5.67533	1.27189	0.508569
H	4.89769	-1.19459	-0.73734
C	4.65303	-1.41569	1.41255
H	4.51737	-0.766344	2.30361
H	3.80324	-2.12593	1.3499
H	5.5868	-2.00287	1.55269
N	2.38375	-0.398242	-0.384148
C	1.14013	0.300921	-0.609453
H	2.38368	-1.38982	-0.460632
H	0.323292	-0.415931	-0.846361
H	1.23871	1.01354	-1.46018
H	0.846153	0.881414	0.294841
