44
  This energy is -1.1655 and Call times are: 107423
C	0.51986	2.31565	2.54562
C	1.0036	1.26968	1.6166
O	2.1993	1.05691	1.47018
H	1.39141	2.82223	3.01429
H	-0.103037	1.86014	3.34391
H	-0.0801526	3.06976	1.99391
N	0.0678701	0.583996	0.955815
C	0.384978	-0.434831	-0.0137183
C	-0.74181	-0.489567	-1.02807
O	-1.78287	0.139158	-0.847464
H	-0.900052	0.796497	1.055
H	1.28495	-0.153505	-0.546195
C	0.566448	-1.80839	0.66866
H	-0.36016	-2.10231	1.20629
H	0.824593	-2.5987	-0.0657081
H	1.39051	-1.74275	1.41228
N	-0.554783	-1.24183	-2.13041
C	-1.56918	-1.34977	-3.15292
H	0.296015	-1.74004	-2.26079
H	-1.22699	-2.01273	-3.97791
H	-1.80258	-0.348392	-3.58192
H	-2.5096	-1.77212	-2.73058
C	7.06079	-1.39167	3.15961
C	7.92072	-0.873128	2.07204
O	9.11276	-0.665582	2.25197
H	7.66991	-1.51779	4.08098
H	6.63375	-2.37583	2.87358
H	6.23627	-0.677905	3.36881
N	7.32323	-0.646818	0.899786
C	8.01939	-0.102306	-0.239259
C	7.01801	0.662115	-1.08452
O	5.81381	0.60036	-0.844101
H	6.34374	-0.781862	0.78054
H	8.76213	0.607937	0.102074
C	8.68313	-1.22384	-1.06802
H	7.92024	-1.947	-1.42729
H	9.23402	-0.816124	-1.94027
H	9.4059	-1.77483	-0.42743
N	7.49735	1.41244	-2.09609
C	6.62025	2.17866	-2.95035
H	8.47526	1.45301	-2.27248
H	7.20383	2.72842	-3.72135
H	6.04095	2.92053	-2.35425
H	5.89504	1.51089	-3.46929
