44
  This energy is 0.1301 and Call times are: 109751
C	-1.1776	-3.25497	-0.362101
C	-1.11543	-1.96438	0.360156
O	-1.89643	-1.70768	1.266
H	-2.0138	-3.86388	0.0451847
H	-0.227731	-3.81421	-0.228918
H	-1.35454	-3.07975	-1.44427
N	-0.169338	-1.10879	-0.0338752
C	-0.0125215	0.202567	0.544319
C	0.58548	1.11564	-0.509366
O	1.00046	0.661675	-1.57399
H	0.432565	-1.31548	-0.799942
H	-0.987246	0.599387	0.799423
C	0.894579	0.149986	1.79318
H	1.89808	-0.24716	1.52995
H	1.01189	1.15144	2.25561
H	0.4416	-0.529916	2.54743
N	0.635721	2.43469	-0.238092
C	1.18264	3.38042	-1.1829
H	0.291234	2.78359	0.627168
H	1.13479	4.41471	-0.776494
H	0.6132	3.3533	-2.14013
H	2.24715	3.14065	-1.40756
C	5.94818	-1.18338	-2.79795
C	5.81284	-1.00422	-1.33483
O	6.53657	-1.60634	-0.553746
H	6.75332	-1.92154	-3.00467
H	6.21326	-0.218348	-3.27877
H	4.99598	-1.56064	-3.22698
N	4.86407	-0.15873	-0.92572
C	4.58429	0.0863623	0.467192
C	3.12124	0.466487	0.595988
O	2.43631	0.681941	-0.402087
H	4.25573	0.292783	-1.57218
H	4.73029	-0.828839	1.02729
C	5.48663	1.21044	1.02167
H	5.32953	2.15242	0.454183
H	5.29041	1.39909	2.09705
H	6.5525	0.914191	0.909895
N	2.60379	0.5497	1.83749
C	1.21983	0.899472	2.05769
H	3.17274	0.367756	2.63264
H	0.986349	0.915025	3.14511
H	0.545203	0.162364	1.56491
H	0.997146	1.90657	1.63662
