44
  This energy is -4.0065 and Call times are: 113059
C	1.944	2.74938	-0.880048
C	1.75955	1.2945	-0.678929
O	2.5933	0.490397	-1.07223
H	2.89597	2.9269	-1.42606
H	1.98985	3.26847	0.100352
H	1.10439	3.16253	-1.47792
N	0.641835	0.918968	-0.0527716
C	0.30242	-0.463201	0.177372
C	-1.20964	-0.577482	0.224
O	-1.91699	0.428042	0.241062
H	-0.046826	1.58262	0.225046
H	0.645318	-1.0593	-0.659116
C	0.924812	-0.971913	1.49611
H	0.565149	-0.367373	2.35589
H	0.682178	-2.03901	1.67768
H	2.03089	-0.87149	1.44264
N	-1.74306	-1.81495	0.237256
C	-3.17202	-2.02173	0.275649
H	-1.15453	-2.61642	0.218859
H	-3.41222	-3.10778	0.280783
H	-3.65985	-1.5591	-0.612761
H	-3.61143	-1.56092	1.18983
C	4.31737	2.73573	1.82912
C	5.09361	2.14284	0.716874
O	5.55983	2.84139	-0.172551
H	4.24428	3.83507	1.6809
H	4.82281	2.53646	2.7974
H	3.29315	2.30733	1.85196
N	5.24942	0.817152	0.742473
C	5.94316	0.0922934	-0.292835
C	5.3606	-1.30677	-0.362311
O	4.56981	-1.70281	0.491802
H	4.82922	0.257601	1.45113
H	5.75645	0.567243	-1.24792
C	7.45925	0.0338266	-0.00425471
H	7.6519	-0.462785	0.970583
H	8.00641	-0.509867	-0.801463
H	7.86265	1.06855	0.0501707
N	5.73452	-2.08927	-1.39376
C	5.22772	-3.43326	-1.54544
H	6.37224	-1.74967	-2.07718
H	5.65249	-3.91348	-2.45439
H	4.11756	-3.42619	-1.63911
H	5.49564	-4.05644	-0.66169
