44
  This energy is -1.9502 and Call times are: 104286
C	0.460922	0.246761	-3.44083
C	0.365839	-0.542223	-2.19199
O	0.291905	-1.76298	-2.21858
H	0.433304	-0.441726	-4.31325
H	1.41396	0.815977	-3.46228
H	-0.392926	0.953012	-3.51325
N	0.363398	0.150831	-1.05092
C	0.233209	-0.473903	0.241876
C	-0.42505	0.517942	1.18235
O	-0.599614	1.68684	0.84334
H	0.382908	1.14656	-1.04705
H	-0.426886	-1.3285	0.160801
C	1.61221	-0.904615	0.787847
H	2.28635	-0.0266273	0.881166
H	1.52391	-1.39948	1.7767
H	2.07883	-1.62397	0.079934
N	-0.815597	0.0687448	2.39137
C	-1.45552	0.938739	3.35043
H	-0.669498	-0.88146	2.646
H	-1.70081	0.383624	4.28258
H	-2.39997	1.35672	2.93261
H	-0.78816	1.79073	3.61479
C	8.98742	2.38207	0.00327174
C	7.55988	1.99854	0.0819038
O	6.70501	2.80631	0.418251
H	9.09889	3.44641	0.304274
H	9.35936	2.26163	-1.03591
H	9.59174	1.74992	0.68756
N	7.26708	0.733921	-0.230176
C	5.92903	0.201816	-0.159161
C	6.0258	-1.28479	0.127567
O	7.11038	-1.86305	0.0956101
H	7.97892	0.0772989	-0.462518
H	5.40708	0.657525	0.673015
C	5.16578	0.45022	-1.47863
H	5.6953	-0.026057	-2.33116
H	4.12947	0.0573184	-1.43157
H	5.11408	1.54389	-1.67239
N	4.88618	-1.93975	0.424743
C	4.8815	-3.3542	0.717104
H	4.01881	-1.45383	0.449717
H	3.84977	-3.70693	0.936962
H	5.52305	-3.57474	1.60088
H	5.27414	-3.93573	-0.148232
