44
  This energy is 0.1597 and Call times are: 106263
C	2.0614	2.7611	-0.489572
C	1.71451	1.50045	0.20439
O	2.50903	0.952191	0.955764
H	3.09899	3.05531	-0.219895
H	1.36681	3.57087	-0.182057
H	2.00192	2.62127	-1.58957
N	0.499118	1.00431	-0.0385854
C	0.0343717	-0.236631	0.529432
C	-0.976803	-0.844102	-0.424539
O	-1.39188	-0.207829	-1.39128
H	-0.12115	1.4403	-0.684374
H	0.864107	-0.928503	0.603488
C	-0.602255	-0.00394602	1.91717
H	-1.46013	0.69758	1.84009
H	-0.951586	-0.953919	2.37108
H	0.153116	0.448317	2.5963
N	-1.39248	-2.10193	-0.17734
C	-2.34881	-2.76401	-1.03364
H	-1.04211	-2.60219	0.607548
H	-2.56248	-3.79117	-0.664161
H	-1.95773	-2.84011	-2.07409
H	-3.30685	-2.19632	-1.0656
C	3.04445	-0.411693	-0.0493351
C	4.25532	0.419979	0.133084
O	4.17956	1.63779	0.220312
H	2.15085	0.247433	-0.103122
H	2.92612	-1.10838	0.807035
H	3.11866	-0.99409	-0.991873
N	5.41912	-0.231415	0.193351
C	6.68605	0.443883	0.325309
C	7.75148	-0.418022	-0.325495
O	7.49523	-1.56089	-0.699512
H	5.46863	-1.21959	0.0797292
H	6.65074	1.37919	-0.21927
C	7.02543	0.694698	1.81096
H	7.07216	-0.265363	2.36787
H	7.9922	1.22649	1.92524
H	6.22856	1.32054	2.26885
N	8.97801	0.117248	-0.484016
C	10.0535	-0.626038	-1.09797
H	9.16503	1.04509	-0.178706
H	10.9818	-0.0144568	-1.13745
H	9.78361	-0.92088	-2.13792
H	10.2693	-1.55429	-0.520946
