44
  This energy is -1.0302 and Call times are: 113236
C	-0.78582	-3.0121	1.55641
C	-0.979685	-2.00943	0.484868
O	-1.66458	-2.25759	-0.497856
H	-1.3266	-3.94562	1.2881
H	-1.18747	-2.62768	2.51747
H	0.293979	-3.2433	1.67336
N	-0.367756	-0.834899	0.653405
C	-0.427625	0.224028	-0.323145
C	0.842087	1.04625	-0.207679
O	1.62795	0.864404	0.720261
H	0.219677	-0.662398	1.43892
H	-0.443795	-0.206663	-1.31656
C	-1.67053	1.11266	-0.0978366
H	-1.64911	1.56315	0.917363
H	-1.73539	1.92354	-0.852015
H	-2.58733	0.488761	-0.178984
N	1.07707	1.97075	-1.15958
C	2.26195	2.79638	-1.13533
H	0.431467	2.10044	-1.90486
H	2.27343	3.49333	-2.00213
H	3.18021	2.16699	-1.17949
H	2.30157	3.39964	-0.199567
C	3.63647	-0.379859	-2.61627
C	4.90795	-0.711241	-1.9346
O	5.58848	-1.66285	-2.292
H	3.44925	-1.11996	-3.42439
H	3.69548	0.63429	-3.06434
H	2.79411	-0.416042	-1.89364
N	5.26023	0.0797968	-0.918454
C	6.44774	-0.141941	-0.131562
C	6.20124	0.406092	1.26145
O	5.19769	1.07243	1.50759
H	4.67543	0.825869	-0.613085
H	6.61779	-1.2069	-0.0337938
C	7.67215	0.54518	-0.77493
H	7.50244	1.63925	-0.865803
H	8.59555	0.370165	-0.18568
H	7.82886	0.134509	-1.79627
N	7.11419	0.128738	2.21308
C	6.96109	0.603248	3.56865
H	7.91771	-0.415473	1.99568
H	7.81417	0.270922	4.20035
H	6.01936	0.212306	4.01765
H	6.91913	1.71625	3.59311
