44
  This energy is -2.6419 and Call times are: 112234
C	1.58176	-0.322599	3.08328
C	1.53744	-0.509065	1.61549
O	2.53204	-0.850386	0.990455
H	2.61304	-0.521312	3.44779
H	0.882891	-1.02803	3.57996
H	1.30266	0.719795	3.34522
N	0.362284	-0.28272	1.02375
C	0.174252	-0.381174	-0.402265
C	-0.943574	0.564931	-0.798377
O	-1.62655	1.12576	0.056452
H	-0.427856	0.0342416	1.54055
H	1.07318	-0.0468316	-0.905039
C	-0.170243	-1.82911	-0.814636
H	-1.09821	-2.1689	-0.307227
H	-0.303821	-1.92077	-1.91203
H	0.657746	-2.50491	-0.507925
N	-1.15129	0.771424	-2.11376
C	-2.18869	1.65907	-2.585
H	-0.585666	0.311743	-2.7904
H	-2.20017	1.6954	-3.69665
H	-2.02515	2.69252	-2.20224
H	-3.18895	1.31551	-2.23487
C	7.18855	0.755267	3.02906
C	6.17896	1.01819	1.97894
O	5.27355	1.82101	2.15814
H	6.95402	1.36889	3.92589
H	8.20108	1.02631	2.66291
H	7.17375	-0.317887	3.314
N	6.31403	0.333128	0.841028
C	5.38524	0.449557	-0.25549
C	5.38108	-0.86465	-1.01339
O	6.20674	-1.73996	-0.760757
H	7.03234	-0.346968	0.725436
H	4.38688	0.599104	0.136353
C	5.77962	1.6131	-1.19137
H	6.79966	1.45489	-1.60192
H	5.06424	1.72184	-2.03216
H	5.78386	2.56328	-0.613896
N	4.43873	-1.03687	-1.96119
C	4.35381	-2.25677	-2.72983
H	3.77672	-0.318704	-2.14844
H	3.5142	-2.2054	-3.4576
H	4.18474	-3.13154	-2.06089
H	5.29779	-2.43174	-3.29502
