44
  This energy is -2.7268 and Call times are: 110522
C	-1.37882	-2.69087	-1.72359
C	-0.239408	-1.81283	-1.37441
O	0.904779	-2.10274	-1.69566
H	-1.00102	-3.58445	-2.26641
H	-2.09346	-2.14854	-2.37774
H	-1.90131	-3.02439	-0.802248
N	-0.53288	-0.7018	-0.694806
C	0.473431	0.228545	-0.247193
C	-0.0388624	0.91253	1.00631
O	-1.20146	0.760422	1.37639
H	-1.46408	-0.500011	-0.404947
H	1.36816	-0.31698	0.0257466
C	0.787634	1.27074	-1.3428
H	-0.12774	1.8379	-1.61566
H	1.57112	1.98448	-1.01533
H	1.15322	0.747354	-2.25316
N	0.826208	1.6806	1.69751
C	0.429906	2.3661	2.90549
H	1.76404	1.78823	1.38452
H	1.28125	2.94512	3.32642
H	0.0864298	1.63798	3.67564
H	-0.407115	3.07208	2.70022
C	3.94065	-2.30808	-0.485036
C	5.32831	-1.83755	-0.695167
O	6.17515	-2.56619	-1.19351
H	3.85484	-3.3627	-0.826015
H	3.23217	-1.68304	-1.06823
H	3.67811	-2.25636	0.59268
N	5.59568	-0.587351	-0.310583
C	6.91002	-0.00349747	-0.411518
C	7.04901	1.04035	0.680562
O	6.07843	1.37937	1.35492
H	4.90629	-0.0202938	0.131055
H	7.65522	-0.76671	-0.224958
C	7.12484	0.634936	-1.8013
H	6.36705	1.42526	-1.98885
H	8.13831	1.07582	-1.89633
H	7.01064	-0.145308	-2.58521
N	8.27049	1.57101	0.886492
C	8.49968	2.56688	1.90721
H	9.04449	1.28099	0.33342
H	9.56751	2.87802	1.92037
H	8.23924	2.16531	2.91329
H	7.87345	3.46972	1.72317
