44
  This energy is 0.115 and Call times are: 109958
C	-3.31683	0.45928	0.948872
C	-2.25369	0.383978	-0.0783508
O	-2.52669	0.343646	-1.27009
H	-4.31045	0.451931	0.450314
H	-3.21619	1.39635	1.53582
H	-3.2512	-0.413534	1.63223
N	-0.99624	0.360739	0.369611
C	0.142866	0.245765	-0.506619
C	1.25954	-0.440941	0.256947
O	1.16226	-0.647025	1.46516
H	-0.791295	0.352884	1.34419
H	-0.113721	-0.390479	-1.34447
C	0.600367	1.63523	-1.00191
H	0.873767	2.28486	-0.143262
H	1.46831	1.55903	-1.68849
H	-0.234881	2.12253	-1.55078
N	2.35019	-0.820867	-0.437428
C	3.46059	-1.48593	0.203577
H	2.40878	-0.649115	-1.41525
H	4.25973	-1.71732	-0.534706
H	3.12911	-2.44086	0.672076
H	3.89621	-0.842632	1.00204
C	5.63846	3.01694	-1.5457
C	5.84221	1.56511	-1.34113
O	6.54899	0.91245	-2.09671
H	6.19473	3.34182	-2.45171
H	6.01685	3.58373	-0.669163
H	4.55921	3.23543	-1.68905
N	5.21409	1.01896	-0.297311
C	5.28138	-0.389046	0.0052444
C	4.00059	-0.781547	0.717352
O	3.19872	0.0735681	1.08813
H	4.60945	1.55518	0.28471
H	5.32185	-0.95153	-0.919199
C	6.50968	-0.705934	0.886212
H	6.46331	-0.137134	1.83929
H	6.58035	-1.78915	1.11461
H	7.43476	-0.403282	0.348654
N	3.77412	-2.09468	0.918333
C	2.57991	-2.56281	1.58233
H	4.43277	-2.7719	0.607476
H	2.57773	-3.67299	1.65116
H	1.66973	-2.2445	1.02418
H	2.5152	-2.14723	2.61395
