44
  This energy is 0.1604 and Call times are: 109523
C	-3.0223	-0.884679	-1.48179
C	-1.5645	-1.05702	-1.2914
O	-0.97885	-2.03359	-1.73832
H	-3.42488	-1.75564	-2.04325
H	-3.22594	0.0409666	-2.06011
H	-3.53239	-0.824911	-0.497245
N	-0.937337	-0.095756	-0.609483
C	0.471424	-0.144975	-0.306945
C	0.705647	0.62167	0.981057
O	-0.193584	1.28843	1.48951
H	-1.43466	0.672535	-0.216716
H	0.762731	-1.17251	-0.128246
C	1.30427	0.461803	-1.45735
H	1.01315	1.51918	-1.63407
H	2.39163	0.417171	-1.24242
H	1.11113	-0.109767	-2.39135
N	1.92613	0.536851	1.54609
C	2.23975	1.22766	2.77515
H	2.63962	-0.010967	1.12195
H	3.29214	1.03299	3.07817
H	1.56966	0.888772	3.5982
H	2.10753	2.32707	2.65286
C	1.89766	0.24366	2.68386
C	2.20192	-0.0879552	1.27367
O	1.39809	-0.693383	0.578164
H	0.893344	-0.154261	2.94627
H	1.89643	1.34477	2.82637
H	2.6529	-0.215064	3.35636
N	3.39184	0.306728	0.814655
C	3.84733	0.0195302	-0.522732
C	5.36232	-0.0570072	-0.500199
O	5.9948	0.273898	0.500888
H	4.05191	0.762629	1.40484
H	3.47964	-0.953405	-0.82411
C	3.37477	1.10732	-1.512
H	3.76045	2.1041	-1.20915
H	3.70746	0.890245	-2.54772
H	2.26374	1.15108	-1.5061
N	5.98224	-0.506574	-1.60907
C	7.42057	-0.618827	-1.67807
H	5.45314	-0.773502	-2.40775
H	7.73753	-1.00739	-2.67094
H	7.79846	-1.31325	-0.893056
H	7.90034	0.374222	-1.52053
