44
  This energy is 0.106 and Call times are: 106818
C	-1.46535	3.14381	0.286152
C	-0.551492	2.18755	-0.378355
O	-0.0444668	2.4449	-1.46145
H	-1.58955	4.0413	-0.358024
H	-1.0445	3.45883	1.2641
H	-2.45951	2.67543	0.445422
N	-0.319741	1.042	0.266918
C	0.512648	-0.00391594	-0.273223
C	0.0243443	-1.32979	0.279204
O	-0.819875	-1.36738	1.17229
H	-0.771968	0.829572	1.12845
H	0.390681	-0.037999	-1.34867
C	1.99467	0.224003	0.0967845
H	2.12194	0.248519	1.20007
H	2.64764	-0.567315	-0.325078
H	2.32824	1.20332	-0.310678
N	0.542067	-2.45613	-0.249333
C	0.133653	-3.76344	0.209274
H	1.22114	-2.40548	-0.974153
H	0.671986	-4.56156	-0.347886
H	-0.960745	-3.90823	0.0589363
H	0.352059	-3.88508	1.29493
C	2.74558	-0.557922	3.39809
C	2.5772	-0.934599	1.9765
O	2.14457	-2.03417	1.65998
H	2.4426	-1.41155	4.0426
H	2.1085	0.3187	3.63976
H	3.80816	-0.310711	3.60519
N	2.92391	-0.0142646	1.07364
C	2.85697	-0.250045	-0.347096
C	3.91249	0.607734	-1.01915
O	4.5307	1.45918	-0.383105
H	3.31301	0.861061	1.34614
H	3.10505	-1.28448	-0.549609
C	1.45389	0.0880311	-0.896931
H	1.20322	1.15195	-0.698748
H	1.38546	-0.102527	-1.98759
H	0.696804	-0.545682	-0.385491
N	4.14997	0.395475	-2.32856
C	5.14001	1.15987	-3.05084
H	3.64246	-0.300812	-2.82525
H	5.18698	0.837263	-4.11431
H	6.14883	1.0231	-2.59824
H	4.89411	2.24614	-3.0243
