44
  This energy is -1.7227 and Call times are: 110239
C	-0.68881	0.852918	-3.30314
C	-0.142785	-0.0691748	-2.282
O	0.18685	-1.21101	-2.57176
H	-0.744497	0.326786	-4.28088
H	-0.0295721	1.73997	-3.40941
H	-1.70886	1.1832	-3.01419
N	-0.0358853	0.414433	-1.04221
C	0.437394	-0.376501	0.0663906
C	-0.201577	0.15683	1.33479
O	-0.845093	1.20443	1.32338
H	-0.346589	1.33257	-0.813413
H	0.104606	-1.39958	-0.056887
C	1.97722	-0.31655	0.169248
H	2.31849	0.731682	0.306301
H	2.35496	-0.932795	1.01072
H	2.42332	-0.704093	-0.772641
N	-0.0444584	-0.561735	2.46395
C	-0.621189	-0.135359	3.71765
H	0.476207	-1.40899	2.45244
H	-0.380988	-0.859155	4.52737
H	-1.72948	-0.0581049	3.63405
H	-0.226689	0.864058	4.01206
C	6.30786	-3.40175	0.73315
C	6.62181	-2.25241	-0.145262
O	7.37282	-2.37439	-1.10314
H	6.86205	-4.29761	0.377964
H	5.21924	-3.6183	0.70562
H	6.6142	-3.18028	1.77727
N	6.0449	-1.09021	0.169142
C	6.28761	0.126127	-0.565819
C	6.10706	1.29607	0.38297
O	5.64709	1.12724	1.51063
H	5.46833	-0.997111	0.975839
H	7.31646	0.140314	-0.903307
C	5.32244	0.247826	-1.76536
H	4.26703	0.243927	-1.41876
H	5.50852	1.17363	-2.34741
H	5.46642	-0.622649	-2.44203
N	6.47581	2.51691	-0.0524674
C	6.34587	3.68832	0.78245
H	6.84979	2.63293	-0.96666
H	6.70241	4.59513	0.245979
H	6.94498	3.5745	1.71486
H	5.28224	3.84799	1.07286
