44
  This energy is -3.1999 and Call times are: 112094
C	1.52763	-3.12638	-0.0689411
C	1.48109	-1.70763	0.350741
O	2.25236	-1.27138	1.19409
H	2.32042	-3.65341	0.505179
H	1.76078	-3.1976	-1.15214
H	0.551977	-3.6171	0.132006
N	0.557016	-0.944685	-0.237787
C	0.361873	0.4439	0.097338
C	-1.0915	0.793293	-0.161893
O	-1.83634	0.00240467	-0.737582
H	-0.0905482	-1.32387	-0.892575
H	0.543764	0.584985	1.15547
C	1.29368	1.3492	-0.737777
H	1.10019	1.21261	-1.82311
H	1.16277	2.41992	-0.479045
H	2.35146	1.07053	-0.538315
N	-1.53271	1.99188	0.267931
C	-2.90152	2.40858	0.0707398
H	-0.916046	2.61659	0.735411
H	-3.06848	3.42355	0.494047
H	-3.60316	1.70117	0.569282
H	-3.1517	2.43559	-1.01454
C	7.60918	-1.93024	2.50155
C	7.46641	-1.52371	1.08539
O	8.27066	-1.88715	0.238335
H	8.52176	-2.55503	2.61409
H	6.7262	-2.52305	2.8204
H	7.70553	-1.03343	3.14926
N	6.42189	-0.744984	0.79392
C	6.17474	-0.23373	-0.531255
C	5.43238	1.08275	-0.399481
O	5.00145	1.45647	0.689706
H	5.79897	-0.423876	1.50153
H	7.1204	-0.0237485	-1.01525
C	5.35077	-1.23884	-1.36556
H	4.37606	-1.44653	-0.874797
H	5.16568	-0.862669	-2.39258
H	5.90943	-2.19716	-1.44215
N	5.27261	1.82467	-1.51305
C	4.58423	3.09408	-1.48327
H	5.63193	1.50747	-2.38446
H	4.55688	3.55051	-2.49725
H	5.09715	3.80297	-0.793577
H	3.53615	2.96463	-1.12843
