44
  This energy is 0.1446 and Call times are: 112809
C	-1.61354	-2.51462	1.7849
C	-1.54559	-1.13833	1.2442
O	-2.52342	-0.403452	1.25896
H	-2.64437	-2.71553	2.14946
H	-0.904339	-2.62863	2.63153
H	-1.36318	-3.25022	0.991623
N	-0.368648	-0.754564	0.744292
C	-0.159724	0.539592	0.144233
C	0.939955	0.408228	-0.892592
O	1.59796	-0.626265	-0.985131
H	0.406791	-1.37809	0.702082
H	-1.05984	0.841322	-0.376701
C	0.225042	1.58711	1.2119
H	1.15426	1.28325	1.7394
H	0.375086	2.5909	0.764228
H	-0.590283	1.66077	1.96434
N	1.15974	1.45878	-1.70749
C	2.18142	1.42319	-2.72783
H	0.614265	2.28575	-1.62004
H	2.20649	2.381	-3.29281
H	1.98795	0.59604	-3.44871
H	3.18504	1.25749	-2.2735
C	7.20988	-2.17314	-0.561441
C	6.41161	-1.29052	0.318837
O	6.58094	-1.28404	1.53032
H	7.90749	-2.77682	0.0588603
H	7.80075	-1.56537	-1.27854
H	6.54153	-2.86003	-1.1223
N	5.50652	-0.514545	-0.282046
C	4.62588	0.365113	0.445432
C	3.34809	0.524475	-0.356722
O	3.26501	0.0863212	-1.50251
H	5.35199	-0.56085	-1.26481
H	4.35943	-0.0959423	1.38833
C	5.29092	1.73862	0.683009
H	5.55491	2.21673	-0.284342
H	4.62808	2.42034	1.25435
H	6.22788	1.59699	1.26472
N	2.31289	1.15278	0.234554
C	1.05546	1.34585	-0.449362
H	2.39786	1.49678	1.16381
H	0.331308	1.88199	0.202865
H	0.609828	0.365846	-0.736218
H	1.20085	1.944	-1.37792
