44
  This energy is -2.2636 and Call times are: 110155
C	1.62276	-2.6736	1.52683
C	0.592872	-1.61046	1.51248
O	-0.294571	-1.57746	2.35377
H	1.41992	-3.37012	2.3692
H	2.63061	-2.22828	1.66346
H	1.597	-3.24422	0.574558
N	0.689358	-0.703877	0.537198
C	-0.263302	0.364855	0.36746
C	-0.307337	0.729885	-1.1044
O	0.509504	0.260438	-1.8944
H	1.39334	-0.767534	-0.164392
H	-1.2494	0.0113124	0.64176
C	0.127841	1.5929	1.21843
H	1.13501	1.96243	0.930163
H	-0.605524	2.4177	1.10707
H	0.16162	1.30064	2.29072
N	-1.27478	1.57571	-1.51017
C	-1.39824	1.97563	-2.89256
H	-1.92908	1.94191	-0.856825
H	-2.25402	2.6737	-3.02508
H	-1.56576	1.08803	-3.54477
H	-0.471062	2.48772	-3.23789
C	7.18251	2.73819	1.8556
C	6.54052	2.1452	0.660871
O	5.93431	2.84034	-0.142684
H	6.99428	3.83376	1.86803
H	8.27841	2.56212	1.82826
H	6.75931	2.29035	2.7794
N	6.66009	0.82326	0.517469
C	6.0534	0.0977978	-0.570735
C	5.76293	-1.31312	-0.0948176
O	6.18769	-1.71263	0.987621
H	7.12162	0.265482	1.20138
H	5.10443	0.555832	-0.820289
C	6.98346	0.0727306	-1.80346
H	7.95323	-0.406572	-1.55074
H	6.52173	-0.471181	-2.65286
H	7.18889	1.11573	-2.12947
N	5.01956	-2.10236	-0.895147
C	4.68769	-3.4579	-0.52291
H	4.68141	-1.7599	-1.76546
H	4.07033	-3.94227	-1.31125
H	4.11291	-3.47364	0.431372
H	5.61169	-4.06352	-0.379409
