44
  This energy is 0.1268 and Call times are: 109827
C	3.18722	1.01056	0.96597
C	1.94628	0.232286	1.17929
O	1.88007	-0.628553	2.04588
H	3.96629	0.662181	1.6784
H	2.99676	2.09023	1.14142
H	3.55715	0.864381	-0.0707901
N	0.918898	0.52193	0.377431
C	-0.339318	-0.17951	0.43602
C	-0.966222	-0.14249	-0.944985
O	-0.486374	0.555844	-1.83593
H	1.00121	1.19682	-0.350316
H	-0.157886	-1.2188	0.680152
C	-1.28207	0.464505	1.47607
H	-1.47695	1.52781	1.22025
H	-2.24915	-0.0750479	1.54052
H	-0.799712	0.433556	2.47744
N	-2.05626	-0.905817	-1.15751
C	-2.7172	-0.939014	-2.44136
H	-2.42745	-1.46733	-0.425394
H	-3.5922	-1.62526	-2.41558
H	-2.01825	-1.29193	-3.23394
H	-3.07623	0.0767578	-2.72499
C	6.30769	-1.62819	3.05689
C	5.7467	-0.885039	1.90616
O	4.53824	-0.796412	1.73826
H	5.47641	-2.05723	3.65751
H	6.90115	-0.945527	3.70072
H	6.95638	-2.45525	2.69877
N	6.62839	-0.327254	1.07316
C	6.23531	0.390604	-0.113737
C	7.35014	0.262881	-1.13472
O	8.43379	-0.229	-0.825736
H	7.60936	-0.442742	1.20046
H	5.3546	-0.0753699	-0.537806
C	5.9612	1.87657	0.205649
H	6.86763	2.35778	0.630942
H	5.64425	2.43707	-0.697627
H	5.1477	1.9457	0.960486
N	7.10488	0.698591	-2.38613
C	8.10381	0.612676	-3.42581
H	6.22047	1.08986	-2.61806
H	7.71151	1.02177	-4.38287
H	8.40485	-0.446631	-3.59469
H	9.01438	1.18971	-3.14466
