44
  This energy is 0.1147 and Call times are: 104800
C	2.97967	-0.452864	1.74045
C	1.60785	0.0910407	1.62456
O	1.03497	0.57479	2.59111
H	3.3271	-0.352183	2.79166
H	3.67131	0.108873	1.07801
H	2.99035	-1.5272	1.45979
N	1.0413	0.0200446	0.417764
C	-0.304257	0.468569	0.159199
C	-0.862315	-0.348303	-0.990951
O	-0.137734	-1.1021	-1.63786
H	1.50469	-0.413652	-0.349727
H	-0.92068	0.267568	1.02652
C	-0.327473	1.97407	-0.184564
H	0.296309	2.17925	-1.08057
H	-1.35962	2.33461	-0.372204
H	0.0925892	2.55163	0.667678
N	-2.17512	-0.222582	-1.26802
C	-2.79566	-0.964358	-2.34081
H	-2.74608	0.389306	-0.730746
H	-3.87965	-0.724493	-2.40911
H	-2.68919	-2.06064	-2.1732
H	-2.31932	-0.71649	-3.31693
C	8.5437	1.69064	-2.25339
C	7.33859	0.893575	-1.93157
O	6.43982	0.747117	-2.74837
H	8.45033	2.09795	-3.28356
H	9.45037	1.05199	-2.20025
H	8.64496	2.53601	-1.54054
N	7.29247	0.353871	-0.711337
C	6.16604	-0.411437	-0.238042
C	6.09208	-0.261113	1.26977
O	6.99942	0.286216	1.89337
H	8.01306	0.516012	-0.0432672
H	5.25415	0.00381286	-0.648718
C	6.30709	-1.89925	-0.6276
H	7.23713	-2.32854	-0.19774
H	5.4391	-2.49663	-0.280805
H	6.36741	-1.98465	-1.73458
N	4.99728	-0.739778	1.89291
C	4.83675	-0.636832	3.32463
H	4.27178	-1.17579	1.37079
H	3.87193	-1.08775	3.64561
H	4.84895	0.430009	3.64554
H	5.66365	-1.16541	3.85188
