44
  This energy is -2.5823 and Call times are: 105806
C	-1.71305	0.878894	-2.89925
C	-1.06869	1.22207	-1.61156
O	-0.854535	2.38579	-1.30122
H	-1.91837	1.81212	-3.46743
H	-2.67233	0.349971	-2.7182
H	-1.04218	0.231281	-3.50227
N	-0.738126	0.197688	-0.821784
C	-0.0662875	0.371117	0.441986
C	0.757684	-0.873259	0.714296
O	0.645785	-1.87059	0.00400282
H	-0.881692	-0.745888	-1.10625
H	0.621807	1.20412	0.369397
C	-1.08363	0.606624	1.57987
H	-1.78319	-0.252426	1.66165
H	-0.577981	0.755409	2.55594
H	-1.6807	1.51744	1.35566
N	1.61663	-0.839696	1.75213
C	2.44602	-1.97469	2.08391
H	1.69608	-0.0221738	2.31286
H	3.08342	-1.75105	2.96761
H	3.11107	-2.23823	1.22978
H	1.8185	-2.86439	2.32012
C	6.07259	-0.705055	-3.34993
C	6.91254	-0.132823	-2.27374
O	8.05855	0.234649	-2.49292
H	6.65879	-0.740368	-4.29384
H	5.17264	-0.0745844	-3.50914
H	5.75876	-1.73624	-3.08302
N	6.35116	-0.0458216	-1.06557
C	7.05731	0.449154	0.0898074
C	6.46887	-0.211028	1.32248
O	5.44544	-0.888148	1.24637
H	5.43141	-0.386909	-0.893576
H	8.09629	0.150144	0.0286466
C	6.94107	1.98587	0.190925
H	5.87587	2.29249	0.264309
H	7.49232	2.38059	1.0689
H	7.37047	2.44746	-0.724983
N	7.11189	-0.0344641	2.49353
C	6.62902	-0.628913	3.71813
H	7.94085	0.513456	2.5344
H	7.29398	-0.368075	4.57079
H	6.59315	-1.73885	3.62847
H	5.60121	-0.268035	3.95164
