44
  This energy is -0.71 and Call times are: 107451
C	-2.33412	2.57801	-0.135856
C	-1.96398	1.14842	-0.237875
O	-2.81923	0.276132	-0.301814
H	-3.44178	2.6699	-0.113039
H	-1.94507	3.13755	-1.01238
H	-1.91796	3.01549	0.796089
N	-0.657681	0.873251	-0.253233
C	-0.143754	-0.472746	-0.305484
C	1.20982	-0.48913	0.379452
O	1.75883	0.558748	0.714487
H	0.0262528	1.59107	-0.159187
H	-0.797941	-1.127	0.257207
C	-0.0174748	-0.958756	-1.76599
H	0.661869	-0.293965	-2.34096
H	0.364184	-1.99897	-1.81907
H	-1.01819	-0.930884	-2.24988
N	1.7784	-1.68856	0.612067
C	3.06251	-1.80279	1.26336
H	1.31688	-2.52558	0.337342
H	3.35905	-2.87014	1.36362
H	3.02811	-1.35149	2.28141
H	3.84876	-1.27377	0.67762
C	6.91579	3.4798	-0.0505465
C	6.71162	2.16497	-0.699139
O	6.14912	2.07363	-1.78157
H	6.47443	4.27635	-0.688171
H	8.00058	3.68009	0.0753548
H	6.41907	3.49792	0.942436
N	7.17059	1.0996	-0.0382917
C	7.00794	-0.248891	-0.521699
C	6.96414	-1.17873	0.676239
O	7.22344	-0.764805	1.80457
H	7.58979	1.18614	0.860953
H	6.0559	-0.333512	-1.03069
C	8.16451	-0.63901	-1.46796
H	9.14059	-0.562505	-0.94312
H	8.04341	-1.67044	-1.85785
H	8.18242	0.0593797	-2.33298
N	6.62415	-2.4643	0.457803
C	6.55077	-3.42073	1.53764
H	6.4138	-2.77954	-0.461682
H	6.25486	-4.42276	1.15604
H	5.80119	-3.0994	2.29668
H	7.53756	-3.51624	2.04584
