44
  This energy is -0.1039 and Call times are: 105341
C	0.155389	-1.78582	2.98318
C	-0.538411	-0.877201	2.04287
O	-1.717	-0.587526	2.19593
H	-0.561102	-2.1244	3.76285
H	0.998272	-1.25649	3.47522
H	0.54299	-2.67416	2.44122
N	0.190367	-0.401807	1.03032
C	-0.3567	0.45839	0.0108366
C	0.430113	0.236819	-1.2672
O	1.45575	-0.441251	-1.2658
H	1.13741	-0.679138	0.895879
H	-1.38161	0.17044	-0.18732
C	-0.28397	1.93975	0.441546
H	0.768363	2.23858	0.634767
H	-0.714853	2.61115	-0.329226
H	-0.859795	2.07698	1.38279
N	-0.0404256	0.801033	-2.39693
C	0.638414	0.640236	-3.66165
H	-0.874204	1.34284	-2.37888
H	0.0963838	1.17853	-4.47014
H	0.701896	-0.436895	-3.9392
H	1.67524	1.04391	-3.60533
C	6.63561	-2.76914	-1.77623
C	5.56943	-1.82034	-1.38356
O	4.49577	-1.79685	-1.96931
H	6.28756	-3.37557	-2.6405
H	6.87223	-3.44986	-0.931609
H	7.55133	-2.21486	-2.07169
N	5.84859	-1.00166	-0.366589
C	4.92801	0.00435746	0.101381
C	5.73444	1.14373	0.695565
O	6.947	1.03453	0.867244
H	6.74196	-1.0048	0.0735793
H	4.37714	0.404007	-0.740907
C	3.96005	-0.580127	1.15337
H	4.52414	-0.980764	2.02247
H	3.23715	0.181315	1.51134
H	3.38627	-1.41724	0.699106
N	5.07591	2.27457	1.01736
C	5.76101	3.41331	1.58312
H	4.09534	2.3455	0.867243
H	5.04782	4.24432	1.77812
H	6.54856	3.78338	0.887356
H	6.25142	3.13889	2.54507
