44
  This energy is -0.3261 and Call times are: 106903
C	2.94952	-0.0724805	-1.84602
C	1.58103	0.433092	-1.59545
O	1.14371	1.40236	-2.20016
H	3.44361	0.567667	-2.60888
H	2.90887	-1.11566	-2.22401
H	3.54621	-0.0416737	-0.910022
N	0.864287	-0.223166	-0.680033
C	-0.466999	0.176359	-0.297126
C	-0.695773	-0.255619	1.13905
O	0.112808	-0.981083	1.71491
H	1.24864	-0.985193	-0.166756
H	-0.537448	1.25661	-0.324167
C	-1.52286	-0.458694	-1.22831
H	-1.45799	-1.56711	-1.19289
H	-2.55125	-0.14762	-0.952299
H	-1.33129	-0.135304	-2.27476
N	-1.80724	0.190631	1.75673
C	-2.10579	-0.163805	3.12473
H	-2.44759	0.780158	1.2756
H	-3.0619	0.301113	3.45174
H	-1.29591	0.183875	3.80626
H	-2.19778	-1.26874	3.23337
C	10.8758	2.20377	0.600961
C	9.47005	1.77357	0.773722
O	8.74457	2.30038	1.60593
H	11.1052	3.01081	1.33029
H	11.0334	2.59284	-0.426923
H	11.5623	1.34996	0.782092
N	9.04917	0.78746	-0.0217918
C	7.72088	0.232644	0.0581913
C	7.78371	-1.21269	-0.398575
O	8.80616	-1.66864	-0.906926
H	9.66338	0.340838	-0.666095
H	7.3962	0.230636	1.09124
C	6.73416	1.03503	-0.818055
H	7.06114	1.02855	-1.8797
H	5.70502	0.626014	-0.754117
H	6.71033	2.09112	-0.470999
N	6.68609	-1.97354	-0.218768
C	6.65484	-3.36146	-0.617365
H	5.86967	-1.58786	0.198098
H	5.66574	-3.81481	-0.386317
H	7.44024	-3.94189	-0.0811519
H	6.8391	-3.46039	-1.71163
