44
  This energy is 0.1007 and Call times are: 111846
C	2.31007	1.89562	-1.78406
C	1.39815	0.736936	-1.65372
O	1.12164	0.0373782	-2.61838
H	2.63607	1.98917	-2.84277
H	3.20558	1.75178	-1.14366
H	1.78806	2.82898	-1.48499
N	0.901114	0.506947	-0.436163
C	-0.0324456	-0.556939	-0.161987
C	-0.896948	-0.136804	1.01176
O	-0.631997	0.874474	1.65893
H	1.10321	1.10959	0.330547
H	-0.68713	-0.686326	-1.01479
C	0.709468	-1.87366	0.155902
H	1.3733	-1.74438	1.03718
H	0.0013614	-2.70395	0.355233
H	1.34184	-2.1577	-0.713456
N	-1.96335	-0.90503	1.30948
C	-2.84617	-0.580704	2.40567
H	-2.16382	-1.71723	0.771692
H	-3.6624	-1.33177	2.4887
H	-3.30695	0.422465	2.25531
H	-2.28663	-0.56274	3.36886
C	5.5248	3.17527	0.0188364
C	5.39703	1.80746	-0.532454
O	5.92295	1.50096	-1.59353
H	6.12355	3.7986	-0.680316
H	6.03819	3.14487	1.00284
H	4.52099	3.63438	0.139884
N	4.68058	0.941656	0.188287
C	4.43171	-0.412504	-0.239344
C	3.10858	-0.859921	0.352882
O	2.52898	-0.171951	1.19102
H	4.22445	1.21735	1.02959
H	4.32625	-0.433166	-1.31688
C	5.57188	-1.35173	0.211328
H	5.67356	-1.33894	1.31747
H	5.39873	-2.39488	-0.123886
H	6.53146	-1.00076	-0.22726
N	2.59337	-2.0279	-0.0788377
C	1.33647	-2.53145	0.423974
H	3.07505	-2.56857	-0.760558
H	1.08332	-3.50389	-0.0529972
H	0.51231	-1.81224	0.21234
H	1.38692	-2.68402	1.52639
