44
  This energy is 0.1507 and Call times are: 106679
C	2.78192	1.77143	-1.11159
C	1.54765	1.65709	-0.30249
O	1.26844	2.49131	0.547526
H	3.34625	2.67539	-0.794923
H	2.52654	1.86597	-2.18797
H	3.42242	0.876898	-0.961047
N	0.769976	0.601075	-0.552345
C	-0.440695	0.331527	0.182624
C	-0.670188	-1.1681	0.182406
O	0.0173418	-1.91033	-0.516245
H	1.03124	-0.0912427	-1.21891
H	-0.308726	0.637504	1.21296
C	-1.64458	1.06363	-0.449773
H	-1.78686	0.742252	-1.50358
H	-2.58038	0.875149	0.115276
H	-1.45134	2.15862	-0.446277
N	-1.64409	-1.65173	0.978422
C	-1.93109	-3.06559	1.04795
H	-2.18709	-1.03582	1.53956
H	-2.76446	-3.26326	1.75763
H	-1.03553	-3.63168	1.39262
H	-2.2227	-3.45717	0.0465736
C	0.238078	-0.628535	-0.276568
C	1.44038	-0.288094	0.516986
O	1.34664	0.0999729	1.67329
H	-0.670461	-0.453053	0.339563
H	0.267733	-1.697	-0.57697
H	0.185445	0.00908533	-1.18417
N	2.61675	-0.426417	-0.0989757
C	3.871	-0.0933143	0.52908
C	4.8491	0.316459	-0.555808
O	4.56974	0.168971	-1.74405
H	2.67456	-0.704199	-1.05362
H	3.72996	0.763178	1.1765
C	4.42249	-1.2929	1.33038
H	4.57731	-2.16862	0.664646
H	5.38119	-1.04457	1.83012
H	3.68711	-1.58057	2.1132
N	6.02355	0.852205	-0.168972
C	7.01404	1.27663	-1.13073
H	6.22982	0.967319	0.797091
H	7.90953	1.69016	-0.616596
H	6.59914	2.06469	-1.80013
H	7.33808	0.420176	-1.76525
