44
  This energy is -3.7942 and Call times are: 106291
C	0.888519	2.93867	1.63934
C	0.433781	1.53001	1.64426
O	0.397337	0.880235	2.68006
H	1.17654	3.23525	2.67131
H	0.0710652	3.60349	1.28929
H	1.76943	3.0541	0.973186
N	0.0731503	1.0187	0.464897
C	-0.350276	-0.349987	0.303793
C	-0.00280171	-0.789759	-1.10596
O	0.395063	0.0223505	-1.93897
H	0.147181	1.54745	-0.375823
H	0.208672	-0.979378	0.985024
C	-1.86724	-0.491588	0.556766
H	-2.44154	0.145867	-0.148833
H	-2.20312	-1.54333	0.449319
H	-2.09962	-0.156778	1.5913
N	-0.138216	-2.09689	-1.40446
C	0.173939	-2.60841	-2.71865
H	-0.457653	-2.73945	-0.715879
H	-0.00154237	-3.70579	-2.76541
H	1.24089	-2.41296	-2.97298
H	-0.460692	-2.11837	-3.49212
C	6.6503	-1.00485	-2.99994
C	6.27733	0.0377471	-2.01758
O	6.71585	1.17632	-2.10567
H	7.35617	-0.573851	-3.7428
H	5.74687	-1.36978	-3.53229
H	7.14502	-1.85568	-2.48573
N	5.44643	-0.336298	-1.04183
C	5.02755	0.554619	0.011428
C	4.72912	-0.277709	1.24421
O	4.70048	-1.50539	1.18341
H	5.13037	-1.27718	-0.959931
H	5.8439	1.2206	0.261737
C	3.78064	1.36161	-0.411921
H	2.93958	0.679127	-0.658687
H	3.45652	2.06136	0.38546
H	4.01965	1.95679	-1.3202
N	4.50682	0.376193	2.40136
C	4.22045	-0.332304	3.627
H	4.5383	1.36976	2.43155
H	4.06809	0.380714	4.46702
H	5.06157	-1.01274	3.89307
H	3.29882	-0.948732	3.51853
