44
  This energy is 0.9855 and Call times are: 104230
C	-0.179981	-0.684705	-3.40756
C	0.400878	0.0350407	-2.25183
O	1.42208	0.698491	-2.36753
H	0.460269	-0.52124	-4.30156
H	-1.20061	-0.303812	-3.62197
H	-0.229085	-1.7735	-3.19495
N	-0.247886	-0.0846363	-1.09116
C	0.218994	0.521987	0.130557
C	-0.260605	-0.326382	1.29323
O	-1.06133	-1.24248	1.11625
H	-1.05503	-0.661434	-1.00346
H	1.30167	0.507389	0.145613
C	-0.305015	1.9687	0.263499
H	-1.41578	1.98323	0.258712
H	0.0589589	2.45141	1.19357
H	0.0514496	2.56912	-0.601824
N	0.22833	-0.0439928	2.51684
C	-0.16646	-0.801085	3.6818
H	0.878524	0.698491	2.63947
H	0.343985	-0.416623	4.59222
H	0.0979208	-1.87646	3.55951
H	-1.26692	-0.732076	3.84104
C	7.26447	1.08851	3.29338
C	8.06122	0.587571	2.15084
O	9.28412	0.594192	2.18063
H	7.95103	1.45056	4.08925
H	6.63344	0.273674	3.70641
H	6.61603	1.92931	2.96832
N	7.37278	0.136592	1.09962
C	8.00807	-0.342176	-0.102766
C	7.06432	-0.0988799	-1.2654
O	5.90866	0.273212	-1.07124
H	6.37796	0.175598	1.07377
H	8.90421	0.236777	-0.288133
C	8.34809	-1.84422	0.0134664
H	7.4277	-2.43973	0.193139
H	8.85024	-2.22157	-0.900846
H	9.03321	-1.99978	0.875295
N	7.54146	-0.296898	-2.51005
C	6.71814	-0.0852696	-3.67775
H	8.48058	-0.594089	-2.64719
H	7.29065	-0.300366	-4.60683
H	6.36243	0.969636	-3.7216
H	5.82458	-0.750211	-3.65441
