44
  This energy is 0.1248 and Call times are: 105216
C	-3.38204	0.821205	0.0107773
C	-2.06192	0.726188	0.673652
O	-1.85686	1.25959	1.75524
H	-4.06458	1.43503	0.637863
H	-3.8214	-0.190804	-0.113911
H	-3.27694	1.30345	-0.98395
N	-1.12132	0.0342306	0.0264663
C	0.223889	-0.109787	0.524685
C	1.15187	-0.284418	-0.66271
O	0.70172	-0.449747	-1.79485
H	-1.29119	-0.359629	-0.872359
H	0.516556	0.801291	1.03155
C	0.332215	-1.31922	1.47904
H	0.0421818	-2.25563	0.956506
H	1.36018	-1.43249	1.88027
H	-0.361036	-1.17365	2.33611
N	2.47871	-0.242976	-0.430733
C	3.43806	-0.39414	-1.49983
H	2.82382	-0.104182	0.491602
H	4.47704	-0.33053	-1.10779
H	3.30266	0.404373	-2.26489
H	3.31297	-1.37982	-2.00374
C	6.06194	-3.05087	-1.29508
C	5.78317	-1.60348	-1.43115
O	6.15385	-0.977149	-2.41437
H	6.63754	-3.39883	-2.18021
H	5.1104	-3.62021	-1.23868
H	6.66093	-3.24079	-0.379549
N	5.11376	-1.03116	-0.427793
C	4.80622	0.377044	-0.397189
C	4.71981	0.810874	1.05398
O	4.73785	-0.0185611	1.96141
H	4.85453	-1.54542	0.384728
H	5.6189	0.930122	-0.851362
C	3.47772	0.667636	-1.12924
H	2.64184	0.108657	-0.657129
H	3.23684	1.75045	-1.1246
H	3.56112	0.33494	-2.18692
N	4.63179	2.13145	1.30763
C	4.55079	2.63808	2.65779
H	4.62275	2.78753	0.560259
H	4.48516	3.74845	2.65791
H	5.45031	2.34011	3.24375
H	3.6515	2.23344	3.17615
