44
  This energy is -3.5032 and Call times are: 109903
C	-1.15525	-3.26019	-0.386302
C	-0.82495	-2.08529	0.45134
O	-1.16424	-2.02937	1.62529
H	-1.73421	-3.99145	0.218629
H	-0.224713	-3.74781	-0.745584
H	-1.76916	-2.94858	-1.25757
N	-0.145553	-1.10313	-0.145455
C	0.210562	0.121034	0.52772
C	0.298259	1.22358	-0.510675
O	0.242724	0.963915	-1.71118
H	0.0878884	-1.14528	-1.11272
H	-0.578014	0.390992	1.21902
C	1.55526	-0.0298134	1.27221
H	2.36665	-0.296429	0.561854
H	1.83366	0.901866	1.80606
H	1.47036	-0.847145	2.02128
N	0.429823	2.4898	-0.0686408
C	0.515617	3.60457	-0.983035
H	0.468797	2.68043	0.906661
H	0.619883	4.56222	-0.426932
H	-0.399259	3.66468	-1.61601
H	1.3953	3.49294	-1.65745
C	5.91084	-2.98013	1.65115
C	5.60348	-1.53213	1.64999
O	5.3224	-0.943867	2.68505
H	5.81979	-3.37408	2.6867
H	6.94705	-3.15168	1.29118
H	5.19748	-3.52327	0.996031
N	5.64895	-0.916759	0.466084
C	5.33259	0.479901	0.299312
C	4.79729	0.679067	-1.10616
O	4.84802	-0.228661	-1.93391
H	5.83922	-1.41753	-0.373486
H	4.54168	0.75164	0.987234
C	6.58002	1.35989	0.533388
H	7.388	1.08864	-0.179091
H	6.3462	2.43847	0.421454
H	6.95924	1.19199	1.56505
N	4.26042	1.878	-1.40672
C	3.72103	2.15759	-2.71708
H	4.22463	2.59873	-0.722353
H	3.32604	3.19624	-2.76636
H	2.89059	1.45504	-2.95809
H	4.50717	2.04379	-3.49822
