44
  This energy is 0.3241 and Call times are: 107893
C	3.1344	-1.22222	0.891299
C	2.21264	-0.109438	0.570004
O	2.53264	1.05463	0.767373
H	4.07201	-0.809478	1.32305
H	3.38268	-1.79139	-0.029105
H	2.66717	-1.90424	1.63267
N	1.0263	-0.449706	0.0608995
C	0.00806349	0.518742	-0.261372
C	-1.34495	-0.152956	-0.120871
O	-1.43016	-1.36661	0.0566201
H	0.764566	-1.40351	-0.0557877
H	0.043221	1.32703	0.458401
C	0.196879	1.06152	-1.69489
H	0.150361	0.234035	-2.43458
H	-0.572906	1.81838	-1.95007
H	1.19648	1.54155	-1.77686
N	-2.44093	0.628175	-0.189203
C	-3.77032	0.0782316	-0.0608168
H	-2.35162	1.60874	-0.329183
H	-4.53716	0.879613	-0.144234
H	-3.89405	-0.423884	0.926019
H	-3.96252	-0.67563	-0.858246
C	4.62886	-0.496908	-3.41124
C	4.66172	0.354945	-2.2011
O	5.20546	1.45067	-2.21289
H	5.16702	0.0172171	-4.23702
H	3.57888	-0.677191	-3.72393
H	5.12607	-1.46891	-3.20859
N	4.07177	-0.140203	-1.11061
C	4.05952	0.552924	0.1535
C	3.98676	-0.482473	1.25995
O	3.78509	-1.66744	1.00133
H	3.66912	-1.05109	-1.1052
H	4.99176	1.09023	0.275329
C	2.86041	1.52245	0.239482
H	1.90332	0.970239	0.125091
H	2.84771	2.07242	1.20275
H	2.93	2.26618	-0.584152
N	4.15905	-0.0568484	2.5269
C	4.11195	-0.970792	3.64434
H	4.32526	0.905294	2.71592
H	4.27641	-0.429696	4.60215
H	4.8982	-1.75384	3.54472
H	3.12221	-1.47976	3.6944
