44
  This energy is 0.1147 and Call times are: 113197
C	2.16922	-1.59711	-2.20373
C	1.72283	-0.404176	-1.44955
O	2.424	0.595279	-1.37304
H	3.1817	-1.40918	-2.62259
H	1.46804	-1.80645	-3.03876
H	2.21666	-2.47942	-1.53115
N	0.52571	-0.485818	-0.864204
C	-0.0248049	0.577203	-0.0607872
C	-0.950421	-0.0401515	0.970553
O	-1.2504	-1.23121	0.914773
H	-0.015556	-1.321	-0.901244
H	0.775582	1.06928	0.477613
C	-0.791088	1.59148	-0.937879
H	-1.61892	1.08919	-1.48233
H	-1.20802	2.42231	-0.332564
H	-0.0963157	2.0246	-1.69024
N	-1.42044	0.760191	1.94757
C	-2.30266	0.259614	2.97581
H	-1.16318	1.72037	1.97835
H	-2.57815	1.06987	3.68631
H	-1.81142	-0.558584	3.55071
H	-3.23803	-0.146894	2.52749
C	3.87405	1.51787	-3.02103
C	3.53553	0.68244	-1.84689
O	2.37959	0.357239	-1.61352
H	2.94244	1.77204	-3.57181
H	4.55412	0.963792	-3.70166
H	4.36536	2.45807	-2.69284
N	4.55478	0.312833	-1.06784
C	4.37761	-0.464482	0.133386
C	5.5	-0.115379	1.09251
O	6.4463	0.579957	0.72819
H	5.48502	0.619534	-1.24797
H	3.44704	-0.180359	0.608726
C	4.38524	-1.9764	-0.181711
H	5.34391	-2.27038	-0.659801
H	4.23578	-2.58539	0.733341
H	3.56092	-2.20758	-0.891211
N	5.41532	-0.586672	2.35217
C	6.43358	-0.3014	3.33601
H	4.63987	-1.14426	2.62937
H	6.18344	-0.776681	4.31006
H	6.52827	0.797088	3.49612
H	7.42322	-0.688001	3.00089
