44
  This energy is 0.112 and Call times are: 111292
C	-0.942018	-3.22003	0.925561
C	0.0795774	-2.22275	0.534518
O	1.27395	-2.46825	0.6326
H	-0.436308	-4.13439	1.30515
H	-1.5663	-3.49239	0.0487267
H	-1.59078	-2.80898	1.72758
N	-0.376297	-1.05439	0.0768257
C	0.495442	0.0296835	-0.301878
C	-0.248506	1.33353	-0.0826127
O	-1.44688	1.33631	0.192364
H	-1.35127	-0.854323	0.0413312
H	1.35966	0.037743	0.350579
C	0.932021	-0.10312	-1.77734
H	0.0463694	-0.100831	-2.44791
H	1.61471	0.718221	-2.07711
H	1.46728	-1.06777	-1.91629
N	0.452362	2.47934	-0.191854
C	-0.169935	3.76779	0.00520813
H	1.42217	2.45663	-0.411
H	0.57106	4.58674	-0.126966
H	-0.597854	3.84453	1.03101
H	-0.996389	3.92107	-0.725969
C	6.08631	0.410389	1.65081
C	5.29247	0.11442	0.436984
O	5.81933	0.0570432	-0.66553
H	7.14858	0.570669	1.36489
H	6.02996	-0.440508	2.36183
H	5.70415	1.32933	2.14333
N	3.98406	-0.0809838	0.616618
C	3.0756	-0.335497	-0.473561
C	1.70563	0.182822	-0.0784634
O	1.48282	0.562025	1.06969
H	3.56308	0.00944089	1.51465
H	3.39455	0.225988	-1.34283
C	3.01108	-1.84426	-0.797143
H	2.67379	-2.41965	0.0912326
H	2.32535	-2.0517	-1.64406
H	4.02576	-2.20356	-1.07583
N	0.752374	0.218952	-1.0303
C	-0.57943	0.70163	-0.74836
H	0.952868	-0.088318	-1.95468
H	-1.21647	0.652564	-1.65886
H	-0.548199	1.75913	-0.399064
H	-1.05906	0.0887717	0.0488264
