44
  This energy is -5.0067 and Call times are: 112718
C	-0.822634	-1.6395	2.9577
C	-1.03871	-1.35673	1.52087
O	-1.79677	-2.04156	0.84798
H	-1.4226	-2.52812	3.25143
H	-1.14271	-0.771078	3.57101
H	0.250531	-1.8513	3.14888
N	-0.363072	-0.324256	1.01108
C	-0.436794	0.0467995	-0.380125
C	0.874665	0.705784	-0.764012
O	1.70977	0.992197	0.0917244
H	0.281507	0.198432	1.5617
H	-0.537461	-0.84686	-0.983341
C	-1.6197	1.00701	-0.633058
H	-1.51146	1.92862	-0.0223497
H	-1.69552	1.28914	-1.70319
H	-2.5679	0.506987	-0.337706
N	1.09019	0.955151	-2.07068
C	2.31132	1.57438	-2.53066
H	0.404318	0.712431	-2.74872
H	2.29898	1.69465	-3.63637
H	3.19445	0.953368	-2.25552
H	2.43967	2.58047	-2.06974
C	4.99919	-2.0917	-2.77764
C	4.4968	-1.75243	-1.42721
O	3.57293	-2.37412	-0.920874
H	4.40153	-2.93289	-3.19124
H	6.06437	-2.40025	-2.72334
H	4.90227	-1.21576	-3.45321
N	5.10391	-0.738895	-0.80548
C	4.69861	-0.264878	0.494364
C	5.04306	1.20958	0.588675
O	5.7206	1.75488	-0.280404
H	5.82736	-0.216075	-1.24723
H	3.62317	-0.351449	0.586815
C	5.40421	-1.05857	1.61572
H	6.50732	-0.961459	1.52757
H	5.08991	-0.71221	2.62159
H	5.14429	-2.13563	1.52238
N	4.57362	1.89472	1.64991
C	4.84585	3.30282	1.82111
H	4.02365	1.43702	2.34065
H	4.37389	3.68411	2.75337
H	4.44582	3.88759	0.961285
H	5.94295	3.48639	1.88286
