44
  This energy is 0.1 and Call times are: 103696
C	-3.04808	1.62086	-0.441297
C	-2.23489	0.485326	0.0490475
O	-2.71255	-0.361134	0.791848
H	-4.07215	1.55061	-0.0144243
H	-3.11768	1.59156	-1.54902
H	-2.59215	2.58275	-0.125092
N	-0.965234	0.443646	-0.361582
C	-0.0395457	-0.57589	0.0652775
C	1.35845	0.0126321	0.0367325
O	1.56691	1.11668	-0.462596
H	-0.579547	1.16223	-0.933203
H	-0.254637	-0.846694	1.09145
C	-0.123736	-1.81616	-0.851167
H	0.107171	-1.54086	-1.90232
H	0.57447	-2.61388	-0.52454
H	-1.15717	-2.22537	-0.820912
N	2.35363	-0.713	0.583629
C	3.71518	-0.231547	0.607404
H	2.16463	-1.60239	0.986537
H	4.38517	-0.97079	1.09919
H	3.78233	0.72923	1.16747
H	4.08764	-0.0546105	-0.427538
C	1.59631	1.48646	-0.519931
C	3.01974	1.54771	-0.118357
O	3.5822	2.61965	0.0577353
H	1.20165	2.51963	-0.632422
H	1.00255	0.957297	0.254785
H	1.49486	0.955431	-1.48987
N	3.64387	0.377577	0.0353851
C	5.0398	0.276658	0.381403
C	5.57817	-1.0182	-0.197456
O	4.82008	-1.84974	-0.692982
H	3.18389	-0.485789	-0.15137
H	5.58309	1.08899	-0.0850491
C	5.23193	0.306009	1.91355
H	4.68336	-0.533382	2.39161
H	6.30375	0.242943	2.19237
H	4.82375	1.2586	2.31642
N	6.91054	-1.21574	-0.155153
C	7.51406	-2.41552	-0.686616
H	7.50813	-0.529488	0.246125
H	8.61864	-2.39022	-0.558172
H	7.28986	-2.51994	-1.77295
H	7.12075	-3.31775	-0.164668
