44
  This energy is -3.0019 and Call times are: 105888
C	1.43367	-1.45397	2.81837
C	0.882359	-1.53625	1.44709
O	1.01146	-2.5486	0.772639
H	1.95154	-2.40658	3.0638
H	0.615271	-1.29082	3.55073
H	2.16347	-0.619919	2.88801
N	0.246511	-0.452013	0.997074
C	-0.305618	-0.365899	-0.331948
C	-0.293194	1.09072	-0.755812
O	-0.0152287	1.97828	0.0483521
H	0.185174	0.378951	1.5426
H	0.332129	-0.907367	-1.0195
C	-1.74342	-0.928532	-0.369553
H	-2.40057	-0.366545	0.327846
H	-2.17455	-0.880544	-1.39051
H	-1.72955	-1.99288	-0.0481035
N	-0.588199	1.37061	-2.04059
C	-0.595939	2.72729	-2.53612
H	-0.806537	0.638539	-2.67736
H	-0.861585	2.75003	-3.61599
H	0.406891	3.19653	-2.41194
H	-1.3374	3.34487	-1.97936
C	5.66109	3.36835	-0.849969
C	4.99421	2.23519	-0.169981
O	4.09022	2.42199	0.632715
H	5.21833	4.32329	-0.492348
H	5.51651	3.29425	-1.94831
H	6.74733	3.3673	-0.619425
N	5.43541	1.01399	-0.480472
C	4.91451	-0.183317	0.130821
C	6.01279	-1.2299	0.132341
O	7.06261	-1.04202	-0.479454
H	6.19961	0.880176	-1.10493
H	4.66408	0.0229653	1.16395
C	3.67594	-0.699275	-0.634026
H	3.93483	-0.921047	-1.6913
H	3.25725	-1.61313	-0.16489
H	2.88836	0.0856032	-0.62918
N	5.79751	-2.36117	0.83226
C	6.78775	-3.41073	0.895801
H	4.94335	-2.49323	1.32425
H	6.42435	-4.25703	1.51945
H	7.73584	-3.02986	1.34004
H	7.01545	-3.79852	-0.12347
