44
  This energy is -2.257 and Call times are: 112178
C	1.40864	-2.15207	2.34457
C	0.95863	-1.83643	0.970161
O	1.24534	-2.56198	0.0279333
H	2.01548	-3.08337	2.32758
H	0.532069	-2.30638	3.00832
H	2.03227	-1.32401	2.74269
N	0.23276	-0.725548	0.823797
C	-0.240017	-0.264885	-0.457932
C	-0.367473	1.24573	-0.400009
O	-0.244583	1.84775	0.664974
H	0.0421815	-0.123468	1.59389
H	0.497905	-0.497523	-1.21555
C	-1.59866	-0.909848	-0.809139
H	-2.35879	-0.662754	-0.0376578
H	-1.96669	-0.573703	-1.80014
H	-1.48352	-2.0154	-0.838159
N	-0.610328	1.89745	-1.55426
C	-0.741783	3.33517	-1.59734
H	-0.702536	1.39333	-2.40657
H	-0.939121	3.68109	-2.6359
H	0.190822	3.82587	-1.23576
H	-1.58292	3.67255	-0.94941
C	5.4627	3.47911	-0.030573
C	5.8689	2.19095	0.575079
O	6.68146	2.14928	1.48854
H	6.01551	4.30763	0.463192
H	4.37312	3.64082	0.108805
H	5.70118	3.48414	-1.11509
N	5.30362	1.09262	0.0686135
C	5.63058	-0.235296	0.524992
C	5.41635	-1.1978	-0.627946
O	4.8741	-0.825472	-1.66671
H	4.67478	1.13944	-0.70225
H	6.68053	-0.274526	0.787097
C	4.75547	-0.634459	1.73333
H	3.67867	-0.604568	1.46192
H	5.00726	-1.64967	2.10274
H	4.92243	0.0879324	2.56195
N	5.84815	-2.46492	-0.473117
C	5.6924	-3.44959	-1.51826
H	6.28827	-2.74631	0.373166
H	6.11046	-4.43008	-1.20028
H	6.22141	-3.12672	-2.4441
H	4.61586	-3.59141	-1.76741
