44
  This energy is 0.1643 and Call times are: 107243
C	2.8967	-1.90636	0.296013
C	1.90864	-1.15353	-0.509055
O	2.12386	-0.880721	-1.68194
H	3.78869	-2.12699	-0.329725
H	2.45634	-2.86418	0.644458
H	3.21345	-1.30443	1.17376
N	0.784926	-0.793591	0.115516
C	-0.250466	-0.0203841	-0.523761
C	-0.967423	0.784258	0.543984
O	-0.744516	0.58722	1.73696
H	0.641965	-0.987378	1.08189
H	0.202218	0.684858	-1.20958
C	-1.24429	-0.938379	-1.26864
H	-1.71682	-1.65512	-0.563628
H	-2.03856	-0.35394	-1.77665
H	-0.696573	-1.52326	-2.03952
N	-1.84511	1.72208	0.136324
C	-2.57018	2.54007	1.08044
H	-2.00903	1.86968	-0.833425
H	-3.24181	3.25086	0.550422
H	-1.86605	3.12826	1.71249
H	-3.1914	1.90621	1.75383
C	6.68394	-0.684577	0.727275
C	5.63499	0.100259	0.0381531
O	5.90198	1.14702	-0.535795
H	7.65823	-0.157487	0.633479
H	6.77386	-1.69075	0.266531
H	6.43584	-0.792248	1.80427
N	4.39655	-0.396364	0.08291
C	3.26409	0.275541	-0.504153
C	2.02504	-0.112168	0.280706
O	2.06972	-1.00019	1.1299
H	4.18773	-1.2284	0.58884
H	3.39026	1.34596	-0.399697
C	3.10502	-0.108427	-1.9916
H	2.965	-1.20525	-2.0985
H	2.24461	0.413203	-2.45863
H	4.02623	0.177169	-2.5449
N	0.884369	0.555766	0.0185044
C	-0.343261	0.259467	0.719434
H	0.868941	1.27393	-0.669297
H	-1.16785	0.915313	0.362844
H	-0.218116	0.418153	1.81508
H	-0.642938	-0.80105	0.556217
