44
  This energy is -4.7263 and Call times are: 111753
C	1.37792	-2.0993	-2.40976
C	0.717549	-1.86998	-1.10498
O	0.262403	-2.80011	-0.453753
H	1.35288	-3.18481	-2.64834
H	2.43584	-1.765	-2.36726
H	0.846588	-1.54301	-3.21059
N	0.64811	-0.603108	-0.689532
C	-0.0023847	-0.218491	0.538266
C	-0.52168	1.19756	0.374935
O	-0.216437	1.87091	-0.607486
H	0.986728	0.147378	-1.24987
H	-0.859427	-0.859207	0.704375
C	0.9757	-0.302395	1.73055
H	1.84998	0.362742	1.56543
H	0.482923	-0.0219541	2.68399
H	1.34908	-1.34536	1.82625
N	-1.33131	1.68155	1.33737
C	-1.87802	3.01646	1.26455
H	-1.57028	1.12015	2.12273
H	-2.51887	3.22774	2.14881
H	-2.49695	3.13787	0.346147
H	-1.06198	3.77426	1.23359
C	3.27381	1.81461	-1.05485
C	4.26168	0.725879	-1.22788
O	4.10878	-0.138	-2.08038
H	2.44308	1.6755	-1.78038
H	3.75255	2.79892	-1.24107
H	2.85871	1.79458	-0.0251063
N	5.31385	0.743136	-0.406287
C	6.33622	-0.273202	-0.425335
C	6.9237	-0.37932	0.969363
O	6.63404	0.440373	1.83879
H	5.40355	1.42958	0.309676
H	5.88499	-1.22947	-0.658897
C	7.43743	0.0711871	-1.45197
H	7.90788	1.04719	-1.20674
H	8.22349	-0.710775	-1.48602
H	6.9836	0.151685	-2.46385
N	7.76236	-1.40437	1.21825
C	8.36541	-1.58921	2.51761
H	7.98147	-2.05981	0.503094
H	9.02243	-2.48673	2.52215
H	7.58228	-1.72422	3.29848
H	8.98049	-0.702765	2.79517
