44
  This energy is -0.9439 and Call times are: 113265
C	-1.7469	-1.12181	2.79331
C	-0.549255	-1.10964	1.92346
O	0.495981	-1.63706	2.27803
H	-1.50452	-1.64323	3.74475
H	-2.5791	-1.65858	2.29124
H	-2.06322	-0.0825679	3.02354
N	-0.677469	-0.494243	0.745653
C	0.411901	-0.363144	-0.189571
C	0.188318	0.898204	-1.00232
O	-0.869409	1.51989	-0.922087
H	-1.52242	-0.0340648	0.48845
H	1.33814	-0.235004	0.356599
C	0.495413	-1.59631	-1.11563
H	-0.450724	-1.72208	-1.68399
H	1.33894	-1.51366	-1.83128
H	0.651171	-2.50841	-0.499058
N	1.19019	1.31191	-1.80303
C	1.07013	2.50419	-2.6094
H	2.04015	0.797818	-1.85142
H	1.99846	2.67636	-3.19744
H	0.891737	3.39666	-1.9668
H	0.216593	2.41402	-3.31967
C	3.64423	2.32564	1.69679
C	4.02477	0.932556	1.37175
O	3.59252	-0.0096608	2.02121
H	2.96748	2.32525	2.57876
H	3.11451	2.78806	0.837542
H	4.54866	2.92301	1.93809
N	4.85893	0.770077	0.342105
C	5.35256	-0.52134	-0.066713
C	6.71488	-0.326512	-0.705219
O	7.14028	0.800804	-0.949966
H	5.23449	1.54954	-0.151108
H	5.49248	-1.14367	0.808358
C	4.38024	-1.19442	-1.06009
H	4.24455	-0.561268	-1.96272
H	4.7424	-2.19555	-1.37171
H	3.38789	-1.31977	-0.574425
N	7.43837	-1.42883	-0.983571
C	8.74798	-1.34114	-1.5864
H	7.07898	-2.33225	-0.774435
H	9.18084	-2.35483	-1.73573
H	9.44034	-0.756406	-0.938321
H	8.6916	-0.83434	-2.57691
