44
  This energy is -4.3577 and Call times are: 106754
C	-2.64825	1.8145	1.34427
C	-1.22525	1.40736	1.32317
O	-0.389872	1.99065	2.00018
H	-2.77091	2.68594	2.02355
H	-3.27983	0.979329	1.71351
H	-2.97847	2.1045	0.32449
N	-0.913544	0.380336	0.529171
C	0.435594	-0.102557	0.370424
C	0.560702	-0.709986	-1.01411
O	-0.431738	-0.877833	-1.72023
H	-1.59748	-0.0579905	-0.0469946
H	1.12226	0.733348	0.419189
C	0.778149	-1.14873	1.45367
H	0.0805447	-2.0114	1.39727
H	1.81906	-1.51804	1.35058
H	0.672209	-0.684695	2.45856
N	1.79393	-1.04784	-1.43959
C	2.01092	-1.62708	-2.7448
H	2.58527	-0.900588	-0.855485
H	3.09144	-1.83433	-2.90837
H	1.66185	-0.934655	-3.54478
H	1.45052	-2.58439	-2.84808
C	3.40958	1.07612	2.71681
C	3.89949	1.22765	1.32821
O	3.40697	2.0512	0.569534
H	2.57256	1.78679	2.89056
H	4.22508	1.29841	3.43673
H	3.04256	0.0412447	2.88232
N	4.89637	0.419924	0.959157
C	5.44948	0.420197	-0.372242
C	5.9833	-0.969805	-0.662929
O	6.05073	-1.81707	0.2255
H	5.25927	-0.273412	1.57515
H	4.66043	0.61866	-1.08682
C	6.57444	1.47037	-0.502083
H	7.38908	1.26109	0.223594
H	6.99905	1.48995	-1.5267
H	6.163	2.47861	-0.277336
N	6.36969	-1.23984	-1.92539
C	6.88546	-2.53679	-2.29698
H	6.30377	-0.542572	-2.63146
H	7.14748	-2.56091	-3.37772
H	6.12881	-3.33098	-2.10201
H	7.79997	-2.77937	-1.70877
