44
  This energy is 0.1805 and Call times are: 103555
C	-2.02273	2.77956	-0.54343
C	-1.24487	1.61848	-1.03126
O	-1.33226	1.24035	-2.19134
H	-2.65012	3.17537	-1.37143
H	-1.33712	3.5813	-0.197168
H	-2.68453	2.47236	0.293665
N	-0.454927	1.01632	-0.139201
C	0.329621	-0.151648	-0.453682
C	0.508696	-0.95785	0.818924
O	0.163826	-0.501542	1.9073
H	-0.425541	1.31048	0.811837
H	-0.216869	-0.771182	-1.1538
C	1.7018	0.246893	-1.03979
H	2.2672	0.873736	-0.317692
H	2.30989	-0.643943	-1.29894
H	1.54636	0.842592	-1.96571
N	1.04861	-2.18769	0.709241
C	1.25223	-3.02964	1.86502
H	1.31762	-2.54122	-0.180543
H	1.70647	-4.00084	1.56895
H	0.283884	-3.2368	2.37557
H	1.92974	-2.53432	2.59767
C	1.36385	-1.1118	1.28782
C	2.82302	-0.88877	1.39854
O	3.40349	-1.01611	2.46776
H	0.955297	-1.37307	2.28815
H	1.1565	-1.94655	0.585718
H	0.86236	-0.190132	0.924359
N	3.45732	-0.542639	0.275935
C	4.86857	-0.250679	0.234686
C	5.11491	0.735043	-0.891921
O	4.22098	1.01921	-1.68682
H	2.96444	-0.403018	-0.578129
H	5.16002	0.234921	1.15765
C	5.6923	-1.53881	0.0169006
H	5.40108	-2.03177	-0.935062
H	6.7814	-1.32908	-0.0028696
H	5.49035	-2.24858	0.848635
N	6.34009	1.28908	-0.981266
C	6.66521	2.2416	-2.01721
H	7.04917	1.04973	-0.326299
H	7.71991	2.5818	-1.9217
H	6.00178	3.1343	-1.95224
H	6.53342	1.78617	-3.02535
