44
  This energy is -4.2622 and Call times are: 104979
C	0.430835	-0.410688	-3.42905
C	-0.150795	0.292706	-2.26368
O	-0.721938	1.36671	-2.39297
H	0.267518	0.198301	-4.34466
H	-0.0577843	-1.39868	-3.56269
H	1.52219	-0.554962	-3.28336
N	-0.0135836	-0.30756	-1.0791
C	-0.489037	0.274739	0.151114
C	0.387947	-0.228053	1.28233
O	1.21074	-1.12162	1.0919
H	0.489648	-1.16171	-0.983966
H	-0.372024	1.35033	0.105868
C	-1.96605	-0.0991834	0.403803
H	-2.08493	-1.2022	0.460816
H	-2.34796	0.354637	1.3412
H	-2.58802	0.271536	-0.440043
N	0.236739	0.344765	2.49272
C	1.03117	-0.0647417	3.62734
H	-0.431429	1.06919	2.62625
H	0.759232	0.524186	4.53091
H	2.11573	0.0876782	3.42298
H	0.870328	-1.14427	3.85068
C	5.16061	-3.44883	-0.0785959
C	5.46542	-2.08207	-0.558408
O	6.41993	-1.86715	-1.29266
H	5.9214	-4.1556	-0.475488
H	4.1571	-3.76423	-0.433892
H	5.18606	-3.47937	1.03113
N	4.64739	-1.11158	-0.144437
C	4.84072	0.274073	-0.492498
C	4.2613	1.12663	0.620598
O	3.59721	0.618862	1.52218
H	3.89884	-1.2959	0.486082
H	5.90165	0.485362	-0.541708
C	4.15961	0.60501	-1.83853
H	3.06942	0.398378	-1.78524
H	4.31308	1.6658	-2.12437
H	4.59348	-0.036016	-2.63677
N	4.50844	2.45095	0.587118
C	4.00268	3.34028	1.60666
H	5.05135	2.84272	-0.148301
H	4.31295	4.38886	1.40305
H	4.39015	3.04865	2.6097
H	2.88977	3.30443	1.64269
