44
  This energy is -2.07 and Call times are: 102066
C	1.02258	-2.68696	1.96145
C	0.630475	-1.26925	1.7956
O	0.402303	-0.558107	2.76443
H	1.042	-2.93841	3.04416
H	2.03347	-2.85685	1.53486
H	0.290618	-3.34857	1.45195
N	0.540139	-0.821359	0.541164
C	0.128303	0.522327	0.219514
C	-0.533449	0.500242	-1.14546
O	-0.498059	-0.509389	-1.84625
H	0.689106	-1.42336	-0.238111
H	-0.617158	0.848205	0.934162
C	1.33627	1.48465	0.22013
H	2.09663	1.15669	-0.520368
H	1.03007	2.52514	-0.0125812
H	1.80969	1.47873	1.2262
N	-1.16403	1.61938	-1.55281
C	-1.82671	1.68976	-2.83425
H	-1.18541	2.42495	-0.970009
H	-2.2856	2.69169	-2.98517
H	-2.63103	0.921914	-2.9032
H	-1.10319	1.50706	-3.66147
C	5.55577	-1.74518	-2.84229
C	5.48498	-0.57243	-1.94184
O	4.88936	0.443859	-2.2717
H	5.02176	-1.51374	-3.78946
H	5.0749	-2.62434	-2.36419
H	6.61455	-1.98482	-3.07601
N	6.10447	-0.689549	-0.765024
C	6.15945	0.381493	0.198512
C	7.43082	0.222154	1.0108
O	8.1225	-0.788945	0.906089
H	6.61979	-1.50805	-0.527636
H	6.22641	1.32812	-0.323055
C	4.921	0.35783	1.12096
H	4.85767	-0.609078	1.66422
H	4.94477	1.18612	1.85846
H	4.00213	0.4679	0.504596
N	7.77401	1.22842	1.83884
C	8.9695	1.16786	2.64711
H	7.20374	2.04036	1.90685
H	9.07724	2.09007	3.25961
H	9.87368	1.06662	2.00407
H	8.9351	0.292021	3.33476
