44
  This energy is -1.932 and Call times are: 106336
C	0.728417	-3.19501	1.17219
C	0.910449	-2.08837	0.206082
O	1.82321	-2.10271	-0.608213
H	1.53062	-3.94977	1.02154
H	-0.257064	-3.68179	1.01529
H	0.788591	-2.80925	2.21174
N	0.0309411	-1.08658	0.278615
C	0.10425	0.0795833	-0.565926
C	-0.507788	1.24687	0.185343
O	-1.1032	1.07024	1.24647
H	-0.682027	-1.06963	0.973781
H	1.14334	0.323149	-0.749229
C	-0.639841	-0.156652	-1.8985
H	-1.70833	-0.396203	-1.71148
H	-0.578841	0.729241	-2.56333
H	-0.180309	-1.02006	-2.42738
N	-0.366847	2.4765	-0.347725
C	-0.911115	3.64768	0.299039
H	0.1218	2.59989	-1.20509
H	-0.690512	4.56259	-0.29383
H	-0.472744	3.77452	1.31541
H	-2.01621	3.55847	0.408379
C	6.11554	1.66926	-3.01008
C	6.42851	0.587124	-2.04977
O	7.1506	-0.348907	-2.36416
H	6.61314	1.45426	-3.98065
H	6.48575	2.64228	-2.62417
H	5.01896	1.72998	-3.17412
N	5.88004	0.692793	-0.83717
C	6.05759	-0.30348	0.189703
C	4.83526	-0.279897	1.08799
O	3.98967	0.605845	0.97774
H	5.26145	1.43931	-0.609317
H	6.1028	-1.28392	-0.267806
C	7.33736	-0.028838	1.00945
H	7.2869	0.972588	1.48762
H	7.49263	-0.797027	1.7945
H	8.218	-0.0429357	0.330761
N	4.70948	-1.26518	1.99871
C	3.57697	-1.32789	2.89295
H	5.40203	-1.97536	2.07009
H	3.65552	-2.21015	3.56576
H	2.62632	-1.40938	2.3177
H	3.52196	-0.410396	3.52249
