44
  This energy is 0.2865 and Call times are: 105778
C	2.9831	1.51393	-0.960119
C	1.79049	1.42092	-0.0882322
O	1.70181	2.08408	0.935862
H	3.70904	2.22829	-0.514502
H	2.69287	1.87829	-1.96797
H	3.46818	0.519311	-1.05239
N	0.832063	0.578834	-0.481519
C	-0.367634	0.348652	0.284184
C	-0.849695	-1.06061	-0.00419383
O	-0.335771	-1.73166	-0.897102
H	0.936731	0.0154442	-1.29608
H	-0.132767	0.399494	1.34006
C	-1.45949	1.37916	-0.0779802
H	-1.70833	1.32017	-1.15901
H	-2.38356	1.22104	0.514982
H	-1.08207	2.40343	0.133621
N	-1.84988	-1.54728	0.756605
C	-2.37029	-2.88003	0.558807
H	-2.25021	-0.990687	1.47703
H	-3.18775	-3.09435	1.28203
H	-1.56818	-3.64004	0.701197
H	-2.77539	-2.99473	-0.472639
C	3.04093	-0.232254	-0.306076
C	4.41285	-0.481038	-0.803181
O	4.61729	-1.22826	-1.7499
H	2.31903	-0.826626	-0.907267
H	2.78827	0.844577	-0.402738
H	2.95856	-0.536939	0.758562
N	5.39975	0.149538	-0.162256
C	6.78959	-0.0261178	-0.502922
C	7.61594	0.203109	0.748541
O	7.09835	0.643759	1.77306
H	5.22118	0.722514	0.632518
H	6.95423	-1.04985	-0.815152
C	7.21248	0.954915	-1.61826
H	7.05364	2.00561	-1.29444
H	8.2771	0.820086	-1.89918
H	6.58947	0.774465	-2.52138
N	8.92773	-0.100968	0.696034
C	9.7917	0.0788361	1.83945
H	9.32751	-0.460316	-0.140698
H	10.8332	-0.227594	1.59744
H	9.43712	-0.533745	2.69986
H	9.80511	1.14632	2.15797
