44
  This energy is -5.7819 and Call times are: 110267
C	0.115676	3.05947	1.65497
C	-0.33119	2.19888	0.536564
O	-1.1901	2.5763	-0.248447
H	-0.45545	4.01305	1.63553
H	1.19782	3.28658	1.55436
H	-0.0664841	2.55122	2.62533
N	0.250962	1.00132	0.440015
C	-0.109383	0.0369941	-0.569334
C	0.156596	-1.34987	-0.0148741
O	0.754589	-1.49875	1.04906
H	0.91908	0.69213	1.11075
H	-1.17173	0.107002	-0.767203
C	0.699108	0.266333	-1.86509
H	1.78867	0.184177	-1.66472
H	0.420746	-0.461324	-2.65474
H	0.495214	1.28991	-2.24857
N	-0.292406	-2.40373	-0.724656
C	-0.0905615	-3.76065	-0.272761
H	-0.777767	-2.26304	-1.58122
H	-0.532032	-4.48465	-0.992592
H	-0.568583	-3.91887	0.721089
H	0.996278	-3.984	-0.172574
C	7.51259	2.64097	0.13687
C	6.58821	1.68203	0.782722
O	6.56114	1.54987	1.99854
H	8.12347	3.14464	0.91725
H	6.93794	3.40965	-0.421386
H	8.19103	2.10723	-0.56164
N	5.79858	0.978401	-0.0320027
C	4.87796	-0.0230667	0.445566
C	4.69772	-1.05953	-0.647512
O	5.15735	-0.874555	-1.77278
H	5.86106	1.06758	-1.02195
H	5.31085	-0.527654	1.30033
C	3.5201	0.609902	0.820802
H	3.07061	1.11867	-0.0584946
H	2.80706	-0.14903	1.20305
H	3.67716	1.37065	1.61637
N	4.02657	-2.18598	-0.336554
C	3.81074	-3.23052	-1.31047
H	3.66566	-2.31935	0.580523
H	3.23965	-4.07361	-0.862923
H	4.78293	-3.62545	-1.68487
H	3.23695	-2.84209	-2.18284
