44
  This energy is 0.1145 and Call times are: 107857
C	-3.43822	-0.539478	-0.0168319
C	-2.25959	0.35456	0.0348195
O	-2.37815	1.56594	-0.0872682
H	-4.35265	0.0680303	-0.191873
H	-3.54746	-1.08463	0.944221
H	-3.32819	-1.27025	-0.845657
N	-1.07555	-0.234412	0.217925
C	0.165286	0.499105	0.247081
C	1.27033	-0.421388	-0.235746
O	1.05946	-1.6197	-0.412671
H	-0.990584	-1.22508	0.274647
H	0.107549	1.32657	-0.449053
C	0.470502	1.01049	1.67206
H	0.540281	0.161166	2.38468
H	1.41657	1.58877	1.7049
H	-0.35487	1.67554	2.00794
N	2.48051	0.123474	-0.469435
C	3.591	-0.673584	-0.936028
H	2.63067	1.09584	-0.324397
H	4.49848	-0.0442203	-1.06871
H	3.34905	-1.15019	-1.91357
H	3.82823	-1.48202	-0.207126
C	3.23425	-0.338523	1.70394
C	4.63145	0.141276	1.61029
O	5.08746	0.926278	2.4302
H	2.74039	0.137287	2.5789
H	3.21619	-1.44072	1.8365
H	2.67423	-0.0678286	0.784058
N	5.35253	-0.327002	0.588947
C	6.7129	0.0812786	0.341451
C	6.97555	-0.0270334	-1.1488
O	6.15829	-0.562705	-1.89503
H	4.95496	-0.9336	-0.0935705
H	6.82859	1.12275	0.61452
C	7.70562	-0.799271	1.13163
H	7.59459	-1.86655	0.84417
H	8.75585	-0.485952	0.960257
H	7.48978	-0.7107	2.21879
N	8.12708	0.490606	-1.62001
C	8.46021	0.438888	-3.02447
H	8.77403	0.923771	-1.00122
H	9.44675	0.917014	-3.21252
H	7.69158	0.971268	-3.63033
H	8.50864	-0.616369	-3.37835
