44
  This energy is -5.1344 and Call times are: 108895
C	2.51738	1.88935	1.48521
C	1.86835	1.28531	0.299862
O	2.21124	1.59069	-0.833974
H	3.28815	2.61736	1.15085
H	3.00746	1.10219	2.09591
H	1.76457	2.4218	2.10396
N	0.897735	0.400904	0.540913
C	0.145049	-0.238149	-0.509627
C	-1.23276	-0.571155	0.0310163
O	-1.48737	-0.444765	1.22722
H	0.601972	0.19321	1.46895
H	0.0108438	0.458665	-1.32759
C	0.858233	-1.51746	-0.999504
H	0.986726	-2.23704	-0.16301
H	0.295449	-2.0112	-1.81805
H	1.86724	-1.25105	-1.38329
N	-2.16189	-0.999485	-0.846077
C	-3.50196	-1.33471	-0.42418
H	-1.93817	-1.09144	-1.81074
H	-4.11591	-1.66544	-1.29073
H	-3.99922	-0.453148	0.0415126
H	-3.48336	-2.15729	0.326919
C	6.48947	-3.21154	1.2279
C	5.85303	-1.87723	1.30357
O	4.94212	-1.65403	2.08895
H	5.99529	-3.89574	1.95144
H	7.56744	-3.13639	1.48304
H	6.38019	-3.63019	0.205228
N	6.32607	-0.946078	0.471958
C	5.77972	0.386126	0.399231
C	5.99905	0.911164	-1.00711
O	6.70094	0.295278	-1.80695
H	7.04026	-1.15441	-0.190144
H	4.71037	0.34318	0.56439
C	6.45077	1.3149	1.43475
H	7.54643	1.3676	1.25922
H	6.02893	2.3402	1.39813
H	6.28431	0.907143	2.45571
N	5.39206	2.06583	-1.34521
C	5.53851	2.63921	-2.66277
H	4.82471	2.54759	-0.685589
H	4.96333	3.5877	-2.74505
H	5.16592	1.93474	-3.44134
H	6.60915	2.85826	-2.87932
