44
  This energy is -4.4341 and Call times are: 110438
C	-1.62906	2.97108	-0.794688
C	-0.889034	1.74774	-1.17801
O	-0.806499	1.39815	-2.34736
H	-2.0621	3.43892	-1.70545
H	-0.943272	3.6969	-0.309265
H	-2.45296	2.71651	-0.0950723
N	-0.32707	1.05776	-0.182767
C	0.388494	-0.175807	-0.39451
C	0.266074	-1.01547	0.863079
O	-0.220299	-0.544969	1.88962
H	-0.437619	1.33271	0.768049
H	-0.0819907	-0.728257	-1.1983
C	1.87316	0.0967162	-0.721234
H	2.35901	0.654258	0.107702
H	2.43182	-0.844795	-0.900047
H	1.93842	0.719162	-1.64028
N	0.700221	-2.29006	0.808622
C	0.61902	-3.16586	1.9543
H	1.08699	-2.65404	-0.0322111
H	1.02589	-4.17182	1.70992
H	-0.438813	-3.28597	2.28268
H	1.20068	-2.75026	2.80875
C	5.29277	0.640012	-3.41801
C	5.24732	-0.289662	-2.26701
O	5.0577	-1.4874	-2.42785
H	5.11582	0.0713055	-4.35668
H	6.288	1.12876	-3.4761
H	4.50548	1.41621	-3.31427
N	5.42121	0.252158	-1.05929
C	5.36059	-0.517814	0.158093
C	4.89289	0.397527	1.27388
O	4.79566	1.61003	1.09473
H	5.53371	1.23464	-0.941241
H	4.61898	-1.29943	0.0498554
C	6.74026	-1.1235	0.497063
H	7.49917	-0.321423	0.618592
H	6.70348	-1.73018	1.42503
H	7.06624	-1.78325	-0.336488
N	4.58245	-0.167365	2.45732
C	4.12339	0.623672	3.57522
H	4.6636	-1.15072	2.58182
H	3.91989	-0.0227914	4.45721
H	3.18564	1.16564	3.31412
H	4.8899	1.37906	3.86331
