44
  This energy is -3.0335 and Call times are: 105638
C	2.45168	2.09613	-1.30696
C	1.08089	1.84761	-0.806651
O	0.314036	2.77226	-0.575644
H	2.61674	3.19181	-1.39715
H	2.58519	1.62921	-2.30541
H	3.1988	1.67715	-0.600309
N	0.738541	0.570276	-0.623363
C	-0.545233	0.173129	-0.1011
C	-0.372833	-1.14871	0.623168
O	0.68326	-1.77401	0.549751
H	1.38754	-0.169383	-0.77689
H	-0.874156	0.901052	0.630042
C	-1.58435	0.0374454	-1.23559
H	-1.25237	-0.716871	-1.98046
H	-2.58057	-0.254483	-0.844633
H	-1.68837	1.01414	-1.75673
N	-1.41179	-1.60281	1.35144
C	-1.33777	-2.84824	2.07918
H	-2.25674	-1.08072	1.40204
H	-2.29162	-3.04762	2.61551
H	-0.514162	-2.81677	2.82882
H	-1.14107	-3.69764	1.38566
C	4.61128	2.3506	2.2196
C	5.46884	1.18481	1.90867
O	6.29082	0.77079	2.7145
H	4.86713	2.73548	3.23067
H	3.54175	2.05273	2.20848
H	4.77782	3.15754	1.47517
N	5.29415	0.622325	0.710556
C	6.08368	-0.491956	0.248423
C	6.1579	-0.423536	-1.26531
O	5.4682	0.37684	-1.89413
H	4.64973	0.99593	0.0494922
H	7.09406	-0.394681	0.625642
C	5.46367	-1.83241	0.700112
H	4.43091	-1.93741	0.304618
H	6.07003	-2.69767	0.362209
H	5.41188	-1.85711	1.81054
N	7.00924	-1.26218	-1.88813
C	7.1514	-1.26503	-3.32547
H	7.56199	-1.89987	-1.36192
H	7.89885	-2.02419	-3.64523
H	7.48801	-0.267073	-3.68887
H	6.17949	-1.50128	-3.81611
