44
  This energy is -1.6851 and Call times are: 101971
C	-2.59751	-0.751933	-2.19094
C	-1.16291	-0.737887	-1.82643
O	-0.337845	-1.36221	-2.47904
H	-2.74392	-1.40146	-3.0812
H	-2.94035	0.275427	-2.43535
H	-3.20206	-1.15293	-1.35022
N	-0.829842	-0.0139916	-0.755252
C	0.51936	0.061892	-0.252802
C	0.454013	0.314885	1.24161
O	-0.61411	0.58147	1.78912
H	-1.51848	0.455591	-0.210153
H	1.00856	-0.893342	-0.397157
C	1.30839	1.18654	-0.958385
H	0.812666	2.16825	-0.801753
H	2.35303	1.24605	-0.590014
H	1.33656	0.984951	-2.05151
N	1.60249	0.228184	1.94127
C	1.63652	0.447464	3.36849
H	2.4561	0.0073423	1.48123
H	2.67127	0.33126	3.75965
H	0.979187	-0.28273	3.89385
H	1.28064	1.47346	3.61711
C	6.76692	3.01102	-1.66713
C	5.88946	1.91501	-1.19811
O	4.67136	2.00861	-1.26045
H	6.13959	3.85374	-2.03063
H	7.41014	2.65658	-2.49982
H	7.40642	3.37226	-0.834294
N	6.5006	0.834153	-0.707547
C	5.78071	-0.295111	-0.173631
C	6.65063	-0.955773	0.879146
O	7.82237	-0.615999	1.03168
H	7.49213	0.789511	-0.625516
H	4.88394	0.0549568	0.322231
C	5.42458	-1.30051	-1.29058
H	6.3449	-1.66796	-1.79261
H	4.85792	-2.16791	-0.894304
H	4.79456	-0.793397	-2.05363
N	6.09034	-1.91631	1.64038
C	6.83926	-2.5969	2.67095
H	5.13958	-2.17465	1.50479
H	6.20408	-3.35118	3.18557
H	7.20849	-1.87179	3.43199
H	7.72151	-3.11957	2.23552
