44
  This energy is -5.6798 and Call times are: 111972
C	0.645486	2.3688	-2.46674
C	0.450115	1.98095	-1.05163
O	0.713367	2.75437	-0.141176
H	1.05827	3.40007	-2.51129
H	-0.324156	2.34617	-3.00713
H	1.35895	1.67459	-2.95881
N	-0.0222303	0.751521	-0.833044
C	-0.224013	0.216371	0.490383
C	-0.0644047	-1.29068	0.420571
O	0.0306074	-1.86442	-0.662718
H	-0.193093	0.11895	-1.58306
H	0.548616	0.592386	1.14939
C	-1.62305	0.588357	1.02849
H	-2.41632	0.193771	0.358365
H	-1.78535	0.19376	2.05244
H	-1.72037	1.69545	1.06347
N	-0.0226171	-1.96958	1.58392
C	0.132379	-3.40524	1.61614
H	-0.096989	-1.48733	2.4505
H	0.144213	-3.77607	2.66474
H	1.08606	-3.70844	1.1264
H	-0.70595	-3.90328	1.07734
C	2.93806	-0.255067	3.07398
C	3.50362	-0.856201	1.84518
O	3.64834	-2.06644	1.74131
H	2.71684	-1.05985	3.8083
H	1.99691	0.284579	2.83781
H	3.66634	0.451994	3.52425
N	3.84349	-0.00803914	0.87179
C	4.44551	-0.439621	-0.365087
C	5.3126	0.689883	-0.888481
O	5.28125	1.80218	-0.365499
H	3.75774	0.977457	0.987113
H	5.09675	-1.28258	-0.170358
C	3.36521	-0.818032	-1.40191
H	2.7033	0.0495233	-1.60991
H	3.81628	-1.16522	-2.35402
H	2.73776	-1.64066	-0.994581
N	6.1186	0.425723	-1.93567
C	6.98316	1.43688	-2.49804
H	6.13307	-0.481549	-2.34276
H	7.56661	1.0254	-3.35097
H	7.69973	1.81153	-1.73158
H	6.38719	2.30318	-2.86613
