44
  This energy is 0.1116 and Call times are: 106708
C	-3.09093	0.377115	-1.55455
C	-2.12686	-0.398351	-0.741917
O	-2.47025	-1.41115	-0.148006
H	-4.09166	-0.103354	-1.49486
H	-2.76581	0.399583	-2.61593
H	-3.16749	1.41587	-1.16955
N	-0.877615	0.0702905	-0.695766
C	0.161137	-0.551256	0.0873269
C	1.15424	0.521695	0.492386
O	1.08607	1.65417	0.0184985
H	-0.623107	0.918575	-1.15129
H	-0.268719	-0.952724	0.996545
C	0.86599	-1.66579	-0.716565
H	1.31622	-1.25248	-1.6442
H	1.65874	-2.16144	-0.119568
H	0.119015	-2.43569	-1.00917
N	2.10149	0.189594	1.39152
C	3.0859	1.14633	1.84072
H	2.13801	-0.730689	1.76678
H	3.77648	0.682734	2.57923
H	2.59217	2.02068	2.32343
H	3.68984	1.52108	0.982838
C	1.05926	1.83267	1.42903
C	1.57183	0.650313	0.700706
O	0.867984	-0.33277	0.514789
H	0.0127168	1.64046	1.751
H	1.07393	2.72501	0.76853
H	1.68159	2.02796	2.32772
N	2.83261	0.720873	0.267319
C	3.48439	-0.36656	-0.419144
C	4.97296	-0.277506	-0.140221
O	5.44961	0.702887	0.428414
H	3.40611	1.51147	0.462024
H	3.13544	-1.30694	-0.0110459
C	3.21329	-0.301553	-1.9382
H	3.5806	0.658575	-2.35924
H	3.69844	-1.14155	-2.47629
H	2.11764	-0.360371	-2.1183
N	5.74501	-1.31111	-0.529605
C	7.17123	-1.31724	-0.301508
H	5.34046	-2.09747	-0.984634
H	7.62806	-2.25287	-0.692824
H	7.39513	-1.24679	0.787615
H	7.65432	-0.451643	-0.809952
