44
  This energy is -2.7235 and Call times are: 111409
C	1.33885	-3.10454	-0.82581
C	0.22905	-2.12507	-0.815034
O	-0.778386	-2.30256	-1.48584
H	1.08774	-3.93652	-1.5191
H	1.49304	-3.51941	0.192451
H	2.2751	-2.61824	-1.17228
N	0.393889	-1.04996	-0.0408598
C	-0.579431	0.0105201	0.0402897
C	0.150627	1.29813	0.372894
O	1.33986	1.28531	0.684766
H	1.23689	-0.899418	0.467619
H	-1.04383	0.144097	-0.928796
C	-1.64564	-0.300168	1.11356
H	-1.17086	-0.426874	2.10984
H	-2.4087	0.502547	1.17606
H	-2.16158	-1.25034	0.854072
N	-0.548078	2.44847	0.305277
C	0.0642532	3.72318	0.599109
H	-1.50845	2.43903	0.0470666
H	-0.672922	4.54861	0.487516
H	0.916141	3.9183	-0.0918987
H	0.454971	3.7404	1.64227
C	3.48851	2.43734	-1.5247
C	4.06889	1.07664	-1.47177
O	3.68413	0.194537	-2.22693
H	2.69774	2.46923	-2.30541
H	4.27463	3.17906	-1.7789
H	3.0367	2.69904	-0.544673
N	5.02306	0.873479	-0.560354
C	5.65179	-0.408433	-0.360466
C	6.09722	-0.496193	1.08711
O	6.04942	0.488701	1.82155
H	5.29681	1.59011	0.0747516
H	4.92289	-1.19284	-0.521792
C	6.85719	-0.585695	-1.30959
H	7.61011	0.212704	-1.13721
H	7.34144	-1.57459	-1.17501
H	6.50917	-0.509897	-2.36291
N	6.53588	-1.68904	1.53511
C	6.97498	-1.86917	2.89927
H	6.56336	-2.47544	0.926918
H	7.29741	-2.91941	3.07319
H	6.1514	-1.63291	3.61143
H	7.83291	-1.19632	3.12813
