44
  This energy is -2.289 and Call times are: 103891
C	-0.894425	-1.06562	-3.19016
C	-0.979559	-1.15407	-1.71501
O	-1.83467	-1.83846	-1.17022
H	-1.70496	-1.67766	-3.64219
H	0.0856835	-1.45188	-3.54078
H	-1.01475	-0.0114857	-3.51791
N	-0.0797953	-0.449	-1.02532
C	-0.0631573	-0.401042	0.415512
C	0.528103	0.930793	0.837625
O	1.04463	1.68071	0.0114671
H	0.584269	0.135715	-1.48247
H	-1.08021	-0.434323	0.785811
C	0.763345	-1.56901	0.996873
H	1.80958	-1.52925	0.625596
H	0.772277	-1.55111	2.10598
H	0.317371	-2.53325	0.668683
N	0.457786	1.26075	2.14231
C	0.988699	2.51009	2.63572
H	0.0323692	0.642687	2.79507
H	0.834349	2.59664	3.73386
H	0.485652	3.37293	2.14203
H	2.08088	2.58234	2.42819
C	5.37448	0.0518982	-3.46903
C	5.64101	0.715187	-2.17281
O	6.12141	1.83912	-2.12385
H	5.69205	0.722459	-4.29689
H	4.28977	-0.160317	-3.57442
H	5.94515	-0.898244	-3.53716
N	5.33139	0.0201649	-1.07579
C	5.57279	0.515492	0.256478
C	5.79326	-0.674795	1.17091
O	5.58926	-1.82038	0.773763
H	4.97913	-0.909719	-1.1313
H	6.48504	1.09893	0.260831
C	4.3833	1.36648	0.752632
H	3.44916	0.765335	0.758362
H	4.56305	1.76516	1.77208
H	4.23536	2.22707	0.0642698
N	6.22632	-0.429449	2.42322
C	6.46909	-1.49964	3.36233
H	6.38967	0.504009	2.72496
H	6.8205	-1.09527	4.33713
H	7.2456	-2.1965	2.97158
H	5.53809	-2.085	3.54046
