44
  This energy is 0.1164 and Call times are: 105007
C	3.37307	-0.808278	0.28601
C	2.27823	0.0637677	-0.195664
O	2.51046	1.16487	-0.675309
H	4.34541	-0.287465	0.147515
H	3.38831	-1.75712	-0.290372
H	3.23649	-1.03348	1.36477
N	1.03893	-0.417598	-0.0739841
C	-0.131141	0.331878	-0.458403
C	-1.2907	-0.124857	0.406681
O	-1.18016	-1.10364	1.14254
H	0.862941	-1.2985	0.356029
H	0.0327686	1.38181	-0.250052
C	-0.454998	0.120593	-1.95363
H	-0.633612	-0.955092	-2.16585
H	-1.3459	0.703459	-2.26522
H	0.410223	0.454111	-2.56724
N	-2.43501	0.584093	0.343684
C	-3.58966	0.227496	1.13476
H	-2.50393	1.3755	-0.25465
H	-4.42992	0.930734	0.943335
H	-3.34637	0.25968	2.22152
H	-3.93196	-0.803564	0.888003
C	3.54074	2.55812	2.02644
C	3.65038	1.12858	1.65826
O	3.24641	0.249372	2.40673
H	3.07777	2.64354	3.03353
H	2.90446	3.09482	1.2917
H	4.54803	3.02471	2.05325
N	4.21154	0.861431	0.476687
C	4.42603	-0.482199	2.40623e-05
C	5.63086	-0.470341	-0.921828
O	6.14097	0.590175	-1.27792
H	4.57266	1.58599	-0.103369
H	4.66733	-1.12425	0.837979
C	3.1797	-1.00898	-0.744562
H	2.93797	-0.356574	-1.61058
H	3.3273	-2.04782	-1.10447
H	2.30876	-1.00135	-0.0533631
N	6.12138	-1.65897	-1.32503
C	7.26856	-1.74631	-2.19826
H	5.69754	-2.50643	-1.02298
H	7.51804	-2.80845	-2.41474
H	8.15738	-1.26631	-1.7283
H	7.06741	-1.22926	-3.16435
