44
  This energy is 0.1363 and Call times are: 108971
C	2.668	-2.08918	0.793594
C	1.27527	-1.86768	0.343713
O	0.608714	-2.78016	-0.124785
H	2.94835	-3.14953	0.612089
H	2.75825	-1.87436	1.87916
H	3.36192	-1.43214	0.228026
N	0.798807	-0.627644	0.476665
C	-0.523221	-0.248523	0.0441515
C	-0.496185	1.22257	-0.325602
O	0.488503	1.91609	-0.078359
H	1.36716	0.113762	0.821857
H	-0.778451	-0.801531	-0.85121
C	-1.56313	-0.508346	1.15605
H	-1.30756	0.0669753	2.07132
H	-2.58723	-0.23337	0.830251
H	-1.55997	-1.5894	1.41615
N	-1.58218	1.73326	-0.938653
C	-1.64493	3.12142	-1.33269
H	-2.36764	1.15536	-1.134
H	-2.61811	3.34788	-1.82142
H	-0.827705	3.36336	-2.05025
H	-1.53426	3.78703	-0.446202
C	7.3566	2.04749	-0.208752
C	6.51227	0.938766	-0.707758
O	6.70736	0.440092	-1.80761
H	8.11227	2.30982	-0.980753
H	7.88277	1.74001	0.719334
H	6.731	2.94088	-6.51791e-05
N	5.5369	0.52388	0.10398
C	4.60731	-0.516188	-0.260268
C	3.3036	-0.263479	0.473244
O	3.22923	0.598789	1.34655
H	5.36469	0.967046	0.979081
H	4.39818	-0.453003	-1.32088
C	5.16945	-1.90913	0.0988447
H	5.37428	-1.97803	1.1885
H	4.46879	-2.71939	-0.189371
H	6.1272	-2.06918	-0.442868
N	2.23634	-1.00969	0.126639
C	0.952913	-0.836164	0.766084
H	2.31505	-1.69971	-0.585221
H	0.204163	-1.54158	0.343
H	0.578014	0.202625	0.618942
H	1.03111	-1.02303	1.86158
