44
  This energy is 0.1037 and Call times are: 103863
C	-0.129432	-3.14743	1.47974
C	-0.355264	-2.23454	0.336594
O	-0.638803	-2.66667	-0.772135
H	-0.243379	-4.19914	1.13797
H	-0.871224	-2.94768	2.28135
H	0.896103	-3.00964	1.88271
N	-0.229919	-0.928984	0.585974
C	-0.377416	0.0786389	-0.434566
C	0.474617	1.27256	-0.0470757
O	1.00544	1.33462	1.06021
H	0.0415084	-0.594646	1.48398
H	0.00879703	-0.302743	-1.37159
C	-1.85644	0.495941	-0.588156
H	-2.25008	0.897083	0.370055
H	-1.98498	1.2614	-1.38066
H	-2.4623	-0.39467	-0.864
N	0.632495	2.25082	-0.960366
C	1.43022	3.42248	-0.682804
H	0.198434	2.18075	-1.85242
H	1.43782	4.10935	-1.55766
H	2.48208	3.13607	-0.452951
H	1.02362	3.97606	0.194333
C	9.79725	1.03811	0.404006
C	8.78176	-0.0112845	0.161718
O	9.10562	-1.13402	-0.200206
H	10.8078	0.628136	0.188127
H	9.7619	1.36746	1.46373
H	9.61344	1.90905	-0.259884
N	7.50834	0.338692	0.357454
C	6.40628	-0.560333	0.121311
C	5.19232	0.268117	-0.254915
O	5.21139	1.49361	-0.157438
H	7.25765	1.26818	0.612515
H	6.63822	-1.19532	-0.72463
C	6.11219	-1.41372	1.3745
H	5.86387	-0.763103	2.24
H	5.27449	-2.11984	1.2008
H	7.01654	-2.00537	1.63611
N	4.10364	-0.38643	-0.704763
C	2.90387	0.318656	-1.09151
H	4.10871	-1.37805	-0.780547
H	2.12169	-0.394354	-1.43363
H	3.11686	1.03019	-1.92195
H	2.49652	0.90121	-0.233694
