44
  This energy is 0.1024 and Call times are: 109722
C	-0.264993	0.0869533	-3.46914
C	-0.395768	0.716764	-2.13595
O	-0.596152	1.91796	-2.02025
H	-0.359665	0.86756	-4.25499
H	-1.06486	-0.669067	-3.61536
H	0.727426	-0.401773	-3.5658
N	-0.280843	-0.0949971	-1.08229
C	-0.342289	0.378009	0.278247
C	0.485739	-0.555284	1.14132
O	0.930187	-1.60685	0.684814
H	-0.0769994	-1.06368	-1.19171
H	0.112215	1.35918	0.3362
C	-1.80214	0.426916	0.77992
H	-2.26555	-0.581479	0.73058
H	-1.86394	0.802723	1.82178
H	-2.39121	1.10936	0.129055
N	0.720294	-0.185113	2.41567
C	1.50248	-1.00674	3.3097
H	0.355697	0.671396	2.76572
H	1.58221	-0.531378	4.31215
H	2.5315	-1.15387	2.90876
H	1.03347	-2.00968	3.43333
C	7.31499	1.32793	-0.114779
C	6.06019	0.893782	-0.769099
O	5.83256	1.15993	-1.94117
H	7.92809	1.90374	-0.841698
H	7.89536	0.444231	0.224332
H	7.08728	1.97706	0.756916
N	5.20311	0.205557	-0.0113705
C	3.9225	-0.246903	-0.494983
C	2.97193	-0.324618	0.684823
O	3.38324	-0.185936	1.83517
H	5.38426	0.0320576	0.952445
H	3.5218	0.48579	-1.18435
C	4.04744	-1.62477	-1.18136
H	4.44857	-2.37924	-0.471489
H	3.07038	-1.97775	-1.57032
H	4.75373	-1.5461	-2.03652
N	1.66776	-0.541448	0.423791
C	0.688743	-0.625188	1.48242
H	1.35339	-0.647043	-0.51381
H	-0.326421	-0.807065	1.06576
H	0.662393	0.321742	2.06885
H	0.93546	-1.45717	2.18105
