44
  This energy is 1.098 and Call times are: 110183
C	0.824529	-1.7118	-2.91592
C	-0.133863	-1.3353	-1.85249
O	-1.32464	-1.59719	-1.95184
H	0.276842	-2.21332	-3.7432
H	1.58708	-2.41142	-2.51369
H	1.3281	-0.806283	-3.31535
N	0.373756	-0.69916	-0.79418
C	-0.440043	-0.231703	0.30025
C	0.239607	0.979061	0.911544
O	1.37704	1.30059	0.573056
H	1.33855	-0.456739	-0.746459
H	-1.399	0.0953747	-0.0819302
C	-0.628588	-1.33933	1.3599
H	0.354313	-1.66783	1.75993
H	-1.26499	-0.996109	2.20116
H	-1.12027	-2.21824	0.888601
N	-0.450379	1.68774	1.82681
C	0.113091	2.8582	2.45826
H	-1.37113	1.41433	2.08474
H	-0.608088	3.30136	3.17987
H	0.367116	3.63119	1.6972
H	1.04531	2.59704	3.00954
C	8.61852	3.41151	0.165704
C	7.70605	2.27292	-0.0836723
O	6.50194	2.44379	-0.215312
H	8.02695	4.35115	0.220165
H	9.35622	3.49858	-0.659499
H	9.15505	3.2684	1.12733
N	8.26982	1.06471	-0.152771
C	7.50689	-0.143021	-0.347379
C	8.25904	-1.28785	0.304709
O	9.40189	-1.12955	0.729598
H	9.24605	0.936877	-0.00281341
H	6.55563	-0.050565	0.161716
C	7.29154	-0.423304	-1.85081
H	8.2671	-0.528707	-2.3716
H	6.69348	-1.34329	-2.01352
H	6.74655	0.430754	-2.30897
N	7.62691	-2.4736	0.406792
C	8.26161	-3.61846	1.01723
H	6.70074	-2.58112	0.0607944
H	7.58074	-4.49796	1.00617
H	8.53362	-3.39912	2.07514
H	9.19355	-3.88936	0.470201
