44
  This energy is -2.563 and Call times are: 106051
C	0.253564	2.11468	-2.75254
C	-0.0439735	1.86473	-1.32421
O	-0.205161	2.78958	-0.539945
H	0.310893	3.21072	-2.92943
H	-0.549092	1.68915	-3.39083
H	1.22646	1.65503	-3.02691
N	-0.122174	0.585779	-0.949303
C	-0.362275	0.185155	0.414667
C	0.286761	-1.16889	0.631146
O	0.746053	-1.80563	-0.31507
H	0.0519318	-0.155899	-1.59076
H	0.122252	0.88571	1.08331
C	-1.87646	0.113274	0.710145
H	-2.37227	-0.613103	0.0314795
H	-2.07428	-0.180755	1.76131
H	-2.33192	1.11283	0.537533
N	0.34722	-1.63878	1.89272
C	0.951404	-2.91522	2.19578
H	-0.0262263	-1.1072	2.64574
H	0.903691	-3.12364	3.28734
H	2.02065	-2.92783	1.88298
H	0.424795	-3.73683	1.65839
C	4.3055	3.21196	1.11435
C	3.96877	1.98335	0.360513
O	2.84108	1.79731	-0.0755252
H	3.39859	3.84879	1.20274
H	5.09518	3.78303	0.582336
H	4.66158	2.95035	2.13309
N	4.957	1.10201	0.190175
C	4.77148	-0.158507	-0.484537
C	5.76773	-1.15089	0.0848661
O	6.65718	-0.782061	0.849426
H	5.8589	1.24878	0.58628
H	3.78006	-0.536759	-0.268574
C	4.97202	-0.00354904	-2.00802
H	5.9926	0.374479	-2.23066
H	4.81821	-0.964522	-2.54037
H	4.23796	0.732959	-2.40178
N	5.6352	-2.44392	-0.270858
C	6.5334	-3.46031	0.225483
H	4.9067	-2.72371	-0.887353
H	6.26029	-4.45902	-0.181008
H	6.49251	-3.5115	1.33768
H	7.58347	-3.2359	-0.0714005
