44
  This energy is -0.9806 and Call times are: 107395
C	1.78046	0.438791	2.95806
C	0.569346	0.620998	2.12671
O	-0.474989	1.03412	2.61158
H	1.54836	0.712722	4.01019
H	2.59959	1.09124	2.58917
H	2.11001	-0.621173	2.92703
N	0.684585	0.30888	0.833773
C	-0.418203	0.392787	-0.0910937
C	-0.195836	-0.632882	-1.18659
O	0.86875	-1.24199	-1.27236
H	1.52959	-0.0649942	0.46222
H	-1.33444	0.125093	0.42026
C	-0.52781	1.81142	-0.691691
H	0.407996	2.08241	-1.22542
H	-1.38176	1.89265	-1.39503
H	-0.682233	2.54623	0.128405
N	-1.20639	-0.854505	-2.05013
C	-1.08807	-1.816	-3.12144
H	-2.06174	-0.354816	-1.9621
H	-2.02396	-1.85346	-3.72138
H	-0.891246	-2.83455	-2.71511
H	-0.246763	-1.54659	-3.80023
C	6.22437	1.58215	-3.01411
C	5.371	0.717672	-2.16818
O	4.25336	0.379912	-2.53316
H	5.67476	1.84315	-3.94452
H	7.15897	1.04825	-3.28656
H	6.47786	2.51757	-2.47207
N	5.88792	0.336539	-0.997744
C	5.16129	-0.469458	-0.0485713
C	5.66856	-0.135606	1.34168
O	6.66069	0.573897	1.49653
H	6.78285	0.653155	-0.696551
H	4.11243	-0.202253	-0.0820291
C	5.34671	-1.9736	-0.345903
H	6.42162	-2.25042	-0.301321
H	4.78081	-2.60452	0.369791
H	4.97622	-2.19347	-1.37095
N	4.98912	-0.63644	2.39218
C	5.39449	-0.367626	3.75217
H	4.1863	-1.20515	2.24685
H	4.7097	-0.866876	4.47262
H	5.38081	0.727437	3.95695
H	6.42837	-0.740152	3.93509
