44
  This energy is -2.4802 and Call times are: 102094
C	1.68975	-1.66641	-2.54568
C	1.29914	-0.429073	-1.83325
O	1.84181	0.639817	-2.07696
H	2.51025	-1.4358	-3.25946
H	0.824591	-2.07164	-3.1114
H	2.04715	-2.42845	-1.82135
N	0.333334	-0.550135	-0.919499
C	-0.123935	0.555698	-0.115386
C	-0.631693	0.00351486	1.20326
O	-0.759479	-1.20773	1.37141
H	-0.0703087	-1.43455	-0.703299
H	0.713237	1.20526	0.107871
C	-1.23993	1.3401	-0.839605
H	-2.10338	0.676659	-1.05948
H	-1.59085	2.20245	-0.236498
H	-0.848451	1.72806	-1.80531
N	-0.926757	0.885607	2.17839
C	-1.41105	0.452398	3.46834
H	-0.812958	1.86159	2.02486
H	-1.59567	1.32533	4.13252
H	-0.667796	-0.213704	3.96348
H	-2.36425	-0.114061	3.36034
C	2.86679	0.657322	1.91143
C	3.96185	1.08827	1.01351
O	3.96141	2.19992	0.502978
H	2.11631	1.47337	1.99331
H	3.26669	0.434025	2.92285
H	2.37028	-0.247782	1.50236
N	4.93521	0.200707	0.796272
C	6.04491	0.459277	-0.0870588
C	6.52043	-0.866891	-0.649847
O	6.08442	-1.92967	-0.211557
H	4.90078	-0.714969	1.18641
H	5.70498	1.06037	-0.921179
C	7.19199	1.17205	0.662193
H	7.54819	0.551082	1.51164
H	8.04687	1.38909	-0.0105568
H	6.81928	2.13606	1.07222
N	7.42614	-0.834191	-1.64716
C	7.93238	-2.04591	-2.24852
H	7.76404	0.0355859	-1.99123
H	8.66664	-1.81011	-3.05008
H	7.10222	-2.63839	-2.69694
H	8.43761	-2.6818	-1.48594
