44
  This energy is 0.1012 and Call times are: 109604
C	1.42699	1.69069	-2.68663
C	1.5259	0.818158	-1.49497
O	2.5568	0.211715	-1.23828
H	2.38751	1.65942	-3.24548
H	1.22447	2.73793	-2.37841
H	0.611905	1.33748	-3.35294
N	0.435349	0.733111	-0.729561
C	0.364973	-0.108828	0.438663
C	-1.08052	-0.525369	0.63509
O	-1.97854	-0.0185408	-0.0345365
H	-0.409424	1.20055	-0.97394
H	0.939564	-1.01004	0.264628
C	0.888627	0.634719	1.68693
H	0.29277	1.55381	1.87204
H	0.852526	-0.00776696	2.59049
H	1.9452	0.936983	1.51771
N	-1.33851	-1.47158	1.55929
C	-2.68303	-1.93499	1.81171
H	-0.598136	-1.87284	2.08835
H	-2.68798	-2.71373	2.60592
H	-3.1273	-2.37299	0.888639
H	-3.33349	-1.09298	2.14192
C	3.34073	1.98526	2.51474
C	3.25445	0.870886	1.54423
O	2.33224	0.068093	1.58254
H	2.48435	1.92438	3.22096
H	3.29996	2.95938	1.98354
H	4.28741	1.91817	3.09126
N	4.23255	0.795499	0.638678
C	4.30831	-0.257565	-0.343092
C	5.76847	-0.472926	-0.693989
O	6.63382	0.302351	-0.291726
H	4.99826	1.43229	0.645827
H	3.94191	-1.17888	0.0922807
C	3.49592	0.105541	-1.6054
H	3.87821	1.04505	-2.05842
H	3.53503	-0.703459	-2.36337
H	2.43239	0.266384	-1.32369
N	6.07824	-1.54392	-1.45097
C	7.44168	-1.83253	-1.83034
H	5.36465	-2.16213	-1.76351
H	7.49042	-2.75402	-2.45139
H	8.07682	-1.98428	-0.927649
H	7.87283	-0.990083	-2.41816
