44
  This energy is -3.6589 and Call times are: 111048
C	0.230589	1.54551	3.10981
C	0.642377	0.510113	2.13537
O	1.63333	-0.181057	2.32698
H	0.955179	1.56552	3.95269
H	-0.779287	1.31489	3.50945
H	0.216565	2.54405	2.6242
N	-0.122169	0.380397	1.04862
C	0.175291	-0.553783	-0.00844026
C	-0.382766	0.00452924	-1.30398
O	-1.1094	0.996349	-1.30104
H	-0.902198	0.978145	0.887011
H	1.24906	-0.630042	-0.126103
C	-0.436399	-1.93975	0.291837
H	-1.53916	-1.86381	0.402195
H	-0.202578	-2.67175	-0.508185
H	-0.0198891	-2.32539	1.24795
N	-0.0463572	-0.619517	-2.45002
C	-0.525345	-0.156503	-3.73157
H	0.546057	-1.41815	-2.43253
H	-0.13876	-0.800511	-4.55196
H	-0.192292	0.889711	-3.92074
H	-1.63873	-0.175819	-3.7654
C	6.51702	-3.35997	-0.708408
C	5.61394	-2.20285	-0.516945
O	4.43163	-2.26491	-0.824667
H	5.94716	-4.19937	-1.16284
H	6.92692	-3.69132	0.268802
H	7.35302	-3.08499	-1.38559
N	6.16197	-1.10195	0.00275584
C	5.42042	0.117285	0.207996
C	6.38839	1.28148	0.111865
O	7.60144	1.08894	0.0558147
H	7.13485	-1.05332	0.210106
H	4.6962	0.233318	-0.588658
C	4.71676	0.110253	1.58279
H	5.4603	0.00182409	2.40099
H	4.1311	1.03792	1.74695
H	4.01942	-0.754298	1.63373
N	5.86985	2.52496	0.0819472
C	6.71328	3.69355	-0.0139513
H	4.88551	2.66044	0.124197
H	6.09993	4.6214	-0.0250877
H	7.3209	3.66388	-0.947337
H	7.41261	3.74566	0.851709
