44
  This energy is 0.211 and Call times are: 108317
C	-3.04859	1.33291	1.02083
C	-2.12208	0.194074	0.831734
O	-2.35493	-0.900242	1.32637
H	-3.90004	1.01159	1.65932
H	-3.44297	1.67235	0.0400236
H	-2.52339	2.17485	1.51924
N	-1.03081	0.431979	0.100368
C	-0.0161074	-0.564731	-0.135252
C	1.30834	0.14713	-0.33689
O	1.35511	1.37069	-0.448411
H	-0.8346	1.33889	-0.261407
H	0.0834168	-1.18812	0.744584
C	-0.362869	-1.4236	-1.37111
H	-0.454703	-0.78584	-2.27602
H	0.403971	-2.2038	-1.55485
H	-1.33933	-1.92876	-1.2047
N	2.42377	-0.60784	-0.380072
C	3.72933	-0.0177188	-0.562946
H	2.36615	-1.59602	-0.283835
H	4.51789	-0.802152	-0.570615
H	3.95542	0.698465	0.259999
H	3.7779	0.537998	-1.52729
C	3.76201	-0.0698022	-3.45794
C	3.95245	0.656617	-2.18232
O	4.23677	1.84631	-2.16771
H	3.9355	0.626824	-4.30674
H	2.72618	-0.46429	-3.52273
H	4.483	-0.911217	-3.53048
N	3.79931	-0.0569953	-1.06443
C	3.99458	0.500444	0.250749
C	4.44183	-0.615647	1.17589
O	4.42262	-1.78748	0.804218
H	3.60812	-1.03397	-1.09305
H	4.79449	1.22946	0.214576
C	2.69411	1.14888	0.773774
H	1.87595	0.398929	0.821054
H	2.83531	1.59396	1.78
H	2.38119	1.95717	0.0772962
N	4.86577	-0.273905	2.40857
C	5.3154	-1.26735	3.3557
H	4.87791	0.679989	2.68966
H	5.62334	-0.788652	4.31134
H	6.18623	-1.83136	2.9497
H	4.50302	-1.99752	3.5749
