44
  This energy is -4.6234 and Call times are: 105689
C	1.16538	2.40253	2.23213
C	0.920725	0.995691	1.84216
O	1.40723	0.069386	2.47594
H	1.83302	2.42657	3.1207
H	0.206959	2.90063	2.48917
H	1.65505	2.95075	1.39979
N	0.149185	0.802699	0.769842
C	-0.143323	-0.507401	0.243879
C	-0.387739	-0.374589	-1.24749
O	-0.481869	0.732439	-1.77412
H	-0.206036	1.56761	0.24013
H	0.72182	-1.14567	0.373383
C	-1.37729	-1.11944	0.94242
H	-2.26758	-0.470283	0.800927
H	-1.60445	-2.13408	0.555845
H	-1.17905	-1.19986	2.03356
N	-0.488319	-1.5089	-1.96808
C	-0.715126	-1.48082	-3.39424
H	-0.405322	-2.39527	-1.52476
H	-0.767328	-2.51336	-3.80455
H	0.109024	-0.93903	-3.91243
H	-1.67181	-0.96087	-3.62993
C	5.90312	2.08389	-2.68383
C	6.10291	1.63244	-1.28833
O	7.05388	2.02446	-0.626218
H	6.7308	2.76848	-2.97044
H	4.93919	2.6271	-2.77603
H	5.90324	1.2122	-3.37175
N	5.19545	0.781206	-0.804294
C	5.27929	0.220964	0.521471
C	4.60195	-1.13643	0.50505
O	3.96089	-1.50855	-0.475905
H	4.44964	0.439395	-1.36891
H	6.31939	0.0593965	0.77588
C	4.60655	1.14932	1.55627
H	3.53681	1.30692	1.30158
H	4.67666	0.735552	2.58311
H	5.11308	2.1391	1.54534
N	4.73671	-1.91571	1.59619
C	4.13197	-3.22534	1.66909
H	5.26272	-1.59891	2.37851
H	4.35725	-3.70875	2.64521
H	4.51749	-3.88183	0.855652
H	3.02556	-3.15401	1.55999
