44
  This energy is -4.7428 and Call times are: 112206
C	2.32076	-1.04374	2.37432
C	1.11208	-0.286465	1.97835
O	0.36874	0.203161	2.81747
H	2.38408	-1.08059	3.4836
H	3.23094	-0.545915	1.97875
H	2.26751	-2.08149	1.98275
N	0.88502	-0.174265	0.667541
C	-0.272692	0.49616	0.130147
C	-0.603019	-0.131943	-1.21072
O	0.164781	-0.936004	-1.73578
H	1.47699	-0.613192	-0.0023685
H	-1.11938	0.325929	0.78343
C	-0.00865008	2.00928	-0.0310542
H	0.853279	2.18473	-0.709533
H	-0.897439	2.53895	-0.431086
H	0.238795	2.44638	0.960948
N	-1.76614	0.216948	-1.79506
C	-2.16715	-0.333561	-3.06876
H	-2.37621	0.866026	-1.35282
H	-3.15295	0.075967	-3.38135
H	-2.25176	-1.44281	-3.0081
H	-1.41905	-0.0869651	-3.8566
C	6.01391	-3.15603	-1.35435
C	6.28868	-2.09824	-0.355979
O	6.97006	-2.32426	0.634495
H	6.49617	-4.10308	-1.0282
H	6.42586	-2.86502	-2.34346
H	4.91969	-3.32238	-1.44431
N	5.75267	-0.899765	-0.598371
C	5.89605	0.216488	0.302727
C	4.68143	1.11151	0.144016
O	3.87191	0.919878	-0.761337
H	5.16644	-0.74218	-1.3879
H	5.89842	-0.146127	1.32308
C	7.19113	1.00334	0.00460878
H	7.18451	1.38455	-1.03879
H	7.31999	1.85729	0.700804
H	8.06613	0.326874	0.119057
N	4.52145	2.11184	1.0327
C	3.39303	3.01079	0.963895
H	5.18496	2.24851	1.76081
H	3.43988	3.76401	1.78102
H	2.43622	2.4482	1.06029
H	3.37941	3.55066	-0.0105293
