44
  This energy is -1.8469 and Call times are: 106987
C	2.46001	-2.36123	-0.69685
C	1.83904	-1.34769	0.185339
O	2.19155	-1.22083	1.34983
H	3.22119	-2.93191	-0.121685
H	2.95667	-1.86647	-1.55783
H	1.68869	-3.06706	-1.07097
N	0.882358	-0.592683	-0.359737
C	0.156582	0.406027	0.384835
C	-1.22188	0.547472	-0.232725
O	-1.49529	-0.00559092	-1.29625
H	0.577912	-0.735427	-1.29718
H	0.0202793	0.063545	1.40305
C	0.900853	1.75912	0.363626
H	1.03163	2.11605	-0.680182
H	0.358949	2.53285	0.945181
H	1.90974	1.63011	0.812919
N	-2.13047	1.29042	0.429478
C	-3.46954	1.47689	-0.0787632
H	-1.8918	1.72675	1.29071
H	-4.06506	2.11805	0.607888
H	-3.98998	0.497334	-0.18318
H	-3.44548	1.96355	-1.08062
C	8.31005	-1.39391	2.69175
C	8.25511	-0.90006	1.29738
O	9.27569	-0.736511	0.643104
H	9.3712	-1.54733	2.9855
H	7.77022	-2.36038	2.77698
H	7.85062	-0.652281	3.37875
N	7.0404	-0.645435	0.805419
C	6.82929	-0.119445	-0.520222
C	5.54338	0.685471	-0.510465
O	4.7953	0.665534	0.465082
H	6.22175	-0.744523	1.36386
H	7.63429	0.561626	-0.766679
C	6.74687	-1.25909	-1.55929
H	5.9145	-1.95224	-1.31279
H	6.59829	-0.866193	-2.58597
H	7.69514	-1.8395	-1.5434
N	5.25979	1.42415	-1.60131
C	4.06137	2.22647	-1.68026
H	5.87943	1.43066	-2.37918
H	4.00849	2.75953	-2.65508
H	4.0421	2.98506	-0.864511
H	3.15377	1.58827	-1.57971
