44
  This energy is -3.9581 and Call times are: 111725
C	-3.03313	1.35512	-1.03753
C	-2.22379	0.251512	-0.473471
O	-2.75414	-0.727304	0.0335368
H	-4.11227	1.12912	-0.895169
H	-2.82881	1.46323	-2.12349
H	-2.79424	2.30811	-0.520003
N	-0.898002	0.389245	-0.548926
C	0.020014	-0.580554	-0.00551474
C	1.2962	0.141982	0.382882
O	1.47579	1.3167	0.0674276
H	-0.481073	1.21057	-0.927688
H	-0.399989	-1.00229	0.899122
C	0.319329	-1.69347	-1.03365
H	0.760001	-1.26248	-1.95783
H	1.0143	-2.45389	-0.622199
H	-0.629585	-2.20327	-1.30935
N	2.2144	-0.546578	1.08915
C	3.45662	0.0599255	1.50775
H	2.0493	-1.49506	1.33854
H	4.07707	-0.667052	2.07675
H	3.26281	0.941702	2.16058
H	4.04215	0.405749	0.625309
C	9.2032	-0.293956	2.83082
C	8.58822	0.504566	1.7467
O	8.62026	1.72729	1.76485
H	9.63598	0.391418	3.59162
H	10.0128	-0.934573	2.42225
H	8.4365	-0.932983	3.31754
N	8.00257	-0.182073	0.762863
C	7.32468	0.455532	-0.33826
C	6.23509	-0.479528	-0.828194
O	6.15942	-1.63285	-0.408872
H	7.94887	-1.17634	0.78288
H	6.84088	1.35787	0.0143698
C	8.31237	0.781357	-1.47999
H	8.80117	-0.145342	-1.84924
H	7.80496	1.28515	-2.32807
H	9.10521	1.46026	-1.09681
N	5.35513	0.00269569	-1.72771
C	4.28142	-0.812205	-2.24663
H	5.43017	0.939845	-2.05205
H	3.66658	-0.236519	-2.97312
H	3.61703	-1.15815	-1.4219
H	4.68579	-1.71183	-2.7646
