44
  This energy is -0.2561 and Call times are: 106875
C	-1.49116	-0.982869	-2.98716
C	-1.56061	-0.426662	-1.61714
O	-2.58209	0.100872	-1.19917
H	-2.46227	-0.8147	-3.5015
H	-1.28974	-2.07401	-2.94745
H	-0.686974	-0.4795	-3.56422
N	-0.454631	-0.532563	-0.876884
C	-0.355506	-0.000623051	0.459444
C	1.09639	0.352917	0.721296
O	1.97756	0.0228103	-0.0700824
H	0.381956	-0.927943	-1.24521
H	-0.927259	0.91688	0.522031
C	-0.859512	-1.02484	1.49973
H	-0.2664	-1.96242	1.44309
H	-0.80123	-0.621831	2.53158
H	-1.92125	-1.27488	1.284
N	1.37899	1.04508	1.84249
C	2.73134	1.43063	2.17214
H	0.651932	1.30675	2.46858
H	2.75726	1.99248	3.13176
H	3.16031	2.07944	1.37445
H	3.38243	0.532368	2.27384
C	6.08225	3.11441	0.331101
C	7.21038	2.25238	-0.087682
O	8.11791	2.69009	-0.781367
H	6.21939	4.1318	-0.0954908
H	6.0492	3.19042	1.4383
H	5.12276	2.69578	-0.0392835
N	7.17579	0.984942	0.330405
C	8.17987	0.0156581	-0.0313435
C	7.5339	-1.35704	-0.0312905
O	6.39479	-1.517	0.402923
H	6.40964	0.632737	0.860339
H	8.51912	0.212466	-1.0407
C	9.36652	0.0557103	0.95633
H	9.02065	-0.156541	1.99043
H	10.1528	-0.676578	0.680515
H	9.81879	1.07142	0.945624
N	8.24904	-2.38464	-0.529907
C	7.71444	-3.72563	-0.575923
H	9.16758	-2.23473	-0.880451
H	8.45325	-4.4285	-1.02019
H	6.78631	-3.75756	-1.19142
H	7.46184	-4.08343	0.448436
