44
  This energy is -1.7495 and Call times are: 106931
C	-3.33921	0.971613	-0.135383
C	-2.21358	0.262506	0.513661
O	-2.31649	-0.184095	1.64784
H	-4.19813	1.01939	0.568786
H	-3.65536	0.430028	-1.05161
H	-3.03637	2.00578	-0.403488
N	-1.09403	0.144047	-0.203944
C	0.0992454	-0.482251	0.308315
C	1.29587	0.142938	-0.383618
O	1.14502	0.90648	-1.33544
H	-1.01184	0.548641	-1.11026
H	0.189586	-0.26749	1.36583
C	0.0694053	-2.00726	0.0660098
H	-0.0126457	-2.2282	-1.01957
H	0.976588	-2.50288	0.468375
H	-0.818521	-2.44236	0.57456
N	2.5208	-0.162498	0.0878585
C	3.71755	0.389065	-0.503534
H	2.62246	-0.779059	0.861544
H	4.62379	0.0187397	0.0244981
H	3.70784	1.5016	-0.444865
H	3.79447	0.100619	-1.57686
C	6.26839	-1.93717	-2.19538
C	7.22238	-1.79498	-1.0725
O	7.53527	-2.75524	-0.382271
H	5.92282	-2.99225	-2.25235
H	6.76172	-1.66837	-3.15304
H	5.38845	-1.27895	-2.03559
N	7.71167	-0.570973	-0.860868
C	8.61624	-0.26773	0.220038
C	8.41603	1.18437	0.611069
O	7.71388	1.929	-0.0702611
H	7.41609	0.208712	-1.40546
H	8.35926	-0.872033	1.08109
C	10.0812	-0.51841	-0.199769
H	10.3486	0.109108	-1.07658
H	10.7866	-0.301743	0.628528
H	10.2026	-1.58509	-0.489242
N	9.02646	1.62031	1.73059
C	8.88915	2.98476	2.18402
H	9.58726	1.00178	2.27096
H	9.46533	3.14753	3.12144
H	7.82003	3.22674	2.38329
H	9.26592	3.69503	1.41284
