44
  This energy is -2.1555 and Call times are: 106959
C	0.0961407	-1.94211	2.88646
C	-0.545288	-0.929745	2.01765
O	-1.68759	-0.546535	2.22906
H	-0.620993	-2.25615	3.67575
H	0.998871	-1.51405	3.37081
H	0.38468	-2.83212	2.28837
N	0.188417	-0.468808	1.00198
C	-0.313919	0.48661	0.0462594
C	0.406591	0.262599	-1.26989
O	1.36727	-0.501542	-1.33985
H	1.10195	-0.820487	0.81855
H	-1.36648	0.299622	-0.126314
C	-0.095178	1.93213	0.544121
H	0.985479	2.1278	0.711244
H	-0.49029	2.67692	-0.176783
H	-0.624499	2.07096	1.51205
N	-0.0496176	0.922482	-2.35269
C	0.569267	0.767674	-3.64852
H	-0.830782	1.53333	-2.2771
H	0.0503948	1.39165	-4.40921
H	0.527252	-0.295357	-3.97939
H	1.63921	1.07598	-3.61246
C	3.65079	0.138883	2.31031
C	4.94175	-0.405161	1.83222
O	5.63705	-1.10942	2.55124
H	3.48245	-0.18423	3.36061
H	2.81892	-0.239951	1.68005
H	3.66616	1.24861	2.27382
N	5.29677	-0.08256	0.586314
C	6.54405	-0.500996	-0.00338795
C	6.95174	0.535825	-1.03313
O	6.18069	1.43608	-1.35979
H	4.73973	0.525201	0.0275655
H	7.31226	-0.517235	0.75964
C	6.40439	-1.89144	-0.660952
H	5.62373	-1.87264	-1.45106
H	7.36185	-2.23088	-1.10658
H	6.09777	-2.6325	0.109213
N	8.18588	0.436966	-1.56524
C	8.66306	1.38148	-2.54828
H	8.79694	-0.296038	-1.28528
H	9.70023	1.13141	-2.86291
H	8.66257	2.41512	-2.13249
H	8.01067	1.37232	-3.45129
