44
  This energy is -1.1838 and Call times are: 110466
C	1.53916	-2.1407	-2.2718
C	0.439161	-1.23254	-1.87634
O	-0.390536	-0.851295	-2.69038
H	1.46227	-2.35901	-3.35914
H	1.46935	-3.09459	-1.70792
H	2.52108	-1.6631	-2.06973
N	0.410012	-0.858488	-0.595087
C	-0.57394	0.0554842	-0.0706302
C	0.0427784	0.791568	1.10385
O	1.13272	0.450132	1.55901
H	1.11602	-1.14449	0.0464885
H	-0.812898	0.794639	-0.82507
C	-1.84727	-0.698619	0.371186
H	-1.60436	-1.44975	1.15274
H	-2.61795	-0.00421105	0.764079
H	-2.27701	-1.23625	-0.502099
N	-0.641809	1.83169	1.61912
C	-0.130999	2.59501	2.73384
H	-1.52025	2.09548	1.23464
H	-0.838038	3.40778	3.01083
H	0.850141	3.05633	2.47728
H	0.0172059	1.94071	3.62325
C	6.75864	2.21195	-2.51019
C	7.04677	1.11162	-1.56287
O	8.08317	0.466211	-1.63864
H	7.59435	2.29809	-3.23822
H	6.65893	3.17244	-1.96223
H	5.81925	2.00357	-3.06445
N	6.11794	0.868764	-0.635135
C	6.23673	-0.19695	0.328554
C	4.83924	-0.646625	0.711135
O	3.85135	-0.0130138	0.344636
H	5.26109	1.37582	-0.611712
H	6.73255	-1.04198	-0.132644
C	7.01529	0.272465	1.57705
H	6.50139	1.13268	2.05661
H	7.1255	-0.543273	2.32065
H	8.03185	0.6043	1.27235
N	4.72379	-1.764	1.45555
C	3.43414	-2.27102	1.86286
H	5.53456	-2.26538	1.739
H	3.54894	-3.19738	2.46777
H	2.80679	-2.50879	0.97338
H	2.89105	-1.51633	2.47657
