44
  This energy is 0.1162 and Call times are: 111452
C	-0.994992	-3.29138	-0.538018
C	-1.21689	-1.83089	-0.632207
O	-2.127	-1.37121	-1.30807
H	-1.74608	-3.81824	-1.16584
H	-1.10616	-3.62831	0.51406
H	0.0219182	-3.54826	-0.902711
N	-0.373051	-1.05694	0.054314
C	-0.435853	0.383145	0.0265706
C	0.961507	0.92225	0.268038
O	1.87593	0.172996	0.605912
H	0.387908	-1.44413	0.567048
H	-0.741053	0.708457	-0.96017
C	-1.41349	0.913467	1.09812
H	-1.09494	0.588828	2.11162
H	-1.48116	2.0205	1.07761
H	-2.42768	0.499923	0.906439
N	1.16142	2.24309	0.0906972
C	2.45888	2.84495	0.292012
H	0.410056	2.83257	-0.18686
H	2.41934	3.93927	0.0967441
H	3.21194	2.39355	-0.393857
H	2.80701	2.68768	1.33854
C	5.20518	3.40466	-0.515568
C	4.32153	2.22893	-0.348321
O	3.11657	2.36099	-0.183902
H	4.59797	4.33329	-0.446239
H	5.70086	3.37268	-1.50855
H	5.97722	3.41971	0.282429
N	4.91253	1.03237	-0.385078
C	4.19094	-0.201153	-0.194588
C	5.14527	-1.2207	0.39815
O	6.3487	-0.982957	0.481403
H	5.89996	0.94257	-0.4787
H	3.39849	-0.043751	0.526436
C	3.61258	-0.714106	-1.53161
H	4.42617	-0.885782	-2.26825
H	3.0429	-1.65621	-1.39588
H	2.92345	0.0511012	-1.95101
N	4.62482	-2.38472	0.834264
C	5.45512	-3.41236	1.41799
H	3.64801	-2.55714	0.762171
H	4.84224	-4.29207	1.71415
H	5.97719	-3.02793	2.32406
H	6.22875	-3.75217	0.691924
