18
  This energy is -1.101 and Call times are: 176
C	0.522506	0.469573	0.890443
C	0.753066	0.877688	-0.390439
C	-0.0774784	0.0605589	-1.21664
C	-0.742255	-0.774758	-0.367707
O	-0.388004	-0.538854	0.922978
H	0.937432	0.811839	1.8527
H	1.43917	1.67424	-0.720372
H	-0.163356	0.0975951	-2.31453
H	-1.48295	-1.56945	-0.555028
C	5.02854	0.715445	0.934032
C	4.09253	-0.261493	0.668287
N	4.36631	-0.896385	-0.497247
C	5.46798	-0.315525	-0.952834
N	5.9065	0.662632	-0.125491
H	5.12866	1.42098	1.77411
H	3.22457	-0.519613	1.29667
H	5.99542	-0.567597	-1.88691
H	6.75386	1.26586	-0.264635
