18
  This energy is -2.5797 and Call times are: 1939
C	0.0281792	-0.738395	-0.860453
C	0.414872	0.56203	-1.00095
C	0.238337	1.16328	0.282584
C	-0.240649	0.177201	1.09412
O	-0.375151	-0.990882	0.412569
H	-0.0064945	-1.57266	-1.58021
H	0.787089	1.04903	-1.91658
H	0.446466	2.20915	0.559983
H	-0.520954	0.179519	2.16026
C	4.23934	0.441735	-1.06427
C	4.94206	0.663922	0.10104
N	4.38638	-0.00329068	1.1415
C	3.3429	-0.636989	0.623627
N	3.21161	-0.400635	-0.703208
H	4.39276	0.811129	-2.0907
H	5.84007	1.29371	0.209697
H	2.64168	-1.28718	1.17114
H	2.4685	-0.785712	-1.33627
