18
  This energy is -3.2566 and Call times are: 65194
C	0.209813	-0.470864	1.01028
C	0.22629	-1.19023	-0.148433
C	-0.0804273	-0.261686	-1.18951
C	-0.257258	0.94313	-0.575086
O	-0.0837719	0.833864	0.768408
H	0.388029	-0.766796	2.05714
H	0.433632	-2.26675	-0.258945
H	-0.158178	-0.47513	-2.2677
H	-0.50581	1.93918	-0.976786
C	3.92815	-0.633455	-0.976881
C	5.05998	-0.617241	-0.189572
N	4.91332	0.227905	0.859585
C	3.69515	0.734073	0.723661
N	3.06064	0.246018	-0.368489
H	3.68671	-1.19003	-1.89637
H	5.97977	-1.20022	-0.359761
H	3.21812	1.46583	1.39538
H	2.09234	0.490915	-0.690461
