18
  This energy is -2.4204 and Call times are: 389
C	0.347591	0.0317011	-1.07916
C	0.292128	-1.12804	-0.363411
C	-0.186868	-0.765268	0.93238
C	-0.381828	0.584138	0.894086
O	-0.060453	1.08737	-0.32677
H	0.65545	0.235797	-2.11782
H	0.561499	-2.1377	-0.712874
H	-0.362719	-1.43773	1.78735
H	-0.740444	1.293	1.65839
C	3.87177	-0.528709	0.909139
C	5.04985	0.187113	0.938704
N	5.36629	0.658337	-0.291873
C	4.38825	0.236454	-1.08185
N	3.46262	-0.483667	-0.404923
H	3.31421	-1.0496	1.70371
H	5.67716	0.372002	1.82592
H	4.30066	0.426406	-2.16374
H	2.59802	-0.923822	-0.804893
