18
  This energy is -3.0556 and Call times are: 59131
C	-0.0362883	0.776163	-0.826229
C	0.211425	-0.542227	-1.07293
C	0.176273	-1.19132	0.198901
C	-0.0898184	-0.212289	1.11053
O	-0.222663	0.995612	0.501972
H	-0.105307	1.6457	-1.50031
H	0.399988	-1.01065	-2.05228
H	0.332163	-2.26308	0.401713
H	-0.207748	-0.245907	2.20607
C	5.65205	-0.381251	-1.10356
C	6.82561	-0.377358	-0.379758
N	6.63295	0.133258	0.860672
C	5.34478	0.444951	0.906223
N	4.70982	0.153822	-0.253804
H	5.4282	-0.715763	-2.129
H	7.80788	-0.733837	-0.730354
H	4.81477	0.888882	1.76427
H	3.69341	0.306598	-0.465539
