18
  This energy is -2.9445 and Call times are: 9241
C	-0.274756	-1.05509	-0.312563
C	-0.293027	-0.651031	0.990041
C	0.107464	0.719961	0.979794
C	0.335114	1.03267	-0.328167
O	0.106572	-0.0395876	-1.13132
H	-0.508639	-2.02551	-0.780362
H	-0.561585	-1.25758	1.86986
H	0.21116	1.38774	1.85009
H	0.658475	1.96985	-0.810225
C	3.63235	-0.70212	-0.668107
C	4.97681	-0.441334	-0.828033
N	5.42498	0.41446	0.122374
C	4.36259	0.683562	0.869066
N	3.25704	0.0344643	0.433153
H	2.93923	-1.33851	-1.24093
H	5.63147	-0.855349	-1.61216
H	4.3385	1.34915	1.74693
H	2.29691	0.0830537	0.853921
