18
  This energy is -0.8722 and Call times are: 69516
C	0.0438973	-0.30479	1.09159
C	1.13573	-0.35231	0.275489
C	0.688433	0.101552	-1.00281
C	-0.637243	0.386354	-0.855016
O	-1.04765	0.144015	0.417717
H	-0.0847269	-0.560085	2.15627
H	2.15394	-0.674634	0.546478
H	1.2909	0.201088	-1.92
H	-1.38823	0.762564	-1.56897
C	6.41959	-0.363714	0.857319
C	6.45366	0.852581	0.208775
N	5.47609	0.935385	-0.726114
C	4.83799	-0.225128	-0.657809
N	5.36904	-1.0429	0.281786
H	7.04764	-0.780127	1.66087
H	7.16609	1.67186	0.39868
H	3.97528	-0.528187	-1.27272
H	5.04267	-2.01005	0.525432
