18
  This energy is -1.2679 and Call times are: 123416
C	-0.591492	0.868752	-0.426388
C	-0.253719	0.792632	0.892888
C	0.475708	-0.42655	1.04002
C	0.519286	-0.987828	-0.202331
O	-0.127492	-0.210249	-1.11011
H	-1.15248	1.62868	-0.994775
H	-0.494105	1.52187	1.68316
H	0.913319	-0.830537	1.96705
H	0.973226	-1.92428	-0.565996
C	5.95154	-0.0660339	-0.233833
C	5.03483	-1.09427	-0.293117
N	3.7943	-0.662746	0.0406229
C	3.94086	0.62828	0.305942
N	5.22323	1.03609	0.15485
H	7.03452	-0.0414223	-0.434052
H	5.24631	-2.13976	-0.570723
H	3.14224	1.32168	0.615172
H	5.59234	2.00687	0.305154
