18
  This energy is -1.5314 and Call times are: 11784
C	-0.340316	-0.988031	0.440887
C	0.465822	-0.123533	1.12144
C	0.67014	0.989203	0.249556
C	-0.0291791	0.706453	-0.886833
O	-0.652405	-0.497171	-0.787392
H	-0.756341	-1.97088	0.716912
H	0.875491	-0.25612	2.13569
H	1.26972	1.8909	0.453383
H	-0.160916	1.27187	-1.82396
C	3.82237	-0.591901	0.837309
C	4.36788	0.670033	0.942606
N	4.96158	1.04401	-0.216777
C	4.78506	0.0179829	-1.0382
N	4.10365	-0.993319	-0.44952
H	3.27225	-1.212	1.56284
H	4.34371	1.31736	1.83436
H	5.13433	-0.045324	-2.08138
H	3.83987	-1.90878	-0.889539
