18
  This energy is -0.7152 and Call times are: 73849
C	1.01258	-0.280437	0.427139
C	0.384102	0.887769	0.744459
C	-0.846919	0.878756	0.0201507
C	-0.862035	-0.294162	-0.675844
O	0.265804	-1.01455	-0.439131
H	1.98058	-0.700076	0.746693
H	0.750621	1.6767	1.42074
H	-1.62463	1.6593	0.0231907
H	-1.60687	-0.726343	-1.36409
C	5.34767	0.933225	0.715154
C	4.87774	-0.336537	0.975946
N	5.1047	-1.16621	-0.0712644
C	5.71311	-0.41401	-0.978269
N	5.88268	0.859867	-0.551565
H	5.33951	1.85315	1.32113
H	4.379	-0.668873	1.90096
H	6.05594	-0.745541	-1.97164
H	6.33544	1.64253	-1.0842
