18
  This energy is -0.7854 and Call times are: 44425
C	-0.12806	-1.0654	-0.367328
C	-1.13787	-0.149792	-0.41558
C	-0.598741	1.05591	0.128233
C	0.692928	0.770662	0.460794
O	0.997369	-0.520403	0.165029
H	-0.0844339	-2.12267	-0.67638
H	-2.15987	-0.307616	-0.795961
H	-1.11963	2.01878	0.253322
H	1.4867	1.39101	0.908404
C	6.83083	-0.257908	-0.199511
C	6.25924	0.996699	-0.179791
N	4.93144	0.92466	0.0815214
C	4.68026	-0.369716	0.223372
N	5.7932	-1.12423	0.0631477
H	7.86796	-0.584647	-0.375983
H	6.78113	1.95258	-0.349432
H	3.69909	-0.81958	0.44509
H	5.85405	-2.16994	0.126868
