18
  This energy is -1.6284 and Call times are: 69548
C	-1.05118	-0.423391	0.0465186
C	-0.232154	-0.380407	1.13635
C	0.987157	0.211696	0.685999
C	0.805598	0.478268	-0.639274
O	-0.433613	0.0968947	-1.04661
H	-2.08149	-0.794641	-0.0795427
H	-0.463431	-0.730532	2.15518
H	1.88922	0.411926	1.28624
H	1.47184	0.930871	-1.39195
C	5.02726	-1.11033	0.389243
C	5.88807	-0.090554	0.735945
N	5.56444	1.06028	0.0976951
C	4.50688	0.7556	-0.642145
N	4.1442	-0.541381	-0.50109
H	4.98209	-2.16546	0.702633
H	6.73685	-0.164561	1.43518
H	3.95918	1.44423	-1.30551
H	3.34298	-1.02198	-0.978917
