18
  This energy is -1.6047 and Call times are: 123641
C	0.457579	-1.03315	-0.0981102
C	0.116747	-0.279265	-1.18248
C	-0.419543	0.937117	-0.660063
C	-0.359088	0.819169	0.697437
O	0.173902	-0.377817	1.05821
H	0.903681	-2.038	-0.0173199
H	0.231476	-0.55234	-2.24379
H	-0.803293	1.79466	-1.23578
H	-0.659181	1.5068	1.50513
C	3.85499	-0.878922	0.443341
C	5.03276	-0.992293	-0.264574
N	5.50611	0.225656	-0.623809
C	4.62534	1.09132	-0.140591
N	3.61121	0.474649	0.511208
H	3.19509	-1.64028	0.888765
H	5.54945	-1.93109	-0.522557
H	4.67463	2.18805	-0.235355
H	2.79478	0.939144	0.979115
