18
  This energy is -1.209 and Call times are: 46512
C	-0.468007	1.02053	0.160923
C	0.734602	0.674681	0.7036
C	0.982494	-0.667231	0.281774
C	-0.0905143	-1.02295	-0.481437
O	-0.986161	-0.00427869	-0.56592
H	-1.05446	1.9523	0.216814
H	1.38217	1.30164	1.33737
H	1.86048	-1.28757	0.523463
H	-0.332049	-1.95832	-1.01248
C	5.43886	0.948399	0.541329
C	4.40729	0.920839	-0.373146
N	4.162	-0.343407	-0.795076
C	5.03805	-1.09728	-0.144828
N	5.83059	-0.365111	0.673344
H	5.90632	1.78197	1.08922
H	3.83563	1.79053	-0.736046
H	5.14246	-2.19089	-0.23052
H	6.59737	-0.728752	1.29065
