18
  This energy is -1.0962 and Call times are: 94584
C	-0.173798	-1.11147	-0.144314
C	-0.165522	-0.527445	1.08825
C	0.0808285	0.86106	0.861354
C	0.201346	1.00296	-0.489835
O	0.0486409	-0.191601	-1.1197
H	-0.324764	-2.15789	-0.456513
H	-0.317635	-1.02455	2.05977
H	0.157697	1.65456	1.62197
H	0.393152	1.88851	-1.11774
C	4.72687	0.886931	-0.753972
C	4.04125	-0.308579	-0.711208
N	4.50233	-1.10085	0.286906
C	5.47031	-0.399506	0.861161
N	5.64423	0.806161	0.269802
H	4.63012	1.76032	-1.41833
H	3.22216	-0.613659	-1.38266
H	6.08377	-0.72134	1.71808
H	6.34449	1.53966	0.539755
