18
  This energy is -1.0329 and Call times are: 137264
C	-0.911625	0.0483218	-0.673057
C	0.353909	-0.0794415	-1.16547
C	1.21589	-0.103771	-0.0268298
C	0.401014	0.011272	1.06088
O	-0.901569	0.105222	0.684763
H	-1.88979	0.109421	-1.17775
H	0.650653	-0.149522	-2.22431
H	2.31385	-0.196465	-0.0273028
H	0.622217	0.0385187	2.1405
C	5.22274	0.121358	-1.16807
C	5.74391	-0.9542	-0.480545
N	5.67387	-0.758515	0.858601
C	5.11139	0.433906	1.0013
N	4.82063	1.00503	-0.19154
H	5.1132	0.314033	-2.24715
H	6.16922	-1.8679	-0.926774
H	4.88954	0.936321	1.9566
H	4.37398	1.9424	-0.343526
