18
  This energy is -1.1948 and Call times are: 36813
C	-0.352352	0.234994	1.05215
C	-0.794783	-0.853685	0.359762
C	-0.133695	-0.807491	-0.905523
C	0.654359	0.305339	-0.874633
O	0.533244	0.954046	0.313441
H	-0.588414	0.603367	2.064
H	-1.51448	-1.61309	0.705357
H	-0.238913	-1.52396	-1.736
H	1.33813	0.737987	-1.62331
C	4.80329	0.668938	-0.946725
C	3.93986	0.945633	0.0920598
N	3.9548	-0.0448251	1.01687
C	4.82419	-0.932597	0.55358
N	5.36304	-0.548057	-0.627677
H	5.05076	1.23312	-1.85996
H	3.30639	1.84219	0.1908
H	5.1036	-1.8814	1.03931
H	6.07212	-1.07634	-1.19282
