18
  This energy is -0.9255 and Call times are: 16796
C	-1.10183	-0.157017	-0.218463
C	-0.1378	-0.323261	-1.16893
C	1.10311	-0.039545	-0.521035
C	0.78784	0.275027	0.768159
O	-0.554395	0.208366	0.970582
H	-2.19786	-0.266926	-0.261753
H	-0.285693	-0.616284	-2.22077
H	2.10863	-0.0688563	-0.970657
H	1.4184	0.559881	1.62635
C	5.47394	0.675735	-0.864263
C	6.65648	0.856895	-0.178747
N	6.83425	-0.110835	0.753138
C	5.76606	-0.889386	0.646144
N	4.916	-0.45714	-0.315188
H	5.00559	1.25354	-1.67687
H	7.38459	1.66853	-0.339862
H	5.5562	-1.7889	1.24703
H	4.0054	-0.900524	-0.589919
