18
  This energy is -0.9496 and Call times are: 19233
C	1.03034	0.0607524	0.470216
C	0.310044	-1.097	0.436292
C	-0.914137	-0.776592	-0.226156
C	-0.833849	0.548673	-0.538567
O	0.346943	1.07604	-0.120686
H	2.02765	0.289568	0.880417
H	0.610623	-2.07821	0.837512
H	-1.75142	-1.45998	-0.440677
H	-1.53987	1.22331	-1.0501
C	5.97706	0.552722	-0.634321
C	6.54352	-0.67514	-0.903816
N	7.45961	-1.00787	0.0377602
C	7.46147	0.00970332	0.88815
N	6.58453	0.976091	0.52668
H	5.21023	1.13574	-1.16874
H	6.30761	-1.32691	-1.76078
H	8.08533	0.0984546	1.79212
H	6.40213	1.87635	1.03415
