18
  This energy is -0.9222 and Call times are: 56542
C	0.674677	0.752569	-0.514638
C	0.939798	-0.585371	-0.513818
C	-0.121158	-1.19375	0.223995
C	-0.940956	-0.173873	0.608909
O	-0.470161	1.02178	0.16645
H	1.21541	1.60476	-0.958059
H	1.79654	-1.09296	-0.98546
H	-0.25057	-2.26682	0.438145
H	-1.87644	-0.168174	1.19208
C	5.09226	-1.10374	0.0247092
C	4.43402	0.0312649	0.44855
N	5.20099	1.13482	0.274046
C	6.33073	0.686137	-0.256036
N	6.31438	-0.65715	-0.42604
H	4.78765	-2.16232	0.0123641
H	3.41945	0.0736562	0.877134
H	7.20241	1.298	-0.538921
H	7.08572	-1.24621	-0.825172
