18
  This energy is -1.7789 and Call times are: 41696
C	-0.278934	0.796265	-0.757996
C	0.645274	-0.171525	-1.02181
C	0.719995	-0.972868	0.158186
C	-0.165148	-0.424027	1.03891
O	-0.784101	0.657247	0.495994
H	-0.660085	1.62967	-1.3707
H	1.21704	-0.307473	-1.95385
H	1.36121	-1.85366	0.32294
H	-0.442331	-0.705608	2.06805
C	4.59354	-0.494405	-0.992866
C	3.91252	0.698792	-0.876086
N	3.61119	0.964779	0.418116
C	4.10339	-0.0595121	1.10162
N	4.70541	-0.966196	0.295965
H	4.99315	-1.02353	-1.87257
H	3.6332	1.37252	-1.70248
H	4.05081	-0.195754	2.19383
H	5.16906	-1.85855	0.595957
