18
  This energy is -0.8708 and Call times are: 117743
C	1.03605	0.300032	-0.350702
C	-0.0218882	1.16051	-0.377654
C	-1.1354	0.427304	0.134815
C	-0.659614	-0.816502	0.429691
O	0.664651	-0.911914	0.139468
H	2.08974	0.427302	-0.648679
H	-0.018486	2.20662	-0.723699
H	-2.16699	0.791899	0.265106
H	-1.15526	-1.70942	0.844764
C	5.90328	-1.08708	0.438969
C	6.88335	-0.11855	0.388311
N	6.41788	1.01814	-0.18421
C	5.15385	0.755788	-0.487575
N	4.79577	-0.500713	-0.131808
H	5.91518	-2.1177	0.827827
H	7.91798	-0.219587	0.75461
H	4.44571	1.4479	-0.971045
H	3.85391	-0.943813	-0.265335
