18
  This energy is -0.6671 and Call times are: 90628
C	-0.325456	-0.127587	-1.07898
C	-1.02373	-0.663689	-0.0371646
C	-0.311157	-0.291989	1.1436
C	0.759656	0.438441	0.719091
O	0.766652	0.548865	-0.635445
H	-0.499352	-0.155765	-2.1672
H	-1.94789	-1.26097	-0.0944127
H	-0.572984	-0.543781	2.18386
H	1.57724	0.927447	1.27379
C	5.89282	0.0433521	-1.10856
C	6.39862	-0.724169	-0.0808385
N	5.70252	-0.526456	1.06496
C	4.76843	0.360349	0.749267
N	4.84134	0.735076	-0.549907
H	6.19657	0.142934	-2.16277
H	7.25336	-1.41705	-0.145576
H	4.00555	0.769497	1.43106
H	4.21602	1.42172	-1.03853
