18
  This energy is -1.3472 and Call times are: 17823
C	-0.0590155	-1.1291	-0.0897344
C	-0.152566	-0.485785	1.10934
C	-0.0349942	0.907133	0.81595
C	0.120024	0.992047	-0.536504
O	0.107719	-0.241988	-1.10573
H	-0.0955895	-2.19974	-0.349813
H	-0.290526	-0.945964	2.10095
H	-0.0636715	1.74166	1.53486
H	0.247039	1.85951	-1.2048
C	5.47427	-0.454597	-0.15611
C	4.28504	-1.14833	-0.0812882
N	3.23913	-0.306613	0.103375
C	3.77746	0.904688	0.142963
N	5.12254	0.868577	-0.00885695
H	6.51138	-0.797432	-0.298956
H	4.16296	-2.24111	-0.157241
H	3.23258	1.85248	0.280861
H	5.77346	1.69171	-0.013508
