18
  This energy is -0.9457 and Call times are: 87554
C	-0.706697	-0.67822	-0.571838
C	-0.816939	-0.475255	0.772419
C	0.235422	0.426012	1.11937
C	0.895847	0.694237	-0.0435045
O	0.333977	0.0282819	-1.08649
H	-1.29862	-1.29336	-1.26932
H	-1.56435	-0.915992	1.45156
H	0.466177	0.822996	2.12099
H	1.76818	1.33312	-0.258244
C	6.2135	0.209675	0.560308
C	5.75665	0.829603	-0.583423
N	4.54813	0.341359	-0.954393
C	4.25637	-0.577967	-0.044263
N	5.22914	-0.694899	0.890415
H	7.13858	0.343736	1.14323
H	6.27739	1.62042	-1.14759
H	3.34378	-1.19485	-0.0148019
H	5.2328	-1.34985	1.71034
