18
  This energy is -1.302 and Call times are: 49750
C	0.167026	-0.58408	-0.957786
C	1.1608	-0.374427	-0.0473787
C	0.571428	0.389469	1.00582
C	-0.730468	0.579187	0.646033
O	-0.994851	-0.00863952	-0.550451
H	0.15941	-1.11915	-1.92158
H	2.2042	-0.722762	-0.111084
H	1.06702	0.75117	1.92105
H	-1.55813	1.107	1.14766
C	4.74613	0.666531	0.957682
C	5.12359	-0.659193	0.924096
N	5.20433	-1.11211	-0.350604
C	4.8782	-0.0713165	-1.10494
N	4.59331	1.02504	-0.363038
H	4.58097	1.35717	1.79987
H	5.33911	-1.297	1.79679
H	4.83214	-0.0571432	-2.20581
H	4.30998	1.96844	-0.724956
