18
  This energy is -1.5615 and Call times are: 117039
C	-0.594592	0.670159	-0.695521
C	-0.739114	0.712656	0.66009
C	0.164531	-0.263454	1.18043
C	0.781487	-0.816271	0.0968538
O	0.329995	-0.257985	-1.05705
H	-1.08473	1.24094	-1.50127
H	-1.41433	1.36585	1.23587
H	0.32925	-0.517551	2.23986
H	1.54869	-1.60365	0.0151024
C	3.71943	0.473811	-0.742505
C	4.36118	-0.738864	-0.879368
N	5.19527	-0.970704	0.163244
C	5.07146	0.0940946	0.943947
N	4.19315	0.993821	0.44129
H	2.98371	0.986443	-1.3824
H	4.23728	-1.45067	-1.71174
H	5.6006	0.266113	1.89508
H	3.92427	1.9125	0.871401
