18
  This energy is -0.8898 and Call times are: 93526
C	0.0127805	-1.12866	-0.111217
C	-1.13835	-0.400585	-0.183272
C	-0.751468	0.961864	0.00160109
C	0.601921	0.94609	0.170309
O	1.08536	-0.322353	0.104337
H	0.199265	-2.21184	-0.196032
H	-2.15765	-0.784443	-0.349893
H	-1.41117	1.84439	0.00681798
H	1.32671	1.75862	0.342726
C	5.64077	0.521164	0.637637
C	5.01719	-0.677528	0.912285
N	4.0962	-0.977613	-0.0354627
C	4.14822	0.031079	-0.894799
N	5.06413	0.960523	-0.533106
H	6.42781	1.07418	1.17455
H	5.21534	-1.33122	1.77731
H	3.53771	0.139291	-1.80574
H	5.29165	1.84695	-1.04667
