18
  This energy is -0.9617 and Call times are: 132669
C	-0.58454	0.825996	-0.512294
C	-1.1947	-0.229947	0.098493
C	-0.141563	-1.0429	0.618229
C	1.01919	-0.411976	0.279165
O	0.767443	0.731022	-0.411627
H	-0.995035	1.69845	-1.04668
H	-2.27775	-0.417564	0.175334
H	-0.245726	-1.98615	1.17816
H	2.07403	-0.670663	0.467943
C	5.7439	1.00672	0.55868
C	6.55282	-0.106164	0.467734
N	5.95561	-1.08683	-0.252092
C	4.78066	-0.58423	-0.606359
N	4.60553	0.675567	-0.141781
H	5.89279	1.97849	1.05571
H	7.55668	-0.219068	0.908614
H	4.01047	-1.09579	-1.20581
H	3.76308	1.28411	-0.287424
