18
  This energy is -0.8169 and Call times are: 46957
C	0.75386	-0.0830788	-0.843323
C	0.935467	-0.695662	0.361723
C	-0.209657	-0.360874	1.14704
C	-0.989945	0.426739	0.352566
O	-0.416847	0.606789	-0.866512
H	1.37553	-0.0612598	-1.75343
H	1.79008	-1.3206	0.666982
H	-0.419424	-0.674623	2.18225
H	-1.9616	0.914383	0.535148
C	5.57488	1.15304	0.0701143
C	4.77166	0.186041	-0.496368
N	5.34176	-1.03973	-0.401624
C	6.49428	-0.833951	0.221267
N	6.68111	0.471939	0.526775
H	5.44198	2.24136	0.177025
H	3.79099	0.350861	-0.971747
H	7.23907	-1.60419	0.47863
H	7.51062	0.886585	1.01794
