18
  This energy is -0.7915 and Call times are: 91927
C	0.544172	0.526725	-0.844298
C	0.984802	0.566766	0.445902
C	0.0492364	-0.202765	1.20264
C	-0.880515	-0.645123	0.308074
O	-0.593869	-0.209053	-0.946792
H	0.945739	0.974327	-1.76823
H	1.87895	1.0861	0.826538
H	0.0737831	-0.398701	2.28666
H	-1.7807	-1.26825	0.437073
C	6.44287	-0.547139	-0.612618
C	5.0822	-0.632786	-0.818503
N	4.40416	0.130427	0.0727227
C	5.34064	0.687432	0.828625
N	6.58641	0.310261	0.455299
H	7.29089	-1.01988	-1.13311
H	4.57758	-1.23161	-1.59415
H	5.16934	1.37919	1.66908
H	7.48957	0.613249	0.895492
