18
  This energy is -0.887 and Call times are: 91831
C	0.740641	0.678696	-0.526521
C	-0.194601	1.15461	0.3448
C	-0.927625	0.0136904	0.79323
C	-0.375613	-1.05871	0.156353
O	0.644516	-0.67098	-0.653593
H	1.52117	1.19076	-1.11287
H	-0.352454	2.20385	0.641936
H	-1.76682	0.00244306	1.50718
H	-0.615009	-2.13413	0.193946
C	6.23688	-0.343825	0.437894
C	5.12769	0.0548533	1.15336
N	4.1053	0.383579	0.326826
C	4.57842	0.18957	-0.896749
N	5.85947	-0.24897	-0.882997
H	7.23479	-0.677204	0.764344
H	5.04681	0.111193	2.25115
H	4.02935	0.353141	-1.83802
H	6.45226	-0.473873	-1.71923
