18
  This energy is -0.9432 and Call times are: 51836
C	0.344184	1.03194	-0.321001
C	0.0228723	0.0569454	-1.21907
C	-0.357656	-1.07987	-0.442555
C	-0.235289	-0.699211	0.861477
O	0.192273	0.587485	0.954302
H	0.689635	2.06945	-0.460603
H	0.0510025	0.130866	-2.31808
H	-0.683224	-2.06261	-0.819811
H	-0.419306	-1.24347	1.80231
C	6.11804	-0.0318663	0.366143
C	5.41681	-1.05193	-0.241213
N	4.14941	-0.669014	-0.530323
C	4.06471	0.583843	-0.103945
N	5.22567	1.01395	0.444471
H	7.15436	0.0220412	0.735828
H	5.80267	-2.05734	-0.475986
H	3.17618	1.23236	-0.168601
H	5.41075	1.96323	0.851744
