18
  This energy is -1.4163 and Call times are: 115338
C	0.326036	-0.0885736	-1.08271
C	0.827449	0.863404	-0.244437
C	0.183341	0.655333	1.01332
C	-0.654816	-0.405427	0.832613
O	-0.580516	-0.872241	-0.441583
H	0.53044	-0.309986	-2.14311
H	1.57582	1.63477	-0.487418
H	0.333014	1.2333	1.93941
H	-1.34662	-0.916351	1.52226
C	4.05457	-0.949061	0.432296
C	3.88557	-0.395906	-0.819344
N	4.67428	0.693973	-0.982449
C	5.33009	0.816483	0.163648
N	4.99133	-0.150267	1.04921
H	3.59001	-1.82538	0.911662
H	3.20867	-0.763691	-1.60763
H	6.06979	1.59594	0.407609
H	5.37012	-0.268742	2.02068
