18
  This energy is -1.1332 and Call times are: 135314
C	0.91991	-0.654365	0.109418
C	-0.0242983	-0.87607	-0.849588
C	-1.01128	0.140472	-0.668937
C	-0.583068	0.893633	0.384514
O	0.594751	0.422468	0.872119
H	1.85623	-1.18422	0.349856
H	-0.025634	-1.67528	-1.60811
H	-1.93	0.286134	-1.25955
H	-1.02003	1.7782	0.876311
C	4.46383	0.110598	0.82078
C	5.75871	-0.322899	1.01183
N	6.44969	-0.326855	-0.153953
C	5.58675	0.102554	-1.06476
N	4.37536	0.379566	-0.526816
H	3.62696	0.242326	1.52494
H	6.20677	-0.63288	1.96996
H	5.78962	0.232846	-2.13998
H	3.52983	0.732071	-1.03876
