18
  This energy is -1.5073 and Call times are: 13849
C	-0.879279	-0.100131	-0.709396
C	-0.389181	-1.1569	0.000116518
C	0.699375	-0.641301	0.767787
C	0.778382	0.685034	0.45962
O	-0.17815	1.03274	-0.441022
H	-1.71138	-0.0252883	-1.42861
H	-0.757286	-2.19534	-0.0155331
H	1.34307	-1.20049	1.46568
H	1.4609	1.47729	0.808546
C	4.95428	0.516228	0.955108
C	4.30379	-0.698313	0.9013
N	3.91072	-0.986485	-0.363201
C	4.31582	0.0453576	-1.09109
N	4.95035	0.978113	-0.342134
H	5.40469	1.06619	1.79666
H	4.11104	-1.37183	1.75223
H	4.17384	0.168844	-2.17682
H	5.36107	1.88111	-0.684436
