18
  This energy is -1.4862 and Call times are: 272
C	0.102101	0.378952	1.06413
C	-0.24464	1.19551	0.0280924
C	-0.269018	0.364577	-1.1334
C	0.0649774	-0.886403	-0.704605
O	0.295004	-0.89599	0.634801
H	0.242904	0.580895	2.13867
H	-0.461491	2.27472	0.0768847
H	-0.508527	0.671438	-2.16421
H	0.171861	-1.84062	-1.24617
C	4.82556	-0.922915	0.507057
C	5.19234	-0.305509	-0.669986
N	4.36436	0.727839	-0.958348
C	3.48726	0.751405	0.0360224
N	3.72285	-0.224114	0.945116
H	5.25683	-1.78147	1.04597
H	6.03956	-0.587159	-1.31631
H	2.65231	1.46176	0.147775
H	3.1707	-0.41228	1.81746
