18
  This energy is -0.7148 and Call times are: 82160
C	0.21925	-0.747288	0.824555
C	1.18144	-0.304744	-0.0349339
C	0.528288	0.611247	-0.914974
C	-0.775374	0.647591	-0.515578
O	-0.98193	-0.17603	0.545551
H	0.261432	-1.45844	1.66582
H	2.2445	-0.594292	-0.0479133
H	0.984244	1.17311	-1.74594
H	-1.64199	1.21095	-0.898798
C	6.19827	1.13039	-0.260788
C	5.07506	0.393934	-0.572522
N	5.18336	-0.878294	-0.118412
C	6.36925	-0.930899	0.472791
N	7.01998	0.255121	0.413669
H	6.46219	2.18035	-0.464381
H	4.18847	0.75778	-1.11696
H	6.81019	-1.81277	0.964839
H	7.96955	0.467464	0.806725
