18
  This energy is -0.8514 and Call times are: 53513
C	-0.549027	0.0713207	-0.989891
C	-1.19385	-0.172071	0.187115
C	-0.179441	-0.188684	1.19251
C	0.995717	0.0460225	0.541138
O	0.788706	0.207189	-0.792347
H	-0.923649	0.169857	-2.02198
H	-2.27534	-0.324609	0.332728
H	-0.318051	-0.356664	2.27264
H	2.03254	0.121443	0.907964
C	5.41889	0.511094	-1.04455
C	6.46345	-0.320443	-0.700181
N	6.35833	-0.729431	0.587526
C	5.25276	-0.153808	1.0403
N	4.65009	0.604477	0.0940552
H	5.17632	1.02583	-1.98781
H	7.29105	-0.632611	-1.35781
H	4.83886	-0.253806	2.05663
H	3.76567	1.15806	0.206365
