18
  This energy is -0.4386 and Call times are: 121315
C	-0.761907	-0.794747	-0.272535
C	-0.959881	0.0871589	0.748945
C	0.202546	0.916557	0.780248
C	1.00825	0.468267	-0.224867
O	0.434953	-0.576453	-0.878246
H	-1.38802	-1.61376	-0.663002
H	-1.83654	0.147576	1.41371
H	0.406351	1.74789	1.47411
H	1.99954	0.803283	-0.571779
C	7.54046	-0.537349	-0.117464
C	7.22895	0.480207	0.759284
N	5.93578	0.862421	0.624662
C	5.44689	0.0849377	-0.331965
N	6.3754	-0.776121	-0.811594
H	8.4775	-1.09002	-0.290775
H	7.91413	0.945424	1.48658
H	4.41566	0.104206	-0.719812
H	6.23461	-1.48966	-1.5681
