18
  This energy is -0.9588 and Call times are: 120292
C	1.06238	-0.244189	-0.31324
C	0.673278	1.01774	0.0280907
C	-0.713436	0.923749	0.357192
C	-1.04932	-0.387321	0.187919
O	0.0230636	-1.11504	-0.221275
H	2.0368	-0.646893	-0.635088
H	1.29991	1.92389	0.046294
H	-1.37575	1.74253	0.681292
H	-2.00437	-0.920806	0.323982
C	6.32662	-0.659018	-0.820645
C	6.93185	0.237003	0.0349156
N	6.02294	0.82311	0.851534
C	4.85827	0.29271	0.503903
N	4.98847	-0.606577	-0.500051
H	6.73969	-1.30859	-1.60866
H	8.00807	0.471068	0.0775918
H	3.8792	0.527217	0.951843
H	4.21702	-1.15868	-0.948735
