18
  This energy is -1.2127 and Call times are: 7625
C	0.293965	1.05562	-0.292664
C	1.0155	-0.0364521	-0.676255
C	0.339904	-1.16602	-0.121484
C	-0.734838	-0.664492	0.552145
O	-0.778435	0.690601	0.458157
H	0.437189	2.13138	-0.486284
H	1.93159	-0.0456595	-1.28846
H	0.62803	-2.22515	-0.218032
H	-1.53164	-1.16041	1.13043
C	5.5559	-1.03599	-0.0529522
C	5.87228	0.10956	-0.752072
N	5.02037	1.11863	-0.447857
C	4.17869	0.601049	0.436626
N	4.45975	-0.695511	0.70779
H	6.0178	-2.03603	-0.0432786
H	6.69998	0.226043	-1.47054
H	3.33843	1.12729	0.917517
H	3.94141	-1.32203	1.37115
