18
  This energy is -1.2548 and Call times are: 120846
C	-0.5844	0.945112	-0.227246
C	-0.252704	0.0413392	-1.19345
C	0.46869	-0.996017	-0.527416
C	0.514146	-0.634583	0.786993
O	-0.124045	0.54829	0.988327
H	-1.13835	1.89698	-0.275704
H	-0.492022	0.099354	-2.26744
H	0.899903	-1.90222	-0.982335
H	0.963946	-1.1261	1.66525
C	3.84231	0.297669	0.7489
C	4.51356	-0.905539	0.695501
N	5.44138	-0.904026	-0.292257
C	5.34608	0.295558	-0.849517
N	4.39609	1.05736	-0.257271
H	3.03661	0.655137	1.40966
H	4.34502	-1.77471	1.352
H	5.94782	0.668083	-1.69413
H	4.13175	2.03959	-0.515384
