18
  This energy is -0.8917 and Call times are: 37598
C	0.96684	0.0764861	-0.588023
C	-0.139855	-0.550562	-1.08037
C	-1.13694	-0.439533	-0.0637111
C	-0.551535	0.245563	0.960161
O	0.73329	0.568632	0.657071
H	1.96835	0.237955	-1.01948
H	-0.243649	-1.04199	-2.0611
H	-2.16752	-0.82776	-0.0994539
H	-0.937372	0.561519	1.94329
C	5.38634	0.49459	0.995598
C	5.3299	1.08	-0.251501
N	4.82997	0.220703	-1.17248
C	4.57723	-0.89355	-0.499286
N	4.89563	-0.778839	0.811842
H	5.72953	0.881173	1.96838
H	5.64095	2.107	-0.503239
H	4.15883	-1.82325	-0.917406
H	4.78899	-1.51895	1.54813
