18
  This energy is -1.0542 and Call times are: 52743
C	0.243964	-0.559646	0.955865
C	0.525854	0.764849	0.792698
C	0.0767297	1.10127	-0.520781
C	-0.439967	-0.0473469	-1.04431
O	-0.346076	-1.07175	-0.156168
H	0.411137	-1.24361	1.80409
H	1.00227	1.43748	1.52393
H	0.135686	2.08659	-1.01042
H	-0.897706	-0.263223	-2.02366
C	4.08075	0.294163	-0.214113
C	4.57603	-0.302007	0.926248
N	5.91372	-0.498198	0.833499
C	6.24704	-0.0255372	-0.359863
N	5.17688	0.46326	-1.03026
H	3.05989	0.599854	-0.493295
H	3.99212	-0.594091	1.81427
H	7.26038	-0.0126413	-0.792535
H	5.18132	0.889786	-1.98907
