18
  This energy is -0.8651 and Call times are: 20162
C	1.03807	0.174393	-0.422369
C	0.534324	-1.07611	-0.215349
C	-0.777169	-0.886037	0.317546
C	-0.959081	0.463836	0.389128
O	0.139471	1.1269	-0.0586939
H	2.00903	0.515234	-0.817745
H	1.03596	-2.03608	-0.417611
H	-1.49456	-1.66934	0.610607
H	-1.81294	1.06914	0.735223
C	4.92449	-0.896491	0.596055
C	4.52447	0.422662	0.627123
N	5.29633	1.18654	-0.183572
C	6.17187	0.344477	-0.715549
N	5.98907	-0.923512	-0.27694
H	4.53975	-1.78818	1.11606
H	3.69275	0.836926	1.21997
H	6.96815	0.603416	-1.43186
H	6.55121	-1.76657	-0.549895
