18
  This energy is -0.3868 and Call times are: 110641
C	1.11153	-0.1612	0.157873
C	0.332098	-1.05555	-0.515182
C	-0.987703	-0.509535	-0.504684
C	-0.898277	0.670277	0.17386
O	0.376527	0.898859	0.585729
H	2.18778	-0.163721	0.396459
H	0.654233	-2.00456	-0.973113
H	-1.89231	-0.951029	-0.952855
H	-1.6584	1.42748	0.427055
C	7.44916	0.794916	-0.43813
C	7.76099	-0.280986	0.365824
N	6.6511	-0.989586	0.686039
C	5.65451	-0.355691	0.0830308
N	6.0843	0.726863	-0.607585
H	8.08085	1.57805	-0.886692
H	8.76693	-0.558642	0.720555
H	4.59075	-0.641487	0.114149
H	5.49088	1.38833	-1.16577
