18
  This energy is -0.4739 and Call times are: 121540
C	-0.646904	-0.594505	0.717273
C	-0.944087	0.686789	0.356243
C	0.088323	1.08841	-0.545393
C	0.925259	0.0170854	-0.655747
O	0.491482	-1.01953	0.108633
H	-1.15883	-1.30191	1.39015
H	-1.80405	1.28873	0.69125
H	0.187979	2.06365	-1.04845
H	1.84983	-0.131509	-1.23741
C	7.00161	-0.747942	-0.113013
C	6.85154	0.227789	0.849573
N	5.69097	0.906717	0.680352
C	5.12321	0.354275	-0.38317
N	5.87443	-0.64801	-0.897648
H	7.80399	-1.48186	-0.289308
H	7.5599	0.454051	1.66314
H	4.15777	0.645109	-0.82766
H	5.64241	-1.2368	-1.73476
