18
  This energy is -0.8127 and Call times are: 4896
C	1.09876	0.0342858	0.279199
C	0.657647	-0.526683	-0.883173
C	-0.762934	-0.37839	-0.874438
C	-1.06451	0.260108	0.2925
O	0.0604682	0.519801	1.00943
H	2.11244	0.149332	0.696883
H	1.27109	-0.99766	-1.66801
H	-1.46991	-0.71153	-1.65116
H	-2.02743	0.581489	0.722338
C	5.69373	-0.111818	-1.10343
C	5.08155	0.993401	-0.551285
N	4.757	0.775016	0.746207
C	5.16629	-0.460983	0.998032
N	5.7378	-1.03808	-0.085448
H	6.08799	-0.29851	-2.11499
H	4.86823	1.94447	-1.06588
H	5.07223	-0.992337	1.95879
H	6.13819	-2.00658	-0.13969
