18
  This energy is -0.5958 and Call times are: 53769
C	0.0955347	-0.805748	-0.792492
C	1.16921	-0.09909	-0.336174
C	0.65425	0.807776	0.6398
C	-0.688653	0.575234	0.693731
O	-1.04725	-0.407012	-0.174378
H	0.0141567	-1.60752	-1.54468
H	2.21857	-0.205735	-0.654877
H	1.22495	1.54406	1.22826
H	-1.48655	1.03528	1.29951
C	5.73709	-0.175449	-1.01855
C	5.291	-0.511675	0.24205
N	6.19558	-0.163984	1.18934
C	7.19903	0.385848	0.518964
N	6.9704	0.402411	-0.815595
H	5.27943	-0.30227	-2.01253
H	4.33265	-0.998907	0.485011
H	8.12522	0.79268	0.955859
H	7.61067	0.782948	-1.55486
