18
  This energy is -1.015 and Call times are: 113114
C	0.838545	0.499971	-0.577297
C	-0.148212	-0.212689	-1.19276
C	-1.00352	-0.678892	-0.148146
C	-0.463921	-0.209966	1.01346
O	0.66146	0.512053	0.770111
H	1.71126	1.03927	-0.980744
H	-0.26234	-0.392088	-2.27391
H	-1.91265	-1.29162	-0.258332
H	-0.781275	-0.319343	2.06349
C	4.33313	-0.0878064	0.489057
C	5.45571	0.484123	1.04929
N	6.5139	0.411318	0.205816
C	6.04956	-0.20344	-0.873575
N	4.73979	-0.524803	-0.75185
H	3.30786	-0.210663	0.872811
H	5.52106	0.947994	2.04699
H	6.62572	-0.443356	-1.78171
H	4.14701	-1.01371	-1.46659
