18
  This energy is -0.5103 and Call times are: 37278
C	-1.03136	-0.341598	0.325592
C	0.0893791	-1.08571	0.550575
C	1.17406	-0.333851	0.00441017
C	0.6204	0.80334	-0.506112
O	-0.725617	0.815282	-0.318739
H	-2.09059	-0.522411	0.571752
H	0.146531	-2.06574	1.05094
H	2.23941	-0.615034	-0.0028793
H	1.0704	1.66867	-1.01989
C	7.66448	0.0594552	-0.15985
C	6.97612	0.304985	1.00935
N	5.64208	0.143284	0.834122
C	5.50336	-0.201251	-0.438937
N	6.69384	-0.265469	-1.08098
H	8.74047	0.0918741	-0.393779
H	7.41815	0.595912	1.9762
H	4.55277	-0.417966	-0.952402
H	6.84807	-0.515198	-2.08851
