18
  This energy is -1.3516 and Call times are: 124797
C	-0.00691791	-1.1255	0.140001
C	1.12793	-0.434849	-0.169015
C	0.738375	0.936245	-0.261031
C	-0.600137	0.962412	-0.000120165
O	-1.07186	-0.287961	0.246984
H	-0.185871	-2.20026	0.307701
H	2.13804	-0.849327	-0.31729
H	1.38639	1.79619	-0.494834
H	-1.32112	1.79539	0.0395491
C	4.85509	-0.923877	0.686706
C	5.6589	-0.915504	-0.433548
N	5.71972	0.322213	-0.982063
C	4.95655	1.07881	-0.205049
N	4.41266	0.373796	0.815118
H	4.57592	-1.73441	1.37854
H	6.19605	-1.78037	-0.855844
H	4.76158	2.15521	-0.337607
H	3.77537	0.744991	1.56166
