18
  This energy is -0.5356 and Call times are: 10999
C	-1.10622	0.237305	-0.079731
C	-0.346584	-0.0781629	-1.16776
C	0.972577	-0.307461	-0.670411
C	0.902606	-0.111872	0.677633
O	-0.35952	0.221471	1.0557
H	-2.17489	0.489801	0.0174474
H	-0.681577	-0.142901	-2.21546
H	1.86373	-0.585329	-1.25583
H	1.66942	-0.178421	1.46682
C	6.14448	-1.16652	0.011464
C	5.24462	-0.215959	-0.421908
N	5.75348	1.0334	-0.292797
C	6.96443	0.858567	0.218727
N	7.24715	-0.450241	0.420434
H	6.08036	-2.26535	0.0562835
H	4.23731	-0.409232	-0.825429
H	7.68567	1.65444	0.464981
H	8.13682	-0.844274	0.813478
