18
  This energy is -1.6178 and Call times are: 107905
C	0.339925	-0.963558	-0.492348
C	-0.206606	-0.934965	0.756996
C	-0.501747	0.436919	1.02335
C	-0.109519	1.12556	-0.0867452
O	0.406821	0.286038	-1.02249
H	0.71604	-1.7979	-1.10689
H	-0.384109	-1.79379	1.42409
H	-0.953581	0.853251	1.93801
H	-0.144064	2.20006	-0.330686
C	3.62052	-0.574913	-0.988161
C	3.91195	-1.1319	0.239022
N	4.19003	-0.174233	1.15665
C	4.07158	0.97251	0.501235
N	3.72965	0.784173	-0.795377
H	3.35216	-1.03419	-1.95283
H	3.92654	-2.20762	0.478743
H	4.22409	1.97921	0.922584
H	3.57679	1.53115	-1.51644
