18
  This energy is -0.7691 and Call times are: 59747
C	-1.06006	-0.256834	0.310988
C	-0.121083	-1.21321	0.0579074
C	1.06874	-0.5082	-0.29903
C	0.751813	0.816758	-0.232558
O	-0.544257	0.988638	0.138481
H	-2.1163	-0.332277	0.617444
H	-0.253076	-2.30555	0.116679
H	2.04268	-0.945246	-0.572029
H	1.35109	1.72227	-0.422745
C	5.62288	0.624065	0.923805
C	4.96767	0.443476	-0.275875
N	5.69251	-0.334253	-1.11626
C	6.79321	-0.635003	-0.440509
N	6.79875	-0.0808692	0.795005
H	5.34487	1.1856	1.82985
H	3.98492	0.860423	-0.550103
H	7.62723	-1.25728	-0.803007
H	7.55475	-0.171053	1.51721
