18
  This energy is -2.3499 and Call times are: 126652
C	0.315758	1.07044	-0.202107
C	0.156646	0.582015	1.06142
C	-0.24021	-0.781299	0.90651
C	-0.288577	-1.00562	-0.438003
O	0.0479926	0.114452	-1.13022
H	0.611997	2.06695	-0.568805
H	0.303961	1.12708	2.00762
H	-0.461769	-1.50342	1.70872
H	-0.544522	-1.90603	-1.02024
C	3.71717	-0.409246	-0.866807
C	4.99683	-0.819262	-0.557754
N	5.48699	-0.133043	0.503075
C	4.51511	0.699519	0.850808
N	3.42689	0.571478	0.0552058
H	3.01594	-0.73509	-1.65144
H	5.57519	-1.59794	-1.08121
H	4.54762	1.42423	1.68025
H	2.53246	1.11562	0.127034
