18
  This energy is -1.9446 and Call times are: 3656
C	-0.157455	0.0995721	1.11879
C	-0.318773	-1.08433	0.460974
C	-0.0361632	-0.810394	-0.912054
C	0.272905	0.516727	-0.972068
O	0.203847	1.08818	0.259064
H	-0.268492	0.365813	2.18276
H	-0.607787	-2.05333	0.898703
H	-0.0624946	-1.52477	-1.75055
H	0.555092	1.16413	-1.81853
C	3.91443	-1.15628	-0.0460781
C	3.88762	-0.363961	1.08204
N	3.60864	0.924411	0.767749
C	3.46293	0.931334	-0.550334
N	3.63764	-0.299227	-1.08773
H	4.10455	-2.23344	-0.17698
H	4.06458	-0.698855	2.11712
H	3.228	1.81004	-1.17236
H	3.5743	-0.552227	-2.10421
