18
  This energy is -0.9594 and Call times are: 13128
C	0.329527	0.951341	-0.522267
C	-0.976932	0.696428	-0.224678
C	-0.989658	-0.578267	0.41961
C	0.310147	-0.989776	0.458861
O	1.12945	-0.067862	-0.111953
H	0.812526	1.80966	-1.0175
H	-1.84463	1.34133	-0.437516
H	-1.86918	-1.11819	0.805633
H	0.77544	-1.90507	0.860094
C	5.03311	-0.934566	-0.633025
C	4.18352	-0.930897	0.45295
N	4.01954	0.322741	0.940817
C	4.76456	1.09386	0.160469
N	5.39578	0.38283	-0.803684
H	5.39327	-1.75409	-1.27506
H	3.68594	-1.81036	0.893189
H	4.88372	2.1856	0.250732
H	6.03891	0.762726	-1.54078
