18
  This energy is -1.4136 and Call times are: 37470
C	0.491579	-0.585772	0.837628
C	-0.412218	0.408035	1.074
C	-0.799102	0.898329	-0.210545
C	-0.097572	0.16085	-1.11848
O	0.695685	-0.750271	-0.495898
H	1.05279	-1.24183	1.52311
H	-0.770515	0.760496	2.05455
H	-1.51701	1.70651	-0.423962
H	-0.0746773	0.186982	-2.22032
C	3.69741	0.587203	-0.187325
C	4.82212	0.594622	-0.984881
N	5.7933	-0.196302	-0.467418
C	5.27305	-0.6925	0.646921
N	4.01112	-0.250079	0.859926
H	2.72831	1.10134	-0.287543
H	4.95024	1.1565	-1.92442
H	5.77269	-1.38428	1.34408
H	3.39002	-0.497698	1.66874
