18
  This energy is -1.0839 and Call times are: 107521
C	0.38318	-0.950357	-0.486206
C	-0.391892	-0.0490134	-1.15495
C	-0.668622	0.99672	-0.222222
C	-0.0382261	0.642095	0.934159
O	0.609074	-0.544286	0.790936
H	0.831392	-1.90637	-0.803068
H	-0.734392	-0.114018	-2.20021
H	-1.26834	1.90372	-0.400516
H	0.0249436	1.14112	1.91509
C	5.15396	-0.0982003	-0.898325
C	3.99222	0.643904	-0.870394
N	3.36723	0.528311	0.326492
C	4.13831	-0.28242	1.03837
N	5.22801	-0.687461	0.344043
H	5.90809	-0.243822	-1.68803
H	3.5938	1.26066	-1.69242
H	3.95189	-0.612138	2.07315
H	5.98505	-1.32829	0.686809
