18
  This energy is -0.5628 and Call times are: 113050
C	1.13269	0.0268952	-0.0518397
C	0.419999	-1.12093	-0.238735
C	-0.953649	-0.755461	-0.0985967
C	-0.959111	0.583441	0.161564
O	0.306485	1.07765	0.193736
H	2.217	0.225035	-0.0680033
H	0.821336	-2.12433	-0.453716
H	-1.82911	-1.41915	-0.183319
H	-1.78609	1.2901	0.34039
C	6.62515	-0.307391	-0.94857
C	5.46538	0.438023	-0.927794
N	5.01269	0.602212	0.338943
C	5.88829	-0.0389062	1.10112
N	6.87934	-0.604212	0.371837
H	7.26621	-0.636653	-1.78174
H	4.94715	0.860305	-1.80413
H	5.85146	-0.125744	2.19899
H	7.6874	-1.16229	0.741775
