18
  This energy is -0.931 and Call times are: 50918
C	0.464748	1.02648	0.12942
C	1.11832	0.00148623	-0.489134
C	0.221707	-1.1099	-0.457012
C	-0.900618	-0.665946	0.178334
O	-0.769603	0.636583	0.54339
H	0.76544	2.06691	0.335189
H	2.13029	0.0256119	-0.924365
H	0.400286	-2.1188	-0.862387
H	-1.84747	-1.1719	0.428798
C	6.31318	0.199289	-0.715176
C	5.90119	-1.01945	-0.219115
N	4.81242	-0.880663	0.57576
C	4.54996	0.419235	0.572828
N	5.42661	1.11328	-0.190962
H	7.14672	0.471765	-1.38189
H	6.37004	-1.99642	-0.420515
H	3.72793	0.916223	1.11272
H	5.43024	2.15011	-0.352953
