18
  This energy is -1.4566 and Call times are: 49363
C	-0.0875678	1.06679	-0.375086
C	-0.168535	-0.00959413	-1.20888
C	-0.0144427	-1.1607	-0.377423
C	0.147085	-0.686128	0.891064
O	0.105088	0.672125	0.911045
H	-0.150654	2.14978	-0.571073
H	-0.321432	0.00550258	-2.29998
H	-0.0241116	-2.21555	-0.695685
H	0.298404	-1.20479	1.85197
C	4.84543	-0.977192	-0.116678
C	3.58537	-0.751658	-0.629065
N	3.1389	0.485236	-0.301548
C	4.11825	1.02498	0.41131
N	5.16934	0.182787	0.550939
H	5.51229	-1.85188	-0.177847
H	2.99041	-1.45926	-1.2292
H	4.11778	2.03367	0.854903
H	6.06113	0.376537	1.06905
