18
  This energy is -0.9124 and Call times are: 66283
C	0.755037	-0.809143	0.248209
C	-0.0968399	-0.90562	-0.812626
C	-0.879856	0.288825	-0.795187
C	-0.437346	1.00977	0.274766
O	0.560936	0.354238	0.923399
H	1.53526	-1.49141	0.623722
H	-0.166811	-1.73473	-1.53496
H	-1.67763	0.569941	-1.50132
H	-0.746609	1.98945	0.674543
C	6.01628	-0.0467721	-0.591671
C	4.87719	0.639181	-0.956476
N	3.89243	0.473258	-0.0403858
C	4.4186	-0.312641	0.889201
N	5.69733	-0.653638	0.602552
H	6.99853	-0.142807	-1.08106
H	4.74826	1.25084	-1.86428
H	3.91155	-0.668911	1.80036
H	6.326	-1.26402	1.18001
