18
  This energy is -1.2361 and Call times are: 67400
C	-0.252702	-1.10317	0.074611
C	-0.589174	-0.209267	1.04832
C	-0.108304	1.05825	0.598555
C	0.479571	0.827017	-0.61029
O	0.400575	-0.487587	-0.945832
H	-0.419081	-2.18967	-0.00955116
H	-1.12249	-0.4212	1.98893
H	-0.194659	2.02446	1.12112
H	0.982275	1.50414	-1.32025
C	5.27198	0.744886	-0.48403
C	4.01747	1.0515	-0.00098301
N	3.39922	-0.0509143	0.487866
C	4.26689	-1.03768	0.308769
N	5.41158	-0.60881	-0.273769
H	6.04934	1.37324	-0.94708
H	3.54737	2.04841	0.00355839
H	4.11496	-2.0933	0.5859
H	6.24637	-1.19569	-0.518607
