18
  This energy is -1.5224 and Call times are: 82256
C	0.527977	0.334407	0.946474
C	-0.0192495	-0.908068	0.815432
C	-0.583853	-0.950316	-0.495886
C	-0.331806	0.270071	-1.05041
O	0.346374	1.06731	-0.183522
H	1.06618	0.811856	1.78172
H	-0.0247669	-1.71398	1.56681
H	-1.11417	-1.79549	-0.963365
H	-0.579192	0.688737	-2.03974
C	4.55827	1.00485	-0.591884
C	5.20558	-0.193324	-0.807554
N	4.77723	-1.14303	0.0590936
C	3.86764	-0.536344	0.809555
N	3.69949	0.760015	0.456326
H	4.64507	1.98182	-1.09342
H	5.97402	-0.389542	-1.57297
H	3.29452	-0.994607	1.6316
H	3.04048	1.4476	0.896997
