18
  This energy is -1.8442 and Call times are: 131986
C	0.524744	-0.544455	0.845348
C	0.715373	-0.873067	-0.464633
C	-0.104326	0.0234728	-1.21592
C	-0.7235	0.820803	-0.298714
O	-0.350936	0.487939	0.965172
H	0.947686	-0.963341	1.7732
H	1.36777	-1.66714	-0.862021
H	-0.213835	0.0627229	-2.31162
H	-1.44109	1.64936	-0.416201
C	3.71162	0.577344	0.839986
C	4.05869	1.05632	-0.405515
N	4.73299	0.121397	-1.11808
C	4.80397	-0.933564	-0.317679
N	4.20279	-0.708636	0.874618
H	3.16801	1.04501	1.67624
H	3.83462	2.05974	-0.802746
H	5.28473	-1.89636	-0.554609
H	4.12555	-1.385	1.67326
