18
  This energy is -1.6355 and Call times are: 16989
C	-0.29421	-1.0753	-0.208751
C	-0.551633	-0.0639409	-1.08697
C	-0.0390583	1.12226	-0.478433
C	0.486344	0.731057	0.717931
O	0.339246	-0.607813	0.899041
H	-0.508393	-2.1557	-0.25469
H	-1.05225	-0.14509	-2.06518
H	-0.0632429	2.14367	-0.891012
H	0.985359	1.30114	1.51871
C	3.56997	0.125114	-0.710274
C	3.80787	-0.911949	0.166682
N	4.97731	-0.734143	0.827968
C	5.46306	0.40888	0.363024
N	4.65116	0.965712	-0.566678
H	2.73564	0.317992	-1.40325
H	3.15664	-1.78529	0.334091
H	6.40913	0.883832	0.668953
H	4.81422	1.86621	-1.08026
