18
  This energy is -0.8769 and Call times are: 53127
C	-1.09965	0.181926	-0.209937
C	-0.465546	-0.967229	-0.581053
C	0.888377	-0.823636	-0.149323
C	0.962115	0.40059	0.447506
O	-0.24284	1.02853	0.41947
H	-2.14352	0.513807	-0.334198
H	-0.906944	-1.82951	-1.10615
H	1.70544	-1.55245	-0.273131
H	1.8021	0.932267	0.923956
C	6.85632	-0.13756	-0.17054
C	5.88925	0.0163559	-1.14123
N	4.65909	0.149738	-0.588571
C	4.86223	0.0788391	0.71999
N	6.17065	-0.0941249	1.02284
H	7.94753	-0.270492	-0.242155
H	6.05711	0.0335518	-2.23044
H	4.08819	0.147631	1.50124
H	6.58402	-0.178974	1.98367
