18
  This energy is -1.002 and Call times are: 114115
C	-0.3523	-0.916816	-0.567217
C	0.505014	-0.00607598	-1.11122
C	0.708504	0.988245	-0.106216
C	-0.0424225	0.597345	0.963213
O	-0.696947	-0.564079	0.699198
H	-0.786448	-1.84537	-0.972875
H	0.949519	-0.0318772	-2.11911
H	1.34215	1.88666	-0.179962
H	-0.193434	1.05229	1.95592
C	5.82033	-0.0331895	-0.843238
C	5.42269	-1.07641	-0.0340847
N	4.45381	-0.68399	0.828343
C	4.25115	0.597795	0.555255
N	5.05092	1.03721	-0.445179
H	6.57132	0.0214155	-1.64733
H	5.81755	-2.1052	-0.057125
H	3.52919	1.26173	1.05745
H	5.07945	2.00827	-0.842006
