18
  This energy is -0.9714 and Call times are: 111026
C	1.04271	0.0503765	0.443412
C	0.434809	-1.13205	0.138935
C	-0.846676	-0.788072	-0.389833
C	-0.908744	0.574182	-0.361802
O	0.236544	1.10276	0.144096
H	2.03354	0.274015	0.871769
H	0.847412	-2.14487	0.273224
H	-1.6252	-1.48118	-0.747031
H	-1.70097	1.27643	-0.669175
C	5.04684	0.274784	-1.14314
C	5.56785	-0.876832	-0.592253
N	5.4655	-0.861795	0.758972
C	4.88321	0.294753	1.04526
N	4.61083	1.01621	-0.0677914
H	4.95844	0.608053	-2.18939
H	6.01577	-1.71829	-1.14557
H	4.63325	0.663151	2.05325
H	4.15445	1.96047	-0.104592
