18
  This energy is -0.6843 and Call times are: 134801
C	-1.04733	-0.30855	0.307079
C	0.0602411	-1.01168	0.680267
C	1.17246	-0.321645	0.108484
C	0.646368	0.742241	-0.563637
O	-0.707965	0.765755	-0.452995
H	-2.11831	-0.467143	0.514702
H	0.0909398	-1.92467	1.29639
H	2.23696	-0.593253	0.193133
H	1.12293	1.54376	-1.1516
C	5.76359	-0.326153	1.13022
C	5.13399	-0.943393	0.0701431
N	5.39281	-0.299648	-1.09395
C	6.17998	0.713104	-0.757329
N	6.43275	0.740424	0.572692
H	5.78219	-0.562533	2.206
H	4.49762	-1.84169	0.124409
H	6.59985	1.46472	-1.44509
H	7.02552	1.44068	1.08212
