18
  This energy is -1.6061 and Call times are: 73817
C	0.50822	-0.204569	-0.993109
C	0.770287	0.911936	-0.254792
C	-0.0508594	0.812312	0.909644
C	-0.742229	-0.356278	0.780104
O	-0.413181	-0.990269	-0.376094
H	0.906038	-0.550978	-1.96109
H	1.4715	1.72419	-0.505058
H	-0.112896	1.53197	1.74171
H	-1.48696	-0.841304	1.43232
C	5.17164	0.979156	-0.315555
C	5.51964	-0.318517	-0.625533
N	4.63605	-1.20055	-0.0984712
C	3.74329	-0.452913	0.536068
N	4.02222	0.868257	0.434591
H	5.64481	1.94159	-0.567297
H	6.39245	-0.634143	-1.22004
H	2.86565	-0.821484	1.09117
H	3.4684	1.6577	0.848495
