18
  This energy is -0.9913 and Call times are: 114504
C	1.11086	-0.136964	0.183413
C	0.538614	-0.360338	-1.03438
C	-0.853157	-0.0852728	-0.868758
C	-1.00854	0.281908	0.435622
O	0.180648	0.255923	1.09301
H	2.15495	-0.22089	0.527038
H	1.04571	-0.686127	-1.95678
H	-1.63971	-0.15539	-1.63721
H	-1.90096	0.580708	1.00969
C	5.62517	-0.228899	1.13225
C	6.19559	0.75959	0.358527
N	5.70305	0.737334	-0.903781
C	4.83039	-0.261164	-0.91312
N	4.74726	-0.875143	0.290919
H	5.77678	-0.508857	2.18685
H	6.95371	1.48844	0.688498
H	4.22503	-0.585527	-1.77484
H	4.13139	-1.6885	0.536706
