18
  This energy is -0.8221 and Call times are: 81758
C	0.722774	0.84142	-0.236665
C	1.14492	-0.411476	0.0986174
C	-0.04029	-1.17722	0.320023
C	-1.08208	-0.324663	0.100493
O	-0.634413	0.91242	-0.240434
H	1.281	1.75719	-0.491631
H	2.18646	-0.761341	0.181692
H	-0.100405	-2.23884	0.608893
H	-2.17296	-0.474356	0.153591
C	6.07464	0.724028	0.919325
C	7.25435	0.370409	0.299357
N	7.02932	-0.483848	-0.728317
C	5.71499	-0.659518	-0.745823
N	5.09443	0.0475541	0.228112
H	5.87009	1.38707	1.77494
H	8.26386	0.716364	0.575167
H	5.15485	-1.29513	-1.45044
H	4.06311	0.0751819	0.420102
