18
  This energy is -1.3236 and Call times are: 67143
C	0.531784	-0.89621	-0.447678
C	0.858754	0.38648	-0.77657
C	-0.0190342	1.22032	-0.0187317
C	-0.80492	0.373565	0.706366
O	-0.482268	-0.922816	0.456758
H	0.940005	-1.86371	-0.783159
H	1.63973	0.71274	-1.48207
H	-0.0539574	2.32162	-0.0198244
H	-1.61806	0.566266	1.42534
C	5.59699	0.86572	-0.0205234
C	5.45799	-0.153026	-0.939207
N	4.4342	-0.975755	-0.605323
C	3.93995	-0.469332	0.516228
N	4.60683	0.641512	0.909791
H	6.30678	1.70634	0.0351933
H	6.07808	-0.30914	-1.83696
H	3.09033	-0.872254	1.09072
H	4.40756	1.22148	1.76137
