18
  This energy is -1.7468 and Call times are: 43814
C	0.162255	0.213068	1.10212
C	0.371695	-1.01999	0.557991
C	0.0652612	-0.891526	-0.83115
C	-0.304384	0.408692	-1.01327
O	-0.250952	1.09782	0.156881
H	0.270091	0.584564	2.13441
H	0.708216	-1.92884	1.08225
H	0.116954	-1.68097	-1.59809
H	-0.622921	0.958931	-1.91384
C	4.13733	1.17509	-0.0180424
C	4.6429	0.388847	0.995549
N	4.55847	-0.926806	0.681802
C	4.00263	-0.956644	-0.521853
N	3.72991	0.285487	-0.986958
H	4.04184	2.26824	-0.11518
H	5.06707	0.747323	1.94761
H	3.77305	-1.86101	-1.10807
H	3.29161	0.525195	-1.90983
