18
  This energy is -1.3298 and Call times are: 34467
C	0.325531	0.621846	0.890919
C	0.827658	-0.622459	0.646077
C	0.184023	-1.07631	-0.545505
C	-0.654602	-0.0692856	-0.923632
O	-0.581028	0.975638	-0.0577605
H	0.529392	1.34717	1.69566
H	1.5762	-1.16617	1.24454
H	0.33431	-2.04188	-1.05461
H	-1.3463	0.0245435	-1.77686
C	5.38313	-0.665196	-0.573858
C	4.45065	0.183033	-1.13255
N	3.71006	0.793372	-0.17573
C	4.18129	0.325558	0.972186
N	5.19102	-0.557135	0.785408
H	6.14443	-1.31635	-1.03207
H	4.299	0.365567	-2.2089
H	3.82335	0.595934	1.97867
H	5.72568	-1.06284	1.53351
