18
  This energy is -1.0965 and Call times are: 46147
C	0.556395	0.792463	-0.590617
C	-0.572401	1.07109	0.122518
C	-0.973043	-0.16355	0.718558
C	-0.0537073	-1.08766	0.317039
O	0.887579	-0.521218	-0.483046
H	1.20773	1.4326	-1.20807
H	-1.07273	2.04804	0.219138
H	-1.84577	-0.334191	1.36919
H	0.0401731	-2.16541	0.528921
C	4.00146	0.291987	0.550222
C	5.22049	0.927642	0.655243
N	6.15478	0.323631	-0.11857
C	5.51777	-0.682907	-0.701427
N	4.21691	-0.744363	-0.330543
H	3.02834	0.49694	1.02412
H	5.44262	1.81127	1.2755
H	5.95616	-1.40557	-1.4084
H	3.50758	-1.44751	-0.652576
