18
  This energy is -0.9573 and Call times are: 23879
C	-0.940179	0.612092	-0.166755
C	-0.895561	-0.435034	0.70612
C	0.437151	-0.944307	0.638022
C	1.08929	-0.163433	-0.270455
O	0.263274	0.792182	-0.771967
H	-1.75683	1.29895	-0.443453
H	-1.71857	-0.811091	1.33487
H	0.852886	-1.79373	1.20348
H	2.12698	-0.185175	-0.641904
C	5.23647	-0.285762	-1.13991
C	5.88746	-0.985878	-0.146335
N	5.7557	-0.368733	1.05295
C	5.02574	0.710142	0.80432
N	4.68759	0.805031	-0.503443
H	5.12855	-0.480086	-2.21886
H	6.44986	-1.92525	-0.27334
H	4.71003	1.46414	1.54327
H	4.11617	1.56478	-0.947866
