18
  This energy is -0.8508 and Call times are: 89002
C	-0.523503	-0.481977	0.883201
C	0.612436	-1.00125	0.335135
C	0.96339	-0.1272	-0.73864
C	0.0109327	0.849028	-0.751953
O	-0.905028	0.648089	0.23174
H	-1.14759	-0.817983	1.72751
H	1.14936	-1.90874	0.654921
H	1.82652	-0.222278	-1.41692
H	-0.124842	1.72917	-1.40169
C	5.70615	0.941771	-0.635948
C	4.81226	-0.0445378	-0.99552
N	4.69924	-0.980197	-0.0217237
C	5.5199	-0.575884	0.938314
N	6.15039	0.578242	0.615726
H	6.04624	1.84645	-1.16456
H	4.24685	-0.0977853	-1.94015
H	5.69715	-1.08726	1.89816
H	6.84525	1.09725	1.20654
