18
  This energy is -0.8652 and Call times are: 29647
C	0.707078	0.302398	-0.833664
C	-0.588164	0.727017	-0.784473
C	-1.14633	0.143843	0.393864
C	-0.142899	-0.585664	0.960718
O	0.996153	-0.500151	0.224334
H	1.51358	0.498149	-1.55926
H	-1.09927	1.3849	-1.50562
H	-2.17624	0.259673	0.767972
H	-0.113026	-1.20134	1.87466
C	4.99235	0.776433	-0.530547
C	4.63674	-0.455433	-0.0234053
N	5.70549	-1.08721	0.519869
C	6.72026	-0.250465	0.350404
N	6.34148	0.887519	-0.278174
H	4.40057	1.55588	-1.03631
H	3.62816	-0.89967	-0.0397753
H	7.76166	-0.421174	0.667548
H	6.95806	1.6997	-0.526049
