18
  This energy is -1.2968 and Call times are: 35678
C	-0.418473	-0.902851	0.544189
C	0.731931	-0.282961	0.934932
C	0.927158	0.793713	0.0169033
C	-0.12118	0.736718	-0.853793
O	-0.952848	-0.293335	-0.546658
H	-0.9543	-1.77504	0.953374
H	1.37821	-0.556452	1.78441
H	1.7549	1.52098	0.0130833
H	-0.385368	1.36262	-1.72195
C	5.36844	0.304271	1.0359
C	4.36684	-0.618333	0.819685
N	4.07183	-0.719249	-0.49914
C	4.88732	0.13749	-1.09881
N	5.68896	0.779339	-0.216207
H	5.85942	0.645013	1.9613
H	3.85177	-1.21297	1.59167
H	4.93915	0.334151	-2.1818
H	6.41612	1.50132	-0.442588
