18
  This energy is -0.6897 and Call times are: 6381
C	-1.01936	0.479261	0.132701
C	-0.458745	0.283053	-1.09514
C	0.805897	-0.335243	-0.853247
C	0.906444	-0.462285	0.501051
O	-0.199376	0.0299732	1.11899
H	-1.98287	0.921993	0.434176
H	-0.892268	0.547221	-2.07308
H	1.54785	-0.645776	-1.60635
H	1.70256	-0.879851	1.13909
C	5.58477	1.04403	0.172115
C	4.9613	-0.144159	-0.145107
N	5.861	-1.14981	-0.270434
C	7.03815	-0.587637	-0.0318696
N	6.92472	0.734022	0.240053
H	5.18314	2.05455	0.348439
H	3.8784	-0.293814	-0.285794
H	8.01482	-1.09775	-0.0432572
H	7.70823	1.39638	0.460614
