18
  This energy is -1.6645 and Call times are: 36621
C	0.024328	-0.256292	1.10459
C	0.427357	0.956088	0.627017
C	0.250596	0.896896	-0.789094
C	-0.244846	-0.34643	-1.05187
O	-0.389362	-1.0642	0.0930836
H	-0.0161536	-0.661867	2.12886
H	0.810672	1.80674	1.21315
H	0.469612	1.69253	-1.51922
H	-0.531274	-0.834366	-1.99799
C	6.08722	-1.06996	0.0539098
C	5.37565	-0.536873	-0.999958
N	4.95872	0.722027	-0.720941
C	5.40992	0.968992	0.501373
N	6.09665	-0.0805869	1.01164
H	6.5714	-2.05064	0.18572
H	5.15563	-1.03807	-1.95664
H	5.26598	1.90198	1.06974
H	6.54992	-0.131061	1.95677
