18
  This energy is -1.2725 and Call times are: 42657
C	-0.507816	0.80954	-0.610876
C	-0.760797	-0.517	-0.802363
C	0.0565723	-1.2111	0.141168
C	0.73688	-0.24744	0.825943
O	0.40445	0.992481	0.379738
H	-0.906672	1.70907	-1.10788
H	-1.4535	-0.962088	-1.53459
H	0.123607	-2.30135	0.28595
H	1.47531	-0.313678	1.64177
C	4.43794	0.920584	0.470856
C	5.45789	0.959558	-0.456146
N	5.87248	-0.289525	-0.779274
C	5.11263	-1.10031	-0.0554837
N	4.23175	-0.418885	0.714774
H	3.86341	1.72443	0.957979
H	5.90204	1.86658	-0.897605
H	5.15939	-2.20123	-0.05118
H	3.52615	-0.832184	1.37247
