18
  This energy is -0.8398 and Call times are: 130138
C	-0.154272	-0.635786	-0.926487
C	0.699377	0.427777	-0.904305
C	0.620143	0.965246	0.416667
C	-0.27493	0.182676	1.0851
O	-0.757826	-0.80004	0.28006
H	-0.417286	-1.34556	-1.72792
H	1.32237	0.796808	-1.73484
H	1.16949	1.83385	0.813962
H	-0.64819	0.220735	2.12167
C	5.95453	-0.933692	0.453664
C	6.24439	0.394207	0.685626
N	5.40316	1.20512	-0.000863421
C	4.5945	0.383411	-0.656212
N	4.88633	-0.916711	-0.415158
H	6.41737	-1.85869	0.832729
H	7.04545	0.781687	1.33602
H	3.77172	0.680654	-1.32623
H	4.39288	-1.75254	-0.814097
