18
  This energy is -1.1081 and Call times are: 136051
C	0.159861	0.663262	0.906051
C	-0.84487	0.880903	0.00965675
C	-0.720469	-0.146969	-0.974275
C	0.349299	-0.901989	-0.592289
O	0.899005	-0.421513	0.553999
H	0.450719	1.2014	1.82314
H	-1.59805	1.68464	0.0384261
H	-1.35802	-0.298634	-1.86006
H	0.813249	-1.79403	-1.04424
C	5.61834	-0.720054	0.152561
C	5.05849	-0.335811	-1.04747
N	4.0121	0.502898	-0.852178
C	3.92313	0.638452	0.464003
N	4.86953	-0.079242	1.11425
H	6.46825	-1.38207	0.382574
H	5.39085	-0.648731	-2.0507
H	3.18365	1.25106	1.00448
H	5.00675	-0.136605	2.15307
