18
  This energy is -1.3792 and Call times are: 78271
C	-0.753115	-0.811388	-0.246714
C	-0.935274	0.489924	-0.612476
C	0.208977	1.19555	-0.129883
C	0.989358	0.263151	0.488182
O	0.417127	-0.968002	0.426351
H	-1.37406	-1.70866	-0.403472
H	-1.7897	0.910719	-1.16653
H	0.418121	2.27223	-0.235374
H	1.96052	0.347688	1.00291
C	4.43815	-1.16388	0.065494
C	4.83974	-0.325657	1.08395
N	4.92315	0.957606	0.656417
C	4.57464	0.915649	-0.622411
N	4.27293	-0.341115	-1.02627
H	4.26405	-2.25137	0.0411929
H	5.07078	-0.623843	2.11959
H	4.52347	1.77574	-1.30933
H	3.97073	-0.633125	-1.98787
