18
  This energy is -1.4601 and Call times are: 58715
C	-0.18226	-1.08332	0.282116
C	-0.451422	-0.0517631	1.13288
C	-0.0952743	1.13884	0.428791
C	0.360085	0.729731	-0.790083
O	0.313978	-0.624328	-0.896901
H	-0.298224	-2.17372	0.395434
H	-0.859797	-0.122183	2.15385
H	-0.172612	2.17507	0.795305
H	0.739666	1.29594	-1.65644
C	3.99505	0.608711	-0.60549
C	5.35998	0.803675	-0.615641
N	5.98568	-0.0786627	0.200748
C	5.01262	-0.818192	0.715406
N	3.79373	-0.442969	0.26032
H	3.17993	1.12666	-1.13544
H	5.9045	1.56519	-1.19741
H	5.13698	-1.64753	1.43023
H	2.87111	-0.871537	0.517946
