18
  This energy is -1.4741 and Call times are: 80311
C	0.602192	-0.557791	-0.782709
C	0.535118	0.804029	-0.746374
C	-0.304944	1.12465	0.363409
C	-0.677061	-0.0695509	0.907277
O	-0.132193	-1.10768	0.219945
H	1.13113	-1.24585	-1.46245
H	1.02778	1.51179	-1.43227
H	-0.593111	2.13042	0.709052
H	-1.31699	-0.311502	1.77169
C	3.88496	1.05719	-0.0467197
C	4.04804	0.169377	-1.089
N	4.68521	-0.954099	-0.678727
C	4.91654	-0.763985	0.613157
N	4.45297	0.433884	1.04188
H	3.42041	2.05514	-0.00405067
H	3.71735	0.31935	-2.12967
H	5.42169	-1.46948	1.29237
H	4.51452	0.815162	2.01763
