18
  This energy is -1.5653 and Call times are: 68587
C	-0.173545	-0.441306	1.03031
C	1.00399	0.149893	0.677802
C	0.838389	0.574713	-0.675794
C	-0.425729	0.205613	-1.03096
O	-1.05812	-0.416155	-0.00115356
H	-0.502533	-0.911556	1.97152
H	1.8994	0.274349	1.30777
H	1.57986	1.09403	-1.30398
H	-0.98514	0.326457	-1.97314
C	4.27281	-0.783232	-0.815222
C	4.35344	-0.98994	0.545629
N	4.76588	0.130647	1.18648
C	4.94045	1.02912	0.226846
N	4.65618	0.526653	-0.998025
H	3.97953	-1.45322	-1.63902
H	4.12141	-1.92757	1.07654
H	5.27512	2.06977	0.365672
H	4.71635	1.03757	-1.91268
