18
  This energy is -0.982 and Call times are: 31204
C	-0.131413	0.58608	-0.962103
C	-1.10696	0.514188	-0.0115716
C	-0.575085	-0.30107	1.03369
C	0.678534	-0.655401	0.629636
O	0.966033	-0.122398	-0.587025
H	-0.0958978	1.10187	-1.93573
H	-2.10136	0.987748	-0.0433015
H	-1.07511	-0.585286	1.97353
H	1.4541	-1.27396	1.11039
C	4.97673	1.06481	0.417959
C	4.15796	0.784306	-0.655395
N	4.05941	-0.551908	-0.858697
C	4.81416	-1.09827	0.0849454
N	5.38885	-0.165085	0.880229
H	5.28499	2.02072	0.870454
H	3.63658	1.52213	-1.28676
H	4.98084	-2.17659	0.23886
H	6.02682	-0.344314	1.69394
