18
  This energy is -0.9587 and Call times are: 59035
C	0.116326	-0.199003	1.11053
C	-0.54933	0.889937	0.629394
C	-0.481848	0.792032	-0.793974
C	0.219086	-0.348093	-1.05699
O	0.592226	-0.965988	0.0945213
H	0.317997	-0.536414	2.14044
H	-1.03877	1.68261	1.21779
H	-0.908563	1.49371	-1.52859
H	0.514651	-0.821729	-2.00755
C	4.01353	0.123824	-0.435127
C	4.59438	0.873232	0.565945
N	5.85953	0.457087	0.8164
C	6.06277	-0.546668	-0.0260919
N	4.97938	-0.786431	-0.802216
H	3.01453	0.172241	-0.896871
H	4.12325	1.70674	1.11198
H	6.98647	-1.14065	-0.1166
H	4.89184	-1.52501	-1.54255
