18
  This energy is -0.7863 and Call times are: 34435
C	-0.994275	-0.51367	0.184286
C	-0.345419	-0.586448	-1.01324
C	0.852181	0.175883	-0.856004
C	0.82944	0.647215	0.423724
O	-0.291043	0.235795	1.07354
H	-1.94963	-0.945037	0.525572
H	-0.676883	-1.12312	-1.91668
H	1.63388	0.347791	-1.6133
H	1.54043	1.27656	0.983788
C	6.94817	-0.00788779	-0.258339
C	6.2579	-0.951658	0.472393
N	4.94639	-0.626375	0.575614
C	4.82351	0.514852	-0.0885567
N	6.00246	0.929179	-0.61009
H	8.01002	0.0609179	-0.543424
H	6.6827	-1.86146	0.92698
H	3.89315	1.08959	-0.224014
H	6.16512	1.7986	-1.17481
