18
  This energy is -1.3063 and Call times are: 61223
C	-0.39771	-0.419167	0.975975
C	0.148516	0.827327	0.885077
C	0.526641	0.989725	-0.482683
C	0.178101	-0.171867	-1.10686
O	-0.387756	-1.04357	-0.231103
H	-0.823552	-0.97024	1.83051
H	0.272708	1.55904	1.69949
H	1.0023	1.87238	-0.939589
H	0.278381	-0.496979	-2.15543
C	5.18163	-0.121857	1.0669
C	3.85772	0.136632	0.781263
N	3.65247	0.214061	-0.556044
C	4.84452	0.00440464	-1.09797
N	5.79972	-0.203213	-0.160914
H	5.71003	-0.249415	2.02505
H	3.04694	0.268647	1.51616
H	5.07404	-0.00784339	-2.17566
H	6.81728	-0.390479	-0.33629
