18
  This energy is -1.4543 and Call times are: 86261
C	0.106479	0.294507	-1.09011
C	-0.909027	-0.499147	-0.643747
C	-0.704273	-0.642159	0.762575
C	0.41828	0.0767269	1.05145
O	0.92655	0.655475	-0.068245
H	0.352999	0.66917	-2.09713
H	-1.72086	-0.939682	-1.24454
H	-1.32578	-1.21562	1.46894
H	0.949696	0.252403	2.00118
C	4.38677	0.287252	1.12121
C	5.44136	0.716044	0.34332
N	5.37603	0.187368	-0.902771
C	4.28505	-0.566533	-0.897941
N	3.65352	-0.539455	0.29957
H	4.11524	0.504651	2.16646
H	6.24822	1.39741	0.658876
H	3.90273	-1.1597	-1.74424
H	2.77307	-1.0508	0.553708
