18
  This energy is -1.1501 and Call times are: 115605
C	0.96211	-0.138889	-0.584341
C	-0.0755702	0.611741	-1.05354
C	-1.09017	0.546708	-0.0503082
C	-0.582929	-0.237921	0.943392
O	0.669507	-0.66532	0.633963
H	1.94903	-0.372948	-1.01615
H	-0.121892	1.15658	-2.01015
H	-2.07955	1.0311	-0.0744196
H	-1.00773	-0.562467	1.90748
C	4.46805	1.09408	0.0388815
C	4.12893	0.0408177	0.861551
N	4.82199	-1.07702	0.535032
C	5.58815	-0.718603	-0.486317
N	5.41131	0.580949	-0.823184
H	4.11662	2.13764	0.00696052
H	3.3966	0.067455	1.68485
H	6.29696	-1.36814	-1.02477
H	5.89969	1.09895	-1.59417
