18
  This energy is -1.3643 and Call times are: 32971
C	0.0558621	-0.495578	-1.01867
C	1.16109	-0.283167	-0.248133
C	0.691922	0.352828	0.941618
C	-0.658593	0.47292	0.793097
O	-1.06422	-0.0400076	-0.398282
H	-0.0644989	-0.954835	-2.01358
H	2.2023	-0.547798	-0.493002
H	1.29704	0.67935	1.80261
H	-1.43176	0.898586	1.45361
C	5.01929	-0.955288	0.627471
C	6.01169	-0.852556	-0.324229
N	6.0577	0.395874	-0.849411
C	5.09749	1.06509	-0.225892
N	4.44244	0.294209	0.674246
H	4.69361	-1.80093	1.25386
H	6.69533	-1.65688	-0.641334
H	4.83143	2.12172	-0.39011
H	3.64674	0.591683	1.29039
