18
  This energy is -1.2913 and Call times are: 11138
C	0.915904	0.643799	0.181777
C	0.544752	0.237385	-1.0662
C	-0.638202	-0.5429	-0.887607
C	-0.885507	-0.544424	0.453739
O	0.0536699	0.175463	1.12211
H	1.76142	1.2603	0.528594
H	1.05301	0.464301	-2.01713
H	-1.22949	-1.04125	-1.67254
H	-1.68596	-1.01361	1.04905
C	5.15632	-0.707874	-0.875153
C	6.45015	-0.472874	-0.460521
N	6.4802	0.399245	0.57631
C	5.20984	0.704124	0.804033
N	4.37275	0.0621415	-0.0449253
H	4.75125	-1.34724	-1.67557
H	7.3625	-0.91698	-0.89092
H	4.83687	1.3919	1.57998
H	3.32622	0.136757	-0.0665742
