18
  This energy is -2.1455 and Call times are: 85049
C	0.587371	0.745521	0.620962
C	0.424629	0.884511	-0.726098
C	-0.3605	-0.233652	-1.14251
C	-0.60823	-0.957227	-0.013158
O	-0.0368312	-0.373801	1.07318
H	1.11812	1.36651	1.36119
H	0.818004	1.6933	-1.36266
H	-0.696896	-0.464185	-2.16613
H	-1.16991	-1.89206	0.147665
C	3.60347	-0.368916	0.945065
C	4.71891	0.441545	0.935016
N	5.14795	0.666655	-0.330592
C	4.30189	-0.001612	-1.10275
N	3.35232	-0.642588	-0.380912
H	2.99107	-0.757329	1.7743
H	5.2218	0.867889	1.8183
H	4.33178	-0.0554084	-2.20296
H	2.57322	-1.23513	-0.759257
