18
  This energy is -1.3182 and Call times are: 69895
C	0.936431	-0.222413	-0.600026
C	-0.273109	0.00055312	-1.18966
C	-1.19038	0.241054	-0.12154
C	-0.4604	0.143825	1.02652
O	0.840512	-0.138759	0.75305
H	1.92743	-0.447981	-1.02699
H	-0.496932	-0.00389131	-2.26854
H	-2.2668	0.460153	-0.207605
H	-0.745698	0.25289	2.08575
C	4.8057	0.95355	-0.689785
C	5.6208	-0.152985	-0.800849
N	5.34136	-1.06437	0.162373
C	4.35664	-0.525286	0.868309
N	3.99796	0.691323	0.394179
H	4.7453	1.8782	-1.28553
H	6.40552	-0.310054	-1.55874
H	3.86156	-0.978413	1.74227
H	3.24753	1.31585	0.778992
