18
  This energy is -1.619 and Call times are: 29035
C	0.587847	-0.250258	-0.937127
C	0.450791	1.0276	-0.480326
C	-0.344063	0.936706	0.702916
C	-0.622563	-0.388673	0.864725
O	-0.0612956	-1.12814	-0.127837
H	1.1151	-0.660618	-1.81398
H	0.867607	1.94244	-0.931354
H	-0.666058	1.76706	1.3517
H	-1.20128	-0.925504	1.63424
C	5.83234	0.756031	0.871508
C	5.56536	1.0674	-0.444894
N	5.34241	-0.0515594	-1.17614
C	5.47059	-1.0533	-0.316657
N	5.76586	-0.618091	0.931143
H	6.05743	1.39378	1.74108
H	5.52962	2.0794	-0.880131
H	5.3586	-2.12482	-0.548
H	5.91561	-1.21391	1.78193
