18
  This energy is -1.1069 and Call times are: 5184
C	-0.691021	-0.880819	0.181796
C	-0.382167	-0.441346	-1.07194
C	0.500185	0.667238	-0.891346
C	0.652633	0.807343	0.456802
O	-0.0677796	-0.129734	1.12755
H	-1.33333	-1.70652	0.529507
H	-0.739811	-0.85621	-2.02801
H	0.96268	1.2828	-1.67956
H	1.23803	1.52412	1.05579
C	4.62563	1.15868	0.110242
C	4.08884	0.328869	-0.851224
N	4.50196	-0.95022	-0.678656
C	5.29203	-0.91406	0.385819
N	5.39873	0.335015	0.897695
H	4.51585	2.24094	0.284018
H	3.41087	0.630184	-1.66634
H	5.81777	-1.77311	0.832882
H	5.9629	0.621438	1.73491
