18
  This energy is -1.5708 and Call times are: 46403
C	-0.994067	-0.540318	0.0792984
C	-0.158621	-0.387471	1.14656
C	0.972999	0.333657	0.657141
C	0.729173	0.557822	-0.665989
O	-0.467713	0.0309063	-1.0359
H	-1.97768	-1.02903	-0.0150869
H	-0.322769	-0.746519	2.17526
H	1.86068	0.644893	1.23094
H	1.32009	1.07249	-1.44135
C	4.32907	0.343726	-1.09249
C	4.61721	-0.938717	-0.676014
N	4.88492	-0.972626	0.652027
C	4.76332	0.284002	1.05789
N	4.42933	1.11606	0.0431307
H	4.06845	0.747925	-2.08357
H	4.63674	-1.84013	-1.30999
H	4.9078	0.650093	2.08713
H	4.27598	2.15211	0.108918
