18
  This energy is -1.8247 and Call times are: 67664
C	-0.183385	0.905401	-0.658042
C	-0.332365	-0.371338	-1.11424
C	-0.0169083	-1.22045	-0.00988084
C	0.296994	-0.387638	1.02369
O	0.200594	0.914196	0.645605
H	-0.318639	1.87991	-1.15532
H	-0.634128	-0.68383	-2.12685
H	-0.0254568	-2.32219	0.00400075
H	0.600667	-0.594586	2.06301
C	3.6858	1.02769	-0.532028
C	4.06136	-0.153931	-1.13523
N	4.22375	-1.13984	-0.219733
C	3.94996	-0.571997	0.946982
N	3.62011	0.734336	0.811778
H	3.46789	2.02336	-0.950002
H	4.21807	-0.312745	-2.21461
H	3.97566	-1.06692	1.93117
H	3.36326	1.39737	1.58358
