18
  This energy is -0.9699 and Call times are: 135666
C	0.406377	-1.04748	-0.155055
C	-0.476178	-0.746325	0.840322
C	-0.748342	0.649977	0.712322
C	-0.00807654	1.07882	-0.349975
O	0.703265	0.0553346	-0.891714
H	0.890954	-1.99566	-0.440349
H	-0.893655	-1.43805	1.58954
H	-1.41879	1.2561	1.34256
H	0.0978118	2.07346	-0.813368
C	5.06039	0.844947	-0.807258
C	4.2543	-0.257033	-0.614872
N	4.71055	-1.02412	0.4049
C	5.79555	-0.400384	0.843486
N	6.04856	0.73176	0.145044
H	5.00267	1.67403	-1.53033
H	3.35169	-0.512354	-1.19362
H	6.44197	-0.729117	1.67313
H	6.84564	1.39664	0.299528
