18
  This energy is -2.2541 and Call times are: 40727
C	0.25111	-1.03423	0.392066
C	0.668557	-0.595094	-0.82993
C	0.161466	0.733632	-0.962082
C	-0.521092	0.989166	0.190823
O	-0.476698	-0.0795647	1.02919
H	0.403774	-1.99203	0.916059
H	1.27294	-1.15107	-1.56457
H	0.294515	1.41269	-1.81956
H	-1.07399	1.88016	0.53094
C	3.90695	-1.05438	-0.174039
C	5.12686	-0.622603	-0.650021
N	5.38211	0.649159	-0.257623
C	4.32459	1.005	0.459067
N	3.40704	0.0123644	0.538941
H	3.37688	-2.01327	-0.288412
H	5.8274	-1.20594	-1.26954
H	4.17075	1.98046	0.94799
H	2.48962	0.0484821	1.04717
