18
  This energy is -1.0606 and Call times are: 98783
C	-0.509122	0.536516	-0.859852
C	-0.28188	1.13681	0.343633
C	0.368319	0.156025	1.15321
C	0.481006	-0.957039	0.372974
O	-0.0496435	-0.742503	-0.859664
H	-0.982307	0.907149	-1.78396
H	-0.545659	2.16695	0.632323
H	0.708894	0.27452	2.19439
H	0.912509	-1.95108	0.575306
C	4.95108	1.16557	-0.1547
C	3.98142	0.463292	0.529203
N	4.23616	-0.867574	0.508881
C	5.35958	-0.990462	-0.184992
N	5.83019	0.207045	-0.607
H	5.07364	2.24364	-0.345179
H	3.10258	0.893054	1.03693
H	5.8808	-1.93399	-0.413701
H	6.69919	0.373594	-1.17124
