18
  This energy is -0.9463 and Call times are: 125501
C	0.355992	1.0764	0.0321431
C	-0.911592	0.737091	-0.339979
C	-0.975959	-0.687257	-0.255089
C	0.257973	-1.09261	0.161415
O	1.08406	-0.0286205	0.341759
H	0.855862	2.05531	0.116556
H	-1.72018	1.42119	-0.643777
H	-1.84437	-1.32708	-0.479982
H	0.668283	-2.09554	0.363944
C	4.2876	-0.742887	0.0271279
C	5.06844	-0.352002	1.0942
N	6.03318	0.51515	0.701967
C	5.85152	0.661666	-0.603466
N	4.81119	-0.076317	-1.0581
H	3.42515	-1.42545	-0.0347044
H	4.95299	-0.680144	2.14007
H	6.45163	1.29702	-1.2746
H	4.46871	-0.130412	-2.04858
