18
  This energy is -0.6842 and Call times are: 117263
C	0.639268	0.482942	-0.80281
C	1.17118	-0.28683	0.189608
C	0.0670951	-0.708504	0.991669
C	-1.04204	-0.159188	0.418575
O	-0.711167	0.57164	-0.678431
H	1.10883	1.01628	-1.64561
H	2.23438	-0.533012	0.341609
H	0.104051	-1.34663	1.88918
H	-2.10871	-0.212571	0.691763
C	6.56308	0.847877	0.672125
C	5.24241	0.453915	0.630068
N	5.06099	-0.553184	-0.258384
C	6.26453	-0.783124	-0.765571
N	7.20421	0.0359245	-0.236653
H	7.07497	1.62272	1.26468
H	4.41722	0.878307	1.22487
H	6.51382	-1.53953	-1.52711
H	8.2264	0.0497884	-0.47369
