18
  This energy is -1.2157 and Call times are: 14909
C	-0.31915	-1.01378	-0.395975
C	0.961649	-0.751711	-0.00706876
C	0.968525	0.610015	0.423945
C	-0.308679	1.05987	0.260377
O	-1.10854	0.081379	-0.23942
H	-0.7893	-1.92697	-0.79634
H	1.81589	-1.44751	-0.0221941
H	1.82916	1.17993	0.809443
H	-0.769262	2.04139	0.459724
C	5.22748	0.402847	0.999764
C	6.4871	0.676974	0.510544
N	6.70156	0.0446575	-0.668734
C	5.57924	-0.619216	-0.910187
N	4.65958	-0.435513	0.0665769
H	4.71221	0.733985	1.9154
H	7.24502	1.31968	0.987361
H	5.37758	-1.25501	-1.7873
H	3.69728	-0.85231	0.105579
