18
  This energy is -0.7201 and Call times are: 127885
C	0.904303	0.674362	-0.117787
C	0.147872	0.658453	1.01708
C	-0.882821	-0.303126	0.786531
C	-0.665246	-0.789939	-0.468876
O	0.422095	-0.204072	-1.03585
H	1.79855	1.25766	-0.392243
H	0.300399	1.26319	1.92545
H	-1.68832	-0.592169	1.4806
H	-1.2051	-1.54458	-1.06413
C	5.68022	1.12735	0.285839
C	4.60222	0.345289	0.642847
N	4.71969	-0.907652	0.140004
C	5.8662	-0.902903	-0.52642
N	6.48309	0.301121	-0.468445
H	5.92468	2.17831	0.507758
H	3.74181	0.662659	1.25425
H	6.30117	-1.75389	-1.07492
H	7.39856	0.556567	-0.913327
