18
  This energy is -1.6807 and Call times are: 4648
C	-0.403953	-0.329895	-1.00717
C	-0.520455	0.952702	-0.558008
C	0.0999099	0.974356	0.72838
C	0.540744	-0.29692	0.951753
O	0.241528	-1.10675	-0.0978478
H	-0.734149	-0.809574	-1.94319
H	-0.995587	1.79869	-1.08017
H	0.201404	1.84047	1.40191
H	1.07373	-0.746471	1.80562
C	5.53241	0.029288	-1.17609
C	4.94845	0.958121	-0.340986
N	5.09964	0.609085	0.959715
C	5.77484	-0.531943	0.931639
N	6.05952	-0.923373	-0.333008
H	5.60768	-0.0195601	-2.27404
H	4.42073	1.87386	-0.65369
H	6.08681	-1.12278	1.80789
H	6.58219	-1.78786	-0.617149
