18
  This energy is -1.3046 and Call times are: 35584
C	-0.447424	0.940722	-0.448614
C	-0.748845	-0.305347	-0.914266
C	-0.00103976	-1.21592	-0.106944
C	0.691339	-0.4459	0.780784
O	0.430673	0.873691	0.586501
H	-0.786875	1.94098	-0.764055
H	-1.4295	-0.557948	-1.74312
H	0.0133815	-2.31488	-0.185393
H	1.39239	-0.712605	1.58865
C	4.43255	0.499404	-1.05741
C	3.99315	-0.781181	-0.796294
N	3.96169	-1.02474	0.536448
C	4.37998	0.100467	1.09998
N	4.67627	1.04986	0.181046
H	4.58399	1.03992	-2.00528
H	3.69828	-1.53373	-1.54567
H	4.48811	0.283219	2.18125
H	5.02519	2.02037	0.375035
