18
  This energy is -1.1223 and Call times are: 137881
C	-0.850477	0.750317	-0.0106465
C	-0.749115	-0.225468	0.936952
C	0.434971	-0.958098	0.618657
C	0.952659	-0.365338	-0.495348
O	0.18042	0.679746	-0.893417
H	-1.59851	1.54537	-0.164267
H	-1.43897	-0.410754	1.77592
H	0.845718	-1.82436	1.16177
H	1.85217	-0.58967	-1.09184
C	4.69158	0.111104	-1.09815
C	5.39837	1.05156	-0.379039
N	5.71109	0.588795	0.85569
C	5.20025	-0.634105	0.902392
N	4.57546	-0.96861	-0.251439
H	4.27685	0.133042	-2.11847
H	5.68827	2.05572	-0.729008
H	5.25482	-1.32767	1.75692
H	4.09426	-1.87732	-0.461087
