18
  This energy is -0.8764 and Call times are: 136179
C	-0.0443927	0.194	1.1166
C	1.01196	-0.434983	0.525943
C	0.703782	-0.491812	-0.867583
C	-0.513688	0.10746	-1.00547
O	-0.985384	0.532277	0.196211
H	-0.24366	0.456986	2.16845
H	1.91736	-0.820279	1.02181
H	1.32274	-0.929931	-1.66698
H	-1.14175	0.291374	-1.89258
C	6.66008	0.237382	0.452751
C	5.67768	-0.550107	1.01481
N	4.58187	-0.606263	0.219475
C	4.8833	0.143536	-0.831981
N	6.12549	0.674438	-0.738628
H	7.66814	0.50865	0.804533
H	5.73995	-1.07876	1.97995
H	4.2311	0.337532	-1.69872
H	6.59239	1.29984	-1.44015
