18
  This energy is -1.0428 and Call times are: 43590
C	1.0129	0.207354	0.466306
C	0.252734	1.19028	-0.0961717
C	-0.932394	0.54689	-0.566957
C	-0.791825	-0.772404	-0.25061
O	0.390342	-0.997691	0.380848
H	2.00126	0.236128	0.953712
H	0.501596	2.26099	-0.171956
H	-1.7851	1.01957	-1.08033
H	-1.45245	-1.63884	-0.418254
C	4.97264	-0.0874302	0.991904
C	6.32714	0.148369	0.887546
N	6.71786	0.187138	-0.409507
C	5.60997	-0.0238077	-1.10715
N	4.53053	-0.195188	-0.307754
H	4.31404	-0.182989	1.86977
H	7.02947	0.291218	1.72491
H	5.5327	-0.0627576	-2.20567
H	3.54466	-0.375748	-0.618752
