18
  This energy is -1.4309 and Call times are: 122615
C	1.05447	-0.0805934	-0.409876
C	0.775558	-0.209123	0.919057
C	-0.638598	-0.0482909	1.03911
C	-1.09902	0.164323	-0.227058
O	-0.0786588	0.147838	-1.12461
H	2.00528	-0.130422	-0.965512
H	1.49362	-0.398219	1.73313
H	-1.23498	-0.0878941	1.96477
H	-2.11587	0.338277	-0.615653
C	5.21265	0.611035	-1.00205
C	6.21898	-0.263898	-0.6514
N	6.00071	-0.792609	0.57715
C	4.8633	-0.247745	0.987102
N	4.34883	0.605728	0.0703181
H	5.05535	1.21686	-1.90856
H	7.09861	-0.523134	-1.26287
H	4.36256	-0.438723	1.94992
H	3.46106	1.15815	0.159432
