18
  This energy is -0.7934 and Call times are: 95772
C	0.424148	0.754594	0.732863
C	-0.734097	0.0752396	0.97228
C	-0.934703	-0.76787	-0.163079
C	0.118664	-0.529301	-0.996072
O	0.958425	0.397791	-0.46474
H	0.966058	1.50814	1.32763
H	-1.38219	0.159388	1.8594
H	-1.76926	-1.46739	-0.331265
H	0.381452	-0.948859	-1.98104
C	6.39937	-0.537713	-0.311788
C	5.95932	-0.288172	0.970876
N	4.76417	0.350619	0.961827
C	4.46393	0.496811	-0.321569
N	5.4185	-0.0224837	-1.12948
H	7.31072	-1.02909	-0.688008
H	6.48278	-0.557608	1.90267
H	3.55782	0.976694	-0.725177
H	5.41254	-0.0309967	-2.17884
