18
  This energy is -1.4016 and Call times are: 71479
C	0.889044	0.0638899	-0.70137
C	0.0446085	1.11491	-0.494841
C	-0.933222	0.653311	0.438373
C	-0.600004	-0.639041	0.719737
O	0.510348	-1.01553	0.0324313
H	1.78357	-0.0412928	-1.33699
H	0.104306	2.11493	-0.953635
H	-1.78241	1.22427	0.846995
H	-1.06604	-1.3865	1.38259
C	3.81441	0.45703	0.912855
C	4.53111	1.14876	-0.0405605
N	5.07841	0.304444	-0.948362
C	4.70268	-0.906469	-0.5596
N	3.93899	-0.867619	0.557927
H	3.24359	0.802159	1.78955
H	4.6631	2.24193	-0.0896781
H	4.95868	-1.85591	-1.05684
H	3.52136	-1.68991	1.05861
