18
  This energy is -0.6007 and Call times are: 64045
C	1.09998	-0.269922	-0.0599067
C	0.670609	1.01568	0.0925499
C	-0.755855	0.950261	0.124802
C	-1.07225	-0.369542	-0.0107918
O	0.0489581	-1.12908	-0.124829
H	2.11292	-0.698399	-0.134749
H	1.29568	1.91941	0.174114
H	-1.45667	1.79318	0.236344
H	-2.04409	-0.889044	-0.0407575
C	6.92807	-0.5784	-0.604029
C	6.88807	0.774762	-0.342309
N	5.78954	1.10019	0.381465
C	5.15048	-0.0467205	0.568045
N	5.79685	-1.0884	-0.00701169
H	7.65715	-1.19398	-1.15451
H	7.63217	1.52207	-0.662755
H	4.20517	-0.180494	1.11826
H	5.49397	-2.09313	0.000494137
