18
  This energy is -0.9083 and Call times are: 27198
C	0.790093	-0.581909	-0.568802
C	-0.489219	-0.450964	-1.02332
C	-1.17205	0.337524	-0.0475414
C	-0.24973	0.618807	0.917122
O	0.954101	0.0651509	0.615017
H	1.66567	-1.10311	-0.989467
H	-0.909857	-0.867804	-1.95252
H	-2.22738	0.653577	-0.069757
H	-0.324243	1.19471	1.85416
C	5.26768	1.17279	-0.0712254
C	4.38487	0.352645	-0.741404
N	4.58835	-0.948615	-0.422303
C	5.59359	-0.935784	0.442548
N	6.03813	0.319698	0.686952
H	5.39784	2.26665	-0.0798917
H	3.60474	0.676534	-1.44946
H	6.04334	-1.81714	0.927486
H	6.82062	0.591465	1.33125
