18
  This energy is -1.049 and Call times are: 28008
C	-1.08563	0.152767	-0.290635
C	-0.642812	0.312221	0.989545
C	0.758339	0.0369901	0.955742
C	1.04805	-0.266356	-0.34211
O	-0.0663489	-0.200558	-1.11722
H	-2.08827	0.260051	-0.736128
H	-1.24267	0.595261	1.8694
H	1.46084	0.0642056	1.80418
H	1.99498	-0.542029	-0.834637
C	4.9218	1.07399	0.297681
C	4.60577	-0.116079	0.918178
N	5.21896	-1.16132	0.311576
C	5.91276	-0.621755	-0.681464
N	5.76643	0.723474	-0.731846
H	4.61563	2.11091	0.508842
H	3.94629	-0.239225	1.79269
H	6.54482	-1.1658	-1.4017
H	6.21158	1.37527	-1.42341
