18
  This energy is -0.6194 and Call times are: 75386
C	-1.12138	-0.0494885	0.162693
C	-0.342706	0.915342	0.731156
C	0.991487	0.646689	0.297715
C	0.910346	-0.458595	-0.497355
O	-0.372608	-0.897105	-0.590901
H	-2.206	-0.239193	0.216177
H	-0.674562	1.73409	1.38965
H	1.89975	1.21573	0.553328
H	1.68212	-1.0221	-1.04696
C	7.19113	-0.368355	-0.516795
C	6.97431	-0.204375	0.834961
N	5.7158	0.235546	1.07814
C	5.15401	0.344067	-0.118202
N	6.0029	-0.00856869	-1.1125
H	8.07733	-0.704408	-1.07827
H	7.70341	-0.395609	1.63913
H	4.12379	0.67698	-0.323243
H	5.79544	-0.00800789	-2.14119
