18
  This energy is -0.6037 and Call times are: 18592
C	0.175668	0.354366	1.063
C	1.17965	-0.137596	0.28174
C	0.574294	-0.472658	-0.967817
C	-0.746175	-0.155869	-0.839838
O	-1.00733	0.350481	0.394027
H	0.173939	0.734601	2.09773
H	2.24014	-0.252969	0.557694
H	1.07211	-0.899468	-1.85332
H	-1.5902	-0.241839	-1.54374
C	6.85548	-0.30117	-0.850667
C	5.49073	-0.147024	-0.972448
N	4.93139	0.205965	0.210367
C	5.94529	0.270557	1.06269
N	7.12655	-0.0267011	0.471216
H	7.62723	-0.577541	-1.58658
H	4.89964	-0.284184	-1.89259
H	5.87873	0.530722	2.13139
H	8.0693	-0.0446665	0.931843
