18
  This energy is -1.201 and Call times are: 67239
C	0.535249	-0.958904	0.283571
C	0.63001	0.178697	1.03007
C	-0.171008	1.15352	0.360593
C	-0.684549	0.525572	-0.735913
O	-0.263614	-0.76512	-0.798684
H	0.981852	-1.95829	0.414037
H	1.20618	0.317457	1.95898
H	-0.339376	2.19838	0.667225
H	-1.35248	0.88256	-1.53696
C	6.90808	-0.736384	-0.822377
C	7.60964	-0.217139	0.245022
N	6.82778	0.598482	0.99333
C	5.64566	0.585275	0.392446
N	5.64298	-0.204938	-0.707166
H	7.2095	-1.42355	-1.6289
H	8.66596	-0.41641	0.488603
H	4.74763	1.1361	0.715482
H	4.83174	-0.379509	-1.34956
