18
  This energy is -0.6219 and Call times are: 114179
C	0.612792	-0.896918	-0.326228
C	1.18225	0.221692	0.207445
C	0.102918	1.1143	0.487468
C	-1.03082	0.462358	0.100193
O	-0.738096	-0.767288	-0.399102
H	1.05383	-1.84002	-0.688585
H	2.25477	0.400338	0.386004
H	0.17221	2.12263	0.926306
H	-2.09156	0.761239	0.127461
C	5.87007	-0.855925	0.807211
C	5.14926	0.319409	0.820271
N	5.4298	1.07677	-0.267942
C	6.32126	0.373959	-0.953494
N	6.61955	-0.799187	-0.346584
H	5.90166	-1.70052	1.51375
H	4.4318	0.634492	1.5954
H	6.7882	0.671589	-1.90618
H	7.29338	-1.52689	-0.689606
