18
  This energy is -1.9024 and Call times are: 104928
C	0.14579	0.290613	1.0866
C	0.299998	-0.99107	0.646274
C	0.0366208	-0.956706	-0.75714
C	-0.255282	0.342942	-1.05053
O	-0.193327	1.11865	0.0636725
H	0.247863	0.736316	2.08968
H	0.571936	-1.8723	1.24926
H	0.0637514	-1.80599	-1.45862
H	-0.519673	0.83646	-2.00016
C	4.04395	-0.150096	-1.14151
C	3.30236	0.868094	-0.580731
N	3.22208	0.730125	0.765014
C	3.91124	-0.369476	1.03806
N	4.42669	-0.936867	-0.078174
H	4.31729	-0.36336	-2.18714
H	2.8238	1.69979	-1.12305
H	4.07005	-0.803877	2.03821
H	5.00728	-1.8098	-0.124725
