18
  This energy is -1.439 and Call times are: 12441
C	-0.574885	-0.333548	0.91905
C	-0.239355	0.970343	0.700736
C	0.467044	0.98974	-0.54053
C	0.500825	-0.30401	-0.97116
O	-0.130766	-1.12571	-0.0920099
H	-1.12122	-0.81962	1.74397
H	-0.466506	1.83205	1.34878
H	0.896487	1.86948	-1.04623
H	0.937371	-0.763093	-1.87334
C	3.80215	-0.772465	0.389642
C	4.02403	-0.401302	-0.919614
N	5.02134	0.512141	-1.00624
C	5.41666	0.706913	0.244528
N	4.71222	-0.0447375	1.12338
H	3.08496	-1.47938	0.836241
H	3.48236	-0.776246	-1.80328
H	6.21762	1.38871	0.572939
H	4.83578	-0.0686026	2.16521
