18
  This energy is -1.5445 and Call times are: 57194
C	0.727791	-0.382505	0.781288
C	0.961171	0.750113	0.058043
C	-0.164789	0.900015	-0.807902
C	-0.986831	-0.154233	-0.537381
O	-0.457378	-0.947701	0.430659
H	1.31911	-0.884639	1.56452
H	1.83823	1.41348	0.12738
H	-0.3343	1.70271	-1.54345
H	-1.96217	-0.447794	-0.959027
C	4.71453	0.687247	-0.930999
C	4.0556	-0.523929	-0.930852
N	3.98725	-1.04285	0.319171
C	4.60146	-0.156973	1.09157
N	5.05776	0.904097	0.384811
H	4.95546	1.38685	-1.74711
H	3.62827	-1.03265	-1.81031
H	4.74517	-0.235685	2.18124
H	5.57455	1.73387	0.766476
