18
  This energy is -1.2141 and Call times are: 124413
C	0.451697	0.973795	-0.366188
C	0.679985	-0.217438	-0.990065
C	-0.0482053	-1.19474	-0.245263
C	-0.657197	-0.514454	0.768004
O	-0.362844	0.811043	0.709473
H	0.805978	1.99418	-0.58651
H	1.29906	-0.390567	-1.88498
H	-0.105974	-2.27627	-0.447884
H	-1.31612	-0.853888	1.584
C	5.65122	-0.0571398	-0.810712
C	5.39249	-0.976573	0.183695
N	4.33581	-0.593273	0.940679
C	3.94051	0.559564	0.417871
N	4.70187	0.925667	-0.640378
H	6.41815	-0.0334605	-1.60116
H	5.94934	-1.90964	0.368509
H	3.09917	1.17737	0.770988
H	4.59025	1.79295	-1.22057
