18
  This energy is -0.9608 and Call times are: 73348
C	0.218951	0.0353489	1.1123
C	-0.00851528	-1.13481	0.449462
C	-0.242468	-0.773602	-0.912489
C	-0.137314	0.585403	-0.961691
O	0.144145	1.09604	0.265926
H	0.442225	0.244175	2.17145
H	-0.0112808	-2.15045	0.876735
H	-0.462692	-1.4535	-1.75114
H	-0.239563	1.29682	-1.79756
C	4.39009	-0.687837	-0.734836
C	3.94883	-0.154809	0.457771
N	4.9149	0.591031	1.04679
C	5.95155	0.520967	0.222723
N	5.6851	-0.238534	-0.866202
H	3.89086	-1.33355	-1.47467
H	2.9507	-0.295034	0.903772
H	6.92986	1.00671	0.368265
H	6.34021	-0.445664	-1.65942
