18
  This energy is -1.0364 and Call times are: 121347
C	0.690971	-0.889609	0.132502
C	-0.60317	-1.02448	-0.276625
C	-1.13862	0.298887	-0.322644
C	-0.124418	1.12562	0.0624232
O	1.00034	0.416721	0.344172
H	1.48343	-1.63533	0.309002
H	-1.12807	-1.96183	-0.521449
H	-2.16122	0.591589	-0.610242
H	-0.0769839	2.22123	0.174892
C	5.20927	1.13463	-0.0452497
C	4.35461	0.545468	0.862264
N	4.22432	-0.781577	0.620419
C	4.99522	-1.01479	-0.433122
N	5.61061	0.108866	-0.871636
H	5.54895	2.17651	-0.157726
H	3.82966	1.05415	1.6872
H	5.14532	-1.98988	-0.923932
H	6.26818	0.184289	-1.68599
