18
  This energy is -2.9331 and Call times are: 34083
C	-0.0216092	1.07495	0.361118
C	-0.0814418	0.747417	-0.961573
C	-0.0293875	-0.679002	-1.01389
C	0.0576589	-1.09721	0.281444
O	0.0636512	-0.0392923	1.13455
H	-0.0311023	2.05082	0.873804
H	-0.154866	1.44073	-1.81481
H	-0.0544279	-1.31153	-1.91577
H	0.120594	-2.10606	0.721331
C	4.201	1.1669	0.153112
C	5.24376	0.299086	0.3995
N	4.89472	-0.978367	0.111758
C	3.64019	-0.903338	-0.311528
N	3.17656	0.368899	-0.305037
H	4.11821	2.25941	0.26756
H	6.2417	0.571833	0.779734
H	3.01421	-1.74923	-0.638385
H	2.21911	0.686829	-0.593962
