18
  This energy is -0.9178 and Call times are: 79265
C	0.732252	-0.859497	0.107113
C	0.196181	-0.218024	1.18485
C	-0.665323	0.788874	0.651853
C	-0.579654	0.673816	-0.704538
O	0.269437	-0.32785	-1.05485
H	1.44471	-1.69763	0.0350892
H	0.388157	-0.432389	2.24847
H	-1.27411	1.51041	1.22006
H	-1.06589	1.23668	-1.51817
C	6.01799	0.136305	-0.574634
C	5.12182	-0.902274	-0.713822
N	4.05376	-0.738989	0.104162
C	4.28645	0.39657	0.748355
N	5.45829	0.962572	0.374158
H	6.98225	0.339114	-1.06718
H	5.22677	-1.76649	-1.38981
H	3.63185	0.859331	1.50438
H	5.86332	1.85988	0.73756
