18
  This energy is -1.0931 and Call times are: 110193
C	-0.791516	0.334008	0.740501
C	0.364147	1.03092	0.542675
C	1.09255	0.306559	-0.449725
C	0.317697	-0.76905	-0.770735
O	-0.836607	-0.768139	-0.0533831
H	-1.64947	0.515478	1.4085
H	0.672728	1.9617	1.04518
H	2.07817	0.564059	-0.869648
H	0.473235	-1.59545	-1.48356
C	5.11818	-0.480606	0.96019
C	6.32985	0.172637	0.880907
N	6.57277	0.600138	-0.381923
C	5.51583	0.213575	-1.0834
N	4.61048	-0.442162	-0.319242
H	4.59862	-0.95431	1.80824
H	7.03312	0.343141	1.71228
H	5.35379	0.384718	-2.15982
H	3.69601	-0.844609	-0.640248
