18
  This energy is -1.9127 and Call times are: 79563
C	0.669044	0.25554	-0.879478
C	0.0452284	1.21238	-0.134039
C	-0.694735	0.509067	0.864918
C	-0.457778	-0.815478	0.641744
O	0.373024	-0.988663	-0.419758
H	1.34043	0.329796	-1.75067
H	0.100595	2.30396	-0.273626
H	-1.32716	0.946917	1.65386
H	-0.815974	-1.71982	1.1605
C	4.1684	0.233211	1.10487
C	5.3256	0.651185	0.482517
N	5.38499	0.198678	-0.793501
C	4.26887	-0.497372	-0.962109
N	3.5018	-0.506496	0.153734
H	3.78488	0.404107	2.12333
H	6.11872	1.27115	0.931347
H	3.96363	-1.0208	-1.88248
H	2.57572	-0.985749	0.271823
