18
  This energy is -0.924 and Call times are: 35392
C	0.773083	0.433912	0.707435
C	-0.565666	0.496913	0.960722
C	-1.20318	-0.147586	-0.143051
C	-0.197729	-0.547537	-0.9734
O	1.01588	-0.200625	-0.469605
H	1.64307	0.798067	1.27819
H	-1.05515	0.951622	1.83693
H	-2.28523	-0.291934	-0.292793
H	-0.214777	-1.08014	-1.93844
C	4.40747	-0.393446	0.866429
C	4.83634	0.902747	0.673802
N	5.62321	0.998831	-0.425341
C	5.68227	-0.23307	-0.912738
N	4.9656	-1.10899	-0.169273
H	3.766	-0.842331	1.64139
H	4.59208	1.77033	1.30822
H	6.23592	-0.549202	-1.8115
H	4.856	-2.13728	-0.347802
