18
  This energy is -0.8543 and Call times are: 125405
C	0.317898	1.063	-0.235299
C	1.11076	0.201397	0.464252
C	0.375734	-1.01988	0.555473
C	-0.801412	-0.796773	-0.0963876
O	-0.853725	0.470073	-0.585648
H	0.470864	2.10999	-0.544618
H	2.11271	0.40539	0.874848
H	0.694473	-1.95106	1.05086
H	-1.67117	-1.44908	-0.278782
C	6.1326	-0.610519	0.853636
C	6.40027	-0.671159	-0.497593
N	5.59588	0.168817	-1.19323
C	4.8321	0.748352	-0.277043
N	5.11717	0.311934	0.972702
H	6.578	-1.14083	1.71034
H	7.15938	-1.30595	-0.983016
H	4.04829	1.49932	-0.466599
H	4.65309	0.617962	1.86278
