18
  This energy is -0.8869 and Call times are: 51643
C	-0.53038	-0.67637	-0.740015
C	-0.068611	-1.128	0.461308
C	0.52952	0.00103958	1.09977
C	0.380459	1.04294	0.232242
O	-0.264709	0.647234	-0.896558
H	-1.05763	-1.19013	-1.56057
H	-0.141842	-2.15334	0.858057
H	1.01225	0.0251299	2.08997
H	0.685454	2.10012	0.300043
C	5.16226	-1.16755	-0.054185
C	4.16386	-0.218289	0.00266005
N	4.68171	1.03289	0.0564609
C	5.99638	0.860471	0.0330813
N	6.33647	-0.448541	-0.0333649
H	5.12162	-2.26718	-0.106243
H	3.07913	-0.413776	0.00581673
H	6.75585	1.65833	0.0624448
H	7.30928	-0.840961	-0.0633162
