18
  This energy is -1.1471 and Call times are: 133054
C	0.157589	0.992526	-0.525794
C	-0.391216	0.904837	0.719798
C	-0.424048	-0.487791	1.03544
C	0.107593	-1.12818	-0.0451333
O	0.468222	-0.239518	-1.00807
H	0.37699	1.86083	-1.16857
H	-0.73812	1.73732	1.35283
H	-0.801469	-0.949746	1.96185
H	0.281312	-2.19758	-0.248731
C	5.54652	0.166384	-0.679346
C	5.11799	0.971882	0.354423
N	3.98997	0.479889	0.921894
C	3.71973	-0.626621	0.242751
N	4.62905	-0.859058	-0.733313
H	6.41061	0.247608	-1.35779
H	5.60252	1.89923	0.700984
H	2.86858	-1.30403	0.418516
H	4.63419	-1.66657	-1.4035
