18
  This energy is -1.1047 and Call times are: 18720
C	0.665409	0.0594337	0.916569
C	0.671395	1.01795	-0.0537825
C	-0.285052	0.595303	-1.02677
C	-0.791075	-0.584178	-0.565098
O	-0.221885	-0.926524	0.62058
H	1.23766	-0.0354861	1.854
H	1.28752	1.93103	-0.0816007
H	-0.557931	1.11553	-1.95897
H	-1.54962	-1.26717	-0.981482
C	7.6363	0.0483815	-0.555736
C	6.4187	0.481826	-1.03608
N	5.43324	0.272335	-0.129713
C	6.03719	-0.288938	0.908961
N	7.36607	-0.44525	0.701043
H	8.64239	0.056016	-1.00435
H	6.23362	0.941959	-2.02039
H	5.55375	-0.605286	1.84728
H	8.05859	-0.862903	1.3698
