18
  This energy is -1.0123 and Call times are: 114051
C	-0.214928	-1.04373	0.388387
C	0.592173	-0.168521	1.05395
C	0.616319	1.02032	0.262637
C	-0.178159	0.766658	-0.816636
O	-0.694061	-0.489207	-0.756144
H	-0.523094	-2.07618	0.621476
H	1.1178	-0.342639	2.00658
H	1.16439	1.95123	0.479741
H	-0.452729	1.38837	-1.68459
C	5.95948	0.587485	0.345465
C	5.53324	0.388034	-0.95056
N	4.38705	-0.334289	-0.982275
C	4.10331	-0.582005	0.28924
N	5.02145	-0.0472386	1.12866
H	6.83475	1.11847	0.752277
H	6.03221	0.752385	-1.86332
H	3.23561	-1.15016	0.661434
H	5.01917	-0.105109	2.17647
