18
  This energy is -0.9548 and Call times are: 109256
C	-0.585695	-0.270423	0.932863
C	-0.406387	1.02081	0.531684
C	0.370507	0.954127	-0.665023
C	0.597366	-0.371966	-0.889492
O	0.0206063	-1.13424	0.0765787
H	-1.11753	-0.70019	1.79756
H	-0.783384	1.92912	1.02862
H	0.715628	1.80046	-1.28042
H	1.1465	-0.894515	-1.68989
C	5.05555	-1.04061	0.492414
C	4.16056	-0.0340596	0.197464
N	4.78721	1.02756	-0.365362
C	6.0661	0.680932	-0.419368
N	6.27914	-0.557231	0.0857641
H	4.91307	-2.03355	0.947723
H	3.07389	-0.0548409	0.380686
H	6.88851	1.29587	-0.81902
H	7.2008	-1.05428	0.154529
