18
  This energy is -0.7366 and Call times are: 112506
C	1.10764	-0.240089	-0.0435564
C	0.624555	0.866811	0.590303
C	-0.793985	0.821511	0.429647
C	-1.05253	-0.309073	-0.288204
O	0.0973067	-0.969637	-0.585777
H	2.13537	-0.615629	-0.177699
H	1.20855	1.63786	1.11806
H	-1.52851	1.55046	0.808071
H	-1.99856	-0.747644	-0.645883
C	6.57934	-0.701625	-0.534267
C	6.49641	0.671006	-0.635018
N	5.47762	1.1554	0.115948
C	4.93061	0.0873364	0.680431
N	5.55912	-1.05655	0.319757
H	7.26916	-1.42679	-0.994516
H	7.15343	1.32051	-1.23612
H	4.06806	0.0861351	1.36617
H	5.31563	-2.02861	0.631327
