18
  This energy is -0.9455 and Call times are: 53320
C	-0.0532395	1.12403	0.141878
C	-0.47353	0.246444	1.09769
C	-0.249227	-1.05673	0.557752
C	0.288331	-0.860463	-0.680344
O	0.415094	0.465366	-0.950752
H	-0.03503	2.22601	0.118385
H	-0.898843	0.492138	2.08402
H	-0.466053	-2.02233	1.04221
H	0.618636	-1.57172	-1.45511
C	5.78622	0.0409876	-0.874802
C	4.4311	-0.185995	-0.990071
N	3.82728	-0.165345	0.222979
C	4.80409	0.0735408	1.0875
N	6.00439	0.205741	0.474807
H	6.58413	0.0951275	-1.63239
H	3.87827	-0.364292	-1.92679
H	4.69578	0.161571	2.18055
H	6.92568	0.397256	0.939354
