18
  This energy is -1.0689 and Call times are: 81630
C	0.234962	0.730985	0.834778
C	-0.950923	0.748105	0.161163
C	-0.870466	-0.306311	-0.798969
C	0.357482	-0.874688	-0.627318
O	1.04606	-0.253731	0.366305
H	0.618126	1.35803	1.65652
H	-1.79742	1.4344	0.32405
H	-1.64218	-0.600089	-1.52852
H	0.852594	-1.71476	-1.14151
C	4.34163	-0.649748	-0.210812
C	4.54631	0.664766	-0.573167
N	5.76489	1.09888	-0.169282
C	6.31409	0.0576428	0.441311
N	5.49546	-1.02099	0.442668
H	3.48511	-1.32477	-0.366535
H	3.83655	1.30772	-1.11879
H	7.31324	0.0305412	0.905193
H	5.70063	-1.96098	0.861689
