18
  This energy is -0.7003 and Call times are: 51272
C	-0.308755	-1.09112	-0.0231173
C	-1.19883	-0.0849992	0.21326
C	-0.442692	1.12573	0.163208
C	0.842692	0.752597	-0.0993365
O	0.942756	-0.597714	-0.216213
H	-0.439027	-2.18435	-0.0790631
H	-2.27944	-0.185361	0.403759
H	-0.820487	2.15074	0.307185
H	1.76451	1.34398	-0.224924
C	6.44258	-0.704479	-0.0184731
C	5.65421	-0.405501	1.07251
N	4.65146	0.440726	0.733532
C	4.81712	0.665868	-0.562806
N	5.88371	-0.00202966	-1.0627
H	7.33209	-1.346	-0.122197
H	5.79099	-0.785229	2.09815
H	4.18619	1.31133	-1.19489
H	6.22072	0.012475	-2.05642
