18
  This energy is -1.5281 and Call times are: 16119
C	0.217948	-1.01632	0.453869
C	-0.146772	0.0584382	1.21034
C	-0.330971	1.13773	0.293111
C	-0.0625519	0.627239	-0.942899
O	0.274377	-0.686984	-0.863464
H	0.461279	-2.05558	0.729505
H	-0.273392	0.0882111	2.3045
H	-0.628802	2.1707	0.534706
H	-0.0755147	1.08971	-1.9435
C	5.21639	-0.750925	-0.201083
C	6.46405	-0.765023	-0.787837
N	7.23447	0.24796	-0.322191
C	6.46767	0.888051	0.55012
N	5.2413	0.324329	0.6588
H	4.34172	-1.40805	-0.330274
H	6.82213	-1.48797	-1.53882
H	6.75437	1.77548	1.13707
H	4.45857	0.64522	1.27978
