18
  This energy is -1.0373 and Call times are: 85568
C	0.578806	-0.951799	0.21322
C	-0.458004	-0.536519	0.996127
C	-0.923168	0.682383	0.414733
C	-0.129551	0.904354	-0.672132
O	0.793234	-0.0837727	-0.810284
H	1.23542	-1.83496	0.277538
H	-0.855374	-1.0382	1.89307
H	-1.7529	1.31366	0.771274
H	-0.120164	1.71718	-1.41677
C	5.78763	0.0171051	0.772604
C	5.38389	-1.05087	-0.000420122
N	4.32668	-0.717732	-0.780053
C	4.0755	0.552087	-0.491788
N	4.92908	1.0407	0.43894
H	6.59811	0.117784	1.51188
H	5.83649	-2.05582	-0.0095708
H	3.27843	1.17199	-0.932951
H	4.93561	2.01387	0.831573
