18
  This energy is -0.9831 and Call times are: 75226
C	-0.277018	1.05711	0.303625
C	-0.466129	-0.0129284	1.12803
C	-0.00225714	-1.15238	0.402365
C	0.429371	-0.678064	-0.801417
O	0.269004	0.669261	-0.878934
H	-0.486807	2.13078	0.43949
H	-0.889783	-0.0010333	2.14512
H	0.00525489	-2.1996	0.744958
H	0.865015	-1.18983	-1.67524
C	3.95695	-0.0291802	0.278693
C	4.82654	-1.09847	0.2389
N	6.07138	-0.702741	-0.122038
C	5.97443	0.60706	-0.305464
N	4.71949	1.06112	-0.0761958
H	2.88519	0.0310307	0.526184
H	4.57802	-2.14839	0.46416
H	6.79135	1.28192	-0.607838
H	4.39015	2.05447	-0.153965
