18
  This energy is -2.2288 and Call times are: 83043
C	-0.0108234	0.629422	-0.943457
C	0.554751	-0.610963	-0.899368
C	0.371187	-1.07706	0.438232
C	-0.290357	-0.0803566	1.09345
O	-0.531784	0.969466	0.26484
H	-0.106362	1.36067	-1.76285
H	1.05139	-1.14421	-1.72586
H	0.697203	-2.04354	0.855028
H	-0.641307	0.00236294	2.1352
C	4.34917	-0.769222	-0.889366
C	5.08242	0.390961	-0.757259
N	4.77191	1.03696	0.392861
C	3.84952	0.280412	0.972055
N	3.56028	-0.820174	0.238133
H	4.33344	-1.5366	-1.67957
H	5.82996	0.773475	-1.47121
H	3.35261	0.485632	1.93392
H	2.86714	-1.56953	0.481613
