18
  This energy is -1.2899 and Call times are: 40368
C	-0.238879	-0.48388	0.997596
C	-0.584113	-1.05439	-0.192237
C	-0.119983	-0.15958	-1.20417
C	0.467901	0.87875	-0.543385
O	0.404377	0.697208	0.801984
H	-0.392017	-0.813713	2.03827
H	-1.11259	-2.00953	-0.342266
H	-0.21706	-0.282997	-2.29478
H	0.960555	1.79396	-0.910713
C	5.29779	0.364685	0.945911
C	3.92767	0.287199	0.812094
N	3.58186	-0.176634	-0.41338
C	4.73307	-0.386101	-1.03744
N	5.79703	-0.0747721	-0.259835
H	5.93173	0.690582	1.78582
H	3.18246	0.557665	1.57784
H	4.85432	-0.766546	-2.06447
H	6.80936	-0.153213	-0.524934
