18
  This energy is -1.3325 and Call times are: 23079
C	-0.92141	0.265044	-0.605934
C	0.179522	-0.313525	-1.16592
C	1.11348	-0.489992	-0.0997583
C	0.500833	-0.00368271	1.01762
O	-0.742598	0.461476	0.726902
H	-1.88291	0.581541	-1.04251
H	0.319855	-0.588456	-2.22366
H	2.12193	-0.928948	-0.166512
H	0.838846	0.0672777	2.0645
C	4.40298	0.945111	0.494803
C	4.94577	0.862278	-0.769976
N	5.43214	-0.379122	-1.01263
C	5.192	-1.06382	0.0973935
N	4.57299	-0.309524	1.03626
H	3.92375	1.78023	1.03002
H	4.99515	1.67601	-1.51176
H	5.44854	-2.12046	0.276061
H	4.27865	-0.621088	1.99415
