18
  This energy is -1.6718 and Call times are: 69612
C	0.308335	0.597915	-0.913142
C	0.371605	1.10875	0.349957
C	-0.0928848	0.0713933	1.21497
C	-0.398994	-0.981781	0.404115
O	-0.160074	-0.67778	-0.898771
H	0.564281	1.03507	-1.89224
H	0.71129	2.11511	0.643127
H	-0.184941	0.113538	2.31217
H	-0.78934	-1.98801	0.628603
C	4.52222	1.09846	0.0146429
C	3.62316	0.545618	0.90189
N	3.35602	-0.744966	0.586384
C	4.08658	-0.991828	-0.492491
N	4.80747	0.0881858	-0.876518
H	4.96446	2.10571	-0.0437063
H	3.16246	1.05485	1.76403
H	4.13107	-1.94634	-1.04126
H	5.45947	0.145105	-1.69683
