18
  This energy is -0.6161 and Call times are: 96943
C	-0.902717	0.684305	-0.0568246
C	0.361909	1.15787	0.135091
C	1.21144	0.00972955	0.149034
C	0.390953	-1.06409	-0.0355926
O	-0.903604	-0.670575	-0.163178
H	-1.87307	1.20156	-0.135027
H	0.666017	2.21014	0.254827
H	2.30518	-0.00518514	0.28173
H	0.602635	-2.14436	-0.0943952
C	6.94926	-0.535611	0.443986
C	5.93852	0.078727	1.15261
N	5.00095	0.593057	0.320175
C	5.42842	0.298914	-0.900224
N	6.59911	-0.381249	-0.878798
H	7.86246	-1.05441	0.776325
H	5.86899	0.160064	2.2496
H	4.92292	0.557753	-1.84452
H	7.13747	-0.725432	-1.71124
