18
  This energy is -1.1304 and Call times are: 88681
C	0.162161	0.598413	0.94974
C	-0.939679	-0.182189	0.757429
C	-0.784394	-0.765662	-0.537007
C	0.39863	-0.290105	-1.02144
O	0.990169	0.544369	-0.126593
H	0.469804	1.23286	1.79714
H	-1.77773	-0.332083	1.45693
H	-1.47811	-1.45789	-1.04067
H	0.922337	-0.467499	-1.97512
C	4.89991	-1.02789	-0.488339
C	6.15152	-0.449476	-0.480689
N	6.13712	0.73783	0.172463
C	4.88135	0.895386	0.568504
N	4.09615	-0.142456	0.194416
H	4.53644	-1.97534	-0.917025
H	7.06468	-0.867587	-0.934752
H	4.48265	1.75198	1.13553
H	3.0705	-0.251788	0.387661
