18
  This energy is -1.2507 and Call times are: 68313
C	0.479389	-0.989364	-0.278829
C	1.08787	-0.0897086	0.546245
C	0.186131	1.01256	0.655711
C	-0.893784	0.689186	-0.112132
O	-0.731683	-0.530014	-0.690307
H	0.799566	-1.97872	-0.644778
H	2.07289	-0.192029	1.02931
H	0.332998	1.9348	1.24053
H	-1.82828	1.23354	-0.325768
C	4.79951	-0.42996	-1.09093
C	4.94027	-1.15385	0.0741086
N	5.02827	-0.335158	1.15045
C	4.94242	0.891957	0.65503
N	4.80345	0.887977	-0.691915
H	4.70012	-0.74878	-2.1407
H	4.97992	-2.25219	0.157318
H	4.9757	1.82899	1.23391
H	4.71547	1.72868	-1.31379
