18
  This energy is -1.2242 and Call times are: 90051
C	0.965768	0.502956	0.317376
C	-0.195364	0.642474	1.01929
C	-1.17175	-0.127984	0.317023
C	-0.521085	-0.670304	-0.752039
O	0.785162	-0.295482	-0.76747
H	1.97466	0.91492	0.483757
H	-0.3489	1.22909	1.93929
H	-2.23284	-0.2575	0.584273
H	-0.870747	-1.33036	-1.56279
C	6.19897	-0.868184	0.794574
C	5.9587	-0.984218	-0.558182
N	6.0402	0.220201	-1.17401
C	6.32993	1.08015	-0.206972
N	6.43615	0.472821	0.998621
H	6.21733	-1.61991	1.59962
H	5.72799	-1.91541	-1.10087
H	6.47511	2.16591	-0.326479
H	6.6571	0.935357	1.91432
