18
  This energy is -0.977 and Call times are: 37918
C	0.436569	-0.141227	1.03724
C	1.14717	-0.405668	-0.0965564
C	0.270898	-0.110033	-1.18507
C	-0.897825	0.308969	-0.620362
O	-0.814424	0.296178	0.736064
H	0.704295	-0.222564	2.10352
H	2.18436	-0.772153	-0.160006
H	0.493598	-0.201728	-2.26029
H	-1.84934	0.638979	-1.06864
C	6.15984	-0.80897	-0.391538
C	5.57768	0.203075	-1.12502
N	4.75154	0.951838	-0.354721
C	4.82093	0.40638	0.852045
N	5.65697	-0.658402	0.881503
H	6.87262	-1.5993	-0.675908
H	5.73896	0.406398	-2.19623
H	4.28034	0.74689	1.74985
H	5.87966	-1.25549	1.71526
