18
  This energy is -0.9391 and Call times are: 115402
C	-0.726826	0.71661	-0.494566
C	0.282456	0.109501	-1.18242
C	0.969603	-0.704562	-0.230975
C	0.319568	-0.523053	0.954302
O	-0.719082	0.341755	0.81174
H	-1.50675	1.42642	-0.815716
H	0.519305	0.223493	-2.25247
H	1.84515	-1.34724	-0.416663
H	0.495744	-0.945928	1.95699
C	5.63343	0.871831	0.755325
C	4.56344	0.00329784	0.799147
N	4.60679	-0.877723	-0.229655
C	5.69952	-0.556971	-0.909134
N	6.35323	0.491613	-0.35531
H	5.92389	1.70575	1.41392
H	3.76095	-0.00342166	1.55467
H	6.06741	-1.05705	-1.81952
H	7.23953	0.931212	-0.705286
