18
  This energy is -1.1412 and Call times are: 108034
C	0.00550829	-0.159784	1.12287
C	0.919017	0.633818	0.493529
C	0.589553	0.583627	-0.895374
C	-0.496202	-0.236215	-0.992162
O	-0.866401	-0.699203	0.230788
H	-0.129001	-0.418393	2.18602
H	1.74228	1.19797	0.960507
H	1.10658	1.10112	-1.71937
H	-1.08913	-0.564661	-1.86154
C	4.56211	0.619022	0.942196
C	4.73604	1.09339	-0.340715
N	5.13174	0.104046	-1.17805
C	5.20302	-0.979969	-0.417484
N	4.86907	-0.721356	0.869058
H	4.25196	1.12359	1.87104
H	4.58311	2.13179	-0.677147
H	5.49431	-1.98879	-0.751638
H	4.848	-1.41059	1.66011
