18
  This energy is -0.704 and Call times are: 17277
C	-0.881117	-0.707621	0.096471
C	0.388681	-1.14935	-0.133447
C	1.20541	0.0210227	-0.190874
C	0.362605	1.07463	0.00902079
O	-0.915518	0.648021	0.186264
H	-1.83365	-1.24981	0.214617
H	0.717247	-2.19451	-0.25083
H	2.29312	0.0637155	-0.361636
H	0.546467	2.1609	0.0472626
C	5.27375	0.342398	0.640247
C	5.30506	-0.672092	-0.293013
N	6.53832	-0.793564	-0.841499
C	7.2693	0.14201	-0.25075
N	6.55227	0.853722	0.650873
H	4.4593	0.723934	1.27636
H	4.45989	-1.31856	-0.580417
H	8.33474	0.349099	-0.440973
H	6.90339	1.6444	1.24485
