18
  This energy is -0.7619 and Call times are: 59779
C	0.261526	-1.04541	-0.353735
C	-1.01969	-0.57774	-0.341094
C	-0.943771	0.756974	0.161788
C	0.377129	0.987108	0.412058
O	1.12765	-0.102937	0.102979
H	0.682102	-2.01718	-0.66036
H	-1.92719	-1.11842	-0.65446
H	-1.78071	1.4569	0.315849
H	0.903334	1.87246	0.805145
C	5.37734	0.67473	-0.964012
C	4.45178	-0.280464	-0.600582
N	4.79082	-0.867937	0.572634
C	5.92242	-0.279433	0.935655
N	6.31742	0.658133	0.0420505
H	5.43174	1.34283	-1.83821
H	3.54543	-0.55626	-1.16389
H	6.50353	-0.496876	1.84629
H	7.17619	1.2581	0.103836
