18
  This energy is -1.3818 and Call times are: 87354
C	0.181245	0.169292	1.10675
C	0.422159	-1.02935	0.502105
C	0.0774103	-0.850217	-0.872369
C	-0.34374	0.442076	-0.986312
O	-0.286912	1.07947	0.21265
H	0.30064	0.497834	2.15224
H	0.804301	-1.94756	0.976406
H	0.139111	-1.60192	-1.67563
H	-0.704029	1.01986	-1.85326
C	5.19449	0.883409	-0.501264
C	3.82684	0.708761	-0.488217
N	3.48464	-0.419175	0.180491
C	4.63562	-0.942279	0.580769
N	5.69597	-0.193933	0.194465
H	5.82534	1.67181	-0.941714
H	3.08087	1.37641	-0.949332
H	4.75924	-1.87168	1.15969
H	6.70739	-0.395926	0.388058
