18
  This energy is -1.0276 and Call times are: 28104
C	0.924693	0.0472827	-0.655064
C	0.99282	-0.166019	0.690386
C	-0.357369	-0.158748	1.15628
C	-1.13139	0.0583547	0.0543981
O	-0.364953	0.18652	-1.06057
H	1.71081	0.120526	-1.42442
H	1.9026	-0.313668	1.2942
H	-0.702579	-0.299638	2.19313
H	-2.22392	0.141715	-0.0667138
C	6.20378	-0.730338	-0.596983
C	5.26442	0.129718	-1.12524
N	4.63266	0.82358	-0.147514
C	5.17802	0.395604	0.982993
N	6.13058	-0.541802	0.765105
H	6.89608	-1.43955	-1.07791
H	5.03122	0.262014	-2.19433
H	4.91708	0.735145	1.9983
H	6.7041	-1.03165	1.49475
