18
  This energy is -1.2677 and Call times are: 83956
C	-0.454939	0.757815	-0.710737
C	0.541704	1.08172	0.162283
C	0.843356	-0.11917	0.874321
C	0.00441912	-1.0709	0.37356
O	-0.795467	-0.552809	-0.595343
H	-0.998737	1.3612	-1.45603
H	1.01679	2.06741	0.291854
H	1.59883	-0.249688	1.66573
H	-0.119661	-2.13843	0.618999
C	4.42602	0.645813	0.451864
C	5.77873	0.840532	0.634671
N	6.50119	-0.0915417	-0.0330119
C	5.6001	-0.861566	-0.627768
N	4.33426	-0.45807	-0.366188
H	3.55137	1.1963	0.833297
H	6.24634	1.63686	1.23637
H	5.81259	-1.73418	-1.26622
H	3.45117	-0.901628	-0.719275
