18
  This energy is -1.3508 and Call times are: 22822
C	-0.0820748	-1.11976	-0.160651
C	-0.155108	-0.22699	-1.18925
C	-0.0116872	1.06472	-0.596762
C	0.136328	0.847268	0.741587
O	0.0957941	-0.481124	1.02574
H	-0.141639	-2.22038	-0.142235
H	-0.295858	-0.455165	-2.25799
H	-0.0191288	2.03718	-1.1148
H	0.276321	1.54393	1.58439
C	5.41185	0.518659	-0.861236
C	5.92371	-0.129088	0.243106
N	4.93149	-0.609516	1.03127
C	3.80836	-0.261139	0.418218
N	4.04483	0.421035	-0.727342
H	5.90712	1.02528	-1.70479
H	6.99117	-0.258384	0.485295
H	2.78547	-0.480118	0.764603
H	3.32414	0.802832	-1.38771
