18
  This energy is -1.2351 and Call times are: 16183
C	0.405639	1.01308	0.309085
C	-0.877205	0.629626	0.569184
C	-1.0074	-0.688364	0.034332
C	0.207369	-0.993971	-0.505391
O	1.08237	0.033734	-0.346611
H	0.9506	1.94417	0.535674
H	-1.65389	1.21607	1.08585
H	-1.90511	-1.32699	0.0538588
H	0.57117	-1.89674	-1.023
C	4.34072	-0.186487	-0.879664
C	4.17165	-0.527321	0.445626
N	5.24753	-0.163273	1.18486
C	6.08087	0.401259	0.321458
N	5.57982	0.411496	-0.936491
H	3.68871	-0.322614	-1.7571
H	3.29264	-1.02939	0.881656
H	7.07093	0.823773	0.557023
H	6.04637	0.80079	-1.79209
