18
  This energy is -0.7215 and Call times are: 105121
C	0.398614	-0.961161	-0.451306
C	-0.818948	-0.446397	-0.787364
C	-0.962053	0.750911	-0.0217985
C	0.180693	0.862111	0.714503
O	1.02286	-0.174888	0.464718
H	0.927573	-1.86755	-0.788821
H	-1.54361	-0.86757	-1.50261
H	-1.81973	1.44263	-0.0254559
H	0.510535	1.62166	1.4422
C	4.64447	0.222317	-0.0207145
C	5.56941	0.731806	0.865891
N	6.81254	0.263411	0.598074
C	6.6594	-0.533625	-0.450689
N	5.37036	-0.591776	-0.861269
H	3.55735	0.376321	-0.110006
H	5.36202	1.42898	1.69402
H	7.45776	-1.09914	-0.957691
H	4.99534	-1.15055	-1.66649
