18
  This energy is -0.9888 and Call times are: 71201
C	-0.714827	0.259025	0.841623
C	0.611933	0.026205	1.05581
C	1.17012	-0.263337	-0.226653
C	0.135178	-0.181892	-1.11132
O	-1.02347	0.13619	-0.476203
H	-1.53281	0.517632	1.53392
H	1.14415	0.0554274	2.02017
H	2.22116	-0.503242	-0.454338
H	0.0938524	-0.326154	-2.20345
C	5.30814	1.17055	0.121846
C	5.72862	0.23927	1.04762
N	5.57749	-1.02192	0.575326
C	5.06519	-0.873617	-0.638835
N	4.88411	0.429655	-0.958647
H	5.28154	2.27135	0.154379
H	6.13834	0.454785	2.04789
H	4.80372	-1.68576	-1.33618
H	4.49486	0.804337	-1.85829
