18
  This energy is -0.6909 and Call times are: 42785
C	0.668086	0.914139	0.0664178
C	1.06601	-0.314759	0.504409
C	-0.0322391	-1.19325	0.254975
C	-1.00434	-0.423629	-0.313423
O	-0.593717	0.866077	-0.436129
H	1.1829	1.88888	0.0568616
H	2.03565	-0.576381	0.957673
H	-0.0834176	-2.27142	0.476391
H	-2.01764	-0.671212	-0.670043
C	5.12805	0.0843799	0.785927
C	6.27552	-0.67141	0.900987
N	7.06369	-0.532697	-0.192659
C	6.40767	0.305957	-0.983181
N	5.23477	0.706602	-0.437853
H	4.27165	0.218984	1.46563
H	6.54883	-1.31431	1.75353
H	6.74075	0.660052	-1.97207
H	4.53922	1.36566	-0.865761
