18
  This energy is -0.9038 and Call times are: 103920
C	-0.228554	-1.10764	-0.0854255
C	-0.568232	-0.374355	1.01334
C	-0.120867	0.956114	0.749083
C	0.452697	0.918411	-0.487839
O	0.395763	-0.334115	-1.01219
H	-0.373644	-2.17351	-0.326502
H	-1.08226	-0.734254	1.91907
H	-0.219071	1.83288	1.40919
H	0.930072	1.70376	-1.0966
C	5.72761	0.0627912	-0.0815488
C	6.57316	-0.686306	-0.872146
N	7.86541	-0.520837	-0.499031
C	7.82171	0.327686	0.519164
N	6.55521	0.708964	0.809361
H	4.63207	0.177935	-0.0896032
H	6.27394	-1.3432	-1.70509
H	8.68737	0.703041	1.08834
H	6.25997	1.37073	1.56841
