18
  This energy is -0.6724 and Call times are: 80632
C	1.08382	0.115864	0.313546
C	0.105514	0.965744	0.738981
C	-1.10454	0.500405	0.139531
C	-0.758865	-0.592759	-0.5993
O	0.573762	-0.842038	-0.504547
H	2.16652	0.0861116	0.518774
H	0.224089	1.83331	1.40783
H	-2.11071	0.935443	0.251198
H	-1.35984	-1.26999	-1.22815
C	5.62234	-0.509674	-0.947187
C	6.87818	0.051939	-0.854525
N	7.1008	0.549024	0.386385
C	5.98729	0.296748	1.06098
N	5.06542	-0.340246	0.30074
H	5.10287	-1.00151	-1.78492
H	7.62762	0.10737	-1.66082
H	5.79392	0.55682	2.11417
H	4.1087	-0.646675	0.604134
