18
  This energy is -1.6975 and Call times are: 115530
C	-0.178775	0.302753	1.07832
C	0.611251	-0.755819	0.738239
C	0.589556	-0.817405	-0.688594
C	-0.211813	0.20897	-1.09447
O	-0.689647	0.903533	-0.0285125
H	-0.453197	0.724904	2.059
H	1.15476	-1.42607	1.42341
H	1.1129	-1.5449	-1.32966
H	-0.516422	0.54543	-2.09909
C	3.91942	-0.404952	1.06882
C	3.81842	0.896281	0.624144
N	4.22884	1.00613	-0.662711
C	4.58311	-0.222278	-1.01502
N	4.41511	-1.10918	-0.00567718
H	3.68156	-0.864327	2.04142
H	3.45676	1.75781	1.20879
H	4.97206	-0.527961	-1.99966
H	4.62287	-2.13737	-0.0358758
