18
  This energy is -0.7275 and Call times are: 32662
C	-0.638336	-0.172658	0.921476
C	-1.16393	-0.147195	-0.336888
C	-0.0634042	0.091471	-1.21553
C	1.03755	0.190784	-0.416521
O	0.704881	0.0320031	0.891581
H	-1.10806	-0.325263	1.90703
H	-2.22061	-0.282867	-0.618168
H	-0.0971542	0.177637	-2.31349
H	2.0991	0.370259	-0.653501
C	5.77315	-0.737066	0.838204
C	5.92533	-0.887721	-0.523885
N	5.37356	0.152187	-1.19518
C	4.88093	0.944958	-0.253131
N	5.0964	0.452572	0.989737
H	6.08804	-1.37108	1.68225
H	6.42339	-1.72814	-1.03427
H	4.35297	1.89799	-0.418116
H	4.8037	0.893111	1.89611
