18
  This energy is -1.2799 and Call times are: 106398
C	0.921905	0.655255	-0.0844491
C	0.818523	-0.545828	-0.722482
C	-0.467295	-1.06281	-0.37677
C	-1.03615	-0.132012	0.442004
O	-0.201717	0.923873	0.631322
H	1.73177	1.40277	-0.0599311
H	1.57213	-1.02016	-1.37147
H	-0.908849	-2.01768	-0.704418
H	-2.01538	-0.103834	0.947547
C	5.64974	0.655582	0.976131
C	6.7072	0.0489871	0.331956
N	6.28782	-0.629012	-0.763921
C	4.97517	-0.443735	-0.799463
N	4.54198	0.324046	0.228372
H	5.60849	1.27892	1.88348
H	7.76524	0.0884009	0.638291
H	4.28333	-0.847643	-1.55606
H	3.55105	0.611922	0.419283
