18
  This energy is -0.933 and Call times are: 68747
C	-0.662749	-0.892645	-0.224388
C	-0.654119	-0.276905	0.992643
C	0.293367	0.786592	0.886057
C	0.780091	0.726858	-0.386698
O	0.207187	-0.292723	-1.07897
H	-1.23494	-1.75541	-0.603192
H	-1.25472	-0.544746	1.87675
H	0.573453	1.50726	1.67109
H	1.52624	1.34385	-0.913806
C	5.84883	-0.696193	0.582809
C	4.74001	-0.0587616	1.09792
N	4.10427	0.663485	0.143612
C	4.81599	0.474833	-0.959334
N	5.87822	-0.337507	-0.746352
H	6.5942	-1.35761	1.05237
H	4.38733	-0.107061	2.14106
H	4.60386	0.9078	-1.95018
H	6.58879	-0.637031	-1.45813
