18
  This energy is -1.2666 and Call times are: 125885
C	0.382732	0.867662	-0.622158
C	0.967493	0.49775	0.553254
C	0.212732	-0.61645	1.03181
C	-0.766625	-0.829052	0.106585
O	-0.677827	0.0681715	-0.910331
H	0.623267	1.67143	-1.33725
H	1.84255	0.962842	1.03497
H	0.386247	-1.187	1.95834
H	-1.57627	-1.57558	0.0573542
C	5.81712	-0.065473	0.734636
C	5.34647	1.06288	0.0971013
N	4.27197	0.774553	-0.67673
C	4.07677	-0.527719	-0.519855
N	4.98253	-1.07994	0.321713
H	6.65882	-0.213395	1.42976
H	5.76297	2.07986	0.181622
H	3.28526	-1.12718	-0.997759
H	5.03838	-2.08868	0.605567
