18
  This energy is -0.9091 and Call times are: 38835
C	0.805593	0.629456	-0.491127
C	0.680219	-0.708483	-0.724736
C	-0.431041	-1.14029	0.0618786
C	-0.886643	-0.0281041	0.706735
O	-0.143108	1.06179	0.380692
H	1.51862	1.37561	-0.87856
H	1.30737	-1.32908	-1.38477
H	-0.836802	-2.16225	0.132996
H	-1.71982	0.117228	1.4138
C	5.52109	-0.353319	-1.07571
C	4.56815	0.593822	-0.765914
N	4.45477	0.752415	0.575169
C	5.33402	-0.0931239	1.09536
N	6.00215	-0.783132	0.140853
H	5.87901	-0.739025	-2.04353
H	3.9604	1.16558	-1.48603
H	5.52917	-0.247075	2.16888
H	6.74507	-1.50752	0.297669
