18
  This energy is -0.755 and Call times are: 92380
C	0.725922	0.304391	-0.816568
C	0.733372	-0.940594	-0.259494
C	-0.310379	-0.938909	0.715544
C	-0.86351	0.306956	0.668229
O	-0.242934	1.07944	-0.261918
H	1.35008	0.756369	-1.60486
H	1.40636	-1.7763	-0.51005
H	-0.607552	-1.77305	1.37128
H	-1.69163	0.761278	1.23661
C	4.77719	-0.0744475	-0.344751
C	5.38539	1.00118	0.267013
N	6.69021	0.742485	0.52593
C	6.89072	-0.48895	0.0764999
N	5.76757	-1.0245	-0.457641
H	3.74415	-0.226007	-0.696037
H	4.90609	1.95927	0.526212
H	7.84057	-1.04632	0.113474
H	5.66982	-1.98117	-0.877733
