18
  This energy is -1.441 and Call times are: 43366
C	0.236552	-0.915828	-0.625863
C	-0.588459	-0.965812	0.459141
C	-0.637313	0.365276	0.974831
C	0.162156	1.11116	0.159434
O	0.703985	0.3449	-0.823558
H	0.566073	-1.69708	-1.33036
H	-1.11027	-1.85121	0.856485
H	-1.20454	0.717119	1.8515
H	0.423704	2.18199	0.172468
C	4.16207	0.779108	-0.871239
C	4.91352	0.942013	0.273279
N	4.84816	-0.158431	1.06148
C	4.05916	-1.00082	0.408424
N	3.61979	-0.481974	-0.762622
H	3.98087	1.449	-1.72678
H	5.50168	1.83386	0.54443
H	3.77034	-2.0104	0.742445
H	2.98668	-0.950997	-1.45576
