18
  This energy is -0.6472 and Call times are: 135378
C	1.01039	-0.449706	0.251559
C	0.00873278	-0.34356	1.17123
C	-1.08779	0.264051	0.486708
C	-0.659403	0.475568	-0.790837
O	0.619722	0.0456636	-0.952186
H	2.0334	-0.853252	0.328052
H	0.0389922	-0.661265	2.22586
H	-2.07674	0.511116	0.905079
H	-1.16209	0.917453	-1.66679
C	6.01598	1.07208	0.250388
C	6.15829	0.38578	-0.936997
N	5.55229	-0.824885	-0.877275
C	5.036	-0.889401	0.342521
N	5.28838	0.230028	1.06139
H	6.36921	2.06692	0.56514
H	6.68738	0.742489	-1.83571
H	4.46381	-1.73307	0.760909
H	4.98717	0.420254	2.04848
