18
  This energy is -0.5673 and Call times are: 106179
C	-0.253178	-0.409479	-1.02695
C	-1.2104	0.0214852	-0.156102
C	-0.510334	0.457062	1.01022
C	0.812882	0.253822	0.749132
O	0.988249	-0.274839	-0.490536
H	-0.325343	-0.827889	-2.04429
H	-2.30014	0.0316351	-0.318724
H	-0.949378	0.872078	1.93168
H	1.71478	0.441475	1.35461
C	5.75464	0.00281161	1.16669
C	4.78149	0.676421	0.459322
N	4.89834	0.448036	-0.871353
C	5.94002	-0.364167	-0.989051
N	6.4908	-0.662029	0.211578
H	5.96827	-0.0487679	2.24615
H	3.99715	1.32312	0.885275
H	6.34211	-0.771081	-1.93084
H	7.32053	-1.28142	0.38234
