18
  This energy is -1.0014 and Call times are: 57259
C	-0.282803	0.594783	0.923394
C	0.375191	-0.597761	0.995892
C	0.549171	-1.03102	-0.353973
C	-0.0178649	-0.0649876	-1.13219
O	-0.530879	0.935441	-0.368667
H	-0.626706	1.2889	1.70773
H	0.704961	-1.11995	1.9084
H	1.04065	-1.95592	-0.69616
H	-0.119692	0.0262946	-2.22606
C	5.78792	0.59856	-0.825327
C	6.23268	0.279718	0.440247
N	5.29496	-0.417666	1.12644
C	4.27236	-0.531031	0.289737
N	4.52056	0.0653139	-0.900372
H	6.26761	1.14883	-1.65034
H	7.21338	0.540383	0.870519
H	3.31769	-1.04061	0.49748
H	3.87126	0.112476	-1.72344
