18
  This energy is -0.6981 and Call times are: 100894
C	-0.677904	-0.753421	0.50912
C	-0.96847	-0.216652	-0.710644
C	0.106072	0.674968	-1.01146
C	0.958417	0.604344	0.0510311
O	0.495293	-0.26322	0.989039
H	-1.21754	-1.48422	1.1336
H	-1.85096	-0.427432	-1.33585
H	0.222359	1.29294	-1.91627
H	1.9139	1.11414	0.256953
C	5.83092	0.575	-0.878973
C	4.93933	1.09877	0.0330959
N	4.52374	0.152061	0.90919
C	5.15512	-0.954816	0.542022
N	5.9552	-0.751619	-0.531372
H	6.36785	1.03701	-1.72265
H	4.58847	2.14281	0.0746927
H	5.0679	-1.94171	1.02438
H	6.55577	-1.46814	-1.008
