18
  This energy is -1.1408 and Call times are: 76159
C	0.337766	-0.517862	-0.95086
C	-0.935647	-0.0594426	-0.781613
C	-0.971822	0.521914	0.522547
C	0.282678	0.367433	1.03513
O	1.0955	-0.265606	0.148787
H	0.822825	-1.03381	-1.7957
H	-1.76618	-0.124185	-1.5028
H	-1.83598	0.997539	1.01357
H	0.717404	0.660381	2.00489
C	6.27448	-0.245175	1.13778
C	5.52503	0.789788	0.619778
N	5.54065	0.77389	-0.735218
C	6.29692	-0.266977	-1.0566
N	6.76313	-0.914009	0.0377458
H	6.48755	-0.543128	2.1767
H	4.97332	1.54769	1.19947
H	6.54175	-0.600137	-2.07801
H	7.37941	-1.76335	0.0465635
