18
  This energy is -1.0055 and Call times are: 102173
C	0.323632	0.776249	0.760987
C	-0.778993	-0.00647513	0.939689
C	-0.855017	-0.844256	-0.214634
C	0.207863	-0.499531	-0.996826
O	0.938444	0.488591	-0.416414
H	0.770483	1.56421	1.38924
H	-1.46953	0.00496374	1.79825
H	-1.61622	-1.61153	-0.429012
H	0.548934	-0.877263	-1.9747
C	4.28163	0.722865	-0.138419
C	4.58848	-0.0200257	0.981895
N	5.71927	-0.742921	0.794195
C	6.11245	-0.449611	-0.437878
N	5.27869	0.429943	-1.04189
H	3.45198	1.41612	-0.349641
H	4.01419	-0.047358	1.92227
H	7.00356	-0.850608	-0.94714
H	5.3737	0.815319	-2.01334
