18
  This energy is -0.6854 and Call times are: 24606
C	0.475396	0.578018	0.85223
C	-0.766915	0.0233883	0.949306
C	-1.01143	-0.610378	-0.307146
C	0.103048	-0.387087	-1.06111
O	1.02134	0.337119	-0.368805
H	1.07426	1.16045	1.57152
H	-1.44327	0.0571732	1.8185
H	-1.91505	-1.16567	-0.605812
H	0.3617	-0.686475	-2.09004
C	4.69416	0.276953	0.292406
C	5.62953	-0.347111	1.09038
N	6.80248	-0.510893	0.431685
C	6.59555	0.00958622	-0.770359
N	5.33957	0.497742	-0.903787
H	3.64974	0.569795	0.484704
H	5.47906	-0.682125	2.1296
H	7.3295	0.0593411	-1.59077
H	4.9346	0.956927	-1.75608
