18
  This energy is -0.9201 and Call times are: 61419
C	-0.589556	-0.960825	-0.125063
C	-0.694028	0.0795063	-1.00095
C	0.188296	1.09133	-0.51326
C	0.754055	0.579986	0.617589
O	0.290452	-0.672433	0.869638
H	-1.08146	-1.94704	-0.0992703
H	-1.32875	0.129382	-1.90025
H	0.373692	2.08169	-0.959259
H	1.48982	1.00162	1.32195
C	4.31336	-0.416864	0.174716
C	5.24372	-0.884632	-0.72903
N	6.39256	-0.168927	-0.662279
C	6.17572	0.73939	0.279297
N	4.93655	0.631287	0.814407
H	3.28618	-0.744752	0.400379
H	5.10661	-1.72572	-1.42804
H	6.8902	1.50762	0.616306
H	4.52829	1.23156	1.57221
