18
  This energy is -0.7233 and Call times are: 70286
C	-0.728938	0.730947	-0.469859
C	-1.00566	-0.598903	-0.346182
C	0.137199	-1.17912	0.28416
C	1.01142	-0.152609	0.490032
O	0.498777	1.02115	0.0356203
H	-1.31464	1.56328	-0.893435
H	-1.9226	-1.11909	-0.666683
H	0.282545	-2.23861	0.549557
H	2.0159	-0.127583	0.943515
C	6.13234	-0.920919	-0.0261047
C	5.42912	-0.453532	1.06393
N	4.68027	0.627159	0.735517
C	4.91803	0.829434	-0.55335
N	5.78711	-0.0777585	-1.05862
H	6.83072	-1.76568	-0.136442
H	5.44866	-0.876731	2.08146
H	4.48218	1.62734	-1.17593
H	6.13219	-0.129057	-2.04834
