18
  This energy is -0.7726 and Call times are: 28040
C	-0.972516	-0.539758	-0.22198
C	0.155039	-1.19847	0.171843
C	1.15293	-0.192466	0.351581
C	0.547073	0.992187	0.0517258
O	-0.751189	0.79884	-0.300612
H	-1.9821	-0.904278	-0.473222
H	0.272308	-2.28389	0.320829
H	2.19772	-0.342822	0.667631
H	0.925952	2.02742	0.0505714
C	4.97671	-0.910876	0.408542
C	5.60891	0.0606247	1.1553
N	6.23501	0.959738	0.357745
C	5.99215	0.547591	-0.879097
N	5.23748	-0.576488	-0.901562
H	4.37962	-1.78728	0.706752
H	5.62449	0.128904	2.25528
H	6.34292	1.03168	-1.80476
H	4.91286	-1.09458	-1.75448
