18
  This energy is -1.0115 and Call times are: 94906
C	0.842456	-0.303255	0.696207
C	0.658016	-0.884624	-0.523779
C	-0.485322	-0.245044	-1.09284
C	-0.898629	0.670703	-0.170368
O	-0.0991813	0.64879	0.928457
H	1.59624	-0.475848	1.48187
H	1.26609	-1.6837	-0.977455
H	-0.93997	-0.449631	-2.07546
H	-1.73569	1.38802	-0.176497
C	4.95106	-0.43827	1.0635
C	4.33455	0.627357	0.442611
N	4.87438	0.860508	-0.778345
C	5.82218	-0.0569905	-0.914384
N	5.90778	-0.864251	0.169403
H	4.7823	-0.907949	2.04557
H	3.50991	1.23215	0.853755
H	6.48298	-0.182501	-1.78721
H	6.57569	-1.66254	0.303113
