18
  This energy is -0.745 and Call times are: 4551
C	-0.141769	-1.07876	0.320277
C	-1.12649	-0.143612	0.44753
C	-0.576532	1.07438	-0.0566096
C	0.695712	0.776009	-0.447431
O	0.978079	-0.534559	-0.224513
H	-0.113776	-2.15053	0.576756
H	-2.13861	-0.296197	0.855485
H	-1.07747	2.05391	-0.117248
H	1.48892	1.39896	-0.892412
C	5.48819	-0.930608	0.507066
C	4.85595	0.120198	-0.123184
N	5.75398	1.01936	-0.59388
C	6.93883	0.528241	-0.256919
N	6.83191	-0.646135	0.408662
H	5.09028	-1.83068	1.00212
H	3.7679	0.245659	-0.246703
H	7.91675	0.987906	-0.472812
H	7.62208	-1.22892	0.779155
