18
  This energy is -0.6872 and Call times are: 17373
C	0.41691	0.819332	-0.664291
C	-0.743826	0.967095	0.0365888
C	-0.933174	-0.260017	0.742608
C	0.128569	-1.04932	0.410841
O	0.963134	-0.406089	-0.447508
H	0.952965	1.50256	-1.34333
H	-1.4008	1.85149	0.0546081
H	-1.76614	-0.516209	1.41687
H	0.401166	-2.0735	0.714154
C	6.73545	-0.136212	0.542566
C	6.52015	-0.0321416	-0.815358
N	5.20161	0.116051	-1.09108
C	4.60122	0.103962	0.0912895
N	5.48309	-0.0457798	1.10789
H	7.66039	-0.263963	1.12712
H	7.29257	-0.0613299	-1.60108
H	3.51821	0.201044	0.269861
H	5.25606	-0.0854343	2.13168
