18
  This energy is -1.3998 and Call times are: 96141
C	0.985221	0.00436232	-0.561891
C	0.464535	1.12873	0.0082513
C	-0.765197	0.726684	0.613427
C	-0.887425	-0.607874	0.359677
O	0.172676	-1.0656	-0.357042
H	1.91324	-0.163276	-1.1328
H	0.902487	2.1398	0.00316336
H	-1.47027	1.36406	1.17085
H	-1.67046	-1.33492	0.630811
C	4.82823	-0.262724	-1.12427
C	4.57239	-1.15208	-0.102144
N	4.35125	-0.502766	1.06662
C	4.46945	0.784509	0.770684
N	4.75663	0.981163	-0.53792
H	5.04881	-0.421671	-2.1918
H	4.5434	-2.25062	-0.187074
H	4.3556	1.62493	1.47422
H	4.89784	1.90515	-1.01496
