18
  This energy is -0.8387 and Call times are: 40496
C	0.733199	-0.778564	0.377701
C	0.227891	0.199994	1.18235
C	-0.6458	0.97216	0.357402
C	-0.597266	0.397296	-0.878538
O	0.240013	-0.673191	-0.884311
H	1.44179	-1.59837	0.580384
H	0.448291	0.361835	2.24974
H	-1.23749	1.85172	0.65801
H	-1.10433	0.651885	-1.82369
C	5.16192	-1.16316	-0.175227
C	4.41824	-0.438164	0.731673
N	4.71734	0.881891	0.664556
C	5.64306	0.975465	-0.280388
N	5.94536	-0.230331	-0.81729
H	5.18821	-2.24094	-0.40159
H	3.67122	-0.843926	1.43322
H	6.13324	1.90256	-0.618688
H	6.64352	-0.418719	-1.57778
