18
  This energy is -1.3732 and Call times are: 11063
C	-0.313614	-0.574126	0.926513
C	0.0015568	0.752466	0.961083
C	0.340404	1.10891	-0.379904
C	0.202384	-0.0313261	-1.11555
O	-0.196395	-1.06903	-0.333783
H	-0.631797	-1.27089	1.71932
H	-0.00401238	1.41368	1.84248
H	0.64979	2.10144	-0.744947
H	0.355673	-0.232126	-2.1886
C	4.3237	0.423322	1.08389
C	3.51982	-0.465196	0.401645
N	4.02459	-0.73733	-0.826224
C	5.13738	-0.020364	-0.905419
N	5.36157	0.696672	0.221163
H	4.23366	0.865687	2.08875
H	2.58465	-0.91477	0.77339
H	5.82542	0.0165205	-1.76534
H	6.17167	1.33854	0.402821
