18
  This energy is -1.4821 and Call times are: 25374
C	-0.902127	-0.668091	0.161931
C	-0.580878	0.345268	1.01649
C	0.599882	0.946742	0.483435
C	0.895946	0.247838	-0.649814
O	-0.0109143	-0.742027	-0.861438
H	-1.72817	-1.39804	0.171147
H	-1.12119	0.639681	1.93054
H	1.15708	1.80022	0.902007
H	1.71282	0.354779	-1.3823
C	4.6176	0.423695	-1.02924
C	5.55872	-0.566092	-0.84015
N	5.75837	-0.80496	0.478786
C	4.9442	0.0334506	1.10554
N	4.2348	0.795871	0.240061
H	4.20688	0.874513	-1.94664
H	6.09725	-1.11214	-1.63177
H	4.8279	0.130578	2.19699
H	3.52786	1.53053	0.488602
