18
  This energy is -1.0693 and Call times are: 116524
C	0.537139	-0.899133	-0.43525
C	-0.59831	-1.01739	0.311171
C	-0.968993	0.313786	0.672666
C	-0.0273409	1.128	0.115237
O	0.900133	0.404095	-0.565037
H	1.1729	-1.65559	-0.923946
H	-1.12227	-1.94861	0.580215
H	-1.8375	0.619885	1.27772
H	0.0926529	2.22374	0.129525
C	7.2419	-0.474931	-0.780457
C	7.42053	0.696683	-0.0757885
N	6.3648	0.943718	0.737182
C	5.53439	-0.0707837	0.537617
N	6.01799	-0.953073	-0.368631
H	7.87791	-0.985249	-1.52113
H	8.29225	1.36817	-0.139413
H	4.55894	-0.216888	1.02893
H	5.5498	-1.83361	-0.695308
