18
  This energy is -1.8783 and Call times are: 9302
C	0.092169	0.820627	0.777481
C	0.749747	0.868485	-0.416536
C	0.386083	-0.325317	-1.1113
C	-0.461621	-0.997304	-0.280519
O	-0.65233	-0.311952	0.877468
H	0.0713209	1.5202	1.6292
H	1.42333	1.66459	-0.772351
H	0.721639	-0.638842	-2.1129
H	-0.988472	-1.95879	-0.395507
C	4.66553	1.03118	0.0440458
C	4.28392	0.34443	-1.08905
N	3.65181	-0.811161	-0.770368
C	3.64132	-0.841199	0.555382
N	4.24055	0.247377	1.09344
H	5.19189	1.99019	0.173565
H	4.45337	0.662068	-2.1308
H	3.20801	-1.63672	1.18277
H	4.35887	0.454786	2.11533
