18
  This energy is -1.3519 and Call times are: 26761
C	-0.291903	0.13657	1.08745
C	-0.335971	-1.07688	0.466189
C	0.0981926	-0.845607	-0.874755
C	0.369246	0.48876	-0.954553
O	0.136561	1.10412	0.234647
H	-0.536623	0.439184	2.11885
H	-0.643376	-2.03839	0.907893
H	0.19434	-1.59214	-1.67945
H	0.728622	1.11317	-1.78894
C	3.59025	-0.439859	0.414765
C	4.19764	-0.750082	-0.783561
N	5.35092	-0.0560332	-0.940903
C	5.45859	0.681952	0.155641
N	4.42162	0.48623	1.00416
H	2.65639	-0.800544	0.874487
H	3.82438	-1.46226	-1.53743
H	6.27658	1.3827	0.388177
H	4.27825	0.951335	1.93388
