18
  This energy is -1.0922 and Call times are: 96044
C	0.0127805	1.08346	-0.335191
C	-1.13835	0.440309	0.0135785
C	-0.751468	-0.887209	0.371544
C	0.601921	-0.938096	0.209922
O	1.08536	0.256663	-0.221183
H	0.199265	2.11476	-0.677082
H	-2.15765	0.858744	0.0182961
H	-1.41117	-1.70269	0.708988
H	1.32671	-1.7539	0.366105
C	4.20082	-0.455639	0.734031
C	4.54192	-0.929077	-0.515229
N	5.50126	-0.159418	-1.08427
C	5.75434	0.787894	-0.191428
N	4.9958	0.652883	0.922117
H	3.47291	-0.817062	1.4777
H	4.113	-1.81222	-1.01616
H	6.48541	1.60491	-0.302082
H	5.01048	1.27426	1.76766
