18
  This energy is -0.6443 and Call times are: 102429
C	0.0681006	0.563306	-0.982064
C	-1.10245	0.433622	-0.294047
C	-0.788076	-0.32863	0.872254
C	0.546832	-0.597457	0.79399
O	1.08577	-0.0602986	-0.332075
H	0.305197	1.06829	-1.93287
H	-2.08838	0.834515	-0.579227
H	-1.48179	-0.636245	1.67114
H	1.22135	-1.15307	1.46598
C	6.89706	0.420499	0.0688713
C	6.49608	-0.882828	0.273076
N	5.15674	-1.01286	0.112511
C	4.72846	0.20517	-0.190153
N	5.73977	1.1048	-0.228819
H	7.89089	0.893671	0.11286
H	7.14918	-1.73167	0.533388
H	3.68459	0.49391	-0.393128
H	5.65789	2.12854	-0.444482
