18
  This energy is -0.7104 and Call times are: 124925
C	-0.120435	0.69307	-0.889691
C	-1.17023	0.33333	-0.0966633
C	-0.627962	-0.534049	0.900191
C	0.705333	-0.627782	0.628327
O	1.03274	0.115277	-0.461481
H	-0.0641451	1.3449	-1.77693
H	-2.22105	0.647276	-0.203
H	-1.17475	-1.02633	1.72042
H	1.51613	-1.18282	1.12811
C	6.1108	0.728989	-0.590276
C	6.08054	-0.646832	-0.675983
N	5.13622	-1.16691	0.145171
C	4.58276	-0.117714	0.738045
N	5.13578	1.04837	0.328157
H	6.73631	1.4784	-1.10083
H	6.72317	-1.27353	-1.31562
H	3.76888	-0.146632	1.48033
H	4.87206	2.01213	0.648889
