18
  This energy is -0.9872 and Call times are: 130202
C	-0.223747	1.07725	0.275432
C	0.972044	0.692457	-0.255972
C	0.872015	-0.717104	-0.463941
C	-0.376072	-1.06924	-0.0412649
O	-1.05908	0.0141549	0.41346
H	-0.59876	2.06383	0.593687
H	1.83771	1.3366	-0.479124
H	1.64471	-1.38314	-0.880397
H	-0.890266	-2.04393	-0.0123771
C	5.97642	-0.763296	0.812883
C	4.76638	-0.787634	0.152307
N	4.66443	0.245375	-0.718905
C	5.80688	0.908042	-0.59926
N	6.6315	0.33949	0.311964
H	6.40347	-1.43044	1.57845
H	3.96509	-1.53206	0.288726
H	6.09131	1.81608	-1.15495
H	7.5877	0.674852	0.584875
