18
  This energy is -1.6141 and Call times are: 21705
C	0.821885	-0.712187	0.322019
C	0.334056	0.260121	1.14483
C	-0.672982	0.939288	0.393347
C	-0.711642	0.322054	-0.822342
O	0.194651	-0.688844	-0.883404
H	1.6042	-1.47386	0.47397
H	0.651515	0.47729	2.17738
H	-1.29156	1.78774	0.727398
H	-1.33052	0.505373	-1.716
C	3.92063	1.09753	-0.191334
C	4.60262	0.638929	0.915791
N	4.8846	-0.681826	0.803538
C	4.37947	-1.04122	-0.368768
N	3.78778	-0.00389015	-1.00707
H	3.53336	2.0964	-0.447881
H	4.89625	1.23739	1.79356
H	4.41489	-2.05112	-0.808189
H	3.31743	-0.0330851	-1.94472
