18
  This energy is -0.9709 and Call times are: 49071
C	-0.0779591	0.0291207	-1.13114
C	-1.17692	0.0107062	-0.323474
C	-0.678264	-0.0245774	1.01452
C	0.681396	-0.024609	0.906363
O	1.06547	0.00796671	-0.396879
H	0.0224123	0.0570118	-2.22859
H	-2.23279	0.0209414	-0.638321
H	-1.27064	-0.0471382	1.94332
H	1.4756	-0.0458115	1.67059
C	5.79689	0.795866	-0.515786
C	5.81294	0.417336	0.809959
N	4.87186	-0.525072	1.06046
C	4.27426	-0.730406	-0.105451
N	4.7961	0.0422897	-1.0874
H	6.40649	1.52388	-1.07428
H	6.48669	0.807345	1.59021
H	3.44892	-1.43518	-0.296088
H	4.49558	0.0633192	-2.09264
