18
  This energy is -1.006 and Call times are: 108657
C	-0.125261	0.106942	-1.12217
C	-1.0506	-0.519878	-0.34037
C	-0.545221	-0.452609	0.993865
C	0.644336	0.20938	0.909611
O	0.916512	0.558519	-0.375315
H	-0.0921009	0.29461	-2.20796
H	-1.99438	-0.983147	-0.670152
H	-1.01925	-0.853352	1.90424
H	1.38068	0.490646	1.68028
C	5.77224	-0.659241	0.706103
C	5.79509	-0.635079	-0.672316
N	4.88483	0.242041	-1.16079
C	4.29952	0.76005	-0.0894865
N	4.79963	0.248882	1.06038
H	6.35969	-1.23906	1.43566
H	6.45206	-1.23482	-1.32312
H	3.49895	1.51723	-0.0900587
H	4.50297	0.497059	2.03591
