18
  This energy is -0.6371 and Call times are: 133599
C	1.09833	0.228747	-0.166545
C	0.639703	-1.03869	0.042353
C	-0.774101	-0.920611	0.20768
C	-1.05462	0.408556	0.0852165
O	0.0771874	1.12526	-0.143599
H	2.11432	0.618988	-0.341846
H	1.23706	-1.96394	0.07659
H	-1.49086	-1.73611	0.395588
H	-2.0058	0.963092	0.139951
C	6.76877	-0.526951	-0.718619
C	5.3999	-0.466102	-0.872418
N	4.8241	0.221157	0.14377
C	5.83192	0.585279	0.925013
N	7.02509	0.158189	0.448028
H	7.55248	-0.993753	-1.33621
H	4.81744	-0.905781	-1.69841
H	5.75227	1.16563	1.85833
H	7.96616	0.318443	0.883887
