18
  This energy is -1.1927 and Call times are: 118454
C	0.737096	-0.823322	-0.255402
C	-0.564308	-1.08057	0.0616827
C	-1.16336	0.190802	0.316367
C	-0.175138	1.11274	0.132433
O	0.992231	0.511014	-0.217122
H	1.57039	-1.4933	-0.523734
H	-1.05338	-2.0667	0.11126
H	-2.20923	0.386408	0.602671
H	-0.175354	2.21176	0.218469
C	4.9739	0.328697	-1.0259
C	4.52079	1.15656	-0.0206689
N	4.03556	0.439166	1.02164
C	4.18707	-0.82892	0.664391
N	4.74859	-0.94811	-0.562019
H	5.42567	0.550409	-2.00584
H	4.53531	2.25863	-0.0288136
H	3.90385	-1.70972	1.26291
H	4.9701	-1.84271	-1.06389
