18
  This energy is -1.2277 and Call times are: 132829
C	-0.948831	0.393262	0.481109
C	-0.644571	0.622907	-0.828495
C	0.609154	-0.0219515	-1.05752
C	0.960351	-0.588735	0.132355
O	0.0203408	-0.345141	1.08317
H	-1.81251	0.697	1.09516
H	-1.24297	1.18956	-1.55987
H	1.17608	-0.0546855	-2.00177
H	1.84111	-1.18225	0.427743
C	4.86588	-1.12257	0.264776
C	5.80048	-0.663085	-0.638847
N	5.8032	0.691007	-0.693062
C	4.87383	1.07012	0.173631
N	4.27988	0.0133713	0.777048
H	4.58567	-2.14348	0.569373
H	6.47287	-1.28436	-1.25265
H	4.58786	2.1088	0.40515
H	3.51812	0.0520191	1.4978
