18
  This energy is -0.844 and Call times are: 91767
C	0.70346	-0.466297	0.757702
C	-0.652517	-0.576562	0.855386
C	-1.18411	0.131022	-0.265707
C	-0.106058	0.611218	-0.949508
O	1.05481	0.255882	-0.338665
H	1.5161	-0.851144	1.39548
H	-1.22134	-1.10333	1.63836
H	-2.24705	0.261949	-0.524778
H	-0.0330755	1.2109	-1.87162
C	5.51065	-0.18971	0.918737
C	4.76417	0.942545	0.66993
N	4.05887	0.819732	-0.480714
C	4.36663	-0.384134	-0.943974
N	5.23852	-1.03239	-0.135785
H	6.19349	-0.44685	1.74405
H	4.72186	1.84587	1.30005
H	3.98209	-0.840514	-1.8703
H	5.6322	-1.99377	-0.284202
