18
  This energy is -1.1766 and Call times are: 84322
C	0.796824	0.438986	0.677321
C	1.09611	-0.408537	-0.348595
C	-0.152055	-0.739801	-0.958886
C	-1.1039	-0.0654653	-0.252036
O	-0.542192	0.659513	0.750912
H	1.43756	0.946311	1.41714
H	2.09557	-0.764706	-0.645782
H	-0.312759	-1.40388	-1.82333
H	-2.19986	-0.0190605	-0.361381
C	4.84242	-1.01844	-0.530588
C	5.44362	0.0832262	-1.10158
N	5.58901	1.08337	-0.198757
C	5.07995	0.603982	0.928038
N	4.61668	-0.659715	0.779582
H	4.56839	-1.99958	-0.949884
H	5.77507	0.174332	-2.14881
H	5.02122	1.13598	1.89124
H	4.17053	-1.25316	1.52123
