18
  This energy is -1.0435 and Call times are: 96557
C	-0.822808	-0.387315	0.677772
C	-0.000520448	0.638811	1.0401
C	0.89011	0.833097	-0.059513
C	0.533451	-0.0914541	-0.996728
O	-0.510909	-0.845346	-0.563171
H	-1.6569	-0.877358	1.20635
H	-0.019258	1.20238	1.98674
H	1.69921	1.57725	-0.13495
H	0.938582	-0.311168	-1.99815
C	6.96386	-0.779717	-0.841136
C	6.0265	0.228951	-0.912391
N	5.98476	0.939562	0.240779
C	6.89278	0.373889	1.02445
N	7.51053	-0.667185	0.417705
H	7.27037	-1.54414	-1.57275
H	5.37956	0.456683	-1.77522
H	7.14558	0.682181	2.05172
H	8.26263	-1.27317	0.82805
