18
  This energy is -1.0428 and Call times are: 60123
C	-0.708595	-0.427711	-0.775472
C	-1.0373	-0.341145	0.545449
C	0.0946834	0.241812	1.19267
C	1.0152	0.460021	0.210115
O	0.541364	0.0570488	-0.998233
H	-1.26885	-0.809326	-1.6448
H	-1.98212	-0.656199	1.01677
H	0.202033	0.468612	2.26557
H	2.02999	0.889533	0.241323
C	4.99399	-0.591898	-1.01288
C	4.83664	0.769532	-0.861561
N	4.76291	1.11033	0.447993
C	4.87409	-0.0353233	1.10659
N	5.01551	-1.09093	0.270358
H	5.089	-1.21998	-1.91289
H	4.77499	1.51199	-1.67384
H	4.85836	-0.158251	2.20152
H	5.12138	-2.09771	0.54686
