18
  This energy is -0.8622 and Call times are: 35552
C	-0.298665	1.03324	0.360034
C	-0.333153	-0.0616856	1.17264
C	0.107336	-1.15814	0.37023
C	0.372116	-0.63646	-0.861886
O	0.129692	0.700572	-0.886103
H	-0.550669	2.09014	0.546286
H	-0.638184	-0.0939913	2.23095
H	0.211737	-2.2096	0.682698
H	0.73301	-1.10517	-1.79211
C	5.94755	0.896307	-0.15131
C	6.17187	-0.254959	0.573545
N	5.09332	-1.07457	0.535015
C	4.20329	-0.434203	-0.210905
N	4.67083	0.758877	-0.648578
H	6.58485	1.77437	-0.342102
H	7.09262	-0.508878	1.12363
H	3.19385	-0.793523	-0.468122
H	4.15838	1.44793	-1.25179
