18
  This energy is -0.9777 and Call times are: 51208
C	0.648222	0.119006	0.923064
C	0.941753	0.731855	-0.259573
C	-0.0912618	0.345446	-1.16714
C	-0.924862	-0.46942	-0.458994
O	-0.488454	-0.618715	0.819392
H	1.16184	0.128093	1.89844
H	1.79965	1.39	-0.471569
H	-0.19354	0.644428	-2.22272
H	-1.84858	-0.997983	-0.746409
C	6.15905	0.153293	0.886246
C	4.78257	0.151928	0.966532
N	4.22235	-0.0534464	-0.25022
C	5.24739	-0.179013	-1.08218
N	6.43658	-0.0620456	-0.445217
H	6.93487	0.287778	1.65668
H	4.18365	0.295453	1.88061
H	5.18367	-0.357629	-2.16766
H	7.38862	-0.123659	-0.88235
