18
  This energy is -1.8505 and Call times are: 19169
C	0.719176	-0.58973	-0.649158
C	0.190219	-1.0965	0.501391
C	-0.655035	-0.0723128	1.02742
C	-0.567984	0.96991	0.151881
O	0.266953	0.671272	-0.878025
H	1.41929	-1.02046	-1.38371
H	0.376564	-2.09171	0.93606
H	-1.25435	-0.115544	1.95103
H	-1.04396	1.96424	0.149241
C	4.24887	-0.274285	-1.11711
C	4.10025	0.990699	-0.589023
N	3.81564	0.93719	0.734853
C	3.78781	-0.356072	1.02696
N	4.04291	-1.12764	-0.0561855
H	4.47895	-0.616212	-2.13872
H	4.19328	1.94102	-1.13955
H	3.58555	-0.792984	2.01813
H	4.07725	-2.17615	-0.0827347
