18
  This energy is -1.2495 and Call times are: 131698
C	-0.0330936	0.0865835	-1.1304
C	1.1309	-0.107706	-0.446486
C	0.768627	-0.163493	0.934008
C	-0.584767	0.00162985	0.971825
O	-1.09094	0.155755	-0.279993
H	-0.239037	0.190781	-2.20835
H	2.14309	-0.202252	-0.871495
H	1.44408	-0.309893	1.79216
H	-1.29478	0.0282051	1.81469
C	6.66861	-0.1789	-1.1612
C	7.09215	-1.03382	-0.165776
N	6.8588	-0.508545	1.06147
C	6.29265	0.667775	0.828291
N	6.15611	0.912725	-0.496453
H	6.69477	-0.26713	-2.25895
H	7.56191	-2.02025	-0.311127
H	5.95856	1.38945	1.59105
H	5.73925	1.77073	-0.933841
