18
  This energy is -0.8637 and Call times are: 23751
C	-1.12335	0.154865	0.0224923
C	-0.551119	-1.07001	0.203043
C	0.858573	-0.860955	0.107228
C	1.02334	0.473222	-0.123415
O	-0.176577	1.10899	-0.178195
H	-2.1782	0.474981	0.0143441
H	-1.06969	-2.02496	0.385403
H	1.6503	-1.62158	0.200529
H	1.92994	1.08422	-0.26488
C	5.86084	-0.41107	1.00187
C	5.9202	-1.00485	-0.241127
N	5.28163	-0.25491	-1.17189
C	4.82784	0.800107	-0.508837
N	5.15121	0.752524	0.805224
H	6.26004	-0.723769	1.97982
H	6.41235	-1.96095	-0.483017
H	4.25285	1.63707	-0.936756
H	4.90775	1.46607	1.53517
