18
  This energy is -1.2233 and Call times are: 99146
C	0.871428	0.71115	-0.145873
C	0.502536	-0.196415	-1.09488
C	-0.617425	-0.896885	-0.551609
C	-0.834058	-0.355532	0.681428
O	0.0659824	0.627904	0.945612
H	1.67829	1.46206	-0.126859
H	0.971999	-0.356548	-2.07878
H	-1.18896	-1.7081	-1.03054
H	-1.58552	-0.579254	1.45635
C	3.93676	-0.580928	0.346087
C	4.77967	-0.920025	-0.691053
N	5.79197	-0.0269329	-0.809926
C	5.57788	0.862832	0.149818
N	4.47132	0.572889	0.874418
H	3.02476	-1.06296	0.732674
H	4.67552	-1.7931	-1.3557
H	6.20032	1.74601	0.366162
H	4.09273	1.12235	1.68437
