18
  This energy is -0.6273 and Call times are: 120196
C	-1.01998	-0.404073	-0.287704
C	-0.739763	0.0433874	0.969926
C	0.624464	0.465404	0.939858
C	1.05748	0.238578	-0.333492
O	0.066219	-0.292209	-1.09683
H	-1.94127	-0.820341	-0.727236
H	-1.425	0.0732745	1.83228
H	1.20726	0.887553	1.77426
H	2.03437	0.409506	-0.814861
C	6.91622	-0.844005	-0.0807964
C	7.01924	0.453151	-0.536775
N	5.88893	1.15389	-0.276246
C	5.08775	0.294719	0.339018
N	5.66143	-0.923634	0.480761
H	7.62345	-1.68792	-0.115038
H	7.8889	0.895972	-1.04908
H	4.07061	0.505402	0.706812
H	5.23215	-1.76803	0.93239
