18
  This energy is -1.2221 and Call times are: 23719
C	-0.644624	-0.918513	-0.164905
C	-0.741484	0.192409	-0.950299
C	0.217141	1.1187	-0.437323
C	0.815178	0.492048	0.616258
O	0.301141	-0.752995	0.796939
H	-1.18512	-1.87904	-0.187226
H	-1.41993	0.344349	-1.80512
H	0.42973	2.13162	-0.815339
H	1.60851	0.820359	1.30769
C	4.49099	0.269758	1.1031
C	4.17037	-0.879098	0.41138
N	4.6922	-0.858232	-0.839129
C	5.3341	0.299167	-0.922871
N	5.24232	1.01558	0.222519
H	4.24583	0.598399	2.12557
H	3.57187	-1.72267	0.792215
H	5.88792	0.671795	-1.7996
H	5.66331	1.95937	0.404998
