18
  This energy is -0.8746 and Call times are: 62288
C	-0.412306	-0.362709	0.992394
C	-1.19272	0.252786	0.0583227
C	-0.326673	0.556329	-1.03618
C	0.906521	0.099528	-0.674326
O	0.872618	-0.464691	0.561603
H	-0.64849	-0.768963	1.9896
H	-2.27017	0.471147	0.132599
H	-0.599136	1.05683	-1.97924
H	1.87536	0.115625	-1.20001
C	4.70934	1.16032	0.0488611
C	4.66824	0.36155	-1.07427
N	4.93795	-0.930097	-0.765376
C	5.14558	-0.932616	0.544397
N	5.01916	0.303886	1.08168
H	4.5455	2.24154	0.181802
H	4.4488	0.694094	-2.10194
H	5.39339	-1.81219	1.16017
H	5.13507	0.56115	2.09244
