18
  This energy is -0.6461 and Call times are: 62418
C	-0.700289	-0.189699	0.871786
C	-1.10376	0.44966	-0.263471
C	0.042633	0.496669	-1.11418
C	1.04544	-0.118114	-0.423677
O	0.609424	-0.543496	0.79121
H	-1.242	-0.450563	1.79577
H	-2.10792	0.848199	-0.480096
H	0.104034	0.938901	-2.12153
H	2.09882	-0.313572	-0.683362
C	4.98942	0.666245	-0.334739
C	5.56406	0.619166	0.917745
N	6.59511	-0.259717	0.949577
C	6.65986	-0.755985	-0.27849
N	5.71274	-0.229295	-1.09038
H	4.14511	1.25404	-0.728656
H	5.25317	1.20361	1.799
H	7.3814	-1.50763	-0.63715
H	5.55877	-0.459311	-2.10263
