18
  This energy is -1.499 and Call times are: 73284
C	0.567753	0.541765	0.81887
C	-0.632405	-0.0667281	1.04187
C	-1.02422	-0.629539	-0.211061
C	-0.0289024	-0.315289	-1.08911
O	0.951431	0.39988	-0.477152
H	1.23975	1.10118	1.49023
H	-1.18623	-0.114463	1.99324
H	-1.94223	-1.2004	-0.424289
H	0.0979263	-0.538966	-2.16108
C	5.04515	-0.188163	1.16088
C	6.11527	-0.0271488	0.306449
N	5.69783	0.171813	-0.967389
C	4.37377	0.134371	-0.903453
N	3.93145	-0.0801656	0.358261
H	4.99887	-0.366023	2.24705
H	7.18109	-0.0509753	0.586304
H	3.67971	0.258143	-1.75033
H	2.93078	-0.150778	0.66638
