18
  This energy is -1.4667 and Call times are: 30317
C	0.326896	-0.596973	0.907283
C	-0.63	0.372504	0.976847
C	-0.762002	0.887426	-0.348879
C	0.125881	0.187155	-1.11154
O	0.799454	-0.723603	-0.360654
H	0.754343	-1.25897	1.67819
H	-1.18702	0.692891	1.87193
H	-1.44171	1.68643	-0.686044
H	0.36966	0.241616	-2.18525
C	4.17671	0.69639	-0.932152
C	4.1076	1.08417	0.389209
N	3.89337	0.0198101	1.20023
C	3.82982	-1.0243	0.385109
N	3.99474	-0.66839	-0.910933
H	4.33716	1.27572	-1.85528
H	4.20847	2.11287	0.771892
H	3.66439	-2.07179	0.684466
H	3.9857	-1.30988	-1.7414
