18
  This energy is -0.9527 and Call times are: 87843
C	0.723094	0.662663	-0.569573
C	-0.111243	1.15025	0.392982
C	-0.854621	0.0282151	0.871043
C	-0.408927	-1.04598	0.158423
O	0.554714	-0.676817	-0.725954
H	1.47313	1.15914	-1.20692
H	-0.194824	2.19522	0.732319
H	-1.62917	0.0302599	1.65473
H	-0.693225	-2.11071	0.186252
C	5.77078	-0.626313	-0.63144
C	4.39566	-0.714648	-0.680095
N	3.81923	0.15577	0.183976
C	4.83291	0.781708	0.766462
N	6.03041	0.345636	0.308826
H	6.55677	-1.16825	-1.18105
H	3.80911	-1.39084	-1.32319
H	4.75465	1.56775	1.53473
H	6.97639	0.683559	0.612433
