18
  This energy is -0.7621 and Call times are: 52839
C	-0.835955	0.68246	0.349039
C	-0.966388	-0.137932	-0.732774
C	0.278465	-0.827939	-0.852562
C	1.05972	-0.36829	0.166625
O	0.395087	0.554719	0.91049
H	-1.53614	1.39537	0.814601
H	-1.85052	-0.246319	-1.38135
H	0.551412	-1.57768	-1.61248
H	2.09162	-0.615456	0.465514
C	5.93513	0.57969	-0.996878
C	6.57086	0.729948	0.217375
N	6.04317	-0.0985157	1.15102
C	5.08372	-0.760213	0.518383
N	4.97907	-0.387109	-0.779088
H	6.09024	1.07578	-1.96815
H	7.40085	1.4213	0.436499
H	4.42756	-1.52879	0.957682
H	4.29917	-0.762745	-1.48471
