18
  This energy is -1.3405 and Call times are: 87682
C	-1.10128	-0.193101	-0.190531
C	-0.655461	0.455317	0.92355
C	0.767074	0.504015	0.804646
C	1.06497	-0.118942	-0.3716
O	-0.0641012	-0.550963	-0.992537
H	-2.11785	-0.458276	-0.524478
H	-1.267	0.858845	1.74652
H	1.47777	0.952807	1.5171
H	2.02772	-0.316359	-0.870992
C	4.62808	-1.02162	-0.119504
C	5.62682	-0.53215	-0.93441
N	6.06173	0.676394	-0.502226
C	5.33556	0.935683	0.576692
N	4.45663	-0.0577872	0.848904
H	4.0466	-1.95644	-0.15888
H	6.04138	-1.02938	-1.82646
H	5.40657	1.83823	1.20486
H	3.77454	-0.0880583	1.64583
