18
  This energy is -0.6369 and Call times are: 137720
C	0.99349	0.487543	0.248357
C	0.905946	-0.661966	-0.480574
C	-0.488115	-0.956569	-0.58018
C	-1.1294	0.0389189	0.0966758
O	-0.239969	0.929556	0.609212
H	1.8626	1.08273	0.573401
H	1.73944	-1.24405	-0.905498
H	-0.950387	-1.81248	-1.09769
H	-2.19999	0.224193	0.283129
C	7.33421	0.157437	-0.271815
C	6.81093	-0.796641	0.574982
N	5.46249	-0.689906	0.657597
C	5.15042	0.326522	-0.134934
N	6.2444	0.870932	-0.718387
H	8.37042	0.371991	-0.578024
H	7.38221	-1.5601	1.12781
H	4.13634	0.713915	-0.324163
H	6.25952	1.68201	-1.3841
