18
  This energy is -0.6689 and Call times are: 131376
C	1.11286	-0.0547868	0.212
C	0.21062	-0.870135	0.829695
C	-1.06786	-0.504548	0.308207
C	-0.834023	0.501931	-0.582126
O	0.492331	0.789507	-0.653519
H	2.20898	0.0223111	0.300451
H	0.42398	-1.65071	1.57754
H	-2.04284	-0.945313	0.571334
H	-1.51678	1.08771	-1.21927
C	5.46847	0.809477	-0.575334
C	5.16003	-0.525694	-0.422596
N	6.11085	-1.16739	0.298988
C	7.00574	-0.233867	0.592783
N	6.66373	0.975206	0.0880439
H	4.93962	1.62618	-1.09192
H	4.26847	-1.03748	-0.820131
H	7.92978	-0.381355	1.17471
H	7.2058	1.86865	0.183805
