18
  This energy is -1.077 and Call times are: 114568
C	-0.543245	-0.71604	0.69179
C	0.162949	-1.14376	-0.3939
C	0.693491	0.0337583	-1.0039
C	0.264669	1.07709	-0.237126
O	-0.49187	0.637494	0.802785
H	-1.11883	-1.26762	1.45318
H	0.296835	-2.18409	-0.731345
H	1.32051	0.0879128	-1.90834
H	0.427279	2.16391	-0.324493
C	5.73462	0.826187	-0.076971
C	4.58322	0.740351	-0.830668
N	3.84649	-0.340366	-0.476004
C	4.5382	-0.922763	0.494028
N	5.68452	-0.257405	0.771266
H	6.55861	1.5573	-0.0839732
H	4.27089	1.43886	-1.62401
H	4.25118	-1.8384	1.03574
H	6.39899	-0.517442	1.49457
