18
  This energy is 0.182 and Call times are: 19945
C	-0.637177	0.922173	0.173215
C	0.726097	0.963453	0.185551
C	1.16006	-0.373671	-0.0672181
C	0.0236655	-1.11401	-0.211705
O	-1.08326	-0.338723	-0.0679615
H	-1.39384	1.71021	0.320537
H	1.3623	1.84687	0.355593
H	2.19962	-0.733098	-0.132124
H	-0.12918	-2.18645	-0.416087
C	3.97686	-0.547854	-1.0343
C	5.10955	0.0788347	-0.559522
N	4.89721	0.605486	0.670948
C	3.63757	0.306653	0.958423
N	3.03965	-0.388304	-0.0381306
H	3.77805	-1.07838	-1.97906
H	6.0762	0.160413	-1.08278
H	3.103	0.572423	1.88462
H	2.05057	-0.738801	-0.0497174
