18
  This energy is -0.9071 and Call times are: 103757
C	1.08224	0.215331	0.262278
C	0.0645135	0.400151	1.15135
C	-1.1294	0.0262623	0.462225
C	-0.735863	-0.35403	-0.787126
O	0.611586	-0.244898	-0.926707
H	2.16959	0.372637	0.352669
H	0.14633	0.763339	2.18841
H	-2.15732	0.0419242	0.858749
H	-1.30972	-0.716953	-1.65558
C	5.40118	-0.0314883	-1.15915
C	5.38983	-1.1033	-0.291837
N	5.12348	-0.703635	0.975379
C	4.97018	0.611121	0.89452
N	5.12795	1.06456	-0.371614
H	5.57845	0.0269024	-2.24483
H	5.56906	-2.15783	-0.557739
H	4.74149	1.2902	1.73165
H	5.05586	2.06118	-0.692264
