18
  This energy is -0.5166 and Call times are: 115957
C	-0.159959	1.12208	-0.0417535
C	1.01703	0.566752	0.366518
C	0.832132	-0.847074	0.282686
C	-0.441519	-1.0309	-0.169414
O	-1.06201	0.160994	-0.372851
H	-0.47716	2.17327	-0.139955
H	1.9244	1.0993	0.693874
H	1.56765	-1.62867	0.532121
H	-1.01598	-1.94692	-0.384259
C	6.28035	0.873642	-0.757361
C	5.39652	0.316949	0.142689
N	5.98616	-0.670483	0.859499
C	7.23104	-0.726156	0.405865
N	7.45793	0.184923	-0.569865
H	6.15871	1.68413	-1.49347
H	4.34396	0.610096	0.287691
H	8.01773	-1.41521	0.753072
H	8.35918	0.337574	-1.08533
