18
  This energy is -1.5304 and Call times are: 33859
C	0.283406	0.986821	-0.48194
C	-0.451349	0.918547	0.665165
C	-0.599173	-0.472733	0.952577
C	0.0582979	-1.13183	-0.0442646
O	0.603335	-0.25604	-0.929101
H	0.639529	1.84725	-1.07193
H	-0.849318	1.76318	1.25023
H	-1.13454	-0.921282	1.8048
H	0.208738	-2.20723	-0.23435
C	3.85271	0.63111	-0.753529
C	3.62334	0.46373	0.595737
N	4.56895	-0.327862	1.15762
C	5.38186	-0.650339	0.160714
N	4.99267	-0.096742	-1.01217
H	3.3037	1.19776	-1.52232
H	2.79248	0.899963	1.17386
H	6.27697	-1.28878	0.234267
H	5.46864	-0.201938	-1.9415
