18
  This energy is -0.9434 and Call times are: 11588
C	0.751302	-0.839413	0.131649
C	-0.414567	-0.785274	0.837477
C	-1.0817	0.399568	0.400206
C	-0.264611	0.964872	-0.534231
O	0.859334	0.221519	-0.710826
H	1.57618	-1.57071	0.137453
H	-0.7692	-1.50727	1.59051
H	-2.05642	0.778877	0.746799
H	-0.367983	1.88216	-1.13685
C	5.23905	-0.410809	1.07156
C	6.39171	0.245505	0.695027
N	6.35775	0.578265	-0.618224
C	5.18847	0.13009	-1.05474
N	4.47705	-0.474035	-0.0736665
H	4.91783	-0.823578	2.04108
H	7.24724	0.484888	1.34742
H	4.80325	0.217694	-2.08341
H	3.52616	-0.907924	-0.167532
