18
  This energy is -1.2538 and Call times are: 114147
C	-0.0733839	0.131467	1.12416
C	-0.62317	-0.935356	0.476085
C	-0.324392	-0.748375	-0.908071
C	0.381598	0.416202	-0.983646
O	0.544203	0.967	0.248098
H	-0.0527864	0.407333	2.19127
H	-1.18296	-1.77021	0.927467
H	-0.606469	-1.40943	-1.74325
H	0.817916	0.952233	-1.84245
C	5.32777	-0.798397	0.249896
C	4.53807	-0.750825	-0.879372
N	3.68992	0.305337	-0.838368
C	3.95246	0.910676	0.311963
N	4.9325	0.283454	1.00458
H	6.11675	-1.50208	0.559554
H	4.56509	-1.45966	-1.72298
H	3.45672	1.81672	0.696103
H	5.31782	0.567213	1.93853
