18
  This energy is -0.6564 and Call times are: 33216
C	-1.01605	-0.365766	0.346777
C	0.148441	-0.941679	0.762295
C	1.19576	-0.214365	0.118676
C	0.578821	0.741794	-0.633331
O	-0.772003	0.663939	-0.505959
H	-2.06876	-0.593036	0.58214
H	0.258832	-1.79324	1.45277
H	2.27964	-0.389896	0.210907
H	0.983356	1.52651	-1.2935
C	5.2302	-0.148588	-0.650009
C	5.62763	-0.909217	0.429178
N	6.79727	-0.45608	0.942113
C	7.12423	0.581716	0.18402
N	6.21109	0.80768	-0.790002
H	4.34821	-0.217812	-1.30638
H	5.09135	-1.77685	0.846881
H	8.02126	1.21141	0.298231
H	6.24405	1.56672	-1.51391
