18
  This energy is -1.3689 and Call times are: 81598
C	-0.264225	-1.08024	-0.22285
C	-0.993546	-0.312247	0.636596
C	-0.357863	0.96671	0.653678
C	0.703799	0.867365	-0.196839
O	0.776141	-0.375871	-0.74103
H	-0.380646	-2.12781	-0.545819
H	-1.88931	-0.615909	1.20183
H	-0.662762	1.85183	1.23479
H	1.47187	1.59934	-0.496041
C	4.165	-1.06953	0.359139
C	3.77209	0.141701	0.888
N	4.35291	1.1739	0.229432
C	5.1033	0.605188	-0.704434
N	5.024	-0.74608	-0.667355
H	3.90286	-2.10424	0.631526
H	3.07991	0.289295	1.73296
H	5.73086	1.13134	-1.44171
H	5.52199	-1.41913	-1.30002
