18
  This energy is -0.6851 and Call times are: 81936
C	0.881995	-0.546036	-0.458617
C	0.817273	-0.250423	0.871344
C	-0.424914	0.428651	1.06094
C	-1.00962	0.488063	-0.169898
O	-0.22534	-0.10236	-1.10975
H	1.65159	-1.06144	-1.05639
H	1.56887	-0.486845	1.6416
H	-0.827919	0.823423	2.00743
H	-1.96841	0.917524	-0.503872
C	4.94116	-0.0962881	0.181412
C	5.92469	-0.00622497	1.14355
N	7.15274	0.0930324	0.579148
C	6.9319	0.0646536	-0.728158
N	5.61424	-0.0485457	-1.01895
H	3.84642	-0.187919	0.263242
H	5.77019	-0.0110862	2.23486
H	7.69903	0.123396	-1.51701
H	5.18681	-0.0917172	-1.97639
