18
  This energy is -2.0539 and Call times are: 1501
C	-0.906486	0.671508	0.117306
C	-0.610092	0.0429342	-1.05633
C	0.58567	-0.698887	-0.811441
C	0.91443	-0.458145	0.490225
O	0.0140263	0.376726	1.0727
H	-1.73249	1.34574	0.397257
H	-1.17667	0.096302	-1.99985
H	1.13055	-1.33504	-1.52734
H	1.75221	-0.81608	1.11092
C	4.27557	0.901766	0.625917
C	5.43261	0.194092	0.874124
N	5.61669	-0.780761	-0.0490704
C	4.57781	-0.678248	-0.866891
N	3.74035	0.32142	-0.502319
H	3.81069	1.74902	1.15467
H	6.13787	0.369454	1.7028
H	4.38132	-1.30975	-1.74827
H	2.85248	0.601107	-0.986809
