18
  This energy is -0.9021 and Call times are: 51611
C	-0.500033	0.967638	0.316298
C	0.762548	0.932207	-0.198493
C	1.03526	-0.443121	-0.470921
C	-0.084742	-1.12672	-0.0985576
O	-1.03252	-0.280892	0.384457
H	-1.12321	1.80654	0.667223
H	1.43444	1.78865	-0.369254
H	1.96064	-0.865035	-0.894901
H	-0.328468	-2.20146	-0.12669
C	6.3153	0.631083	-0.386081
C	5.62869	-0.341666	-1.08141
N	4.62865	-0.86468	-0.331159
C	4.6946	-0.21885	0.825205
N	5.69515	0.693403	0.841813
H	7.17272	1.26233	-0.668727
H	5.83699	-0.675483	-2.11099
H	4.03463	-0.374684	1.69376
H	5.94995	1.32738	1.63831
