18
  This energy is -1.613 and Call times are: 81171
C	0.459438	-0.926169	-0.466399
C	-0.341852	-0.0751857	-1.16935
C	-0.718723	0.953585	-0.252986
C	-0.114464	0.640451	0.929043
O	0.60911	-0.504481	0.816874
H	0.977333	-1.85367	-0.760987
H	-0.63784	-0.163096	-2.22706
H	-1.36501	1.82191	-0.458949
H	-0.120948	1.14438	1.90948
C	4.01321	-0.838889	-0.580549
C	5.28422	-0.931337	-0.0541225
N	5.64831	0.225883	0.54986
C	4.60712	1.03317	0.398703
N	3.59566	0.437568	-0.276419
H	3.39687	-1.56683	-1.13169
H	5.94506	-1.8123	-0.0992955
H	4.53239	2.0705	0.76282
H	2.66977	0.866442	-0.521488
