18
  This energy is -1.833 and Call times are: 48321
C	-0.291697	-0.75989	0.789861
C	0.82292	-0.901342	0.0165609
C	0.84892	0.238295	-0.844061
C	-0.252103	0.975559	-0.5207
O	-0.96017	0.380801	0.475249
H	-0.712868	-1.39288	1.58811
H	1.55351	-1.72553	0.0489337
H	1.60368	0.473394	-1.61163
H	-0.637097	1.92827	-0.919924
C	4.86374	-0.317033	-1.08237
C	6.10568	-0.504519	-0.51351
N	6.14306	-0.0163169	0.750125
C	4.92894	0.472179	0.964378
N	4.1206	0.315028	-0.110552
H	4.46934	-0.579898	-2.07679
H	6.97541	-0.983307	-0.992226
H	4.57838	0.955615	1.89046
H	3.11866	0.617116	-0.188769
