18
  This energy is -0.8178 and Call times are: 29131
C	1.0485	0.222188	-0.371041
C	0.360003	-0.892182	-0.751197
C	-0.901418	-0.818578	-0.085226
C	-0.872398	0.334272	0.643105
O	0.310945	0.982523	0.480374
H	2.05661	0.583447	-0.632696
H	0.705733	-1.68636	-1.43227
H	-1.72817	-1.54434	-0.147279
H	-1.61943	0.797944	1.30808
C	5.02235	0.294783	-0.91596
C	6.17133	-0.466778	-0.947867
N	6.69811	-0.608653	0.29265
C	5.87905	0.0623399	1.0911
N	4.85296	0.625266	0.410041
H	4.33614	0.614288	-1.71632
H	6.62964	-0.916408	-1.84376
H	5.9838	0.173611	2.18238
H	4.07634	1.20333	0.814958
