18
  This energy is -0.7484 and Call times are: 8812
C	0.634149	-0.927435	0.155306
C	0.891409	-0.0238481	-0.833492
C	-0.108655	0.988221	-0.708168
C	-0.888756	0.613753	0.346151
O	-0.449551	-0.553858	0.885406
H	1.14117	-1.86404	0.439814
H	1.70391	-0.0658041	-1.57658
H	-0.225711	1.88698	-1.33477
H	-1.77322	1.08534	0.805034
C	5.97499	1.04153	-0.519311
C	4.76139	0.461883	-0.215466
N	4.93109	-0.743324	0.380509
C	6.24498	-0.910717	0.446142
N	6.91829	0.138024	-0.0833692
H	6.22575	2.00103	-0.998912
H	3.76637	0.891702	-0.415596
H	6.76733	-1.78254	0.871947
H	7.96036	0.242893	-0.149268
