18
  This energy is -1.0315 and Call times are: 101596
C	-0.836497	0.0255217	0.765521
C	-0.889051	0.735697	-0.397777
C	0.329164	0.449105	-1.08621
C	1.01861	-0.410903	-0.282825
O	0.321554	-0.680455	0.852281
H	-1.54902	-0.0607525	1.60225
H	-1.70393	1.39521	-0.737057
H	0.646609	0.842234	-2.06538
H	2.00111	-0.895942	-0.403975
C	4.4828	0.746721	-0.559572
C	4.38197	0.326977	0.749929
N	5.37859	-0.535701	1.06464
C	6.09497	-0.650701	-0.0454069
N	5.59547	0.103045	-1.05335
H	3.86219	1.43496	-1.15515
H	3.60796	0.631148	1.47328
H	6.99489	-1.27325	-0.175057
H	5.98214	0.182056	-2.02573
