18
  This energy is -1.1069 and Call times are: 32502
C	1.04722	0.212357	0.380297
C	0.786944	-0.763375	-0.536532
C	-0.623379	-0.724473	-0.759227
C	-1.10043	0.271597	0.0411754
O	-0.0939383	0.854501	0.744179
H	1.98895	0.544014	0.847634
H	1.51505	-1.4424	-1.00865
H	-1.20616	-1.36734	-1.43833
H	-2.12103	0.657382	0.198655
C	4.80742	-0.629888	-0.600122
C	5.93843	-0.0249036	-1.10604
N	6.62552	0.619133	-0.131551
C	5.92343	0.41447	0.974709
N	4.81811	-0.33309	0.744491
H	4.02191	-1.23058	-1.08559
H	6.27098	-0.0415817	-2.15675
H	6.17348	0.789267	1.98031
H	4.10511	-0.630026	1.45493
