18
  This energy is -1.175 and Call times are: 108259
C	-0.043043	1.05903	0.403737
C	-0.284701	-0.0314823	1.18653
C	-0.137902	-1.16649	0.331931
C	0.180503	-0.669366	-0.897646
O	0.24271	0.688017	-0.87208
H	-0.043281	2.13749	0.632178
H	-0.540657	-0.0361626	2.25823
H	-0.257411	-2.22615	0.609301
H	0.384521	-1.17016	-1.85829
C	5.51529	-0.186311	-0.326355
C	4.44836	0.0996065	-1.15162
N	3.3066	0.254433	-0.438237
C	3.66385	0.0652857	0.824783
N	4.98559	-0.203472	0.944593
H	6.57854	-0.372569	-0.546222
H	4.48197	0.196952	-2.249
H	2.99767	0.112048	1.70128
H	5.50743	-0.389479	1.83585
