18
  This energy is -0.6063 and Call times are: 58330
C	-0.590535	-0.706006	0.66274
C	-1.0932	0.488406	0.237201
C	-0.0693021	1.08053	-0.563516
C	0.968663	0.195679	-0.556599
O	0.667647	-0.901068	0.187409
H	-1.02258	-1.49621	1.29847
H	-2.08547	0.910182	0.464375
H	-0.109864	2.05267	-1.0806
H	1.96127	0.229346	-1.03498
C	6.29304	0.145702	1.00606
C	5.07668	0.703814	0.674236
N	4.68597	0.32208	-0.565982
C	5.65627	-0.469839	-1.00189
N	6.64814	-0.6078	-0.0904429
H	6.91049	0.228645	1.91459
H	4.47399	1.37509	1.30749
H	5.69093	-0.974804	-1.98069
H	7.52131	-1.17978	-0.198477
