18
  This energy is -1.1356 and Call times are: 65032
C	-0.342155	0.237036	1.05506
C	-0.855387	0.869884	-0.0387768
C	-0.184	0.307155	-1.16691
C	0.680238	-0.619892	-0.662881
O	0.59694	-0.675996	0.692452
H	-0.558643	0.344743	2.1306
H	-1.62914	1.65428	-0.0500789
H	-0.333699	0.568501	-2.22681
H	1.39792	-1.29517	-1.15703
C	4.8917	0.952051	0.664788
C	4.04488	-0.0984541	0.948475
N	4.06984	-1.02651	-0.0387428
C	4.92889	-0.553546	-0.931477
N	5.45154	0.636973	-0.553201
H	5.12768	1.87089	1.22477
H	3.41634	-0.203368	1.8478
H	5.21191	-1.03849	-1.87961
H	6.15013	1.21069	-1.08619
