18
  This energy is -0.7176 and Call times are: 55893
C	-0.853485	0.188874	0.722696
C	-1.06193	-0.193423	-0.569887
C	0.235523	-0.329736	-1.15139
C	1.12229	-0.0187057	-0.162816
O	0.474624	0.30046	0.988561
H	-1.55688	0.409842	1.54225
H	-2.03204	-0.362472	-1.06427
H	0.471397	-0.625488	-2.18627
H	2.22418	0.0125949	-0.152365
C	6.64983	-0.754026	-0.306184
C	6.65228	0.0929941	0.781793
N	7.793	0.823009	0.830136
C	8.49556	0.430364	-0.223842
N	7.84913	-0.519218	-0.940793
H	5.90439	-1.48295	-0.661871
H	5.85139	0.190446	1.53274
H	9.48924	0.805442	-0.517355
H	8.19554	-0.987384	-1.81377
