18
  This energy is -1.4764 and Call times are: 87940
C	0.481214	-0.957636	-0.37117
C	-0.0976877	-0.0562308	-1.21539
C	-0.584072	0.999921	-0.385882
C	-0.259457	0.650681	0.892018
O	0.391548	-0.54198	0.919645
H	0.983965	-1.91993	-0.562193
H	-0.174499	-0.127862	-2.31224
H	-1.11297	1.90998	-0.7117
H	-0.433462	1.15792	1.85518
C	4.93902	1.10356	0.384608
C	5.93633	0.199173	0.0869659
N	5.41713	-0.981039	-0.33021
C	4.10271	-0.809477	-0.291518
N	3.76407	0.430972	0.132982
H	4.98086	2.14349	0.745632
H	7.02122	0.377109	0.16576
H	3.3424	-1.55932	-0.563367
H	2.79173	0.808445	0.248429
