18
  This energy is -1.5323 and Call times are: 108066
C	-1.1212	-0.148549	0.0851768
C	-0.517756	1.03988	0.3748
C	0.877861	0.83459	0.150688
C	1.00406	-0.46116	-0.256103
O	-0.206815	-1.07654	-0.301798
H	-2.17895	-0.457667	0.114396
H	-1.0064	1.96797	0.712392
H	1.68644	1.57187	0.27997
H	1.88817	-1.05591	-0.538713
C	5.23636	0.972688	0.659486
C	6.2366	0.639357	-0.229082
N	5.98853	-0.555545	-0.818302
C	4.83876	-0.961953	-0.297252
N	4.34499	-0.0751674	0.599071
H	5.10033	1.85208	1.30887
H	7.13282	1.23964	-0.455578
H	4.31391	-1.90078	-0.536774
H	3.45308	-0.168135	1.14414
