18
  This energy is -0.8028 and Call times are: 107046
C	1.01915	-0.479075	0.135006
C	0.319639	-0.566941	-1.03262
C	-0.895803	0.151084	-0.815229
C	-0.831738	0.614341	0.466044
O	0.330903	0.238836	1.06125
H	2.00365	-0.878342	0.429286
H	0.628564	-1.08538	-1.95451
H	-1.71662	0.300047	-1.53506
H	-1.53841	1.21413	1.0628
C	6.29399	0.114746	0.756772
C	5.58473	1.13171	0.153563
N	4.62084	0.638543	-0.661436
C	4.73172	-0.679362	-0.564199
N	5.7262	-1.04518	0.278883
H	7.13456	0.133738	1.46855
H	5.75122	2.21246	0.291817
H	4.11027	-1.42304	-1.08858
H	6.01053	-2.0256	0.522155
