18
  This energy is -0.6703 and Call times are: 103888
C	0.958903	0.503682	0.336468
C	-0.170549	0.498346	1.10111
C	-1.14824	-0.222164	0.349384
C	-0.529938	-0.593516	-0.808273
O	0.757408	-0.158617	-0.83305
H	1.95705	0.938354	0.509731
H	-0.302012	0.955889	2.09483
H	-2.18847	-0.434329	0.644371
H	-0.892159	-1.16136	-1.68097
C	4.8953	0.877565	0.600213
C	5.33545	-0.326393	1.10805
N	5.86635	-1.10327	0.1328
C	5.75598	-0.383998	-0.975845
N	5.17686	0.818321	-0.746413
H	4.41758	1.74342	1.08561
H	5.27945	-0.648398	2.16068
H	6.08301	-0.689807	-1.9827
H	4.97987	1.56342	-1.45865
