18
  This energy is -0.6836 and Call times are: 125981
C	0.741699	0.0533837	-0.856408
C	1.10736	0.263477	0.440716
C	-0.0851139	0.112959	1.21239
C	-1.0742	-0.175827	0.318701
O	-0.587094	-0.216194	-0.94941
H	1.32484	0.0673406	-1.79182
H	2.11566	0.500653	0.816437
H	-0.185202	0.210229	2.30537
H	-2.15027	-0.371301	0.456989
C	6.87845	-0.434939	0.488425
C	5.5796	-0.670397	0.886788
N	4.69891	-0.00788386	0.0981387
C	5.44855	0.63613	-0.786117
N	6.7697	0.410845	-0.592784
H	7.84035	-0.79731	0.884612
H	5.26218	-1.30645	1.72913
H	5.08151	1.28632	-1.59653
H	7.56052	0.805313	-1.1587
