18
  This energy is -1.126 and Call times are: 110961
C	0.781015	-0.039878	0.821478
C	-0.528306	-0.351508	1.0427
C	-1.18756	-0.184617	-0.213348
C	-0.222895	0.214264	-1.09124
O	0.985453	0.307907	-0.476313
H	1.65335	-0.0267238	1.49535
H	-0.984155	-0.667231	1.99486
H	-2.25617	-0.345216	-0.428671
H	-0.267839	0.45963	-2.16503
C	5.4138	0.949495	-0.326811
C	5.34517	0.403294	0.937348
N	4.5439	-0.689486	0.954642
C	4.11705	-0.820718	-0.294041
N	4.61353	0.143266	-1.10511
H	5.95735	1.82563	-0.714716
H	5.85947	0.778137	1.83726
H	3.43971	-1.60485	-0.668976
H	4.4248	0.25518	-2.13133
