18
  This energy is -0.5401 and Call times are: 19041
C	1.10544	-0.0251471	-0.252518
C	0.24559	-1.01137	-0.637731
C	-1.03717	-0.628145	-0.139967
C	-0.847963	0.558434	0.505481
O	0.454623	0.941607	0.446647
H	2.18871	0.10353	-0.41131
H	0.490108	-1.91779	-1.21454
H	-1.98498	-1.17836	-0.254106
H	-1.54953	1.22033	1.03928
C	5.32927	-0.123354	0.472673
C	6.22209	0.901961	0.70235
N	7.36207	0.725709	-0.00890227
C	7.17718	-0.404649	-0.677278
N	5.9668	-0.954915	-0.420775
H	4.31905	-0.313748	0.868587
H	6.06411	1.76574	1.36852
H	7.89552	-0.874622	-1.36818
H	5.58648	-1.84536	-0.825413
