18
  This energy is -1.1795 and Call times are: 106726
C	0.117984	1.10085	-0.246191
C	1.18762	0.276756	-0.0534986
C	0.641881	-1.01201	0.231762
C	-0.713066	-0.861693	0.188207
O	-1.05072	0.42227	-0.102381
H	0.0565599	2.17472	-0.487626
H	2.25396	0.549086	-0.106882
H	1.20096	-1.93758	0.443527
H	-1.53383	-1.58102	0.343683
C	4.91899	0.222352	-1.14144
C	5.25848	1.13416	-0.164456
N	5.38832	0.53157	1.04241
C	5.13037	-0.7492	0.815002
N	4.84178	-0.9865	-0.486534
H	4.73309	0.344108	-2.2204
H	5.41205	2.21603	-0.30877
H	5.13883	-1.55582	1.56569
H	4.60444	-1.91454	-0.915103
