18
  This energy is -1.3836 and Call times are: 40400
C	0.689953	-0.373109	-0.81924
C	-0.29992	0.535081	-1.05528
C	-0.941016	0.750507	0.202772
C	-0.286313	-0.0450555	1.09654
O	0.712694	-0.738338	0.489615
H	1.43516	-0.832937	-1.48893
H	-0.55323	1.00605	-2.01867
H	-1.79022	1.42172	0.408739
H	-0.433134	-0.20514	2.17731
C	4.42641	-0.693467	-0.942452
C	4.72568	0.649791	-0.857352
N	4.45615	1.13303	0.379722
C	3.99145	0.0935073	1.05948
N	3.95413	-1.03111	0.306201
H	4.51321	-1.40912	-1.77542
H	5.13124	1.27892	-1.66641
H	3.66417	0.100357	2.11166
H	3.62762	-1.97955	0.614593
