18
  This energy is -1.1794 and Call times are: 81790
C	0.219688	0.913595	-0.635202
C	-1.00216	0.307481	-0.625322
C	-0.887135	-0.789452	0.282216
C	0.394843	-0.756824	0.746804
O	1.08506	0.276805	0.197053
H	0.595177	1.79294	-1.18385
H	-1.89488	0.603173	-1.19951
H	-1.67295	-1.51335	0.551573
H	0.930372	-1.40376	1.4609
C	4.29759	-0.456601	1.04171
C	4.36419	-1.12057	-0.164878
N	4.74804	-0.286091	-1.16127
C	4.91892	0.891097	-0.575056
N	4.6597	0.840212	0.753029
H	4.02715	-0.803581	2.05166
H	4.14215	-2.1868	-0.334316
H	5.23299	1.82341	-1.07142
H	4.7226	1.63685	1.43322
