18
  This energy is -1.3392 and Call times are: 13482
C	-0.379003	0.244333	1.0407
C	-1.21665	-0.0962375	0.01956
C	-0.37822	-0.326779	-1.11358
C	0.897769	-0.106738	-0.684849
O	0.915967	0.242946	0.628315
H	-0.577777	0.50671	2.09279
H	-2.3148	-0.177009	0.0601898
H	-0.697048	-0.621836	-2.12619
H	1.86559	-0.165136	-1.2094
C	5.03103	-1.16599	-0.0916228
C	5.82497	-0.196346	-0.666602
N	5.3843	1.04593	-0.351857
C	4.32102	0.847718	0.415464
N	4.0669	-0.46918	0.601987
H	5.0822	-2.26588	-0.125807
H	6.70786	-0.370871	-1.30291
H	3.69192	1.63153	0.867236
H	3.28449	-0.880943	1.16727
