18
  This energy is -0.4717 and Call times are: 133407
C	1.02161	-0.212558	-0.444439
C	0.630053	1.04231	-0.0806402
C	-0.697327	0.905441	0.428719
C	-0.999731	-0.42099	0.331219
O	0.0386368	-1.11863	-0.199908
H	1.96129	-0.58694	-0.882723
H	1.21706	1.97117	-0.162738
H	-1.34411	1.70708	0.820067
H	-1.90697	-0.985818	0.601658
C	5.42927	-0.358217	-0.332126
C	6.2475	-0.953612	0.604439
N	7.41236	-0.274098	0.738102
C	7.31714	0.738997	-0.112308
N	6.13998	0.73225	-0.781519
H	4.42503	-0.624456	-0.698405
H	6.0182	-1.86132	1.18611
H	8.08019	1.51506	-0.28473
H	5.82812	1.4256	-1.50489
