18
  This energy is -1.1917 and Call times are: 3020
C	-0.740114	0.801427	0.3104
C	0.482164	0.667819	0.90079
C	1.11339	-0.434567	0.247787
C	0.221126	-0.877297	-0.683999
O	-0.916359	-0.133961	-0.659651
H	-1.56395	1.51212	0.487772
H	0.897591	1.28377	1.7145
H	2.11554	-0.843281	0.454536
H	0.275581	-1.70046	-1.41522
C	4.55394	0.656435	0.630545
C	5.65227	-0.0313007	1.10155
N	6.28779	-0.68339	0.0978499
C	5.58639	-0.401266	-0.991675
N	4.53093	0.403299	-0.722814
H	3.81184	1.28704	1.14548
H	5.99753	-0.0686609	2.14761
H	5.80155	-0.757553	-2.01197
H	3.82885	0.765297	-1.41368
