18
  This energy is -1.0616 and Call times are: 27976
C	-0.72034	0.00798438	-0.876041
C	0.0887651	1.06705	-0.586022
C	0.837074	0.682795	0.568319
C	0.419192	-0.577156	0.881799
O	-0.531727	-1.00497	0.010167
H	-1.46416	-0.146579	-1.67485
H	0.152273	2.02295	-1.13036
H	1.59613	1.28154	1.09693
H	0.71657	-1.26637	1.68914
C	5.49958	-0.594296	0.820007
C	4.66474	0.483894	1.0242
N	4.13804	0.922354	-0.144928
C	4.64421	0.119228	-1.07089
N	5.47113	-0.81206	-0.539389
H	6.09214	-1.20175	1.52243
H	4.43301	0.953281	1.99416
H	4.44262	0.168822	-2.15308
H	5.99146	-1.5579	-1.06308
