18
  This energy is -0.7029 and Call times are: 78719
C	0.706608	0.692881	0.554095
C	-0.535135	0.385249	1.02718
C	-1.11146	-0.500201	0.0659597
C	-0.17102	-0.655491	-0.909662
O	0.94567	0.0660188	-0.627813
H	1.50455	1.33661	0.959261
H	-0.998751	0.745696	1.95951
H	-2.11076	-0.962775	0.104838
H	-0.174973	-1.24378	-1.84194
C	5.87991	-0.910944	-0.641049
C	6.54728	0.273039	-0.408811
N	5.81464	1.10139	0.374501
C	4.69701	0.433838	0.627247
N	4.68816	-0.784924	0.0372202
H	6.15938	-1.80446	-1.22162
H	7.5443	0.544411	-0.792422
H	3.85243	0.790687	1.23846
H	3.91985	-1.498	0.0869665
