18
  This energy is -0.9372 and Call times are: 12275
C	-0.715278	0.706433	-0.525101
C	-0.10864	1.02465	0.654349
C	0.703679	-0.100541	0.992279
C	0.521729	-1.00702	-0.010499
O	-0.341742	-0.530736	-0.945691
H	-1.42387	1.26643	-1.1572
H	-0.221831	1.9581	1.22877
H	1.34553	-0.212955	1.88081
H	0.943395	-2.01262	-0.172405
C	4.42995	0.155139	0.95502
C	4.67399	1.07478	-0.0428989
N	5.49231	0.559828	-0.992476
C	5.75492	-0.674587	-0.585199
N	5.13763	-0.966396	0.584154
H	3.82302	0.217348	1.87224
H	4.27427	2.10064	-0.0947298
H	6.393	-1.40723	-1.10513
H	5.18843	-1.87406	1.10839
