18
  This energy is -1.0611 and Call times are: 58875
C	-0.303475	-0.636782	0.888151
C	0.568824	0.405697	1.00087
C	0.697014	0.952017	-0.312608
C	-0.108265	0.195158	-1.11202
O	-0.726996	-0.779762	-0.395281
H	-0.697851	-1.3442	1.636
H	1.07157	0.75493	1.91705
H	1.31891	1.80905	-0.617298
H	-0.324278	0.247886	-2.19175
C	4.26319	-0.304572	-0.000379738
C	5.33792	-1.11805	-0.290854
N	6.50597	-0.437846	-0.193488
C	6.15721	0.792927	0.15606
N	4.81566	0.924023	0.285136
H	3.18046	-0.506291	0.0225921
H	5.29143	-2.18358	-0.568939
H	6.8439	1.63687	0.330555
H	4.29549	1.79553	0.551888
