18
  This energy is -1.1529 and Call times are: 9591
C	-1.1091	-0.144262	-0.18837
C	-0.35772	-1.06045	0.487198
C	0.968476	-0.531043	0.519555
C	0.91044	0.66193	-0.139097
O	-0.350769	0.914028	-0.578198
H	-2.17899	-0.128864	-0.453609
H	-0.70275	-2.01348	0.919387
H	1.85613	-0.991987	0.981818
H	1.68582	1.41395	-0.359316
C	4.59638	-0.209916	-0.577732
C	5.80119	-0.858051	-0.749502
N	6.74704	-0.360078	0.0835062
C	6.13135	0.59336	0.769443
N	4.83297	0.722672	0.407405
H	3.61995	-0.341924	-1.07038
H	6.00491	-1.67607	-1.45957
H	6.5842	1.22743	1.54862
H	4.13878	1.40361	0.80198
