18
  This energy is -2.1528 and Call times are: 55796
C	-0.631561	0.735734	-0.58841
C	0.0315801	-0.296967	-1.18351
C	0.703942	-0.988647	-0.130124
C	0.392317	-0.317562	1.0157
O	-0.422425	0.738353	0.754448
H	-1.27666	1.5269	-1.00453
H	0.0458413	-0.546614	-2.25662
H	1.34316	-1.88121	-0.224119
H	0.682745	-0.488801	2.06526
C	3.57836	1.03541	-0.457776
C	4.0076	-0.0775518	-1.1493
N	4.29635	-1.09671	-0.304052
C	4.04718	-0.617831	0.907234
N	3.61187	0.663783	0.867726
H	3.26197	2.03234	-0.803575
H	4.11412	-0.163425	-2.24298
H	4.16647	-1.16293	1.85743
H	3.34982	1.26063	1.69013
