18
  This energy is -0.7234 and Call times are: 83011
C	1.01565	-0.484018	-0.143499
C	0.179599	-0.217191	-1.18763
C	-0.982757	0.383069	-0.614276
C	-0.754401	0.430063	0.729606
O	0.461269	-0.0952667	1.03487
H	2.01794	-0.941613	-0.107941
H	0.363016	-0.422473	-2.25455
H	-1.87974	0.735724	-1.14827
H	-1.36941	0.807671	1.56293
C	4.84185	0.488614	-0.163281
C	6.00198	0.778488	-0.849728
N	7.03595	0.0257601	-0.401598
C	6.51923	-0.728218	0.559204
N	5.19935	-0.486426	0.740976
H	3.8212	0.89367	-0.251337
H	6.11147	1.51728	-1.66032
H	7.06268	-1.47384	1.16164
H	4.56853	-0.95285	1.43795
