18
  This energy is -1.3027 and Call times are: 97965
C	-1.10654	0.152373	-0.196836
C	-0.165003	0.290739	-1.17394
C	1.09059	0.0234973	-0.547684
C	0.805478	-0.254585	0.75683
O	-0.531581	-0.180472	0.988762
H	-2.20322	0.262531	-0.217439
H	-0.337364	0.554532	-2.22978
H	2.08529	0.0388909	-1.02143
H	1.45583	-0.516268	1.6076
C	5.12118	-0.85804	-0.774557
C	4.87752	0.469315	-1.05722
N	4.66178	1.17883	0.0770435
C	4.77119	0.294997	1.05964
N	5.0476	-0.947458	0.597587
H	5.33462	-1.71668	-1.43085
H	4.85352	0.92775	-2.05928
H	4.65829	0.504013	2.13565
H	5.18053	-1.81382	1.17466
