18
  This energy is -0.6118 and Call times are: 36417
C	0.970933	-0.380693	0.445829
C	0.651051	-0.559048	-0.868036
C	-0.628873	0.0497302	-1.04496
C	-0.978147	0.546359	0.176412
O	-0.0127373	0.292511	1.09867
H	1.85603	-0.681424	1.03014
H	1.25574	-1.06823	-1.63561
H	-1.21386	0.106404	-1.97698
H	-1.87394	1.09268	0.514552
C	5.11788	0.184163	0.424503
C	6.28106	0.0516299	1.15293
N	7.34619	-0.151458	0.340053
C	6.84569	-0.144939	-0.887989
N	5.50627	0.0538772	-0.890172
H	4.07599	0.356231	0.738175
H	6.37081	0.0989087	2.25045
H	7.41537	-0.281094	-1.82135
H	4.88249	0.099991	-1.7328
