18
  This energy is -1.0378 and Call times are: 13626
C	0.301447	1.09207	-0.0540708
C	-0.999273	0.698238	0.0616864
C	-0.973747	-0.729387	0.0984875
C	0.340319	-1.08193	0.00197075
O	1.13314	0.0178895	-0.0919908
H	0.759385	2.09278	-0.118291
H	-1.88761	1.34788	0.115736
H	-1.83835	-1.40671	0.186743
H	0.833774	-2.06762	-0.0110448
C	4.34182	-0.587069	-0.853742
C	5.47844	0.182309	-0.985214
N	5.84893	0.714036	0.204961
C	4.94558	0.276193	1.07149
N	4.01568	-0.512079	0.481996
H	3.76133	-1.16342	-1.59157
H	6.03782	0.363264	-1.91752
H	4.91788	0.502366	2.1496
H	3.2014	-0.977454	0.952777
