18
  This energy is -3.279 and Call times are: 85175
C	-0.33513	1.08291	-0.0373894
C	0.0108136	0.465203	1.12843
C	0.369686	-0.870481	0.771676
C	0.211365	-0.951083	-0.58066
O	-0.218528	0.232759	-1.09127
H	-0.676537	2.10986	-0.247311
H	0.0130562	0.905923	2.13831
H	0.705498	-1.67127	1.44995
H	0.369293	-1.78261	-1.28697
C	3.7557	-0.390069	-1.01761
C	5.05439	-0.527004	-0.575124
N	5.21793	0.0424094	0.643701
C	4.02522	0.530736	0.956151
N	3.10959	0.295633	-0.0133488
H	3.26203	-0.721012	-1.94514
H	5.87631	-1.02646	-1.11349
H	3.76712	1.06937	1.88216
H	2.09987	0.581277	-0.00214124
