18
  This energy is -0.808 and Call times are: 72152
C	-0.730253	-0.733807	0.463313
C	-0.773647	0.603979	0.725649
C	0.288967	1.1855	-0.0311855
C	0.887905	0.151741	-0.689202
O	0.278361	-1.02773	-0.398844
H	-1.35266	-1.56982	0.822408
H	-1.4828	1.12865	1.38589
H	0.567506	2.2507	-0.0744213
H	1.74402	0.124861	-1.38317
C	5.72302	0.990276	0.361793
C	5.70828	-0.22398	1.01487
N	5.01093	-1.14876	0.311321
C	4.59462	-0.510641	-0.774091
N	4.9982	0.781821	-0.790319
H	6.18268	1.95576	0.626539
H	6.18834	-0.449344	1.9811
H	3.99124	-0.94221	-1.5889
H	4.79723	1.49015	-1.53808
