18
  This energy is -1.1316 and Call times are: 53737
C	-0.526683	-0.968991	-0.264694
C	-0.795936	-0.280856	0.881756
C	0.0542201	0.866654	0.857822
C	0.767942	0.778448	-0.30114
O	0.425982	-0.336435	-0.999074
H	-0.939309	-1.90855	-0.667456
H	-1.52053	-0.553931	1.66565
H	0.119837	1.66018	1.61947
H	1.53822	1.43553	-0.737205
C	5.7741	0.802885	-0.534838
C	6.15535	-0.457232	-0.125086
N	5.1231	-1.11511	0.456423
C	4.10533	-0.266346	0.40761
N	4.44723	0.904298	-0.180852
H	6.33443	1.60779	-1.03654
H	7.15676	-0.90349	-0.238626
H	3.08783	-0.45109	0.788131
H	3.82087	1.73157	-0.337585
