18
  This energy is -1.1395 and Call times are: 29099
C	-0.186111	0.43412	1.03117
C	-1.16393	-0.190669	0.314314
C	-0.552808	-0.593357	-0.91226
C	0.744516	-0.179099	-0.836672
O	0.985958	0.450281	0.343412
H	-0.197364	0.9033	2.02866
H	-2.21057	-0.351805	0.618736
H	-1.03141	-1.12879	-1.74793
H	1.58358	-0.27022	-1.54583
C	5.91802	0.774363	0.0869966
C	7.18025	0.893464	0.62898
N	7.94362	-0.186002	0.331448
C	7.15796	-0.971786	-0.392363
N	5.92634	-0.437037	-0.567702
H	5.04362	1.4436	0.119773
H	7.55379	1.73895	1.22937
H	7.43402	-1.94956	-0.818948
H	5.12957	-0.863911	-1.10081
