18
  This energy is -0.8103 and Call times are: 12345
C	0.803843	-0.434919	0.671627
C	-0.519958	-0.717143	0.839784
C	-1.20685	0.00596966	-0.182666
C	-0.242163	0.666243	-0.885369
O	0.991739	0.408441	-0.377396
H	1.69805	-0.766525	1.22452
H	-0.967821	-1.36913	1.60688
H	-2.29317	0.0261119	-0.365935
H	-0.303699	1.34078	-1.75512
C	5.02481	1.07442	0.393671
C	4.66596	-0.130975	0.958811
N	5.15512	-1.1717	0.24178
C	5.81492	-0.614054	-0.76436
N	5.76585	0.738337	-0.717226
H	4.81237	2.11296	0.693417
H	4.06286	-0.268368	1.87108
H	6.35206	-1.14943	-1.56379
H	6.20806	1.40403	-1.39735
