18
  This energy is -1.8731 and Call times are: 126431
C	-0.468355	-0.290728	-0.991222
C	-0.718742	0.906888	-0.388398
C	0.0411179	0.902281	0.821027
C	0.688766	-0.297742	0.8505
O	0.389173	-1.03904	-0.248468
H	-0.833615	-0.723715	-1.93693
H	-1.3729	1.71271	-0.758288
H	0.0932401	1.70382	1.57529
H	1.38078	-0.737139	1.58759
C	3.97087	-1.01726	-0.587576
C	3.69504	0.226068	-1.11596
N	3.69185	1.17739	-0.150824
C	3.96467	0.526708	0.972033
N	4.14131	-0.799187	0.761342
H	4.05513	-2.00874	-1.06025
H	3.49827	0.453733	-2.17629
H	4.04699	0.972446	1.97641
H	4.36541	-1.52313	1.48725
