18
  This energy is -1.6759 and Call times are: 69676
C	0.305623	0.597193	-0.914525
C	0.370862	1.10968	0.347806
C	-0.0904313	0.0727741	1.21508
C	-0.396839	-0.981809	0.406164
O	-0.161057	-0.679104	-0.897595
H	0.558933	1.03348	-1.8947
H	0.709821	2.11685	0.639019
H	-0.180242	0.116154	2.31241
H	-0.785373	-1.98827	0.632713
C	4.48543	1.06743	0.311673
C	3.56262	0.292581	0.981887
N	3.3528	-0.882308	0.33992
C	4.14244	-0.836507	-0.724504
N	4.84598	0.318821	-0.786408
H	4.89733	2.06529	0.531111
H	3.04446	0.560234	1.91715
H	4.24422	-1.62167	-1.49091
H	5.53487	0.592221	-1.52934
