18
  This energy is -0.5149 and Call times are: 62450
C	1.02911	-0.143531	-0.454676
C	0.133356	0.760436	-0.945432
C	-1.0273	0.648084	-0.120579
C	-0.738339	-0.31462	0.801418
O	0.513407	-0.808941	0.612231
H	2.05211	-0.404963	-0.771511
H	0.275653	1.43835	-1.80233
H	-1.96382	1.22157	-0.210783
H	-1.33028	-0.732378	1.63228
C	5.82763	-0.46208	-1.01632
C	5.16032	0.452641	-0.229476
N	5.88282	0.768079	0.872795
C	6.99412	0.0517724	0.770157
N	7.00866	-0.706353	-0.351727
H	5.55475	-0.940523	-1.97035
H	4.17048	0.890649	-0.437373
H	7.82984	0.0445546	1.48832
H	7.77382	-1.35638	-0.657099
