18
  This energy is -0.6729 and Call times are: 31477
C	-0.497895	1.00573	0.164315
C	-1.21166	-0.134622	-0.0604131
C	-0.246319	-1.17564	-0.216969
C	0.972132	-0.579543	-0.0740903
O	0.837345	0.752511	0.159306
H	-0.817963	2.04588	0.340108
H	-2.30797	-0.232865	-0.110876
H	-0.445354	-2.24151	-0.41295
H	1.99524	-0.987877	-0.116129
C	5.78383	1.12157	0.215883
C	6.24811	0.334509	-0.816648
N	5.71219	-0.909011	-0.76223
C	4.91847	-0.893452	0.300021
N	4.92714	0.30842	0.923734
H	5.99539	2.16788	0.487964
H	6.96018	0.641638	-1.5999
H	4.30804	-1.73468	0.66601
H	4.38463	0.570829	1.78285
