18
  This energy is -1.6202 and Call times are: 69004
C	0.782591	0.0437065	-0.819782
C	0.963171	-0.675786	0.324812
C	-0.222797	-0.485202	1.09765
C	-1.02341	0.333929	0.357098
O	-0.425211	0.666778	-0.816946
H	1.42917	0.191032	-1.7004
H	1.84324	-1.2801	0.597534
H	-0.445077	-0.91237	2.08871
H	-2.027	0.746434	0.551803
C	4.33767	0.532836	1.03674
C	4.31075	1.12193	-0.209609
N	4.53769	0.210053	-1.18608
C	4.70476	-0.940372	-0.547929
N	4.59353	-0.798272	0.794095
H	4.19754	0.95265	2.04553
H	4.13165	2.18859	-0.421759
H	4.9109	-1.91705	-1.01466
H	4.68481	-1.55745	1.51282
