18
  This energy is -0.7217 and Call times are: 104474
C	-0.981688	-0.348014	0.448971
C	-0.858732	0.843092	-0.204116
C	0.505937	0.922938	-0.618143
C	1.09644	-0.226423	-0.181514
O	0.202617	-1.01427	0.472239
H	-1.84603	-0.829355	0.935258
H	-1.64968	1.5905	-0.376966
H	0.983441	1.74456	-1.17583
H	2.1309	-0.596665	-0.271306
C	6.32955	0.805238	-0.583394
C	6.47804	-0.564221	-0.644045
N	5.58321	-1.1888	0.159514
C	4.88227	-0.210528	0.716552
N	5.29401	1.0106	0.300729
H	6.8695	1.62097	-1.08992
H	7.2148	-1.1128	-1.25322
H	4.05639	-0.33251	1.43577
H	4.89956	1.93725	0.595642
