18
  This energy is -2.4317 and Call times are: 120484
C	0.700186	-0.379617	-0.807485
C	0.516275	-1.04216	0.370474
C	-0.423203	-0.264486	1.11393
C	-0.730459	0.80463	0.324652
O	-0.0534539	0.750433	-0.852521
H	1.33134	-0.605611	-1.6826
H	0.994241	-1.98403	0.684368
H	-0.818475	-0.483513	2.11886
H	-1.40649	1.66069	0.483983
C	4.27343	1.09017	-0.121099
C	5.55761	0.668972	-0.394295
N	5.70217	-0.654376	-0.140598
C	4.51221	-1.05263	0.288354
N	3.6165	-0.0375404	0.318101
H	3.79648	2.07959	-0.205334
H	6.38241	1.29624	-0.769915
H	4.24205	-2.07633	0.5938
H	2.61283	-0.0980438	0.6185
