18
  This energy is -1.8796 and Call times are: 42246
C	-0.430599	-0.771375	0.711314
C	0.13433	-1.11328	-0.482141
C	0.55304	0.113393	-1.08221
C	0.207017	1.09661	-0.202476
O	-0.39477	0.574253	0.898437
H	-0.887621	-1.3837	1.50595
H	0.245083	-2.12754	-0.898188
H	1.05298	0.239308	-2.05602
H	0.332588	2.19107	-0.242778
C	4.04924	-0.34922	-1.11394
C	3.48006	-1.07437	-0.0886005
N	3.46945	-0.363673	1.06522
C	4.02993	0.797963	0.756851
N	4.39671	0.855834	-0.545345
H	4.22574	-0.597163	-2.17267
H	3.07686	-2.09764	-0.160699
H	4.19629	1.64124	1.44637
H	4.8579	1.66459	-1.02957
