18
  This energy is -1.7091 and Call times are: 55380
C	-0.256701	-0.677881	0.872344
C	0.723898	0.267326	0.945726
C	0.746882	0.90683	-0.331233
C	-0.221701	0.295962	-1.07222
O	-0.844698	-0.67434	-0.352915
H	-0.627297	-1.40587	1.61257
H	1.36658	0.491709	1.81216
H	1.41092	1.72563	-0.651721
H	-0.560317	0.457775	-2.10876
C	4.32591	-0.801152	0.817389
C	5.00494	-1.02141	-0.362251
N	5.14655	0.127757	-1.06644
C	4.55761	1.05739	-0.326467
N	4.04715	0.547356	0.819346
H	4.03117	-1.48576	1.62855
H	5.39522	-1.98892	-0.71786
H	4.47156	2.12714	-0.576409
H	3.53634	1.07806	1.5668
