18
  This energy is -1.1861 and Call times are: 11106
C	0.092169	-0.374914	1.06646
C	0.749747	0.734687	0.622898
C	0.386083	0.881804	-0.7505
C	-0.461621	-0.150883	-1.02496
O	-0.65233	-0.928382	0.073284
H	0.0713209	-0.867	2.0527
H	1.42333	1.3844	1.2045
H	0.721639	1.66826	-1.44547
H	-0.988472	-0.438272	-1.94967
C	5.44167	-0.824738	0.71402
C	4.12252	-0.43587	0.615243
N	3.96933	0.541857	-0.31055
C	5.18882	0.758721	-0.784309
N	6.11157	-0.0404934	-0.198329
H	5.93468	-1.57889	1.34785
H	3.27855	-0.843273	1.1954
H	5.46226	1.49109	-1.5609
H	7.14116	-0.0591708	-0.40049
