18
  This energy is -0.5658 and Call times are: 132765
C	-0.899107	-0.515624	0.460585
C	0.291794	-0.400558	1.11548
C	1.1621	0.298452	0.224373
C	0.426199	0.548836	-0.896401
O	-0.834999	0.0586419	-0.769504
H	-1.85511	-0.977308	0.75749
H	0.533181	-0.77078	2.12482
H	2.21243	0.577955	0.405433
H	0.681135	1.05976	-1.83938
C	7.18504	-0.357284	-0.535845
C	6.62876	-0.884331	0.610414
N	5.49161	-0.22886	0.947695
C	5.343	0.701287	0.0142247
N	6.33846	0.664809	-0.903012
H	8.09315	-0.628189	-1.09753
H	7.02755	-1.72581	1.20011
H	4.52331	1.4353	-0.0453858
H	6.44505	1.29505	-1.73529
