18
  This energy is -1.1081 and Call times are: 81492
C	-0.621418	0.877208	-0.361591
C	-0.426356	-0.240849	-1.11808
C	0.396227	-1.10539	-0.33319
C	0.631218	-0.439317	0.833646
O	0.0173035	0.773169	0.833492
H	-1.18642	1.80324	-0.557737
H	-0.822032	-0.437091	-2.12755
H	0.765136	-2.10521	-0.613108
H	1.21075	-0.716197	1.7296
C	4.45245	0.495503	-0.96916
C	3.93891	0.565314	0.30855
N	4.71108	-0.123286	1.18382
C	5.69989	-0.618403	0.451887
N	5.58888	-0.273374	-0.852805
H	4.10134	0.924254	-1.92123
H	3.02506	1.10021	0.614533
H	6.53147	-1.24023	0.820719
H	6.24375	-0.540651	-1.62803
