18
  This energy is -1.0665 and Call times are: 78303
C	0.532985	0.942473	0.337747
C	0.213217	0.712247	-0.968055
C	-0.438635	-0.55842	-0.992802
C	-0.459663	-0.992508	0.300063
O	0.129462	-0.088346	1.12616
H	1.04083	1.78939	0.827727
H	0.416028	1.37112	-1.82762
H	-0.841717	-1.08062	-1.87537
H	-0.858808	-1.9136	0.755611
C	5.92246	0.816318	-0.205621
C	6.12834	-0.471137	0.242951
N	4.95536	-1.13793	0.36947
C	4.02533	-0.267451	0.000789375
N	4.55794	0.925564	-0.355065
H	6.6269	1.63519	-0.421855
H	7.10224	-0.930841	0.477568
H	2.93925	-0.451538	-0.0273076
H	4.03169	1.77241	-0.682437
