18
  This energy is -1.771 and Call times are: 10318
C	0.138008	0.685647	0.892884
C	-0.0482899	1.16164	-0.371668
C	-0.180644	0.0107241	-1.20712
C	-0.0635424	-1.06698	-0.37935
O	0.131481	-0.673315	0.90673
H	0.285283	1.20369	1.85476
H	-0.0884765	2.21733	-0.684735
H	-0.343853	-0.00336395	-2.29674
H	-0.100425	-2.15034	-0.579928
C	4.56541	0.353024	-0.904268
C	4.08738	1.13467	0.126103
N	3.35332	0.400023	0.996714
C	3.37587	-0.832686	0.508304
N	4.09385	-0.912827	-0.636977
H	5.18705	0.599769	-1.77961
H	4.25899	2.21554	0.256911
H	2.88343	-1.71427	0.949383
H	4.25971	-1.77499	-1.21181
