18
  This energy is -1.4737 and Call times are: 90724
C	-0.364065	0.221301	-1.05113
C	0.958515	0.2357	-0.718041
C	1.0151	-0.0867613	0.672259
C	-0.277895	-0.269746	1.06603
O	-1.13349	-0.0855387	0.026294
H	-0.879271	0.409729	-2.00733
H	1.80895	0.451726	-1.38452
H	1.91813	-0.17046	1.29806
H	-0.714368	-0.529992	2.0443
C	4.79087	-0.839409	-0.817665
C	4.8439	0.521764	-1.03107
N	4.97275	1.19499	0.137986
C	4.99955	0.255034	1.07308
N	4.8931	-0.98834	0.547457
H	4.69095	-1.68443	-1.5173
H	4.79149	1.03013	-2.00762
H	5.09552	0.421979	2.15804
H	4.88919	-1.89338	1.07864
