18
  This energy is -0.8729 and Call times are: 74329
C	0.367327	0.494819	0.952169
C	-0.467806	1.12478	0.0769118
C	-0.700656	0.193352	-0.980604
C	0.0127403	-0.923568	-0.658225
O	0.671071	-0.757029	0.519008
H	0.811038	0.825012	1.90577
H	-0.878652	2.14321	0.166944
H	-1.32793	0.346024	-1.87353
H	0.132464	-1.88937	-1.17606
C	4.29175	-0.334691	0.506455
C	5.04912	0.773052	0.823366
N	6.15038	0.853082	0.0376671
C	6.07649	-0.201004	-0.763623
N	4.97385	-0.948398	-0.520328
H	3.34716	-0.716954	0.924982
H	4.82067	1.51597	1.60486
H	6.80286	-0.472992	-1.54633
H	4.69222	-1.82782	-1.01888
