18
  This energy is -0.7402 and Call times are: 56606
C	1.00416	0.179813	-0.495722
C	-0.00467529	1.09691	-0.53541
C	-1.08973	0.51619	0.189531
C	-0.648177	-0.704506	0.608226
O	0.628539	-0.926432	0.198645
H	2.02289	0.194899	-0.916673
H	0.0134359	2.08337	-1.02597
H	-2.08017	0.962884	0.372796
H	-1.13919	-1.49743	1.19596
C	7.26259	0.114798	1.16961
C	6.31265	0.662969	0.333996
N	6.54535	0.326045	-0.957839
C	7.63552	-0.428277	-0.923771
N	8.10609	-0.585269	0.336191
H	7.39367	0.171448	2.26193
H	5.46352	1.29554	0.640091
H	8.13146	-0.891111	-1.79214
H	8.95228	-1.13546	0.62346
