18
  This energy is -1.5364 and Call times are: 5024
C	0.0951945	-1.12882	-0.0557417
C	0.862686	-0.371439	0.779548
C	0.455992	0.980924	0.565463
C	-0.524122	0.930571	-0.381751
O	-0.757343	-0.350039	-0.772466
H	0.0601975	-2.21661	-0.231086
H	1.63749	-0.729196	1.47653
H	0.852776	1.88018	1.06346
H	-1.12499	1.72446	-0.854973
C	4.62544	0.769205	-0.680663
C	5.87937	0.241406	-0.904796
N	6.23273	-0.615432	0.0838796
C	5.20193	-0.619177	0.918187
N	4.20736	0.199759	0.501338
H	4.02119	1.48583	-1.25934
H	6.53544	0.463507	-1.76218
H	5.12312	-1.2033	1.84922
H	3.29214	0.368721	0.986183
