18
  This energy is -0.7416 and Call times are: 97007
C	0.0968723	-0.641304	0.930454
C	-0.949475	-0.76437	0.0642065
C	-0.720087	0.198718	-0.965337
C	0.446187	0.825294	-0.637343
O	0.958862	0.324865	0.517536
H	0.339819	-1.17495	1.86397
H	-1.79775	-1.46324	0.142378
H	-1.35514	0.395032	-1.84412
H	1.00831	1.63169	-1.13633
C	4.5272	-0.324497	0.359029
C	5.46156	-1.11495	-0.276031
N	6.59047	-0.415674	-0.546351
C	6.35735	0.803959	-0.0807615
N	5.1269	0.909679	0.474593
H	3.51184	-0.545529	0.7247
H	5.34134	-2.1773	-0.544013
H	7.05323	1.65743	-0.12049
H	4.70931	1.76823	0.91021
