18
  This energy is -1.3516 and Call times are: 129266
C	0.880068	-0.65402	0.290066
C	0.852143	0.68637	0.540958
C	-0.400233	1.15255	0.036625
C	-1.02706	0.0558747	-0.477936
O	-0.259541	-1.05613	-0.331717
H	1.64239	-1.4217	0.501675
H	1.63493	1.28661	1.03192
H	-0.781519	2.18609	0.0588152
H	-2.0073	-0.0631714	-0.968057
C	5.16663	-1.11558	0.0783998
C	4.2169	-0.615558	-0.787128
N	4.0413	0.715631	-0.603794
C	4.8789	1.0402	0.371758
N	5.58016	-0.0292891	0.816737
H	5.56421	-2.13361	0.216567
H	3.65525	-1.19147	-1.5406
H	5.01882	2.04641	0.798607
H	6.30146	-0.0307122	1.57896
