18
  This energy is -0.7704 and Call times are: 35520
C	0.584198	0.97121	0.0431805
C	-0.406344	0.754596	-0.869113
C	-0.895528	-0.562077	-0.609907
C	-0.160736	-1.03383	0.437901
O	0.747691	-0.110568	0.84943
H	1.23841	1.8408	0.219443
H	-0.757324	1.45204	-1.6466
H	-1.7012	-1.08847	-1.14646
H	-0.187179	-1.99626	0.974824
C	4.5728	0.502273	0.278688
C	5.60459	0.195406	1.1403
N	6.6398	-0.376684	0.478801
C	6.25169	-0.424545	-0.788363
N	5.01245	0.0933787	-0.960543
H	3.58958	0.96718	0.453854
H	5.62062	0.37655	2.22739
H	6.83581	-0.828596	-1.63084
H	4.48673	0.169039	-1.86561
