18
  This energy is -1.0683 and Call times are: 8270
C	-0.669911	-0.514178	0.757126
C	0.240082	-1.19676	0.00454861
C	0.880551	-0.219041	-0.816418
C	0.305402	0.974696	-0.493049
O	-0.643601	0.813121	0.466273
H	-1.38567	-0.853027	1.52402
H	0.44024	-2.28008	0.0254354
H	1.67602	-0.393587	-1.55861
H	0.480791	1.99624	-0.868454
C	5.54987	0.818143	0.642943
C	4.36007	0.190176	0.94488
N	4.01847	-0.698972	-0.019091
C	4.99266	-0.622897	-0.91564
N	5.93993	0.277797	-0.562074
H	6.12734	1.5857	1.18231
H	3.74199	0.362742	1.84101
H	5.06194	-1.20428	-1.84914
H	6.80643	0.518622	-1.10286
