18
  This energy is -1.0802 and Call times are: 6779
C	0.785365	-0.727792	0.374061
C	-0.549086	-0.926603	0.574282
C	-1.20573	0.18719	-0.0326813
C	-0.214575	0.968301	-0.550228
O	1.00782	0.424659	-0.311052
H	1.66528	-1.32439	0.665746
H	-1.02345	-1.7727	1.09696
H	-2.29044	0.376354	-0.0741707
H	-0.248314	1.92144	-1.10307
C	4.7075	-0.441867	1.05085
C	4.20188	0.698128	0.462712
N	4.76322	0.911311	-0.752178
C	5.61385	-0.0926137	-0.917095
N	5.617	-0.935724	0.142501
H	4.49166	-0.920666	2.0192
H	3.4421	1.37062	0.893217
H	6.25919	-0.258475	-1.79473
H	6.201	-1.8008	0.251341
