18
  This energy is -0.981 and Call times are: 82467
C	-0.285219	-0.572159	-0.936848
C	-0.680661	-0.965284	0.307922
C	-0.132396	-0.00630177	1.21339
C	0.549683	0.888187	0.442009
O	0.466954	0.558001	-0.87372
H	-0.47062	-1.00507	-1.93357
H	-1.29665	-1.84257	0.562916
H	-0.238772	0.00777639	2.31001
H	1.12714	1.7896	0.705155
C	6.00889	0.728278	-0.169184
C	5.99117	-0.404149	0.617225
N	4.77669	-1.00443	0.582171
C	4.04377	-0.247273	-0.222923
N	4.74157	0.809872	-0.701577
H	6.80703	1.45753	-0.380583
H	6.83293	-0.798808	1.20928
H	2.99051	-0.421199	-0.4961
H	4.38511	1.55054	-1.35396
