18
  This energy is -1.8928 and Call times are: 6032
C	-0.565202	-0.892931	-0.411851
C	0.148107	-0.0482329	-1.21063
C	0.707636	0.93508	-0.33877
C	0.286854	0.604466	0.915825
O	-0.49147	-0.509334	0.889851
H	-1.16079	-1.79084	-0.644844
H	0.268211	-0.111263	-2.30411
H	1.34782	1.78603	-0.621862
H	0.469798	1.07474	1.89594
C	3.87685	0.61091	0.789664
C	5.05591	0.997031	0.188093
N	5.49947	0.0480007	-0.671616
C	4.59902	-0.923179	-0.603644
N	3.60091	-0.631419	0.263676
H	3.23601	1.11545	1.53014
H	5.59447	1.94339	0.358989
H	4.62195	-1.86963	-1.16751
H	2.77434	-1.23633	0.491955
