18
  This energy is -0.6632 and Call times are: 106534
C	0.608867	-0.473118	-0.83177
C	-0.72561	-0.220162	-0.956508
C	-1.12911	0.369347	0.280338
C	-0.00558162	0.424592	1.05171
O	1.0652	-0.0856793	0.388337
H	1.33675	-0.919208	-1.52922
H	-1.362	-0.427864	-1.8317
H	-2.14055	0.709589	0.554785
H	0.160879	0.798745	2.07521
C	4.76759	-0.312566	-0.0709711
C	5.7134	-0.396444	-1.07074
N	6.91854	0.0512131	-0.642084
C	6.72112	0.411436	0.618823
N	5.44032	0.211533	1.01021
H	3.69904	-0.579828	-0.0529708
H	5.54781	-0.771951	-2.09369
H	7.47991	0.827562	1.30095
H	5.03665	0.416698	1.9569
