18
  This energy is -0.8177 and Call times are: 119032
C	-0.271321	-0.647723	0.890641
C	0.66107	-1.02565	-0.0303336
C	0.721992	0.0363585	-0.983511
C	-0.178549	0.96951	-0.560867
O	-0.794319	0.568169	0.582271
H	-0.647161	-1.14804	1.79821
H	1.24715	-1.95868	-0.0377249
H	1.3647	0.0904525	-1.87687
H	-0.469623	1.94687	-0.979554
C	5.5059	-0.620609	-0.994346
C	4.56224	0.346223	-0.718866
N	4.7347	0.857145	0.524406
C	5.78137	0.209738	1.01834
N	6.28202	-0.691929	0.14088
H	5.67444	-1.2422	-1.88808
H	3.76005	0.684279	-1.39492
H	6.22285	0.356858	2.01718
H	7.10468	-1.32477	0.295825
