18
  This energy is -1.4354 and Call times are: 126399
C	0.884018	0.496081	-0.508741
C	-0.023609	1.19892	0.22788
C	-0.971987	0.240026	0.698225
C	-0.56018	-0.964127	0.207506
O	0.57179	-0.826413	-0.53188
H	1.78384	0.816253	-1.05924
H	-0.0251243	2.28378	0.420688
H	-1.85501	0.433602	1.32822
H	-0.979928	-1.97816	0.311441
C	4.58416	-0.951023	-0.688161
C	5.2757	0.233862	-0.825883
N	4.93211	1.11573	0.144048
C	4.03084	0.480349	0.880686
N	3.78674	-0.769236	0.419661
H	4.60245	-1.87974	-1.28035
H	6.0164	0.468231	-1.60773
H	3.51797	0.88357	1.76872
H	3.11754	-1.4667	0.828274
