18
  This energy is -0.7328 and Call times are: 120228
C	0.991913	0.548615	-0.0391288
C	-0.0935668	0.949637	-0.761132
C	-1.13408	0.0216418	-0.450861
C	-0.592594	-0.864544	0.433355
O	0.705063	-0.557825	0.696072
H	2.01179	0.960046	0.0372277
H	-0.155345	1.81239	-1.44373
H	-2.16301	0.0218273	-0.845065
H	-1.02049	-1.74433	0.941423
C	6.27462	-0.534283	-0.979435
C	7.05589	0.0488063	-0.00436046
N	6.29237	0.571773	0.985617
C	5.04219	0.314098	0.626065
N	4.97861	-0.351141	-0.551647
H	6.54033	-1.04941	-1.91623
H	8.15681	0.101521	0.0025615
H	4.13556	0.590107	1.18826
H	4.10794	-0.667189	-1.0449
