18
  This energy is -0.8208 and Call times are: 136500
C	-0.495775	0.723285	0.719351
C	-1.17789	-0.295822	0.122266
C	-0.226732	-0.974433	-0.699258
C	0.952658	-0.310108	-0.531672
O	0.806703	0.729532	0.331378
H	-0.818842	1.50165	1.43
H	-2.24391	-0.544721	0.24775
H	-0.408656	-1.85409	-1.33737
H	1.95304	-0.475958	-0.964093
C	6.02615	0.506129	-1.01121
C	6.7936	0.356411	0.124456
N	6.09977	-0.273257	1.10355
C	4.90643	-0.513254	0.577293
N	4.81221	-0.0623915	-0.696063
H	6.25047	0.961808	-1.98875
H	7.83551	0.691449	0.2549
H	4.06481	-1.01598	1.08046
H	3.97409	-0.132544	-1.32368
