18
  This energy is -1.1442 and Call times are: 4992
C	-0.0757959	0.150716	1.12158
C	0.401162	1.11693	0.285333
C	0.341976	0.560657	-1.02889
C	-0.165925	-0.696387	-0.879724
O	-0.426799	-0.963473	0.427036
H	-0.213791	0.133251	2.21515
H	0.758792	2.12069	0.565806
H	0.644593	1.04736	-1.96997
H	-0.386272	-1.48786	-1.61475
C	5.21669	-0.474893	-1.02921
C	4.04838	0.204457	-0.755928
N	4.01272	0.615583	0.534891
C	5.15456	0.192891	1.0604
N	5.91526	-0.470138	0.157451
H	5.58803	-0.945685	-1.95333
H	3.23055	0.405319	-1.46703
H	5.4839	0.341704	2.10137
H	6.85765	-0.898889	0.32871
