18
  This energy is -1.5324 and Call times are: 102365
C	-0.112276	1.1213	-0.128401
C	-0.806216	0.225986	-0.888164
C	-0.400915	-1.06704	-0.436566
C	0.50492	-0.847729	0.559297
O	0.693278	0.483031	0.760818
H	-0.103204	2.22363	-0.123185
H	-1.53082	0.453298	-1.68652
H	-0.748791	-2.04158	-0.815168
H	1.07793	-1.54451	1.19287
C	5.03347	-1.06833	-0.364086
C	5.79048	-0.163808	0.349992
N	5.09031	0.969058	0.600755
C	3.90344	0.768097	0.044359
N	3.81942	-0.445673	-0.550025
H	5.26505	-2.07739	-0.740531
H	6.82933	-0.308329	0.688747
H	3.05951	1.47662	0.0426606
H	2.98788	-0.83772	-1.05609
