18
  This energy is -0.9094 and Call times are: 117007
C	-0.731315	0.718076	0.485743
C	0.611906	0.77716	0.715179
C	1.18794	-0.273513	-0.0622444
C	0.145877	-0.881898	-0.698124
O	-1.03369	-0.289255	-0.374993
H	-1.56601	1.3276	0.869175
H	1.14374	1.48919	1.36654
H	2.25519	-0.538076	-0.133497
H	0.11268	-1.73428	-1.3964
C	5.70132	0.969415	0.595428
C	5.68845	0.809984	-0.774083
N	5.28815	-0.438508	-1.11693
C	5.05358	-1.05128	0.0355131
N	5.28804	-0.244425	1.0974
H	5.96649	1.83198	1.22725
H	5.96082	1.57344	-1.52094
H	4.70859	-2.09047	0.159151
H	5.17628	-0.495655	2.11015
