18
  This energy is -0.6948 and Call times are: 85143
C	0.849607	-0.718178	-0.220883
C	-0.460621	-1.0779	-0.340356
C	-1.21793	0.0787443	0.0184936
C	-0.303625	1.04317	0.325576
O	0.964023	0.573836	0.184852
H	1.78116	-1.28196	-0.392934
H	-0.854322	-2.0593	-0.650109
H	-2.31554	0.172438	0.0422884
H	-0.425784	2.08875	0.652829
C	5.86726	0.979673	-0.321795
C	5.60154	0.562174	0.965151
N	4.92847	-0.614042	0.968112
C	4.77721	-0.925053	-0.31213
N	5.32614	0.00451994	-1.12954
H	6.38583	1.87194	-0.707131
H	5.88342	1.08858	1.89159
H	4.27244	-1.82162	-0.70659
H	5.33739	-0.0140636	-2.17873
