18
  This energy is -1.0453 and Call times are: 74521
C	0.444845	1.02739	0.181609
C	0.971818	-0.104278	0.731153
C	0.148315	-1.17942	0.277242
C	-0.809192	-0.609842	-0.50961
O	-0.643314	0.737252	-0.579141
H	0.747692	2.08487	0.25427
H	1.85213	-0.174863	1.39006
H	0.263188	-2.24934	0.514246
H	-1.65217	-1.04832	-1.06852
C	6.52266	0.975021	0.597921
C	7.35517	0.884744	-0.497485
N	7.44997	-0.394335	-0.935072
C	6.6792	-1.0949	-0.114255
N	6.09791	-0.314588	0.827452
H	6.21275	1.83696	1.20994
H	7.88912	1.71962	-0.979908
H	6.50499	-2.18209	-0.157777
H	5.44757	-0.631585	1.5876
