18
  This energy is -1.2129 and Call times are: 113971
C	0.250392	0.0528541	-1.10495
C	-0.261838	1.1156	-0.420432
C	-0.440644	0.6657	0.923344
C	-0.0218956	-0.632259	0.941366
O	0.403449	-1.02304	-0.288832
H	0.544157	-0.0636218	-2.16107
H	-0.4908	2.11599	-0.82154
H	-0.835806	1.24791	1.77127
H	0.0230776	-1.37473	1.75498
C	3.63204	0.64306	-0.467137
C	4.10333	0.70494	0.82716
N	5.11161	-0.179143	1.02282
C	5.26524	-0.787172	-0.145647
N	4.39652	-0.326606	-1.07666
H	2.83339	1.20179	-0.980466
H	3.7339	1.37166	1.62331
H	5.99882	-1.57697	-0.374386
H	4.31992	-0.647115	-2.07298
