18
  This energy is -0.8901 and Call times are: 119288
C	0.594328	-0.828203	0.497247
C	-0.13061	0.0803583	1.21094
C	-0.727819	0.948357	0.246553
C	-0.315106	0.493592	-0.971326
O	0.493012	-0.590811	-0.837066
H	1.21677	-1.68009	0.816769
H	-0.234396	0.133942	2.30659
H	-1.38671	1.80874	0.445816
H	-0.523617	0.849435	-1.99365
C	5.79589	-0.205305	0.592582
C	4.71959	-1.05729	0.462764
N	3.74128	-0.497537	-0.289621
C	4.20887	0.697162	-0.625286
N	5.44415	0.92076	-0.117662
H	6.75522	-0.316916	1.12245
H	4.63144	-2.06586	0.898508
H	3.68807	1.44798	-1.24113
H	6.02356	1.7869	-0.241533
