18
  This energy is -0.8995 and Call times are: 94392
C	-0.543525	0.878184	-0.468802
C	-1.20231	-0.209026	0.0255194
C	-0.190879	-1.08582	0.523875
C	0.996688	-0.457007	0.2901
O	0.800135	0.743657	-0.315528
H	-0.911279	1.80036	-0.947968
H	-2.29126	-0.376746	0.0379652
H	-0.339712	-2.06852	0.999539
H	2.03624	-0.754805	0.504347
C	4.71501	-0.0621624	1.07052
C	5.0555	1.08261	0.381528
N	5.59318	0.784361	-0.826142
C	5.58627	-0.540395	-0.886128
N	5.06648	-1.09741	0.233312
H	4.26255	-0.208499	2.0642
H	4.92284	2.11841	0.73419
H	5.94994	-1.15357	-1.72636
H	4.95287	-2.12258	0.426647
