18
  This energy is -0.711 and Call times are: 15894
C	-0.318734	0.957138	0.518359
C	0.977964	0.534623	0.497647
C	0.978646	-0.689389	-0.238499
C	-0.317695	-0.906797	-0.602652
O	-1.12372	0.0888855	-0.148834
H	-0.790948	1.846	0.968016
H	1.84683	1.03473	0.95489
H	1.84814	-1.327	-0.465499
H	-0.78896	-1.72103	-1.17727
C	6.35516	1.16625	-0.0295411
C	5.15292	0.492027	0.00491047
N	5.34546	-0.84911	0.0330884
C	6.66213	-1.00629	0.0161818
N	7.31534	0.179242	-0.0215851
H	6.58763	2.24267	-0.058201
H	4.15005	0.949254	0.00994018
H	7.20088	-1.96743	0.0301177
H	8.35511	0.319765	-0.0410894
