18
  This energy is -1.0307 and Call times are: 89450
C	0.464585	0.704044	-0.758211
C	0.590925	-0.651171	-0.846565
C	-0.119862	-1.18387	0.271974
C	-0.617808	-0.107158	0.945109
O	-0.270541	1.0539	0.329999
H	0.845507	1.51707	-1.39785
H	1.13052	-1.21877	-1.62165
H	-0.240937	-2.24662	0.536562
H	-1.22588	-0.0353281	1.86181
C	4.68628	-0.309056	-1.0914
C	4.16627	0.725299	-0.342506
N	4.7609	0.795378	0.873228
C	5.64644	-0.191748	0.878521
N	5.63989	-0.886998	-0.283449
H	4.45299	-0.662958	-2.10819
H	3.37267	1.42227	-0.657621
H	6.32525	-0.449768	1.7073
H	6.24581	-1.70958	-0.5232
