18
  This energy is -0.8677 and Call times are: 17341
C	-0.888394	0.105493	0.697158
C	-1.01815	-0.320512	-0.59205
C	0.30167	-0.321854	-1.13811
C	1.12144	0.10345	-0.134387
O	0.411491	0.368923	0.993665
H	-1.63385	0.261302	1.49419
H	-1.94982	-0.605243	-1.10685
H	0.596771	-0.607832	-2.16047
H	2.21239	0.257391	-0.0971383
C	5.0239	0.701745	-0.748835
C	6.07271	1.05333	0.0742813
N	6.49654	-0.0061494	0.805297
C	5.71363	-1.01119	0.437083
N	4.80924	-0.635097	-0.497913
H	4.43475	1.28868	-1.47129
H	6.5312	2.05249	0.153782
H	5.75953	-2.04327	0.820407
H	4.0829	-1.24556	-0.946269
