18
  This energy is -0.9256 and Call times are: 14047
C	-0.456688	0.290334	-0.996766
C	0.88642	0.344052	-0.76536
C	1.06862	-0.0912586	0.582759
C	-0.17923	-0.372561	1.05616
O	-1.12282	-0.145184	0.104871
H	-1.05481	0.532232	-1.89063
H	1.67022	0.658659	-1.47301
H	2.02178	-0.181269	1.12818
H	-0.523834	-0.736355	2.03807
C	5.74119	-0.691602	-0.921198
C	4.8395	-0.945529	0.0905414
N	4.81631	0.0677686	0.990097
C	5.70025	0.946975	0.538137
N	6.2849	0.535092	-0.611698
H	6.02497	-1.27748	-1.80988
H	4.20526	-1.84173	0.187541
H	5.95821	1.90866	1.0102
H	7.01356	1.05177	-1.16249
