18
  This energy is -1.0422 and Call times are: 15167
C	-0.786901	-0.809712	0.107495
C	-1.10833	0.493951	-0.132348
C	0.133403	1.19635	-0.202092
C	1.10401	0.259907	0.00128855
O	0.559917	-0.970772	0.192075
H	-1.41572	-1.7059	0.236649
H	-2.1185	0.91839	-0.248501
H	0.277405	2.27366	-0.383071
H	2.20294	0.341033	0.0334017
C	4.82212	-0.256833	1.11441
C	4.69425	-1.08329	0.0181633
N	5.11	-0.46286	-1.11265
C	5.49433	0.743905	-0.719416
N	5.34036	0.917019	0.614717
H	4.5888	-0.415662	2.17925
H	4.30945	-2.11613	0.0229101
H	5.89622	1.53974	-1.367
H	5.57168	1.78086	1.16383
