18
  This energy is -2.3564 and Call times are: 121219
C	0.410234	0.380235	0.986676
C	0.254889	1.18948	-0.100226
C	-0.278792	0.359283	-1.13273
C	-0.402459	-0.884004	-0.585631
O	0.0137276	-0.889488	0.708111
H	0.787279	0.584399	2.00226
H	0.492297	2.26332	-0.168085
H	-0.537435	0.661454	-2.1603
H	-0.767978	-1.83499	-1.00668
C	4.26144	-0.347887	-1.12365
C	5.33486	0.218111	-0.469008
N	5.02872	0.496499	0.821451
C	3.77015	0.104696	0.966826
N	3.26283	-0.411445	-0.177642
H	4.14151	-0.698252	-2.16114
H	6.32474	0.430589	-0.904709
H	3.1721	0.172764	1.88983
H	2.29346	-0.788247	-0.31766
