18
  This energy is -0.6381 and Call times are: 53224
C	0.686977	-0.874955	-0.22117
C	1.16023	0.351868	0.141193
C	0.00836992	1.17489	0.330842
C	-1.06709	0.378346	0.0676303
O	-0.671152	-0.876846	-0.271099
H	1.20658	-1.81563	-0.466917
H	2.21468	0.647599	0.262744
H	-0.00782904	2.23561	0.62867
H	-2.15019	0.582819	0.0857614
C	6.60633	-0.446802	-0.904339
C	5.32873	0.0705408	-0.939628
N	4.94061	0.497968	0.286413
C	5.97349	0.246744	1.07929
N	7.00272	-0.32281	0.408553
H	7.24033	-0.87997	-1.69424
H	4.68005	0.143046	-1.82778
H	6.0293	0.459749	2.15899
H	7.92664	-0.614391	0.811808
