18
  This energy is -0.7995 and Call times are: 71672
C	0.250864	-0.338629	1.05299
C	1.02773	-0.658173	-0.0215956
C	0.394473	-0.0600241	-1.15355
C	-0.713466	0.572237	-0.670754
O	-0.816799	0.412475	0.674909
H	0.348529	-0.581604	2.12382
H	1.95382	-1.2552	-0.0175548
H	0.731949	-0.10108	-2.20165
H	-1.49692	1.16153	-1.17493
C	4.83531	-0.840196	-0.487185
C	4.93386	0.474692	-0.890301
N	5.7935	1.1644	-0.101733
C	6.22659	0.280753	0.78721
N	5.67815	-0.942605	0.596935
H	4.24474	-1.6822	-0.881902
H	4.4001	0.938065	-1.73601
H	6.94558	0.476352	1.59902
H	5.86029	-1.80484	1.16671
