18
  This energy is -0.9197 and Call times are: 89738
C	0.507994	-0.395543	-0.93375
C	-0.708017	0.221241	-0.969357
C	-1.00854	0.57142	0.382375
C	0.0503522	0.137713	1.12468
O	0.985854	-0.455241	0.337115
H	1.13093	-0.830274	-1.73263
H	-1.33089	0.410618	-1.85832
H	-1.91075	1.08629	0.749833
H	0.255141	0.190221	2.2066
C	6.06171	0.221555	0.641184
C	5.66893	-0.998548	0.133032
N	4.50859	-0.889202	-0.558461
C	4.18276	0.393857	-0.479591
N	5.08769	1.10541	0.233419
H	6.93625	0.513658	1.24401
H	6.20201	-1.95578	0.252964
H	3.29241	0.865598	-0.925633
H	5.05379	2.13436	0.43685
