18
  This energy is -1.3255 and Call times are: 95643
C	0.597498	-0.872891	-0.409218
C	0.997382	-0.16285	0.684541
C	-0.000320438	0.839121	0.886434
C	-0.921812	0.65292	-0.101774
O	-0.572632	-0.388396	-0.902241
H	1.05121	-1.73301	-0.928438
H	1.90398	-0.328095	1.28858
H	-0.0210767	1.6052	1.67813
H	-1.85631	1.18694	-0.340081
C	4.68962	-0.670268	-0.944232
C	4.07415	0.520455	-0.620946
N	4.56185	1.0234	0.539097
C	5.47641	0.148022	0.933968
N	5.59082	-0.891052	0.0732565
H	4.55458	-1.35335	-1.79787
H	3.28692	1.02566	-1.20395
H	6.09145	0.219115	1.8455
H	6.24197	-1.70902	0.163773
