18
  This energy is -1.259 and Call times are: 25471
C	0.329527	0.501118	0.962649
C	-0.976932	0.209234	0.701223
C	-0.989658	-0.40673	-0.587398
C	0.310147	-0.436878	-0.999673
O	1.12945	0.113425	-0.0653716
H	0.812526	0.977261	1.8317
H	-1.84463	0.40777	1.35067
H	-1.86918	-0.780728	-1.13572
H	0.77544	-0.817788	-1.92361
C	4.33559	0.720939	0.855886
C	4.01446	-0.611274	0.703465
N	4.61084	-1.13508	-0.394928
C	5.29933	-0.131637	-0.921915
N	5.16573	1.00891	-0.204359
H	4.04191	1.45979	1.61838
H	3.36314	-1.20389	1.36636
H	5.9183	-0.177261	-1.83242
H	5.6099	1.93596	-0.415463
