18
  This energy is -1.1987 and Call times are: 55829
C	-0.208009	-1.10937	-0.111534
C	1.0556	-0.596668	-0.139939
C	0.909127	0.813926	0.0300231
C	-0.431059	1.0387	0.147286
O	-1.12838	-0.124775	0.0631271
H	-0.579804	-2.1431	-0.203276
H	1.99646	-1.15573	-0.267757
H	1.71384	1.56601	0.0601838
H	-1.00666	1.96767	0.29203
C	5.00768	-0.00666139	1.16106
C	5.62757	0.98499	0.430647
N	5.67911	0.663277	-0.884783
C	5.09341	-0.523443	-0.970102
N	4.67135	-0.970138	0.236514
H	4.78936	-0.0920622	2.23743
H	6.03856	1.92683	0.829247
H	4.94709	-1.10984	-1.89149
H	4.18129	-1.87754	0.430735
