18
  This energy is -0.4371 and Call times are: 53288
C	-1.00902	0.515619	0.049072
C	-0.780786	-0.568748	-0.746181
C	0.586029	-0.926549	-0.536624
C	1.07237	-0.0292428	0.368187
O	0.111853	0.858779	0.736741
H	-1.91296	1.12506	0.212568
H	-1.50252	-1.06671	-1.41343
H	1.13473	-1.75709	-1.00909
H	2.07022	0.0823527	0.823261
C	7.66837	-0.445548	-0.21254
C	7.37172	0.843923	0.175287
N	6.03612	1.01221	0.331351
C	5.50621	-0.168376	0.0414453
N	6.44928	-1.08085	-0.292608
H	8.62868	-0.939565	-0.429967
H	8.09747	1.65585	0.345287
H	4.43341	-0.419494	0.0578463
H	6.28341	-2.0816	-0.56139
