18
  This energy is -1.0657 and Call times are: 32046
C	-0.285218	-0.808618	-0.742421
C	-0.278482	-1.02317	0.604538
C	0.128211	0.212088	1.19519
C	0.334097	1.07244	0.157023
O	0.0863036	0.465819	-1.03362
H	-0.531924	-1.47243	-1.58725
H	-0.534245	-1.95755	1.12952
H	0.250466	0.425864	2.26917
H	0.653263	2.12736	0.134023
C	5.78764	-0.928411	-0.125277
C	5.49953	0.254234	0.522399
N	6.55209	1.10649	0.474649
C	7.48963	0.455035	-0.200084
N	7.07722	-0.776388	-0.583623
H	5.18632	-1.83713	-0.287056
H	4.55103	0.507825	1.02329
H	8.4961	0.833132	-0.441527
H	7.63378	-1.48107	-1.12668
