18
  This energy is -1.0316 and Call times are: 127597
C	-0.424453	0.512511	-0.918462
C	0.565765	-0.422301	-0.995721
C	0.825955	-0.828289	0.348747
C	-0.0282333	-0.105731	1.1289
O	-0.799293	0.718238	0.37157
H	-0.941012	1.09648	-1.69782
H	1.06308	-0.789164	-1.90796
H	1.56512	-1.57251	0.686179
H	-0.182764	-0.0866592	2.22024
C	6.93946	0.773806	-0.875709
C	5.94216	-0.170907	-0.757217
N	6.08744	-0.894906	0.379106
C	7.17076	-0.40122	0.963335
N	7.72077	0.606884	0.245843
H	7.14173	1.52791	-1.65285
H	5.12038	-0.343076	-1.47129
H	7.60509	-0.740914	1.91738
H	8.5789	1.1566	0.496217
