18
  This energy is -0.9173 and Call times are: 24510
C	-0.301073	-0.272919	-1.0589
C	-1.18743	-0.281804	-0.0222355
C	-0.443617	0.112748	1.13154
C	0.831604	0.327908	0.698077
O	0.93674	0.0970927	-0.637095
H	-0.425296	-0.50665	-2.12904
H	-2.25766	-0.540271	-0.0656659
H	-0.822488	0.221014	2.16053
H	1.74232	0.643158	1.2333
C	5.22327	-0.879286	0.772498
C	4.24283	-0.753716	-0.188803
N	4.40423	0.385049	-0.905514
C	5.48071	0.963737	-0.390799
N	6.01093	0.240378	0.623699
H	5.41	-1.66013	1.52679
H	3.42188	-1.4644	-0.378068
H	5.92389	1.91772	-0.719023
H	6.86022	0.485723	1.18917
