18
  This energy is -1.9821 and Call times are: 2115
C	-0.678174	0.909108	-0.00181613
C	-0.170531	0.374236	-1.14924
C	0.623421	-0.74134	-0.742732
C	0.530862	-0.7897	0.61722
O	-0.260104	0.210835	1.0866
H	-1.33972	1.77372	0.171531
H	-0.33833	0.729619	-2.17863
H	1.19359	-1.42288	-1.39427
H	0.974022	-1.4773	1.35618
C	3.61082	0.818592	0.606519
C	4.42314	1.02479	-0.488362
N	4.94338	-0.143106	-0.937669
C	4.45567	-1.07031	-0.124618
N	3.64667	-0.540773	0.823382
H	3.02917	1.51962	1.22603
H	4.64315	1.99533	-0.96216
H	4.65858	-2.15204	-0.178518
H	3.14275	-1.06572	1.57953
