18
  This energy is -1.7543 and Call times are: 130874
C	0.381807	0.666194	-0.834752
C	0.649504	-0.670364	-0.786539
C	0.00767997	-1.15535	0.393703
C	-0.595569	-0.0723428	0.96253
O	-0.377434	1.04854	0.225613
H	0.669877	1.44378	-1.56113
H	1.23973	-1.256	-1.50956
H	0.00133435	-2.19177	0.767708
H	-1.20053	0.030435	1.87834
C	5.09456	1.07227	-0.38543
C	5.89865	0.192197	0.307425
N	5.23502	-0.954114	0.593923
C	4.02384	-0.785816	0.080756
N	3.88932	0.420059	-0.520378
H	5.28825	2.08283	-0.778882
H	6.94575	0.363816	0.605722
H	3.19725	-1.5136	0.116758
H	3.03054	0.788051	-0.998213
