18
  This energy is -1.8798 and Call times are: 99748
C	-0.271815	1.01506	0.426813
C	0.738499	0.254537	0.937933
C	0.772699	-0.933566	0.145872
C	-0.219734	-0.794192	-0.779343
O	-0.867911	0.38998	-0.622451
H	-0.659958	2.00534	0.716545
H	1.39392	0.50506	1.7875
H	1.45991	-1.78738	0.259221
H	-0.560293	-1.45704	-1.59169
C	5.26884	-0.93641	0.61007
C	5.98623	-0.225248	-0.328414
N	5.25177	0.794958	-0.834638
C	4.08319	0.717001	-0.212568
N	4.04367	-0.310517	0.668475
H	5.53461	-1.81431	1.22014
H	7.02061	-0.430007	-0.649323
H	3.2216	1.38697	-0.364336
H	3.234	-0.579197	1.27962
