18
  This energy is -0.9467 and Call times are: 62998
C	0.882349	-0.501937	-0.505887
C	1.03734	0.483557	0.42425
C	-0.282696	0.856539	0.822382
C	-1.12781	0.0660429	0.100393
O	-0.433407	-0.769643	-0.715965
H	1.61875	-1.08452	-1.08343
H	1.98605	0.905522	0.793006
H	-0.560944	1.62519	1.5612
H	-2.22811	0.00242834	0.0768102
C	6.40631	0.684104	-0.309357
C	5.83632	0.581486	0.941935
N	4.80946	-0.302857	0.940083
C	4.74266	-0.747172	-0.307613
N	5.68446	-0.182191	-1.09971
H	7.2465	1.29202	-0.680928
H	6.14762	1.12971	1.84604
H	4.02334	-1.48645	-0.695269
H	5.83591	-0.368558	-2.12127
