18
  This energy is -1.1468 and Call times are: 58619
C	-0.291331	-0.786926	-0.76307
C	0.871832	-0.852588	-0.0537647
C	0.880219	0.299146	0.790958
C	-0.27856	0.966944	0.523282
O	-1.00624	0.317853	-0.423384
H	-0.719587	-1.45475	-1.52848
H	1.64624	-1.63371	-0.118866
H	1.66243	0.588556	1.51102
H	-0.695146	1.90164	0.933218
C	4.73166	-0.637845	0.622816
C	4.567	-0.168279	-0.663084
N	5.65357	0.531596	-1.07058
C	6.48913	0.496347	-0.0413931
N	5.97924	-0.196944	1.00405
H	4.07135	-1.23465	1.27194
H	3.68365	-0.32195	-1.30412
H	7.48715	0.9616	8.7241e-05
H	6.44545	-0.36633	1.92883
