18
  This energy is -1.443 and Call times are: 106822
C	-1.10699	-0.0675441	0.237523
C	-0.575011	-0.569478	-0.913753
C	0.825385	-0.295919	-0.849152
C	1.02555	0.349033	0.335898
O	-0.143794	0.497014	1.01247
H	-2.14161	-0.0492113	0.617618
H	-1.11462	-1.08105	-1.72691
H	1.58744	-0.553216	-1.60226
H	1.93944	0.747995	0.805879
C	4.43481	0.231805	-1.09453
C	4.58199	-1.01165	-0.517214
N	5.02326	-0.908283	0.759935
C	5.14935	0.39435	0.97411
N	4.80661	1.12409	-0.113823
H	4.10289	0.534767	-2.1003
H	4.37768	-1.98153	-0.999334
H	5.48863	0.868088	1.90936
H	4.82129	2.17026	-0.194817
