18
  This energy is -1.155 and Call times are: 48783
C	-0.195891	0.359542	-1.05771
C	0.986666	-0.210215	-0.687159
C	0.851344	-0.525314	0.69939
C	-0.40196	-0.120295	1.05373
O	-1.05561	0.422429	-0.00702423
H	-0.544893	0.756093	-2.02529
H	1.86605	-0.390514	-1.32612
H	1.60495	-0.998497	1.34922
H	-0.939249	-0.162173	2.01541
C	4.91135	-0.537378	0.926034
C	4.42859	0.570811	0.262708
N	5.24568	0.922844	-0.759517
C	6.2316	0.036417	-0.730462
N	6.07568	-0.865028	0.267876
H	4.52174	-1.09735	1.791
H	3.50534	1.12266	0.5034
H	7.09284	0.00141202	-1.41695
H	6.71915	-1.66174	0.496908
