18
  This energy is -1.3158 and Call times are: 125789
C	1.01669	0.359381	-0.351557
C	0.604216	-0.931342	-0.507359
C	-0.708738	-0.992425	0.0516936
C	-0.98269	0.266364	0.499772
O	0.0600285	1.10486	0.261697
H	1.95531	0.865698	-0.630629
H	1.16798	-1.75754	-0.969594
H	-1.36536	-1.8754	0.109093
H	-1.87091	0.68769	0.998566
C	5.0122	1.13118	0.0896833
C	4.71194	0.444897	-1.0679
N	4.39286	-0.845131	-0.802332
C	4.49479	-0.95871	0.514989
N	4.8655	0.205576	1.0986
H	5.30997	2.17783	0.261173
H	4.71981	0.85746	-2.08994
H	4.30926	-1.87157	1.10363
H	5.01305	0.371551	2.12424
