18
  This energy is -1.425 and Call times are: 41762
C	0.750757	-0.18859	0.828975
C	0.791314	0.928174	0.046947
C	-0.299708	0.805541	-0.866699
C	-0.910661	-0.375337	-0.562333
O	-0.282339	-0.995706	0.4708
H	1.39126	-0.521274	1.66224
H	1.51675	1.75533	0.107405
H	-0.588372	1.51871	-1.65547
H	-1.78821	-0.878653	-1.00031
C	5.29136	0.35497	0.883802
C	4.94452	-0.943197	0.574602
N	4.13186	-0.986961	-0.508997
C	3.97515	0.279242	-0.870657
N	4.65441	1.12683	-0.0620893
H	5.92523	0.770287	1.68334
H	5.26609	-1.84902	1.11398
H	3.37372	0.641593	-1.7199
H	4.68922	2.17271	-0.140753
