18
  This energy is -0.872 and Call times are: 29551
C	0.329979	-1.07849	0.119902
C	-0.0248476	-0.300741	1.18272
C	-0.373206	0.972268	0.636632
C	-0.200504	0.860061	-0.711684
O	0.22861	-0.385671	-1.04489
H	0.668303	-2.12603	0.0611692
H	-0.0397745	-0.594057	2.24472
H	-0.711929	1.86221	1.19104
H	-0.346886	1.58379	-1.53024
C	5.74495	0.530147	0.624579
C	5.52337	0.643998	-0.731549
N	4.46272	-0.105803	-1.118
C	4.02796	-0.682618	-0.00583785
N	4.76802	-0.330906	1.07222
H	6.5034	0.985732	1.28088
H	6.1098	1.25373	-1.43806
H	3.1717	-1.37139	0.0756587
H	4.62487	-0.65281	2.06073
