18
  This energy is -0.9483 and Call times are: 47309
C	-0.546621	-0.864712	-0.489775
C	-1.1987	0.115231	0.199345
C	-0.185187	1.01046	0.65921
C	0.996758	0.498556	0.210512
O	0.794791	-0.646508	-0.493085
H	-0.918066	-1.75893	-1.0167
H	-2.28448	0.199238	0.367017
H	-0.328921	1.92658	1.25432
H	2.03551	0.849964	0.323443
C	4.78964	-0.576905	-0.177353
C	6.06124	-1.10962	-0.197437
N	6.99386	-0.157368	0.0473954
C	6.30347	0.96184	0.218715
N	4.97023	0.761178	0.0930372
H	3.80196	-1.03987	-0.331208
H	6.32246	-2.16401	-0.384201
H	6.72418	1.95632	0.438347
H	4.21751	1.48669	0.184203
