18
  This energy is -0.8432 and Call times are: 37790
C	0.811854	-0.786302	0.0949895
C	-0.424691	-0.942508	0.649003
C	-1.15379	0.240204	0.31775
C	-0.298421	1.01474	-0.409446
O	0.906551	0.403347	-0.555225
H	1.69966	-1.43979	0.092358
H	-0.787048	-1.80415	1.23241
H	-2.19383	0.477883	0.59326
H	-0.425082	2.00688	-0.872984
C	5.60315	0.54935	0.995696
C	6.13806	0.75454	-0.258459
N	5.55266	-0.0515019	-1.17721
C	4.65798	-0.754067	-0.495621
N	4.64986	-0.428458	0.818724
H	5.82596	1.01444	1.96913
H	6.93591	1.46975	-0.516851
H	3.98262	-1.52004	-0.909628
H	4.03459	-0.842067	1.56145
