18
  This energy is -1.0795 and Call times are: 118230
C	-0.518007	0.880503	0.492732
C	0.282517	0.0219207	1.18726
C	0.743657	-0.93868	0.236098
C	0.184222	-0.582308	-0.955709
O	-0.589352	0.526513	-0.817464
H	-1.08623	1.76982	0.811285
H	0.524058	0.0611072	2.26161
H	1.41382	-1.79236	0.426343
H	0.257626	-1.02957	-1.96061
C	4.07228	-0.298198	-0.659935
C	4.83918	-1.13961	0.117909
N	5.82913	-0.458653	0.744652
C	5.67695	0.800421	0.357096
N	4.63121	0.948797	-0.490256
H	3.19753	-0.492088	-1.30083
H	4.69592	-2.22583	0.238117
H	6.30335	1.65364	0.663488
H	4.30781	1.84333	-0.933519
