18
  This energy is -0.8374 and Call times are: 114211
C	0.0219587	0.199464	1.1163
C	-0.656015	-0.853339	0.575626
C	-0.448856	-0.768816	-0.835069
C	0.337423	0.328176	-1.03191
O	0.634549	0.931635	0.149003
H	0.144222	0.531763	2.16028
H	-1.24311	-1.61322	1.11599
H	-0.843393	-1.45014	-1.60593
H	0.74793	0.778081	-1.95078
C	6.1255	-0.292578	0.786156
C	6.31916	0.358855	-0.413542
N	5.14617	0.534491	-1.0691
C	4.22831	-0.00592726	-0.279099
N	4.76867	-0.518133	0.851939
H	6.83359	-0.601314	1.57154
H	7.28424	0.705275	-0.817837
H	3.146	-0.0537913	-0.480464
H	4.2524	-0.996029	1.63061
