18
  This energy is -0.7521 and Call times are: 58843
C	-0.594794	0.609035	-0.749465
C	0.701967	0.896638	-0.439512
C	1.09856	-0.0780876	0.526275
C	0.00913634	-0.875286	0.721243
O	-1.03408	-0.47011	-0.0498299
H	-1.30481	1.0898	-1.44228
H	1.31749	1.71326	-0.849815
H	2.08271	-0.167465	1.01366
H	-0.149064	-1.75076	1.37222
C	5.81305	0.0250592	-1.17342
C	4.91666	-0.53664	-0.289033
N	5.33231	-0.382994	0.991646
C	6.48218	0.271534	0.902104
N	6.81538	0.540712	-0.382461
H	5.80874	0.0920911	-2.27297
H	3.97746	-1.05001	-0.552094
H	7.12107	0.578768	1.7457
H	7.67374	1.04596	-0.712927
