18
  This energy is -1.4906 and Call times are: 6876
C	0.679048	0.802379	0.426008
C	0.0658726	-0.128506	1.21204
C	-0.692184	-0.951609	0.324361
C	-0.475327	-0.451049	-0.925753
O	0.359703	0.620331	-0.882384
H	1.35743	1.63543	0.673138
H	0.139952	-0.225787	2.30709
H	-1.32271	-1.81396	0.594327
H	-0.851703	-0.763266	-1.91374
C	4.02755	0.926236	-0.551334
C	4.56627	-0.19943	-1.13768
N	5.02101	-1.06776	-0.201881
C	4.76537	-0.483011	0.96059
N	4.16682	0.721386	0.803224
H	3.57018	1.82848	-0.987584
H	4.63498	-0.400596	-2.21919
H	4.99559	-0.892703	1.95728
H	3.86614	1.37467	1.56747
