18
  This energy is -0.821 and Call times are: 100542
C	0.821542	-0.43867	-0.647332
C	0.321735	0.814002	-0.85075
C	-0.680596	1.0022	0.149267
C	-0.704815	-0.152086	0.875503
O	0.206101	-1.04308	0.402875
H	1.60539	-1.00748	-1.17392
H	0.628149	1.53334	-1.62712
H	-1.30584	1.89646	0.302404
H	-1.31562	-0.459047	1.74034
C	5.68462	0.255723	0.988899
C	4.6849	-0.681717	0.837517
N	4.23327	-0.712501	-0.439821
C	4.95008	0.202363	-1.07844
N	5.83907	0.813969	-0.260377
H	6.27729	0.555099	1.8679
H	4.2814	-1.33641	1.62708
H	4.8648	0.464741	-2.14526
H	6.51686	1.56947	-0.526985
