18
  This energy is -0.7257 and Call times are: 11620
C	-0.188494	0.483319	-1.0086
C	0.920485	0.757163	-0.263249
C	0.800455	-0.0324153	0.920929
C	-0.371277	-0.719058	0.794676
O	-0.988369	-0.416237	-0.377718
H	-0.519909	0.857892	-1.991
H	1.74076	1.44607	-0.521432
H	1.50916	-0.0774156	1.76343
H	-0.869702	-1.4431	1.45994
C	6.99255	-0.432537	-0.461355
C	6.88617	0.556492	0.493449
N	5.58893	0.807485	0.794549
C	4.89317	-0.0226775	0.029449
N	5.69396	-0.791472	-0.745978
H	7.87114	-0.891044	-0.942379
H	7.72222	1.09346	0.970466
H	3.7951	-0.109002	-0.0026346
H	5.38455	-1.52181	-1.43309
