18
  This energy is -1.2558 and Call times are: 102948
C	0.0137781	0.764333	-0.837858
C	-1.13625	0.396925	-0.203173
C	-0.751189	-0.569962	0.775079
C	0.60015	-0.708049	0.651833
O	1.08399	0.0993786	-0.328457
H	0.200954	1.47872	-1.65632
H	-2.15365	0.769414	-0.403756
H	-1.41068	-1.09619	1.48377
H	1.3231	-1.33899	1.19452
C	4.24944	0.375766	0.583382
C	4.4114	0.317645	-0.784659
N	5.63373	-0.167524	-1.11182
C	6.22781	-0.409468	0.0488501
N	5.43415	-0.0983522	1.10094
H	3.4032	0.709821	1.20453
H	3.66817	0.617094	-1.54149
H	7.24342	-0.814486	0.185707
H	5.67533	-0.19911	2.11728
