18
  This energy is -1.1197 and Call times are: 43430
C	0.091152	-1.02701	-0.472601
C	-0.148041	-0.854378	0.859075
C	-0.194574	0.557801	1.06812
C	0.0202907	1.12347	-0.15426
O	0.19677	0.17033	-1.10683
H	0.20613	-1.93796	-1.08268
H	-0.278613	-1.64243	1.61803
H	-0.368397	1.08236	2.02139
H	0.0705224	2.17743	-0.473474
C	5.74956	-0.472785	-0.509813
C	5.59078	0.837266	-0.110188
N	4.36873	1.03526	0.441097
C	3.77166	-0.147464	0.383692
N	4.56315	-1.08978	-0.181264
H	6.59467	-0.99233	-0.988771
H	6.33609	1.64314	-0.209768
H	2.75532	-0.379031	0.74099
H	4.31947	-2.09825	-0.338964
