18
  This energy is -1.6617 and Call times are: 60604
C	-0.610124	0.163057	-0.942105
C	-0.425852	1.14385	-0.0123364
C	0.384331	0.56474	1.01156
C	0.62363	-0.718811	0.617088
O	0.0238464	-0.981275	-0.573872
H	-1.16376	0.154001	-1.89534
H	-0.820827	2.17199	-0.0443065
H	0.742415	1.0546	1.93129
H	1.19728	-1.53364	1.0885
C	4.93832	-0.691833	0.921772
C	5.70542	0.352641	0.450841
N	5.12964	0.933309	-0.629813
C	4.0096	0.251658	-0.828536
N	3.84887	-0.738652	0.0808822
H	5.08568	-1.38209	1.76757
H	6.66402	0.697639	0.871459
H	3.271	0.435625	-1.62532
H	3.0471	-1.41354	0.135083
