18
  This energy is -1.1886 and Call times are: 78847
C	-0.392452	0.969669	0.43832
C	0.692846	0.927515	-0.386742
C	0.873671	-0.44836	-0.724956
C	-0.11709	-1.12552	-0.0767168
O	-0.899681	-0.275188	0.63847
H	-0.89594	1.81134	0.941647
H	1.3047	1.7798	-0.723403
H	1.6536	-0.874938	-1.37599
H	-0.368978	-2.19825	-0.0439817
C	4.22934	-0.359091	0.560324
C	4.71462	-0.832355	-0.64037
N	5.85614	-0.192391	-0.992368
C	6.07817	0.674593	-0.0137654
N	5.12525	0.612791	0.946294
H	3.33953	-0.635895	1.14783
H	4.26154	-1.62412	-1.25898
H	6.92358	1.3785	0.0498086
H	5.07793	1.19441	1.8185
