18
  This energy is -1.8654 and Call times are: 72184
C	0.131814	1.11764	-0.141101
C	-0.377038	0.313087	-1.1179
C	-0.386966	-1.00664	-0.57169
C	0.116695	-0.892048	0.690676
O	0.438782	0.398318	0.970366
H	0.322923	2.20299	-0.11374
H	-0.711815	0.618332	-2.12232
H	-0.73097	-1.92807	-1.0684
H	0.29399	-1.64296	1.47804
C	3.52219	0.243718	1.08764
C	3.94605	-0.979713	0.613614
N	4.31202	-0.899016	-0.688718
C	4.11593	0.369653	-1.02136
N	3.64037	1.09951	0.0153325
H	3.15699	0.555515	2.07908
H	3.99437	-1.91919	1.18798
H	4.30419	0.817447	-2.01044
H	3.40629	2.12242	0.00435041
