18
  This energy is -1.2563 and Call times are: 19331
C	-0.445388	0.000300474	1.04309
C	-0.970038	0.740478	0.0246306
C	-0.146575	0.479497	-1.11287
C	0.808589	-0.397123	-0.689113
O	0.641293	-0.700656	0.624999
H	-0.749056	-0.112272	2.09683
H	-1.84877	1.40371	0.0698554
H	-0.259902	0.900154	-2.12495
H	1.65069	-0.872824	-1.2181
C	4.6388	-0.774849	-0.874892
C	4.16896	-1.03585	0.394862
N	4.13925	0.091587	1.14621
C	4.58896	1.04837	0.345615
N	4.90356	0.576449	-0.883979
H	4.79817	-1.43313	-1.74369
H	3.85088	-2.01746	0.782302
H	4.70801	2.11174	0.608871
H	5.27785	1.13375	-1.69056
