18
  This energy is -0.9766 and Call times are: 39187
C	-0.615821	-0.945094	-0.118166
C	-0.665162	-0.177176	1.008
C	0.235426	0.907976	0.781052
C	0.755602	0.707385	-0.463759
O	0.246806	-0.419713	-1.02749
H	-1.13875	-1.87623	-0.391622
H	-1.27461	-0.356856	1.90821
H	0.463071	1.73694	1.47032
H	1.48575	1.28613	-1.05298
C	4.23625	0.138695	0.484043
C	4.81208	0.928224	-0.48869
N	6.04839	0.478734	-0.814275
C	6.23881	-0.585599	-0.0464466
N	5.17491	-0.831942	0.754187
H	3.25758	0.196928	0.986393
H	4.35762	1.81414	-0.961414
H	7.13892	-1.22103	-0.0301766
H	5.08266	-1.61345	1.44845
