18
  This energy is -0.8546 and Call times are: 92284
C	0.212909	-0.530528	0.979597
C	-0.56698	-1.08092	0.00532177
C	-0.597809	-0.126288	-1.05668
C	0.165962	0.923198	-0.637622
O	0.668961	0.693325	0.603813
H	0.515189	-0.903609	1.97191
H	-1.07008	-2.06086	0.0318423
H	-1.12957	-0.2189	-2.01727
H	0.425346	1.8784	-1.12297
C	5.1742	0.0400627	1.09644
C	4.46225	0.196283	-0.0739712
N	5.27137	0.0903999	-1.15592
C	6.48069	-0.130667	-0.658613
N	6.47455	-0.169831	0.694908
H	4.85807	0.0626479	2.15147
H	3.37925	0.383499	-0.157112
H	7.40569	-0.271168	-1.24072
H	7.30259	-0.329639	1.31946
