18
  This energy is -0.9483 and Call times are: 46083
C	-0.334572	-0.104918	1.07864
C	-0.722054	-0.978474	0.105429
C	-0.105809	-0.520499	-1.09899
C	0.603851	0.59249	-0.75546
O	0.475458	0.860889	0.57062
H	-0.563695	-0.0621288	2.1561
H	-1.37621	-1.8572	0.223812
H	-0.187172	-0.97354	-2.1001
H	1.23217	1.27251	-1.35383
C	7.30582	0.85262	0.0937168
C	7.24303	-0.31122	0.830383
N	6.18197	-1.06798	0.458913
C	5.58877	-0.376241	-0.50454
N	6.22841	0.789277	-0.761481
H	8.01723	1.69339	0.116765
H	7.94432	-0.618437	1.62326
H	4.68316	-0.67689	-1.05564
H	5.95558	1.50779	-1.47602
