18
  This energy is -1.2485 and Call times are: 71864
C	0.186175	-0.881034	-0.689579
C	0.447701	0.405106	-1.06082
C	0.0886263	1.21596	0.0588634
C	-0.360627	0.353747	1.01549
O	-0.308023	-0.931013	0.575444
H	0.306675	-1.83599	-1.22697
H	0.85283	0.748386	-2.02629
H	0.159998	2.31293	0.134135
H	-0.739744	0.52702	2.03602
C	5.21241	0.0246697	-1.00471
C	5.07197	-1.04596	-0.147286
N	4.29651	-0.722092	0.915859
C	3.95716	0.544638	0.71873
N	4.48456	1.04018	-0.425771
H	5.7605	0.132193	-1.95422
H	5.5163	-2.04629	-0.27673
H	3.32447	1.15727	1.38101
H	4.3623	2.01267	-0.800682
