18
  This energy is -0.4729 and Call times are: 130552
C	0.631525	0.923075	0.188441
C	1.17944	-0.313961	0.0155033
C	0.0808254	-1.2024	-0.193886
C	-1.04145	-0.429847	-0.130418
O	-0.723795	0.870876	0.102448
H	1.09198	1.90676	0.377121
H	2.24986	-0.574671	0.0335747
H	0.130092	-2.28891	-0.370439
H	-2.10961	-0.682338	-0.233082
C	6.10556	1.01997	-0.31667
C	5.53603	0.0281923	0.453495
N	6.38983	-1.01065	0.62189
C	7.48487	-0.664647	-0.0412861
N	7.3632	0.551274	-0.624657
H	5.71783	1.99364	-0.656051
H	4.52436	0.0435974	0.890674
H	8.40488	-1.26428	-0.132093
H	8.08868	1.04324	-1.20164
