18
  This energy is -1.2153 and Call times are: 127083
C	-0.738736	-0.779358	0.365064
C	-0.947196	-0.0496539	-0.768272
C	0.185689	0.811249	-0.892907
C	0.986432	0.531633	0.175269
O	0.437349	-0.437399	0.954047
H	-1.34329	-1.56191	0.852284
H	-1.81198	-0.111434	-1.44829
H	0.373911	1.54967	-1.68877
H	1.95818	0.946942	0.489072
C	6.79273	1.10761	0.0636552
C	7.17307	0.0477653	0.859398
N	6.51893	-1.08605	0.508593
C	5.73575	-0.730945	-0.50094
N	5.86447	0.581816	-0.80701
H	7.10647	2.16357	0.0556116
H	7.90776	0.080892	1.68036
H	5.04815	-1.39238	-1.05225
H	5.35433	1.10031	-1.56344
