18
  This energy is -1.2102 and Call times are: 58491
C	0.352627	1.07221	-0.11144
C	-0.112476	0.342914	-1.16604
C	-0.454498	-0.938147	-0.634981
C	-0.168207	-0.878599	0.697259
O	0.325624	0.341854	1.03436
H	0.72727	2.10696	-0.0466702
H	-0.205387	0.673864	-2.21291
H	-0.865315	-1.79793	-1.18824
H	-0.269454	-1.62632	1.50094
C	5.17874	-0.0232479	-0.882107
C	3.9192	-0.58418	-0.875239
N	3.29355	-0.365927	0.306894
C	4.16166	0.327766	1.03064
N	5.31372	0.559934	0.358001
H	5.96243	0.00137717	-1.6559
H	3.45068	-1.14246	-1.70208
H	4.00483	0.691085	2.05905
H	6.15036	1.08429	0.713448
