18
  This energy is -1.2645 and Call times are: 48122
C	0.01896	-0.245973	-1.10704
C	-0.944134	-0.725483	-0.268653
C	-0.632308	-0.203913	1.02396
C	0.493811	0.548278	0.861361
O	0.905381	0.533771	-0.433788
H	0.182104	-0.384751	-2.18842
H	-1.78935	-1.38074	-0.533862
H	-1.18769	-0.374379	1.96022
H	1.09083	1.13521	1.57853
C	4.89128	0.80249	0.856021
C	5.70292	-0.294851	0.660516
N	5.30973	-1.00647	-0.423692
C	4.25816	-0.353086	-0.898992
N	3.96597	0.744764	-0.162146
H	4.90617	1.59398	1.62208
H	6.56518	-0.585849	1.28235
H	3.66498	-0.634902	-1.78384
H	3.18362	1.4228	-0.333765
