18
  This energy is -1.3163 and Call times are: 37310
C	0.843748	0.435696	0.620208
C	-0.452792	0.442307	1.04366
C	-1.20651	-0.184902	0.00509098
C	-0.304025	-0.519422	-0.961337
O	0.952971	-0.147833	-0.60232
H	1.76817	0.809985	1.08989
H	-0.83961	0.848146	1.99222
H	-2.29391	-0.362047	-0.011697
H	-0.428329	-1.01783	-1.93673
C	4.4237	-0.840153	-0.276748
C	5.73587	-1.01977	0.106769
N	6.3407	0.168215	0.350484
C	5.40729	1.08135	0.119041
N	4.23364	0.523607	-0.26183
H	3.63792	-1.56221	-0.550112
H	6.25701	-1.98527	0.211986
H	5.52973	2.17239	0.213181
H	3.34769	1.033	-0.500326
