18
  This energy is -1.5647 and Call times are: 43169
C	0.531521	0.914769	-0.408759
C	-0.363061	0.198451	-1.14834
C	-0.810474	-0.861373	-0.301755
C	-0.149804	-0.69914	0.880433
O	0.673984	0.380729	0.83282
H	1.12573	1.81192	-0.648112
H	-0.676443	0.396512	-2.18597
H	-1.53972	-1.64841	-0.552479
H	-0.17813	-1.27663	1.81902
C	4.10354	0.324551	0.891459
C	5.34817	-0.261402	0.984714
N	5.86831	-0.501802	-0.243362
C	4.94986	-0.0666424	-1.09524
N	3.86689	0.440671	-0.460097
H	3.39317	0.65606	1.66542
H	5.88017	-0.515006	1.91612
H	5.01931	-0.0954384	-2.19459
H	3.01019	0.845358	-0.91127
