18
  This energy is -1.1336 and Call times are: 32694
C	0.704701	0.368419	0.808743
C	0.0185269	1.22045	-0.00585752
C	-0.750625	0.392138	-0.879021
C	-0.466571	-0.892948	-0.520918
O	0.420458	-0.926144	0.508203
H	1.41631	0.555882	1.62955
H	0.0507708	2.32177	0.00685504
H	-1.4333	0.723539	-1.67791
H	-0.82516	-1.85801	-0.915033
C	5.0573	-1.15884	0.200886
C	4.04501	-0.367994	-0.300083
N	4.43988	0.924306	-0.402773
C	5.69238	0.935124	0.0328335
N	6.1108	-0.296722	0.408429
H	5.10108	-2.23812	0.417173
H	3.0368	-0.706716	-0.589271
H	6.34892	1.81771	0.0978684
H	7.05739	-0.54732	0.785831
