18
  This energy is -1.0516 and Call times are: 124637
C	0.723953	-0.870339	0.0693131
C	-0.471479	-0.964603	-0.580634
C	-1.08898	0.316831	-0.451256
C	-0.216381	1.08104	0.26633
O	0.896202	0.372029	0.592634
H	1.52978	-1.60566	0.228094
H	-0.877696	-1.8479	-1.09915
H	-2.06916	0.624613	-0.84952
H	-0.269748	2.12871	0.605128
C	5.33456	-0.495923	-1.04122
C	5.95095	-0.766886	0.162019
N	5.43048	-0.0106498	1.15888
C	4.49475	0.726658	0.576277
N	4.39828	0.470895	-0.749946
H	5.49071	-0.908903	-2.05048
H	6.7619	-1.4945	0.328717
H	3.85086	1.46951	1.07408
H	3.73637	0.922959	-1.42727
