18
  This energy is -0.6445 and Call times are: 53256
C	-0.752713	0.462526	-0.711262
C	0.591407	0.509947	-0.938126
C	1.19782	-0.170107	0.161835
C	0.170731	-0.573066	0.963767
O	-1.02759	-0.195177	0.445839
H	-1.60597	0.853705	-1.28934
H	1.1044	0.976966	-1.79418
H	2.27446	-0.335193	0.328189
H	0.161226	-1.12811	1.91617
C	8.51512	-0.526175	0.278868
C	7.44202	-0.302324	1.11522
N	6.43681	0.329541	0.461905
C	6.88461	0.497045	-0.775044
N	8.13307	-0.00205003	-0.93584
H	9.49106	-1.00537	0.456219
H	7.37508	-0.585422	2.17834
H	6.33938	0.978816	-1.6026
H	8.70165	0.00828375	-1.8178
