18
  This energy is -1.0702 and Call times are: 695
C	0.802922	0.36559	0.712784
C	0.828837	0.645015	-0.621991
C	-0.331848	0.0223199	-1.17442
C	-0.964578	-0.582655	-0.128463
O	-0.285431	-0.383264	1.03172
H	1.49059	0.637905	1.53023
H	1.58904	1.23086	-1.16327
H	-0.650495	0.0293721	-2.22918
H	-1.89189	-1.17676	-0.0796726
C	5.82045	0.850239	-0.526522
C	4.58922	0.364241	-0.912556
N	4.16667	-0.615341	-0.076864
C	5.13209	-0.736588	0.824183
N	6.15139	0.125242	0.596441
H	6.46312	1.63454	-0.957094
H	3.99822	0.70287	-1.7791
H	5.14358	-1.44061	1.6718
H	7.02696	0.222607	1.16667
