18
  This energy is -1.4208 and Call times are: 30823
C	0.857329	0.0413501	-0.741402
C	0.400436	-1.1323	-0.217793
C	-0.668326	-0.778469	0.661222
C	-0.770192	0.580167	0.597168
O	0.153854	1.09739	-0.25467
H	1.66546	0.255877	-1.45984
H	0.778137	-2.14556	-0.429329
H	-1.28403	-1.46284	1.26672
H	-1.44914	1.28702	1.10179
C	4.55604	1.15127	-0.197367
C	3.83891	0.366156	0.680399
N	4.27133	-0.917885	0.652724
C	5.25298	-0.929316	-0.23882
N	5.46309	0.294226	-0.779553
H	4.48739	2.22344	-0.440801
H	3.01725	0.703206	1.33317
H	5.85119	-1.80647	-0.533748
H	6.1803	0.542664	-1.50422
