18
  This energy is -1.3369 and Call times are: 123480
C	-0.252781	0.930293	0.597543
C	0.637799	-0.0028936	1.04072
C	0.686849	-1.00864	0.027711
C	-0.178088	-0.60127	-0.945071
O	-0.760771	0.580945	-0.613619
H	-0.606278	1.87388	1.04469
H	1.20345	0.015173	1.98613
H	1.29809	-1.92541	0.0315453
H	-0.463338	-1.05709	-1.90742
C	5.50687	-0.849186	0.113717
C	4.32865	-0.917339	-0.599221
N	3.63811	0.245606	-0.514188
C	4.38511	1.03223	0.248601
N	5.52231	0.41799	0.65243
H	6.3087	-1.58811	0.270599
H	3.96445	-1.7848	-1.17343
H	4.14663	2.06706	0.54268
H	6.27278	0.82879	1.26012
