18
  This energy is -1.0876 and Call times are: 128142
C	-1.00591	-0.238665	-0.466458
C	-0.692758	1.00497	-0.0020514
C	0.639701	0.909497	0.503474
C	1.02317	-0.384056	0.30336
O	0.0304718	-1.09952	-0.287977
H	-1.92011	-0.633822	-0.939046
H	-1.33558	1.8998	-0.0142466
H	1.23539	1.71558	0.961162
H	1.96295	-0.912059	0.534161
C	5.71065	0.37897	0.858166
C	4.96417	1.15637	-0.00180826
N	4.25887	0.388302	-0.867334
C	4.56663	-0.860837	-0.545533
N	5.43852	-0.919394	0.488866
H	6.39349	0.6488	1.67942
H	4.92186	2.2577	-0.0132547
H	4.18209	-1.77024	-1.03475
H	5.8322	-1.7883	0.926214
