18
  This energy is -0.856 and Call times are: 124829
C	-0.364017	0.827331	0.685139
C	-1.01823	0.488786	-0.462802
C	-0.265861	-0.578613	-1.04135
C	0.781694	-0.798113	-0.195882
O	0.737478	0.0515887	0.863865
H	-0.577846	1.59158	1.45029
H	-1.93832	0.944954	-0.862109
H	-0.486628	-1.11458	-1.97842
H	1.61471	-1.51905	-0.235726
C	5.89109	-0.444033	0.915718
C	4.67326	-0.871788	0.430888
N	4.28567	-0.132945	-0.637003
C	5.25934	0.749812	-0.81399
N	6.25038	0.603265	0.0970214
H	6.50694	-0.798947	1.75732
H	4.06733	-1.70029	0.832497
H	5.29717	1.52587	-1.59536
H	7.1257	1.17795	0.166461
