18
  This energy is -1.1528 and Call times are: 69644
C	-0.197485	-0.783321	0.796121
C	-1.1204	0.161811	0.45652
C	-0.512289	0.952566	-0.565745
C	0.728551	0.420847	-0.760593
O	0.937685	-0.640009	0.0627294
H	-0.226906	-1.60213	1.53365
H	-2.1283	0.289348	0.883095
H	-0.954955	1.8151	-1.08936
H	1.54526	0.702298	-1.44545
C	4.66729	-1.16965	-0.126255
C	4.26265	-0.226336	-1.04689
N	4.44149	1.02964	-0.570386
C	4.95513	0.866118	0.641248
N	5.11051	-0.441835	0.955422
H	4.67108	-2.27064	-0.163065
H	3.84486	-0.429495	-2.0464
H	5.23588	1.67	1.34067
H	5.49531	-0.827933	1.85215
