18
  This energy is -0.6523 and Call times are: 60348
C	-0.0732904	-0.621674	-0.945807
C	-1.05165	0.249915	-0.566973
C	-0.602146	0.83472	0.656164
C	0.611222	0.268874	0.916796
O	0.949809	-0.622927	-0.0512243
H	0.0127189	-1.29003	-1.81825
H	-1.99522	0.459952	-1.0958
H	-1.1279	1.58833	1.26423
H	1.32268	0.414217	1.74623
C	5.62336	-0.705857	0.841203
C	5.13667	-1.0869	-0.391308
N	4.7305	-0.0120748	-1.10984
C	4.96432	1.03179	-0.326065
N	5.50243	0.665695	0.86137
H	6.03353	-1.29403	1.67748
H	5.07133	-2.1181	-0.774969
H	4.76038	2.08633	-0.572202
H	5.77549	1.30488	1.64759
