18
  This energy is -0.4638 and Call times are: 123963
C	0.940534	-0.454019	-0.442339
C	-0.158668	-0.169929	-1.19826
C	-1.12067	0.381229	-0.297763
C	-0.524404	0.385289	0.928952
O	0.734746	-0.121353	0.859198
H	1.91824	-0.888405	-0.708126
H	-0.279897	-0.332213	-2.28134
H	-2.13606	0.731241	-0.543833
H	-0.885218	0.717785	1.91613
C	6.45423	-1.13991	0.248817
C	5.32857	-0.556048	-0.2926
N	5.49682	0.779849	-0.446161
C	6.7222	1.02381	-0.00169907
N	7.3406	-0.101481	0.428293
H	6.67974	-2.18599	0.510366
H	4.39803	-1.07478	-0.575177
H	7.21616	2.00826	0.0314676
H	8.31047	-0.169872	0.823163
