18
  This energy is -1.05 and Call times are: 107425
C	-0.496684	-0.970325	-0.31333
C	0.367089	-0.898767	0.739832
C	0.775384	0.467697	0.818491
C	0.125071	1.11054	-0.193547
O	-0.656145	0.247572	-0.894975
H	-1.05619	-1.81704	-0.743765
H	0.684853	-1.72532	1.39552
H	1.47266	0.911263	1.54729
H	0.133671	2.16512	-0.514537
C	6.24156	-0.0395802	0.28349
C	5.25249	0.670841	0.930162
N	4.04949	0.487102	0.333887
C	4.29133	-0.334182	-0.678846
N	5.59834	-0.680616	-0.751658
H	7.32159	-0.131273	0.480111
H	5.38536	1.31269	1.81629
H	3.54775	-0.713532	-1.39816
H	6.03795	-1.3164	-1.46143
