18
  This energy is -1.2738 and Call times are: 54525
C	-0.155649	1.07649	-0.321473
C	-0.912163	0.0518098	-0.809421
C	-0.422628	-1.13141	-0.176598
C	0.589818	-0.725327	0.642196
O	0.766597	0.620035	0.56629
H	-0.1744	2.15995	-0.523999
H	-1.73262	0.12212	-1.54154
H	-0.788068	-2.16089	-0.320512
H	1.25221	-1.2882	1.32018
C	4.752	1.11504	0.133744
C	4.25223	0.28203	1.11225
N	3.94624	-0.937393	0.606396
C	4.25501	-0.861174	-0.681034
N	4.74477	0.356196	-1.0153
H	5.10065	2.1593	0.172475
H	4.10696	0.539055	2.17418
H	4.14244	-1.66722	-1.4239
H	5.0591	0.663451	-1.96822
