18
  This energy is -2.9461 and Call times are: 58081
C	0.358696	-0.786493	0.73428
C	0.0480946	-1.08338	-0.560231
C	-0.357018	0.149125	-1.15767
C	-0.258213	1.09038	-0.175499
O	0.177421	0.536563	0.986621
H	0.715015	-1.4187	1.5641
H	0.0991365	-2.07121	-1.04571
H	-0.682526	0.306905	-2.19846
H	-0.465568	2.17308	-0.176948
C	4.2142	-0.453391	-1.08267
C	5.37443	-0.176956	-0.390864
N	5.10277	0.339647	0.832179
C	3.77904	0.383531	0.898866
N	3.1972	-0.0837347	-0.231048
H	4.04589	-0.873007	-2.08722
H	6.40267	-0.341013	-0.752314
H	3.18428	0.748599	1.75163
H	2.16753	-0.151511	-0.421982
