18
  This energy is -1.3466 and Call times are: 77195
C	0.185533	0.0296898	1.11852
C	-0.291429	-1.08089	0.486461
C	-0.389628	-0.732534	-0.89525
C	0.035995	0.560162	-0.985557
O	0.391144	1.04148	0.234776
H	0.418053	0.224557	2.17834
H	-0.548336	-2.04835	0.947011
H	-0.73781	-1.37621	-1.71899
H	0.131881	1.23973	-1.84825
C	4.53159	1.10092	-0.345586
C	4.82091	-0.0597897	-1.03129
N	4.41347	-1.15099	-0.338623
C	3.87345	-0.669064	0.772568
N	3.9204	0.683538	0.815629
H	4.71139	2.1591	-0.593508
H	5.31633	-0.129422	-2.01341
H	3.42901	-1.26223	1.58796
H	3.55989	1.29735	1.58669
