18
  This energy is -2.4836 and Call times are: 12571
C	-0.159078	-0.784329	-0.803694
C	-0.260884	-1.07007	0.526105
C	0.00310431	0.155412	1.21067
C	0.242926	1.08184	0.238771
O	0.148048	0.525304	-0.997465
H	-0.280584	-1.41637	-1.69869
H	-0.498084	-2.04592	0.979477
H	0.0112801	0.318633	2.30034
H	0.488734	2.15493	0.296286
C	3.38205	-0.132169	0.992854
C	4.59407	0.509893	0.851802
N	5.01967	0.473269	-0.434291
C	4.07527	-0.188995	-1.08861
N	3.06642	-0.575266	-0.272148
H	2.74312	-0.29954	1.8745
H	5.16907	0.998905	1.65498
H	4.07236	-0.419007	-2.16625
H	2.20745	-1.11034	-0.549859
