18
  This energy is -0.8534 and Call times are: 83075
C	-0.135913	-1.0161	-0.485261
C	0.591464	-0.0199838	-1.06755
C	0.530348	1.08667	-0.16661
C	-0.22898	0.669132	0.886696
O	-0.644278	-0.612621	0.708801
H	-0.363864	-2.04318	-0.814489
H	1.11821	-0.0604468	-2.0345
H	1.00028	2.07484	-0.296149
H	-0.541968	1.18186	1.81104
C	6.35521	-0.291426	0.62269
C	6.16974	0.855305	-0.120111
N	4.94901	0.864242	-0.70853
C	4.37933	-0.272622	-0.332198
N	5.18699	-1.00454	0.471276
H	7.20741	-0.638891	1.22813
H	6.89489	1.67637	-0.242003
H	3.37236	-0.618614	-0.615991
H	4.96548	-1.93749	0.897652
