18
  This energy is -0.9205 and Call times are: 132989
C	0.95249	-0.18859	-0.586172
C	0.331801	-1.16705	0.133364
C	-0.815785	-0.552145	0.720777
C	-0.795064	0.747795	0.308345
O	0.277961	0.987369	-0.49055
H	1.86756	-0.201882	-1.20077
H	0.65014	-2.21654	0.239799
H	-1.56412	-1.03008	1.37321
H	-1.47675	1.59009	0.511074
C	5.99728	0.292443	-0.901871
C	6.0918	0.74401	0.397474
N	5.12403	0.20077	1.17518
C	4.43177	-0.584821	0.361397
N	4.91895	-0.563946	-0.901854
H	6.60092	0.512566	-1.79669
H	6.84095	1.45206	0.787717
H	3.55895	-1.19771	0.638502
H	4.54625	-1.09832	-1.72453
