18
  This energy is -1.0004 and Call times are: 136889
C	0.555798	-0.953055	0.263013
C	-0.780839	-0.938142	-0.00819399
C	-1.10746	0.423493	-0.289944
C	0.0584116	1.12046	-0.166038
O	1.08449	0.295573	0.171226
H	1.2383	-1.77626	0.530908
H	-1.46788	-1.79958	-0.00969172
H	-2.0981	0.827687	-0.553325
H	0.28645	2.19183	-0.29017
C	4.38339	-0.328475	0.661078
C	4.96281	0.921748	0.612506
N	6.00036	0.945923	-0.258942
C	6.06436	-0.284624	-0.749127
N	5.11055	-1.09075	-0.225693
H	3.53341	-0.71672	1.24447
H	4.6508	1.80676	1.19064
H	6.79009	-0.649261	-1.49383
H	4.95466	-2.10349	-0.45222
