18
  This energy is -1.1347 and Call times are: 50174
C	-0.635052	0.636066	-0.691759
C	-0.585281	-0.723442	-0.789915
C	0.308	-1.15714	0.236767
C	0.725244	-0.0243683	0.871681
O	0.159248	1.08005	0.317684
H	-1.18966	1.3912	-1.27266
H	-1.12361	-1.35729	-1.51279
H	0.599974	-2.1941	0.468189
H	1.41355	0.127319	1.71931
C	5.33974	0.750018	0.793216
C	4.07411	0.771753	0.246548
N	3.90567	-0.242559	-0.636238
C	5.06241	-0.891079	-0.637222
N	5.95986	-0.331446	0.208343
H	5.82676	1.40573	1.5324
H	3.27949	1.50114	0.473294
H	5.30604	-1.78202	-1.23814
H	6.94111	-0.658975	0.384775
