18
  This energy is -2.1826 and Call times are: 131184
C	-0.552334	0.98586	0.0969923
C	0.24148	0.492539	1.0904
C	0.754215	-0.747742	0.601606
C	0.228463	-0.90285	-0.647354
O	-0.571847	0.146568	-0.971755
H	-1.14911	1.91025	0.0291052
H	0.445503	0.955587	2.06921
H	1.43482	-1.43753	1.12608
H	0.34511	-1.70418	-1.39536
C	4.01569	1.11302	-0.255814
C	5.01375	0.688677	0.595628
N	5.06271	-0.664307	0.655209
C	4.09869	-1.07774	-0.156185
N	3.43838	-0.0439013	-0.72956
H	3.68638	2.12273	-0.548369
H	5.69939	1.33453	1.16801
H	3.83345	-2.1263	-0.366927
H	2.63896	-0.110887	-1.4061
