18
  This energy is -1.013 and Call times are: 95884
C	0.618975	0.777306	-0.54687
C	0.722627	0.575181	0.798038
C	-0.201602	-0.468492	1.10895
C	-0.788449	-0.812009	-0.0734163
O	-0.299235	-0.0612742	-1.09522
H	1.13634	1.47767	-1.22294
H	1.38361	1.10762	1.50068
H	-0.399681	-0.90614	2.10057
H	-1.55706	-1.56382	-0.316893
C	4.27588	-0.285345	0.200063
C	4.74378	0.867034	-0.395112
N	6.09714	0.865923	-0.465284
C	6.46742	-0.282778	0.0842669
N	5.40576	-1.01259	0.501192
H	3.25295	-0.627932	0.423187
H	4.1291	1.69925	-0.775149
H	7.50287	-0.639272	0.206713
H	5.43732	-1.95322	0.965394
