18
  This energy is -1.0774 and Call times are: 127501
C	0.99499	0.0298963	0.543602
C	-0.194354	0.209657	1.18666
C	-1.20272	0.103502	0.180655
C	-0.540562	-0.131758	-0.988349
O	0.802368	-0.179854	-0.785275
H	2.03335	0.0282455	0.913819
H	-0.346337	0.398107	2.26159
H	-2.29197	0.193282	0.320516
H	-0.905248	-0.281113	-2.01789
C	4.627	-0.618445	-0.929241
C	4.59053	-1.00821	0.392839
N	5.10353	-0.0478485	1.19971
C	5.4569	0.933967	0.38131
N	5.19001	0.638112	-0.912843
H	4.30296	-1.1293	-1.84987
H	4.20325	-1.96517	0.778961
H	5.91536	1.89142	0.676828
H	5.37645	1.24946	-1.74516
