18
  This energy is -1.2595 and Call times are: 120878
C	-0.333314	1.08337	-0.0401378
C	0.0316971	0.474122	1.12432
C	0.381253	-0.865202	0.771985
C	0.198993	-0.956164	-0.576674
O	-0.237165	0.224604	-1.08908
H	-0.676064	2.10943	-0.252219
H	0.0526848	0.922841	2.13045
H	0.727151	-1.66138	1.45063
H	0.342617	-1.79364	-1.27899
C	6.62997	0.948433	-0.548352
C	7.14127	0.34181	0.579357
N	6.39345	-0.729397	0.939616
C	5.42192	-0.787103	0.0388278
N	5.52059	0.202983	-0.87964
H	6.96586	1.82849	-1.11951
H	8.03637	0.657879	1.1395
H	4.61226	-1.53378	0.00497257
H	4.87499	0.370788	-1.68977
