18
  This energy is -0.6802 and Call times are: 61934
C	-0.695699	-0.267187	0.854994
C	-0.907184	0.814977	0.0521431
C	0.165042	0.817248	-0.89149
C	0.937096	-0.263728	-0.581979
O	0.426226	-0.937419	0.482053
H	-1.26272	-0.662298	1.71385
H	-1.73518	1.539	0.117834
H	0.333677	1.54338	-1.7029
H	1.86197	-0.655678	-1.0361
C	5.99468	-1.13645	-0.0821399
C	4.99842	-0.487367	-0.780221
N	4.93495	0.822134	-0.437161
C	5.8882	0.984813	0.470294
N	6.55556	-0.166896	0.718839
H	6.33292	-2.18472	-0.0981347
H	4.3243	-0.940476	-1.52527
H	6.14022	1.92613	0.984726
H	7.34907	-0.296564	1.39322
