18
  This energy is -1.2566 and Call times are: 106366
C	0.978939	0.526639	-0.225235
C	-0.173726	1.20766	0.0354234
C	-1.17199	0.212623	0.266704
C	-0.541218	-0.988617	0.126961
O	0.772868	-0.815699	-0.173517
H	1.99788	0.876458	-0.45898
H	-0.30759	2.30104	0.0621488
H	-2.23372	0.381112	0.508402
H	-0.911256	-2.0233	0.21502
C	4.15512	-0.891094	0.418538
C	4.70535	0.144343	1.14398
N	5.38777	0.995576	0.340107
C	5.26138	0.490143	-0.879396
N	4.52683	-0.647395	-0.884777
H	3.54568	-1.75529	0.727221
H	4.62215	0.292442	2.23301
H	5.68654	0.912765	-1.80398
H	4.2863	-1.23228	-1.72222
