18
  This energy is -1.3945 and Call times are: 82352
C	0.699832	0.596962	-0.66353
C	1.0919	-0.54482	-0.0287121
C	-0.0498236	-0.999073	0.699471
C	-1.03879	-0.0947788	0.445352
O	-0.598482	0.886688	-0.38523
H	1.24288	1.28522	-1.33185
H	2.08542	-1.01955	-0.0691631
H	-0.117516	-1.89602	1.33586
H	-2.08433	-0.038569	0.790229
C	4.92666	1.01684	-0.56665
C	5.83795	0.0340289	-0.890367
N	5.76683	-1.00359	-0.0215742
C	4.81505	-0.665777	0.83785
N	4.27763	0.543768	0.551895
H	4.70161	1.98704	-1.0374
H	6.54548	0.0550498	-1.73524
H	4.4719	-1.26712	1.6951
H	3.51234	1.02878	1.08138
