18
  This energy is -0.9814 and Call times are: 100510
C	-0.908765	-0.413191	-0.53835
C	0.122759	0.185395	-1.20019
C	1.06302	0.567292	-0.195105
C	0.523067	0.168364	0.992197
O	-0.681013	-0.432283	0.801343
H	-1.84879	-0.86035	-0.90118
H	0.212529	0.342275	-2.28712
H	2.02675	1.07914	-0.347823
H	0.891313	0.252576	2.02784
C	5.82397	-0.797298	-0.600054
C	4.92859	-1.04362	0.419137
N	4.38932	0.109063	0.885003
C	4.94804	1.06683	0.157587
N	5.82044	0.571333	-0.751798
H	6.44278	-1.47644	-1.20783
H	4.66202	-2.03241	0.826675
H	4.75417	2.14769	0.249273
H	6.38633	1.12437	-1.44113
