18
  This energy is -1.1864 and Call times are: 129009
C	0.70346	0.564455	0.687703
C	-0.652517	0.620887	0.823777
C	-1.18411	-0.208527	-0.210436
C	-0.106058	-0.698584	-0.887205
O	1.05481	-0.236827	-0.352253
H	1.5161	1.04206	1.25933
H	-1.22134	1.18954	1.57689
H	-2.24705	-0.410811	-0.418621
H	-0.0330755	-1.37503	-1.75458
C	4.44799	-0.31778	0.614635
C	4.56715	-0.265056	-0.758014
N	5.8057	0.144054	-1.1256
C	6.45245	0.344368	0.0146729
N	5.67674	0.0796708	1.09254
H	3.6039	-0.600572	1.26355
H	3.78163	-0.514881	-1.48972
H	7.4954	0.684745	0.117709
H	5.95779	0.161601	2.10029
