18
  This energy is -1.0088 and Call times are: 16957
C	-0.774268	-0.786057	-0.262725
C	0.05071	-0.232405	-1.19721
C	0.870776	0.700078	-0.491456
C	0.474536	0.633936	0.811998
O	-0.529227	-0.268594	0.969832
H	-1.56696	-1.54754	-0.34658
H	0.0789352	-0.458021	-2.27535
H	1.66125	1.3412	-0.91361
H	0.822885	1.16991	1.71013
C	5.94417	-0.723618	-0.66822
C	6.26321	0.566274	-0.30007
N	5.29189	1.10779	0.474406
C	4.37376	0.157451	0.586295
N	4.72064	-0.966285	-0.0848863
H	6.48324	-1.46142	-1.28351
H	7.17685	1.11589	-0.579403
H	3.42858	0.23157	1.14787
H	4.16365	-1.85339	-0.148737
