18
  This energy is -0.998 and Call times are: 98062
C	0.242583	-0.0233304	-1.1077
C	-0.360227	1.04669	-0.514362
C	-0.495948	0.703492	0.865461
C	0.0359062	-0.545952	0.993503
O	0.491719	-1.00516	-0.201643
H	0.543428	-0.206538	-2.1523
H	-0.677489	1.98366	-0.999664
H	-0.939361	1.32147	1.6627
H	0.14791	-1.20668	1.8688
C	5.73317	-0.0823855	0.988634
C	6.14388	0.450019	-0.215114
N	5.15676	0.383114	-1.14119
C	4.13754	-0.188622	-0.514345
N	4.43525	-0.488268	0.77219
H	6.25526	-0.197319	1.95184
H	7.13478	0.881221	-0.431983
H	3.1503	-0.4112	-0.950288
H	3.79864	-0.943119	1.47155
