18
  This energy is -0.5947 and Call times are: 135890
C	1.07549	-0.221748	-0.283821
C	0.0358348	-1.00387	-0.693437
C	-1.14068	-0.410519	-0.142188
C	-0.716115	0.681807	0.555625
O	0.634533	0.81231	0.479916
H	2.16037	-0.293531	-0.465855
H	0.0918143	-1.90793	-1.32084
H	-2.17826	-0.763072	-0.257204
H	-1.26824	1.43561	1.1406
C	6.63139	0.562729	-0.448267
C	5.63363	1.10595	0.333097
N	4.71573	0.169229	0.674456
C	5.14243	-0.950846	0.107019
N	6.29377	-0.765624	-0.581231
H	7.52788	1.01243	-0.903904
H	5.55962	2.15699	0.656652
H	4.65006	-1.93503	0.163539
H	6.82755	-1.49496	-1.11453
