18
  This energy is -1.7305 and Call times are: 135826
C	-0.156272	1.09722	-0.241006
C	-0.631705	0.0990317	-1.03973
C	-0.24022	-1.12325	-0.412915
C	0.439884	-0.764075	0.713507
O	0.500764	0.588227	0.83428
H	-0.218407	2.1945	-0.326846
H	-1.20098	0.212098	-1.97634
H	-0.445611	-2.14628	-0.76691
H	0.922462	-1.36748	1.49981
C	4.37767	1.0804	0.375143
C	4.85719	-0.115075	0.867121
N	4.32447	-1.16713	0.199363
C	3.51753	-0.626377	-0.70344
N	3.51473	0.726129	-0.637787
H	4.58259	2.12338	0.664517
H	5.57801	-0.237333	1.69194
H	2.90518	-1.17469	-1.43734
H	2.96076	1.38026	-1.24317
