18
  This energy is -0.7853 and Call times are: 24804
C	-0.800536	0.758208	0.265827
C	0.421046	0.742707	0.87235
C	1.13918	-0.339269	0.277596
C	0.293041	-0.889434	-0.63987
O	-0.896067	-0.231703	-0.660437
H	-1.67631	1.41367	0.402345
H	0.78039	1.42477	1.6596
H	2.16602	-0.662895	0.512023
H	0.416474	-1.73944	-1.33089
C	6.50559	-0.405513	-0.6329
C	5.40474	0.276522	-1.1063
N	4.55586	0.593595	-0.0986377
C	5.12791	0.110101	0.995719
N	6.30558	-0.501459	0.726135
H	7.38774	-0.815703	-1.14971
H	5.20779	0.5455	-2.15687
H	4.72751	0.176094	2.0202
H	6.94455	-0.961127	1.42017
