18
  This energy is -1.5335 and Call times are: 121006
C	-0.449483	0.328884	0.988029
C	-1.0223	0.632312	-0.212047
C	-0.176011	0.0538121	-1.20665
C	0.83926	-0.55206	-0.526567
O	0.688216	-0.394055	0.814787
H	-0.749335	0.565922	2.02203
H	-1.94794	1.20596	-0.380031
H	-0.315023	0.0897522	-2.29912
H	1.71694	-1.11995	-0.876466
C	4.79374	-0.852996	0.750795
C	6.03361	-0.659252	0.179552
N	6.03141	0.421481	-0.638081
C	4.79488	0.896388	-0.574316
N	4.01022	0.162623	0.249994
H	4.42579	-1.61627	1.45477
H	6.92972	-1.27991	0.342722
H	4.41044	1.77875	-1.11086
H	2.99787	0.334618	0.466379
