18
  This energy is -2.2124 and Call times are: 127019
C	-0.300853	-0.727614	-0.816374
C	0.73189	-0.976056	0.0392502
C	0.799843	0.154953	0.908917
C	-0.197374	0.994695	0.507962
O	-0.879704	0.471575	-0.544551
H	-0.71743	-1.31649	-1.65001
H	1.38075	-1.86644	0.0562762
H	1.51186	0.315829	1.73429
H	-0.519402	1.97951	0.884386
C	6.39205	0.431841	-1.08947
C	7.54067	0.384424	-0.328179
N	7.30262	-0.179607	0.880833
C	6.01123	-0.480953	0.869619
N	5.41774	-0.13204	-0.296411
H	6.20527	0.814193	-2.10557
H	8.53689	0.747087	-0.629619
H	5.44934	-0.958023	1.68871
H	4.40782	-0.265618	-0.548333
