18
  This energy is -1.0329 and Call times are: 48480
C	-0.12095	1.09114	-0.284944
C	1.08912	0.549898	0.0362434
C	0.836633	-0.824505	0.331853
C	-0.505442	-1.00182	0.165213
O	-1.106	0.157712	-0.211405
H	-0.409593	2.11352	-0.579348
H	2.06194	1.06666	0.0623789
H	1.57476	-1.58524	0.632755
H	-1.1454	-1.89178	0.28212
C	5.31336	0.724697	0.908335
C	4.71353	-0.497048	0.687671
N	5.16415	-1.06273	-0.458391
C	6.04019	-0.195224	-0.946855
N	6.16565	0.898981	-0.159094
H	5.19788	1.45798	1.72227
H	3.96369	-0.980488	1.33488
H	6.61807	-0.311439	-1.87786
H	6.79271	1.72309	-0.329076
