18
  This energy is -0.8417 and Call times are: 118744
C	1.13169	0.0445513	0.0607471
C	0.326466	0.648979	0.980884
C	-1.01318	0.372319	0.569863
C	-0.908325	-0.376749	-0.56516
O	0.39439	-0.586552	-0.890624
H	2.22925	-0.00921129	-0.0271908
H	0.644005	1.23124	1.86079
H	-1.94082	0.697431	1.06772
H	-1.67475	-0.815458	-1.22499
C	5.38312	0.45555	-1.07884
C	4.92426	-0.769746	-0.643817
N	5.23421	-0.972858	0.659713
C	5.88287	0.122267	1.03195
N	5.9985	1.01375	0.0192892
H	5.31747	0.953187	-2.05945
H	4.37512	-1.51087	-1.24716
H	6.29463	0.323223	2.0341
H	6.46757	1.9515	0.0624551
