18
  This energy is -0.9597 and Call times are: 34894
C	-0.158173	1.11239	-0.154802
C	-0.939839	0.172352	-0.75953
C	-0.437831	-1.09215	-0.32464
C	0.606289	-0.813208	0.507451
O	0.791223	0.528261	0.622661
H	-0.175264	2.21388	-0.195961
H	-1.78514	0.351426	-1.44326
H	-0.816521	-2.08843	-0.604146
H	1.28769	-1.47116	1.0714
C	5.12342	-0.686698	0.947791
C	4.19227	0.313927	0.766492
N	4.33704	0.902321	-0.445674
C	5.35413	0.269127	-1.01421
N	5.8625	-0.697756	-0.214029
H	5.30631	-1.36893	1.79316
H	3.4186	0.621853	1.48861
H	5.7676	0.473357	-2.01499
H	6.66648	-1.33451	-0.436321
