18
  This energy is -1.2514 and Call times are: 110129
C	-0.703779	-0.7533	0.472901
C	-0.00253161	-1.02329	-0.665401
C	0.759992	0.152143	-0.942949
C	0.457399	1.03666	0.0502484
O	-0.435024	0.500317	0.923707
H	-1.41689	-1.36102	1.05377
H	-0.0204283	-1.95656	-1.25088
H	1.45085	0.311434	-1.78641
H	0.805263	2.06444	0.244933
C	5.74305	0.0165423	-0.703904
C	5.42388	0.935088	0.273618
N	4.26405	0.606596	0.892818
C	3.86522	-0.511486	0.301679
N	4.72319	-0.90801	-0.667976
H	6.59532	-0.0426527	-1.39937
H	6.0097	1.82895	0.543199
H	2.9526	-1.08124	0.539893
H	4.62938	-1.75783	-1.27647
