18
  This energy is -1.6342 and Call times are: 32212
C	0.940034	-0.194121	-0.604196
C	0.275334	-1.18801	0.0521075
C	-0.838896	-0.55974	0.687629
C	-0.756724	0.762612	0.363582
O	0.323664	1.00377	-0.424846
H	1.85108	-0.209825	-1.22468
H	0.54282	-2.25639	0.0853624
H	-1.60708	-1.04415	1.3116
H	-1.39602	1.62108	0.627363
C	6.26258	-1.15626	0.171079
C	7.33813	-0.529552	-0.421851
N	7.16402	0.814014	-0.453855
C	5.98493	1.02003	0.11705
N	5.40161	-0.136756	0.510975
H	6.05583	-2.22011	0.368616
H	8.23665	-1.02277	-0.827126
H	5.50131	1.99795	0.272077
H	4.47083	-0.237766	0.985003
