18
  This energy is -1.3874 and Call times are: 37982
C	-0.610991	-0.566961	0.769185
C	-0.914907	-0.582057	-0.560394
C	0.0683663	0.2364	-1.19555
C	0.886346	0.679393	-0.198029
O	0.486185	0.198518	1.00847
H	-1.09095	-1.05302	1.63442
H	-1.74794	-1.11598	-1.04525
H	0.149282	0.463226	-2.27077
H	1.77451	1.33213	-0.216546
C	4.89238	0.979983	0.426947
C	4.57505	-0.161574	1.13214
N	4.01973	-1.09678	0.323727
C	3.99266	-0.537519	-0.878406
N	4.50774	0.714753	-0.868386
H	5.34946	1.93061	0.744625
H	4.73685	-0.327153	2.20975
H	3.60645	-1.0006	-1.8007
H	4.59706	1.36058	-1.69069
