18
  This energy is -1.1307 and Call times are: 103693
C	0.553035	0.169653	-0.975587
C	-0.807034	0.0892644	-0.911381
C	-1.12145	-0.125757	0.465219
C	0.0742437	-0.157783	1.12071
O	1.10757	0.0209588	0.25624
H	1.23673	0.328042	-1.82572
H	-1.5176	0.172983	-1.74935
H	-2.12425	-0.2419	0.906791
H	0.320465	-0.298575	2.18598
C	4.52272	-0.178904	0.63088
C	4.65213	-0.271859	-0.738703
N	5.92119	-0.000645738	-1.12912
C	6.57659	0.259573	-0.0060172
N	5.77713	0.165171	1.08281
H	3.65566	-0.328271	1.29379
H	3.85253	-0.529761	-1.45213
H	7.64298	0.524682	0.0761667
H	6.05915	0.323852	2.08109
