18
  This energy is -0.6866 and Call times are: 135794
C	1.02628	-0.0153592	-0.482606
C	0.165989	-1.07082	-0.561864
C	-1.00309	-0.677256	0.158197
C	-0.753999	0.583956	0.613907
O	0.480762	1.00395	0.231834
H	2.04144	0.132302	-0.886229
H	0.337452	-2.03026	-1.07583
H	-1.91827	-1.27089	0.313523
H	-1.3655	1.27922	1.21218
C	6.71275	0.267999	-0.536292
C	5.6658	-0.459741	-1.06111
N	4.65506	-0.57693	-0.166022
C	5.07338	0.0756268	0.909988
N	6.30839	0.603159	0.736637
H	7.68451	0.561311	-0.964293
H	5.62163	-0.90234	-2.06957
H	4.51526	0.197984	1.8522
H	6.85395	1.16117	1.43824
