18
  This energy is -1.3942 and Call times are: 43622
C	-0.856744	-0.224492	0.708515
C	0.113123	-1.13973	0.422031
C	1.00048	-0.495587	-0.493286
C	0.494523	0.756412	-0.685338
O	-0.639561	0.939194	0.0409231
H	-1.74257	-0.278346	1.36248
H	0.195419	-2.16554	0.815768
H	1.90756	-0.922677	-0.95033
H	0.843365	1.59882	-1.30495
C	4.38312	0.799718	0.803201
C	4.23389	0.896091	-0.564127
N	4.70913	-0.209842	-1.18668
C	5.15151	-0.989341	-0.20928
N	4.97744	-0.425222	1.00935
H	4.11732	1.49301	1.61698
H	3.79182	1.7438	-1.11259
H	5.61184	-1.98318	-0.330154
H	5.24435	-0.841635	1.93488
