18
  This energy is -1.4458 and Call times are: 83827
C	0.598936	-0.773603	-0.573772
C	-0.428375	-1.11383	0.256439
C	-0.925754	0.115444	0.787109
C	-0.158478	1.09835	0.234336
O	0.777703	0.573394	-0.59933
H	1.27145	-1.3881	-1.19456
H	-0.798759	-2.12865	0.473385
H	-1.75845	0.243235	1.49731
H	-0.178023	2.19427	0.351923
C	4.31855	0.990905	-0.634709
C	5.05082	-0.154154	-0.866597
N	4.78174	-1.10285	0.0629609
C	3.88595	-0.548449	0.868458
N	3.57392	0.713673	0.489945
H	4.27607	1.95139	-1.17248
H	5.76848	-0.312764	-1.68797
H	3.42547	-1.02222	1.75035
H	2.89424	1.35823	0.963062
