18
  This energy is -1.3157 and Call times are: 16828
C	-0.0808354	1.12017	0.158414
C	-1.07671	0.258501	0.513577
C	-0.610217	-1.04474	0.161357
C	0.629543	-0.864424	-0.37795
O	0.968836	0.451554	-0.387628
H	0.00134439	2.2164	0.240727
H	-2.04289	0.514909	0.977093
H	-1.1428	-1.99969	0.297486
H	1.3608	-1.58153	-0.785717
C	4.0796	-0.56997	1.00581
C	4.40554	-1.13281	-0.209971
N	4.59279	-0.179825	-1.1551
C	4.38382	0.969847	-0.528037
N	4.07136	0.787866	0.776893
H	3.86025	-1.02444	1.98503
H	4.50894	-2.20945	-0.422117
H	4.4465	1.97426	-0.976875
H	3.8626	1.53818	1.48025
