18
  This energy is -1.2568 and Call times are: 110097
C	0.0239134	0.785893	-0.817436
C	-1.13711	0.381274	-0.22694
C	-0.762715	-0.603435	0.737578
C	0.594044	-0.713631	0.65134
O	1.09111	0.127591	-0.293269
H	0.221496	1.52452	-1.61157
H	-2.15506	0.740225	-0.448357
H	-1.43267	-1.15977	1.41267
H	1.31256	-1.34513	1.19924
C	6.12374	-0.85722	-0.774731
C	5.67236	0.414971	-1.05568
N	5.52245	1.14178	0.0782472
C	5.87947	0.323589	1.05892
N	6.25033	-0.893676	0.595975
H	6.35608	-1.71072	-1.43131
H	5.45217	0.821437	-2.05626
H	5.88804	0.564699	2.13411
H	6.57285	-1.70974	1.17154
