18
  This energy is -0.8979 and Call times are: 137592
C	-0.484125	-0.0975111	-1.02104
C	-0.876523	-0.848106	0.0480779
C	-0.0440553	-0.444038	1.13612
C	0.783563	0.517808	0.63585
O	0.528706	0.742104	-0.68011
H	-0.841322	-0.067085	-2.0635
H	-1.67235	-1.6099	0.0684661
H	-0.0661142	-0.830255	2.16784
H	1.58466	1.11046	1.10729
C	4.47453	0.91827	0.124784
C	5.57941	0.625794	0.896055
N	6.1851	-0.509662	0.471331
C	5.45874	-0.920032	-0.559506
N	4.416	-0.0927485	-0.808277
H	3.74995	1.74668	0.172289
H	5.95038	1.21373	1.75137
H	5.64588	-1.81964	-1.16771
H	3.69947	-0.200895	-1.56732
