18
  This energy is -1.1988 and Call times are: 119192
C	-1.11979	0.149591	0.10045
C	-0.2372	1.18855	0.144806
C	1.05814	0.608282	-0.0148741
C	0.852764	-0.734048	-0.142713
O	-0.471482	-1.03196	-0.074623
H	-2.21889	0.120067	0.180213
H	-0.474522	2.25643	0.276738
H	2.02483	1.13681	-0.0313646
H	1.556	-1.57096	-0.28513
C	4.75167	-0.516657	1.02786
C	4.69045	0.831028	0.743003
N	5.0443	1.07538	-0.542141
C	5.32398	-0.116184	-1.05261
N	5.16274	-1.10856	-0.145538
H	4.5389	-1.07768	1.95172
H	4.3973	1.63144	1.44176
H	5.65133	-0.318947	-2.08506
H	5.32077	-2.13358	-0.305622
