18
  This energy is -1.2548 and Call times are: 70881
C	0.830145	0.182203	-0.751041
C	1.00767	-0.58615	0.361836
C	-0.245429	-0.577	1.04725
C	-1.07808	0.196136	0.292708
O	-0.437768	0.66802	-0.809263
H	1.51815	0.456274	-1.56761
H	1.92864	-1.1071	0.669246
H	-0.489193	-1.08945	1.99174
H	-2.13363	0.482937	0.429817
C	5.97179	-0.506721	-0.951706
C	6.62408	-0.169141	0.215212
N	5.7731	0.398681	1.10399
C	4.59735	0.413306	0.490776
N	4.66497	-0.121672	-0.751326
H	6.33301	-0.977991	-1.87958
H	7.69349	-0.325122	0.431756
H	3.65427	0.804161	0.905563
H	3.87282	-0.223696	-1.43202
