18
  This energy is -1.3626 and Call times are: 93686
C	0.472826	0.0227832	-1.03069
C	0.829559	-0.891489	-0.0834697
C	0.0258518	-0.602332	1.06133
C	-0.751066	0.463113	0.712619
O	-0.491279	0.857931	-0.561603
H	0.825726	0.181778	-2.06289
H	1.58308	-1.68947	-0.18112
H	0.0323292	-1.13154	2.02776
H	-1.51645	1.02444	1.27329
C	5.68844	-0.755906	0.758369
C	6.33964	0.199149	0.00673309
N	5.46666	0.895665	-0.760918
C	4.27841	0.374691	-0.486556
N	4.35916	-0.624432	0.423842
H	6.06436	-1.49515	1.48345
H	7.42373	0.398118	0.00458322
H	3.31649	0.687236	-0.923871
H	3.56119	-1.19098	0.802684
