18
  This energy is -1.0931 and Call times are: 13183
C	-0.248783	0.625448	0.912865
C	0.705095	-0.349272	0.933133
C	0.726129	-0.903188	-0.383245
C	-0.216752	-0.21806	-1.09173
O	-0.82198	0.719313	-0.315812
H	-0.608485	1.31278	1.69609
H	1.33111	-0.648218	1.78919
H	1.37169	-1.717	-0.750751
H	-0.547189	-0.30145	-2.14011
C	4.57733	-0.550841	0.833035
C	4.53839	-0.791247	-0.524107
N	5.38745	0.0285396	-1.19011
C	5.95097	0.774681	-0.24972
N	5.49566	0.463623	0.98702
H	4.03462	-1.01441	1.67215
H	3.91288	-1.54153	-1.03465
H	6.70316	1.5635	-0.411618
H	5.78675	0.910164	1.89097
