18
  This energy is -0.9343 and Call times are: 47962
C	0.0527624	0.751446	-0.847907
C	-0.667008	0.980921	0.287719
C	-0.489315	-0.177591	1.10405
C	0.323355	-1.01275	0.395206
O	0.664099	-0.461369	-0.799319
H	0.207931	1.36374	-1.75138
H	-1.26326	1.8762	0.526593
H	-0.920402	-0.359144	2.10169
H	0.725767	-2.01241	0.62757
C	5.80212	0.489562	0.575842
C	5.32195	0.846333	-0.666452
N	4.27076	0.0700262	-1.02542
C	4.09945	-0.765168	-0.0096749
N	4.99807	-0.552449	0.980691
H	6.63144	0.890081	1.18029
H	5.71517	1.64998	-1.31018
H	3.33121	-1.55199	0.0606613
H	5.06881	-1.08066	1.88471
