18
  This energy is -0.9398 and Call times are: 39316
C	-0.743484	0.787926	0.335865
C	-0.0908814	0.861859	-0.859551
C	0.745712	-0.29422	-0.920455
C	0.530487	-0.972562	0.243119
O	-0.376082	-0.326006	1.02229
H	-1.48338	1.45535	0.807396
H	-0.188791	1.6513	-1.62197
H	1.42541	-0.579343	-1.73949
H	0.954625	-1.91371	0.629909
C	4.30152	0.406571	-0.114579
C	5.01011	-0.334151	-1.03673
N	6.24879	-0.633075	-0.5754
C	6.30841	-0.0799009	0.628372
N	5.15901	0.558599	0.952085
H	3.28175	0.822396	-0.141033
H	4.64978	-0.658242	-2.02667
H	7.16963	-0.111967	1.31504
H	4.95915	1.07169	1.84542
