18
  This energy is -0.9661 and Call times are: 59811
C	0.893361	-0.653719	0.246896
C	0.809826	0.648878	0.642672
C	-0.44204	1.12792	0.149252
C	-1.01299	0.0757772	-0.504486
O	-0.211227	-1.02045	-0.454817
H	1.67561	-1.41538	0.399235
H	1.55501	1.21555	1.22378
H	-0.860459	2.13986	0.271731
H	-1.97259	-0.0193383	-1.03869
C	4.71132	-0.189897	-0.747855
C	4.74419	0.725266	0.282942
N	5.92647	0.675091	0.943392
C	6.62441	-0.267613	0.324674
N	5.93521	-0.819331	-0.702069
H	3.92968	-0.429783	-1.48612
H	3.936	1.42085	0.561934
H	7.64494	-0.593694	0.582411
H	6.26949	-1.58139	-1.34144
