18
  This energy is -1.7025 and Call times are: 95162
C	0.185777	0.39755	1.04587
C	-0.111708	-0.911441	0.804167
C	-0.273435	-1.02084	-0.610752
C	-0.0605015	0.230963	-1.10878
O	0.221195	1.10974	-0.111083
H	0.391149	0.939529	1.9836
H	-0.207638	-1.71897	1.54767
H	-0.519689	-1.93004	-1.18241
H	-0.0801567	0.620731	-2.13977
C	5.99839	-0.710696	-0.794739
C	5.97252	-0.887408	0.572466
N	5.31194	0.125782	1.1837
C	4.92947	0.927997	0.199425
N	5.31931	0.467232	-1.01273
H	6.43735	-1.31951	-1.60109
H	6.41865	-1.72782	1.12881
H	4.36159	1.86577	0.310467
H	5.13867	0.920871	-1.94162
