18
  This energy is -1.3588 and Call times are: 74649
C	0.401077	0.401707	-0.981921
C	-0.792958	0.805487	-0.460755
C	-0.947877	0.0872182	0.764075
C	0.165166	-0.692078	0.88326
O	0.999796	-0.512698	-0.174202
H	0.928571	0.686176	-1.90717
H	-1.49429	1.53586	-0.895248
H	-1.7932	0.149968	1.46805
H	0.477105	-1.40701	1.66224
C	4.3515	-0.872691	-0.450507
C	5.6791	-0.932955	-0.083076
N	6.10717	0.258919	0.399312
C	5.04917	1.05556	0.3314
N	3.96566	0.41997	-0.174202
H	3.67652	-1.63285	-0.874896
H	6.33574	-1.81508	-0.157404
H	5.01276	2.11318	0.638568
H	3.01315	0.833168	-0.326676
