18
  This energy is -1.2072 and Call times are: 117775
C	0.412763	0.510188	-0.92506
C	0.497503	-0.837819	-0.735144
C	-0.124316	-1.09503	0.524738
C	-0.534149	0.11851	0.993499
O	-0.214329	1.11007	0.120841
H	0.755387	1.15514	-1.75083
H	0.952272	-1.57691	-1.41414
H	-0.247523	-2.07319	1.01679
H	-1.05673	0.405581	1.92073
C	5.2168	1.049	-0.333109
C	4.0565	0.443763	-0.767306
N	3.88374	-0.762945	-0.175254
C	4.93289	-0.905768	0.623199
N	5.76601	0.160044	0.563719
H	5.67525	2.01711	-0.590274
H	3.3409	0.856172	-1.49716
H	5.14026	-1.771	1.27328
H	6.66	0.285337	1.09883
