18
  This energy is -1.3 and Call times are: 55176
C	1.01236	0.0881672	0.503743
C	0.872583	-0.33162	-0.786457
C	-0.530154	-0.310302	-1.05477
C	-1.12374	0.120631	0.0951541
O	-0.196664	0.368668	1.05745
H	1.90568	0.228104	1.13433
H	1.67662	-0.626687	-1.47968
H	-1.02995	-0.585554	-1.99739
H	-2.18219	0.29023	0.35241
C	5.46061	-0.899716	0.511192
C	5.00275	-0.840772	-0.788052
N	4.40267	0.347641	-1.04122
C	4.48794	1.02339	0.0966405
N	5.11739	0.314191	1.0633
H	5.98877	-1.69313	1.06354
H	5.09465	-1.63446	-1.54731
H	4.10608	2.04121	0.276775
H	5.30771	0.629064	2.04609
