18
  This energy is -1.2622 and Call times are: 124445
C	-0.771177	0.19265	-0.809057
C	0.160479	1.12254	-0.451708
C	0.93856	0.518908	0.582863
C	0.413691	-0.726565	0.766396
O	-0.631199	-0.942715	-0.0753245
H	-1.57747	0.216844	-1.56043
H	0.287091	2.13225	-0.874259
H	1.78839	0.967547	1.12194
H	0.690023	-1.54227	1.45453
C	5.49167	0.389336	0.778957
C	4.5014	-0.54391	1.0016
N	3.76861	-0.755497	-0.11856
C	4.30224	0.0434478	-1.03264
N	5.34419	0.754607	-0.540519
H	6.26508	0.805499	1.44392
H	4.30255	-1.06836	1.95042
H	3.96894	0.146914	-2.07784
H	5.92839	1.45147	-1.06431
