18
  This energy is -1.0519 and Call times are: 20868
C	0.968542	0.527049	-0.265604
C	-0.148098	0.61499	-1.04391
C	-1.14413	-0.171868	-0.389004
C	-0.548219	-0.671184	0.731688
O	0.74215	-0.254494	0.822949
H	1.97304	0.96763	-0.375746
H	-0.259237	1.17753	-1.98481
H	-2.18107	-0.340711	-0.721178
H	-0.929601	-1.32544	1.53278
C	5.54902	-1.03443	0.55897
C	6.67558	-0.274303	0.326134
N	6.36839	0.861191	-0.346769
C	5.05625	0.805703	-0.530685
N	4.51583	-0.318026	-0.00269532
H	5.41395	-2.00219	1.06764
H	7.70454	-0.524854	0.631626
H	4.44089	1.56107	-1.04546
H	3.50279	-0.591449	-0.018232
