18
  This energy is -0.9925 and Call times are: 35838
C	0.544525	0.461154	-0.881607
C	-0.316144	1.17469	-0.100266
C	-0.794147	0.262123	0.889107
C	-0.18338	-0.928506	0.62502
O	0.637662	-0.825187	-0.453047
H	1.14476	0.74961	-1.7601
H	-0.587216	2.23707	-0.20965
H	-1.50952	0.476281	1.69934
H	-0.248234	-1.90979	1.12314
C	4.14522	0.432785	0.291928
C	5.31447	1.14437	0.125674
N	6.34087	0.32599	-0.210868
C	5.81039	-0.888678	-0.253234
N	4.48901	-0.877076	0.042401
H	3.12679	0.755067	0.561167
H	5.43586	2.23362	0.242526
H	6.34443	-1.82164	-0.495324
H	3.84844	-1.70765	0.0752688
