18
  This energy is -1.7235 and Call times are: 41418
C	0.51092	-0.115765	1.00596
C	-0.186168	1.0061	0.665577
C	-0.673554	0.777224	-0.65737
C	-0.231277	-0.464299	-1.00863
O	0.493755	-1.0242	-0.00471328
H	1.05727	-0.386496	1.92436
H	-0.341567	1.90467	1.28406
H	-1.28198	1.46306	-1.26856
H	-0.363073	-1.05349	-1.93098
C	3.92732	-0.993293	0.265516
C	4.95974	-0.849328	-0.636996
N	5.38444	0.436383	-0.692574
C	4.6184	1.08756	0.172168
N	3.72391	0.269471	0.775651
H	3.34248	-1.87555	0.570673
H	5.40579	-1.65013	-1.24904
H	4.67012	2.16397	0.402154
H	3.01121	0.544688	1.49508
