18
  This energy is -1.1195 and Call times are: 42721
C	0.206829	1.01369	0.464813
C	1.13299	0.0124554	0.453936
C	0.510338	-1.08895	-0.208876
C	-0.741357	-0.663539	-0.544524
O	-0.943797	0.618253	-0.140743
H	0.243803	2.03949	0.866848
H	2.15238	0.0461219	0.87084
H	0.950972	-2.07903	-0.408052
H	-1.57075	-1.17024	-1.06473
C	5.21503	-0.0695086	1.17177
C	5.94024	0.853171	0.44797
N	5.81251	0.638843	-0.884044
C	5.01112	-0.412802	-0.986201
N	4.62365	-0.876485	0.225597
H	5.08237	-0.204467	2.257
H	6.55334	1.66969	0.863011
H	4.67604	-0.884304	-1.92409
H	3.9929	-1.69481	0.409356
