18
  This energy is -1.0665 and Call times are: 25664
C	0.860982	-0.413924	0.611374
C	0.869553	0.850692	0.100446
C	-0.368297	0.99919	-0.596544
C	-1.02403	-0.187789	-0.450008
O	-0.287881	-1.06242	0.284919
H	1.6013	-0.963242	1.21588
H	1.66751	1.60345	0.203989
H	-0.72091	1.88997	-1.14085
H	-2.00605	-0.530487	-0.815295
C	4.66431	0.322046	0.637072
C	4.66052	-0.150881	-0.6581
N	5.91816	-0.425605	-1.08165
C	6.69918	-0.124256	-0.053142
N	5.99061	0.330819	1.00725
H	3.8444	0.642291	1.29944
H	3.77287	-0.298788	-1.29453
H	7.7967	-0.217844	-0.0227928
H	6.37781	0.632798	1.93469
