18
  This energy is -1.0835 and Call times are: 95002
C	-0.837803	-0.712508	0.277162
C	-0.709423	-0.187964	-0.975334
C	0.446975	0.649281	-0.931953
C	0.92317	0.562455	0.343223
O	0.150729	-0.264943	1.09539
H	-1.57903	-1.4062	0.706829
H	-1.36344	-0.372141	-1.84276
H	0.86782	1.24332	-1.75906
H	1.79095	1.0337	0.833252
C	4.8352	-0.853194	-0.809885
C	4.26447	-0.924793	0.443227
N	4.40752	0.244682	1.11284
C	5.06448	1.03877	0.278307
N	5.34537	0.423029	-0.894531
H	4.91184	-1.59535	-1.62036
H	3.75205	-1.79934	0.876174
H	5.36525	2.08036	0.475441
H	5.85475	0.838635	-1.7125
