18
  This energy is -1.0011 and Call times are: 64386
C	0.836224	-0.347334	-0.683
C	-0.390913	-0.942595	-0.669769
C	-1.15827	-0.234906	0.305142
C	-0.332319	0.730341	0.801603
O	0.889727	0.676262	0.209412
H	1.74359	-0.555779	-1.27333
H	-0.722474	-1.79457	-1.28483
H	-2.20309	-0.429088	0.596252
H	-0.492662	1.50658	1.56776
C	4.73365	-1.12024	-0.320123
C	5.33077	-0.670664	0.83853
N	5.35502	0.6836	0.882023
C	4.77516	1.07269	-0.24536
N	4.38296	0.022131	-1.00437
H	4.53992	-2.1383	-0.693699
H	5.74451	-1.29921	1.64388
H	4.61209	2.11458	-0.564905
H	3.90315	0.0689192	-1.93649
