18
  This energy is -0.8381 and Call times are: 111607
C	-0.557603	0.867308	-0.4725
C	-0.18693	0.86553	0.840121
C	0.482312	-0.37775	1.05573
C	0.461524	-1.02597	-0.144166
O	-0.169643	-0.280142	-1.08883
H	-1.09441	1.61466	-1.07959
H	-0.366742	1.66003	1.58211
H	0.924555	-0.738875	1.99812
H	0.855899	-2.00852	-0.451257
C	6.43541	-0.176504	0.254516
C	5.81799	1.03425	0.0221427
N	4.49932	0.867533	-0.242118
C	4.29944	-0.441675	-0.173945
N	5.43627	-1.11487	0.122739
H	7.48024	-0.428366	0.496265
H	6.30038	2.02512	0.0404318
H	3.34037	-0.96055	-0.332625
H	5.53731	-2.15371	0.231633
