18
  This energy is -1.1483 and Call times are: 120581
C	-0.973267	0.579328	0.0594165
C	-0.753941	-0.556348	0.782265
C	0.564728	-0.98746	0.442599
C	1.03481	-0.0771728	-0.457829
O	0.108669	0.886639	-0.703463
H	-1.84505	1.25147	0.00040699
H	-1.45084	-1.04179	1.48424
H	1.09352	-1.87362	0.828857
H	1.99783	-0.00488432	-0.989451
C	4.95133	0.385323	-0.967256
C	6.11005	0.890434	-0.416464
N	6.4604	0.204628	0.698633
C	5.52258	-0.722412	0.839084
N	4.59006	-0.654881	-0.140425
H	4.37741	0.682567	-1.85933
H	6.69955	1.73743	-0.803698
H	5.47051	-1.4761	1.64125
H	3.7516	-1.27649	-0.249269
