18
  This energy is -0.6746 and Call times are: 92444
C	0.648132	0.461017	0.808572
C	-0.712155	0.418083	0.898849
C	-1.16288	-0.228	-0.292595
C	-0.0382375	-0.522845	-1.00577
O	1.07687	-0.109169	-0.348183
H	1.41377	0.864668	1.49129
H	-1.33562	0.802789	1.72188
H	-2.2053	-0.443824	-0.577001
H	0.100265	-1.01815	-1.98083
C	4.83913	0.0854331	0.173716
C	5.71358	1.11678	-0.0961116
N	6.98072	0.658176	-0.239392
C	6.89272	-0.652697	-0.0591372
N	5.6221	-1.04717	0.192894
H	3.75137	0.0775763	0.347642
H	5.45287	2.18359	-0.189972
H	7.72758	-1.37068	-0.100798
H	5.29561	-2.02877	0.369299
