18
  This energy is -1.1562 and Call times are: 31111
C	-1.01182	0.505088	0.0866778
C	0.15107	1.21118	-0.0108318
C	1.19288	0.238222	-0.100822
C	0.574668	-0.976535	-0.05036
O	-0.771859	-0.832418	0.0641246
H	-2.06064	0.832523	0.176204
H	0.26391	2.30722	-0.018608
H	2.27408	0.429907	-0.192243
H	0.97543	-2.00287	-0.0860463
C	4.99025	-0.550202	1.03457
C	5.52017	0.703885	0.816386
N	5.49083	1.02449	-0.499997
C	4.94479	-0.0267077	-1.0962
N	4.62549	-1.00286	-0.213726
H	4.85154	-1.13312	1.95896
H	5.92314	1.38311	1.58523
H	4.75573	-0.134123	-2.17645
H	4.18415	-1.92822	-0.437754
