18
  This energy is -1.6409 and Call times are: 49232
C	-0.292333	-0.912382	-0.607043
C	0.498183	-0.995147	0.501383
C	0.639183	0.342538	0.981836
C	-0.0776184	1.12466	0.124595
O	-0.653212	0.374806	-0.851841
H	-0.664646	-1.68567	-1.2989
H	0.937903	-1.90674	0.936979
H	1.20996	0.674316	1.86401
H	-0.253745	2.21263	0.101242
C	4.57404	-0.921469	-0.629352
C	4.00091	0.234631	-1.11525
N	3.68979	1.08641	-0.10819
C	4.06846	0.461116	0.998259
N	4.60763	-0.753215	0.736939
H	4.9479	-1.82197	-1.14205
H	3.80632	0.4694	-2.17444
H	3.97406	0.846992	2.02608
H	4.98025	-1.43638	1.44099
