18
  This energy is -0.8739 and Call times are: 82128
C	-0.599956	-0.456603	-0.84733
C	0.758273	-0.559129	-0.77607
C	1.14063	0.131828	0.414098
C	-0.0177012	0.595592	0.965069
O	-1.09058	0.245407	0.207888
H	-1.32379	-0.83428	-1.58806
H	1.42412	-1.07007	-1.49
H	2.16187	0.26313	0.806425
H	-0.209523	1.17931	1.88034
C	8.22318	0.307217	0.493772
C	7.18948	1.14836	0.140117
N	6.16031	0.455384	-0.404958
C	6.55405	-0.810852	-0.389511
N	7.79108	-0.952264	0.142797
H	9.20303	0.509034	0.954981
H	7.16783	2.24285	0.268494
H	5.97578	-1.67447	-0.755577
H	8.3202	-1.85025	0.264885
