18
  This energy is -1.4766 and Call times are: 23014
C	0.070124	0.0914403	1.12833
C	-0.607142	0.994738	0.362992
C	-0.469311	0.545624	-0.985866
C	0.280015	-0.592475	-0.925724
O	0.618228	-0.88466	0.357728
H	0.233768	0.0325074	2.2169
H	-1.14939	1.88773	0.713172
H	-0.883442	1.02117	-1.88944
H	0.635438	-1.27631	-1.71395
C	4.85142	-1.15823	0.202355
C	5.87919	-0.347399	-0.230535
N	5.46744	0.937418	-0.357898
C	4.1891	0.923702	-0.00536146
N	3.77041	-0.316582	0.34103
H	4.81404	-2.23858	0.414469
H	6.91043	-0.666436	-0.453243
H	3.51308	1.7936	0.0171615
H	2.80605	-0.585771	0.655349
