18
  This energy is -0.7324 and Call times are: 32342
C	-0.467479	1.03223	0.0485394
C	-1.01702	0.0148002	-0.674794
C	-0.153108	-1.1075	-0.48979
C	0.848087	-0.676812	0.330266
O	0.672025	0.627558	0.668844
H	-0.786383	2.07647	0.200614
H	-1.93832	0.0509792	-1.27811
H	-0.27141	-2.11449	-0.92115
H	1.73123	-1.19414	0.739755
C	6.29139	0.599179	-0.481138
C	5.13909	0.181146	-1.11247
N	4.32642	-0.483995	-0.255925
C	4.97212	-0.478617	0.902381
N	6.16193	0.162373	0.818334
H	7.16523	1.15795	-0.852245
H	4.87953	0.347557	-2.17067
H	4.61917	-0.929489	1.84386
H	6.85395	0.30032	1.59508
