18
  This energy is -1.1564 and Call times are: 3979
C	0.110753	-1.06202	-0.382435
C	-0.155892	-0.780668	0.92528
C	-0.220873	0.643453	1.01345
C	0.0117981	1.10665	-0.248175
O	0.216384	0.0788058	-1.11345
H	0.246799	-2.0197	-0.9112
H	-0.293061	-1.50348	1.74554
H	-0.418442	1.24435	1.91565
H	0.057429	2.13049	-0.654267
C	3.84858	0.225982	0.0908345
C	4.63638	0.381028	-1.03009
N	5.91974	0.0258991	-0.778292
C	5.92805	-0.348038	0.494
N	4.70319	-0.245554	1.06216
H	2.77605	0.411636	0.260392
H	4.30176	0.742776	-2.016
H	6.80378	-0.705459	1.05932
H	4.45235	-0.48053	2.05368
