18
  This energy is -0.79 and Call times are: 84674
C	0.345472	0.951722	-0.51115
C	1.08864	0.325487	0.445879
C	0.331557	-0.819046	0.842094
C	-0.807421	-0.791182	0.0922099
O	-0.815647	0.28346	-0.739709
H	0.529765	1.86697	-1.09733
H	2.07138	0.638154	0.833892
H	0.610595	-1.57021	1.59839
H	-1.67653	-1.46844	0.0573256
C	5.03231	0.385955	-0.955961
C	4.97577	0.92243	0.312952
N	5.75687	0.225318	1.17343
C	6.29593	-0.739957	0.441124
N	5.8902	-0.685914	-0.849633
H	4.53922	0.681237	-1.89575
H	4.38536	1.80001	0.622995
H	6.99431	-1.51318	0.799777
H	6.17491	-1.33657	-1.6222
