18
  This energy is -1.3999 and Call times are: 27790
C	-0.218275	0.377184	1.04713
C	-1.00699	0.689512	-0.0209298
C	-0.416299	0.0386065	-1.14678
C	0.681229	-0.61402	-0.667313
O	0.817421	-0.418173	0.670636
H	-0.286062	0.65447	2.11192
H	-1.91377	1.31547	-0.0164229
H	-0.774041	0.0595514	-2.18873
H	1.43533	-1.2424	-1.16903
C	4.77038	-1.11482	-0.0713389
C	4.92783	-0.257289	0.996835
N	4.37801	0.953666	0.73645
C	3.88136	0.847782	-0.488601
N	4.09238	-0.380346	-1.01847
H	5.08242	-2.16086	-0.219575
H	5.4283	-0.490662	1.95073
H	3.35348	1.63888	-1.04514
H	3.79599	-0.710198	-1.96958
