18
  This energy is -1.2792 and Call times are: 120677
C	0.45828	0.385269	-0.963301
C	-0.74569	-0.254932	-0.932118
C	-0.979153	-0.582134	0.438485
C	0.102761	-0.112996	1.12386
O	0.990611	0.480743	0.283503
H	1.03656	0.814721	-1.79782
H	-1.40341	-0.474714	-1.78839
H	-1.85387	-1.10605	0.856182
H	0.356202	-0.138813	2.19641
C	4.23592	-1.07377	-0.480429
C	4.60378	0.112986	-1.07827
N	4.43289	1.15905	-0.233846
C	3.96081	0.623277	0.883609
N	3.82424	-0.72032	0.785187
H	4.23789	-2.11025	-0.853601
H	4.98944	0.233173	-2.10379
H	3.69835	1.16906	1.80419
H	3.47189	-1.36917	1.53091
