18
  This energy is -0.9478 and Call times are: 55252
C	-0.457357	-0.00186626	-1.03789
C	-0.518091	1.08411	-0.214885
C	0.159236	0.704512	0.983969
C	0.574082	-0.57992	0.787732
O	0.206098	-1.02724	-0.4417
H	-0.842054	-0.169018	-2.05736
H	-0.992291	2.05508	-0.430401
H	0.314607	1.32265	1.88278
H	1.13182	-1.27524	1.43635
C	6.21205	-0.576551	0.16862
C	5.99776	0.77806	0.310934
N	4.71031	1.10052	0.0370709
C	4.12812	-0.0496647	-0.273958
N	4.99177	-1.09059	-0.209344
H	7.1164	-1.19063	0.305013
H	6.74905	1.5285	0.606313
H	3.07189	-0.18647	-0.556605
H	4.7734	-2.0974	-0.409109
