18
  This energy is -1.5743 and Call times are: 39348
C	-0.173937	-1.10875	-0.163772
C	-0.513933	-0.479795	0.997776
C	-0.144788	0.888991	0.823784
C	0.3882	0.97565	-0.428728
O	0.378316	-0.235009	-1.04616
H	-0.271934	-2.15967	-0.481905
H	-0.978113	-0.934159	1.88782
H	-0.26585	1.7069	1.55211
H	0.803833	1.82926	-0.988954
C	4.42381	0.781881	0.706664
C	4.08265	0.961365	-0.61717
N	3.49307	-0.14833	-1.1246
C	3.46857	-1.01295	-0.119387
N	4.01812	-0.499385	1.0066
H	4.91036	1.45287	1.43233
H	4.25135	1.87168	-1.21526
H	3.05986	-2.03571	-0.153323
H	4.11643	-0.984762	1.9318
