18
  This energy is -1.6575 and Call times are: 48154
C	0.631557	-0.115966	0.934927
C	-0.10678	1.00363	0.686452
C	-0.752666	0.775841	-0.566968
C	-0.352004	-0.462843	-0.973791
O	0.493596	-1.02198	-0.0686218
H	1.28811	-0.386525	1.77812
H	-0.188395	1.89998	1.32205
H	-1.43463	1.46047	-1.09641
H	-0.594135	-1.05035	-1.8746
C	4.04067	-0.204362	-1.15831
C	4.3181	-1.10226	-0.149372
N	4.17099	-0.528464	1.06949
C	3.80368	0.720653	0.817662
N	3.711	0.965414	-0.510906
H	4.05406	-0.311463	-2.25461
H	4.62179	-2.15383	-0.279072
H	3.58984	1.49788	1.56894
H	3.43969	1.87331	-0.961882
