18
  This energy is -1.305 and Call times are: 103579
C	-0.979266	0.12852	0.557604
C	-0.24711	-1.02044	0.622517
C	0.89964	-0.80032	-0.200057
C	0.767017	0.46372	-0.695018
O	-0.37476	1.0457	-0.242627
H	-1.93439	0.414369	1.02801
H	-0.490188	-1.93157	1.19247
H	1.72246	-1.50685	-0.394678
H	1.40749	1.05584	-1.36914
C	4.67213	0.975651	0.645638
C	4.33146	0.810158	-0.680145
N	4.61674	-0.444687	-1.10499
C	5.13244	-1.05534	-0.0467868
N	5.1871	-0.241056	1.03374
H	4.58738	1.84417	1.31797
H	3.88493	1.57371	-1.33775
H	5.48624	-2.09821	-0.00812246
H	5.5522	-0.489279	1.98576
