18
  This energy is -0.9089 and Call times are: 107206
C	0.400108	-1.05962	-0.0593836
C	-0.305226	-0.487098	-1.07678
C	-0.630782	0.831088	-0.633479
C	-0.0956519	0.947727	0.615682
O	0.537568	-0.19756	0.982237
H	0.852269	-2.05962	0.0445551
H	-0.569725	-0.946911	-2.04255
H	-1.19788	1.59652	-1.1872
H	-0.0964694	1.78185	1.33643
C	4.74363	-1.17154	-0.103309
C	4.34242	-0.270266	-1.06657
N	4.41762	1.00227	-0.606665
C	4.86378	0.890858	0.637181
N	5.07557	-0.399812	0.987758
H	4.81406	-2.27082	-0.116585
H	4.00005	-0.515404	-2.08517
H	5.05311	1.72214	1.33529
H	5.42591	-0.746553	1.9142
