18
  This energy is -0.9006 and Call times are: 4832
C	0.296747	0.2222	1.0719
C	-0.270327	1.16125	0.261354
C	-0.49631	0.512014	-0.99066
C	-0.0473825	-0.766465	-0.834678
O	0.440294	-0.960989	0.418854
H	0.6388	0.270451	2.11876
H	-0.505862	2.20629	0.519246
H	-0.941894	0.953593	-1.89651
H	-0.0197623	-1.62157	-1.52987
C	4.16991	-0.321327	-0.0688104
C	4.96326	0.1397	-1.09798
N	6.21612	0.417427	-0.662422
C	6.20007	0.129788	0.632039
N	4.98894	-0.319442	1.03816
H	3.11563	-0.639986	-0.046557
H	4.65409	0.276908	-2.147
H	7.04751	0.229664	1.32926
H	4.72426	-0.610795	2.01094
