18
  This energy is -2.1224 and Call times are: 5860
C	-0.692723	0.713147	0.545854
C	-0.200987	0.981073	-0.697845
C	0.619431	-0.136045	-1.04292
C	0.556616	-0.98801	0.0203669
O	-0.240321	-0.485317	0.999756
H	-1.36438	1.28659	1.20562
H	-0.396389	1.87564	-1.31077
H	1.1866	-0.279836	-1.97659
H	1.02649	-1.96893	0.199997
C	3.60859	-0.0011843	0.95239
C	4.64564	-0.868571	0.681615
N	5.22821	-0.577758	-0.506891
C	4.55514	0.466071	-0.971666
N	3.56846	0.851468	-0.128148
H	2.91931	0.0673687	1.80897
H	4.98394	-1.69901	1.32253
H	4.74306	0.987189	-1.92422
H	2.90021	1.64804	-0.270205
