18
  This energy is -1.0676 and Call times are: 75194
C	-0.414265	-1.04596	0.144079
C	-0.701431	-0.0224571	0.998688
C	-0.00620097	1.11739	0.491218
C	0.644437	0.689808	-0.628702
O	0.406407	-0.62884	-0.855682
H	-0.727326	-2.10294	0.13791
H	-1.33889	-0.0657989	1.89639
H	0.00255606	2.13352	0.917229
H	1.29872	1.21881	-1.34097
C	6.89069	0.519731	0.699846
C	5.71418	-0.0859447	1.08731
N	5.0448	-0.581841	0.0184134
C	5.80316	-0.284935	-1.02818
N	6.92732	0.379317	-0.669508
H	7.67819	1.02392	1.28224
H	5.33634	-0.174003	2.11897
H	5.5826	-0.530377	-2.07953
H	7.68285	0.722062	-1.31212
