18
  This energy is -1.2052 and Call times are: 107745
C	-1.08998	-0.0284682	-0.312293
C	-0.0732056	-0.282717	-1.18516
C	1.13215	-0.152389	-0.430007
C	0.74554	0.169995	0.837658
O	-0.608172	0.24989	0.927621
H	-2.18386	-0.014233	-0.448235
H	-0.162979	-0.536571	-2.25361
H	2.16274	-0.285104	-0.796553
H	1.32879	0.365569	1.75244
C	5.27595	0.91791	-0.682924
C	5.11728	0.923655	0.686723
N	4.79966	-0.310757	1.147
C	4.76144	-1.07937	0.0670073
N	5.04157	-0.385179	-1.06136
H	5.53058	1.72208	-1.39146
H	5.22628	1.79638	1.35104
H	4.53351	-2.15725	0.0457041
H	5.07404	-0.766884	-2.03835
