18
  This energy is -1.1371 and Call times are: 6317
C	-0.704702	-0.312008	-0.832134
C	0.601745	0.00540417	-1.06196
C	1.15256	0.341158	0.212399
C	0.134079	0.199281	1.10847
O	-1.00753	-0.199038	0.487921
H	-1.51087	-0.629148	-1.51388
H	1.12506	0.00331666	-2.03161
H	2.18785	0.651152	0.427254
H	0.0943152	0.349309	2.19988
C	5.16463	-1.0896	-0.440104
C	5.33845	-0.71709	0.876015
N	5.19371	0.621726	1.0281
C	4.93109	1.07805	-0.189035
N	4.90274	0.0850727	-1.10925
H	5.20734	-2.07461	-0.931488
H	5.56571	-1.39037	1.71857
H	4.75129	2.13025	-0.462491
H	4.7167	0.190029	-2.13668
