18
  This energy is -0.7778 and Call times are: 98524
C	-0.789365	-0.258807	0.772219
C	-1.04652	0.557351	-0.289916
C	0.176122	0.641241	-1.02356
C	1.07248	-0.131059	-0.344983
O	0.499885	-0.688375	0.754356
H	-1.4301	-0.606151	1.5993
H	-2.00139	1.05081	-0.532439
H	0.357686	1.21268	-1.948
H	2.13292	-0.361679	-0.5387
C	5.09643	1.10611	-0.346652
C	4.92033	-0.0403742	-1.09211
N	5.25239	-1.14329	-0.378085
C	5.63304	-0.68277	0.805828
N	5.55694	0.667436	0.87469
H	4.9321	2.1677	-0.590714
H	4.55962	-0.0915019	-2.13236
H	5.97685	-1.29054	1.65827
H	5.80205	1.26606	1.70103
