18
  This energy is -1.0578 and Call times are: 118680
C	0.981712	0.544331	0.162312
C	-0.14369	1.18137	-0.271308
C	-1.15552	0.176438	-0.351461
C	-0.559116	-0.985986	0.0402562
O	0.746163	-0.779815	0.357669
H	1.99889	0.916095	0.368224
H	-0.250589	2.25158	-0.510709
H	-2.20291	0.312574	-0.665363
H	-0.949808	-2.01249	0.134644
C	5.05797	-0.676732	0.927674
C	5.30324	0.673565	0.794697
N	4.87508	1.13198	-0.40657
C	4.36612	0.0701136	-1.01651
N	4.4527	-1.04493	-0.253118
H	5.26442	-1.37828	1.75153
H	5.78147	1.32523	1.54401
H	3.9172	0.0531573	-2.02269
H	4.1218	-2.0067	-0.511509
