18
  This energy is -0.9446 and Call times are: 68473
C	0.398983	-0.76045	0.740897
C	0.0989889	0.520887	1.09944
C	-0.367637	1.16049	-0.0893768
C	-0.311599	0.213547	-1.06944
O	0.15429	-0.965649	-0.580099
H	0.788386	-1.61081	1.32443
H	0.196512	0.970547	2.10063
H	-0.703839	2.20466	-0.193178
H	-0.57146	0.253138	-2.14003
C	5.81892	-0.420255	-0.831643
C	6.18663	0.185914	0.350937
N	5.09871	0.548077	1.07328
C	4.06004	0.16803	0.341605
N	4.44199	-0.420933	-0.816337
H	6.41962	-0.837278	-1.65553
H	7.21743	0.368428	0.695891
H	2.99819	0.296736	0.60647
H	3.80968	-0.804926	-1.56065
