18
  This energy is -0.8145 and Call times are: 62256
C	0.938633	-0.544431	-0.330097
C	-0.312401	-1.00031	-0.625834
C	-1.21823	-0.059007	-0.0483018
C	-0.440765	0.888997	0.549374
O	0.879069	0.608388	0.387169
H	1.93785	-0.943896	-0.569352
H	-0.571368	-1.90836	-1.19371
H	-2.31915	-0.0921177	-0.0793645
H	-0.701912	1.79927	1.1137
C	5.95079	1.16378	0.167701
C	4.82825	0.366067	0.236296
N	5.13436	-0.930577	-0.0117523
C	6.44182	-0.937238	-0.233387
N	6.9803	0.301418	-0.136639
H	6.08537	2.24794	0.309203
H	3.80297	0.702889	0.460323
H	7.05498	-1.82149	-0.470787
H	7.98973	0.556292	-0.268368
