18
  This energy is -1.3835 and Call times are: 87489
C	-0.255923	0.870271	-0.680833
C	-0.0767476	1.02214	0.662747
C	0.227229	-0.279476	1.16625
C	0.206975	-1.11184	0.0859118
O	-0.0864239	-0.426525	-1.05043
H	-0.50368	1.59675	-1.4721
H	-0.151173	1.95697	1.24124
H	0.435347	-0.554487	2.21275
H	0.382171	-2.19643	-0.00477224
C	4.48728	-1.04113	-0.541771
C	3.69766	-0.738663	0.547342
N	3.84376	0.558433	0.911634
C	4.72068	1.05874	0.0517879
N	5.13859	0.133745	-0.844495
H	4.62714	-1.97805	-1.10406
H	3.02516	-1.43312	1.0768
H	5.09165	2.09618	0.0333557
H	5.8275	0.283105	-1.6219
