18
  This energy is -1.4797 and Call times are: 53448
C	-0.0713477	-0.242833	-1.1056
C	-0.443093	0.967385	-0.5981
C	-0.209908	0.889651	0.808918
C	0.28375	-0.361206	1.03702
O	0.375032	-1.06653	-0.121077
H	-0.0761364	-0.636486	-2.13529
H	-0.841547	1.82846	-1.15836
H	-0.391617	1.67847	1.55648
H	0.603416	-0.863018	1.96506
C	4.52697	-0.34808	0.993093
C	3.72697	-1.11141	0.169401
N	3.28615	-0.389513	-0.889394
C	3.81068	0.81708	-0.723179
N	4.56697	0.892821	0.397481
H	5.05309	-0.591959	1.92971
H	3.45996	-2.17011	0.320121
H	3.6732	1.6819	-1.39207
H	5.08509	1.73615	0.746196
