18
  This energy is -0.5061 and Call times are: 110481
C	1.02799	-0.478311	-0.0294037
C	0.0785001	-0.842797	0.879442
C	-1.06162	-0.0284936	0.601691
C	-0.708204	0.761717	-0.452366
O	0.564627	0.500399	-0.850644
H	2.0582	-0.834754	-0.193274
H	0.171639	-1.60829	1.66649
H	-2.02822	-0.0370993	1.13057
H	-1.26436	1.5383	-1.0027
C	6.79601	0.380133	0.661637
C	6.21162	1.04053	-0.39832
N	5.20339	0.309917	-0.933281
C	5.16246	-0.799521	-0.207957
N	6.10284	-0.805089	0.766329
H	7.62832	0.660368	1.32666
H	6.49942	2.0311	-0.786652
H	4.46381	-1.64018	-0.347301
H	6.27173	-1.56709	1.46782
