18
  This energy is -0.6477 and Call times are: 46544
C	-0.745708	-0.12763	-0.845003
C	-0.957648	0.731915	0.192608
C	0.186462	0.612396	1.03927
C	0.996553	-0.309635	0.444308
O	0.442908	-0.772064	-0.707494
H	-1.35573	-0.368595	-1.73104
H	-1.83195	1.38464	0.346358
H	0.375601	1.15403	1.97999
H	1.97844	-0.716899	0.736327
C	6.63445	-0.655409	-0.509135
C	5.27035	-0.791317	-0.657091
N	4.60476	0.134032	0.0758698
C	5.55235	0.841311	0.676251
N	6.79327	0.404339	0.355677
H	7.47537	-1.21903	-0.943566
H	4.75449	-1.54048	-1.27958
H	5.39296	1.68992	1.36086
H	7.70303	0.797856	0.700265
