18
  This energy is -1.4545 and Call times are: 123609
C	-0.514327	-0.996211	-0.171557
C	-0.586478	-0.332158	1.01765
C	0.176575	0.862869	0.845084
C	0.647656	0.823587	-0.434334
O	0.235416	-0.304797	-1.0698
H	-0.946355	-1.95555	-0.500611
H	-1.12319	-0.651788	1.92532
H	0.349111	1.65401	1.59236
H	1.27734	1.52701	-1.00349
C	5.15153	0.1218	-0.897472
C	5.15211	0.831783	0.284505
N	4.14282	0.431502	1.09544
C	3.51848	-0.523173	0.419116
N	4.08868	-0.746915	-0.788525
H	5.81027	0.171606	-1.77902
H	5.86271	1.62568	0.566687
H	2.63844	-1.09116	0.761397
H	3.77995	-1.44848	-1.50528
