18
  This energy is -1.2217 and Call times are: 99435
C	0.553035	0.640299	-0.755361
C	-0.807034	0.538466	-0.740701
C	-1.12145	-0.344014	0.337488
C	0.0742437	-0.703549	0.886514
O	1.10757	-0.111678	0.231573
H	1.23673	1.20736	-1.40824
H	-1.5176	1.03498	-1.4209
H	-2.12425	-0.667762	0.659453
H	0.320465	-1.36437	1.73383
C	4.28548	-0.51309	-0.677047
C	4.39347	0.830493	-0.38676
N	5.45113	1.07142	0.425531
C	5.99721	-0.118168	0.638358
N	5.33084	-1.10601	-0.00484579
H	3.56282	-1.07066	-1.29383
H	3.72718	1.63035	-0.74888
H	6.88592	-0.322649	1.25692
H	5.56576	-2.12873	0.00638568
