18
  This energy is -1.4609 and Call times are: 44393
C	0.262761	-1.08172	0.217357
C	0.609865	-0.465934	-0.949135
C	0.110825	0.868719	-0.850255
C	-0.497181	0.950704	0.367932
O	-0.413906	-0.231327	1.03343
H	0.436185	-2.10735	0.5824
H	1.16194	-0.907283	-1.79443
H	0.199047	1.66792	-1.60364
H	-1.01812	1.78211	0.870558
C	4.23332	0.603718	0.974423
C	3.7572	-0.639319	0.614821
N	4.27403	-1.03546	-0.573651
C	5.06776	-0.0419624	-0.949913
N	5.07738	0.969894	-0.0501109
H	4.03775	1.23266	1.85744
H	3.05003	-1.25742	1.19163
H	5.6652	-0.00381042	-1.87503
H	5.62372	1.86316	-0.119678
