18
  This energy is -0.7995 and Call times are: 130426
C	0.425354	-0.585241	-0.873481
C	1.09242	-0.448796	0.308375
C	0.247556	0.342535	1.14511
C	-0.861207	0.619804	0.400705
O	-0.769573	0.0610282	-0.834764
H	0.690056	-1.11015	-1.80603
H	2.08032	-0.863769	0.565182
H	0.450163	0.663099	2.17965
H	-1.77205	1.19595	0.632385
C	4.87552	0.593145	0.422614
C	5.13139	-0.753851	0.568469
N	6.2874	-1.10113	-0.0476176
C	6.74692	0.0261282	-0.573675
N	5.93122	1.07626	-0.317841
H	4.0446	1.22116	0.78137
H	4.5026	-1.48133	1.1072
H	7.67574	0.138947	-1.15575
H	6.07551	2.06927	-0.625018
