18
  This energy is -0.7165 and Call times are: 101788
C	-0.71414	-0.805677	-0.356775
C	-0.44094	0.307681	-1.09581
C	0.487121	1.07128	-0.323969
C	0.699119	0.357141	0.818586
O	-0.0265221	-0.791966	0.815405
H	-1.37093	-1.66938	-0.551434
H	-0.85174	0.565373	-2.08522
H	0.938947	2.03874	-0.595962
H	1.33364	0.555909	1.69786
C	4.65186	0.421985	0.329268
C	5.12181	0.287405	-0.959987
N	6.37247	-0.234329	-0.972211
C	6.67724	-0.422701	0.304604
N	5.67233	-0.0424503	1.12872
H	3.69536	0.80269	0.721339
H	4.58086	0.557417	-1.88157
H	7.62252	-0.836006	0.6917
H	5.67085	-0.0919885	2.17696
