18
  This energy is -0.6267 and Call times are: 125661
C	-0.977045	0.569517	0.0862249
C	0.224257	1.12618	0.413912
C	1.20268	0.113418	0.174898
C	0.512904	-0.972721	-0.277747
O	-0.819517	-0.711924	-0.338165
H	-2.00177	0.975227	0.110544
H	0.403421	2.14751	0.786558
H	2.29128	0.193403	0.325384
H	0.849558	-1.97616	-0.585992
C	5.33537	0.541403	0.586855
C	5.569	-0.81602	0.523856
N	6.65205	-1.09035	-0.24312
C	7.08866	0.0923847	-0.654368
N	6.32831	1.10788	-0.180849
H	4.55871	1.1249	1.10634
H	4.97547	-1.60236	1.01808
H	7.96074	0.272017	-1.30355
H	6.46847	2.13169	-0.363697
