18
  This energy is -1.515 and Call times are: 96076
C	0.311346	1.09056	0.0119919
C	-0.0260217	0.439874	-1.1383
C	-0.353802	-0.895174	-0.750584
C	-0.187801	-0.942464	0.602406
O	0.21814	0.261488	1.08482
H	0.630959	2.12913	0.197669
H	-0.0424139	0.858078	-2.15758
H	-0.674863	-1.71789	-1.40949
H	-0.324262	-1.76148	1.32755
C	5.11019	0.0701807	0.742783
C	4.04546	-0.802579	0.818818
N	3.17835	-0.605798	-0.203885
C	3.70316	0.38527	-0.911686
N	4.86824	0.827231	-0.381728
H	5.99347	0.201723	1.3878
H	3.88739	-1.57073	1.59329
H	3.27574	0.826074	-1.82669
H	5.47218	1.59946	-0.756126
