18
  This energy is -0.9719 and Call times are: 41064
C	0.0152064	1.01996	-0.495832
C	1.09141	0.517777	0.174961
C	0.690769	-0.768292	0.649965
C	-0.594898	-0.938476	0.227508
O	-1.02354	0.143876	-0.473771
H	-0.13575	1.97508	-1.02518
H	2.06931	1.00419	0.320659
H	1.29626	-1.47727	1.23718
H	-1.30331	-1.77279	0.359078
C	5.98079	-0.602815	-0.889127
C	6.27311	0.691099	-0.512991
N	5.53007	1.06907	0.555439
C	4.77964	0.013648	0.841041
N	5.01441	-1.02018	-0.0013795
H	6.37879	-1.23505	-1.6987
H	7.00685	1.35869	-0.993399
H	4.04171	-0.0560459	1.65641
H	4.54894	-1.96051	0.0180336
