18
  This energy is -0.96 and Call times are: 54621
C	0.345434	0.281397	-1.04302
C	0.500394	1.113	0.0269322
C	-0.0495801	0.416684	1.14621
C	-0.492071	-0.778959	0.66143
O	-0.258911	-0.878528	-0.67376
H	0.61936	0.397017	-2.10455
H	0.956256	2.11614	0.0278925
H	-0.104916	0.772601	2.18754
H	-0.983379	-1.63219	1.15727
C	5.80588	-0.221167	-0.718025
C	5.30842	-1.0493	0.265779
N	4.25795	-0.476202	0.901845
C	4.10431	0.702984	0.314872
N	5.01348	0.903919	-0.6683
H	6.63987	-0.348598	-1.42637
H	5.68866	-2.05005	0.528024
H	3.34203	1.45808	0.56585
H	5.09855	1.75468	-1.27677
