18
  This energy is -0.9527 and Call times are: 39027
C	0.953345	-0.0896998	0.607855
C	0.463718	-1.12048	-0.139232
C	-0.73123	-0.628985	-0.748044
C	-0.866331	0.658748	-0.31925
O	0.153637	1.00475	0.509579
H	1.84917	-0.0098351	1.24533
H	0.90023	-2.12605	-0.250439
H	-1.40541	-1.17772	-1.42514
H	-1.63316	1.42248	-0.528878
C	5.67555	-1.09011	0.236045
C	4.44589	-0.730759	-0.273804
N	4.35165	0.613131	-0.420742
C	5.51841	1.0857	-0.00363528
N	6.35111	0.0981925	0.402603
H	6.10341	-2.07452	0.483866
H	3.62501	-1.4171	-0.538265
H	5.81562	2.14638	0.0255658
H	7.32568	0.215434	0.773738
