18
  This energy is -1.0922 and Call times are: 121508
C	-0.870374	0.535356	-0.492182
C	0.308245	0.30845	-1.14006
C	1.14166	-0.379492	-0.206105
C	0.398761	-0.512248	0.930049
O	-0.832711	0.0408004	0.773128
H	-1.79976	1.03109	-0.817373
H	0.565006	0.596611	-2.17211
H	2.17308	-0.730768	-0.370055
H	0.628997	-0.973722	1.90436
C	5.23577	0.880917	0.734344
C	6.32129	0.0344971	0.814106
N	6.31412	-0.866097	-0.198508
C	5.22828	-0.579472	-0.903787
N	4.54427	0.466162	-0.381895
H	4.91706	1.72103	1.37166
H	7.10953	0.057505	1.58417
H	4.88713	-1.10344	-1.81115
H	3.65634	0.881739	-0.756253
