18
  This energy is -1.4354 and Call times are: 39251
C	-0.246777	0.615869	0.919895
C	-0.0551121	-0.733464	0.974105
C	0.23135	-1.14177	-0.364304
C	0.189451	-0.00590916	-1.11825
O	-0.101217	1.07699	-0.350221
H	-0.48856	1.35205	1.704
H	-0.109956	-1.37673	1.86702
H	0.442771	-2.16457	-0.715434
H	0.346252	0.162151	-2.1964
C	4.93169	-0.937349	0.327775
C	3.63311	-0.647137	0.689165
N	3.21792	0.514693	0.128553
C	4.255	0.943616	-0.57794
N	5.31282	0.102858	-0.490084
H	5.58961	-1.7823	0.586104
H	2.98833	-1.25526	1.34437
H	4.29369	1.86691	-1.17815
H	6.2456	0.220907	-0.956186
