18
  This energy is -1.6594 and Call times are: 75999
C	0.674208	0.744012	-0.527533
C	0.189311	0.9607	0.72877
C	-0.606959	-0.182649	1.04313
C	-0.538359	-0.997089	-0.0488159
O	0.239864	-0.44685	-1.01764
H	1.32887	1.35185	-1.17344
H	0.373844	1.8377	1.3698
H	-1.16255	-0.368384	1.97636
H	-0.991629	-1.98011	-0.25732
C	3.60864	-0.943962	-0.126686
C	3.554	-0.0079244	0.88425
N	4.50052	0.94744	0.717267
C	5.13993	0.605384	-0.393039
N	4.63948	-0.528016	-0.939429
H	3.00699	-1.84653	-0.318847
H	2.84856	-0.00481164	1.73113
H	5.98193	1.14945	-0.850496
H	4.97315	-0.999989	-1.81531
