18
  This energy is -0.8867 and Call times are: 25826
C	0.092169	1.07877	-0.337873
C	0.749747	0.0593557	-0.961376
C	0.386083	-1.12899	-0.257315
C	-0.461621	-0.730851	0.734277
O	-0.65233	0.614311	0.699918
H	0.0713209	2.16339	-0.533861
H	1.42333	0.136475	-1.82996
H	0.721639	-2.15643	-0.47148
H	-0.988472	-1.29969	1.51792
C	4.96221	-0.149506	-1.08216
C	4.32611	0.430356	-0.00500399
N	5.12604	0.437751	1.08887
C	6.25411	-0.135344	0.691831
N	6.20509	-0.507075	-0.609324
H	4.62948	-0.327084	-2.1172
H	3.3043	0.843519	0.00246582
H	7.1477	-0.307793	1.31311
H	6.96844	-0.977956	-1.15414
