18
  This energy is -1.2019 and Call times are: 100164
C	0.781454	0.726827	0.383996
C	0.731682	0.329357	-0.919811
C	-0.37157	-0.573156	-1.01159
C	-0.898588	-0.647527	0.244233
O	-0.20682	0.140019	1.10924
H	1.46216	1.41349	0.91351
H	1.40439	0.640494	-1.73514
H	-0.724329	-1.1009	-1.91223
H	-1.75294	-1.21662	0.646044
C	4.4204	-0.13195	-0.951749
C	4.21717	-0.687648	0.29366
N	5.19745	-0.325184	1.15632
C	6.00574	0.452421	0.448776
N	5.58039	0.599746	-0.828314
H	3.84098	-0.203032	-1.88596
H	3.38078	-1.34362	0.585209
H	6.923	0.939842	0.816582
H	6.04561	1.16387	-1.58103
