18
  This energy is -1.0567 and Call times are: 91183
C	0.292664	0.71172	0.833188
C	1.08098	0.503628	-0.260262
C	0.38374	-0.443881	-1.07033
C	-0.769093	-0.731154	-0.400386
O	-0.841216	-0.0343136	0.764184
H	0.424588	1.3565	1.71756
H	2.05568	0.97052	-0.474871
H	0.71037	-0.857692	-2.03789
H	-1.60731	-1.40474	-0.643143
C	5.6868	0.914035	0.559158
C	5.68827	-0.402624	0.968487
N	5.03414	-1.19089	0.0812066
C	4.62841	-0.366385	-0.87493
N	4.99727	0.913811	-0.632789
H	6.1134	1.82091	1.01647
H	6.1496	-0.797929	1.88814
H	4.05772	-0.647353	-1.77471
H	4.79629	1.74739	-1.23778
