18
  This energy is -1.8344 and Call times are: 90564
C	0.60395	-0.381848	0.880816
C	0.165781	0.907252	0.799561
C	-0.546173	1.00113	-0.435115
C	-0.48022	-0.238892	-0.99936
O	0.218466	-1.09602	-0.209308
H	1.19097	-0.907269	1.65191
H	0.327679	1.71138	1.53527
H	-1.04603	1.89251	-0.84703
H	-0.883813	-0.633695	-1.94619
C	4.52674	-1.08962	0.241879
C	5.76579	-0.727916	-0.242965
N	5.85382	0.614528	-0.406074
C	4.67388	1.08386	-0.0238714
N	3.83873	0.0956838	0.375659
H	4.10013	-2.07378	0.492806
H	6.5978	-1.41155	-0.478007
H	4.36836	2.14255	-0.016481
H	2.85461	0.210567	0.721452
