18
  This energy is -1.0137 and Call times are: 70913
C	-1.00153	0.481882	-0.226135
C	-0.731205	-0.819376	-0.532775
C	0.610042	-1.05244	-0.100509
C	1.04094	0.126966	0.432124
O	0.0695868	1.07502	0.363708
H	-1.90542	1.09532	-0.374179
H	-1.40837	-1.54257	-1.01499
H	1.17956	-1.99227	-0.180937
H	2.00326	0.416118	0.885538
C	5.21758	0.142253	1.16536
C	4.61655	-0.840044	0.407071
N	4.92763	-0.703512	-0.904837
C	5.71863	0.359444	-0.960209
N	5.92374	0.904895	0.262085
H	5.19355	0.345761	2.24774
H	3.96403	-1.64483	0.78308
H	6.17523	0.781519	-1.86993
H	6.50916	1.7481	0.480127
