18
  This energy is -0.5333 and Call times are: 45891
C	-0.765636	0.362435	-0.754217
C	0.366422	-0.302232	-1.1244
C	1.06601	-0.588072	0.0876159
C	0.299707	-0.0728447	1.09145
O	-0.822676	0.511319	0.595446
H	-1.5977	0.775946	-1.34745
H	0.677616	-0.564885	-2.14825
H	2.02747	-1.11641	0.190328
H	0.441051	-0.0570505	2.18462
C	5.80624	0.932914	0.520543
C	5.17855	0.00583932	-0.284242
N	6.05083	-0.937679	-0.714838
C	7.21523	-0.597232	-0.179219
N	7.11998	0.523791	0.574324
H	5.42378	1.82508	1.04141
H	4.1119	0.000858091	-0.561904
H	8.1693	-1.13374	-0.306306
H	7.89856	0.992068	1.09948
