18
  This energy is -1.1157 and Call times are: 65888
C	-0.91029	0.45319	0.502386
C	-0.0689311	-0.402918	1.15013
C	0.940453	-0.751531	0.201587
C	0.626809	-0.0776816	-0.94206
O	-0.500532	0.663023	-0.776316
H	-1.82264	0.974059	0.836388
H	-0.150886	-0.753739	2.19143
H	1.79671	-1.42639	0.361224
H	1.11891	-0.0418736	-1.92786
C	4.28342	0.549393	0.223233
C	4.79746	-0.542835	0.889529
N	5.99104	-0.916323	0.367619
C	6.21661	-0.0590561	-0.618705
N	5.21603	0.8444	-0.745996
H	3.35106	1.11862	0.365458
H	4.32848	-1.06807	1.73749
H	7.09853	-0.0476789	-1.27925
H	5.16115	1.62154	-1.44907
