18
  This energy is -0.9062 and Call times are: 68651
C	-0.397148	-1.05226	0.146349
C	-1.05411	0.0479654	0.613543
C	-0.253259	1.16984	0.239191
C	0.822397	0.656145	-0.423718
O	0.750849	-0.699412	-0.489742
H	-0.639094	-2.12637	0.201192
H	-2.00707	0.0675596	1.16633
H	-0.461835	2.23222	0.44402
H	1.69476	1.14302	-0.88975
C	6.61512	-0.157574	0.341725
C	6.03266	1.02513	-0.0621096
N	4.72958	0.842349	-0.386296
C	4.50451	-0.448845	-0.184345
N	5.61036	-1.09518	0.254897
H	7.63935	-0.390591	0.673677
H	6.52931	2.00706	-0.125363
H	3.54824	-0.973072	-0.342368
H	5.68763	-2.11604	0.485393
