18
  This energy is -1.0548 and Call times are: 97452
C	-0.951559	-0.115222	-0.60635
C	0.0389485	0.753405	-0.959558
C	1.05502	0.612893	0.0344102
C	0.595723	-0.329195	0.907273
O	-0.628287	-0.784692	0.531331
H	-1.9222	-0.346882	-1.0748
H	0.0527023	1.42565	-1.83248
H	2.0132	1.15454	0.085378
H	1.03885	-0.756365	1.82183
C	5.20069	-0.382257	1.10865
C	5.90519	-0.982219	0.0864616
N	5.80362	-0.268903	-1.06131
C	5.03903	0.769632	-0.752338
N	4.64989	0.74667	0.544442
H	5.05711	-0.669203	2.1625
H	6.48494	-1.917	0.156574
H	4.73314	1.57657	-1.43755
H	4.04404	1.45407	1.02795
