18
  This energy is -1.2527 and Call times are: 14370
C	0.805328	-0.75859	-0.249779
C	0.350952	0.150608	-1.15933
C	-0.644116	0.918542	-0.48092
C	-0.70997	0.410827	0.783303
O	0.16837	-0.614033	0.942026
H	1.56828	-1.55061	-0.326282
H	0.683174	0.268657	-2.20326
H	-1.2368	1.75038	-0.894276
H	-1.33156	0.687306	1.65074
C	4.49331	-0.675576	-0.655195
C	5.83727	-0.443442	-0.857743
N	6.33803	0.386265	0.0895386
C	5.30863	0.667788	0.876761
N	4.17367	0.0515984	0.469631
H	3.76601	-1.2864	-1.21328
H	6.45458	-0.859773	-1.67042
H	5.33054	1.31947	1.76505
H	3.23	0.115599	0.924222
