18
  This energy is -0.6375 and Call times are: 80183
C	0.650669	-0.825097	-0.426902
C	-0.71044	-0.908709	-0.399262
C	-1.16452	0.304089	0.203277
C	-0.0408011	1.02176	0.49065
O	1.07682	0.347246	0.112558
H	1.41862	-1.52307	-0.798837
H	-1.33232	-1.74094	-0.766351
H	-2.20845	0.599142	0.396244
H	0.0953516	2.01128	0.957089
C	6.48946	0.14398	0.620756
C	5.84186	1.09676	-0.136855
N	4.72923	0.58574	-0.717738
C	4.68674	-0.679253	-0.321996
N	5.72622	-0.99429	0.486605
H	7.40876	0.193748	1.22569
H	6.15752	2.14376	-0.274733
H	3.91659	-1.41868	-0.594651
H	5.9148	-1.92779	0.927366
