18
  This energy is -0.9251 and Call times are: 4519
C	1.06643	-0.385808	0.0165226
C	0.316625	-0.359882	-1.12255
C	-0.948929	0.184322	-0.745283
C	-0.860763	0.442912	0.591029
O	0.363145	0.100828	1.07273
H	2.09933	-0.722084	0.204393
H	0.6239	-0.690789	-2.12763
H	-1.81798	0.35925	-1.39969
H	-1.58876	0.863843	1.30383
C	5.66225	0.0515361	1.08109
C	5.19737	-1.07298	0.432645
N	4.73171	-0.767221	-0.802742
C	4.90704	0.542006	-0.920247
N	5.46495	1.08194	0.189165
H	6.10475	0.186934	2.08079
H	5.18962	-2.09946	0.83406
H	4.64452	1.15549	-1.79715
H	5.70205	2.09288	0.340954
