18
  This energy is -0.9601 and Call times are: 13343
C	-0.948718	0.615452	0.0869149
C	-0.836545	-0.633487	0.623517
C	0.484633	-1.07654	0.309973
C	1.06318	-0.0592307	-0.390552
O	0.20211	0.982102	-0.536122
H	-1.78302	1.33597	0.0799827
H	-1.60689	-1.18722	1.18392
H	0.942317	-2.04208	0.578936
H	2.06718	0.0448268	-0.83375
C	4.64295	0.679003	0.435339
C	4.69877	-0.698521	0.45671
N	5.83093	-1.15091	-0.134954
C	6.47503	-0.0581902	-0.521906
N	5.79961	1.07071	-0.200974
H	3.8872	1.38473	0.815236
H	3.94241	-1.37407	0.888447
H	7.44478	-0.0275778	-1.04429
H	6.09986	2.05653	-0.399119
