18
  This energy is -0.9192 and Call times are: 70511
C	-0.122978	1.08616	0.302541
C	-1.0241	0.12393	0.652502
C	-0.530517	-1.09514	0.0954033
C	0.628648	-0.770254	-0.545813
O	0.892844	0.557787	-0.429536
H	-0.0915436	2.16843	0.509794
H	-1.94409	0.259051	1.24365
H	-0.991729	-2.09314	0.168733
H	1.34685	-1.3842	-1.11371
C	6.44234	0.0817463	1.16342
C	5.73423	-0.712068	0.286165
N	6.18203	-0.55714	-0.983474
C	7.16421	0.329416	-0.894204
N	7.3599	0.744997	0.379605
H	6.36096	0.217093	2.25365
H	4.90825	-1.39381	0.546596
H	7.77305	0.709377	-1.73037
H	8.07446	1.44003	0.707631
