18
  This energy is -1.4213 and Call times are: 58811
C	0.253067	-1.10356	0.0671479
C	1.03445	-0.139261	0.632781
C	0.396442	1.10404	0.337368
C	-0.718493	0.789748	-0.382709
O	-0.821789	-0.554091	-0.557176
H	0.351939	-2.20114	0.0387635
H	1.9666	-0.288501	1.20104
H	0.735572	2.11044	0.631042
H	-1.50734	1.4221	-0.822132
C	4.92628	-1.12369	-0.126294
C	4.33501	-0.321593	-1.07928
N	4.09406	0.919758	-0.591936
C	4.53418	0.887881	0.658624
N	5.04518	-0.322294	0.987176
H	5.25974	-2.17306	-0.160542
H	4.07795	-0.616349	-2.10976
H	4.50655	1.72258	1.37747
H	5.45404	-0.597632	1.91361
