18
  This energy is -0.8222 and Call times are: 76607
C	-0.0483876	0.750435	0.849063
C	1.12858	0.380193	0.267656
C	0.783677	-0.565762	-0.745421
C	-0.573615	-0.690075	-0.693659
O	-1.09825	0.106576	0.27439
H	-0.269482	1.45328	1.66905
H	2.13836	0.737388	0.526244
H	1.47286	-1.08783	-1.42848
H	-1.27461	-1.30344	-1.28327
C	6.25313	-0.551464	0.808951
C	5.42887	0.535174	1.01133
N	4.82674	0.913306	-0.142348
C	5.27575	0.064479	-1.05696
N	6.13861	-0.838059	-0.533039
H	6.89179	-1.12205	1.50183
H	5.25785	1.05311	1.96911
H	5.00513	0.0588752	-2.12512
H	6.62726	-1.60921	-1.05053
