18
  This energy is -1.2058 and Call times are: 93416
C	-0.297352	1.05483	0.292106
C	-0.235932	0.646765	-1.00793
C	0.168915	-0.72244	-0.969246
C	0.319151	-1.03021	0.351011
O	0.0384895	0.0434614	1.13553
H	-0.562847	2.02563	0.741892
H	-0.453854	1.24948	-1.90422
H	0.327295	-1.39239	-1.82958
H	0.616962	-1.96452	0.854621
C	5.03169	-0.1776	-1.08037
C	3.7255	0.114076	-0.748809
N	3.5814	0.255287	0.591268
C	4.79358	0.0519868	1.08916
N	5.70299	-0.212724	0.12143
H	5.5149	-0.356685	-2.05401
H	2.88449	0.225157	-1.45252
H	5.07094	0.0851024	2.15509
H	6.72476	-0.407589	0.260183
