18
  This energy is -1.347 and Call times are: 80087
C	0.585628	-0.805546	0.542713
C	-0.331102	-0.0177892	1.17471
C	-0.84832	0.860238	0.173875
C	-0.201996	0.531522	-0.981368
O	0.677365	-0.483835	-0.774519
H	1.22982	-1.61951	0.91385
H	-0.614656	-0.0516106	2.23892
H	-1.61262	1.64254	0.307818
H	-0.277466	0.939251	-2.00279
C	4.11042	-0.626668	0.992146
C	3.94311	-1.08846	-0.296226
N	4.11918	-0.0930374	-1.19881
C	4.39467	0.982194	-0.473128
N	4.40118	0.712172	0.853762
H	4.04531	-1.13895	1.96522
H	3.69851	-2.12205	-0.590687
H	4.59978	1.99243	-0.862476
H	4.59147	1.39299	1.62935
