18
  This energy is -1.4477 and Call times are: 33663
C	-0.35179	-0.715463	-0.806695
C	0.831634	-0.880941	-0.149049
C	0.9196	0.203436	0.776427
C	-0.217835	0.935836	0.602628
O	-1.00577	0.389105	-0.360315
H	-0.835212	-1.30652	-1.60181
H	1.5687	-1.68587	-0.300463
H	1.73843	0.40643	1.48524
H	-0.57886	1.85358	1.09522
C	4.81664	-1.17389	0.0115278
C	5.39503	-0.394961	-0.968211
N	5.3141	0.921516	-0.657004
C	4.68788	0.959152	0.511355
N	4.36702	-0.278806	0.956438
H	4.69717	-2.2654	0.100238
H	5.86928	-0.759295	-1.89406
H	4.43889	1.86649	1.08491
H	3.87037	-0.512292	1.85091
