18
  This energy is -0.363 and Call times are: 135282
C	-0.319597	-0.0701446	1.08597
C	-0.545568	1.04134	0.328406
C	-0.00765268	0.750691	-0.962442
C	0.499544	-0.512751	-0.87974
O	0.317725	-1.0292	0.364139
H	-0.560444	-0.299998	2.13688
H	-1.04132	1.97249	0.646667
H	-0.00341331	1.41168	-1.84401
H	1.00715	-1.14702	-1.62492
C	5.73767	0.394968	-1.10006
C	5.62975	1.15567	0.0448478
N	5.48088	0.371692	1.14017
C	5.49639	-0.870652	0.676522
N	5.64895	-0.909631	-0.668392
H	5.86701	0.68016	-2.15622
H	5.65663	2.25616	0.100184
H	5.39991	-1.78878	1.27815
H	5.69155	-1.76978	-1.26805
