18
  This energy is -0.969 and Call times are: 61191
C	-0.704604	-0.702591	-0.544334
C	-1.15325	0.331552	0.223544
C	0.0152295	0.97519	0.733936
C	1.07477	0.277546	0.232894
O	0.653589	-0.750487	-0.5499
H	-1.24314	-1.46543	-1.13026
H	-2.20184	0.612913	0.41168
H	0.0527365	1.85481	1.39648
H	2.16206	0.410269	0.357125
C	5.14482	1.12939	-0.297663
C	4.72135	0.105193	-1.11793
N	4.6681	-1.06975	-0.444742
C	5.05705	-0.775577	0.788464
N	5.35558	0.537834	0.92783
H	5.30575	2.20157	-0.492779
H	4.45328	0.192981	-2.18343
H	5.14128	-1.48386	1.62839
H	5.68485	1.01467	1.80274
