18
  This energy is -0.4454 and Call times are: 122487
C	-0.867583	0.308015	-0.66244
C	-0.961531	-0.713885	0.236041
C	0.31584	-0.795926	0.869848
C	1.07761	0.183082	0.302726
O	0.370833	0.867114	-0.635134
H	-1.60058	0.729108	-1.37001
H	-1.84202	-1.34646	0.432747
H	0.62266	-1.50475	1.65567
H	2.12195	0.490022	0.477035
C	7.72853	0.304213	-0.137734
C	7.24637	-0.8219	0.495145
N	5.89184	-0.854881	0.469056
C	5.53505	0.246583	-0.17755
N	6.60641	0.979022	-0.563956
H	8.75647	0.661232	-0.309247
H	7.85159	-1.61117	0.97012
H	4.50298	0.565253	-0.395546
H	6.58612	1.8878	-1.08832
