18
  This energy is -0.6887 and Call times are: 25406
C	0.0919205	0.651897	-0.92357
C	1.09841	-0.16801	-0.505122
C	0.612285	-0.814355	0.672178
C	-0.648361	-0.332363	0.869232
O	-0.982488	0.564191	-0.0959432
H	0.0176705	1.33841	-1.7829
H	2.08428	-0.304015	-0.978057
H	1.1463	-1.55113	1.29353
H	-1.39901	-0.545176	1.648
C	6.48477	-0.84771	0.22499
C	5.46671	-0.887912	-0.704038
N	4.75245	0.26373	-0.696361
C	5.32522	1.01552	0.233893
N	6.3743	0.389958	0.818424
H	7.25437	-1.58758	0.496751
H	5.23478	-1.72726	-1.37973
H	5.01664	2.03188	0.527204
H	6.98684	0.7745	1.57881
