18
  This energy is -1.0823 and Call times are: 47128
C	-0.667593	0.672136	-0.623662
C	0.692451	0.773794	-0.641594
C	1.17117	-0.225977	0.259183
C	0.0614103	-0.850325	0.748049
O	-1.07032	-0.314622	0.219626
H	-1.44996	1.2356	-1.15813
H	1.29784	1.48179	-1.2301
H	2.22153	-0.447262	0.507939
H	-0.0548636	-1.67795	1.46692
C	4.7774	-0.394052	-1.02529
C	5.33715	0.842186	-0.781277
N	5.71794	0.959075	0.514041
C	5.39565	-0.200239	1.07148
N	4.82558	-1.04992	0.184544
H	4.36205	-0.838658	-1.94363
H	5.47307	1.65187	-1.51666
H	5.55491	-0.479737	2.1254
H	4.48515	-2.02293	0.381057
