18
  This energy is -0.4819 and Call times are: 25310
C	-1.00504	-0.0935407	0.517239
C	0.175419	-0.160288	1.19726
C	1.20133	-0.0026354	0.216053
C	0.557227	0.146535	-0.976947
O	-0.790696	0.0935705	-0.811691
H	-2.05071	-0.163939	0.859114
H	0.310219	-0.305933	2.2811
H	2.28971	-0.00174288	0.387872
H	0.939021	0.295495	-2.00032
C	5.59909	0.310392	-0.27703
C	6.75488	0.995186	-0.587429
N	7.84771	0.350078	-0.111955
C	7.37169	-0.730813	0.491122
N	6.02128	-0.800183	0.419076
H	4.54131	0.527536	-0.494968
H	6.81982	1.94318	-1.14594
H	7.96779	-1.50446	1.00138
H	5.41199	-1.55597	0.817567
