18
  This energy is -1.1273 and Call times are: 130810
C	0.159008	0.0851951	-1.11976
C	-0.86615	0.715273	-0.477554
C	-0.733336	0.371291	0.902358
C	0.361258	-0.438623	0.981582
O	0.918616	-0.624035	-0.243973
H	0.452247	0.0625323	-2.18218
H	-1.63841	1.35782	-0.930154
H	-1.38215	0.694107	1.73237
H	0.839293	-0.939903	1.83917
C	4.55813	-1.08478	-0.114422
C	4.11613	-0.0971139	0.740154
N	4.85682	1.03011	0.60884
C	5.75491	0.742842	-0.323653
N	5.61634	-0.520441	-0.791098
H	4.20625	-2.11493	-0.283287
H	3.27606	-0.177682	1.44912
H	6.53697	1.4208	-0.701775
H	6.20321	-0.98205	-1.5285
