18
  This energy is -0.9033 and Call times are: 101885
C	0.219924	-0.387645	-1.04296
C	1.1562	-0.387919	-0.051111
C	0.511203	0.168143	1.09558
C	-0.762281	0.459131	0.703226
O	-0.957621	0.126221	-0.599857
H	0.266637	-0.72151	-2.09253
H	2.19666	-0.743977	-0.120051
H	0.952148	0.328942	2.09247
H	-1.61302	0.898972	1.24916
C	4.97273	1.09583	0.0410276
C	4.73348	0.150329	-0.933615
N	5.38696	-1.0058	-0.663717
C	6.02917	-0.77839	0.474035
N	5.81139	0.474506	0.939241
H	4.61739	2.13229	0.155188
H	4.10105	0.281652	-1.82672
H	6.67265	-1.49455	1.01001
H	6.20619	0.892885	1.81694
