18
  This energy is -1.1018 and Call times are: 31638
C	-0.97015	-0.227538	0.541698
C	-0.530308	1.04697	0.335435
C	0.706266	0.924669	-0.368869
C	0.912916	-0.413778	-0.530822
O	-0.101056	-1.13235	0.0192012
H	-1.87286	-0.617817	1.03974
H	-1.02684	1.97966	0.647906
H	1.35912	1.74368	-0.711042
H	1.73078	-0.974226	-1.01275
C	4.52698	-0.263841	-1.04486
C	5.19593	0.893808	-0.707955
N	5.608	0.862065	0.582664
C	5.19626	-0.310816	1.04466
N	4.5393	-1.02666	0.101502
H	4.05867	-0.588	-1.98781
H	5.38861	1.75138	-1.37301
H	5.34912	-0.695639	2.06583
H	4.11932	-1.98094	0.220786
