18
  This energy is -1.2517 and Call times are: 35328
C	-0.443383	0.282701	-1.00493
C	-0.76823	-0.876218	-0.363252
C	-0.0179746	-0.873721	0.85216
C	0.699113	0.286503	0.845907
O	0.451533	1.00502	-0.280789
H	-0.775782	0.702875	-1.96837
H	-1.46616	-1.65475	-0.710926
H	-0.0185488	-1.64993	1.6342
H	1.41062	0.710152	1.57359
C	5.44425	1.08975	0.0136742
C	6.06632	-0.0517594	-0.44583
N	5.26239	-1.13436	-0.310973
C	4.14583	-0.666249	0.230135
N	4.20601	0.669317	0.445157
H	5.78377	2.13659	0.0625277
H	7.08081	-0.113587	-0.872248
H	3.25308	-1.25784	0.48946
H	3.45289	1.27008	0.861279
