18
  This energy is -1.0045 and Call times are: 67335
C	-0.239022	0.079752	1.10585
C	-0.811283	-0.860926	0.300857
C	-0.267033	-0.64418	-1.00181
C	0.589766	0.409815	-0.877854
O	0.619298	0.864412	0.402569
H	-0.357675	0.291843	2.18112
H	-1.54324	-1.63027	0.594885
H	-0.493112	-1.21206	-1.91859
H	1.22838	0.923488	-1.61512
C	4.97463	-1.07671	0.469264
C	3.90869	-0.206792	0.559483
N	4.16391	0.948867	-0.10069
C	5.38354	0.796463	-0.598569
N	5.91492	-0.40826	-0.282547
H	5.12558	-2.09034	0.873377
H	2.96004	-0.392317	1.0891
H	5.93489	1.53553	-1.20191
H	6.86263	-0.765111	-0.557793
