18
  This energy is -0.6256 and Call times are: 37950
C	0.389264	-0.854961	-0.635544
C	-0.919962	-0.472675	-0.648179
C	-1.01739	0.618954	0.267775
C	0.2409	0.807381	0.759279
O	1.11266	-0.0840106	0.218474
H	0.924141	-1.64968	-1.18106
H	-1.73531	-0.915025	-1.24285
H	-1.92329	1.19126	0.524476
H	0.640217	1.53156	1.48822
C	5.7168	1.15547	0.128184
C	4.81403	0.142365	0.372663
N	5.36103	-1.07129	0.119029
C	6.59845	-0.812098	-0.281276
N	6.86145	0.516167	-0.292857
H	5.62864	2.24962	0.220933
H	3.77779	0.265397	0.72752
H	7.35382	-1.55756	-0.577809
H	7.76514	0.972131	-0.569806
