18
  This energy is -1.7622 and Call times are: 25760
C	-0.118997	-0.511021	-1.00553
C	1.06435	-0.499904	-0.327338
C	0.818465	0.229097	0.876081
C	-0.493427	0.599107	0.827043
O	-1.08134	0.15553	-0.315154
H	-0.401883	-0.952896	-1.97506
H	2.01502	-0.959005	-0.642857
H	1.54059	0.447598	1.67913
H	-1.11843	1.17157	1.53196
C	4.7817	-0.240715	1.02884
C	6.058	-0.59194	0.643053
N	6.32836	-0.151614	-0.609756
C	5.22398	0.470412	-0.999693
N	4.26215	0.444113	-0.0469213
H	4.22496	-0.423544	1.96166
H	6.78861	-1.15518	1.24623
H	5.06591	0.962627	-1.97282
H	3.30332	0.865183	-0.114772
