18
  This energy is -1.2017 and Call times are: 85914
C	0.0856903	-1.12164	-0.14486
C	-0.0124347	-0.549967	1.08962
C	-0.100792	0.857469	0.86283
C	-0.048861	1.02162	-0.490215
O	0.0650278	-0.176604	-1.12133
H	0.174459	-2.17493	-0.457819
H	-0.0216684	-1.06747	2.06235
H	-0.192152	1.64817	1.62476
H	-0.083032	1.92663	-1.11873
C	3.75093	-0.0179207	-0.533127
C	4.5299	1.09045	-0.276482
N	5.67877	0.744937	0.353782
C	5.61278	-0.572771	0.487628
N	4.46954	-1.07999	-0.0313489
H	2.76883	-0.122556	-1.02105
H	4.28353	2.13325	-0.534794
H	6.37399	-1.21592	0.957886
H	4.18483	-2.0899	-0.0482621
