18
  This energy is -1.0668 and Call times are: 15563
C	-0.984003	-0.563824	0.015506
C	-0.337791	-0.254202	-1.14506
C	0.846008	0.445453	-0.75877
C	0.818695	0.501616	0.603755
O	-0.291879	-0.109839	1.09341
H	-1.9301	-1.09669	0.205777
H	-0.662194	-0.494405	-2.17032
H	1.62194	0.855574	-1.42497
H	1.51973	0.942256	1.33151
C	4.63514	0.795048	0.0707113
C	4.6403	-0.35687	-0.68705
N	5.79985	-1.0403	-0.529327
C	6.51133	-0.315122	0.32304
N	5.85254	0.801386	0.714189
H	3.87659	1.5844	0.193492
H	3.82812	-0.707081	-1.34475
H	7.52059	-0.555526	0.694317
H	6.20248	1.53256	1.38066
