18
  This energy is -1.4062 and Call times are: 70575
C	0.930595	-0.443631	-0.472847
C	0.718313	-0.457507	0.874416
C	-0.541635	0.18364	1.07833
C	-0.988063	0.532712	-0.162324
O	-0.10147	0.157287	-1.1215
H	1.76454	-0.823647	-1.08552
H	1.38235	-0.877136	1.64711
H	-1.0487	0.359952	2.04056
H	-1.90721	1.04479	-0.491269
C	4.46547	1.10875	0.371025
C	4.84912	0.0231213	1.12955
N	4.90183	-1.10363	0.378445
C	4.55221	-0.718469	-0.841409
N	4.27924	0.606642	-0.897592
H	4.31676	2.16778	0.635404
H	5.08882	0.0326726	2.20533
H	4.47981	-1.36579	-1.73021
H	3.9823	1.14833	-1.74592
