18
  This energy is -0.7477 and Call times are: 112282
C	-0.944696	0.571436	-0.259637
C	0.256557	1.1909	-0.0762633
C	1.1886	0.153283	0.231563
C	0.474628	-1.00866	0.209123
O	-0.829982	-0.771993	-0.0891918
H	-1.94155	0.969226	-0.511235
H	0.465371	2.27026	-0.150335
H	2.26374	0.268177	0.443613
H	0.774622	-2.05462	0.385835
C	6.20107	-0.543934	-0.999291
C	6.86521	-0.603129	0.207592
N	6.2395	0.146961	1.14694
C	5.19118	0.669503	0.525161
N	5.12394	0.282984	-0.77086
H	6.41171	-1.01599	-1.97209
H	7.78464	-1.17363	0.41739
H	4.44082	1.34166	0.971701
H	4.39094	0.560378	-1.46872
