18
  This energy is -0.8515 and Call times are: 89418
C	0.0183514	-0.611827	0.954847
C	-1.11493	-0.448523	0.213647
C	-0.742324	0.371484	-0.894898
C	0.585759	0.636885	-0.733255
O	1.06666	0.0442447	0.391256
H	0.206914	-1.16373	1.89031
H	-2.11314	-0.86384	0.426209
H	-1.3942	0.718357	-1.71272
H	1.29277	1.22594	-1.34022
C	4.47151	-0.42666	0.381142
C	5.17329	0.63615	0.909427
N	6.32026	0.854651	0.221507
C	6.32999	-0.0690946	-0.729925
N	5.23676	-0.866287	-0.675888
H	3.51365	-0.885936	0.672863
H	4.87257	1.24921	1.77463
H	7.11336	-0.206506	-1.49261
H	5.01445	-1.66676	-1.31705
