18
  This energy is -1.2185 and Call times are: 51368
C	0.938456	-0.613558	-0.171017
C	0.94171	0.537841	0.560177
C	-0.405383	1.01251	0.548064
C	-1.11291	0.109274	-0.189462
O	-0.308023	-0.890398	-0.636484
H	1.74632	-1.31758	-0.429787
H	1.80602	1.00595	1.05812
H	-0.793188	1.92182	1.03474
H	-2.17939	0.0657112	-0.465086
C	5.98722	-1.1374	0.0944338
C	6.85341	-0.0744851	-0.0507341
N	6.17893	1.09831	-0.129127
C	4.89918	0.764229	-0.0329582
N	4.73143	-0.572509	0.103375
H	6.1695	-2.21971	0.18886
H	7.95295	-0.132822	-0.100311
H	4.04396	1.45869	-0.0565115
H	3.81866	-1.0816	0.197882
