18
  This energy is -1.1685 and Call times are: 133503
C	0.963321	0.566927	0.192376
C	0.650816	-0.586481	0.849922
C	-0.620788	-0.993564	0.342551
C	-0.973088	-0.0529842	-0.580252
O	-0.017246	0.907451	-0.684861
H	1.84074	1.23109	0.257848
H	1.25513	-1.09919	1.61545
H	-1.19842	-1.88465	0.636482
H	-1.86498	0.0447576	-1.22074
C	5.14309	0.928072	-0.722439
C	5.75959	-0.291715	-0.904613
N	5.49617	-1.13113	0.126165
C	4.7192	-0.43474	0.944693
N	4.47734	0.812968	0.477446
H	5.1314	1.83947	-1.3411
H	6.38974	-0.581138	-1.76135
H	4.29936	-0.790184	1.89948
H	3.89385	1.55188	0.940915
