18
  This energy is -1.0251 and Call times are: 53416
C	-0.973509	0.507499	0.284824
C	0.155554	1.21053	-0.0173922
C	1.15433	0.235195	-0.319508
C	0.547441	-0.977752	-0.17524
O	-0.752294	-0.83031	0.193488
H	-1.98418	0.837477	0.576233
H	0.273262	2.30605	-0.0266443
H	2.2004	0.424142	-0.609574
H	0.926478	-2.00486	-0.304195
C	5.56162	0.527605	0.987904
C	5.42218	1.10619	-0.255857
N	4.98312	0.204839	-1.16762
C	4.85068	-0.928607	-0.492053
N	5.18728	-0.785796	0.811748
H	5.8898	0.943677	1.95368
H	5.63052	2.15786	-0.511671
H	4.51095	-1.89287	-0.903168
H	5.16696	-1.53319	1.54813
