18
  This energy is -1.5291 and Call times are: 101474
C	1.00284	0.524142	-0.0773454
C	0.55675	-0.343567	-1.03047
C	-0.724512	-0.789858	-0.584034
C	-0.948275	-0.155472	0.602498
O	0.0963484	0.650948	0.927244
H	1.93467	1.1079	0.00132433
H	1.07769	-0.639654	-1.95516
H	-1.3945	-1.50077	-1.09376
H	-1.7992	-0.192687	1.30235
C	4.61078	-0.637861	-0.985021
C	5.2975	0.547143	-0.825896
N	5.18832	1.00848	0.443654
C	4.43672	0.113087	1.06974
N	4.06316	-0.89884	0.251177
H	4.47747	-1.29208	-1.86125
H	5.8698	1.0775	-1.60439
H	4.12967	0.149673	2.12739
H	3.46947	-1.72484	0.509087
