18
  This energy is -0.6033 and Call times are: 67303
C	0.895173	-0.647651	-0.256155
C	-0.385634	-1.03326	-0.52301
C	-1.21865	0.0313454	-0.0616932
C	-0.373347	0.973546	0.446342
O	0.92137	0.575422	0.335807
H	1.86149	-1.14674	-0.436121
H	-0.711158	-1.97312	-0.997146
H	-2.31845	0.0810388	-0.107038
H	-0.566081	1.95576	0.908253
C	6.48063	-0.0755883	-0.777087
C	5.28575	-0.762778	-0.811107
N	4.50173	-0.432147	0.243648
C	5.20755	0.456777	0.9294
N	6.40815	0.705445	0.354691
H	7.34845	-0.0867144	-1.45554
H	4.97531	-1.49123	-1.57782
H	4.89271	0.957015	1.85939
H	7.14367	1.36714	0.704595
