18
  This energy is -1.6953 and Call times are: 128766
C	0.329195	-0.734581	0.799013
C	-0.0756853	-1.136	-0.440061
C	-0.4053	0.0588471	-1.14985
C	-0.172744	1.08495	-0.281861
O	0.276239	0.618633	0.913118
H	0.674473	-1.30614	1.67614
H	-0.136165	-2.16981	-0.81647
H	-0.772154	0.135647	-2.186
H	-0.286091	2.17591	-0.392333
C	3.72118	-0.163737	0.947359
C	4.88375	-0.836563	0.636104
N	5.40757	-0.392362	-0.532149
C	4.57313	0.552441	-0.94408
N	3.5401	0.727801	-0.0863526
H	3.03286	-0.253286	1.80277
H	5.35396	-1.63456	1.23356
H	4.6711	1.14725	-1.86649
H	2.75149	1.41246	-0.189194
