18
  This energy is -0.7941 and Call times are: 44073
C	-1.0084	0.435729	-0.28227
C	0.164182	1.0859	-0.53268
C	1.19768	0.232107	-0.039698
C	0.565423	-0.864438	0.468448
O	-0.782144	-0.756959	0.328728
H	-2.05575	0.711942	-0.487237
H	0.288843	2.0682	-1.01606
H	2.28297	0.420804	-0.0648513
H	0.956082	-1.7762	0.949416
C	6.30477	0.463503	1.0767
C	7.32556	0.185994	0.192332
N	6.84452	-0.343828	-0.95849
C	5.53029	-0.394813	-0.788707
N	5.15519	0.0806074	0.422437
H	6.3147	0.89207	2.09148
H	8.40055	0.358577	0.364031
H	4.796	-0.771074	-1.5191
H	4.17535	0.145223	0.792552
