18
  This energy is -1.119 and Call times are: 72364
C	0.310235	0.806854	-0.734263
C	-0.0194289	-0.455387	-1.13231
C	-0.348328	-1.16827	0.0608945
C	-0.190615	-0.278727	1.08276
O	0.211209	0.932496	0.615337
H	0.627717	1.69427	-1.30606
H	-0.0299409	-0.845349	-2.16281
H	-0.664548	-2.22085	0.13948
H	-0.330763	-0.383213	2.1712
C	3.92438	0.656571	0.046656
C	4.6391	0.159344	1.11581
N	5.71077	-0.556452	0.696662
C	5.66107	-0.503486	-0.627479
N	4.6022	0.216338	-1.06822
H	3.01182	1.27201	0.00177491
H	4.4007	0.30426	2.18212
H	6.3748	-0.974083	-1.32272
H	4.34633	0.403433	-2.06861
