18
  This energy is -0.9866 and Call times are: 9623
C	0.406515	0.18955	-1.04174
C	0.710698	-0.93504	-0.332411
C	0.0205936	-0.811029	0.911974
C	-0.644383	0.378395	0.853223
O	-0.419996	1.0028	-0.332854
H	0.710306	0.524254	-2.04719
H	1.35628	-1.76832	-0.653277
H	0.0247305	-1.52904	1.74776
H	-1.3008	0.885648	1.57921
C	4.51174	-0.818137	-0.307235
C	4.43798	0.536266	-0.554816
N	5.52099	1.18318	-0.0597309
C	6.26379	0.233718	0.492885
N	5.6983	-0.990494	0.369934
H	3.82668	-1.64397	-0.556691
H	3.62272	1.05826	-1.0818
H	7.23067	0.379819	1.00086
H	6.08926	-1.89804	0.723158
