18
  This energy is -1.0552 and Call times are: 95708
C	-0.7338	0.792806	0.345539
C	-0.735903	0.300264	-0.926378
C	0.317263	-0.66341	-0.974228
C	0.869971	-0.674685	0.272672
O	0.240433	0.208562	1.09156
H	-1.36555	1.55079	0.837065
H	-1.41133	0.58681	-1.74844
H	0.620747	-1.27259	-1.84077
H	1.70359	-1.25756	0.697621
C	4.33345	0.14761	0.782556
C	4.36283	0.609044	-0.516428
N	5.51657	0.256984	-1.13405
C	6.20033	-0.420283	-0.221687
N	5.52948	-0.51374	0.950835
H	3.57148	0.239982	1.57275
H	3.57222	1.18969	-1.01905
H	7.19705	-0.869553	-0.359346
H	5.85788	-0.997776	1.82211
