18
  This energy is -1.0006 and Call times are: 3882
C	-0.723095	-0.165696	-0.857951
C	-1.02112	0.636907	0.203831
C	0.120859	0.592027	1.06056
C	1.01592	-0.23404	0.446682
O	0.517039	-0.705801	-0.726164
H	-1.30052	-0.43077	-1.75882
H	-1.95178	1.20369	0.367346
H	0.251668	1.11709	2.0204
H	2.02745	-0.56156	0.737862
C	5.11856	-0.393019	-1.08759
C	4.8902	0.913311	-0.710104
N	4.67288	1.00544	0.62436
C	4.76606	-0.239001	1.07303
N	5.03367	-1.11911	0.0793556
H	5.32847	-0.842343	-2.07125
H	4.87836	1.79099	-1.37673
H	4.64706	-0.561707	2.1199
H	5.15362	-2.15688	0.178917
