18
  This energy is -1.1496 and Call times are: 132293
C	0.739456	-0.697889	-0.50255
C	0.31216	0.457743	-1.08762
C	-0.597966	1.05187	-0.160905
C	-0.646492	0.206855	0.908658
O	0.164144	-0.867001	0.717052
H	1.44154	-1.47519	-0.846246
H	0.608174	0.852235	-2.07294
H	-1.14791	1.9986	-0.284847
H	-1.21076	0.256222	1.85439
C	5.28848	0.291954	1.12442
C	4.06729	0.127944	0.505598
N	4.22141	-0.209381	-0.797848
C	5.53322	-0.254467	-0.986924
N	6.22015	0.040189	0.142186
H	5.55168	0.561037	2.15973
H	3.07778	0.246966	0.976275
H	6.04432	-0.497933	-1.9323
H	7.26365	0.0709867	0.249018
