18
  This energy is -0.6454 and Call times are: 61612
C	-0.00972158	1.13129	-0.0805214
C	1.12846	0.397271	-0.242147
C	0.741754	-0.966862	-0.0697678
C	-0.598605	-0.946021	0.181978
O	-1.0741	0.327127	0.179138
H	-0.191598	2.21765	-0.125243
H	2.13899	0.77822	-0.460819
H	1.39283	-1.85386	-0.128215
H	-1.31855	-1.75772	0.377105
C	7.11697	0.195687	-0.824234
C	7.30188	0.20204	0.542115
N	6.14326	-0.0628312	1.19323
C	5.243	-0.232857	0.234467
N	5.78078	-0.0871467	-0.999693
H	7.81828	0.366714	-1.65637
H	8.25055	0.392997	1.06977
H	4.17591	-0.46572	0.380547
H	5.27603	-0.173229	-1.9157
