18
  This energy is -1.1331 and Call times are: 90959
C	-0.175288	0.275723	-1.08612
C	1.05698	0.342639	-0.505249
C	0.874611	-0.0763613	0.848005
C	-0.453003	-0.362335	0.974629
O	-1.10935	-0.152929	-0.196852
H	-0.51412	0.503022	-2.11022
H	1.9998	0.655657	-0.981908
H	1.64792	-0.152801	1.62919
H	-1.04559	-0.718033	1.83345
C	4.56288	0.868314	0.296264
C	4.91678	-0.216774	1.06988
N	5.78853	-1.02086	0.414123
C	5.97472	-0.436833	-0.76183
N	5.25758	0.705526	-0.881479
H	3.88833	1.71653	0.493897
H	4.55873	-0.433867	2.08945
H	6.62548	-0.80304	-1.57216
H	5.23506	1.34532	-1.71299
