18
  This energy is -0.8537 and Call times are: 53673
C	0.0177596	-1.08982	0.31364
C	-1.10874	-0.484519	-0.160668
C	-0.737676	0.865448	-0.443534
C	0.582827	0.965918	-0.117111
O	1.06044	-0.218775	0.347005
H	0.204779	-2.12084	0.656103
H	-2.10143	-0.942693	-0.297609
H	-1.38545	1.66206	-0.843396
H	1.28615	1.81325	-0.168227
C	5.57699	0.168905	1.01176
C	4.41427	0.790679	0.608467
N	4.02724	0.356562	-0.615566
C	4.94635	-0.53115	-0.970285
N	5.90214	-0.679852	-0.0226869
H	6.17605	0.267079	1.93101
H	3.84772	1.54474	1.17877
H	4.96766	-1.10142	-1.91292
H	6.73265	-1.31978	-0.0674689
