18
  This energy is -1.0375 and Call times are: 30520
C	0.836081	-0.716165	-0.272904
C	-0.27964	-1.11857	0.400599
C	-1.08601	0.0502117	0.554923
C	-0.391873	1.06367	-0.037899
O	0.784322	0.613582	-0.548775
H	1.72634	-1.27171	-0.610644
H	-0.511541	-2.13636	0.753347
H	-2.06743	0.118805	1.05111
H	-0.623608	2.13438	-0.160913
C	4.29998	-0.855441	0.635057
C	5.13862	-1.01139	-0.448229
N	5.53037	0.189229	-0.939722
C	4.93701	1.08659	-0.164292
N	4.18398	0.506711	0.800207
H	3.79439	-1.5928	1.27865
H	5.46805	-1.9687	-0.883979
H	5.01979	2.18135	-0.258545
H	3.61933	1.00065	1.53401
