18
  This energy is -1.3244 and Call times are: 75418
C	-0.62539	-0.798498	-0.507631
C	-0.556681	0.481505	-0.973729
C	0.316076	1.17615	-0.0816061
C	0.703652	0.259312	0.8509
O	0.138184	-0.952023	0.606099
H	-1.17456	-1.68142	-0.87384
H	-1.06918	0.895046	-1.85715
H	0.614803	2.23536	-0.135803
H	1.36884	0.342914	1.72599
C	4.56897	0.54716	-0.829165
C	5.87191	0.108763	-0.935515
N	6.28475	-0.479741	0.213283
C	5.24189	-0.406713	1.02921
N	4.18263	0.203861	0.447187
H	3.91129	1.06197	-1.54747
H	6.52148	0.206556	-1.82058
H	5.19981	-0.784494	2.0635
H	3.24559	0.381831	0.884832
