18
  This energy is -0.9843 and Call times are: 4419
C	-0.248371	1.10632	0.0276768
C	0.389123	0.527069	-1.02989
C	0.520936	-0.85573	-0.697309
C	-0.0476448	-0.999417	0.53413
O	-0.522665	0.188756	0.991963
H	-0.559489	2.14758	0.21273
H	0.732136	1.02372	-1.95172
H	0.986469	-1.64438	-1.31001
H	-0.175358	-1.88219	1.18193
C	5.4343	-0.559104	-0.980174
C	4.18039	-0.0590134	-0.699511
N	4.14963	0.524956	0.523005
C	5.37977	0.387667	0.998946
N	6.19196	-0.259449	0.129934
H	5.82794	-1.08933	-1.8619
H	3.29735	-0.109105	-1.35722
H	5.7398	0.742462	1.97809
H	7.20569	-0.489142	0.274309
