18
  This energy is -0.6659 and Call times are: 109403
C	-0.485133	-0.970599	0.330128
C	0.54817	-0.400843	1.01426
C	0.880222	0.790644	0.299965
C	0.0205186	0.843808	-0.757606
O	-0.820354	-0.22387	-0.754785
H	-1.06053	-1.8935	0.510203
H	1.02838	-0.781423	1.93004
H	1.66907	1.51754	0.551812
H	-0.0928593	1.57874	-1.5714
C	6.40341	-0.709785	-0.792387
C	7.02001	-0.091967	0.274971
N	6.13847	0.65507	0.983025
C	4.9794	0.501278	0.357303
N	5.08691	-0.312644	-0.719526
H	6.79522	-1.38154	-1.57262
H	8.08516	-0.171861	0.546847
H	4.02068	0.961907	0.645259
H	4.31456	-0.588593	-1.37418
