18
  This energy is -0.5776 and Call times are: 133759
C	0.194885	-0.841673	0.734851
C	1.18583	-0.288468	-0.0216909
C	0.557504	0.723938	-0.809315
C	-0.761942	0.700027	-0.464549
O	-1.00123	-0.250099	0.477263
H	0.211696	-1.651	1.48316
H	2.25229	-0.565533	-0.0248009
H	1.03993	1.3879	-1.54452
H	-1.61939	1.29937	-0.812144
C	6.89275	0.8669	-0.0715871
C	5.64522	0.932504	0.511954
N	4.99676	-0.253376	0.413499
C	5.83879	-1.05163	-0.228679
N	6.99614	-0.422814	-0.542902
H	7.68776	1.62155	-0.181158
H	5.20143	1.81427	1.00225
H	5.65837	-2.10567	-0.494538
H	7.816	-0.838538	-1.04911
