18
  This energy is -1.3708 and Call times are: 110737
C	-1.08884	-0.182176	-0.260076
C	-0.460734	0.997867	-0.530918
C	0.879797	0.84376	-0.0625736
C	0.952531	-0.416852	0.453122
O	-0.240676	-1.05768	0.340854
H	-2.12249	-0.51898	-0.442813
H	-0.897582	1.88759	-1.01222
H	1.68896	1.59024	-0.108556
H	1.7841	-0.968082	0.92204
C	4.94017	-0.813952	0.535908
C	6.25314	-0.945209	0.135888
N	6.70131	0.191467	-0.450304
C	5.67029	1.02472	-0.414079
N	4.58469	0.465332	0.170862
H	4.25643	-1.51692	1.03777
H	6.88509	-1.83972	0.259744
H	5.65592	2.05612	-0.801683
H	3.65025	0.919599	0.318224
