18
  This energy is -2.0657 and Call times are: 83173
C	-0.484523	-0.320282	-0.974196
C	-0.304759	0.990908	-0.64429
C	0.326872	0.98871	0.636785
C	0.477331	-0.32363	0.976637
O	-0.0126993	-1.13693	0.00431039
H	-0.929281	-0.79604	-1.86363
H	-0.588486	1.87133	-1.243
H	0.630242	1.86709	1.22883
H	0.911425	-0.802447	1.86969
C	3.41334	0.484231	-0.729229
C	4.33434	-0.494561	-1.03723
N	5.08351	-0.818379	0.0446215
C	4.629	-0.0434211	1.02006
N	3.62169	0.760054	0.603699
H	2.64986	0.987233	-1.34375
H	4.47169	-0.972902	-2.02068
H	4.99795	-0.0237406	2.05819
H	3.09901	1.4598	1.18543
