18
  This energy is -0.6817 and Call times are: 126716
C	0.671976	0.0896729	0.90929
C	-2.73918e-05	1.15677	0.389584
C	-0.727233	0.65253	-0.73159
C	-0.43542	-0.678185	-0.798045
O	0.41768	-1.03912	0.196421
H	1.35324	0.00424888	1.77175
H	0.0148711	2.19485	0.758718
H	-1.38827	1.22193	-1.40458
H	-0.765994	-1.46521	-1.49559
C	6.40544	0.145223	-0.37683
C	5.51692	-0.830995	-0.775161
N	4.32889	-0.700478	-0.136364
C	4.47982	0.352704	0.655249
N	5.71463	0.897704	0.54661
H	7.44575	0.350848	-0.675196
H	5.7118	-1.62717	-1.51204
H	3.71827	0.76766	1.33502
H	6.07677	1.73412	1.06673
