18
  This energy is -0.7255 and Call times are: 73220
C	-0.412772	0.655087	-0.828783
C	0.653392	-0.174722	-1.01609
C	0.870096	-0.822156	0.238496
C	-0.0827736	-0.330832	1.08171
O	-0.874969	0.572527	0.446588
H	-0.930847	1.34586	-1.51412
H	1.22945	-0.316669	-1.94458
H	1.64758	-1.56589	0.476132
H	-0.299327	-0.540904	2.14201
C	6.74281	0.821381	-0.0101901
C	6.85929	-0.478275	0.43531
N	5.6888	-1.1478	0.300445
C	4.84936	-0.266852	-0.226718
N	5.43723	0.935441	-0.43286
H	7.47225	1.64567	-0.0548653
H	7.76694	-0.94486	0.851632
H	3.79304	-0.449555	-0.481732
H	4.98469	1.79141	-0.837558
