18
  This energy is -1.2216 and Call times are: 94842
C	0.498026	-0.386766	0.942753
C	-0.788629	-0.699423	0.615435
C	-1.04999	-0.0346597	-0.621456
C	0.100023	0.625541	-0.940794
O	1.05596	0.421598	0.00345765
H	1.12315	-0.672254	1.80471
H	-1.48393	-1.33447	1.1876
H	-1.98822	-0.051812	-1.19897
H	0.361486	1.26501	-1.79985
C	5.00729	-0.510321	-1.05644
C	6.11465	0.129079	-0.540644
N	5.8699	0.601096	0.705874
C	4.61546	0.255834	0.962406
N	4.05192	-0.416295	-0.0692168
H	4.83717	-1.00896	-2.02389
H	7.08583	0.258273	-1.0456
H	4.06046	0.470054	1.88994
H	3.0736	-0.793852	-0.109369
