18
  This energy is -0.8988 and Call times are: 59365
C	-0.974852	-0.399895	-0.419702
C	-0.869717	0.0800545	0.852685
C	0.491421	0.484642	1.00674
C	1.0979	0.216215	-0.185113
O	0.217263	-0.324316	-1.0679
H	-1.83059	-0.817515	-0.975182
H	-1.67035	0.142876	1.6071
H	0.955955	0.923525	1.90433
H	2.13605	0.361538	-0.526248
C	5.50841	-0.889347	0.706426
C	5.23705	-0.960708	-0.643543
N	4.91342	0.257231	-1.14194
C	4.98375	1.08104	-0.105106
N	5.3387	0.437744	1.03233
H	5.80053	-1.66321	1.43398
H	5.26898	-1.86918	-1.26684
H	4.78534	2.1648	-0.123104
H	5.46128	0.867957	1.98162
