18
  This energy is -1.7477 and Call times are: 56213
C	0.291368	-0.623292	-0.901672
C	-0.612019	-1.05581	0.0241758
C	-0.711902	-0.00962589	0.99146
C	0.139265	0.969847	0.571316
O	0.760353	0.611902	-0.583299
H	0.680054	-1.09425	-1.81948
H	-1.15372	-2.01532	0.0258067
H	-1.34644	0.0032884	1.89217
H	0.388975	1.95456	0.999385
C	3.52401	-0.00812199	1.02628
C	4.51179	0.872337	0.6387
N	4.95582	0.589661	-0.610077
C	4.2462	-0.462162	-0.995733
N	3.36907	-0.860445	-0.0441015
H	2.93985	-0.0858821	1.95701
H	4.91203	1.70648	1.23775
H	4.32854	-0.98022	-1.96479
H	2.6987	-1.66519	-0.109255
