18
  This energy is -1.2466 and Call times are: 103076
C	-0.596702	0.661276	-0.702183
C	0.274421	1.16957	0.216049
C	0.823576	0.0422367	0.899904
C	0.239556	-1.05544	0.339196
O	-0.630601	-0.695967	-0.640914
H	-1.24348	1.1534	-1.447
H	0.506963	2.23182	0.393967
H	1.56655	0.05663	1.71346
H	0.356875	-2.1319	0.545897
C	4.7944	0.0507616	-1.17579
C	5.13093	-1.03544	-0.396012
N	5.02623	-0.741417	0.922737
C	4.62628	0.522389	0.960928
N	4.47216	1.04467	-0.278855
H	4.7625	0.182406	-2.26904
H	5.44739	-2.02602	-0.76133
H	4.43119	1.11382	1.86998
H	4.1656	2.02076	-0.512343
