18
  This energy is -1.2107 and Call times are: 134769
C	-0.966552	0.432258	-0.406608
C	-0.313225	-0.597699	-1.01712
C	0.843041	-0.855095	-0.219051
C	0.794219	0.0402933	0.808699
O	-0.304284	0.834368	0.709958
H	-1.89871	0.961598	-0.663784
H	-0.615236	-1.12344	-1.93716
H	1.61577	-1.62009	-0.397293
H	1.47089	0.211493	1.66196
C	5.87542	-1.05771	-0.200818
C	6.4662	0.169422	-0.415914
N	5.63086	1.18045	-0.0745497
C	4.52605	0.582811	0.350702
N	4.62381	-0.766568	0.294062
H	6.24476	-2.08334	-0.359595
H	7.48023	0.343386	-0.8113
H	3.61557	1.0856	0.714649
H	3.88662	-1.45906	0.573831
