18
  This energy is -1.0804 and Call times are: 78463
C	-0.778061	0.817118	-0.115503
C	-0.574263	0.164113	1.06451
C	0.469904	-0.777945	0.814788
C	0.812006	-0.617456	-0.495778
O	0.0599355	0.352536	-1.07932
H	-1.47933	1.6205	-0.394872
H	-1.1059	0.32925	2.0154
H	0.908817	-1.48844	1.53357
H	1.56359	-1.12485	-1.12261
C	5.8817	0.77192	-0.10879
C	4.77096	0.892862	0.699157
N	3.95745	-0.183938	0.575829
C	4.56121	-0.969908	-0.305277
N	5.72516	-0.437833	-0.74768
H	6.74371	1.43887	-0.268977
H	4.54199	1.7378	1.36886
H	4.1947	-1.94593	-0.662051
H	6.383	-0.865395	-1.44459
