18
  This energy is -0.8088 and Call times are: 52162
C	0.448255	-0.45166	-0.938867
C	-0.275551	0.704241	-0.958125
C	-0.663658	0.94513	0.39519
C	-0.142758	-0.084832	1.12197
O	0.539406	-0.947266	0.323305
H	0.944705	-1.01691	-1.74465
H	-0.512401	1.32498	-1.83715
H	-1.26125	1.78978	0.774067
H	-0.186321	-0.31491	2.1992
C	6.30506	-0.606976	0.444444
C	6.36135	0.61355	-0.194533
N	5.12733	1.02158	-0.578236
C	4.30861	0.0578426	-0.178817
N	4.97055	-0.946462	0.443118
H	7.09392	-1.23697	0.885304
H	7.27026	1.20705	-0.385561
H	3.21548	0.0369929	-0.316179
H	4.54772	-1.81773	0.847302
