18
  This energy is -1.2086 and Call times are: 64321
C	-0.0958946	-1.10292	0.246505
C	0.594419	-0.654916	-0.841213
C	0.488955	0.76921	-0.811867
C	-0.256495	1.06575	0.291194
O	-0.622203	-0.065641	0.949396
H	-0.283725	-2.12125	0.624647
H	1.1247	-1.266	-1.58919
H	0.921204	1.48184	-1.53257
H	-0.591069	2.02896	0.710169
C	5.78809	0.375747	0.517281
C	4.49553	0.595161	0.944225
N	3.59979	0.0174766	0.107301
C	4.33387	-0.558129	-0.835265
N	5.65955	-0.37063	-0.632756
H	6.75795	0.687518	0.93647
H	4.19323	1.15995	1.84115
H	3.95178	-1.12942	-1.69658
H	6.44064	-0.7261	-1.23674
