18
  This energy is -0.7253 and Call times are: 63980
C	0.31804	1.08656	0.068171
C	-0.991908	0.711293	0.00828671
C	-0.986932	-0.714965	-0.0684055
C	0.325618	-1.08536	-0.0486162
O	1.13649	0.00210877	0.0345277
H	0.791678	2.07969	0.13602
H	-1.87327	1.37251	0.017222
H	-1.86367	-1.37944	-0.130755
H	0.80618	-2.07672	-0.0874764
C	6.45687	-0.150421	0.155318
C	5.5067	-1.1383	0.00557349
N	4.27018	-0.606927	-0.153044
C	4.45254	0.705609	-0.101896
N	5.75384	1.03139	0.0826898
H	7.5472	-0.203019	0.303482
H	5.69123	-2.22494	0.00914338
H	3.66773	1.47361	-0.193974
H	6.15147	1.99974	0.156428
