18
  This energy is -0.5792 and Call times are: 77783
C	-0.833636	-0.240388	0.730525
C	-1.07783	0.182308	-0.543081
C	0.203742	0.378283	-1.14249
C	1.11795	0.0580442	-0.182258
O	0.502006	-0.321958	0.968056
H	-1.51448	-0.511887	1.55392
H	-2.06173	0.340259	-1.01328
H	0.411053	0.718392	-2.16984
H	2.22028	0.0592252	-0.192874
C	7.31835	-0.246062	-0.271739
C	6.63661	0.919846	-0.549302
N	5.3623	0.861477	-0.091881
C	5.2539	-0.336088	0.467326
N	6.40642	-1.04211	0.384672
H	8.35338	-0.555299	-0.487674
H	7.0414	1.80211	-1.07142
H	4.35334	-0.746671	0.951718
H	6.57348	-2.01126	0.750857
