18
  This energy is -0.8951 and Call times are: 72680
C	0.758724	0.506023	-0.6743
C	0.746997	-0.842644	-0.470993
C	-0.337047	-1.09365	0.424532
C	-0.892068	0.123796	0.689412
O	-0.235442	1.11205	0.0266832
H	1.41406	1.14748	-1.28612
H	1.43291	-1.58614	-0.907823
H	-0.658741	-2.07045	0.820085
H	-1.74508	0.416015	1.32363
C	4.53507	0.640042	-0.624758
C	5.01393	0.922411	0.637028
N	5.88135	-0.0311403	1.05517
C	5.94038	-0.901755	0.0565886
N	5.14648	-0.541676	-0.979588
H	3.82612	1.17844	-1.27365
H	4.74908	1.79709	1.25317
H	6.54882	-1.82013	0.03183
H	5.02068	-1.06331	-1.88144
