18
  This energy is -1.7161 and Call times are: 63776
C	0.480519	-1.02139	-0.110702
C	-0.357591	-0.502427	-1.05337
C	-0.751735	0.77979	-0.56277
C	-0.119687	0.931177	0.636384
O	0.637108	-0.159295	0.928179
H	1.02218	-1.98031	-0.06236
H	-0.667207	-0.975122	-1.9993
H	-1.42771	1.49891	-1.0527
H	-0.126434	1.75634	1.36735
C	3.81634	0.175806	1.05842
C	3.70841	0.993133	-0.0467773
N	4.39381	0.484545	-1.09943
C	4.92494	-0.644005	-0.648971
N	4.60588	-0.874559	0.646651
H	3.40104	0.26434	2.0749
H	3.14826	1.94069	-0.103487
H	5.55574	-1.33953	-1.22566
H	4.90328	-1.6968	1.22694
