18
  This energy is -1.5545 and Call times are: 62642
C	-0.629317	0.186804	0.924914
C	-0.0900943	1.2022	0.191028
C	0.622669	0.576853	-0.877162
C	0.456086	-0.765477	-0.701735
O	-0.305868	-1.02174	0.39406
H	-1.25359	0.192927	1.83348
H	-0.184764	2.28313	0.382667
H	1.19051	1.07653	-1.6784
H	0.823551	-1.62946	-1.27945
C	5.0904	-0.739561	-0.46196
C	4.08868	-1.05203	0.432504
N	3.36141	0.0451846	0.754536
C	3.90986	1.03457	0.0624839
N	4.95595	0.612355	-0.686529
H	5.86363	-1.36278	-0.938672
H	3.87769	-2.04951	0.851258
H	3.5849	2.08748	0.0672629
H	5.55118	1.20243	-1.31801
