18
  This energy is -1.1675 and Call times are: 59003
C	-0.992395	0.318731	0.447173
C	-0.867777	-0.788252	-0.339867
C	0.511663	-0.855712	-0.704164
C	1.10823	0.216003	-0.107581
O	0.204523	0.944161	0.599607
H	-1.86621	0.762024	0.952331
H	-1.66706	-1.48719	-0.634348
H	0.994557	-1.61736	-1.33726
H	2.15376	0.565432	-0.109306
C	4.88537	0.139039	1.09263
C	5.94461	0.809091	0.518011
N	6.14815	0.398977	-0.757484
C	5.21872	-0.521995	-0.973327
N	4.43224	-0.714867	0.111961
H	4.43692	0.207161	2.09652
H	6.56562	1.5811	1.00092
H	5.06937	-1.08623	-1.90797
H	3.63012	-1.38685	0.191258
