18
  This energy is -2.4644 and Call times are: 20932
C	-0.345541	0.421944	-0.994468
C	0.168405	-0.835682	-0.873592
C	0.483071	-0.998143	0.510138
C	0.133635	0.174546	1.11269
O	-0.374156	1.0532	0.208739
H	-0.721525	0.977105	-1.8695
H	0.31157	-1.57481	-1.67813
H	0.918715	-1.88828	0.991765
H	0.195476	0.503658	2.16298
C	3.95483	0.549453	-0.816673
C	5.32809	0.428585	-0.790364
N	5.73647	-0.268875	0.297428
C	4.6208	-0.57951	0.943497
N	3.51948	-0.108609	0.311871
H	3.27911	1.0408	-1.53467
H	6.03154	0.832138	-1.53679
H	4.55313	-1.15024	1.88367
H	2.5237	-0.223006	0.622639
