18
  This energy is -0.9428 and Call times are: 136857
C	0.894122	-0.696395	0.0445008
C	0.0240707	-0.690986	-1.00591
C	-0.952026	0.305889	-0.699976
C	-0.592286	0.821655	0.510373
O	0.532943	0.221169	0.979722
H	1.79692	-1.29707	0.242954
H	0.0654853	-1.32535	-1.90588
H	-1.81789	0.598112	-1.31559
H	-1.04763	1.60803	1.1345
C	5.20618	0.430627	1.078
C	4.33925	0.461783	0.00627025
N	4.88857	-0.126818	-1.08382
C	6.09171	-0.521623	-0.689857
N	6.33067	-0.208625	0.605718
H	5.10583	0.80561	2.10895
H	3.32724	0.898423	5.82872e-05
H	6.83804	-1.04435	-1.30951
H	7.20582	-0.413818	1.14726
