18
  This energy is -1.3457 and Call times are: 134865
C	0.610447	-0.147334	0.944483
C	-0.437191	-0.957454	0.618088
C	-0.943925	-0.460975	-0.621608
C	-0.161211	0.608708	-0.943338
O	0.793202	0.814632	0.00202101
H	1.29597	-0.150751	1.80779
H	-0.815217	-1.8183	1.19267
H	-1.79296	-0.860343	-1.19931
H	-0.180758	1.29609	-1.80495
C	3.91902	-0.317476	-0.905852
C	3.93629	-0.87934	0.353177
N	4.8449	-0.26571	1.14967
C	5.38923	0.673262	0.387663
N	4.86463	0.682507	-0.860655
H	3.3207	-0.550693	-1.80093
H	3.30942	-1.71649	0.701112
H	6.17599	1.38154	0.693585
H	5.12805	1.32838	-1.6447
