18
  This energy is -1.7825 and Call times are: 44009
C	0.325211	-0.767406	0.769238
C	-0.022231	0.506711	1.11024
C	-0.36635	1.15883	-0.113046
C	-0.198817	0.225653	-1.0936
O	0.223169	-0.956555	-0.572709
H	0.658302	-1.62265	1.37986
H	-0.0349202	0.943519	2.12174
H	-0.698895	2.20179	-0.238584
H	-0.344533	0.277771	-2.18506
C	3.86368	-0.904423	0.750371
C	3.3783	0.358522	1.01593
N	3.45464	1.15179	-0.0801584
C	3.98537	0.38389	-1.02211
N	4.24987	-0.865087	-0.570801
H	3.95844	-1.79856	1.38683
H	2.97438	0.71155	1.97877
H	4.20167	0.685793	-2.05956
H	4.66923	-1.65331	-1.12225
