18
  This energy is -1.0291 and Call times are: 125277
C	-0.502411	0.797887	0.630365
C	-0.989844	-0.472469	0.535602
C	-0.0976978	-1.16963	-0.33512
C	0.856157	-0.263759	-0.695577
O	0.624597	0.943091	-0.115141
H	-0.860871	1.67882	1.18779
H	-1.88758	-0.87793	1.02933
H	-0.166192	-2.2231	-0.650725
H	1.73903	-0.352864	-1.34967
C	5.68359	-0.925982	0.120029
C	6.11107	-0.0756681	1.11771
N	6.93047	0.884138	0.623877
C	7.01101	0.630227	-0.675225
N	6.27683	-0.451348	-1.02844
H	5.0213	-1.80591	0.1452
H	5.84294	-0.13753	2.18501
H	7.59344	1.20461	-1.41353
H	6.17828	-0.852018	-1.99333
