18
  This energy is -1.9505 and Call times are: 15691
C	-0.955062	0.534224	0.298098
C	-0.5798	-0.654527	0.851653
C	0.657867	-1.00227	0.22926
C	0.929669	0.00468301	-0.649688
O	-0.0448352	0.95153	-0.62079
H	-1.83493	1.1756	0.470489
H	-1.12032	-1.22891	1.62108
H	1.26775	-1.89987	0.420175
H	1.77189	0.162215	-1.3433
C	4.65977	-1.17503	-0.0526273
C	5.53923	-0.346579	-0.716978
N	5.3	0.954923	-0.424792
C	4.27602	0.933963	0.417619
N	3.85381	-0.326924	0.673544
H	4.55395	-2.27152	-0.0454584
H	6.34208	-0.664641	-1.40189
H	3.79614	1.81297	0.877295
H	3.06315	-0.605397	1.30486
