18
  This energy is -1.0964 and Call times are: 30552
C	0.97489	-0.51608	0.263914
C	0.701867	-0.0709243	-0.996113
C	-0.600228	0.512546	-0.931081
C	-1.00795	0.372433	0.362945
O	-0.0583732	-0.253632	1.10683
H	1.85625	-1.02848	0.683319
H	1.35216	-0.145911	-1.88245
H	-1.16022	0.97989	-1.75697
H	-1.93832	0.671879	0.872836
C	5.98435	-0.552401	-0.681725
C	4.78575	0.000519864	-1.08022
N	4.13226	0.557873	-0.0319811
C	4.92243	0.351504	1.01284
N	6.0516	-0.314051	0.672843
H	6.76806	-1.08099	-1.24734
H	4.38081	0.00727239	-2.10532
H	4.72252	0.666798	2.0496
H	6.83	-0.59498	1.31816
