18
  This energy is -1.192 and Call times are: 18208
C	0.945374	-0.566147	0.268601
C	-0.0287641	-0.295186	1.18403
C	-1.04173	0.42141	0.476559
C	-0.597174	0.525091	-0.808742
O	0.614804	-0.0724929	-0.953709
H	1.90819	-1.09512	0.36042
H	-0.0335334	-0.572149	2.2505
H	-1.98804	0.810518	0.885442
H	-1.0438	0.993194	-1.7013
C	5.15484	-1.01091	-0.235178
C	4.72858	-0.0692111	-1.14768
N	4.12571	0.974155	-0.527632
C	4.17778	0.68085	0.764608
N	4.78878	-0.505886	0.992478
H	5.67541	-1.97261	-0.368123
H	4.84523	-0.123937	-2.24232
H	3.78374	1.29989	1.58665
H	4.95247	-0.955599	1.92641
