18
  This energy is -2.6862 and Call times are: 20258
C	-0.417781	-0.997172	0.342795
C	0.372064	-0.222918	1.14095
C	0.693218	0.934695	0.36835
C	0.0712758	0.765651	-0.833725
O	-0.611813	-0.408788	-0.86682
H	-0.898048	-1.97413	0.5164
H	0.696036	-0.444724	2.17048
H	1.3157	1.78888	0.679758
H	0.0378627	1.39939	-1.73512
C	4.04484	0.191986	1.10548
C	5.26513	0.527571	0.558298
N	5.33512	0.157889	-0.743604
C	4.1627	-0.404895	-1.0031
N	3.34965	-0.40862	0.079733
H	3.6356	0.333354	2.11844
H	6.09632	1.02981	1.07958
H	3.84723	-0.8307	-1.96922
H	2.37532	-0.79535	0.128581
