18
  This energy is -1.5532 and Call times are: 84578
C	0.250829	0.40498	1.02931
C	-0.649668	1.01287	0.204719
C	-0.692426	0.21806	-0.981267
C	0.185715	-0.805366	-0.776721
O	0.770791	-0.706949	0.445986
H	0.604155	0.661154	2.04163
H	-1.22599	1.92907	0.410939
H	-1.30849	0.395487	-1.87741
H	0.479549	-1.6551	-1.41459
C	4.61446	-0.143592	-1.16249
C	5.49051	-0.568119	-0.186034
N	5.04471	-0.233761	1.04927
C	3.89646	0.3958	0.839964
N	3.59319	0.47587	-0.477308
H	4.64451	-0.235402	-2.25985
H	6.43626	-1.10968	-0.35074
H	3.23756	0.818252	1.6156
H	2.74222	0.924385	-0.896757
