18
  This energy is -0.882 and Call times are: 9822
C	-0.323251	-1.07463	-0.164573
C	0.255234	-0.327131	-1.14792
C	0.515212	0.950989	-0.565742
C	0.0726473	0.871705	0.721978
O	-0.442482	-0.358294	0.984192
H	-0.689874	-2.11423	-0.156432
H	0.476661	-0.643999	-2.17975
H	0.978288	1.82213	-1.05643
H	0.0677595	1.61048	1.54017
C	6.23974	0.359862	0.610308
C	6.24293	-0.332674	-0.581971
N	4.98006	-0.584948	-1.00389
C	4.19639	-0.0509469	-0.0768818
N	4.9083	0.530637	0.917371
H	7.06326	0.730875	1.24095
H	7.13384	-0.654822	-1.14531
H	3.09449	-0.0572116	-0.0768573
H	4.51999	1.01866	1.76135
