18
  This energy is -1.1559 and Call times are: 90180
C	-0.774315	0.399405	-0.726163
C	-0.878859	0.574487	0.622463
C	0.268475	-0.0599762	1.18921
C	0.972855	-0.566761	0.13688
O	0.350556	-0.295494	-1.04048
H	-1.42535	0.716753	-1.55724
H	-1.68323	1.09791	1.16386
H	0.530545	-0.126282	2.25739
H	1.91822	-1.13221	0.094369
C	5.34208	-0.880313	-0.562396
C	4.39806	-0.0216982	-1.08464
N	3.98497	0.874019	-0.155364
C	4.67012	0.57223	0.939221
N	5.50202	-0.478375	0.744912
H	5.893	-1.72087	-1.01348
H	4.00762	-0.0324755	-2.11532
H	4.60125	1.08818	1.91045
H	6.14614	-0.905392	1.45486
