18
  This energy is -0.9477 and Call times are: 90596
C	0.188834	-1.10011	0.20124
C	0.245864	-0.566661	-1.05277
C	-0.0450399	0.823355	-0.899971
C	-0.254156	1.01662	0.433931
O	-0.115337	-0.147424	1.1215
H	0.342797	-2.12904	0.565742
H	0.470271	-1.09864	-1.99125
H	-0.0910259	1.58339	-1.69642
H	-0.504957	1.92176	1.01105
C	4.00016	0.0453142	-0.416409
C	5.03859	-0.719799	-0.903659
N	6.16911	-0.525523	-0.182069
C	5.8333	0.356758	0.749294
N	4.53598	0.731903	0.650212
H	2.95274	0.146422	-0.742336
H	4.99233	-1.40852	-1.76294
H	6.49847	0.762167	1.52867
H	4.03396	1.41554	1.26818
