18
  This energy is -1.1338 and Call times are: 61676
C	0.436851	-0.588612	-0.865505
C	1.15363	-0.30302	0.259234
C	0.27478	0.440644	1.10463
C	-0.901471	0.543847	0.421878
O	-0.820365	-0.0790403	-0.783296
H	0.703877	-1.13916	-1.78248
H	2.19661	-0.587499	0.472204
H	0.500876	0.847396	2.1034
H	-1.85728	1.02803	0.681194
C	5.26357	0.19544	-1.15251
C	6.24126	-0.570006	-0.553042
N	6.09844	-0.577197	0.794572
C	5.03619	0.180906	1.03023
N	4.49722	0.670155	-0.111582
H	5.06554	0.428174	-2.21089
H	7.04714	-1.11721	-1.06876
H	4.61006	0.410789	2.02007
H	3.65585	1.29253	-0.18913
