18
  This energy is -1.2146 and Call times are: 44457
C	-0.453567	0.537607	0.889751
C	0.565341	1.07047	0.156093
C	0.857188	0.111856	-0.861746
C	-0.00914024	-0.922184	-0.660223
O	-0.816987	-0.679035	0.40527
H	-0.999577	0.919458	1.768
H	1.06163	2.04121	0.315661
H	1.62475	0.191564	-1.64825
H	-0.149075	-1.87415	-1.1982
C	5.42384	-0.958348	0.535747
C	4.17013	-0.407186	0.695697
N	4.01907	0.695828	-0.076995
C	5.17467	0.828441	-0.713881
N	6.05474	-0.144472	-0.378449
H	5.89595	-1.84265	0.992543
H	3.37188	-0.785651	1.3548
H	5.42978	1.61996	-1.43683
H	7.03157	-0.257309	-0.744959
