18
  This energy is -1.2325 and Call times are: 82384
C	-0.678791	-0.551244	-0.722339
C	-0.262313	-1.10236	0.453755
C	0.564615	-0.117757	1.07575
C	0.580461	0.948111	0.224837
O	-0.173618	0.700734	-0.878423
H	-1.32697	-0.94206	-1.52382
H	-0.512333	-2.10195	0.844131
H	1.08322	-0.202175	2.04426
H	1.08287	1.92727	0.288793
C	3.92765	0.255025	-0.612033
C	4.58026	1.07498	0.284024
N	5.66825	0.459144	0.807032
C	5.69051	-0.738301	0.237599
N	4.66179	-0.909891	-0.62604
H	3.02293	0.412792	-1.22043
H	4.28556	2.09989	0.562514
H	6.43764	-1.52812	0.417088
H	4.46158	-1.76702	-1.19744
