18
  This energy is -0.9167 and Call times are: 35039
C	0.559026	0.0872724	0.982993
C	-0.792828	0.24574	0.894943
C	-1.11873	0.0647906	-0.483884
C	0.0627466	-0.188279	-1.1167
O	1.09784	-0.178344	-0.236079
H	1.24663	0.13829	1.84314
H	-1.49053	0.467782	1.71835
H	-2.11935	0.118642	-0.942086
H	0.296897	-0.389034	-2.17506
C	5.87821	-0.835828	0.284392
C	5.72929	-0.227222	-0.943845
N	4.73403	0.692127	-0.91616
C	4.26729	0.654005	0.324535
N	4.92432	-0.25149	1.08741
H	6.57232	-1.61733	0.63223
H	6.32215	-0.435007	-1.84949
H	3.44561	1.26769	0.727598
H	4.74185	-0.467293	2.09805
