18
  This energy is -1.0945 and Call times are: 49852
C	-0.900976	0.137912	0.674998
C	-0.421579	1.1395	-0.117075
C	0.701862	0.589134	-0.80635
C	0.809808	-0.700185	-0.374635
O	-0.160972	-0.992787	0.530341
H	-1.75013	0.104027	1.37717
H	-0.819184	2.16318	-0.206947
H	1.34849	1.10126	-1.5369
H	1.52381	-1.49985	-0.631525
C	5.1172	0.807393	-0.848218
C	4.40369	-0.370291	-0.91966
N	4.48424	-1.06171	0.243081
C	5.24483	-0.315794	1.03285
N	5.65156	0.82156	0.420817
H	5.27718	1.60963	-1.58602
H	3.83221	-0.733473	-1.78935
H	5.53517	-0.555208	2.06852
H	6.25835	1.57132	0.834238
