18
  This energy is -1.1183 and Call times are: 62804
C	0.359793	0.905134	0.581105
C	0.795622	0.626933	-0.681049
C	0.126186	-0.573293	-1.07019
C	-0.65963	-0.922581	-0.0114786
O	-0.529413	-0.0308064	1.00577
H	0.603272	1.7272	1.27405
H	1.51623	1.20856	-1.27814
H	0.224561	-1.10727	-2.02898
H	-1.34761	-1.77051	0.140022
C	4.01383	-0.358854	0.276695
C	4.92452	-1.01737	-0.522153
N	6.07927	-0.315954	-0.627309
C	5.88571	0.77356	0.103525
N	4.65566	0.794441	0.669327
H	2.98865	-0.620587	0.583336
H	4.76903	-1.98603	-1.02452
H	6.61142	1.58819	0.25831
H	4.26528	1.54599	1.28903
