18
  This energy is -1.0452 and Call times are: 121988
C	0.742664	0.579616	-0.631582
C	-0.478193	0.198318	-1.10539
C	-1.11358	-0.498756	-0.032782
C	-0.224907	-0.481893	1.0018
O	0.914185	0.172547	0.653675
H	1.56848	1.13701	-1.10338
H	-0.890006	0.388818	-2.10949
H	-2.11598	-0.956181	-0.0398985
H	-0.283168	-0.894412	2.02243
C	5.1046	-0.891649	-0.65296
C	5.03722	-0.837738	0.723157
N	4.51643	0.341521	1.14105
C	4.26168	1.01662	0.0284071
N	4.5988	0.315793	-1.0801
H	5.46467	-1.67758	-1.33575
H	5.35507	-1.62861	1.42197
H	3.82846	2.02802	-0.0318462
H	4.49471	0.631977	-2.07531
