18
  This energy is -0.7811 and Call times are: 94232
C	-0.819797	0.589042	-0.517072
C	0.472531	0.598401	-0.953163
C	1.19338	-0.249706	-0.0580628
C	0.277924	-0.702462	0.845994
O	-0.956767	-0.200263	0.580767
H	-1.72295	1.095	-0.895987
H	0.877561	1.14746	-1.81837
H	2.26844	-0.48896	-0.0912816
H	0.377768	-1.37656	1.71252
C	5.4998	-1.16201	0.157416
C	4.89068	-0.171091	0.89782
N	5.22833	1.05875	0.439573
C	6.04381	0.831657	-0.581233
N	6.23902	-0.491701	-0.791487
H	5.46084	-2.26012	0.236003
H	4.21363	-0.321514	1.75445
H	6.52607	1.59807	-1.20914
H	6.83916	-0.924624	-1.53558
