18
  This energy is -0.6308 and Call times are: 69420
C	0.974441	-0.235784	0.53035
C	-0.214559	-0.146344	1.19266
C	-1.19358	0.160338	0.198885
C	-0.516416	0.231233	-0.982978
O	0.80872	-0.00803729	-0.799191
H	1.99505	-0.452517	0.886218
H	-0.385095	-0.282656	2.27267
H	-2.2741	0.309084	0.355193
H	-0.858016	0.441217	-2.00985
C	5.12273	-0.457069	-0.125148
C	5.51131	0.510848	0.776674
N	6.82822	0.801821	0.644008
C	7.25498	0.0173983	-0.336387
N	6.2642	-0.760616	-0.833015
H	4.14722	-0.935388	-0.307205
H	4.86504	1.00445	1.52068
H	8.28312	-0.0275597	-0.730264
H	6.34935	-1.46152	-1.60938
