18
  This energy is -0.631 and Call times are: 30617
C	-0.206638	-1.07576	-0.294006
C	-1.135	-0.299205	0.334857
C	-0.511848	0.970312	0.535159
C	0.742311	0.857469	0.0110154
O	0.94582	-0.38543	-0.499668
H	-0.243112	-2.12077	-0.643118
H	-2.15619	-0.591085	0.628253
H	-0.953813	1.85844	1.01473
H	1.5729	1.57887	-0.0593959
C	6.12266	-0.414309	0.83139
C	4.79983	-0.0580312	0.987373
N	4.27059	0.379472	-0.180962
C	5.26132	0.294931	-1.05841
N	6.399	-0.178227	-0.4968
H	6.86226	-0.806072	1.54766
H	4.21781	-0.108824	1.922
H	5.20807	0.566411	-2.12504
H	7.31672	-0.33531	-0.980911
