18
  This energy is -2.0562 and Call times are: 65628
C	-0.622799	0.174818	0.931645
C	-0.247181	1.19089	0.102856
C	0.513825	0.582494	-0.94158
C	0.536067	-0.751647	-0.658832
O	-0.153139	-1.01849	0.481696
H	-1.21652	0.170514	1.86048
H	-0.482406	2.26142	0.215671
H	0.98595	1.08753	-1.79956
H	1.00121	-1.60247	-1.18323
C	4.07484	0.603539	1.00258
C	4.81969	-0.541244	0.813338
N	4.73938	-0.969911	-0.469747
C	3.94772	-0.0943903	-1.0742
N	3.52099	0.873572	-0.22889
H	3.90537	1.22444	1.89661
H	5.4136	-1.06557	1.57963
H	3.64791	-0.114902	-2.13435
H	2.8887	1.67674	-0.466359
