18
  This energy is -1.3023 and Call times are: 1199
C	0.11646	-0.8208	0.774032
C	0.342777	-1.03204	-0.554324
C	0.0960829	0.219518	-1.19686
C	-0.259208	1.08509	-0.204424
O	-0.252046	0.46665	1.00574
H	0.182276	-1.49561	1.64325
H	0.652381	-1.97465	-1.03363
H	0.176385	0.440231	-2.27339
H	-0.536643	2.1517	-0.229223
C	3.99346	-0.731174	-0.169289
C	3.96681	0.482391	0.484695
N	5.19293	1.0595	0.493938
C	5.97725	0.2072	-0.151856
N	5.30099	-0.888278	-0.571614
H	3.20093	-1.46948	-0.370156
H	3.08483	0.951891	0.950034
H	7.05435	0.335898	-0.345562
H	5.69722	-1.70223	-1.10241
