18
  This energy is -0.9665 and Call times are: 32244
C	0.653744	0.0439418	-0.925791
C	-0.129233	1.08987	-0.534194
C	-0.791227	0.658673	0.655742
C	-0.354345	-0.612693	0.886255
O	0.528639	-1.00422	-0.0698074
H	1.33622	-0.0776475	-1.78294
H	-0.230468	2.06702	-1.03322
H	-1.50778	1.23503	1.26276
H	-0.592971	-1.33425	1.68479
C	5.19202	0.0768761	-1.10702
C	4.51108	1.04599	-0.401135
N	4.21176	0.619626	0.849916
C	4.70513	-0.609322	0.919879
N	5.30596	-0.98257	-0.234796
H	5.5903	0.0665114	-2.13406
H	4.23041	2.04521	-0.77213
H	4.65427	-1.28	1.79272
H	5.77016	-1.90354	-0.428669
