18
  This energy is -2.3764 and Call times are: 92764
C	0.279858	1.01722	-0.41635
C	0.661578	-0.147306	-1.01514
C	0.125834	-1.19629	-0.207223
C	-0.53598	-0.580185	0.813948
O	-0.452226	0.771654	0.702025
H	0.46273	2.07094	-0.683705
H	1.26035	-0.256656	-1.93362
H	0.226639	-2.28067	-0.374752
H	-1.09854	-0.986022	1.67073
C	4.28106	0.047817	-1.09877
C	5.57434	0.302943	-0.694435
N	5.70563	0.153668	0.646085
C	4.49839	-0.192746	1.07175
N	3.60441	-0.270071	0.0576395
H	3.81006	0.0692642	-2.09438
H	6.41505	0.592048	-1.34595
H	4.21384	-0.401586	2.11562
H	2.58926	-0.523834	0.137145
