18
  This energy is -0.9146 and Call times are: 123577
C	-1.07776	0.181293	0.303252
C	-0.177395	1.1964	0.164448
C	1.05141	0.579061	-0.22162
C	0.793471	-0.758799	-0.284655
O	-0.501964	-1.01968	0.0328349
H	-2.14337	0.182713	0.585624
H	-0.360216	2.27202	0.318475
H	2.01075	1.08086	-0.42644
H	1.43762	-1.61635	-0.539458
C	4.81809	-0.241177	0.39546
C	6.0125	-0.637844	0.958634
N	7.06694	-0.181745	0.239856
C	6.52872	0.495298	-0.765405
N	5.17553	0.488887	-0.716038
H	3.77386	-0.420765	0.696931
H	6.13232	-1.24496	1.87072
H	7.07944	1.01528	-1.56575
H	4.52299	0.951851	-1.39509
