18
  This energy is -0.7312 and Call times are: 107809
C	1.08669	0.188053	0.264844
C	0.0895655	1.04982	0.616236
C	-1.11798	0.476761	0.1127
C	-0.752176	-0.684605	-0.501945
O	0.59064	-0.876745	-0.418642
H	2.17473	0.218671	0.439407
H	0.193919	1.99429	1.17406
H	-2.13604	0.888583	0.202495
H	-1.34432	-1.45134	-1.028
C	5.05271	-0.234031	0.878566
C	6.19961	0.528098	0.948631
N	6.82059	0.588211	-0.2544
C	6.06181	-0.13388	-1.0677
N	4.98378	-0.650944	-0.432015
H	4.30562	-0.500326	1.64309
H	6.59015	1.03567	1.84568
H	6.24932	-0.316603	-2.13807
H	4.23762	-1.25445	-0.856617
