18
  This energy is -2.032 and Call times are: 110065
C	-0.207869	1.11049	0.100069
C	0.0783037	0.321169	1.17499
C	0.275696	-0.993658	0.653088
C	0.0927226	-0.891744	-0.694691
O	-0.203309	0.386224	-1.0499
H	-0.430544	2.18735	0.0224075
H	0.143822	0.633493	2.22963
H	0.524688	-1.90346	1.22262
H	0.144699	-1.64433	-1.49853
C	3.47292	0.714334	-0.123881
C	4.63163	0.725207	-0.871149
N	5.49008	-0.237569	-0.455642
C	4.86629	-0.843419	0.545588
N	3.64654	-0.306035	0.784356
H	2.56729	1.33964	-0.172518
H	4.8636	1.4105	-1.70266
H	5.25717	-1.68608	1.13835
H	2.96327	-0.608961	1.521
