18
  This energy is -0.7939 and Call times are: 117295
C	0.811496	0.137371	-0.780387
C	-0.16325	1.06765	-0.568655
C	-0.983989	0.543161	0.476056
C	-0.438333	-0.661319	0.810507
O	0.658882	-0.925119	0.0531817
H	1.65909	0.113889	-1.48487
H	-0.291449	2.02696	-1.09532
H	-1.87506	1.01497	0.920445
H	-0.732721	-1.41457	1.55964
C	6.36517	0.481832	0.135442
C	5.21021	1.12432	-0.257516
N	4.1651	0.263125	-0.308348
C	4.66978	-0.909173	0.0517051
N	5.99268	-0.829569	0.329521
H	7.39155	0.852653	0.285696
H	5.1123	2.19385	-0.505263
H	4.11501	-1.85815	0.128625
H	6.61587	-1.61684	0.634631
