18
  This energy is -1.0812 and Call times are: 67504
C	0.981768	0.555726	-0.117045
C	0.275102	0.55912	1.04957
C	-0.884211	-0.239105	0.806777
C	-0.783643	-0.659818	-0.486769
O	0.349823	-0.183791	-1.06613
H	1.93516	1.0339	-0.395701
H	0.543307	1.07225	1.98704
H	-1.69358	-0.467917	1.51858
H	-1.44332	-1.2923	-1.10325
C	4.63907	1.1121	0.283263
C	5.12953	0.65871	-0.922983
N	5.31635	-0.683353	-0.901113
C	4.9432	-1.0611	0.314078
N	4.52671	-0.015023	1.0663
H	4.371	2.12333	0.628346
H	5.35195	1.27592	-1.80867
H	4.95474	-2.09118	0.705286
H	4.18357	-0.0549722	2.05722
