18
  This energy is -1.0106 and Call times are: 17437
C	-0.689653	0.433309	0.789318
C	0.0811061	-0.668503	1.01804
C	0.798901	-0.902112	-0.194521
C	0.403412	0.0775667	-1.05719
O	-0.505405	0.902036	-0.472965
H	-1.40119	0.974507	1.43435
H	0.138435	-1.25764	1.94741
H	1.52342	-1.70839	-0.392226
H	0.690612	0.293722	-2.09932
C	5.95852	0.191502	1.10448
C	6.73855	0.202818	-0.0324322
N	5.99706	-0.0580883	-1.13635
C	4.76173	-0.230608	-0.685988
N	4.68649	-0.090286	0.65872
H	6.21022	0.358462	2.16388
H	7.82307	0.394568	-0.0759481
H	3.87469	-0.461547	-1.29758
H	3.82355	-0.179206	1.24923
