18
  This energy is -1.2532 and Call times are: 28969
C	0.356305	-1.07589	0.0437617
C	-0.687796	-0.683588	-0.741304
C	-0.83128	0.721371	-0.527717
C	0.137806	1.0636	0.369014
O	0.872436	-0.0216996	0.728824
H	0.822377	-2.06243	0.201131
H	-1.29593	-1.31975	-1.4043
H	-1.57278	1.3911	-0.992185
H	0.404235	2.03192	0.823569
C	4.77451	-0.986601	-0.579961
C	5.20869	0.290161	-0.867203
N	4.69533	1.18917	0.0073012
C	3.94552	0.472846	0.833917
N	3.96052	-0.844664	0.521614
H	4.98031	-1.95388	-1.0653
H	5.88318	0.578759	-1.68978
H	3.36404	0.862661	1.68489
H	3.44946	-1.61187	1.02308
