18
  This energy is -0.7148 and Call times are: 73028
C	0.53314	-0.621338	0.784922
C	0.964179	-0.550458	-0.507191
C	0.0478121	0.315722	-1.1781
C	-0.862311	0.69769	-0.236746
O	-0.581206	0.134814	0.967896
H	0.926665	-1.16735	1.658
H	1.83961	-1.05729	-0.94404
H	0.0714873	0.614	-2.23856
H	-1.74382	1.35689	-0.297173
C	5.50292	0.772212	-0.794421
C	4.76741	0.143186	0.187671
N	5.54583	-0.683936	0.926887
C	6.75963	-0.568473	0.405367
N	6.78578	0.297827	-0.635032
H	5.21385	1.49959	-1.5696
H	3.68902	0.271345	0.376101
H	7.66514	-1.09546	0.746796
H	7.62366	0.558461	-1.2106
