18
  This energy is -0.8984 and Call times are: 66636
C	1.00737	-0.463336	-0.238613
C	0.61761	0.740042	-0.748855
C	-0.68997	0.980964	-0.227024
C	-0.983829	-0.0964571	0.556037
O	0.0415577	-0.988407	0.560467
H	1.9345	-1.04588	-0.366366
H	1.19316	1.39259	-1.42489
H	-1.32981	1.85745	-0.418017
H	-1.87607	-0.343783	1.15436
C	6.13229	-0.0242351	0.992328
C	4.80336	0.320947	0.866119
N	4.39749	0.23839	-0.424217
C	5.47055	-0.156506	-1.09594
N	6.54235	-0.328631	-0.286492
H	6.79317	-0.0731732	1.87232
H	4.13013	0.628082	1.68299
H	5.52673	-0.334969	-2.18186
H	7.50274	-0.635498	-0.577609
