18
  This energy is -1.2018 and Call times are: 15135
C	0.384766	0.95973	0.466126
C	-0.464525	0.955371	-0.601141
C	-0.717404	-0.419553	-0.893978
C	-0.000319102	-1.13402	0.0201918
O	0.678805	-0.307731	0.858676
H	0.845658	1.78708	1.03033
H	-0.872045	1.83239	-1.12922
H	-1.35997	-0.820519	-1.69424
H	0.108718	-2.21974	0.176939
C	3.97841	-0.692251	0.480495
C	4.92868	-1.05843	-0.449045
N	5.71498	-0.00683297	-0.784269
C	5.25427	1.00787	-0.0654263
N	4.20742	0.645491	0.713278
H	3.18198	-1.26969	0.97627
H	5.06102	-2.06258	-0.883824
H	5.64656	2.03759	-0.0708841
H	3.6722	1.26546	1.36935
