18
  This energy is -1.1174 and Call times are: 19537
C	0.881944	0.219934	-0.678384
C	-0.367488	0.709348	-0.922857
C	-1.19257	0.221637	0.136147
C	-0.374502	-0.522756	0.934277
O	0.895973	-0.534683	0.451824
H	1.83209	0.334775	-1.22546
H	-0.677054	1.34958	-1.7645
H	-2.26905	0.408542	0.278836
H	-0.572382	-1.08652	1.8607
C	5.36553	1.03103	-0.0472812
C	4.98392	0.246812	-1.11523
N	4.35181	-0.876085	-0.695646
C	4.34132	-0.788811	0.627568
N	4.94055	0.343068	1.0673
H	5.89189	1.99774	-0.00304462
H	5.15337	0.471116	-2.18098
H	3.90801	-1.52576	1.32282
H	5.05887	0.639998	2.06684
