18
  This energy is -1.4249 and Call times are: 135410
C	0.413388	-1.0457	0.148411
C	0.705853	-0.0175947	0.995666
C	0.010016	1.12026	0.484571
C	-0.646239	0.687034	-0.629889
O	-0.411138	-0.633281	-0.850129
H	0.724886	-2.10316	0.147095
H	1.34725	-0.0565753	1.89076
H	0.00463749	2.1389	0.904601
H	-1.30293	1.21279	-1.34234
C	4.70558	-1.08175	0.224528
C	4.18098	-0.189154	1.13514
N	3.81132	0.965708	0.530024
C	4.10548	0.790223	-0.751108
N	4.64698	-0.428423	-0.986222
H	5.10319	-2.10162	0.348287
H	4.06258	-0.357758	2.21791
H	3.94508	1.5216	-1.55955
H	4.96212	-0.804021	-1.91405
