18
  This energy is -0.9792 and Call times are: 124893
C	-1.06268	0.173415	-0.356423
C	-0.752964	0.00121114	0.960693
C	0.662125	-0.186886	1.00824
C	1.09223	-0.113021	-0.284014
O	0.052171	0.106637	-1.1308
H	-2.02526	0.349041	-0.864214
H	-1.45098	0.00614612	1.81325
H	1.27943	-0.356787	1.90499
H	2.09861	-0.199114	-0.725647
C	4.94351	-1.14621	-0.074273
C	4.90216	-0.221102	-1.09585
N	5.26034	1.00946	-0.655486
C	5.5229	0.848383	0.634374
N	5.34662	-0.433664	1.03296
H	4.72199	-2.22518	-0.0574175
H	4.62029	-0.419521	-2.14276
H	5.84791	1.63573	1.33343
H	5.48976	-0.812663	2.00102
