18
  This energy is -1.3786 and Call times are: 101282
C	0.569529	0.321252	-0.926733
C	-0.747669	-0.0308112	-0.964329
C	-1.10083	-0.367626	0.378039
C	0.0317333	-0.191652	1.11744
O	1.06163	0.228831	0.336718
H	1.2609	0.651639	-1.71926
H	-1.40469	-0.0512749	-1.84864
H	-2.08611	-0.701158	0.741453
H	0.231714	-0.329911	2.19268
C	4.28414	1.12743	0.259604
C	3.99142	0.0281728	1.03876
N	4.37887	-1.11911	0.430384
C	4.90993	-0.73307	-0.721816
N	4.87644	0.612287	-0.871764
H	4.1184	2.20392	0.424657
H	3.5076	0.0423424	2.029
H	5.338	-1.39409	-1.49256
H	5.23362	1.15882	-1.69333
