18
  This energy is -1.7812 and Call times are: 133791
C	-0.0944825	-1.12229	-0.133916
C	0.252671	-0.291133	-1.15814
C	0.265978	1.0259	-0.605539
C	-0.0742189	0.883295	0.707589
O	-0.29787	-0.42199	1.01291
H	-0.228786	-2.21571	-0.0931374
H	0.476884	-0.576817	-2.19843
H	0.502558	1.96439	-1.13219
H	-0.190008	1.6224	1.51726
C	3.63139	-0.779735	0.15043
C	4.79135	-0.962342	-0.572269
N	5.57087	0.145513	-0.533277
C	4.89707	1.01211	0.210782
N	3.72114	0.501562	0.646827
H	2.77692	-1.44859	0.340278
H	5.07975	-1.87362	-1.12113
H	5.21875	2.03422	0.467737
H	3.01275	0.988925	1.24843
