18
  This energy is -1.1659 and Call times are: 94135
C	-0.709236	-0.873969	0.139871
C	0.535331	-1.02215	-0.398154
C	1.11443	0.283472	-0.40937
C	0.172617	1.11424	0.122792
O	-0.947488	0.424235	0.463777
H	-1.50987	-1.60419	0.342369
H	0.999065	-1.95707	-0.751666
H	2.11643	0.562115	-0.773307
H	0.177737	2.20065	0.309684
C	5.22024	0.15133	-1.12234
C	4.81672	1.12913	-0.237909
N	4.52128	0.5999	0.974171
C	4.74068	-0.701278	0.842186
N	5.16348	-1.02188	-0.403627
H	5.53333	0.205534	-2.17712
H	4.73346	2.207	-0.452667
H	4.60762	-1.46431	1.62597
H	5.4025	-1.98136	-0.755082
