18
  This energy is -1.1788 and Call times are: 53950
C	0.530277	-0.698478	-0.71926
C	0.294878	-1.03143	0.582318
C	-0.382791	0.0875413	1.15572
C	-0.501682	1.0055	0.153926
O	0.0504898	0.542092	-0.998191
H	1.02293	-1.24937	-1.53722
H	0.570769	-1.97076	1.08791
H	-0.736786	0.188278	2.1943
H	-0.95194	2.01153	0.133802
C	3.98599	0.0572874	0.375215
C	4.43462	-0.500745	-0.803121
N	5.78083	-0.391595	-0.914024
C	6.16589	0.23178	0.191307
N	5.12048	0.523789	1.0009
H	2.97346	0.152277	0.798663
H	3.81105	-0.980163	-1.57524
H	7.20106	0.499093	0.458159
H	5.16559	1.01245	1.92849
