18
  This energy is -0.992 and Call times are: 17181
C	-1.01904	-0.447403	0.218625
C	-0.817657	0.898098	0.121428
C	0.572972	1.06614	-0.157912
C	1.09863	-0.191506	-0.206757
O	0.140528	-1.1281	0.0209532
H	-1.9275	-1.03789	0.421758
H	-1.57264	1.69257	0.235044
H	1.11056	2.01681	-0.303941
H	2.12508	-0.548178	-0.392298
C	5.93579	0.944054	-0.617331
C	6.61349	-0.250818	-0.498397
N	5.93664	-1.12	0.290848
C	4.8432	-0.466828	0.660136
N	4.79627	0.781916	0.138574
H	6.17577	1.86747	-1.16802
H	7.57871	-0.501319	-0.96793
H	4.04407	-0.855908	1.31147
H	4.03657	1.49141	0.282582
