18
  This energy is -1.3347 and Call times are: 131890
C	-1.09068	-0.124808	0.285011
C	-0.693248	0.108053	-0.998809
C	0.731125	0.205085	-0.955659
C	1.07836	0.0229533	0.35072
O	-0.0217533	-0.179841	1.12249
H	-2.09075	-0.267811	0.726215
H	-1.3384	0.202063	-1.88709
H	1.40992	0.389285	-1.80383
H	2.06017	0.0149608	0.851963
C	4.79412	0.800996	-0.855737
C	4.48336	-0.540038	-0.934479
N	4.72915	-1.1684	0.240793
C	5.19063	-0.220782	1.04558
N	5.24866	0.984465	0.431087
H	4.72623	1.61073	-1.59955
H	4.0862	-1.06545	-1.81826
H	5.50078	-0.35483	2.09442
H	5.57729	1.88677	0.854291
