18
  This energy is -1.1784 and Call times are: 55284
C	0.837513	-0.36359	0.672886
C	0.836553	0.881311	0.115575
C	-0.364282	0.964559	-0.653309
C	-0.991129	-0.236818	-0.497977
O	-0.271235	-1.06012	0.308831
H	1.55907	-0.866546	1.33745
H	1.60443	1.66261	0.234035
H	-0.712569	1.82323	-1.24952
H	-1.94042	-0.623943	-0.903242
C	5.65578	-1.01544	-0.476866
C	6.27473	0.211802	-0.586105
N	5.59063	1.16604	0.0906179
C	4.55124	0.533187	0.617672
N	4.54565	-0.784154	0.30435
H	5.918	-2.00402	-0.886118
H	7.20266	0.425807	-1.14109
H	3.76392	0.986429	1.24131
H	3.83168	-1.49408	0.60017
