18
  This energy is -1.1448 and Call times are: 58555
C	0.721848	0.775383	-0.405114
C	0.407839	0.691374	0.919542
C	-0.516912	-0.391119	1.03427
C	-0.68637	-0.873047	-0.230404
O	0.0626429	-0.172443	-1.12211
H	1.3915	1.45608	-0.955997
H	0.78916	1.32784	1.73416
H	-0.99514	-0.760822	1.95553
H	-1.30342	-1.69853	-0.621653
C	4.19097	-0.832299	0.194526
C	4.21213	0.0745358	-0.843909
N	5.29138	0.889704	-0.758847
C	5.9373	0.490098	0.328225
N	5.31376	-0.545536	0.938357
H	3.48008	-1.63464	0.448361
H	3.46799	0.155225	-1.65298
H	6.87161	0.920956	0.72275
H	5.62613	-1.0365	1.81165
