18
  This energy is -1.6228 and Call times are: 47471
C	0.281684	-0.703868	0.843579
C	-0.409359	0.452517	1.05714
C	-0.5701	1.05496	-0.227909
C	0.036906	0.213531	-1.1133
O	0.562522	-0.865771	-0.476243
H	0.629659	-1.48644	1.53766
H	-0.769757	0.842196	2.02273
H	-1.0799	2.0046	-0.456764
H	0.161227	0.269195	-2.20724
C	3.82813	0.0898752	1.16081
C	4.39875	1.03364	0.33326
N	4.43926	0.598273	-0.949442
C	3.89583	-0.610984	-0.917768
N	3.51123	-0.963075	0.331915
H	3.63168	0.0929392	2.24475
H	4.78196	2.0209	0.63875
H	3.75509	-1.28168	-1.78066
H	3.058	-1.86611	0.615389
