18
  This energy is -1.1451 and Call times are: 7204
C	-0.266573	0.86822	-0.679363
C	-0.766355	0.749246	0.584139
C	-0.208104	-0.454087	1.11373
C	0.583536	-0.964226	0.127097
O	0.559651	-0.169516	-0.975117
H	-0.420006	1.63422	-1.45715
H	-1.45868	1.43961	1.09225
H	-0.381541	-0.882214	2.11409
H	1.20685	-1.87255	0.0861747
C	5.72429	-0.710833	0.700051
C	6.11222	0.518794	0.211511
N	5.14462	1.06324	-0.565562
C	4.16016	0.174744	-0.559122
N	4.46127	-0.912447	0.189836
H	6.24041	-1.43259	1.3529
H	7.07295	1.02287	0.405813
H	3.19697	0.270009	-1.08582
H	3.84921	-1.74948	0.351126
