18
  This energy is -1.5608 and Call times are: 30424
C	-0.355685	0.9988	0.402849
C	-0.609815	0.594124	-0.87466
C	-0.0102294	-0.69592	-1.00274
C	0.557368	-0.965689	0.207814
O	0.356103	0.0584631	1.07823
H	-0.623325	1.92083	0.944592
H	-1.16391	1.14845	-1.64913
H	-0.00701396	-1.34068	-1.89625
H	1.12399	-1.83863	0.571353
C	3.3349	0.712662	-0.358905
C	3.98971	-0.238465	-1.11238
N	4.93295	-0.878227	-0.379233
C	4.86357	-0.326089	0.824492
N	3.91529	0.638459	0.887626
H	2.52403	1.41368	-0.613065
H	3.79845	-0.474536	-2.17188
H	5.48384	-0.59037	1.69608
H	3.66908	1.21914	1.72635
