18
  This energy is -0.9575 and Call times are: 100228
C	0.152439	-1.04623	-0.410561
C	-0.355369	-0.0314247	-1.16731
C	-0.395246	1.11187	-0.312095
C	0.0917136	0.694794	0.891768
O	0.431093	-0.620524	0.849652
H	0.361156	-2.10212	-0.64885
H	-0.67028	-0.0828047	-2.22196
H	-0.747224	2.12318	-0.571828
H	0.244945	1.22969	1.84343
C	5.35013	0.773055	-0.254472
C	4.09217	1.05722	0.233308
N	3.37014	-0.0755263	0.412347
C	4.1771	-1.05868	0.0370652
N	5.38265	-0.598441	-0.373332
H	6.19627	1.42791	-0.516675
H	3.69261	2.0593	0.459258
H	3.93576	-2.13384	0.0426573
H	6.18856	-1.17628	-0.716655
