18
  This energy is -1.2322 and Call times are: 57098
C	-0.303713	-0.000396011	-1.09278
C	-1.21755	-0.0308468	-0.0806745
C	-0.460281	-0.0195602	1.13033
C	0.849463	0.0167918	0.751353
O	0.963611	0.02895	-0.602838
H	-0.42602	0.003905	-2.18835
H	-2.31483	-0.0584852	-0.1772
H	-0.853681	-0.0367079	2.15943
H	1.78082	0.036797	1.34078
C	4.9731	0.587494	0.949074
C	5.01169	1.0196	-0.359718
N	4.49786	0.0866806	-1.19765
C	4.14185	-0.920361	-0.411684
N	4.40786	-0.666857	0.891605
H	5.29706	1.06782	1.88603
H	5.40109	1.98781	-0.714396
H	3.682	-1.86696	-0.73838
H	4.21944	-1.30437	1.70359
