18
  This energy is -0.9801 and Call times are: 50592
C	-0.80722	-0.15763	0.780992
C	-0.293598	1.07422	0.499735
C	0.683329	0.866674	-0.52137
C	0.680452	-0.473687	-0.773955
O	-0.223831	-1.11469	0.012425
H	-1.58083	-0.48119	1.49659
H	-0.574491	2.03288	0.96468
H	1.31048	1.63241	-1.00553
H	1.26614	-1.08603	-1.47912
C	5.91087	0.92615	0.516094
C	6.53588	-0.0657309	-0.209633
N	5.64152	-0.978558	-0.660616
C	4.46615	-0.554582	-0.216355
N	4.57558	0.590168	0.498601
H	6.30854	1.81758	1.02672
H	7.61612	-0.139065	-0.415911
H	3.49366	-1.04434	-0.385606
H	3.79244	1.1207	0.95302
