18
  This energy is -0.9218 and Call times are: 121476
C	0.0959768	-0.927616	-0.645537
C	-0.66852	-0.899458	0.483678
C	-0.537061	0.421029	1.01202
C	0.296163	1.08323	0.15903
O	0.692388	0.274771	-0.85901
H	0.295187	-1.73093	-1.37372
H	-1.26517	-1.72568	0.902562
H	-1.01152	0.822189	1.922
H	0.678286	2.11725	0.165985
C	6.06276	-0.172254	-0.0584565
C	5.07955	-0.970328	-0.60391
N	3.84613	-0.472928	-0.343543
C	4.06334	0.629526	0.360757
N	5.38383	0.854202	0.559306
H	7.1609	-0.259219	-0.0659361
H	5.23805	-1.89612	-1.18065
H	3.29143	1.30935	0.756014
H	5.80937	1.65731	1.08389
