18
  This energy is -0.6398 and Call times are: 111
C	0.813869	-0.250679	-0.749119
C	-0.437423	-0.78848	-0.822708
C	-1.16422	-0.239641	0.277593
C	-0.292902	0.585097	0.926429
O	0.919853	0.59047	0.313071
H	1.70566	-0.384627	-1.38317
H	-0.811138	-1.50027	-1.57622
H	-2.21348	-0.44129	0.546799
H	-0.412377	1.21481	1.82334
C	6.27724	-0.294962	-0.727003
C	4.94272	-0.611007	-0.869509
N	4.20981	-0.109573	0.15417
C	5.08633	0.515172	0.928793
N	6.34655	0.432029	0.440416
H	7.1533	-0.528166	-1.35285
H	4.49558	-1.19186	-1.69263
H	4.85913	1.04981	1.86516
H	7.21161	0.843057	0.86935
