18
  This energy is -1.7871 and Call times are: 105057
C	-0.958096	0.600173	0.090806
C	-0.558694	0.0352712	-1.08467
C	0.674827	-0.626654	-0.801125
C	0.920321	-0.407813	0.522587
O	-0.0666973	0.339643	1.08305
H	-1.84426	1.20326	0.348211
H	-1.08038	0.0801914	-2.05416
H	1.29969	-1.19699	-1.50707
H	1.75048	-0.725732	1.17451
C	4.81449	-1.12065	-0.340788
C	5.53038	-0.479057	0.647651
N	5.13794	0.811725	0.775648
C	4.18223	0.9703	-0.129942
N	3.95031	-0.16608	-0.82883
H	4.85742	-2.15447	-0.718822
H	6.32302	-0.9244	1.27074
H	3.61926	1.89761	-0.323307
H	3.24632	-0.295353	-1.59626
