18
  This energy is -1.0803 and Call times are: 90212
C	-0.607221	-0.457752	-0.841515
C	0.718616	-0.726562	-0.667523
C	1.12279	0.0245766	0.478142
C	0.00826433	0.686088	0.903114
O	-1.05756	0.403164	0.108766
H	-1.33237	-0.811071	-1.5929
H	1.34878	-1.38749	-1.2841
H	2.12864	0.0618252	0.926457
H	-0.154514	1.3779	1.74581
C	6.03864	0.0409463	1.0456
C	6.29433	0.839725	-0.0488038
N	5.48583	0.5184	-1.08783
C	4.73143	-0.475939	-0.639719
N	5.02643	-0.800599	0.64136
H	6.4903	0.0127522	2.04997
H	7.0477	1.64213	-0.107306
H	3.94773	-1.00249	-1.20786
H	4.57086	-1.5505	1.217
