18
  This energy is -0.8598 and Call times are: 21156
C	0.712026	0.22725	0.853098
C	1.11731	-0.396718	-0.290048
C	-0.046554	-0.503001	-1.11118
C	-1.06031	0.065402	-0.397321
O	-0.614954	0.516727	0.80475
H	1.26357	0.518115	1.76219
H	2.13386	-0.747004	-0.530893
H	-0.111797	-0.952076	-2.11525
H	-2.12817	0.208384	-0.630743
C	6.50205	-0.507616	-0.560113
C	5.47237	-1.14564	0.0985486
N	4.60451	-0.251307	0.630999
C	5.09393	0.93701	0.303899
N	6.23722	0.835842	-0.414603
H	7.37539	-0.901397	-1.10395
H	5.34012	-2.23524	0.199115
H	4.65503	1.91348	0.56486
H	6.81232	1.62958	-0.789418
