18
  This energy is -0.7672 and Call times are: 89834
C	-0.90301	0.65627	0.200709
C	-0.779133	-0.596318	0.726116
C	0.472371	-1.09663	0.253308
C	1.00279	-0.105604	-0.519287
O	0.17618	0.972291	-0.562502
H	-1.69972	1.4125	0.293502
H	-1.49704	-1.11585	1.38094
H	0.91773	-2.08119	0.468658
H	1.94742	-0.0454988	-1.08436
C	6.74979	0.230603	-0.0995302
C	5.70767	1.10294	-0.33227
N	4.51132	0.502434	-0.121024
C	4.8101	-0.73773	0.241389
N	6.14698	-0.95119	0.269492
H	7.84129	0.362757	-0.168105
H	5.7976	2.15487	-0.648831
H	4.08867	-1.53036	0.497349
H	6.6319	-1.84639	0.523916
