18
  This energy is -0.9149 and Call times are: 35232
C	-0.94971	0.346664	-0.514078
C	-0.160067	-0.640205	-1.02684
C	0.924059	-0.790008	-0.109047
C	0.701206	0.118543	0.883549
O	-0.438776	0.821399	0.652363
H	-1.88814	0.795707	-0.878725
H	-0.324524	-1.20592	-1.95798
H	1.76729	-1.49497	-0.187097
H	1.27123	0.359151	1.79592
C	4.56626	0.00173966	0.716398
C	5.04192	1.06207	-0.0256269
N	6.13706	0.706175	-0.740128
C	6.34003	-0.570086	-0.442491
N	5.41943	-1.04099	0.431768
H	3.7096	-0.0818066	1.40392
H	4.61452	2.0775	-0.0582416
H	7.14799	-1.20746	-0.836438
H	5.3658	-2.01486	0.819
