18
  This energy is -0.8808 and Call times are: 44888
C	-0.314734	0.370869	-1.0246
C	0.2407	1.19333	-0.088956
C	0.496578	0.37191	1.05118
C	0.0749189	-0.879997	0.711613
O	-0.423433	-0.898949	-0.552625
H	-0.670506	0.564952	-2.04978
H	0.4493	2.27041	-0.191385
H	0.943013	0.685481	2.0085
H	0.0751746	-1.82884	1.27281
C	4.28048	0.360292	0.0442791
C	5.39901	1.09092	0.385189
N	6.52925	0.363528	0.212061
C	6.11347	-0.813879	-0.234554
N	4.76554	-0.865784	-0.35277
H	3.20938	0.617501	0.0557425
H	5.41074	2.12989	0.752972
H	6.75368	-1.6734	-0.490655
H	4.19807	-1.68411	-0.683814
