18
  This energy is -2.4893 and Call times are: 105955
C	-0.328345	-0.172969	-1.07176
C	0.530682	0.82759	-0.723436
C	0.699213	0.723458	0.691085
C	-0.0717038	-0.331542	1.08228
O	-0.706353	-0.890797	0.0185801
H	-0.742121	-0.474482	-2.04805
H	0.998709	1.565	-1.3952
H	1.32389	1.36408	1.33411
H	-0.250985	-0.777945	2.07417
C	4.49932	0.201648	-1.11983
C	5.77435	0.186569	-0.595239
N	5.75294	-0.0791595	0.73346
C	4.4695	-0.228364	1.03202
N	3.67341	-0.0685851	-0.0516337
H	4.13344	0.37962	-2.14355
H	6.70935	0.362667	-1.15167
H	4.05746	-0.455363	2.02848
H	2.6265	-0.137442	-0.0738614
