18
  This energy is -0.7656 and Call times are: 118422
C	-0.117891	1.12804	-0.00467328
C	0.835841	0.490253	-0.742233
C	0.669199	-0.903094	-0.475902
C	-0.371654	-0.993758	0.400897
O	-0.864374	0.237102	0.699599
H	-0.364824	2.19693	0.103733
H	1.58187	0.954412	-1.40714
H	1.26033	-1.73404	-0.893253
H	-0.850453	-1.86357	0.879877
C	5.69104	-1.06833	-0.481549
C	4.67111	-0.24888	-0.0463485
N	5.1575	0.912351	0.455123
C	6.47417	0.813672	0.331493
N	6.84569	-0.362209	-0.227854
H	5.67735	-2.07056	-0.938585
H	3.593	-0.47474	-0.0852102
H	7.21285	1.57317	0.634389
H	7.82645	-0.676176	-0.429796
