18
  This energy is -0.6705 and Call times are: 76575
C	-0.32044	-0.0362035	1.08739
C	0.968674	-0.253179	0.698182
C	0.974474	-0.124878	-0.724359
C	-0.311609	0.159174	-1.07887
O	-1.11599	0.217126	0.0150333
H	-0.792969	-0.0343128	2.08336
H	1.82918	-0.48075	1.34768
H	1.84037	-0.233195	-1.39711
H	-0.776069	0.339583	-2.06222
C	7.04208	0.0557419	0.911757
C	7.36836	-0.175448	-0.407803
N	6.26316	-0.173205	-1.19204
C	5.25507	0.0584941	-0.362159
N	5.67305	0.203768	0.917599
H	7.6664	0.123153	1.81686
H	8.38143	-0.343826	-0.808033
H	4.19094	0.131774	-0.638723
H	5.06927	0.393093	1.75477
