18
  This energy is -1.2015 and Call times are: 99274
C	-0.276627	1.09972	-0.0222529
C	-1.15316	0.118628	-0.382142
C	-0.447871	-1.11325	-0.223542
C	0.797396	-0.776198	0.219264
O	0.919505	0.571232	0.347856
H	-0.381289	2.19654	0.0134399
H	-2.19217	0.249302	-0.724912
H	-0.831311	-2.1276	-0.418896
H	1.67408	-1.39341	0.475633
C	5.10676	0.0012243	-1.13622
C	5.63085	-0.793092	-0.138451
N	5.0442	-0.529878	1.05447
C	4.15953	0.424101	0.797743
N	4.15898	0.778784	-0.509081
H	5.33362	0.0660267	-2.21226
H	6.42177	-1.55139	-0.257959
H	3.48643	0.898616	1.52986
H	3.55217	1.5073	-0.958865
