18
  This energy is -0.9292 and Call times are: 26192
C	0.334987	0.493624	0.964635
C	-0.976217	0.232048	0.695013
C	-0.995104	-0.383837	-0.593571
C	0.306226	-0.444251	-0.997631
O	1.13217	0.0871749	-0.0582603
H	0.823414	0.958692	1.83665
H	-1.84315	0.450851	1.33894
H	-1.8796	-0.737494	-1.14737
H	0.768373	-0.836126	-1.91856
C	5.55804	-0.448309	-0.780692
C	5.02437	0.823041	-0.781502
N	4.18447	1.00107	0.26702
C	4.19706	-0.15543	0.915836
N	5.01014	-1.06193	0.3236
H	6.26535	-0.943294	-1.46497
H	5.2303	1.61504	-1.51987
H	3.62953	-0.392457	1.83014
H	5.18908	-2.04492	0.644503
