18
  This energy is -1.1057 and Call times are: 32887
C	0.961899	-0.586928	0.129097
C	-0.23654	-1.19232	-0.110943
C	-1.19425	-0.137436	-0.211599
C	-0.496506	1.01946	-0.0241837
O	0.821729	0.763705	0.185242
H	1.97314	-1.00021	0.276889
H	-0.427042	-2.27329	-0.207444
H	-2.27493	-0.237896	-0.40166
H	-0.81782	2.07395	-0.0164454
C	4.71252	1.11647	0.321622
C	4.50043	-0.0115293	1.08568
N	4.82288	-1.13452	0.399061
C	5.23345	-0.70482	-0.786443
N	5.1856	0.645016	-0.882588
H	4.5652	2.18566	0.542251
H	4.12053	-0.0351953	2.12007
H	5.57998	-1.33579	-1.62073
H	5.45714	1.22243	-1.71573
