18
  This energy is -0.9387 and Call times are: 89546
C	-0.474436	-0.310652	-0.982246
C	-0.941213	-0.744267	0.223768
C	-0.0964605	-0.14609	1.20799
C	0.811961	0.600259	0.516537
O	0.595956	0.51135	-0.822287
H	-0.811947	-0.512139	-2.01217
H	-1.79477	-1.41779	0.40238
H	-0.164827	-0.26361	2.30143
H	1.64984	1.23108	0.856062
C	4.66899	0.298371	0.872747
C	4.62201	0.738721	-0.43302
N	5.61922	0.191262	-1.16948
C	6.28232	-0.585763	-0.323807
N	5.74835	-0.555393	0.920198
H	4.03196	0.524589	1.74255
H	3.88644	1.44164	-0.856919
H	7.16613	-1.19887	-0.562974
H	6.09125	-1.0819	1.76071
