18
  This energy is -0.8702 and Call times are: 98492
C	0.428918	-0.0375341	1.0493
C	-0.796595	-0.551602	0.742334
C	-0.980364	-0.316813	-0.654527
C	0.149074	0.320004	-1.07786
O	1.02054	0.498747	-0.0504295
H	0.985192	0.00849832	1.99992
H	-1.50056	-1.04649	1.43053
H	-1.85514	-0.593468	-1.26471
H	0.449653	0.692722	-2.07082
C	4.33796	-0.423475	-0.278987
C	5.55609	-0.873197	-0.742727
N	6.57594	-0.154633	-0.213495
C	5.99271	0.737474	0.575565
N	4.64405	0.616316	0.570325
H	3.30926	-0.758606	-0.486339
H	5.71736	-1.70328	-1.4497
H	6.50596	1.50263	1.18
H	3.9616	1.20273	1.11035
