18
  This energy is -1.4482 and Call times are: 73546
C	0.0773606	0.628672	0.940844
C	-0.317031	-0.676795	0.965054
C	-0.289153	-1.11891	-0.39284
C	0.119813	-0.0445824	-1.12697
O	0.348143	1.03131	-0.328633
H	0.204117	1.3692	1.74757
H	-0.599271	-1.26902	1.85032
H	-0.545481	-2.12208	-0.769724
H	0.285359	0.0807846	-2.20962
C	3.59629	-0.161265	-0.844474
C	4.07204	1.04444	-0.374273
N	4.99257	0.858939	0.602835
C	5.08752	-0.456834	0.73829
N	4.26557	-1.11621	-0.112128
H	2.8536	-0.399363	-1.62245
H	3.76758	2.04486	-0.722557
H	5.74321	-0.990517	1.44503
H	4.15852	-2.15666	-0.19736
