18
  This energy is -1.3662 and Call times are: 113405
C	0.410429	0.46667	0.948772
C	-0.409639	1.14578	0.09632
C	-0.709611	0.237421	-0.964351
C	-0.0463699	-0.916584	-0.666427
O	0.642807	-0.794398	0.498527
H	0.888972	0.765125	1.89596
H	-0.767429	2.18239	0.20366
H	-1.34622	0.429719	-1.8429
H	0.0147922	-1.88202	-1.19505
C	3.98892	-0.185688	0.832324
C	4.1152	-0.858197	-0.364727
N	5.16215	-0.384628	-1.08316
C	5.68338	0.57801	-0.334651
N	5.01148	0.736567	0.830252
H	3.26781	-0.294503	1.65797
H	3.46963	-1.67663	-0.722872
H	6.55711	1.19832	-0.591643
H	5.22821	1.42994	1.58756
