18
  This energy is -1.2131 and Call times are: 73691
C	0.0825959	1.00129	0.5263
C	0.0687928	0.889533	-0.832999
C	-0.0448083	-0.507195	-1.10934
C	-0.0903972	-1.12566	0.105486
O	-0.013775	-0.219584	1.11552
H	0.155846	1.88082	1.18685
H	0.132244	1.7085	-1.56741
H	-0.0869484	-0.986474	-2.10061
H	-0.175212	-2.18954	0.381535
C	4.3838	0.928288	0.723265
C	4.08072	0.921892	-0.621819
N	4.20354	-0.322407	-1.14446
C	4.58137	-1.08504	-0.127468
N	4.70404	-0.377559	1.02058
H	4.39391	1.74253	1.46519
H	3.77564	1.79281	-1.22454
H	4.78193	-2.16779	-0.168104
H	4.98884	-0.752377	1.95848
