18
  This energy is -0.9381 and Call times are: 56574
C	-0.222545	0.540598	0.97192
C	-1.19085	-0.0940485	0.250824
C	-0.530822	-0.64598	-0.889285
C	0.782555	-0.299888	-0.764248
O	0.988791	0.425012	0.36668
H	-0.266633	1.103	1.91903
H	-2.26241	-0.16628	0.497065
H	-0.988889	-1.23123	-1.70277
H	1.65684	-0.505445	-1.40349
C	4.65432	0.360859	0.401784
C	5.88781	0.608005	0.966197
N	6.88057	0.0410636	0.238515
C	6.2653	-0.555529	-0.773484
N	4.92222	-0.391681	-0.719868
H	3.63873	0.657355	0.7087
H	6.07922	1.18524	1.88544
H	6.75019	-1.12601	-1.58198
H	4.21896	-0.766497	-1.40265
