18
  This energy is -0.7587 and Call times are: 120452
C	-0.753994	-0.846884	-0.0261051
C	-1.12883	0.463286	0.0315775
C	0.0845052	1.21671	0.0487134
C	1.09368	0.300431	-1.09625e-05
O	0.599776	-0.964853	-0.0461129
H	-1.34633	-1.77609	-0.0573847
H	-2.15664	0.859434	0.0592818
H	0.184481	2.31315	0.0923455
H	2.18959	0.419538	-0.00744771
C	5.04384	-0.462748	-0.506679
C	5.24681	-0.253097	0.84091
N	6.46298	0.298338	1.0719
C	7.01241	0.43028	-0.127832
N	6.19623	-0.0143456	-1.11259
H	4.18941	-0.885208	-1.05895
H	4.5375	-0.489845	1.65065
H	8.01	0.846317	-0.342217
H	6.40207	-0.0169903	-2.14161
