18
  This energy is -1.2398 and Call times are: 83376
C	-0.211388	-0.784085	0.791787
C	0.00677486	-1.10641	-0.515456
C	0.233155	0.131596	-1.19089
C	0.133346	1.10116	-0.236764
O	-0.137796	0.559856	0.979986
H	-0.426728	-1.41034	1.67308
H	0.00814792	-2.11481	-0.959555
H	0.444946	0.273916	-2.26279
H	0.232991	2.19748	-0.295261
C	5.94806	-0.159799	0.203759
C	5.38243	0.695253	-0.718247
N	4.02951	0.624709	-0.684404
C	3.75686	-0.270702	0.255025
N	4.88022	-0.772803	0.820313
H	6.99982	-0.368479	0.456346
H	5.9263	1.3618	-1.40728
H	2.75195	-0.595994	0.568979
H	4.92854	-1.49203	1.58296
