18
  This energy is -2.4954 and Call times are: 95804
C	0.414121	-0.918682	-0.520508
C	0.583599	-0.696953	0.81459
C	-0.0699966	0.542583	1.09114
C	-0.58118	0.968894	-0.099371
O	-0.294972	0.0886579	-1.0945
H	0.744998	-1.74381	-1.17238
H	1.11551	-1.3416	1.53264
H	-0.145596	1.05008	2.06625
H	-1.15972	1.86846	-0.366447
C	4.31253	1.11825	-0.315386
C	5.47389	0.589304	0.206734
N	5.33836	-0.73582	0.456113
C	4.09764	-1.02783	0.0900926
N	3.43813	0.0565591	-0.381835
H	4.05502	2.14093	-0.633739
H	6.40716	1.14008	0.407967
H	3.6212	-2.01983	0.146409
H	2.44912	0.0834311	-0.731695
