18
  This energy is -1.9693 and Call times are: 50849
C	-0.518691	1.00827	-0.0272372
C	-0.658798	0.0876335	-1.02381
C	0.134435	-1.03437	-0.633945
C	0.689251	-0.700328	0.566457
O	0.301152	0.543731	0.952083
H	-0.94412	2.01712	0.101218
H	-1.26039	0.188516	-1.94142
H	0.270152	-1.97639	-1.18918
H	1.36753	-1.25265	1.23738
C	3.43302	0.814001	-0.526908
C	3.73102	0.731561	0.816796
N	4.52723	-0.333926	1.07624
C	4.72242	-0.910293	-0.102032
N	4.08342	-0.255698	-1.10042
H	2.82444	1.53416	-1.0966
H	3.3858	1.4218	1.60371
H	5.32458	-1.81371	-0.290411
H	4.08344	-0.513855	-2.11758
