18
  This energy is -1.5354 and Call times are: 70034
C	0.256511	-0.649367	-0.893826
C	0.0494921	0.694388	-1.00263
C	-0.245527	1.15271	0.317609
C	-0.192747	0.0485618	1.11664
O	0.112587	-1.06082	0.39342
H	0.509021	-1.41355	-1.64716
H	0.0995165	1.30192	-1.92051
H	-0.469722	2.18623	0.62688
H	-0.350728	-0.0779228	2.20029
C	3.60027	-0.594176	-0.819982
C	4.07296	-1.08592	0.378306
N	4.72062	-0.124141	1.07975
C	4.64998	0.960144	0.319517
N	3.98423	0.728127	-0.836569
H	3.03663	-1.07557	-1.63491
H	3.95829	-2.11746	0.749295
H	5.06875	1.95029	0.561321
H	3.79635	1.42312	-1.60008
