18
  This energy is -1.3379 and Call times are: 127404
C	0.93183	-0.571364	0.302715
C	-0.0153213	-1.10317	-0.522187
C	-1.01836	-0.0965083	-0.665972
C	-0.595604	0.961582	0.0837583
O	0.593663	0.688996	0.682383
H	1.87887	-0.982454	0.689213
H	-0.00835175	-2.10393	-0.983176
H	-1.94371	-0.161596	-1.26061
H	-1.0442	1.95116	0.270194
C	4.03204	0.599248	-0.522154
C	4.50333	0.7753	0.761606
N	5.51161	-0.088026	1.03465
C	5.66524	-0.796966	-0.075492
N	4.79652	-0.420502	-1.04357
H	3.23339	1.11042	-1.08286
H	4.1339	1.50979	1.4957
H	6.39882	-1.60389	-0.233518
H	4.71992	-0.827831	-2.00766
