18
  This energy is -1.1635 and Call times are: 43558
C	-0.412729	1.02258	0.265308
C	0.198533	0.220803	1.18394
C	0.575305	-0.963561	0.480066
C	0.161022	-0.780981	-0.806561
O	-0.44443	0.42658	-0.955672
H	-0.861422	2.02562	0.353802
H	0.367189	0.441279	2.25026
H	1.09417	-1.84394	0.892139
H	0.236569	-1.42586	-1.69744
C	5.92553	0.148173	-0.558053
C	5.53304	-0.952697	0.173509
N	4.28691	-0.784577	0.678885
C	3.90778	0.416025	0.262429
N	4.86102	1.01878	-0.486976
H	6.85599	0.366384	-1.10593
H	6.12669	-1.86526	0.345722
H	2.94254	0.902219	0.477297
H	4.80068	1.96838	-0.929543
