18
  This energy is -0.8795 and Call times are: 15990
C	1.11999	0.102163	-0.146926
C	0.381378	1.03974	0.513213
C	-0.964929	0.563178	0.491561
C	-0.930177	-0.623544	-0.179897
O	0.335144	-0.920585	-0.577061
H	2.19731	0.0472414	-0.374114
H	0.747841	1.97327	0.969622
H	-1.84985	1.05376	0.927845
H	-1.72611	-1.34155	-0.437212
C	5.93626	-0.145532	-0.979329
C	5.60058	-1.11565	-0.0588214
N	4.85819	-0.596763	0.949208
C	4.73378	0.690362	0.655173
N	5.36625	1.01194	-0.498155
H	6.52093	-0.195271	-1.91165
H	5.88076	-2.18069	-0.103972
H	4.19016	1.442	1.24994
H	5.41341	1.96199	-0.941371
