18
  This energy is -0.7761 and Call times are: 116021
C	-0.313592	0.669672	-0.86
C	0.647209	1.03424	0.0368421
C	0.758756	-0.0545453	0.954569
C	-0.143727	-0.988338	0.537523
O	-0.807473	-0.562658	-0.569387
H	-0.730175	1.19094	-1.73749
H	1.21994	1.97546	0.0507434
H	1.43516	-0.125347	1.82149
H	-0.405103	-1.98201	0.936956
C	5.08076	0.863772	-0.348833
C	4.77072	-0.180486	0.496475
N	5.83984	-0.992091	0.683
C	6.80944	-0.453381	-0.0438288
N	6.40157	0.667346	-0.68508
H	4.47516	1.70473	-0.722437
H	3.79475	-0.362832	0.975111
H	7.83711	-0.838735	-0.142013
H	6.98108	1.27153	-1.31784
