18
  This energy is -1.0952 and Call times are: 42214
C	0.216948	-1.01755	0.451591
C	-0.977706	-0.71824	-0.134577
C	-0.868326	0.635781	-0.575918
C	0.383512	1.04437	-0.220488
O	1.06021	0.0473581	0.408051
H	0.585931	-1.93966	0.929934
H	-1.8486	-1.38415	-0.245085
H	-1.63755	1.22843	-1.09665
H	0.904688	2.00624	-0.356228
C	4.74937	1.05426	0.265622
C	6.04191	0.627553	0.485645
N	6.21599	-0.645744	0.0556245
C	5.03594	-1.00758	-0.429328
N	4.11824	-0.0172856	-0.325692
H	4.25065	2.01265	0.480811
H	6.85197	1.21563	0.946969
H	4.78894	-1.98594	-0.872082
H	3.11676	-0.0580044	-0.636559
