18
  This energy is -1.0283 and Call times are: 76875
C	0.725907	0.865655	0.100508
C	-0.325897	0.891426	-0.767488
C	-0.996758	-0.35918	-0.606096
C	-0.295686	-1.03878	0.346279
O	0.759627	-0.305679	0.788877
H	1.51152	1.60738	0.319399
H	-0.601675	1.70908	-1.45268
H	-1.8961	-0.703957	-1.14127
H	-0.44351	-2.03715	0.789732
C	5.88594	0.887766	-0.355598
C	6.02264	-0.445147	-0.68087
N	5.05603	-1.19272	-0.0949422
C	4.32246	-0.326875	0.591214
N	4.78226	0.940619	0.466154
H	6.47626	1.77291	-0.641214
H	6.80142	-0.88081	-1.32783
H	3.43764	-0.567355	1.20235
H	4.37549	1.79989	0.910516
