18
  This energy is -0.8382 and Call times are: 119416
C	0.218701	-0.244195	-1.08579
C	0.874932	-0.849358	-0.0545226
C	0.330269	-0.286107	1.13972
C	-0.610717	0.613529	0.732808
O	-0.692171	0.65212	-0.623248
H	0.307049	-0.362288	-2.17826
H	1.66345	-1.61553	-0.127469
H	0.612522	-0.528741	2.17681
H	-1.28021	1.27914	1.302
C	6.47717	-0.232825	-0.749307
C	6.56247	-0.149424	0.624342
N	5.35624	0.135385	1.17242
C	4.52578	0.228319	0.142701
N	5.15361	0.0144467	-1.03784
H	7.23924	-0.443607	-1.51635
H	7.47277	-0.289654	1.22977
H	3.44791	0.450873	0.196703
H	4.7156	0.0333823	-1.99127
