18
  This energy is -1.7855 and Call times are: 61451
C	0.567348	0.414143	-0.890508
C	-0.0440706	-0.804816	-0.916634
C	-0.642543	-0.9697	0.369742
C	-0.344012	0.163055	1.0684
O	0.394335	1.01914	0.314091
H	1.14925	0.956689	-1.65358
H	-0.070944	-1.51647	-1.75742
H	-1.22569	-1.83462	0.724635
H	-0.594826	0.476183	2.09518
C	4.09168	0.203154	1.1592
C	3.40927	-0.789377	0.488119
N	3.64799	-0.731205	-0.8446
C	4.47534	0.293517	-0.999709
N	4.77294	0.889754	0.179075
H	4.13913	0.460868	2.22919
H	2.74895	-1.54641	0.94169
H	4.89398	0.650438	-1.95448
H	5.40265	1.71738	0.319605
