18
  This energy is -0.877 and Call times are: 15798
C	0.37293	0.873578	0.619827
C	-0.696492	0.97788	-0.22031
C	-0.854907	-0.311733	-0.813539
C	0.131695	-1.09026	-0.283546
O	0.890999	-0.382582	0.59376
H	0.857183	1.61015	1.2818
H	-1.31204	1.87314	-0.403874
H	-1.6177	-0.615155	-1.5485
H	0.395529	-2.14805	-0.446993
C	5.91215	0.818433	-0.235944
C	5.89851	-0.0490006	0.835745
N	4.81256	-0.85869	0.795206
C	4.15502	-0.494948	-0.297476
N	4.77758	0.512614	-0.953856
H	6.62517	1.60546	-0.528752
H	6.65277	-0.105119	1.63748
H	3.21255	-0.933185	-0.663447
H	4.45704	0.973102	-1.84069
