18
  This energy is -0.4872 and Call times are: 61084
C	-1.01227	-0.507953	0.0608509
C	-0.869343	0.846647	0.131602
C	0.532152	1.09833	0.0194241
C	1.12194	-0.124691	-0.109975
O	0.193655	-1.11704	-0.0867375
H	-1.90599	-1.15198	0.102481
H	-1.67047	1.59369	0.250827
H	1.0337	2.07931	0.0343806
H	2.17826	-0.418531	-0.22443
C	5.45837	-0.559262	-0.430869
C	6.26604	0.336735	-1.0987
N	7.26108	0.788905	-0.297482
C	7.07142	0.175754	0.862992
N	5.99696	-0.6478	0.833358
H	4.56814	-1.12139	-0.754982
H	6.14862	0.665024	-2.14431
H	7.68967	0.29351	1.7675
H	5.64184	-1.24079	1.62299
