18
  This energy is -0.9622 and Call times are: 47160
C	0.628904	-0.936868	-0.114709
C	0.69862	-0.141171	0.990903
C	-0.227904	0.922406	0.766234
C	-0.782014	0.682755	-0.456837
O	-0.270341	-0.448679	-1.00916
H	1.16	-1.86516	-0.382054
H	1.33832	-0.288418	1.87589
H	-0.449397	1.76375	1.44239
H	-1.54009	1.23433	-1.03679
C	4.44771	-0.596969	0.3491
C	4.73377	-0.170158	-0.930411
N	5.91704	0.489087	-0.972513
C	6.36336	0.471323	0.27613
N	5.51311	-0.171898	1.11096
H	3.59	-1.15451	0.757774
H	4.10756	-0.326089	-1.82394
H	7.30663	0.914348	0.634174
H	5.6411	-0.318807	2.14212
