18
  This energy is -2.1304 and Call times are: 16636
C	-0.235196	1.10539	-0.0959105
C	-0.178255	0.472776	1.11112
C	0.139023	-0.889903	0.823792
C	0.247957	-0.96971	-0.533461
O	0.0225319	0.239564	-1.11126
H	-0.446467	2.15398	-0.362523
H	-0.343137	0.920777	2.1042
H	0.269047	-1.7085	1.5498
H	0.478146	-1.81716	-1.19987
C	3.39523	0.492511	-0.703473
C	4.50492	1.10448	-0.160112
N	5.21548	0.239119	0.603277
C	4.54914	-0.905341	0.533766
N	3.44407	-0.804037	-0.242206
H	2.60075	0.875141	-1.36372
H	4.80556	2.15491	-0.305232
H	4.82623	-1.84852	1.03162
H	2.75564	-1.56767	-0.452407
