18
  This energy is -1.1025 and Call times are: 14015
C	0.107431	-0.752747	0.841565
C	0.445859	-1.0446	-0.447101
C	0.172649	0.137732	-1.20046
C	-0.308614	1.04773	-0.305661
O	-0.355221	0.520835	0.946228
H	0.14838	-1.35665	1.76291
H	0.847589	-1.99695	-0.828871
H	0.320433	0.284361	-2.28248
H	-0.647808	2.08893	-0.432545
C	5.56682	0.887872	-0.0935934
C	5.58322	-0.297396	-0.797878
N	4.54812	-1.09434	-0.437371
C	3.89208	-0.406096	0.487047
N	4.46685	0.795723	0.729661
H	6.2377	1.76127	-0.119131
H	6.32338	-0.591794	-1.55968
H	2.98467	-0.735169	1.0186
H	4.13733	1.51944	1.41443
