18
  This energy is -0.9244 and Call times are: 128013
C	0.77879	-0.573122	-0.592806
C	1.00507	-0.135805	0.679171
C	-0.191532	0.532235	1.08163
C	-1.04341	0.444175	0.0200676
O	-0.467233	-0.227678	-1.01126
H	1.41512	-1.13346	-1.29733
H	1.92259	-0.270169	1.27432
H	-0.386252	1.01881	2.05087
H	-2.07203	0.813352	-0.124471
C	6.05208	-0.160656	-0.890878
C	5.43054	-1.14026	-0.145751
N	4.62796	-0.597905	0.801993
C	4.75112	0.713178	0.645416
N	5.5988	1.0275	-0.362666
H	6.7612	-0.22289	-1.73159
H	5.54684	-2.22866	-0.275018
H	4.24322	1.4882	1.24174
H	5.86082	1.99246	-0.681192
