18
  This energy is -0.8857 and Call times are: 103419
C	-0.499635	-1.01799	0.0216388
C	0.674968	-0.794636	-0.634711
C	0.97808	0.586754	-0.434705
C	-0.0380536	1.08561	0.326211
O	-0.949378	0.119391	0.614187
H	-1.10906	-1.9289	0.140331
H	1.26843	-1.52898	-1.20273
H	1.85328	1.1364	-0.816817
H	-0.22573	2.09676	0.723193
C	5.02094	0.57706	-0.953103
C	4.607	0.767009	0.348327
N	5.254	-0.0711583	1.19413
C	6.06623	-0.778394	0.420352
N	5.96284	-0.424962	-0.882717
H	4.72187	1.06766	-1.893
H	3.8531	1.49382	0.692161
H	6.75796	-1.56767	0.756175
H	6.4982	-0.835947	-1.6863
