18
  This energy is -0.9243 and Call times are: 63852
C	0.182466	1.00703	-0.488884
C	1.2014	0.177742	-0.12222
C	0.581028	-0.974632	0.449875
C	-0.762238	-0.74782	0.382307
O	-1.02368	0.457669	-0.188179
H	0.184314	2.00086	-0.965889
H	2.28152	0.359305	-0.242546
H	1.08452	-1.86419	0.861308
H	-1.62357	-1.3574	0.701317
C	5.94996	0.823299	0.636251
C	5.61155	-0.449349	1.0449
N	4.98595	-1.13046	0.0543313
C	4.93644	-0.283569	-0.96496
N	5.5046	0.908151	-0.663998
H	6.4592	1.6471	1.16119
H	5.8076	-0.888301	2.03673
H	4.49546	-0.4847	-1.95457
H	5.58966	1.73855	-1.29998
