18
  This energy is -1.2503 and Call times are: 76939
C	-0.110194	1.10229	-0.243346
C	0.587393	0.660088	0.842106
C	0.499877	-0.765172	0.809027
C	-0.243463	-1.06811	-0.293719
O	-0.62444	0.0603515	-0.948278
H	-0.31145	2.11918	-0.618422
H	1.11106	1.27579	1.59096
H	0.942197	-1.47424	1.52713
H	-0.56649	-2.03433	-0.714822
C	5.50611	-0.848719	0.407654
C	4.13261	-0.897208	0.296791
N	3.64248	0.258553	-0.213608
C	4.70787	1.02114	-0.418603
N	5.85555	0.398505	-0.0597935
H	6.23527	-1.58881	0.773894
H	3.48651	-1.74543	0.575941
H	4.70435	2.04365	-0.829345
H	6.82657	0.791065	-0.125222
