18
  This energy is -1.0177 and Call times are: 127115
C	0.393584	-0.223816	-1.0399
C	-0.923978	0.0318777	-0.796954
C	-1.02467	0.26287	0.60897
C	0.240254	0.127942	1.10105
O	1.11915	-0.169279	0.107963
H	0.933453	-0.455581	-1.97268
H	-1.74282	0.0554589	-1.53386
H	-1.9371	0.501157	1.17886
H	0.640024	0.21758	2.12447
C	5.1696	-0.552072	1.03705
C	6.08518	0.332398	0.507355
N	5.68643	0.778757	-0.708488
C	4.52789	0.173499	-0.932221
N	4.17296	-0.639464	0.090867
H	5.15716	-1.10697	1.98861
H	7.02634	0.656459	0.980701
H	3.89781	0.289746	-1.82872
H	3.3041	-1.22482	0.151725
