18
  This energy is -0.8961 and Call times are: 49007
C	0.302562	-0.450039	0.996154
C	1.08289	0.452569	0.335278
C	0.374271	0.780294	-0.860785
C	-0.776534	0.0490244	-0.825222
O	-0.836878	-0.708057	0.301809
H	0.444228	-0.975281	1.95496
H	2.05954	0.84793	0.6577
H	0.692254	1.48027	-1.6501
H	-1.62085	-0.0202214	-1.53062
C	4.90557	0.947233	-0.0749319
C	6.02204	0.80054	0.720765
N	6.58218	-0.422416	0.556059
C	5.81613	-1.03209	-0.338414
N	4.79179	-0.247749	-0.749661
H	4.20727	1.78933	-0.204456
H	6.43342	1.55522	1.41075
H	5.96	-2.05296	-0.727481
H	4.05189	-0.501573	-1.44922
