18
  This energy is -0.7568 and Call times are: 119897
C	0.436226	-0.08565	-1.04344
C	1.09168	0.545319	-0.0272589
C	0.235314	0.446052	1.11155
C	-0.86786	-0.236814	0.690752
O	-0.762121	-0.569364	-0.622732
H	0.712063	-0.25561	-2.09714
H	2.07917	1.03185	-0.0748457
H	0.426807	0.840313	2.12249
H	-1.78358	-0.544894	1.2216
C	5.52623	-0.134074	1.01878
C	6.80727	-0.553803	0.72908
N	7.15053	-0.233824	-0.542257
C	6.08649	0.382069	-1.03937
N	5.08044	0.467227	-0.137033
H	4.9205	-0.217927	1.93507
H	7.48999	-1.08178	1.41463
H	5.99051	0.790506	-2.05829
H	4.14002	0.907436	-0.288947
