18
  This energy is -0.8962 and Call times are: 128447
C	0.733592	-0.722119	-0.476222
C	0.125825	-0.979479	0.71741
C	-0.712363	0.146787	0.980245
C	-0.542808	0.992969	-0.075975
O	0.33686	0.478231	-0.974997
H	1.45814	-1.3049	-1.06838
H	0.254815	-1.87281	1.3494
H	-1.36246	0.300311	1.85654
H	-0.984522	1.97728	-0.302427
C	6.04518	-0.143654	-0.686357
C	4.80546	-0.72363	-0.853281
N	3.94972	-0.337354	0.123964
C	4.65588	0.47915	0.894215
N	5.92545	0.628403	0.447565
H	6.97318	-0.223048	-1.27462
H	4.51315	-1.41387	-1.66134
H	4.29235	0.994819	1.79763
H	6.67564	1.21961	0.88224
