18
  This energy is -1.0109 and Call times are: 51080
C	0.945394	0.59729	0.189409
C	0.217038	0.0425316	1.20041
C	-0.882471	-0.61883	0.572872
C	-0.728948	-0.409837	-0.766204
O	0.382171	0.330979	-1.01843
H	1.87076	1.19635	0.198446
H	0.432428	0.0938908	2.27979
H	-1.68907	-1.1822	1.06897
H	-1.33344	-0.731	-1.63032
C	4.94104	0.267961	-1.13491
C	5.50672	-0.88264	-0.627697
N	5.53154	-0.858779	0.727045
C	4.98334	0.30221	1.05901
N	4.61075	1.01804	-0.0283487
H	4.75631	0.595167	-2.17045
H	5.8974	-1.72958	-1.215
H	4.83045	0.677987	2.08354
H	4.15675	1.96416	-0.0284423
