18
  This energy is -1.8887 and Call times are: 121700
C	-0.175997	1.0172	0.469826
C	0.0208801	0.855737	-0.870153
C	0.203995	-0.546306	-1.0723
C	0.102852	-1.11785	0.161997
O	-0.129151	-0.177712	1.11559
H	-0.357608	1.918	1.07878
H	0.0356744	1.64479	-1.6391
H	0.388994	-1.06044	-2.02913
H	0.176028	-2.16785	0.489691
C	4.09774	-0.903261	0.693226
C	3.57398	-0.97506	-0.58022
N	3.34884	0.261708	-1.08641
C	3.73147	1.09759	-0.130625
N	4.19074	0.443926	0.962717
H	4.40076	-1.68929	1.40307
H	3.35451	-1.8971	-1.14283
H	3.69679	2.1979	-0.179024
H	4.54934	0.880248	1.84719
