18
  This energy is -1.6459 and Call times are: 92668
C	0.686639	-0.357971	-0.828725
C	-0.210441	-1.18276	-0.216068
C	-0.879447	-0.379018	0.75684
C	-0.33213	0.865971	0.652828
O	0.625944	0.896959	-0.310576
H	1.41484	-0.540589	-1.63596
H	-0.383679	-2.25008	-0.427998
H	-1.67452	-0.699266	1.44922
H	-0.534785	1.80168	1.1993
C	3.9314	0.869064	0.702821
C	3.89643	0.848206	-0.675398
N	4.40302	-0.311749	-1.15953
C	4.75093	-1.00785	-0.0857452
N	4.48672	-0.338882	1.06154
H	3.6111	1.63255	1.42948
H	3.51475	1.64935	-1.32911
H	5.20334	-2.01261	-0.0825956
H	4.66997	-0.67614	2.03824
