18
  This energy is -0.9698 and Call times are: 52226
C	0.43279	0.823461	0.64885
C	-0.739616	0.195403	0.951144
C	-0.947632	-0.764534	-0.0858561
C	0.116022	-0.638339	-0.930302
O	0.969019	0.326863	-0.496952
H	0.984303	1.62851	1.16167
H	-1.39246	0.388708	1.81747
H	-1.79383	-1.46348	-0.183414
H	0.378102	-1.16895	-1.86037
C	4.68058	-0.883063	0.768785
C	4.07514	0.354251	0.8292
N	4.43737	1.12739	-0.223208
C	5.26438	0.372575	-0.933806
N	5.44336	-0.848774	-0.377154
H	4.62447	-1.75642	1.43785
H	3.38345	0.702955	1.6133
H	5.76694	0.664833	-1.86989
H	6.04799	-1.62223	-0.747879
