18
  This energy is -0.7832 and Call times are: 48943
C	-0.7474	-0.295536	0.800282
C	0.395742	0.391318	1.08635
C	1.06528	0.573401	-0.162128
C	0.272174	-0.0182584	-1.1009
O	-0.839092	-0.554056	-0.530797
H	-1.56545	-0.654806	1.44602
H	0.733601	0.735248	2.07713
H	2.02546	1.08658	-0.331788
H	0.385717	-0.124178	-2.1923
C	7.57813	-0.921076	-0.627478
C	6.47561	-0.136359	-0.891712
N	6.33551	0.838732	0.0389222
C	7.34727	0.659616	0.877308
N	8.12531	-0.38902	0.518689
H	7.99805	-1.79144	-1.15632
H	5.77874	-0.256304	-1.73719
H	7.56528	1.26756	1.77012
H	8.98212	-0.731498	1.01853
