18
  This energy is -0.5211 and Call times are: 93384
C	-0.327288	0.834274	-0.695177
C	-1.13783	0.338854	0.283578
C	-0.383108	-0.683281	0.936079
C	0.822004	-0.722242	0.298458
O	0.873503	0.197811	-0.700473
H	-0.485649	1.62842	-1.44318
H	-2.16422	0.660884	0.522135
H	-0.707996	-1.31132	1.78113
H	1.71376	-1.3503	0.458342
C	7.03534	0.0772164	0.71012
C	6.94163	0.533814	-0.587525
N	5.71698	0.277885	-1.10833
C	5.05347	-0.335152	-0.13747
N	5.80519	-0.479888	0.979472
H	7.86277	0.10827	1.43671
H	7.73573	1.04333	-1.15731
H	4.01478	-0.699125	-0.191144
H	5.50762	-0.930616	1.87922
