18
  This energy is -1.6528 and Call times are: 135442
C	-0.1595	-0.201091	-1.10477
C	-0.98531	-0.705961	-0.143775
C	-0.46586	-0.239834	1.10243
C	0.631523	0.508731	0.792952
O	0.833436	0.543189	-0.550572
H	-0.171004	-0.297344	-2.20289
H	-1.87137	-1.34274	-0.297083
H	-0.869096	-0.443352	2.10745
H	1.34278	1.06105	1.4288
C	4.20326	0.850955	-0.418953
C	5.57718	0.885943	-0.308238
N	6.05459	-0.268318	0.217382
C	4.98092	-1.01653	0.431931
N	3.84016	-0.386184	0.0646108
H	3.48227	1.59409	-0.795085
H	6.23253	1.72337	-0.598205
H	4.97322	-2.03356	0.855987
H	2.86491	-0.76727	0.134808
