18
  This energy is -1.5597 and Call times are: 124765
C	-0.103016	0.835104	0.76052
C	-0.899575	0.750151	-0.343406
C	-0.471431	-0.417662	-1.04556
C	0.548964	-0.943252	-0.308729
O	0.787395	-0.190955	0.797711
H	-0.070326	1.56739	1.58389
H	-1.70759	1.44059	-0.634098
H	-0.88149	-0.812698	-1.9889
H	1.17737	-1.83586	-0.462339
C	4.7995	-1.10617	-0.0434342
C	5.30388	-0.0735146	0.718382
N	4.59929	1.06743	0.522681
C	3.66136	0.74382	-0.357196
N	3.73997	-0.555734	-0.729445
H	5.10922	-2.15867	-0.14263
H	6.16357	-0.131277	1.40573
H	2.89151	1.41986	-0.76283
H	3.11321	-1.04986	-1.41082
