18
  This energy is -1.0288 and Call times are: 118776
C	0.249726	-0.474465	-0.99946
C	1.16383	0.238181	-0.28048
C	0.483892	0.667808	0.899872
C	-0.785681	0.179774	0.79799
O	-0.946317	-0.520327	-0.355729
H	0.325491	-0.991792	-1.96997
H	2.21178	0.440979	-0.553894
H	0.899856	1.26994	1.72359
H	-1.65598	0.260231	1.46982
C	5.25624	-0.470758	1.06727
C	5.13568	0.868712	0.763248
N	4.96609	1.05417	-0.568425
C	4.98139	-0.165601	-1.08856
N	5.15367	-1.11948	-0.14303
H	5.40287	-0.990887	2.02722
H	5.16803	1.70463	1.48091
H	4.87074	-0.417168	-2.15566
H	5.20025	-2.15578	-0.301684
