18
  This energy is -1.7005 and Call times are: 42913
C	0.389896	-0.761688	-0.744455
C	-0.484806	0.223449	-1.09769
C	-0.736098	0.969095	0.0943608
C	0.00722801	0.373788	1.07081
O	0.701189	-0.684901	0.576231
H	0.85908	-1.56796	-1.33186
H	-0.910379	0.406673	-2.0974
H	-1.39524	1.84539	0.202656
H	0.126766	0.605011	2.14202
C	4.8613	1.07647	-0.447529
C	5.81637	0.27137	0.136243
N	5.28133	-0.905578	0.542497
C	3.99921	-0.830905	0.212009
N	3.6963	0.344767	-0.387682
H	4.92606	2.08469	-0.886665
H	6.88192	0.51864	0.271575
H	3.23814	-1.60853	0.38606
H	2.7536	0.642227	-0.739935
