18
  This energy is -1.0426 and Call times are: 81235
C	-1.04484	-0.363828	-0.249678
C	-0.749223	0.255232	0.929198
C	0.645242	0.559124	0.872314
C	1.07866	0.0989415	-0.336301
O	0.0597187	-0.4677	-1.03464
H	-1.9899	-0.771587	-0.64445
H	-1.44349	0.475758	1.75592
H	1.24712	1.06211	1.64616
H	2.07386	0.114017	-0.810222
C	6.3911	0.106671	-1.15329
C	6.22014	-1.02368	-0.382435
N	6.55764	-0.790006	0.909075
C	6.93654	0.480484	0.939324
N	6.85411	1.06486	-0.279403
H	6.22169	0.290866	-2.22609
H	5.85931	-2.00365	-0.735026
H	7.2835	1.03292	1.82739
H	7.09668	2.05855	-0.513927
