18
  This energy is -0.9384 and Call times are: 9719
C	-0.563779	-0.984059	0.013506
C	-0.311658	-0.302479	-1.14073
C	0.408172	0.868949	-0.753798
C	0.532386	0.799803	0.602728
O	-0.0554293	-0.325335	1.08806
H	-1.08784	-1.9356	0.201089
H	-0.603324	-0.595256	-2.16215
H	0.785583	1.66501	-1.41557
H	1.0099	1.47819	1.32869
C	5.64019	-0.54519	-0.82342
C	5.72975	-0.715762	0.541873
N	4.8403	0.0731516	1.19225
C	4.20137	0.730644	0.234079
N	4.64742	0.392774	-0.998994
H	6.19418	-1.00941	-1.65476
H	6.42023	-1.39394	1.06929
H	3.39834	1.47101	0.379839
H	4.30268	0.772905	-1.91437
