18
  This energy is -1.4931 and Call times are: 80758
C	-0.179742	0.946879	0.597925
C	1.05025	0.364989	0.503627
C	0.875071	-0.788208	-0.320731
C	-0.44651	-0.809219	-0.657415
O	-1.10575	0.243063	-0.105041
H	-0.522064	1.8512	1.12734
H	1.98695	0.712928	0.967992
H	1.64894	-1.51216	-0.6226
H	-1.03258	-1.50946	-1.27502
C	4.75983	-1.06542	-0.498353
C	4.51944	0.145204	-1.11296
N	4.65353	1.1721	-0.238877
C	4.97588	0.600698	0.913607
N	5.05245	-0.747187	0.809044
H	4.74391	-2.09649	-0.885893
H	4.25165	0.296099	-2.17144
H	5.16694	1.1224	1.86521
H	5.28955	-1.42136	1.5775
