18
  This energy is -1.2004 and Call times are: 98944
C	0.161937	-1.02085	-0.466957
C	0.596249	-0.715078	0.789328
C	0.211115	0.641401	1.01682
C	-0.424549	1.04481	-0.12053
O	-0.463685	0.0423141	-1.03731
H	0.235219	-1.94679	-1.06069
H	1.13389	-1.37823	1.48594
H	0.390779	1.23909	1.92489
H	-0.887142	2.00628	-0.397727
C	5.42979	-0.946004	-0.305838
C	4.16952	-0.93635	0.253428
N	3.74412	0.330651	0.4776
C	4.7367	1.10407	0.0589969
N	5.77602	0.381688	-0.422226
H	6.08296	-1.77604	-0.618801
H	3.55958	-1.82089	0.499197
H	4.75466	2.2056	0.0818792
H	6.67441	0.76078	-0.810094
