18
  This energy is -0.7035 and Call times are: 55080
C	0.484215	-0.463854	0.914754
C	-0.849266	-0.583603	0.65425
C	-1.07434	0.123817	-0.566003
C	0.141476	0.61341	-0.943458
O	1.10476	0.264064	-0.0506823
H	1.10458	-0.845152	1.74241
H	-1.59918	-1.11662	1.26056
H	-2.03345	0.248338	-1.09391
H	0.448676	1.21642	-1.81367
C	6.37175	-0.501365	-0.826125
C	6.77588	-0.0700634	0.419587
N	5.73916	0.459316	1.11347
C	4.69584	0.356817	0.301313
N	5.02575	-0.215835	-0.880556
H	6.92817	-0.975459	-1.65024
H	7.79694	-0.131375	0.830115
H	3.66739	0.685244	0.521892
H	4.37936	-0.406073	-1.68507
