18
  This energy is -0.8102 and Call times are: 40336
C	-0.165096	0.0843031	-1.11894
C	1.07609	-0.0622576	-0.572741
C	0.875967	-0.131575	0.839796
C	-0.469852	-0.0212548	1.03208
O	-1.12111	0.111322	-0.153375
H	-0.496511	0.179261	-2.16604
H	2.03626	-0.116147	-1.11058
H	1.65012	-0.249895	1.6149
H	-1.07972	-0.0227458	1.95039
C	5.21362	0.867577	-0.629153
C	5.02097	-0.486966	-0.800168
N	5.73829	-1.20022	0.101632
C	6.37351	-0.291614	0.829332
N	6.09011	0.970189	0.427926
H	4.80271	1.73676	-1.16694
H	4.37726	-0.962386	-1.55809
H	7.05827	-0.495502	1.66824
H	6.46638	1.85759	0.842896
