18
  This energy is -1.4223 and Call times are: 75546
C	-0.0924702	-1.12376	0.12253
C	-0.942773	-0.249924	0.733897
C	-0.510836	1.05419	0.342956
C	0.565287	0.862156	-0.472799
O	0.834836	-0.461905	-0.618458
H	-0.0425032	-2.22494	0.134878
H	-1.78925	-0.49873	1.39395
H	-0.955826	2.01755	0.639636
H	1.21625	1.57552	-1.00441
C	4.61712	-0.653912	0.974999
C	5.62081	-0.699742	0.0307292
N	5.39742	0.193561	-0.963564
C	4.25947	0.791298	-0.637366
N	3.74956	0.315346	0.523259
H	4.46394	-1.22345	1.90543
H	6.50216	-1.36137	0.0490691
H	3.75508	1.58418	-1.21283
H	2.86237	0.625576	0.990059
