18
  This energy is -1.7653 and Call times are: 12700
C	-0.924487	0.639824	0.149496
C	-0.392994	-0.120621	1.1493
C	0.745828	-0.770582	0.582951
C	0.809721	-0.349942	-0.712947
O	-0.202639	0.511835	-0.994867
H	-1.80184	1.30687	0.125859
H	-0.76552	-0.214451	2.18202
H	1.43183	-1.46855	1.08926
H	1.51693	-0.58725	-1.5246
C	4.67903	-0.341706	-1.12343
C	5.42928	-0.804238	-0.0630775
N	5.073	-0.191195	1.09181
C	4.1054	0.648459	0.749218
N	3.83127	0.595073	-0.575768
H	4.68812	-0.604132	-2.19328
H	6.22127	-1.56931	-0.110665
H	3.56335	1.32558	1.42886
H	3.11028	1.15971	-1.08824
