18
  This energy is -1.2626 and Call times are: 13450
C	-0.332841	0.102376	-1.07942
C	-0.865535	-0.827707	-0.235876
C	-0.200656	-0.647138	1.0153
C	0.679642	0.377348	0.825891
O	0.612334	0.847033	-0.447639
H	-0.538339	0.332339	-2.13778
H	-1.64817	-1.56679	-0.471116
H	-0.365285	-1.21839	1.94302
H	1.39926	0.858557	1.50842
C	3.95888	0.498287	-0.65522
C	4.27112	-0.843121	-0.589841
N	5.2964	-1.0649	0.268137
C	5.61899	0.13436	0.733254
N	4.84146	1.11	0.206781
H	3.19651	1.0427	-1.23483
H	3.77497	-1.65488	-1.14638
H	6.41645	0.354865	1.46103
H	4.89983	2.13679	0.415481
