18
  This energy is -0.8273 and Call times are: 82851
C	0.421375	0.92554	-0.502215
C	-0.451936	0.995291	0.543173
C	-0.748865	-0.356685	0.89547
C	-0.0307896	-1.13326	0.0342659
O	0.689644	-0.366764	-0.826241
H	0.917462	1.71214	-1.09417
H	-0.847369	1.9073	1.01853
H	-1.42029	-0.701324	1.69828
H	0.0521515	-2.2278	-0.0674994
C	4.74861	0.884644	0.194713
C	6.10213	0.986741	-0.0476015
N	6.65971	-0.235132	-0.228249
C	5.65593	-1.09199	-0.0984966
N	4.48278	-0.465954	0.157219
H	3.98136	1.65192	0.384837
H	6.68634	1.92016	-0.095319
H	5.72443	-2.18866	-0.18122
H	3.54867	-0.922448	0.299762
