18
  This energy is -1.3168 and Call times are: 630
C	0.675583	-0.227544	0.882163
C	0.482233	-1.11288	-0.137232
C	-0.418637	-0.474888	-1.04361
C	-0.696269	0.743999	-0.498071
O	-0.0365245	0.911887	0.678178
H	1.28699	-0.288586	1.79743
H	0.92916	-2.11472	-0.240557
H	-0.809062	-0.883712	-1.9894
H	-1.33834	1.57067	-0.843935
C	5.64501	0.118015	0.69146
C	5.34216	-0.954841	-0.119963
N	4.17426	-0.755567	-0.777839
C	3.75417	0.436379	-0.376072
N	4.60637	1.00376	0.510164
H	6.4977	0.307541	1.36269
H	5.94544	-1.86911	-0.24249
H	2.82948	0.941087	-0.699245
H	4.49678	1.94003	0.971316
