18
  This energy is -0.4881 and Call times are: 36717
C	-0.908778	-0.595464	0.325494
C	0.0608093	-1.12222	-0.476259
C	1.02289	-0.082771	-0.660862
C	0.556283	0.987411	0.0443781
O	-0.622388	0.692048	0.653071
H	-1.83938	-1.02808	0.728084
H	0.0950934	-2.14058	-0.895605
H	1.95142	-0.13498	-1.2518
H	0.964321	2.00108	0.19011
C	6.25642	-1.12596	0.310948
C	5.28472	-0.265775	-0.154901
N	5.80151	0.959256	-0.417084
C	7.08892	0.859424	-0.115035
N	7.41269	-0.378345	0.328464
H	6.20853	-2.18198	0.620897
H	4.22001	-0.507136	-0.306526
H	7.83922	1.66197	-0.199874
H	8.36339	-0.706066	0.628498
