18
  This energy is -0.961 and Call times are: 22182
C	0.291066	-0.255713	1.06597
C	-1.00484	-0.264235	0.640602
C	-0.966117	0.105512	-0.738494
C	0.350028	0.307341	-1.03413
O	1.13196	0.0911575	0.0562211
H	0.739326	-0.474678	2.04901
H	-1.89838	-0.506582	1.23805
H	-1.82367	0.206842	-1.42291
H	0.852164	0.602842	-1.96996
C	5.56879	0.598312	0.838802
C	5.79745	0.657676	-0.51963
N	4.95747	-0.165484	-1.19295
C	4.21056	-0.733355	-0.25579
N	4.54048	-0.305635	0.985902
H	6.04905	1.11802	1.68307
H	6.55346	1.27971	-1.02595
H	3.40776	-1.46926	-0.423666
H	4.09736	-0.605485	1.88867
