18
  This energy is -1.216 and Call times are: 102589
C	0.0331326	-0.988394	0.55532
C	0.336575	0.197721	1.15651
C	0.182241	1.19777	0.148437
C	-0.201888	0.534483	-0.97978
O	-0.297966	-0.801455	-0.749456
H	0.0154158	-2.02058	0.942013
H	0.638773	0.352866	2.2047
H	0.340988	2.28245	0.259631
H	-0.434345	0.893762	-1.99572
C	5.41626	-0.246125	-0.900822
C	4.34066	0.616495	-0.910652
N	3.73756	0.659339	0.302178
C	4.43637	-0.173535	1.06153
N	5.4591	-0.744533	0.382121
H	6.13043	-0.531084	-1.68968
H	3.98897	1.20872	-1.77114
H	4.24247	-0.402315	2.12185
H	6.15254	-1.43531	0.760567
