18
  This energy is -1.0757 and Call times are: 2988
C	-0.863274	-0.392504	0.622173
C	0.321782	-0.00813841	1.1774
C	1.14275	0.419496	0.0896271
C	0.386904	0.258701	-1.0343
O	-0.84111	-0.23625	-0.72768
H	-1.78752	-0.789189	1.07346
H	0.590824	-0.0241448	2.24579
H	2.17488	0.800972	0.146936
H	0.604953	0.457028	-2.09655
C	4.94259	0.836028	0.787329
C	5.637	0.996526	-0.392999
N	5.75109	-0.179542	-1.05659
C	5.12982	-1.06627	-0.290851
N	4.62516	-0.503148	0.83245
H	4.66122	1.556	1.57219
H	6.05773	1.93985	-0.777666
H	5.01504	-2.14103	-0.505196
H	4.0934	-0.993305	1.59287
