18
  This energy is -1.5163 and Call times are: 7268
C	0.174501	0.913575	0.649101
C	0.294815	-0.357384	1.12927
C	0.00219055	-1.22026	0.029296
C	-0.271109	-0.400414	-1.02595
O	-0.170576	0.90607	-0.665387
H	0.306472	1.89425	1.13502
H	0.562748	-0.657198	2.15514
H	-0.00186858	-2.3221	0.0327538
H	-0.546296	-0.620344	-2.07053
C	4.75047	-0.629807	-0.88629
C	3.51399	-0.0208531	-0.848662
N	3.32142	0.621752	0.328831
C	4.43422	0.412249	1.01906
N	5.32683	-0.337018	0.329553
H	5.24456	-1.23075	-1.66622
H	2.75737	-0.033659	-1.65004
H	4.64782	0.784573	2.03394
H	6.27694	-0.63763	0.658483
