18
  This energy is -1.0767 and Call times are: 40432
C	-0.358604	-0.849527	-0.660385
C	-1.03964	-0.451967	0.452496
C	-0.285597	0.626492	1.00788
C	0.789666	0.792759	0.185365
O	0.761112	-0.100233	-0.838725
H	-0.563679	-1.64189	-1.39887
H	-1.97879	-0.875649	0.843122
H	-0.523863	1.20523	1.91474
H	1.63377	1.50097	0.21965
C	4.3943	0.334127	-0.673169
C	4.63582	-0.930224	-0.178975
N	5.77139	-0.957276	0.560118
C	6.23259	0.285565	0.524572
N	5.43754	1.10228	-0.2065
H	3.58099	0.728459	-1.30291
H	4.01105	-1.82341	-0.342472
H	7.14802	0.652052	1.01642
H	5.5873	2.12567	-0.384003
