18
  This energy is -1.2795 and Call times are: 86592
C	0.886717	-0.697458	-0.116984
C	0.992664	0.525215	0.47818
C	-0.316373	1.09513	0.436456
C	-1.10669	0.170408	-0.180521
O	-0.388407	-0.930594	-0.525293
H	1.63436	-1.48461	-0.308475
H	1.90146	0.98015	0.903875
H	-0.624316	2.07979	0.823369
H	-2.18045	0.17623	-0.430067
C	5.64734	0.868217	0.460704
C	5.17014	-0.24623	1.11754
N	4.46007	-1.0404	0.279929
C	4.49661	-0.420991	-0.892086
N	5.2005	0.734369	-0.834909
H	6.25307	1.7187	0.811854
H	5.32548	-0.491485	2.18083
H	4.02482	-0.769492	-1.82493
H	5.373	1.40115	-1.62669
