18
  This energy is -0.724 and Call times are: 42051
C	-0.0628189	-1.11058	0.221527
C	-0.908255	-0.203472	0.789659
C	-0.520557	1.07002	0.271953
C	0.52757	0.828712	-0.566839
O	0.820595	-0.497678	-0.609705
H	0.011947	-2.20547	0.32574
H	-1.72315	-0.410379	1.50186
H	-0.975092	2.04682	0.502949
H	1.14178	1.50576	-1.18296
C	5.54355	0.919492	-0.720431
C	4.39599	0.573537	-0.0388309
N	4.58589	-0.545728	0.701233
C	5.84646	-0.892815	0.479592
N	6.46649	-0.0407865	-0.370818
H	5.76145	1.75326	-1.40664
H	3.43442	1.11149	-0.0677995
H	6.36604	-1.76181	0.914465
H	7.46084	-0.100352	-0.70094
