18
  This energy is -0.7911 and Call times are: 96173
C	0.393666	-0.309951	1.01753
C	-0.59101	0.621973	0.868184
C	-0.808996	0.738464	-0.538595
C	0.061715	-0.132559	-1.12473
O	0.804051	-0.781326	-0.18929
H	0.882862	-0.718996	1.91676
H	-1.11162	1.17218	1.66839
H	-1.53222	1.39695	-1.04598
H	0.247605	-0.379519	-2.18289
C	6.37148	-0.461492	-0.47786
C	6.092	0.877035	-0.300713
N	4.88077	1.05037	0.281851
C	4.41062	-0.175961	0.465413
N	5.2725	-1.12239	0.0237929
H	7.24549	-0.973422	-0.910959
H	6.74263	1.72081	-0.582818
H	3.44094	-0.43781	0.918616
H	5.1306	-2.16162	0.0571782
