18
  This energy is -1.0032 and Call times are: 117423
C	-0.246408	-0.957867	-0.555135
C	0.412019	-0.95464	0.639368
C	0.533649	0.41801	1.01507
C	-0.0611899	1.13242	0.0169936
O	-0.543116	0.308197	-0.950178
H	-0.559027	-1.78344	-1.2154
H	0.775584	-1.83096	1.19971
H	1.01027	0.817559	1.92463
H	-0.204573	2.21675	-0.120515
C	4.09166	-0.353372	-0.178341
C	5.06036	-1.00565	0.554661
N	6.22555	-0.313675	0.54971
C	5.98063	0.76379	-0.183575
N	4.70791	0.786054	-0.645395
H	3.04238	-0.6108	-0.393483
H	4.9394	-1.96317	1.087
H	6.69753	1.56826	-0.414032
H	4.27336	1.52963	-1.245
