18
  This energy is -1.3771 and Call times are: 83924
C	0.874033	0.550742	0.468135
C	1.03903	-0.377593	-0.517433
C	-0.272603	-0.840693	-0.84191
C	-1.12333	-0.154469	-0.025981
O	-0.440172	0.699686	0.780697
H	1.60175	1.16665	1.02161
H	1.98907	-0.703565	-0.970489
H	-0.541712	-1.59711	-1.59656
H	-2.22061	-0.182918	0.076019
C	4.88	0.793933	0.86508
C	4.91199	1.04159	-0.490938
N	4.79391	-0.107016	-1.20035
C	4.68906	-1.06361	-0.287897
N	4.73554	-0.571257	0.972668
H	4.94756	1.47001	1.73219
H	5.01816	2.02849	-0.970126
H	4.57625	-2.14132	-0.487978
H	4.67337	-1.12415	1.86245
