18
  This energy is -2.2049 and Call times are: 40935
C	-0.579065	0.919192	-0.325839
C	0.169229	0.181158	-1.19517
C	0.736326	-0.877365	-0.421834
C	0.284514	-0.692736	0.851803
O	-0.520078	0.399845	0.928677
H	-1.19192	1.82346	-0.473989
H	0.307946	0.36383	-2.27289
H	1.40215	-1.67858	-0.780746
H	0.460714	-1.2613	1.77967
C	3.85561	0.265559	-1.14569
C	4.37879	-0.878399	-0.58108
N	4.26395	-0.853528	0.768995
C	3.67177	0.301467	1.0409
N	3.40507	1.01251	-0.080201
H	3.77472	0.590126	-2.19528
H	4.83707	-1.72126	-1.12369
H	3.41024	0.676076	2.04365
H	2.9431	1.95352	-0.128551
