18
  This energy is -1.3279 and Call times are: 130745
C	-0.18986	1.10766	0.153106
C	0.810006	0.44183	0.799103
C	0.730343	-0.912414	0.352119
C	-0.31117	-0.954594	-0.527564
O	-0.884653	0.270265	-0.66117
H	-0.505818	2.16327	0.186512
H	1.53129	0.862165	1.51824
H	1.37758	-1.75084	0.65579
H	-0.737971	-1.78328	-1.11609
C	4.00881	0.242252	-0.586471
C	4.7769	-0.897673	-0.694902
N	5.85168	-0.842852	0.12872
C	5.75074	0.326636	0.745757
N	4.65629	1.01819	0.348877
H	3.07832	0.546064	-1.09186
H	4.57481	-1.75869	-1.35267
H	6.45072	0.726109	1.49721
H	4.35782	1.96506	0.688905
