18
  This energy is -0.5579 and Call times are: 100990
C	-1.0229	-0.162833	-0.462122
C	-0.143354	-1.18478	-0.256209
C	1.0141	-0.591505	0.334089
C	0.739675	0.740605	0.43679
O	-0.500085	1.02015	-0.0447276
H	-2.03808	-0.14731	-0.89157
H	-0.294468	-2.24957	-0.495953
H	1.93883	-1.10486	0.643023
H	1.33498	1.58161	0.828683
C	6.4712	-1.13936	0.115769
C	5.21066	-0.599134	-0.0268529
N	5.26683	0.750575	-0.134743
C	6.55731	1.04655	-0.0593389
N	7.32456	-0.0588973	0.0920553
H	6.81006	-2.18145	0.228694
H	4.26166	-1.15907	-0.0538386
H	6.99518	2.0565	-0.109392
H	8.37026	-0.0874651	0.175476
