18
  This energy is -0.9609 and Call times are: 15766
C	0.701314	0.523196	0.721682
C	1.07537	0.187323	-0.546249
C	-0.0621388	-0.444822	-1.13497
C	-1.03089	-0.43944	-0.17483
O	-0.581916	0.147887	0.965558
H	1.24839	1.02506	1.5366
H	2.05412	0.366722	-1.01949
H	-0.140687	-0.852998	-2.15542
H	-2.06654	-0.817141	-0.179061
C	6.6762	-0.288667	-0.378901
C	6.07978	0.952553	-0.448253
N	4.83362	0.926278	0.0836302
C	4.65762	-0.326478	0.481435
N	5.74014	-1.09838	0.22471
H	7.66743	-0.641294	-0.705478
H	6.52633	1.86657	-0.872543
H	3.75527	-0.732316	0.966504
H	5.84618	-2.11918	0.443748
