18
  This energy is -1.2014 and Call times are: 95226
C	0.25992	-0.935406	-0.586394
C	-1.02822	-0.574661	-0.320041
C	-0.94756	0.639926	0.427215
C	0.382742	0.914177	0.551533
O	1.13473	-0.0374831	-0.0615525
H	0.680168	-1.79613	-1.1321
H	-1.94339	-1.11014	-0.619715
H	-1.78777	1.23339	0.82211
H	0.915216	1.74343	1.04556
C	4.63115	0.544244	-0.989561
C	4.31585	-0.790219	-0.844858
N	3.97634	-1.07602	0.435597
C	4.08063	0.0767531	1.08279
N	4.47241	1.08418	0.267203
H	4.94673	1.12839	-1.86861
H	4.32725	-1.55192	-1.64143
H	3.88193	0.239303	2.15439
H	4.62599	2.08575	0.540211
