18
  This energy is -1.3043 and Call times are: 86069
C	-0.563606	0.499774	0.847924
C	-0.656485	-0.83778	0.597528
C	0.184541	-1.08373	-0.530435
C	0.717116	0.125237	-0.869748
O	0.271047	1.10356	-0.0385332
H	-1.03492	1.13416	1.61647
H	-1.257	-1.57706	1.15155
H	0.365753	-2.05162	-1.02485
H	1.416	0.417407	-1.67065
C	4.23153	-0.913884	-0.574847
C	3.96394	-0.526169	0.720997
N	4.68218	0.571642	1.06077
C	5.39266	0.863867	-0.0201803
N	5.15624	-0.00250239	-1.03364
H	3.84235	-1.74609	-1.18272
H	3.26548	-1.0189	1.41686
H	6.10135	1.70128	-0.123768
H	5.59396	0.0164367	-1.98721
