18
  This energy is -1.1611 and Call times are: 77295
C	0.507719	-1.01414	0.011583
C	1.10443	0.10716	0.508557
C	0.166207	1.16695	0.317004
C	-0.921021	0.599713	-0.280114
O	-0.729754	-0.731746	-0.474136
H	0.854092	-2.05863	-0.0541972
H	2.10493	0.18062	0.964315
H	0.294623	2.22548	0.594716
H	-1.8801	1.02982	-0.61242
C	4.55657	-1.00934	0.411936
C	4.45641	-0.525892	-0.875459
N	5.08521	0.668171	-0.999304
C	5.5736	0.92451	0.206675
N	5.28162	-0.0569565	1.09271
H	4.17591	-1.93291	0.876324
H	3.9417	-1.01727	-1.71716
H	6.15266	1.81629	0.495892
H	5.5554	-0.0867365	2.10534
