18
  This energy is -0.7434 and Call times are: 129202
C	-0.416134	-1.05299	-0.0665949
C	-1.10935	0.0356168	-0.507903
C	-0.268505	1.16264	-0.257047
C	0.86431	0.663238	0.315411
O	0.791328	-0.68818	0.439326
H	-0.668909	-2.12596	-0.0566861
H	-2.11221	0.0441345	-0.964299
H	-0.489806	2.21871	-0.480273
H	1.78149	1.15841	0.674362
C	4.74464	-0.91465	-0.344986
C	4.42962	0.422084	-0.467635
N	5.41462	1.20448	0.036481
C	6.33721	0.356351	0.470221
N	5.98005	-0.933253	0.262976
H	4.19544	-1.82367	-0.637556
H	3.50924	0.836002	-0.910841
H	7.29308	0.62601	0.947526
H	6.53794	-1.785	0.51702
