18
  This energy is -0.9485 and Call times are: 112378
C	-0.920147	0.5181	0.413889
C	-0.0225109	1.15614	-0.390805
C	0.9812	0.188476	-0.70115
C	0.608313	-0.955463	-0.0587074
O	-0.550594	-0.772238	0.627131
H	-1.84957	0.867115	0.893067
H	-0.0631064	2.20317	-0.731649
H	1.87355	0.336073	-1.33046
H	1.07545	-1.95285	-0.0113431
C	5.85959	-0.816855	0.806507
C	4.61094	-0.517447	0.304134
N	4.67874	0.479526	-0.611268
C	5.96455	0.797404	-0.676536
N	6.71769	0.0440143	0.15939
H	6.18733	-1.55692	1.55379
H	3.66235	-1.00294	0.585787
H	6.40887	1.57415	-1.31956
H	7.75723	0.104209	0.289719
