18
  This energy is -1.3987 and Call times are: 13566
C	-0.534362	-0.00233701	-1.00043
C	0.0213636	1.12554	-0.471803
C	0.592132	0.731866	0.776943
C	0.33481	-0.601822	0.901173
O	-0.352342	-1.06674	-0.175248
H	-1.07936	-0.176281	-1.94275
H	0.0286313	2.1336	-0.916601
H	1.12992	1.37402	1.49284
H	0.583979	-1.32352	1.69636
C	5.06729	0.158324	0.956423
C	4.05043	0.976715	0.512161
N	3.4935	0.491244	-0.623913
C	4.16232	-0.624077	-0.883453
N	5.12171	-0.868374	0.0403901
H	5.73382	0.23145	1.83046
H	3.70864	1.90877	0.991016
H	3.99054	-1.29977	-1.73677
H	5.78133	-1.68442	0.0559046
