18
  This energy is -0.8071 and Call times are: 71447
C	-0.164399	0.140546	-1.11338
C	-1.00083	0.675606	-0.178257
C	-0.470618	0.285687	1.0894
C	0.643019	-0.453226	0.817014
O	0.845084	-0.552089	-0.523287
H	-0.178503	0.180045	-2.21497
H	-1.90091	1.28385	-0.362641
H	-0.877861	0.531505	2.08329
H	1.36666	-0.956262	1.47925
C	6.04263	-0.193607	-0.510419
C	5.11259	-1.14262	-0.142253
N	4.02274	-0.566217	0.420336
C	4.27571	0.735423	0.401257
N	5.48134	1.01111	-0.150151
H	7.03121	-0.287181	-0.987385
H	5.20843	-2.23289	-0.272483
H	3.61256	1.53068	0.778113
H	5.90734	1.9615	-0.278731
