18
  This energy is -0.9698 and Call times are: 104832
C	0.570072	-0.682377	0.704117
C	1.04646	-0.34128	-0.527584
C	0.0611587	0.517325	-1.10387
C	-0.930347	0.625115	-0.173453
O	-0.636125	-0.101105	0.936974
H	0.988498	-1.32215	1.49838
H	1.9964	-0.662111	-0.984492
H	0.0952774	0.994561	-2.09643
H	-1.88287	1.18	-0.18103
C	5.13178	0.381845	-1.10045
C	4.38155	0.703434	0.0108068
N	4.85759	0.0834918	1.11786
C	5.89917	-0.620017	0.695004
N	6.10559	-0.473393	-0.635214
H	5.0445	0.690764	-2.15425
H	3.50532	1.37167	0.0336007
H	6.54561	-1.25967	1.31725
H	6.86313	-0.925138	-1.20383
