18
  This energy is -0.879 and Call times are: 108419
C	0.837297	-0.448231	-0.620019
C	0.563387	0.887938	-0.619717
C	-0.541057	1.06045	0.269417
C	-0.84456	-0.185524	0.733961
O	-0.0128242	-1.119	0.201184
H	1.60028	-1.03801	-1.15413
H	1.08659	1.67329	-1.18855
H	-1.04442	2.00616	0.527025
H	-1.61831	-0.535264	1.43699
C	4.64941	0.300967	-0.436784
C	4.89312	-0.383338	0.735172
N	6.2225	-0.559277	0.930872
C	6.80131	0.0137006	-0.115696
N	5.89531	0.546914	-0.969181
H	3.70893	0.619694	-0.913691
H	4.13355	-0.75326	1.44303
H	7.88502	0.0714418	-0.306657
H	6.10248	1.05154	-1.86567
