18
  This energy is -1.121 and Call times are: 105731
C	0.815618	-0.402247	-0.677765
C	0.386289	0.8909	-0.739571
C	-0.632354	1.01261	0.254245
C	-0.73558	-0.216908	0.835627
O	0.14132	-1.09322	0.278733
H	1.58362	-0.945857	-1.25215
H	0.750391	1.67993	-1.41704
H	-1.21507	1.91476	0.500522
H	-1.38492	-0.591174	1.64404
C	4.30956	0.471197	0.82847
C	4.19576	0.63616	-0.535708
N	5.16077	-0.0515316	-1.19324
C	5.87054	-0.640879	-0.240598
N	5.39713	-0.356676	0.995811
H	3.71346	0.871009	1.66415
H	3.43464	1.23907	-1.05729
H	6.7469	-1.29127	-0.392938
H	5.78473	-0.701315	1.90809
