18
  This energy is -1.0341 and Call times are: 59489
C	0.903489	-0.461063	-0.507473
C	1.00218	0.619495	0.318983
C	-0.328358	0.900391	0.755887
C	-1.12266	-0.0333116	0.157849
O	-0.386989	-0.8729	-0.617319
H	1.66669	-1.02293	-1.07058
H	1.91987	1.16412	0.593419
H	-0.64739	1.70611	1.43642
H	-2.21078	-0.204338	0.202652
C	6.21839	-0.844224	-0.0511509
C	5.19855	-0.624655	-0.952735
N	4.43974	0.435689	-0.583428
C	4.98675	0.872268	0.54298
N	6.06216	0.133659	0.905679
H	7.0176	-1.60188	-0.0236539
H	4.99667	-1.21234	-1.86308
H	4.63989	1.72889	1.14308
H	6.66255	0.278355	1.75412
