18
  This energy is -0.984 and Call times are: 64482
C	-0.66196	0.885959	0.251567
C	0.32809	0.956257	-0.683972
C	0.928976	-0.339143	-0.715454
C	0.253074	-1.08669	0.203625
O	-0.721958	-0.354421	0.803717
H	-1.38308	1.63838	0.610871
H	0.607253	1.83243	-1.291
H	1.76666	-0.667037	-1.35175
H	0.368031	-2.13669	0.519126
C	4.97605	0.904471	0.679764
C	4.28992	-0.276619	0.491626
N	4.95368	-1.09725	-0.358374
C	6.04743	-0.427798	-0.696268
N	6.1071	0.784762	-0.0964944
H	4.74712	1.79208	1.29073
H	3.32783	-0.551341	0.95398
H	6.83775	-0.778804	-1.37922
H	6.86968	1.49784	-0.202592
