18
  This energy is -1.4821 and Call times are: 97933
C	0.146094	0.341574	-1.07163
C	-0.181693	1.20509	-0.0680021
C	-0.275839	0.411236	1.11565
C	0.00272744	-0.867319	0.730856
O	0.26277	-0.92829	-0.601687
H	0.321903	0.504163	-2.14769
H	-0.341187	2.29205	-0.152708
H	-0.522842	0.760311	2.13115
H	0.047541	-1.8093	1.30174
C	5.03832	-0.720083	-0.566974
C	4.03303	-1.08395	0.303738
N	3.37688	0.00424782	0.774694
C	3.97284	1.03927	0.198343
N	4.98099	0.654729	-0.619805
H	5.76617	-1.32211	-1.13383
H	3.76941	-2.11218	0.600566
H	3.71099	2.10017	0.340276
H	5.60085	1.28399	-1.18642
