18
  This energy is -1.0484 and Call times are: 82288
C	-0.933239	-0.155724	-0.625472
C	-0.820051	0.860586	0.277122
C	0.478571	0.726177	0.856461
C	1.04431	-0.360403	0.256751
O	0.196119	-0.911309	-0.651039
H	-1.75436	-0.444785	-1.30183
H	-1.57528	1.62793	0.511444
H	0.930405	1.36859	1.62928
H	2.0301	-0.836482	0.38649
C	4.5814	0.251436	1.02612
C	5.0904	-0.968252	0.633149
N	5.61701	-0.899166	-0.613614
C	5.4354	0.358598	-0.992656
N	4.81506	1.09265	-0.0387472
H	4.08597	0.569698	1.95714
H	5.08709	-1.89686	1.22689
H	5.73745	0.795114	-1.95829
H	4.56059	2.10896	-0.0988879
