18
  This energy is -1.4807 and Call times are: 79135
C	-1.03161	-0.226055	0.413622
C	-0.249798	0.776139	0.908349
C	0.954545	0.747568	0.140978
C	0.802375	-0.269562	-0.754937
O	-0.40475	-0.875094	-0.602649
H	-2.03939	-0.573544	0.69449
H	-0.496445	1.46629	1.73112
H	1.82733	1.41116	0.250485
H	1.47032	-0.656806	-1.54179
C	4.65259	-0.570186	-0.999384
C	5.33468	-1.06834	0.0904485
N	5.43945	-0.136635	1.06895
C	4.82469	0.935448	0.587977
N	4.33311	0.724495	-0.655985
H	4.38099	-1.03004	-1.96287
H	5.75309	-2.08334	0.188244
H	4.70558	1.90136	1.10476
H	3.80855	1.41553	-1.24638
