18
  This energy is -0.8539 and Call times are: 87034
C	-0.864306	-0.249922	-0.69059
C	-0.746498	-0.789112	0.556715
C	0.451632	-0.24087	1.10811
C	0.960217	0.584945	0.149073
O	0.169347	0.591539	-0.956139
H	-1.62675	-0.383006	-1.47558
H	-1.43431	-1.50145	1.04002
H	0.877472	-0.443623	2.10392
H	1.86485	1.21469	0.131286
C	4.73368	0.0271769	0.671246
C	4.98099	0.784329	-0.454233
N	6.19603	0.495373	-0.980248
C	6.70057	-0.437493	-0.184122
N	5.85693	-0.754067	0.826637
H	3.86676	-0.00974709	1.34995
H	4.30447	1.53393	-0.896132
H	7.6835	-0.922985	-0.295454
H	6.02624	-1.46012	1.58432
