18
  This energy is -1.2416 and Call times are: 126270
C	-0.622396	-0.500071	-0.805576
C	-1.18224	0.0870413	0.290895
C	-0.0925201	0.59758	1.0603
C	1.03704	0.277383	0.366074
O	0.73212	-0.393191	-0.776015
H	-1.07317	-1.02032	-1.66662
H	-2.25497	0.153897	0.533554
H	-0.15236	1.13898	2.01811
H	2.1025	0.467502	0.575573
C	4.66231	0.105512	-1.16404
C	4.64426	-1.06224	-0.431126
N	4.83516	-0.814538	0.887476
C	4.97112	0.501878	0.972259
N	4.87464	1.10204	-0.237738
H	4.54305	0.291694	-2.24324
H	4.49692	-2.07906	-0.830151
H	5.1431	1.07808	1.89564
H	4.94766	2.13052	-0.433034
