18
  This energy is -0.8889 and Call times are: 98332
C	0.483009	0.823379	-0.612495
C	-0.0337174	1.04478	0.630223
C	-0.544563	-0.214056	1.07122
C	-0.294911	-1.09359	0.0590644
O	0.332118	-0.477103	-0.977174
H	0.977828	1.49887	-1.32952
H	-0.053192	1.99885	1.1811
H	-1.03887	-0.430064	2.032
H	-0.510883	-2.16965	-0.0443516
C	4.15093	-0.0179207	-0.533127
C	4.9299	1.09045	-0.276482
N	6.07877	0.744937	0.353782
C	6.01278	-0.572771	0.487628
N	4.86954	-1.07999	-0.0313489
H	3.16883	-0.122556	-1.02105
H	4.68353	2.13325	-0.534794
H	6.77399	-1.21592	0.957886
H	4.58483	-2.0899	-0.0482621
