18
  This energy is -1.3122 and Call times are: 17984
C	-0.720489	-0.875851	-0.0134694
C	0.380829	-0.823592	-0.816428
C	1.02649	0.414171	-0.514461
C	0.262729	1.00902	0.446368
O	-0.808251	0.235138	0.764355
H	-1.50898	-1.63825	0.0973299
H	0.705929	-1.58071	-1.54798
H	1.95173	0.807541	-0.96534
H	0.372609	1.96885	0.977325
C	4.97998	0.796623	-0.819816
C	4.46246	1.04595	0.433641
N	4.25909	-0.106829	1.11647
C	4.64896	-1.06765	0.289766
N	5.09196	-0.574002	-0.890763
H	5.26692	1.47493	-1.63902
H	4.23217	2.03697	0.857535
H	4.63134	-2.14952	0.498319
H	5.45212	-1.12952	-1.70497
