18
  This energy is -0.8579 and Call times are: 7461
C	-1.12505	0.0984849	-0.104667
C	-0.289057	1.17462	-0.163089
C	1.03023	0.654563	0.00759095
C	0.883971	-0.693465	0.155246
O	-0.425671	-1.05054	0.0893055
H	-2.22158	0.019273	-0.185918
H	-0.572943	2.22889	-0.311488
H	1.97262	1.22544	0.0178383
H	1.6231	-1.49629	0.311479
C	6.2636	0.737097	0.633576
C	6.26965	0.588687	-0.737221
N	5.37661	-0.351542	-1.13086
C	4.81865	-0.784777	-0.00852817
N	5.31967	-0.159177	1.08289
H	6.84482	1.39513	1.29894
H	6.9024	1.14319	-1.44926
H	4.03827	-1.55864	0.0712271
H	5.04198	-0.325249	2.08117
