18
  This energy is -0.6563 and Call times are: 89706
C	0.141914	-0.0476224	-1.12427
C	1.17917	0.169856	-0.265687
C	0.610512	0.161603	1.04453
C	-0.724046	-0.0601912	0.870939
O	-1.02785	-0.190363	-0.447306
H	0.106037	-0.121795	-2.22358
H	2.23848	0.320935	-0.528624
H	1.14126	0.305011	1.99944
H	-1.55116	-0.145848	1.59468
C	6.78445	0.83577	0.266867
C	5.4544	0.803314	0.628878
N	4.84459	-0.308069	0.149842
C	5.79273	-0.962596	-0.506854
N	6.98053	-0.313737	-0.465509
H	7.5788	1.571	0.471754
H	4.92386	1.56191	1.22714
H	5.67147	-1.92144	-1.03614
H	7.87954	-0.626696	-0.907203
