18
  This energy is -1.2939 and Call times are: 84770
C	0.136878	0.598022	-0.953958
C	0.503737	-0.711866	-0.85404
C	0.178287	-1.10846	0.478968
C	-0.358721	-0.00592158	1.07596
O	-0.3917	1.04545	0.215411
H	0.198858	1.31282	-1.7909
H	0.957964	-1.33619	-1.64017
H	0.33001	-2.10142	0.931861
H	-0.749573	0.157048	2.09376
C	3.9853	-0.314488	0.880563
C	4.02623	-0.857559	-0.386143
N	4.97223	-0.254208	-1.14612
C	5.5161	0.659691	-0.353897
N	4.95536	0.662834	0.878643
H	3.35551	-0.546592	1.75408
H	3.39012	-1.67392	-0.765311
H	6.32815	1.35321	-0.625617
H	5.21089	1.29023	1.6801
