18
  This energy is -0.8075 and Call times are: 63256
C	0.665478	0.748227	0.532632
C	1.16342	-0.357844	-0.0910976
C	0.0336994	-1.04161	-0.635447
C	-1.05486	-0.293024	-0.296308
O	-0.687527	0.803736	0.417268
H	1.1628	1.56134	1.08651
H	2.22024	-0.661741	-0.160863
H	0.0404588	-1.98107	-1.21118
H	-2.12943	-0.431313	-0.499842
C	5.71273	-0.962074	0.651488
C	6.6879	-0.0071356	0.847135
N	6.61419	0.966246	-0.0928681
C	5.59716	0.616496	-0.868717
N	5.02071	-0.53907	-0.461327
H	5.47034	-1.88203	1.20688
H	7.44335	-0.00306357	1.64972
H	5.23204	1.17044	-1.74853
H	4.2025	-1.02096	-0.908064
