18
  This energy is -1.2907 and Call times are: 132701
C	-0.615094	-0.479865	0.823279
C	0.316536	-1.17384	0.108553
C	0.87077	-0.241327	-0.820615
C	0.228898	0.940179	-0.591666
O	-0.681893	0.812761	0.408951
H	-1.28694	-0.78742	1.64138
H	0.58639	-2.23589	0.224064
H	1.65578	-0.436601	-1.56876
H	0.328219	1.93013	-1.06641
C	4.85261	-1.05972	0.445275
C	4.92931	0.152066	1.0986
N	4.56455	1.17092	0.282872
C	4.26271	0.593392	-0.87211
N	4.4203	-0.750685	-0.825077
H	5.06789	-2.08589	0.783181
H	5.2413	0.309459	2.14394
H	3.92107	1.10773	-1.78478
H	4.24631	-1.42827	-1.6073
