18
  This energy is -1.6508 and Call times are: 73881
C	-0.911693	0.619521	0.267226
C	-0.425544	0.546501	-1.00506
C	0.71089	-0.316321	-0.94046
C	0.818879	-0.694392	0.365593
O	-0.16388	-0.132197	1.11735
H	-1.77111	1.16429	0.691352
H	-0.82694	1.04975	-1.89933
H	1.3658	-0.615061	-1.77469
H	1.5407	-1.35015	0.879598
C	4.66616	-0.782035	0.698946
C	5.89516	-0.191812	0.904675
N	6.20216	0.661438	-0.102413
C	5.16755	0.600779	-0.929765
N	4.21498	-0.255697	-0.490841
H	4.09959	-1.51491	1.29513
H	6.56586	-0.366351	1.76173
H	5.05601	1.16251	-1.87117
H	3.30593	-0.476689	-0.966293
