18
  This energy is -1.1803 and Call times are: 108579
C	0.370434	1.00815	-0.364424
C	-0.952436	0.67605	-0.354557
C	-1.01805	-0.652955	0.164631
C	0.270509	-1.01567	0.426201
O	1.13169	-0.0132638	0.109079
H	0.891171	1.92718	-0.679832
H	-1.79728	1.30396	-0.680219
H	-1.92389	-1.26035	0.32155
H	0.699945	-1.94582	0.833191
C	4.73934	0.83719	-0.754356
C	4.57707	-0.504875	-1.02578
N	4.17554	-1.18149	0.0776121
C	4.08904	-0.262669	1.02993
N	4.41889	0.970511	0.578207
H	5.04982	1.67874	-1.39384
H	4.74252	-0.997074	-1.998
H	3.78906	-0.438465	2.07556
H	4.42866	1.85892	1.13668
