18
  This energy is -0.4327 and Call times are: 40016
C	-0.625035	0.726006	-0.607163
C	0.640742	1.02077	-0.193285
C	1.09161	-0.124236	0.531828
C	0.0615512	-1.01762	0.497045
O	-0.994924	-0.514899	-0.194432
H	-1.35638	1.30644	-1.19325
H	1.20076	1.95118	-0.379889
H	2.07071	-0.258108	1.01921
H	-0.0424513	-2.03036	0.919884
C	6.66751	-0.426102	1.09657
C	5.59138	-0.197524	0.2654
N	5.99383	0.298395	-0.929845
C	7.31461	0.377172	-0.840508
N	7.7692	-0.0480667	0.362032
H	6.72537	-0.817957	2.1245
H	4.53179	-0.381555	0.506735
H	7.99744	0.738972	-1.62604
H	8.77019	-0.0831113	0.675176
