18
  This energy is -0.805 and Call times are: 109531
C	-0.283592	-0.946956	0.556104
C	-1.15701	0.0856376	0.379305
C	-0.44283	1.08029	-0.356032
C	0.803974	0.567713	-0.563674
O	0.918822	-0.669616	-0.0133666
H	-0.394727	-1.92004	1.06207
H	-2.19962	0.141313	0.73139
H	-0.821609	2.06049	-0.687437
H	1.68656	0.978588	-1.08086
C	4.76668	0.645989	-0.655772
C	4.90467	-0.725756	-0.67627
N	5.8433	-1.13574	0.211084
C	6.28593	-0.0225753	0.779908
N	5.66784	1.07869	0.291263
H	4.11279	1.32231	-1.22897
H	4.34377	-1.42698	-1.31543
H	7.06162	0.0432182	1.55979
H	5.84193	2.07275	0.579006
