18
  This energy is -0.8855 and Call times are: 30189
C	1.13284	0.0552039	0.00577671
C	0.431036	-0.647926	0.940366
C	-0.946655	-0.479591	0.603097
C	-0.965121	0.311545	-0.50782
O	0.29613	0.647555	-0.886441
H	2.21561	0.209939	-0.131714
H	0.842261	-1.22703	1.78276
H	-1.81598	-0.902231	1.132
H	-1.79926	0.7005	-1.11459
C	5.40858	-0.838676	0.798879
C	5.01384	-1.0219	-0.509461
N	4.8654	0.165303	-1.14588
C	5.1669	1.08155	-0.235815
N	5.50103	0.526537	0.953265
H	5.62309	-1.55915	1.60414
H	4.83349	-1.98945	-1.00561
H	5.15927	2.17303	-0.386976
H	5.77778	1.03864	1.82643
