18
  This energy is -1.9979 and Call times are: 60412
C	-0.961014	-0.532045	-0.282457
C	-0.403002	-0.641065	0.957347
C	0.778872	0.160378	0.926027
C	0.838754	0.688398	-0.33015
O	-0.215869	0.276068	-1.08166
H	-1.87387	-0.973716	-0.71475
H	-0.785303	-1.22707	1.80855
H	1.49511	0.31931	1.74812
H	1.57036	1.36186	-0.806022
C	4.95189	-0.977903	-0.637858
C	6.14925	-0.431044	-0.227479
N	5.94887	0.699661	0.492149
C	4.63221	0.853675	0.528071
N	3.98653	-0.132165	-0.13887
H	4.726	-1.879	-1.22992
H	7.15414	-0.832098	-0.437752
H	4.08812	1.67066	1.0288
H	2.94833	-0.233033	-0.25393
