18
  This energy is -1.5499 and Call times are: 131858
C	0.591779	0.409319	0.876731
C	0.359279	-0.924472	0.711447
C	-0.407617	-1.04202	-0.487791
C	-0.576056	0.230322	-0.94948
O	0.0277614	1.12939	-0.128451
H	1.13696	0.965216	1.65712
H	0.694217	-1.74341	1.36814
H	-0.785502	-1.97021	-0.945777
H	-1.09793	0.622669	-1.83771
C	5.23491	0.885521	0.641716
C	5.86894	0.218332	-0.384929
N	5.07357	-0.748207	-0.904249
C	3.95038	-0.680889	-0.202444
N	3.99813	0.288417	0.741884
H	5.56527	1.71529	1.28661
H	6.88605	0.417055	-0.760232
H	3.0614	-1.31764	-0.338431
H	3.23786	0.53761	1.42097
