18
  This energy is -1.2107 and Call times are: 113618
C	-0.5844	0.0358	0.971389
C	-0.252704	1.16169	0.276603
C	0.46869	0.71402	-0.872005
C	0.514146	-0.645913	-0.777722
O	-0.124045	-1.07726	0.341951
H	-1.13835	-0.104991	1.91403
H	-0.492022	2.20298	0.545921
H	0.899903	1.33921	-1.67031
H	0.963946	-1.40959	-1.43326
C	5.74616	0.60188	0.357229
C	5.40073	0.298349	-0.942652
N	4.24548	-0.408598	-0.988877
C	3.87563	-0.543126	0.277511
N	4.74767	0.0489196	1.12758
H	6.60327	1.15383	0.774663
H	5.96438	0.57679	-1.84798
H	2.97511	-1.06577	0.638245
H	4.67669	0.080669	2.17411
