18
  This energy is -0.7968 and Call times are: 53031
C	-0.622766	0.216701	0.922824
C	0.714095	0.481008	0.86521
C	1.13669	0.0771734	-0.438037
C	0.0207606	-0.398261	-1.06177
O	-1.06294	-0.320574	-0.245334
H	-1.36299	0.363071	1.7265
H	1.33986	0.916647	1.66065
H	2.15525	0.137451	-0.853953
H	-0.131467	-0.813787	-2.07143
C	6.39081	-0.735569	0.831441
C	7.05219	-0.360267	-0.318721
N	6.30691	0.502256	-1.0516
C	5.18743	0.661433	-0.358735
N	5.18954	-0.0640556	0.784616
H	6.68034	-1.41047	1.65255
H	8.05378	-0.696393	-0.63287
H	4.33368	1.29756	-0.642789
H	4.42226	-0.106851	1.49926
