18
  This energy is -1.7002 and Call times are: 18080
C	-0.847955	-0.0366713	0.752349
C	0.072703	0.969587	0.737905
C	0.964771	0.667969	-0.33604
C	0.510495	-0.495978	-0.883064
O	-0.595842	-0.94048	-0.230799
H	-1.7187	-0.221651	1.4026
H	0.118992	1.83721	1.41554
H	1.84023	1.25524	-0.656632
H	0.880971	-1.10063	-1.7271
C	3.81943	-0.942996	0.39848
C	4.18379	-0.685905	-0.906238
N	4.84184	0.49455	-1.00624
C	4.88555	0.967982	0.231734
N	4.28259	0.137689	1.11527
H	3.28127	-1.79024	0.852462
H	3.98364	-1.33103	-1.77722
H	5.34681	1.91774	0.547081
H	4.18627	0.288452	2.14932
