18
  This energy is -0.6017 and Call times are: 8844
C	0.830295	0.619037	0.462389
C	-0.480316	0.785315	0.801538
C	-1.20979	-0.161048	0.0189896
C	-0.280553	-0.822093	-0.729283
O	0.970661	-0.358529	-0.471245
H	1.74528	1.12691	0.808979
H	-0.892087	1.50245	1.52973
H	-2.2996	-0.323549	0.019803
H	-0.380562	-1.63099	-1.47153
C	6.17172	-0.754109	-0.699681
C	6.34183	-0.59458	0.659272
N	5.51745	0.364784	1.14562
C	4.8385	0.798768	0.0923852
N	5.1967	0.155303	-1.04394
H	6.65923	-1.42795	-1.42204
H	7.04463	-1.15453	1.29753
H	4.06736	1.58588	0.0971046
H	4.80611	0.318146	-2.00424
