18
  This energy is -0.9151 and Call times are: 60890
C	-0.952088	0.353677	-0.504818
C	0.0767106	-0.211123	-1.19976
C	1.08006	-0.519556	-0.231118
C	0.575824	-0.116009	0.970242
O	-0.664357	0.419643	0.821783
H	-1.92902	0.744422	-0.833719
H	0.124276	-0.392366	-2.28557
H	2.06024	-0.987486	-0.416581
H	0.994957	-0.154419	1.98911
C	5.72169	1.00961	0.43355
C	5.10988	-0.00334582	1.14119
N	4.74767	-1.02121	0.323099
C	5.13331	-0.641151	-0.887464
N	5.72587	0.576333	-0.873524
H	6.14042	1.97589	0.75682
H	4.92332	-0.0179775	2.2274
H	5.00631	-1.21597	-1.81896
H	6.11446	1.09198	-1.70079
