18
  This energy is -0.9182 and Call times are: 132389
C	0.796136	-0.348452	-0.7288
C	-0.264255	0.416885	-1.11636
C	-1.03282	0.647234	0.0653191
C	-0.374236	0.002325	1.07067
O	0.744934	-0.611144	0.603635
H	1.64355	-0.765265	-1.29749
H	-0.483263	0.782541	-2.13245
H	-1.9662	1.227	0.147599
H	-0.5962	-0.0939815	2.14618
C	4.70326	-0.366692	0.668193
C	4.83325	-0.515349	-0.696412
N	5.99398	0.0265843	-1.13859
C	6.58184	0.509605	-0.0524356
N	5.84326	0.297467	1.0625
H	3.90675	-0.676203	1.36341
H	4.1103	-1.00393	-1.36983
H	7.55361	1.0279	-0.0169104
H	6.0917	0.584282	2.0409
