18
  This energy is -1.1587 and Call times are: 83892
C	-0.601547	-0.289273	0.916986
C	0.204213	0.810887	0.889184
C	0.783325	0.838499	-0.416184
C	0.28033	-0.247224	-1.07084
O	-0.567163	-0.947275	-0.271653
H	-1.24253	-0.706151	1.71109
H	0.373764	1.53076	1.70597
H	1.49116	1.58403	-0.812728
H	0.445122	-0.625682	-2.09302
C	5.40594	-1.10352	0.050552
C	4.12072	-0.681551	0.317542
N	4.0042	0.659462	0.160639
C	5.21254	1.06787	-0.202308
N	6.09306	0.042306	-0.282842
H	5.86491	-2.1047	0.0734447
H	3.27543	-1.3207	0.620575
H	5.50747	2.10673	-0.42146
H	7.10616	0.107578	-0.548615
