18
  This energy is -1.1709 and Call times are: 51336
C	-0.565691	-0.0224805	0.982796
C	-0.046337	-1.14766	0.413051
C	0.582168	-0.719346	-0.795934
C	0.391401	0.629764	-0.858256
O	-0.307738	1.07226	0.219897
H	-1.13213	0.129676	1.9162
H	-0.100403	-2.1761	0.804835
H	1.11229	-1.34966	-1.52789
H	0.699463	1.37788	-1.60703
C	5.8058	0.186742	0.581885
C	4.60516	0.836593	0.775003
N	3.65499	0.369164	-0.0706999
C	4.26387	-0.567107	-0.785749
N	5.56205	-0.714773	-0.430066
H	6.7838	0.2983	1.07646
H	4.40747	1.63436	1.5094
H	3.80597	-1.17508	-1.58258
H	6.25151	-1.38778	-0.845937
