18
  This energy is -1.4244 and Call times are: 12813
C	-0.294533	-0.877287	0.655758
C	0.954526	-0.33016	0.685393
C	0.937269	0.735463	-0.265537
C	-0.320812	0.745453	-0.792325
O	-1.08649	-0.232773	-0.241131
H	-0.73864	-1.71636	1.21609
H	1.80293	-0.645358	1.31384
H	1.76963	1.41075	-0.520967
H	-0.788932	1.38909	-1.55511
C	5.01237	0.378391	1.11434
C	5.55844	-0.792124	0.631796
N	5.35974	-0.9099	-0.703554
C	4.69295	0.183393	-1.04811
N	4.45915	0.991914	0.0126532
H	4.97941	0.803996	2.12988
H	6.09223	-1.55377	1.22325
H	4.35127	0.441842	-2.06334
H	3.9529	1.91103	-0.00145746
