18
  This energy is -0.7585 and Call times are: 53352
C	0.0707085	1.12577	0.118488
C	1.1707	0.319405	0.131678
C	0.682079	-1.01134	-0.0429024
C	-0.673362	-0.900704	-0.147364
O	-1.06409	0.397394	-0.0509857
H	-0.036065	2.2184	0.21854
H	2.22083	0.630488	0.25225
H	1.27805	-1.93718	-0.0846004
H	-1.46	-1.65968	-0.290223
C	6.79258	0.538906	0.330854
C	5.76711	1.07904	-0.416009
N	4.77629	0.17534	-0.611219
C	5.18552	-0.921262	0.0121703
N	6.39566	-0.752751	0.595931
H	7.74493	0.967968	0.680799
H	5.72442	2.10463	-0.817506
H	4.63814	-1.87571	0.0724122
H	6.92977	-1.46949	1.14571
