18
  This energy is -0.5408 and Call times are: 20551
C	0.862403	-0.535643	0.505716
C	0.364949	-0.929774	-0.701584
C	-0.696814	-0.0228099	-1.00191
C	-0.754457	0.84549	0.0483806
O	0.190596	0.547088	0.978349
H	1.68109	-0.93695	1.12536
H	0.710976	-1.77445	-1.31875
H	-1.33769	-0.0244658	-1.89822
H	-1.41311	1.70613	0.250159
C	6.9159	-0.0672063	-0.736007
C	6.96402	0.0995385	0.631847
N	5.71818	0.134178	1.164
C	4.90028	-0.0105267	0.130211
N	5.57407	-0.135802	-1.03765
H	7.7149	-0.139496	-1.49093
H	7.87537	0.195469	1.2443
H	3.79936	-0.0317727	0.172118
H	5.1543	-0.261278	-1.99122
