18
  This energy is -0.6946 and Call times are: 18560
C	0.847535	0.128106	0.742748
C	-0.278829	0.896405	0.780129
C	-1.09788	0.442225	-0.29829
C	-0.39973	-0.563523	-0.899476
O	0.790673	-0.768801	-0.27673
H	1.74928	0.121336	1.37683
H	-0.509748	1.70214	1.49537
H	-2.09011	0.825802	-0.585435
H	-0.63762	-1.20224	-1.7659
C	6.55193	-0.221478	0.0953962
C	5.5174	-1.00277	0.564943
N	4.31563	-0.44487	0.280286
C	4.60353	0.678251	-0.363406
N	5.93866	0.858087	-0.500109
H	7.6447	-0.352939	0.141348
H	5.61659	-1.95902	1.10401
H	3.87505	1.40564	-0.756419
H	6.41574	1.66597	-0.970178
