18
  This energy is -0.6682 and Call times are: 93846
C	0.366007	-1.04505	0.245575
C	-0.934199	-0.668393	0.412808
C	-1.00145	0.697847	0.00173339
C	0.263602	1.03547	-0.380413
O	1.11168	-0.0169161	-0.238079
H	0.879476	-2.00265	0.431614
H	-1.76281	-1.29026	0.788005
H	-1.89256	1.34589	-0.00516058
H	0.683504	1.97886	-0.766344
C	5.56018	0.189897	-1.07498
C	4.8532	0.109887	0.106082
N	5.67949	-0.118413	1.15567
C	6.89446	-0.179801	0.627746
N	6.87547	-2.35893e-05	-0.714233
H	5.23136	0.362777	-2.11206
H	3.76171	0.212802	0.219681
H	7.8329	-0.354138	1.17836
H	7.7047	-0.00446695	-1.35736
