18
  This energy is -1.289 and Call times are: 49590
C	-0.0331421	-0.370905	1.07132
C	-0.905776	-0.809475	0.119198
C	-0.551068	-0.123136	-1.08215
C	0.507011	0.674257	-0.758102
O	0.836694	0.535617	0.553042
H	0.071333	-0.623539	2.13927
H	-1.7178	-1.54274	0.249752
H	-1.03339	-0.218453	-2.06824
H	1.10503	1.3766	-1.36171
C	5.391	0.992675	-0.224525
C	5.83458	-0.0862084	0.510589
N	4.89312	-1.05935	0.566946
C	3.86939	-0.585977	-0.130553
N	4.12044	0.648017	-0.62837
H	5.87347	1.9494	-0.48032
H	6.81706	-0.179874	1.00131
H	2.91182	-1.10147	-0.308216
H	3.47096	1.23112	-1.21098
