18
  This energy is -0.5258 and Call times are: 92508
C	0.851594	0.347011	0.663907
C	0.122394	1.21035	-0.0998276
C	-0.842289	0.408757	-0.783171
C	-0.617433	-0.873658	-0.376693
O	0.41345	-0.929884	0.507123
H	1.69629	0.514311	1.3522
H	0.25093	2.30213	-0.174498
H	-1.61042	0.755471	-1.493
H	-1.115	-1.82169	-0.639204
C	6.02289	-0.351299	1.1092
C	5.11957	0.293801	0.291272
N	5.65858	0.550395	-0.925339
C	6.8916	0.066319	-0.862406
N	7.15946	-0.48764	0.343814
H	5.94012	-0.711001	2.14713
H	4.08857	0.578687	0.5572
H	7.64017	0.0909836	-1.67065
H	8.06116	-0.935643	0.639622
