18
  This energy is -1.1582 and Call times are: 90692
C	-0.735656	0.560515	-0.656533
C	-0.585428	0.834738	0.6711
C	0.416778	-0.0656896	1.14537
C	0.790512	-0.810664	0.0656886
O	0.0968593	-0.44168	-1.04323
H	-1.39223	1.00152	-1.42443
H	-1.12612	1.59484	1.25761
H	0.80763	-0.142528	2.17271
H	1.52841	-1.62251	-0.0423142
C	7.03167	-0.598385	-0.862758
C	5.70062	-0.244122	-0.799927
N	5.43056	0.441216	0.337566
C	6.58966	0.511849	0.977968
N	7.58603	-0.100138	0.295096
H	7.60452	-1.15135	-1.62408
H	4.93031	-0.470753	-1.55498
H	6.76488	1	1.9502
H	8.58962	-0.179883	0.591244
