18
  This energy is -1.1733 and Call times are: 131344
C	0.218592	-0.414717	1.03278
C	0.269163	-1.18714	-0.0902478
C	-0.0621462	-0.320445	-1.17616
C	-0.285929	0.905089	-0.620853
O	-0.118894	0.865834	0.72732
H	0.399172	-0.654197	2.09357
H	0.5151	-2.25964	-0.148146
H	-0.124159	-0.587361	-2.2434
H	-0.566333	1.87153	-1.07099
C	4.87898	-0.58558	1.00506
C	3.78807	0.194499	0.684863
N	3.9115	0.720659	-0.557889
C	5.07456	0.268714	-1.00695
N	5.69627	-0.523193	-0.101436
H	5.12341	-1.16148	1.91178
H	2.91414	0.387094	1.32829
H	5.51872	0.486732	-1.99154
H	6.6241	-0.999001	-0.219732
