18
  This energy is -1.2536 and Call times are: 132357
C	1.05797	-0.0967597	0.397175
C	0.723255	0.793891	-0.58011
C	-0.676272	0.619147	-0.80573
C	-1.07325	-0.36286	0.0535982
O	-0.0269834	-0.811535	0.795915
H	2.02029	-0.315875	0.888266
H	1.39455	1.50281	-1.09088
H	-1.30583	1.16564	-1.52621
H	-2.05823	-0.825114	0.230761
C	4.74981	-0.0595594	-1.16576
C	5.18397	1.03077	-0.441993
N	5.24087	0.74718	0.88196
C	4.84351	-0.514281	0.979171
N	4.53615	-1.04507	-0.228048
H	4.58332	-0.199247	-2.24571
H	5.45718	2.01697	-0.851388
H	4.75917	-1.09788	1.91005
H	4.19927	-2.02135	-0.41424
