18
  This energy is -0.9307 and Call times are: 78078
C	0.899342	-0.634532	0.273776
C	1.00603	0.6905	-0.0316447
C	-0.321374	1.13413	-0.316788
C	-1.12204	0.041033	-0.160442
O	-0.393211	-1.04792	0.200112
H	1.65775	-1.38309	0.556158
H	1.92708	1.29487	-0.0539091
H	-0.634138	2.15086	-0.604091
H	-2.21059	-0.0902529	-0.274808
C	6.87369	0.0864711	0.00809235
C	6.05879	-0.0115539	-1.09982
N	4.75458	-0.0949749	-0.741265
C	4.76035	-0.0488773	0.584052
N	6.01418	0.0604161	1.08361
H	7.96791	0.170135	0.104075
H	6.38855	-0.0235798	-2.15147
H	3.87479	-0.0913577	1.23844
H	6.28076	0.114922	2.09713
