18
  This energy is -0.9941 and Call times are: 45336
C	-0.895324	0.673667	-0.17598
C	-0.48088	-0.245284	-1.09475
C	0.657319	-0.887987	-0.518942
C	0.837934	-0.305047	0.700867
O	-0.101332	0.650859	0.926775
H	-1.72971	1.39403	-0.187508
H	-0.931474	-0.450019	-2.0792
H	1.26467	-1.69011	-0.968183
H	1.58724	-0.478943	1.49052
C	4.70361	1.04151	-0.378455
C	4.40386	0.427551	0.81919
N	5.03605	-0.766184	0.928005
C	5.72537	-0.892309	-0.197853
N	5.55798	0.171694	-1.0185
H	4.38018	2.00374	-0.806293
H	3.74276	0.824544	1.60672
H	6.36897	-1.74354	-0.472482
H	5.99564	0.30806	-1.96249
