18
  This energy is -0.7338 and Call times are: 48058
C	-0.269084	0.532433	-0.964629
C	-0.939164	-0.572796	-0.528927
C	-0.317365	-0.947368	0.701186
C	0.677797	-0.0379684	0.908598
O	0.721649	0.87306	-0.0989318
H	-0.398721	1.15954	-1.86195
H	-1.78633	-1.07401	-1.0241
H	-0.586569	-1.79675	1.3494
H	1.41333	0.0679542	1.72286
C	4.59057	0.468981	0.581459
C	5.45164	-0.505676	1.03944
N	6.38563	-0.810396	0.105993
C	6.10505	-0.0277548	-0.927143
N	5.03125	0.762302	-0.689742
H	3.7243	0.958282	1.05441
H	5.41571	-0.99447	2.02668
H	6.65361	0.00729909	-1.88217
H	4.61392	1.46451	-1.34853
