18
  This energy is -1.0638 and Call times are: 23175
C	0.554	0.0425207	0.988776
C	0.67528	-1.00869	0.128181
C	-0.161966	-0.699637	-0.986997
C	-0.720966	0.513148	-0.709428
O	-0.294806	0.981126	0.493235
H	1.01271	0.239391	1.97167
H	1.29242	-1.91121	0.264948
H	-0.323046	-1.31489	-1.88678
H	-1.4272	1.14003	-1.2782
C	4.6238	-0.446316	0.853608
C	4.21261	-0.0275826	-0.394082
N	5.25767	0.432073	-1.12421
C	6.31317	0.299002	-0.332479
N	5.98301	-0.226267	0.871132
H	4.06404	-0.871147	1.70197
H	3.1806	-0.0489009	-0.780535
H	7.35106	0.570525	-0.584041
H	6.63771	-0.427546	1.66619
