18
  This energy is -1.5101 and Call times are: 24670
C	-0.327582	-0.936721	-0.549221
C	0.946957	-0.456255	-0.620477
C	0.96813	0.718075	0.192306
C	-0.29534	0.851559	0.688493
O	-1.09987	-0.150368	0.245907
H	-0.80404	-1.81683	-1.01144
H	1.78785	-0.885714	-1.18842
H	1.8287	1.38015	0.379839
H	-0.742339	1.60542	1.35718
C	5.15203	0.736708	-0.847603
C	5.13426	0.983819	0.508776
N	4.66751	-0.0877711	1.1946
C	4.39675	-0.996212	0.26721
N	4.67187	-0.547055	-0.980249
H	5.46203	1.36267	-1.69943
H	5.44986	1.91612	1.00482
H	3.99534	-2.00662	0.446619
H	4.54382	-1.07597	-1.87753
