18
  This energy is -1.2377 and Call times are: 37182
C	-0.388433	0.199999	-1.04667
C	-1.18856	0.272265	0.055577
C	-0.34981	-0.040015	1.16873
C	0.888819	-0.275544	0.648441
O	0.883515	-0.133386	-0.703141
H	-0.601049	0.361257	-2.11627
H	-2.26175	0.520568	0.0821127
H	-0.64339	-0.0819752	2.22993
H	1.84324	-0.548793	1.12768
C	4.99243	0.164766	-1.12399
C	6.19693	-0.318034	-0.657914
N	6.20828	-0.378284	0.695877
C	5.01536	0.0654519	1.06825
N	4.24546	0.405539	0.00749765
H	4.62618	0.347935	-2.14665
H	7.05798	-0.623977	-1.27423
H	4.65365	0.161879	2.10463
H	3.26611	0.781079	0.0406836
