18
  This energy is -0.742 and Call times are: 74265
C	-0.772273	0.419446	0.71698
C	-0.948714	-0.765286	0.0645594
C	0.220999	-0.949824	-0.734086
C	1.00898	0.138429	-0.499203
O	0.417941	0.985021	0.384522
H	-1.41059	0.961344	1.43402
H	-1.81561	-1.44142	0.138305
H	0.441348	-1.79749	-1.40267
H	1.9982	0.42356	-0.893397
C	6.06591	0.4481	-0.860735
C	4.9211	1.00107	-0.327095
N	4.40869	0.215014	0.650695
C	5.23249	-0.821661	0.723371
N	6.24781	-0.727792	-0.167644
H	6.74149	0.796534	-1.65806
H	4.45567	1.95313	-0.630087
H	5.139	-1.67751	1.41113
H	7.02543	-1.41907	-0.30443
