18
  This energy is -0.8562 and Call times are: 31982
C	0.195023	1.11565	-0.0608116
C	-0.581471	0.561968	0.914314
C	-0.587843	-0.843209	0.658277
C	0.185321	-1.02417	-0.450707
O	0.67156	0.161522	-0.90317
H	0.481377	2.16104	-0.261839
H	-1.09795	1.09009	1.73189
H	-1.11024	-1.62119	1.23787
H	0.462811	-1.93394	-1.00798
C	6.78558	0.0849467	1.06869
C	5.45347	-0.121857	0.779112
N	5.24565	-0.16696	-0.559279
C	6.44428	0.0111859	-1.09796
N	7.40613	0.167767	-0.157791
H	7.31811	0.176002	2.02872
H	4.63859	-0.239328	1.51193
H	6.67409	0.0356687	-2.17537
H	8.4296	0.322734	-0.330287
