18
  This energy is -1.6435 and Call times are: 68177
C	-0.446809	-0.438137	0.945938
C	-0.466607	-1.10073	-0.2461
C	0.181182	-0.239107	-1.18317
C	0.539649	0.873946	-0.481039
O	0.163926	0.769493	0.820858
H	-0.82866	-0.714532	1.94246
H	-0.894459	-2.09635	-0.445521
H	0.355444	-0.433863	-2.25359
H	1.05913	1.79641	-0.78836
C	3.49781	-0.943166	0.0495521
C	3.72816	-0.13972	-1.04706
N	4.5942	0.858786	-0.747938
C	4.89995	0.675483	0.529381
N	4.26435	-0.398261	1.05538
H	2.86379	-1.8344	0.180971
H	3.28499	-0.262627	-2.04873
H	5.58386	1.29806	1.12846
H	4.34089	-0.74887	2.04152
