18
  This energy is -1.0508 and Call times are: 16925
C	-0.0828804	-0.788293	-0.811249
C	0.709647	-0.950786	0.286872
C	0.549538	0.236995	1.06383
C	-0.326696	1.02047	0.371906
O	-0.723175	0.409944	-0.775733
H	-0.275083	-1.44254	-1.67743
H	1.34342	-1.81989	0.525801
H	1.03449	0.471926	2.02493
H	-0.741674	2.0189	0.58678
C	6.0854	-0.0695671	-1.13194
C	5.78956	-0.973626	-0.13379
N	6.31062	-0.578767	1.05326
C	6.92737	0.5659	0.792521
N	6.82033	0.915722	-0.511226
H	5.83337	-0.0580152	-2.20426
H	5.20948	-1.90374	-0.24889
H	7.47288	1.18904	1.5194
H	7.22086	1.77399	-0.963115
