18
  This energy is -0.8179 and Call times are: 21028
C	-0.886837	-0.691088	0.14939
C	-0.701751	0.0220234	-0.998473
C	0.505011	0.76217	-0.808671
C	0.950831	0.436013	0.438421
O	0.112992	-0.450378	1.03788
H	-1.67895	-1.39508	0.453048
H	-1.34999	0.026403	-1.88946
H	0.978451	1.45451	-1.52324
H	1.83781	0.761864	1.00617
C	6.61252	-0.379376	0.0589031
C	5.73436	-0.224246	1.11053
N	4.53337	0.233423	0.680782
C	4.66597	0.361731	-0.63245
N	5.90154	0.00467152	-1.05609
H	7.65819	-0.724379	0.0261639
H	5.94583	-0.434355	2.17165
H	3.88992	0.712848	-1.33152
H	6.25127	0.017875	-2.04542
