18
  This energy is -1.0539 and Call times are: 43137
C	-0.740206	-0.350256	-0.78474
C	-0.825778	-0.731801	0.521964
C	0.265959	-0.0951519	1.18748
C	0.922299	0.619239	0.228709
O	0.321515	0.474936	-0.981765
H	-1.36476	-0.593794	-1.65988
H	-1.58185	-1.39504	0.972048
H	0.524652	-0.166627	2.25615
H	1.81679	1.26154	0.279559
C	4.70876	-0.924536	0.667462
C	4.10105	-0.525559	-0.504141
N	4.69474	0.582799	-1.00969
C	5.66706	0.870324	-0.154975
N	5.71664	-0.00914684	0.873453
H	4.50222	-1.76698	1.34655
H	3.24485	-1.01758	-0.993714
H	6.3721	1.71345	-0.23424
H	6.39383	0.00382392	1.67502
