18
  This energy is -1.4922 and Call times are: 55144
C	-0.388382	-0.118199	-1.05905
C	0.761083	0.558385	-0.773852
C	0.913483	0.489744	0.644661
C	-0.156305	-0.222726	1.10107
O	-0.961736	-0.601961	0.0741975
H	-0.898147	-0.32315	-2.01476
H	1.43414	1.05589	-1.49049
H	1.7282	0.923451	1.24652
H	-0.454019	-0.523184	2.11908
C	4.83055	-0.57387	1.01918
C	4.03261	-0.944062	-0.0426084
N	4.12338	-0.0500782	-1.05704
C	4.9744	0.871214	-0.626212
N	5.42887	0.600477	0.620285
H	5.00901	-1.04722	1.99777
H	3.39303	-1.84019	-0.094888
H	5.29971	1.76476	-1.18297
H	6.10768	1.17558	1.17682
