18
  This energy is -1.8968 and Call times are: 120742
C	-0.449411	-0.928845	0.470827
C	-0.13971	-0.85918	-0.855674
C	0.395824	0.44846	-1.064
C	0.366104	1.06244	0.153587
O	-0.147091	0.235885	1.10251
H	-0.883732	-1.73955	1.07859
H	-0.274825	-1.64935	-1.61163
H	0.758483	0.873727	-2.01359
H	0.676926	2.07119	0.47149
C	4.76127	0.891902	0.100361
C	4.35429	0.278551	-1.06554
N	3.46782	-0.714508	-0.811535
C	3.3254	-0.717213	0.506924
N	4.0845	0.232959	1.10234
H	5.46124	1.72294	0.281877
H	4.68442	0.534777	-2.08545
H	2.67817	-1.39369	1.08805
H	4.14583	0.430123	2.13124
