18
  This energy is -1.2071 and Call times are: 79948
C	0.434426	0.0686463	1.04545
C	-0.605878	0.848973	0.63407
C	-0.862741	0.475837	-0.720518
C	0.0432733	-0.499568	-1.01733
O	0.843457	-0.760864	0.0496487
H	0.96721	0.00882475	2.00868
H	-1.1389	1.6109	1.22521
H	-1.63452	0.89094	-1.38846
H	0.21866	-1.07857	-1.93887
C	3.84444	0.622651	0.753416
C	4.67509	-0.434992	1.05764
N	5.27835	-0.918376	-0.0554266
C	4.82368	-0.163483	-1.0464
N	3.95613	0.780178	-0.609998
H	3.20313	1.25332	1.38944
H	4.84992	-0.857944	2.06034
H	5.09331	-0.25858	-2.11059
H	3.4626	1.49553	-1.19819
