18
  This energy is -1.0027 and Call times are: 35200
C	0.362189	0.361128	1.01233
C	-0.439405	1.11918	0.210344
C	-0.676692	0.334404	-0.959245
C	0.000845612	-0.833937	-0.768732
O	0.640997	-0.834823	0.430108
H	0.796361	0.556638	2.00657
H	-0.824927	2.12963	0.421225
H	-1.28277	0.615404	-1.83549
H	0.104857	-1.73037	-1.40185
C	5.53853	-0.37966	-0.600088
C	4.82496	-1.07964	0.349634
N	3.8027	-0.336464	0.838708
C	3.8818	0.820171	0.194843
N	4.91201	0.843727	-0.683628
H	6.41849	-0.656304	-1.20232
H	5.02941	-2.10761	0.690718
H	3.2108	1.684	0.328195
H	5.18204	1.64187	-1.30918
