18
  This energy is -1.0547 and Call times are: 30887
C	-0.451637	1.03487	0.107104
C	0.419528	0.718084	-0.893443
C	0.760614	-0.654628	-0.69485
C	0.0677718	-1.05551	0.409522
O	-0.677779	-0.0364444	0.912188
H	-0.973465	1.97457	0.351881
H	0.78526	1.38424	-1.6913
H	1.44338	-1.2644	-1.30812
H	0.0205327	-2.0258	0.930621
C	6.14964	-0.501721	-0.842852
C	5.69783	0.0191282	0.351186
N	6.72173	0.519127	1.08476
C	7.80463	0.309261	0.34861
N	7.51218	-0.303542	-0.822943
H	5.61579	-0.983313	-1.67749
H	4.65139	0.0430986	0.696504
H	8.83662	0.58445	0.61973
H	8.19356	-0.575819	-1.57317
