18
  This energy is -0.8775 and Call times are: 82819
C	-0.22437	-1.11131	0.0324069
C	-1.16057	-0.167893	0.338804
C	-0.50922	1.09387	0.184471
C	0.767503	0.810116	-0.202613
O	0.958991	-0.531807	-0.300527
H	-0.274925	-2.21237	0.0136146
H	-2.20504	-0.34295	0.642982
H	-0.948274	2.09161	0.345199
H	1.62323	1.46467	-0.436144
C	6.07599	-0.510839	-0.274836
C	6.78238	-0.652896	0.900737
N	7.9218	0.0803858	0.87778
C	7.92227	0.675089	-0.307526
N	6.83038	0.350595	-1.03969
H	5.12168	-0.947238	-0.610071
H	6.4903	-1.27135	1.76506
H	8.69764	1.35816	-0.690219
H	6.602	0.690468	-2.00592
