18
  This energy is -0.7088 and Call times are: 32438
C	0.509439	-0.981032	-0.253867
C	1.1206	0.225845	-0.427942
C	0.174821	1.20802	-0.0025665
C	-0.930803	0.514637	0.393899
O	-0.743987	-0.823499	0.24725
H	0.855092	-2.01004	-0.446005
H	2.13561	0.406344	-0.816878
H	0.310735	2.30145	0.00388074
H	-1.90111	0.852231	0.793628
C	5.92592	-0.40862	-1.06911
C	7.13437	-0.539059	-0.418141
N	7.09944	0.0530976	0.800318
C	5.87397	0.549008	0.904847
N	5.12773	0.29693	-0.196594
H	5.58871	-0.756347	-2.05851
H	8.03085	-1.04983	-0.805824
H	5.47069	1.10547	1.76621
H	4.13102	0.58422	-0.355612
