18
  This energy is -1.7696 and Call times are: 53192
C	0.820398	-0.654733	0.429736
C	0.637973	-0.499311	-0.912999
C	-0.474439	0.385006	-1.05668
C	-0.873591	0.691912	0.210942
O	-0.0939208	0.0656478	1.13122
H	1.55488	-1.24239	1.00458
H	1.22761	-0.961072	-1.72121
H	-0.918782	0.74521	-1.99843
H	-1.68692	1.33469	0.585876
C	4.54742	-0.345198	1.0301
C	5.66973	0.432496	0.838382
N	5.90319	0.636685	-0.480827
C	4.92942	-0.0118693	-1.10514
N	4.08605	-0.620248	-0.237841
H	4.06066	-0.71019	1.94845
H	6.3152	0.849921	1.62831
H	4.78669	-0.0737952	-2.19602
H	3.24161	-1.19245	-0.484325
