18
  This energy is -0.7334 and Call times are: 14530
C	0.617213	0.884042	-0.35202
C	0.634828	-0.320252	-0.992129
C	-0.256588	-1.16423	-0.261932
C	-0.740243	-0.401182	0.75993
O	-0.217231	0.85257	0.720232
H	1.14618	1.82911	-0.557664
H	1.21714	-0.587462	-1.88857
H	-0.502845	-2.21592	-0.479664
H	-1.4516	-0.630431	1.57028
C	4.56159	0.0142327	-0.298183
C	5.52257	-0.868753	-0.743147
N	6.73071	-0.59344	-0.194401
C	6.52002	0.456351	0.588015
N	5.22791	0.860398	0.559841
H	3.48657	0.0975522	-0.523868
H	5.36582	-1.69954	-1.4503
H	7.27675	0.96877	1.20367
H	4.81279	1.66496	1.09051
