18
  This energy is -0.7368 and Call times are: 127339
C	0.744324	-0.458874	-0.72237
C	1.09739	-0.0548473	0.531616
C	-0.0944125	0.461055	1.12623
C	-1.07056	0.326746	0.183119
O	-0.57603	-0.233293	-0.952136
H	1.33164	-0.915724	-1.53575
H	2.09683	-0.114162	0.991731
H	-0.202748	0.881268	2.13904
H	-2.14152	0.587723	0.197086
C	7.00161	-0.101551	0.609561
C	6.63623	0.942322	-0.21383
N	5.41318	0.730607	-0.757747
C	5.02131	-0.440157	-0.273629
N	5.94432	-0.982136	0.55577
H	7.90892	-0.274321	1.20996
H	7.23319	1.84444	-0.425178
H	4.06783	-0.946771	-0.493766
H	5.8689	-1.89855	1.06149
