18
  This energy is -2.6097 and Call times are: 38014
C	-0.21666	0.430728	-1.02661
C	0.142464	1.21184	0.0322895
C	0.326786	0.319123	1.13193
C	0.0640271	-0.928705	0.647926
O	-0.269499	-0.879261	-0.668633
H	-0.45803	0.682675	-2.07232
H	0.265253	2.30682	0.0384131
H	0.620901	0.584331	2.16016
H	0.0791236	-1.91888	1.13225
C	4.60668	0.222706	1.1507
C	5.62292	-0.0757573	0.26792
N	5.14083	-0.275269	-0.982795
C	3.83048	-0.101239	-0.876328
N	3.45887	0.200731	0.390283
H	4.61865	0.441873	2.23022
H	6.69536	-0.150712	0.511052
H	3.09669	-0.183085	-1.6943
H	2.48241	0.383328	0.728595
