18
  This energy is -1.0136 and Call times are: 47569
C	1.12591	0.0793738	-0.111474
C	0.372892	1.08074	0.427611
C	-0.976835	0.614407	0.397725
C	-0.929465	-0.630754	-0.156984
O	0.346856	-0.973554	-0.474007
H	2.21053	-0.00490145	-0.289672
H	0.731886	2.05049	0.808136
H	-1.8724	1.15071	0.750472
H	-1.72286	-1.36388	-0.376765
C	4.79263	-1.10757	-0.252809
C	4.94572	-0.557197	1.0021
N	5.30738	0.746441	0.923115
C	5.37839	1.00383	-0.375858
N	5.0769	-0.0819956	-1.12664
H	4.51092	-2.12261	-0.575101
H	4.80169	-1.0774	1.96309
H	5.64644	1.97049	-0.831873
H	5.06245	-0.132912	-2.17471
