18
  This energy is -1.1342 and Call times are: 94424
C	-0.187377	0.627876	-0.925777
C	0.376421	1.143	0.204336
C	0.446697	0.0611613	1.13429
C	-0.080359	-1.01955	0.490362
O	-0.472733	-0.691572	-0.768798
H	-0.434723	1.09019	-1.89549
H	0.70941	2.1807	0.366797
H	0.845008	0.0933022	2.16113
H	-0.229922	-2.06251	0.814586
C	5.89536	0.110967	0.618089
C	5.61436	0.678162	-0.606849
N	4.37157	0.340038	-1.02833
C	3.88343	-0.433976	-0.0685097
N	4.76412	-0.602349	0.946195
H	6.79043	0.162732	1.25818
H	6.2861	1.32531	-1.19406
H	2.8867	-0.903725	-0.0580242
H	4.61382	-1.16842	1.81696
