18
  This energy is -1.5701 and Call times are: 47536
C	0.0612665	-0.305284	-1.09062
C	0.168099	-1.20679	-0.0726598
C	0.0426239	-0.451611	1.13319
C	-0.129808	0.844714	0.745659
O	-0.121022	0.952455	-0.609083
H	0.0977543	-0.430822	-2.18522
H	0.320022	-2.29447	-0.161959
H	0.0779195	-0.837351	2.16472
H	-0.267907	1.76994	1.32887
C	5.33565	-0.218966	-0.514377
C	4.6506	-1.04505	0.351332
N	3.48844	-0.475588	0.753333
C	3.45265	0.699302	0.13935
N	4.54386	0.900994	-0.636644
H	6.29844	-0.344631	-1.03473
H	4.9741	-2.04175	0.693069
H	2.65087	1.45059	0.222715
H	4.74787	1.74896	-1.22024
