18
  This energy is -1.1622 and Call times are: 44984
C	-0.667424	-0.209141	0.892864
C	-0.12329	1.01963	0.659581
C	0.642399	0.887042	-0.538859
C	0.498573	-0.411043	-0.932131
O	-0.298134	-1.09504	-0.0693335
H	-1.32527	-0.5766	1.69751
H	-0.248539	1.92824	1.27018
H	1.22885	1.67242	-1.0422
H	0.906106	-0.962982	-1.79499
C	4.88931	-0.181001	1.16285
C	4.03104	0.622537	0.442536
N	4.33158	0.597638	-0.878663
C	5.37233	-0.218244	-0.97761
N	5.74645	-0.713496	0.225865
H	4.94879	-0.404132	2.23998
H	3.20034	1.2198	0.852483
H	5.89912	-0.487853	-1.90715
H	6.53855	-1.37675	0.410082
