18
  This energy is -1.3904 and Call times are: 40144
C	-0.0987859	-1.00472	0.516893
C	0.330636	-0.885587	-0.772206
C	0.321155	0.513461	-1.05977
C	-0.113223	1.12576	0.0789939
O	-0.374336	0.21372	1.05214
H	-0.249337	-1.88832	1.15864
H	0.624585	-1.7011	-1.45238
H	0.606291	0.998355	-2.00722
H	-0.276966	2.1888	0.320628
C	3.77795	0.444605	-0.894689
C	4.42749	-0.771194	-0.861966
N	5.04615	-0.962777	0.32844
C	4.78141	0.130013	1.03154
N	4.01995	1.00896	0.337838
H	3.18055	0.931887	-1.68159
H	4.46082	-1.51358	-1.67597
H	5.12034	0.338089	2.05919
H	3.67891	1.94248	0.674714
