18
  This energy is -1.1069 and Call times are: 18496
C	-1.11743	0.178567	-0.0766096
C	-0.483047	0.0226556	1.12073
C	0.896276	-0.178566	0.809131
C	0.983017	-0.127854	-0.551118
O	-0.237325	0.0895425	-1.10836
H	-2.17665	0.356147	-0.325119
H	-0.940516	0.0469122	2.12284
H	1.72088	-0.341343	1.52161
H	1.84298	-0.230254	-1.23319
C	5.90967	0.628392	0.972756
C	6.79406	-0.201956	0.317375
N	6.21764	-0.768838	-0.770234
C	4.98036	-0.291983	-0.789502
N	4.74565	0.554809	0.240762
H	6.02251	1.24585	1.87804
H	7.83773	-0.402164	0.609806
H	4.20501	-0.529993	-1.53544
H	3.84797	1.05919	0.443342
