18
  This energy is -0.5541 and Call times are: 64579
C	0.197067	-0.711723	0.860823
C	1.1868	-0.284176	0.0253531
C	0.555767	0.586087	-0.915158
C	-0.763872	0.61352	-0.571395
O	-1.00079	-0.173393	0.511032
H	0.215942	-1.38996	1.72967
H	2.25416	-0.554511	0.0671768
H	1.03659	1.12465	-1.74753
H	-1.62301	1.14617	-1.01118
C	5.9864	0.965754	-0.595034
C	5.35391	-0.259305	-0.613318
N	5.98589	-1.14756	0.191744
C	7.00655	-0.4761	0.707504
N	7.05019	0.802559	0.263976
H	5.76224	1.91061	-1.11517
H	4.45289	-0.518166	-1.19298
H	7.75261	-0.872493	1.41496
H	7.75929	1.53086	0.524778
