18
  This energy is -0.639 and Call times are: 94296
C	0.826897	-0.712743	-0.307637
C	0.572002	-0.409466	0.997517
C	-0.52422	0.506004	0.979307
C	-0.842439	0.681342	-0.335366
O	-0.0274423	-0.0554437	-1.13533
H	1.57802	-1.37291	-0.771581
H	1.10269	-0.792042	1.88414
H	-1.01246	0.97435	1.849
H	-1.6166	1.29496	-0.824649
C	4.85467	-0.528139	0.116
C	5.44745	0.338803	1.0094
N	6.65338	0.758872	0.55575
C	6.80813	0.154827	-0.614636
N	5.75066	-0.632164	-0.924467
H	3.89079	-1.06066	0.146006
H	5.0266	0.668717	1.97319
H	7.67652	0.253561	-1.28574
H	5.6353	-1.21125	-1.792
