18
  This energy is -1.8595 and Call times are: 52711
C	0.560234	0.983441	-0.073364
C	0.169714	0.281291	-1.17557
C	-0.496314	-0.882011	-0.682362
C	-0.454001	-0.788045	0.677694
O	0.187572	0.345005	1.06705
H	1.10233	1.93759	0.0314601
H	0.334165	0.555076	-2.23013
H	-0.950932	-1.68951	-1.27849
H	-0.838614	-1.45252	1.46877
C	3.73952	-0.539684	0.413908
C	5.04782	-0.948237	0.564225
N	5.90123	-0.0873635	-0.0416601
C	5.12532	0.851681	-0.565858
N	3.8136	0.623976	-0.318618
H	2.79262	-0.979987	0.764675
H	5.39125	-1.84875	1.099
H	5.46566	1.7282	-1.14042
H	3.00674	1.22027	-0.62632
