18
  This energy is -1.5069 and Call times are: 41032
C	-0.522819	0.835144	-0.56178
C	0.367856	-0.00425029	-1.16385
C	0.804164	-0.90655	-0.146204
C	0.141595	-0.538887	0.987903
O	-0.673114	0.52309	0.752391
H	-1.10893	1.68247	-0.953903
H	0.685726	0.0104891	-2.21876
H	1.52758	-1.73049	-0.255218
H	0.16256	-0.947022	2.01174
C	4.29518	-1.03092	-0.557954
C	4.06215	0.222137	-1.08397
N	4.2806	1.18855	-0.1594
C	4.64775	0.53751	0.936032
N	4.67196	-0.803081	0.746774
H	4.22199	-2.03514	-1.00485
H	3.74032	0.4462	-2.11405
H	4.91007	0.993404	1.90432
H	4.92882	-1.53035	1.45837
