18
  This energy is -0.7091 and Call times are: 75706
C	-0.513238	0.458875	-0.901344
C	-1.18661	0.149673	0.24379
C	-0.213486	-0.399611	1.13341
C	0.968649	-0.377578	0.45338
O	0.804105	0.143544	-0.790954
H	-0.852679	0.901272	-1.8523
H	-2.26083	0.29392	0.442131
H	-0.383191	-0.765918	2.15865
H	1.98322	-0.699454	0.740246
C	5.65415	-0.171438	1.1381
C	6.80401	0.380041	0.613847
N	6.75071	0.426349	-0.739491
C	5.57226	-0.0944219	-1.05362
N	4.87355	-0.47016	0.0437443
H	5.34639	-0.365965	2.1778
H	7.67114	0.745345	1.18787
H	5.17104	-0.224191	-2.07167
H	3.91903	-0.905997	0.0581662
