18
  This energy is -1.9841 and Call times are: 35966
C	-0.275168	-0.95418	0.547926
C	0.0894008	0.185173	1.20317
C	0.355719	1.15261	0.186671
C	0.130383	0.519039	-0.999999
O	-0.255641	-0.768314	-0.79821
H	-0.567764	-1.94977	0.920012
H	0.163365	0.329838	2.29298
H	0.677225	2.1965	0.331662
H	0.208342	0.869544	-2.04227
C	3.46675	0.92557	-0.688483
C	3.65845	0.937319	0.676896
N	3.90771	-0.309381	1.14606
C	3.8708	-1.09157	0.0758121
N	3.60838	-0.394237	-1.05487
H	3.24691	1.73597	-1.40154
H	3.62136	1.82302	1.33188
H	4.02896	-2.18202	0.0635732
H	3.5281	-0.784593	-2.02566
