18
  This energy is -0.7715 and Call times are: 132605
C	-0.993268	0.536288	0.110523
C	0.202434	1.17526	0.260124
C	1.20609	0.181186	0.0489502
C	0.535115	-0.977501	-0.211055
O	-0.808946	-0.779036	-0.177508
H	-2.03111	0.900827	0.182919
H	0.361693	2.23983	0.495567
H	2.29825	0.321764	0.088108
H	0.893764	-1.99612	-0.432487
C	6.1734	-1.1149	-0.0515652
C	6.537	-0.0809234	-0.888127
N	5.91438	1.07131	-0.539946
C	5.16738	0.75335	0.508632
N	5.28889	-0.553422	0.842059
H	6.47155	-2.17517	-0.0296485
H	7.23742	-0.14567	-1.73669
H	4.51244	1.43882	1.07025
H	4.80206	-1.04518	1.631
