18
  This energy is -1.5732 and Call times are: 135602
C	-0.930369	-0.28934	-0.5806
C	-0.226081	0.847498	-0.848836
C	0.860352	0.862296	0.0782905
C	0.724059	-0.266806	0.831236
O	-0.364274	-0.981968	0.44254
H	-1.83912	-0.711868	-1.03982
H	-0.449237	1.60016	-1.62201
H	1.64703	1.62871	0.166872
H	1.32697	-0.668743	1.66202
C	4.66044	-0.467851	-1.07822
C	5.21167	0.72544	-0.661871
N	4.94671	0.955742	0.647048
C	4.23382	-0.0906982	1.04122
N	4.03421	-0.977268	0.0373566
H	4.6692	-0.973703	-2.05678
H	5.79582	1.42434	-1.28248
H	3.83277	-0.258079	2.05383
H	3.5035	-1.8806	0.0974098
