18
  This energy is -0.7296 and Call times are: 114275
C	0.618012	-0.101803	0.945568
C	-0.0499515	1.04461	0.629433
C	-0.701183	0.787068	-0.615431
C	-0.373689	-0.493988	-0.950122
O	0.431391	-1.05197	-0.00804164
H	1.25217	-0.36425	1.80825
H	-0.0809672	1.97798	1.2142
H	-1.33751	1.48106	-1.18776
H	-0.645652	-1.11478	-1.81955
C	6.30223	0.854184	0.109009
C	6.39758	-0.275298	-0.676053
N	5.28861	-1.04561	-0.56065
C	4.50826	-0.396481	0.29276
N	5.07475	0.754923	0.725138
H	6.99781	1.69357	0.267552
H	7.24668	-0.548187	-1.32367
H	3.5121	-0.719548	0.635566
H	4.65825	1.44126	1.40096
