18
  This energy is -1.001 and Call times are: 121860
C	-0.787122	-0.813441	0.0717948
C	-0.902973	0.375249	0.730558
C	0.266709	1.12347	0.395698
C	0.99408	0.325952	-0.438133
O	0.365419	-0.860742	-0.646831
H	-1.44747	-1.69532	0.0332161
H	-1.72922	0.693287	1.3865
H	0.527669	2.13697	0.740388
H	1.96123	0.485145	-0.942637
C	4.77622	-0.760666	-0.646048
C	5.67757	-1.06673	0.351472
N	6.21458	0.0566888	0.88632
C	5.64854	1.05589	0.223127
N	4.77363	0.614795	-0.711518
H	4.15711	-1.4029	-1.2924
H	5.95002	-2.07802	0.694834
H	5.83861	2.12965	0.381637
H	4.20219	1.20764	-1.36209
