18
  This energy is -1.0325 and Call times are: 67793
C	-0.442646	-1.02771	0.18516
C	-0.86081	-0.225384	-0.835522
C	-0.0787632	0.966142	-0.741791
C	0.748261	0.78676	0.327894
O	0.539615	-0.425432	0.905882
H	-0.760185	-2.03525	0.500243
H	-1.64165	-0.450078	-1.57977
H	-0.132694	1.84896	-1.39891
H	1.51886	1.43711	0.773393
C	5.96689	0.585668	0.539063
C	5.88733	0.274848	-0.801909
N	4.74987	-0.407901	-1.07858
C	4.12615	-0.520212	0.0863152
N	4.81961	0.0627749	1.09271
H	6.73318	1.124	1.11919
H	6.63028	0.531002	-1.57473
H	3.15911	-1.01951	0.25883
H	4.53713	0.107863	2.10238
