18
  This energy is -1.2423 and Call times are: 23046
C	-0.259657	-1.08672	0.194977
C	-0.466918	-0.108444	1.12255
C	-0.0215557	1.10578	0.516396
C	0.418544	0.762315	-0.728077
O	0.28054	-0.572792	-0.941279
H	-0.451725	-2.17192	0.221527
H	-0.890891	-0.229707	2.13232
H	-0.0315676	2.11314	0.962753
H	0.846154	1.36659	-1.54493
C	5.50988	0.139572	-0.58801
C	4.38811	0.937196	-0.669048
N	3.40617	0.48383	0.147507
C	3.91683	-0.590964	0.732886
N	5.18298	-0.840247	0.322638
H	6.48513	0.197924	-1.09695
H	4.26969	1.83168	-1.30207
H	3.4069	-1.23227	1.46973
H	5.79839	-1.62954	0.638155
