18
  This energy is -0.726 and Call times are: 40528
C	0.563651	-0.245534	0.953107
C	1.1852	-0.139541	-0.256364
C	0.158011	0.175296	-1.19758
C	-1.00056	0.233903	-0.480182
O	-0.771432	-0.0205348	0.835027
H	0.954417	-0.473187	1.95846
H	2.25927	-0.269977	-0.464818
H	0.27732	0.337498	-2.28088
H	-2.03902	0.444315	-0.784438
C	5.72559	-1.11138	-0.0987137
C	6.88925	-0.680521	0.502444
N	7.00397	0.668086	0.434538
C	5.91561	1.07233	-0.206309
N	5.11316	0.036831	-0.548969
H	5.30403	-2.12017	-0.233477
H	7.64811	-1.31859	0.983955
H	5.6566	2.11506	-0.450971
H	4.1987	0.0971645	-1.06022
