18
  This energy is -1.3976 and Call times are: 19634
C	0.161516	-1.06558	-0.353345
C	-0.336034	-0.773358	0.882546
C	-0.39254	0.652047	0.954272
C	0.075468	1.10504	-0.244118
O	0.418434	0.0696714	-1.05492
H	0.376487	-2.02799	-0.846103
H	-0.633424	-1.4897	1.66517
H	-0.742451	1.26061	1.80357
H	0.211817	2.12594	-0.637076
C	4.40675	-0.584787	0.974179
C	3.45951	0.41183	0.871006
N	3.36348	0.864722	-0.402642
C	4.24778	0.151779	-1.087
N	4.90248	-0.735962	-0.301588
H	4.75163	-1.17736	1.83641
H	2.84366	0.812208	1.69275
H	4.45631	0.239121	-2.16548
H	5.64605	-1.41083	-0.606404
