18
  This energy is -1.0484 and Call times are: 69798
C	0.82309	0.540778	-0.562568
C	-0.482485	0.588278	-0.954476
C	-1.2034	-0.204035	-0.0096777
C	-0.274721	-0.665762	0.876179
O	0.968235	-0.220679	0.553733
H	1.7311	0.99935	-0.987407
H	-0.896358	1.12719	-1.82187
H	-2.28735	-0.401568	0.00111006
H	-0.369792	-1.30962	1.76593
C	4.78248	1.03765	-0.455593
C	4.33766	0.481342	0.724999
N	4.91232	-0.726433	0.943076
C	5.71061	-0.918668	-0.0982678
N	5.6677	0.116728	-0.969878
H	4.53984	1.99187	-0.949682
H	3.61237	0.92981	1.42334
H	6.34881	-1.79993	-0.272387
H	6.20617	0.201765	-1.86658
