18
  This energy is -1.1129 and Call times are: 108807
C	-0.712217	0.846735	-0.249374
C	-0.19088	0.674573	0.999202
C	0.647075	-0.479224	0.917347
C	0.56383	-0.910276	-0.374023
O	-0.262001	-0.112192	-1.10071
H	-1.40517	1.60233	-0.654509
H	-0.377664	1.29757	1.88863
H	1.23917	-0.928669	1.73069
H	1.03681	-1.76007	-0.893051
C	5.05541	0.214408	1.12867
C	4.20573	-0.756605	0.642548
N	4.1461	-0.72072	-0.710843
C	4.95572	0.268793	-1.06299
N	5.528	0.86399	0.010234
H	5.34748	0.480262	2.15704
H	3.63464	-1.48243	1.24412
H	5.16588	0.599646	-2.09285
H	6.2031	1.66725	-0.00647309
