18
  This energy is -1.0043 and Call times are: 36128
C	0.794921	0.781965	0.207443
C	1.10159	-0.524446	-0.0367287
C	-0.146449	-1.18608	-0.248295
C	-1.1056	-0.22558	-0.114733
O	-0.548555	0.98239	0.163694
H	1.4329	1.65467	0.423349
H	2.10591	-0.976816	-0.0650183
H	-0.302171	-2.25344	-0.473234
H	-2.20414	-0.27347	-0.1932
C	7.99197	-0.619158	0.133156
C	7.14234	-0.640967	-0.952566
N	6.0937	0.197661	-0.769333
C	6.29203	0.737679	0.425518
N	7.42339	0.27741	1.01013
H	8.92969	-1.16016	0.336987
H	7.26719	-1.24679	-1.86484
H	5.64	1.47549	0.920213
H	7.79638	0.551341	1.95199
