18
  This energy is -1.8308 and Call times are: 19720
C	-0.508717	0.00369714	-1.0137
C	-0.412192	1.12339	-0.240815
C	0.28344	0.723942	0.940988
C	0.550596	-0.604579	0.785957
O	0.0739452	-1.06096	-0.402123
H	-0.961626	-0.163801	-2.0047
H	-0.79268	2.12966	-0.479018
H	0.549535	1.35893	1.80126
H	1.06559	-1.32786	1.43933
C	4.79635	-0.698042	0.942627
C	5.7776	0.108851	0.406705
N	5.32104	0.777076	-0.680282
C	4.06134	0.386217	-0.818172
N	3.69747	-0.502999	0.136021
H	4.80208	-1.37468	1.81192
H	6.80682	0.22083	0.784887
H	3.3606	0.719808	-1.60042
H	2.75737	-0.957296	0.241318
