18
  This energy is -0.9044 and Call times are: 54111
C	0.986221	0.0710262	0.55563
C	-0.215575	0.0508947	1.20034
C	-1.20698	-0.0438852	0.176506
C	-0.523504	-0.073306	-1.00348
O	0.817003	-0.00402599	-0.790752
H	2.01892	0.135275	0.935956
H	-0.38676	0.0980581	2.2878
H	-2.29967	-0.084819	0.312315
H	-0.870248	-0.140934	-2.04772
C	4.94291	0.667234	0.956669
C	5.5085	1.05562	-0.239331
N	5.53083	0.0302068	-1.12507
C	4.98119	-0.990435	-0.481015
N	4.61007	-0.65693	0.777806
H	4.75983	1.22096	1.89123
H	5.90085	2.05735	-0.478991
H	4.82617	-2.00417	-0.884186
H	4.1554	-1.28702	1.48316
