18
  This energy is -1.3495 and Call times are: 40560
C	0.670036	-0.608804	0.683235
C	-0.494846	-0.0456718	1.11487
C	-1.04577	0.629256	-0.0169768
C	-0.168918	0.418981	-1.04035
O	0.884807	-0.335164	-0.63054
H	1.42476	-1.21905	1.20596
H	-0.923188	-0.100098	2.1286
H	-1.98619	1.20217	-0.0552842
H	-0.180753	0.747826	-2.09247
C	4.14739	-1.01897	-0.376741
C	4.8477	-0.0973091	-1.1259
N	5.22192	0.963564	-0.370242
C	4.75553	0.701038	0.843094
N	4.10008	-0.482896	0.890766
H	3.69445	-1.98613	-0.646883
H	5.08966	-0.178809	-2.19813
H	4.8657	1.34152	1.73297
H	3.64295	-0.910915	1.73284
