18
  This energy is -1.6248 and Call times are: 103292
C	-0.186337	-1.01832	0.463355
C	0.231301	-0.868051	-0.826362
C	0.351535	0.539545	-1.03692
C	-0.00324291	1.12518	0.142716
O	-0.334734	0.188668	1.07012
H	-0.410506	-1.91839	1.05908
H	0.434333	-1.66816	-1.55623
H	0.666323	1.04779	-1.9625
H	-0.0601183	2.18364	0.44547
C	4.23545	1.12266	-0.326159
C	3.6856	0.103928	-1.07515
N	3.68707	-1.0638	-0.387467
C	4.23574	-0.770615	0.783695
N	4.58344	0.535257	0.869688
H	4.39831	2.1885	-0.551974
H	3.28786	0.190582	-2.09943
H	4.40666	-1.4743	1.61426
H	5.03254	1.00984	1.69087
