18
  This energy is -1.1369 and Call times are: 4960
C	-0.850794	-0.565948	-0.492193
C	-0.878652	-0.203567	0.822447
C	0.351375	0.480561	1.06559
C	1.0223	0.475849	-0.12193
O	0.302826	-0.159083	-1.08434
H	-1.5794	-1.10868	-1.11656
H	-1.68453	-0.398466	1.54816
H	0.688795	0.921554	2.01731
H	2.00516	0.885014	-0.407982
C	5.23237	-0.800353	0.860206
C	6.20291	0.166491	0.703932
N	5.97009	0.918756	-0.398976
C	4.85935	0.420491	-0.924916
N	4.37579	-0.61762	-0.202365
H	5.09523	-1.5795	1.62679
H	7.06695	0.334739	1.36723
H	4.35698	0.777999	-1.83817
H	3.51277	-1.17676	-0.411706
