18
  This energy is -1.5054 and Call times are: 52034
C	-0.00113254	1.10088	0.272883
C	0.311332	0.659012	-0.979113
C	0.202966	-0.764343	-0.929771
C	-0.166153	-1.06662	0.348022
O	-0.295371	0.060493	1.09631
H	-0.0497397	2.1165	0.698788
H	0.59016	1.27372	-1.85002
H	0.381069	-1.47263	-1.75482
H	-0.365541	-2.03145	0.842583
C	4.92507	-0.963842	0.424745
C	3.60509	-0.600429	0.588293
N	3.34021	0.572564	-0.0365547
C	4.49148	0.935465	-0.585653
N	5.4779	0.0419972	-0.33608
H	5.49123	-1.83789	0.78395
H	2.83913	-1.16359	1.14596
H	4.66779	1.84591	-1.18082
H	6.47403	0.103728	-0.66037
