18
  This energy is -1.1378 and Call times are: 120356
C	-0.229942	0.869499	-0.691013
C	0.65413	-0.114264	-1.02418
C	0.672714	-1.01502	0.0841579
C	-0.201642	-0.502177	0.996775
O	-0.762033	0.648569	0.539874
H	-0.562774	1.76843	-1.23544
H	1.23491	-0.197299	-1.95686
H	1.27077	-1.9353	0.181671
H	-0.508615	-0.856561	1.99449
C	5.7579	0.877863	0.200111
C	4.56292	0.95595	-0.483326
N	3.94373	-0.248812	-0.524133
C	4.75151	-1.07117	0.131495
N	5.85899	-0.439594	0.587766
H	6.51813	1.64112	0.430359
H	4.13644	1.86001	-0.947707
H	4.58039	-2.14552	0.306771
H	6.64492	-0.87127	1.13296
