18
  This energy is -1.2664 and Call times are: 112762
C	-0.100674	-1.11883	0.156496
C	-0.386017	-0.215442	1.13774
C	-0.141185	1.0712	0.567887
C	0.272158	0.840476	-0.711288
O	0.302783	-0.491476	-0.979578
H	-0.143895	-2.22027	0.141719
H	-0.733999	-0.433254	2.16027
H	-0.261597	2.0493	1.06073
H	0.569596	1.52927	-1.51897
C	3.64882	0.287	0.444682
C	4.27915	0.872171	-0.633
N	5.48042	0.29169	-0.87074
C	5.59488	-0.650014	0.05593
N	4.51624	-0.692771	0.873425
H	2.67679	0.491633	0.920949
H	3.88868	1.70281	-1.24325
H	6.44762	-1.33659	0.181158
H	4.36881	-1.34754	1.68015
