18
  This energy is -0.9876 and Call times are: 30855
C	0.127545	-1.02425	0.470144
C	1.02471	-0.512649	-0.420769
C	0.525973	0.776262	-0.781447
C	-0.631937	0.938509	-0.0790985
O	-0.890588	-0.151398	0.690456
H	0.100647	-1.98451	1.01092
H	1.94535	-0.994562	-0.787203
H	0.983041	1.49238	-1.48313
H	-1.35278	1.77165	-0.0401669
C	4.51982	-0.612848	0.633116
C	5.06465	-0.972097	-0.581481
N	5.93054	-0.0294255	-1.02658
C	5.92292	0.911055	-0.0916694
N	5.08807	0.605858	0.929836
H	3.79222	-1.12124	1.28555
H	4.84847	-1.89459	-1.14461
H	6.50968	1.84367	-0.10497
H	4.90798	1.1869	1.78495
