18
  This energy is -1.0316 and Call times are: 41096
C	-0.017622	1.13221	0.0647934
C	-0.1661	0.335409	1.16181
C	-0.0885612	-1.00794	0.682721
C	0.100456	-0.913453	-0.664765
O	0.146257	0.386246	-1.05935
H	-0.010167	2.22892	-0.0466221
H	-0.315265	0.660971	2.20385
H	-0.165654	-1.93101	1.27946
H	0.215799	-1.68587	-1.44278
C	6.03575	-0.444406	-0.338842
C	5.79341	0.334747	0.772613
N	4.48349	0.671658	0.856979
C	3.91536	0.103676	-0.198126
N	4.80949	-0.580658	-0.950324
H	6.96312	-0.896479	-0.725041
H	6.54026	0.659835	1.51516
H	2.84819	0.157001	-0.467479
H	4.60716	-1.11351	-1.83145
