18
  This energy is -0.9793 and Call times are: 89098
C	-0.246379	0.752256	0.812286
C	0.971008	0.143299	0.725601
C	0.895836	-0.721239	-0.408877
C	-0.360851	-0.564269	-0.915307
O	-1.07217	0.331922	-0.181901
H	-0.644179	1.49306	1.52518
H	1.83525	0.288353	1.39354
H	1.6902	-1.37977	-0.795423
H	-0.863246	-1.02639	-1.78093
C	5.9098	1.05099	-0.335514
C	4.71112	0.793097	0.295193
N	4.56056	-0.532101	0.535391
C	5.66166	-1.09418	0.0555212
N	6.50656	-0.181553	-0.480045
H	6.3652	1.99297	-0.680224
H	3.95221	1.53949	0.58123
H	5.90022	-2.16987	0.070334
H	7.43865	-0.375867	-0.92131
