18
  This energy is -1.4502 and Call times are: 112666
C	1.01043	-0.0466911	-0.513084
C	0.724806	-0.773478	0.605207
C	-0.623823	-0.450677	0.94743
C	-1.04328	0.444873	0.0080561
O	-0.057997	0.703056	-0.89171
H	1.92432	0.0238801	-1.12551
H	1.39644	-1.4673	1.13588
H	-1.20573	-0.844457	1.7962
H	-2.00586	0.96459	-0.128202
C	4.50975	-0.162535	1.14999
C	5.04498	-1.07251	0.263068
N	5.12196	-0.550845	-0.985313
C	4.63634	0.678076	-0.873277
N	4.25357	0.959963	0.39464
H	4.30004	-0.232003	2.22922
H	5.37697	-2.0961	0.501569
H	4.53833	1.41358	-1.68793
H	3.84036	1.86178	0.737045
