18
  This energy is -1.4143 and Call times are: 27566
C	-0.797226	-0.366661	-0.718604
C	-0.0544792	-1.21857	0.0449134
C	0.82746	-0.392817	0.806779
C	0.545798	0.890796	0.441573
O	-0.443938	0.925449	-0.489144
H	-1.59716	-0.552629	-1.45398
H	-0.120978	-2.31815	0.069183
H	1.58072	-0.724873	1.5392
H	0.972997	1.85378	0.766259
C	4.13655	0.927594	0.290694
C	3.9882	0.118333	-0.815756
N	4.92849	-0.857326	-0.837141
C	5.6574	-0.654109	0.251901
N	5.21987	0.410405	0.965321
H	3.56689	1.80564	0.634285
H	3.21954	0.220969	-1.599
H	6.52288	-1.25498	0.574614
H	5.62811	0.772736	1.8616
