18
  This energy is -0.635 and Call times are: 62031
C	-0.296976	0.431074	-1.00617
C	0.99232	0.105298	-0.702924
C	0.964403	-0.398278	0.633396
C	-0.339488	-0.335776	1.02879
O	-1.12378	0.168264	0.0399313
H	-0.749322	0.85205	-1.91909
H	1.87452	0.209184	-1.35486
H	1.82066	-0.762461	1.22356
H	-0.830678	-0.615476	1.97523
C	6.01605	1.07525	0.285512
C	5.24492	-0.0130088	-0.0640705
N	6.01759	-1.0939	-0.330868
C	7.26332	-0.677775	-0.147497
N	7.3153	0.62307	0.224914
H	5.74135	2.10511	0.563835
H	4.14488	-0.0376226	-0.128562
H	8.1748	-1.2843	-0.272228
H	8.18049	1.18091	0.428671
