18
  This energy is -0.5778 and Call times are: 116085
C	0.595641	-0.836165	-0.48212
C	-0.746851	-0.690853	-0.674406
C	-1.12856	0.457235	0.0847444
C	0.0143744	0.912154	0.67392
O	1.07708	0.134172	0.338654
H	1.31336	-1.57857	-0.868095
H	-1.40256	-1.3282	-1.28916
H	-2.13906	0.887025	0.175614
H	0.200983	1.76721	1.34423
C	6.04215	-0.949646	-0.26629
C	4.68609	-0.787829	-0.45623
N	4.27603	0.433324	-0.0353431
C	5.37352	1.02682	0.413994
N	6.46488	0.233909	0.296454
H	6.71385	-1.79508	-0.484477
H	3.99625	-1.53033	-0.889422
H	5.43441	2.04145	0.839504
H	7.44612	0.474841	0.579984
