18
  This energy is -1.9902 and Call times are: 50430
C	0.258796	0.996524	-0.475779
C	0.712533	-0.189889	-0.972691
C	0.181645	-1.20149	-0.115404
C	-0.549646	-0.543949	0.829704
O	-0.513544	0.799096	0.624914
H	0.412549	2.03576	-0.809854
H	1.35648	-0.337839	-1.85447
H	0.332135	-2.28971	-0.200343
H	-1.13457	-0.912257	1.68846
C	4.19352	0.334852	0.951391
C	5.48635	-0.143428	0.920234
N	5.8696	-0.433562	-0.34683
C	4.81853	-0.136404	-1.09886
N	3.78239	0.330776	-0.362819
H	3.55816	0.666752	1.78787
H	6.14945	-0.284353	1.78931
H	4.75377	-0.241774	-2.19382
H	2.84456	0.632417	-0.724386
