18
  This energy is -1.2058 and Call times are: 47438
C	-0.57779	-0.217484	-0.951452
C	-1.05955	-0.535102	0.284427
C	-0.0612944	-0.111379	1.21397
C	0.942369	0.427765	0.464067
O	0.643725	0.371287	-0.860559
H	-1.00204	-0.356402	-1.9594
H	-2.0214	-1.01921	0.518052
H	-0.0952677	-0.20164	2.3116
H	1.9071	0.878417	0.749487
C	4.75186	0.217258	1.14666
C	4.52215	-1.00928	0.560159
N	4.39483	-0.892018	-0.783922
C	4.545	0.402341	-1.03031
N	4.76258	1.1135	0.101278
H	4.90341	0.506111	2.19886
H	4.44599	-1.97672	1.08275
H	4.50488	0.882967	-2.02108
H	4.91113	2.15011	0.169323
