18
  This energy is -0.8041 and Call times are: 116943
C	0.34336	1.06373	0.192304
C	-0.902418	0.625399	0.533297
C	-0.956344	-0.745922	0.137459
C	0.26124	-1.02453	-0.410481
O	1.06752	0.0692181	-0.385229
H	0.829026	2.04682	0.305969
H	-1.70307	1.20918	1.01523
H	-1.80712	-1.43678	0.251462
H	0.671873	-1.9495	-0.847586
C	6.44076	0.470332	-0.284076
C	6.01008	-0.811102	-0.555339
N	4.75623	-1.01534	-0.0834538
C	4.41038	0.135009	0.478417
N	5.3922	1.06272	0.383593
H	7.38763	0.985431	-0.51133
H	6.58159	-1.59193	-1.08309
H	3.45021	0.3523	0.973475
H	5.36066	2.04593	0.749055
