18
  This energy is -1.0879 and Call times are: 91119
C	-1.03258	-0.422129	-0.204886
C	-0.357572	-0.672988	0.953476
C	0.885764	0.0207401	0.839572
C	0.860779	0.634286	-0.378341
O	-0.303351	0.374599	-1.02978
H	-2.02492	-0.747499	-0.557947
H	-0.700771	-1.28514	1.80293
H	1.69824	0.0534006	1.58315
H	1.59842	1.27417	-0.88989
C	6.03471	-0.121178	-0.820775
C	5.17796	-1.09888	-0.361187
N	4.34285	-0.610166	0.587639
C	4.68024	0.665869	0.716187
N	5.6954	1.00931	-0.111515
H	6.83514	-0.148959	-1.57713
H	5.14743	-2.14816	-0.697228
H	4.21656	1.39354	1.40154
H	6.13941	1.95634	-0.196725
