18
  This energy is -2.0941 and Call times are: 57323
C	-0.205796	0.258442	1.08501
C	-0.313098	-1.01339	0.604071
C	0.0198289	-0.936353	-0.782776
C	0.301188	0.375752	-1.02689
O	0.16843	1.11977	0.102634
H	-0.366706	0.674932	2.09293
H	-0.598103	-1.91532	1.16922
H	0.0442764	-1.76668	-1.50669
H	0.603513	0.89943	-1.94863
C	4.31175	1.06607	-0.4859
C	5.08487	0.531239	0.522759
N	4.67703	-0.721861	0.838859
C	3.65479	-0.963499	0.0293777
N	3.3953	0.0839088	-0.788666
H	4.34769	2.04348	-0.992761
H	5.92963	1.02709	1.02808
H	3.06073	-1.89089	-0.00624551
H	2.63991	0.137581	-1.51514
