18
  This energy is -0.9708 and Call times are: 58587
C	-0.988012	0.536562	-0.149444
C	0.149966	1.1911	0.22064
C	1.16641	0.19115	0.304702
C	0.559834	-0.986168	-0.021434
O	-0.756019	-0.793853	-0.301715
H	-2.01253	0.898966	-0.334587
H	0.262346	2.26985	0.414944
H	2.22356	0.34046	0.577142
H	0.949595	-2.01509	-0.0896122
C	5.59396	-0.828114	-0.810473
C	6.65093	0.0568301	-0.781771
N	6.57515	0.873679	0.296897
C	5.47535	0.496919	0.934946
N	4.84822	-0.52579	0.306961
H	5.32854	-1.62503	-1.52323
H	7.46685	0.120543	-1.52006
H	5.08319	0.935995	1.86643
H	3.96263	-0.998379	0.612991
