18
  This energy is -1.0659 and Call times are: 89226
C	-1.06383	0.17516	0.35211
C	-0.389477	1.08036	-0.413552
C	0.898907	0.510502	-0.649032
C	0.898129	-0.69262	-0.00648211
O	-0.292575	-0.913662	0.610263
H	-2.08299	0.188051	0.772124
H	-0.761946	2.0519	-0.776141
H	1.72398	0.952367	-1.2305
H	1.67163	-1.47263	0.0858841
C	4.73847	0.0479133	-0.896033
C	4.5494	0.540422	0.377871
N	5.63496	0.311865	1.15622
C	6.49422	-0.320031	0.368181
N	6.00038	-0.503003	-0.879309
H	4.0861	0.0503987	-1.78369
H	3.64914	1.05658	0.749306
H	7.4989	-0.671222	0.653695
H	6.48621	-0.974673	-1.68103
