18
  This energy is -0.8554 and Call times are: 64354
C	-0.0200496	0.230092	-1.11043
C	-1.15769	0.128319	-0.364922
C	-0.728476	-0.165857	0.965247
C	0.633565	-0.217882	0.915163
O	1.08326	0.0215589	-0.344778
H	0.1361	0.443801	-2.18057
H	-2.19506	0.248361	-0.716434
H	-1.36689	-0.319251	1.85012
H	1.38693	-0.41349	1.69582
C	4.35036	0.688021	-0.0995586
C	5.18954	0.588467	0.989943
N	6.18482	-0.302157	0.760338
C	5.96393	-0.753407	-0.466937
N	4.86936	-0.186817	-1.02773
H	3.4506	1.29912	-0.274242
H	5.09469	1.14332	1.93757
H	6.57267	-1.4991	-1.00322
H	4.48861	-0.377602	-1.98683
