18
  This energy is -0.8917 and Call times are: 122374
C	1.00474	0.378331	-0.365744
C	0.483888	-0.816536	-0.76747
C	-0.773777	-0.938539	-0.101502
C	-0.910445	0.192544	0.648396
O	0.166489	1.00797	0.499068
H	1.94959	0.886357	-0.619549
H	0.939607	-1.53949	-1.463
H	-1.48705	-1.77489	-0.178017
H	-1.71551	0.530817	1.32122
C	5.53812	-0.90905	0.654039
C	6.84182	-0.53218	0.41016
N	6.89302	0.562756	-0.386712
C	5.62589	0.864009	-0.636242
N	4.77059	0.00613888	-0.0311709
H	5.11631	-1.73615	1.24693
H	7.74641	-1.03071	0.794914
H	5.26831	1.70226	-1.25568
H	3.72247	0.0330492	-0.0755599
