18
  This energy is -1.6958 and Call times are: 25181
C	0.277042	-0.375004	-1.03393
C	1.00064	-0.694727	0.0771697
C	0.348591	-0.0443453	1.16893
C	-0.715908	0.615403	0.628613
O	-0.774892	0.424464	-0.715662
H	0.405374	-0.649285	-2.09391
H	1.90305	-1.32531	0.123328
H	0.644919	-0.0703979	2.22988
H	-1.49484	1.24607	1.08772
C	4.49772	-0.444094	1.08989
C	5.14618	-0.959574	-0.0123438
N	4.93302	-0.191397	-1.10824
C	4.15528	0.79688	-0.687459
N	3.86475	0.689356	0.630731
H	4.44369	-0.792025	2.13372
H	5.76402	-1.87201	-0.0364875
H	3.7694	1.62558	-1.30275
H	3.27054	1.34458	1.19539
