18
  This energy is -1.2267 and Call times are: 67761
C	-0.393973	0.126972	-1.05597
C	-0.0532809	-1.09089	-0.544978
C	0.391834	-0.844298	0.78963
C	0.283852	0.502489	0.976388
O	-0.194438	1.11142	-0.140508
H	-0.785266	0.421991	-2.04344
H	-0.109752	-2.06516	-1.05655
H	0.749095	-1.58936	1.51856
H	0.511893	1.14062	1.84589
C	3.82277	0.627109	0.622686
C	4.47606	-0.517781	1.02714
N	5.30183	-0.97806	0.0561867
C	5.16136	-0.12197	-0.94681
N	4.28044	0.863931	-0.654278
H	3.08904	1.26868	1.13608
H	4.36635	-1.01994	2.00216
H	5.67968	-0.170007	-1.91803
H	3.9996	1.65753	-1.28085
