18
  This energy is -1.6902 and Call times are: 136921
C	0.432269	-1.03916	-0.14031
C	-0.0784358	-0.615272	1.05127
C	-0.518629	0.725896	0.83306
C	-0.238061	1.00318	-0.472608
O	0.342906	-0.0635335	-1.08221
H	0.882464	-1.99889	-0.442812
H	-0.139089	-1.18943	1.98976
H	-0.988438	1.39834	1.56872
H	-0.400351	1.90956	-1.07873
C	4.67668	-0.956913	-0.107317
C	3.74016	-0.711547	0.87445
N	3.14384	0.491505	0.691186
C	3.70828	0.990581	-0.400124
N	4.63901	0.154946	-0.918822
H	5.34498	-1.81542	-0.280159
H	3.48405	-1.38103	1.71174
H	3.47737	1.96365	-0.862775
H	5.22104	0.322177	-1.77587
