18
  This energy is -0.8434 and Call times are: 70817
C	-0.601432	0.901512	0.334599
C	-1.01774	-0.378029	0.55785
C	-0.00861026	-1.22058	-0.000623568
C	0.935272	-0.381531	-0.515849
O	0.589451	0.918112	-0.320026
H	-1.05603	1.8731	0.588782
H	-1.94265	-0.696601	1.06493
H	0.00444587	-2.3223	-0.0126378
H	1.88477	-0.582268	-1.03873
C	6.76346	-0.127767	0.123017
C	5.8249	-1.13423	0.0376682
N	4.57566	-0.627079	-0.0990501
C	4.73859	0.689004	-0.0985199
N	6.03973	1.04026	0.0328683
H	7.85863	-0.159017	0.237699
H	6.02676	-2.21724	0.07229
H	3.93911	1.44163	-0.191374
H	6.424	2.01638	0.0607514
