18
  This energy is -1.1822 and Call times are: 61288
C	0.775505	0.826791	0.0375462
C	-0.465327	1.01294	-0.497299
C	-1.14078	-0.23838	-0.362878
C	-0.253084	-1.07873	0.242244
O	0.92242	-0.444846	0.494016
H	1.63265	1.51059	0.151418
H	-0.864888	1.93857	-0.941885
H	-2.16817	-0.475847	-0.68252
H	-0.335764	-2.13603	0.54315
C	4.55159	-1.07847	-0.400359
C	5.08426	-0.75471	0.829511
N	5.2402	0.585418	0.956992
C	4.80591	1.09111	-0.189432
N	4.38012	0.128298	-1.04106
H	4.29109	-2.04982	-0.849983
H	5.35886	-1.46409	1.62715
H	4.77751	2.1595	-0.457731
H	3.9931	0.273431	-2.00564
