18
  This energy is -1.8077 and Call times are: 16604
C	0.312817	-0.753497	-0.787902
C	0.789489	0.524317	-0.769212
C	0.173049	1.15519	0.354229
C	-0.625902	0.207202	0.922883
O	-0.552804	-0.964574	0.238333
H	0.509606	-1.59733	-1.46943
H	1.50356	0.977203	-1.47567
H	0.314145	2.19447	0.691996
H	-1.28683	0.24117	1.80451
C	5.10114	-0.946176	-0.670362
C	5.99713	-0.323869	0.172898
N	5.42829	0.739078	0.79183
C	4.18414	0.776054	0.334277
N	3.93779	-0.219304	-0.550123
H	5.20558	-1.82551	-1.32565
H	7.04383	-0.622811	0.3458
H	3.41183	1.5107	0.613678
H	3.03297	-0.402429	-1.04915
