18
  This energy is -1.2538 and Call times are: 86863
C	-0.0811544	0.137487	-1.1229
C	-1.01932	0.619812	-0.258276
C	-0.572685	0.252843	1.04785
C	0.598987	-0.421336	0.866078
O	0.91432	-0.501182	-0.453468
H	-0.00804636	0.18239	-2.22194
H	-1.93411	1.17802	-0.514544
H	-1.07232	0.469951	2.00562
H	1.29355	-0.887034	1.58438
C	4.18859	1.07224	0.4367
C	5.02091	0.110926	0.969872
N	5.02725	-1.00825	0.205724
C	4.202	-0.742253	-0.797688
N	3.67084	0.49977	-0.703655
H	3.93649	2.08927	0.77673
H	5.61696	0.204842	1.89224
H	3.95074	-1.42132	-1.62833
H	2.99365	0.942334	-1.37209
