18
  This energy is -1.3496 and Call times are: 88553
C	0.132001	0.0973564	-1.12227
C	-0.595305	0.990826	-0.392128
C	-0.528604	0.536686	0.960435
C	0.233574	-0.594211	0.93742
O	0.645483	-0.87728	-0.326389
H	0.356572	0.045018	-2.20027
H	-1.12557	1.88045	-0.76827
H	-0.996876	1.00419	1.84149
H	0.550953	-1.27844	1.74138
C	3.88934	-0.852748	0.027269
C	3.93435	0.271974	0.823584
N	5.00783	1.04195	0.521445
C	5.62643	0.397348	-0.458581
N	4.99104	-0.750847	-0.792526
H	3.17511	-1.6905	-0.0127162
H	3.21148	0.541669	1.61071
H	6.54836	0.721586	-0.967647
H	5.28218	-1.4334	-1.53456
