18
  This energy is -0.9591 and Call times are: 39887
C	0.232434	0.353952	-1.05219
C	1.05195	0.619084	0.00539544
C	0.430111	0.0181124	1.14218
C	-0.714505	-0.561213	0.678914
O	-0.851175	-0.365954	-0.659073
H	0.307722	0.61842	-2.11972
H	1.99931	1.18144	-0.0131374
H	0.799484	0.0218739	2.18027
H	-1.50444	-1.13294	1.19309
C	6.00515	-0.497859	-0.939177
C	6.44812	0.612899	-0.252782
N	5.62214	0.911012	0.779398
C	4.67037	-0.0112973	0.733514
N	4.85653	-0.883888	-0.285073
H	6.41242	-1.02339	-1.81752
H	7.34892	1.20454	-0.483836
H	3.81366	-0.0940995	1.42156
H	4.24282	-1.69916	-0.529888
