18
  This energy is -1.0434 and Call times are: 8780
C	0.031964	0.183096	1.11886
C	-0.748949	-0.785042	0.55917
C	-0.519904	-0.706847	-0.848502
C	0.380757	0.302172	-1.02475
O	0.728728	0.856821	0.166169
H	0.178538	0.488392	2.16794
H	-1.41906	-1.48412	1.08485
H	-0.977115	-1.33324	-1.63124
H	0.846025	0.716268	-1.93431
C	5.50831	-0.747949	-0.674996
C	5.6582	-0.547657	0.680939
N	4.79143	0.389844	1.13515
C	4.10642	0.769708	0.0650573
N	4.50141	0.112763	-1.05118
H	6.02953	-1.41966	-1.37548
H	6.37625	-1.06281	1.33964
H	3.30456	1.52519	0.0426904
H	4.11438	0.235668	-2.01884
