18
  This energy is -0.991 and Call times are: 60794
C	-0.101539	-1.12863	0.0477355
C	0.654662	-0.502693	-0.899225
C	0.5341	0.895671	-0.634349
C	-0.285131	1.00081	0.451091
O	-0.682729	-0.225695	0.880762
H	-0.304276	-2.19622	0.233207
H	1.23877	-0.978007	-1.70358
H	1.00615	1.72013	-1.1925
H	-0.655617	1.8789	1.00511
C	6.34328	0.15665	0.231241
C	5.2924	0.311678	1.11032
N	4.10771	0.0496483	0.506704
C	4.42243	-0.266733	-0.742086
N	5.75827	-0.216868	-0.95806
H	7.42977	0.281529	0.363415
H	5.3678	0.607904	2.16928
H	3.71387	-0.542988	-1.53949
H	6.2539	-0.423394	-1.8597
