18
  This energy is -1.4879 and Call times are: 42375
C	-0.196265	-1.09022	0.243503
C	-0.804512	-0.453489	-0.79812
C	-0.308918	0.885988	-0.780694
C	0.558431	0.949544	0.270039
O	0.639465	-0.248392	0.906744
H	-0.272602	-2.12637	0.612034
H	-1.52945	-0.883879	-1.50757
H	-0.573208	1.70063	-1.47395
H	1.17167	1.77714	0.662815
C	4.08605	-0.865783	-0.789004
C	3.69868	-0.895576	0.533949
N	3.98085	0.276863	1.15223
C	4.54114	1.03114	0.216407
N	4.62716	0.387219	-0.971684
H	4.01723	-1.62233	-1.58678
H	3.22065	-1.74205	1.0534
H	4.90663	2.06241	0.347252
H	5.02941	0.769619	-1.86231
