18
  This energy is -0.6749 and Call times are: 122310
C	0.153032	0.943092	0.611196
C	-0.984464	0.713828	-0.105684
C	-0.803535	-0.558065	-0.729921
C	0.428552	-0.993757	-0.339398
O	1.02688	-0.089458	0.479904
H	0.458246	1.79039	1.24694
H	-1.86283	1.37413	-0.18677
H	-1.51372	-1.07998	-1.39123
H	0.985513	-1.91617	-0.572215
C	4.73367	0.00868298	0.157168
C	5.53814	-1.09885	-0.00817583
N	6.83595	-0.741213	-0.164076
C	6.8366	0.583155	-0.0957086
N	5.59301	1.08299	0.0972292
H	3.64674	0.105153	0.308205
H	5.20538	-2.14958	-0.0177724
H	7.71978	1.23662	-0.180605
H	5.33298	2.09592	0.184527
