18
  This energy is -1.0489 and Call times are: 74489
C	0.847894	-0.748742	0.0828386
C	0.764714	0.352127	0.883803
C	-0.422068	1.03847	0.483047
C	-0.959347	0.296422	-0.527435
O	-0.196789	-0.798645	-0.785009
H	1.59093	-1.5615	0.0320963
H	1.46848	0.650892	1.67724
H	-0.821406	1.97518	0.903988
H	-1.8676	0.438636	-1.13579
C	6.12675	-0.837549	0.00932055
C	4.77044	-1.01553	-0.163575
N	4.11259	0.168413	-0.11844
C	5.0572	1.07742	0.0816961
N	6.2888	0.520925	0.165771
H	6.96029	-1.55745	0.0313629
H	4.25476	-1.977	-0.320077
H	4.90216	2.16443	0.174384
H	7.19457	1.02775	0.320631
