18
  This energy is -2.2336 and Call times are: 39283
C	0.370125	1.06903	-0.0810995
C	0.641023	0.282283	0.999647
C	0.0148251	-0.973996	0.735528
C	-0.583454	-0.844039	-0.483302
O	-0.376666	0.397264	-0.996545
H	0.647646	2.1098	-0.315703
H	1.22339	0.558857	1.89321
H	0.0151467	-1.86512	1.38359
H	-1.17723	-1.55126	-1.0854
C	3.49848	-0.21374	-1.11736
C	3.6796	-1.14473	-0.116558
N	4.02407	-0.547304	1.05004
C	4.05652	0.749375	0.774006
N	3.74698	1.00175	-0.519857
H	3.21963	-0.326408	-2.17712
H	3.56789	-2.23679	-0.215347
H	4.30094	1.5574	1.48223
H	3.7044	1.94386	-0.98016
