18
  This energy is -0.8213 and Call times are: 71233
C	0.770642	0.454067	-0.697377
C	1.03244	-0.648138	0.0622144
C	-0.16498	-0.911381	0.795019
C	-1.0528	0.0531986	0.418544
O	-0.4982	0.895662	-0.492326
H	1.39454	1.01321	-1.41387
H	1.97429	-1.21858	0.102452
H	-0.336127	-1.7265	1.51639
H	-2.09499	0.246062	0.721677
C	5.55369	-1.1554	-0.217406
C	4.79419	-0.529508	0.748291
N	4.97535	0.813172	0.718204
C	5.84393	1.01946	-0.26243
N	6.22293	-0.136309	-0.857535
H	5.66169	-2.21842	-0.485461
H	4.11875	-1.02269	1.4662
H	6.23617	1.99685	-0.58659
H	6.89797	-0.236922	-1.65469
