18
  This energy is -0.7137 and Call times are: 126045
C	0.938251	0.360764	0.525295
C	0.511749	0.893302	-0.655753
C	-0.683771	0.18843	-0.993398
C	-0.882297	-0.71262	0.0111256
O	0.098795	-0.62126	0.94714
H	1.81145	0.590338	1.15781
H	0.990947	1.70142	-1.23143
H	-1.3158	0.341378	-1.88292
H	-1.67255	-1.46381	0.173837
C	6.38803	0.597766	-0.489051
C	5.3444	1.11984	0.245399
N	4.50001	0.143129	0.657162
C	5.01784	-0.980602	0.179974
N	6.1567	-0.759369	-0.518341
H	7.2502	1.07987	-0.976674
H	5.18557	2.18377	0.485566
H	4.60371	-1.99313	0.312344
H	6.75036	-1.48367	-0.991855
