18
  This energy is -1.2951 and Call times are: 9022
C	0.371721	-0.873411	0.620788
C	-0.922993	-0.772289	0.203818
C	-1.00037	0.444773	-0.539748
C	0.253893	0.979942	-0.51152
O	1.10462	0.188099	0.192931
H	0.889275	-1.64116	1.21908
H	-1.74144	-1.48341	0.400159
H	-1.89074	0.864908	-1.03455
H	0.663786	1.90562	-0.947826
C	4.34114	-0.748652	0.906172
C	3.91497	-0.977217	-0.385061
N	4.13611	0.104227	-1.17125
C	4.69733	1.00028	-0.370786
N	4.84245	0.533798	0.892117
H	4.32373	-1.38657	1.80411
H	3.45189	-1.90307	-0.763484
H	5.02159	2.01355	-0.657786
H	5.25772	1.05059	1.70558
