18
  This energy is -0.906 and Call times are: 39155
C	1.09394	0.240659	-0.178287
C	0.0880672	1.06306	-0.593327
C	-1.1268	0.42841	-0.191527
C	-0.756068	-0.72579	0.433577
O	0.596563	-0.85658	0.450757
H	2.18956	0.322591	-0.268591
H	0.19124	2.02056	-1.12872
H	-2.15283	0.796009	-0.353447
H	-1.35081	-1.52691	0.902339
C	5.29435	-0.310534	-1.13126
C	4.72757	-1.04982	-0.114725
N	4.78987	-0.386354	1.06529
C	5.39301	0.760175	0.781879
N	5.71705	0.853707	-0.529547
H	5.42254	-0.52343	-2.20448
H	4.27481	-2.05006	-0.211605
H	5.62217	1.56664	1.49695
H	6.19854	1.65957	-0.998592
