18
  This energy is -1.1296 and Call times are: 71169
C	0.869607	-0.211863	0.696634
C	0.912498	-0.50403	-0.634971
C	-0.349803	-0.0973283	-1.16536
C	-1.05264	0.407467	-0.11104
O	-0.323167	0.345372	1.03396
H	1.61212	-0.349818	1.49968
H	1.74911	-0.960184	-1.18823
H	-0.686488	-0.175456	-2.2116
H	-2.06648	0.835398	-0.0459685
C	5.77879	0.961242	0.0188868
C	5.01594	0.46642	1.0554
N	4.35888	-0.659266	0.684424
C	4.71277	-0.862017	-0.577433
N	5.56775	0.0880016	-1.02471
H	6.435	1.84356	-0.0477179
H	4.92788	0.901485	2.06427
H	4.37532	-1.69068	-1.22061
H	5.98952	0.147943	-1.98376
