18
  This energy is -0.5464 and Call times are: 89770
C	-0.564456	-0.00505281	0.98375
C	-0.929429	-0.787967	-0.0718129
C	0.00859563	-0.505127	-1.11115
C	0.863976	0.425659	-0.598966
O	0.528853	0.742649	0.679401
H	-0.995027	0.109941	1.99203
H	-1.77443	-1.49384	-0.114289
H	0.0354794	-0.948104	-2.11969
H	1.73857	0.934197	-1.03682
C	7.03595	-0.206495	-0.228197
C	6.22319	-0.912936	0.632912
N	4.96894	-0.400115	0.652188
C	5.00346	0.620585	-0.193746
N	6.22768	0.77846	-0.750463
H	8.09692	-0.330827	-0.49732
H	6.51933	-1.78347	1.24063
H	4.1608	1.28559	-0.442606
H	6.50778	1.51151	-1.4472
