18
  This energy is -0.9819 and Call times are: 92732
C	-0.652982	-0.65893	-0.652554
C	-1.17411	0.25292	0.217694
C	-0.0541505	0.876986	0.847261
C	1.0525	0.291404	0.306155
O	0.705413	-0.648927	-0.611625
H	-1.136	-1.36551	-1.34731
H	-2.24023	0.464821	0.398188
H	-0.0792802	1.66895	1.61293
H	2.12779	0.453146	0.487384
C	5.17645	1.08133	0.429743
C	5.36203	0.667957	-0.872495
N	5.06323	-0.646134	-1.0153
C	4.69368	-1.04646	0.193747
N	4.74497	-0.0415602	1.09991
H	5.31624	2.06238	0.910932
H	5.70618	1.29435	-1.71157
H	4.37594	-2.0645	0.471014
H	4.50228	-0.105618	2.11886
