18
  This energy is -0.91 and Call times are: 87972
C	-0.108706	-1.12329	-0.113134
C	-1.14727	-0.264208	-0.322269
C	-0.625777	1.04443	-0.0863928
C	0.685426	0.869509	0.246059
O	1.01829	-0.448095	0.234702
H	-0.0440259	-2.22182	-0.178704
H	-2.17726	-0.525798	-0.613429
H	-1.17105	1.9992	-0.158308
H	1.47571	1.59182	0.508687
C	4.58539	-0.319175	0.503771
C	5.79904	-0.965619	0.605348
N	6.75669	-0.321505	-0.104945
C	6.1395	0.720567	-0.645115
N	4.82884	0.766189	-0.307958
H	3.59862	-0.547096	0.93722
H	6.00083	-1.88525	1.17842
H	6.59992	1.48151	-1.29566
H	4.13105	1.49038	-0.607779
