18
  This energy is -1.4792 and Call times are: 7992
C	-0.892035	-0.00837078	0.700432
C	-0.505775	-1.11089	-0.00358412
C	0.637627	-0.710784	-0.760333
C	0.849147	0.600907	-0.451952
O	-0.0757248	1.04622	0.438733
H	-1.71929	0.152484	1.41108
H	-0.978595	-2.10607	0.00875935
H	1.22759	-1.33407	-1.45138
H	1.61282	1.31846	-0.794241
C	3.99188	-0.610688	0.432984
C	4.92129	0.111313	1.15136
N	5.83073	0.690552	0.330449
C	5.46691	0.329268	-0.892551
N	4.36367	-0.455832	-0.883823
H	3.12127	-1.20394	0.754897
H	4.95192	0.224656	2.24729
H	5.97299	0.611477	-1.82982
H	3.88309	-0.868038	-1.72071
