18
  This energy is -1.051 and Call times are: 110545
C	0.242951	0.329623	1.0577
C	-0.510848	1.08827	0.211166
C	-0.593948	0.348469	-1.00781
C	0.116407	-0.796952	-0.798572
O	0.634506	-0.825147	0.457529
H	0.567131	0.497904	2.09781
H	-0.963008	2.07033	0.423791
H	-1.12335	0.642888	-1.92822
H	0.324962	-1.65803	-1.45454
C	5.35969	-0.116521	1.02872
C	4.00204	-0.215718	0.809443
N	3.70323	-0.0261871	-0.498724
C	4.87107	0.189769	-1.08876
N	5.90055	0.145501	-0.210233
H	5.95923	-0.210702	1.94808
H	3.23275	-0.42065	1.57171
H	5.02943	0.385598	-2.16151
H	6.91707	0.284328	-0.430858
