18
  This energy is -1.3489 and Call times are: 96493
C	-0.447275	0.988369	-0.330865
C	-0.491446	0.563853	0.964592
C	0.165591	-0.704246	0.98311
C	0.553266	-0.942704	-0.302666
O	0.187145	0.0806303	-1.1186
H	-0.825813	1.90444	-0.81334
H	-0.941555	1.09083	1.82121
H	0.326192	-1.35596	1.85694
H	1.08893	-1.79107	-0.759376
C	4.02181	-1.07044	-0.10284
C	4.90692	-0.649214	0.866844
N	5.25387	0.647637	0.681597
C	4.58653	1.02949	-0.3989
N	3.82936	0.029353	-0.908817
H	3.53162	-2.04258	-0.270787
H	5.3014	-1.25782	1.69681
H	4.61591	2.03007	-0.859552
H	3.21311	0.0817378	-1.75661
