18
  This energy is -2.1291 and Call times are: 67464
C	0.362423	-0.985249	0.429342
C	0.120767	0.106853	1.20991
C	-0.313959	1.13548	0.319375
C	-0.299582	0.581154	-0.926774
O	0.110954	-0.713497	-0.878299
H	0.711441	-2.00039	0.680178
H	0.236984	0.180681	2.30314
H	-0.601817	2.16541	0.584851
H	-0.555443	0.997243	-1.91503
C	3.79577	-0.687691	0.645165
C	5.17418	-0.662291	0.667333
N	5.66014	0.252617	-0.206335
C	4.58729	0.792746	-0.768365
N	3.43886	0.259431	-0.288516
H	3.06786	-1.29255	1.20893
H	5.82675	-1.28773	1.29807
H	4.58568	1.58249	-1.53683
H	2.46256	0.518139	-0.573442
