18
  This energy is -1.432 and Call times are: 1906
C	0.901011	0.657172	-0.206649
C	0.218396	0.0198535	-1.20075
C	-0.83356	-0.69833	-0.554437
C	-0.700916	-0.436484	0.777559
O	0.353301	0.389663	1.00804
H	1.78117	1.32039	-0.233112
H	0.434017	0.0522288	-2.28082
H	-1.59572	-1.3335	-1.03377
H	-1.28445	-0.772543	1.65038
C	4.76774	0.312698	1.10256
C	5.25503	0.874641	-0.0584385
N	4.73305	0.2674	-1.15174
C	3.92501	-0.667703	-0.670829
N	3.91122	-0.680609	0.683141
H	4.96333	0.54172	2.16219
H	5.97389	1.70736	-0.126797
H	3.31964	-1.37044	-1.26574
H	3.35419	-1.32459	1.29654
