18
  This energy is -0.9027 and Call times are: 49916
C	-0.997435	-0.538767	0.0354245
C	0.0953729	-0.979062	0.722654
C	1.14123	-0.0513674	0.429936
C	0.595204	0.873935	-0.410329
O	-0.710205	0.591796	-0.661955
H	-2.02318	-0.935728	-0.0388215
H	0.158647	-1.86795	1.37071
H	2.17662	-0.0779699	0.805907
H	1.02466	1.76777	-0.891863
C	5.6533	1.11256	-0.288361
C	5.93698	-0.0182059	-1.0246
N	5.50228	-1.13502	-0.391918
C	4.95102	-0.698751	0.73254
N	5.01695	0.649345	0.841543
H	5.85258	2.17853	-0.482065
H	6.44753	-0.0482113	-2.00096
H	4.48454	-1.32348	1.51122
H	4.65271	1.2309	1.63551
