18
  This energy is -0.5414 and Call times are: 100926
C	-1.00178	-0.306487	-0.434628
C	-0.0967397	-1.21647	0.0271187
C	1.02145	-0.456577	0.487929
C	0.701001	0.85068	0.267098
O	-0.531077	0.960863	-0.295801
H	-2.00265	-0.431772	-0.879392
H	-0.205633	-2.31284	0.041756
H	1.9519	-0.846633	0.930885
H	1.25598	1.78271	0.463505
C	6.50913	-1.14745	0.15719
C	5.27682	-0.536629	0.0600383
N	5.40692	0.800406	-0.118629
C	6.71497	1.01821	-0.132266
N	7.42253	-0.124813	0.0303179
H	6.79132	-2.2023	0.302775
H	4.29617	-1.03671	0.115661
H	7.20857	1.99534	-0.258049
H	8.46778	-0.214856	0.0550194
