18
  This energy is -1.0406 and Call times are: 127853
C	-0.372552	-0.592623	-0.892415
C	-1.19218	0.210783	-0.155447
C	-0.369345	0.777925	0.865047
C	0.88047	0.271025	0.661603
O	0.896815	-0.567834	-0.407537
H	-0.568515	-1.22556	-1.77346
H	-2.26826	0.386416	-0.314495
H	-0.680606	1.48071	1.65454
H	1.8294	0.427208	1.20048
C	5.60772	-1.00382	0.0900814
C	5.6756	0.0833058	0.935474
N	4.83697	1.06867	0.532631
C	4.25106	0.59463	-0.558525
N	4.68212	-0.651496	-0.866648
H	6.13499	-1.97098	0.101219
H	6.31466	0.174323	1.82887
H	3.49904	1.11823	-1.17052
H	4.3706	-1.23759	-1.67949
