18
  This energy is -1.4726 and Call times are: 38206
C	-0.172003	1.09147	0.255956
C	-0.656415	0.07546	1.02631
C	-0.239208	-1.13229	0.388043
C	0.463323	-0.747711	-0.716004
O	0.514374	0.606961	-0.812291
H	-0.246319	2.18651	0.358998
H	-1.24817	0.167286	1.95124
H	-0.443174	-2.16307	0.719704
H	0.969509	-1.33314	-1.50105
C	5.02916	-1.00122	0.44551
C	5.6653	-0.144321	-0.427527
N	4.87695	0.914309	-0.734616
C	3.75599	0.714917	-0.0546744
N	3.79844	-0.426697	0.67231
H	5.35432	-1.94762	0.906083
H	6.679	-0.270971	-0.841336
H	2.87247	1.37342	-0.0530371
H	3.03859	-0.802554	1.29088
