18
  This energy is -1.9402 and Call times are: 121038
C	-0.411051	-1.00388	0.331164
C	0.378538	-0.865999	-0.772427
C	0.690131	0.525241	-0.858912
C	0.0634446	1.11472	0.199463
O	-0.613757	0.195704	0.93691
H	-0.885483	-1.88961	0.784649
H	0.708457	-1.66395	-1.45692
H	1.30967	1.02044	-1.62379
H	0.0225627	2.16476	0.532612
C	3.75349	-1.04625	-0.479246
C	3.77916	-0.73684	0.864163
N	4.10159	0.564816	1.05971
C	4.27529	1.06103	-0.157759
N	4.07674	0.129051	-1.11983
H	3.53534	-1.98821	-1.00713
H	3.5708	-1.4295	1.69583
H	4.54846	2.1003	-0.40175
H	4.15428	0.274138	-2.15627
