18
  This energy is -0.9624 and Call times are: 34926
C	0.73613	-0.808243	0.302089
C	-0.243163	-0.361966	1.14006
C	-0.95421	0.640134	0.411827
C	-0.346659	0.717763	-0.806873
O	0.687674	-0.159757	-0.89128
H	1.51949	-1.57247	0.434561
H	-0.444611	-0.704119	2.1679
H	-1.81657	1.22943	0.762773
H	-0.552647	1.34786	-1.68767
C	6.22239	-0.352488	0.0330484
C	5.18099	-0.833904	0.797825
N	4.02118	-0.200088	0.498442
C	4.34184	0.671218	-0.448462
N	5.6576	0.618058	-0.763974
H	7.28981	-0.62285	0.000659659
H	5.24572	-1.62722	1.56026
H	3.65206	1.37228	-0.945396
H	6.1531	1.20445	-1.47943
