18
  This energy is -1.6392 and Call times are: 69927
C	0.151675	0.906757	0.66422
C	0.311685	-0.368375	1.12118
C	0.0378247	-1.22	0.0076909
C	-0.26536	-0.390105	-1.03141
O	-0.20073	0.912235	-0.648332
H	0.257933	1.88219	1.1667
H	0.594221	-0.678184	2.14014
H	0.0658099	-2.32139	-0.00832369
H	-0.540152	-0.599622	-2.07823
C	3.65355	-0.0267803	-1.042
C	3.51286	-0.930704	-0.0103631
N	4.29351	-0.59334	1.04476
C	4.91612	0.515657	0.669123
N	4.56398	0.897898	-0.581269
H	3.18582	0.022267	-2.03817
H	2.86206	-1.82026	-0.0084719
H	5.64005	1.08863	1.27066
H	4.9172	1.7385	-1.10078
