18
  This energy is -0.6981 and Call times are: 23431
C	0.249577	-0.512496	0.980541
C	0.695167	0.740396	0.677085
C	0.180368	1.03439	-0.622401
C	-0.534363	-0.064792	-0.998328
O	-0.502838	-1.0193	-0.0314058
H	0.396631	-1.14493	1.87141
H	1.32336	1.39217	1.30531
H	0.330055	1.95944	-1.20204
H	-1.1036	-0.288161	-1.91557
C	6.57658	-0.563331	-0.737844
C	6.2187	0.320192	0.258377
N	7.30939	0.781985	0.916915
C	8.33997	0.187208	0.331458
N	7.95023	-0.63388	-0.672288
H	5.97115	-1.12803	-1.46456
H	5.19306	0.632712	0.51377
H	9.40119	0.3172	0.598195
H	8.57536	-1.21375	-1.28403
