18
  This energy is -1.0742 and Call times are: 103196
C	-0.371437	0.195724	-1.05363
C	0.630468	0.925881	-0.484915
C	0.810507	0.388149	0.826019
C	-0.0972704	-0.623139	0.942675
O	-0.82758	-0.754674	-0.195902
H	-0.84411	0.253011	-2.04788
H	1.18691	1.75952	-0.94264
H	1.5343	0.721969	1.5868
H	-0.319437	-1.31405	1.77245
C	4.2856	-0.207546	-0.316436
C	4.88842	1.02376	-0.169362
N	6.18374	0.891869	0.206483
C	6.38374	-0.416285	0.292246
N	5.26937	-1.1222	-0.0134503
H	3.26037	-0.488268	-0.60562
H	4.41192	2.00494	-0.327707
H	7.32697	-0.911138	0.574516
H	5.17311	-2.16717	-0.0186652
