18
  This energy is -1.7945 and Call times are: 103515
C	-0.992367	0.400187	0.37611
C	-0.532318	-0.840397	0.70729
C	0.729007	-0.977654	0.0512886
C	0.92839	0.191171	-0.622853
O	-0.112962	1.04414	-0.435666
H	-1.91729	0.93401	0.649597
H	-1.03114	-1.58423	1.34914
H	1.40258	-1.84907	0.0833949
H	1.75847	0.534015	-1.26213
C	5.22997	0.381656	1.11289
C	6.28899	0.313843	0.232548
N	5.89563	-0.176003	-0.968214
C	4.59751	-0.411182	-0.833301
N	4.14862	-0.0912794	0.403526
H	5.17127	0.721652	2.15908
H	7.32985	0.609591	0.442288
H	3.92788	-0.817288	-1.60848
H	3.16436	-0.185557	0.755108
