18
  This energy is -1.0539 and Call times are: 73945
C	0.523932	0.173908	-0.990783
C	1.19521	0.151065	0.196331
C	0.207481	-0.0903147	1.19945
C	-0.980186	-0.193668	0.536776
O	-0.805592	-0.0348903	-0.801625
H	0.872906	0.327189	-2.02518
H	2.27736	0.290233	0.350179
H	0.371551	-0.175507	2.28569
H	-2.00554	-0.376243	0.898123
C	5.61838	-0.466085	0.996403
C	5.60813	0.867752	0.647239
N	5.04978	1.04882	-0.574226
C	4.71492	-0.168063	-0.981278
N	5.03706	-1.11589	-0.0694398
H	5.98594	-0.981666	1.89785
H	5.99361	1.7027	1.25479
H	4.23134	-0.421725	-1.93838
H	4.87489	-2.14893	-0.157601
