18
  This energy is -1.6959 and Call times are: 95130
C	-0.187443	0.256099	-1.08889
C	0.179958	1.19518	-0.170454
C	0.319462	0.497312	1.06795
C	0.0249962	-0.806616	0.79696
O	-0.286826	-0.97203	-0.515448
H	-0.404907	0.333544	-2.16683
H	0.336978	2.27136	-0.347306
H	0.606151	0.924831	2.04218
H	0.00163904	-1.70018	1.44213
C	4.59558	0.570447	-0.839622
C	3.71307	-0.474249	-1.0155
N	3.20764	-0.891855	0.170522
C	3.77443	-0.109207	1.07872
N	4.61955	0.789061	0.519724
H	5.18847	1.15431	-1.56151
H	3.43199	-0.934144	-1.97693
H	3.60608	-0.150955	2.16691
H	5.18526	1.51394	1.02547
