18
  This energy is -0.5946 and Call times are: 125373
C	-0.853301	0.508179	-0.547751
C	0.14206	-0.156126	-1.20222
C	1.0155	-0.651122	-0.186247
C	0.476781	-0.245605	0.999379
O	-0.664809	0.463618	0.797424
H	-1.74004	1.04718	-0.919804
H	0.250351	-0.28468	-2.29118
H	1.93565	-1.23977	-0.330873
H	0.805345	-0.395345	2.04095
C	5.9276	0.878865	0.733817
C	5.05292	0.145325	-0.0394824
N	5.71033	-0.790153	-0.766944
C	6.988	-0.637538	-0.446161
N	7.17077	0.356265	0.455248
H	5.75899	1.70812	1.43911
H	3.95926	0.27432	-0.0855414
H	7.83095	-1.22674	-0.841757
H	8.08526	0.669083	0.864041
