18
  This energy is -1.0648 and Call times are: 29455
C	0.00827726	0.851674	-0.748989
C	0.778156	-0.263691	-0.902678
C	0.49528	-1.09255	0.225632
C	-0.422489	-0.410527	0.969212
O	-0.73136	0.778919	0.388841
H	-0.101952	1.75531	-1.37072
H	1.47532	-0.480961	-1.72782
H	0.92951	-2.08025	0.449249
H	-0.926312	-0.660175	1.91741
C	4.63451	-0.388323	-0.805183
C	4.36447	-0.0757811	0.510319
N	5.48236	0.341414	1.15281
C	6.44224	0.287892	0.239369
N	5.98145	-0.146064	-0.957684
H	3.98515	-0.753799	-1.61654
H	3.38306	-0.143839	1.00736
H	7.50007	0.555162	0.393617
H	6.54321	-0.273662	-1.83484
