18
  This energy is -1.1757 and Call times are: 59683
C	-0.604598	0.861116	-0.423488
C	0.293239	0.160362	-1.17396
C	0.844315	-0.82799	-0.302414
C	0.234585	-0.643956	0.90371
O	-0.65332	0.383431	0.847911
H	-1.26225	1.70968	-0.673869
H	0.542461	0.323118	-2.23485
H	1.60576	-1.5839	-0.553211
H	0.343703	-1.17059	1.866
C	7.0264	0.85145	-0.517447
C	7.09841	-0.50134	-0.774189
N	6.23332	-1.19352	0.00620535
C	5.62694	-0.273644	0.744277
N	6.07035	0.975137	0.465843
H	7.56971	1.70636	-0.950435
H	7.75907	-0.99032	-1.50854
H	4.85058	-0.459705	1.5038
H	5.74738	1.86754	0.913683
