18
  This energy is -1.4012 and Call times are: 13920
C	-0.566079	0.884105	0.429318
C	0.451751	1.03365	-0.466246
C	0.905344	-0.28699	-0.766732
C	0.124656	-1.12697	-0.028266
O	-0.779406	-0.42882	0.708123
H	-1.20884	1.62285	0.935638
H	0.843804	1.97909	-0.874317
H	1.71901	-0.569065	-1.4541
H	0.113024	-2.22576	0.0599573
C	5.42615	0.803648	-0.58922
C	5.71073	-0.539887	-0.46645
N	4.7751	-1.17097	0.283772
C	3.91335	-0.222551	0.62512
N	4.2619	0.985822	0.123186
H	5.95219	1.61591	-1.11557
H	6.5744	-1.06518	-0.905756
H	3.00991	-0.358205	1.24125
H	3.74393	1.88934	0.252145
