18
  This energy is -0.6945 and Call times are: 38238
C	0.403958	-1.05959	0.0220699
C	1.12042	-0.0151374	-0.484072
C	0.288854	1.13688	-0.337558
C	-0.862353	0.694719	0.245182
O	-0.809372	-0.644241	0.471878
H	0.642701	-2.13151	0.118236
H	2.13292	-0.0522257	-0.917154
H	0.528424	2.17059	-0.634457
H	-1.78065	1.22573	0.545207
C	5.65342	1.10595	-0.399744
C	5.08642	-0.00852237	-0.980779
N	5.33802	-1.12189	-0.250294
C	6.05837	-0.699732	0.779997
N	6.27554	0.636096	0.735332
H	5.65808	2.16483	-0.703538
H	4.50029	-0.0291943	-1.91399
H	6.45264	-1.32649	1.59606
H	6.81503	1.20541	1.43254
