18
  This energy is -1.7667 and Call times are: 97726
C	-0.682784	-0.856534	-0.294206
C	-0.50629	0.241305	-1.08413
C	0.41084	1.08331	-0.384112
C	0.71383	0.425676	0.771781
O	0.0548189	-0.760751	0.843238
H	-1.29782	-1.76168	-0.427214
H	-0.974925	0.438416	-2.06169
H	0.794671	2.06305	-0.711013
H	1.37489	0.692092	1.61278
C	4.32024	0.656324	0.922919
C	3.91672	-0.661939	0.945189
N	3.62128	-1.10364	-0.301459
C	3.84068	-0.0633458	-1.0941
N	4.26348	1.02194	-0.403463
H	4.63333	1.33742	1.73015
H	3.83346	-1.30226	1.83845
H	3.70762	-0.0416963	-2.18775
H	4.5025	1.96268	-0.802389
