18
  This energy is -1.397 and Call times are: 17855
C	0.088806	-0.944906	-0.621021
C	-1.10666	-0.32743	-0.397481
C	-0.813208	0.81041	0.414508
C	0.53567	0.787807	0.615483
O	1.10262	-0.277384	-0.00977897
H	0.347535	-1.85295	-1.19003
H	-2.09589	-0.641686	-0.767286
H	-1.52968	1.55377	0.799442
H	1.2027	1.46296	1.17628
C	4.16658	-0.861143	-0.729628
C	4.05546	-0.851624	0.644675
N	4.5402	0.301477	1.16611
C	4.95048	1.00464	0.119276
N	4.74688	0.346731	-1.04661
H	3.88322	-1.61677	-1.47947
H	3.63421	-1.65612	1.26932
H	5.40734	2.00692	0.149851
H	4.9856	0.691147	-2.00872
