18
  This energy is -0.8775 and Call times are: 71319
C	0.3659	0.478417	-0.961059
C	-0.740556	-0.317927	-0.916727
C	-0.875852	-0.723759	0.446033
C	0.15987	-0.139587	1.11416
O	0.928334	0.598261	0.270329
H	0.849742	1.01191	-1.79565
H	-1.39573	-0.592064	-1.75916
H	-1.65678	-1.37511	0.870275
H	0.455462	-0.170773	2.17572
C	5.86987	-0.638175	-0.192833
C	5.10723	-0.618204	0.9557
N	4.05926	0.232028	0.831653
C	4.17135	0.737594	-0.389193
N	5.24719	0.244283	-1.04707
H	6.78123	-1.19919	-0.454016
H	5.29438	-1.20205	1.87164
H	3.49306	1.47263	-0.85167
H	5.54939	0.487667	-2.02211
