18
  This energy is -0.8987 and Call times are: 36224
C	0.394965	-0.956863	0.463484
C	-0.939185	-0.702109	0.338913
C	-1.03602	0.580561	-0.281972
C	0.24751	0.996399	-0.482005
O	1.1344	0.0698077	-0.0327027
H	0.938553	-1.81991	0.881705
H	-1.77162	-1.35222	0.652762
H	-1.95846	1.12268	-0.54523
H	0.656367	1.91806	-0.927683
C	5.88161	0.736833	0.781169
C	6.52576	-0.256247	0.0740594
N	5.66431	-0.914474	-0.739053
C	4.4902	-0.331955	-0.537144
N	4.5689	0.669624	0.370731
H	6.2521	1.46241	1.52267
H	7.59666	-0.509592	0.136023
H	3.5405	-0.59939	-1.02783
H	3.78019	1.27889	0.699357
