18
  This energy is -0.8804 and Call times are: 14813
C	0.803843	0.209503	-0.772235
C	-0.519958	0.427041	-1.01841
C	-1.20685	0.0499929	0.175793
C	-0.242163	-0.364669	1.04631
O	0.991739	-0.27397	0.483934
H	1.69805	0.356803	-1.39989
H	-0.967821	0.814184	-1.94773
H	-2.29317	0.0866717	0.356481
H	-0.303699	-0.741995	2.08028
C	5.63418	-0.795717	0.591396
C	4.73375	0.104201	1.12104
N	4.18247	0.872557	0.150357
C	4.73878	0.450909	-0.977188
N	5.62117	-0.553877	-0.76416
H	6.26233	-1.56543	1.06731
H	4.472	0.21284	2.18619
H	4.53599	0.843091	-1.98679
H	6.1875	-1.05349	-1.4928
