18
  This energy is -1.3246 and Call times are: 25535
C	0.126945	-0.0799666	-1.12423
C	-1.04401	0.316128	-0.547725
C	-0.813886	0.291388	0.861726
C	0.477373	-0.11764	1.02209
O	1.06702	-0.348908	-0.180337
H	0.414789	-0.209227	-2.18049
H	-1.97628	0.597499	-1.06327
H	-1.53227	0.549763	1.65625
H	1.08541	-0.281325	1.92694
C	4.11173	-0.939124	-0.171524
C	4.22616	0.163716	-0.991154
N	5.11216	1.05696	-0.487547
C	5.54573	0.510351	0.640219
N	4.97232	-0.693663	0.875049
H	3.49921	-1.85083	-0.256119
H	3.6853	0.330881	-1.93687
H	6.2828	0.948805	1.33211
H	5.14955	-1.32071	1.69764
