18
  This energy is -1.1419 and Call times are: 100638
C	-0.119354	0.493078	-1.01441
C	0.679171	1.01347	-0.0387423
C	0.569261	0.123105	1.0727
C	-0.286724	-0.862772	0.678096
O	-0.716999	-0.652756	-0.59382
H	-0.343888	0.838476	-2.03693
H	1.28484	1.93216	-0.0959693
H	1.07277	0.214209	2.04854
H	-0.664186	-1.75623	1.20204
C	7.61628	-0.357314	0.10649
C	6.56987	-0.64761	0.956138
N	5.41994	-0.071041	0.529845
C	5.75169	0.574488	-0.580044
N	7.06505	0.432549	-0.877608
H	8.67875	-0.647239	0.131669
H	6.62404	-1.26275	1.86911
H	5.07206	1.16668	-1.2138
H	7.56765	0.845515	-1.70108
