18
  This energy is -0.5886 and Call times are: 71832
C	0.856618	0.199837	0.716011
C	0.214527	1.20066	0.0478396
C	-0.788025	0.561749	-0.743871
C	-0.670076	-0.773097	-0.489612
O	0.329371	-1.01218	0.399744
H	1.69236	0.219409	1.43462
H	0.425696	2.2805	0.106588
H	-1.50872	1.04773	-1.42101
H	-1.22928	-1.6425	-0.872592
C	5.76889	-1.00861	0.426551
C	5.05765	0.133549	0.125268
N	5.87367	1.10699	-0.34701
C	7.08653	0.570761	-0.338748
N	7.07604	-0.703505	0.119211
H	5.44804	-1.98438	0.824633
H	3.97032	0.272659	0.240208
H	8.01732	1.06699	-0.65751
H	7.9056	-1.33814	0.220798
