18
  This energy is -0.944 and Call times are: 107617
C	-0.281481	-0.0629237	-1.09691
C	0.745675	0.715206	-0.649875
C	0.78781	0.531543	0.765967
C	-0.217317	-0.342607	1.05915
O	-0.88071	-0.716033	-0.0666738
H	-0.680519	-0.235741	-2.1099
H	1.40731	1.3544	-1.25631
H	1.48861	1.00003	1.47555
H	-0.557728	-0.770974	2.01616
C	6.04796	-0.923241	0.576239
C	6.74966	0.127288	0.0238334
N	5.9142	1.01665	-0.5657
C	4.69883	0.519752	-0.379732
N	4.72635	-0.648909	0.303689
H	6.38434	-1.81683	1.12568
H	7.84379	0.259444	0.0400957
H	3.75403	0.97096	-0.723236
H	3.89863	-1.23446	0.57437
