18
  This energy is -1.1945 and Call times are: 95354
C	0.0741479	0.419699	1.05107
C	1.01218	-0.424681	0.533878
C	0.57564	-0.72939	-0.791529
C	-0.590619	-0.0443135	-0.967267
O	-0.911916	0.662806	0.147974
H	-0.00497475	0.909932	2.03528
H	1.92041	-0.795739	1.0354
H	1.07811	-1.38367	-1.52196
H	-1.27715	0.0219482	-1.82723
C	4.53819	0.776241	0.586983
C	4.27437	0.234528	-0.653216
N	5.25097	-0.627117	-1.02784
C	6.11734	-0.619973	-0.0238601
N	5.73248	0.2105	0.974029
H	3.97922	1.50015	1.20103
H	3.39686	0.449974	-1.28441
H	7.05009	-1.20399	0.0321804
H	6.24601	0.389346	1.87156
