18
  This energy is -1.5281 and Call times are: 131120
C	0.380827	0.499435	-0.944424
C	-0.65073	1.01049	-0.21293
C	-0.8338	0.1143	0.884083
C	0.102047	-0.865298	0.726117
O	0.852595	-0.645991	-0.385456
H	0.86611	0.85173	-1.86943
H	-1.22512	1.92666	-0.42462
H	-1.57835	0.19746	1.69206
H	0.332607	-1.75997	1.32749
C	4.27981	-0.968771	0.248886
C	5.63643	-0.788745	0.417167
N	6.01682	0.452016	0.0268707
C	4.90042	1.03949	-0.381984
N	3.82548	0.223953	-0.268008
H	3.62732	-1.83243	0.453555
H	6.34757	-1.53191	0.813207
H	4.81349	2.06559	-0.774144
H	2.83472	0.456017	-0.524522
