18
  This energy is -0.8542 and Call times are: 101756
C	-0.287236	-0.849321	0.694658
C	-1.12064	0.200062	0.440483
C	-0.415316	1.04878	-0.466333
C	0.786839	0.44311	-0.68625
O	0.882131	-0.717233	0.0148462
H	-0.407612	-1.74087	1.33176
H	-2.13075	0.360393	0.85044
H	-0.769833	1.99798	-0.899255
H	1.64785	0.732466	-1.31089
C	4.86094	0.134317	-0.69657
C	4.86935	-0.336143	0.599478
N	6.12744	-0.359623	1.10262
C	6.8966	0.0945442	0.122438
N	6.18004	0.406022	-0.983509
H	4.03709	0.289804	-1.41116
H	3.99017	-0.659055	1.18053
H	7.99075	0.219219	0.161208
H	6.55743	0.782725	-1.88735
