18
  This energy is -0.9496 and Call times are: 41290
C	1.02445	-0.115375	0.472861
C	0.0984446	0.76895	0.942822
C	-1.04487	0.623132	0.0992062
C	-0.716602	-0.337428	-0.811803
O	0.54355	-0.7995	-0.598457
H	2.04804	-0.349561	0.808532
H	0.209369	1.45512	1.79779
H	-1.99665	1.17376	0.170035
H	-1.28382	-0.774506	-1.64994
C	4.93224	-0.680892	0.945164
C	5.54376	0.554491	0.913289
N	5.56511	1.05681	-0.345174
C	4.9691	0.136554	-1.09118
N	4.56942	-0.930475	-0.35954
H	4.73612	-1.37687	1.77624
H	5.96994	1.09236	1.77579
H	4.79905	0.193322	-2.17842
H	4.07696	-1.78507	-0.717895
