18
  This energy is -1.111 and Call times are: 64643
C	0.736729	0.859068	-0.0750532
C	0.291255	0.381362	1.12233
C	-0.608562	-0.682568	0.808481
C	-0.633518	-0.761095	-0.552983
O	0.182236	0.172988	-1.1089
H	1.43923	1.67187	-0.322229
H	0.568484	0.742017	2.12591
H	-1.1677	-1.31083	1.52034
H	-1.18302	-1.42865	-1.23685
C	5.70126	0.798485	0.324807
C	4.39008	0.723736	0.744759
N	3.75141	-0.323482	0.168605
C	4.66292	-0.89622	-0.605833
N	5.85507	-0.256827	-0.546311
H	6.50883	1.50442	0.575836
H	3.89346	1.40667	1.45316
H	4.51068	-1.78608	-1.23766
H	6.72987	-0.51568	-1.06494
