18
  This energy is -1.4853 and Call times are: 3240
C	0.404798	-0.00917338	-1.05946
C	-0.416697	0.977921	-0.599934
C	-0.70809	0.643611	0.757801
C	-0.0389377	-0.518264	1.00811
O	0.645988	-0.931278	-0.0906654
H	0.878707	-0.167546	-2.0421
H	-0.780935	1.85362	-1.16081
H	-1.34318	1.20857	1.45893
H	0.0295272	-1.1418	1.91463
C	5.20848	-0.714692	-0.221277
C	4.6349	0.188209	-1.09128
N	3.60631	0.846776	-0.504075
C	3.54204	0.354305	0.725545
N	4.48709	-0.590305	0.945045
H	6.05087	-1.41362	-0.345445
H	4.94481	0.376251	-2.13217
H	2.82232	0.649859	1.50586
H	4.64096	-1.12589	1.83428
