18
  This energy is -0.9766 and Call times are: 46861
C	0.221936	-0.920932	0.623722
C	1.17663	0.00614389	0.324629
C	0.522267	1.00062	-0.464639
C	-0.774538	0.593462	-0.578182
O	-0.975712	-0.578203	0.0804103
H	0.267573	-1.85552	1.20657
H	2.23545	-0.00880445	0.629243
H	0.972851	1.91003	-0.893645
H	-1.63939	1.04259	-1.09352
C	5.11167	0.369627	-0.949916
C	6.20256	-0.473373	-0.92835
N	6.62877	-0.688589	0.339931
C	5.80543	0.0182108	1.10227
N	4.87302	0.674218	0.371619
H	4.50843	0.761274	-1.78433
H	6.68972	-0.930158	-1.8052
H	5.84043	0.0906726	2.20125
H	4.11308	1.29634	0.741383
