18
  This energy is -1.2583 and Call times are: 34147
C	-0.437911	0.025346	-1.04594
C	0.900823	0.140443	-0.811592
C	1.05763	0.0635767	0.606018
C	-0.199118	-0.0917076	1.11281
O	-1.12478	-0.117173	0.118066
H	-1.01919	0.0296329	-1.98261
H	1.69794	0.266799	-1.56174
H	2.00051	0.118485	1.17352
H	-0.56221	-0.194373	2.1486
C	5.76679	-0.060315	0.967906
C	5.41175	1.07907	0.277328
N	4.63482	0.780136	-0.792033
C	4.50836	-0.539674	-0.764959
N	5.17262	-1.09289	0.277299
H	6.37978	-0.2046	1.87177
H	5.70226	2.11146	0.531524
H	3.9406	-1.15178	-1.48413
H	5.22503	-2.11387	0.514173
