18
  This energy is -1.166 and Call times are: 119672
C	0.802529	0.252134	0.760773
C	-0.528018	0.318829	1.0533
C	-1.21065	-0.066262	-0.140787
C	-0.236991	-0.334287	-1.05759
O	0.998552	-0.145055	-0.524072
H	1.69663	0.459149	1.37149
H	-0.98313	0.609998	2.0136
H	-2.30027	-0.133034	-0.290371
H	-0.292704	-0.663089	-2.10832
C	4.63627	-0.127956	-0.963422
C	5.88146	-0.675398	-0.737713
N	6.35747	-0.321049	0.480633
C	5.41118	0.443314	1.00874
N	4.35281	0.589994	0.176922
H	3.95455	-0.196198	-1.82606
H	6.44492	-1.31971	-1.43214
H	5.44198	0.921113	2.00121
H	3.48217	1.14491	0.364865
