18
  This energy is -0.6386 and Call times are: 102557
C	0.237062	0.42258	1.02549
C	1.14392	0.425777	0.00668206
C	0.484701	-0.181419	-1.10546
C	-0.766805	-0.502063	-0.668089
O	-0.93535	-0.14034	0.631049
H	0.30302	0.786092	2.06412
H	2.17377	0.816519	0.03544
H	0.901809	-0.355061	-2.11043
H	-1.61809	-0.983404	-1.17689
C	5.39273	-0.231707	-0.712932
C	5.39268	0.609038	0.379904
N	6.6109	0.639817	0.972776
C	7.36384	-0.178721	0.250488
N	6.67519	-0.729034	-0.777376
H	4.59744	-0.502274	-1.42556
H	4.53546	1.19397	0.751209
H	8.42586	-0.41127	0.430173
H	7.04731	-1.40564	-1.488
