18
  This energy is -2.1497 and Call times are: 53159
C	-0.683802	0.760083	-0.491008
C	-0.556619	-0.515832	-0.956023
C	0.37933	-1.15682	-0.0881225
C	0.741469	-0.216019	0.830638
O	0.101821	0.960637	0.599674
H	-1.2922	1.6093	-0.843064
H	-1.07036	-0.960972	-1.82322
H	0.735552	-2.19775	-0.148607
H	1.43535	-0.258676	1.68618
C	4.48337	-0.706773	0.91577
C	5.62386	0.0361178	0.695457
N	5.53445	0.737407	-0.460705
C	4.34302	0.430742	-0.955761
N	3.67066	-0.436597	-0.162513
H	4.20197	-1.38593	1.7362
H	6.50963	0.0786541	1.35002
H	3.91322	0.812903	-1.89568
H	2.71276	-0.828572	-0.335865
