18
  This energy is -1.6187 and Call times are: 19912
C	0.305229	-0.830184	-0.709952
C	-0.172845	0.368819	-1.15065
C	-0.442323	1.13742	0.0227056
C	-0.105133	0.340248	1.07684
O	0.353303	-0.865063	0.647798
H	0.641022	-1.72805	-1.25431
H	-0.32088	0.680727	-2.19702
H	-0.840836	2.16374	0.0669547
H	-0.144292	0.511808	2.16509
C	3.96899	0.714616	0.932554
C	4.32785	1.01091	-0.365358
N	4.11555	-0.0474162	-1.18474
C	3.62685	-0.996657	-0.398142
N	3.5194	-0.586173	0.887761
H	4.00068	1.31727	1.85415
H	4.73614	1.96936	-0.725242
H	3.33107	-2.01067	-0.712021
H	3.16175	-1.15117	1.69654
