18
  This energy is -1.0784 and Call times are: 44169
C	-1.1191	-0.0739038	-0.168996
C	-0.302316	0.646105	-0.990475
C	1.01519	0.498649	-0.45893
C	0.887219	-0.298451	0.640445
O	-0.40942	-0.657455	0.832422
H	-2.20757	-0.24732	-0.18934
H	-0.597945	1.22317	-1.88137
H	1.94418	0.938651	-0.855761
H	1.63194	-0.677038	1.35969
C	4.78208	-0.72896	-0.105512
C	4.7803	0.526875	0.463716
N	6.0134	1.08692	0.415585
C	6.77726	0.181959	-0.181233
N	6.08129	-0.930663	-0.514832
H	3.97758	-1.46871	-0.243671
H	3.91135	1.03888	0.908277
H	7.85278	0.282738	-0.398807
H	6.45937	-1.78432	-0.993997
