18
  This energy is -0.5131 and Call times are: 75738
C	1.09343	0.1298	-0.271968
C	0.359919	-0.942713	-0.686759
C	-0.95009	-0.75134	-0.150689
C	-0.901463	0.421226	0.544365
O	0.338947	0.972928	0.480963
H	2.14709	0.405098	-0.443003
H	0.706571	-1.7842	-1.30791
H	-1.82108	-1.41494	-0.273568
H	-1.67055	0.962802	1.11922
C	6.17039	1.01332	-0.552775
C	5.36291	0.366456	0.358648
N	5.94046	-0.778455	0.796965
C	7.10182	-0.841626	0.159884
N	7.28715	0.215631	-0.665618
H	6.03389	1.95348	-1.11046
H	4.37393	0.705355	0.707816
H	7.85443	-1.64014	0.260803
H	8.12241	0.393758	-1.27542
