18
  This energy is -1.0819 and Call times are: 40630
C	-0.131413	1.11752	0.142442
C	-1.10696	0.220395	0.464703
C	-0.575085	-1.06657	0.146971
C	0.678534	-0.842281	-0.341402
O	0.966033	0.485973	-0.351297
H	-0.0958978	2.21687	0.216013
H	-2.10136	0.442614	0.884089
H	-1.07511	-2.04057	0.271028
H	1.4541	-1.53361	-0.709923
C	4.30792	0.385105	-0.664069
C	5.33271	1.14125	-0.135676
N	6.18881	0.372035	0.579795
C	5.697	-0.856645	0.495581
N	4.56346	-0.901081	-0.243814
H	3.44372	0.662016	-1.28858
H	5.46969	2.22806	-0.257877
H	6.12716	-1.7605	0.956281
H	3.98876	-1.753	-0.456438
