18
  This energy is -1.0915 and Call times are: 49430
C	-0.917652	0.602029	-0.286143
C	0.287037	0.768706	-0.903653
C	1.17908	-0.153404	-0.275893
C	0.440766	-0.802168	0.669815
O	-0.842022	-0.35338	0.677437
H	-1.89173	1.09519	-0.438487
H	0.523751	1.47059	-1.71939
H	2.24495	-0.308616	-0.508129
H	0.70788	-1.59203	1.39094
C	5.00768	0.668701	0.949181
C	5.62757	1.052	-0.221271
N	5.67911	0.0263125	-1.10548
C	5.09341	-0.989429	-0.485922
N	4.67135	-0.652545	0.755838
H	4.78936	1.22412	1.87513
H	6.03856	2.05026	-0.44358
H	4.94709	-2.00183	-0.895636
H	4.18129	-1.27857	1.44081
