18
  This energy is -1.1545 and Call times are: 116363
C	0.274239	-1.07055	-0.255192
C	0.956371	-0.343926	0.675986
C	0.322937	0.93569	0.714202
C	-0.69036	0.878063	-0.196996
O	-0.734732	-0.339862	-0.798412
H	0.406478	-2.10345	-0.616953
H	1.81906	-0.675746	1.27578
H	0.596855	1.79326	1.34952
H	-1.43948	1.62562	-0.505584
C	5.05147	-1.09983	-0.390529
C	4.96863	-0.692591	0.92417
N	4.79287	0.648388	1.01017
C	4.76677	1.07144	-0.246403
N	4.91865	0.0552262	-1.12835
H	5.1909	-2.09661	-0.838343
H	5.03253	-1.34233	1.8122
H	4.63911	2.11481	-0.577037
H	4.93256	0.132499	-2.17482
