18
  This energy is -0.7504 and Call times are: 27102
C	0.967345	-0.294195	-0.5139
C	-0.255006	-0.509517	-1.07947
C	-1.21211	-0.0117835	-0.14334
C	-0.490136	0.463758	0.911644
O	0.842592	0.299393	0.702283
H	1.98692	-0.514783	-0.870346
H	-0.461927	-0.972414	-2.05774
H	-2.30865	-0.0120403	-0.251482
H	-0.80227	0.935718	1.85773
C	5.70397	-0.489079	-0.944412
C	4.79082	-1.07793	-0.0955442
N	4.41862	-0.224885	0.88949
C	5.09827	0.888932	0.652611
N	5.88748	0.779937	-0.442309
H	6.219	-0.870556	-1.84038
H	4.3939	-2.10301	-0.176201
H	5.05551	1.81425	1.24943
H	6.51888	1.52095	-0.834094
