18
  This energy is -1.071 and Call times are: 68145
C	0.121196	0.118706	1.12144
C	0.511263	1.0824	0.238539
C	0.200135	0.572923	-1.05905
C	-0.352593	-0.657135	-0.854548
O	-0.40857	-0.950686	0.471238
H	0.16613	0.0740523	2.222
H	0.971882	2.05452	0.477096
H	0.371562	1.07148	-2.0266
H	-0.740564	-1.41068	-1.55946
C	5.67328	-0.763547	-0.451804
C	5.62568	0.596153	-0.675626
N	4.60325	1.168	0.00565212
C	4.01879	0.166871	0.649671
N	4.62696	-1.01826	0.406402
H	6.35495	-1.54195	-0.829893
H	6.31076	1.17479	-1.31648
H	3.14217	0.245899	1.31263
H	4.35352	-1.95306	0.797108
