18
  This energy is -0.6788 and Call times are: 102980
C	0.989802	0.0837573	-0.547427
C	-0.17146	-0.243185	-1.18379
C	-1.18227	-0.248225	-0.174654
C	-0.549473	0.0760839	0.989288
O	0.777475	0.282227	0.780179
H	2.01941	0.205742	-0.921961
H	-0.303052	-0.459142	-2.25623
H	-2.25341	-0.468865	-0.309119
H	-0.92631	0.191057	2.01886
C	6.16169	-0.426173	0.875009
C	5.31716	0.662318	0.930799
N	4.7103	0.871602	-0.262696
C	5.17657	-0.0834234	-1.05588
N	6.05495	-0.891683	-0.416539
H	6.80947	-0.887082	1.63756
H	5.13486	1.30039	1.81084
H	4.90808	-0.236793	-2.11353
H	6.55869	-1.71592	-0.826581
