18
  This energy is -1.5715 and Call times are: 130458
C	-0.340336	0.100455	1.07726
C	0.452229	1.03089	0.471856
C	0.661354	0.559292	-0.860054
C	-0.0218799	-0.617694	-0.950987
O	-0.639553	-0.913271	0.22295
H	-0.754309	0.0451514	2.09746
H	0.849724	1.95646	0.918408
H	1.25323	1.04652	-1.6515
H	-0.144878	-1.32918	-1.784
C	4.61256	-1.1011	0.273828
C	3.85515	-0.240993	1.04044
N	3.68802	0.950679	0.417144
C	4.33927	0.830313	-0.731772
N	4.91384	-0.388545	-0.865333
H	4.94732	-2.13531	0.452358
H	3.42629	-0.458941	2.03212
H	4.42724	1.60381	-1.51164
H	5.48081	-0.726387	-1.68122
