18
  This energy is -0.6307 and Call times are: 72744
C	0.940728	-0.144522	-0.616883
C	0.394147	1.08538	-0.395591
C	-0.762657	0.859717	0.411254
C	-0.820863	-0.48816	0.611788
O	0.211642	-1.11711	-0.00899547
H	1.83437	-0.456494	-1.18198
H	0.768066	2.05432	-0.763613
H	-1.46398	1.6189	0.79319
H	-1.5368	-1.11412	1.16933
C	6.36351	1.03273	-0.0318298
C	6.68891	-0.0641111	0.737706
N	5.82378	-1.08505	0.523849
C	4.96493	-0.623326	-0.374939
N	5.24775	0.649076	-0.741817
H	6.83136	2.02602	-0.121472
H	7.53243	-0.137103	1.4434
H	4.11035	-1.17495	-0.798782
H	4.718	1.23223	-1.43504
