18
  This energy is -2.3022 and Call times are: 69733
C	0.0501621	0.985776	0.558686
C	0.683516	-0.137997	1.00182
C	0.388626	-1.15623	0.0445591
C	-0.398899	-0.564801	-0.899044
O	-0.615752	0.743301	-0.600958
H	-0.00317656	2.0062	0.972373
H	1.29684	-0.239708	1.91154
H	0.72785	-2.20438	0.0645061
H	-0.862548	-0.961147	-1.8173
C	4.92578	-0.657548	0.920104
C	5.70776	0.243191	0.228496
N	5.00958	0.825751	-0.776336
C	3.79908	0.288459	-0.708357
N	3.69811	-0.611813	0.298075
H	5.14861	-1.30621	1.78215
H	6.76321	0.483155	0.436545
H	2.94919	0.51842	-1.37096
H	2.84681	-1.16885	0.555497
