18
  This energy is -1.2267 and Call times are: 15734
C	0.2167	-0.756561	0.816736
C	-1.0364	-0.563156	0.314034
C	-0.906091	0.453834	-0.680384
C	0.415136	0.79212	-0.697573
O	1.11561	0.062786	0.210401
H	0.59438	-1.43772	1.59688
H	-1.95987	-1.08436	0.613445
H	-1.70844	0.877913	-1.30528
H	0.974128	1.526	-1.30106
C	4.35352	0.450665	-0.682256
C	4.41257	0.485391	0.694861
N	5.52946	-0.131305	1.15175
C	6.1609	-0.547032	0.0622227
N	5.49208	-0.220413	-1.06896
H	3.60678	0.842926	-1.3908
H	3.66928	0.944377	1.36695
H	7.11635	-1.09535	0.0356622
H	5.78502	-0.4371	-2.05308
