18
  This energy is -0.6492 and Call times are: 117519
C	-1.04818	-0.180232	0.394009
C	0.0586663	-0.297206	1.18242
C	1.17236	0.00246086	0.339798
C	0.647761	0.276103	-0.889142
O	-0.707001	0.169278	-0.874239
H	-2.11977	-0.317647	0.613215
H	0.0879358	-0.567409	2.25023
H	2.23679	0.0107952	0.624402
H	1.12575	0.555645	-1.84236
C	6.83166	-0.826658	0.100351
C	5.52275	-1.01292	-0.291052
N	4.8425	0.159161	-0.295285
C	5.72606	1.06908	0.0920184
N	6.94027	0.524546	0.342505
H	7.6657	-1.53635	0.21972
H	5.05702	-1.97202	-0.570467
H	5.53687	2.14831	0.209081
H	7.80053	1.0345	0.660578
