18
  This energy is -0.7706 and Call times are: 110385
C	-0.386106	0.449356	-0.967162
C	0.899649	0.0170008	-0.824761
C	1.00081	-0.475279	0.51223
C	-0.232057	-0.300292	1.06882
O	-1.09147	0.263198	0.179493
H	-0.914685	0.902326	-1.82196
H	1.69687	0.0422074	-1.58496
H	1.89206	-0.907642	0.994756
H	-0.619882	-0.532279	2.07432
C	6.2236	0.146666	-1.14612
C	5.00946	-0.168327	-0.573573
N	5.11408	-0.260226	0.774433
C	6.38826	-0.00322329	1.03716
N	7.09871	0.248389	-0.08781
H	6.51701	0.300503	-2.19673
H	4.05987	-0.330926	-1.109
H	6.85404	0.0138424	2.03565
H	8.12134	0.47734	-0.143268
