18
  This energy is -0.9499 and Call times are: 32078
C	0.409759	0.111172	-1.05173
C	-0.755922	0.698572	-0.656101
C	-0.933273	0.332357	0.713041
C	0.139686	-0.446503	1.03321
O	0.970138	-0.592082	-0.0327018
H	0.940409	0.11739	-2.01797
H	-1.42388	1.32673	-1.26711
H	-1.76608	0.620125	1.37464
H	0.423569	-0.949836	1.97199
C	5.25675	-0.99979	0.508173
C	5.60416	0.2837	0.873017
N	5.0093	1.19817	0.0690289
C	4.29557	0.484706	-0.791316
N	4.41166	-0.84581	-0.568065
H	5.54161	-1.97917	0.92436
H	6.27337	0.56627	1.70197
H	3.66982	0.885928	-1.60476
H	3.94651	-1.61378	-1.11132
