18
  This energy is -1.2831 and Call times are: 23303
C	0.356479	1.07553	0.0505975
C	1.08902	0.0904317	-0.543832
C	0.319889	-1.10534	-0.407154
C	-0.814755	-0.745408	0.258731
O	-0.809162	0.582884	0.54617
H	0.551874	2.15213	0.184794
H	2.07234	0.195313	-1.0298
H	0.588314	-2.11193	-0.766086
H	-1.68953	-1.33261	0.583101
C	5.17546	0.217903	-1.09391
C	4.70717	1.13892	-0.180906
N	4.35918	0.539231	0.983479
C	4.61063	-0.748915	0.793547
N	5.10418	-0.993693	-0.443417
H	5.54215	0.33502	-2.12607
H	4.61416	2.22539	-0.341486
H	4.45175	-1.55584	1.52693
H	5.38	-1.92836	-0.832758
