18
  This energy is -2.2683 and Call times are: 8444
C	0.192797	0.0745161	-1.1152
C	-0.231961	1.13828	-0.374693
C	-0.358954	0.656955	0.964081
C	-0.000589421	-0.658454	0.923492
O	0.339374	-1.03104	-0.338497
H	0.423616	-0.0234561	-2.18869
H	-0.435442	2.15947	-0.735061
H	-0.680475	1.23075	1.84809
H	0.0535314	-1.42615	1.71278
C	3.8924	-0.718358	-0.885187
C	3.44346	-1.08647	0.365446
N	3.20054	0.000824975	1.13699
C	3.49766	1.03952	0.367931
N	3.91955	0.658183	-0.860963
H	4.18474	-1.31853	-1.76147
H	3.29047	-2.11713	0.724877
H	3.4244	2.10095	0.654694
H	4.21167	1.29063	-1.64577
