18
  This energy is -1.1504 and Call times are: 44105
C	-0.582296	-0.855085	-0.464933
C	-0.587332	-0.612613	0.877288
C	0.249578	0.528409	1.07163
C	0.692158	0.882474	-0.168992
O	0.193979	0.0483601	-1.1193
H	-1.0831	-1.62859	-1.07002
H	-1.12632	-1.18031	1.65273
H	0.488489	1.02129	2.0277
H	1.35583	1.69658	-0.503676
C	5.85045	-0.00150163	-0.530696
C	5.04744	1.0928	-0.288169
N	3.90473	0.729931	0.343539
C	3.99848	-0.584486	0.492341
N	5.15347	-1.07298	-0.0185037
H	6.8357	-0.0906151	-1.01536
H	5.27213	2.13766	-0.557682
H	3.25006	-1.23843	0.968214
H	5.45969	-2.07671	-0.0234561
