18
  This energy is -0.8829 and Call times are: 116879
C	-0.627068	-0.645254	0.690532
C	-1.15677	-0.00248114	-0.389577
C	-0.0709584	0.696689	-0.999739
C	1.02641	0.419448	-0.238628
O	0.705107	-0.398697	0.797911
H	-1.08646	-1.29904	1.44999
H	-2.20678	-0.0190318	-0.723178
H	-0.111722	1.33001	-1.90048
H	2.07782	0.738487	-0.328152
C	4.79841	0.400269	0.763103
C	5.69697	-0.625152	0.96864
N	6.47367	-0.820684	-0.124528
C	6.05853	0.0800089	-1.00489
N	5.04988	0.840517	-0.517182
H	4.02365	0.833411	1.41554
H	5.79876	-1.2274	1.88613
H	6.4584	0.225909	-2.02128
H	4.55392	1.61749	-1.01877
