18
  This energy is -1.1101 and Call times are: 119929
C	0.805893	-0.530676	-0.596088
C	0.74314	0.828525	-0.501175
C	-0.390593	1.11118	0.320333
C	-0.920566	-0.100253	0.654911
O	-0.202475	-1.11401	0.103861
H	1.50963	-1.19498	-1.12401
H	1.42665	1.55883	-0.963303
H	-0.760881	2.1042	0.62179
H	-1.7943	-0.371276	1.27003
C	6.08568	0.63857	-0.0758891
C	5.69968	-0.389758	-0.90937
N	4.5049	-0.904292	-0.529555
C	4.15103	-0.197854	0.535502
N	5.07113	0.744835	0.849093
H	6.98068	1.28084	-0.0755412
H	6.26188	-0.769642	-1.77797
H	3.22856	-0.32915	1.12375
H	5.02118	1.42675	1.64518
