18
  This energy is -1.0684 and Call times are: 30125
C	-0.223886	-1.10384	-0.133498
C	-1.18581	-0.199696	0.209445
C	-0.526102	1.06518	0.28019
C	0.780721	0.822321	-0.025766
O	0.983184	-0.497061	-0.281207
H	-0.270102	-2.19248	-0.300767
H	-2.25288	-0.403072	0.394075
H	-0.979983	2.03749	0.530579
H	1.65242	1.49362	-0.0945996
C	4.60028	0.256524	-1.10881
C	5.28108	-0.86047	-0.672943
N	5.45652	-0.832459	0.67054
C	4.88672	0.297616	1.06663
N	4.35601	0.989795	0.0308576
H	4.28292	0.571008	-2.11574
H	5.64882	-1.68608	-1.3038
H	4.82962	0.666643	2.10335
H	3.85409	1.90977	0.0855432
