18
  This energy is -0.6844 and Call times are: 100734
C	-1.02241	-0.489246	0.0415184
C	-0.76919	0.723342	0.612382
C	0.608026	0.998183	0.351886
C	1.07483	-0.0707156	-0.355167
O	0.0925598	-0.988705	-0.553799
H	-1.94168	-1.09551	-0.00974023
H	-1.48084	1.36036	1.1618
H	1.17649	1.89066	0.659177
H	2.07181	-0.29457	-0.768879
C	8.17147	-0.0630839	0.886537
C	6.87248	0.394763	0.950983
N	6.26975	0.326802	-0.260878
C	7.19131	-0.171312	-1.07404
N	8.35542	-0.423102	-0.429797
H	8.95195	-0.155116	1.65849
H	6.35938	0.772916	1.85019
H	7.06663	-0.37181	-2.15037
H	9.23125	-0.817441	-0.852511
