18
  This energy is -1.007 and Call times are: 129073
C	-0.000540739	0.150309	-1.12419
C	-1.15152	0.089054	-0.394905
C	-0.745591	-0.10496	0.960711
C	0.617617	-0.145136	0.940152
O	1.08955	0.00913529	-0.324953
H	0.174447	0.28912	-2.20371
H	-2.18293	0.172155	-0.773577
H	-1.39969	-0.202194	1.84207
H	1.35742	-0.276277	1.74684
C	5.1288	0.804313	0.67716
C	4.6021	0.999875	-0.582003
N	4.0677	-0.145301	-1.07138
C	4.26212	-1.04787	-0.119438
N	4.89808	-0.524435	0.955347
H	5.63459	1.49367	1.37177
H	4.59812	1.94676	-1.14613
H	3.95874	-2.10652	-0.157589
H	5.16462	-1.03377	1.8333
