18
  This energy is -1.3512 and Call times are: 36963
C	-0.0216582	-0.33606	-1.08305
C	0.314579	0.934731	-0.71917
C	0.227282	0.969383	0.706065
C	-0.154594	-0.283292	1.08731
O	-0.311201	-1.09357	0.00752671
H	-0.0915691	-0.819251	-2.07143
H	0.595858	1.76449	-1.38737
H	0.42742	1.83135	1.36262
H	-0.345969	-0.718269	2.08201
C	3.74338	0.301248	0.748696
C	4.51222	-0.842644	0.787863
N	5.40606	-0.865715	-0.230486
C	5.19254	0.259585	-0.898867
N	4.1999	0.997691	-0.348001
H	2.93079	0.657094	1.40185
H	4.438	-1.65172	1.53267
H	5.73455	0.592379	-1.7987
H	3.84556	1.92401	-0.690987
