18
  This energy is -1.4998 and Call times are: 111639
C	-0.938583	0.566263	-0.291221
C	0.0461162	0.273901	-1.18859
C	1.04562	-0.435327	-0.455032
C	0.583472	-0.513755	0.825842
O	-0.627006	0.0927101	0.943963
H	-1.89716	1.09859	-0.405278
H	0.0665789	0.531803	-2.25964
H	1.99512	-0.836647	-0.844255
H	1.01561	-0.968245	1.73245
C	4.12405	0.704761	0.746115
C	4.84566	-0.425824	1.0658
N	5.37839	-0.995138	-0.0426172
C	4.98874	-0.220685	-1.04612
N	4.23019	0.817789	-0.62215
H	3.56128	1.41325	1.3745
H	4.99145	-0.84094	2.07638
H	5.23052	-0.368187	-2.11103
H	3.80409	1.56641	-1.22154
