18
  This energy is -0.9554 and Call times are: 37502
C	0.73755	0.256292	-0.822639
C	1.10704	-0.41209	0.307456
C	-0.0808277	-0.54439	1.08949
C	-1.07135	0.0548236	0.368253
O	-0.589375	0.549325	-0.802295
H	1.31653	0.578941	-1.70351
H	2.11497	-0.775498	0.56457
H	-0.177013	-1.03077	2.0735
H	-2.14517	0.193391	0.575511
C	5.64529	0.407538	1.10316
C	4.68321	0.68817	0.156173
N	4.94319	0.0473858	-1.00929
C	6.06231	-0.628202	-0.786184
N	6.52516	-0.443835	0.47293
H	5.76218	0.742267	2.14615
H	3.80613	1.34152	0.293
H	6.58577	-1.27339	-1.51003
H	7.38958	-0.868527	0.889664
