18
  This energy is -0.8293 and Call times are: 69228
C	-1.0138	-0.246535	0.444791
C	0.00197818	-1.15536	0.393725
C	1.09842	-0.481863	-0.226225
C	0.65587	0.779077	-0.499274
O	-0.631978	0.940292	-0.0961985
H	-2.0419	-0.320354	0.835706
H	-0.0187634	-2.19567	0.756252
H	2.09681	-0.896157	-0.439937
H	1.15336	1.64237	-0.970957
C	6.96864	-0.0689863	0.120925
C	6.01659	-0.525174	1.00785
N	4.76489	-0.280433	0.549745
C	4.93975	0.325282	-0.616941
N	6.25083	0.476083	-0.920149
H	8.06943	-0.0928581	0.155767
H	6.21043	-1.02652	1.9701
H	4.14229	0.679376	-1.28993
H	6.64536	0.92306	-1.78376
