18
  This energy is -0.8215 and Call times are: 119961
C	1.10555	-0.253067	0.0105113
C	0.529571	0.46242	-0.997803
C	-0.853278	0.573514	-0.657942
C	-1.00026	-0.0838925	0.528054
O	0.185911	-0.594957	0.950927
H	2.14565	-0.580119	0.173271
H	1.02845	0.870979	-1.89128
H	-1.63975	1.08533	-1.23552
H	-1.88426	-0.256369	1.1637
C	4.8903	0.00752965	-0.854063
C	5.11389	-0.995328	0.065408
N	6.12654	-0.671045	0.905587
C	6.52963	0.528429	0.508848
N	5.81544	0.980774	-0.548935
H	4.16259	0.0945903	-1.6765
H	4.56267	-1.94706	0.137617
H	7.34343	1.12052	0.957611
H	5.94229	1.8981	-1.04257
