18
  This energy is -0.9627 and Call times are: 109192
C	-0.525724	-0.691145	0.729612
C	0.832586	-0.648627	0.613165
C	1.10845	0.327656	-0.392265
C	-0.105638	0.795547	-0.801465
O	-1.11477	0.18434	-0.126867
H	-1.18563	-1.29296	1.37583
H	1.56664	-1.24494	1.17857
H	2.09891	0.638794	-0.761405
H	-0.381705	1.55213	-1.5542
C	7.21481	-0.865647	-0.698122
C	8.52695	-0.565627	-0.399127
N	8.60664	0.496656	0.438558
C	7.34871	0.854287	0.658405
N	6.47195	0.0635882	-0.00467485
H	6.77187	-1.64853	-1.33408
H	9.41759	-1.09663	-0.772833
H	7.01336	1.68778	1.29642
H	5.42563	0.143231	0.00720798
