18
  This energy is -1.0453 and Call times are: 115765
C	1.05815	-0.0872034	0.398884
C	0.00749575	0.276934	1.18876
C	-1.14028	0.273823	0.338628
C	-0.689691	-0.0919414	-0.895697
O	0.650581	-0.31631	-0.877206
H	2.12978	-0.217827	0.622065
H	0.0377078	0.523041	2.26235
H	-2.17692	0.517038	0.622039
H	-1.21508	-0.226894	-1.85538
C	4.69247	-0.442734	-0.829749
C	5.85292	-1.00738	-0.344286
N	6.41599	-0.224633	0.607962
C	5.60793	0.821623	0.712849
N	4.55405	0.737025	-0.13319
H	3.97916	-0.785528	-1.59605
H	6.29398	-1.96553	-0.664067
H	5.74077	1.67818	1.39321
H	3.77915	1.43681	-0.238466
