18
  This energy is -1.2185 and Call times are: 91482
C	0.771287	-0.484027	0.676192
C	0.277565	0.765949	0.908937
C	-0.654831	1.02014	-0.142795
C	-0.648573	-0.0969367	-0.925395
O	0.216671	-1.02579	-0.440011
H	1.51091	-1.0915	1.22317
H	0.543301	1.44124	1.73807
H	-1.25575	1.93171	-0.291243
H	-1.20628	-0.350722	-1.8418
C	4.15809	-0.30568	-0.453965
C	5.40353	-0.627788	-0.950231
N	6.38724	-0.109941	-0.175207
C	5.75448	0.530988	0.798161
N	4.40894	0.44241	0.674586
H	3.14485	-0.547792	-0.81209
H	5.60993	-1.22456	-1.85362
H	6.2278	1.0818	1.6269
H	3.69317	0.863397	1.31623
