18
  This energy is -0.7783 and Call times are: 117807
C	0.542214	-0.979451	0.181882
C	-0.560895	-0.892383	-0.615579
C	-0.950241	0.481711	-0.595722
C	-0.0506852	1.11303	0.212119
O	0.867876	0.235857	0.695674
H	1.17742	-1.8364	0.460113
H	-1.05124	-1.71342	-1.1629
H	-1.80248	0.937883	-1.12459
H	0.042783	2.168	0.517979
C	5.58078	-0.610776	0.486083
C	4.67298	0.195065	1.14004
N	3.79304	0.746466	0.269313
C	4.15357	0.284456	-0.920302
N	5.22644	-0.538049	-0.842579
H	6.42569	-1.21083	0.859709
H	4.63717	0.388485	2.22455
H	3.66655	0.51653	-1.88112
H	5.69841	-1.02717	-1.64212
