18
  This energy is -0.7571 and Call times are: 12409
C	-1.1063	0.231997	0.0931601
C	-0.265898	0.97874	-0.679158
C	1.02494	0.383146	-0.540906
C	0.859405	-0.674979	0.303691
O	-0.435935	-0.782158	0.700706
H	-2.18735	0.318001	0.291136
H	-0.528624	1.86053	-1.28539
H	1.96205	0.711332	-1.01864
H	1.57444	-1.41769	0.694031
C	6.92576	0.0538081	0.724686
C	6.78478	0.696842	-0.486833
N	5.58876	0.410179	-1.05591
C	4.99002	-0.407583	-0.200689
N	5.75552	-0.653119	0.888953
H	7.74858	0.049384	1.45714
H	7.52464	1.36249	-0.960506
H	3.99087	-0.855868	-0.323019
H	5.50525	-1.26536	1.70369
