18
  This energy is -1.1834 and Call times are: 121764
C	0.751263	-0.560088	-0.638989
C	0.252521	-1.07419	0.521755
C	-0.649388	-0.0899375	1.02961
C	-0.622173	0.938746	0.134376
O	0.227928	0.668584	-0.890979
H	1.47441	-0.964163	-1.36634
H	0.495382	-2.04876	0.974889
H	-1.24485	-0.149646	1.95479
H	-1.15395	1.90417	0.113655
C	3.99984	-0.397643	0.645508
C	4.45518	0.901758	0.572229
N	5.51201	1.00241	-0.270074
C	5.71155	-0.229867	-0.717634
N	4.82548	-1.1104	-0.195016
H	3.17423	-0.850464	1.21723
H	4.04007	1.76844	1.11204
H	6.49238	-0.543008	-1.42931
H	4.77673	-2.13991	-0.392482
