18
  This energy is -0.4933 and Call times are: 35360
C	0.2591	1.03409	0.387193
C	1.06906	0.351886	-0.472421
C	0.41234	-0.891082	-0.725146
C	-0.740954	-0.858709	0.00234073
O	-0.850795	0.309671	0.687786
H	0.358812	2.02883	0.851748
H	2.03234	0.690026	-0.886959
H	0.76521	-1.70827	-1.37459
H	-1.555	-1.59344	0.115254
C	7.23902	-0.80384	0.187042
C	7.39816	0.440815	-0.384492
N	6.21853	1.10513	-0.445064
C	5.33095	0.27575	0.0868701
N	5.89694	-0.888733	0.483383
H	7.96172	-1.60834	0.396855
H	8.34302	0.871386	-0.754229
H	4.2535	0.470877	0.210393
H	5.4068	-1.70142	0.931229
