18
  This energy is -0.7731 and Call times are: 60316
C	0.0189877	1.06607	-0.386701
C	-0.571479	0.0489236	-1.07745
C	-0.390861	-1.122	-0.27969
C	0.294034	-0.717027	0.82814
O	0.552691	0.61629	0.779434
H	0.125353	2.1394	-0.614498
H	-1.08292	0.116417	-2.05109
H	-0.734417	-2.14288	-0.511812
H	0.651711	-1.27292	1.71035
C	6.41695	-0.683757	-0.877976
C	5.69947	-0.275712	0.226501
N	6.45304	0.506323	1.0371
C	7.63352	0.58314	0.437775
N	7.66229	-0.117602	-0.720553
H	6.13874	-1.31587	-1.73621
H	4.65158	-0.531581	0.453004
H	8.5118	1.139	0.803673
H	8.47787	-0.211695	-1.37418
