18
  This energy is -0.9528 and Call times are: 77003
C	-0.0782345	1.1253	-0.118243
C	0.734423	0.543101	0.809661
C	0.560565	-0.86588	0.652616
C	-0.342987	-1.02031	-0.357393
O	-0.743737	0.185378	-0.839815
H	-0.269503	2.18335	-0.361542
H	1.39049	1.05453	1.53223
H	1.05503	-1.66409	1.22921
H	-0.776164	-1.92272	-0.819206
C	5.9163	-0.046514	-1.05658
C	6.49147	0.361566	0.128237
N	5.60644	0.28795	1.15186
C	4.48648	-0.164079	0.604158
N	4.62223	-0.381127	-0.725523
H	6.32273	-0.120028	-2.07783
H	7.52919	0.70779	0.26281
H	3.5375	-0.354152	1.13098
H	3.88261	-0.736585	-1.37964
