18
  This energy is -0.6231 and Call times are: 57483
C	-0.395104	0.511038	0.932273
C	-0.74966	-0.760949	0.59064
C	-0.0581894	-1.04614	-0.626182
C	0.657873	0.0767534	-0.920713
O	0.463964	1.03784	0.0204125
H	-0.681388	1.14513	1.78739
H	-1.42989	-1.43116	1.14036
H	-0.0957003	-1.98143	-1.20748
H	1.3337	0.314038	-1.75869
C	6.74606	0.496634	-0.210242
C	6.45261	-0.433719	0.764166
N	5.14589	-0.790342	0.721555
C	4.63065	-0.0839143	-0.275497
N	5.55537	0.707403	-0.869043
H	7.68657	1.00662	-0.472715
H	7.16034	-0.854028	1.49718
H	3.58204	-0.107776	-0.613263
H	5.39571	1.35761	-1.67713
