18
  This energy is -1.2848 and Call times are: 47021
C	-0.734237	0.224368	0.834839
C	0.276747	-0.680446	0.974829
C	0.973923	-0.683735	-0.271787
C	0.32743	0.21936	-1.06352
O	-0.718284	0.783476	-0.403771
H	-1.5208	0.555561	1.53261
H	0.508317	-1.28492	1.8665
H	1.85351	-1.29127	-0.538836
H	0.510919	0.545978	-2.10029
C	5.25737	0.486602	1.05997
C	6.06969	-0.444399	0.447991
N	5.58752	-0.787335	-0.771198
C	4.48029	-0.0718036	-0.915019
N	4.23798	0.712186	0.162122
H	5.33015	0.987846	2.03824
H	6.99504	-0.874806	0.864318
H	3.80935	-0.0835336	-1.78905
H	3.4279	1.3671	0.289104
