18
  This energy is -1.0471 and Call times are: 122711
C	0.656736	0.017528	-0.92455
C	0.346582	-1.13863	-0.270729
C	-0.48614	-0.756789	0.825122
C	-0.611341	0.598996	0.744222
O	0.0801506	1.08858	-0.318399
H	1.26971	0.208868	-1.8206
H	0.671592	-2.15808	-0.533746
H	-0.935139	-1.42133	1.58069
H	-1.15702	1.32163	1.37294
C	7.05453	-1.037	0.0471382
C	5.74752	-0.813978	-0.331203
N	5.43876	0.50406	-0.268342
C	6.54999	1.09646	0.147415
N	7.55299	0.209982	0.351693
H	7.64548	-1.96392	0.118814
H	5.02179	-1.58049	-0.648404
H	6.68405	2.17666	0.318938
H	8.52514	0.430564	0.679601
