18
  This energy is -0.9533 and Call times are: 51740
C	1.03659	0.447954	-0.105916
C	0.222056	0.73317	0.950284
C	-0.977913	-0.00968985	0.730398
C	-0.790733	-0.683281	-0.440761
O	0.434103	-0.415509	-0.965249
H	2.05365	0.790331	-0.358154
H	0.443966	1.3998	1.79908
H	-1.87137	-0.033541	1.37481
H	-1.44331	-1.37452	-0.99895
C	4.95241	-1.1595	-0.137341
C	5.53438	-0.520954	0.937232
N	5.5385	0.823016	0.763336
C	4.96128	1.01749	-0.414638
N	4.59007	-0.147031	-0.997457
H	4.77633	-2.22714	-0.343948
H	5.95136	-1.00591	1.83489
H	4.78533	1.9921	-0.897753
H	4.11646	-0.257578	-1.92737
