18
  This energy is -1.0976 and Call times are: 36513
C	-0.359823	-0.944821	-0.514045
C	-0.137212	-0.88416	0.830254
C	0.30049	0.449562	1.0943
C	0.306714	1.08618	-0.111956
O	-0.0937741	0.249599	-1.10531
H	-0.7037	-1.76791	-1.16175
H	-0.2681	-1.69706	1.56248
H	0.576445	0.876343	2.07195
H	0.571857	2.11884	-0.392271
C	5.71056	0.352714	-0.776968
C	5.87412	0.216664	0.58534
N	4.73123	-0.211567	1.17434
C	3.86195	-0.34069	0.181211
N	4.40438	-0.012366	-1.01527
H	6.40796	0.672814	-1.56735
H	6.79632	0.419825	1.15379
H	2.81516	-0.67203	0.274386
H	3.92185	-0.0321477	-1.94696
