18
  This energy is -1.4518 and Call times are: 16668
C	-0.445575	-0.787122	0.684326
C	0.618575	-1.0443	-0.129195
C	0.883034	0.175131	-0.824299
C	-0.0428546	1.06984	-0.374183
O	-0.862404	0.499181	0.54761
H	-0.991598	-1.42592	1.3978
H	1.16272	-1.99713	-0.229717
H	1.67299	0.355748	-1.57091
H	-0.22091	2.12775	-0.627878
C	4.17727	-0.781704	0.501691
C	5.03762	0.0820597	1.14578
N	5.72117	0.843656	0.257382
C	5.28652	0.453847	-0.933313
N	4.35476	-0.5242	-0.839345
H	3.47471	-1.53624	0.889791
H	5.17739	0.16937	2.23559
H	5.61698	0.851291	-1.90649
H	3.86152	-0.996382	-1.63623
