18
  This energy is -0.7186 and Call times are: 58747
C	0.194344	-1.1097	0.131113
C	1.02113	-0.157053	0.650012
C	0.451362	1.09916	0.279311
C	-0.673303	0.803264	-0.433394
O	-0.845681	-0.541069	-0.533728
H	0.235714	-2.21079	0.16495
H	1.94005	-0.322364	1.23512
H	0.840686	2.10148	0.519858
H	-1.42471	1.45007	-0.915352
C	5.0902	-0.17582	0.835709
C	5.04592	-0.625203	-0.467072
N	6.14802	-0.239283	-1.15479
C	6.87325	0.446905	-0.281977
N	6.27828	0.513581	0.932583
H	4.3839	-0.293887	1.6728
H	4.2385	-1.22098	-0.92311
H	7.84767	0.921974	-0.479578
H	6.65102	0.998125	1.78555
