18
  This energy is -1.0852 and Call times are: 38385
C	0.0686733	-0.739086	-0.857576
C	-1.05463	-0.607105	-0.0952445
C	-0.757707	0.406444	0.866355
C	0.520826	0.804355	0.606756
O	1.04086	0.115244	-0.442864
H	0.29906	-1.39583	-1.71248
H	-1.99771	-1.16729	-0.199596
H	-1.4248	0.788347	1.6558
H	1.16435	1.55786	1.08983
C	5.03596	-0.030786	1.12751
C	5.48968	0.831708	0.152118
N	4.88729	0.585454	-1.03657
C	4.06299	-0.425963	-0.799519
N	4.11595	-0.833449	0.490729
H	5.29406	-0.126972	2.19412
H	6.24091	1.62726	0.284793
H	3.39787	-0.906728	-1.53485
H	3.56174	-1.61242	0.923548
