18
  This energy is -1.3701 and Call times are: 41890
C	-0.278542	-0.78592	-0.768859
C	0.587329	0.231199	-1.04474
C	0.682023	1.00034	0.155082
C	-0.134341	0.385336	1.05824
O	-0.729013	-0.707298	0.510948
H	-0.650461	-1.61794	-1.38908
H	1.1072	0.420827	-1.99756
H	1.28991	1.90488	0.317484
H	-0.374505	0.623503	2.10745
C	5.68031	0.247433	0.89773
C	5.43041	-0.613025	-0.150272
N	6.48008	-0.658346	-1.00623
C	7.37775	0.170842	-0.491192
N	6.94275	0.741871	0.656978
H	5.06949	0.533366	1.76875
H	4.51153	-1.20195	-0.304114
H	8.3699	0.396795	-0.914053
H	7.46725	1.43012	1.25067
