18
  This energy is -0.9579 and Call times are: 32758
C	0.83364	0.535314	0.552164
C	0.828474	0.39521	-0.804567
C	-0.365326	-0.323227	-1.11891
C	-0.984288	-0.558728	0.073486
O	-0.265995	-0.0413409	1.10469
H	1.5525	1.01778	1.2346
H	1.58903	0.761077	-1.51294
H	-0.714396	-0.625142	-2.11945
H	-1.92648	-1.0759	0.318552
C	4.52025	0.0800862	0.877875
C	4.72011	-1.00011	0.0445824
N	5.70046	-0.747461	-0.856304
C	6.10723	0.484785	-0.582937
N	5.42634	1.02665	0.45454
H	3.82069	0.236954	1.71427
H	4.1745	-1.95724	0.0772675
H	6.9002	1.03829	-1.11121
H	5.56268	1.9852	0.859317
