18
  This energy is -1.5741 and Call times are: 7365
C	-0.217035	-0.880298	0.681448
C	0.990529	-0.24625	0.669404
C	0.87673	0.793095	-0.3037
C	-0.390329	0.702425	-0.800401
O	-1.0724	-0.314064	-0.210031
H	-0.588063	-1.73522	1.27027
H	1.8729	-0.486359	1.28411
H	1.65333	1.51905	-0.593491
H	-0.919697	1.29365	-1.56556
C	4.52984	1.12851	-0.326548
C	4.39538	0.0222367	-1.13847
N	4.53442	-1.12416	-0.429281
C	4.7543	-0.730577	0.817864
N	4.76092	0.618724	0.931588
H	4.47913	2.20651	-0.547654
H	4.20054	0.0307184	-2.22328
H	4.91698	-1.38866	1.6866
H	4.9131	1.17126	1.81068
