18
  This energy is -0.8622 and Call times are: 86229
C	-0.950942	-0.469874	-0.401658
C	-0.621938	-0.503741	0.921589
C	0.626104	0.18208	1.03186
C	0.949587	0.574501	-0.233741
O	-0.00239283	0.184736	-1.1219
H	-1.82021	-0.869448	-0.949348
H	-1.20011	-0.965365	1.73812
H	1.20798	0.357922	1.95088
H	1.81685	1.12918	-0.628005
C	5.15786	0.263671	-0.874531
C	4.84146	0.0957406	0.456945
N	5.94344	-0.202301	1.18723
C	6.9397	-0.219203	0.312126
N	6.51729	0.0557291	-0.944683
H	4.5327	0.508274	-1.74796
H	3.83777	0.184294	0.90374
H	7.99798	-0.427213	0.537975
H	7.11203	0.101724	-1.80806
