18
  This energy is -0.8659 and Call times are: 84921
C	1.03606	-0.333496	0.318994
C	0.285627	-1.03728	-0.576498
C	-0.936148	-0.311239	-0.718781
C	-0.824466	0.772131	0.102323
O	0.373607	0.774483	0.743904
H	2.04289	-0.513476	0.730273
H	0.564463	-1.97376	-1.08577
H	-1.79294	-0.572862	-1.3603
H	-1.51761	1.60237	0.315629
C	6.14459	-0.865333	0.286153
C	6.12851	0.41523	0.797078
N	5.1341	1.15014	0.242492
C	4.53554	0.328616	-0.609245
N	5.10789	-0.898535	-0.619581
H	6.79857	-1.72662	0.495998
H	6.81662	0.822035	1.55593
H	3.67362	0.574206	-1.25034
H	4.81729	-1.71896	-1.20585
