18
  This energy is -0.7018 and Call times are: 28296
C	1.12626	0.00380328	0.133857
C	0.443116	1.08597	-0.337959
C	-0.931712	0.699579	-0.363854
C	-0.967337	-0.584589	0.0944226
O	0.28061	-1.02547	0.403065
H	2.20053	-0.157883	0.32108
H	0.865015	2.05872	-0.637689
H	-1.78771	1.31319	-0.687654
H	-1.806	-1.28389	0.245615
C	5.44093	0.862417	0.784873
C	4.99226	-0.437759	0.881763
N	5.35546	-1.16221	-0.20441
C	6.02688	-0.31469	-0.972211
N	6.10595	0.918983	-0.419591
H	5.33748	1.72272	1.46511
H	4.413	-0.866072	1.71594
H	6.48192	-0.545115	-1.94898
H	6.58297	1.7586	-0.830389
