18
  This energy is -0.969 and Call times are: 25342
C	0.0987386	-0.581433	0.968807
C	-0.665173	-1.02089	-0.0721965
C	-0.537881	-0.0322992	-1.09523
C	0.29258	0.924005	-0.589077
O	0.690938	0.604869	0.670476
H	0.300239	-1.01527	1.962
H	-1.25876	-1.94819	-0.115347
H	-1.01315	-0.0407099	-2.08928
H	0.671194	1.8657	-1.01933
C	4.54811	-0.811649	-0.649414
C	4.20209	-0.389606	0.616796
N	5.0585	0.559485	1.06657
C	5.93249	0.725601	0.0831294
N	5.66768	-0.078454	-0.973734
H	4.0921	-1.55699	-1.32027
H	3.34983	-0.752922	1.21388
H	6.78583	1.42277	0.0845807
H	6.21159	-0.132947	-1.86953
