18
  This energy is -1.7771 and Call times are: 119833
C	-0.0472363	0.794642	0.807907
C	0.303756	-0.496462	1.07291
C	0.24795	-1.18167	-0.179082
C	-0.132218	-0.248795	-1.09864
O	-0.316855	0.963783	-0.513346
H	-0.141429	1.67594	1.46342
H	0.574773	-0.923486	2.05184
H	0.467095	-2.24559	-0.363878
H	-0.304058	-0.320895	-2.18516
C	3.9033	0.846849	0.761515
C	3.35085	0.621003	-0.481443
N	3.93345	-0.440773	-1.08949
C	4.84386	-0.871983	-0.22703
N	4.86467	-0.128586	0.90457
H	3.68753	1.60731	1.52877
H	2.54233	1.20516	-0.950381
H	5.52218	-1.72792	-0.373631
H	5.49338	-0.268597	1.73305
