18
  This energy is -0.9083 and Call times are: 8107
C	-0.824326	-0.426845	-0.651684
C	-0.622258	0.915118	-0.515016
C	0.488872	1.05492	0.37153
C	0.867712	-0.213952	0.698355
O	0.0766069	-1.13143	0.0824064
H	-1.56518	-0.999083	-1.23386
H	-1.19791	1.72529	-0.990774
H	0.94601	1.99504	0.719809
H	1.67289	-0.591669	1.34972
C	5.60372	1.1046	-0.0443797
C	4.61437	0.617798	0.783482
N	4.40217	-0.703047	0.567028
C	5.25664	-1.03441	-0.39147
N	6.0037	0.0208538	-0.793851
H	6.037	2.11193	-0.149703
H	4.04987	1.19598	1.53308
H	5.37688	-2.03568	-0.835571
H	6.74616	0.0146417	-1.53546
