18
  This energy is -1.5753 and Call times are: 49103
C	-1.08111	-0.287542	-0.186893
C	-0.150174	-1.18654	0.243859
C	1.07267	-0.457685	0.360274
C	0.781046	0.822359	-0.00961404
O	-0.529806	0.944309	-0.346965
H	-2.15425	-0.398182	-0.41354
H	-0.308689	-2.25568	0.458126
H	2.05077	-0.849362	0.682749
H	1.40936	1.72584	-0.0742808
C	4.77553	-0.593611	-0.870431
C	5.98075	-0.894941	-0.272282
N	6.2831	0.00258864	0.697016
C	5.2693	0.85747	0.700181
N	4.33444	0.541079	-0.226923
H	4.21909	-1.08979	-1.68143
H	6.63757	-1.74388	-0.522758
H	5.16104	1.73286	1.36064
H	3.44337	1.06108	-0.418939
