18
  This energy is -0.9275 and Call times are: 87130
C	-0.249383	0.428325	-1.02017
C	0.347979	-0.787978	-0.864805
C	0.495371	-0.974137	0.543647
C	-0.0249339	0.14484	1.12463
O	-0.484353	1.01202	0.184448
H	-0.555256	0.982683	-1.9226
H	0.654119	-1.48424	-1.66205
H	0.938511	-1.84343	1.05555
H	-0.125726	0.440176	2.18193
C	4.78374	-0.126092	-1.12658
C	4.16929	-0.686683	-0.0268776
N	4.79882	-0.330452	1.11911
C	5.80001	0.448173	0.731831
N	5.8336	0.602123	-0.613071
H	4.5558	-0.191647	-2.20235
H	3.283	-1.3418	-0.0398186
H	6.53838	0.931669	1.39158
H	6.52723	1.16834	-1.16036
