18
  This energy is -1.2944 and Call times are: 130681
C	0.860032	0.658031	-0.337256
C	0.421813	-0.404562	-1.07158
C	-0.657399	-0.974276	-0.329395
C	-0.783403	-0.209535	0.792954
O	0.135301	0.791894	0.80461
H	1.66764	1.38682	-0.515821
H	0.818721	-0.752306	-2.03887
H	-1.26361	-1.85157	-0.606818
H	-1.47741	-0.273447	1.64707
C	5.22063	-0.585467	-1.00506
C	6.41925	-0.427215	-0.342189
N	6.26043	0.306136	0.786298
C	4.96819	0.601711	0.823368
N	4.29822	0.0868242	-0.234754
H	4.96722	-1.11138	-1.93927
H	7.3958	-0.829052	-0.657979
H	4.45994	1.19219	1.60263
H	3.27169	0.18168	-0.43096
