18
  This energy is -0.882 and Call times are: 22214
C	1.04708	-0.295322	0.320654
C	0.21744	-1.15131	-0.342194
C	-0.992251	-0.426438	-0.568751
C	-0.795052	0.808517	-0.0243498
O	0.444989	0.906131	0.523174
H	2.07547	-0.41922	0.697899
H	0.435448	-2.18907	-0.641568
H	-1.89864	-0.790435	-1.07871
H	-1.44983	1.69321	0.037664
C	6.23529	0.215691	1.07196
C	6.94344	-0.169909	-0.0465149
N	6.12284	-0.330948	-1.11291
C	4.91023	-0.0463329	-0.657731
N	4.92526	0.289121	0.654075
H	6.56004	0.435701	2.10136
H	8.03176	-0.334804	-0.103127
H	3.97639	-0.0677556	-1.2423
H	4.09682	0.554569	1.241
