18
  This energy is -1.0795 and Call times are: 45464
C	-0.1145	-1.12321	0.108109
C	0.0343759	-0.517573	-1.10491
C	0.146187	0.880162	-0.832966
C	0.0557676	1.00527	0.522226
O	-0.103701	-0.208242	1.11296
H	-0.23582	-2.18304	0.386141
H	0.0626222	-1.00609	-2.09215
H	0.27836	1.69083	-1.56744
H	0.0900207	1.89026	1.17864
C	4.46812	0.913959	-0.516602
C	3.88392	-0.274431	-0.132437
N	4.79288	-1.10536	0.433119
C	5.93663	-0.435012	0.399936
N	5.79307	0.788	-0.16329
H	4.04876	1.81047	-1.00027
H	2.82285	-0.547168	-0.253212
H	6.90925	-0.792749	0.774443
H	6.54737	1.50389	-0.304017
