18
  This energy is -1.2059 and Call times are: 127789
C	-0.76938	0.442787	0.705971
C	0.498993	0.139146	1.10523
C	1.15597	-0.389021	-0.0478269
C	0.231069	-0.36151	-1.04991
O	-0.950477	0.143508	-0.607287
H	-1.62545	0.870478	1.25321
H	0.928843	0.273608	2.11084
H	2.19647	-0.745486	-0.113978
H	0.289115	-0.668711	-2.10704
C	5.00173	-1.17127	0.053541
C	5.08881	-0.383822	-1.07495
N	4.92318	0.9263	-0.770553
C	4.73406	0.951519	0.541782
N	4.7725	-0.288249	1.085
H	5.08393	-2.26117	0.191014
H	5.26819	-0.737536	-2.10332
H	4.5628	1.85069	1.15529
H	4.65086	-0.53063	2.09876
