18
  This energy is -1.7669 and Call times are: 76639
C	0.764477	-0.774124	0.32048
C	-0.132835	-0.22951	1.19146
C	-0.913396	0.689041	0.425227
C	-0.424168	0.624652	-0.84634
O	0.600871	-0.263918	-0.928493
H	1.55976	-1.52395	0.463763
H	-0.234836	-0.452267	2.26573
H	-1.74092	1.32007	0.7873
H	-0.714958	1.15289	-1.76919
C	4.05375	0.822593	-0.640345
C	5.23804	0.18649	-0.946895
N	5.57661	-0.70592	0.0151254
C	4.60605	-0.623756	0.915065
N	3.66398	0.28394	0.565525
H	3.47989	1.5947	-1.17707
H	5.85426	0.35548	-1.84498
H	4.53584	-1.20547	1.84829
H	2.80106	0.530408	1.10948
