18
  This energy is -1.0812 and Call times are: 43718
C	-0.497233	-1.00153	0.189995
C	-0.927893	-0.144507	-0.779757
C	-0.0631581	0.990221	-0.710888
C	0.819593	0.726444	0.294869
O	0.56918	-0.48571	0.856106
H	-0.859887	-1.99486	0.501478
H	-1.77003	-0.296179	-1.47395
H	-0.101528	1.89327	-1.34106
H	1.66013	1.31197	0.702176
C	4.74632	0.193408	1.10571
C	5.68477	-0.725367	0.685833
N	5.84675	-0.678702	-0.658822
C	5.01196	0.265431	-1.07156
N	4.32554	0.821423	-0.0452614
H	4.36099	0.436661	2.10865
H	6.24789	-1.42109	1.32905
H	4.86364	0.589566	-2.11424
H	3.60928	1.58535	-0.113349
