18
  This energy is -0.8728 and Call times are: 44760
C	0.991745	-0.336338	0.435568
C	-0.202948	-0.639565	1.01964
C	-1.20478	-0.0504451	0.189341
C	-0.533853	0.560778	-0.828812
O	0.808485	0.396286	-0.69434
H	2.02812	-0.579827	0.721719
H	-0.3627	-1.21988	1.94257
H	-2.29573	-0.0831742	0.340526
H	-0.891423	1.13699	-1.69793
C	5.5413	-1.0448	0.0218069
C	4.71129	-0.563368	-0.968373
N	4.26124	0.678979	-0.667487
C	4.80995	0.967168	0.504896
N	5.59049	-0.0403155	0.962432
H	6.08239	-1.99929	0.120366
H	4.42913	-1.09018	-1.89449
H	4.67368	1.90166	1.07268
H	6.13027	-0.0537018	1.86227
