18
  This energy is -1.6298 and Call times are: 39695
C	-0.257718	0.936439	0.585716
C	0.260983	-0.176701	1.17922
C	0.448017	-1.12792	0.130256
C	0.0271005	-0.512085	-1.01165
O	-0.407193	0.749269	-0.752056
H	-0.558778	1.91275	0.999765
H	0.489015	-0.314172	2.24842
H	0.849897	-2.14954	0.224459
H	-0.0137201	-0.859303	-2.05713
C	4.1344	0.776008	0.88415
C	3.6822	-0.52525	0.942355
N	3.78679	-1.13332	-0.26422
C	4.30193	-0.212791	-1.06789
N	4.52942	0.955774	-0.422687
H	4.20083	1.56065	1.65452
H	3.28234	-1.03624	1.83334
H	4.53262	-0.341423	-2.13769
H	4.93034	1.83182	-0.838694
