18
  This energy is -0.7831 and Call times are: 90404
C	-0.453363	0.27009	-1.00395
C	0.0104439	-0.981893	-0.725028
C	0.497399	-0.928549	0.616668
C	0.288176	0.351321	1.0392
O	-0.291664	1.0972	0.0622338
H	-0.914579	0.693587	-1.91124
H	0.00973123	-1.85535	-1.39671
H	0.949308	-1.75243	1.19208
H	0.50451	0.849042	1.99874
C	6.45474	0.0200882	0.226404
C	5.79547	0.703652	-0.773218
N	4.4648	0.448751	-0.7439
C	4.29919	-0.389758	0.270054
N	5.46933	-0.678939	0.887097
H	7.51987	-0.0171461	0.505068
H	6.25612	1.3762	-1.51507
H	3.34257	-0.822858	0.604009
H	5.60085	-1.31455	1.7117
