18
  This energy is -0.9206 and Call times are: 124605
C	-0.424758	-0.667271	-0.812854
C	-1.04631	-0.493911	0.388808
C	-0.218325	0.402074	1.13162
C	0.836107	0.697142	0.318304
O	0.726306	0.052744	-0.87321
H	-0.695885	-1.26847	-1.6962
H	-1.9929	-0.951113	0.719004
H	-0.395306	0.777682	2.15225
H	1.71704	1.34262	0.468501
C	6.5097	0.90279	-0.730651
C	7.34482	-0.17325	-0.944814
N	7.32187	-1.02665	0.107657
C	6.47574	-0.482105	0.971459
N	5.95937	0.682393	0.512226
H	6.27589	1.7805	-1.35395
H	7.96349	-0.34912	-1.83989
H	6.19809	-0.894088	1.95503
H	5.27094	1.29974	1.00842
