18
  This energy is -1.9184 and Call times are: 11332
C	-0.610055	-0.941803	0.165047
C	-0.378361	-0.0379097	1.15987
C	0.41503	0.994659	0.572969
C	0.598128	0.630601	-0.728688
O	-0.0210593	-0.54948	-0.995202
H	-1.17086	-1.89084	0.155566
H	-0.730798	-0.0927793	2.2024
H	0.800045	1.89955	1.06998
H	1.14125	1.11829	-1.55478
C	4.58312	-1.15884	0.187802
C	5.53349	-0.343922	-0.389988
N	5.10499	0.940351	-0.449495
C	3.8934	0.922228	0.0893299
N	3.53324	-0.320339	0.489206
H	4.57973	-2.24005	0.398783
H	6.52069	-0.659628	-0.764987
H	3.22665	1.79039	0.215711
H	2.6269	-0.593029	0.942482
