18
  This energy is -2.0397 and Call times are: 120516
C	0.582451	-0.934331	0.272355
C	-0.160295	-0.843086	-0.867986
C	-0.734201	0.464826	-0.85719
C	-0.291497	1.05737	0.288795
O	0.513727	0.217242	0.990802
H	1.19738	-1.75305	0.680785
H	-0.290934	-1.61897	-1.63937
H	-1.39828	0.904639	-1.61854
H	-0.4751	2.05848	0.712247
C	3.4204	1.00222	0.211442
C	3.97464	0.153781	1.14638
N	4.56807	-0.90902	0.550726
C	4.38269	-0.720626	-0.748799
N	3.6959	0.417988	-1.00468
H	2.86787	1.94883	0.321779
H	3.95696	0.289464	2.24006
H	4.72903	-1.38537	-1.55651
H	3.42492	0.785674	-1.94947
