18
  This energy is -1.3969 and Call times are: 81871
C	-0.935613	-0.580775	0.271532
C	-0.32151	-0.709831	-0.939499
C	0.804189	0.168554	-0.90264
C	0.778611	0.756837	0.327662
O	-0.277211	0.310866	1.05798
H	-1.83514	-1.06137	0.69003
H	-0.630257	-1.35851	-1.77496
H	1.54177	0.336331	-1.70384
H	1.44539	1.49843	0.797446
C	3.96752	-0.900021	-0.196279
C	4.46202	-0.0163318	-1.13207
N	5.28065	0.897486	-0.556491
C	5.29395	0.581906	0.731475
N	4.51772	-0.494826	0.999247
H	3.28576	-1.75987	-0.293255
H	4.24278	-0.0217554	-2.21223
H	5.85504	1.1059	1.52194
H	4.36426	-0.936775	1.9386
