18
  This energy is -1.1594 and Call times are: 94552
C	0.423678	0.127052	1.04439
C	0.860223	0.865826	-0.0158029
C	0.0989106	0.423551	-1.14049
C	-0.735656	-0.546448	-0.668285
O	-0.55085	-0.740514	0.66408
H	0.722076	0.123873	2.10562
H	1.64011	1.64415	-0.00676481
H	0.171167	0.79078	-2.17683
H	-1.49655	-1.16501	-1.17195
C	5.63561	-0.207699	0.771221
C	6.20577	1.01253	0.476115
N	7.17629	0.88454	-0.461019
C	7.20809	-0.410174	-0.746201
N	6.29804	-1.11127	-0.0293655
H	4.83215	-0.487666	1.47094
H	5.93425	1.98298	0.922602
H	7.87824	-0.898213	-1.47211
H	6.12923	-2.14602	-0.0747947
