18
  This energy is -0.7264 and Call times are: 49299
C	0.532712	0.560532	-0.829713
C	0.753463	-0.762724	-0.583467
C	-0.0882665	-1.10085	0.519838
C	-0.749081	0.0456341	0.850409
O	-0.382036	1.07029	0.0365431
H	0.957925	1.24507	-1.58194
H	1.44015	-1.43343	-1.12449
H	-0.183958	-2.08584	1.00433
H	-1.49505	0.25971	1.63332
C	6.00723	-1.04095	-0.368356
C	4.68695	-0.65386	-0.278011
N	4.58039	0.614769	0.186463
C	5.82981	1.01319	0.383517
N	6.72692	0.0506534	0.0636743
H	6.47014	-1.98448	-0.698501
H	3.80936	-1.26724	-0.539651
H	6.14423	1.99971	0.760553
H	7.77166	0.122278	0.131818
