18
  This energy is -1.217 and Call times are: 83408
C	-0.272342	0.414359	-1.02007
C	0.516699	1.09678	-0.141379
C	0.629545	0.26228	1.01231
C	-0.100498	-0.856421	0.736779
O	-0.658311	-0.780534	-0.500192
H	-0.627209	0.667251	-2.03267
H	0.973446	2.08834	-0.290661
H	1.19118	0.478181	1.93537
H	-0.298352	-1.76465	1.32942
C	5.24105	-0.936476	-0.464075
C	4.17076	-0.945648	0.405137
N	3.80116	0.314836	0.73843
C	4.63897	1.10298	0.0784922
N	5.52633	0.396218	-0.660881
H	5.80121	-1.75664	-0.940616
H	3.65862	-1.83919	0.797749
H	4.64697	2.20465	0.100878
H	6.28675	0.788682	-1.26832
