18
  This energy is -1.1341 and Call times are: 84889
C	0.157417	-0.464648	1.02261
C	-1.0359	-0.532174	0.36549
C	-0.841613	0.158001	-0.869834
C	0.453284	0.586356	-0.858558
O	1.07829	0.214895	0.289654
H	0.474919	-0.85459	2.00362
H	-1.96024	-1.01915	0.715561
H	-1.58536	0.31254	-1.66799
H	1.04112	1.15672	-1.59638
C	5.03714	-0.777706	-0.868183
C	6.16032	-0.640161	-0.0803487
N	6.00448	0.358218	0.822682
C	4.78924	0.838214	0.595926
N	4.1654	0.186627	-0.413949
H	4.80426	-1.47047	-1.69243
H	7.08034	-1.24342	-0.14734
H	4.30687	1.66612	1.14009
H	3.20134	0.379323	-0.780979
