18
  This energy is -1.0449 and Call times are: 112922
C	-1.0054	0.490561	0.18689
C	-0.101534	0.273944	1.18513
C	1.02225	-0.353374	0.5657
C	0.705914	-0.464725	-0.756384
O	-0.528786	0.045618	-1.00554
H	-2.0092	0.946137	0.195702
H	-0.214803	0.530203	2.25077
H	1.95353	-0.680203	1.05559
H	1.26575	-0.882	-1.60945
C	5.73046	-0.24046	-1.06863
C	4.61157	0.510665	-0.777024
N	4.40666	0.58308	0.560616
C	5.39468	-0.120446	1.0968
N	6.21974	-0.637489	0.155773
H	6.19757	-0.511508	-2.02878
H	3.94848	1.00164	-1.50785
H	5.56125	-0.28905	2.17294
H	7.07012	-1.22826	0.326381
