18
  This energy is -1.1171 and Call times are: 16572
C	-0.418069	-0.803884	-0.682194
C	0.652159	-1.02298	0.134497
C	0.875029	0.207086	0.825426
C	-0.0786805	1.06927	0.369959
O	-0.877094	0.468584	-0.551303
H	-0.941325	-1.46293	-1.39431
H	1.227	-1.95709	0.239813
H	1.65702	0.416313	1.57296
H	-0.291836	2.12174	0.619201
C	5.45879	0.245793	-1.13994
C	4.29549	-0.189974	-0.541623
N	4.47017	-0.374703	0.789494
C	5.73702	-0.0547531	1.0161
N	6.37564	0.325892	-0.115649
H	5.69132	0.496215	-2.1872
H	3.33327	-0.374395	-1.04657
H	6.24819	-0.0813512	1.99193
H	7.37818	0.625038	-0.197294
