18
  This energy is -2.5385 and Call times are: 16860
C	-0.219667	0.609693	0.930818
C	0.0356363	1.18805	-0.277776
C	0.260817	0.110031	-1.18733
C	0.12324	-1.03192	-0.454261
O	-0.170259	-0.745513	0.84144
H	-0.447801	1.0467	1.91683
H	0.0626777	2.26569	-0.505904
H	0.497163	0.185669	-2.26088
H	0.208423	-2.09487	-0.7338
C	3.61554	1.16749	-0.0933475
C	3.9351	0.225365	-1.04804
N	3.67341	-1.0281	-0.604363
C	3.19332	-0.86422	0.620907
N	3.13871	0.441561	0.975226
H	3.69118	2.26648	-0.0985791
H	4.3498	0.427619	-2.04902
H	2.8666	-1.66628	1.30221
H	2.79804	0.827452	1.88971
