18
  This energy is -1.1519 and Call times are: 93020
C	-0.591982	-0.899348	0.356555
C	0.281013	-0.967426	-0.689207
C	0.822739	0.346396	-0.832465
C	0.232963	1.10135	0.1384
O	-0.633907	0.35667	0.873926
H	-1.23498	-1.66364	0.823096
H	0.519564	-1.8539	-1.2986
H	1.56482	0.681111	-1.57501
H	0.343727	2.16511	0.405612
C	5.84408	0.0303128	-0.819577
C	5.8278	0.714775	0.377248
N	4.69987	0.445846	1.07864
C	4.01899	-0.402228	0.319826
N	4.66695	-0.684049	-0.835301
H	6.58529	0.00196967	-1.63403
H	6.60972	1.39784	0.747221
H	3.04073	-0.847836	0.562032
H	4.33573	-1.32468	-1.59763
