18
  This energy is -1.3227 and Call times are: 82883
C	0.1107	-1.02554	0.471606
C	-1.00688	-0.26164	0.638449
C	-0.772251	0.940305	-0.0966647
C	0.468001	0.804791	-0.647832
O	1.02179	-0.389771	-0.311158
H	0.376415	-2.02536	0.852401
H	-1.90627	-0.518759	1.22077
H	-1.45354	1.80039	-0.19763
H	1.06019	1.47736	-1.28988
C	3.98796	0.0958049	-1.05533
C	4.64641	-1.00614	-0.552028
N	5.11438	-0.767343	0.697168
C	4.74764	0.478003	0.9678
N	4.06573	1.04148	-0.0574192
H	3.48629	0.268197	-2.02081
H	4.79219	-1.9692	-1.06788
H	4.95246	1.02614	1.90152
H	3.6714	2.01355	-0.0865607
