18
  This energy is -1.0737 and Call times are: 12029
C	0.390545	0.440279	0.969552
C	-0.106512	-0.82745	0.890993
C	-0.491668	-1.01265	-0.471898
C	-0.195974	0.158253	-1.10587
O	0.343547	1.05681	-0.240695
H	0.80272	1.01277	1.81667
H	-0.19324	-1.5588	1.71057
H	-0.936397	-1.91614	-0.919123
H	-0.319706	0.473059	-2.15508
C	5.48025	0.874584	-0.10682
C	5.38505	-0.250648	-0.89798
N	4.36914	-1.04977	-0.490745
C	3.83612	-0.422679	0.549098
N	4.47078	0.742318	0.820362
H	6.17184	1.73151	-0.136982
H	6.03119	-0.500199	-1.75534
H	2.97987	-0.77217	1.14819
H	4.23818	1.41638	1.59029
