18
  This energy is -1.3197 and Call times are: 116588
C	0.190548	1.10138	-0.192468
C	0.575816	0.12947	-1.06844
C	0.166911	-1.10803	-0.484048
C	-0.432135	-0.783088	0.697447
O	-0.426563	0.562005	0.891624
H	0.295952	2.19824	-0.224724
H	1.09579	0.269891	-2.02969
H	0.306814	-2.11785	-0.902111
H	-0.895683	-1.40809	1.47831
C	3.94582	0.93441	-0.289869
C	4.07268	-0.239766	-1.00146
N	4.90875	-1.1029	-0.374973
C	5.2991	-0.466607	0.721106
N	4.74604	0.765599	0.817987
H	3.3622	1.84771	-0.486874
H	3.5759	-0.479591	-1.95569
H	5.98882	-0.8568	1.48679
H	4.89789	1.46005	1.58996
