18
  This energy is -1.1916 and Call times are: 36749
C	0.642426	-0.427149	-0.831405
C	0.494817	0.915016	-0.638584
C	-0.374599	1.05518	0.485954
C	-0.681529	-0.2137	0.881051
O	-0.0690436	-1.13152	0.0876588
H	1.21829	-0.99968	-1.57695
H	0.95228	1.72509	-1.22901
H	-0.725254	1.99554	0.940775
H	-1.31537	-0.591202	1.70019
C	4.89466	0.70072	0.94081
C	4.28813	1.00453	-0.259591
N	4.36327	-0.0376438	-1.12257
C	5.01394	-0.98439	-0.460062
N	5.35592	-0.587801	0.788682
H	5.0263	1.29059	1.86182
H	3.79765	1.95704	-0.518443
H	5.26657	-1.98664	-0.842032
H	5.87377	-1.154	1.50458
