18
  This energy is -0.6304 and Call times are: 63030
C	-0.705174	0.296135	-0.837517
C	0.536713	0.843246	-0.700545
C	1.11093	0.225937	0.452419
C	0.169245	-0.643909	0.918225
O	-0.946272	-0.614053	0.142504
H	-1.5019	0.467817	-1.57981
H	1.00177	1.6051	-1.3466
H	2.10972	0.414006	0.87803
H	0.171478	-1.33115	1.78017
C	6.43868	-0.862037	-0.670482
C	6.828	0.460663	-0.663849
N	6.10916	1.17709	0.23421
C	5.27706	0.302178	0.782621
N	5.43666	-0.941238	0.270727
H	6.79199	-1.72381	-1.25875
H	7.61469	0.91087	-1.29097
H	4.5303	0.518661	1.56346
H	4.89945	-1.80168	0.539602
