18
  This energy is -0.8216 and Call times are: 17662
C	0.680818	-0.0225267	0.906852
C	1.0432	-0.562371	-0.292156
C	-0.0607987	-0.340033	-1.17071
C	-1.00037	0.316052	-0.431023
O	-0.564214	0.518268	0.840154
H	1.21201	0.0403624	1.87076
H	1.99269	-1.06657	-0.533694
H	-0.137469	-0.637574	-2.22886
H	-2.00528	0.688303	-0.689538
C	6.17784	0.751247	0.601044
C	5.17097	1.072	-0.284664
N	4.59655	-0.043666	-0.796367
C	5.2446	-1.05271	-0.230258
N	6.20754	-0.625317	0.62043
H	6.85281	1.38405	1.19897
H	4.84871	2.08845	-0.563642
H	5.05448	-2.12426	-0.403085
H	6.85366	-1.22779	1.18684
