18
  This energy is -1.3357 and Call times are: 13881
C	0.197129	-0.167108	1.10436
C	-0.139139	1.05435	0.599057
C	-0.303495	0.864055	-0.806963
C	-0.0531532	-0.456894	-1.03674
O	0.254213	-1.10178	0.119404
H	0.418191	-0.497246	2.13266
H	-0.259385	1.995	1.16014
H	-0.576508	1.62782	-1.55276
H	-0.0607759	-1.05181	-1.96478
C	3.79963	-0.616926	-0.061247
C	3.97843	0.705992	-0.406302
N	5.26203	1.09324	-0.209009
C	5.8772	0.0146553	0.256671
N	5.03822	-1.0428	0.363853
H	2.90837	-1.26385	-0.087251
H	3.20425	1.38799	-0.79408
H	6.94102	-0.0559006	0.535116
H	5.28436	-2.00397	0.705659
