18
  This energy is -1.0336 and Call times are: 14748
C	-0.720489	0.186459	-0.85588
C	0.380829	0.963212	-0.645817
C	1.02649	0.422366	0.507754
C	0.262729	-0.637147	0.900787
O	-0.808251	-0.795765	0.0792919
H	-1.50898	0.228662	-1.62513
H	0.705929	1.83008	-1.24327
H	1.95173	0.786522	0.982541
H	0.372609	-1.34748	1.73661
C	4.75429	-0.300492	-1.04697
C	4.5354	0.87544	-0.361101
N	5.20685	0.886813	0.815989
C	5.83988	-0.277636	0.860187
N	5.59904	-1.02944	-0.239986
H	4.38115	-0.658246	-2.01976
H	3.90502	1.71586	-0.694499
H	6.49275	-0.630513	1.67472
H	5.98273	-1.98547	-0.440112
