18
  This energy is -1.107 and Call times are: 71704
C	1.07551	0.111049	-0.342544
C	0.421784	1.09323	0.341795
C	-0.890615	0.588228	0.592183
C	-0.923018	-0.65798	0.0387487
O	0.269259	-0.965698	-0.536401
H	2.10159	0.0569807	-0.741922
H	0.823449	2.07489	0.640325
H	-1.70882	1.10048	1.12345
H	-1.72302	-1.41472	-0.0122391
C	5.30301	-0.971145	-0.591738
C	4.50191	-0.900731	0.528271
N	4.36217	0.379767	0.949353
C	5.07388	1.101	0.0938251
N	5.66066	0.332473	-0.854146
H	5.6329	-1.82809	-1.20031
H	4.02225	-1.75093	1.04006
H	5.19921	2.19555	0.115368
H	6.27164	0.666111	-1.63941
