18
  This energy is -1.0572 and Call times are: 71608
C	-0.835802	-0.0610315	-0.764271
C	-0.502733	-1.11158	0.0393437
C	0.578743	-0.654242	0.852592
C	0.811079	0.6354	0.474151
O	-0.0436537	1.01414	-0.512256
H	-1.60651	0.0465405	-1.5451
H	-0.97158	-2.10854	0.0576104
H	1.11512	-1.22612	1.62677
H	1.54514	1.37931	0.824881
C	5.36974	-0.220098	-1.05641
C	4.60509	0.871126	-0.701889
N	4.22932	0.802797	0.598358
C	4.75885	-0.326521	1.04877
N	5.45596	-0.979574	0.0889994
H	5.84286	-0.500583	-2.01088
H	4.3178	1.70651	-1.36101
H	4.66718	-0.722745	2.07289
H	5.96511	-1.89083	0.196856
