18
  This energy is -1.4558 and Call times are: 136147
C	-0.211224	0.896547	0.661807
C	-0.922282	-0.263676	0.754823
C	-0.369043	-1.14111	-0.227093
C	0.631254	-0.439612	-0.833463
O	0.741634	0.806794	-0.303086
H	-0.284774	1.84567	1.21769
H	-1.75304	-0.479936	1.4456
H	-0.685569	-2.17293	-0.449004
H	1.32748	-0.711346	-1.64382
C	4.35882	0.894948	0.74762
C	4.56222	0.909823	-0.616033
N	4.28115	-0.296802	-1.16518
C	3.90481	-1.05734	-0.146078
N	3.93478	-0.384642	1.02873
H	4.48172	1.67826	1.51238
H	4.90675	1.76958	-1.2135
H	3.59702	-2.11382	-0.204095
H	3.68296	-0.76531	1.97368
