18
  This energy is -1.5494 and Call times are: 97071
C	-0.113183	-0.358112	1.07021
C	-0.732083	-0.976411	0.023765
C	-0.351896	-0.245154	-1.14278
C	0.465769	0.755452	-0.706224
O	0.622551	0.701568	0.642675
H	-0.116331	-0.572329	2.15157
H	-1.39031	-1.85891	0.0688167
H	-0.656739	-0.447956	-2.18203
H	0.991614	1.55871	-1.248
C	4.73164	0.665778	-0.912058
C	5.2322	-0.57129	-0.565293
N	4.62	-1.05275	0.543721
C	3.74298	-0.117929	0.883664
N	3.77178	0.938376	0.036918
H	4.98218	1.34864	-1.73938
H	6.02412	-1.12505	-1.09545
H	3.05485	-0.155997	1.74347
H	3.17636	1.80072	0.0926914
