18
  This energy is -2.7995 and Call times are: 126588
C	0.0299464	1.13268	-0.0503691
C	0.298422	0.44519	1.09665
C	0.160966	-0.937314	0.765128
C	-0.179372	-0.972607	-0.555212
O	-0.263836	0.282637	-1.06925
H	0.0148157	2.21314	-0.268605
H	0.566377	0.869089	2.07777
H	0.301156	-1.79844	1.43811
H	-0.38576	-1.81576	-1.23473
C	3.59992	-0.59552	-0.73508
C	4.91757	-0.87405	-0.439466
N	5.41822	0.0184406	0.448971
C	4.41498	0.847494	0.703552
N	3.29676	0.5195	0.0139234
H	2.88053	-1.0952	-1.40316
H	5.51596	-1.703	-0.851322
H	4.44491	1.71146	1.38685
H	2.37453	1.01935	0.0440652
