18
  This energy is -1.5218 and Call times are: 128174
C	0.365882	-0.130939	-1.06554
C	-0.104608	1.06008	-0.595974
C	-0.463745	0.828621	0.766952
C	-0.181014	-0.483399	1.00993
O	0.326417	-1.08472	-0.098196
H	0.752764	-0.425282	-2.05496
H	-0.190179	2.00665	-1.15344
H	-0.883131	1.56006	1.47632
H	-0.293835	-1.09979	1.9169
C	4.27303	0.204036	-1.12646
C	3.63235	-0.906111	-0.618285
N	3.47937	-0.809906	0.724792
C	4.02309	0.355492	1.04859
N	4.51567	1.00478	-0.0327878
H	4.56377	0.47196	-2.15468
H	3.27774	-1.77477	-1.19668
H	4.08739	0.781856	2.06265
H	4.99171	1.93999	-0.0372308
