18
  This energy is -1.8997 and Call times are: 113682
C	-0.548563	-0.284642	0.95103
C	0.613819	0.428853	0.96395
C	0.991407	0.585933	-0.404579
C	0.0264305	-0.0454381	-1.13298
O	-0.921913	-0.582811	-0.321258
H	-1.19827	-0.638589	1.76825
H	1.15142	0.806644	1.84846
H	1.87997	1.10973	-0.792109
H	-0.0979027	-0.180823	-2.21993
C	4.56991	-0.927567	-0.712593
C	5.54047	0.0484493	-0.793566
N	5.39152	0.968469	0.190247
C	4.33258	0.564743	0.878932
N	3.80159	-0.574017	0.374088
H	4.37801	-1.81897	-1.33075
H	6.34552	0.105276	-1.54424
H	3.9033	1.06566	1.76156
H	2.96417	-1.08941	0.740637
