18
  This energy is -1.4455 and Call times are: 99684
C	-0.197636	-0.244221	1.08982
C	-0.566719	0.942943	0.52875
C	-0.153346	0.875315	-0.836778
C	0.431852	-0.347205	-0.989623
O	0.413547	-1.04426	0.176906
H	-0.311611	-0.635555	2.11408
H	-1.0787	1.78209	1.02654
H	-0.281104	1.6516	-1.60824
H	0.893044	-0.832637	-1.86536
C	5.01325	-0.332446	-0.94789
C	5.17167	0.831747	-0.226291
N	4.29542	0.889939	0.805849
C	3.59606	-0.233879	0.72487
N	3.99101	-1.00471	-0.316009
H	5.53811	-0.717268	-1.83669
H	5.90252	1.63076	-0.431917
H	2.78331	-0.54232	1.40202
H	3.59412	-1.93686	-0.58956
