18
  This energy is -0.5886 and Call times are: 134929
C	0.906379	0.281857	-0.620834
C	0.179303	-0.847008	-0.860416
C	-0.8647	-0.85388	0.114328
C	-0.683439	0.271392	0.863515
O	0.393637	0.976854	0.428493
H	1.79794	0.696723	-1.11908
H	0.36003	-1.5994	-1.64486
H	-1.65437	-1.61265	0.235906
H	-1.2445	0.676697	1.72153
C	5.79516	0.12494	1.12985
C	5.02424	0.424853	0.0267238
N	5.69061	0.157089	-1.12252
C	6.87045	-0.30717	-0.733832
N	6.98239	-0.3459	0.615079
H	5.58979	0.2104	2.20876
H	3.99914	0.829645	0.0394806
H	7.6892	-0.633122	-1.39536
H	7.81495	-0.672396	1.16417
