18
  This energy is -0.9883 and Call times are: 109756
C	0.263059	-0.290382	-1.06437
C	-0.240444	-1.18507	-0.166375
C	-0.440489	-0.453662	1.04405
C	-0.0415709	0.823414	0.778885
O	0.391073	0.941157	-0.504068
H	0.566403	-0.404125	-2.11807
H	-0.449963	-2.25296	-0.33903
H	-0.835946	-0.841711	1.99649
H	-0.0165682	1.72736	1.40937
C	5.44279	-0.156568	-0.686817
C	4.2332	0.393607	-1.05469
N	3.37062	0.420383	-0.00982312
C	4.04254	-0.111159	1.00241
N	5.29688	-0.475029	0.644904
H	6.36628	-0.337955	-1.25936
H	3.96743	0.771713	-2.05532
H	3.66375	-0.257553	2.02677
H	6.0204	-0.915767	1.2642
