18
  This energy is -1.3531 and Call times are: 5280
C	-0.51795	0.937725	-0.37256
C	0.0748456	0.0460194	-1.21744
C	0.609027	-0.98499	-0.385706
C	0.295506	-0.632305	0.894017
O	-0.392762	0.539269	0.92072
H	-1.05446	1.88139	-0.56468
H	0.130382	0.108062	-2.31615
H	1.16108	-1.88126	-0.711321
H	0.502254	-1.12319	1.85918
C	5.51025	0.158303	-1.04866
C	6.13839	0.104881	0.177611
N	5.24382	-0.0898624	1.17677
C	4.06519	-0.156999	0.572659
N	4.17276	-0.013045	-0.769465
H	5.90713	0.301356	-2.06628
H	7.22104	0.203367	0.359302
H	3.09155	-0.310288	1.06537
H	3.387	-0.0289351	-1.46487
