18
  This energy is -1.192 and Call times are: 16283
C	0.185066	-1.10436	0.180378
C	-0.978763	-0.490548	0.539698
C	-0.834507	0.877275	0.154513
C	0.404738	0.978571	-0.406185
O	1.0414	-0.222105	-0.398699
H	0.521888	-2.1492	0.280977
H	-1.85131	-0.954445	1.0271
H	-1.57297	1.68476	0.283888
H	0.942278	1.83693	-0.841533
C	4.24453	0.250363	0.45651
C	4.51612	-0.128408	-0.841148
N	5.84276	-0.338277	-1.02142
C	6.39209	-0.0906458	0.159908
N	5.46997	0.268084	1.08435
H	3.29753	0.500217	0.960794
H	3.7786	-0.254015	-1.65055
H	7.46481	-0.156745	0.403099
H	5.65355	0.513043	2.08812
