18
  This energy is -0.6496 and Call times are: 134993
C	0.207918	0.860107	0.709497
C	1.19872	0.229588	0.0158585
C	0.551748	-0.782041	-0.757545
C	-0.777294	-0.68041	-0.468248
O	-1.00533	0.317285	0.425965
H	0.235978	1.6971	1.42638
H	2.277	0.454324	0.0458188
H	1.02868	-1.49761	-1.44646
H	-1.64943	-1.251	-0.827484
C	5.00851	-0.628855	-0.0810709
C	5.86045	-0.290644	-1.1111
N	6.90768	0.44096	-0.658787
C	6.70617	0.556176	0.646871
N	5.57414	-0.0717907	1.04406
H	4.07102	-1.20724	-0.0694968
H	5.73825	-0.561411	-2.17251
H	7.35626	1.08961	1.35895
H	5.19884	-0.124308	2.02266
