18
  This energy is -0.9786 and Call times are: 66444
C	0.379558	1.0026	-0.370322
C	1.02203	0.291579	0.600279
C	0.251502	-0.896073	0.789739
C	-0.7938	-0.805971	-0.0818099
O	-0.731412	0.347173	-0.798315
H	0.608564	1.97459	-0.837264
H	1.94586	0.575004	1.12971
H	0.45914	-1.71656	1.49527
H	-1.6369	-1.48648	-0.285136
C	5.89784	1.14413	-0.192154
C	6.72336	0.0931852	-0.531528
N	6.18246	-1.09263	-0.160358
C	5.02577	-0.778531	0.407122
N	4.80829	0.557981	0.412407
H	6.00503	2.23138	-0.333365
H	7.69958	0.169325	-1.03755
H	4.29954	-1.48805	0.835394
H	3.96949	1.05333	0.802684
