18
  This energy is -0.7889 and Call times are: 94810
C	0.785918	0.635865	-0.514208
C	0.927778	0.195186	0.768777
C	-0.249333	-0.561657	1.05464
C	-1.0066	-0.516662	-0.078896
O	-0.389644	0.210471	-1.04722
H	1.44126	1.25076	-1.15271
H	1.77622	0.384131	1.44594
H	-0.495007	-1.07619	1.9975
H	-1.98909	-0.954842	-0.319649
C	6.82475	-0.346429	0.00504457
C	5.90984	-0.520449	-1.01172
N	4.70469	0.00273325	-0.679463
C	4.87131	0.499433	0.538793
N	6.13253	0.313972	0.995446
H	7.88409	-0.636142	0.091043
H	6.09774	-1.01413	-1.9791
H	4.10297	1.00921	1.14213
H	6.51097	0.615757	1.92656
