18
  This energy is -1.0545 and Call times are: 119256
C	-0.478811	-0.835273	0.599549
C	0.860333	-0.794691	0.343776
C	1.07566	0.388984	-0.426072
C	-0.15091	0.967238	-0.572781
O	-1.11188	0.233006	0.0472645
H	-1.09538	-1.56094	1.15497
H	1.62028	-1.52503	0.665001
H	2.03575	0.758866	-0.820415
H	-0.467877	1.88854	-1.08852
C	4.96123	-0.634787	-0.660578
C	4.75294	-0.203791	0.632481
N	5.81435	0.504839	1.08829
C	6.67783	0.513425	0.0818356
N	6.20982	-0.160367	-0.995459
H	4.33035	-1.22581	-1.34338
H	3.85581	-0.391451	1.24469
H	7.66738	0.998211	0.0802667
H	6.70396	-0.295608	-1.91132
