18
  This energy is -1.0349 and Call times are: 117967
C	0.377113	0.96366	0.464269
C	-0.858563	0.455435	0.738469
C	-0.964454	-0.74776	-0.0239133
C	0.215861	-0.868575	-0.696693
O	1.04699	0.167888	-0.410383
H	0.890311	1.8712	0.822379
H	-1.61918	0.884757	1.41021
H	-1.8235	-1.4368	-0.0608032
H	0.581724	-1.63516	-1.39936
C	4.72771	1.16329	0.0464636
C	4.16083	0.27779	-0.845542
N	4.58119	-0.988924	-0.610498
C	5.40571	-0.889634	0.42339
N	5.5274	0.387746	0.855919
H	4.62217	2.25407	0.158759
H	3.45605	0.530216	-1.6545
H	5.94705	-1.72071	0.903487
H	6.11833	0.723392	1.65554
