18
  This energy is -1.1538 and Call times are: 111122
C	-0.208685	0.695353	-0.871399
C	-1.11675	0.477194	0.122687
C	-0.497801	-0.443297	1.02253
C	0.73385	-0.706378	0.498893
O	0.927266	-0.0194672	-0.657721
H	-0.250018	1.32757	-1.77353
H	-2.12162	0.920046	0.213223
H	-0.927374	-0.856035	1.94947
H	1.55372	-1.35494	0.848802
C	5.19756	0.663422	-0.97209
C	6.2051	0.571844	-0.0352815
N	5.87243	-0.28841	0.957593
C	4.6631	-0.728836	0.637953
N	4.21252	-0.18447	-0.517141
H	5.11458	1.25232	-1.89937
H	7.16612	1.11108	-0.058007
H	4.06224	-1.45052	1.21448
H	3.28881	-0.372489	-0.978287
