18
  This energy is -1.5229 and Call times are: 72056
C	-1.05889	0.365639	-0.177362
C	-0.257493	0.89146	0.793023
C	0.979085	0.181961	0.705813
C	0.824179	-0.714791	-0.310166
O	-0.414424	-0.616487	-0.860811
H	-2.09316	0.600435	-0.47806
H	-0.511638	1.69804	1.49938
H	1.87433	0.329066	1.33111
H	1.51049	-1.46719	-0.732208
C	5.20407	0.199391	-1.09022
C	6.51657	0.226542	-0.668621
N	6.61055	-0.0502378	0.65466
C	5.36111	-0.248342	1.05248
N	4.47604	-0.109082	0.0371681
H	4.7517	0.371997	-2.07972
H	7.3974	0.440883	-1.29555
H	5.03811	-0.498003	2.07599
H	3.4338	-0.215771	0.097324
