18
  This energy is -0.8952 and Call times are: 134399
C	-0.810462	-0.793326	-0.013647
C	0.269755	-0.86688	0.815868
C	1.05188	0.296811	0.543443
C	0.380571	0.978752	-0.428497
O	-0.759044	0.327402	-0.780679
H	-1.67324	-1.46546	-0.151852
H	0.493371	-1.66094	1.54632
H	2.00248	0.584391	1.02068
H	0.606051	1.92578	-0.945754
C	5.93823	-0.866387	-0.476573
C	5.17409	0.0642412	-1.14826
N	4.57192	0.917247	-0.284387
C	4.96101	0.517322	0.918648
N	5.78578	-0.554785	0.856037
H	6.55901	-1.70052	-0.840442
H	5.04649	0.135474	-2.24073
H	4.67181	0.973824	1.87896
H	6.22537	-1.05361	1.66795
