18
  This energy is -1.3484 and Call times are: 51112
C	-1.03255	0.321493	0.341891
C	-0.114101	1.20715	-0.140239
C	1.04349	0.434298	-0.460869
C	0.730244	-0.855407	-0.146368
O	-0.533767	-0.942714	0.345228
H	-2.06196	0.463411	0.709881
H	-0.239229	2.2955	-0.258255
H	1.99434	0.804294	-0.876908
H	1.3115	-1.78883	-0.224503
C	4.59822	-0.493088	0.990217
C	5.42097	-1.07646	0.050052
N	5.68611	-0.219859	-0.966044
C	5.03034	0.890698	-0.65741
N	4.35895	0.776219	0.512939
H	4.18002	-0.878519	1.93366
H	5.82801	-2.10009	0.0866945
H	5.00765	1.81742	-1.25314
H	3.7686	1.51385	0.969732
