18
  This energy is -1.2156 and Call times are: 97805
C	0.552223	-0.61364	-0.777751
C	-0.111467	0.536063	-1.09092
C	-0.669848	1.01145	0.134782
C	-0.298084	0.11028	1.08875
O	0.448724	-0.888766	0.549127
H	1.12906	-1.31747	-1.39995
H	-0.199043	1.00258	-2.0853
H	-1.27643	1.91983	0.27968
H	-0.498174	0.0678986	2.172
C	5.62065	0.368732	-0.455416
C	5.06213	-0.885323	-0.584054
N	3.87792	-0.962273	0.0703359
C	3.70245	0.239474	0.602914
N	4.72593	1.07787	0.314513
H	6.56015	0.792572	-0.844308
H	5.49242	-1.73597	-1.13732
H	2.84241	0.559285	1.21307
H	4.81997	2.07761	0.61934
