18
  This energy is -1.2393 and Call times are: 32127
C	0.327535	-0.690078	0.8384
C	0.963886	-0.652539	-0.367429
C	0.270129	0.323966	-1.14541
C	-0.728924	0.796953	-0.346317
O	-0.708719	0.188707	0.868853
H	0.512661	-1.29021	1.74439
H	1.83449	-1.25233	-0.677908
H	0.49589	0.631831	-2.17902
H	-1.50909	1.55553	-0.522813
C	5.20596	0.701059	-0.798504
C	5.04053	-0.665177	-0.88321
N	4.41632	-1.15094	0.217202
C	4.19536	-0.0900994	0.981667
N	4.6531	1.05051	0.413274
H	5.66276	1.42521	-1.49167
H	5.36039	-1.3091	-1.71862
H	3.70224	-0.0920679	1.96709
H	4.59744	2.01693	0.818481
