18
  This energy is -0.9128 and Call times are: 14845
C	0.465417	-0.906387	0.498248
C	0.761741	0.369278	0.879359
C	-0.0100752	1.22018	0.0306096
C	-0.709911	0.389381	-0.794235
O	-0.431696	-0.912859	-0.522613
H	0.821143	-1.88158	0.86933
H	1.45435	0.679904	1.67805
H	-0.0348628	2.32172	0.0403886
H	-1.42809	0.598136	-1.6041
C	4.43037	-0.488289	0.0506569
C	5.17881	-0.250907	-1.08276
N	6.36546	0.325576	-0.772849
C	6.35323	0.445373	0.547803
N	5.20799	-0.0309904	1.09103
H	3.4327	-0.935362	0.185997
H	4.88384	-0.485274	-2.11857
H	7.1568	0.87469	1.16764
H	4.95973	-0.0486122	2.1105
