18
  This energy is -1.0337 and Call times are: 124573
C	-1.0619	-0.114143	0.381754
C	-0.00194698	-0.735154	0.974388
C	1.14793	-0.352847	0.218258
C	0.689146	0.468038	-0.769687
O	-0.658162	0.624861	-0.68496
H	-2.13817	-0.117798	0.620247
H	-0.0272723	-1.39615	1.8556
H	2.19141	-0.658491	0.396654
H	1.21282	0.996328	-1.58328
C	5.04702	0.882743	0.763187
C	5.49739	0.981035	-0.536296
N	5.55262	-0.237017	-1.12774
C	5.1381	-1.08772	-0.198709
N	4.82141	-0.461434	0.959334
H	4.87679	1.64866	1.53645
H	5.78345	1.90902	-1.0577
H	5.04731	-2.17989	-0.313398
H	4.47081	-0.913657	1.83901
