18
  This energy is -1.4889 and Call times are: 94970
C	-0.611439	-0.135597	0.945599
C	0.584883	-0.761848	0.753251
C	1.0407	-0.346927	-0.535232
C	0.082684	0.496249	-1.01651
O	-0.933604	0.636792	-0.125213
H	-1.32048	-0.156931	1.78943
H	1.09517	-1.44723	1.44892
H	1.97467	-0.646643	-1.0372
H	0.00786682	1.05224	-1.96548
C	4.59487	-1.03843	0.543789
C	4.08937	0.172421	0.967408
N	4.39908	1.16299	0.0959995
C	5.09408	0.568927	-0.864565
N	5.23941	-0.758568	-0.640455
H	4.54327	-2.04585	0.986481
H	3.50672	0.349034	1.8862
H	5.52003	1.0589	-1.75491
H	5.74647	-1.44402	-1.25226
