18
  This energy is -0.9863 and Call times are: 9527
C	1.00726	0.502892	0.137593
C	0.577282	-0.505353	0.949343
C	-0.715986	-0.871695	0.466261
C	-0.962142	-0.0549779	-0.598048
O	0.0796605	0.790866	-0.81301
H	1.94043	1.08976	0.13237
H	1.11671	-0.946818	1.8027
H	-1.37864	-1.65367	0.870601
H	-1.82843	0.0221651	-1.27543
C	7.0084	0.798649	0.81377
C	8.28136	0.454333	0.411083
N	8.24844	-0.503221	-0.54731
C	6.95996	-0.751998	-0.738458
N	6.17169	0.0075726	0.0585869
H	6.65066	1.52636	1.55942
H	9.22296	0.879683	0.79491
H	6.53853	-1.48053	-1.44971
H	5.12296	-0.00393953	0.0944454
