18
  This energy is -0.5043 and Call times are: 9559
C	0.614718	0.312914	0.900337
C	0.4934	1.09664	-0.209363
C	-0.345532	0.371973	-1.11001
C	-0.662815	-0.79061	-0.471182
O	-0.0849239	-0.843451	0.757744
H	1.16271	0.462981	1.84502
H	0.948979	2.08582	-0.376891
H	-0.669734	0.687584	-2.11469
H	-1.28211	-1.64884	-0.779663
C	5.07273	-0.753372	-0.651199
C	5.45534	-0.915639	0.663497
N	6.17001	0.150036	1.0995
C	6.23053	0.970298	0.0592469
N	5.584	0.470706	-1.02056
H	4.49218	-1.40075	-1.32751
H	5.22852	-1.78256	1.30525
H	6.73551	1.94937	0.0337353
H	5.49008	0.928589	-1.96013
