18
  This energy is -0.7257 and Call times are: 53095
C	-1.02244	-0.411768	0.26731
C	-0.0310488	-1.19507	-0.246451
C	1.08638	-0.328775	-0.448982
C	0.679178	0.907429	-0.0411061
O	-0.606094	0.875173	0.399401
H	-2.05428	-0.647049	0.57588
H	-0.081564	-2.27461	-0.461256
H	2.0745	-0.603101	-0.852038
H	1.20213	1.87751	-0.0143377
C	5.42943	-0.57286	-0.914049
C	4.94297	-0.530694	0.375417
N	5.73702	0.224437	1.17277
C	6.71238	0.649119	0.380969
N	6.57183	0.195501	-0.887127
H	5.05596	-1.07841	-1.81875
H	4.03327	-1.03161	0.744709
H	7.55468	1.2944	0.678247
H	7.21128	0.39173	-1.69574
