18
  This energy is -0.6257 and Call times are: 102525
C	0.821976	0.49829	0.602049
C	0.665741	-0.856042	0.560239
C	-0.458153	-1.09396	-0.28851
C	-0.889499	0.135988	-0.690434
O	-0.119222	1.11992	-0.15606
H	1.55382	1.13396	1.12701
H	1.28028	-1.61171	1.0754
H	-0.888262	-2.07077	-0.562252
H	-1.72144	0.440617	-1.34642
C	6.90684	0.310466	-0.524379
C	6.53865	-0.956634	-0.124336
N	5.30951	-0.951	0.446368
C	4.91668	0.314782	0.400548
N	5.84491	1.11476	-0.175652
H	7.81897	0.684278	-1.01614
H	7.13787	-1.8748	-0.237277
H	3.95876	0.710611	0.774644
H	5.76993	2.15037	-0.327764
