18
  This energy is -0.5833 and Call times are: 17469
C	-0.723302	-0.847668	0.21141
C	-0.747093	-0.140932	-0.954923
C	0.298651	0.826028	-0.84757
C	0.869167	0.624827	0.374888
O	0.25755	-0.393464	1.03521
H	-1.34271	-1.68556	0.571307
H	-1.43231	-0.285986	-1.80553
H	0.585445	1.57976	-1.59839
H	1.70481	1.13236	0.884156
C	7.04072	-0.0612103	0.54612
C	6.82144	0.198342	-0.790178
N	5.49716	0.193985	-1.07789
C	4.89718	-0.067277	0.075536
N	5.78481	-0.229333	1.08521
H	7.9706	-0.135691	1.13206
H	7.59504	0.388673	-1.55186
H	3.81038	-0.151151	0.236989
H	5.55927	-0.442446	2.08769
