18
  This energy is -1.4207 and Call times are: 44920
C	-0.985922	0.550163	-0.108066
C	-0.534608	0.0891822	1.09368
C	0.720549	-0.5376	0.825641
C	0.925441	-0.404306	-0.516233
O	-0.10679	0.257536	-1.1023
H	-1.90397	1.09433	-0.384342
H	-1.03534	0.181277	2.07086
H	1.38648	-1.0281	1.55369
H	1.75382	-0.732245	-1.16545
C	4.68122	0.380384	-1.11357
C	5.01729	1.11256	0.00541029
N	4.93045	0.35767	1.12751
C	4.54198	-0.838264	0.706254
N	4.37805	-0.875605	-0.637369
H	4.63779	0.655082	-2.1795
H	5.32086	2.17198	0.023193
H	4.3626	-1.72223	1.33923
H	4.07732	-1.70358	-1.20769
