18
  This energy is -1.4213 and Call times are: 55989
C	-0.72586	-0.871265	0.0206239
C	-0.400183	-0.219026	-1.13215
C	0.526214	0.80096	-0.755943
C	0.684866	0.681979	0.593518
O	-0.0723817	-0.334216	1.08437
H	-1.40074	-1.72118	0.214116
H	-0.774737	-0.434551	-2.14574
H	1.01274	1.53351	-1.41984
H	1.29897	1.25128	1.31047
C	4.47023	0.860757	0.799537
C	3.80335	-0.338829	0.931495
N	3.93142	-1.09459	-0.186059
C	4.67492	-0.366632	-1.00819
N	5.02522	0.820983	-0.46006
H	4.58529	1.71153	1.48981
H	3.23209	-0.672535	1.81306
H	4.99231	-0.655387	-2.02314
H	5.60848	1.56896	-0.909058
