18
  This energy is -1.1508 and Call times are: 128351
C	0.965942	0.539242	0.250151
C	0.279127	-0.194528	1.17224
C	-0.864475	-0.709623	0.488883
C	-0.775545	-0.245148	-0.790464
O	0.336177	0.519272	-0.954013
H	1.90267	1.11559	0.325063
H	0.550584	-0.356788	2.22773
H	-1.65599	-1.35066	0.909211
H	-1.43002	-0.385508	-1.66637
C	5.37831	0.816469	0.508299
C	4.81577	0.873913	-0.749236
N	4.09256	-0.241531	-1.01243
C	4.20601	-0.988127	0.0776881
N	4.97143	-0.393956	1.02357
H	6.01804	1.52757	1.05476
H	4.91878	1.70023	-1.47135
H	3.74911	-1.97824	0.236218
H	5.20955	-0.781509	1.96928
