18
  This energy is -1.2294 and Call times are: 120260
C	0.027484	0.372692	-1.07086
C	0.739922	-0.714399	-0.657295
C	0.449719	-0.866253	0.732971
C	-0.414439	0.141448	1.04625
O	-0.683235	0.9078	-0.0434622
H	-0.0574449	0.859433	-2.05632
H	1.40326	-1.34599	-1.2698
H	0.84332	-1.63899	1.41271
H	-0.903157	0.4169	1.99521
C	5.51694	0.932189	0.0459807
C	5.09893	0.264786	-1.08582
N	4.27566	-0.764344	-0.770173
C	4.18329	-0.735494	0.552423
N	4.91366	0.269331	1.09138
H	6.17894	1.80288	0.177093
H	5.37661	0.507395	-2.12452
H	3.59457	-1.42674	1.17677
H	5.0033	0.499582	2.11129
