18
  This energy is -1.464 and Call times are: 99972
C	-0.836018	-0.749752	0.159206
C	-0.442935	-0.346926	-1.08321
C	0.617725	0.58658	-0.874201
C	0.779164	0.671799	0.477482
O	-0.100385	-0.137638	1.12418
H	-1.61606	-1.45697	0.485732
H	-0.858227	-0.674309	-2.04988
H	1.18831	1.12688	-1.6466
H	1.47492	1.26346	1.09482
C	5.58132	1.06952	-0.0977435
C	6.20507	-0.141345	-0.311977
N	5.3508	-1.17366	-0.109301
C	4.20147	-0.605374	0.22938
N	4.28903	0.745726	0.250596
H	5.9532	2.10419	-0.166236
H	7.25619	-0.288598	-0.609156
H	3.26433	-1.13173	0.472158
H	3.51918	1.41844	0.487303
