18
  This energy is -2.1165 and Call times are: 23527
C	-0.186063	-0.954362	-0.583931
C	0.818908	-0.842286	0.331409
C	0.732002	0.487021	0.846683
C	-0.318403	1.06992	0.200732
O	-0.890718	0.204036	-0.676601
H	-0.499528	-1.79351	-1.22645
H	1.54825	-1.6179	0.615276
H	1.38057	0.946994	1.60949
H	-0.752789	2.08037	0.27517
C	4.38368	0.876946	0.776228
C	5.32738	-0.128086	0.798448
N	5.16889	-0.97046	-0.251218
C	4.13082	-0.489842	-0.922071
N	3.62225	0.623415	-0.342759
H	4.20601	1.7263	1.45488
H	6.11977	-0.260481	1.55306
H	3.70152	-0.914121	-1.84398
H	2.80383	1.18619	-0.681481
