18
  This energy is -1.0549 and Call times are: 100446
C	0.226116	-0.783988	-0.787804
C	-1.03716	-0.325183	-0.555385
C	-0.91677	0.63772	0.492681
C	0.409439	0.682329	0.8082
O	1.12218	-0.179495	0.0360117
H	0.613456	-1.52923	-1.50183
H	-1.96109	-0.633853	-1.07032
H	-1.72881	1.22406	0.951912
H	0.964285	1.27687	1.55246
C	4.41716	-0.489639	-0.423535
C	4.66034	0.85559	-0.243613
N	5.89893	1.06448	0.265083
C	6.42215	-0.146548	0.400228
N	5.56782	-1.11732	-0.00139273
H	3.53611	-1.02678	-0.809236
H	3.96427	1.67917	-0.471738
H	7.42688	-0.379465	0.788178
H	5.74769	-2.15116	0.00716596
