18
  This energy is -2.6672 and Call times are: 86560
C	-0.261242	-1.07213	0.262072
C	0.00868659	-0.132672	1.21335
C	0.288347	1.0743	0.502622
C	0.164626	0.765851	-0.820226
O	-0.170592	-0.540794	-0.985515
H	-0.527417	-2.13885	0.342803
H	0.0106664	-0.275313	2.30593
H	0.550268	2.05353	0.934594
H	0.287571	1.37851	-1.7284
C	4.41419	-0.833211	0.823294
C	5.42115	-0.0652645	0.277923
N	4.93206	0.79744	-0.645682
C	3.62665	0.565574	-0.673185
N	3.26487	-0.408898	0.194634
H	4.4335	-1.62521	1.58874
H	6.49181	-0.118229	0.534326
H	2.88962	1.08072	-1.31009
H	2.29386	-0.772017	0.357542
