18
  This energy is -1.1136 and Call times are: 94778
C	-0.603194	0.717463	-0.638596
C	0.208678	1.14398	0.371019
C	0.788	-0.0351549	0.931508
C	0.279004	-1.07813	0.214922
O	-0.572412	-0.636819	-0.748067
H	-1.24653	1.27045	-1.34257
H	0.382191	2.18455	0.689152
H	1.49999	-0.0905833	1.77061
H	0.441738	-2.16579	0.290814
C	5.7226	-0.181518	-0.821869
C	5.04361	-1.14325	-0.104108
N	4.16549	-0.578841	0.760101
C	4.29921	0.728065	0.579161
N	5.22602	1.01859	-0.364351
H	6.49816	-0.263474	-1.5999
H	5.17159	-2.23427	-0.194341
H	3.74318	1.5168	1.1111
H	5.51185	1.9757	-0.686062
