18
  This energy is -1.8766 and Call times are: 99242
C	0.0842324	0.681834	-0.902446
C	-0.39148	1.11662	0.299649
C	-0.344832	-0.0143241	1.1708
C	0.155268	-1.04038	0.424152
O	0.422879	-0.633071	-0.844508
H	0.229305	1.20287	-1.86303
H	-0.74025	2.13189	0.547997
H	-0.650244	-0.0502568	2.22888
H	0.365247	-2.09294	0.675686
C	4.25826	1.05956	-0.510565
C	5.18387	0.621891	0.412929
N	4.93128	-0.654869	0.790544
C	3.85307	-1.00792	0.103924
N	3.40916	-0.00872171	-0.694913
H	4.14741	2.02348	-1.03221
H	6.02942	1.20449	0.813517
H	3.34731	-1.98592	0.148202
H	2.57676	-0.0415528	-1.33311
