18
  This energy is -1.5596 and Call times are: 59332
C	-1.05591	0.395694	-0.122004
C	-0.552339	0.0189982	1.08832
C	0.784798	-0.415912	0.837256
C	0.980296	-0.26659	-0.504331
O	-0.133506	0.227956	-1.1059
H	-2.0422	0.793958	-0.411594
H	-1.07051	0.0448008	2.0604
H	1.50949	-0.794355	1.57597
H	1.8545	-0.473461	-1.14326
C	4.70647	1.08842	-0.434846
C	4.91633	-0.0960776	-1.10869
N	4.70339	-1.16256	-0.300124
C	4.36273	-0.641664	0.870874
N	4.35009	0.712046	0.840896
H	4.78297	2.13756	-0.761963
H	5.21757	-0.200264	-2.16379
H	4.11235	-1.20595	1.78363
H	4.11381	1.35281	1.63767
