18
  This energy is -2.128 and Call times are: 49980
C	-0.0180038	0.024677	-1.13378
C	0.180708	-1.12747	-0.431328
C	0.136581	-0.757295	0.94749
C	-0.0852012	0.588382	0.965892
O	-0.182226	1.08246	-0.296442
H	-0.0638033	0.221564	-2.21748
H	0.342166	-2.13677	-0.842837
H	0.257023	-1.42252	1.81758
H	-0.192399	1.30033	1.80069
C	3.63128	0.671968	0.928086
C	3.86372	1.09808	-0.362474
N	4.14703	0.0537313	-1.17831
C	4.09056	-1.0162	-0.396842
N	3.78307	-0.6959	0.882396
H	3.37708	1.22682	1.84518
H	3.83208	2.14036	-0.719549
H	4.26582	-2.05808	-0.709896
H	3.67994	-1.36255	1.68626
