18
  This energy is -0.6764 and Call times are: 103821
C	0.419725	-1.01329	0.288919
C	1.16771	-0.0677491	-0.348923
C	0.302437	1.05269	-0.538768
C	-0.897922	0.692919	-0.00017869
O	-0.844335	-0.565669	0.509819
H	0.667244	-2.03025	0.635017
H	2.22292	-0.150933	-0.655031
H	0.553383	2.01094	-1.02134
H	-1.85435	1.23494	0.0817692
C	6.42535	0.11915	1.09086
C	5.10839	0.234168	0.699051
N	4.97639	0.0358309	-0.635021
C	6.20678	-0.201328	-1.06919
N	7.11618	-0.162109	-0.06666
H	6.90388	0.214368	2.07853
H	4.25109	0.456709	1.35507
H	6.49801	-0.409714	-2.1113
H	8.15044	-0.316535	-0.15442
