18
  This energy is -0.882 and Call times are: 132325
C	0.444178	0.240562	1.0155
C	0.156472	-1.03507	0.627725
C	-0.3793	-0.931051	-0.692217
C	-0.371699	0.398959	-0.994521
O	0.127975	1.12918	0.0370384
H	0.870639	0.642229	1.94933
H	0.306483	-1.95681	1.21252
H	-0.727285	-1.75611	-1.3343
H	-0.690711	0.945357	-1.89726
C	4.24417	-0.0417723	0.217707
C	4.9407	0.999738	-0.357834
N	6.26041	0.708544	-0.458244
C	6.38213	-0.508985	0.0530599
N	5.19457	-1.00454	0.474634
H	3.17509	-0.161951	0.454723
H	4.51464	1.95607	-0.702429
H	7.3177	-1.08416	0.143088
H	5.0293	-1.9433	0.913581
