18
  This energy is -0.948 and Call times are: 105987
C	0.484471	-0.536894	-0.873747
C	-0.556335	0.329723	-1.03521
C	-0.884797	0.794686	0.274766
C	-0.0157132	0.171156	1.1211
O	0.827671	-0.64577	0.436738
H	1.06044	-1.13146	-1.60176
H	-1.04387	0.613126	-1.98183
H	-1.67764	1.51027	0.545763
H	0.103234	0.223535	2.21579
C	5.40622	-0.64826	0.841781
C	5.73108	0.643089	0.48397
N	4.94305	1.08293	-0.526998
C	4.1324	0.0683079	-0.795343
N	4.37197	-0.998874	0.00297782
H	5.8239	-1.32012	1.60838
H	6.51995	1.2653	0.937167
H	3.3452	0.053345	-1.56627
H	3.86622	-1.91822	-0.013837
