18
  This energy is -1.6677 and Call times are: 43398
C	0.742077	-0.853536	0.0848428
C	0.808432	0.0757301	-0.911368
C	-0.279224	0.972773	-0.682375
C	-0.914213	0.512489	0.433555
O	-0.303934	-0.602176	0.915318
H	1.37117	-1.7304	0.309785
H	1.549	0.124605	-1.72578
H	-0.549619	1.85544	-1.28394
H	-1.79849	0.883767	0.977118
C	5.02169	0.262423	1.14459
C	6.0734	0.548561	0.300095
N	5.82786	0.10079	-0.955184
C	4.62839	-0.460996	-0.889675
N	4.10057	-0.389233	0.35525
H	4.86866	0.469502	2.21569
H	7.00496	1.07008	0.574059
H	4.08988	-0.93962	-1.72343
H	3.16743	-0.759468	0.66093
