18
  This energy is -0.6178 and Call times are: 127981
C	-0.998829	-0.236476	0.482514
C	-0.242773	0.835544	0.856046
C	0.923623	0.79734	0.0325311
C	0.777369	-0.294653	-0.771542
O	-0.391025	-0.937797	-0.510328
H	-1.97445	-0.603587	0.841198
H	-0.4824	1.57867	1.6335
H	1.76815	1.50495	0.0445362
H	1.42468	-0.714921	-1.5587
C	5.03534	0.146842	0.0842771
C	5.9332	0.99092	-0.534208
N	7.19763	0.512302	-0.44114
C	7.08461	-0.624375	0.23252
N	5.80069	-0.888828	0.571938
H	3.94238	0.20784	0.207775
H	5.6913	1.93669	-1.04593
H	7.90988	-1.30202	0.504463
H	5.45427	-1.72374	1.10502
