18
  This energy is -1.005 and Call times are: 5344
C	-0.981625	0.305933	-0.478767
C	0.0436766	1.18515	-0.28877
C	1.09062	0.436887	0.331004
C	0.612671	-0.833536	0.46503
O	-0.651449	-0.931571	-0.0242564
H	-1.98347	0.435428	-0.920127
H	0.0609978	2.25347	-0.558045
H	2.08107	0.809687	0.637805
H	1.06755	-1.74518	0.886024
C	4.48462	0.221201	-0.819342
C	5.07766	1.13507	0.0258186
N	5.97474	0.533336	0.844155
C	5.93837	-0.748953	0.507946
N	5.05533	-0.988043	-0.490386
H	3.72229	0.341783	-1.60538
H	4.87431	2.21782	0.059782
H	6.53744	-1.55546	0.960592
H	4.84542	-1.9175	-0.93006
