18
  This energy is -1.3728 and Call times are: 59293
C	0.152718	-0.463833	-1.02369
C	-1.06812	-0.418289	-0.41718
C	-0.857404	0.230915	0.837511
C	0.473599	0.52478	0.886966
O	1.10587	0.107613	-0.241404
H	0.470367	-0.870309	-1.99792
H	-2.02142	-0.803242	-0.813571
H	-1.61484	0.449393	1.60735
H	1.08444	1.02161	1.65851
C	4.04128	-0.286003	-1.0454
C	3.98008	-1.02702	0.11576
N	4.61642	-0.395909	1.13226
C	5.07066	0.732333	0.603724
N	4.74972	0.845253	-0.706938
H	3.64408	-0.477257	-2.05495
H	3.48816	-2.00572	0.238277
H	5.64428	1.51112	1.13163
H	4.99401	1.64264	-1.34393
