18
  This energy is -0.651 and Call times are: 19784
C	-0.473165	0.0117577	1.03072
C	-1.01698	-0.674854	-0.0148491
C	-0.146929	-0.450023	-1.12507
C	0.851749	0.354132	-0.659935
O	0.668454	0.646039	0.654677
H	-0.797839	0.126551	2.07793
H	-1.93837	-1.27904	-0.00526053
H	-0.259617	-0.845233	-2.14742
H	1.73766	0.781756	-1.15748
C	5.80108	-0.727016	-0.875151
C	4.53318	-0.510339	-0.378544
N	4.55168	0.393591	0.63095
C	5.82621	0.736385	0.760114
N	6.61942	0.0880333	-0.12535
H	6.16673	-1.38169	-1.68214
H	3.60538	-0.990049	-0.730565
H	6.23351	1.45754	1.48694
H	7.65962	0.187316	-0.222237
