18
  This energy is -0.5945 and Call times are: 97583
C	-0.766462	-0.804943	0.22584
C	0.207628	-0.454141	1.11379
C	0.96401	0.576833	0.477322
C	0.385363	0.765034	-0.743383
O	-0.672895	-0.0704638	-0.913808
H	-1.57516	-1.55177	0.285015
H	0.376576	-0.878781	2.11641
H	1.83601	1.11048	0.88834
H	0.629095	1.4527	-1.5698
C	6.01291	1.17021	-0.054253
C	5.074	0.461948	0.665444
N	5.23547	-0.873158	0.498314
C	6.27061	-0.9927	-0.321946
N	6.77446	0.211	-0.68365
H	6.18721	2.25284	-0.159553
H	4.28298	0.890372	1.3023
H	6.70103	-1.93808	-0.689679
H	7.58987	0.381141	-1.32193
