18
  This energy is -0.6295 and Call times are: 128077
C	-1.11029	-0.176174	0.150428
C	-0.16027	-0.882565	0.827817
C	1.0977	-0.381237	0.373624
C	0.805366	0.587252	-0.541221
O	-0.538386	0.725827	-0.690011
H	-2.21147	-0.220245	0.176742
H	-0.328476	-1.67697	1.57261
H	2.09877	-0.709663	0.69625
H	1.45452	1.24073	-1.14687
C	5.58437	0.69559	0.853521
C	5.24457	-0.619998	0.619196
N	5.91595	-1.11531	-0.448711
C	6.66939	-0.11082	-0.875263
N	6.50523	1.00308	-0.123027
H	5.24729	1.41089	1.62051
H	4.52699	-1.22066	1.20155
H	7.35951	-0.136734	-1.73393
H	6.98755	1.92526	-0.257991
