18
  This energy is -1.0153 and Call times are: 71992
C	0.500581	-0.704334	0.734666
C	0.809695	-0.694067	-0.593761
C	-0.0170563	0.312484	-1.17981
C	-0.758403	0.828452	-0.157775
O	-0.455228	0.219151	1.0186
H	0.884647	-1.31259	1.56999
H	1.54604	-1.33137	-1.10926
H	-0.049175	0.610765	-2.24004
H	-1.52468	1.62071	-0.13788
C	4.49807	-0.297875	-0.896473
C	5.40704	0.738472	-0.866185
N	6.04644	0.792874	0.327429
C	5.53609	-0.205925	1.03494
N	4.59847	-0.893575	0.340964
H	3.80985	-0.642135	-1.68474
H	5.61294	1.44791	-1.6842
H	5.81307	-0.478227	2.06613
H	4.05209	-1.72257	0.680806
