18
  This energy is -1.0749 and Call times are: 50657
C	-0.917652	-0.399578	-0.533529
C	0.287037	-1.03786	-0.574761
C	1.17908	-0.240096	0.204948
C	0.440766	0.815259	0.653818
O	-0.842022	0.733954	0.212391
H	-1.89173	-0.646466	-0.986811
H	0.523751	-1.97632	-1.10141
H	2.24495	-0.43704	0.403033
H	0.70788	1.67838	1.28542
C	5.55263	-0.815898	0.771396
C	5.69435	-0.857144	-0.599501
N	5.17361	0.252132	-1.17816
C	4.7106	0.978779	-0.170076
N	4.91515	0.377828	1.026
H	5.85038	-1.5278	1.55758
H	6.16302	-1.66743	-1.18143
H	4.21291	1.95852	-0.251583
H	4.64047	0.750281	1.96786
