18
  This energy is -1.5551 and Call times are: 6510
C	0.0742581	-0.837867	-0.760832
C	0.502674	0.429623	-1.02598
C	0.245365	1.18514	0.158552
C	-0.317574	0.312633	1.04298
O	-0.429613	-0.927388	0.49818
H	0.0729155	-1.7528	-1.37577
H	0.954556	0.795821	-1.96182
H	0.45808	2.25358	0.323724
H	-0.676936	0.448923	2.0762
C	5.21643	0.974797	0.234253
C	5.61092	-0.0837332	-0.556342
N	4.65168	-1.03966	-0.607261
C	3.66586	-0.575918	0.148869
N	3.95809	0.635441	0.678779
H	5.72514	1.91422	0.503026
H	6.57049	-0.17483	-1.09092
H	2.70794	-1.08268	0.348389
H	3.34324	1.20719	1.30831
