18
  This energy is -1.9188 and Call times are: 38770
C	0.0574461	-1.02829	-0.475111
C	-0.59073	0.0151147	-1.06803
C	-0.444956	1.12261	-0.177909
C	0.279432	0.658217	0.88038
O	0.594815	-0.653417	0.71557
H	0.205735	-2.07308	-0.793974
H	-1.11856	0.00581749	-2.0352
H	-0.837288	2.14272	-0.317708
H	0.630552	1.1544	1.80004
C	4.18497	0.187571	1.16176
C	5.09839	-0.567718	0.457239
N	4.814	-0.567729	-0.867763
C	3.72828	0.184691	-0.984793
N	3.31007	0.663443	0.210822
H	4.09852	0.412592	2.23667
H	5.95753	-1.11264	0.881255
H	3.19855	0.417699	-1.92252
H	2.47791	1.27972	0.380992
