18
  This energy is -1.314 and Call times are: 118487
C	0.693637	0.456514	0.772569
C	-0.216529	-0.509126	1.08802
C	-0.890966	-0.82395	-0.13105
C	-0.333401	-0.0229037	-1.08384
O	0.636056	0.765611	-0.549609
H	1.42986	0.996944	1.38995
H	-0.395067	-0.955	2.0797
H	-1.69639	-1.56245	-0.272495
H	-0.535589	0.0794784	-2.16268
C	4.26119	0.155827	1.16589
C	4.20266	1.13575	0.197665
N	4.27429	0.599774	-1.04496
C	4.37686	-0.707687	-0.848364
N	4.37347	-1.02582	0.467831
H	4.23187	0.213802	2.26558
H	4.11003	2.2199	0.373454
H	4.45736	-1.47725	-1.63292
H	4.44311	-1.9891	0.878334
