18
  This energy is -1.6621 and Call times are: 84181
C	0.620737	0.884764	0.343916
C	-0.507379	1.03232	-0.408385
C	-1.00054	-0.288565	-0.636818
C	-0.130255	-1.12668	-0.00394237
O	0.866028	-0.427151	0.600281
H	1.32739	1.62438	0.754836
H	-0.948041	1.97659	-0.76653
H	-1.89959	-0.572046	-1.20729
H	-0.109787	-2.22494	0.0891364
C	3.92272	-1.12741	-0.287421
C	4.34032	-0.640405	0.933065
N	4.43911	0.711005	0.912031
C	4.08415	1.06105	-0.316831
N	3.76361	-0.011624	-1.07855
H	3.73382	-2.15476	-0.637291
H	4.57209	-1.23994	1.82844
H	4.04144	2.0889	-0.711704
H	3.45304	0.00375355	-2.08084
