18
  This energy is -0.8982 and Call times are: 135922
C	-0.364637	0.388568	-1.00123
C	-1.22039	-0.0139559	-0.0183573
C	-0.39619	-0.429554	1.07164
C	0.890464	-0.244308	0.658626
O	0.928435	0.254717	-0.604919
H	-0.548276	0.784631	-2.01348
H	-2.32157	-0.0178278	-0.0570338
H	-0.731275	-0.819722	2.0461
H	1.85362	-0.426509	1.16299
C	5.71386	-0.567668	-0.828264
C	5.34819	-1.05325	0.40933
N	4.64587	-0.129117	1.10879
C	4.57612	0.925759	0.308171
N	5.20493	0.711118	-0.871707
H	6.2813	-1.02632	-1.6536
H	5.57853	-2.05385	0.810075
H	4.07669	1.88119	0.536117
H	5.2888	1.38958	-1.66789
