18
  This energy is -1.1192 and Call times are: 59171
C	-0.574873	-0.708403	0.67386
C	0.120398	-1.14083	-0.416999
C	0.700147	0.0273867	-0.999466
C	0.307974	1.07057	-0.213125
O	-0.471255	0.639475	0.813504
H	-1.17604	-1.25268	1.42059
H	0.215469	-2.17839	-0.775533
H	1.33409	0.0756895	-1.8994
H	0.513471	2.15176	-0.276837
C	5.48171	-0.392092	0.875571
C	5.38078	-0.919598	-0.394348
N	4.49909	-0.217236	-1.14655
C	4.05473	0.742347	-0.346323
N	4.61714	0.679652	0.88386
H	6.08739	-0.693472	1.74497
H	5.92836	-1.7944	-0.781304
H	3.31724	1.51738	-0.610276
H	4.4302	1.32459	1.69031
