18
  This energy is -1.6544 and Call times are: 44856
C	-0.444166	-0.73589	-0.739989
C	0.857412	-0.332938	-0.802424
C	1.03627	0.580643	0.280856
C	-0.171794	0.655319	0.90964
O	-1.08758	-0.142262	0.299547
H	-1.02517	-1.43119	-1.36788
H	1.61551	-0.647484	-1.53757
H	1.96062	1.11526	0.552611
H	-0.50393	1.23118	1.78903
C	4.53401	-0.350442	1.11118
C	5.01984	0.870048	0.69224
N	5.08072	0.933632	-0.660077
C	4.63436	-0.242938	-1.07848
N	4.29199	-1.0525	-0.0484398
H	4.34953	-0.755556	2.11885
H	5.32753	1.70588	1.34152
H	4.53754	-0.564046	-2.12812
H	3.91417	-2.02894	-0.119629
