18
  This energy is -2.2087 and Call times are: 66685
C	0.338942	-0.432881	-0.992035
C	0.316204	0.909304	-0.750379
C	-0.161908	1.05769	0.587346
C	-0.38913	-0.206924	1.04506
O	-0.0886149	-1.12968	0.0936335
H	0.634364	-1.01035	-1.88338
H	0.606946	1.71413	-1.44451
H	-0.315567	2.00043	1.13662
H	-0.758954	-0.577937	2.01503
C	3.53907	-0.952766	0.639724
C	4.02953	0.248408	1.10639
N	4.21635	1.12719	0.0918113
C	3.8432	0.473667	-1.00011
N	3.42671	-0.784496	-0.722351
H	3.271	-1.88432	1.16306
H	4.25195	0.496703	2.15697
H	3.85474	0.869169	-2.02855
H	3.08357	-1.4962	-1.413
