18
  This energy is -0.6708 and Call times are: 108547
C	-0.996231	-0.373461	0.393003
C	-0.88253	0.297779	-0.788895
C	0.506255	0.59712	-0.936506
C	1.11862	0.0823767	0.16822
O	0.216103	-0.513958	0.990931
H	-1.87169	-0.797473	0.91169
H	-1.69512	0.556201	-1.48676
H	0.984535	1.13378	-1.77158
H	2.17552	0.0748671	0.481523
C	7.08136	-0.0988759	-0.453838
C	6.16369	0.897415	-0.711571
N	5.01771	0.697973	-0.0162546
C	5.22367	-0.417802	0.670223
N	6.45318	-0.93656	0.440513
H	8.1029	-0.265483	-0.830989
H	6.30795	1.75656	-1.38677
H	4.50777	-0.899036	1.35588
H	6.85195	-1.8104	0.863177
