18
  This energy is -0.8981 and Call times are: 60476
C	-0.447418	0.224013	-1.01786
C	0.000528986	-1.01758	-0.674106
C	0.484541	-0.90181	0.664717
C	0.289639	0.400308	1.02091
O	-0.278585	1.10234	0.00539282
H	-0.901096	0.606237	-1.94702
H	-0.00893216	-1.92403	-1.30049
H	0.924965	-1.70065	1.28276
H	0.509415	0.943616	1.9546
C	4.26994	-0.537364	0.187882
C	5.51557	-1.12715	0.146803
N	6.48332	-0.208959	-0.0917725
C	5.84048	0.946049	-0.198294
N	4.50384	0.800818	-0.0373845
H	3.26705	-0.961091	0.355872
H	5.73335	-2.19874	0.285035
H	6.29982	1.92844	-0.3936
H	3.78303	1.56249	-0.0767317
