18
  This energy is -1.1668 and Call times are: 11428
C	-0.548156	0.565628	-0.816083
C	-1.13265	0.255311	0.376581
C	-0.140728	-0.446687	1.12719
C	0.962348	-0.503379	0.32695
O	0.731325	0.109911	-0.863644
H	-0.931223	1.10015	-1.70084
H	-2.15931	0.496547	0.695753
H	-0.245406	-0.857952	2.14405
H	1.95944	-0.945619	0.486588
C	4.81347	0.26175	-1.14416
C	5.65514	-0.666672	-0.569029
N	5.49068	-0.708555	0.775481
C	4.55056	0.190465	1.03347
N	4.11003	0.802629	-0.0911542
H	4.67009	0.565686	-2.19325
H	6.37812	-1.30705	-1.10013
H	4.14752	0.440383	2.02812
H	3.37304	1.54739	-0.149786
