18
  This energy is -0.8917 and Call times are: 90907
C	0.289762	-0.999432	0.451193
C	0.531417	-0.690169	-0.855074
C	0.0307705	0.634367	-1.04236
C	-0.472626	1.01758	0.165988
O	-0.322875	0.0320484	1.08974
H	0.502519	-1.90746	1.03896
H	1.01383	-1.33053	-1.61092
H	0.047835	1.22515	-1.9723
H	-0.95647	1.95252	0.493164
C	4.58133	-0.48877	0.793547
C	4.29963	-0.234055	-0.531937
N	5.35853	0.337294	-1.15548
C	6.29359	0.43665	-0.220378
N	5.87353	-0.0477967	0.972289
H	3.97396	-0.937655	1.59551
H	3.3513	-0.452303	-1.04951
H	7.3036	0.856144	-0.355024
H	6.42681	-0.0811295	1.86338
