18
  This energy is -1.4289 and Call times are: 9209
C	0.763164	0.780634	0.307557
C	0.0455428	0.876378	-0.848396
C	-0.796388	-0.276922	-0.882592
C	-0.518936	-0.97562	0.255483
O	0.431225	-0.34428	0.99414
H	1.52993	1.43846	0.74869
H	0.103282	1.67866	-1.60145
H	-1.52122	-0.546619	-1.66744
H	-0.923638	-1.9225	0.649035
C	4.00608	-0.190508	1.09253
C	4.55187	0.976572	0.601435
N	4.89881	0.843219	-0.701777
C	4.5695	-0.401855	-1.01796
N	4.02741	-1.06623	0.0300596
H	3.61698	-0.451142	2.08963
H	4.70154	1.91244	1.1641
H	4.70356	-0.878167	-2.00253
H	3.68803	-2.05924	0.0327404
