18
  This energy is -0.7819 and Call times are: 22566
C	0.059132	-0.624985	-0.944615
C	1.16282	-0.306582	-0.209173
C	0.689501	0.4777	0.886724
C	-0.661637	0.569326	0.724227
O	-1.06382	-0.098276	-0.389131
H	-0.0581767	-1.21187	-1.87039
H	2.20564	-0.595059	-0.417502
H	1.29238	0.918207	1.69702
H	-1.43752	1.07369	1.32329
C	5.72806	-1.16987	0.00976778
C	5.02016	-0.422554	-0.907587
N	5.08425	0.89907	-0.614819
C	5.82908	0.971377	0.479998
N	6.24156	-0.249455	0.895963
H	5.89711	-2.25532	0.0919308
H	4.46432	-0.813316	-1.77545
H	6.10336	1.89295	1.01824
H	6.83875	-0.455577	1.7339
