18
  This energy is -1.3559 and Call times are: 33248
C	-0.456885	1.01091	-0.236041
C	0.0807737	0.71905	0.983021
C	0.546783	-0.628076	0.892434
C	0.252759	-1.0405	-0.373989
O	-0.360418	-0.0522484	-1.07711
H	-0.932393	1.92617	-0.625193
H	0.142974	1.38553	1.85825
H	1.04214	-1.21373	1.68346
H	0.425657	-1.99963	-0.889185
C	3.99	0.608335	0.801823
C	4.64883	-0.5873	0.995578
N	5.24821	-1.00545	-0.145652
C	4.9623	-0.0727708	-1.04398
N	4.20586	0.921479	-0.521632
H	3.40242	1.23752	1.48915
H	4.70243	-1.15571	1.93838
H	5.28156	-0.068426	-2.09863
H	3.85134	1.76935	-1.02828
