18
  This energy is -1.0181 and Call times are: 137200
C	-1.01966	0.493689	-0.0544977
C	0.0205259	0.876241	-0.84951
C	1.11678	0.0335242	-0.491497
C	0.649726	-0.789609	0.490688
O	-0.653177	-0.522497	0.770166
H	-2.05653	0.860623	0.0197493
H	0.0162674	1.67203	-1.61161
H	2.13148	0.0460176	-0.920822
H	1.13818	-1.59523	1.06308
C	5.26646	1.01332	0.59486
C	5.58662	-0.243503	1.06288
N	5.39062	-1.18503	0.108091
C	4.95055	-0.514857	-0.948235
N	4.85842	0.814054	-0.705132
H	5.29904	2.00242	1.07876
H	5.95552	-0.487793	2.07238
H	4.68092	-0.947894	-1.92497
H	4.53733	1.552	-1.37863
