18
  This energy is -1.5221 and Call times are: 87810
C	-0.750137	-0.845833	-0.0908936
C	-0.0372037	-0.621268	1.05001
C	0.787694	0.512789	0.778765
C	0.506024	0.881118	-0.503955
O	-0.431021	0.0623017	-1.0503
H	-1.50496	-1.60864	-0.343104
H	-0.0871837	-1.19651	1.98847
H	1.50445	0.991648	1.46509
H	0.898962	1.69624	-1.13358
C	4.66164	0.758723	-0.89757
C	3.79894	-0.309867	-0.77509
N	4.00383	-0.972309	0.389256
C	4.98989	-0.31717	0.986832
N	5.4209	0.734655	0.25097
H	4.78489	1.50955	-1.6942
H	3.03234	-0.614727	-1.506
H	5.43467	-0.564983	1.96407
H	6.1874	1.40425	0.50665
