18
  This energy is -0.9139 and Call times are: 45304
C	-0.0243051	0.233494	-1.10964
C	-1.14669	-0.0945439	-0.407487
C	-0.716743	-0.313952	0.936805
C	0.630426	-0.100622	0.937464
O	1.07021	0.234607	-0.303997
H	0.125854	0.484625	-2.17248
H	-2.1743	-0.17404	-0.797106
H	-1.34471	-0.597387	1.7967
H	1.37882	-0.154776	1.74507
C	4.27289	0.408429	0.969761
C	4.91269	-0.80424	0.824003
N	5.40711	-0.948292	-0.429513
C	5.07531	0.170755	-1.05901
N	4.39026	1.02085	-0.257982
H	3.75951	0.863747	1.83154
H	5.02639	-1.57781	1.60086
H	5.30894	0.419301	-2.1068
H	4.01923	1.96633	-0.521903
