18
  This energy is -1.952 and Call times are: 134143
C	0.771388	0.459963	-0.692673
C	0.0796125	1.19748	0.22269
C	-0.783212	0.278182	0.893914
C	-0.542528	-0.939953	0.329474
O	0.404091	-0.847502	-0.641288
H	1.54129	0.743737	-1.42886
H	0.168049	2.28025	0.406766
H	-1.49676	0.50647	1.70189
H	-0.973157	-1.93529	0.527231
C	3.73346	-1.09725	0.3318
C	4.28693	-0.707359	-0.869366
N	4.46027	0.635935	-0.914363
C	4.01603	1.07771	0.254444
N	3.56721	0.0711823	1.04125
H	3.4554	-2.09037	0.719023
H	4.56428	-1.37125	-1.70434
H	3.99639	2.12845	0.585794
H	3.16855	0.163322	2.0076
