18
  This energy is -1.1639 and Call times are: 56181
C	-0.907968	-0.144928	0.664072
C	-0.219391	-1.19377	0.129122
C	0.840443	-0.616708	-0.634992
C	0.705957	0.733824	-0.499527
O	-0.356682	1.03979	0.290531
H	-1.79503	-0.109883	1.31763
H	-0.436058	-2.26622	0.25952
H	1.60888	-1.15278	-1.21483
H	1.29355	1.57179	-0.909156
C	4.29999	0.726094	0.218782
C	4.4089	-0.594761	0.599078
N	5.58104	-1.12928	0.178508
C	6.19696	-0.143766	-0.460268
N	5.4653	0.995639	-0.463565
H	3.50232	1.46855	0.380052
H	3.6627	-1.17164	1.16939
H	7.18519	-0.20223	-0.944229
H	5.73444	1.91014	-0.90232
