18
  This energy is -1.3401 and Call times are: 3716
C	-0.496914	-0.689234	-0.751288
C	-1.07549	0.472453	-0.331644
C	-0.159148	1.05204	0.598146
C	0.898507	0.193362	0.664603
O	0.70908	-0.875544	-0.153057
H	-0.836744	-1.46001	-1.4624
H	-2.04983	0.880312	-0.645373
H	-0.281742	1.99862	1.14865
H	1.83368	0.229024	1.2472
C	5.29443	0.320965	0.89434
C	4.76515	1.14239	-0.078426
N	4.00921	0.437527	-0.954914
C	4.06929	-0.816408	-0.527523
N	4.83213	-0.938601	0.584567
H	5.94562	0.536416	1.75635
H	4.91519	2.23101	-0.163537
H	3.57359	-1.6843	-0.991496
H	5.03311	-1.82413	1.1106
