18
  This energy is -1.1655 and Call times are: 57419
C	0.268731	0.152991	-1.09123
C	1.10699	-0.468206	-0.212701
C	0.426498	-0.468959	1.0431
C	-0.76753	0.151842	0.821122
O	-0.880713	0.538232	-0.476916
H	0.372426	0.379466	-2.1651
H	2.10447	-0.884169	-0.427445
H	0.791459	-0.885623	1.99562
H	-1.61068	0.377269	1.49458
C	4.74049	0.0346203	-1.14741
C	4.45086	0.997636	-0.204087
N	4.89588	0.630042	1.02202
C	5.45945	-0.556507	0.840035
N	5.39145	-0.959114	-0.451041
H	4.53625	-0.012296	-2.2289
H	3.92876	1.9511	-0.386224
H	5.93675	-1.17406	1.61788
H	5.7637	-1.85716	-0.846267
