18
  This energy is -1.0157 and Call times are: 2735
C	-0.481183	0.805629	-0.637044
C	0.702065	0.998405	0.0134457
C	0.975669	-0.224899	0.698125
C	-0.064535	-1.05723	0.405591
O	-0.963555	-0.44424	-0.408669
H	-1.07603	1.47019	-1.28494
H	1.3202	1.91054	0.0113427
H	1.84812	-0.449812	1.33243
H	-0.278691	-2.09477	0.710362
C	4.7231	-0.804269	0.63673
C	4.58896	-0.567258	-0.714927
N	5.40831	0.433621	-1.11918
C	6.04831	0.816074	-0.0224801
N	5.67014	0.100027	1.06281
H	4.22815	-1.5283	1.30333
H	3.91566	-1.10051	-1.40569
H	6.80397	1.61548	0.042115
H	6.02984	0.212328	2.04223
