18
  This energy is -1.4186 and Call times are: 97168
C	-0.511572	-1.01208	0.0195593
C	-0.329463	-0.307879	-1.13426
C	0.340137	0.895779	-0.756159
C	0.5081	0.820856	0.59534
O	-0.00613005	-0.337642	1.08571
H	-0.979987	-1.99121	0.212294
H	-0.635916	-0.606113	-2.14976
H	0.656071	1.71633	-1.42021
H	0.971367	1.5165	1.31417
C	4.25232	-0.790699	0.799379
C	3.87083	-0.729395	-0.524197
N	4.46487	0.311852	-1.15621
C	5.21204	0.894294	-0.228239
N	5.11803	0.266798	0.968006
H	3.97816	-1.48874	1.6063
H	3.17761	-1.41782	-1.03444
H	5.8476	1.78309	-0.370855
H	5.61074	0.534796	1.85495
