18
  This energy is -2.2703 and Call times are: 83795
C	0.317941	-0.108701	1.08328
C	0.198385	-1.17894	0.246224
C	-0.215526	-0.646306	-1.01278
C	-0.312366	0.702401	-0.833943
O	0.00984411	1.04828	0.440248
H	0.610031	-0.0391881	2.14399
H	0.383134	-2.23731	0.490818
H	-0.415504	-1.20959	-1.93842
H	-0.596191	1.51303	-1.52502
C	4.74468	-1.11243	-0.169679
C	5.51208	0.0234431	-0.31815
N	4.79339	1.13838	-0.040812
C	3.58473	0.695864	0.278497
N	3.5046	-0.654411	0.215822
H	4.98525	-2.1787	-0.306506
H	6.57144	0.0584544	-0.620416
H	2.72146	1.31738	0.566074
H	2.65894	-1.2407	0.421673
