18
  This energy is -1.8198 and Call times are: 46447
C	-0.0390788	0.751631	-0.848484
C	-0.666604	0.962919	0.343969
C	-0.389662	-0.189456	1.14112
C	0.382651	-1.00322	0.365427
O	0.606634	-0.444215	-0.852916
H	0.0229186	1.36686	-1.76112
H	-1.26453	1.84207	0.633211
H	-0.730176	-0.381425	2.17131
H	0.829986	-1.99141	0.561951
C	3.88841	0.760158	-0.891515
C	3.28105	0.838667	0.343836
N	3.6334	-0.208191	1.12897
C	4.45623	-0.933384	0.383538
N	4.64201	-0.391339	-0.843353
H	3.83932	1.4202	-1.77212
H	2.59491	1.63192	0.682677
H	4.95078	-1.87021	0.686866
H	5.24521	-0.775132	-1.61154
