18
  This energy is -0.648 and Call times are: 18624
C	-1.06366	0.0520518	-0.39029
C	0.00456543	-0.170771	-1.2086
C	1.15405	-0.166989	-0.360785
C	0.686792	0.0578118	0.900763
O	-0.665417	0.193982	0.901327
H	-2.1427	0.130854	-0.601733
H	-0.0149657	-0.322571	-2.29977
H	2.20296	-0.315272	-0.66393
H	1.20715	0.141878	1.86896
C	6.65445	-0.664514	0.222367
C	7.37358	0.0820225	1.13159
N	8.4034	0.725354	0.529838
C	8.32345	0.379238	-0.74783
N	7.28545	-0.457647	-0.983965
H	5.76789	-1.30692	0.344344
H	7.1678	0.16797	2.21099
H	8.99934	0.70975	-1.55291
H	7.0132	-0.870298	-1.90963
