18
  This energy is -0.716 and Call times are: 9462
C	0.327955	1.08379	-0.0650893
C	-0.977789	0.724224	0.0965185
C	-0.988512	-0.703597	0.132983
C	0.311625	-1.0905	-0.00956091
O	1.12929	-0.0118471	-0.131807
H	0.809491	2.07216	-0.14579
H	-1.84629	1.39696	0.181522
H	-1.86698	-1.35801	0.251879
H	0.778242	-2.08881	-0.0395257
C	5.53418	0.128801	0.983018
C	4.63375	1.02977	0.455159
N	4.08247	0.556405	-0.68875
C	4.63878	-0.633698	-0.869852
N	5.52117	-0.937181	0.111409
H	6.16233	0.16942	1.88707
H	4.372	2.01288	0.879211
H	4.43599	-1.32432	-1.70421
H	6.0875	-1.8169	0.192743
