18
  This energy is -1.2313 and Call times are: 26063
C	-1.02775	0.382817	-0.289096
C	-0.799177	-0.287145	0.876785
C	0.59438	-0.600354	0.881009
C	1.09437	-0.0941393	-0.282663
O	0.117619	0.509708	-1.00954
H	-1.94788	0.814693	-0.715839
H	-1.5378	-0.535835	1.65568
H	1.15105	-1.14017	1.66383
H	2.11324	-0.0980617	-0.703531
C	4.78264	-0.945686	0.690649
C	4.78903	0.374301	1.08907
N	4.94448	1.20396	0.0288688
C	5.03419	0.401714	-1.02326
N	4.94226	-0.903989	-0.676454
H	4.67925	-1.88057	1.2641
H	4.68426	0.742884	2.12252
H	5.16773	0.717737	-2.07042
H	4.98452	-1.72764	-1.32535
