18
  This energy is -0.8749 and Call times are: 43009
C	0.483913	-0.718306	0.732302
C	1.17719	-0.140597	-0.290439
C	0.239112	0.686248	-0.980703
C	-0.944593	0.540821	-0.318837
O	-0.813407	-0.313378	0.730042
H	0.795061	-1.4251	1.51899
H	2.24231	-0.282478	-0.534318
H	0.432303	1.31291	-1.86618
H	-1.93868	0.984501	-0.49258
C	5.12719	-0.973327	0.331091
C	4.85758	0.320075	0.72551
N	5.7166	1.19571	0.149432
C	6.51608	0.448367	-0.599522
N	6.20136	-0.866477	-0.52386
H	4.64671	-1.9303	0.589677
H	4.05862	0.637124	1.41543
H	7.34812	0.812673	-1.22341
H	6.68371	-1.65439	-1.02164
