18
  This energy is -1.3053 and Call times are: 40824
C	0.74523	-0.854524	0.028684
C	-0.425537	-0.882598	0.727892
C	-1.08223	0.352855	0.440626
C	-0.254796	1.02683	-0.408769
O	0.865942	0.304242	-0.671103
H	1.56562	-1.58631	-0.0531945
H	-0.790131	-1.6921	1.38049
H	-2.05722	0.691701	0.826207
H	-0.348135	2.01406	-0.890351
C	3.95641	0.562161	0.975198
C	4.26695	-0.776058	0.857393
N	4.62475	-1.08467	-0.412745
C	4.53651	0.0577561	-1.08036
N	4.1374	1.08046	-0.287654
H	3.6303	1.16231	1.8395
H	4.23924	-1.52442	1.66612
H	4.75262	0.201583	-2.15127
H	3.9933	2.07813	-0.57946
