18
  This energy is -0.653 and Call times are: 98588
C	-0.946164	-0.258464	-0.569535
C	-0.917423	0.69645	0.403958
C	0.429462	0.731003	0.878114
C	1.10488	-0.205845	0.152515
O	0.280245	-0.819814	-0.736319
H	-1.76555	-0.626663	-1.20851
H	-1.76015	1.3145	0.753127
H	0.838657	1.38117	1.66801
H	2.15956	-0.525966	0.173277
C	6.28515	0.846327	0.44653
C	5.31925	0.991071	-0.526723
N	4.72135	-0.193573	-0.801766
C	5.31408	-1.06991	-0.0021819
N	6.26433	-0.491951	0.770208
H	6.96325	1.57659	0.916038
H	5.04306	1.92906	-1.03539
H	5.09086	-2.14728	0.0583103
H	6.86985	-0.971872	1.48033
