18
  This energy is -0.8546 and Call times are: 94874
C	0.819695	0.229169	0.749654
C	0.523288	1.0648	-0.286798
C	-0.547992	0.441974	-0.997122
C	-0.81166	-0.719279	-0.332033
O	0.0141874	-0.865371	0.737381
H	1.57094	0.299187	1.55338
H	1.01019	2.02361	-0.52703
H	-1.05684	0.821866	-1.89759
H	-1.55099	-1.51587	-0.516651
C	6.52544	0.214824	-0.268946
C	5.46822	0.118543	-1.14881
N	4.30959	-0.137801	-0.49431
C	4.64674	-0.200312	0.786722
N	5.97186	0.00563258	0.974429
H	7.59681	0.410861	-0.434109
H	5.52071	0.229452	-2.24417
H	3.96287	-0.394078	1.62874
H	6.48063	0.00590008	1.89226
