18
  This energy is -0.7959 and Call times are: 76383
C	0.0099935	0.48288	1.02622
C	-1.05137	-0.242614	0.570655
C	-0.692093	-0.679786	-0.740801
C	0.557104	-0.18285	-0.970877
O	1.00131	0.529752	0.0977183
H	0.180394	1.00941	1.97962
H	-1.99284	-0.449195	1.10457
H	-1.29961	-1.29271	-1.42588
H	1.2274	-0.264599	-1.84224
C	5.14856	-0.376115	0.905126
C	4.71713	0.369379	-0.17156
N	5.73569	0.625818	-1.02788
C	6.79498	0.0416334	-0.484498
N	6.49263	-0.575873	0.682062
H	4.61213	-0.765624	1.78493
H	3.68916	0.726806	-0.34584
H	7.81602	0.0351904	-0.898829
H	7.15575	-1.10584	1.29905
