18
  This energy is -0.9962 and Call times are: 34019
C	-0.0370269	0.400316	-1.06056
C	0.824836	0.891121	-0.124245
C	0.574556	0.144215	1.06723
C	-0.418155	-0.73708	0.75383
O	-0.803698	-0.594614	-0.541574
H	-0.200301	0.670319	-2.11682
H	1.5628	1.69817	-0.25908
H	1.07989	0.257018	2.03986
H	-0.929669	-1.50632	1.35538
C	5.52191	-0.0928444	-1.16688
C	4.34756	-0.171849	-0.448687
N	4.57544	-0.0208417	0.878632
C	5.88618	0.15119	0.983473
N	6.50173	0.1159	-0.222119
H	5.723	-0.167892	-2.24738
H	3.33993	-0.335105	-0.864469
H	6.44715	0.307206	1.919
H	7.52954	0.226486	-0.402738
