18
  This energy is -1.006 and Call times are: 23591
C	-0.557193	0.984813	0.077975
C	-0.293118	0.206801	1.16671
C	0.413058	-0.931765	0.671629
C	0.51818	-0.749004	-0.675932
O	-0.0688836	0.416361	-1.05579
H	-1.0774	1.9517	-0.0208233
H	-0.568032	0.413896	2.21343
H	0.794531	-1.78296	1.25818
H	0.980549	-1.36631	-1.46358
C	5.83449	-0.546512	-0.624533
C	5.7704	0.798464	-0.327754
N	4.67128	1.08381	0.411861
C	4.05585	-0.0797258	0.573305
N	4.71783	-1.09356	-0.0329293
H	6.57114	-1.13349	-1.1958
H	6.49754	1.56807	-0.634052
H	3.11746	-0.24592	1.12651
H	4.43443	-2.10384	-0.0491918
