18
  This energy is -1.0002 and Call times are: 109820
C	-0.790667	-0.316512	0.749044
C	-0.967653	0.737462	-0.0984158
C	0.228634	0.820399	-0.874391
C	1.03105	-0.190215	-0.432618
O	0.424433	-0.894711	0.558702
H	-1.44475	-0.749812	1.52344
H	-1.85191	1.39096	-0.16993
H	0.456311	1.55099	-1.66717
H	2.04148	-0.508118	-0.73792
C	4.5242	-0.707775	0.65379
C	5.0766	-0.995541	-0.576327
N	5.79982	0.0507563	-1.04401
C	5.69647	0.984067	-0.107597
N	4.93748	0.574977	0.936514
H	3.88748	-1.30511	1.32559
H	4.96627	-1.93938	-1.13476
H	6.15652	1.98496	-0.135797
H	4.70764	1.12934	1.79739
