18
  This energy is -1.1513 and Call times are: 106854
C	-0.260307	-0.0692209	-1.10175
C	0.905265	-0.563351	-0.594154
C	0.868309	-0.290135	0.807311
C	-0.316584	0.346835	1.03241
O	-1.0186	0.490174	-0.12242
H	-0.662206	-0.0535218	-2.12814
H	1.71031	-1.06947	-1.15079
H	1.639	-0.542299	1.55333
H	-0.769905	0.742688	1.95602
C	4.67001	-0.988503	-0.356464
C	4.4863	0.279194	-0.866699
N	5.25919	1.18377	-0.217934
C	5.91986	0.479932	0.691319
N	5.59938	-0.834984	0.647976
H	4.22017	-1.95672	-0.627998
H	3.80993	0.55733	-1.69132
H	6.6503	0.877404	1.4143
H	5.98533	-1.59309	1.26245
