18
  This energy is -0.9465 and Call times are: 53481
C	0.974087	0.157436	0.559258
C	-0.236065	0.147909	1.1884
C	-1.20713	-0.0745337	0.164838
C	-0.504658	-0.181302	-0.999425
O	0.828855	-0.042141	-0.777189
H	1.99761	0.294498	0.945082
H	-0.425872	0.283884	2.26523
H	-2.29953	-0.145317	0.290286
H	-0.832273	-0.353746	-2.03778
C	4.9042	0.872017	-0.765728
C	5.50261	-0.341888	-1.02932
N	5.56598	-1.108	0.0867309
C	5.00901	-0.372164	1.03907
N	4.59387	0.830375	0.575224
H	4.68455	1.73381	-1.41581
H	5.88976	-0.678646	-2.0048
H	4.87963	-0.665519	2.09332
H	4.12495	1.58688	1.13117
