18
  This energy is -1.2641 and Call times are: 18464
C	-0.343484	-0.371842	-1.01496
C	0.912799	0.114832	-0.802184
C	0.963205	0.476819	0.578592
C	-0.266726	0.179395	1.08769
O	-1.07743	-0.339797	0.128413
H	-0.830856	-0.766324	-1.92166
H	1.72274	0.209428	-1.54322
H	1.82	0.90788	1.12098
H	-0.683965	0.288582	2.10221
C	5.14064	0.258148	-1.13959
C	4.35863	-0.745854	-0.608953
N	4.43054	-0.757699	0.744265
C	5.25404	0.235179	1.05195
N	5.70907	0.878268	-0.0493966
H	5.32667	0.564989	-2.18112
H	3.74381	-1.4619	-1.17828
H	5.55799	0.534601	2.06792
H	6.36912	1.69387	-0.0690711
