18
  This energy is -0.7804 and Call times are: 87322
C	0.296969	-0.527353	0.959223
C	-0.59869	-1.06072	0.0796248
C	-0.709326	-0.11663	-0.98648
C	0.128491	0.910309	-0.66425
O	0.75122	0.676173	0.520824
H	0.689302	-0.900296	1.91956
H	-1.12833	-2.02249	0.172245
H	-1.3418	-0.200878	-1.8848
H	0.366885	1.85097	-1.1873
C	4.86558	0.862015	-0.673279
C	4.73446	0.733507	0.693263
N	5.36148	-0.381088	1.14163
C	5.87962	-0.941912	0.0573616
N	5.60827	-0.230354	-1.0623
H	4.4953	1.62796	-1.37311
H	4.19866	1.42506	1.36373
H	6.46669	-1.87392	0.0266293
H	5.90676	-0.46592	-2.04039
