18
  This energy is -1.1649 and Call times are: 25503
C	-0.949532	0.619245	0.0364025
C	-0.713655	-0.299266	-0.943941
C	0.565146	-0.864071	-0.65106
C	0.997838	-0.240845	0.482404
O	0.0852916	0.668127	0.91604
H	-1.80339	1.29266	0.2172
H	-1.37395	-0.55356	-1.7886
H	1.09349	-1.64335	-1.22349
H	1.92331	-0.353299	1.07072
C	4.36013	0.731818	-0.379671
C	4.5012	-0.602278	-0.698154
N	5.58187	-1.14006	-0.0821667
C	6.10922	-0.143384	0.615803
N	5.40887	1.00626	0.469447
H	3.61259	1.48036	-0.686934
H	3.84257	-1.18641	-1.36137
H	7.00778	-0.200615	1.25105
H	5.62383	1.93057	0.917451
