18
  This energy is -0.8112 and Call times are: 82000
C	0.711541	0.879122	0.0851754
C	-0.641568	1.02285	0.179051
C	-1.18576	-0.288593	0.0238459
C	-0.117164	-1.11795	-0.151172
O	1.04947	-0.421697	-0.116528
H	1.53071	1.61446	0.144233
H	-1.2004	1.95851	0.341314
H	-2.25042	-0.571905	0.0418462
H	-0.0551897	-2.20735	-0.308067
C	5.72475	-0.316263	-0.945919
C	5.14906	-1.15578	-0.0158963
N	4.50216	-0.451196	0.9441
C	4.67586	0.820585	0.610901
N	5.40648	0.954404	-0.521305
H	6.31858	-0.526141	-1.84972
H	5.18889	-2.25725	-0.0203837
H	4.28953	1.69381	1.16086
H	5.67863	1.8546	-0.986955
