18
  This energy is -1.0266 and Call times are: 131473
C	0.185884	1.1168	0.0678502
C	-1.06853	0.589471	-0.0256861
C	-0.89356	-0.826636	-0.0900725
C	0.452326	-1.03966	-0.0301975
O	1.12687	0.136208	0.0664827
H	0.537219	2.15917	0.140553
H	-2.02146	1.14225	-0.0471866
H	-1.68386	-1.59012	-0.17142
H	1.04711	-1.96766	-0.0470816
C	5.07425	0.671471	-0.963694
C	5.95345	-0.316515	-0.57378
N	5.56059	-0.888678	0.590179
C	4.44192	-0.258044	0.921094
N	4.10673	0.691652	0.0159356
H	5.0688	1.33934	-1.83974
H	6.86423	-0.626743	-1.11147
H	3.82819	-0.452024	1.81549
H	3.26935	1.32305	0.0532825
