18
  This energy is -1.2815 and Call times are: 55444
C	0.831891	-0.121398	-0.761328
C	1.05892	-0.170391	0.582708
C	-0.214108	0.0209658	1.2015
C	-1.10668	0.170002	0.180977
O	-0.485191	0.0858178	-1.02471
H	1.51385	-0.218499	-1.622
H	2.02584	-0.325702	1.08772
H	-0.430454	0.0435203	2.28168
H	-2.19601	0.339156	0.181298
C	5.03989	0.114419	1.17065
C	5.48018	1.02609	0.234619
N	5.27981	0.568469	-1.02512
C	4.71735	-0.622569	-0.871188
N	4.55155	-0.941737	0.434274
H	5.03954	0.141573	2.27192
H	5.93883	2.00585	0.445685
H	4.40684	-1.30277	-1.6806
H	4.13109	-1.82539	0.813275
