18
  This energy is -1.0019 and Call times are: 44553
C	-0.781269	-0.69919	0.432612
C	-0.0240866	0.123161	1.21414
C	0.829885	0.836474	0.318577
C	0.519166	0.387049	-0.93116
O	-0.462786	-0.551137	-0.880271
H	-1.56966	-1.42681	0.686117
H	-0.0630093	0.217946	2.31123
H	1.58472	1.59428	0.583242
H	0.918996	0.651933	-1.92374
C	4.44174	-0.495413	-0.140493
C	4.71712	0.851226	-0.0315326
N	6.04625	1.0674	0.120778
C	6.59334	-0.140533	0.106362
N	5.6674	-1.11632	-0.0488071
H	3.49198	-1.03773	-0.272389
H	3.98058	1.6707	-0.0600907
H	7.66706	-0.367536	0.205524
H	5.84865	-2.14909	-0.0911947
