18
  This energy is -1.0389 and Call times are: 84482
C	-0.975069	0.573325	-0.0833043
C	-0.885725	-0.626292	0.559587
C	0.481283	-1.02629	0.452759
C	1.10662	-0.0357899	-0.245983
O	0.232279	0.949108	-0.58141
H	-1.82859	1.25004	-0.253061
H	-1.7007	-1.17452	1.05895
H	0.93693	-1.9463	0.852822
H	2.15516	0.0843717	-0.564381
C	5.00974	-1.0682	0.49391
C	5.16635	0.141853	1.13608
N	5.10105	1.17267	0.258774
C	4.90468	0.604262	-0.923165
N	4.84232	-0.745477	-0.834251
H	5.0057	-2.10166	0.875343
H	5.32528	0.289577	2.21672
H	4.79945	1.12956	-1.88609
H	4.69459	-1.41799	-1.62619
