18
  This energy is -1.136 and Call times are: 114243
C	-1.1311	0.0758018	0.0356933
C	-0.48648	-0.91178	-0.649524
C	0.908845	-0.672858	-0.459513
C	0.993714	0.439635	0.325044
O	-0.242572	0.910089	0.636942
H	-2.20366	0.29164	0.170892
H	-0.947326	-1.72676	-1.2305
H	1.74494	-1.26576	-0.863872
H	1.86261	0.987911	0.724625
C	7.59105	0.841422	0.226594
C	6.67287	0.310025	1.10734
N	5.91687	-0.64258	0.509411
C	6.36435	-0.701928	-0.737533
N	7.37372	0.173428	-0.957779
H	8.35814	1.62164	0.35456
H	6.54237	0.596916	2.16352
H	5.98857	-1.36842	-1.5305
H	7.89201	0.316075	-1.85905
