18
  This energy is -1.9052 and Call times are: 130906
C	-0.83586	0.58136	-0.49976
C	-0.440863	-0.649584	-0.934648
C	0.618896	-1.05007	-0.0648008
C	0.777951	-0.0285107	0.824852
O	-0.102248	0.976147	0.574004
H	-1.61606	1.26977	-0.863946
H	-0.854296	-1.21849	-1.78289
H	1.1905	-1.99123	-0.104525
H	1.4723	0.102657	1.67097
C	4.18294	-1.088	0.440978
C	4.44917	0.0940815	1.09896
N	4.24904	1.16081	0.287451
C	3.86013	0.642466	-0.869568
N	3.80451	-0.70985	-0.827872
H	4.23428	-2.13658	0.774744
H	4.78207	0.196355	2.1447
H	3.60352	1.20771	-1.78
H	3.52615	-1.34857	-1.61261
