18
  This energy is -0.5629 and Call times are: 63224
C	0.740038	-0.468465	0.720615
C	0.0408356	0.662578	1.02431
C	-0.774411	0.93632	-0.11611
C	-0.501427	-0.0516096	-1.01603
O	0.421306	-0.918279	-0.521597
H	1.48407	-1.0444	1.29504
H	0.0938455	1.24563	1.95776
H	-1.47917	1.77381	-0.242669
H	-0.891729	-0.246663	-2.02838
C	4.85904	-0.198918	0.209126
C	5.52226	1.00519	0.315979
N	6.8331	0.87078	-0.000448404
C	6.98253	-0.411829	-0.302455
N	5.8211	-1.09908	-0.191302
H	3.80568	-0.469894	0.383871
H	5.0784	1.96851	0.615722
H	7.92066	-0.900482	-0.611269
H	5.68031	-2.12262	-0.375133
