18
  This energy is -1.1372 and Call times are: 59586
C	-0.684417	-0.509869	0.746999
C	0.360054	-1.15611	0.153846
C	0.973991	-0.197363	-0.708715
C	0.250491	0.950112	-0.566517
O	-0.766168	0.777324	0.318672
H	-1.43317	-0.850544	1.48086
H	0.667348	-2.20293	0.308231
H	1.85193	-0.353039	-1.35608
H	0.355968	1.94343	-1.03282
C	6.02462	0.595574	-0.41889
C	5.72134	-0.729845	-0.647876
N	4.58096	-1.08758	-0.00907033
C	4.17831	0.0117209	0.613844
N	5.01522	1.05408	0.397859
H	6.85946	1.22399	-0.767712
H	6.30494	-1.4344	-1.26257
H	3.27774	0.108768	1.24137
H	4.91438	2.0263	0.779806
