18
  This energy is -1.0679 and Call times are: 44201
C	-0.520802	-0.976665	0.247571
C	-1.05315	0.237096	0.569691
C	-0.118817	1.21059	0.101233
C	0.902008	0.505776	-0.465802
O	0.673084	-0.831433	-0.385325
H	-0.888256	-2.00296	0.411717
H	-2.008	0.427769	1.08545
H	-0.205208	2.30611	0.181562
H	1.83459	0.833997	-0.953469
C	4.92951	-0.744221	0.902472
C	4.45406	-1.0449	-0.356372
N	4.4387	0.0546419	-1.14839
C	4.90285	1.03372	-0.383799
N	5.2129	0.602713	0.861871
H	5.08119	-1.37247	1.79457
H	4.12184	-2.03551	-0.707324
H	5.03614	2.08501	-0.685875
H	5.59615	1.18387	1.64713
