18
  This energy is -1.1846 and Call times are: 97264
C	-0.0534779	0.0836699	-1.12984
C	1.10654	-0.204588	-0.472855
C	0.774904	-0.223119	0.916313
C	-0.558502	0.0554509	0.985597
O	-1.08055	0.24564	-0.254687
H	-0.276374	0.199682	-2.2032
H	2.09646	-0.385975	-0.92147
H	1.45657	-0.421729	1.75892
H	-1.24284	0.14568	1.84512
C	5.45129	-1.03857	-0.320636
C	4.9451	-0.0635668	-1.15387
N	4.50792	1.00583	-0.445513
C	4.74202	0.69544	0.822351
N	5.31002	-0.527123	0.950054
H	5.8875	-2.02719	-0.534851
H	4.88749	-0.112583	-2.25348
H	4.51708	1.3269	1.69693
H	5.58953	-0.996058	1.84629
