18
  This energy is -1.5193 and Call times are: 90532
C	0.805098	-0.637786	0.48109
C	0.250332	-0.949219	-0.7254
C	-0.709068	0.0751298	-0.99069
C	-0.655885	0.922101	0.0771042
O	0.263461	0.502007	0.985584
H	1.58316	-1.13968	1.0794
H	0.492427	-1.81358	-1.36444
H	-1.35873	0.162897	-1.87631
H	-1.21274	1.84548	0.306293
C	3.88248	0.960046	0.442238
C	4.31468	0.775752	-0.854055
N	4.86546	-0.45187	-1.01562
C	4.77528	-1.02697	0.175912
N	4.18996	-0.216158	1.08891
H	3.39415	1.8164	0.933902
H	4.23897	1.50659	-1.67564
H	5.12208	-2.0403	0.434991
H	4.00551	-0.440727	2.09728
