18
  This energy is -0.9081 and Call times are: 56382
C	0.604733	-0.343918	0.895779
C	-0.273589	-1.16312	0.249379
C	-0.831728	-0.381501	-0.80782
C	-0.245206	0.846338	-0.714134
O	0.634805	0.887106	0.320724
H	1.25952	-0.515282	1.76591
H	-0.505208	-2.21254	0.492635
H	-1.58213	-0.704408	-1.54722
H	-0.367011	1.76252	-1.31499
C	6.94633	1.08878	-0.0209374
C	7.31017	0.0296967	-0.825365
N	6.58955	-1.07909	-0.529023
C	5.78174	-0.709273	0.455504
N	5.95849	0.588854	0.797868
H	7.30838	2.12817	0.0252495
H	8.07972	0.0457609	-1.61427
H	5.04129	-1.34912	0.962019
H	5.44153	1.11437	1.54475
