18
  This energy is -0.9495 and Call times are: 101442
C	0.942307	0.629578	0.0457263
C	-0.210058	1.08017	-0.528206
C	-1.15588	0.0186064	-0.391758
C	-0.498006	-0.986977	0.253511
O	0.784487	-0.631048	0.528354
H	1.92965	1.10319	0.172603
H	-0.377276	2.06163	-1.00029
H	-2.20224	0.0133546	-0.737018
H	-0.826688	-1.99042	0.570242
C	5.65011	-0.620281	-0.998916
C	6.65715	-0.464765	-0.0700273
N	6.25407	0.316243	0.961508
C	5.00174	0.643998	0.67365
N	4.59129	0.103904	-0.498279
H	5.61325	-1.17649	-1.94908
H	7.66734	-0.90211	-0.12567
H	4.33967	1.27687	1.28632
H	3.64649	0.215548	-0.941155
