18
  This energy is -1.2143 and Call times are: 64012
C	0.479328	0.865837	-0.55405
C	-0.751352	0.379139	-0.884088
C	-1.0056	-0.691335	0.0267145
C	0.0921571	-0.764289	0.832928
O	1.00905	0.179301	0.492407
H	1.07981	1.68584	-0.980983
H	-1.41368	0.737951	-1.68825
H	-1.90424	-1.32752	0.0691373
H	0.338879	-1.43375	1.67329
C	5.0305	-0.552459	-1.02526
C	6.22934	-0.38058	-0.366187
N	6.05719	0.303907	0.790685
C	4.7565	0.555707	0.849085
N	4.09392	0.0598069	-0.222673
H	4.78573	-1.05053	-1.97686
H	7.21543	-0.738203	-0.704693
H	4.23656	1.09939	1.65426
H	3.06314	0.128619	-0.407107
