18
  This energy is -0.5977 and Call times are: 137816
C	-0.645357	-0.474419	0.803021
C	-0.696202	0.858443	0.517945
C	0.247276	1.06968	-0.533409
C	0.791379	-0.152743	-0.797991
O	0.257827	-1.10736	0.00888044
H	-1.1935	-1.08625	1.53818
H	-1.3341	1.6168	0.99969
H	0.48633	2.02438	-1.02889
H	1.55599	-0.470657	-1.52569
C	6.24576	-0.504791	-1.00535
C	4.96723	-0.107282	-0.675953
N	4.92929	0.437966	0.564118
C	6.17952	0.378938	1.00236
N	7.01137	-0.181265	0.0925314
H	6.65142	-0.979179	-1.91306
H	4.07148	-0.20414	-1.31086
H	6.54089	0.731625	1.98178
H	8.043	-0.339083	0.202503
