18
  This energy is -0.9416 and Call times are: 70849
C	0.0503358	-0.778739	-0.823063
C	1.13924	-0.0549457	-0.434747
C	0.683742	0.80715	0.609011
C	-0.643298	0.534068	0.76638
O	-1.04697	-0.432006	-0.100083
H	-0.0722963	-1.55986	-1.59122
H	2.16075	-0.121452	-0.842418
H	1.28187	1.54196	1.1715
H	-1.39971	0.952472	1.45051
C	5.56462	1.05405	-0.451714
C	5.04862	-0.0305416	-1.12887
N	4.86537	-1.08419	-0.296555
C	5.26616	-0.654885	0.89243
N	5.69682	0.628241	0.851127
H	5.83797	2.06504	-0.793352
H	4.80527	-0.0716787	-2.20309
H	5.2656	-1.2388	1.82692
H	6.06189	1.19141	1.65787
