18
  This energy is -0.4883 and Call times are: 94938
C	0.437853	-0.190999	1.02869
C	-0.840967	-0.536359	0.703549
C	-1.01879	-0.140855	-0.657361
C	0.16707	0.411277	-1.04371
O	1.06809	0.388937	-0.0265268
H	1.00995	-0.302874	1.96434
H	-1.58448	-1.021	1.35655
H	-1.92758	-0.257883	-1.26932
H	0.49175	0.849706	-2.00164
C	6.32463	-0.290551	-0.500809
C	5.07736	-0.325964	-1.0875
N	4.11746	0.0759729	-0.219427
C	4.76677	0.359658	0.901532
N	6.10001	0.154882	0.782671
H	7.32288	-0.542404	-0.892742
H	4.85288	-0.634333	-2.1216
H	4.31477	0.720976	1.83928
H	6.82455	0.306539	1.52651
