18
  This energy is -1.1373 and Call times are: 18528
C	-0.534582	0.86092	-0.509353
C	-0.716021	0.566588	0.81005
C	0.114552	-0.564548	1.07613
C	0.730222	-0.861584	-0.104166
O	0.345436	-0.00117185	-1.08327
H	-0.967397	1.64736	-1.14922
H	-1.36922	1.09319	1.52428
H	0.233368	-1.08933	2.03768
H	1.45307	-1.64901	-0.373814
C	3.99123	0.136187	0.735313
C	4.52414	-1.05501	0.290116
N	5.56667	-0.840677	-0.548756
C	5.68008	0.478469	-0.623689
N	4.75293	1.11235	0.132733
H	3.15186	0.351138	1.4156
H	4.17507	-2.06526	0.559174
H	6.4245	1.03282	-1.21763
H	4.63651	2.14977	0.239782
