18
  This energy is -1.443 and Call times are: 52967
C	0.0312788	1.0314	0.470786
C	-0.810558	0.0527222	0.911101
C	-0.559084	-1.08202	0.080898
C	0.414225	-0.696598	-0.793454
O	0.786612	0.591146	-0.569724
H	0.18655	2.06901	0.809187
H	-1.53586	0.122849	1.73761
H	-1.05064	-2.06663	0.135736
H	0.919398	-1.23787	-1.6102
C	4.80158	1.03355	-0.475307
C	5.49639	-0.153839	-0.567461
N	4.85977	-1.14568	0.101471
C	3.77415	-0.575775	0.606692
N	3.69363	0.737568	0.286944
H	5.0102	2.03481	-0.884561
H	6.44565	-0.31263	-1.10464
H	3.00481	-1.0741	1.21827
H	2.93226	1.40349	0.566445
