18
  This energy is -1.1516 and Call times are: 96653
C	1.0349	-0.254698	0.387963
C	0.609389	-0.623359	-0.854375
C	-0.725094	-0.128296	-0.973482
C	-0.997263	0.499189	0.206585
O	0.0664517	0.431691	1.04977
H	1.9912	-0.417889	0.911524
H	1.17819	-1.18734	-1.611
H	-1.39669	-0.232124	-1.84082
H	-1.89777	1.02483	0.56442
C	5.49495	0.660745	-0.968231
C	6.61144	-0.0380061	-0.560385
N	6.38021	-0.69221	0.603687
C	5.12505	-0.400418	0.916808
N	4.54807	0.412324	0.000219028
H	5.31328	1.29601	-1.84969
H	7.57968	-0.0818266	-1.08521
H	4.57902	-0.755151	1.80577
H	3.56644	0.782664	0.0229689
