18
  This energy is -1.1118 and Call times are: 100606
C	0.42646	0.919684	-0.50864
C	-0.239301	-0.0524196	-1.19577
C	-0.616581	-1.02925	-0.224397
C	-0.148066	-0.567847	0.97058
O	0.491549	0.621226	0.815632
H	0.895287	1.86006	-0.842024
H	-0.444166	-0.0789479	-2.2781
H	-1.17212	-1.96374	-0.403832
H	-0.204187	-0.986639	1.98877
C	4.27837	-0.200695	-0.907778
C	3.94833	-0.21637	0.430867
N	5.02733	0.0583343	1.2034
C	6.02296	0.243723	0.347269
N	5.62218	0.0983629	-0.937969
H	3.67227	-0.375365	-1.81093
H	2.95098	-0.420971	0.853104
H	7.06541	0.488035	0.60774
H	6.22103	0.195054	-1.79429
