18
  This energy is -0.6185 and Call times are: 43526
C	-0.753304	-0.577886	-0.620469
C	-0.547323	-0.834104	0.703275
C	0.46057	0.084899	1.12719
C	0.781523	0.82158	0.0250719
O	0.0498243	0.430283	-1.05127
H	-1.43358	-1.0366	-1.35671
H	-1.05428	-1.59402	1.3194
H	0.890446	0.179184	2.13734
H	1.50363	1.64156	-0.121337
C	6.8763	0.00313014	-0.476084
C	6.32293	-0.983707	0.312001
N	5.06227	-0.658858	0.688468
C	4.83443	0.525005	0.136035
N	5.89787	0.966875	-0.576322
H	7.86417	0.0850492	-0.956642
H	6.81073	-1.92428	0.6157
H	3.90617	1.11265	0.221088
H	5.96436	1.8713	-1.10438
