18
  This energy is -1.5059 and Call times are: 96845
C	0.605025	0.56497	-0.775342
C	0.382005	-0.777996	-0.859466
C	-0.407225	-1.11555	0.282153
C	-0.596821	0.0509441	0.963125
O	0.0144838	1.0875	0.331562
H	1.16017	1.25634	-1.43038
H	0.737594	-1.46228	-1.64649
H	-0.785218	-2.11359	0.556258
H	-1.13981	0.272645	1.89654
C	4.30823	-0.671182	0.960674
C	4.55733	-1.04562	-0.342739
N	4.32895	-0.0195588	-1.19804
C	3.93965	0.987594	-0.428167
N	3.91086	0.644882	0.881531
H	4.38311	-1.22949	1.90736
H	4.89775	-2.03776	-0.681315
H	3.66371	1.99759	-0.771665
H	3.63785	1.26379	1.68383
