18
  This energy is -1.4323 and Call times are: 59843
C	-0.255088	0.344759	-1.04999
C	-0.623689	-0.878833	-0.573195
C	-0.128088	-0.942575	0.764876
C	0.499619	0.247692	0.987639
O	0.43176	1.04607	-0.110086
H	-0.418624	0.828247	-2.0271
H	-1.18798	-1.65833	-1.10991
H	-0.231717	-1.78132	1.47189
H	1.02566	0.642489	1.87232
C	3.91332	0.247372	1.08369
C	3.95005	1.10273	0.00287465
N	4.457	0.485366	-1.09183
C	4.73372	-0.748293	-0.691661
N	4.42385	-0.941461	0.612279
H	3.57142	0.395589	2.12035
H	3.61984	2.15426	-0.00664843
H	5.16433	-1.55037	-1.31253
H	4.54872	-1.82795	1.15983
