18
  This energy is -1.2004 and Call times are: 5152
C	-0.617368	-0.419833	-0.853814
C	0.503513	-1.042	-0.388077
C	0.99439	-0.220859	0.672531
C	0.130144	0.830603	0.761289
O	-0.860276	0.725283	-0.163367
H	-1.32002	-0.686624	-1.66026
H	0.94079	-1.98461	-0.754629
H	1.88793	-0.400232	1.29181
H	0.110501	1.70635	1.43057
C	5.47773	-0.965594	0.661643
C	6.65727	-0.332086	0.332238
N	6.42813	0.7532	-0.446326
C	5.11145	0.792822	-0.59934
N	4.49333	-0.222265	0.0495931
H	5.27592	-1.86285	1.26806
H	7.66952	-0.638663	0.642404
H	4.5478	1.54348	-1.17643
H	3.4609	-0.407707	0.0805811
