18
  This energy is -0.7729 and Call times are: 54717
C	0.423598	0.102236	1.04715
C	1.01102	0.682833	-0.0383126
C	0.196711	0.331829	-1.15805
C	-0.816437	-0.432276	-0.658003
O	-0.693623	-0.58274	0.687095
H	0.698929	0.101795	2.11459
H	1.92597	1.2967	-0.0493747
H	0.35477	0.61944	-2.2099
H	-1.67414	-0.921106	-1.14856
C	5.64506	0.340883	1.11707
C	4.94296	1.00514	0.133725
N	4.9823	0.32594	-1.0383
C	5.70604	-0.755564	-0.78302
N	6.12883	-0.792643	0.502852
H	5.82854	0.586404	2.17518
H	4.40873	1.96231	0.248931
H	5.95694	-1.5526	-1.50137
H	6.71372	-1.54209	0.947254
