18
  This energy is -1.0332 and Call times are: 119865
C	-0.885655	0.696243	0.131383
C	-0.0659004	0.353836	1.16634
C	0.915757	-0.524195	0.613593
C	0.609222	-0.64083	-0.710342
O	-0.488089	0.0978409	-1.02225
H	-1.7735	1.34816	0.0867856
H	-0.144594	0.686219	2.21392
H	1.74951	-1.00794	1.1474
H	1.08726	-1.2106	-1.52403
C	6.09999	-0.373232	0.660154
C	4.93556	-1.05846	0.385
N	4.11539	-0.328827	-0.409654
C	4.76853	0.804726	-0.626658
N	5.97027	0.826587	-0.00301604
H	6.98234	-0.645427	1.26091
H	4.67253	-2.06623	0.745629
H	4.41278	1.65219	-1.23451
H	6.6699	1.60854	-0.0212096
