18
  This energy is -0.7804 and Call times are: 119096
C	-0.905057	0.419242	0.539915
C	-0.94588	0.0424345	-0.770323
C	0.366536	-0.426209	-1.08346
C	1.0935	-0.294412	0.0630669
O	0.332729	0.220409	1.06466
H	-1.67843	0.837806	1.20471
H	-1.81318	0.0897528	-1.44829
H	0.719116	-0.814491	-2.05249
H	2.14623	-0.527919	0.292166
C	6.49921	-0.419173	-0.97908
C	6.52407	-1.02173	0.260861
N	7.1882	-0.257979	1.16204
C	7.57388	0.814307	0.483753
N	7.18268	0.764478	-0.811649
H	6.05823	-0.738272	-1.93681
H	6.07471	-1.99387	0.52136
H	8.14517	1.66601	0.886828
H	7.36523	1.4894	-1.54814
