18
  This energy is -0.8405 and Call times are: 137945
C	-1.00193	0.526576	-0.0724373
C	-0.798664	-0.547751	0.742962
C	0.566771	-0.924801	0.559824
C	1.07736	-0.0475981	-0.351321
O	0.133181	0.845716	-0.748215
H	-1.89596	1.14392	-0.25913
H	-1.53626	-1.02667	1.40681
H	1.09834	-1.75418	1.05344
H	2.0832	0.0451218	-0.792833
C	4.96942	0.0823278	-1.04728
C	5.35281	1.1243	-0.229699
N	5.93739	0.666322	0.903893
C	5.91674	-0.654747	0.789993
N	5.34325	-1.05631	-0.369081
H	4.47356	0.0708966	-2.03092
H	5.2181	2.19833	-0.437459
H	6.30807	-1.37546	1.52597
H	5.20896	-2.04639	-0.689966
