18
  This energy is -1.2488 and Call times are: 136307
C	0.313734	-0.401912	1.01313
C	0.106015	-1.21439	-0.0625586
C	-0.270827	-0.35196	-1.13695
C	-0.260125	0.911399	-0.622966
O	0.0946549	0.899584	0.688904
H	0.615639	-0.624257	2.04979
H	0.207937	-2.31101	-0.0960923
H	-0.519178	-0.646963	-2.16913
H	-0.482558	1.88904	-1.08122
C	4.84392	0.548224	1.01245
C	3.89051	-0.426656	0.808123
N	3.88089	-0.837702	-0.483179
C	4.82476	-0.120552	-1.07768
N	5.43452	0.729755	-0.218175
H	5.13424	1.10701	1.91634
H	3.20939	-0.840796	1.56932
H	5.11052	-0.17812	-2.14035
H	6.20953	1.39967	-0.44585
