18
  This energy is -1.8117 and Call times are: 70753
C	-0.0228346	1.10185	0.267985
C	0.820133	0.597605	-0.678335
C	0.55615	-0.80518	-0.729569
C	-0.42483	-1.03433	0.189965
O	-0.790426	0.119214	0.808587
H	-0.171004	2.12781	0.643074
H	1.5542	1.15733	-1.27995
H	1.04485	-1.54933	-1.37881
H	-0.940306	-1.9602	0.493769
C	4.11167	-0.900006	0.318247
C	5.20043	-0.40741	1.00606
N	5.76163	0.636795	0.349397
C	5.02382	0.791407	-0.741639
N	4.01645	-0.111138	-0.80639
H	3.42093	-1.72846	0.542034
H	5.59109	-0.786748	1.96436
H	5.17715	1.54973	-1.52629
H	3.29947	-0.194149	-1.56817
