18
  This energy is -0.9217 and Call times are: 37630
C	-0.653413	0.909069	-0.181786
C	0.502525	0.97283	0.539406
C	1.03276	-0.353414	0.546259
C	0.15403	-1.11055	-0.171349
O	-0.881742	-0.355743	-0.623519
H	-1.39245	1.6824	-0.448308
H	0.938114	1.86436	1.0185
H	1.96119	-0.69462	1.03173
H	0.152756	-2.18256	-0.428336
C	5.4518	1.08055	-0.128899
C	6.77728	0.716263	-0.236274
N	6.93712	-0.613147	-0.027395
C	5.71544	-1.07184	0.208664
N	4.78492	-0.0893956	0.158641
H	4.95256	2.05698	-0.233275
H	7.62114	1.38886	-0.460718
H	5.44586	-2.11838	0.423882
H	3.7522	-0.198185	0.31005
