18
  This energy is -0.8308 and Call times are: 93814
C	-0.70592	0.31151	-0.831288
C	-1.0539	0.378353	0.485836
C	0.0810338	-0.0919483	1.21444
C	1.02236	-0.404669	0.278238
O	0.558735	-0.164488	-0.976503
H	-1.26093	0.569646	-1.74812
H	-2.01353	0.724152	0.902529
H	0.176316	-0.183291	2.30837
H	2.04649	-0.800911	0.37519
C	5.85468	-1.0306	-0.123697
C	5.01257	-0.662212	0.90407
N	4.54859	0.598755	0.72746
C	5.10075	1.01107	-0.405561
N	5.89682	0.0647224	-0.957178
H	6.40846	-1.96356	-0.314586
H	4.73148	-1.28369	1.76986
H	4.95607	1.99668	-0.876603
H	6.44222	0.149267	-1.84973
