18
  This energy is -1.4304 and Call times are: 26998
C	0.00746183	0.811493	-0.792354
C	0.625589	0.96286	0.414038
C	0.3973	-0.254278	1.12578
C	-0.340178	-1.04197	0.291495
O	-0.587465	-0.406953	-0.884349
H	-0.0803366	1.48742	-1.65877
H	1.18608	1.84329	0.767287
H	0.745598	-0.505166	2.14059
H	-0.745618	-2.05958	0.415404
C	3.93484	0.614867	0.889189
C	4.30192	-0.7141	0.904943
N	4.8041	-1.09656	-0.294243
C	4.74877	-0.00900054	-1.05106
N	4.23221	1.04959	-0.383123
H	3.49763	1.26048	1.66738
H	4.2134	-1.40382	1.7601
H	5.07331	0.0675898	-2.10132
H	4.08607	2.01715	-0.762236
