18
  This energy is -1.608 and Call times are: 119608
C	0.555206	-0.906871	0.394629
C	0.333412	-0.708366	-0.936452
C	-0.384799	0.522406	-1.03388
C	-0.538491	0.967358	0.246262
O	0.0295123	0.106801	1.1316
H	1.06725	-1.71828	0.93746
H	0.644371	-1.36297	-1.76645
H	-0.741412	1.01179	-1.95444
H	-1.02576	1.86844	0.65353
C	4.95553	0.388898	1.081
C	5.71622	0.549961	-0.0576699
N	5.11946	-0.0259255	-1.12947
C	3.99286	-0.542289	-0.657511
N	3.84805	-0.31882	0.67015
H	5.1185	0.716879	2.11994
H	6.68494	1.07138	-0.12505
H	3.23795	-1.09401	-1.24056
H	3.0451	-0.626128	1.2719
