18
  This energy is -0.9009 and Call times are: 111447
C	-0.242153	0.643345	0.902147
C	-0.766514	0.889773	-0.332637
C	-0.234634	-0.119666	-1.19185
C	0.567798	-0.893838	-0.406275
O	0.574979	-0.442288	0.875545
H	-0.370805	1.15994	1.86746
H	-1.45844	1.70101	-0.61054
H	-0.432181	-0.246696	-2.26839
H	1.1792	-1.78178	-0.636476
C	4.45048	-0.505848	0.166476
C	4.7541	0.832692	0.297884
N	6.06207	1.06558	0.0305361
C	6.56796	-0.123958	-0.265601
N	5.63609	-1.10406	-0.197758
H	3.50612	-1.05666	0.301865
H	4.05282	1.63457	0.58081
H	7.61453	-0.333894	-0.539205
H	5.78783	-2.12512	-0.386635
