18
  This energy is -0.8047 and Call times are: 98816
C	0.603767	0.227172	-0.932877
C	-0.727912	-0.0643719	-0.977696
C	-1.12508	-0.287559	0.376026
C	-0.00104322	-0.112699	1.12858
O	1.06421	0.202121	0.345551
H	1.32683	0.467294	-1.7296
H	-1.36648	-0.116984	-1.87411
H	-2.13281	-0.547622	0.737885
H	0.169405	-0.183119	2.21543
C	6.20848	-0.00185091	-0.939758
C	6.4609	0.57752	0.285705
N	5.42544	0.386819	1.13892
C	4.53404	-0.308214	0.445401
N	4.95941	-0.567645	-0.813704
H	6.80927	-0.0499566	-1.86186
H	7.3716	1.12971	0.569514
H	3.5535	-0.653203	0.811123
H	4.4372	-1.09863	-1.55303
