18
  This energy is -2.4119 and Call times are: 84213
C	-0.304391	-0.898687	0.621377
C	-0.136622	0.341436	1.16389
C	0.240883	1.19381	0.0817339
C	0.270478	0.399316	-1.02654
O	-0.0598793	-0.881722	-0.715387
H	-0.592159	-1.86183	1.07391
H	-0.265751	0.627296	2.22016
H	0.462644	2.27195	0.132146
H	0.507971	0.622164	-2.07972
C	4.39972	-0.968127	0.661725
C	5.37118	-0.412741	-0.143842
N	4.91337	0.701994	-0.763745
C	3.66264	0.837644	-0.344343
N	3.30568	-0.144573	0.516715
H	4.40918	-1.86133	1.30642
H	6.39423	-0.796405	-0.288865
H	2.96382	1.63808	-0.636219
H	2.37318	-0.257276	0.984688
