18
  This energy is -0.9669 and Call times are: 118968
C	0.670743	0.570694	-0.714712
C	0.129424	1.14709	0.396647
C	-0.642016	0.125693	1.03049
C	-0.504011	-0.984693	0.250506
O	0.294392	-0.730983	-0.819632
H	1.33102	0.974411	-1.49976
H	0.26024	2.18718	0.736043
H	-1.22825	0.216408	1.95903
H	-0.917116	-2.00214	0.347386
C	5.35831	0.512671	0.955099
C	4.19592	0.866459	0.303314
N	3.96812	0.0601178	-0.761785
C	4.98533	-0.790667	-0.770724
N	5.8509	-0.559078	0.244535
H	5.85332	0.933687	1.84462
H	3.51755	1.68909	0.582502
H	5.14536	-1.60275	-1.49815
H	6.72978	-1.09403	0.451055
