18
  This energy is -1.13 and Call times are: 127629
C	0.381385	0.827574	-0.675328
C	0.042515	1.04599	0.627682
C	-0.385187	-0.217813	1.13758
C	-0.269923	-1.09696	0.101141
O	0.196803	-0.475639	-1.01382
H	0.761556	1.50713	-1.45567
H	0.0890633	2.00124	1.17489
H	-0.736185	-0.437261	2.15872
H	-0.484858	-2.17586	0.0302689
C	4.18917	-0.584589	-0.146888
C	4.4878	0.680519	-0.606746
N	5.74548	1.04362	-0.256181
C	6.22527	0.00770929	0.418592
N	5.32499	-0.999457	0.511895
H	3.27913	-1.19853	-0.238752
H	3.81829	1.33779	-1.1852
H	7.22953	-0.0660581	0.866071
H	5.46545	-1.92083	0.994188
