18
  This energy is -1.3651 and Call times are: 54429
C	1.0233	-0.482398	-0.0808826
C	0.82502	0.707646	0.555398
C	-0.572819	0.980601	0.447424
C	-1.10534	-0.0667395	-0.245306
O	-0.144844	-0.969594	-0.57594
H	1.93498	-1.07933	-0.247546
H	1.5867	1.33076	1.05106
H	-1.11042	1.85742	0.842723
H	-2.13862	-0.283882	-0.562205
C	4.90029	-1.08053	-0.421496
C	5.72883	-0.120925	-0.963552
N	5.72071	1.00996	-0.216857
C	4.8903	0.752894	0.78462
N	4.36971	-0.494669	0.706085
H	4.65876	-2.10471	-0.747484
H	6.33232	-0.224308	-1.88004
H	4.62761	1.44269	1.60279
H	3.69119	-0.932267	1.37644
