18
  This energy is -2.113 and Call times are: 128238
C	-0.30612	-0.73601	-0.806833
C	0.320248	-1.1278	0.339699
C	0.538802	0.0657103	1.09328
C	0.0266958	1.08148	0.340727
O	-0.49337	0.609979	-0.822988
H	-0.665286	-1.31027	-1.67659
H	0.60029	-2.15429	0.626043
H	1.02199	0.148581	2.08007
H	-0.028374	2.16787	0.519501
C	4.32209	-0.645597	0.834095
C	3.90921	-1.07678	-0.408785
N	3.34585	-0.0661475	-1.11432
C	3.40901	0.987991	-0.312176
N	3.9892	0.689969	0.874483
H	4.81288	-1.17693	1.66497
H	4.00771	-2.09899	-0.809076
H	3.04529	2.00204	-0.54378
H	4.15403	1.35046	1.67313
