18
  This energy is -0.9718 and Call times are: 43270
C	0.178554	0.158089	-1.10884
C	0.161299	1.19022	-0.21734
C	-0.0887126	0.600169	1.05916
C	-0.202165	-0.740452	0.835022
O	-0.0416875	-1.02826	-0.483472
H	0.334987	0.136926	-2.19986
H	0.309735	2.25979	-0.43663
H	-0.172661	1.12128	2.02636
H	-0.393599	-1.58262	1.52012
C	4.03859	0.02488	-0.188701
C	4.6828	0.150502	1.02388
N	6.02744	0.0752075	0.87293
C	6.21669	-0.0964721	-0.428352
N	5.0482	-0.133533	-1.11162
H	2.96883	0.0366104	-0.4514
H	4.20145	0.294117	2.00497
H	7.19014	-0.200866	-0.934045
H	4.93324	-0.259031	-2.14714
