18
  This energy is -1.1618 and Call times are: 13386
C	0.303893	1.09071	-0.0664088
C	-0.99288	0.70269	0.101509
C	-0.972251	-0.725031	0.137645
C	0.335307	-1.08344	-0.0113811
O	1.12861	0.012831	-0.13735
H	0.763336	2.08936	-0.149208
H	-1.87543	1.35629	0.190953
H	-1.83563	-1.39848	0.260676
H	0.823453	-2.07132	-0.0439019
C	4.5978	1.16002	0.0182849
C	4.16512	0.41118	-1.05558
N	4.0438	-0.896704	-0.722059
C	4.39987	-0.959007	0.553856
N	4.74271	0.255019	1.04599
H	4.8059	2.23695	0.12047
H	3.9383	0.791179	-2.06503
H	4.4276	-1.86814	1.1759
H	5.0587	0.466577	2.02407
