18
  This energy is -1.4478 and Call times are: 727
C	0.905347	-0.482182	-0.483992
C	-0.272999	-0.309236	-1.1488
C	-1.15667	0.321437	-0.22063
C	-0.440317	0.478213	0.929427
O	0.821088	-0.00700737	0.786489
H	1.86481	-0.923884	-0.799548
H	-0.497413	-0.59692	-2.18849
H	-2.20245	0.61996	-0.397605
H	-0.710393	0.914031	1.90532
C	4.25277	-0.0877865	1.14729
C	4.36496	1.07284	0.411414
N	4.65951	0.803711	-0.8837
C	4.72979	-0.518844	-0.951026
N	4.49216	-1.10237	0.247565
H	4.02705	-0.257857	2.21202
H	4.23864	2.09959	0.791781
H	4.95195	-1.11153	-1.85302
H	4.49058	-2.13159	0.452445
