18
  This energy is -0.8567 and Call times are: 32566
C	0.475687	1.00153	0.238878
C	1.11531	-0.182466	0.461177
C	0.207918	-1.2021	0.0403241
C	-0.906093	-0.551172	-0.402002
O	-0.759954	0.79518	-0.288022
H	0.787928	2.0447	0.410754
H	2.12482	-0.323655	0.879549
H	0.374023	-2.29102	0.0675155
H	-1.85639	-0.92671	-0.815702
C	7.91216	0.699649	0.25208
C	6.91321	0.941244	-0.66709
N	6.02152	-0.0787472	-0.699074
C	6.46561	-0.949804	0.196847
N	7.60289	-0.526319	0.797551
H	8.7919	1.29357	0.546796
H	6.8199	1.83326	-1.30776
H	5.99646	-1.91352	0.452542
H	8.14564	-1.03498	1.53778
