18
  This energy is -0.8029 and Call times are: 132229
C	1.047	-0.392343	-0.190402
C	-0.0427676	-0.862945	-0.862197
C	-1.16078	-0.134585	-0.352641
C	-0.655522	0.71681	0.585554
O	0.691223	0.572902	0.697705
H	2.11498	-0.658559	-0.252003
H	-0.0578231	-1.64458	-1.63868
H	-2.21503	-0.239213	-0.65549
H	-1.14315	1.46404	1.23295
C	5.4741	0.496014	-1.06695
C	6.17486	0.939061	0.0347657
N	5.97598	0.125322	1.10003
C	5.15495	-0.818954	0.660839
N	4.8232	-0.63976	-0.639708
H	5.39517	0.895269	-2.09063
H	6.8204	1.83129	0.0800876
H	4.76538	-1.66502	1.24959
H	4.19067	-1.2498	-1.21331
