18
  This energy is -0.9835 and Call times are: 87650
C	0.317877	1.06651	0.21891
C	0.818671	-0.000440626	0.905354
C	0.186483	-1.15446	0.349756
C	-0.644824	-0.690849	-0.62716
O	-0.577279	0.663283	-0.720834
H	0.515347	2.14781	0.302833
H	1.55899	0.0228484	1.72112
H	0.339192	-2.20383	0.649097
H	-1.32698	-1.21525	-1.3163
C	6.40684	0.381828	0.119222
C	5.9303	-0.8786	0.411417
N	4.60303	-0.97101	0.153905
C	4.25747	0.227532	-0.296331
N	5.30986	1.0787	-0.335964
H	7.41531	0.817661	0.200288
H	6.52041	-1.72297	0.803428
H	3.24743	0.535832	-0.610965
H	5.29331	2.07893	-0.653032
