18
  This energy is -0.8472 and Call times are: 64740
C	-1.07319	0.319594	0.180358
C	-0.624852	-0.934109	0.476328
C	0.75651	-0.95116	0.113471
C	1.03036	0.293629	-0.372203
O	-0.0756136	1.08275	-0.338733
H	-2.06595	0.785996	0.290598
H	-1.20835	-1.76367	0.906969
H	1.45698	-1.79657	0.206838
H	1.95963	0.736306	-0.766844
C	6.28227	-0.189324	1.0051
C	6.53966	0.792629	0.0720046
N	5.67202	0.719415	-0.966427
C	4.87937	-0.304066	-0.678645
N	5.20671	-0.885095	0.499847
H	6.77202	-0.434067	1.96101
H	7.33588	1.55262	0.129468
H	4.04358	-0.670837	-1.29603
H	4.73169	-1.70868	0.944045
