18
  This energy is -0.8414 and Call times are: 114985
C	1.11599	-0.0114436	-0.202103
C	0.204893	-0.469316	-1.10799
C	-1.07496	-0.291728	-0.499252
C	-0.83298	0.258989	0.724893
O	0.499694	0.437083	0.923073
H	2.21615	0.0484966	-0.238097
H	0.413194	-0.889927	-2.10488
H	-2.05627	-0.547273	-0.930323
H	-1.5136	0.566026	1.5359
C	4.87686	0.970219	-0.235513
C	5.48241	0.645553	0.959913
N	6.1172	-0.548923	0.877537
C	5.90625	-0.9637	-0.36427
N	5.16356	-0.0826483	-1.07543
H	4.28204	1.84675	-0.537872
H	5.47265	1.25179	1.88037
H	6.27281	-1.90483	-0.804887
H	4.86334	-0.182556	-2.076
