18
  This energy is -1.2593 and Call times are: 122180
C	0.749298	0.440465	-0.728659
C	-0.588861	0.403568	-0.990082
C	-1.19247	-0.215165	0.146994
C	-0.169883	-0.501747	1.00289
O	1.02305	-0.108203	0.484202
H	1.59871	0.825494	-1.31646
H	-1.09965	0.774815	-1.89306
H	-2.26431	-0.419027	0.300923
H	-0.160333	-0.977624	1.99722
C	4.61453	0.639609	0.795749
C	5.93474	0.78569	0.425827
N	6.28065	-0.121836	-0.519294
C	5.17922	-0.828234	-0.73488
N	4.14685	-0.407787	0.0338932
H	3.99539	1.18856	1.52297
H	6.64387	1.52966	0.823954
H	5.07347	-1.66444	-1.44467
H	3.17526	-0.80416	0.0470706
