18
  This energy is -0.9198 and Call times are: 56702
C	0.891025	0.440516	0.54628
C	-0.130754	1.21128	0.0748247
C	-1.049	0.308168	-0.542701
C	-0.507286	-0.934747	-0.394093
O	0.677554	-0.872647	0.268711
H	1.81429	0.702471	1.0887
H	-0.22808	2.30597	0.153974
H	-1.99982	0.563429	-1.03754
H	-0.861669	-1.92938	-0.710901
C	5.22179	-0.0443671	-1.17346
C	4.32192	-0.558633	-0.264122
N	4.72698	-0.327583	1.0083
C	5.87379	0.327529	0.888786
N	6.21519	0.522883	-0.406927
H	5.22544	-0.0419989	-2.27506
H	3.38764	-1.09225	-0.503364
H	6.50453	0.687607	1.71748
H	7.07317	1.01307	-0.760279
