18
  This energy is -1.2392 and Call times are: 88617
C	0.755474	-0.589907	0.606358
C	0.883296	0.749741	0.384141
C	-0.24521	1.12422	-0.407284
C	-0.963025	-0.0196396	-0.59883
O	-0.366466	-1.07625	0.0132917
H	1.38673	-1.30225	1.16253
H	1.69122	1.40817	0.741671
H	-0.486224	2.13073	-0.785377
H	-1.90197	-0.210926	-1.14384
C	4.76316	-0.601831	0.857142
C	5.82873	-1.02499	0.0912152
N	6.19425	-0.0758015	-0.804296
C	5.35862	0.932377	-0.594716
N	4.47657	0.664005	0.397022
H	4.20708	-1.09544	1.66995
H	6.34033	-1.99819	0.168721
H	5.34853	1.89039	-1.13909
H	3.71875	1.29919	0.748473
