18
  This energy is -0.9498 and Call times are: 135506
C	-0.228554	-0.431718	-1.02361
C	0.671505	0.576621	-0.840522
C	0.68247	0.840852	0.563108
C	-0.211855	-0.0293442	1.11385
O	-0.777614	-0.814083	0.159325
H	-0.562626	-0.957298	-1.93324
H	1.26788	1.0835	-1.61609
H	1.28904	1.59333	1.0922
H	-0.530671	-0.187272	2.15724
C	4.88724	0.317706	1.01056
C	4.48704	0.659859	-0.263771
N	5.30898	0.119181	-1.19576
C	6.21564	-0.555827	-0.502241
N	6.00465	-0.467048	0.832372
H	4.46986	0.568752	1.99865
H	3.61996	1.28716	-0.52741
H	7.05563	-1.13273	-0.921557
H	6.58222	-0.911365	1.58752
