18
  This energy is -1.8486 and Call times are: 33120
C	-0.579065	-0.893815	-0.390103
C	0.169229	-0.948868	0.748932
C	0.736326	0.352433	0.907471
C	0.284514	1.08782	-0.148677
O	-0.520078	0.342545	-0.951304
H	-1.19192	-1.65533	-0.899758
H	0.307946	-1.8186	1.41107
H	1.40215	0.692254	1.71697
H	0.460714	2.13693	-0.437741
C	5.48841	-1.16916	-0.0754663
C	4.88105	-0.226444	-0.877672
N	5.2334	1.02908	-0.508854
C	6.05623	0.865865	0.518251
N	6.24201	-0.441454	0.818235
H	5.43932	-2.26968	-0.077257
H	4.19491	-0.429711	-1.71597
H	6.55078	1.66953	1.08726
H	6.84521	-0.827205	1.58544
