18
  This energy is -0.9347 and Call times are: 102686
C	-0.0204763	1.13396	0.0112068
C	0.790936	0.426306	-0.826179
C	0.534679	-0.95093	-0.547484
C	-0.410707	-0.963311	0.435606
O	-0.761327	0.301302	0.788922
H	-0.161804	2.21859	0.148509
H	1.4989	0.833319	-1.56592
H	1.00446	-1.82405	-1.02818
H	-0.908592	-1.79497	0.960686
C	6.22294	0.708054	0.454453
C	6.32727	-0.0542689	-0.689716
N	5.18751	-0.750798	-0.918406
C	4.37917	-0.421833	0.0800922
N	4.95737	0.455132	0.934615
H	6.93594	1.38989	0.944619
H	7.20452	-0.114174	-1.35431
H	3.35339	-0.79385	0.233721
H	4.52413	0.864416	1.79836
