18
  This energy is -0.8878 and Call times are: 123706
C	0.741624	-0.728601	0.45336
C	1.13149	0.318556	-0.328841
C	-0.0693931	0.994917	-0.703714
C	-1.08709	0.301367	-0.1175
O	-0.609984	-0.754353	0.593017
H	1.32101	-1.51583	0.963108
H	2.16141	0.5877	-0.613309
H	-0.155687	1.89273	-1.33662
H	-2.17862	0.455232	-0.129349
C	4.91929	0.879901	0.384058
C	5.64832	0.000189068	1.15592
N	6.31923	-0.88794	0.382866
C	6.00761	-0.560444	-0.863834
N	5.16623	0.499243	-0.916061
H	4.26409	1.72179	0.658791
H	5.70223	-0.00959387	2.25676
H	6.36757	-1.06327	-1.77588
H	4.77629	0.945793	-1.78197
