18
  This energy is -1.0794 and Call times are: 41986
C	0.663602	-0.122037	0.911669
C	0.887338	0.837574	-0.0314434
C	-0.143166	0.674809	-1.00699
C	-0.905659	-0.369897	-0.573898
O	-0.427393	-0.868592	0.596391
H	1.2011	-0.373438	1.84072
H	1.69684	1.58506	-0.0393617
H	-0.291507	1.27101	-1.92167
H	-1.802	-0.847769	-1.00222
C	6.05823	0.757938	0.272143
C	4.78316	0.728715	0.796052
N	4.05596	-0.27924	0.255947
C	4.87677	-0.873066	-0.599774
N	6.09609	-0.284726	-0.626526
H	6.91285	1.42468	0.468666
H	4.37489	1.41687	1.55409
H	4.6362	-1.74274	-1.23225
H	6.91438	-0.568734	-1.21897
