18
  This energy is -1.2703 and Call times are: 64546
C	-1.12552	0.0482665	-0.131409
C	-0.334955	-0.759386	-0.895001
C	1.001	-0.544309	-0.437741
C	0.908879	0.375787	0.564911
O	-0.382522	0.748737	0.76542
H	-2.21553	0.212959	-0.1282
H	-0.65996	-1.43848	-1.69955
H	1.91775	-1.02349	-0.817272
H	1.67772	0.839738	1.20435
C	4.86419	0.99383	0.584628
C	4.51405	-0.287237	0.955323
N	4.94743	-1.19451	0.0467265
C	5.56408	-0.479016	-0.884098
N	5.54102	0.845898	-0.605419
H	4.68558	1.96779	1.06736
H	3.95649	-0.573121	1.8621
H	6.0499	-0.874713	-1.79054
H	5.95908	1.61409	-1.18539
