18
  This energy is -1.3434 and Call times are: 104666
C	0.361638	-1.03682	0.283943
C	0.594299	0.0571523	1.06463
C	-0.00626594	1.15909	0.382584
C	-0.552907	0.641213	-0.754678
O	-0.337719	-0.698509	-0.831162
H	0.637676	-2.09667	0.409518
H	1.13463	0.085318	2.02449
H	-0.0241552	2.21149	0.708496
H	-1.1125	1.11459	-1.5781
C	4.29451	0.168638	-1.12398
C	3.74284	0.776848	-0.0163308
N	4.33698	0.347612	1.12352
C	5.25375	-0.523571	0.724527
N	5.26755	-0.666434	-0.621946
H	4.07098	0.267666	-2.19812
H	2.92676	1.51769	-0.0192171
H	5.94189	-1.0854	1.37648
H	5.89915	-1.2938	-1.1776
