18
  This energy is -0.7787 and Call times are: 38578
C	-0.246613	-0.498557	0.988445
C	-1.01385	-0.667832	-0.126485
C	-0.390079	0.106792	-1.15166
C	0.70327	0.681047	-0.572701
O	0.806303	0.322216	0.734064
H	-0.342083	-0.902197	2.00982
H	-1.92741	-1.27706	-0.217825
H	-0.723847	0.217568	-2.19589
H	1.47571	1.35522	-0.977754
C	4.9196	-0.829955	0.295383
C	4.72394	0.214905	-0.582755
N	5.83704	0.980904	-0.686565
C	6.71988	0.413406	0.12409
N	6.21465	-0.68192	0.73939
H	4.25122	-1.64131	0.624767
H	3.79955	0.429777	-1.14328
H	7.75059	0.758816	0.304511
H	6.71426	-1.30052	1.4242
