18
  This energy is -0.9376 and Call times are: 127211
C	-1.07619	0.148669	-0.325751
C	-0.36714	1.11977	0.318126
C	0.926754	0.564712	0.558673
C	0.894164	-0.696582	0.0405543
O	-0.321397	-0.967433	-0.503563
H	-2.11128	0.128694	-0.704496
H	-0.719878	2.12603	0.595832
H	1.77668	1.05504	1.05996
H	1.6594	-1.48887	-0.00349452
C	4.79094	-0.831463	-0.197963
C	4.92833	-0.0647494	0.939763
N	5.96886	0.796019	0.826207
C	6.47506	0.564184	-0.377388
N	5.79974	-0.408411	-1.03435
H	4.07071	-1.62183	-0.462775
H	4.29531	-0.117242	1.84052
H	7.33976	1.07802	-0.827386
H	6.00544	-0.771115	-1.99736
