18
  This energy is -0.7453 and Call times are: 136468
C	-0.92503	0.196654	0.626137
C	0.117403	-0.556953	1.07977
C	1.07715	-0.573721	0.0220737
C	0.536478	0.17112	-0.984535
O	-0.686053	0.649368	-0.632812
H	-1.88073	0.480926	1.09632
H	0.202015	-1.05144	2.0608
H	2.05384	-1.08379	0.0199816
H	0.916165	0.432061	-1.98603
C	6.89566	0.220075	0.369051
C	5.77621	0.049012	1.15564
N	4.67832	-0.189448	0.397829
C	5.115	-0.166406	-0.85413
N	6.44523	0.076829	-0.924311
H	7.94591	0.426715	0.629447
H	5.74106	0.0933807	2.25639
H	4.50327	-0.32151	-1.75744
H	7.02332	0.143577	-1.79759
