18
  This energy is -1.1222 and Call times are: 130330
C	1.05317	0.331441	0.259578
C	0.761694	-0.340987	-0.890751
C	-0.646175	-0.579643	-0.858114
C	-1.09075	-0.0319868	0.309277
O	-0.0663451	0.528736	1.00441
H	2.00477	0.719439	0.658525
H	1.46731	-0.639041	-1.68281
H	-1.24916	-1.09953	-1.61984
H	-2.09805	0.0239445	0.753636
C	5.26926	-0.996889	-0.564629
C	4.82645	0.180378	-1.12952
N	4.61256	1.12637	-0.183025
C	4.92151	0.538211	0.964686
N	5.3231	-0.742798	0.787675
H	5.54081	-1.9652	-1.01425
H	4.65746	0.364129	-2.20308
H	4.87167	0.999685	1.96408
H	5.61909	-1.41446	1.53768
