18
  This energy is -1.356 and Call times are: 113146
C	-0.596264	-0.764396	-0.588701
C	-0.0574624	-1.04194	0.633197
C	0.608044	0.152063	1.0474
C	0.417175	1.05385	0.0420517
O	-0.31621	0.511076	-0.9652
H	-1.192	-1.38052	-1.28206
H	-0.122171	-1.99216	1.18726
H	1.16192	0.311664	1.98647
H	0.747423	2.09907	-0.0749803
C	5.44963	0.903538	0.082253
C	5.65168	-0.383137	0.53479
N	4.57776	-1.16731	0.273452
C	3.71278	-0.37014	-0.338882
N	4.19181	0.888735	-0.477986
H	6.09054	1.7988	0.118048
H	6.5531	-0.75969	1.04518
H	2.71425	-0.656788	-0.706319
H	3.69896	1.6991	-0.927054
