18
  This energy is -0.8008 and Call times are: 77163
C	-0.278711	0.990765	-0.476557
C	1.0172	0.599644	-0.309212
C	0.96076	-0.683647	0.315366
C	-0.364663	-0.963441	0.474555
O	-1.13598	0.0482442	-0.00353438
H	-0.716331	1.9038	-0.912559
H	1.9221	1.15873	-0.596748
H	1.81319	-1.31737	0.60837
H	-0.88082	-1.83597	0.90759
C	7.03032	-0.176376	0.27634
C	6.06488	-1.14197	0.0847874
N	4.8691	-0.583181	-0.222389
C	5.09185	0.724107	-0.221403
N	6.3798	1.02026	0.0736663
H	8.0986	-0.253514	0.533945
H	6.20973	-2.23184	0.162724
H	4.34727	1.50914	-0.43009
H	6.80234	1.97881	0.136145
