18
  This energy is -0.6131 and Call times are: 101820
C	0.336115	-0.746736	-0.784738
C	1.10028	0.322186	-0.418899
C	0.349223	1.01689	0.577804
C	-0.807595	0.311172	0.73305
O	-0.832476	-0.769061	-0.0912614
H	0.509149	-1.5529	-1.51646
H	2.09323	0.594179	-0.811525
H	0.64408	1.93461	1.11161
H	-1.67958	0.471627	1.38815
C	5.27002	-0.227849	-0.521838
C	5.46066	0.3037	0.73604
N	6.78007	0.432397	1.01729
C	7.40558	-0.0176001	-0.0619965
N	6.53885	-0.427281	-1.01831
H	4.35185	-0.470226	-1.0802
H	4.66982	0.596652	1.44569
H	8.49697	-0.0693971	-0.204884
H	6.78627	-0.821693	-1.95878
