18
  This energy is -0.7923 and Call times are: 34307
C	0.0612548	-1.13244	0.0152437
C	0.62537	-0.357307	0.98546
C	0.338944	0.993998	0.622072
C	-0.374918	0.925341	-0.538127
O	-0.553825	-0.365664	-0.923237
H	0.0280252	-2.22605	-0.119523
H	1.18686	-0.702487	1.86845
H	0.634204	1.90485	1.1673
H	-0.806682	1.71194	-1.17851
C	5.48558	-1.14743	-0.235368
C	4.47871	-0.266986	0.0995604
N	4.96808	0.980119	0.303915
C	6.27357	0.873746	0.0965515
N	6.63513	-0.389344	-0.231271
H	5.46606	-2.2239	-0.468561
H	3.40793	-0.509262	0.197416
H	7.01081	1.68929	0.171369
H	7.60615	-0.726853	-0.442143
