18
  This energy is -0.9717 and Call times are: 72712
C	-0.632791	0.430067	-0.837269
C	-0.133303	-0.83852	-0.876928
C	0.598431	-1.00877	0.337855
C	0.481499	0.170804	1.01261
O	-0.267132	1.06094	0.3096
H	-1.254	0.993895	-1.55242
H	-0.26675	-1.58001	-1.68097
H	1.14512	-1.90851	0.66295
H	0.878423	0.497743	1.98771
C	5.66445	0.307229	-0.035058
C	6.57063	0.368292	-1.07249
N	7.7932	-0.0645923	-0.679493
C	7.64603	-0.392955	0.596886
N	6.3805	-0.186942	1.0323
H	4.59634	0.571644	0.0174448
H	6.36418	0.716941	-2.09751
H	8.43224	-0.789164	1.25954
H	6.0145	-0.368979	1.99882
