18
  This energy is -1.3789 and Call times are: 123674
C	-0.0807478	0.745775	0.850706
C	-1.16196	0.0692326	0.367341
C	-0.665554	-0.762218	-0.682605
C	0.675185	-0.520366	-0.74816
O	1.04958	0.397995	0.181062
H	0.0145164	1.4913	1.65716
H	-2.2045	0.147805	0.715252
H	-1.24668	-1.45647	-1.31061
H	1.46115	-0.931728	-1.4026
C	4.01814	-0.0343804	1.14213
C	4.12576	-1.10799	0.283689
N	4.46834	-0.703841	-0.963634
C	4.57284	0.615474	-0.879318
N	4.31096	1.06752	0.369948
H	3.76242	0.0216191	2.21218
H	3.96236	-2.16697	0.541994
H	4.83828	1.29902	-1.70184
H	4.32777	2.06697	0.689436
