18
  This energy is -1.2356 and Call times are: 12211
C	-0.0292138	1.03091	-0.471995
C	-0.635656	-0.0503169	-1.04082
C	-0.380283	-1.14826	-0.163644
C	0.359669	-0.641046	0.86377
O	0.583474	0.688364	0.691745
H	0.0380668	2.08372	-0.791848
H	-1.20565	-0.0724916	-1.98353
H	-0.712907	-2.19096	-0.291036
H	0.782276	-1.11591	1.76442
C	3.65308	0.399471	-0.573456
C	4.12686	-0.895319	-0.559483
N	5.24033	-0.999961	0.205849
C	5.4565	0.225253	0.664921
N	4.52672	1.10512	0.223407
H	2.785	0.853525	-1.07726
H	3.6852	-1.75587	-1.08792
H	6.28101	0.533491	1.32779
H	4.48022	2.12965	0.445756
