18
  This energy is -1.3863 and Call times are: 88970
C	0.693309	-0.0571579	-0.8958
C	-0.431626	0.714122	-0.890852
C	-1.02999	0.5246	0.392175
C	-0.217887	-0.345762	1.058
O	0.839435	-0.711422	0.2864
H	1.46199	-0.223964	-1.66817
H	-0.802827	1.35247	-1.70866
H	-1.95737	0.986794	0.76693
H	-0.281773	-0.77627	2.07084
C	4.36145	1.07908	-0.168397
C	5.55502	0.58622	-0.65174
N	5.74589	-0.698342	-0.264463
C	4.67479	-1.00124	0.456394
N	3.81034	0.0373516	0.54383
H	3.88127	2.06453	-0.277233
H	6.28188	1.13449	-1.27297
H	4.47294	-1.96901	0.943124
H	2.89473	0.0471672	1.0565
