18
  This energy is -0.6352 and Call times are: 109852
C	0.969466	-0.0394535	0.587349
C	0.876229	0.572323	-0.628138
C	-0.481373	0.413556	-1.04266
C	-1.0979	-0.281224	-0.0438876
O	-0.226773	-0.56621	0.959572
H	1.81875	-0.166695	1.27856
H	1.68258	1.08406	-1.1777
H	-0.936907	0.777723	-1.97752
H	-2.13759	-0.629375	0.0705603
C	7.16167	0.500224	0.0878965
C	6.56918	0.0120945	-1.05745
N	5.34121	-0.496804	-0.793567
C	5.17255	-0.325035	0.510531
N	6.2423	0.27206	1.08734
H	8.13985	0.977878	0.256838
H	7.00574	0.0179939	-2.06949
H	4.28486	-0.618076	1.09393
H	6.3507	0.514922	2.10249
