18
  This energy is -0.8692 and Call times are: 60987
C	0.950328	-0.472967	-0.399474
C	0.124538	-1.11806	0.473624
C	-0.94775	-0.212645	0.739217
C	-0.682562	0.905806	0.00497259
O	0.472786	0.76425	-0.696558
H	1.8948	-0.782031	-0.876664
H	0.257189	-2.12998	0.888968
H	-1.81178	-0.382992	1.40143
H	-1.23008	1.85654	-0.102671
C	6.50985	0.16601	-0.354621
C	5.76276	-0.985439	-0.485592
N	4.52164	-0.824403	0.0342362
C	4.49888	0.422207	0.485977
N	5.67406	1.06102	0.275124
H	7.54268	0.403914	-0.65497
H	6.09702	-1.92951	-0.945858
H	3.64742	0.917828	0.979547
H	5.90459	2.04974	0.540757
