18
  This energy is -1.0973 and Call times are: 47913
C	0.132942	1.11381	0.167773
C	-0.357906	0.283363	1.13203
C	-0.37579	-1.02176	0.551981
C	0.105708	-0.873635	-0.715533
O	0.421376	0.424074	-0.967162
H	0.322278	2.19981	0.165298
H	-0.675522	0.561899	2.14969
H	-0.71003	-1.95632	1.03049
H	0.27016	-1.60358	-1.52509
C	5.63224	0.0643947	0.82965
C	5.40696	-0.98424	-0.0368116
N	4.36461	-0.721046	-0.861886
C	3.94484	0.486276	-0.508621
N	4.6769	1.00217	0.507022
H	6.37985	0.204975	1.62643
H	5.97785	-1.92601	-0.0814026
H	3.10567	1.03924	-0.960571
H	4.54237	1.93819	0.962018
