18
  This energy is -1.1394 and Call times are: 84857
C	1.12404	0.0211864	-0.149959
C	0.551666	-0.346355	1.03227
C	-0.858967	-0.247363	0.83119
C	-1.02408	0.171933	-0.456172
O	0.176489	0.340984	-1.07022
H	2.17951	0.0954629	-0.459346
H	1.07074	-0.656106	1.95353
H	-1.65106	-0.465101	1.56554
H	-1.93137	0.383948	-1.04535
C	5.38492	1.00496	-0.542184
C	5.6531	-0.27534	-0.978133
N	5.18111	-1.19782	-0.104768
C	4.62224	-0.492478	0.869289
N	4.71908	0.840544	0.651888
H	5.61317	1.98862	-0.98248
H	6.17871	-0.549976	-1.9072
H	4.12804	-0.901664	1.76515
H	4.3561	1.60346	1.27435
