18
  This energy is -1.4991 and Call times are: 1841
C	-0.561255	0.976213	-0.135655
C	-0.266488	0.468112	1.09533
C	0.43471	-0.75313	0.856569
C	0.506537	-0.883505	-0.49924
O	-0.0966133	0.163691	-1.12101
H	-1.08964	1.89455	-0.440154
H	-0.517639	0.909067	2.07338
H	0.835318	-1.44731	1.61269
H	0.953802	-1.66441	-1.13595
C	4.59376	1.00748	-0.532712
C	4.81572	-0.270759	-0.999603
N	4.34727	-1.19731	-0.128639
C	3.83664	-0.496536	0.874759
N	3.96078	0.837479	0.678328
H	4.83346	1.99318	-0.962223
H	5.30548	-0.541043	-1.9493
H	3.35979	-0.909905	1.77807
H	3.63659	1.59747	1.3253
