18
  This energy is -0.7081 and Call times are: 38174
C	-0.801661	-0.590435	0.543256
C	-1.08805	0.24554	-0.495735
C	0.162517	0.79808	-0.909146
C	1.10271	0.250976	-0.0862897
O	0.53155	-0.599371	0.80685
H	-1.44853	-1.22645	1.16958
H	-2.08039	0.452354	-0.927689
H	0.332566	1.51847	-1.72536
H	2.19587	0.383761	-0.0351819
C	5.98481	-0.625271	-0.871258
C	5.90941	-0.979864	0.459052
N	5.28359	-0.0220633	1.18533
C	4.97193	0.923128	0.308913
N	5.37351	0.606426	-0.944892
H	6.41583	-1.14493	-1.74172
H	6.29537	-1.90964	0.907824
H	4.44962	1.86749	0.53163
H	5.24388	1.18829	-1.80854
