18
  This energy is -0.9495 and Call times are: 45368
C	0.164399	0.659626	-0.907892
C	1.03248	-0.333036	-0.559425
C	0.491125	-0.929653	0.620023
C	-0.659984	-0.24891	0.888181
O	-0.875038	0.725187	-0.0348031
H	0.173679	1.37913	-1.74305
H	1.9609	-0.616679	-1.08065
H	0.91636	-1.76785	1.19509
H	-1.40395	-0.359542	1.69411
C	6.155	0.77276	-0.238564
C	5.58148	-0.123623	-1.11533
N	4.62469	-0.862333	-0.502657
C	4.60472	-0.425885	0.749436
N	5.50914	0.559901	0.958825
H	6.95049	1.52207	-0.377342
H	5.84093	-0.250571	-2.17901
H	3.94756	-0.793313	1.55404
H	5.68487	1.06569	1.86135
