18
  This energy is -0.8837 and Call times are: 46704
C	-0.575506	-0.971918	-0.102809
C	-0.945194	0.00679889	0.772302
C	0.0103388	1.05622	0.611704
C	0.879587	0.626149	-0.347368
O	0.536906	-0.610512	-0.794862
H	-1.01488	-1.9583	-0.324765
H	-1.80456	-0.00869494	1.46175
H	0.0391316	2.01615	1.15188
H	1.76975	1.09994	-0.792781
C	4.80389	1.00748	0.121422
C	4.56194	-0.181312	0.776696
N	5.44302	-1.13768	0.395165
C	6.22859	-0.544453	-0.493422
N	5.88386	0.749722	-0.693085
H	4.30077	1.986	0.175286
H	3.7674	-0.366075	1.51793
H	7.07132	-1.01142	-1.02819
H	6.35039	1.42762	-1.34429
