18
  This energy is -0.7721 and Call times are: 42849
C	-0.711372	-0.756729	0.455754
C	-0.84462	0.585462	0.658588
C	0.222545	1.19831	-0.0664593
C	0.913715	0.17652	-0.648356
O	0.35727	-1.02445	-0.340072
H	-1.30382	-1.61316	0.817407
H	-1.61692	1.09304	1.25859
H	0.442164	2.27553	-0.140382
H	1.80613	0.17281	-1.29553
C	4.67944	-0.31027	0.182144
C	5.79395	-1.10789	0.333214
N	6.92692	-0.425323	0.0382727
C	6.51684	0.791112	-0.294506
N	5.16991	0.910821	-0.223527
H	3.60776	-0.518255	0.329689
H	5.80086	-2.16364	0.649743
H	7.16068	1.63222	-0.59823
H	4.60656	1.77011	-0.436874
