18
  This energy is -0.7776 and Call times are: 52354
C	-0.480926	0.56591	-0.857238
C	-0.913516	-0.665454	-0.461028
C	-0.0714897	-1.04364	0.628965
C	0.801319	-0.00999232	0.802613
O	0.565708	0.981565	-0.0964492
H	-0.829239	1.24108	-1.65604
H	-1.74241	-1.24892	-0.892997
H	-0.117727	-1.97862	1.21014
H	1.6246	0.138968	1.52043
C	6.14765	0.459718	0.275994
C	4.97397	1.14873	0.0549087
N	3.95862	0.301713	-0.241955
C	4.50034	-0.908166	-0.205176
N	5.81829	-0.866066	0.102783
H	7.16018	0.807421	0.535665
H	4.84161	2.24184	0.104283
H	3.9773	-1.85913	-0.395761
H	6.46584	-1.68697	0.19251
