18
  This energy is -1.0357 and Call times are: 123931
C	-0.794531	-0.495905	0.639687
C	-0.958717	0.748134	0.105099
C	0.238606	1.02145	-0.624169
C	1.02876	-0.0796903	-0.470849
O	0.413574	-1.01631	0.298111
H	-1.45389	-1.1127	1.27219
H	-1.83506	1.40721	0.21344
H	0.475165	1.93458	-1.19368
H	2.03536	-0.31619	-0.853053
C	4.58231	-1.09005	0.149726
C	5.00556	-0.521241	-1.03284
N	5.42527	0.75273	-0.839564
C	5.26301	0.973416	0.45797
N	4.75747	-0.10733	1.09829
H	4.18222	-2.09122	0.375853
H	5.0156	-1.00726	-2.02205
H	5.49832	1.90852	0.991297
H	4.54031	-0.182354	2.12224
