18
  This energy is -0.5571 and Call times are: 37534
C	-0.716379	0.85542	0.203616
C	0.285338	0.945161	-0.717734
C	0.960165	-0.313284	-0.685438
C	0.311253	-1.06095	0.252795
O	-0.715316	-0.362899	0.805869
H	-1.48615	1.57858	0.519453
H	0.525	1.81072	-1.35607
H	1.82707	-0.617444	-1.29375
H	0.480439	-2.0888	0.613569
C	7.12087	0.314024	-0.173588
C	6.37978	0.49304	0.975274
N	5.12187	0.0117025	0.825276
C	5.08274	-0.464113	-0.411935
N	6.26361	-0.305474	-1.05535
H	8.16287	0.574931	-0.417928
H	6.7302	0.960886	1.90971
H	4.21479	-0.938951	-0.897137
H	6.48411	-0.598555	-2.03858
