18
  This energy is -1.3104 and Call times are: 15295
C	0.602504	-0.518006	0.809357
C	-0.55108	0.15853	1.07753
C	-1.00913	0.663315	-0.177662
C	-0.0950141	0.250684	-1.10206
O	0.896058	-0.472002	-0.516811
H	1.29733	-1.06733	1.46564
H	-1.03129	0.289019	2.06062
H	-1.91509	1.263	-0.361262
H	-0.0375102	0.403716	-2.19225
C	4.44554	0.941298	-0.704332
C	3.86185	0.801774	0.537033
N	4.1296	-0.415604	1.06883
C	4.87656	-1.02897	0.160834
N	5.09516	-0.252329	-0.926651
H	4.44462	1.77762	-1.42134
H	3.25232	1.5577	1.05847
H	5.29005	-2.04719	0.241456
H	5.6532	-0.510297	-1.77712
