18
  This energy is -0.8228 and Call times are: 123995
C	-0.363298	1.05348	-0.211156
C	-1.06514	-0.0516457	-0.593877
C	-0.29704	-1.17355	-0.156313
C	0.806377	-0.654963	0.455171
O	0.782328	0.703654	0.430849
H	-0.569246	2.12939	-0.334698
H	-2.02724	-0.0745091	-1.13049
H	-0.545184	-2.23922	-0.286213
H	1.66917	-1.14008	0.940455
C	4.42583	-0.828726	-0.314599
C	5.19515	-0.0529451	-1.15571
N	5.97812	0.801125	-0.452827
C	5.69561	0.556118	0.819487
N	4.76534	-0.418439	0.955277
H	3.68549	-1.61742	-0.52289
H	5.19928	-0.0941825	-2.25713
H	6.14082	1.06132	1.69172
H	4.37675	-0.790588	1.85626
