18
  This energy is -0.8414 and Call times are: 48847
C	-0.343215	-0.422412	-0.995074
C	0.848401	-0.766374	-0.427522
C	0.921185	-0.039466	0.799844
C	-0.23238	0.684528	0.873968
O	-1.01631	0.462809	-0.213832
H	-0.820498	-0.733834	-1.93872
H	1.60067	-1.46218	-0.832541
H	1.74111	-0.0596135	1.53565
H	-0.608393	1.38453	1.63808
C	6.2464	-1.01168	-0.402893
C	4.91292	-0.671744	-0.316741
N	4.75817	0.573313	0.195505
C	5.99096	1.00414	0.426259
N	6.92367	0.0848092	0.082069
H	6.74469	-1.92579	-0.762976
H	4.05971	-1.30255	-0.61502
H	6.26745	1.98465	0.846234
H	7.96447	0.187705	0.168225
