18
  This energy is -1.2656 and Call times are: 10382
C	0.187727	0.683059	0.885771
C	-0.309096	-0.579084	1.02908
C	-0.40345	-1.11445	-0.29175
C	0.0440438	-0.132202	-1.1256
O	0.40923	0.972629	-0.423464
H	0.425164	1.46383	1.6269
H	-0.581779	-1.08259	1.97048
H	-0.763834	-2.11557	-0.578059
H	0.150197	-0.0963438	-2.22228
C	4.72395	-1.09378	-0.0948329
C	3.65802	-0.683537	0.677581
N	3.44419	0.648317	0.54736
C	4.37394	1.06274	-0.302606
N	5.17047	0.0497773	-0.71859
H	5.1811	-2.0855	-0.239934
H	3.03941	-1.32469	1.3265
H	4.5164	2.09722	-0.654427
H	5.97492	0.121812	-1.38862
