18
  This energy is -0.8714 and Call times are: 122936
C	-0.687336	0.303541	0.849608
C	-0.354368	1.15689	-0.160988
C	0.514211	0.42116	-1.02377
C	0.635344	-0.816834	-0.464241
O	-0.0918007	-0.906305	0.680428
H	-1.33015	0.43492	1.73549
H	-0.687031	2.19983	-0.286313
H	0.988887	0.780245	-1.95104
H	1.20108	-1.70915	-0.778832
C	5.08484	0.619852	-1.00032
C	4.29915	-0.469928	-0.690135
N	4.58149	-0.938839	0.54959
C	5.53869	-0.142984	1.00675
N	5.8771	0.812865	0.1093
H	5.13458	1.25064	-1.90208
H	3.53362	-0.926252	-1.33866
H	6.02722	-0.215548	1.9918
H	6.60441	1.55886	0.234841
