18
  This energy is -1.1495 and Call times are: 1809
C	-0.725984	0.441521	-0.75127
C	-1.00197	-0.695306	-0.0499639
C	0.136398	-0.928368	0.780652
C	1.00753	0.0866129	0.513599
O	0.497114	0.932508	-0.419648
H	-1.30926	0.995131	-1.5053
H	-1.91553	-1.30827	-0.111399
H	0.28094	-1.75796	1.49127
H	2.00818	0.315941	0.915289
C	5.02684	0.72576	0.89828
C	5.33083	-0.616979	0.822214
N	4.92488	-1.14375	-0.358562
C	4.37116	-0.13165	-1.01253
N	4.40797	1.01725	-0.296799
H	5.2013	1.46968	1.69181
H	5.8358	-1.2151	1.59817
H	3.92349	-0.176611	-2.01841
H	4.03594	1.95197	-0.595369
