18
  This energy is -0.7783 and Call times are: 97997
C	0.0764306	1.12944	-0.0701042
C	-1.11872	0.47389	-0.117389
C	-0.807634	-0.915214	-0.000200386
C	0.550156	-0.985895	0.108352
O	1.10634	0.253461	0.0675343
H	0.324452	2.20225	-0.123282
H	-2.11904	0.923424	-0.22409
H	-1.5188	-1.75684	0.00202524
H	1.23103	-1.84589	0.218232
C	6.06301	-0.496696	-0.835942
C	6.28379	-0.531173	0.524652
N	5.31993	0.147247	1.19341
C	4.50431	0.600873	0.251279
N	4.90926	0.239202	-0.989205
H	6.62649	-0.929328	-1.67788
H	7.12128	-1.03341	1.03574
H	3.59595	1.20293	0.414512
H	4.43473	0.474538	-1.89513
