18
  This energy is -0.8568 and Call times are: 67207
C	-0.398814	-0.599545	0.876296
C	-1.21932	-0.0257532	-0.0499411
C	-0.358506	0.632142	-0.980693
C	0.912033	0.402304	-0.541061
O	0.906174	-0.348261	0.591913
H	-0.617266	-1.20344	1.77231
H	-2.32029	-0.062133	-0.0752122
H	-0.659359	1.20727	-1.87109
H	1.89131	0.713801	-0.940098
C	5.00227	1.11229	-0.384588
C	4.68176	-0.0142085	-1.11221
N	4.78558	-1.13208	-0.353193
C	5.16905	-0.70072	0.840754
N	5.31351	0.64527	0.872875
H	5.02997	2.17768	-0.663336
H	4.37746	-0.0403888	-2.17124
H	5.35844	-1.32769	1.72691
H	5.60674	1.22301	1.6984
