18
  This energy is -0.6182 and Call times are: 111511
C	0.890565	-0.154984	0.685037
C	0.122377	-1.19049	0.240083
C	-0.884475	-0.603703	-0.585778
C	-0.642677	0.738583	-0.572592
O	0.437688	1.03044	0.198539
H	1.77477	-0.130632	1.34294
H	0.251763	-2.26023	0.470333
H	-1.69095	-1.12802	-1.12316
H	-1.1594	1.57939	-1.0638
C	4.97323	0.341444	0.640007
C	5.78586	1.14359	-0.132876
N	6.75928	0.417657	-0.734516
C	6.55134	-0.830092	-0.336388
N	5.48595	-0.928153	0.493628
H	4.09564	0.576393	1.26304
H	5.68722	2.23312	-0.267167
H	7.14923	-1.7104	-0.622427
H	5.1202	-1.80438	0.94051
