18
  This energy is -1.3852 and Call times are: 135346
C	-0.0994847	0.24223	1.10355
C	-0.0843065	1.2094	0.141921
C	0.0530333	0.521534	-1.10231
C	0.109657	-0.805251	-0.791167
O	0.0179606	-0.994107	0.551567
H	-0.187492	0.303448	2.20071
H	-0.162026	2.298	0.293543
H	0.10297	0.970779	-2.10718
H	0.212745	-1.70113	-1.42523
C	5.1225	-0.900751	-0.431547
C	5.39987	0.441987	-0.577377
N	4.47154	1.20372	0.0506956
C	3.62149	0.336837	0.584137
N	3.97048	-0.944889	0.32151
H	5.64592	-1.79807	-0.798136
H	6.2532	0.874776	-1.12453
H	2.72664	0.58663	1.17665
H	3.46063	-1.80785	0.632329
