18
  This energy is -1.696 and Call times are: 123898
C	0.748585	-0.0325228	0.851448
C	0.27258	-1.1624	0.253807
C	-0.633493	-0.718027	-0.756977
C	-0.631191	0.64417	-0.687782
O	0.207279	1.07997	0.28898
H	1.46596	0.111699	1.67597
H	0.533347	-2.20425	0.500044
H	-1.21491	-1.34684	-1.45025
H	-1.17453	1.40669	-1.26967
C	4.36698	0.330839	1.09743
C	4.65238	-0.881602	0.506095
N	4.19873	-0.921549	-0.770273
C	3.63405	0.261611	-0.970001
N	3.70961	1.05271	0.126378
H	4.57812	0.718124	2.10687
H	5.1775	-1.72826	0.977553
H	3.15053	0.600842	-1.90025
H	3.33818	2.0298	0.219049
