18
  This energy is -0.8494 and Call times are: 12061
C	0.14865	1.07803	-0.319633
C	1.19486	0.240894	-0.0646124
C	0.613386	-1.01055	0.304041
C	-0.736818	-0.82768	0.241754
O	-1.03851	0.442027	-0.137509
H	0.117211	2.13422	-0.633832
H	2.26836	0.480597	-0.129581
H	1.14642	-1.93405	0.581732
H	-1.57732	-1.51274	0.4405
C	5.9839	-0.205197	-1.05301
C	5.37965	0.96085	-0.633059
N	4.93139	0.847565	0.640809
C	5.25632	-0.384078	1.00973
N	5.89274	-1.05914	0.0233992
H	6.45656	-0.478625	-2.00976
H	5.2591	1.88186	-1.22641
H	5.05196	-0.842577	1.99067
H	6.24887	-2.04518	0.0698083
