18
  This energy is -0.9693 and Call times are: 17085
C	-0.261858	-0.536649	0.964281
C	-1.19226	-0.261482	0.00563113
C	-0.489189	0.411327	-1.0399
C	0.808784	0.487909	-0.627864
O	0.965689	-0.0860589	0.594001
H	-0.345587	-1.04085	1.94102
H	-2.26595	-0.507602	0.0320887
H	-0.909384	0.790578	-1.98526
H	1.70331	0.919855	-1.10588
C	5.45505	0.792231	0.869162
C	6.52273	-0.0160225	0.540606
N	6.22707	-0.810262	-0.516882
C	4.98072	-0.495929	-0.843122
N	4.47111	0.465387	-0.0370459
H	5.33	1.55154	1.65742
H	7.50108	-0.0403128	1.04765
H	4.39359	-0.938955	-1.66363
H	3.50964	0.882306	-0.0919406
