18
  This energy is -1.5432 and Call times are: 86325
C	0.37992	-1.03635	0.260834
C	-0.278626	-0.771528	-0.90388
C	-0.591698	0.621603	-0.867982
C	-0.0968288	1.08512	0.315501
O	0.499844	0.0861053	1.01762
H	0.807559	-1.96941	0.663056
H	-0.519748	-1.48558	-1.70767
H	-1.12382	1.20245	-1.63841
H	-0.104797	2.09047	0.767673
C	4.82773	0.224419	0.969887
C	4.9679	-0.856245	0.125101
N	4.07829	-0.797239	-0.8955
C	3.38886	0.315798	-0.684669
N	3.80292	0.967427	0.42777
H	5.36675	0.507844	1.88786
H	5.695	-1.67745	0.23373
H	2.57009	0.700637	-1.31376
H	3.41684	1.86722	0.805361
