18
  This energy is -0.6358 and Call times are: 9655
C	1.08374	0.302676	0.142441
C	0.384271	-0.378216	1.09507
C	-0.923827	-0.572638	0.555444
C	-0.908241	0.00660916	-0.679305
O	0.309878	0.546094	-0.947922
H	2.12388	0.667186	0.11992
H	0.75252	-0.710254	2.07906
H	-1.77145	-1.08539	1.03786
H	-1.6882	0.100602	-1.45266
C	4.97123	0.159422	0.820253
C	5.54105	-1.03761	0.441349
N	6.46385	-0.852529	-0.53368
C	6.46651	0.454351	-0.758801
N	5.58365	1.10847	0.0325729
H	4.19902	0.395208	1.56968
H	5.30284	-2.03149	0.854041
H	7.09518	0.984998	-1.49189
H	5.40055	2.14172	0.0439454
