18
  This energy is -1.0465 and Call times are: 119064
C	0.560139	0.356097	0.919696
C	-0.778732	0.0961641	0.934996
C	-1.1108	-0.323056	-0.389431
C	0.0544694	-0.282296	-1.09715
O	1.08519	0.130308	-0.313329
H	1.24672	0.702453	1.70956
H	-1.46379	0.190205	1.79287
H	-2.1045	-0.618678	-0.762598
H	0.279019	-0.519244	-2.15009
C	4.4978	-0.137809	0.601407
C	4.76378	-0.582077	-0.676492
N	6.02077	-0.248901	-1.05791
C	6.53264	0.399594	-0.0205764
N	5.65345	0.492846	1.00505
H	3.59794	-0.222966	1.23112
H	4.07121	-1.13705	-1.33011
H	7.54638	0.827105	0.0411698
H	5.82034	0.957107	1.93126
