18
  This energy is -0.5771 and Call times are: 108871
C	-0.493635	1.01192	0.136906
C	-0.976792	-0.121589	0.72179
C	-0.0987382	-1.17389	0.319553
C	0.843473	-0.590537	-0.475625
O	0.617698	0.744021	-0.598064
H	-0.845187	2.05635	0.165675
H	-1.86264	-0.208023	1.37132
H	-0.168446	-2.23844	0.595206
H	1.71365	-1.01028	-1.00653
C	6.9341	0.445061	-0.560776
C	6.94822	-0.406391	0.523647
N	5.68928	-0.720075	0.915021
C	4.89715	-0.0657117	0.0765844
N	5.59991	0.651319	-0.832036
H	7.75179	0.903511	-1.13935
H	7.84425	-0.799988	1.03066
H	3.79531	-0.0764832	0.0832078
H	5.20388	1.25026	-1.59734
