18
  This energy is -0.9241 and Call times are: 115893
C	0.889935	-0.503483	0.490837
C	0.539726	-0.741135	-0.805793
C	-0.613355	0.0646229	-1.05333
C	-0.865986	0.723533	0.113882
O	0.0422864	0.388535	1.06773
H	1.70989	-0.900942	1.11129
H	1.04291	-1.41613	-1.51662
H	-1.18195	0.13857	-1.99425
H	-1.65043	1.44721	0.389906
C	5.90766	0.934475	-0.37763
C	4.58469	0.646999	-0.638912
N	4.20991	-0.511883	-0.0447383
C	5.29624	-0.941712	0.582766
N	6.34668	-0.104355	0.412484
H	6.54646	1.77669	-0.687693
H	3.8939	1.25502	-1.24551
H	5.37767	-1.86328	1.18135
H	7.31169	-0.223737	0.807152
