18
  This energy is -1.6796 and Call times are: 8573
C	0.0947498	-0.524577	-1.00112
C	0.860818	-0.862058	0.0757356
C	0.455264	0.00909424	1.13249
C	-0.522833	0.802021	0.608119
O	-0.755852	0.489874	-0.693909
H	0.0595866	-0.924988	-2.02761
H	1.63394	-1.64583	0.121338
H	0.851423	0.03505	2.16034
H	-1.12229	1.61373	1.052
C	5.65348	1.09003	0.418869
C	5.83206	0.727133	-0.899295
N	5.96925	-0.615471	-1.02219
C	5.87614	-1.08371	0.21503
N	5.68538	-0.0946782	1.12003
H	5.51071	2.07466	0.891802
H	5.86437	1.41001	-1.76387
H	5.94064	-2.14217	0.514568
H	5.58157	-0.20863	2.15806
