18
  This energy is -2.2429 and Call times are: 84546
C	-0.698753	0.89179	-0.0534384
C	0.00477354	0.581572	1.07314
C	0.759287	-0.588247	0.753219
C	0.450226	-0.889619	-0.540624
O	-0.438814	0.00383338	-1.04892
H	-1.40788	1.70724	-0.271203
H	-0.00646853	1.12228	2.03315
H	1.44936	-1.13488	1.41585
H	0.790926	-1.70185	-1.20353
C	3.95687	0.485875	1.01552
C	5.02531	-0.364433	0.824372
N	5.12978	-0.7333	-0.475449
C	4.12995	-0.114181	-1.08835
N	3.39364	0.633321	-0.232372
H	3.57035	0.980009	1.92105
H	5.72268	-0.718375	1.60107
H	3.89139	-0.173411	-2.1625
H	2.55375	1.21447	-0.473401
