18
  This energy is -1.0331 and Call times are: 80151
C	-1.01163	0.461688	0.223276
C	0.0897328	0.710526	0.988427
C	1.15294	-0.0392269	0.398861
C	0.607425	-0.680042	-0.67452
O	-0.713688	-0.38554	-0.796747
H	-2.05091	0.821441	0.298962
H	0.147639	1.35718	1.8787
H	2.19908	-0.0894632	0.741134
H	1.04749	-1.3635	-1.41916
C	4.77828	-0.968735	-0.417671
C	5.05086	-0.679473	0.902621
N	5.6605	0.524816	1.0232
C	5.76572	0.980927	-0.217575
N	5.2483	0.116768	-1.12262
H	4.29907	-1.84113	-0.889726
H	4.81855	-1.31816	1.77036
H	6.21308	1.94153	-0.51979
H	5.21209	0.24856	-2.16309
