18
  This energy is -0.7623 and Call times are: 28168
C	-1.01486	-0.452899	0.226586
C	0.113218	-0.81283	0.903536
C	1.17165	-0.0365772	0.34027
C	0.59693	0.729186	-0.631159
O	-0.737926	0.487832	-0.714342
H	-2.061	-0.788146	0.318568
H	0.192088	-1.55092	1.71784
H	2.23433	-0.0531469	0.631026
H	1.0235	1.47402	-1.32291
C	6.04155	0.387699	1.09985
C	7.20755	-0.110119	0.557855
N	7.03151	-0.464698	-0.738215
C	5.76114	-0.187903	-0.999271
N	5.12157	0.328093	0.0769704
H	5.8091	0.767492	2.10745
H	8.17267	-0.219795	1.07877
H	5.24795	-0.343426	-1.96192
H	4.11641	0.625993	0.123365
