18
  This energy is -1.357 and Call times are: 431
C	0.280772	-1.06184	0.282962
C	-0.425409	-0.769409	-0.846714
C	-0.579514	0.650557	-0.854885
C	0.0460999	1.1005	0.270519
O	0.577147	0.0682596	0.977262
H	0.630271	-2.02105	0.698903
H	-0.800204	-1.48213	-1.59881
H	-1.09755	1.25768	-1.61458
H	0.181177	2.11702	0.675091
C	4.09346	-0.693599	0.286696
C	4.06681	0.674173	0.114547
N	5.29293	1.14941	-0.213003
C	6.07725	0.080529	-0.243941
N	5.40099	-1.0551	0.050347
H	3.30093	-1.41134	0.551822
H	3.18483	1.32661	0.220821
H	7.15435	0.0728449	-0.476376
H	5.79722	-2.02599	0.09077
