18
  This energy is 0.1003 and Call times are: 116149
C	1.00481	0.428304	0.305458
C	-0.0526793	0.362412	1.16438
C	-1.12155	-0.228673	0.423936
C	-0.622872	-0.471806	-0.822089
O	0.674383	-0.0768097	-0.912199
H	2.03154	0.807278	0.437639
H	-0.0775496	0.696529	2.21406
H	-2.13993	-0.443965	0.78539
H	-1.08338	-0.915269	-1.72016
C	1.65908	-0.353113	-0.921754
C	2.99358	-0.613932	-0.693193
N	3.40917	-0.0528322	0.468254
C	2.33658	0.553771	0.958358
N	1.25576	0.401893	0.156895
H	0.990196	-0.641722	-1.74809
H	3.66398	-1.19692	-1.34553
H	2.28717	1.12338	1.90034
H	0.293806	0.786081	0.325132
