18
  This energy is -1.0775 and Call times are: 27134
C	-0.856852	-0.739205	-0.0760384
C	-0.350013	-0.0939115	-1.16557
C	0.700483	0.739118	-0.672991
C	0.742854	0.529339	0.674069
O	-0.201282	-0.370555	1.05592
H	-1.67218	-1.4743	0.0245505
H	-0.68254	-0.194441	-2.21124
H	1.34438	1.41288	-1.2608
H	1.38919	0.953318	1.46004
C	6.01148	-0.544039	-0.508248
C	5.28672	0.510889	-1.02108
N	4.30452	0.889625	-0.167646
C	4.41951	0.0727608	0.870686
N	5.43416	-0.81002	0.713285
H	6.86862	-1.10558	-0.912628
H	5.45493	1.00552	-1.9916
H	3.78687	0.0774668	1.77289
H	5.72554	-1.55512	1.39239
