18
  This energy is -1.2514 and Call times are: 112025
C	0.729381	-0.800287	-0.337558
C	-0.407962	-1.09406	0.355636
C	-1.0537	0.15713	0.595756
C	-0.253946	1.10504	0.0280985
O	0.839458	0.5381	-0.546403
H	1.53102	-1.44485	-0.733991
H	-0.757168	-2.09177	0.666675
H	-2.0031	0.322407	1.12999
H	-0.350776	2.2014	-0.0342312
C	4.6586	0.481258	-1.0183
C	4.27134	0.863562	0.248599
N	4.85888	0.089891	1.19345
C	5.60778	-0.76911	0.515296
N	5.52109	-0.574065	-0.821878
H	4.39039	0.87245	-2.01257
H	3.57853	1.68378	0.497819
H	6.23944	-1.56151	0.948122
H	6.01652	-1.1223	-1.56703
