18
  This energy is -0.9705 and Call times are: 82192
C	0.205958	1.08152	-0.272576
C	-0.785568	0.72235	0.592437
C	-0.73193	-0.70235	0.678876
C	0.287639	-1.08803	-0.140946
O	0.871529	-0.0114868	-0.73014
H	0.534512	2.06786	-0.639226
H	-1.48461	1.39336	1.11702
H	-1.38112	-1.35559	1.2838
H	0.690825	-2.08401	-0.387325
C	4.69561	-0.100215	1.17262
C	3.96386	-0.848966	0.275372
N	4.21374	-0.464741	-0.999947
C	5.09717	0.518633	-0.894276
N	5.41973	0.776025	0.395411
H	4.75048	-0.127989	2.27251
H	3.26007	-1.65954	0.525381
H	5.54077	1.08458	-1.72923
H	6.09313	1.50432	0.73801
