18
  This energy is -1.6154 and Call times are: 137082
C	-0.712534	0.882345	0.0127454
C	0.259986	0.715188	0.954359
C	0.939576	-0.491443	0.604623
C	0.322352	-0.955123	-0.519836
O	-0.688932	-0.128501	-0.895354
H	-1.47454	1.66785	-0.119814
H	0.477027	1.37536	1.80944
H	1.78829	-0.952827	1.13463
H	0.505927	-1.84852	-1.13902
C	4.2118	-0.366853	-1.10231
C	4.23944	0.938065	-0.657825
N	4.48293	0.995533	0.674061
C	4.60587	-0.268925	1.05439
N	4.4507	-1.12854	0.0197122
H	4.0446	-0.793127	-2.10425
H	4.08805	1.83912	-1.2743
H	4.80961	-0.621413	2.07835
H	4.50252	-2.17575	0.0638199
