18
  This energy is -0.7149 and Call times are: 127725
C	0.921062	-0.503292	-0.429817
C	-0.248686	-1.17385	-0.22387
C	-1.15792	-0.215979	0.320084
C	-0.463533	0.955363	0.398521
O	0.807843	0.798207	-0.0552578
H	1.89275	-0.834595	-0.831443
H	-0.450974	-2.23642	-0.43393
H	-2.20534	-0.388213	0.615627
H	-0.756956	1.95684	0.753753
C	6.64603	-0.63084	-0.520927
C	6.718	0.690987	-0.135262
N	5.55802	1.09728	0.435601
C	4.76943	0.0315543	0.404203
N	5.37957	-1.03598	-0.162973
H	7.38188	-1.28988	-1.00851
H	7.58613	1.35879	-0.258689
H	3.73601	-0.0220615	0.782875
H	4.96657	-1.99044	-0.303303
