18
  This energy is -1.5846 and Call times are: 5504
C	-0.100284	-0.771196	-0.825591
C	0.297479	-1.10023	0.436904
C	0.301291	0.121652	1.17657
C	-0.0944787	1.0895	0.300776
O	-0.343886	0.562017	-0.926649
H	-0.2473	-1.38533	-1.72919
H	0.561698	-2.10281	0.809895
H	0.569054	0.254807	2.23707
H	-0.236191	2.1755	0.426351
C	3.55067	0.789805	0.199864
C	3.81296	0.139183	-0.987166
N	4.86591	-0.70436	-0.859723
C	5.25536	-0.577531	0.401573
N	4.49386	0.311741	1.08193
H	2.78512	1.53434	0.470299
H	3.26131	0.263314	-1.93327
H	6.09236	-1.11217	0.878887
H	4.60144	0.58498	2.08942
