18
  This energy is -2.0466 and Call times are: 84514
C	0.177696	0.349768	1.06418
C	-0.589678	1.05299	0.182712
C	-0.574409	0.303806	-1.03327
C	0.200948	-0.791093	-0.787523
O	0.668558	-0.779234	0.488491
H	0.447735	0.543851	2.11521
H	-1.11389	2.00389	0.369995
H	-1.08443	0.558351	-1.97623
H	0.492233	-1.63942	-1.42841
C	4.01667	-0.429144	-1.0927
C	5.00234	-0.704152	-0.168598
N	4.78557	-0.0362322	0.990455
C	3.66966	0.650523	0.786179
N	3.16743	0.44725	-0.454802
H	3.86454	-0.783262	-2.12468
H	5.86603	-1.37254	-0.317424
H	3.17659	1.31763	1.51149
H	2.29695	0.875641	-0.854821
