18
  This energy is -0.7648 and Call times are: 35742
C	-0.957898	0.227816	-0.562968
C	0.275704	0.462884	-1.09527
C	1.21529	0.0534009	-0.100477
C	0.472919	-0.395749	0.951909
O	-0.85631	-0.296513	0.68674
H	-1.97105	0.388218	-0.96675
H	0.501374	0.882539	-2.08878
H	2.31431	0.0924438	-0.169334
H	0.767112	-0.805103	1.93228
C	5.56718	-0.96405	-0.661862
C	5.08068	0.297761	-0.930731
N	5.42123	1.17147	0.0476165
C	6.11637	0.454413	0.920108
N	6.23222	-0.83932	0.537454
H	5.48979	-1.91036	-1.22047
H	4.49004	0.593371	-1.81312
H	6.56334	0.82679	1.85594
H	6.7332	-1.60205	1.05565
