18
  This energy is -0.9989 and Call times are: 33349
C	0.859097	-0.466196	0.575339
C	0.933504	-0.200535	-0.760424
C	-0.324817	0.374574	-1.11538
C	-1.05708	0.409586	0.0348055
O	-0.349581	-0.0999538	1.07731
H	1.58776	-0.908261	1.27454
H	1.7887	-0.390503	-1.42874
H	-0.639222	0.719166	-2.11363
H	-2.07925	0.767729	0.240119
C	6.3431	-0.794815	-0.206253
C	4.98126	-0.990669	-0.296581
N	4.3033	0.141852	0.0104785
C	5.241	1.03689	0.290234
N	6.48747	0.520794	0.173902
H	7.19142	-1.47583	-0.379805
H	4.47573	-1.92886	-0.577811
H	5.07013	2.08459	0.585782
H	7.39161	1.0265	0.341388
