18
  This energy is -2.4737 and Call times are: 105346
C	-0.16508	0.456824	1.02492
C	0.0437469	1.21662	-0.0883988
C	0.206998	0.29398	-1.16645
C	0.08352	-0.948178	-0.616753
O	-0.144008	-0.867566	0.720687
H	-0.339109	0.734499	2.07747
H	0.079265	2.31646	-0.144815
H	0.394257	0.536235	-2.22492
H	0.136639	-1.95426	-1.06421
C	3.63488	-1.17437	-0.0687557
C	3.8533	-0.40434	1.05396
N	3.73363	0.915753	0.77192
C	3.44209	0.964485	-0.520849
N	3.3713	-0.269879	-1.07305
H	3.64794	-2.26559	-0.219103
H	4.09508	-0.777636	2.06244
H	3.27039	1.87772	-1.11309
H	3.15653	-0.495003	-2.07527
