18
  This energy is -0.7624 and Call times are: 64611
C	0.998527	-0.483503	-0.235731
C	0.899226	0.783862	0.258535
C	-0.497921	1.03118	0.422637
C	-1.12906	-0.106878	0.0141658
O	-0.230478	-1.04242	-0.39121
H	1.87377	-1.09317	-0.514129
H	1.72682	1.47521	0.484863
H	-0.968968	1.95242	0.801497
H	-2.19781	-0.372425	-0.0358992
C	6.48148	-0.356575	-0.890804
C	6.47798	-0.849251	0.396985
N	5.56411	-0.206192	1.16368
C	5.0028	0.682042	0.354611
N	5.52165	0.630795	-0.895094
H	7.07914	-0.629616	-1.77499
H	7.11849	-1.65719	0.786636
H	4.20721	1.39463	0.625686
H	5.24539	1.2292	-1.7117
