18
  This energy is -1.6032 and Call times are: 7722
C	-0.332134	0.416028	-1.0015
C	-0.717775	0.970018	0.183719
C	-0.105675	0.178334	1.20288
C	0.599978	-0.789554	0.550483
O	0.472923	-0.659521	-0.79635
H	-0.559438	0.689935	-2.04484
H	-1.36805	1.84808	0.326031
H	-0.187003	0.320531	2.29249
H	1.22435	-1.6172	0.925204
C	5.16564	0.0668394	-0.989048
C	5.79314	1.10687	-0.336566
N	6.43567	0.670333	0.773885
C	6.20765	-0.635544	0.810159
N	5.44667	-1.04799	-0.231181
H	4.55923	0.0419873	-1.90839
H	5.79376	2.1644	-0.647162
H	6.57419	-1.33696	1.5769
H	5.13091	-2.02993	-0.424419
