18
  This energy is -1.0056 and Call times are: 106051
C	-0.367883	-0.0858217	1.06944
C	-1.13849	-0.44014	0.00126385
C	-0.339607	-0.19233	-1.15653
C	0.848665	0.291546	-0.693663
O	0.848901	0.36324	0.663493
H	-0.567298	-0.105735	2.15345
H	-2.16638	-0.836269	0.0261445
H	-0.624939	-0.35812	-2.20781
H	1.76082	0.616437	-1.22061
C	6.02917	0.230351	-0.894619
C	6.21741	0.55729	0.431586
N	5.17557	0.138978	1.1906
C	4.34417	-0.445248	0.338504
N	4.81382	-0.416001	-0.931205
H	6.65325	0.406044	-1.78524
H	7.0863	1.08751	0.854361
H	3.37786	-0.91078	0.591026
H	4.34202	-0.81053	-1.78151
