18
  This energy is -0.3978 and Call times are: 94328
C	0.256954	1.09494	-0.146591
C	-1.02913	0.655604	-0.0310473
C	-0.944943	-0.760121	0.138523
C	0.385154	-1.06094	0.111632
O	1.13375	0.060026	-0.0617249
H	0.674335	2.10506	-0.290473
H	-1.94519	1.26713	-0.0621118
H	-1.78275	-1.4645	0.265072
H	0.919674	-2.02066	0.20369
C	6.41063	-0.745073	-0.0268509
C	5.07421	-1.06754	-0.13248
N	4.29711	0.0404109	-0.0612057
C	5.1482	1.04639	0.0880725
N	6.4346	0.624441	0.114733
H	7.31609	-1.37232	-0.041913
H	4.6568	-2.07978	-0.258842
H	4.88306	2.11173	0.182794
H	7.28771	1.22595	0.22269
