18
  This energy is -1.5866 and Call times are: 12157
C	-0.101403	-0.851766	0.742033
C	-0.10436	0.456692	1.12713
C	0.0421151	1.21772	-0.0726601
C	0.12165	0.307129	-1.08502
O	0.0357483	-0.961646	-0.605605
H	-0.188299	-1.78491	1.3225
H	-0.200084	0.846826	2.15316
H	0.0825389	2.31522	-0.161834
H	0.23856	0.432873	-2.17395
C	4.55	-0.519583	0.996306
C	3.53812	0.406657	0.857334
N	3.40557	0.795465	-0.434088
C	4.3317	0.113027	-1.09377
N	5.04802	-0.693878	-0.275615
H	4.93799	-1.04936	1.88081
H	2.90132	0.80135	1.66576
H	4.52833	0.166216	-2.1767
H	5.83319	-1.3309	-0.55665
