18
  This energy is -1.2636 and Call times are: 117647
C	0.497898	-0.489079	0.894036
C	-0.00645952	-1.21171	-0.147026
C	-0.543013	-0.255889	-1.0628
C	-0.31917	0.966445	-0.500514
O	0.315573	0.842868	0.694827
H	1.00366	-0.800204	1.82283
H	-0.00118921	-2.30786	-0.25886
H	-1.03647	-0.463623	-2.02584
H	-0.559973	1.98524	-0.845929
C	3.73114	0.236348	-0.432158
C	4.78649	-0.341979	-1.10515
N	5.86978	-0.46649	-0.300477
C	5.48792	0.0326949	0.867266
N	4.20657	0.46966	0.838949
H	2.70951	0.489927	-0.756989
H	4.78567	-0.671625	-2.1569
H	6.10669	0.102573	1.77637
H	3.67631	0.903518	1.63384
