18
  This energy is -0.8305 and Call times are: 45795
C	0.957389	-0.559524	-0.2382
C	-0.246231	-1.18971	-0.117648
C	-1.19565	-0.165403	0.181547
C	-0.488388	1.0003	0.217416
O	0.828099	0.77827	-0.0366988
H	1.96554	-0.945418	-0.461756
H	-0.445515	-2.26774	-0.228311
H	-2.2774	-0.291338	0.348983
H	-0.801259	2.03964	0.410159
C	5.97764	0.962187	-0.562741
C	6.65566	-0.229185	-0.41418
N	5.92251	-1.12388	0.291887
C	4.79397	-0.489964	0.580254
N	4.77866	0.770984	0.0869348
H	6.25428	1.90121	-1.06795
H	7.66071	-0.459208	-0.80381
H	3.94567	-0.902367	1.14994
H	4.00151	1.46983	0.181364
