18
  This energy is -1.0197 and Call times are: 112538
C	-0.500126	0.876075	-0.518428
C	0.403994	1.04281	0.489115
C	0.803022	-0.272364	0.877987
C	0.107519	-1.12668	0.0737497
O	-0.693213	-0.44248	-0.785154
H	-1.06874	1.60529	-1.11858
H	0.754735	1.99628	0.915692
H	1.52466	-0.541333	1.66602
H	0.0941108	-2.2274	0.0146788
C	5.65304	0.00619456	-1.12268
C	6.30534	-0.570031	-0.0532846
N	5.6138	-0.386211	1.09758
C	4.53659	0.301436	0.743499
N	4.51406	0.562764	-0.584955
H	5.91017	0.0578562	-2.19261
H	7.26256	-1.11512	-0.0915178
H	3.73249	0.639455	1.41685
H	3.77061	1.08908	-1.10603
