18
  This energy is -0.6777 and Call times are: 88391
C	-0.324107	-1.07331	-0.171368
C	-1.17475	-0.121189	0.308469
C	-0.41048	1.08301	0.38534
C	0.839737	0.760456	-0.0543077
O	0.910431	-0.552391	-0.398469
H	-0.473612	-2.14296	-0.392125
H	-2.23415	-0.253571	0.580953
H	-0.75949	2.06992	0.729276
H	1.75364	1.36632	-0.168106
C	6.19961	-0.564816	-0.653223
C	4.85477	-0.853948	-0.558553
N	4.22954	0.000851098	0.286976
C	5.18288	0.817172	0.715221
N	6.38877	0.517205	0.17722
H	7.00844	-1.03673	-1.23343
H	4.32442	-1.66402	-1.0852
H	5.05273	1.65155	1.42311
H	7.29513	1.0142	0.358217
