18
  This energy is -0.8959 and Call times are: 135538
C	-0.932771	0.631099	-0.134362
C	0.221161	1.13546	0.389509
C	1.15276	0.0527852	0.397806
C	0.485875	-1.0176	-0.121728
O	-0.789069	-0.68243	-0.452171
H	-1.91214	1.09783	-0.329956
H	0.398536	2.16647	0.7354
H	2.19605	0.0774667	0.751409
H	0.802734	-2.0573	-0.305779
C	5.40983	-1.15117	0.227518
C	6.10236	-0.564579	-0.810492
N	5.99251	0.78553	-0.76987
C	5.23472	1.03556	0.289313
N	4.85786	-0.0995031	0.924299
H	5.27523	-2.20734	0.510238
H	6.6793	-1.09135	-1.58799
H	4.92531	2.03155	0.644966
H	4.25924	-0.165782	1.78367
