18
  This energy is -1.2324 and Call times are: 25438
C	0.0243313	-0.221309	-1.11213
C	-0.652762	0.84327	-0.593873
C	-0.449315	0.785933	0.818727
C	0.334142	-0.308623	1.03899
O	0.632944	-0.935683	-0.129138
H	0.148505	-0.574221	-2.14909
H	-1.23689	1.59365	-1.15049
H	-0.844337	1.48302	1.57511
H	0.741391	-0.741315	1.96752
C	4.52405	0.41674	1.10038
C	3.56488	0.666274	0.141807
N	3.85241	0.0235044	-1.01607
C	4.98565	-0.622331	-0.776722
N	5.43108	-0.41713	0.48545
H	4.62209	0.762028	2.14187
H	2.67053	1.29859	0.26493
H	5.53223	-1.25966	-1.49038
H	6.30154	-0.817056	0.913961
