18
  This energy is -0.5376 and Call times are: 15862
C	-0.951357	0.602716	-0.134363
C	-0.940258	-0.760873	-0.163935
C	0.420285	-1.1453	0.0391798
C	1.12049	0.0173067	0.174942
O	0.298631	1.09475	0.0716494
H	-1.77252	1.32974	-0.245591
H	-1.80355	-1.42899	-0.313751
H	0.821607	-2.17074	0.0781561
H	2.19239	0.209441	0.346327
C	7.46276	-0.102731	-0.150108
C	6.78592	-0.0361712	1.04931
N	5.45035	0.0795744	0.850928
C	5.29921	0.0847998	-0.466551
N	6.48325	-0.022823	-1.11466
H	8.53632	-0.198124	-0.377921
H	7.23735	-0.0695918	2.05427
H	4.34372	0.165167	-1.00953
H	6.6276	-0.0417821	-2.15392
