18
  This energy is -2.3998 and Call times are: 88327
C	-0.30963	1.08779	-0.0850591
C	-0.121637	0.294233	-1.17835
C	0.256264	-0.986555	-0.671511
C	0.26584	-0.862602	0.686766
O	-0.0773195	0.397613	1.06241
H	-0.604995	2.14576	0.00833304
H	-0.237459	0.581928	-2.23567
H	0.491698	-1.88934	-1.25772
H	0.496287	-1.58673	1.48538
C	4.16206	-1.14155	-0.15916
C	5.33258	-0.487586	-0.480664
N	5.26176	0.827143	-0.159754
C	4.05192	0.988184	0.358862
N	3.35001	-0.16958	0.381233
H	3.85958	-2.1947	-0.272883
H	6.22692	-0.940848	-0.938431
H	3.62906	1.93255	0.737806
H	2.3733	-0.30164	0.741579
