18
  This energy is -0.9403 and Call times are: 66187
C	-0.865407	-0.0782314	-0.728938
C	0.334075	0.470924	-1.07541
C	1.15303	0.389817	0.0920035
C	0.381697	-0.201742	1.04881
O	-0.854071	-0.49434	0.564791
H	-1.79369	-0.22933	-1.30401
H	0.614081	0.890982	-2.05482
H	2.19424	0.734487	0.197699
H	0.592899	-0.465693	2.09809
C	4.88764	0.91792	-0.610305
C	5.12171	-0.354637	-1.0867
N	5.59734	-1.16282	-0.108383
C	5.65812	-0.394567	0.970834
N	5.24087	0.868937	0.719739
H	4.50739	1.82466	-1.10707
H	4.95591	-0.704104	-2.1188
H	6.00055	-0.706509	1.97067
H	5.19515	1.66045	1.40726
