18
  This energy is -1.6336 and Call times are: 8139
C	-0.485627	0.405034	-0.941549
C	-0.602957	-0.899938	-0.562531
C	0.134837	-1.02148	0.654434
C	0.637892	0.219948	0.911656
O	0.26885	1.10351	-0.052781
H	-0.886047	0.952847	-1.81035
H	-1.1538	-1.697	-1.08729
H	0.269774	-1.93151	1.26084
H	1.26404	0.598646	1.73614
C	3.63417	-0.490184	-0.963234
C	3.63074	-1.00982	0.313917
N	4.25736	-0.17837	1.18142
C	4.64805	0.853147	0.445238
N	4.29598	0.712487	-0.854707
H	3.22611	-0.878183	-1.91006
H	3.18734	-1.96977	0.624965
H	5.19537	1.73828	0.807468
H	4.49017	1.39043	-1.63185
