18
  This energy is -1.3366 and Call times are: 8605
C	-0.431324	-0.958269	-0.426709
C	0.0191899	0.0563427	-1.21916
C	0.479215	1.07355	-0.328216
C	0.269207	0.590747	0.930025
O	-0.286244	-0.648921	0.888687
H	-0.87153	-1.93836	-0.673466
H	0.0267989	0.0855279	-2.3206
H	0.914414	2.04823	-0.601538
H	0.469081	1.026	1.92293
C	4.34168	1.13069	-0.321291
C	3.64602	0.0763959	-0.874165
N	3.95629	-1.09026	-0.25841
C	4.84107	-0.76098	0.672919
N	5.10661	0.566826	0.675264
H	4.34637	2.20643	-0.558573
H	2.9258	0.136635	-1.70633
H	5.32617	-1.45276	1.38028
H	5.769	1.07076	1.31445
