18
  This energy is -1.3394 and Call times are: 134303
C	-1.08426	-0.280069	0.179832
C	-0.72133	0.741127	-0.648307
C	0.705977	0.783335	-0.614711
C	1.08926	-0.215794	0.230991
O	0.0088176	-0.875529	0.725376
H	-2.07354	-0.676982	0.460974
H	-1.39149	1.39872	-1.22499
H	1.36249	1.48016	-1.16016
H	2.08594	-0.553979	0.558878
C	4.96023	0.489949	1.06837
C	4.53432	1.09342	-0.0959213
N	4.59547	0.234331	-1.14222
C	5.05755	-0.897785	-0.628978
N	5.29295	-0.794639	0.70051
H	5.0472	0.871017	2.0983
H	4.18401	2.1333	-0.199731
H	5.24225	-1.83288	-1.1819
H	5.65914	-1.54942	1.33095
