18
  This energy is -1.3854 and Call times are: 43462
C	-0.134409	-0.136806	1.11786
C	1.0928	0.0192912	0.543428
C	0.853579	0.160552	-0.857621
C	-0.498689	0.078308	-1.01567
O	-1.11784	-0.103287	0.180447
H	-0.437259	-0.278442	2.16833
H	2.0686	0.033531	1.05499
H	1.60704	0.306093	-1.64833
H	-1.13438	0.133223	-1.91462
C	5.41874	0.986015	0.487366
C	5.47049	-0.28573	1.01758
N	4.89099	-1.18562	0.18639
C	4.48128	-0.474847	-0.855514
N	4.77608	0.839984	-0.721706
H	5.78164	1.95238	0.872046
H	5.9156	-0.570085	1.98499
H	3.96013	-0.866982	-1.74369
H	4.55686	1.60282	-1.4082
