18
  This energy is -0.528 and Call times are: 119384
C	0.285668	1.06335	0.272171
C	1.04821	-0.0109809	0.625319
C	0.370078	-1.15788	0.110656
C	-0.746996	-0.683156	-0.511562
O	-0.814551	0.6713	-0.422685
H	0.415495	2.14306	0.452779
H	1.99341	0.00279716	1.19145
H	0.684961	-2.21014	0.198409
H	-1.56072	-1.19924	-1.04706
C	5.21153	0.395415	0.209672
C	6.01707	-0.310492	1.07797
N	7.20998	-0.606046	0.506914
C	7.14474	-0.0854717	-0.711023
N	5.95977	0.529055	-0.938571
H	4.19275	0.798667	0.323804
H	5.75887	-0.611835	2.10626
H	7.93616	-0.12534	-1.47673
H	5.66683	1.01477	-1.82148
