18
  This energy is -1.2707 and Call times are: 101628
C	0.927579	0.647048	-0.0856035
C	-0.111658	0.965519	0.738373
C	-1.07618	-0.0745908	0.571099
C	-0.541209	-0.93684	-0.340329
O	0.682201	-0.511678	-0.752055
H	1.88499	1.15585	-0.284945
H	-0.19107	1.84468	1.39781
H	-2.05211	-0.162203	1.07506
H	-0.92584	-1.87525	-0.772417
C	4.54824	-0.72066	-0.54827
C	5.88645	-0.548926	-0.832609
N	6.44964	0.361455	-0.00162498
C	5.46456	0.753009	0.795203
N	4.29795	0.129498	0.505662
H	3.78189	-1.36616	-1.00607
H	6.45567	-1.0656	-1.62247
H	5.54267	1.49366	1.60734
H	3.37804	0.267423	0.991471
