18
  This energy is -0.8303 and Call times are: 48975
C	0.815486	-0.664525	0.424016
C	-0.458122	-0.669328	0.912147
C	-1.17938	0.285434	0.13219
C	-0.282854	0.789394	-0.763709
O	0.940451	0.220478	-0.599784
H	1.71207	-1.2362	0.714843
H	-0.850343	-1.28359	1.73855
H	-2.24201	0.55862	0.233632
H	-0.389831	1.54618	-1.55812
C	5.78661	0.333052	-1.12546
C	4.64181	-0.0582286	-0.464037
N	4.90724	-0.374955	0.8266
C	6.21174	-0.180901	0.96532
N	6.78733	0.246166	-0.183551
H	5.95438	0.656394	-2.1651
H	3.62908	-0.117673	-0.894964
H	6.79632	-0.336294	1.88638
H	7.8025	0.468698	-0.329055
