18
  This energy is -0.7327 and Call times are: 134367
C	-0.480743	-0.526712	-0.881964
C	-0.617815	0.813405	-0.668255
C	0.119925	1.09709	0.521443
C	0.642692	-0.0947156	0.929718
O	0.285948	-1.09723	0.0843175
H	-0.873948	-1.18469	-1.67424
H	-1.18185	1.53026	-1.28638
H	0.241609	2.07762	1.00913
H	1.27598	-0.357978	1.79279
C	6.88158	0.73713	0.917274
C	5.81609	0.387842	0.114858
N	6.1961	-0.485451	-0.849227
C	7.49241	-0.677201	-0.645676
N	7.95295	0.0378881	0.407957
H	6.95091	1.41131	1.78572
H	4.77995	0.750315	0.214288
H	8.15241	-1.33074	-1.23857
H	8.93841	0.0561677	0.768239
