18
  This energy is -1.1381 and Call times are: 40967
C	-0.00451199	-0.897695	0.693198
C	-1.07218	-0.0563969	0.580631
C	-0.689881	0.934946	-0.373939
C	0.57766	0.611929	-0.760429
O	1.01199	-0.504568	-0.118708
H	0.154355	-1.79919	1.30746
H	-2.03261	-0.126845	1.11608
H	-1.29496	1.78594	-0.725752
H	1.26846	1.08979	-1.47436
C	5.67384	-0.727543	-0.303621
C	5.23166	0.373245	-1.0064
N	4.20579	0.983084	-0.364384
C	4.01227	0.263361	0.732508
N	4.87249	-0.779136	0.815025
H	6.4753	-1.45362	-0.513388
H	5.63449	0.738348	-1.96519
H	3.25437	0.455384	1.509
H	4.91995	-1.49107	1.58454
