18
  This energy is -0.8026 and Call times are: 128206
C	-0.535161	-0.667606	-0.744517
C	-0.782558	0.670666	-0.653986
C	0.0720634	1.15707	0.381943
C	0.766264	0.0730966	0.833004
O	0.408051	-1.04971	0.15624
H	-0.958422	-1.44667	-1.39962
H	-1.49536	1.25654	-1.25628
H	0.153624	2.19506	0.742539
H	1.53213	-0.0291798	1.61929
C	4.24602	0.00436344	-0.231083
C	5.13249	-1.02594	-0.462996
N	6.38638	-0.688254	-0.0753872
C	6.2782	0.546845	0.395199
N	5.00745	1.00901	0.323076
H	3.16333	0.090851	-0.415041
H	4.88979	-2.00691	-0.903056
H	7.09779	1.15909	0.804649
H	4.6671	1.95283	0.630692
