18
  This energy is -1.4338 and Call times are: 94062
C	0.0279118	0.430612	1.0489
C	0.123906	-0.908126	0.806128
C	0.0500833	-1.05447	-0.612763
C	-0.0845056	0.207762	-1.1118
O	-0.0999253	1.12716	-0.111053
H	0.0373214	1.0056	1.98941
H	0.235505	-1.71195	1.55145
H	0.0930642	-1.99432	-1.18629
H	-0.177813	0.579136	-2.14554
C	5.13784	0.563071	-0.605032
C	3.88889	0.200091	-1.06275
N	3.18035	-0.434923	-0.097737
C	3.98668	-0.465772	0.954642
N	5.17889	0.123291	0.699229
H	5.97249	1.08577	-1.09867
H	3.48633	0.385025	-2.072
H	3.75433	-0.907365	1.93711
H	5.98158	0.225518	1.36744
