18
  This energy is -1.1521 and Call times are: 59099
C	0.187795	-0.956567	0.579753
C	-0.87941	-0.806741	-0.25631
C	-0.773082	0.512441	-0.793497
C	0.349712	1.05229	-0.238281
O	0.949058	0.169023	0.602924
H	0.512239	-1.80337	1.20658
H	-1.66291	-1.55056	-0.473005
H	-1.45775	0.994789	-1.5095
H	0.822102	2.04101	-0.358894
C	4.43541	0.00664305	-1.16907
C	3.82643	-0.971788	-0.412119
N	3.84768	-0.654459	0.905212
C	4.46747	0.516382	0.965274
N	4.84147	0.957175	-0.259235
H	4.60296	0.0909667	-2.25459
H	3.37211	-1.901	-0.792913
H	4.67387	1.09488	1.88014
H	5.34485	1.85245	-0.474525
