18
  This energy is -1.1503 and Call times are: 125021
C	0.669344	0.469479	-0.78611
C	1.12301	0.140075	0.457295
C	0.00333111	-0.417304	1.14705
C	-1.03571	-0.379304	0.264262
O	-0.646879	0.159218	-0.92141
H	1.17674	0.924088	-1.65279
H	2.14373	0.275963	0.849427
H	-0.0166844	-0.799496	2.18031
H	-2.08623	-0.700232	0.357318
C	5.92016	0.976624	-0.645646
C	6.93274	0.203197	-0.118724
N	6.43376	-0.850244	0.572501
C	5.11664	-0.730797	0.474767
N	4.75689	0.354976	-0.249989
H	5.94426	1.89477	-1.25389
H	8.0144	0.386416	-0.224926
H	4.36925	-1.41053	0.914785
H	3.77828	0.664312	-0.468818
