18
  This energy is -1.4276 and Call times are: 22026
C	0.984827	-0.204179	0.52424
C	0.493978	1.05741	0.357424
C	-0.745691	0.906157	-0.335728
C	-0.902952	-0.434513	-0.531297
O	0.144564	-1.12772	-0.0124601
H	1.90795	-0.572367	1.00124
H	0.958293	1.99998	0.689201
H	-1.43364	1.70813	-0.648231
H	-1.7047	-1.01316	-1.01875
C	4.10273	1.03275	-0.266929
C	4.68074	0.678377	0.933685
N	5.1557	-0.590151	0.891762
C	4.87342	-1.0211	-0.330213
N	4.23854	-0.0793604	-1.06753
H	3.62045	1.96647	-0.597242
H	4.76356	1.31529	1.82942
H	5.10915	-2.01762	-0.737166
H	3.91198	-0.177649	-2.05998
