18
  This energy is -1.4513 and Call times are: 66016
C	-0.865503	-0.442783	-0.584166
C	-0.530424	0.87703	-0.66284
C	0.592941	1.04749	0.202673
C	0.845167	-0.183207	0.733844
O	-0.0359047	-1.10529	0.264283
H	-1.6621	-1.02537	-1.07536
H	-1.02473	1.65273	-1.2695
H	1.14279	1.98163	0.400499
H	1.61162	-0.528622	1.44693
C	4.14953	0.69111	-0.885795
C	4.13907	0.999161	0.458132
N	4.61314	-0.0315237	1.19939
C	4.91655	-0.975394	0.318663
N	4.65518	-0.587988	-0.95224
H	3.84316	1.27221	-1.7701
H	3.79794	1.94665	0.906189
H	5.33305	-1.96894	0.550237
H	4.80851	-1.15414	-1.82243
