18
  This energy is -0.7234 and Call times are: 129371
C	0.442068	-0.531381	0.899228
C	-0.73737	0.150888	0.960941
C	-0.956217	0.672837	-0.350468
C	0.108806	0.263448	-1.0978
O	0.97266	-0.473082	-0.350607
H	1.00265	-1.0931	1.66439
H	-1.388	0.274235	1.8416
H	-1.81026	1.28133	-0.688751
H	0.364879	0.427968	-2.15733
C	5.41062	1.08076	-0.457231
C	4.50071	0.0521866	-0.580667
N	4.92412	-1.056	0.0744246
C	6.09227	-0.716214	0.602255
N	6.42966	0.562237	0.31016
H	5.40528	2.11067	-0.848131
H	3.54628	0.0898446	-1.13067
H	6.7421	-1.36496	1.21142
H	7.30142	1.06304	0.610959
