18
  This energy is -1.164 and Call times are: 109884
C	0.680326	-0.102655	-0.901676
C	-0.677778	-0.0453652	-1.01412
C	-1.17545	0.0816975	0.318656
C	-0.0775262	0.0908374	1.12789
O	1.06434	-0.0208661	0.399421
H	1.47337	-0.199813	-1.66121
H	-1.26974	-0.0882783	-1.94247
H	-2.22999	0.156888	0.629114
H	0.0230603	0.170475	2.22278
C	4.98204	-0.204266	1.08105
C	6.27248	0.146839	0.745452
N	6.4034	0.304039	-0.594197
C	5.19876	0.0514164	-1.0878
N	4.30679	-0.260002	-0.117748
H	4.51212	-0.411494	2.05562
H	7.1114	0.289547	1.44595
H	4.91477	0.0801358	-2.15211
H	3.29384	-0.498475	-0.253072
