18
  This energy is -1.009 and Call times are: 7025
C	-0.480882	0.680316	-0.769626
C	0.804491	0.239198	-0.886265
C	1.04172	-0.581243	0.258601
C	-0.119635	-0.569059	0.973786
O	-1.06031	0.196443	0.36048
H	-1.09104	1.33357	-1.41478
H	1.51438	0.468551	-1.69716
H	1.9721	-1.11448	0.511849
H	-0.399721	-1.05737	1.9216
C	6.76733	-0.0931648	0.117261
C	5.92928	-0.968441	-0.540536
N	4.64132	-0.551494	-0.478648
C	4.68021	0.57815	0.214905
N	5.93953	0.897242	0.596868
H	7.85784	-0.104608	0.272826
H	6.23088	-1.89333	-1.05868
H	3.81598	1.21166	0.471796
H	6.22997	1.73877	1.1525
