18
  This energy is -0.8108 and Call times are: 107938
C	0.062416	-1.12896	0.0892236
C	-1.11851	-0.47617	-0.109887
C	-0.792334	0.913209	-0.167763
C	0.559127	0.986801	0.00108807
O	1.09744	-0.251	0.15946
H	0.296198	-2.20092	0.19643
H	-2.11896	-0.927734	-0.206328
H	-1.48959	1.75306	-0.318
H	1.24676	1.84802	0.027765
C	6.12486	0.0324534	-0.577668
C	5.16374	1.02042	-0.541435
N	4.10812	0.647419	0.22213
C	4.41319	-0.567336	0.657935
N	5.61917	-0.982701	0.20331
H	7.10035	-0.0183646	-1.08695
H	5.21309	1.9957	-1.05257
H	3.78946	-1.19731	1.3124
H	6.08098	-1.90276	0.406955
