18
  This energy is -1.4064 and Call times are: 78335
C	-0.0876718	0.0927464	-1.12699
C	-0.984902	-0.61265	-0.380154
C	-0.543328	-0.497362	0.973301
C	0.58476	0.268308	0.934059
O	0.877692	0.637502	-0.340656
H	-0.0264181	0.280165	-2.2116
H	-1.869	-1.15933	-0.745675
H	-1.01699	-0.93688	1.8658
H	1.26042	0.616138	1.73265
C	4.2219	0.17531	1.15737
C	3.74087	-0.95898	0.538386
N	3.73759	-0.816154	-0.809241
C	4.21477	0.402109	-1.02547
N	4.52153	1.04034	0.128717
H	4.36734	0.419991	2.22156
H	3.39611	-1.87786	1.04004
H	4.36032	0.876564	-2.00931
H	4.91303	2.0095	0.222181
