18
  This energy is -0.9158 and Call times are: 54557
C	-0.755316	-0.659032	0.530637
C	0.535515	-0.539854	0.954814
C	1.16442	0.363387	0.0444524
C	0.202379	0.716431	-0.855669
O	-0.976303	0.101349	-0.573898
H	-1.6027	-1.24487	0.923052
H	0.99839	-1.03802	1.8218
H	2.21185	0.704772	0.0652658
H	0.23005	1.38736	-1.72993
C	5.31288	0.710317	0.919525
C	6.00752	-0.480739	0.921845
N	6.02715	-1.03735	-0.313594
C	5.34728	-0.194803	-1.07943
N	4.89587	0.874819	-0.382487
H	5.09311	1.42853	1.72538
H	6.49488	-0.948423	1.79282
H	5.15009	-0.312575	-2.15715
H	4.33508	1.67666	-0.761711
