18
  This energy is -1.2852 and Call times are: 21770
C	0.540991	0.866988	0.491998
C	0.516954	-0.382995	1.03729
C	-0.250483	-1.18644	0.139709
C	-0.627667	-0.356498	-0.87484
O	-0.15304	0.901354	-0.675972
H	1.01065	1.80433	0.832668
H	0.99199	-0.706782	1.97728
H	-0.488773	-2.25701	0.245417
H	-1.22582	-0.53706	-1.78306
C	5.65428	-0.665466	0.177737
C	4.76819	-0.217191	1.13431
N	3.78231	0.526871	0.576698
C	4.05576	0.54014	-0.720867
N	5.17475	-0.164634	-1.01197
H	6.56189	-1.28477	0.256792
H	4.82258	-0.417314	2.21683
H	3.46968	1.05048	-1.50209
H	5.59665	-0.303153	-1.9628
