18
  This energy is -1.4865 and Call times are: 122245
C	-0.583953	-0.717184	0.656542
C	-0.558825	-0.826878	-0.702763
C	0.269843	0.240331	-1.1659
C	0.67795	0.90797	-0.0487217
O	0.165968	0.336865	1.07321
H	-1.09078	-1.31823	1.42928
H	-1.07232	-1.58342	-1.31763
H	0.526588	0.475753	-2.21124
H	1.32413	1.79185	0.0796116
C	4.3968	0.906665	-0.744098
C	3.73566	-0.282083	-0.969759
N	3.82614	-1.1031	0.104601
C	4.54069	-0.426268	0.993386
N	4.9086	0.791368	0.529067
H	4.53469	1.79681	-1.37826
H	3.195	-0.562054	-1.88853
H	4.82353	-0.775252	1.99959
H	5.47569	1.51057	1.04133
