18
  This energy is -0.7315 and Call times are: 131954
C	-0.939779	-0.339925	-0.536346
C	-0.418307	0.910042	-0.69766
C	0.745974	0.957567	0.128359
C	0.833199	-0.267554	0.721523
O	-0.188185	-1.0726	0.326961
H	-1.82877	-0.82327	-0.973749
H	-0.813845	1.7176	-1.33445
H	1.43263	1.8093	0.25935
H	1.56419	-0.684773	1.43344
C	5.80827	0.868461	-0.788958
C	4.77773	0.261547	-0.102831
N	5.24452	-0.702183	0.727736
C	6.55965	-0.693175	0.557518
N	6.94898	0.236337	-0.346925
H	5.81055	1.67844	-1.5356
H	3.70574	0.501781	-0.192215
H	7.28451	-1.34607	1.06989
H	7.93243	0.437205	-0.653098
