18
  This energy is -0.9233 and Call times are: 93320
C	-0.200835	-1.1023	-0.176056
C	0.677484	-0.661866	0.769959
C	0.656348	0.764034	0.689455
C	-0.233021	1.06907	-0.298648
O	-0.766046	-0.0586767	-0.83817
H	-0.507719	-2.11893	-0.471915
H	1.27983	-1.27916	1.45568
H	1.23905	1.4721	1.30035
H	-0.569313	2.03644	-0.706521
C	4.67637	0.201884	-0.816066
C	4.57017	0.42678	0.540137
N	5.71149	0.0807167	1.18367
C	6.52265	-0.357203	0.230325
N	5.94475	-0.304118	-0.993116
H	3.9629	0.360809	-1.64023
H	3.69047	0.832545	1.06581
H	7.55037	-0.728269	0.372924
H	6.37999	-0.593318	-1.90316
