18
  This energy is -1.3436 and Call times are: 66920
C	0.539762	-0.914054	0.399454
C	-0.418007	-0.996159	-0.568178
C	-0.854997	0.343692	-0.800465
C	-0.125691	1.12628	0.0457252
O	0.731111	0.374725	0.786038
H	1.1507	-1.68888	0.891037
H	-0.780421	-1.90869	-1.06821
H	-1.62359	0.676539	-1.51641
H	-0.122783	2.21573	0.214104
C	4.40177	-1.15209	-0.13068
C	3.56984	-0.365337	-0.89884
N	3.57632	0.919259	-0.467237
C	4.4091	0.929399	0.564753
N	4.93276	-0.295495	0.807663
H	4.64538	-2.22512	-0.183602
H	2.96506	-0.701594	-1.75675
H	4.67141	1.80653	1.17799
H	5.61355	-0.545102	1.56627
