18
  This energy is -0.9214 and Call times are: 55348
C	0.122001	0.836098	-0.756609
C	-0.0941358	-0.458615	-1.12725
C	-0.193029	-1.20201	0.0883567
C	-0.0285948	-0.295946	1.09453
O	0.164924	0.953728	0.596659
H	0.260037	1.75365	-1.35183
H	-0.175741	-0.85082	-2.15371
H	-0.366555	-2.28519	0.191801
H	-0.0281592	-0.412747	2.19071
C	6.36984	0.114641	0.0585462
C	5.59394	0.119253	-1.08124
N	4.28189	-0.0362158	-0.779797
C	4.24397	-0.136893	0.541963
N	5.47751	-0.051927	1.09401
H	7.45756	0.214763	0.201313
H	5.95734	0.231974	-2.11568
H	3.33956	-0.273846	1.15638
H	5.70988	-0.103173	2.11609
