18
  This energy is -0.6312 and Call times are: 23399
C	-0.914532	-0.344315	-0.575742
C	-0.849588	0.875883	0.0302892
C	0.439186	0.940183	0.642698
C	1.04802	-0.246398	0.356839
O	0.235702	-1.043	-0.38651
H	-1.71219	-0.826903	-1.16405
H	-1.63085	1.65274	0.044634
H	0.855826	1.77681	1.22627
H	2.04357	-0.639519	0.620634
C	6.83204	0.364857	-0.432276
C	5.68144	0.104582	-1.14607
N	4.67935	-0.298533	-0.327639
C	5.20629	-0.288377	0.889267
N	6.5021	0.104488	0.879036
H	7.82903	0.705567	-0.753935
H	5.55639	0.200442	-2.23696
H	4.68769	-0.559496	1.82296
H	7.13489	0.193741	1.71143
