18
  This energy is -0.888 and Call times are: 88423
C	0.0243458	-0.0613811	-1.13227
C	1.00312	-0.600759	-0.350322
C	0.623666	-0.322859	0.998345
C	-0.553492	0.361807	0.921489
O	-0.934295	0.530452	-0.372172
H	-0.103886	-0.0320316	-2.22678
H	1.90213	-1.14021	-0.689242
H	1.16998	-0.604001	1.913
H	-1.2097	0.777827	1.70352
C	4.96219	-0.981995	-0.118214
C	4.71223	0.242267	-0.701177
N	5.65198	1.15259	-0.348065
C	6.48178	0.495571	0.450921
N	6.10896	-0.795062	0.620815
H	4.42315	-1.94103	-0.175067
H	3.87064	0.485022	-1.37024
H	7.37813	0.911452	0.938601
H	6.59993	-1.51597	1.20433
