18
  This energy is -0.8217 and Call times are: 78655
C	1.05127	-0.408248	0.120726
C	0.758535	0.614943	-0.732365
C	-0.646161	0.840284	-0.605216
C	-1.08782	-0.0650953	0.31435
O	-0.0645384	-0.835765	0.768199
H	2.00142	-0.915874	0.35476
H	1.46128	1.15667	-1.38565
H	-1.24907	1.59146	-1.14031
H	-2.09216	-0.259182	0.725299
C	6.00077	0.977774	0.261003
C	5.34298	0.149747	1.14578
N	4.75565	-0.887032	0.500303
C	5.04796	-0.702895	-0.780037
N	5.79694	0.408067	-0.975958
H	6.58018	1.90131	0.418808
H	5.28166	0.28185	2.23831
H	4.73888	-1.35126	-1.6157
H	6.15428	0.767043	-1.89504
