18
  This energy is -1.5531 and Call times are: 11851
C	0.657876	0.879977	0.281496
C	-0.585981	1.04	-0.254773
C	-1.09167	-0.278404	-0.469727
C	-0.112186	-1.1277	-0.0458377
O	0.963506	-0.437401	0.416095
H	1.41416	1.61357	0.605718
H	-1.09622	1.99105	-0.476717
H	-2.07194	-0.552805	-0.89147
H	-0.0595098	-2.22854	-0.020704
C	4.04549	-0.643727	0.973055
C	4.17742	-1.11244	-0.316924
N	4.34089	-0.0918081	-1.19333
C	4.31049	1.00591	-0.449881
N	4.13446	0.726022	0.863232
H	3.89947	-1.17041	1.92952
H	4.15758	-2.16878	-0.630959
H	4.4123	2.04026	-0.81592
H	4.07674	1.4202	1.64812
