18
  This energy is -0.8929 and Call times are: 135122
C	-0.0684579	-0.174979	-1.11852
C	1.0648	-0.437124	-0.406217
C	0.764065	-0.0938888	0.947247
C	-0.526418	0.347702	0.942543
O	-1.05035	0.304971	-0.310724
H	-0.300177	-0.285741	-2.19057
H	2.017	-0.832532	-0.794895
H	1.43673	-0.170261	1.8166
H	-1.17658	0.714519	1.75371
C	5.28706	-0.894371	0.756596
C	4.92185	-0.884078	-0.572936
N	5.19527	0.31338	-1.14551
C	5.72808	1.04318	-0.174882
N	5.805	0.359712	0.99154
H	5.21736	-1.67919	1.52649
H	4.46596	-1.71923	-1.1293
H	6.07911	2.0839	-0.263851
H	6.18651	0.717044	1.9015
