18
  This energy is -0.9849 and Call times are: 125821
C	0.116779	-0.58059	-0.967305
C	-0.403091	-1.14061	0.162511
C	-0.387578	-0.110788	1.15213
C	0.140402	0.987634	0.539691
O	0.454096	0.718704	-0.755023
H	0.296618	-0.995326	-1.97274
H	-0.761536	-2.17513	0.286588
H	-0.731604	-0.188088	2.19605
H	0.341825	2.0058	0.911207
C	5.58021	0.253054	0.60021
C	4.30103	0.680842	0.886315
N	3.41142	0.198419	-0.0149984
C	4.13594	-0.525896	-0.857051
N	5.44967	-0.52433	-0.528871
H	6.54207	0.440556	1.10339
H	4.00409	1.32894	1.72694
H	3.75506	-1.07843	-1.73104
H	6.22171	-1.02073	-1.0376
