18
  This energy is -1.0948 and Call times are: 131248
C	0.797248	-0.705601	-0.391055
C	-0.53455	-0.931871	-0.579449
C	-1.20917	0.159761	0.047725
C	-0.230067	0.956746	0.56401
O	1.00145	0.443438	0.305379
H	1.68699	-1.27889	-0.699182
H	-0.995629	-1.7822	-1.10713
H	-2.2973	0.3241	0.102996
H	-0.278988	1.90235	1.12853
C	4.69794	1.17302	-0.0955091
C	5.02425	0.434352	1.0221
N	4.91821	-0.89438	0.777683
C	4.5276	-0.9797	-0.486742
N	4.38072	0.239665	-1.05697
H	4.66996	2.26053	-0.268898
H	5.33429	0.836358	2.00042
H	4.33449	-1.91014	-1.04461
H	4.08208	0.436556	-2.04354
