18
  This energy is -1.1403 and Call times are: 100478
C	-0.386683	1.03347	0.262335
C	-0.519459	0.498914	-0.985462
C	0.0818663	-0.795133	-0.92247
C	0.52902	-0.937117	0.358259
O	0.251318	0.170124	1.09576
H	-0.699522	2.00516	0.678515
H	-0.993313	0.968731	-1.86229
H	0.16694	-1.52812	-1.74075
H	1.05287	-1.76597	0.862087
C	4.01375	0.223651	-0.601977
C	4.22442	-0.809077	0.286973
N	5.47844	-0.765024	0.798847
C	6.04357	0.291017	0.229615
N	5.20111	0.920716	-0.623225
H	3.1323	0.502558	-1.20098
H	3.49405	-1.58518	0.568169
H	7.07177	0.648032	0.401591
H	5.41221	1.77683	-1.19223
