18
  This energy is -1.6643 and Call times are: 20487
C	0.328817	-0.667934	-0.855654
C	-0.220111	-1.16512	0.289709
C	-0.498477	-0.032146	1.11372
C	-0.0950814	1.05737	0.399159
O	0.412699	0.687614	-0.806018
H	0.695729	-1.16748	-1.76729
H	-0.409957	-2.22353	0.530194
H	-0.947062	-0.0374586	2.12012
H	-0.115489	2.13424	0.634057
C	4.98265	-0.341559	-0.699547
C	4.19642	-1.149	0.0948358
N	3.27344	-0.421145	0.769253
C	3.48625	0.83306	0.394683
N	4.50639	0.933392	-0.490103
H	5.81944	-0.576183	-1.3765
H	4.27862	-2.2437	0.193431
H	2.92419	1.71667	0.737533
H	4.86601	1.81452	-0.932301
