18
  This energy is -1.164 and Call times are: 43334
C	-0.0852768	0.836567	0.761107
C	-0.469324	-0.443001	1.03604
C	-0.211831	-1.1924	-0.152332
C	0.306837	-0.30462	-1.04855
O	0.391201	0.939241	-0.507529
H	-0.100188	1.75222	1.37479
H	-0.891582	-0.821209	1.98089
H	-0.39475	-2.26716	-0.312056
H	0.650202	-0.431679	-2.08836
C	4.78263	-0.346617	1.10977
C	5.20756	0.829885	0.529752
N	4.82065	0.903001	-0.766959
C	4.15821	-0.223857	-0.990534
N	4.10759	-1.01093	0.110172
H	4.90864	-0.744849	2.12912
H	5.7864	1.62727	1.02369
H	3.68981	-0.523086	-1.94201
H	3.6427	-1.94856	0.187396
