18
  This energy is -0.9756 and Call times are: 59715
C	-1.05273	0.0570781	-0.418209
C	0.0142387	-0.327939	-1.17565
C	1.1485	-0.274271	-0.309219
C	0.674528	0.138803	0.901192
O	-0.667782	0.345861	0.852787
H	-2.12217	0.164934	-0.66298
H	0.00361438	-0.620397	-2.23793
H	2.19216	-0.516846	-0.566169
H	1.1833	0.321333	1.86197
C	5.70523	-0.601768	-0.92669
C	4.8933	-1.08014	0.0798262
N	4.61992	-0.112626	0.988499
C	5.25982	0.961882	0.547375
N	5.92901	0.718147	-0.604303
H	6.1256	-1.09089	-1.81977
H	4.49987	-2.10607	0.166643
H	5.27198	1.95291	1.02899
H	6.50801	1.40398	-1.14804
