18
  This energy is -1.1372 and Call times are: 82755
C	1.06637	0.386298	0.00578825
C	0.059296	1.03155	-0.649823
C	-1.11561	0.250383	-0.427343
C	-0.722782	-0.803275	0.344582
O	0.606659	-0.736241	0.618638
H	2.13842	0.620684	0.110714
H	0.136087	1.96407	-1.23173
H	-2.13088	0.456807	-0.802453
H	-1.28548	-1.65581	0.759067
C	6.2304	-1.13973	-0.115896
C	6.74604	-0.521016	1.00324
N	6.9361	0.803015	0.78569
C	6.53988	1.00493	-0.463657
N	6.1056	-0.135746	-1.05004
H	5.95271	-2.18844	-0.307279
H	6.98433	-1.00626	1.96376
H	6.54648	1.96828	-0.998576
H	5.74291	-0.236196	-2.02965
