18
  This energy is -0.4014 and Call times are: 112314
C	0.0156862	1.00863	0.51848
C	1.1537	0.386923	0.095661
C	0.730612	-0.840821	-0.499114
C	-0.628598	-0.86099	-0.387249
O	-1.0822	0.260682	0.231711
H	-0.144279	1.97221	1.02954
H	2.18739	0.755879	0.192857
H	1.37105	-1.61304	-0.954757
H	-1.37725	-1.6057	-0.703761
C	6.64987	-0.316393	1.10563
C	5.76482	0.155995	0.159753
N	6.39579	0.423309	-1.00941
C	7.66743	0.117917	-0.789678
N	7.87173	-0.332628	0.470823
H	6.50162	-0.63164	2.15071
H	4.6823	0.308726	0.299975
H	8.49053	0.205212	-1.51709
H	8.7866	-0.636431	0.885528
