18
  This energy is -1.0785 and Call times are: 81904
C	0.539762	-0.00832897	0.997491
C	-0.418007	-0.92523	0.677575
C	-0.854997	-0.590526	-0.640427
C	-0.125691	0.50136	-1.00957
O	0.731111	0.870528	-0.021335
H	1.1507	0.124267	1.90547
H	-0.780421	-1.75412	1.30662
H	-1.62359	-1.10831	-1.23646
H	-0.122783	1.09966	-1.93547
C	4.08978	0.727282	0.593074
C	4.75602	-0.370552	1.0951
N	5.4875	-0.981026	0.131369
C	5.27585	-0.264637	-0.964357
N	4.44003	0.776346	-0.737754
H	3.41375	1.45289	1.07268
H	4.72201	-0.733078	2.13542
H	5.70798	-0.458124	-1.95937
H	4.11982	1.48567	-1.44173
