18
  This energy is -1.3066 and Call times are: 88455
C	0.322118	-0.659394	0.864778
C	0.413469	0.700752	0.909878
C	-0.0806729	1.16768	-0.346275
C	-0.430366	0.0516476	-1.0481
O	-0.191132	-1.07308	-0.323689
H	0.585655	-1.43472	1.6028
H	0.790957	1.31376	1.74404
H	-0.162486	2.21469	-0.679699
H	-0.854378	-0.073991	-2.05789
C	4.15827	-0.488091	1.04328
C	3.82809	0.784844	0.628828
N	4.26277	1.01576	-0.633806
C	4.86033	-0.109633	-1.00126
N	4.82388	-1.04704	-0.0247723
H	3.97286	-1.01807	1.99105
H	3.28403	1.54077	1.21825
H	5.34112	-0.301045	-1.97411
H	5.22604	-2.01516	-0.0722394
