18
  This energy is -0.9839 and Call times are: 93052
C	0.170902	0.186419	-1.10564
C	-0.532556	1.05085	-0.319338
C	-0.530042	0.4792	0.989602
C	0.17473	-0.684101	0.887623
O	0.610271	-0.87874	-0.384946
H	0.425346	0.215223	-2.17787
H	-1.00576	1.99622	-0.629914
H	-1.00091	0.893216	1.89567
H	0.432673	-1.4507	1.63665
C	5.83219	-0.13981	0.289314
C	4.73921	-0.662074	0.947946
N	3.58345	-0.300204	0.339863
C	3.95799	0.443725	-0.692083
N	5.30415	0.570194	-0.7658
H	6.91234	-0.220464	0.490081
H	4.76388	-1.29351	1.85101
H	3.28764	0.920313	-1.42538
H	5.84297	1.10686	-1.48894
