18
  This energy is -1.298 and Call times are: 118904
C	0.310097	-0.45004	-0.993834
C	1.1035	-0.509093	0.114049
C	0.379467	0.157148	1.14943
C	-0.792462	0.564517	0.58286
O	-0.851696	0.202129	-0.725642
H	0.456261	-0.82869	-2.01878
H	2.09876	-0.975069	0.19413
H	0.70175	0.310439	2.1919
H	-1.65371	1.11288	0.998551
C	4.30833	0.652929	-0.780192
C	4.40644	0.872579	0.57748
N	5.16818	-0.0773622	1.17236
C	5.54121	-0.883265	0.187474
N	5.04839	-0.485472	-1.00939
H	3.7818	1.20766	-1.57303
H	3.94124	1.69947	1.13845
H	6.17499	-1.77915	0.287201
H	5.20099	-0.95483	-1.9355
