18
  This energy is -0.9873 and Call times are: 46925
C	0.978375	-0.0717466	-0.569242
C	0.93073	0.133263	0.778377
C	-0.455698	0.163998	1.12042
C	-1.13289	-0.0249434	-0.0483804
O	-0.272821	-0.170723	-1.09051
H	1.82838	-0.164799	-1.265
H	1.78609	0.251031	1.46291
H	-0.889012	0.310334	2.12287
H	-2.21196	-0.0752308	-0.268224
C	5.95429	0.720324	0.860643
C	4.7551	0.769119	0.181884
N	4.67925	-0.214345	-0.747393
C	5.82702	-0.870758	-0.645519
N	6.63001	-0.345716	0.310056
H	6.36106	1.34784	1.66953
H	3.94327	1.49633	0.346039
H	6.13086	-1.74315	-1.24622
H	7.58532	-0.685903	0.58007
