18
  This energy is -1.4857 and Call times are: 60954
C	0.028035	0.699382	0.892457
C	-0.879071	0.838772	-0.116554
C	-0.599969	-0.213358	-1.04135
C	0.453053	-0.90281	-0.515826
O	0.849441	-0.359188	0.665005
H	0.190461	1.28056	1.81501
H	-1.66581	1.60557	-0.20113
H	-1.12729	-0.424505	-1.98551
H	1.00382	-1.78557	-0.880034
C	3.55725	0.937819	-0.556384
C	4.0419	-0.215628	-1.13588
N	4.47479	-1.09025	-0.195586
C	4.2595	-0.481709	0.962842
N	3.70759	0.743852	0.798594
H	3.13026	1.85244	-0.99761
H	4.08698	-0.432413	-2.21562
H	4.48735	-0.888313	1.96134
H	3.44435	1.41788	1.55863
