18
  This energy is -0.8839 and Call times are: 92956
C	0.736417	-0.769304	0.390208
C	-0.306946	-0.311026	1.13971
C	-0.995851	0.631003	0.316235
C	-0.312655	0.665225	-0.863784
O	0.748222	-0.183769	-0.836177
H	1.52979	-1.50182	0.612071
H	-0.565516	-0.606688	2.16918
H	-1.89475	1.21095	0.580298
H	-0.477821	1.24345	-1.7877
C	5.02959	-1.01452	-0.174538
C	4.47728	0.190838	0.203889
N	5.42735	1.15114	0.312062
C	6.56472	0.543838	0.00192156
N	6.37771	-0.763069	-0.299099
H	4.57388	-2.00055	-0.357897
H	3.4103	0.384789	0.400806
H	7.56334	1.00912	-0.0205283
H	7.11854	-1.45329	-0.57484
