18
  This energy is -0.8983 and Call times are: 80600
C	0.5949	0.194124	0.945944
C	1.18349	-0.203865	-0.21833
C	0.12309	-0.342185	-1.16518
C	-1.01989	-0.0165104	-0.495929
O	-0.750397	0.313607	0.794577
H	1.01761	0.422006	1.93824
H	2.25673	-0.382152	-0.392877
H	0.210691	-0.649039	-2.21982
H	-2.07264	0.0189132	-0.821088
C	4.75329	0.665925	0.474043
C	5.29026	0.786196	-0.790213
N	6.24811	-0.148059	-1.00517
C	6.30514	-0.845264	0.121456
N	5.42329	-0.393346	1.04433
H	3.96799	1.24002	0.991016
H	5.0037	1.53035	-1.55111
H	6.97449	-1.69681	0.32411
H	5.2777	-0.776824	2.01025
