18
  This energy is -1.4922 and Call times are: 135858
C	0.193613	0.709884	0.863122
C	0.394296	-0.635396	0.964723
C	0.0459706	-1.17997	-0.308943
C	-0.336819	-0.119399	-1.07643
O	-0.252854	1.0426	-0.376628
H	0.329795	1.52643	1.5911
H	0.751757	-1.18874	1.84797
H	0.0796652	-2.23949	-0.609559
H	-0.685298	-0.0605733	-2.12063
C	4.49558	-0.133869	-1.15279
C	3.637	-0.873898	-0.367712
N	3.66068	-0.447393	0.918384
C	4.53064	0.553421	0.931118
N	5.06147	0.781383	-0.293563
H	4.7359	-0.191844	-2.2263
H	3.00088	-1.70793	-0.706233
H	4.81617	1.15354	1.81008
H	5.76926	1.51548	-0.541346
