18
  This energy is -0.6362 and Call times are: 90436
C	0.0957812	1.03934	-0.443852
C	1.18175	0.287143	-0.104379
C	0.66211	-0.938709	0.412702
C	-0.695536	-0.827402	0.343563
O	-1.05897	0.374207	-0.177076
H	0.0127411	2.04926	-0.877923
H	2.24235	0.567412	-0.207724
H	1.2397	-1.79786	0.78998
H	-1.50161	-1.52314	0.62896
C	7.03729	-0.0674947	-0.708535
C	6.51075	-1.07955	0.065827
N	5.4278	-0.651464	0.758987
C	5.28306	0.621327	0.415948
N	6.22903	1.02082	-0.466744
H	7.90116	-0.0454611	-1.39176
H	6.89286	-2.11096	0.136788
H	4.50144	1.30675	0.781313
H	6.3279	1.97736	-0.88688
