18
  This energy is -1.4075 and Call times are: 52386
C	-0.793389	0.712693	0.38601
C	-0.755593	-0.602446	0.745671
C	0.368992	-1.16166	0.0654457
C	0.919139	-0.138881	-0.649843
O	0.222033	1.01316	-0.46584
H	-1.48255	1.52706	0.663683
H	-1.44998	-1.12622	1.42212
H	0.719899	-2.20521	0.109633
H	1.79472	-0.102598	-1.31864
C	4.34966	-0.24314	1.14165
C	4.45968	1.0064	0.569217
N	4.62486	0.916223	-0.772831
C	4.61734	-0.384319	-1.03198
N	4.45422	-1.12537	0.0895496
H	4.20904	-0.556525	2.18834
H	4.42283	1.97139	1.10053
H	4.7274	-0.848436	-2.02531
H	4.4149	-2.17248	0.146739
