18
  This energy is -1.14 and Call times are: 25935
C	-0.751437	-0.733797	-0.428117
C	0.132279	-1.08107	0.551078
C	0.898925	0.0935986	0.820404
C	0.416017	1.05499	-0.0179859
O	-0.592241	0.567122	-0.787669
H	-1.53342	-1.31293	-0.946152
H	0.234072	-2.06565	1.03516
H	1.71331	0.200859	1.55482
H	0.700748	2.11028	-0.161282
C	4.21925	-0.688394	-0.669173
C	4.31546	-0.705772	0.706177
N	5.19744	0.224344	1.14609
C	5.64667	0.816488	0.0478282
N	5.08709	0.30169	-1.07264
H	3.6148	-1.29044	-1.36611
H	3.76429	-1.37277	1.38894
H	6.38585	1.63268	0.00701189
H	5.27796	0.599948	-2.0605
