18
  This energy is -1.9118 and Call times are: 19602
C	0.107431	0.46112	1.03064
C	0.445859	-0.834463	0.771213
C	0.172649	-1.03975	-0.615629
C	-0.308614	0.148507	-1.08125
O	-0.355221	1.0764	-0.0893549
H	0.14838	1.05581	1.95796
H	0.847589	-1.57163	1.48486
H	0.320433	-1.96773	-1.19104
H	-0.647808	0.457563	-2.08359
C	4.77511	-0.990551	-0.270454
C	5.08517	-0.102663	0.737842
N	4.20957	0.931312	0.764779
C	3.35954	0.685807	-0.22305
N	3.65801	-0.461513	-0.877394
H	5.25438	-1.93009	-0.588428
H	5.92498	-0.189603	1.44637
H	2.50057	1.31326	-0.510641
H	3.13758	-0.87019	-1.69189
