18
  This energy is -0.6793 and Call times are: 114761
C	0.539135	-0.994227	-0.0851302
C	-0.487063	-0.792412	0.790406
C	-0.899066	0.562482	0.604304
C	-0.0882674	1.06902	-0.368528
O	0.796081	0.132053	-0.80101
H	1.15996	-1.88139	-0.291924
H	-0.911341	-1.52423	1.49646
H	-1.7063	1.09002	1.13738
H	-0.0407012	2.06705	-0.834265
C	5.80638	-0.736688	0.438332
C	4.5901	-1.07568	-0.115642
N	3.91291	0.0265199	-0.519482
C	4.70607	1.04541	-0.217189
N	5.85985	0.63719	0.362251
H	6.61083	-1.35526	0.867016
H	4.18905	-2.09581	-0.231172
H	4.49097	2.11085	-0.398331
H	6.64545	1.25043	0.690925
