18
  This energy is -1.0138 and Call times are: 131666
C	0.172712	0.85179	-0.728715
C	0.919864	0.694634	0.401524
C	0.409154	-0.471695	1.0488
C	-0.605003	-0.924305	0.256966
O	-0.763281	-0.128039	-0.832951
H	0.207587	1.60946	-1.5287
H	1.7476	1.33572	0.744977
H	0.762188	-0.914705	1.9939
H	-1.28073	-1.78947	0.357603
C	5.43138	-1.06338	-0.380139
C	4.44065	-0.265907	-0.912703
N	4.32604	0.896003	-0.224703
C	5.2422	0.819639	0.731042
N	5.93497	-0.342693	0.679671
H	5.80136	-2.0595	-0.670636
H	3.80648	-0.508103	-1.78105
H	5.44795	1.58651	1.49511
H	6.70837	-0.638518	1.32435
