18
  This energy is -1.4479 and Call times are: 28662
C	-0.0694371	1.12262	0.145922
C	-0.452421	0.235817	1.10887
C	-0.21802	-1.0621	0.560619
C	0.287512	-0.853858	-0.688959
O	0.385048	0.474552	-0.958821
H	-0.0708667	2.22481	0.124826
H	-0.859187	0.471962	2.1053
H	-0.406911	-2.03236	1.04745
H	0.612229	-1.5576	-1.47289
C	4.74089	1.04554	0.312339
C	5.11745	0.278574	-0.769837
N	4.3999	-0.869557	-0.828379
C	3.5813	-0.815066	0.213517
N	3.74826	0.320142	0.932557
H	5.09715	2.02358	0.672956
H	5.89404	0.533083	-1.50943
H	2.83959	-1.57934	0.496348
H	3.22184	0.595286	1.79768
