18
  This energy is -1.0243 and Call times are: 94030
C	-0.391892	-1.06319	0.0494642
C	-0.476349	-0.305473	-1.08151
C	0.115437	0.952647	-0.754339
C	0.509286	0.852684	0.547684
O	0.207279	-0.371684	1.05436
H	-0.716582	-2.0945	0.264475
H	-0.911708	-0.602688	-2.0491
H	0.23014	1.82484	-1.41782
H	1.00801	1.57192	1.21792
C	4.06312	-0.213875	0.216483
C	4.60869	0.960711	-0.256648
N	5.95328	0.85623	-0.389563
C	6.24077	-0.378478	-0.000369175
N	5.13484	-1.06393	0.374668
H	3.02278	-0.495593	0.444211
H	4.0562	1.88168	-0.504483
H	7.24462	-0.831936	0.029728
H	5.10035	-2.05425	0.720125
