18
  This energy is -1.2459 and Call times are: 107873
C	-0.944687	-0.32313	-0.538102
C	-0.201986	0.74624	-0.944572
C	0.891459	0.833249	-0.0297364
C	0.720422	-0.190632	0.855016
O	-0.395978	-0.907132	0.559564
H	-1.87163	-0.764478	-0.939648
H	-0.40388	1.40745	-1.80255
H	1.70592	1.57534	-0.0373836
H	1.3149	-0.510915	1.72637
C	4.79413	-0.0705704	1.10244
C	5.72842	-0.893764	0.510331
N	5.96186	-0.524521	-0.772508
C	5.17538	0.523754	-0.975462
N	4.4512	0.836801	0.125066
H	4.36339	-0.066386	2.11634
H	6.23825	-1.7475	0.985782
H	5.09064	1.09961	-1.91111
H	3.76016	1.62126	0.216395
