18
  This energy is -2.0586 and Call times are: 133727
C	-0.510802	-0.243592	0.982927
C	0.518478	0.647111	0.895721
C	0.888761	0.682937	-0.483309
C	0.0530682	-0.189034	-1.11707
O	-0.808205	-0.763873	-0.236856
H	-1.10769	-0.589192	1.84289
H	0.971524	1.2213	1.71982
H	1.68598	1.29043	-0.941004
H	-0.0286122	-0.484786	-2.1759
C	4.00007	-0.946139	0.0032215
C	5.21698	-0.819229	-0.632513
N	5.75103	0.408854	-0.424859
C	4.86877	1.04141	0.336803
N	3.79552	0.266706	0.622376
H	3.28888	-1.7857	0.0570508
H	5.7192	-1.59179	-1.2373
H	4.95889	2.07285	0.71396
H	2.96568	0.538238	1.20453
