18
  This energy is -1.399 and Call times are: 97484
C	-0.64387	0.764102	0.536637
C	0.559529	0.349601	1.02693
C	1.05937	-0.600378	0.0846925
C	0.11729	-0.682532	-0.898217
O	-0.929765	0.144026	-0.638429
H	-1.38193	1.48547	0.924142
H	1.04639	0.679697	1.95865
H	2.01082	-1.15328	0.140604
H	0.0747106	-1.28297	-1.82175
C	4.61771	-0.402596	-1.10283
C	4.49537	0.906844	-0.688653
N	4.64666	1.0108	0.654038
C	4.86203	-0.229437	1.07124
N	4.85405	-1.1182	0.0496616
H	4.55539	-0.860566	-2.10279
H	4.30065	1.77845	-1.33459
H	5.03166	-0.542795	2.11396
H	5.00008	-2.15489	0.121799
