18
  This energy is -1.0239 and Call times are: 51970
C	-0.411306	-1.00795	0.318235
C	0.912601	-0.808529	0.0576997
C	1.03647	0.566885	-0.307007
C	-0.222671	1.08655	-0.237143
O	-1.11939	0.138781	0.143182
H	-0.967407	-1.90656	0.63207
H	1.72086	-1.55509	0.116446
H	1.95987	1.09876	-0.587253
H	-0.606416	2.10168	-0.430761
C	4.99438	0.908567	-0.439123
C	4.74993	-0.430995	-0.655828
N	5.64462	-1.20428	0.00605006
C	6.44107	-0.347703	0.63099
N	6.09024	0.938542	0.394177
H	4.48312	1.81248	-0.806668
H	3.94403	-0.853364	-1.2779
H	7.29644	-0.608547	1.27484
H	6.56296	1.79538	0.773151
