18
  This energy is -0.7687 and Call times are: 127821
C	-1.09277	0.0449391	-0.30041
C	-0.642495	0.530433	0.892036
C	0.766264	0.295082	0.903136
C	1.05251	-0.313455	-0.283507
O	-0.0710828	-0.474109	-1.031
H	-2.10268	0.0096409	-0.740948
H	-1.24223	1.00653	1.68434
H	1.47596	0.552418	1.70576
H	2.00274	-0.676221	-0.708603
C	6.31283	-1.04282	0.446931
C	5.03584	-0.530668	0.356753
N	5.04159	0.698779	-0.213281
C	6.3173	0.948389	-0.475739
N	7.12348	-0.0712742	-0.096328
H	6.68952	-1.99804	0.845941
H	4.11046	-1.02624	0.692789
H	6.71629	1.86216	-0.94485
H	8.16721	-0.113669	-0.196849
