18
  This energy is -1.6854 and Call times are: 35296
C	-0.182561	-0.303752	1.07741
C	0.107115	-1.21165	0.101607
C	0.266978	-0.456414	-1.10014
C	0.0608796	0.846324	-0.752615
O	-0.214849	0.958001	0.573474
H	-0.383972	-0.426998	2.15421
H	0.199001	-2.30364	0.216539
H	0.507455	-0.84642	-2.10221
H	0.0819021	1.77391	-1.34792
C	5.00855	-0.6533	-0.364456
C	4.43836	0.413573	-1.02613
N	3.40856	0.935033	-0.31614
C	3.34014	0.194476	0.781822
N	4.28373	-0.77656	0.799857
H	5.85072	-1.31157	-0.630847
H	4.75159	0.816393	-2.0031
H	2.61831	0.319918	1.6049
H	4.43445	-1.48781	1.5566
