18
  This energy is -1.6022 and Call times are: 14780
C	-0.115551	-1.03777	-0.44281
C	-0.00689754	-0.82454	0.899986
C	0.12058	0.588786	1.06239
C	0.0785732	1.11445	-0.195494
O	-0.0652905	0.135398	-1.12703
H	-0.231646	-1.96418	-1.02893
H	-0.0156407	-1.58611	1.69625
H	0.230327	1.1409	2.00961
H	0.139851	2.15455	-0.555639
C	3.47848	-0.193604	-0.705979
C	3.80127	-0.885817	0.44197
N	4.93099	-0.395049	1.00713
C	5.3076	0.597848	0.21281
N	4.46435	0.759171	-0.834321
H	2.64478	-0.307778	-1.41693
H	3.23926	-1.73057	0.872538
H	6.19285	1.23924	0.351334
H	4.546	1.47388	-1.59838
