18
  This energy is -2.8772 and Call times are: 31143
C	-0.0953567	0.506345	1.01041
C	0.0315522	-0.845405	0.879876
C	0.123641	-1.09578	-0.523316
C	0.0448769	0.125067	-1.12639
O	-0.08913	1.11486	-0.20478
H	-0.19684	1.14856	1.90064
H	0.0576943	-1.59137	1.6904
H	0.235378	-2.07447	-1.01705
H	0.0715257	0.4189	-2.18855
C	3.65802	1.0698	0.426698
C	4.65058	0.742719	-0.472735
N	4.64454	-0.584658	-0.745763
C	3.652	-1.07917	-0.0184751
N	3.02627	-0.121455	0.705985
H	3.36626	2.03381	0.872899
H	5.37096	1.44073	-0.929555
H	3.34051	-2.13541	0.020998
H	2.21454	-0.259986	1.35649
