18
  This energy is -1.1851 and Call times are: 32726
C	0.588177	-0.947677	0.205806
C	0.804066	-0.179775	-0.900581
C	-0.115501	0.909088	-0.806292
C	-0.812147	0.710453	0.34939
O	-0.395456	-0.418858	0.980291
H	1.06191	-1.88104	0.551737
H	1.53731	-0.361841	-1.70264
H	-0.236988	1.73911	-1.52071
H	-1.6179	1.29214	0.826516
C	4.15926	-0.750799	0.522211
C	4.51548	0.504587	0.967479
N	5.3913	1.0941	0.117825
C	5.57772	0.207807	-0.850861
N	4.85681	-0.921193	-0.652772
H	3.48136	-1.50966	0.94425
H	4.15622	0.995531	1.88658
H	6.23133	0.334418	-1.72892
H	4.83365	-1.76548	-1.27559
