18
  This energy is -1.3998 and Call times are: 68017
C	0.386364	0.985897	0.406364
C	-0.259238	0.892329	-0.791475
C	-0.586108	-0.488721	-0.952637
C	-0.111397	-1.11718	0.160944
O	0.485498	-0.2318	1.00168
H	0.817581	1.84938	0.938992
H	-0.48285	1.71346	-1.49136
H	-1.11354	-0.951265	-1.80232
H	-0.134988	-2.17529	0.46933
C	3.45887	-0.0539239	-0.704597
C	4.46892	0.883865	-0.743313
N	5.3958	0.643572	0.215673
C	4.96242	-0.43917	0.846918
N	3.7982	-0.897752	0.329325
H	2.55285	-0.176433	-1.31913
H	4.54547	1.72955	-1.44603
H	5.45882	-0.937967	1.69487
H	3.25714	-1.73633	0.653812
