18
  This energy is -1.9406 and Call times are: 57855
C	-0.772955	0.593144	0.580622
C	-0.226762	-0.561071	1.06003
C	0.689556	-1.00547	0.0585384
C	0.622421	-0.0835934	-0.94446
O	-0.265791	0.899697	-0.642417
H	-1.52202	1.28001	1.00767
H	-0.447032	-1.05044	2.02237
H	1.321	-1.90791	0.0899969
H	1.14832	-0.0150684	-1.91089
C	4.03304	0.200742	-1.10006
C	5.07373	-0.61576	-0.710919
N	5.21945	-0.613046	0.636401
C	4.27275	0.202041	1.08141
N	3.53073	0.718053	0.0730789
H	3.62787	0.44222	-2.09559
H	5.72205	-1.20677	-1.37818
H	4.07871	0.45631	2.13589
H	2.72608	1.38511	0.167058
