18
  This energy is -1.3721 and Call times are: 10549
C	-0.385169	-1.048	-0.199343
C	0.498154	-0.424055	-1.03049
C	0.739631	0.859369	-0.452017
C	-0.0174465	0.906407	0.681559
O	-0.710884	-0.250009	0.851433
H	-0.851595	-2.04584	-0.244353
H	0.935786	-0.827144	-1.9579
H	1.40171	1.64921	-0.841745
H	-0.147882	1.69433	1.44144
C	4.07578	-0.130413	-1.0456
C	4.34437	1.05624	-0.396857
N	4.9587	0.835667	0.790771
C	5.07079	-0.482805	0.87847
N	4.55325	-1.11028	-0.204128
H	3.5947	-0.339937	-2.0142
H	4.10589	2.0676	-0.764458
H	5.52347	-1.04119	1.71365
H	4.52172	-2.1459	-0.370741
