18
  This energy is -0.9379 and Call times are: 78046
C	0.933242	0.0267098	-0.644008
C	-0.269809	-0.406282	-1.11894
C	-1.18479	-0.292173	-0.0281133
C	-0.460103	0.200477	1.01711
O	0.835406	0.401137	0.658775
H	1.9205	0.115722	-1.12634
H	-0.490746	-0.769588	-2.13545
H	-2.2562	-0.549414	-0.0307076
H	-0.745951	0.448261	2.05255
C	4.76524	-0.502385	-1.03807
C	4.46334	-1.00304	0.210663
N	4.87922	-0.161541	1.18812
C	5.437	0.857289	0.548212
N	5.39326	0.698918	-0.795884
H	4.58368	-0.902602	-2.04822
H	3.95289	-1.95638	0.423836
H	5.89269	1.74534	1.01507
H	5.76662	1.36445	-1.51626
