18
  This energy is -1.2866 and Call times are: 129137
C	0.821394	-0.207751	0.754024
C	1.00396	0.618137	-0.315999
C	-0.238358	0.625376	-1.02077
C	-1.07042	-0.196727	-0.319211
O	-0.439701	-0.714174	0.767735
H	1.50109	-0.512599	1.56663
H	1.92143	1.16717	-0.582289
H	-0.47562	1.18114	-1.94215
H	-2.11929	-0.491503	-0.487226
C	4.7457	0.922038	-0.639851
C	5.67332	0.93016	0.380244
N	5.83974	-0.310587	0.899244
C	5.01848	-1.08549	0.203766
N	4.33642	-0.389219	-0.736229
H	4.3607	1.72963	-1.28258
H	6.22549	1.80906	0.751047
H	4.87738	-2.16963	0.341494
H	3.63036	-0.774799	-1.41007
