18
  This energy is -0.4254 and Call times are: 116331
C	-0.791054	0.351239	-0.732984
C	-0.876136	-0.845659	-0.0844698
C	0.288354	-0.928091	0.738503
C	0.982242	0.22571	0.520246
O	0.337574	1.0187	-0.375624
H	-1.45948	0.836239	-1.46322
H	-1.67844	-1.5953	-0.176405
H	0.568439	-1.75435	1.41151
H	1.93409	0.596014	0.935101
C	7.26262	-0.854826	-0.269759
C	7.55281	0.476236	-0.0571355
N	6.43206	1.1802	0.234178
C	5.45032	0.289243	0.202398
N	5.89997	-0.952424	-0.0970599
H	7.90785	-1.71095	-0.523286
H	8.55079	0.941251	-0.108709
H	4.38377	0.492275	0.390756
H	5.32088	-1.8235	-0.181577
