18
  This energy is -0.8984 and Call times are: 135218
C	-1.12233	0.0124518	0.163184
C	-0.233456	0.134775	1.19047
C	1.06331	0.0738571	0.594816
C	0.852399	-0.0803138	-0.743886
O	-0.476601	-0.119821	-1.02533
H	-2.22457	0.00453107	0.147148
H	-0.46748	0.255765	2.26037
H	2.03462	0.138225	1.11106
H	1.55448	-0.172996	-1.58872
C	6.44734	0.612615	0.671775
C	5.07352	0.727108	0.646003
N	4.52814	-0.13364	-0.24741
C	5.5597	-0.77966	-0.773884
N	6.73881	-0.365635	-0.252484
H	7.21267	1.14044	1.26271
H	4.46607	1.41537	1.25605
H	5.5081	-1.56535	-1.54477
H	7.69321	-0.721947	-0.504323
