18
  This energy is -0.9073 and Call times are: 92188
C	-0.504671	0.749674	-0.685344
C	-0.0409155	1.08792	0.55195
C	0.519644	-0.106341	1.09934
C	0.348954	-1.06895	0.148227
O	-0.274943	-0.563739	-0.948369
H	-1.01007	1.34386	-1.46429
H	-0.0887703	2.07899	1.0311
H	0.992825	-0.225325	2.08729
H	0.623514	-2.13646	0.13092
C	4.22746	-0.0647899	-0.0777451
C	5.12966	-1.08099	-0.311235
N	6.40323	-0.65515	-0.12899
C	6.29153	0.620373	0.216247
N	4.99969	1.02376	0.261219
H	3.12724	-0.0400532	-0.127163
H	4.88447	-2.1138	-0.60793
H	7.12342	1.30511	0.447155
H	4.65251	1.98299	0.507398
