18
  This energy is -0.8733 and Call times are: 6349
C	-0.686946	0.530053	-0.730444
C	0.20284	-0.424986	-1.12611
C	0.874855	-0.849013	0.0607797
C	0.336404	-0.115659	1.07697
O	-0.618941	0.731682	0.611842
H	-1.4143	1.13221	-1.29931
H	0.369265	-0.793865	-2.15097
H	1.66591	-1.61202	0.139134
H	0.544092	-0.103492	2.15954
C	4.4072	0.104211	-0.42428
C	4.95857	0.809745	0.624219
N	6.24205	0.434565	0.844296
C	6.48598	-0.500166	-0.064219
N	5.41091	-0.735278	-0.853231
H	3.40502	0.138955	-0.88032
H	4.45328	1.58277	1.22585
H	7.43476	-1.0449	-0.195843
H	5.35302	-1.42555	-1.64154
