18
  This energy is -1.0495 and Call times are: 4800
C	-0.473127	-0.41179	0.944976
C	-0.596545	-1.03175	-0.263656
C	0.125465	-0.222923	-1.1935
C	0.626356	0.819898	-0.471005
O	0.270551	0.720583	0.836876
H	-0.861853	-0.67199	1.94319
H	-1.14136	-1.96501	-0.478822
H	0.251749	-0.404382	-2.27296
H	1.24224	1.6851	-0.766578
C	5.24605	-0.861303	0.475255
C	4.52793	0.103097	1.15007
N	3.89991	0.938016	0.286923
C	4.22719	0.493267	-0.918777
N	5.03741	-0.59002	-0.858559
H	5.86999	-1.69369	0.837718
H	4.4517	0.211423	2.24428
H	3.90126	0.923582	-1.87942
H	5.43155	-1.12192	-1.6728
