18
  This energy is -1.3147 and Call times are: 74120
C	0.277783	0.753067	-0.801329
C	0.365055	-0.593163	-1.00239
C	-0.0640658	-1.19934	0.217664
C	-0.375686	-0.170019	1.05658
O	-0.172864	1.02947	0.450682
H	0.503754	1.60695	-1.46092
H	0.698196	-1.10772	-1.918
H	-0.12979	-2.27733	0.436084
H	-0.746794	-0.159561	2.09456
C	4.00335	-0.237642	-0.724323
C	3.91956	0.212523	0.576245
N	5.15145	0.381507	1.11514
C	5.99625	0.037482	0.152557
N	5.35296	-0.343388	-0.976467
H	3.22409	-0.482074	-1.4636
H	2.99231	0.418411	1.1354
H	7.09601	0.0459124	0.221104
H	5.79757	-0.65909	-1.87308
