18
  This energy is -1.0718 and Call times are: 16476
C	0.929031	-0.394457	-0.517404
C	-0.122662	-1.19931	-0.191025
C	-1.08489	-0.35026	0.436154
C	-0.536251	0.898488	0.437671
O	0.693518	0.88995	-0.140782
H	1.88959	-0.61154	-1.01283
H	-0.211897	-2.28227	-0.373612
H	-2.0685	-0.644029	0.836527
H	-0.914529	1.86278	0.814899
C	5.2354	-1.11123	-0.131615
C	6.53528	-0.654751	-0.187177
N	6.5914	0.685115	0.00807154
C	5.33113	1.05843	0.184091
N	4.47547	0.0116324	0.108932
H	4.81151	-2.12195	-0.242529
H	7.43364	-1.26818	-0.364649
H	4.97903	2.08563	0.371443
H	3.43197	0.0483894	0.213902
