18
  This energy is -0.6978 and Call times are: 23463
C	0.574293	-0.600428	-0.772058
C	1.16271	-0.107737	0.355502
C	0.131924	0.579974	1.06589
C	-0.9954	0.446824	0.309722
O	-0.743535	-0.271215	-0.816331
H	0.979276	-1.19273	-1.60897
H	2.21688	-0.217567	0.656771
H	0.227981	1.10937	2.02745
H	-2.02466	0.811408	0.461239
C	6.51934	-0.114547	-0.924406
C	5.51993	0.821825	-0.76462
N	4.8873	0.663405	0.423319
C	5.49195	-0.367327	0.998312
N	6.48307	-0.871295	0.225466
H	7.23008	-0.290085	-1.74755
H	5.244	1.60888	-1.48522
H	5.24879	-0.794314	1.98461
H	7.10532	-1.68372	0.457912
