18
  This energy is -1.4234 and Call times are: 12307
C	-0.584906	0.865789	0.441243
C	0.657177	0.520895	0.886947
C	1.05883	-0.599426	0.0972183
C	0.0267384	-0.840245	-0.761363
O	-0.985538	0.045102	-0.565226
H	-1.27807	1.66413	0.753375
H	1.23281	1.00667	1.69116
H	2.0078	-1.15498	0.167388
H	-0.107561	-1.60072	-1.54806
C	4.90002	-1.11387	0.323075
C	4.53941	-0.0662558	1.14381
N	4.39108	1.08004	0.436344
C	4.65865	0.744835	-0.818512
N	4.97109	-0.567227	-0.938797
H	5.1043	-2.17433	0.54043
H	4.3836	-0.116991	2.23376
H	4.6406	1.42093	-1.68846
H	5.22003	-1.07193	-1.82455
