18
  This energy is -1.6262 and Call times are: 39478
C	-0.806722	-0.634019	-0.483343
C	0.0472164	-1.13082	0.457056
C	0.903634	-0.0466231	0.819244
C	0.497438	1.01701	0.0681998
O	-0.546092	0.67623	-0.733004
H	-1.63178	-1.10441	-1.04303
H	0.071593	-2.15775	0.855697
H	1.72404	-0.0657989	1.55454
H	0.863997	2.05517	0.0124567
C	4.60495	-0.996712	0.546498
C	3.81545	-0.87753	-0.577614
N	3.66924	0.421036	-0.936583
C	4.36538	1.10485	-0.0385806
N	4.94847	0.295199	0.876878
H	4.93562	-1.87998	1.11574
H	3.34872	-1.70526	-1.13607
H	4.48149	2.20011	-0.00471055
H	5.54801	0.594563	1.68446
