18
  This energy is -2.1444 and Call times are: 118872
C	0.513918	1.01095	-0.0163649
C	0.492266	0.220477	1.09497
C	-0.237181	-0.951188	0.727238
C	-0.59689	-0.773271	-0.576345
O	-0.1465	0.419661	-1.04653
H	0.959895	2.00225	-0.19987
H	0.94459	0.440404	2.07534
H	-0.462874	-1.82032	1.36581
H	-1.16587	-1.41222	-1.27151
C	4.76874	0.934285	-0.663313
C	5.61638	0.245662	0.178376
N	4.9729	-0.779206	0.788366
C	3.73078	-0.726584	0.326854
N	3.55727	0.289282	-0.551496
H	4.9363	1.80852	-1.31229
H	6.68073	0.469963	0.356435
H	2.90831	-1.40757	0.598944
H	2.6691	0.538148	-1.05197
