18
  This energy is -0.6374 and Call times are: 35424
C	-0.899524	0.420604	0.548042
C	-1.02179	-0.394561	-0.538665
C	0.31136	-0.710851	-0.942143
C	1.1306	-0.0610456	-0.0663783
O	0.408012	0.63486	0.850457
H	-1.65571	0.907163	1.18577
H	-1.95695	-0.73862	-1.00896
H	0.615345	-1.3489	-1.78747
H	2.22936	-0.0145728	0.00994563
C	5.1211	-0.771726	0.130667
C	5.34384	0.0533504	-0.95136
N	6.44968	0.814449	-0.766017
C	6.91123	0.462874	0.426457
N	6.14489	-0.490371	1.00753
H	4.3328	-1.51441	0.332021
H	4.72642	0.113098	-1.86245
H	7.80654	0.871818	0.921851
H	6.3009	-0.931138	1.94702
