18
  This energy is -1.4155 and Call times are: 119576
C	-0.333849	-0.177649	1.06929
C	0.955963	-0.363222	0.666402
C	0.980748	-0.0431116	-0.725371
C	-0.296106	0.309818	-1.05011
O	-1.11229	0.233366	0.0338668
H	-0.818034	-0.302383	2.05177
H	1.80478	-0.692497	1.28703
H	1.85261	-0.0748468	-1.39839
H	-0.745807	0.630486	-2.00415
C	4.38798	1.05914	-0.0338816
C	5.01495	0.477335	1.04758
N	5.49339	-0.750796	0.732468
C	5.16449	-0.930208	-0.539639
N	4.4966	0.13286	-1.04699
H	3.88884	2.03425	-0.150348
H	5.13065	0.921727	2.04957
H	5.38815	-1.82134	-1.14798
H	4.13115	0.232487	-2.02565
