18
  This energy is -1.6941 and Call times are: 41547
C	0.133311	-1.11166	0.181207
C	0.983229	-0.17985	0.700573
C	0.492853	1.0865	0.257861
C	-0.613437	0.816754	-0.492958
O	-0.847743	-0.520709	-0.550448
H	0.118582	-2.21126	0.258123
H	1.86684	-0.365625	1.33208
H	0.920668	2.0778	0.477875
H	-1.31048	1.47916	-1.03203
C	4.71396	-0.949679	0.620185
C	4.82137	0.367696	1.01278
N	4.36399	1.20358	0.0491382
C	3.97432	0.407795	-0.937524
N	4.1648	-0.899775	-0.641607
H	4.98056	-1.88785	1.13233
H	5.2207	0.730009	1.97409
H	3.54246	0.730057	-1.89871
H	3.93747	-1.71939	-1.25627
