18
  This energy is -0.7327 and Call times are: 20455
C	0.818427	0.393095	0.679746
C	-0.0965723	1.21358	0.0881813
C	-0.948283	0.360981	-0.678484
C	-0.478566	-0.905255	-0.487738
O	0.600081	-0.904304	0.339022
H	1.66288	0.606623	1.35544
H	-0.164895	2.30929	0.182258
H	-1.80826	0.664202	-1.29702
H	-0.819186	-1.87804	-0.878785
C	5.82545	0.479204	-0.874227
C	4.85749	1.09929	-0.112847
N	4.34045	0.249088	0.80712
C	4.98519	-0.894087	0.617185
N	5.89103	-0.806497	-0.385496
H	6.45136	0.849519	-1.70165
H	4.52293	2.1449	-0.210842
H	4.83309	-1.82656	1.18428
H	6.52293	-1.57213	-0.725768
