18
  This energy is -0.7814 and Call times are: 102493
C	0.238338	0.985187	0.508924
C	-0.73004	0.871241	-0.444825
C	-0.730989	-0.501617	-0.839002
C	0.236892	-1.10541	-0.0913327
O	0.839097	-0.212283	0.737327
H	0.591253	1.85117	1.09268
H	-1.37863	1.67347	-0.831943
H	-1.38046	-0.975451	-1.59251
H	0.588487	-2.14963	-0.0560305
C	6.03895	-0.0584223	0.505809
C	7.21874	0.335495	1.10083
N	8.25005	0.282592	0.223264
C	7.71209	-0.142529	-0.911855
N	6.38125	-0.362309	-0.792909
H	5.01418	-0.141239	0.901457
H	7.34429	0.656929	2.14762
H	8.24716	-0.310177	-1.86045
H	5.73357	-0.699885	-1.54644
