18
  This energy is -1.9461 and Call times are: 79692
C	0.101394	-1.00278	0.520141
C	-0.264711	-0.892782	-0.78915
C	-0.28126	0.506702	-1.07426
C	0.0761937	1.12836	0.0859721
O	0.313562	0.221733	1.07019
H	0.244541	-1.88332	1.16776
H	-0.499555	-1.71469	-1.48442
H	-0.531486	0.9856	-2.03454
H	0.196314	2.19507	0.33689
C	4.13984	0.631964	-0.932856
C	3.89688	-0.724794	-0.896532
N	3.52157	-1.12095	0.343921
C	3.53168	-0.0141591	1.07436
N	3.89785	1.06978	0.350086
H	4.45724	1.29479	-1.7535
H	3.98565	-1.42494	-1.74316
H	3.27947	0.0590712	2.14453
H	3.98148	2.05584	0.69931
