18
  This energy is -0.8218 and Call times are: 101086
C	-1.08356	-0.197864	0.270459
C	-0.147691	0.139468	1.20359
C	1.07693	0.304503	0.487222
C	0.781305	0.0534532	-0.82043
O	-0.533681	-0.254981	-0.971065
H	-2.15957	-0.419721	0.36118
H	-0.304037	0.259992	2.28762
H	2.05886	0.578425	0.905397
H	1.40924	0.0612263	-1.72646
C	4.99808	0.496309	0.88117
C	5.72515	-0.674135	0.931858
N	6.29093	-0.950265	-0.268209
C	5.91627	0.0450897	-1.06037
N	5.13557	0.943086	-0.414081
H	4.41211	1.02527	1.64953
H	5.85163	-1.3243	1.81284
H	6.18518	0.165469	-2.12218
H	4.71511	1.81378	-0.821967
