18
  This energy is -1.063 and Call times are: 37054
C	0.981106	0.338716	-0.457279
C	-0.227092	0.78037	-0.910681
C	-1.20891	0.139113	-0.0952426
C	-0.514016	-0.637797	0.784477
O	0.824725	-0.528077	0.577722
H	2.01038	0.563151	-0.782052
H	-0.408707	1.48685	-1.73651
H	-2.30312	0.249549	-0.16313
H	-0.850846	-1.30561	1.59431
C	4.715	-0.685155	0.938846
C	5.29676	0.564883	0.928424
N	5.35118	1.06804	-0.328708
C	4.80526	0.133701	-1.09526
N	4.40574	-0.943089	-0.377975
H	4.50616	-1.38605	1.76266
H	5.6782	1.11273	1.80547
H	4.67322	0.186678	-2.18796
H	3.94768	-1.80939	-0.753428
