18
  This energy is -0.6553 and Call times are: 54046
C	-0.517691	-0.980675	-0.238061
C	0.784957	-0.743987	-0.565875
C	1.06889	0.579195	-0.109052
C	-0.0853119	1.03428	0.457594
O	-1.0647	0.0946431	0.387624
H	-1.16219	-1.86148	-0.393148
H	1.47653	-1.43214	-1.078
H	2.02438	1.12093	-0.196566
H	-0.334743	1.99455	0.938132
C	6.94158	0.322795	0.627954
C	6.55601	-0.963889	0.316621
N	5.4203	-0.968279	-0.422735
C	5.10251	0.310817	-0.569519
N	5.98894	1.12887	0.0457937
H	7.79789	0.708985	1.20339
H	7.07696	-1.88913	0.612235
H	4.23139	0.70395	-1.11801
H	5.95667	2.17741	0.0740111
