18
  This energy is -1.2026 and Call times are: 128734
C	-0.184665	0.417948	1.03808
C	-1.19089	-0.0713442	0.258033
C	-0.571839	-0.498536	-0.956217
C	0.758029	-0.232583	-0.810985
O	1.01237	0.327293	0.400981
H	-0.190344	0.852544	2.05117
H	-2.26164	-0.125964	0.512199
H	-1.06719	-0.950226	-1.83069
H	1.6137	-0.392382	-1.48741
C	5.4817	1.13861	-0.0964806
C	6.32403	0.104516	0.253195
N	5.66492	-1.07951	0.266145
C	4.41843	-0.781087	-0.074202
N	4.25712	0.543732	-0.303167
H	5.66105	2.21967	-0.209109
H	7.39555	0.191552	0.49637
H	3.58397	-1.49424	-0.170793
H	3.36851	1.02587	-0.584531
