18
  This energy is -1.235 and Call times are: 13721
C	-0.561144	0.941436	0.29192
C	0.762477	0.952437	-0.0371409
C	1.10135	-0.401656	-0.339983
C	-0.0451048	-1.12059	-0.169252
O	-1.07043	-0.316325	0.21659
H	-1.24627	1.75069	0.593532
H	1.43295	1.82642	-0.0639239
H	2.0868	-0.786294	-0.648256
H	-0.258721	-2.19543	-0.289015
C	5.22087	-0.856069	-0.776823
C	4.63716	0.365955	-1.03581
N	4.53522	1.10794	0.0936032
C	5.05373	0.349114	1.04961
N	5.48135	-0.844935	0.575293
H	5.46132	-1.70453	-1.437
H	4.28773	0.725544	-2.01736
H	5.14495	0.618937	2.11409
H	5.9265	-1.61543	1.13156
