18
  This energy is -0.9654 and Call times are: 87066
C	-0.106157	1.02674	0.470047
C	0.550111	0.827461	-0.708925
C	0.47135	-0.574952	-0.968064
C	-0.226094	-1.10887	0.0754286
O	-0.586645	-0.145021	0.963128
H	-0.297638	1.94152	1.05465
H	1.04048	1.5914	-1.33345
H	0.888508	-1.11455	-1.83346
H	-0.527163	-2.14541	0.299469
C	5.34847	-1.17542	0.0335534
C	4.21438	-0.396163	-0.0544308
N	4.52745	0.922264	-0.0701461
C	5.85073	0.960774	0.00779241
N	6.39259	-0.278497	0.072446
H	5.48194	-2.2683	0.0700254
H	3.17585	-0.76163	-0.106853
H	6.47354	1.86971	0.0212365
H	7.41358	-0.511659	0.139437
