18
  This energy is -1.5175 and Call times are: 4226
C	0.918689	-0.0687895	-0.661574
C	0.959789	0.467144	0.592006
C	-0.372276	0.377149	1.09957
C	-1.10979	-0.205834	0.111353
O	-0.33742	-0.484894	-0.971506
H	1.70376	-0.20974	-1.42253
H	1.83985	0.884027	1.10756
H	-0.730358	0.710383	2.0869
H	-2.17816	-0.472003	0.0566261
C	5.06941	-0.546797	1.04172
C	5.9102	0.481255	0.671152
N	5.67092	0.872655	-0.604019
C	4.68543	0.0903932	-1.02294
N	4.28776	-0.782511	-0.0671814
H	4.97513	-1.10859	1.9846
H	6.6852	0.94758	1.30105
H	4.21744	0.114432	-2.02026
H	3.52863	-1.50181	-0.154285
