18
  This energy is -0.8984 and Call times are: 134705
C	-0.515627	0.990704	-0.197571
C	-1.19022	-0.107686	0.248344
C	-0.213235	-1.14192	0.374737
C	0.972129	-0.584242	-0.0050988
O	0.80603	0.717676	-0.357847
H	-0.856942	2.01151	-0.435728
H	-2.26772	-0.182139	0.466392
H	-0.382638	-2.17769	0.710266
H	1.99019	-1.00248	-0.0673926
C	6.28987	-0.800412	-0.518188
C	6.53957	-0.13248	0.661922
N	5.53001	0.719534	0.964206
C	4.65732	0.580696	-0.024614
N	5.06977	-0.324338	-0.943522
H	6.87456	-1.55563	-1.06711
H	7.43009	-0.250082	1.30066
H	3.7002	1.11738	-0.125175
H	4.55768	-0.609115	-1.81411
