18
  This energy is -1.0935 and Call times are: 136729
C	1.09366	-0.214059	-0.21093
C	0.513735	-0.492051	0.991893
C	-0.850667	-0.0871881	0.871007
C	-0.984064	0.402469	-0.395016
O	0.193506	0.332668	-1.0699
H	2.12411	-0.356067	-0.575976
H	0.998162	-0.937522	1.87562
H	-1.63444	-0.156342	1.64238
H	-1.85204	0.823786	-0.928263
C	5.48183	-0.450784	1.08071
C	6.57952	-0.560987	0.253608
N	6.37217	0.0810356	-0.921689
C	5.1505	0.587606	-0.824085
N	4.57194	0.294512	0.364594
H	5.29018	-0.837094	2.0944
H	7.51739	-1.09225	0.483849
H	4.63109	1.18129	-1.59349
H	3.61295	0.580521	0.680504
