18
  This energy is -1.91 and Call times are: 108611
C	0.100231	0.081577	1.12681
C	-0.272119	-1.07576	0.508506
C	-0.284801	-0.785366	-0.889931
C	0.0809184	0.523793	-1.00274
O	0.31985	1.06888	0.21906
H	0.243328	0.328267	2.19167
H	-0.513624	-2.03748	0.988986
H	-0.538095	-1.47717	-1.70929
H	0.206369	1.17454	-1.88367
C	4.39582	0.965142	0.313986
C	3.65339	0.787993	-0.834299
N	3.10093	-0.448855	-0.87301
C	3.49911	-1.03678	0.247002
N	4.28202	-0.225274	0.996735
H	4.97768	1.82539	0.681351
H	3.50647	1.53047	-1.63554
H	3.24654	-2.06035	0.567518
H	4.71907	-0.45849	1.92186
