18
  This energy is -1.1482 and Call times are: 9790
C	0.395782	1.06287	0.00791153
C	-0.919708	0.771701	0.220236
C	-1.02428	-0.650189	0.134148
C	0.23654	-1.1024	-0.123182
O	1.11647	-0.0697866	-0.203529
H	0.937228	2.02279	-0.0176397
H	-1.73468	1.4865	0.41767
H	-1.93645	-1.25703	0.251565
H	0.632487	-2.1209	-0.268516
C	4.27384	-0.679108	0.257177
C	4.55484	-0.0878181	-0.956315
N	5.70471	0.626874	-0.897003
C	6.13543	0.47952	0.348546
N	5.30727	-0.299303	1.0842
H	3.43944	-1.32185	0.579975
H	3.94848	-0.164092	-1.87357
H	7.05115	0.920136	0.77463
H	5.42919	-0.563485	2.09246
