18
  This energy is -0.8752 and Call times are: 133823
C	0.1583	0.593746	0.953314
C	1.16487	0.359122	0.0632857
C	0.583509	-0.409847	-0.990672
C	-0.726996	-0.577247	-0.651662
O	-1.00413	0.0291326	0.532616
H	0.141217	1.14095	1.91015
H	2.21173	0.693964	0.14114
H	1.09	-0.789757	-1.89246
H	-1.55298	-1.09999	-1.16131
C	5.75995	0.6667	-0.900576
C	5.12601	1.0968	0.245841
N	4.85407	0.0581956	1.0728
C	5.31756	-1.01216	0.441806
N	5.87312	-0.697636	-0.752355
H	6.12635	1.21661	-1.78199
H	4.85997	2.13792	0.491091
H	5.27608	-2.05026	0.809028
H	6.30733	-1.36579	-1.4352
