18
  This energy is -0.7243 and Call times are: 110449
C	0.275652	0.238165	-1.0741
C	0.0305364	1.21097	-0.150012
C	-0.278525	0.526954	1.06519
C	-0.194989	-0.803462	0.776421
O	0.142425	-0.998125	-0.525605
H	0.550456	0.295022	-2.14017
H	0.0640076	2.3009	-0.308228
H	-0.532324	0.981093	2.0365
H	-0.350212	-1.69835	1.40119
C	5.29319	-0.353289	-1.05151
C	4.8907	0.918645	-0.703197
N	4.49696	0.968899	0.592549
C	4.65459	-0.267159	1.04635
N	5.1323	-1.10179	0.0930586
H	5.67015	-0.765027	-2.0012
H	4.87735	1.80097	-1.36363
H	4.43552	-0.61576	2.06847
H	5.34046	-2.12428	0.204599
