18
  This energy is -0.8423 and Call times are: 136436
C	-0.676073	-0.000893854	0.910673
C	-0.855939	0.860179	-0.131717
C	0.177009	0.558355	-1.07089
C	0.896909	-0.460514	-0.519502
O	0.389922	-0.814692	0.690678
H	-1.23101	-0.132924	1.854
H	-1.6376	1.6306	-0.229469
H	0.35547	1.04824	-2.04159
H	1.77922	-1.0125	-0.882934
C	6.11512	-0.600293	0.87143
C	6.74289	0.0421245	-0.174684
N	5.8419	0.633942	-0.995954
C	4.65968	0.359715	-0.461366
N	4.77111	-0.382052	0.666001
H	6.51631	-1.17805	1.71925
H	7.82978	0.089198	-0.351569
H	3.68057	0.677441	-0.854573
H	3.9837	-0.72548	1.26875
