18
  This energy is -1.1038 and Call times are: 106275
C	-0.273373	-1.00263	0.454307
C	-1.19184	-0.0125559	0.263153
C	-0.476455	1.07692	-0.321132
C	0.81602	0.656427	-0.435448
O	0.958134	-0.611284	0.0332985
H	-0.368839	-2.0172	0.874774
H	-2.26541	-0.0460667	0.508942
H	-0.885084	2.05607	-0.618432
H	1.71594	1.15776	-0.827956
C	4.85868	-0.862636	0.784711
C	4.44296	0.426108	1.04443
N	4.36851	1.15467	-0.0958165
C	4.73665	0.321071	-1.05926
N	5.04225	-0.907677	-0.579277
H	5.03114	-1.72221	1.45174
H	4.1954	0.843284	2.03415
H	4.80001	0.558602	-2.1334
H	5.35872	-1.73671	-1.13946
