18
  This energy is -0.9733 and Call times are: 13247
C	0.17965	0.584409	-0.955297
C	1.1759	-0.0915796	-0.314276
C	0.567551	-0.691792	0.830179
C	-0.746743	-0.329601	0.787489
O	-1.0013	0.449905	-0.296293
H	0.18253	1.19085	-1.87588
H	2.23311	-0.160627	-0.61698
H	1.05931	-1.31873	1.59124
H	-1.59032	-0.558297	1.4593
C	5.45978	0.333291	-1.11735
C	4.75663	1.01117	-0.144107
N	4.77655	0.33762	1.03167
C	5.48935	-0.753959	0.788762
N	5.92378	-0.802866	-0.492826
H	5.65625	0.571063	-2.1749
H	4.2353	1.97419	-0.269237
H	5.72365	-1.55026	1.51349
H	6.5036	-1.5617	-0.927843
