18
  This energy is -0.6913 and Call times are: 56970
C	0.765741	0.813168	-0.196976
C	0.969328	-0.485483	-0.560889
C	-0.200573	-1.1946	-0.150282
C	-1.01579	-0.266685	0.4283
O	-0.441512	0.964906	0.408439
H	1.3943	1.71157	-0.311173
H	1.85454	-0.902261	-1.06764
H	-0.402777	-2.2705	-0.275374
H	-2.01504	-0.35495	0.885424
C	6.95429	-0.334916	0.736963
C	7.08204	-0.0618036	-0.608486
N	5.89237	0.296828	-1.14939
C	5.02986	0.246393	-0.143335
N	5.62143	-0.129463	1.01527
H	7.6929	-0.650412	1.49092
H	8.01131	-0.117102	-1.19861
H	3.95335	0.474774	-0.199786
H	5.15383	-0.242775	1.94789
