18
  This energy is -1.2015 and Call times are: 81427
C	0.235003	0.799384	-0.76952
C	-0.946905	0.765003	-0.089604
C	-0.867907	-0.369382	0.774715
C	0.355303	-0.928067	0.546673
O	1.04228	-0.227213	-0.393472
H	0.617595	1.49319	-1.53601
H	-1.78981	1.46795	-0.186949
H	-1.63738	-0.720838	1.48075
H	0.847815	-1.81264	0.982799
C	4.06876	0.650701	-0.880745
C	4.95819	-0.39771	-0.985071
N	5.24066	-0.921836	0.23231
C	4.52916	-0.201319	1.08861
N	3.8057	0.759523	0.466528
H	3.61938	1.30521	-1.64443
H	5.40116	-0.785335	-1.91694
H	4.50099	-0.334781	2.18206
H	3.16623	1.4549	0.923469
