18
  This energy is -0.8064 and Call times are: 70002
C	-0.992553	-0.145744	-0.529149
C	-0.252147	-1.19256	-0.0640259
C	0.910756	-0.615046	0.531159
C	0.778326	0.733707	0.377204
O	-0.378252	1.03815	-0.268284
H	-1.96038	-0.111709	-1.05585
H	-0.50003	-2.26395	-0.133124
H	1.74378	-1.14964	1.01528
H	1.42857	1.5713	0.678648
C	5.94388	-0.790309	-0.860118
C	4.75792	-0.433667	-0.253938
N	4.96018	0.508578	0.698835
C	6.26664	0.735616	0.683787
N	6.90403	-0.0231136	-0.239066
H	6.16515	-1.5117	-1.66272
H	3.75995	-0.839353	-0.486992
H	6.80885	1.447	1.32736
H	7.93349	-0.0263334	-0.442683
