18
  This energy is -0.8613 and Call times are: 92700
C	0.726099	0.327924	-0.807246
C	-0.612718	0.20295	-1.03599
C	-1.18282	-0.223372	0.202294
C	-0.142062	-0.321282	1.07842
O	1.03121	0.0117293	0.478808
H	1.55563	0.629441	-1.46772
H	-1.14539	0.392008	-1.98183
H	-2.2454	-0.430577	0.407431
H	-0.105777	-0.61295	2.1409
C	5.58667	0.385797	0.999702
C	4.65961	1.04658	0.221839
N	4.31527	0.308229	-0.861109
C	5.026	-0.806365	-0.755481
N	5.80829	-0.807803	0.349785
H	6.08766	0.670967	1.93844
H	4.23304	2.04286	0.422623
H	5.01183	-1.65389	-1.45957
H	6.45956	-1.57248	0.653727
