18
  This energy is -1.216 and Call times are: 39525
C	0.926662	0.584038	-0.294276
C	-0.312856	1.15189	-0.255283
C	-1.20557	0.114362	0.153046
C	-0.432764	-0.995911	0.327531
O	0.872059	-0.727231	0.0587172
H	1.91381	1.00055	-0.553702
H	-0.572496	2.19657	-0.49047
H	-2.29497	0.194677	0.297397
H	-0.687729	-2.02301	0.636255
C	4.78072	-0.991642	0.633536
C	4.43338	-0.850506	-0.693334
N	4.57509	0.433931	-1.10156
C	5.00868	1.08714	-0.0320142
N	5.14874	0.271564	1.03981
H	4.79169	-1.87223	1.29534
H	4.08307	-1.65246	-1.36341
H	5.23938	2.16332	0.0214669
H	5.47543	0.548701	1.99779
