18
  This energy is -0.6774 and Call times are: 108002
C	-0.922383	0.531569	0.39121
C	0.215791	0.403039	1.13176
C	1.13804	-0.314102	0.310001
C	0.482022	-0.560498	-0.860173
O	-0.777529	-0.0510782	-0.828032
H	-1.8904	1.00904	0.615299
H	0.388586	0.775835	2.15414
H	2.16805	-0.607882	0.568561
H	0.79722	-1.08086	-1.77948
C	6.5947	-0.475747	-0.82228
C	5.22237	-0.350788	-0.869628
N	4.74717	0.246341	0.250253
C	5.82062	0.490894	0.989532
N	6.95912	0.0741196	0.386453
H	7.31378	-0.902807	-1.53928
H	4.56662	-0.680793	-1.69178
H	5.82974	0.972894	1.9804
H	7.93374	0.154536	0.767123
