18
  This energy is -1.0639 and Call times are: 57985
C	-0.848128	-0.691827	0.297414
C	0.355917	-1.15899	-0.141227
C	1.14848	-0.00231788	-0.413377
C	0.358792	1.06957	-0.117018
O	-0.864004	0.666964	0.31852
H	-1.76222	-1.21653	0.620465
H	0.65587	-2.21244	-0.261116
H	2.18511	0.0193568	-0.786228
H	0.547466	2.15426	-0.172638
C	4.93223	0.381754	-1.10055
C	5.40963	-0.853589	-0.716935
N	5.47571	-0.954264	0.632884
C	5.04096	0.21418	1.08494
N	4.701	1.05412	0.0787034
H	4.74687	0.815509	-2.09606
H	5.70757	-1.67404	-1.38994
H	4.95128	0.507536	2.1433
H	4.33165	2.03136	0.177956
