18
  This energy is -1.219 and Call times are: 837
C	-0.289881	0.215537	1.07513
C	-1.20282	-0.159033	0.133529
C	-0.465703	-0.336306	-1.07699
C	0.832601	-0.0544175	-0.768254
O	0.958263	0.284483	0.541848
H	-0.40041	0.458293	2.14476
H	-2.28659	-0.296687	0.277003
H	-0.864334	-0.638736	-2.05868
H	1.74769	-0.0583203	-1.38294
C	4.44687	0.844753	-0.322921
C	5.75103	0.693582	-0.74417
N	6.32741	-0.390279	-0.170116
C	5.38441	-0.909531	0.604316
N	4.23192	-0.200982	0.546804
H	3.68205	1.59738	-0.572192
H	6.28641	1.34716	-1.45202
H	5.48452	-1.80776	1.23471
H	3.34382	-0.408669	1.06585
