18
  This energy is -1.2672 and Call times are: 74810
C	0.396161	-0.957692	-0.460742
C	-0.535856	-0.957291	0.535108
C	-0.775957	0.416104	0.845362
C	0.0305333	1.13372	0.0117153
O	0.7534	0.310814	-0.792831
H	0.879479	-1.78268	-1.00942
H	-1.00701	-1.83598	1.00416
H	-1.47028	0.813973	1.60279
H	0.179774	2.21968	-0.105274
C	3.90086	-0.15915	0.389429
C	4.33018	0.793323	-0.51036
N	5.66287	0.689423	-0.733228
C	6.0588	-0.323654	0.0254154
N	5.03328	-0.868649	0.721744
H	2.90292	-0.375076	0.802989
H	3.70221	1.55363	-1.00273
H	7.08812	-0.708081	0.108726
H	5.09	-1.67756	1.38786
