18
  This energy is -0.7701 and Call times are: 61709
C	-0.309767	1.0795	-0.158538
C	-0.728953	0.0716568	-0.976412
C	-0.137124	-1.1218	-0.461135
C	0.591476	-0.737914	0.62613
O	0.497405	0.603119	0.825611
H	-0.512691	2.16298	-0.170424
H	-1.38874	0.15981	-1.85448
H	-0.246807	-2.14296	-0.860259
H	1.21202	-1.31501	1.3312
C	4.68267	-0.017468	-0.846612
C	4.53363	-0.443103	0.456372
N	5.68078	-0.277724	1.15867
C	6.53821	0.248506	0.294653
N	5.98417	0.424806	-0.928274
H	3.97816	0.0013685	-1.69328
H	3.61893	-0.866562	0.902302
H	7.58422	0.523991	0.504896
H	6.45614	0.822616	-1.77695
