18
  This energy is -1.1954 and Call times are: 68377
C	0.844928	-0.110443	-0.748532
C	0.0551847	-1.15913	-0.378491
C	-0.878625	-0.631585	0.564807
C	-0.577086	0.69291	0.687929
O	0.472918	1.02844	-0.107005
H	1.69311	-0.0457145	-1.44971
H	0.123376	-2.19979	-0.734119
H	-1.6784	-1.18189	1.08597
H	-1.02821	1.49167	1.29926
C	5.08039	-0.732247	0.86415
C	6.36275	-0.339077	0.544622
N	6.36431	0.513027	-0.509146
C	5.08776	0.647966	-0.842081
N	4.27405	-0.0829589	-0.043831
H	4.69733	-1.40567	1.64729
H	7.28687	-0.654981	1.05556
H	4.69349	1.2695	-1.66213
H	3.22817	-0.143515	-0.104956
