18
  This energy is -1.055 and Call times are: 73412
C	0.159588	-0.104766	1.11801
C	0.259165	-1.16328	0.263615
C	-0.00477138	-0.640419	-1.0391
C	-0.242335	0.691457	-0.865772
O	-0.146103	1.0359	0.445376
H	0.281875	-0.0336499	2.21128
H	0.494836	-2.20754	0.524556
H	-0.0144272	-1.19867	-1.98902
H	-0.48729	1.49009	-1.5851
C	5.78361	-0.186259	-0.419738
C	5.03988	0.969302	-0.532367
N	3.83288	0.834085	0.0687786
C	3.82784	-0.400666	0.552503
N	4.9816	-1.05669	0.284055
H	6.79317	-0.442244	-0.778639
H	5.35258	1.89817	-1.03662
H	3.00508	-0.875049	1.1113
H	5.21981	-2.04087	0.559559
