18
  This energy is -1.2199 and Call times are: 11685
C	0.83205	-0.30449	-0.708082
C	0.152821	0.87075	-0.841622
C	-0.801422	0.893758	0.220926
C	-0.621079	-0.269453	0.909976
O	0.372505	-1.01339	0.356478
H	1.6523	-0.74592	-1.29765
H	0.308175	1.6439	-1.61117
H	-1.53303	1.68829	0.439011
H	-1.12857	-0.678871	1.79884
C	4.49926	-0.427126	-1.09666
C	4.3091	0.885466	-0.719714
N	4.3735	1.0213	0.627102
C	4.60274	-0.202363	1.08395
N	4.68687	-1.11115	0.0836399
H	4.51386	-0.906851	-2.08822
H	4.12658	1.73691	-1.39542
H	4.71755	-0.488897	2.14175
H	4.8617	-2.14068	0.18742
