18
  This energy is -1.1955 and Call times are: 80726
C	-0.622799	0.174818	0.931645
C	-0.247181	1.19089	0.102856
C	0.513825	0.582494	-0.94158
C	0.536067	-0.751647	-0.658832
O	-0.153139	-1.01849	0.481696
H	-1.21652	0.170514	1.86048
H	-0.482406	2.26142	0.215671
H	0.98595	1.08753	-1.79956
H	1.00121	-1.60247	-1.18323
C	4.51058	-1.06018	0.146914
C	3.91841	0.163628	0.376669
N	4.77302	1.17908	0.102794
C	5.89111	0.587488	-0.29535
N	5.78333	-0.762286	-0.286155
H	4.12907	-2.0877	0.257265
H	2.88984	0.332081	0.735143
H	6.81881	1.09516	-0.604985
H	6.52753	-1.45071	-0.557272
