18
  This energy is -1.5974 and Call times are: 16380
C	0.818301	-0.784659	-0.0330766
C	0.165016	-0.45872	1.11903
C	-0.778641	0.551916	0.760918
C	-0.618707	0.754345	-0.578416
O	0.352417	-0.0535242	-1.07969
H	1.62275	-1.51023	-0.237193
H	0.330988	-0.887009	2.12059
H	-1.48979	1.06301	1.42961
H	-1.12726	1.43498	-1.28081
C	4.51641	-0.564457	-0.98304
C	4.61352	-1.0353	0.309253
N	4.15629	-0.120394	1.1983
C	3.77697	0.914099	0.46035
N	3.9739	0.695332	-0.861373
H	4.78598	-1.02148	-1.94844
H	5.0053	-2.01877	0.616065
H	3.34842	1.85694	0.83669
H	3.75501	1.35895	-1.64429
