18
  This energy is -2.1794 and Call times are: 118808
C	0.570835	-0.221406	0.95474
C	0.558984	1.01598	0.38106
C	-0.255544	0.897952	-0.7863
C	-0.669535	-0.401141	-0.822927
O	-0.174272	-1.09921	0.232737
H	1.06434	-0.600743	1.86458
H	1.07233	1.92105	0.743569
H	-0.499295	1.69332	-1.50885
H	-1.30936	-0.944704	-1.53736
C	4.73652	1.05161	0.407391
C	5.40883	-0.143984	0.547728
N	4.73281	-1.15734	-0.0460779
C	3.64524	-0.592555	-0.552869
N	3.60126	0.73815	-0.306133
H	4.97756	2.06936	0.753246
H	6.36958	-0.293557	1.06681
H	2.84849	-1.1071	-1.11382
H	2.84621	1.4042	-0.602004
