18
  This energy is -1.7271 and Call times are: 50817
C	0.231156	0.746586	0.821935
C	0.934509	0.704916	-0.34594
C	0.355395	-0.35118	-1.11367
C	-0.650724	-0.861646	-0.347167
O	-0.740817	-0.203158	0.838281
H	0.32305	1.39603	1.70796
H	1.77666	1.35287	-0.637538
H	0.659264	-0.684857	-2.11886
H	-1.36461	-1.68166	-0.529363
C	4.11852	0.246381	1.11587
C	3.84414	-0.918504	0.431102
N	4.31358	-0.860904	-0.838866
C	4.87704	0.335165	-0.941565
N	4.78558	1.04097	0.210415
H	3.89379	0.555816	2.14896
H	3.31586	-1.79949	0.830649
H	5.37093	0.744761	-1.83741
H	5.15284	2.00906	0.381274
