18
  This energy is -0.8175 and Call times are: 44041
C	0.344906	1.02257	0.348975
C	-0.788407	0.84662	-0.389278
C	-0.884138	-0.558032	-0.629911
C	0.199125	-1.11644	-0.0174632
O	0.960575	-0.165742	0.58534
H	0.814757	1.93021	0.762112
H	-1.4869	1.62763	-0.730196
H	-1.67162	-1.08264	-1.1945
H	0.535776	-2.16324	0.0608552
C	5.54374	0.27144	1.00785
C	4.26704	-0.229416	0.865229
N	3.96266	-0.426879	-0.440478
C	5.0464	-0.0499554	-1.10535
N	6.02772	0.379145	-0.276808
H	6.1228	0.549566	1.90277
H	3.56009	-0.451838	1.68107
H	5.17493	-0.0675736	-2.19961
H	6.97647	0.727511	-0.559227
