18
  This energy is -1.1935 and Call times are: 122148
C	0.400247	-0.882756	0.58902
C	-0.0696386	-1.00765	-0.685336
C	-0.478275	0.302376	-1.08153
C	-0.222027	1.11216	-0.0143101
O	0.314678	0.405051	1.01475
H	0.816638	-1.6241	1.29065
H	-0.123125	-1.92978	-1.28609
H	-0.911586	0.597904	-2.05055
H	-0.374213	2.19359	0.136049
C	4.20558	-1.10547	-0.392567
C	3.80399	-0.626669	0.836507
N	4.06468	0.698019	0.953791
C	4.62586	1.03972	-0.198143
N	4.73303	-0.0126482	-1.0435
H	4.15503	-2.11293	-0.835296
H	3.33082	-1.21332	1.64075
H	4.97701	2.0468	-0.475086
H	5.14032	0.00126043	-2.01055
