18
  This energy is -1.0129 and Call times are: 87162
C	0.168744	0.658015	0.908264
C	0.422271	1.08668	-0.361516
C	0.0910122	-0.00794626	-1.21719
C	-0.3357	-1.0089	-0.394758
O	-0.294789	-0.61954	0.90668
H	0.275448	1.15947	1.88418
H	0.804237	2.07461	-0.665149
H	0.165076	-0.0374674	-2.31616
H	-0.689909	-2.03052	-0.609421
C	5.58477	0.44291	-0.397786
C	5.80858	-0.842509	0.0480332
N	7.09712	-1.0086	0.433494
C	7.67051	0.169298	0.227587
N	6.80021	1.07797	-0.272907
H	4.67688	0.934291	-0.782249
H	5.06338	-1.65306	0.098463
H	8.72476	0.421075	0.426075
H	7.01115	2.07608	-0.518945
