18
  This energy is -0.9853 and Call times are: 101724
C	-0.310086	-1.07529	-0.184362
C	-0.690869	-0.0543862	-1.0048
C	-0.112099	1.12845	-0.451586
C	0.571268	0.725934	0.658083
O	0.461161	-0.616854	0.836433
H	-0.519141	-2.15715	-0.218099
H	-1.31655	-0.126977	-1.90888
H	-0.19982	2.15529	-0.841447
H	1.16751	1.28987	1.39409
C	4.55291	-0.518832	0.834977
C	4.35358	0.732728	0.291829
N	5.2889	1.01205	-0.648203
C	6.06553	-0.0621364	-0.688075
N	5.66312	-1.01335	0.187621
H	4.00168	-1.07405	1.61049
H	3.55163	1.43917	0.561396
H	6.9424	-0.204756	-1.33999
H	6.11144	-1.94926	0.343697
