18
  This energy is -1.7523 and Call times are: 128958
C	0.666993	-0.70788	0.583462
C	0.409042	0.564379	1.00202
C	-0.456768	1.13178	0.0178762
C	-0.651469	0.156168	-0.915205
O	0.0274097	-0.974139	-0.585748
H	1.28084	-1.51157	1.02224
H	0.790223	1.05416	1.91247
H	-0.880349	2.14896	0.013564
H	-1.24231	0.141965	-1.84577
C	4.3637	-0.93871	-0.659075
C	4.23977	0.365591	-1.08871
N	3.92702	1.19111	-0.0604977
C	3.85719	0.401937	1.00297
N	4.11254	-0.891484	0.694025
H	4.6048	-1.86622	-1.20234
H	4.37043	0.725768	-2.12217
H	3.62278	0.719193	2.03186
H	4.11814	-1.7036	1.35863
