18
  This energy is -1.4755 and Call times are: 29999
C	-0.256199	-0.902155	-0.637872
C	-1.11183	0.148452	-0.481343
C	-0.443194	1.07251	0.378402
C	0.762002	0.505011	0.671355
O	0.893079	-0.701223	0.0591206
H	-0.346452	-1.8394	-1.21118
H	-2.11335	0.261382	-0.926635
H	-0.823231	2.04435	0.732237
H	1.60209	0.853504	1.2943
C	4.3208	-0.444394	-1.08689
C	4.12177	-1.11858	0.0992817
N	4.29447	-0.297078	1.16316
C	4.59949	0.882252	0.638973
N	4.62802	0.845179	-0.71432
H	4.26735	-0.779855	-2.13482
H	3.85664	-2.18303	0.206514
H	4.81145	1.80639	1.20046
H	4.84317	1.64618	-1.35725
