18
  This energy is -2.513 and Call times are: 84258
C	-0.206074	-0.459799	-1.01613
C	0.362335	0.771834	-0.873426
C	0.457803	0.997738	0.533688
C	-0.0606929	-0.115791	1.12664
O	-0.471021	-1.0163	0.195118
H	-0.470228	-1.04361	-1.91315
H	0.682292	1.45294	-1.6783
H	0.866499	1.88882	1.03672
H	-0.192011	-0.385275	2.18748
C	3.74656	0.895601	-0.747963
C	4.56768	0.873758	0.359479
N	4.49991	-0.321501	0.994518
C	3.64002	-1.03844	0.283739
N	3.15786	-0.348888	-0.77722
H	3.54618	1.68243	-1.49247
H	5.20781	1.69903	0.711651
H	3.32761	-2.07367	0.495677
H	2.46716	-0.696124	-1.48689
