18
  This energy is -1.2949 and Call times are: 44233
C	0.348176	-0.863834	0.647275
C	-0.667009	-0.989964	-0.25487
C	-0.809013	0.293358	-0.865637
C	0.131931	1.09042	-0.282807
O	0.847708	0.400075	0.643529
H	0.802838	-1.58869	1.34234
H	-1.2567	-1.89584	-0.468776
H	-1.5307	0.580326	-1.64725
H	0.389008	2.15118	-0.437563
C	5.86863	-0.982223	-0.483998
C	7.00719	-0.303573	-0.863835
N	7.20675	0.788988	-0.0873078
C	6.19585	0.788137	0.771002
N	5.36135	-0.259676	0.572778
H	5.39916	-1.89768	-0.877791
H	7.68822	-0.582701	-1.68428
H	6.01856	1.53121	1.56513
H	4.49329	-0.47973	1.11988
