18
  This energy is -0.601 and Call times are: 50785
C	1.06552	-0.117405	-0.37052
C	0.0382494	0.228553	-1.19841
C	-1.12832	0.275156	-0.37558
C	-0.71095	-0.0464374	0.882493
O	0.626052	-0.28929	0.903974
H	2.13992	-0.271271	-0.563474
H	0.0961701	0.430655	-2.28003
H	-2.15473	0.520575	-0.692382
H	-1.25972	-0.135461	1.83443
C	6.59186	-0.9903	-0.232593
C	5.22756	-0.857195	-0.0838811
N	4.88777	0.428119	0.178839
C	6.0369	1.08987	0.193058
N	7.09376	0.278888	-0.0497246
H	7.22014	-1.86907	-0.448412
H	4.48232	-1.66556	-0.161447
H	6.1616	2.16929	0.376207
H	8.10319	0.562844	-0.090826
