18
  This energy is -0.6686 and Call times are: 34798
C	0.0858936	0.90012	0.684695
C	-1.05986	0.167277	0.581898
C	-0.779733	-0.86572	-0.363916
C	0.512472	-0.672937	-0.755599
O	1.05651	0.401129	-0.125192
H	0.334536	1.78717	1.29014
H	-2.00724	0.337093	1.1183
H	-1.46674	-1.65607	-0.706646
H	1.15088	-1.2232	-1.46616
C	6.2914	-0.439106	0.0335663
C	5.11416	-1.15299	-0.0414477
N	4.04126	-0.325358	-0.0615052
C	4.55095	0.897324	0.000828765
N	5.90369	0.881948	0.0597159
H	7.34256	-0.766745	0.0690091
H	5.01974	-2.25041	-0.0814567
H	3.97883	1.83907	0.00648607
H	6.53657	1.71723	0.114797
