18
  This energy is -1.5849 and Call times are: 64836
C	0.14396	1.12428	0.0407656
C	-0.395059	0.49574	-1.0431
C	-0.411788	-0.895471	-0.720036
C	0.118484	-0.994263	0.532731
O	0.463388	0.229573	1.0126
H	0.35013	2.18853	0.241102
H	-0.745707	0.96473	-1.97648
H	-0.777985	-1.7196	-1.35313
H	0.301378	-1.86575	1.18258
C	3.66268	1.13234	-0.215813
C	4.20944	0.219709	-1.09291
N	4.34578	-0.996399	-0.510675
C	3.88536	-0.838807	0.722938
N	3.46171	0.42716	0.949743
H	3.41078	2.19816	-0.334622
H	4.50798	0.416954	-2.13542
H	3.83554	-1.6174	1.5011
H	3.05723	0.800397	1.84324
