18
  This energy is -0.9442 and Call times are: 4712
C	-0.916477	0.00965443	-0.668115
C	-1.00324	0.0698896	0.691745
C	0.341725	0.0348394	1.17128
C	1.13165	-0.0437198	0.0621272
O	0.379922	-0.0601476	-1.06997
H	-1.69268	0.00878863	-1.45091
H	-1.92217	0.132702	1.29649
H	0.672929	0.0650724	2.22175
H	2.22683	-0.0933545	-0.0534362
C	5.05886	0.465501	-1.05369
C	4.89965	-0.850529	-0.674392
N	5.27653	-1.03675	0.613941
C	5.66804	0.159208	1.0323
N	5.5559	1.09866	0.0635659
H	4.86025	0.97914	-2.00776
H	4.51961	-1.669	-1.30726
H	6.0457	0.402884	2.0384
H	5.80091	2.1156	0.147566
