18
  This energy is -0.9954 and Call times are: 60091
C	-0.624446	0.526102	0.7872
C	0.025394	-0.647319	1.03451
C	0.692233	-0.988807	-0.181556
C	0.391023	0.00608178	-1.06464
O	-0.412147	0.939659	-0.489871
H	-1.26139	1.15815	1.42757
H	0.0342713	-1.21543	1.97859
H	1.32093	-1.87432	-0.367814
H	0.681922	0.16298	-2.11631
C	6.29474	0.239622	-0.35947
C	5.89758	-0.811651	0.439423
N	4.56008	-0.782859	0.655707
C	4.12913	0.282226	-0.00649094
N	5.13699	0.932306	-0.635144
H	7.28624	0.534017	-0.738673
H	6.55214	-1.59039	0.863631
H	3.08569	0.631657	-0.0644135
H	5.05256	1.79889	-1.22095
