18
  This energy is -0.8032 and Call times are: 65822
C	0.820388	-0.781771	-0.0468932
C	-0.137537	-0.669463	-1.01133
C	-0.97695	0.412231	-0.604585
C	-0.457877	0.865441	0.572504
O	0.640072	0.147734	0.928052
H	1.67307	-1.47229	0.0597311
H	-0.242509	-1.28645	-1.9182
H	-1.86215	0.800673	-1.13338
H	-0.773153	1.67999	1.24508
C	6.27932	0.584453	0.519907
C	6.14299	-0.783611	0.415219
N	5.00776	-1.1122	-0.247964
C	4.44199	0.0476069	-0.553534
N	5.17017	1.10052	-0.112267
H	7.06106	1.20654	0.984051
H	6.84341	-1.53945	0.806328
H	3.49441	0.183224	-1.09937
H	4.93469	2.11644	-0.229398
