18
  This energy is -1.0328 and Call times are: 67953
C	-0.778031	0.283707	-0.774971
C	0.561119	0.36109	-1.02208
C	1.20559	-0.0730457	0.176379
C	0.203372	-0.377399	1.05005
O	-1.01465	-0.16543	0.485703
H	-1.65234	0.516288	-1.40484
H	1.04642	0.690811	-1.95474
H	2.28992	-0.146851	0.357675
H	0.225775	-0.748876	2.08772
C	5.26969	-1.17294	-0.0667187
C	5.47065	-0.272428	-1.09134
N	5.31007	1.00223	-0.660102
C	5.01063	0.892904	0.627146
N	4.97403	-0.398482	1.03282
H	5.31465	-2.27337	-0.0429975
H	5.72863	-0.519619	-2.13402
H	4.80865	1.72628	1.31919
H	4.76101	-0.743946	2.00057
