18
  This energy is -1.0627 and Call times are: 131922
C	-0.382426	1.01362	-0.335735
C	-1.10299	0.196167	0.484588
C	-0.300862	-0.969834	0.677342
C	0.839057	-0.761972	-0.0422073
O	0.806258	0.444332	-0.667319
H	-0.601996	2.01134	-0.749976
H	-2.0994	0.394378	0.911166
H	-0.551706	-1.85541	1.28308
H	1.73557	-1.38663	-0.188251
C	5.34217	0.822923	-0.840305
C	6.24562	0.640318	0.185161
N	5.88775	-0.403749	0.971524
C	4.76656	-0.867093	0.435932
N	4.39621	-0.161117	-0.658613
H	5.30665	1.55894	-1.65918
H	7.14925	1.24322	0.371711
H	4.17586	-1.72093	0.805079
H	3.54973	-0.331002	-1.25517
