18
  This energy is -1.2023 and Call times are: 74777
C	0.197019	-0.574461	0.957903
C	-0.650092	0.493365	0.907667
C	-0.634468	0.941381	-0.448488
C	0.220811	0.10778	-1.10726
O	0.737748	-0.824003	-0.263716
H	0.495858	-1.23206	1.79067
H	-1.22799	0.922505	1.74192
H	-1.19784	1.78695	-0.874776
H	0.541389	0.0735462	-2.16145
C	5.18643	-0.289342	0.826375
C	4.79344	-1.05939	-0.247743
N	3.86852	-0.414118	-0.999179
C	3.6884	0.751804	-0.393534
N	4.46038	0.875119	0.712105
H	5.90734	-0.481195	1.63694
H	5.16072	-2.06901	-0.493972
H	3.00334	1.55189	-0.717223
H	4.49855	1.70052	1.35903
