18
  This energy is -1.1835 and Call times are: 96781
C	0.638818	0.929473	-0.119965
C	1.13651	-0.240006	0.375001
C	0.045117	-1.1614	0.372824
C	-1.02317	-0.473636	-0.12328
O	-0.678633	0.804856	-0.429491
H	1.11321	1.90837	-0.298752
H	2.16865	-0.434334	0.708217
H	0.0628066	-2.21216	0.704018
H	-2.06734	-0.776771	-0.305096
C	5.47811	1.03403	-0.561598
C	6.48436	0.554186	0.249795
N	6.17823	-0.67423	0.733312
C	4.98659	-0.95539	0.223818
N	4.52184	0.0432112	-0.56383
H	5.37819	1.97895	-1.11899
H	7.42577	1.07234	0.494986
H	4.40928	-1.87823	0.395001
H	3.60729	0.0595572	-1.07821
