18
  This energy is -1.3782 and Call times are: 33823
C	0.421805	-0.279804	-1.01498
C	0.261695	-1.19215	-0.0137992
C	-0.286903	-0.469694	1.08948
C	-0.413605	0.820352	0.665096
O	0.0144773	0.954428	-0.617783
H	0.809543	-0.381744	-2.04188
H	0.505456	-2.26614	-0.048698
H	-0.553059	-0.872172	2.08007
H	-0.789187	1.72363	1.1733
C	5.41638	-0.362965	-0.469375
C	4.27793	-1.11664	-0.276934
N	3.29282	-0.377974	0.289138
C	3.81814	0.82936	0.447271
N	5.09666	0.8895	0.00527905
H	6.39867	-0.620667	-0.896263
H	4.1497	-2.18017	-0.536398
H	3.31059	1.70582	0.881376
H	5.72471	1.73007	0.0211465
