18
  This energy is -0.7673 and Call times are: 130234
C	0.0324701	0.0578708	1.13225
C	-0.974327	0.616319	0.400906
C	-0.666494	0.336741	-0.965547
C	0.501241	-0.367873	-0.948592
O	0.942356	-0.547361	0.324284
H	0.213913	0.0225903	2.21903
H	-1.84629	1.16963	0.785132
H	-1.25233	0.630183	-1.85143
H	1.111	-0.792159	-1.7631
C	6.69991	0.726363	0.835115
C	6.08245	-0.412947	0.364085
N	6.82555	-1.00836	-0.60018
C	7.89991	-0.241339	-0.726872
N	7.87121	0.817417	0.116811
H	6.39873	1.45449	1.60496
H	5.1141	-0.815997	0.702734
H	8.73821	-0.408899	-1.42216
H	8.60198	1.56519	0.206642
