18
  This energy is -1.0966 and Call times are: 134111
C	0.0591663	0.920796	-0.659571
C	-1.02521	0.651005	0.122546
C	-0.728359	-0.574645	0.793199
C	0.511219	-0.945634	0.361706
O	1.00711	-0.0438553	-0.52593
H	0.275431	1.75507	-1.34693
H	-1.94216	1.25454	0.217661
H	-1.36938	-1.11034	1.51168
H	1.14053	-1.81673	0.607492
C	5.3428	0.0264574	-1.1679
C	6.31368	-0.222211	-0.220956
N	5.7982	-0.17482	1.03146
C	4.51243	0.102196	0.862123
N	4.18844	0.233025	-0.446123
H	5.39009	0.0696011	-2.26765
H	7.37687	-0.434969	-0.41899
H	3.76353	0.220226	1.66178
H	3.23882	0.4504	-0.836271
