18
  This energy is -1.1773 and Call times are: 10485
C	-0.658632	0.679631	-0.625066
C	0.330011	1.16098	0.181941
C	0.926618	0.0168054	0.794345
C	0.249887	-1.06273	0.307508
O	-0.721707	-0.676426	-0.5607
H	-1.37667	1.19167	-1.2865
H	0.610969	2.21594	0.331021
H	1.76212	0.00825882	1.51265
H	0.361972	-2.1427	0.498175
C	4.70974	-0.958017	0.476387
C	5.68219	-0.924894	-0.500539
N	6.01622	0.35041	-0.814446
C	5.25388	1.10558	-0.0352228
N	4.44866	0.363631	0.761466
H	4.20197	-1.80046	0.972361
H	6.14878	-1.79835	-0.984506
H	5.24506	2.20712	-0.00747803
H	3.7572	0.726111	1.46272
