18
  This energy is -2.7209 and Call times are: 114307
C	-0.262161	-0.802346	-0.757571
C	-0.335925	0.528328	-1.04781
C	0.0660352	1.21065	0.140874
C	0.349948	0.236706	1.05257
O	0.155003	-0.998731	0.520873
H	-0.476734	-1.69631	-1.36588
H	-0.642628	0.983721	-2.00314
H	0.132951	2.30026	0.290425
H	0.694662	0.292131	2.09821
C	3.36554	-0.494775	-0.924471
C	4.39077	-1.03283	-0.175767
N	4.76654	-0.189075	0.815891
C	3.97744	0.868399	0.682889
N	3.11516	0.732458	-0.352285
H	2.81479	-0.88532	-1.79492
H	4.86605	-2.01473	-0.333351
H	3.98873	1.76994	1.31639
H	2.3934	1.42919	-0.660318
