18
  This energy is -1.1011 and Call times are: 22726
C	-0.94702	-0.595801	-0.185947
C	-0.520638	0.38216	-1.03575
C	0.687501	0.892414	-0.469923
C	0.892744	0.181219	0.675699
O	-0.0958325	-0.732013	0.864738
H	-1.82775	-1.25809	-0.216575
H	-1.00799	0.711222	-1.96758
H	1.3231	1.69575	-0.875817
H	1.69302	0.228902	1.43236
C	5.75042	-0.560366	0.805008
C	4.72133	0.325757	1.04354
N	4.19114	0.782703	-0.116899
C	4.88866	0.182339	-1.0717
N	5.84069	-0.637657	-0.566876
H	6.40313	-1.12267	1.49153
H	4.3519	0.643564	2.03216
H	4.74396	0.307302	-2.15691
H	6.51845	-1.22113	-1.11593
