18
  This energy is -1.0267 and Call times are: 123352
C	0.836648	0.683075	0.346163
C	1.01253	-0.658685	0.175519
C	-0.249316	-1.16605	-0.260884
C	-1.0849	-0.0895425	-0.318396
O	-0.438328	1.04798	0.0490268
H	1.5305	1.47599	0.67035
H	1.93801	-1.23349	0.340415
H	-0.496714	-2.21244	-0.501621
H	-2.14678	-0.00257062	-0.60142
C	6.21557	-0.36569	0.642718
C	5.08914	0.2837	1.1016
N	4.23538	0.558186	0.0856022
C	4.8299	0.0808954	-0.999458
N	6.02655	-0.485898	-0.715961
H	7.10853	-0.738351	1.1693
H	4.87716	0.55909	2.14759
H	4.43315	0.119835	-2.02674
H	6.68491	-0.931935	-1.4007
