18
  This energy is -0.9183 and Call times are: 14434
C	0.854317	0.669008	0.330107
C	-0.0644475	0.171362	1.2068
C	-0.966308	-0.612963	0.424752
C	-0.519043	-0.525368	-0.860804
O	0.591983	0.25362	-0.937033
H	1.73026	1.32113	0.480811
H	-0.103201	0.339704	2.29504
H	-1.84333	-1.17364	0.786078
H	-0.897952	-0.964553	-1.79824
C	4.69713	0.424771	0.748371
C	6.0324	0.199057	1.00767
N	6.6652	-0.296029	-0.0836422
C	5.72607	-0.377145	-1.01642
N	4.52196	0.0458068	-0.563837
H	3.88621	0.815229	1.38358
H	6.55053	0.384569	1.96265
H	5.86576	-0.739105	-2.04778
H	3.62571	0.0787682	-1.10873
