18
  This energy is -0.9738 and Call times are: 93158
C	0.794961	0.351303	-0.728714
C	-0.057794	-0.67364	-1.01625
C	-0.89776	-0.816694	0.1301
C	-0.484147	0.133459	1.01695
O	0.548793	0.855928	0.508932
H	1.60971	0.810147	-1.31258
H	-0.0919048	-1.2692	-1.94266
H	-1.71261	-1.54523	0.26921
H	-0.838127	0.393256	2.02812
C	7.1532	0.631228	-0.647558
C	6.01675	-0.011036	-1.09155
N	5.38435	-0.644442	-0.0740157
C	6.12566	-0.39607	0.997154
N	7.20351	0.36911	0.70335
H	7.90463	1.23608	-1.17958
H	5.6418	-0.0287354	-2.12786
H	5.92497	-0.750098	2.02117
H	7.93765	0.699712	1.3764
