18
  This energy is -0.7178 and Call times are: 74553
C	0.777833	-0.542127	0.622474
C	-0.319363	0.0485817	1.17709
C	-1.04872	0.618174	0.089097
C	-0.332836	0.325252	-1.03433
O	0.785716	-0.382931	-0.727195
H	1.61509	-1.09915	1.07411
H	-0.588136	0.080057	2.2452
H	-1.99542	1.17908	0.145931
H	-0.510403	0.560762	-2.09652
C	6.72993	0.568981	0.024588
C	6.52487	-0.780021	0.222802
N	5.21034	-1.09419	0.123694
C	4.60221	0.0555363	-0.135019
N	5.47532	1.08822	-0.204631
H	7.6492	1.17598	0.030239
H	7.30187	-1.53225	0.435546
H	3.51953	0.197842	-0.282568
H	5.24115	2.09299	-0.396634
