18
  This energy is -0.8766 and Call times are: 83441
C	1.05824	0.400796	-0.0768021
C	-0.0311006	1.21996	-0.024926
C	-1.16538	0.356778	0.0669634
C	-0.669056	-0.913663	0.0631284
O	0.687163	-0.905551	-0.0241426
H	2.13583	0.62116	-0.150865
H	-0.0354568	2.32155	-0.048958
H	-2.22404	0.656047	0.128342
H	-1.1697	-1.89433	0.116921
C	4.99222	1.11592	-0.310885
C	5.53656	0.675465	0.8769
N	5.63405	-0.676035	0.898275
C	5.15202	-1.07251	-0.2718
N	4.75187	-0.0292961	-1.03677
H	4.7664	2.12945	-0.678699
H	5.86071	1.30865	1.71884
H	5.06907	-2.1148	-0.619614
H	4.33748	-0.0826864	-1.99942
