18
  This energy is -1.3751 and Call times are: 69862
C	0.811406	0.615971	0.4986
C	-0.258135	0.122973	1.18665
C	-1.04538	-0.586921	0.229349
C	-0.387412	-0.465062	-0.959182
O	0.748632	0.266455	-0.813235
H	1.67337	1.2217	0.823195
H	-0.471322	0.246796	2.26057
H	-1.9903	-1.12294	0.413472
H	-0.620818	-0.847077	-1.96657
C	3.94773	-0.901677	0.669312
C	4.61061	0.231762	1.09009
N	4.86258	1.06453	0.0510829
C	4.35793	0.45005	-1.01022
N	3.79532	-0.739167	-0.689565
H	3.58576	-1.78301	1.22226
H	4.91158	0.463563	2.12475
H	4.37307	0.826338	-2.0458
H	3.33139	-1.40966	-1.35023
