18
  This energy is -0.7538 and Call times are: 73659
C	0.635899	-0.931501	0.119745
C	-0.701258	-0.988755	-0.143139
C	-1.14258	0.367371	-0.222341
C	-0.0361518	1.13362	-0.000865154
O	1.05895	0.356873	0.209902
H	1.38748	-1.72514	0.262964
H	-1.31524	-1.89505	-0.268685
H	-2.16677	0.72159	-0.421505
H	0.101371	2.22689	0.0321513
C	4.83092	-0.124953	-0.0522341
C	5.55322	0.493733	0.946093
N	6.88212	0.455215	0.683346
C	6.98385	-0.184933	-0.473583
N	5.77477	-0.555317	-0.957844
H	3.74816	-0.284124	-0.178119
H	5.13928	0.967214	1.85126
H	7.9195	-0.409384	-1.01063
H	5.59128	-1.0719	-1.85268
