18
  This energy is -0.5303 and Call times are: 97136
C	1.11699	0.186326	0.0633007
C	0.464089	0.0587088	-1.12741
C	-0.908091	-0.163601	-0.799058
C	-0.972573	-0.152208	0.563324
O	0.254999	0.0602419	1.10641
H	2.17867	0.366277	0.299336
H	0.904567	0.11543	-2.13581
H	-1.74304	-0.313515	-1.50225
H	-1.82015	-0.28158	1.25624
C	7.0107	-0.73461	-0.433831
C	5.64199	-0.896933	-0.471828
N	5.00983	0.143568	0.123356
C	5.98267	0.948329	0.529046
N	7.2076	0.463003	0.216661
H	7.83116	-1.36554	-0.811074
H	5.0993	-1.74618	-0.918036
H	5.85384	1.90547	1.05962
H	8.13132	0.913244	0.429446
