18
  This energy is -0.8414 and Call times are: 93718
C	0.387397	0.860233	0.629543
C	0.576494	-0.444336	0.979851
C	-0.0456808	-1.21887	-0.0463598
C	-0.560055	-0.319239	-0.93318
O	-0.304856	0.955214	-0.536123
H	0.692265	1.80008	1.11841
H	1.10145	-0.823215	1.87146
H	-0.0990335	-2.31768	-0.108605
H	-1.12088	-0.457083	-1.87218
C	6.46392	-0.0953985	-0.145881
C	5.65348	0.922613	-0.60193
N	4.36089	0.71126	-0.253987
C	4.36942	-0.433516	0.41537
N	5.61385	-0.959308	0.507741
H	7.54922	-0.2607	-0.237169
H	5.97826	1.80582	-1.17579
H	3.49263	-0.931835	0.85939
H	5.88034	-1.85451	0.986126
