18
  This energy is -0.8025 and Call times are: 20743
C	-0.746876	-0.851129	-0.0644745
C	-0.981286	0.272049	0.673019
C	0.172408	1.09738	0.505885
C	1.00998	0.405693	-0.318988
O	0.464555	-0.78649	-0.677068
H	-1.35448	-1.75548	-0.232433
H	-1.87679	0.496816	1.2744
H	0.349258	2.08929	0.951911
H	2.00763	0.649706	-0.719498
C	4.64484	0.693236	0.578144
C	5.25223	0.958409	-0.630949
N	6.06367	-0.0608327	-1.00407
C	5.96007	-0.954915	-0.03016
N	5.11635	-0.5468	0.947166
H	3.93414	1.27964	1.18194
H	5.11949	1.86691	-1.24076
H	6.48006	-1.92526	0.0175882
H	4.86858	-1.07447	1.81977
