18
  This energy is -1.5847 and Call times are: 68249
C	-0.584971	-0.914611	-0.328172
C	0.0227528	-0.834712	0.890296
C	0.647802	0.448911	0.932052
C	0.366859	1.0401	-0.264585
O	-0.385113	0.221573	-1.04661
H	-1.18149	-1.71461	-0.796591
H	0.0301423	-1.60266	1.68042
H	1.23617	0.874086	1.76099
H	0.640035	2.02613	-0.674904
C	5.34952	0.189279	-0.667721
C	6.49445	-0.487763	-1.0309
N	7.38891	-0.516159	-0.0132402
C	6.80112	0.14077	0.977503
N	5.56974	0.585971	0.632404
H	4.42448	0.40952	-1.2239
H	6.69112	-0.956264	-2.009
H	7.22765	0.324893	1.9767
H	4.90873	1.12973	1.23956
