18
  This energy is -1.1473 and Call times are: 133086
C	-0.409797	0.2239	-1.0336
C	0.834745	-0.299117	-0.838819
C	0.984391	-0.43613	0.575024
C	-0.181915	0.0152548	1.11941
O	-1.04477	0.422267	0.151503
H	-0.952501	0.496489	-1.95361
H	1.57331	-0.562057	-1.61308
H	1.86205	-0.826423	1.11492
H	-0.516401	0.0972037	2.16662
C	5.19966	-0.426767	-1.07847
C	4.6415	-1.09991	-0.0124142
N	4.55952	-0.302428	1.0802
C	5.06491	0.861028	0.693448
N	5.46505	0.836872	-0.599957
H	5.41947	-0.746859	-2.10938
H	4.29647	-2.14672	-0.0120712
H	5.16565	1.76391	1.31705
H	5.89544	1.6297	-1.1361
