18
  This energy is -1.1621 and Call times are: 82416
C	0.325153	-0.527162	-0.950145
C	-0.476083	-1.12373	-0.0214367
C	-0.660379	-0.15767	1.01436
C	0.044505	0.943965	0.627176
O	0.652692	0.735934	-0.570256
H	0.72737	-0.890306	-1.91015
H	-0.895279	-2.14194	-0.0617364
H	-1.25088	-0.27793	1.93683
H	0.190292	1.925	1.10839
C	4.91466	-0.479965	0.881433
C	4.12705	-1.14338	-0.0354651
N	3.56436	-0.27771	-0.913252
C	4.00123	0.918191	-0.542319
N	4.81856	0.849321	0.535093
H	5.51665	-0.84747	1.72765
H	3.95473	-2.23114	-0.0793552
H	3.75368	1.87751	-1.02466
H	5.28935	1.65503	1.01514
