18
  This energy is -1.3433 and Call times are: 109980
C	0.125619	0.968243	-0.57717
C	0.577456	0.815749	0.700704
C	0.23824	-0.51924	1.07867
C	-0.390941	-1.06469	-0.00160656
O	-0.46847	-0.170292	-1.02193
H	0.164947	1.82551	-1.26913
H	1.09746	1.5679	1.31549
H	0.442944	-1.00795	2.04477
H	-0.823599	-2.06493	-0.167666
C	5.13202	-0.674071	-0.862599
C	3.8079	-0.538303	-0.502862
N	3.66933	0.321516	0.535417
C	4.9028	0.717649	0.818721
N	5.82044	0.145519	0.00374066
H	5.61697	-1.27585	-1.64761
H	2.95006	-1.04535	-0.973887
H	5.19051	1.42531	1.61286
H	6.85854	0.297346	0.0273253
