18
  This energy is -0.4273 and Call times are: 47053
C	-0.821492	-0.746411	-0.233287
C	-1.03646	0.360011	0.534824
C	0.217408	1.04105	0.599025
C	1.0879	0.290686	-0.135521
O	0.470396	-0.804658	-0.651192
H	-1.49633	-1.55801	-0.551323
H	-1.98303	0.665889	1.00867
H	0.436294	1.97995	1.13255
H	2.15769	0.426689	-0.364229
C	7.59027	0.385947	0.21781
C	7.17031	-0.329494	-0.883516
N	5.84641	-0.609155	-0.808747
C	5.44658	-0.0692622	0.334616
N	6.46121	0.542323	0.990431
H	8.57969	0.781664	0.497101
H	7.79886	-0.648897	-1.73072
H	4.42203	-0.0923355	0.73957
H	6.39953	1.04067	1.9119
