18
  This energy is -0.9723 and Call times are: 44329
C	0.766462	0.803339	-0.231481
C	1.0339	-0.243036	0.601555
C	-0.15951	-1.02686	0.640312
C	-1.05088	-0.390278	-0.172462
O	-0.50218	0.729327	-0.713229
H	1.3859	1.65482	-0.557859
H	1.97696	-0.442878	1.13521
H	-0.325716	-1.95526	1.20999
H	-2.09195	-0.629412	-0.444914
C	4.82466	-0.875804	0.53577
C	4.71223	-0.498294	-0.785589
N	5.52223	0.551788	-1.06438
C	6.13485	0.824684	0.0796693
N	5.74821	-0.00823546	1.07483
H	4.32935	-1.67381	1.11143
H	4.06115	-0.964803	-1.54277
H	6.87567	1.62363	0.244286
H	6.08734	0.00445314	2.06785
