18
  This energy is -1.0141 and Call times are: 110257
C	-0.244003	1.00014	-0.476017
C	0.981679	0.723341	0.0545142
C	0.900179	-0.613633	0.550473
C	-0.368111	-1.03582	0.279233
O	-1.08079	-0.0630079	-0.347456
H	-0.64102	1.90382	-0.966919
H	1.85553	1.39343	0.0927713
H	1.69827	-1.18625	1.04972
H	-0.878528	-1.9924	0.478409
C	4.88549	0.560007	-0.638793
C	4.79504	0.205965	0.690724
N	5.91886	-0.427915	1.10513
C	6.70351	-0.466967	0.0367604
N	6.12553	0.115789	-1.04024
H	4.17875	1.07931	-1.30542
H	3.93901	0.39655	1.35837
H	7.71112	-0.91033	-0.0121534
H	6.54258	0.21107	-1.99849
