18
  This energy is -1.7713 and Call times are: 62159
C	0.682043	0.492542	0.760671
C	0.656831	0.869516	-0.549912
C	-0.31249	0.0304061	-1.17954
C	-0.794047	-0.78526	-0.198131
O	-0.197762	-0.516843	0.993258
H	1.27338	0.85934	1.61568
H	1.26029	1.65926	-1.02556
H	-0.610011	0.0402021	-2.24043
H	-1.55142	-1.586	-0.219191
C	3.95908	-0.344582	1.07244
C	4.45248	-1.14505	0.0640009
N	4.74573	-0.415462	-1.03973
C	4.43542	0.832871	-0.717244
N	3.95689	0.927803	0.545924
H	3.62064	-0.582417	2.09344
H	4.60214	-2.23594	0.113049
H	4.53883	1.71585	-1.36831
H	3.64386	1.80378	1.03166
