18
  This energy is -1.0651 and Call times are: 13279
C	-1.0474	-0.355491	0.25098
C	-0.264384	0.304162	1.15216
C	0.962178	0.581807	0.474978
C	0.820423	0.0673108	-0.780241
O	-0.400756	-0.508829	-0.934498
H	-2.06895	-0.762256	0.329793
H	-0.524446	0.568697	2.1897
H	1.8422	1.10441	0.883078
H	1.5055	0.0468611	-1.64366
C	5.998	0.603947	0.619309
C	4.92856	1.12177	-0.0801951
N	4.21367	0.138175	-0.678511
C	4.83723	-0.985571	-0.351429
N	5.91925	-0.757752	0.430196
H	6.78331	1.09181	1.21831
H	4.65999	2.18747	-0.163883
H	4.54396	-2.00278	-0.657208
H	6.57351	-1.48068	0.81822
