18
  This energy is -1.3082 and Call times are: 86133
C	-0.240535	-0.753858	-0.812553
C	-0.664806	-0.906982	0.474661
C	-0.17048	0.228113	1.18692
C	0.512229	0.974674	0.272087
O	0.479721	0.389889	-0.954281
H	-0.38305	-1.37987	-1.70868
H	-1.2656	-1.73609	0.881761
H	-0.3118	0.454071	2.25607
H	1.05752	1.92804	0.366999
C	4.1598	0.859037	0.792144
C	3.8264	0.903967	-0.545007
N	4.12582	-0.264461	-1.16277
C	4.643	-1.03134	-0.212483
N	4.68506	-0.39928	0.984316
H	4.06365	1.60845	1.59381
H	3.37518	1.75853	-1.07506
H	5.00688	-2.06378	-0.338497
H	5.04854	-0.792805	1.88669
