18
  This energy is -1.0544 and Call times are: 134559
C	0.713749	0.0582574	0.879528
C	-0.000488902	-1.06755	0.591794
C	-0.77274	-0.75481	-0.568352
C	-0.462241	0.534504	-0.887152
O	0.444081	1.04662	-0.0134636
H	1.43743	0.280055	1.68099
H	0.0149226	-2.02244	1.14138
H	-1.47513	-1.41901	-1.09711
H	-0.81307	1.19145	-1.69992
C	5.87658	-0.243331	0.408487
C	5.10639	0.859541	0.711192
N	3.91766	0.818524	0.0617743
C	3.95027	-0.30552	-0.641139
N	5.11047	-0.981395	-0.465883
H	6.88209	-0.545116	0.742275
H	5.38715	1.68411	1.38655
H	3.15159	-0.681528	-1.30066
H	5.37584	-1.89381	-0.911223
