18
  This energy is -1.4189 and Call times are: 39446
C	0.547039	0.939778	0.322439
C	-0.615131	0.533344	0.90942
C	-0.990607	-0.67143	0.24035
C	-0.0247389	-0.894863	-0.696426
O	0.922207	0.0793051	-0.660336
H	1.1954	1.81123	0.510701
H	-1.15394	1.03192	1.73113
H	-1.87842	-1.29268	0.440161
H	0.101187	-1.69973	-1.43911
C	5.29263	-0.682779	0.907982
C	5.44572	0.687482	0.917631
N	5.80738	1.14736	-0.304753
C	5.87839	0.0665083	-1.06983
N	5.5769	-1.06202	-0.384904
H	5.01092	-1.39123	1.70314
H	5.30169	1.35253	1.78471
H	6.14644	0.0446675	-2.13842
H	5.56245	-2.03963	-0.76612
