18
  This energy is -1.1218 and Call times are: 40240
C	0.370817	-0.0276258	-1.07151
C	-0.949004	-0.155083	-0.751817
C	-1.01624	-0.0705958	0.672422
C	0.268421	0.101032	1.09733
O	1.12868	0.129612	0.0455983
H	0.891419	-0.0319924	-2.04321
H	-1.79077	-0.294602	-1.449
H	-1.92051	-0.131584	1.29906
H	0.695465	0.214221	2.10732
C	4.68205	0.764741	-0.894394
C	4.11262	-0.490716	-0.867564
N	4.32659	-1.09893	0.324411
C	5.0261	-0.224117	1.03435
N	5.26608	0.915498	0.343497
H	4.71201	1.53583	-1.68056
H	3.55123	-0.968555	-1.68693
H	5.38831	-0.367005	2.06519
H	5.79606	1.75413	0.685662
