18
  This energy is -1.4785 and Call times are: 136243
C	0.0652968	0.898023	-0.689705
C	-0.412622	-0.30965	-1.10623
C	-0.338039	-1.17249	0.0295742
C	0.178872	-0.415924	1.03991
O	0.431119	0.851225	0.618346
H	0.194394	1.85565	-1.2203
H	-0.780747	-0.567055	-2.11237
H	-0.63684	-2.23191	0.0791551
H	0.411744	-0.658859	2.08967
C	3.69936	-0.230235	-0.575148
C	3.83702	0.0426242	0.769374
N	5.13471	0.260783	1.09332
C	5.79956	0.123784	-0.045905
N	4.97869	-0.172499	-1.08127
H	2.81116	-0.453948	-1.18719
H	3.02325	0.0859852	1.5115
H	6.88835	0.229785	-0.178308
H	5.2627	-0.328508	-2.0794
