18
  This energy is -0.9081 and Call times are: 40080
C	0.00949324	0.975205	0.579038
C	-0.886447	-0.0198584	0.838872
C	-0.584683	-1.06824	-0.0830572
C	0.469022	-0.621279	-0.824883
O	0.844899	0.624916	-0.434079
H	0.154246	1.96691	1.0382
H	-1.68021	-0.0159887	1.60309
H	-1.09796	-2.03883	-0.175767
H	1.03365	-1.0883	-1.6485
C	4.31801	0.647384	-0.0409488
C	5.16265	0.357811	-1.0916
N	6.19956	-0.414889	-0.686286
C	5.99894	-0.603959	0.610876
N	4.87737	0.0164106	1.04771
H	3.38944	1.23811	0.00745094
H	5.04245	0.692588	-2.13483
H	6.64228	-1.18823	1.28835
H	4.50487	0.0166879	2.02878
