18
  This energy is -1.6087 and Call times are: 3947
C	0.84955	-0.640582	0.392837
C	1.01588	0.673356	0.0668376
C	-0.261107	1.12957	-0.38182
C	-1.09506	0.0541426	-0.290382
O	-0.433481	-1.03546	0.180901
H	1.55597	-1.39266	0.780911
H	1.94465	1.26224	0.135425
H	-0.51929	2.1425	-0.730256
H	-2.16543	-0.0631572	-0.526571
C	4.53936	-1.05809	0.36809
C	5.45413	-0.233685	0.988337
N	5.63334	0.912139	0.28728
C	4.8328	0.799006	-0.763888
N	4.15165	-0.371302	-0.760715
H	4.14984	-2.05173	0.640989
H	5.98803	-0.445132	1.92913
H	4.70681	1.54355	-1.56639
H	3.45998	-0.694014	-1.48093
