18
  This energy is -0.9635 and Call times are: 73188
C	-0.0902418	1.06048	0.391961
C	-1.13943	0.400309	-0.177027
C	-0.64068	-0.888263	-0.538895
C	0.66926	-0.901766	-0.159093
O	1.02235	0.280241	0.411168
H	-0.00803747	2.07459	0.816322
H	-2.162	0.782407	-0.326883
H	-1.19966	-1.70388	-1.0251
H	1.44543	-1.68058	-0.238235
C	5.26414	0.500694	1.06315
C	4.60671	-0.666438	0.736442
N	4.73981	-0.94956	-0.582132
C	5.477	0.0381738	-1.07157
N	5.81847	0.938023	-0.119071
H	5.3731	1.03324	2.0213
H	4.03873	-1.3093	1.42852
H	5.79585	0.151436	-2.12025
H	6.39555	1.80388	-0.255215
