18
  This energy is -0.6501 and Call times are: 114825
C	1.09588	-0.10938	-0.271061
C	0.195611	-1.11876	-0.44721
C	-1.05922	-0.606576	0.00355593
C	-0.814978	0.670581	0.415369
O	0.495986	0.990895	0.254799
H	2.17709	-0.0497278	-0.477694
H	0.395151	-2.12324	-0.853784
H	-2.02603	-1.13498	0.0159654
H	-1.47975	1.44289	0.835932
C	6.75216	-0.691042	0.0308107
C	5.93161	-0.460681	-1.05306
N	4.92673	0.390383	-0.733023
C	5.12314	0.686872	0.544531
N	6.21133	0.0597333	1.05063
H	7.65264	-1.31528	0.144779
H	6.04666	-0.89332	-2.06025
H	4.50028	1.35772	1.15791
H	6.57394	0.131704	2.03276
