18
  This energy is -0.948 and Call times are: 80440
C	-1.11672	-0.00148005	0.198355
C	-0.598648	-0.0606972	-1.06199
C	0.820597	-0.0377292	-0.902821
C	1.04452	0.0334954	0.440741
O	-0.12747	0.056528	1.12843
H	-2.1576	0.00627176	0.561338
H	-1.15964	-0.115094	-2.00879
H	1.57878	-0.0707775	-1.70167
H	1.97838	0.073205	1.02519
C	6.29699	-0.849125	-0.169938
C	6.15799	-0.0567887	0.949895
N	5.1342	0.819152	0.804676
C	4.63995	0.571168	-0.400664
N	5.30683	-0.426246	-1.02838
H	7.00678	-1.65703	-0.408749
H	6.77808	-0.10147	1.86003
H	3.79033	1.09033	-0.872744
H	5.10756	-0.805224	-1.98647
