18
  This energy is -0.6075 and Call times are: 91367
C	-0.125261	0.764823	0.828104
C	-1.0506	0.600341	-0.160362
C	-0.545221	-0.438679	-1.00009
C	0.644336	-0.817406	-0.450643
O	0.916512	-0.0928457	0.666471
H	-0.0921009	1.44869	1.69209
H	-1.99438	1.15504	-0.285606
H	-1.01925	-0.849745	-1.90586
H	1.38068	-1.57923	-0.755056
C	6.66276	0.146239	0.10818
C	5.67955	0.740075	0.870938
N	4.44613	0.345708	0.471348
C	4.66334	-0.489606	-0.535476
N	5.98383	-0.64307	-0.79306
H	7.7609	0.226786	0.141811
H	5.83805	1.44601	1.70243
H	3.89143	-1.01661	-1.11914
H	6.40937	-1.24806	-1.53748
