18
  This energy is -2.117 and Call times are: 2038
C	-0.128646	0.0322023	1.12642
C	0.434566	1.05812	0.425943
C	0.420816	0.650801	-0.943006
C	-0.149584	-0.588064	-0.958231
O	-0.491263	-0.981465	0.29696
H	-0.325314	-0.0964479	2.20346
H	0.82094	2.00656	0.832464
H	0.794411	1.22065	-1.80891
H	-0.365383	-1.28346	-1.78594
C	4.77732	-0.897333	-0.240048
C	5.38594	-0.62505	0.966843
N	6.15336	0.489027	0.886733
C	6.02132	0.9063	-0.365095
N	5.20171	0.103903	-1.0848
H	4.095	-1.70577	-0.547302
H	5.28508	-1.21251	1.89397
H	6.50255	1.7935	-0.807273
H	4.93949	0.221997	-2.09404
