18
  This energy is -1.2255 and Call times are: 88036
C	0.752304	-0.514099	-0.675383
C	1.05495	-0.134137	0.59914
C	-0.130547	0.46944	1.11914
C	-1.05299	0.405034	0.116477
O	-0.530905	-0.192571	-0.986841
H	1.35418	-1.01485	-1.45142
H	2.01656	-0.265696	1.12078
H	-0.270858	0.898902	2.12411
H	-2.10062	0.744102	0.0639622
C	4.67378	0.724168	-0.0528848
C	6.00388	1.07319	-0.153678
N	6.80402	-0.0155415	-0.04906
C	5.97347	-1.03611	0.116008
N	4.67804	-0.641856	0.120754
H	3.75516	1.33096	-0.0911558
H	6.40053	2.09109	-0.300013
H	6.26064	-2.0929	0.238305
H	3.83712	-1.25917	0.234949
