18
  This energy is -0.8671 and Call times are: 31079
C	-0.472764	-0.248027	1.00069
C	-0.961203	-0.731037	-0.177659
C	-0.111223	-0.205289	-1.19807
C	0.821592	0.552586	-0.553204
O	0.615915	0.53775	0.790108
H	-0.805533	-0.388041	2.04228
H	-1.83263	-1.39132	-0.314561
H	-0.192599	-0.37689	-2.28344
H	1.67149	1.1441	-0.931416
C	5.58462	-0.948847	-0.580386
C	5.87956	-0.598407	0.720132
N	5.26477	0.558778	1.06578
C	4.59101	0.924832	-0.0161893
N	4.75161	0.0485241	-1.03594
H	5.89811	-1.80871	-1.19349
H	6.52494	-1.15981	1.41523
H	3.96407	1.8255	-0.116094
H	4.32318	0.116012	-1.99153
