18
  This energy is -0.563 and Call times are: 92476
C	0.438856	-0.871284	-0.578508
C	1.0667	0.336255	-0.488851
C	0.216278	1.1608	0.309293
C	-0.856171	0.384336	0.636912
O	-0.736839	-0.859787	0.103124
H	0.721168	-1.80586	-1.09049
H	2.03186	0.618083	-0.93955
H	0.390981	2.20903	0.600462
H	-1.75714	0.59703	1.23547
C	8.29288	-0.865859	0.0819758
C	8.01637	0.0955276	1.03088
N	7.04395	0.937568	0.604407
C	6.71844	0.500224	-0.604475
N	7.44344	-0.585179	-0.964851
H	9.0101	-1.70199	0.0777029
H	8.5011	0.196668	2.01559
H	5.95603	0.937678	-1.26901
H	7.37206	-1.11245	-1.86937
