18
  This energy is -1.1477 and Call times are: 51906
C	-0.275163	0.786556	-0.769426
C	0.297285	-0.40276	-1.11324
C	0.490421	-1.1122	0.11131
C	0.0189457	-0.293784	1.09532
O	-0.452395	0.87007	0.575426
H	-0.599445	1.64537	-1.37978
H	0.557447	-0.746036	-2.12742
H	0.930101	-2.11489	0.235331
H	-0.036606	-0.422083	2.18881
C	3.93907	0.211026	-0.463659
C	4.33151	0.432293	0.83948
N	5.62519	0.0751646	1.02752
C	6.03376	-0.365978	-0.154462
N	5.05366	-0.304338	-1.08677
H	2.97758	0.378256	-0.97465
H	3.70437	0.843225	1.64737
H	7.04046	-0.74557	-0.392569
H	5.12856	-0.593956	-2.09264
