18
  This energy is -0.6564 and Call times are: 59994
C	0.10828	1.06796	0.366238
C	-1.00789	0.627886	-0.282516
C	-0.770281	-0.748891	-0.579412
C	0.470106	-1.0286	-0.0858784
O	1.02124	0.0694954	0.495022
H	0.371695	2.05496	0.780601
H	-1.90822	1.21398	-0.527426
H	-1.44976	-1.4425	-1.10029
H	1.06412	-1.95725	-0.084618
C	6.71238	0.00519635	-0.743391
C	6.70266	0.460878	0.557918
N	5.48083	0.301958	1.12217
C	4.73539	-0.250214	0.174519
N	5.43228	-0.44921	-0.96931
H	7.51294	-0.0268081	-1.49944
H	7.55538	0.90147	1.09977
H	3.67325	-0.529338	0.264941
H	5.06703	-0.869563	-1.85878
