18
  This energy is -0.9424 and Call times are: 37758
C	0.88878	-0.043556	0.70326
C	0.83356	-0.769818	-0.449939
C	-0.421702	-0.451699	-1.05263
C	-1.02274	0.44088	-0.214519
O	-0.236538	0.701541	0.862953
H	1.66277	0.0296362	1.48482
H	1.5999	-1.46029	-0.837321
H	-0.822123	-0.846485	-2.0002
H	-1.99533	0.956704	-0.27154
C	4.58484	0.327038	-0.185892
C	5.08278	-0.95869	-0.196043
N	6.41409	-0.969096	0.0569427
C	6.74082	0.30533	0.223406
N	5.67258	1.12618	0.0868227
H	3.56735	0.716872	-0.348029
H	4.50527	-1.87901	-0.381377
H	7.74779	0.692923	0.44708
H	5.6729	2.1721	0.172374
