18
  This energy is -1.5137 and Call times are: 20092
C	0.103621	-1.12592	0.0892143
C	-0.940432	-0.442578	0.64
C	-0.72153	0.931694	0.318166
C	0.436967	0.966828	-0.400878
O	0.954497	-0.280909	-0.550294
H	0.35203	-2.19993	0.0821002
H	-1.78045	-0.863987	1.21522
H	-1.35808	1.78766	0.594239
H	0.989958	1.80498	-0.855793
C	4.01598	0.97789	-0.649435
C	3.96429	-0.323341	-1.1025
N	4.09434	-1.20249	-0.0794222
C	4.22621	-0.449523	1.00422
N	4.18546	0.872271	0.71303
H	3.94648	1.9395	-1.18237
H	3.83548	-0.643565	-2.14927
H	4.35553	-0.814479	2.03587
H	4.26736	1.6655	1.39519
