18
  This energy is -1.0295 and Call times are: 127051
C	0.0136462	-0.17074	-1.12119
C	0.126149	1.07187	-0.570151
C	0.0669751	0.879336	0.843903
C	-0.076464	-0.46393	1.03214
O	-0.110915	-1.12062	-0.157221
H	0.00825112	-0.507231	-2.17095
H	0.23944	2.02813	-1.10572
H	0.125264	1.65663	1.62269
H	-0.164194	-1.06831	1.9499
C	5.59731	0.87292	-0.369949
C	5.6323	-0.443651	-0.778068
N	4.68434	-1.17674	-0.145246
C	4.06362	-0.318222	0.652425
N	4.57734	0.930725	0.553368
H	6.20576	1.74374	-0.661498
H	6.32457	-0.877717	-1.5178
H	3.22644	-0.551116	1.33
H	4.25926	1.78108	1.07965
