18
  This energy is -1.1184 and Call times are: 28873
C	-0.861114	-0.398966	0.621055
C	0.223726	0.208679	1.18165
C	1.07687	0.566985	0.0935869
C	0.438067	0.146665	-1.03585
O	-0.74696	-0.445479	-0.732392
H	-1.76823	-0.835253	1.07056
H	0.40499	0.386728	2.25381
H	2.05113	1.07808	0.154408
H	0.718027	0.208925	-2.10027
C	5.63119	0.950832	0.287426
C	4.75247	0.264668	1.09871
N	4.19796	-0.783238	0.442261
C	4.73065	-0.747303	-0.771648
N	5.60111	0.280028	-0.914783
H	6.25498	1.83937	0.47429
H	4.50866	0.506953	2.14594
H	4.51835	-1.44913	-1.5942
H	6.14874	0.519852	-1.77725
