18
  This energy is -1.3655 and Call times are: 75770
C	-0.250571	1.02193	0.423414
C	0.292749	0.0290864	1.18463
C	0.460867	-1.08709	0.309406
C	0.00544182	-0.677791	-0.909379
O	-0.432816	0.60763	-0.858052
H	-0.549229	2.05353	0.672094
H	0.549392	0.0778319	2.25507
H	0.873775	-2.07582	0.56634
H	-0.0592954	-1.19923	-1.87848
C	5.30775	-0.0428019	1.06087
C	5.64296	0.792237	0.0161274
N	4.84942	0.571272	-1.05997
C	4.02505	-0.397165	-0.68423
N	4.26119	-0.801545	0.586325
H	5.72595	-0.147318	2.07464
H	6.44317	1.55019	0.0195341
H	3.22986	-0.847415	-1.3
H	3.74531	-1.55039	1.11012
