18
  This energy is -0.4363 and Call times are: 75674
C	1.10408	0.227717	0.124711
C	0.466612	-0.724633	0.864331
C	-0.892481	-0.715991	0.425116
C	-0.965557	0.240876	-0.54413
O	0.244585	0.827378	-0.740555
H	2.15228	0.56904	0.119387
H	0.909063	-1.36861	1.64126
H	-1.7133	-1.35194	0.7938
H	-1.8084	0.594224	-1.16058
C	6.40811	-1.06462	-0.463518
C	5.48206	-0.253086	0.156944
N	6.04849	0.905806	0.572432
C	7.32111	0.813564	0.211101
N	7.58788	-0.355979	-0.417066
H	6.3142	-2.06297	-0.919612
H	4.41535	-0.483009	0.312249
H	8.10061	1.57347	0.381884
H	8.5165	-0.664203	-0.796436
