18
  This energy is -1.5915 and Call times are: 31670
C	-0.226147	0.637393	-0.910488
C	0.540558	-0.488577	-0.979274
C	0.595013	-1.00638	0.350774
C	-0.143221	-0.151126	1.11492
O	-0.652181	0.858584	0.36096
H	-0.537818	1.35807	-1.68427
H	1.0197	-0.912029	-1.87661
H	1.12477	-1.91113	0.689713
H	-0.379123	-0.150927	2.19177
C	3.75247	0.510871	0.163658
C	4.895	0.708264	0.909845
N	5.92058	-0.0435122	0.441289
C	5.4162	-0.704772	-0.591649
N	4.11222	-0.404897	-0.799741
H	2.74255	0.942858	0.247251
H	4.9977	1.37966	1.77791
H	5.95776	-1.42104	-1.23033
H	3.4932	-0.795569	-1.5517
