18
  This energy is -2.0644 and Call times are: 42977
C	-0.820857	-0.667156	-0.409265
C	-0.506647	-0.625815	0.917362
C	0.560033	0.316477	1.03735
C	0.803492	0.767775	-0.226546
O	-0.0306607	0.177659	-1.12263
H	-1.57582	-1.24813	-0.964022
H	-0.978667	-1.20116	1.72993
H	1.07948	0.616987	1.96145
H	1.53271	1.49791	-0.614353
C	4.35143	0.338137	-0.922015
C	5.72774	0.317087	-0.841622
N	6.13967	-0.129918	0.36958
C	5.02316	-0.385206	1.03804
N	3.9179	-0.119163	0.302368
H	3.67248	0.636233	-1.73669
H	6.43089	0.616428	-1.63587
H	4.95765	-0.768391	2.06911
H	2.9207	-0.238512	0.6067
