18
  This energy is -1.4836 and Call times are: 135057
C	0.249783	0.649172	-0.895871
C	-0.402402	-0.542655	-1.0166
C	-0.531069	-1.05417	0.310766
C	0.053848	-0.129771	1.12546
O	0.53611	0.917089	0.405378
H	0.564357	1.39003	-1.64915
H	-0.757277	-1.01428	-1.94705
H	-1.00554	-2.00125	0.614103
H	0.189395	-0.100637	2.21909
C	3.85633	-0.175459	1.13795
C	4.56553	-1.01438	0.304644
N	4.65624	-0.499054	-0.945447
C	4.00578	0.655165	-0.887882
N	3.50497	0.895596	0.347016
H	3.58583	-0.261957	2.20232
H	5.01338	-1.98225	0.583033
H	3.86606	1.36322	-1.72057
H	2.954	1.7375	0.645149
