18
  This energy is -0.8666 and Call times are: 22758
C	0.229011	0.900122	-0.65095
C	-1.02698	0.631097	-0.192154
C	-0.913308	-0.565171	0.579947
C	0.402107	-0.921566	0.524812
O	1.11434	-0.0378627	-0.222717
H	0.617736	1.71647	-1.2816
H	-1.94173	1.21634	-0.378718
H	-1.72241	-1.09185	1.11104
H	0.94899	-1.7697	0.968465
C	7.27596	0.170335	-0.948236
C	7.23997	0.944447	0.192203
N	6.34434	0.457614	1.08515
C	5.82668	-0.614439	0.500892
N	6.35581	-0.829899	-0.726782
H	7.8714	0.257541	-1.87095
H	7.8442	1.84552	0.386708
H	5.05702	-1.27766	0.927484
H	6.11164	-1.61023	-1.3846
