18
  This energy is -0.7214 and Call times are: 123802
C	0.541741	-0.969965	0.22822
C	-0.818984	-0.876155	0.226949
C	-1.11697	0.481961	-0.0999204
C	0.0879674	1.09819	-0.269539
O	1.11186	0.226394	-0.0729551
H	1.21581	-1.81977	0.424997
H	-1.5405	-1.68245	0.43529
H	-2.11546	0.938028	-0.195401
H	0.347419	2.13807	-0.527568
C	5.65969	-0.323003	-0.919549
C	4.55773	-0.983517	-0.41901
N	4.03939	-0.329571	0.648787
C	4.81683	0.732593	0.810067
N	5.80835	0.781576	-0.11085
H	6.32638	-0.553151	-1.76577
H	4.12739	-1.92021	-0.809218
H	4.70494	1.50645	1.5865
H	6.54919	1.52025	-0.193137
