18
  This energy is -2.0091 and Call times are: 113938
C	-0.237728	-0.832557	-0.732622
C	-0.0257497	-1.06578	0.594422
C	0.240585	0.210382	1.17803
C	0.167848	1.11079	0.156096
O	-0.123384	0.491272	-1.01795
H	-0.474814	-1.51415	-1.56597
H	-0.0540914	-2.03886	1.11056
H	0.459799	0.423482	2.23662
H	0.301341	2.20486	0.134771
C	3.36327	0.99849	-0.316277
C	3.93772	0.0664496	-1.1544
N	4.46685	-0.963463	-0.450264
C	4.22159	-0.671463	0.819857
N	3.55835	0.501548	0.953046
H	2.84669	1.94853	-0.526279
H	3.97986	0.118676	-2.25456
H	4.50564	-1.28175	1.69227
H	3.25123	0.94749	1.85197
