18
  This energy is -0.6821 and Call times are: 21385
C	-0.466792	0.933474	0.443995
C	0.184657	0.00906419	1.20653
C	0.62482	-1.00434	0.301324
C	0.203493	-0.609741	-0.934455
O	-0.464898	0.571604	-0.865989
H	-0.96818	1.87846	0.710202
H	0.339683	0.0379118	2.29705
H	1.18898	-1.91744	0.550463
H	0.314549	-1.0748	-1.92775
C	5.72203	-0.930433	0.710279
C	4.54909	-0.455687	0.162568
N	4.77635	0.635325	-0.608509
C	6.08529	0.836647	-0.539415
N	6.70029	-0.0810445	0.243659
H	5.9231	-1.78413	1.37684
H	3.54293	-0.880839	0.309958
H	6.64526	1.64128	-1.04263
H	7.72676	-0.135196	0.455061
