18
  This energy is -0.9792 and Call times are: 11031
C	0.633172	-0.721763	-0.603782
C	-0.712181	-0.883994	-0.4486
C	-1.14671	0.208275	0.362728
C	-0.0285296	0.941554	0.631714
O	1.0676	0.388079	0.0493178
H	1.38365	-1.31874	-1.14752
H	-1.336	-1.69179	-0.863808
H	-2.17442	0.41573	0.701643
H	0.11735	1.86436	1.21686
C	5.08963	-0.507088	0.987999
C	4.46611	0.717658	0.876781
N	4.15086	0.990155	-0.412741
C	4.57717	-0.0615418	-1.0989
N	5.15061	-0.991904	-0.29941
H	5.4812	-1.04986	1.86299
H	4.23808	1.40956	1.7039
H	4.49471	-0.201842	-2.18874
H	5.56309	-1.90801	-0.60251
