18
  This energy is -1.2237 and Call times are: 84052
C	0.701506	0.834286	0.313458
C	-0.202092	0.278876	1.17101
C	-0.890128	-0.722159	0.41958
C	-0.346239	-0.690099	-0.830832
O	0.627283	0.254586	-0.91351
H	1.44351	1.63758	0.452738
H	-0.367524	0.547187	2.22683
H	-1.69508	-1.3843	0.776939
H	-0.561571	-1.27964	-1.7371
C	5.12152	-1.0268	0.47687
C	5.69761	0.205818	0.700297
N	5.07381	1.17352	-0.0145062
C	4.11438	0.543628	-0.678851
N	4.10186	-0.784732	-0.416379
H	5.35714	-2.02577	0.876963
H	6.55219	0.414231	1.36446
H	3.39284	1.00695	-1.37092
H	3.44127	-1.49493	-0.817002
