18
  This energy is -1.0182 and Call times are: 50689
C	-0.671779	-0.821428	0.400462
C	-0.446747	-0.647243	-0.933478
C	0.437514	0.469546	-1.03827
C	0.674783	0.879228	0.240889
O	0.00530302	0.102055	1.13241
H	-1.28474	-1.55554	0.948752
H	-0.861808	-1.24521	-1.76068
H	0.844369	0.909631	-1.96287
H	1.29219	1.69902	0.643377
C	5.99543	-0.317218	0.541832
C	5.16584	-1.12644	-0.205224
N	4.10588	-0.430675	-0.683653
C	4.27724	0.805475	-0.235108
N	5.4023	0.925076	0.508884
H	6.93457	-0.530362	1.07673
H	5.31314	-2.19985	-0.407576
H	3.60914	1.66167	-0.421706
H	5.75547	1.79786	0.972322
