18
  This energy is -0.9733 and Call times are: 33285
C	-0.97015	-0.525125	0.26354
C	-0.530308	0.577212	0.935675
C	0.706266	0.942321	0.321104
C	0.912916	0.0308655	-0.672333
O	-0.101056	-0.872698	-0.721793
H	-1.87286	-1.14549	0.388087
H	-1.02684	1.08255	1.77959
H	1.35912	1.78702	0.593781
H	1.73078	-0.0814891	-1.4029
C	4.89501	-0.901318	0.692602
C	4.5587	-0.725634	-0.632984
N	5.08036	0.426003	-1.12095
C	5.73779	0.962724	-0.10196
N	5.65606	0.200322	1.01413
H	4.65463	-1.7055	1.40608
H	3.949	-1.40922	-1.24603
H	6.29631	1.91247	-0.118387
H	6.08979	0.408709	1.94671
