18
  This energy is -0.6214 and Call times are: 81037
C	-0.60102	0.798892	0.535675
C	-0.701177	-0.524473	0.850392
C	0.196071	-1.20442	-0.0286637
C	0.765316	-0.236534	-0.802959
O	0.290092	0.992936	-0.471935
H	-1.10345	1.68877	0.949115
H	-1.34255	-0.976491	1.62396
H	0.388681	-2.28844	-0.0721682
H	1.51131	-0.292735	-1.61264
C	6.75242	0.45901	-0.258488
C	6.2037	0.302261	0.996695
N	4.97356	-0.261795	0.925243
C	4.75995	-0.454239	-0.369345
N	5.80317	-0.0360106	-1.12456
H	7.71898	0.873949	-0.58578
H	6.67338	0.586059	1.95258
H	3.85685	-0.897599	-0.818875
H	5.87519	-0.0803866	-2.17055
