18
  This energy is -1.9616 and Call times are: 43238
C	0.832565	0.0278765	-0.769714
C	0.494973	-1.11127	-0.0998276
C	-0.580268	-0.750261	0.768301
C	-0.804821	0.577626	0.552279
O	0.048986	1.06911	-0.383917
H	1.60118	0.225538	-1.53484
H	0.956798	-2.10599	-0.206333
H	-1.11787	-1.40943	1.46871
H	-1.5323	1.2776	0.995067
C	5.36666	1.04098	0.496987
C	5.89966	0.823045	-0.755833
N	6.03525	-0.502036	-1.00541
C	5.58807	-1.10385	0.088426
N	5.17357	-0.216616	1.02362
H	5.11935	1.97098	1.03316
H	6.1888	1.59818	-1.48412
H	5.54183	-2.19176	0.257371
H	4.78008	-0.443498	1.96964
