18
  This energy is -1.2111 and Call times are: 91578
C	-1.01044	0.34954	-0.378475
C	-0.874558	-0.711541	0.467703
C	0.526792	-0.839346	0.712654
C	1.12355	0.154918	-0.00546061
O	0.199729	0.890705	-0.677902
H	-1.90151	0.812374	-0.833473
H	-1.68032	-1.34109	0.878208
H	1.02358	-1.58769	1.35084
H	2.18232	0.439924	-0.119633
C	4.88145	-0.598748	-1.01304
C	5.09331	0.75455	-0.855433
N	5.04758	1.10726	0.452244
C	4.80825	-0.0229347	1.10341
N	4.69981	-1.08012	0.264253
H	4.84818	-1.23218	-1.9137
H	5.27835	1.48277	-1.66185
H	4.70302	-0.132972	2.19476
H	4.51297	-2.07663	0.535047
