18
  This energy is -1.0012 and Call times are: 25085
C	-0.259279	-0.976578	0.515239
C	-0.354705	0.229425	1.14518
C	0.050748	1.20552	0.184472
C	0.358147	0.509832	-0.947735
O	0.174568	-0.824118	-0.763645
H	-0.468068	-2.00162	0.863024
H	-0.678162	0.413228	2.18233
H	0.104156	2.2966	0.328654
H	0.713505	0.842936	-1.93668
C	4.05678	0.382982	-0.387447
C	4.47342	-0.927871	-0.291444
N	5.73525	-1.00502	0.196778
C	6.10002	0.253193	0.40287
N	5.1226	1.1277	0.066017
H	3.10888	0.823871	-0.734781
H	3.88616	-1.81936	-0.56571
H	7.07148	0.590357	0.798863
H	5.16802	2.17373	0.136797
