18
  This energy is -0.7265 and Call times are: 115797
C	-0.276723	-0.920761	-0.601684
C	1.00207	-0.667474	-0.200552
C	0.948803	0.563936	0.521189
C	-0.357839	0.954439	0.49739
O	-1.12043	0.0594641	-0.184147
H	-0.710022	-1.75249	-1.18111
H	1.89346	-1.28576	-0.393545
H	1.79068	1.09023	0.99905
H	-0.865254	1.83609	0.9222
C	7.12369	-0.311	0.160317
C	6.47486	0.766938	0.724426
N	5.18241	0.825096	0.321069
C	5.03001	-0.212816	-0.490188
N	6.17192	-0.928953	-0.619727
H	8.16075	-0.670104	0.255589
H	6.91616	1.50374	1.41524
H	4.10348	-0.494676	-1.01585
H	6.30659	-1.79074	-1.20321
