18
  This energy is -1.0424 and Call times are: 45624
C	1.07288	-0.174625	0.323777
C	0.192134	0.548294	1.07347
C	-1.03658	0.544269	0.345208
C	-0.798209	-0.180754	-0.785233
O	0.48498	-0.62748	-0.814777
H	2.13129	-0.435242	0.488387
H	0.38805	1.03551	2.04215
H	-1.98274	1.02775	0.636966
H	-1.44943	-0.446971	-1.63393
C	4.73886	0.983856	0.625425
C	4.82316	0.880175	-0.746905
N	5.01141	-0.406297	-1.12908
C	5.04378	-1.09808	0.0018509
N	4.88393	-0.305091	1.08777
H	4.59085	1.85461	1.28377
H	4.75151	1.71058	-1.46811
H	5.18189	-2.18758	0.0920661
H	4.87265	-0.61341	2.0908
