18
  This energy is -1.338 and Call times are: 79007
C	-0.919551	0.061763	0.661068
C	-0.12748	1.14309	0.40863
C	0.912537	0.673872	-0.450623
C	0.664195	-0.652768	-0.647409
O	-0.450874	-1.04352	0.0241169
H	-1.83237	-0.0498715	1.26898
H	-0.26208	2.1683	0.789311
H	1.74462	1.26295	-0.86861
H	1.19846	-1.41728	-1.23507
C	4.12178	-0.43608	0.487863
C	5.12032	0.269847	1.12483
N	6.10084	0.619996	0.257377
C	5.71207	0.133143	-0.913287
N	4.52483	-0.512261	-0.826645
H	3.18417	-0.874981	0.864414
H	5.15082	0.53279	2.19478
H	6.25879	0.220599	-1.86601
H	4.00954	-0.981321	-1.61132
