18
  This energy is -1.1722 and Call times are: 54952
C	0.432464	0.0557989	-1.04703
C	0.755599	-0.942418	-0.17552
C	0.021606	-0.671063	1.01936
C	-0.685266	0.469019	0.772548
O	-0.446364	0.926654	-0.484634
H	0.75572	0.256029	-2.08176
H	1.44198	-1.78528	-0.35598
H	0.0257417	-1.2617	1.94953
H	-1.38329	1.04681	1.40038
C	5.98526	-0.0422188	-0.453336
C	5.16993	-1.11397	-0.157136
N	3.98459	-0.699915	0.352802
C	4.06427	0.623669	0.372878
N	5.25117	1.06893	-0.103149
H	7.00201	0.00676027	-0.874489
H	5.41573	-2.17857	-0.302242
H	3.28248	1.31527	0.726038
H	5.55441	2.06989	-0.189088
