18
  This energy is -1.1628 and Call times are: 131826
C	0.510876	-0.806261	-0.612658
C	-0.7552	-0.376297	-0.882021
C	-1.04223	0.628702	0.0914809
C	0.0737774	0.724161	0.869798
O	1.0323	-0.144961	0.454023
H	1.14393	-1.56629	-1.09932
H	-1.42027	-0.731242	-1.68563
H	-1.9741	1.2079	0.192733
H	0.307451	1.36248	1.73766
C	4.15869	-0.753698	0.51719
C	4.97475	0.16498	1.14266
N	5.69802	0.870661	0.239662
C	5.33204	0.391589	-0.941514
N	4.4059	-0.589656	-0.82749
H	3.44338	-1.48809	0.92037
H	5.05461	0.331255	2.22932
H	5.71079	0.723347	-1.92168
H	3.96093	-1.12372	-1.61364
