18
  This energy is 0.1355 and Call times are: 27944
C	0.267277	-0.589568	-0.931329
C	1.10991	0.332693	-0.383806
C	0.429961	0.853615	0.759186
C	-0.768152	0.203697	0.809229
O	-0.884377	-0.68132	-0.215588
H	0.369053	-1.23799	-1.81701
H	2.10996	0.617586	-0.748254
H	0.79801	1.6227	1.45714
H	-1.61245	0.280083	1.5139
C	3.61335	-0.920944	-0.439079
C	3.15271	0.37319	-0.320005
N	4.09402	1.17824	0.229852
C	5.13466	0.386553	0.451052
N	4.89449	-0.888856	0.0647312
H	3.13605	-1.83206	-0.833524
H	2.15803	0.740431	-0.620994
H	6.09736	0.689105	0.893657
H	5.55784	-1.69893	0.13551
