18
  This energy is -0.9654 and Call times are: 137913
C	0.227795	0.149846	-1.10093
C	1.20511	-0.0785474	-0.177314
C	0.534376	-0.213061	1.07654
C	-0.793597	-0.0549938	0.808443
O	-0.999018	0.167476	-0.516443
H	0.275032	0.313734	-2.19004
H	2.28955	-0.145572	-0.360577
H	0.995381	-0.405116	2.05872
H	-1.67961	-0.0782681	1.46394
C	5.00399	-0.527812	-1.0094
C	5.18804	-1.13091	0.216794
N	5.52413	-0.221105	1.16327
C	5.54849	0.94198	0.526668
N	5.24183	0.809927	-0.785625
H	4.72974	-0.942099	-1.9926
H	5.08435	-2.2062	0.435505
H	5.78469	1.92117	0.973468
H	5.1943	1.5799	-1.49707
