18
  This energy is -0.8757 and Call times are: 45080
C	0.26524	-0.916717	0.612926
C	-0.658124	-0.950986	-0.390367
C	-0.713503	0.375846	-0.916266
C	0.18091	1.10379	-0.187917
O	0.787752	0.330314	0.750425
H	0.634467	-1.70113	1.29382
H	-1.2417	-1.82312	-0.726398
H	-1.34855	0.736993	-1.74112
H	0.473083	2.16554	-0.238754
C	4.72526	1.08318	0.459532
C	4.78923	0.74952	-0.876777
N	4.73398	-0.593635	-1.04822
C	4.63611	-1.09134	0.177071
N	4.62679	-0.12053	1.12102
H	4.74227	2.05946	0.969566
H	4.87426	1.45388	-1.72028
H	4.56821	-2.1593	0.439885
H	4.55772	-0.258507	2.15902
