18
  This energy is -0.7649 and Call times are: 105025
C	0.0424876	0.43685	-1.04583
C	-0.83281	0.886587	-0.101389
C	-0.585633	0.101738	1.0661
C	0.41889	-0.758323	0.732036
O	0.81464	-0.567614	-0.554053
H	0.212514	0.744584	-2.09065
H	-1.5778	1.69038	-0.215426
H	-1.10087	0.176023	2.03724
H	0.932839	-1.54263	1.31167
C	5.02004	0.506822	0.947555
C	4.47383	-0.502065	0.182735
N	5.30041	-0.846181	-0.834544
C	6.3554	-0.0537877	-0.701323
N	6.23433	0.780238	0.358551
H	4.64313	1.03204	1.83953
H	3.49814	-0.987835	0.346721
H	7.24449	-0.042518	-1.35219
H	6.93247	1.49834	0.671909
