18
  This energy is -1.4298 and Call times are: 42439
C	0.628483	-0.175892	-0.927616
C	0.373067	-1.16202	-0.0205915
C	-0.438403	-0.562625	0.990528
C	-0.607231	0.736868	0.612124
O	0.0375233	0.990496	-0.557053
H	1.20878	-0.177078	-1.8649
H	0.721172	-2.20672	-0.0596338
H	-0.844554	-1.05019	1.89131
H	-1.15602	1.56968	1.08171
C	3.86548	0.879313	0.457482
C	3.96539	0.536787	-0.874374
N	4.78405	-0.529673	-1.04455
C	5.19048	-0.84754	0.17709
N	4.66435	-0.0275367	1.1175
H	3.30126	1.67759	0.965361
H	3.46142	1.04006	-1.71556
H	5.87334	-1.67156	0.439635
H	4.83287	-0.073772	2.15226
