18
  This energy is -0.9753 and Call times are: 105313
C	0.261205	0.796564	0.763976
C	-0.894974	0.0756553	0.826551
C	-0.862612	-0.813021	-0.291181
C	0.310486	-0.55672	-0.938116
O	1.00942	0.423483	-0.307473
H	0.662446	1.5926	1.4125
H	-1.69078	0.161108	1.58384
H	-1.62834	-1.55359	-0.572818
H	0.756756	-0.997193	-1.8448
C	4.20402	0.686946	-0.528781
C	5.08506	1.05564	0.465686
N	5.86007	0.0103275	0.844094
C	5.46133	-1.003	0.0872608
N	4.46475	-0.645765	-0.757011
H	3.43558	1.25953	-1.07209
H	5.17541	2.05718	0.916921
H	5.86513	-2.02801	0.110335
H	3.98256	-1.26587	-1.45287
