18
  This energy is -1.2615 and Call times are: 901
C	-1.10065	0.18421	0.202586
C	-0.59195	0.116165	-1.06113
C	0.807549	-0.124078	-0.90684
C	1.03052	-0.181635	0.437535
O	-0.123823	0.00454454	1.13024
H	-2.12626	0.353255	0.569726
H	-1.14659	0.224303	-2.00705
H	1.55374	-0.239245	-1.70936
H	1.95217	-0.346865	1.01935
C	5.47509	1.02095	0.342113
C	5.30532	-0.111372	1.11034
N	4.72401	-1.10466	0.394819
C	4.53388	-0.590501	-0.812705
N	4.97011	0.688753	-0.895153
H	5.90518	2.00675	0.58037
H	5.59187	-0.229417	2.16808
H	4.07949	-1.10707	-1.67347
H	4.93109	1.3093	-1.74053
