18
  This energy is -1.3455 and Call times are: 27662
C	0.519151	0.912827	0.428521
C	-0.118629	0.933895	-0.776953
C	-0.638698	-0.382711	-0.967205
C	-0.272815	-1.09211	0.138803
O	0.434948	-0.316556	1.0017
H	1.06356	1.6959	0.981397
H	-0.213353	1.79063	-1.46334
H	-1.21682	-0.749747	-1.83043
H	-0.452035	-2.14096	0.426962
C	5.28429	0.559069	-0.539042
C	4.49387	-0.440444	-1.06568
N	3.57007	-0.857839	-0.166296
C	3.78657	-0.120071	0.91419
N	4.80983	0.749438	0.739564
H	6.12287	1.12933	-0.969306
H	4.5736	-0.86789	-2.07849
H	3.22511	-0.175574	1.86071
H	5.17263	1.43751	1.44397
