18
  This energy is -1.3417 and Call times are: 74393
C	-0.0329223	0.371255	1.07121
C	0.545492	1.08991	0.0665439
C	0.389102	0.304476	-1.11615
C	-0.271074	-0.824807	-0.729803
O	-0.536756	-0.800822	0.602807
H	-0.149453	0.581494	2.14707
H	1.03335	2.07436	0.149934
H	0.731594	0.558871	-2.13206
H	-0.605205	-1.70742	-1.29954
C	3.93451	-0.440915	-0.66454
C	4.16133	0.888233	-0.376333
N	5.24781	1.03707	0.419859
C	5.69332	-0.195064	0.624807
N	4.93534	-1.12169	-0.00797712
H	3.15763	-0.934054	-1.27019
H	3.56049	1.74248	-0.728625
H	6.57049	-0.475379	1.22998
H	5.0821	-2.16076	3.37875e-05
