18
  This energy is -1.4183 and Call times are: 41257
C	-0.97949	-0.566304	0.0793809
C	-0.410123	0.061598	1.14799
C	0.794252	0.652771	0.657983
C	0.854544	0.33394	-0.666813
O	-0.220613	-0.410276	-1.03721
H	-1.90999	-1.14982	-0.0151399
H	-0.799212	0.104194	2.17799
H	1.52462	1.24486	1.23252
H	1.59981	0.572984	-1.44314
C	4.69252	-1.17245	-0.0435765
C	4.34583	-0.330681	-1.07913
N	4.3372	0.96291	-0.675325
C	4.67725	0.923799	0.605871
N	4.90188	-0.341053	1.03398
H	4.80143	-2.26774	0.00130874
H	4.10176	-0.633572	-2.11041
H	4.77669	1.7918	1.27738
H	5.18213	-0.632804	2.00228
