18
  This energy is -0.7941 and Call times are: 90308
C	-0.538232	-0.288541	0.955746
C	0.395059	0.705262	0.914561
C	0.838472	0.769264	-0.441686
C	0.137001	-0.191079	-1.10956
O	-0.708441	-0.846849	-0.271582
H	-1.14412	-0.688576	1.78528
H	0.736953	1.33054	1.75494
H	1.59251	1.45403	-0.861933
H	0.148078	-0.502062	-2.16711
C	6.60178	-0.617593	0.0100364
C	6.43884	0.688305	-0.401333
N	5.14806	1.08212	-0.277641
C	4.51265	0.0245556	0.208613
N	5.34564	-1.02583	0.399437
H	7.49301	-1.26374	0.0518385
H	7.22952	1.3534	-0.785165
H	3.43767	-0.0350209	0.443355
H	5.08436	-1.9711	0.772873
