18
  This energy is -1.3478 and Call times are: 78591
C	-0.742754	0.328943	0.791527
C	0.0961896	-0.73112	0.972676
C	0.866141	-0.829742	-0.226309
C	0.429735	0.17876	-1.0343
O	-0.552685	0.896434	-0.428653
H	-1.51043	0.773879	1.44571
H	0.16585	-1.37866	1.86146
H	1.65147	-1.56895	-0.451977
H	0.733372	0.486474	-2.04838
C	3.95879	-0.320131	0.856283
C	4.06171	0.925298	0.273652
N	5.02263	0.939868	-0.681823
C	5.51397	-0.291839	-0.691905
N	4.90551	-1.0895	0.217548
H	3.3008	-0.700677	1.65364
H	3.45982	1.81361	0.525598
H	6.31991	-0.66337	-1.3451
H	5.11503	-2.10126	0.401123
