18
  This energy is -1.198 and Call times are: 93998
C	-0.581839	0.569841	-0.789396
C	0.053133	1.19494	0.243289
C	0.664098	0.157624	1.01194
C	0.348544	-1.00979	0.381108
O	-0.41192	-0.776803	-0.720901
H	-1.17981	0.965397	-1.62678
H	0.0878017	2.27787	0.443668
H	1.26665	0.27638	1.92677
H	0.600668	-2.05755	0.61322
C	5.538	0.554607	-0.612591
C	4.28411	0.197518	-1.06137
N	3.57701	-0.428096	-0.0891895
C	4.38915	-0.459004	0.958717
N	5.58367	0.121012	0.693586
H	6.37317	1.06942	-1.11357
H	3.87698	0.380088	-2.06922
H	4.15957	-0.89422	1.94467
H	6.39082	0.221303	1.35669
