18
  This energy is -1.1918 and Call times are: 34275
C	-0.251274	-1.06274	0.306353
C	-1.13939	-0.0357367	0.43636
C	-0.466381	1.12694	-0.0487784
C	0.773583	0.7078	-0.432422
O	0.922223	-0.626701	-0.222596
H	-0.332334	-2.1347	0.550418
H	-2.16549	-0.0913449	0.834002
H	-0.866928	2.15203	-0.10207
H	1.62895	1.25359	-0.863379
C	4.66392	-1.05626	-0.492479
C	5.14513	0.15286	-0.948114
N	4.76458	1.16795	-0.134925
C	4.05	0.590763	0.821553
N	3.96011	-0.749499	0.650649
H	4.769	-2.07918	-0.887625
H	5.76009	0.310973	-1.84904
H	3.56979	1.10265	1.67103
H	3.45124	-1.42605	1.27079
