18
  This energy is -0.8973 and Call times are: 38418
C	-0.583226	-0.616905	-0.752115
C	-0.805103	-0.701726	0.590997
C	0.109471	0.212905	1.1969
C	0.809495	0.775904	0.170564
O	0.399515	0.28074	-1.02683
H	-1.05178	-1.13536	-1.60471
H	-1.53917	-1.34395	1.10364
H	0.225497	0.420828	2.27273
H	1.61348	1.53007	0.161029
C	4.35477	0.601044	0.77943
C	4.46372	-0.769653	0.677137
N	5.29376	-1.11964	-0.335311
C	5.6982	0.029564	-0.859121
N	5.15991	1.09624	-0.221925
H	3.78042	1.23788	1.47088
H	3.95827	-1.51234	1.31573
H	6.38818	0.147339	-1.71017
H	5.32452	2.10778	-0.447683
