18
  This energy is -0.6941 and Call times are: 94648
C	0.321253	-0.639818	-0.879676
C	-0.853767	0.052729	-0.87074
C	-0.900895	0.726581	0.387758
C	0.249487	0.386331	1.03678
O	1.00774	-0.447573	0.277386
H	0.77709	-1.29651	-1.63877
H	-1.61133	0.0857482	-1.67018
H	-1.70227	1.38594	0.758087
H	0.639751	0.667238	2.02876
C	4.56098	0.265436	-0.131383
C	5.63922	1.0518	-0.478026
N	6.80908	0.433186	-0.18603
C	6.45792	-0.732512	0.339759
N	5.11312	-0.881241	0.39441
H	3.47601	0.435023	-0.21874
H	5.59401	2.05443	-0.933585
H	7.1451	-1.5144	0.701252
H	4.59062	-1.71181	0.766436
