18
  This energy is -0.6918 and Call times are: 37694
C	-0.639909	0.455106	-0.818411
C	-1.17767	-0.103209	0.30385
C	-0.0706076	-0.559397	1.08258
C	1.04594	-0.23958	0.367445
O	0.716912	0.380548	-0.796253
H	-1.10913	0.932231	-1.69444
H	-2.2467	-0.185546	0.557827
H	-0.110623	-1.06576	2.06038
H	2.11708	-0.397195	0.574938
C	5.93981	0.753208	-0.871929
C	6.58751	-0.433752	-0.60221
N	6.04954	-1.04932	0.478612
C	5.07182	-0.247289	0.877887
N	4.96539	0.853066	0.0959139
H	6.09806	1.50869	-1.65789
H	7.43336	-0.856998	-1.16812
H	4.40301	-0.417721	1.73689
H	4.27259	1.63356	0.205943
