18
  This energy is -1.9349 and Call times are: 28565
C	-0.258257	0.597591	0.928757
C	-0.393838	-0.758403	0.871553
C	0.0242835	-1.13815	-0.440347
C	0.378462	0.0193033	-1.06902
O	0.212243	1.08923	-0.24765
H	-0.460045	1.31904	1.73748
H	-0.752325	-1.42442	1.67281
H	0.0544369	-2.15714	-0.858494
H	0.758449	0.212372	-2.08567
C	3.82044	-0.475758	1.06969
C	4.06716	-1.08804	-0.140836
N	3.82318	-0.245072	-1.17349
C	3.4266	0.885869	-0.605757
N	3.40815	0.797422	0.745326
H	3.90622	-0.843678	2.10449
H	4.41684	-2.12295	-0.287605
H	3.13779	1.80963	-1.13252
H	3.13232	1.55448	1.41766
