18
  This energy is -0.8776 and Call times are: 97615
C	-0.0128419	1.13401	-0.0162109
C	-0.770998	0.407319	0.854132
C	-0.485702	-0.96329	0.571013
C	0.421609	-0.953166	-0.447347
O	0.721747	0.319305	-0.818489
H	0.0916684	2.22159	-0.162848
H	-1.46185	0.797327	1.6188
H	-0.911372	-1.84725	1.07252
H	0.923081	-1.77265	-0.987917
C	5.28357	0.652129	0.701819
C	4.4893	1.10298	-0.331138
N	3.83629	0.0770231	-0.929054
C	4.22399	-1.00619	-0.269537
N	5.0966	-0.711972	0.723224
H	5.94651	1.18761	1.3999
H	4.37571	2.15018	-0.65569
H	3.89978	-2.03967	-0.472093
H	5.54525	-1.3932	1.38345
