18
  This energy is -1.1056 and Call times are: 122342
C	0.0667305	0.315997	1.08724
C	0.995086	-0.495505	0.50415
C	0.57259	-0.663056	-0.849933
C	-0.57665	0.0608491	-0.974768
O	-0.900347	0.665384	0.19859
H	-0.0173062	0.711892	2.11265
H	1.88784	-0.932301	0.97985
H	1.07264	-1.25559	-1.63284
H	-1.24855	0.223614	-1.83344
C	4.73697	0.873452	0.552421
C	4.32462	0.212011	-0.584947
N	5.21811	-0.74024	-0.947449
C	6.18109	-0.669816	-0.038424
N	5.93736	0.287769	0.887435
H	4.2765	1.69218	1.12792
H	3.39842	0.404826	-1.15048
H	7.08721	-1.29588	-0.00354362
H	6.5467	0.536635	1.70476
