18
  This energy is -0.6671 and Call times are: 80536
C	0.620562	-0.0426379	-0.948412
C	-0.701491	-0.377296	-0.924903
C	-1.12613	-0.198342	0.427048
C	-0.0260889	0.229876	1.11035
O	1.04964	0.3306	0.285928
H	1.35663	-0.0283502	-1.76893
H	-1.31602	-0.716179	-1.77438
H	-2.13537	-0.370888	0.8342
H	0.119129	0.493161	2.17094
C	6.80375	-0.202268	0.726237
C	6.85142	0.430684	-0.49779
N	5.62204	0.491221	-1.06478
C	4.81477	-0.101919	-0.195807
N	5.47954	-0.537343	0.900584
H	7.59214	-0.430357	1.46105
H	7.75085	0.844757	-0.981958
H	3.72835	-0.24442	-0.312457
H	5.06517	-1.03531	1.72616
