18
  This energy is -1.6755 and Call times are: 108098
C	-0.0613617	-0.773339	-0.827395
C	-0.374207	0.538804	-1.02934
C	-0.176077	1.18605	0.228407
C	0.240353	0.212294	1.08792
O	0.31604	-0.990618	0.459994
H	-0.0665271	-1.63949	-1.50931
H	-0.71074	1.00423	-1.96968
H	-0.328449	2.25308	0.457144
H	0.510866	0.24672	2.15604
C	4.85727	0.883679	0.628578
C	5.41503	-0.360313	0.422345
N	4.61506	-1.13205	-0.352893
C	3.56502	-0.36972	-0.626556
N	3.66372	0.855071	-0.0575768
H	5.21335	1.75811	1.19613
H	6.38033	-0.71482	0.819037
H	2.69557	-0.658697	-1.23875
H	2.96429	1.63441	-0.126076
