18
  This energy is -1.3983 and Call times are: 10350
C	0.528653	-1.00338	-0.0126457
C	0.691257	-0.0795716	-1.00286
C	-0.124184	1.0343	-0.636156
C	-0.713106	0.692833	0.545768
O	-0.325681	-0.548318	0.941317
H	0.959234	-2.00848	0.127407
H	1.32214	-0.173124	-1.90137
H	-0.251248	1.97608	-1.19383
H	-1.41713	1.23757	1.19605
C	5.31568	-0.604106	-0.595666
C	4.30235	-1.12554	0.180488
N	3.54501	-0.140526	0.721499
C	4.08644	0.987692	0.282643
N	5.15689	0.761359	-0.515172
H	6.11199	-1.09182	-1.18009
H	4.10413	-2.19484	0.3598
H	3.73885	2.00725	0.514819
H	5.75241	1.48767	-0.983241
