18
  This energy is -1.823 and Call times are: 18016
C	-0.0152789	-1.13132	-0.0792761
C	-0.44372	-0.471321	1.03482
C	-0.270991	0.918907	0.756348
C	0.247753	0.985732	-0.503339
O	0.410472	-0.257057	-1.0287
H	0.0368707	-2.20642	-0.317393
H	-0.841488	-0.918595	1.95993
H	-0.508208	1.76384	1.42261
H	0.540238	1.845	-1.12893
C	3.48133	-0.131631	-1.04821
C	4.04057	-1.12395	-0.271234
N	4.55052	-0.616328	0.877146
C	4.30857	0.685957	0.812836
N	3.6658	1.02798	-0.328859
H	2.98181	-0.167402	-2.0294
H	4.08524	-2.19709	-0.518695
H	4.58059	1.43463	1.57424
H	3.36524	1.9927	-0.612096
