18
  This energy is -0.9355 and Call times are: 115306
C	-0.758623	0.842155	0.040823
C	-0.96827	-0.295379	-0.681977
C	0.193556	-1.10279	-0.486093
C	1.01062	-0.387373	0.339116
O	0.444934	0.802994	0.670846
H	-1.38012	1.74097	0.186169
H	-1.85237	-0.541241	-1.2919
H	0.389362	-2.09913	-0.913946
H	2.00568	-0.611988	0.757015
C	4.89811	0.250088	-0.82433
C	6.21772	-0.0923633	-1.03049
N	6.85442	-0.313974	0.145094
C	5.93331	-0.109781	1.07702
N	4.73692	0.232565	0.543113
H	4.08931	0.496788	-1.53039
H	6.7218	-0.183505	-2.00643
H	6.08124	-0.197321	2.16545
H	3.85465	0.444304	1.07038
