18
  This energy is -0.9416 and Call times are: 46115
C	-0.522683	0.259142	0.97265
C	-0.851957	0.847788	-0.212866
C	0.0135902	0.268914	-1.19054
C	0.79538	-0.622372	-0.516163
O	0.481491	-0.641344	0.806004
H	-0.922715	0.392628	1.99118
H	-1.62664	1.61289	-0.381925
H	0.0434255	0.495955	-2.26834
H	1.59967	-1.29433	-0.85797
C	5.11351	0.644134	0.961561
C	4.91279	1.11174	-0.319924
N	4.69304	0.0909288	-1.18373
C	4.75718	-1.00579	-0.440954
N	5.00864	-0.725101	0.859651
H	5.31677	1.17126	1.90727
H	4.92261	2.1674	-0.636696
H	4.62753	-2.03995	-0.798629
H	5.10529	-1.41842	1.64146
