18
  This energy is -0.5919 and Call times are: 36685
C	-0.120374	1.12023	-0.13033
C	-1.06119	0.351774	0.489919
C	-0.557372	-0.984377	0.458506
C	0.646844	-0.914467	-0.178165
O	0.929571	0.363316	-0.544699
H	-0.0806443	2.20232	-0.337142
H	-2.01435	0.691726	0.925833
H	-1.04223	-1.88637	0.865222
H	1.38759	-1.69151	-0.428685
C	6.24784	0.179977	-0.50471
C	5.02693	0.0958664	-1.13988
N	4.02707	-0.117747	-0.250407
C	4.62543	-0.165972	0.932079
N	5.96455	0.00810174	0.83185
H	7.26432	0.344492	-0.896173
H	4.84959	0.185488	-2.22403
H	4.13047	-0.326242	1.90345
H	6.65538	0.0114905	1.62179
