18
  This energy is -0.5833 and Call times are: 45987
C	-0.493063	-0.245993	0.991351
C	0.588576	-0.932542	0.523289
C	0.914987	-0.338063	-0.733758
C	0.00399822	0.659284	-0.922892
O	-0.863525	0.729734	0.120876
H	-1.08266	-0.353229	1.91662
H	1.1048	-1.77326	1.014
H	1.73461	-0.626219	-1.41146
H	-0.131428	1.37921	-1.74668
C	5.98655	0.0558511	-1.15603
C	5.08489	-0.261951	-0.16247
N	5.67215	-0.230975	1.05846
C	6.93333	0.104767	0.82323
N	7.17286	0.288696	-0.496764
H	5.87177	0.130307	-2.24911
H	4.02114	-0.513038	-0.304719
H	7.72345	0.229817	1.58106
H	8.08793	0.557469	-0.934564
