18
  This energy is -1.6101 and Call times are: 29227
C	0.184455	0.779152	-0.803306
C	-0.00592938	1.1108	0.505945
C	-0.20346	-0.123415	1.19719
C	-0.116346	-1.10032	0.249326
O	0.120257	-0.567074	-0.978143
H	0.372361	1.39974	-1.69483
H	-0.00714484	2.12302	0.94127
H	-0.388279	-0.258389	2.27502
H	-0.203285	-2.19702	0.319597
C	3.69834	-0.537565	0.856812
C	3.50157	-0.67051	-0.501403
N	4.37504	0.0956188	-1.19898
C	5.11089	0.701545	-0.277025
N	4.74183	0.352706	0.978242
H	3.18673	-0.998121	1.71686
H	2.74499	-1.30551	-0.990504
H	5.93305	1.41044	-0.466112
H	5.16917	0.695175	1.87343
