18
  This energy is -1.4359 and Call times are: 965
C	-0.263214	-0.985243	-0.496403
C	-0.993204	0.149939	-0.693507
C	-0.358736	1.16339	0.0878243
C	0.70296	0.558054	0.693414
O	0.776446	-0.754272	0.347855
H	-0.378661	-2.00695	-0.893945
H	-1.88864	0.262357	-1.32569
H	-0.664438	2.21781	0.181885
H	1.47031	0.946469	1.38302
C	5.21763	-0.812626	0.789837
C	6.02328	0.155694	0.229095
N	5.32815	0.923946	-0.644461
C	4.09595	0.434091	-0.62572
N	3.97826	-0.613993	0.223548
H	5.43142	-1.60265	1.52719
H	7.09366	0.313757	0.439191
H	3.24142	0.805081	-1.21425
H	3.10858	-1.16945	0.414285
