18
  This energy is -0.623 and Call times are: 101981
C	-0.663545	-0.919715	-0.0152934
C	0.642952	-0.968013	0.373432
C	1.13472	0.368056	0.258531
C	0.0853212	1.11486	-0.190266
O	-1.02095	0.344567	-0.362949
H	-1.43426	-1.70457	-0.087723
H	1.20409	-1.85546	0.707567
H	2.15295	0.722471	0.485865
H	-0.00115432	2.18902	-0.42257
C	6.53777	-0.297122	-1.05127
C	7.02348	-0.672324	0.183416
N	6.27372	-0.148264	1.18328
C	5.32648	0.549397	0.571215
N	5.44246	0.49096	-0.776644
H	6.88254	-0.527473	-2.07186
H	7.90148	-1.31178	0.370687
H	4.52303	1.122	1.06194
H	4.81715	0.957167	-1.47871
