18
  This energy is -1.4322 and Call times are: 9495
C	0.59568	0.351432	0.898922
C	0.555013	1.05306	-0.270026
C	-0.285005	0.302051	-1.14779
C	-0.683506	-0.79221	-0.437747
O	-0.155072	-0.778266	0.814281
H	1.11498	0.547192	1.85142
H	1.06535	2.00406	-0.49192
H	-0.555454	0.554998	-2.18556
H	-1.33301	-1.64141	-0.706573
C	6.1147	0.0796857	-1.13124
C	6.05696	-1.06661	-0.367156
N	5.65366	-0.791381	0.897008
C	5.46193	0.520663	0.917099
N	5.72652	1.09166	-0.281879
H	6.39519	0.241506	-2.18418
H	6.29908	-2.0873	-0.705389
H	5.12816	1.11424	1.78341
H	5.65045	2.11104	-0.519233
