18
  This energy is -1.5389 and Call times are: 24868
C	-0.233789	-0.955925	0.563872
C	-0.54443	-0.790633	-0.753912
C	-0.0997779	0.522184	-1.09875
C	0.443331	1.04324	0.0387458
O	0.369982	0.154176	1.06402
H	-0.387815	-1.80453	1.25046
H	-1.03726	-1.52001	-1.41665
H	-0.179303	1.01306	-2.08202
H	0.907995	2.02129	0.245519
C	4.12143	-0.739806	-0.907213
C	3.72395	0.579317	-0.962638
N	3.69344	1.13282	0.273976
C	4.07056	0.160771	1.09345
N	4.33975	-0.98827	0.429496
H	4.25976	-1.49415	-1.69802
H	3.45865	1.14159	-1.87276
H	4.16658	0.236324	2.18857
H	4.65475	-1.89556	0.85241
