18
  This energy is -0.6852 and Call times are: 72492
C	-0.736173	0.210721	-0.836688
C	-0.985529	0.554549	0.459451
C	0.158076	0.1313	1.20319
C	1.00532	-0.433807	0.29588
O	0.475223	-0.393896	-0.954886
H	-1.33228	0.339817	-1.75497
H	-1.88459	1.05593	0.852391
H	0.321985	0.239268	2.28743
H	2.00043	-0.893621	0.412434
C	5.96578	1.09508	0.339501
C	4.84867	0.367666	0.691768
N	4.8643	-0.860168	0.118452
C	5.98683	-0.894341	-0.586801
N	6.68608	0.260852	-0.485982
H	6.28838	2.11337	0.608841
H	4.0317	0.706795	1.34933
H	6.34509	-1.7403	-1.19527
H	7.60236	0.479378	-0.948518
