18
  This energy is -0.7841 and Call times are: 75642
C	-0.36762	-0.639207	-0.861783
C	-1.18953	0.207793	-0.178101
C	-0.372966	0.826401	0.817218
C	0.875855	0.302814	0.653897
O	0.897375	-0.593958	-0.367058
H	-0.558987	-1.31892	-1.70832
H	-2.26314	0.379714	-0.356759
H	-0.687575	1.57331	1.5637
H	1.82066	0.483834	1.19225
C	5.99504	-0.867508	-0.0207319
C	5.05399	-0.584227	-0.987846
N	4.30025	0.486137	-0.637533
C	4.77192	0.865437	0.542418
N	5.79451	0.0807799	0.957392
H	6.76747	-1.65068	0.0386876
H	4.90538	-1.13299	-1.9321
H	4.40518	1.71114	1.14617
H	6.33217	0.176549	1.85351
