18
  This energy is -0.9328 and Call times are: 119544
C	-1.11057	-0.229914	-0.0129838
C	-0.530591	0.516287	0.970469
C	0.858049	0.583363	0.642906
C	1.00406	-0.12777	-0.5118
O	-0.188066	-0.63155	-0.926593
H	-2.1556	-0.541705	-0.174083
H	-1.03049	0.973607	1.83941
H	1.64888	1.10303	1.20738
H	1.89119	-0.346232	-1.12867
C	6.51242	0.660997	-0.340103
C	5.21351	1.0807	-0.145589
N	4.4215	0.0532186	0.246215
C	5.226	-0.999899	0.294582
N	6.49706	-0.685076	-0.0502064
H	7.41644	1.20675	-0.65384
H	4.83365	2.10649	-0.280938
H	4.93629	-2.0251	0.576131
H	7.31501	-1.34135	-0.0892542
