18
  This energy is -0.6723 and Call times are: 125437
C	-0.297677	0.774781	-0.772984
C	-1.00619	0.579687	0.376067
C	-0.329856	-0.46284	1.08021
C	0.732255	-0.812788	0.299298
O	0.767319	-0.0671079	-0.836371
H	-0.446083	1.4719	-1.61397
H	-1.91403	1.1161	0.695736
H	-0.60904	-0.895443	2.05438
H	1.52491	-1.56625	0.438063
C	6.18071	-0.64323	-0.097708
C	4.90964	-1.00782	-0.488341
N	4.01664	-0.0225704	-0.226893
C	4.73101	0.94954	0.32384
N	6.04152	0.623657	0.423644
H	7.14238	-1.17783	-0.152016
H	4.62092	-1.96412	-0.954143
H	4.34468	1.92092	0.672274
H	6.80591	1.22206	0.822233
