18
  This energy is -1.1849 and Call times are: 119768
C	0.28496	-1.09301	-0.102563
C	0.355297	-0.218719	-1.14709
C	-0.0781566	1.04114	-0.632308
C	-0.375106	0.825505	0.68135
O	-0.159167	-0.472331	1.02194
H	0.519695	-2.16778	-0.0316834
H	0.679855	-0.438892	-2.17679
H	-0.15649	1.99199	-1.18352
H	-0.743478	1.5037	1.4685
C	5.30456	-0.857162	0.533738
C	5.45628	0.500825	0.718122
N	4.59394	1.19895	-0.0600206
C	3.90984	0.277557	-0.724615
N	4.30117	-0.977874	-0.401589
H	5.82233	-1.71749	0.986813
H	6.17252	0.989377	1.39868
H	3.11128	0.46719	-1.45985
H	3.914	-1.87271	-0.789699
