18
  This energy is -1.2314 and Call times are: 83538
C	0.808374	0.268844	-0.748769
C	0.428731	1.11482	0.251519
C	-0.597013	0.431446	0.973303
C	-0.753637	-0.771798	0.35037
O	0.0966476	-0.888049	-0.703439
H	1.56256	0.371461	-1.54622
H	0.830686	2.1193	0.460171
H	-1.14848	0.800744	1.85285
H	-1.42667	-1.62002	0.557209
C	5.46612	0.342511	-1.09406
C	6.28357	0.405138	0.0145394
N	5.65368	-0.0756412	1.1139
C	4.45003	-0.435163	0.688934
N	4.28797	-0.203066	-0.635248
H	5.63381	0.637728	-2.14204
H	7.31658	0.788617	0.0408296
H	3.64872	-0.873607	1.30529
H	3.42858	-0.401007	-1.20404
