18
  This energy is -0.7413 and Call times are: 116847
C	-0.0345096	0.748029	0.851858
C	-1.13605	0.0553671	0.442957
C	-0.698804	-0.773643	-0.634853
C	0.631334	-0.514395	-0.78944
O	1.05379	0.41252	0.110209
H	0.103682	1.49795	1.64796
H	-2.15435	0.12157	0.85862
H	-1.31069	-1.478	-1.22101
H	1.37791	-0.917961	-1.49301
C	6.52576	-0.557465	-0.148776
C	6.08704	0.0772787	0.993926
N	4.85602	0.614149	0.812667
C	4.53227	0.313608	-0.437728
N	5.50628	-0.392232	-1.05957
H	7.46014	-1.09706	-0.370873
H	6.63671	0.157478	1.94592
H	3.59447	0.5858	-0.948281
H	5.48827	-0.746181	-2.04732
