18
  This energy is -1.3042 and Call times are: 37150
C	-0.22846	0.990505	0.503098
C	0.313924	-0.0634953	1.17784
C	0.45066	-1.11307	0.218775
C	-0.0202372	-0.607801	-0.957376
O	-0.439115	0.675726	-0.802104
H	-0.507928	2.00437	0.833596
H	0.590025	-0.098371	2.24398
H	0.853855	-2.12352	0.393467
H	-0.109452	-1.05432	-1.96132
C	5.29837	0.507155	-0.984472
C	6.04977	0.0885251	0.0931645
N	5.26432	-0.452854	1.05571
C	4.03034	-0.370394	0.577026
N	3.9981	0.201009	-0.650186
H	5.5873	0.985308	-1.93391
H	7.14456	0.167422	0.193388
H	3.11381	-0.713192	1.08366
H	3.1451	0.377242	-1.2355
