18
  This energy is -0.5081 and Call times are: 38642
C	0.233665	0.861895	0.699242
C	1.1581	0.349505	-0.162872
C	0.497568	-0.706271	-0.862262
C	-0.772207	-0.745849	-0.365795
O	-0.950886	0.204898	0.588755
H	0.294017	1.68242	1.43297
H	2.20058	0.681687	-0.293225
H	0.926081	-1.35542	-1.64269
H	-1.63093	-1.39434	-0.6052
C	7.1597	-0.203195	-0.777634
C	6.95461	-0.857048	0.418844
N	5.86866	-0.366192	1.06403
C	5.40182	0.588543	0.270831
N	6.14573	0.725502	-0.852304
H	7.92976	-0.328854	-1.55529
H	7.57076	-1.67418	0.828113
H	4.51841	1.21817	0.464149
H	5.9814	1.40893	-1.63152
