18
  This energy is -1.0922 and Call times are: 67600
C	-0.246942	0.4909	-0.992189
C	0.310895	1.17951	0.0446387
C	0.468698	0.233056	1.10268
C	-0.00663698	-0.950366	0.619
O	-0.447735	-0.811264	-0.658926
H	-0.544686	0.808777	-2.00488
H	0.583871	2.24687	0.0625875
H	0.888351	0.420696	2.10406
H	-0.0848135	-1.94938	1.07846
C	6.06665	-0.0596759	-0.143046
C	5.15673	-1.07843	-0.331007
N	3.89365	-0.658606	-0.0762627
C	4.01951	0.615746	0.268424
N	5.31032	1.02416	0.243553
H	7.16232	-0.0302515	-0.253357
H	5.38897	-2.10885	-0.645868
H	3.19914	1.29603	0.548488
H	5.667	1.98363	0.474725
