18
  This energy is -1.1443 and Call times are: 108227
C	-0.450849	-0.874131	-0.564828
C	-0.570204	-0.738398	0.787099
C	0.118425	0.467514	1.12129
C	0.5978	0.962242	-0.0559159
O	0.259465	0.155574	-1.09603
H	-0.821004	-1.64778	-1.25744
H	-1.09093	-1.41918	1.47954
H	0.237771	0.907623	2.12436
H	1.1858	1.86651	-0.283532
C	4.05293	0.170314	0.677603
C	4.42209	0.905986	-0.428586
N	5.57064	0.431998	-0.969569
C	5.91272	-0.593821	-0.20191
N	5.02943	-0.792178	0.805085
H	3.19312	0.260586	1.36033
H	3.88026	1.77028	-0.846037
H	6.80009	-1.23399	-0.332241
H	5.07901	-1.53722	1.54246
