18
  This energy is -0.9579 and Call times are: 58395
C	-0.917652	0.664034	0.0581
C	0.287037	1.12045	-0.389991
C	1.17908	0.00741974	-0.315586
C	0.440766	-1.0309	0.171404
O	-0.842022	-0.647757	0.405227
H	-1.89173	1.16644	0.176452
H	0.523751	2.13875	-0.738006
H	2.24495	-0.00882635	-0.594442
H	0.70788	-2.07716	0.393283
C	5.20171	-0.345096	-1.10756
C	5.81306	-1.07504	-0.110267
N	5.87545	-0.368278	1.04434
C	5.30499	0.795692	0.764394
N	4.88221	0.858827	-0.520465
H	4.97885	-0.589038	-2.15844
H	6.21023	-2.09899	-0.203153
H	5.17078	1.63701	1.46325
H	4.40244	1.67029	-0.981566
