18
  This energy is -0.7251 and Call times are: 71041
C	-0.681026	-0.411746	0.808127
C	0.442116	-1.06666	0.395801
C	1.0235	-0.245592	-0.618084
C	0.204305	0.838583	-0.735825
O	-0.84173	0.753652	0.127662
H	-1.43885	-0.666579	1.56708
H	0.822986	-2.03119	0.768256
H	1.94475	-0.446942	-1.18803
H	0.255411	1.72618	-1.38759
C	6.32504	-0.725925	0.576578
C	5.21767	-1.07939	-0.164999
N	4.61339	0.0131852	-0.69191
C	5.3431	1.04054	-0.278785
N	6.38663	0.646937	0.489141
H	7.04945	-1.3339	1.1415
H	4.84391	-2.10319	-0.329285
H	5.15795	2.10205	-0.509337
H	7.10563	1.26904	0.933302
