18
  This energy is -0.6327 and Call times are: 56318
C	-0.727763	-0.530913	0.689124
C	-1.12871	0.416033	-0.206928
C	0.0561958	0.844142	-0.87986
C	1.07662	0.121015	-0.335624
O	0.615966	-0.723743	0.624163
H	-1.29352	-1.13258	1.41931
H	-2.15583	0.776875	-0.376964
H	0.130436	1.60291	-1.67538
H	2.15954	0.115022	-0.541758
C	5.38237	-0.732039	0.425077
C	5.31728	-0.0100245	-0.747784
N	6.43683	0.73215	-0.927463
C	7.19359	0.471551	0.129908
N	6.60194	-0.405668	0.974911
H	4.67086	-1.43166	0.891794
H	4.48255	-0.0113197	-1.46756
H	8.18965	0.895795	0.335116
H	6.99699	-0.768122	1.87703
