18
  This energy is -0.9989 and Call times are: 104735
C	1.09719	0.279379	-0.0671947
C	0.673275	-1.01691	-0.0498288
C	-0.751112	-0.961293	0.0404302
C	-1.07188	0.364073	0.070252
O	0.0447032	1.13612	0.00539761
H	2.10691	0.717632	-0.127722
H	1.30068	-1.92153	-0.0959508
H	-1.44767	-1.81422	0.0782035
H	-2.04405	0.879712	0.135311
C	5.79867	-0.396081	0.989718
C	4.98639	-1.10589	0.130925
N	4.58767	-0.337384	-0.911633
C	5.15044	0.844688	-0.700418
N	5.89072	0.860155	0.433312
H	6.30097	-0.686332	1.9262
H	4.6809	-2.15876	0.244898
H	5.05345	1.73362	-1.34433
H	6.43172	1.67404	0.815626
