18
  This energy is -1.747 and Call times are: 122840
C	-0.971826	-0.583649	-0.036183
C	-0.344212	-0.281967	1.13662
C	0.828669	0.448915	0.775675
C	0.814246	0.529345	-0.58583
O	-0.278233	-0.0958809	-1.09827
H	-1.9046	-1.13238	-0.246129
H	-0.674095	-0.547481	2.15386
H	1.58897	0.862751	1.45742
H	1.51342	0.997569	-1.29799
C	5.05394	1.15078	0.0159841
C	6.29044	0.566455	0.191434
N	6.20853	-0.783881	0.11147
C	4.9261	-1.03631	-0.112736
N	4.18864	0.0974391	-0.17874
H	4.73904	2.20642	0.0159194
H	7.24019	1.09502	0.374286
H	4.47322	-2.0332	-0.236574
H	3.1547	0.161797	-0.346323
