18
  This energy is -0.5758 and Call times are: 88132
C	-0.97032	0.0691574	0.583178
C	0.245823	0.289957	1.15991
C	1.20938	0.113047	0.120491
C	0.496986	-0.200243	-0.999654
O	-0.83575	-0.231453	-0.735357
H	-1.99151	0.0950697	0.997596
H	0.444454	0.5512	2.21176
H	2.30362	0.209852	0.206213
H	0.816481	-0.420484	-2.03148
C	7.41195	-0.352485	-0.156244
C	6.6479	0.388609	-1.03268
N	5.40962	0.614787	-0.530649
C	5.4055	0.0162831	0.652736
N	6.58983	-0.581328	0.924463
H	8.44798	-0.720929	-0.222889
H	6.96793	0.764156	-2.01827
H	4.56175	-0.0151825	1.36078
H	6.83506	-1.11695	1.79293
