18
  This energy is -1.2001 and Call times are: 74970
C	-0.123742	0.643479	0.925756
C	-1.11533	-0.171969	0.465137
C	-0.58881	-0.80781	-0.700453
C	0.678049	-0.324785	-0.849214
O	0.978722	0.562706	0.135147
H	-0.0791733	1.32206	1.79339
H	-2.11705	-0.311708	0.902307
H	-1.10114	-1.53856	-1.34669
H	1.45522	-0.530914	-1.60338
C	5.41642	0.448924	-0.957535
C	5.77668	0.66594	0.355575
N	4.96315	-0.00920116	1.20343
C	4.10147	-0.642648	0.419291
N	4.33302	-0.398535	-0.892343
H	5.8402	0.825034	-1.90225
H	6.60904	1.29757	0.706389
H	3.28112	-1.29816	0.753304
H	3.79059	-0.781814	-1.70482
