18
  This energy is -1.0729 and Call times are: 19752
C	-0.951939	-0.560779	-0.256399
C	9.27373e-05	-1.07831	0.571956
C	1.03025	-0.0918574	0.648098
C	0.616797	0.941401	-0.140449
O	-0.591747	0.672051	-0.7007
H	-1.91704	-0.964928	-0.603527
H	-0.0209633	-2.05658	1.07855
H	1.96672	-0.153228	1.22546
H	1.08506	1.90981	-0.381633
C	4.34233	0.33416	-0.596901
C	4.88791	-0.931224	-0.549078
N	5.99188	-0.957976	0.236448
C	6.13064	0.28608	0.674277
N	5.16072	1.10328	0.199891
H	3.45907	0.728603	-1.12398
H	4.50475	-1.82536	-1.0673
H	6.92471	0.653147	1.34431
H	5.05273	2.1276	0.400787
