18
  This energy is -0.9647 and Call times are: 22374
C	-0.571295	-0.3948	0.896747
C	-0.162823	0.903291	0.804638
C	0.512751	1.01258	-0.449066
C	0.457474	-0.228376	-1.0124
O	-0.200971	-1.10032	-0.204212
H	-1.12566	-0.932749	1.68322
H	-0.321346	1.70358	1.54525
H	0.982169	1.91445	-0.873765
H	0.843103	-0.614262	-1.97034
C	5.12264	-0.766931	0.874902
C	4.16312	-0.206198	0.0587934
N	4.7212	0.636605	-0.843831
C	6.02201	0.598867	-0.588657
N	6.31471	-0.23301	0.43891
H	5.04415	-1.4842	1.70731
H	3.07813	-0.394663	0.105099
H	6.80455	1.16059	-1.12375
H	7.26809	-0.433132	0.829135
