18
  This energy is -1.1749 and Call times are: 106918
C	-0.122403	0.718446	-0.869053
C	-1.0519	0.606865	0.122891
C	-0.549159	-0.384263	1.02013
C	0.643181	-0.790852	0.497263
O	0.919521	-0.127845	-0.656456
H	-0.0861457	1.35431	-1.76884
H	-1.99679	1.16637	0.213662
H	-1.02674	-0.746001	1.94487
H	1.37896	-1.53405	0.845888
C	3.94382	0.736865	0.641523
C	4.97255	-0.0622299	1.09353
N	5.51059	-0.785183	0.0814286
C	4.81829	-0.435916	-0.994374
N	3.86205	0.479295	-0.708721
H	3.28609	1.4469	1.16761
H	5.33618	-0.130073	2.13181
H	4.96996	-0.819623	-2.01614
H	3.18699	0.910513	-1.38666
