18
  This energy is -1.075 and Call times are: 68619
C	-0.114345	-0.764646	0.829845
C	-0.71277	0.460092	0.877589
C	-0.338123	1.12564	-0.329393
C	0.45617	0.248854	-1.00816
O	0.603549	-0.910716	-0.31484
H	-0.121617	-1.60999	1.53737
H	-1.35372	0.855205	1.68205
H	-0.630842	2.13937	-0.646809
H	0.970184	0.329554	-1.98003
C	4.64477	-0.639379	-0.817318
C	4.06297	0.110366	0.182951
N	5.00249	0.718877	0.94685
C	6.16272	0.348046	0.422477
N	6.00037	-0.471188	-0.643398
H	4.20474	-1.26	-1.61402
H	2.98213	0.223129	0.367128
H	7.16124	0.647214	0.779814
H	6.76204	-0.897091	-1.22626
