18
  This energy is -1.042 and Call times are: 8174
C	-0.190511	0.494668	1.0027
C	-1.18248	-0.105042	0.283876
C	-0.560067	-0.603398	-0.901179
C	0.757312	-0.264234	-0.80191
O	1.00078	0.406871	0.35453
H	-0.203397	1.01218	1.97598
H	-2.24584	-0.188139	0.560403
H	-1.04489	-1.14971	-1.72615
H	1.61046	-0.440135	-1.47752
C	5.67012	-0.634932	-0.729992
C	5.68089	0.735435	-0.577936
N	4.77751	1.13104	0.351538
C	4.20848	0.0103488	0.774493
N	4.71235	-1.08191	0.152662
H	6.25668	-1.30145	-1.3821
H	6.3243	1.44578	-1.12224
H	3.41763	-0.0675615	1.53786
H	4.42766	-2.07924	0.312473
