18
  This energy is -0.8312 and Call times are: 39663
C	1.02074	0.415214	-0.268477
C	0.851356	-0.550463	0.679759
C	-0.552984	-0.806041	0.731024
C	-1.1178	0.0260176	-0.19041
O	-0.171361	0.779067	-0.81024
H	1.92581	0.920073	-0.644282
H	1.63656	-1.03428	1.28264
H	-1.0731	-1.52741	1.38156
H	-2.16673	0.175266	-0.494885
C	6.65087	0.678957	0.141297
C	5.34005	1.09808	0.0561184
N	4.50039	0.0466742	-0.105202
C	5.2873	-1.02065	-0.120046
N	6.59285	-0.691929	0.025143
H	7.58955	1.2405	0.271991
H	4.98514	2.14027	0.108174
H	4.95972	-2.06652	-0.234399
H	7.40595	-1.35503	0.0453744
