18
  This energy is -0.9754 and Call times are: 104282
C	-0.165497	-0.42119	-1.04001
C	1.04873	0.0396337	-0.623278
C	0.85867	0.481496	0.72162
C	-0.454926	0.251682	1.00802
O	-1.09546	-0.299295	-0.0564793
H	-0.493146	-0.854238	-1.99936
H	1.98438	0.0657802	-1.20463
H	1.61766	0.91835	1.39034
H	-1.04703	0.433441	1.91995
C	5.41642	0.650433	-0.963497
C	4.75855	0.755684	0.24368
N	5.22441	-0.152761	1.13486
C	6.1677	-0.819053	0.483033
N	6.32133	-0.372205	-0.785949
H	5.30827	1.21215	-1.90494
H	3.9561	1.47084	0.487577
H	6.77678	-1.64347	0.887499
H	7.00041	-0.735544	-1.49876
