18
  This energy is -0.891 and Call times are: 78238
C	0.0395083	0.8755	-0.719958
C	-0.613111	-0.28496	-1.01626
C	-0.440046	-1.13212	0.120616
C	0.303053	-0.414565	1.01128
O	0.604849	0.813858	0.514385
H	0.173023	1.80653	-1.29494
H	-1.16138	-0.52075	-1.94249
H	-0.827455	-2.15534	0.251105
H	0.677372	-0.662277	2.01815
C	5.25692	0.343836	-0.913962
C	4.18965	1.01959	-0.361299
N	3.66346	0.332587	0.681616
C	4.40149	-0.765182	0.775592
N	5.37546	-0.805138	-0.164298
H	5.9184	0.591022	-1.75947
H	3.78986	1.99053	-0.696392
H	4.27206	-1.57256	1.51426
H	6.08559	-1.56634	-0.296715
