18
  This energy is -1.0827 and Call times are: 127436
C	0.139127	1.12324	0.0732743
C	-1.09364	0.541356	0.0277995
C	-0.859232	-0.864785	-0.0612843
C	0.496085	-1.01804	-0.0623828
O	1.12157	0.185751	0.0192312
H	0.446887	2.17948	0.143323
H	-2.0701	1.05118	0.0543253
H	-1.61781	-1.66196	-0.117561
H	1.13	-1.91832	-0.116285
C	4.57619	-0.71801	0.830628
C	5.73656	0.0242487	0.891836
N	5.9187	0.740836	-0.243875
C	4.87529	0.444256	-1.00675
N	4.03682	-0.431331	-0.403503
H	4.11159	-1.40696	1.55384
H	6.4456	0.0555641	1.73513
H	4.67609	0.83995	-2.01569
H	3.14565	-0.818117	-0.800317
