18
  This energy is -1.3857 and Call times are: 101949
C	0.706763	0.324077	-0.825749
C	1.11374	0.175627	0.467584
C	-0.0431719	-0.236912	1.19662
C	-1.05499	-0.304142	0.284432
O	-0.614846	0.0351967	-0.955784
H	1.25351	0.625856	-1.73418
H	2.12698	0.34013	0.868051
H	-0.105267	-0.455861	2.27472
H	-2.11796	-0.57637	0.390382
C	5.22345	1.08731	0.355487
C	6.37545	0.388738	0.648814
N	6.36266	-0.838281	0.0736866
C	5.20712	-0.900683	-0.57397
N	4.48414	0.235768	-0.434767
H	4.88859	2.09648	0.64357
H	7.2156	0.748104	1.26513
H	4.84056	-1.75483	-1.16584
H	3.54026	0.43101	-0.849765
