18
  This energy is -1.0101 and Call times are: 14683
C	-0.169801	-0.479199	1.01387
C	0.617552	0.622323	0.849254
C	0.583927	0.92185	-0.546909
C	-0.221005	-0.0230758	-1.11222
O	-0.690033	-0.886849	-0.173643
H	-0.436086	-1.05988	1.91229
H	1.16691	1.16908	1.63243
H	1.10203	1.74702	-1.06146
H	-0.534075	-0.186996	-2.15642
C	5.36786	0.297954	1.1066
C	4.16047	-0.185755	0.64904
N	4.2034	-0.424535	-0.684247
C	5.43275	-0.0902304	-1.05242
N	6.1738	0.351359	-0.00865846
H	5.69954	0.597945	2.11335
H	3.25913	-0.366732	1.25706
H	5.84267	-0.149158	-2.07356
H	7.17209	0.673113	-0.0425255
