18
  This energy is -0.9894 and Call times are: 59228
C	-0.815399	-0.747529	0.250451
C	-0.772048	-0.0859265	-0.941513
C	0.382148	0.753301	-0.88113
C	0.942222	0.530452	0.342402
O	0.223928	-0.383286	1.04678
H	-1.52437	-1.49228	0.647883
H	-1.48166	-0.179489	-1.77924
H	0.745351	1.43979	-1.66273
H	1.8392	0.953398	0.823851
C	5.79628	0.13636	-0.938982
C	5.59665	1.04171	0.0816235
N	4.7283	0.556734	1.0021
C	4.39052	-0.644909	0.55424
N	5.00795	-0.944605	-0.613043
H	6.42265	0.183256	-1.84397
H	6.06362	2.03616	0.170298
H	3.69512	-1.347	1.0418
H	4.90563	-1.83145	-1.16467
