18
  This energy is -0.6115 and Call times are: 92124
C	-0.759512	-0.0646876	0.839856
C	0.584411	-0.0361109	1.071
C	1.20064	0.0466054	-0.214896
C	0.178887	0.0612739	-1.11832
O	-1.02519	-0.00602691	-0.491679
H	-1.6186	-0.124764	1.52805
H	1.09099	-0.0698919	2.04893
H	2.28	0.0897083	-0.432207
H	0.177221	0.116289	-2.21933
C	7.12639	-0.22678	-0.529329
C	5.96072	-0.955219	-0.637682
N	4.97125	-0.407825	0.109188
C	5.52098	0.656156	0.678713
N	6.81922	0.808429	0.325174
H	8.11963	-0.36713	-0.984638
H	5.81593	-1.86595	-1.24139
H	5.01803	1.35808	1.36323
H	7.46814	1.56999	0.641696
