18
  This energy is -0.9916 and Call times are: 1469
C	-0.440896	0.656382	-0.813126
C	0.0604736	-0.586	-1.06903
C	0.516326	-1.09006	0.187245
C	0.25328	-0.111208	1.09995
O	-0.331267	0.962595	0.506429
H	-0.897099	1.41116	-1.47452
H	0.104848	-1.09629	-2.0446
H	0.984412	-2.06887	0.379381
H	0.431349	-0.0577838	2.18654
C	6.19804	-0.157525	-0.393178
C	5.80853	0.0488962	0.913275
N	4.46405	0.191579	1.00558
C	4.02116	0.0741208	-0.23888
N	5.02811	-0.137382	-1.11917
H	7.19182	-0.31217	-0.842651
H	6.47354	0.0974302	1.79092
H	2.96927	0.134821	-0.561473
H	4.9353	-0.262234	-2.15698
