18
  This energy is -1.1847 and Call times are: 66347
C	0.411184	-1.05239	-0.0990071
C	0.564654	-0.312024	1.03619
C	-0.0790942	0.936714	0.778588
C	-0.569122	0.849197	-0.491288
O	-0.278867	-0.358772	-1.04226
H	0.741972	-2.07175	-0.357336
H	1.07953	-0.614866	1.96209
H	-0.162574	1.79456	1.46504
H	-1.13405	1.56733	-1.10805
C	5.39774	0.922747	-0.216319
C	5.2355	0.272497	0.98867
N	4.35273	-0.749674	0.877333
C	3.96878	-0.733612	-0.391899
N	4.57066	0.256406	-1.09275
H	6.02238	1.78379	-0.50262
H	5.7396	0.522585	1.9364
H	3.24927	-1.42409	-0.860713
H	4.43343	0.474786	-2.10997
