18
  This energy is -1.2827 and Call times are: 11266
C	0.478057	-0.931036	-0.437075
C	0.976956	-0.302939	0.666088
C	0.115703	0.81127	0.904623
C	-0.833466	0.765691	-0.0738318
O	-0.627536	-0.291944	-0.90209
H	0.81379	-1.82875	-0.981723
H	1.86261	-0.59495	1.25298
H	0.200828	1.55491	1.71323
H	-1.69608	1.41829	-0.286583
C	4.84436	-0.521673	-1.05403
C	3.99236	0.491023	-0.667151
N	4.21688	0.85381	0.619117
C	5.20442	0.0691601	1.02864
N	5.61755	-0.777835	0.0562651
H	4.95161	-1.06022	-2.00902
H	3.21966	0.966405	-1.29309
H	5.66301	0.0729912	2.0306
H	6.38132	-1.49334	0.133443
