18
  This energy is -0.5937 and Call times are: 138105
C	0.419927	0.721297	-0.76798
C	0.379313	1.01411	0.563556
C	-0.208656	-0.123459	1.19629
C	-0.475437	-1.011	0.195554
O	-0.0980118	-0.511518	-1.01071
H	0.787831	1.29797	-1.63247
H	0.72838	1.93844	1.05126
H	-0.406102	-0.256488	2.27212
H	-0.925632	-2.01714	0.211447
C	6.567	-0.598682	-0.302631
C	5.74558	-0.84457	0.777166
N	4.72107	0.0412816	0.823466
C	4.9062	0.833715	-0.223626
N	6.00604	0.488784	-0.934237
H	7.48056	-1.10375	-0.654546
H	5.87383	-1.6453	1.52365
H	4.26649	1.68182	-0.516396
H	6.36336	0.959976	-1.80116
