18
  This energy is -2.0982 and Call times are: 69036
C	0.293582	-0.848	0.693618
C	0.516399	-0.893935	-0.65123
C	0.0169049	0.338448	-1.17263
C	-0.467051	1.02868	-0.100371
O	-0.306287	0.319027	1.04748
H	0.512501	-1.57144	1.49609
H	0.985444	-1.71344	-1.21912
H	0.0216741	0.664431	-2.22515
H	-0.943128	2.01998	-0.0233734
C	3.74526	-0.189599	1.06881
C	4.57289	0.847459	0.693723
N	4.90751	0.756239	-0.616322
C	4.28983	-0.333265	-1.05229
N	3.57606	-0.939043	-0.0739456
H	3.28024	-0.439003	2.03581
H	4.93456	1.65987	1.3449
H	4.3262	-0.732732	-2.07861
H	3.00296	-1.81309	-0.168008
