18
  This energy is -0.8014 and Call times are: 107649
C	-0.860443	-0.597692	-0.434515
C	0.441061	-0.855229	-0.750957
C	1.21698	0.0926454	-0.0163793
C	0.321131	0.845739	0.684106
O	-0.952245	0.437967	0.440696
H	-1.8	-1.07327	-0.760556
H	0.817002	-1.63451	-1.43322
H	2.31413	0.194407	-0.0158594
H	0.461182	1.68903	1.38016
C	7.80492	0.267946	0.903544
C	7.33228	-0.982373	0.565216
N	6.54337	-0.925242	-0.535179
C	6.52665	0.355648	-0.878201
N	7.27222	1.11587	-0.0416751
H	8.46076	0.603139	1.72273
H	7.54639	-1.92467	1.0954
H	5.98473	0.791193	-1.7331
H	7.41691	2.15353	-0.101701
