18
  This energy is -0.7902 and Call times are: 134271
C	-0.508657	-0.286252	-0.972486
C	0.0347548	0.947975	-0.76813
C	0.572991	0.924062	0.554688
C	0.310975	-0.322667	1.04191
O	-0.34904	-1.07515	0.122584
H	-1.02964	-0.720965	-1.84131
H	0.0545876	1.7907	-1.47772
H	1.09311	1.74456	1.07465
H	0.538898	-0.790653	2.01366
C	5.65491	-0.561557	-1.0333
C	6.7634	0.0200525	-0.455264
N	6.45433	0.580134	0.73943
C	5.15903	0.346871	0.90193
N	4.63113	-0.338411	-0.139847
H	5.52645	-1.10047	-1.98546
H	7.78064	0.0455838	-0.878848
H	4.54761	0.655691	1.76508
H	3.63225	-0.641916	-0.246612
