18
  This energy is -1.2831 and Call times are: 121892
C	0.665359	-0.787586	0.472659
C	-0.672823	-0.714107	0.726119
C	-1.15604	0.389595	-0.0409956
C	-0.0704841	0.89314	-0.695509
O	1.05035	0.186374	-0.39348
H	1.44247	-1.47719	0.841158
H	-1.26068	-1.3712	1.38698
H	-2.19304	0.758379	-0.0931581
H	0.0342833	1.73923	-1.39437
C	4.92647	-1.1277	0.0824569
C	5.29174	-0.230073	-0.898352
N	4.73159	0.984808	-0.682027
C	4.02151	0.841405	0.428761
N	4.10665	-0.414359	0.92816
H	5.18335	-2.18825	0.233429
H	5.94943	-0.437279	-1.75821
H	3.42049	1.62356	0.919937
H	3.63752	-0.775728	1.79453
