18
  This energy is -1.4463 and Call times are: 16247
C	0.18483	-1.04025	-0.412451
C	0.0117998	-0.802701	0.919467
C	-0.192377	0.605622	1.04216
C	-0.126093	1.10436	-0.22561
O	0.103709	0.113186	-1.1266
H	0.370414	-1.97251	-0.970759
H	0.0264739	-1.54476	1.73385
H	-0.367484	1.17259	1.97059
H	-0.224602	2.13164	-0.613202
C	3.82649	-0.793979	-0.652514
C	3.58273	-0.475476	0.666683
N	4.43407	0.484414	1.10295
C	5.20306	0.760351	0.0583777
N	4.87629	0.0158208	-1.02444
H	3.34331	-1.51553	-1.33034
H	2.80781	-0.921093	1.3115
H	6.02043	1.49888	0.0317084
H	5.33521	0.0491092	-1.96759
