18
  This energy is -1.1789 and Call times are: 37406
C	-0.315672	1.02515	-0.368531
C	0.0670945	0.0293765	-1.21841
C	0.385099	-1.09039	-0.390692
C	0.168587	-0.680036	0.891925
O	-0.259704	0.60936	0.924139
H	-0.645932	2.05998	-0.55642
H	0.12018	0.0784539	-2.3179
H	0.733767	-2.08212	-0.72082
H	0.280799	-1.20325	1.85572
C	4.10226	0.47602	0.593762
C	4.02059	-0.36015	-0.499533
N	5.25324	-0.720498	-0.932241
C	6.0964	-0.1102	-0.11051
N	5.45132	0.623524	0.827102
H	3.32186	0.960381	1.20196
H	3.09433	-0.709884	-0.983867
H	7.19617	-0.166367	-0.150428
H	5.89444	1.19574	1.58702
