18
  This energy is -1.0801 and Call times are: 24477
C	0.352891	0.0709267	1.07556
C	-0.618614	-0.801629	0.681612
C	-0.782757	-0.596205	-0.722302
C	0.102934	0.383748	-1.06233
O	0.804835	0.802803	0.0233688
H	0.804956	0.265031	2.06208
H	-1.16486	-1.51805	1.316
H	-1.48157	-1.12169	-1.39284
H	0.326612	0.863681	-2.02922
C	5.55637	0.461433	-0.507473
C	4.56136	-0.266223	-1.12522
N	3.609	-0.643168	-0.237841
C	4.01166	-0.151229	0.92598
N	5.18075	0.523094	0.815891
H	6.47454	0.924299	-0.902755
H	4.51358	-0.525987	-2.19531
H	3.48841	-0.255342	1.89014
H	5.70176	1.0017	1.59097
