18
  This energy is -1.0723 and Call times are: 50046
C	-0.842227	0.759633	-0.00345095
C	-0.361906	0.196391	-1.14906
C	0.676951	-0.694818	-0.740846
C	0.739752	-0.597509	0.618183
O	-0.180937	0.286256	1.08541
H	-1.64092	1.49982	0.168211
H	-0.704759	0.389163	-2.17833
H	1.29971	-1.33042	-1.39068
H	1.38653	-1.09735	1.35784
C	6.01631	-0.507908	-0.678793
C	6.10891	-0.246788	0.671905
N	4.98196	0.348123	1.13296
C	4.19322	0.45566	0.0723152
N	4.77162	-0.0461678	-1.04448
H	6.72445	-0.974084	-1.38218
H	6.96869	-0.476994	1.32201
H	3.18223	0.893717	0.0575309
H	4.35186	-0.0775311	-2.00577
