18
  This energy is -0.8816 and Call times are: 83506
C	0.472622	0.535977	0.880771
C	-0.858869	0.24417	0.832234
C	-1.06801	-0.421817	-0.413895
C	0.154136	-0.478193	-1.01684
O	1.10665	0.102026	-0.24026
H	1.08269	1.04214	1.64684
H	-1.61764	0.47477	1.59721
H	-2.02118	-0.810247	-0.807192
H	0.473208	-0.89869	-1.98464
C	5.19796	-1.05115	-0.179494
C	4.50362	-0.296233	-1.10098
N	4.06652	0.863447	-0.55271
C	4.4881	0.828099	0.704131
N	5.17531	-0.306	0.978275
H	5.69016	-2.03314	-0.262903
H	4.31021	-0.567562	-2.15161
H	4.32127	1.60616	1.46638
H	5.60835	-0.567784	1.89762
