18
  This energy is -0.7095 and Call times are: 109064
C	-0.0260917	-0.320201	-1.08775
C	1.14227	-0.113109	-0.415118
C	0.768414	0.273229	0.908171
C	-0.595396	0.268118	0.92737
O	-1.09734	-0.0919602	-0.28317
H	-0.226668	-0.627581	-2.12724
H	2.16479	-0.221528	-0.811086
H	1.44344	0.523909	1.74219
H	-1.31615	0.498289	1.72911
C	6.8995	0.395871	0.478935
C	5.9021	1.15272	-0.0985675
N	4.89262	0.368811	-0.54908
C	5.26237	-0.869643	-0.252193
N	6.46526	-0.906218	0.368545
H	7.85567	0.682163	0.945097
H	5.89278	2.25037	-0.198232
H	4.69007	-1.78652	-0.466762
H	6.97078	-1.76319	0.702163
