18
  This energy is -1.0123 and Call times are: 58683
C	0.0614349	1.12152	0.157553
C	-1.06341	0.404485	0.442075
C	-0.755567	-0.95161	0.115956
C	0.530226	-0.943555	-0.339064
O	1.04468	0.314224	-0.320488
H	0.285823	2.19687	0.249893
H	-2.01453	0.791679	0.84153
H	-1.42054	-1.8249	0.212285
H	1.18295	-1.75508	-0.700487
C	4.47429	-0.562048	-0.460715
C	4.66896	-0.236572	0.864923
N	5.84702	0.409575	1.04151
C	6.38115	0.484664	-0.169967
N	5.59178	-0.0869202	-1.11006
H	3.64721	-1.08085	-0.97093
H	3.98048	-0.456397	1.6971
H	7.34808	0.947534	-0.425002
H	5.79275	-0.155145	-2.13779
