18
  This energy is -1.0345 and Call times are: 96911
C	0.14702	0.754462	-0.834011
C	-1.07096	0.521751	-0.265907
C	-0.853078	-0.478392	0.730265
C	0.478814	-0.768565	0.682968
O	1.10501	-0.0249016	-0.26669
H	0.459326	1.43981	-1.63901
H	-2.02693	1.00582	-0.522595
H	-1.60653	-0.923945	1.39951
H	1.09428	-1.47482	1.26405
C	4.3777	-0.567715	-0.460596
C	4.8442	0.679652	-0.817801
N	5.92704	1.02601	-0.0802427
C	6.13153	-0.00257247	0.731437
N	5.22368	-0.989029	0.540898
H	3.53179	-1.16545	-0.835689
H	4.41884	1.33591	-1.5945
H	6.93159	-0.0854615	1.48461
H	5.17376	-1.90104	1.05763
