18
  This energy is -0.495 and Call times are: 115829
C	-0.70747	0.131167	0.876745
C	-0.94663	-0.759893	-0.127839
C	0.15222	-0.634353	-1.03166
C	0.965868	0.32234	-0.499595
O	0.456245	0.800743	0.66592
H	-1.28041	0.379983	1.78509
H	-1.81022	-1.4376	-0.222871
H	0.310008	-1.19537	-1.96678
H	1.92187	0.745832	-0.848826
C	5.96378	1.07292	0.208888
C	5.34314	0.0447951	-0.468542
N	6.13582	-1.05302	-0.523138
C	7.24398	-0.707263	0.117985
N	7.18926	0.565041	0.578243
H	5.63118	2.09593	0.446348
H	4.33761	0.0754746	-0.918887
H	8.12647	-1.3471	0.279388
H	7.93777	1.06865	1.11432
