18
  This energy is -0.9626 and Call times are: 28200
C	0.917973	-0.419012	-0.517837
C	0.836987	-0.294978	0.83805
C	-0.451075	0.262314	1.10345
C	-1.0435	0.429636	-0.113678
O	-0.221637	0.0187591	-1.11504
H	1.72104	-0.798845	-1.17058
H	1.60704	-0.568486	1.57717
H	-0.878263	0.506804	2.08927
H	-2.03265	0.82522	-0.397134
C	6.43965	-0.395008	-0.588324
C	6.23102	-0.453892	0.773349
N	5.0389	0.0961276	1.10927
C	4.50998	0.494713	-0.039644
N	5.31615	0.2211	-1.09265
H	7.28007	-0.736542	-1.21329
H	6.91932	-0.883391	1.51942
H	3.5351	0.992362	-0.166901
H	5.12227	0.437135	-2.10112
