18
  This energy is -0.6124 and Call times are: 8716
C	1.11847	-0.188181	-0.0034126
C	0.222947	-1.09978	-0.480274
C	-1.06595	-0.508997	-0.30752
C	-0.844268	0.71147	0.259659
O	0.484151	0.923953	0.452445
H	2.2184	-0.211313	0.0663395
H	0.447474	-2.08901	-0.91052
H	-2.03944	-0.949095	-0.577191
H	-1.5377	1.51036	0.569783
C	6.70063	0.634711	-0.413641
C	6.02454	0.832182	0.771709
N	5.04068	-0.0859028	0.931869
C	5.10616	-0.850023	-0.150008
N	6.0909	-0.45618	-0.991892
H	7.54436	1.17525	-0.871335
H	6.22903	1.62066	1.51423
H	4.45706	-1.71129	-0.376084
H	6.34207	-0.897711	-1.91017
