18
  This energy is -1.0495 and Call times are: 42817
C	0.401279	-0.787325	0.710982
C	0.72444	0.532852	0.825314
C	0.0351647	1.19733	-0.234632
C	-0.648356	0.224548	-0.903113
O	-0.436256	-0.993678	-0.33924
H	0.697667	-1.66675	1.30597
H	1.38222	0.992632	1.58032
H	0.0522643	2.27474	-0.464842
H	-1.31103	0.269677	-1.78293
C	5.70642	0.0815092	-0.937776
C	5.7035	0.902613	0.16989
N	4.75595	0.519379	1.05972
C	4.17325	-0.535461	0.506185
N	4.71077	-0.839274	-0.698955
H	6.32589	0.0870813	-1.84869
H	6.36812	1.76469	0.342944
H	3.34812	-1.12287	0.94017
H	4.42375	-1.6263	-1.33098
