18
  This energy is -0.9801 and Call times are: 22982
C	-0.804884	0.799003	-0.0125128
C	0.490533	1.06184	-0.348943
C	1.18891	-0.176622	-0.21257
C	0.258611	-1.08694	0.195157
O	-0.964537	-0.508398	0.322488
H	-1.69566	1.44718	0.0279935
H	0.912018	2.03065	-0.661761
H	2.25953	-0.358955	-0.39863
H	0.339557	-2.16196	0.425413
C	5.16154	-0.839195	-0.824236
C	4.85217	-0.977256	0.512316
N	5.00696	0.195584	1.17337
C	5.41083	1.05796	0.250433
N	5.51942	0.482445	-0.970459
H	5.15266	-1.56375	-1.65399
H	4.52004	-1.90212	1.01148
H	5.64122	2.12299	0.41437
H	5.81913	0.953307	-1.85912
