18
  This energy is -1.6444 and Call times are: 85266
C	-0.484125	0.825821	0.608311
C	-0.876523	0.529811	-0.664
C	-0.0440553	-0.550395	-1.08858
C	0.783563	-0.819126	-0.0382471
O	0.528706	0.0118215	1.00654
H	-0.841322	1.58228	1.32624
H	-1.67235	1.02269	-1.24522
H	-0.0661142	-1.06156	-2.06445
H	1.58466	-1.56566	0.0889198
C	3.60082	0.657697	-0.560217
C	3.94192	0.727818	0.773904
N	4.90126	-0.178667	1.08127
C	5.15434	-0.80875	-0.0578402
N	4.3958	-0.340743	-1.07724
H	2.87291	1.2286	-1.15834
H	3.513	1.41625	1.52019
H	5.88541	-1.62062	-0.201488
H	4.41048	-0.674819	-2.07195
