18
  This energy is -1.0951 and Call times are: 130266
C	-0.549856	0.977419	-0.169445
C	-1.08688	-0.230514	-0.505419
C	-0.10923	-1.20714	-0.144133
C	0.938914	-0.509793	0.380725
O	0.686948	0.825672	0.373051
H	-0.941624	2.00348	-0.264184
H	-2.07258	-0.415275	-0.961876
H	-0.186214	-2.29966	-0.264777
H	1.90745	-0.842612	0.78868
C	4.49863	0.606881	-0.118535
C	5.71862	1.09643	0.297552
N	6.65638	0.11832	0.31797
C	6.02058	-0.973862	-0.0839205
N	4.71715	-0.731222	-0.359203
H	3.52296	1.09959	-0.255824
H	5.93898	2.13786	0.583387
H	6.4617	-1.97756	-0.194489
H	4.00811	-1.4294	-0.692474
