18
  This energy is -0.8923 and Call times are: 62063
C	-0.113236	-0.540529	-0.99066
C	1.0465	0.0764427	-0.623603
C	0.800667	0.634497	0.668008
C	-0.487594	0.309281	0.976216
O	-1.06086	-0.408307	-0.0255025
H	-0.387563	-1.10018	-1.89994
H	1.98131	0.132908	-1.20415
H	1.50698	1.20967	1.288
H	-1.10397	0.526111	1.86408
C	5.9395	-0.422303	1.04475
C	4.74647	-0.670948	0.399756
N	4.68842	-0.0210045	-0.787979
C	5.84105	0.628378	-0.87948
N	6.63008	0.418558	0.2008
H	6.33282	-0.77254	2.01231
H	3.92656	-1.30767	0.770138
H	6.15851	1.27168	-1.71591
H	7.5858	0.819947	0.36432
