18
  This energy is -0.5834 and Call times are: 63610
C	-0.714914	0.562837	-0.677136
C	-1.14806	-0.228296	0.346031
C	0.0297541	-0.757039	0.957024
C	1.07866	-0.242337	0.25329
O	0.642263	0.565898	-0.74837
H	-1.26469	1.16825	-1.41637
H	-2.19222	-0.420278	0.640925
H	0.0803569	-1.44048	1.81983
H	2.16769	-0.372618	0.364191
C	5.08942	0.533528	0.520846
C	5.66406	-0.665965	0.884372
N	6.69511	-0.982384	0.0638066
C	6.75986	0.0170114	-0.80547
N	5.81274	0.956196	-0.572012
H	4.24511	1.09745	0.948248
H	5.35317	-1.30874	1.72403
H	7.4814	0.111232	-1.63296
H	5.65877	1.83828	-1.11925
