18
  This energy is -2.0547 and Call times are: 59260
C	-0.150976	0.747255	0.839772
C	-0.518941	1.01034	-0.446992
C	-0.172882	-0.153992	-1.19845
C	0.376006	-1.0258	-0.304558
O	0.397328	-0.491818	0.94501
H	-0.22493	1.35082	1.75928
H	-0.987097	1.93187	-0.828703
H	-0.319378	-0.314697	-2.27864
H	0.783558	-2.04229	-0.430631
C	3.99988	1.01599	0.594021
C	4.82555	-0.0674112	0.807715
N	4.5504	-1.07035	-0.0611441
C	3.5578	-0.610893	-0.811002
N	3.19	0.642808	-0.455271
H	3.93354	1.99351	1.09759
H	5.61487	-0.143369	1.57325
H	3.06321	-1.15097	-1.63436
H	2.43226	1.22049	-0.895004
