18
  This energy is -1.3865 and Call times are: 119000
C	-0.240121	0.946292	0.577299
C	-0.226162	-0.284339	1.16529
C	0.113309	-1.20833	0.130338
C	0.276829	-0.46077	-0.998728
O	0.0648144	0.857269	-0.744102
H	-0.449082	1.949	0.984938
H	-0.434064	-0.518001	2.22182
H	0.220943	-2.30084	0.2249
H	0.540208	-0.743708	-2.03112
C	5.25719	0.620165	-0.515481
C	3.92474	0.963883	-0.428411
N	3.21807	0.0165651	0.234703
C	4.10873	-0.911314	0.557783
N	5.35281	-0.593645	0.127722
H	6.11549	1.13622	-0.974332
H	3.46062	1.87844	-0.832184
H	3.90377	-1.84319	1.109
H	6.22419	-1.16344	0.259207
