18
  This energy is -1.1064 and Call times are: 85743
C	0.552223	0.459629	-0.877606
C	-0.111467	1.21471	0.0442129
C	-0.669848	0.289705	0.978399
C	-0.298084	-0.948969	0.54498
O	0.448724	-0.864012	-0.587306
H	1.12906	0.740438	-1.77407
H	-0.199043	2.3129	0.0643242
H	-1.27643	0.528114	1.86683
H	-0.498174	-1.95521	0.948341
C	4.80817	-0.0220585	1.10363
C	4.6111	-1.10439	0.272453
N	4.12875	-0.713881	-0.932265
C	4.02697	0.605701	-0.84878
N	4.42457	1.07098	0.359118
H	5.18179	0.0454423	2.13775
H	4.80831	-2.16007	0.520452
H	3.66728	1.28005	-1.64257
H	4.43805	2.07339	0.669371
