18
  This energy is -1.1938 and Call times are: 137424
C	-0.821492	-0.030943	0.781405
C	-0.167911	1.12056	0.453917
C	0.780218	0.759598	-0.551506
C	0.622327	-0.580617	-0.749662
O	-0.35166	-1.07981	0.0560467
H	-1.62873	-0.233129	1.50441
H	-0.336547	2.12353	0.877834
H	1.49286	1.42706	-1.06212
H	1.13431	-1.28505	-1.42561
C	5.7536	0.51909	-0.622099
C	4.56323	1.08523	-0.217573
N	3.814	0.199463	0.482847
C	4.53683	-0.911957	0.512728
N	5.7149	-0.770068	-0.139644
H	6.59736	0.928696	-1.19988
H	4.23157	2.11696	-0.418553
H	4.25093	-1.85879	0.998523
H	6.45736	-1.50255	-0.255794
