18
  This energy is -0.993 and Call times are: 79167
C	0.0172286	-1.05701	-0.410883
C	0.162414	-0.787565	0.918287
C	0.0865979	0.633571	1.0397
C	-0.0982246	1.1071	-0.225993
O	-0.143012	0.0884423	-1.12451
H	0.00993691	-2.00857	-0.967423
H	0.308267	-1.51644	1.73165
H	0.161981	1.22563	1.96592
H	-0.211006	2.13292	-0.613598
C	3.95722	0.149173	0.238536
C	4.74279	-0.927278	0.592484
N	6.01528	-0.768643	0.154176
C	6.01912	0.401771	-0.469315
N	4.80181	0.994407	-0.445884
H	2.89245	0.366301	0.419236
H	4.4142	-1.81555	1.15627
H	6.88606	0.872162	-0.960611
H	4.54948	1.92119	-0.868558
