18
  This energy is -2.3885 and Call times are: 63159
C	0.12878	0.0733268	1.12447
C	0.609768	1.02213	0.270778
C	0.255758	0.582976	-1.04145
C	-0.41031	-0.595421	-0.873796
O	-0.497088	-0.921844	0.442611
H	0.166386	-0.00814511	2.2232
H	1.15878	1.93926	0.538278
H	0.475723	1.09191	-1.99365
H	-0.865273	-1.28793	-1.6009
C	3.54355	-0.937368	-0.545976
C	4.46532	-0.0489839	-1.05809
N	4.77085	0.913416	-0.154239
C	4.04139	0.623182	0.91454
N	3.2844	-0.48399	0.728182
H	3.06948	-1.83033	-0.983484
H	4.91539	-0.0852037	-2.06357
H	4.02336	1.18808	1.86048
H	2.6256	-0.914931	1.4221
