18
  This energy is -1.109 and Call times are: 137688
C	-0.51708	-0.834596	0.567873
C	0.202411	-1.06097	-0.568551
C	0.690747	0.215702	-0.98297
C	0.226562	1.10954	-0.0632081
O	-0.512958	0.485457	0.891069
H	-1.07216	-1.51898	1.23026
H	0.372222	-2.0298	-1.06518
H	1.31446	0.433539	-1.8648
H	0.350956	2.20152	0.0225535
C	4.43258	0.933024	0.544134
C	4.83652	-0.248935	1.12804
N	5.32944	-1.10761	0.202725
C	5.23167	-0.460812	-0.950841
N	4.69697	0.773807	-0.797856
H	3.99044	1.84573	0.974267
H	4.78113	-0.49751	2.20042
H	5.53675	-0.844719	-1.93764
H	4.51792	1.47597	-1.55691
