18
  This energy is -1.853 and Call times are: 83730
C	-0.125504	-0.790526	-0.803566
C	-0.225173	-1.07821	0.525974
C	-0.0100887	0.156841	1.21045
C	0.202028	1.09022	0.238758
O	0.135115	0.52916	-0.997262
H	-0.218416	-1.42761	-1.69841
H	-0.429641	-2.06149	0.979233
H	-0.0146377	0.321529	2.29992
H	0.408384	2.17159	0.296295
C	3.3956	-0.46072	0.958335
C	3.28494	-0.920119	-0.336984
N	3.99911	-0.148318	-1.19185
C	4.55072	0.786331	-0.42976
N	4.21713	0.64121	0.874558
H	2.96232	-0.827724	1.90232
H	2.70258	-1.79464	-0.670031
H	5.20745	1.60088	-0.77537
H	4.52555	1.25178	1.67038
