18
  This energy is -1.272 and Call times are: 114857
C	-0.49262	0.327679	0.967654
C	-0.220324	1.19971	-0.0451587
C	0.390348	0.422786	-1.07646
C	0.437316	-0.855429	-0.602823
O	-0.0976486	-0.931832	0.644168
H	-0.958458	0.477001	1.95556
H	-0.428601	2.28154	-0.0641175
H	0.749686	0.78247	-2.05401
H	0.821167	-1.78712	-1.04988
C	4.42299	0.159637	-1.15952
C	3.82746	-0.913113	-0.530478
N	3.86089	-0.769762	0.816683
C	4.47483	0.387518	1.0226
N	4.83341	0.986449	-0.137696
H	4.57858	0.38564	-2.22641
H	3.37426	-1.78796	-1.02455
H	4.68771	0.843444	2.00293
H	5.32955	1.90555	-0.239509
