18
  This energy is -1.1607 and Call times are: 64772
C	-0.168108	1.02547	0.454481
C	-0.588138	0.706184	-0.803297
C	-0.199179	-0.652167	-1.01237
C	0.4242	-1.04304	0.136102
O	0.452171	-0.0310233	1.04277
H	-0.248884	1.95745	1.03769
H	-1.11865	1.36147	-1.5127
H	-0.368159	-1.25946	-1.91611
H	0.884621	-2.00107	0.428409
C	4.48093	1.06804	0.262211
C	3.82918	0.0709683	-0.432201
N	4.6092	-1.03065	-0.552732
C	5.74054	-0.718178	0.0645588
N	5.7127	0.536593	0.572855
H	4.16587	2.08428	0.547775
H	2.81011	0.126728	-0.848403
H	6.62159	-1.37091	0.173721
H	6.48273	1.0137	1.10265
