18
  This energy is -0.719 and Call times are: 63095
C	0.867469	-0.427214	0.59278
C	0.916967	0.805564	0.0112437
C	-0.344592	0.98433	-0.634223
C	-1.05365	-0.154986	-0.390143
O	-0.328726	-1.02797	0.35779
H	1.60714	-0.983126	1.19203
H	1.75754	1.5176	0.0344774
H	-0.676632	1.86253	-1.21095
H	-2.06931	-0.462163	-0.688993
C	4.84503	0.314967	-0.415853
C	5.84554	1.15539	0.0243897
N	6.92846	0.452244	0.435969
C	6.601	-0.819551	0.251759
N	5.35463	-0.954757	-0.259965
H	3.83999	0.523635	-0.815705
H	5.80543	2.2565	0.0524179
H	7.23637	-1.6918	0.474735
H	4.869	-1.85526	-0.493477
