18
  This energy is -1.3405 and Call times are: 21417
C	-0.256526	-0.165411	-1.09235
C	-0.0338207	-1.1983	-0.229843
C	0.255699	-0.597476	1.03321
C	0.184356	0.749524	0.83104
O	-0.127429	1.03135	-0.461391
H	-0.51144	-0.150441	-2.16475
H	-0.069809	-2.27526	-0.459966
H	0.488817	-1.11598	1.97709
H	0.33228	1.60048	1.51606
C	5.48051	-0.492903	0.425139
C	4.18567	-0.748978	0.823838
N	3.30087	-0.00176116	0.120052
C	4.04398	0.715141	-0.712091
N	5.36492	0.45504	-0.566946
H	6.4439	-0.904431	0.765823
H	3.87403	-1.4595	1.60671
H	3.67213	1.44553	-1.44863
H	6.15121	0.892201	-1.10722
