18
  This energy is -1.1081 and Call times are: 125181
C	1.07265	-0.351569	-0.110514
C	0.728832	0.967792	-0.148562
C	-0.688555	1.00759	0.023332
C	-1.08575	-0.290965	0.151248
O	-0.0231317	-1.1345	0.0719222
H	2.04902	-0.855521	-0.199908
H	1.40545	1.82681	-0.28408
H	-1.32939	1.9036	0.0475876
H	-2.08154	-0.739545	0.301027
C	5.84711	-0.943887	0.274619
C	5.77618	-0.317525	-0.951669
N	4.93094	0.740997	-0.911511
C	4.47923	0.771197	0.33495
N	5.00202	-0.224229	1.08954
H	6.42006	-1.82154	0.613734
H	6.31975	-0.610426	-1.86468
H	3.76427	1.50073	0.748286
H	4.80174	-0.412015	2.1024
