18
  This energy is -1.1606 and Call times are: 78110
C	0.574248	-0.678321	0.704642
C	1.05663	0.5319	0.300849
C	0.0632302	1.07875	-0.567619
C	-0.938505	0.154424	-0.617869
O	-0.643156	-0.925027	0.153211
H	0.995357	-1.44709	1.37315
H	2.01578	0.993248	0.58596
H	0.099024	2.04839	-1.08974
H	-1.89961	0.146538	-1.15775
C	7.29308	-1.17229	-0.0464338
C	8.32115	-0.256817	-0.124676
N	7.85337	1.01199	-0.0362392
C	6.54009	0.88413	0.0963625
N	6.15289	-0.413431	0.0959618
H	7.2922	-2.27336	-0.08086
H	9.39205	-0.489089	-0.243354
H	5.81512	1.70778	0.197597
H	5.17116	-0.772895	0.186815
