18
  This energy is -0.7976 and Call times are: 51240
C	0.953265	-0.565244	-0.241219
C	-0.075683	-0.455672	-1.12983
C	-1.08067	0.316439	-0.471072
C	-0.577137	0.610532	0.761947
O	0.664116	0.0799646	0.919432
H	1.93123	-1.06883	-0.313541
H	-0.122302	-0.876359	-2.14716
H	-2.06142	0.613422	-0.876081
H	-0.997509	1.18126	1.60623
C	4.66456	0.413799	-0.582086
C	4.99525	-0.909625	-0.381233
N	6.14101	-1.02396	0.333373
C	6.51969	0.223793	0.574923
N	5.66236	1.12729	0.0436307
H	3.81804	0.882709	-1.10845
H	4.42763	-1.78402	-0.739143
H	7.4165	0.532418	1.13592
H	5.74248	2.17222	0.098001
