18
  This energy is -1.1583 and Call times are: 39631
C	0.0499523	-0.748624	-0.850569
C	0.239713	-1.10849	0.451299
C	0.101273	0.0918726	1.21293
C	-0.160865	1.0793	0.309244
O	-0.195835	0.583865	-0.955798
H	0.0640528	-1.33861	-1.78168
H	0.455528	-2.11797	0.836629
H	0.18841	0.198128	2.30618
H	-0.339389	2.1595	0.437863
C	7.24192	-0.327866	0.754164
C	7.40651	0.0189351	-0.570141
N	6.22116	0.343529	-1.1412
C	5.32463	0.198649	-0.174831
N	5.8904	-0.204672	0.987417
H	7.96674	-0.643093	1.52151
H	8.35931	0.040752	-1.1238
H	4.24052	0.374624	-0.264085
H	5.39408	-0.388507	1.89358
