18
  This energy is -1.9731 and Call times are: 66952
C	0.736706	-0.86231	0.00934133
C	0.541731	-0.0800765	-1.09087
C	-0.44623	0.881306	-0.716984
C	-0.76777	0.601693	0.578702
O	-0.0548483	-0.460162	1.03829
H	1.40101	-1.72432	0.185102
H	1.04331	-0.170949	-2.06773
H	-0.862958	1.68403	-1.34632
H	-1.47812	1.07735	1.27469
C	3.96264	-0.310206	1.13467
C	4.43131	-1.07023	0.0840211
N	4.3252	-0.400288	-1.08919
C	3.79273	0.770899	-0.767597
N	3.55565	0.873914	0.561602
H	3.89229	-0.521152	2.2136
H	4.84411	-2.08998	0.151506
H	3.55564	1.58941	-1.46621
H	3.14083	1.69868	1.06055
