18
  This energy is -0.9006 and Call times are: 127533
C	0.531296	-0.585623	0.813124
C	1.1209	-0.295696	-0.382153
C	0.151359	0.442155	-1.1276
C	-0.945124	0.537984	-0.322046
O	-0.730682	-0.0841136	0.86708
H	0.899063	-1.13426	1.69573
H	2.13666	-0.57355	-0.706382
H	0.26594	0.850128	-2.14471
H	-1.92637	1.016	-0.47665
C	5.28903	0.655769	-0.670503
C	6.6217	0.888184	-0.403853
N	7.13197	-0.0698276	0.407533
C	6.1197	-0.893435	0.643348
N	4.98651	-0.49917	0.0156383
H	4.55887	1.21196	-1.27965
H	7.22417	1.72996	-0.78239
H	6.15339	-1.80029	1.26841
H	4.05496	-0.981408	0.04588
