18
  This energy is -1.9446 and Call times are: 15328
C	0.159413	1.07653	0.319478
C	0.796353	0.532047	-0.756727
C	0.343512	-0.820267	-0.836092
C	-0.530177	-0.982783	0.19862
O	-0.654647	0.16553	0.914787
H	0.199632	2.08683	0.758722
H	1.51317	1.0325	-1.42742
H	0.639415	-1.57678	-1.58055
H	-1.12004	-1.8541	0.527436
C	3.61374	0.544612	0.923062
C	3.52491	-0.795726	0.61202
N	4.20744	-1.08006	-0.52368
C	4.71775	0.0794693	-0.915705
N	4.38821	1.08979	-0.0765156
H	3.19462	1.12955	1.75716
H	2.98056	-1.5627	1.18673
H	5.34016	0.245109	-1.8098
H	4.66916	2.0966	-0.169588
