18
  This energy is -0.9086 and Call times are: 87457
C	0.870097	0.125848	-0.716585
C	-0.0950941	-0.82053	-0.898652
C	-1.00324	-0.667889	0.193174
C	-0.51284	0.358291	0.946056
O	0.630796	0.854828	0.40517
H	1.76671	0.378514	-1.30608
H	-0.160945	-1.55267	-1.71947
H	-1.91321	-1.25815	0.387204
H	-0.87983	0.823343	1.87573
C	6.42485	0.302649	-0.493139
C	5.98864	-0.97396	-0.208289
N	4.75801	-0.954659	0.358878
C	4.432	0.329042	0.425629
N	5.40419	1.12732	-0.0755555
H	7.35821	0.670372	-0.948273
H	6.53984	-1.9086	-0.401853
H	3.49376	0.739719	0.832181
H	5.38425	2.17487	-0.134755
