18
  This energy is -0.7481 and Call times are: 51579
C	1.03367	0.177749	-0.431663
C	0.320829	-0.956807	-0.686641
C	-0.910748	-0.812363	0.0222111
C	-0.841786	0.39771	0.647783
O	0.338801	1.01607	0.381595
H	2.03271	0.503807	-0.764618
H	0.631144	-1.80985	-1.31124
H	-1.74518	-1.53115	0.0564904
H	-1.55637	0.924749	1.30113
C	6.18013	-0.707196	-0.649913
C	4.94904	-1.01149	-0.108658
N	4.44631	0.039539	0.583517
C	5.36204	0.992243	0.472092
N	6.42658	0.590956	-0.262286
H	6.8751	-1.3027	-1.26305
H	4.41456	-1.97059	-0.205189
H	5.30359	2.00237	0.908516
H	7.27755	1.16026	-0.492519
