18
  This energy is -0.9949 and Call times are: 33478
C	1.11779	0.143134	-0.128288
C	0.401995	-0.735284	-0.887493
C	-0.949189	-0.631358	-0.436253
C	-0.939804	0.301394	0.558864
O	0.314264	0.78489	0.760253
H	2.18974	0.400331	-0.123061
H	0.786876	-1.39068	-1.68525
H	-1.82022	-1.19016	-0.814583
H	-1.7479	0.703195	1.19195
C	5.57122	0.536086	0.979747
C	4.93623	-0.684833	0.894375
N	4.64952	-0.997542	-0.392684
C	5.10491	0.0254907	-1.10307
N	5.66949	0.976159	-0.321355
H	5.94757	1.10397	1.84543
H	4.67982	-1.34568	1.73841
H	5.05088	0.129555	-2.19873
H	6.10004	1.87686	-0.644793
