18
  This energy is -1.188 and Call times are: 29195
C	-1.07796	0.308979	0.170084
C	-0.675249	-0.99331	0.217397
C	0.729021	-0.978034	-0.0431949
C	1.06047	0.332241	-0.226747
O	-0.0308819	1.13218	-0.100047
H	-2.06788	0.773644	0.309377
H	-1.30399	-1.87613	0.41589
H	1.40554	-1.84666	-0.0869196
H	2.02446	0.818162	-0.450041
C	5.0311	0.975181	0.658139
C	5.26988	-0.315679	1.07981
N	5.1485	-1.19465	0.0555114
C	4.83561	-0.451903	-0.997603
N	4.75288	0.863217	-0.685826
H	5.03921	1.93358	1.20122
H	5.52757	-0.628546	2.10478
H	4.65613	-0.819903	-2.02063
H	4.52097	1.64804	-1.34273
