18
  This energy is -1.2786 and Call times are: 83634
C	0.237349	1.02645	0.420076
C	-1.03161	0.527655	0.383732
C	-0.925333	-0.768915	-0.205954
C	0.399187	-0.947976	-0.477902
O	1.12391	0.13856	-0.102101
H	0.635233	1.98664	0.787459
H	-1.95033	1.02306	0.73676
H	-1.74527	-1.47866	-0.401036
H	0.944944	-1.79183	-0.93101
C	4.36288	1.14728	0.112332
C	4.04107	0.336455	-0.955446
N	4.46676	-0.933658	-0.750235
C	5.05044	-0.910864	0.440322
N	5.01377	0.321101	1.00113
H	4.18084	2.21802	0.29647
H	3.50936	0.645153	-1.87023
H	5.52082	-1.76794	0.94864
H	5.40636	0.594774	1.93506
