18
  This energy is -0.9595 and Call times are: 62482
C	0.296915	-0.165781	1.08202
C	-0.433088	0.9148	0.682249
C	-0.601959	0.772191	-0.728872
C	0.0397555	-0.382948	-1.06685
O	0.594447	-0.968872	0.0267764
H	0.66395	-0.473303	2.07498
H	-0.8144	1.73048	1.31735
H	-1.14024	1.45532	-1.4054
H	0.171822	-0.888896	-2.03733
C	6.11394	0.352388	0.14158
C	5.64619	-0.944339	0.170718
N	4.30644	-0.985116	-0.0291
C	3.94443	0.281498	-0.18162
N	4.99831	1.12649	-0.0871284
H	7.12794	0.765325	0.26335
H	6.25141	-1.85122	0.332341
H	2.92081	0.646009	-0.364803
H	4.97078	2.1721	-0.171933
