18
  This energy is -0.697 and Call times are: 58971
C	-0.299178	-0.498991	-0.973602
C	1.00418	-0.288322	-0.631177
C	0.974469	0.353181	0.64464
C	-0.344419	0.477894	0.969223
O	-1.13638	-0.0372502	-0.00773212
H	-0.755562	-0.960923	-1.86444
H	1.89695	-0.557645	-1.21813
H	1.83963	0.68013	1.24355
H	-0.842141	0.90855	1.85356
C	6.37084	0.343044	1.11276
C	5.2124	0.470918	0.375992
N	5.36929	-0.0323326	-0.872462
C	6.62029	-0.470742	-0.910061
N	7.26588	-0.267299	0.262718
H	6.61353	0.633493	2.1473
H	4.26621	0.917285	0.722882
H	7.11444	-0.948906	-1.77111
H	8.25902	-0.525343	0.482579
