18
  This energy is -1.459 and Call times are: 80407
C	-0.0527093	-1.12921	0.0922162
C	-0.614394	-0.454597	-0.951709
C	-0.341079	0.927464	-0.716495
C	0.363497	0.975402	0.450402
O	0.548747	-0.271576	0.958082
H	-0.0124894	-2.20472	0.330782
H	-1.16586	-0.886845	-1.80208
H	-0.638505	1.77983	-1.34824
H	0.784007	1.82289	1.01625
C	4.72635	0.784884	-0.701433
C	4.78625	0.734144	0.675151
N	4.05954	-0.302817	1.15797
C	3.55074	-0.893134	0.0849937
N	3.9236	-0.274758	-1.06051
H	5.18293	1.47698	-1.42675
H	5.34081	1.42718	1.32861
H	2.89875	-1.78146	0.0811992
H	3.65277	-0.550068	-2.03627
