18
  This energy is -0.5273 and Call times are: 10453
C	-0.515334	-0.375781	0.937881
C	-0.941024	0.731144	0.264176
C	-0.0520782	0.880446	-0.843795
C	0.838361	-0.148423	-0.749348
O	0.570358	-0.925568	0.332886
H	-0.894337	-0.868206	1.84844
H	-1.79532	1.37767	0.521621
H	-0.0801062	1.66575	-1.6162
H	1.69624	-0.433109	-1.38042
C	5.47788	0.774447	0.513682
C	5.12744	-0.221997	-0.372563
N	6.21389	-0.929608	-0.766784
C	7.23446	-0.374258	-0.127534
N	6.8424	0.657372	0.65708
H	4.873	1.53327	1.03507
H	4.11012	-0.443021	-0.734592
H	8.28971	-0.683706	-0.197779
H	7.46018	1.2543	1.25981
