18
  This energy is -0.93 and Call times are: 121091
C	-0.493389	0.729534	-0.714667
C	0.858682	0.55681	-0.665219
C	1.09037	-0.428698	0.34236
C	-0.140579	-0.771205	0.819683
O	-1.11938	-0.0735777	0.185424
H	-1.12449	1.38426	-1.3378
H	1.61683	1.07173	-1.27691
H	2.06386	-0.829796	0.667207
H	-0.449314	-1.48771	1.5985
C	6.51867	-0.426384	-0.599438
C	5.31933	0.00870069	-1.12233
N	4.48572	0.436141	-0.1431
C	5.16533	0.266871	0.983001
N	6.3968	-0.250551	0.760862
H	7.4202	-0.835056	-1.08295
H	5.04058	0.021848	-2.18862
H	4.80863	0.505266	1.99797
H	7.1208	-0.47501	1.4866
