18
  This energy is -1.0603 and Call times are: 63481
C	-0.0202192	1.12885	0.10814
C	0.997314	0.365966	0.601101
C	0.668131	-0.984502	0.272478
C	-0.521501	-0.927656	-0.392289
O	-0.956498	0.355238	-0.501714
H	-0.192746	2.2175	0.126142
H	1.89014	0.718821	1.14189
H	1.25498	-1.8869	0.507821
H	-1.15205	-1.71805	-0.831532
C	4.63612	0.896402	0.670188
C	4.94556	0.93963	-0.672766
N	5.33097	-0.278401	-1.12484
C	5.26089	-1.07424	-0.066374
N	4.84687	-0.41306	1.04044
H	4.29233	1.67871	1.36541
H	4.89763	1.82787	-1.3236
H	5.5014	-2.1494	-0.0461574
H	4.7121	-0.820346	1.99815
