18
  This energy is -2.0409 and Call times are: 46371
C	0.68847	0.658779	-0.615159
C	0.508045	-0.665303	-0.888342
C	-0.415857	-1.14404	0.090091
C	-0.718456	-0.0702512	0.874806
O	-0.0529452	1.03914	0.458451
H	1.309	1.42807	-1.1034
H	0.978378	-1.24657	-1.69767
H	-0.804284	-2.1703	0.19021
H	-1.38344	0.0329238	1.74796
C	4.50606	0.994015	-0.55734
C	5.60348	0.793067	0.252863
N	5.63224	-0.474613	0.73106
C	4.55674	-1.05788	0.219463
N	3.84488	-0.213864	-0.564424
H	4.16035	1.88148	-1.1109
H	6.37503	1.54007	0.500939
H	4.24323	-2.10099	0.386376
H	2.95821	-0.437078	-1.07946
