18
  This energy is -0.769 and Call times are: 60508
C	0.678928	-0.391076	0.820071
C	-0.679517	-0.494941	0.884973
C	-1.17506	0.102508	-0.31403
C	-0.0756884	0.518724	-1.00578
O	1.06512	0.225382	-0.327904
H	1.47082	-0.712106	1.51656
H	-1.27307	-0.946932	1.69583
H	-2.22921	0.205842	-0.617634
H	0.0267025	1.02899	-1.97758
C	6.87708	0.997111	0.620419
C	6.08468	-0.0949706	0.90431
N	6.2454	-1.06967	-0.0234003
C	7.13413	-0.584107	-0.879562
N	7.54554	0.659131	-0.535056
H	7.00823	1.95879	1.14149
H	5.39988	-0.197065	1.76191
H	7.5187	-1.09688	-1.77588
H	8.2412	1.25252	-1.05004
