18
  This energy is -0.8954 and Call times are: 14941
C	-1.0465	0.238668	-0.366437
C	-0.331969	1.09915	0.414202
C	0.917415	0.453948	0.664959
C	0.856071	-0.743844	0.0154174
O	-0.336233	-0.891972	-0.619783
H	-2.05685	0.313081	-0.801075
H	-0.652545	2.08893	0.777057
H	1.75813	0.84402	1.26089
H	1.58412	-1.56716	-0.0703176
C	6.4501	0.240415	-0.651614
C	5.64734	-0.877142	-0.73986
N	4.63929	-0.827313	0.1645
C	4.81602	0.316806	0.811327
N	5.89472	0.997008	0.35601
H	7.34736	0.540822	-1.21573
H	5.77746	-1.71851	-1.43987
H	4.18491	0.705027	1.62694
H	6.24185	1.9241	0.704227
