18
  This energy is -2.2554 and Call times are: 17887
C	-0.503503	0.318437	-0.965134
C	-0.0576635	-0.954037	-0.759195
C	0.507528	-0.962821	0.552522
C	0.357175	0.305061	1.03236
O	-0.258366	1.10089	0.118697
H	-1.00517	0.786704	-1.82787
H	-0.120492	-1.80147	-1.46062
H	0.97004	-1.81842	1.07033
H	0.641916	0.761105	1.99475
C	4.24375	0.272895	-1.04998
C	5.5418	0.478696	-0.633017
N	5.72159	0.0436514	0.637779
C	4.53958	-0.430237	1.00778
N	3.61516	-0.314746	0.0250774
H	3.73966	0.495601	-2.00383
H	6.35182	0.933293	-1.22636
H	4.29585	-0.872982	1.98696
H	2.61093	-0.615542	0.0729856
