18
  This energy is -0.6518 and Call times are: 46275
C	-0.63495	0.508258	-0.790514
C	0.707272	0.31908	-0.942254
C	1.14545	-0.343278	0.244927
C	0.0323136	-0.500387	1.01733
O	-1.06406	0.013897	0.400489
H	-1.38649	0.974895	-1.44831
H	1.32666	0.61616	-1.80376
H	2.17212	-0.661854	0.486894
H	-0.109538	-0.955355	2.01138
C	6.7871	0.831629	-0.470516
C	5.41011	0.838284	-0.399764
N	4.94667	-0.28058	0.208416
C	6.03203	-0.978693	0.513801
N	7.16683	-0.350396	0.125139
H	7.49987	1.56009	-0.888642
H	4.74271	1.63036	-0.776656
H	6.05285	-1.95612	1.02216
H	8.14885	-0.697552	0.253161
