18
  This energy is -0.7381 and Call times are: 111768
C	-0.798777	0.275602	0.756571
C	-0.71928	-0.966118	0.197836
C	0.398353	-0.924293	-0.690569
C	0.903165	0.339293	-0.5963
O	0.184315	1.0857	0.282986
H	-1.49894	0.702284	1.49343
H	-1.38126	-1.82533	0.391834
H	0.775203	-1.74463	-1.32234
H	1.75808	0.824171	-1.09557
C	4.51406	0.352474	0.285622
C	4.87845	-0.876774	-0.221632
N	6.21507	-0.940166	-0.436003
C	6.67811	0.245247	-0.0631574
N	5.69152	1.06025	0.379558
H	3.53289	0.760073	0.576693
H	4.20087	-1.71906	-0.436771
H	7.73089	0.569224	-0.0935421
H	5.80242	2.0439	0.72798
