18
  This energy is -1.2121 and Call times are: 98976
C	-0.419978	-1.04781	-0.110087
C	0.607871	-0.588254	-0.879965
C	0.848396	0.752759	-0.451072
C	-0.0537032	0.994298	0.543035
O	-0.836362	-0.0944786	0.764441
H	-0.938419	-2.02041	-0.087555
H	1.143	-1.13841	-1.67058
H	1.60709	1.44907	-0.843029
H	-0.237477	1.88758	1.16233
C	4.65487	1.05417	-0.393315
C	4.36985	-0.172463	-0.954802
N	4.9283	-1.17891	-0.239467
C	5.55738	-0.578932	0.761986
N	5.42234	0.767546	0.713495
H	4.37521	2.07667	-0.693042
H	3.77126	-0.349294	-1.86325
H	6.13214	-1.07788	1.55881
H	5.82547	1.46103	1.39012
