18
  This energy is -1.4253 and Call times are: 44585
C	0.820186	0.283	0.730484
C	1.07755	-0.0262352	-0.572786
C	-0.189367	-0.323265	-1.16169
C	-1.10909	-0.169318	-0.166308
O	-0.510102	0.200725	0.996145
H	1.48744	0.573908	1.55837
H	2.0609	-0.0434497	-1.0696
H	-0.383606	-0.616566	-2.20589
H	-2.20462	-0.291697	-0.157827
C	4.95314	-0.497297	-1.05562
C	4.85653	0.850661	-0.782088
N	4.68312	1.06893	0.544109
C	4.67219	-0.13903	1.09123
N	4.83146	-1.11683	0.168126
H	5.09513	-1.04137	-2.00291
H	4.90885	1.66962	-1.5179
H	4.55082	-0.364619	2.16296
H	4.85733	-2.15004	0.349986
