18
  This energy is -1.3925 and Call times are: 118063
C	-0.0317545	-0.409186	-1.05734
C	-0.0614239	0.928073	-0.79044
C	-0.00543765	1.0442	0.632056
C	0.0535024	-0.232339	1.10885
O	0.0384002	-1.13272	0.0909632
H	-0.0545839	-0.965496	-2.00878
H	-0.117146	1.75024	-1.5219
H	-0.00912091	1.97432	1.2228
H	0.108572	-0.627064	2.13667
C	4.56268	0.889665	-0.679742
C	4.37543	-0.421507	-1.06303
N	3.95089	-1.17888	-0.022523
C	3.87505	-0.340748	1.00237
N	4.23374	0.918504	0.657102
H	4.89563	1.77473	-1.24484
H	4.53906	-0.83459	-2.07171
H	3.56272	-0.596479	2.02769
H	4.25686	1.75704	1.28764
