18
  This energy is -1.3938 and Call times are: 131569
C	-0.209124	1.11475	0.000969845
C	-0.532814	0.309945	1.05353
C	-0.118944	-1.00555	0.681629
C	0.421122	-0.888491	-0.565367
O	0.374318	0.399497	-0.996537
H	-0.339914	2.19765	-0.158645
H	-1.01469	0.612311	1.99718
H	-0.216129	-1.92592	1.27959
H	0.866191	-1.63597	-1.24245
C	3.53532	0.108957	0.665295
C	4.55366	-0.806293	0.827946
N	5.5094	-0.64741	-0.119594
C	5.08559	0.362566	-0.867229
N	3.89981	0.852884	-0.434664
H	2.60799	0.277899	1.23543
H	4.61588	-1.57843	1.61202
H	5.60459	0.78344	-1.74343
H	3.3608	1.64821	-0.85678
