18
  This energy is -0.8708 and Call times are: 55604
C	-0.457969	-1.01212	0.228655
C	-1.11254	-0.061654	-0.498349
C	-0.225297	1.05537	-0.570377
C	0.893126	0.688892	0.11897
O	0.768343	-0.570709	0.61379
H	-0.75267	-2.02882	0.536436
H	-2.11918	-0.139352	-0.93963
H	-0.407257	2.01593	-1.07861
H	1.83293	1.22642	0.326531
C	5.83549	0.0560183	1.15174
C	6.66585	-0.420691	0.159568
N	6.07277	-0.336953	-1.05606
C	4.87903	0.189701	-0.81894
N	4.68798	0.444528	0.497173
H	5.9753	0.14337	2.24094
H	7.68226	-0.823553	0.299092
H	4.10583	0.409772	-1.57258
H	3.8293	0.859076	0.935454
