18
  This energy is -0.8673 and Call times are: 61838
C	1.09932	0.096291	0.261956
C	0.663064	-0.642906	-0.798064
C	-0.760031	-0.520804	-0.800627
C	-1.06778	0.28223	0.258051
O	0.0556899	0.668342	0.918159
H	2.11275	0.291915	0.649185
H	1.28137	-1.2166	-1.50705
H	-1.46448	-0.981009	-1.512
H	-2.03445	0.647747	0.641714
C	6.40631	-0.161567	0.733209
C	5.83632	-1.10263	-0.0978514
N	4.80946	-0.571902	-0.805237
C	4.74266	0.693598	-0.414505
N	5.68446	0.990067	0.512168
H	7.2465	-0.227692	1.44261
H	6.14762	-2.15504	-0.199711
H	4.02334	1.4466	-0.77478
H	5.83591	1.92003	0.974223
