18
  This energy is -0.947 and Call times are: 89610
C	-0.376504	-0.784008	-0.727996
C	-1.125	-0.345054	0.324361
C	-0.321532	0.624865	0.998023
C	0.847017	0.692993	0.297863
O	0.83077	-0.160701	-0.759471
H	-0.586716	-1.52624	-1.51549
H	-2.14099	-0.671522	0.598717
H	-0.590712	1.19993	1.89854
H	1.75475	1.3003	0.447702
C	5.32802	-0.612905	-0.908977
C	5.02914	0.732932	-0.885785
N	4.55409	1.10713	0.326984
C	4.55824	-0.00233746	1.0534
N	5.01625	-1.06695	0.353096
H	5.72719	-1.25815	-1.70764
H	5.14776	1.44064	-1.7224
H	4.23632	-0.0913324	2.10348
H	5.11503	-2.0508	0.70458
