18
  This energy is -1.157 and Call times are: 122679
C	-0.314181	-0.799566	-0.74053
C	-0.385297	-0.985257	0.608853
C	0.0903398	0.226857	1.19594
C	0.410122	1.04625	0.153485
O	0.1694	0.435565	-1.03653
H	-0.573968	-1.45998	-1.5841
H	-0.737375	-1.88549	1.13774
H	0.180363	0.45328	2.27052
H	0.812138	2.07237	0.126783
C	5.44562	-0.982761	0.469783
C	6.15301	0.0908168	-0.0283917
N	5.31879	1.05242	-0.493067
C	4.09852	0.577194	-0.283959
N	4.12174	-0.646911	0.294502
H	5.77949	-1.93037	0.921557
H	7.25037	0.188777	-0.060857
H	3.15305	1.08426	-0.535349
H	3.28975	-1.22921	0.559067
