18
  This energy is -1.0382 and Call times are: 16022
C	0.305355	-1.06162	0.257125
C	-0.995808	-0.703344	0.0596791
C	-0.975731	0.693134	-0.23959
C	0.335929	1.06495	-0.198605
O	1.13229	0.00586412	0.103326
H	0.766727	-2.03069	0.508703
H	-1.88095	-1.35689	0.118843
H	-1.84221	1.33761	-0.458594
H	0.825236	2.03894	-0.36343
C	4.82433	1.16688	-0.0896004
C	5.50639	0.325094	0.763237
N	5.11203	-0.961013	0.599174
C	4.18882	-0.91726	-0.351826
N	3.97943	0.343373	-0.799655
H	4.87859	2.25729	-0.236567
H	6.27598	0.622707	1.49399
H	3.63461	-1.77873	-0.757961
H	3.30245	0.637425	-1.54564
