18
  This energy is -1.2097 and Call times are: 108323
C	-0.624653	-0.28758	0.901946
C	0.722887	-0.492407	0.851386
C	1.14443	-0.00785505	-0.424401
C	0.0172707	0.4503	-1.04083
O	-1.07243	0.287311	-0.245226
H	-1.36813	-0.50407	1.68657
H	1.35649	-0.939832	1.63398
H	2.16984	-0.00489217	-0.82764
H	-0.139675	0.908017	-2.03134
C	6.66619	-1.15855	-0.123441
C	6.58517	-0.455663	1.06
N	6.38903	0.865573	0.831139
C	6.34854	0.981904	-0.489259
N	6.51077	-0.210545	-1.11001
H	6.81838	-2.23051	-0.326597
H	6.66472	-0.878209	2.07488
H	6.20255	1.91685	-1.05388
H	6.51698	-0.380532	-2.14554
