18
  This energy is -1.1208 and Call times are: 94746
C	-0.424872	-0.575241	-0.880331
C	0.389967	-1.15569	0.0467534
C	0.712493	-0.12635	0.982994
C	0.0662735	0.992252	0.545384
O	-0.633165	0.736303	-0.591404
H	-0.915057	-0.982254	-1.77995
H	0.729818	-2.2036	0.0690797
H	1.35213	-0.217485	1.87555
H	0.0248509	2.01747	0.948454
C	4.32272	0.502951	0.42078
C	4.45213	-0.785336	-0.0532593
N	5.72119	-1.03109	-0.460185
C	6.37659	0.100434	-0.239431
N	5.57713	1.05595	0.291085
H	3.45566	1.04719	0.827664
H	3.65253	-1.5419	-0.108946
H	7.44298	0.283649	-0.447924
H	5.85915	2.03208	0.553596
