18
  This energy is -0.8762 and Call times are: 59651
C	0.0577569	0.95405	0.610618
C	-0.924626	0.734198	-0.309688
C	-0.661654	-0.556724	-0.861488
C	0.458214	-1.01178	-0.229668
O	0.911032	-0.101928	0.67263
H	0.25726	1.80936	1.27688
H	-1.75151	1.41299	-0.573509
H	-1.24411	-1.07783	-1.6382
H	1.02362	-1.95266	-0.331184
C	5.95233	-0.306054	-0.428972
C	5.259	-0.930659	0.586065
N	4.0772	-0.311445	0.8236
C	4.03752	0.693482	-0.0407908
N	5.14509	0.739339	-0.818462
H	6.93043	-0.524224	-0.886441
H	5.59033	-1.81701	1.15127
H	3.22118	1.42599	-0.146872
H	5.34987	1.43811	-1.57414
