18
  This energy is -1.498 and Call times are: 34403
C	0.597539	-0.0716813	-0.961358
C	-0.00377773	1.08477	-0.559596
C	-0.649108	0.780494	0.677773
C	-0.385175	-0.535035	0.922919
O	0.374965	-1.07126	-0.0678709
H	1.20391	-0.309713	-1.85069
H	0.00610737	2.05478	-1.08216
H	-1.23905	1.46768	1.30533
H	-0.67672	-1.19644	1.75526
C	5.82208	-0.728306	0.791361
C	6.98073	0.00511746	0.935448
N	7.2361	0.738475	-0.175174
C	6.23967	0.461062	-1.0051
N	5.36088	-0.418405	-0.468578
H	5.31018	-1.42557	1.4735
H	7.63699	0.0182577	1.82088
H	6.10483	0.874101	-2.01775
H	4.49347	-0.79286	-0.925355
