18
  This energy is -1.353 and Call times are: 82979
C	-0.757849	-0.329818	0.776714
C	-0.430863	-1.10224	-0.298838
C	0.540952	-0.357312	-1.03421
C	0.72204	0.804569	-0.343113
O	-0.063226	0.838251	0.765595
H	-1.46048	-0.496168	1.60971
H	-0.833608	-2.09682	-0.549253
H	1.0415	-0.659481	-1.96814
H	1.37159	1.67472	-0.533312
C	4.74688	-1.05196	-0.506851
C	3.78043	-0.704372	0.413086
N	3.90546	0.592217	0.7869
C	4.94553	1.04727	0.101474
N	5.48744	0.0939576	-0.692959
H	4.95318	-2.00198	-1.02496
H	2.99516	-1.36592	0.813782
H	5.35269	2.07034	0.143536
H	6.31421	0.206349	-1.32941
