18
  This energy is -1.108 and Call times are: 40176
C	-0.226922	0.0871837	1.10784
C	-1.20563	-0.0805869	0.172768
C	-0.535661	-0.14657	-1.08696
C	0.793313	-0.0132961	-0.81048
O	1.00006	0.13046	0.525036
H	-0.273194	0.187856	2.20464
H	-2.29053	-0.15083	0.352114
H	-0.997824	-0.278143	-2.07851
H	1.67924	-0.00443269	-1.46646
C	5.5002	0.27815	-0.973391
C	5.50399	-0.934428	-0.317048
N	4.69683	-0.903582	0.771092
C	4.19421	0.323465	0.789731
N	4.6481	1.07463	-0.241443
H	6.02602	0.619259	-1.87931
H	6.07468	-1.831	-0.60916
H	3.48939	0.724453	1.53583
H	4.39848	2.07346	-0.444645
