18
  This energy is -2.3805 and Call times are: 42561
C	0.0229423	-0.576843	-0.976282
C	-0.0831271	-1.19489	0.234974
C	-0.0786934	-0.150016	1.2088
C	0.0296934	1.0143	0.506665
O	0.0929364	0.772407	-0.829186
H	0.0588728	-0.979506	-2.00187
H	-0.157072	-2.27794	0.423754
H	-0.148517	-0.261858	2.30274
H	0.0717929	2.06548	0.836061
C	3.47512	-0.0326151	1.05287
C	4.59188	-0.740952	0.662678
N	4.92427	-0.460971	-0.620926
C	4.01717	0.417718	-1.02551
N	3.12139	0.708424	-0.0525368
H	2.92543	-0.00437476	2.00711
H	5.16374	-1.44902	1.28435
H	3.96239	0.880326	-2.02412
H	2.31169	1.37191	-0.1262
