18
  This energy is -1.2001 and Call times are: 26910
C	-0.700613	-0.455423	0.766898
C	-0.000569634	0.690374	1.00661
C	0.757837	0.940216	-0.177664
C	0.454296	-0.0749602	-1.03653
O	-0.434914	-0.93648	-0.476083
H	-1.41081	-1.02238	1.39094
H	-0.0166375	1.29861	1.92525
H	1.4467	1.78068	-0.35981
H	0.799342	-0.294281	-2.06029
C	5.72227	0.575119	-0.451379
C	5.32317	-0.710937	-0.747892
N	4.21789	-1.05434	-0.0429465
C	3.9324	0.0146175	0.688115
N	4.81021	1.02392	0.477543
H	6.56275	1.18244	-0.823263
H	5.81294	-1.39719	-1.45785
H	3.09199	0.112022	1.39413
H	4.79828	1.9684	0.93479
