18
  This energy is -1.4616 and Call times are: 67175
C	0.500096	-0.267181	0.982303
C	0.244036	1.02264	0.62012
C	-0.383073	0.951804	-0.661221
C	-0.454871	-0.375046	-0.968934
O	0.0798511	-1.13396	0.0236055
H	0.969898	-0.693941	1.88364
H	0.47372	1.93266	1.19736
H	-0.736282	1.79598	-1.27498
H	-0.857629	-0.900364	-1.85045
C	4.13978	0.497387	-1.0344
C	3.54691	-0.616998	-0.47961
N	4.094	-0.913268	0.724311
C	5.02274	0.013794	0.915672
N	5.08926	0.887642	-0.116586
H	3.95924	1.0228	-1.98566
H	2.7342	-1.21255	-0.926457
H	5.68258	0.0993222	1.79404
H	5.74011	1.70644	-0.201564
