18
  This energy is -1.3184 and Call times are: 127469
C	-0.496543	0.675216	-0.764153
C	-0.224714	-0.637349	-1.01645
C	0.391748	-1.14372	0.168317
C	0.442212	-0.0958872	1.04003
O	-0.095931	1.0229	0.487102
H	-0.965688	1.45691	-1.38391
H	-0.437012	-1.19321	-1.94384
H	0.752449	-2.17025	0.342169
H	0.830813	-0.0187516	2.06876
C	3.75093	0.0292772	-0.532624
C	4.5299	1.11062	-0.179006
N	5.67877	0.710747	0.418249
C	5.61278	-0.613635	0.435086
N	4.46954	-1.073	-0.126696
H	2.76883	-0.0318163	-1.02789
H	4.28353	2.17217	-0.344124
H	6.37399	-1.29584	0.84665
H	4.18483	-2.07745	-0.232818
