18
  This energy is -1.1542 and Call times are: 88585
C	0.585383	0.359063	-0.902663
C	0.375393	1.14551	0.191767
C	-0.390254	0.3537	1.10113
C	-0.58055	-0.846712	0.482122
O	0.0085347	-0.861026	-0.742536
H	1.12163	0.548465	-1.84703
H	0.724623	2.17949	0.343483
H	-0.752687	0.6517	2.09809
H	-1.10963	-1.75903	0.803047
C	4.27433	-0.60682	-0.700192
C	4.15586	0.717192	-0.333992
N	5.16974	1.0905	0.484064
C	5.91435	0.00221901	0.624828
N	5.41628	-1.04805	-0.0697529
H	3.64772	-1.24498	-1.34335
H	3.35699	1.40978	-0.645398
H	6.83475	-0.0808219	1.225
H	5.8226	-2.01437	-0.118702
