18
  This energy is -1.2495 and Call times are: 116427
C	-0.60461	0.600673	-0.748358
C	0.558236	-0.0276177	-1.08513
C	1.01604	-0.667947	0.106725
C	0.0925429	-0.374426	1.0666
O	-0.90414	0.399476	0.561915
H	-1.30267	1.21385	-1.34164
H	1.04481	-0.0390146	-2.07367
H	1.92815	-1.27452	0.226002
H	0.0314796	-0.652202	2.13167
C	4.89748	1.15774	-0.187689
C	4.92329	0.51182	1.0302
N	4.7838	-0.827326	0.876123
C	4.67187	-1.01147	-0.432382
N	4.73437	0.154992	-1.11725
H	4.98085	2.22443	-0.449929
H	5.04007	0.988068	2.01732
H	4.5423	-1.97961	-0.942441
H	4.6707	0.273028	-2.15805
