18
  This energy is -1.6498 and Call times are: 98126
C	0.319334	0.308563	1.04366
C	-0.668457	0.955425	0.360857
C	-0.778738	0.285178	-0.895617
C	0.151396	-0.712094	-0.869713
O	0.831152	-0.712503	0.307123
H	0.744976	0.475744	2.04672
H	-1.26009	1.81803	0.707243
H	-1.47287	0.524793	-1.71711
H	0.423594	-1.4775	-1.61491
C	5.31288	-1.15414	0.134354
C	5.31658	-0.448839	-1.05042
N	5.56659	0.865668	-0.835767
C	5.71743	0.975438	0.477178
N	5.57374	-0.214735	1.10681
H	5.14856	-2.22242	0.347182
H	5.14333	-0.864911	-2.05626
H	5.93424	1.90377	1.02982
H	5.64709	-0.388744	2.13909
