18
  This energy is -0.9326 and Call times are: 4615
C	-0.584735	0.569955	-0.78717
C	-1.13412	0.199213	0.404927
C	-0.102098	-0.48772	1.11427
C	0.986842	-0.476112	0.29302
O	0.709986	0.165696	-0.872504
H	-1.00466	1.11741	-1.64694
H	-2.16292	0.390299	0.750131
H	-0.171631	-0.935132	2.1188
H	2.00288	-0.884451	0.42023
C	4.75455	-0.358722	1.09369
C	4.52148	0.891503	0.561002
N	4.92877	0.95629	-0.729902
C	5.41266	-0.249159	-0.997035
N	5.33015	-1.07825	0.0703877
H	4.55809	-0.773481	2.09515
H	4.06674	1.74794	1.085
H	5.83962	-0.578392	-1.95805
H	5.64472	-2.07859	0.110768
