18
  This energy is -0.8681 and Call times are: 133183
C	-0.657324	0.77745	-0.499899
C	-0.59472	0.636162	0.855274
C	0.325985	-0.429133	1.0952
C	0.744735	-0.84479	-0.134534
O	0.15434	-0.118901	-1.1202
H	-1.23307	1.46866	-1.13708
H	-1.142	1.22322	1.61022
H	0.634499	-0.832256	2.07316
H	1.45006	-1.63583	-0.437877
C	5.81066	0.911437	0.222124
C	4.4657	0.964486	-0.076908
N	3.95995	-0.277008	-0.275449
C	4.98724	-1.09713	-0.100252
N	6.12567	-0.428912	0.20153
H	6.54152	1.70614	0.440826
H	3.85119	1.87632	-0.152956
H	4.96129	-2.19577	-0.181076
H	7.06862	-0.851377	0.384888
