18
  This energy is -0.8651 and Call times are: 37342
C	0.449825	0.830243	0.628295
C	-0.857247	0.456588	0.739286
C	-1.04229	-0.602628	-0.200894
C	0.168039	-0.782741	-0.803418
O	1.09094	0.0838735	-0.309209
H	1.03654	1.60235	1.15257
H	-1.61507	0.883981	1.4154
H	-1.97211	-1.15977	-0.398671
H	0.497284	-1.48443	-1.58731
C	7.81195	0.286247	-0.258319
C	7.0137	0.858285	0.709522
N	5.78683	0.283194	0.733654
C	5.82383	-0.642096	-0.215606
N	7.02337	-0.679576	-0.842721
H	8.85071	0.491273	-0.562409
H	7.30104	1.67566	1.39083
H	5.00057	-1.31992	-0.49316
H	7.3	-1.32198	-1.62506
