18
  This energy is -1.702 and Call times are: 85946
C	0.149072	1.12277	-0.0596402
C	0.228609	0.43684	1.1166
C	-0.0131904	-0.932003	0.788089
C	-0.219142	-0.961712	-0.5599
O	-0.123719	0.284382	-1.0939
H	0.265355	2.19446	-0.290316
H	0.436679	0.85304	2.11539
H	-0.0298719	-1.78813	1.48153
H	-0.4393	-1.79463	-1.24767
C	3.31643	-0.811366	-0.335845
C	3.64428	-0.462967	0.95732
N	4.58708	0.510301	0.977072
C	4.84314	0.764722	-0.298987
N	4.10235	-0.00632032	-1.12983
H	2.60325	-1.55055	-0.733996
H	3.21743	-0.896427	1.87643
H	5.56389	1.50569	-0.680727
H	4.12279	0.00666005	-2.17896
