18
  This energy is -0.9264 and Call times are: 24221
C	-0.429888	0.979078	-0.378157
C	-0.849439	0.396681	0.781655
C	-0.0852016	-0.802517	0.915748
C	0.733899	-0.847072	-0.173959
O	0.536783	0.23308	-0.974852
H	-0.736226	1.91121	-0.880691
H	-1.61981	0.773722	1.47337
H	-0.145218	-1.54012	1.7321
H	1.49092	-1.58351	-0.489916
C	4.45583	-0.615706	0.338448
C	4.62616	0.0467439	-0.858755
N	5.83712	0.652576	-0.914
C	6.41584	0.367055	0.244526
N	5.6233	-0.395332	1.03461
H	3.61452	-1.20857	0.731181
H	3.89696	0.0984083	-1.68365
H	7.41896	0.690819	0.56572
H	5.85418	-0.750825	1.9946
