18
  This energy is -1.2641 and Call times are: 45272
C	-0.802607	-0.657528	-0.458126
C	-0.667962	0.661376	-0.77865
C	0.435752	1.14015	-0.0087715
C	0.878138	0.0715456	0.714251
O	0.133363	-1.03465	0.452231
H	-1.51448	-1.42496	-0.803883
H	-1.28406	1.23915	-1.48624
H	0.845544	2.16294	-0.000766596
H	1.70198	-0.029723	1.4397
C	5.23802	-0.798559	0.7957
C	5.5545	-0.782159	-0.546208
N	4.9951	0.284614	-1.16716
C	4.33411	0.927566	-0.214104
N	4.44974	0.314103	0.987513
H	5.50893	-1.49988	1.60086
H	6.17644	-1.52095	-1.07746
H	3.74882	1.85247	-0.341429
H	4.02066	0.626538	1.89279
