18
  This energy is -1.3505 and Call times are: 79531
C	-0.160763	-0.724179	0.857975
C	-1.08345	-0.546742	-0.130727
C	-0.528089	0.429426	-1.01321
C	0.684951	0.762338	-0.485884
O	0.925541	0.0673769	0.656988
H	-0.158587	-1.37501	1.74773
H	-2.05745	-1.05253	-0.228764
H	-0.985877	0.830982	-1.93152
H	1.45986	1.46974	-0.824026
C	5.15443	0.845185	-0.681356
C	5.57604	0.483609	0.580647
N	4.82529	-0.530674	1.07471
C	3.94129	-0.797318	0.122837
N	4.09846	0.00526405	-0.956398
H	5.51896	1.61508	-1.37988
H	6.4085	0.936423	1.14353
H	3.15673	-1.56998	0.164198
H	3.52515	-0.00949192	-1.83523
