18
  This energy is -0.937 and Call times are: 91642
C	-0.282888	-1.08583	0.165403
C	-0.901071	-0.303594	-0.76537
C	-0.277742	0.97836	-0.674952
C	0.666322	0.866344	0.303091
O	0.677016	-0.387531	0.827205
H	-0.432326	-2.14037	0.449762
H	-1.71442	-0.599628	-1.44722
H	-0.511714	1.87389	-1.27276
H	1.38418	1.59551	0.713258
C	5.3148	1.09115	0.149777
C	4.17338	0.726141	-0.532184
N	3.99701	-0.617256	-0.505898
C	5.02512	-1.08388	0.189723
N	5.84832	-0.093073	0.607129
H	5.76999	2.07692	0.335784
H	3.47395	1.40806	-1.04271
H	5.22352	-2.14239	0.423032
H	6.7258	-0.205549	1.17161
