18
  This energy is -0.887 and Call times are: 76063
C	0.917735	-0.0789005	-0.661769
C	0.417371	1.12018	-0.246769
C	-0.722725	0.81125	0.556265
C	-0.818412	-0.549336	0.561099
O	0.175371	-1.10926	-0.177749
H	1.78452	-0.329648	-1.29506
H	0.81158	2.12174	-0.48249
H	-1.38823	1.52567	1.06696
H	-1.53796	-1.22992	1.04515
C	6.42567	0.116084	-0.32324
C	5.57102	-0.913348	-0.656374
N	4.34453	-0.725962	-0.111273
C	4.43795	0.415379	0.557484
N	5.67304	0.961959	0.460488
H	7.48099	0.300435	-0.57986
H	5.81739	-1.78793	-1.28028
H	3.63243	0.896329	1.13546
H	5.9958	1.85916	0.898796
