18
  This energy is -0.6482 and Call times are: 56446
C	-0.231663	-0.76659	-0.803164
C	-1.08312	0.255378	-0.501529
C	-0.451141	0.99509	0.544203
C	0.730712	0.359849	0.789284
O	0.881154	-0.718168	-0.0245085
H	-0.301418	-1.5827	-1.54097
H	-2.05838	0.467091	-0.968571
H	-0.838992	1.89436	1.04916
H	1.54029	0.572978	1.50651
C	6.08847	0.420698	-0.647089
C	4.92088	-0.145447	-1.11329
N	4.11723	-0.521551	-0.0889804
C	4.78373	-0.189991	1.0085
N	5.97814	0.381483	0.724945
H	6.96097	0.8349	-1.17692
H	4.64394	-0.289275	-2.1704
H	4.44337	-0.343199	2.04528
H	6.68539	0.728561	1.41819
