18
  This energy is -0.515 and Call times are: 137656
C	-0.437011	-0.368369	-0.979656
C	0.88124	-0.521139	-0.664618
C	1.04397	0.060958	0.629522
C	-0.189204	0.518053	0.991072
O	-1.10569	0.264291	0.0201569
H	-1.01439	-0.662385	-1.87153
H	1.66084	-0.996092	-1.28166
H	1.97483	0.127061	1.21538
H	-0.540162	1.03397	1.89987
C	5.39786	-0.0336923	0.411389
C	6.38155	-0.980891	0.601918
N	7.53342	-0.619817	-0.0139931
C	7.26533	0.546946	-0.584446
N	5.99063	0.943212	-0.357028
H	4.35281	0.0127681	0.756721
H	6.28079	-1.91835	1.17276
H	7.96599	1.15394	-1.18015
H	5.53979	1.82636	-0.700603
