18
  This energy is -0.8132 and Call times are: 119512
C	-0.439625	-1.01498	-0.250899
C	0.525774	-0.428026	-1.01501
C	0.816461	0.821058	-0.386193
C	0.00303519	0.887136	0.706669
O	-0.770872	-0.225726	0.804738
H	-0.96547	-1.97873	-0.350537
H	0.986935	-0.833937	-1.9297
H	1.54781	1.57616	-0.716404
H	-0.118348	1.66136	1.48197
C	4.82036	-0.721625	-0.300957
C	4.71061	0.588778	0.113706
N	5.92832	1.12078	0.379541
C	6.79022	0.144125	0.130742
N	6.17139	-0.987232	-0.282377
H	4.05807	-1.45933	-0.598041
H	3.7746	1.15989	0.225829
H	7.88563	0.203622	0.234556
H	6.63285	-1.89397	-0.539531
