18
  This energy is -0.836 and Call times are: 45859
C	1.11138	0.0506406	0.220617
C	0.5902	0.402405	-0.989758
C	-0.820296	0.205951	-0.880106
C	-1.03654	-0.248521	0.387596
O	0.132148	-0.34939	1.0739
H	2.14814	0.040639	0.595157
H	1.14351	0.763954	-1.87136
H	-1.57803	0.384897	-1.65979
H	-1.96234	-0.53187	0.914707
C	6.24422	-0.866773	-0.282737
C	5.3149	-0.271504	-1.10928
N	4.6255	0.693842	-0.45404
C	5.12523	0.697435	0.774326
N	6.10401	-0.225609	0.927816
H	6.97115	-1.67434	-0.464267
H	5.1295	-0.521278	-2.16668
H	4.81094	1.35533	1.60054
H	6.65173	-0.416482	1.80236
