18
  This energy is -1.0232 and Call times are: 111415
C	-1.00307	0.186125	-0.495584
C	-0.84899	0.173837	0.859584
C	0.535393	-0.0887805	1.09333
C	1.10508	-0.213791	-0.13964
O	0.180105	-0.0488494	-1.12159
H	-1.89058	0.348321	-1.12905
H	-1.63169	0.333671	1.61849
H	1.03947	-0.173047	2.06949
H	2.1438	-0.417001	-0.447875
C	5.4645	0.169723	-1.15669
C	6.49477	-0.502627	-0.53408
N	6.33317	-0.506329	0.811425
C	5.20694	0.161187	1.02273
N	4.64525	0.589454	-0.132555
H	5.26306	0.372445	-2.22058
H	7.3518	-0.985118	-1.03162
H	4.74822	0.365389	2.0036
H	3.75525	1.13693	-0.229626
