18
  This energy is -1.7859 and Call times are: 23943
C	-0.841061	-0.422903	-0.63259
C	-0.621755	-0.822875	0.652829
C	0.507309	-0.0755475	1.10762
C	0.878287	0.715134	0.0599679
O	0.0657282	0.515982	-1.01106
H	-1.59896	-0.72621	-1.37343
H	-1.19732	-1.5693	1.2235
H	0.981198	-0.127334	2.10102
H	1.69137	1.45166	-0.04808
C	4.13366	-1.10445	-0.307141
C	4.82504	-0.179799	-1.06089
N	4.95213	0.994857	-0.397155
C	4.34191	0.799667	0.763943
N	3.83182	-0.450487	0.86649
H	3.84471	-2.14679	-0.515903
H	5.23445	-0.3392	-2.07175
H	4.23939	1.53841	1.5751
H	3.3065	-0.846197	1.68424
