18
  This energy is -0.911 and Call times are: 104634
C	0.162794	0.551359	0.977703
C	0.423412	-0.780141	0.837848
C	0.0981901	-1.10221	-0.515157
C	-0.332456	0.0609141	-1.08266
O	-0.299566	1.08107	-0.185328
H	0.263293	1.22926	1.84119
H	0.806268	-1.46665	1.61
H	0.178753	-2.08808	-1.00061
H	-0.684473	0.290688	-2.10175
C	4.15934	0.0705948	0.281078
C	5.1971	0.778112	0.84996
N	6.38265	0.447408	0.282863
C	6.08153	-0.461812	-0.634344
N	4.75352	-0.723324	-0.674343
H	3.07619	0.0757122	0.481825
H	5.11162	1.52128	1.65944
H	6.79489	-0.968385	-1.30422
H	4.26886	-1.40163	-1.31173
