18
  This energy is -1.5032 and Call times are: 80247
C	-0.43963	-0.501275	-0.917524
C	0.89092	-0.223633	-0.803827
C	1.05308	0.39757	0.472076
C	-0.192696	0.444698	1.02543
O	-1.11648	-0.0998954	0.190531
H	-1.02114	-0.975383	-1.72519
H	1.67913	-0.435067	-1.54417
H	1.99201	0.76354	0.917674
H	-0.548582	0.834933	1.99306
C	4.8497	-1.17334	-0.0768122
C	4.93743	-0.414773	1.07124
N	4.84144	0.907756	0.79157
C	4.69472	0.969416	-0.524977
N	4.69338	-0.259057	-1.09458
H	4.88623	-2.26273	-0.236254
H	5.06827	-0.798056	2.09634
H	4.58398	1.88831	-1.12297
H	4.59248	-0.474081	-2.11675
