18
  This energy is -1.1815 and Call times are: 63916
C	-0.26497	-0.176055	-1.08867
C	0.114139	1.04658	-0.617687
C	0.360713	0.868699	0.777905
C	0.110515	-0.446928	1.03655
O	-0.272716	-1.09998	-0.0920161
H	-0.550999	-0.51408	-2.09821
H	0.210486	1.98006	-1.19511
H	0.686248	1.63685	1.49767
H	0.167569	-1.03245	1.96884
C	4.49401	-0.794891	-0.321912
C	5.84641	-1.0075	-0.157698
N	6.47768	0.130713	0.219784
C	5.52055	1.04595	0.289484
N	4.30645	0.537259	-0.0280014
H	3.67899	-1.47463	-0.617271
H	6.37797	-1.96177	-0.30483
H	5.65363	2.10378	0.567895
H	3.39576	1.05837	-0.0467003
