18
  This energy is -1.0957 and Call times are: 44297
C	0.14852	0.645402	0.92076
C	-0.876594	-0.247785	0.812448
C	-0.728754	-0.859019	-0.469992
C	0.373653	-0.28539	-1.03215
O	0.921983	0.635659	-0.196679
H	0.432718	1.33749	1.73039
H	-1.65844	-0.455388	1.56059
H	-1.37319	-1.63476	-0.913874
H	0.863556	-0.443774	-2.00691
C	4.3377	0.455567	-0.501518
C	4.45034	-0.778387	0.103306
N	5.70489	-0.978635	0.575032
C	6.36801	0.126886	0.264036
N	5.58739	1.02224	-0.386012
H	3.48511	0.953914	-0.989669
H	3.64887	-1.52777	0.207758
H	7.42691	0.33301	0.488669
H	5.87864	1.96793	-0.735445
