18
  This energy is -0.7861 and Call times are: 131216
C	1.1062	0.0447289	-0.246423
C	0.616829	0.384957	0.980417
C	-0.797434	0.201043	0.901981
C	-1.04745	-0.235337	-0.365866
O	0.103725	-0.336552	-1.0811
H	2.13365	0.0313933	-0.645702
H	1.19387	0.730748	1.85308
H	-1.53494	0.375887	1.70174
H	-1.98781	-0.504572	-0.874282
C	6.44072	0.905388	-0.129212
C	5.24054	0.908511	0.549529
N	4.64615	-0.308214	0.496705
C	5.47444	-1.06329	-0.212112
N	6.5712	-0.377429	-0.612475
H	7.18632	1.69879	-0.296934
H	4.79285	1.7669	1.07641
H	5.32654	-2.12494	-0.467563
H	7.36896	-0.751592	-1.18243
