18
  This energy is -0.9512 and Call times are: 14272
C	-0.581198	0.659372	-0.716825
C	-0.839387	0.631048	0.622171
C	0.0850596	-0.304663	1.17891
C	0.826558	-0.765536	0.130986
O	0.433225	-0.187449	-1.0344
H	-1.04247	1.23166	-1.53839
H	-1.60411	1.2109	1.16352
H	0.179599	-0.594543	2.23774
H	1.65157	-1.4952	0.0840686
C	4.81259	-0.922127	-0.249487
C	4.40093	0.354495	0.0697564
N	5.46119	1.16698	0.298299
C	6.52656	0.397322	0.121509
N	6.18811	-0.871186	-0.210045
H	4.24305	-1.83288	-0.493797
H	3.35788	0.703875	0.139276
H	7.57785	0.711752	0.222251
H	6.84783	-1.6647	-0.400731
