18
  This energy is -2.461 and Call times are: 97679
C	-0.161248	1.08802	-0.276793
C	0.577789	0.239904	-1.04809
C	0.548905	-1.022	-0.379606
C	-0.205233	-0.833625	0.741181
O	-0.647082	0.449175	0.819954
H	-0.412799	2.15449	-0.39764
H	1.09172	0.478942	-1.99299
H	1.03599	-1.9559	-0.703151
H	-0.496974	-1.52297	1.55047
C	4.02517	-0.825748	-0.691206
C	5.27729	-0.262016	-0.815876
N	5.49735	0.658761	0.15379
C	4.38597	0.666226	0.877264
N	3.4679	-0.211632	0.408116
H	3.50847	-1.59482	-1.28711
H	6.02584	-0.503183	-1.58812
H	4.19152	1.295	1.76104
H	2.51344	-0.390385	0.806
