18
  This energy is -2.2917 and Call times are: 83205
C	-0.107036	0.861587	0.729803
C	0.491808	-0.3152	1.07176
C	0.434521	-1.13666	-0.0953078
C	-0.194272	-0.389339	-1.04741
O	-0.532009	0.833832	-0.560794
H	-0.29052	1.78312	1.30631
H	0.929931	-0.578385	2.04791
H	0.819397	-2.16339	-0.203931
H	-0.457465	-0.610785	-2.09476
C	3.48013	1.08525	0.32407
C	3.30029	0.504395	-0.913434
N	3.78975	-0.759107	-0.935934
C	4.2714	-0.961329	0.282975
N	4.1087	0.121129	1.0801
H	3.21417	2.08316	0.707432
H	2.82614	0.974364	-1.79045
H	4.75357	-1.8836	0.645147
H	4.40493	0.209173	2.08297
