18
  This energy is -2.0896 and Call times are: 8876
C	0.584943	0.540984	0.807204
C	0.257675	1.13169	-0.377842
C	-0.466057	0.147869	-1.1184
C	-0.517163	-0.957188	-0.320521
O	0.119677	-0.734877	0.85932
H	1.13869	0.916928	1.68315
H	0.50146	2.15734	-0.698342
H	-0.894976	0.259057	-2.12724
H	-0.970423	-1.95014	-0.474981
C	3.75108	-0.694939	-0.91662
C	4.2768	-1.08323	0.297463
N	4.43573	-0.0206459	1.1234
C	4.01023	1.02287	0.424368
N	3.58715	0.668289	-0.812106
H	3.4907	-1.27296	-1.81753
H	4.54427	-2.11104	0.592251
H	3.98659	2.06897	0.769825
H	3.20673	1.30965	-1.55048
