18
  This energy is -1.3001 and Call times are: 33575
C	-1.06494	0.214779	-0.325831
C	-0.000368931	0.361956	-1.16571
C	1.15225	0.00210905	-0.402752
C	0.690271	-0.333199	0.836005
O	-0.661547	-0.20909	0.900798
H	-2.14454	0.377349	-0.478464
H	-0.0243482	0.690922	-2.21704
H	2.19962	-0.0034	-0.744923
H	1.21443	-0.671321	1.74495
C	4.89315	1.15954	-0.201256
C	4.55161	0.521329	0.972278
N	4.6747	-0.822807	0.851204
C	5.091	-1.01772	-0.39271
N	5.2379	0.146687	-1.06812
H	4.91454	2.22719	-0.471829
H	4.2186	1.00665	1.90417
H	5.30367	-1.99258	-0.860308
H	5.55417	0.256911	-2.06265
