18
  This energy is -0.9418 and Call times are: 6413
C	-0.157538	1.12299	0.0216265
C	1.0831	0.55838	0.0706747
C	0.872326	-0.853484	0.0223925
C	-0.478505	-1.02701	-0.0518984
O	-1.12304	0.169483	-0.0534506
H	-0.482356	2.17638	0.032778
H	2.04971	1.08345	0.134457
H	1.64302	-1.64073	0.0412975
H	-1.0966	-1.93809	-0.107927
C	6.54341	0.66045	-0.242659
C	5.49228	0.991765	0.585901
N	4.57604	-0.00550937	0.635448
C	5.05692	-0.951907	-0.159352
N	6.24116	-0.598134	-0.71255
H	7.45472	1.21281	-0.521847
H	5.37861	1.93253	1.14884
H	4.58247	-1.9235	-0.371781
H	6.81898	-1.17306	-1.37348
