18
  This energy is -1.657 and Call times are: 44521
C	0.0174329	-0.473409	-1.03052
C	0.550901	-1.08731	0.0644225
C	0.338113	-0.192242	1.15698
C	-0.306603	0.88961	0.633237
O	-0.510578	0.734873	-0.701477
H	-0.0488718	-0.787608	-2.0851
H	1.04472	-2.0717	0.0992395
H	0.634145	-0.344674	2.20733
H	-0.668981	1.82081	1.09885
C	4.50214	0.113121	-1.16699
C	3.51419	0.647311	-0.367157
N	3.70646	0.317301	0.933086
C	4.80951	-0.41882	0.939864
N	5.32703	-0.570859	-0.302168
H	4.67094	0.169422	-2.25413
H	2.66609	1.26493	-0.704987
H	5.28192	-0.871314	1.8266
H	6.19188	-1.10753	-0.557669
