18
  This energy is -0.6415 and Call times are: 98428
C	-0.867272	0.686025	-0.252209
C	0.0816992	1.0171	0.669862
C	0.991506	-0.0833465	0.707006
C	0.51819	-0.989749	-0.195646
O	-0.616363	-0.536275	-0.790762
H	-1.75898	1.22648	-0.610014
H	0.135616	1.94333	1.26424
H	1.89108	-0.179977	1.33591
H	0.892392	-1.98046	-0.501768
C	5.92115	0.87471	-0.766805
C	4.95731	0.111607	-0.142443
N	5.51884	-0.808434	0.678974
C	6.82606	-0.616828	0.564632
N	7.11956	0.386987	-0.295487
H	5.84171	1.70269	-1.48907
H	3.8668	0.208411	-0.269952
H	7.61293	-1.18345	1.08808
H	8.07751	0.728642	-0.554058
