18
  This energy is -1.0017 and Call times are: 7397
C	-0.688671	0.397225	-0.808916
C	-0.69022	-0.91198	-0.426354
C	0.298028	-1.02083	0.599139
C	0.81624	0.231462	0.752714
O	0.225244	1.11005	-0.0992336
H	-1.28164	0.938957	-1.56401
H	-1.32373	-1.72	-0.826193
H	0.58309	-1.93003	1.15249
H	1.59832	0.621735	1.42449
C	5.99955	0.391227	0.482632
C	5.41491	0.835392	-0.684438
N	4.26773	0.161981	-0.943329
C	4.14119	-0.696685	0.0593189
N	5.16029	-0.59753	0.945431
H	6.92265	0.698536	0.999338
H	5.80028	1.62969	-1.3443
H	3.3215	-1.42077	0.193686
H	5.28696	-1.16562	1.81863
