18
  This energy is -0.6352 and Call times are: 110929
C	0.49298	-1.0034	-0.191206
C	-0.637666	-0.608838	-0.844148
C	-0.946707	0.691363	-0.340076
C	0.02237	0.976557	0.576399
O	0.909937	-0.0473949	0.680123
H	1.08997	-1.92785	-0.256372
H	-1.19786	-1.17644	-1.60448
H	-1.79415	1.33228	-0.631874
H	0.189364	1.86121	1.2126
C	6.07426	0.656526	-0.0698394
C	4.77317	1.08815	-0.218141
N	3.89884	0.0626994	-0.0749164
C	4.65466	-1.00104	0.16134
N	5.97364	-0.694926	0.174374
H	7.03268	1.1974	-0.119162
H	4.44965	2.12112	-0.425918
H	4.29386	-2.02815	0.33195
H	6.76823	-1.36031	0.339126
