18
  This energy is -0.9012 and Call times are: 111319
C	-0.976781	-0.179233	-0.547882
C	-0.609687	1.0533	-0.0934715
C	0.662006	0.876492	0.532352
C	0.959764	-0.448471	0.405127
O	-0.0300473	-1.10832	-0.252058
H	-1.87411	-0.521503	-1.08908
H	-1.17746	1.99273	-0.189358
H	1.27626	1.65159	1.01816
H	1.83187	-1.03675	0.734698
C	5.93964	1.07004	-0.216369
C	4.63373	0.661931	-0.387168
N	4.47886	-0.638756	-0.0396933
C	5.68411	-1.03604	0.345206
N	6.59943	-0.042056	0.257034
H	6.4298	2.04077	-0.392333
H	3.80049	1.28269	-0.754895
H	5.95199	-2.04402	0.700814
H	7.61769	-0.106315	0.502525
