18
  This energy is -0.7444 and Call times are: 47753
C	1.12179	0.105762	-0.129596
C	0.330983	-0.489392	-1.0681
C	-0.999536	-0.431578	-0.551867
C	-0.904333	0.193802	0.656524
O	0.383962	0.528931	0.930378
H	2.20863	0.287587	-0.0981637
H	0.652349	-0.925381	-2.02765
H	-1.91488	-0.813829	-1.03158
H	-1.66879	0.45607	1.40624
C	5.54127	-1.173	-0.0864258
C	4.87854	-0.304112	-0.927249
N	5.04411	0.981173	-0.530838
C	5.80665	0.909915	0.55179
N	6.13312	-0.36743	0.860653
H	5.63061	-2.27094	-0.0947252
H	4.2839	-0.581594	-1.81283
H	6.15545	1.76231	1.15677
H	6.72444	-0.683845	1.6678
