18
  This energy is -1.21 and Call times are: 90468
C	0.0937769	-0.668057	0.91176
C	0.437548	-1.08768	-0.339683
C	0.182041	0.018166	-1.20682
C	-0.295311	1.01594	-0.408727
O	-0.355842	0.614245	0.888188
H	0.12215	-1.17954	1.88789
H	0.831532	-2.07673	-0.623682
H	0.338532	0.0569964	-2.29682
H	-0.622451	2.04314	-0.639133
C	4.8345	1.14838	0.249036
C	3.81035	0.227581	0.315197
N	4.23979	-1.00734	-0.0412493
C	5.52547	-0.853241	-0.327452
N	5.93186	0.428543	-0.167883
H	4.85926	2.22892	0.462029
H	2.76926	0.43217	0.613742
H	6.2158	-1.64571	-0.658598
H	6.89868	0.802701	-0.330734
