18
  This energy is -1.9966 and Call times are: 138009
C	0.493814	0.0837042	1.01762
C	0.218871	1.17512	0.24716
C	-0.392581	0.670878	-0.941112
C	-0.437311	-0.684152	-0.791894
O	0.0997647	-1.06019	0.39855
H	0.961083	-0.0105676	2.01161
H	0.425876	2.2295	0.491133
H	-0.753917	1.25658	-1.80163
H	-0.820817	-1.48002	-1.45126
C	4.14106	-0.694346	-0.684674
C	5.50657	-0.51708	-0.756222
N	5.93602	0.356125	0.186961
C	4.8411	0.719191	0.841146
N	3.73279	0.113189	0.353298
H	3.45389	-1.31722	-1.27911
H	6.18959	-1.0036	-1.4715
H	4.7942	1.42572	1.68545
H	2.74976	0.235245	0.699747
