18
  This energy is -0.9177 and Call times are: 103324
C	-0.349252	0.0203421	1.07889
C	0.000315778	1.15222	0.402847
C	0.378167	0.724611	-0.906542
C	0.226143	-0.630819	-0.915056
O	-0.21737	-1.0779	0.289281
H	-0.703376	-0.134676	2.11128
H	-0.00715637	2.18468	0.787627
H	0.721905	1.35962	-1.73883
H	0.397761	-1.38081	-1.70456
C	4.10531	0.423374	-0.465236
C	4.742	-0.752104	-0.802906
N	5.86529	-0.928625	-0.0656307
C	5.92523	0.133307	0.726412
N	4.88664	0.978183	0.523651
H	3.1823	0.888809	-0.845966
H	4.41098	-1.476	-1.56531
H	6.70804	0.342075	1.47331
H	4.71021	1.8834	1.02435
