18
  This energy is -0.5314 and Call times are: 115434
C	0.553214	-0.986324	-0.0867152
C	1.19321	0.21707	-0.137909
C	0.174498	1.20806	0.00447954
C	-0.998089	0.52277	0.130116
O	-0.785502	-0.818482	0.0766315
H	0.932177	-2.01936	-0.153605
H	2.27423	0.389592	-0.263358
H	0.308628	2.30171	0.0113801
H	-2.03656	0.868604	0.261346
C	6.05352	-0.22362	-1.10229
C	5.35147	-0.485835	0.0550879
N	6.05079	-0.0981423	1.14924
C	7.18237	0.402681	0.672453
N	7.23203	0.349718	-0.679701
H	5.80612	-0.398605	-2.1614
H	4.35288	-0.947815	0.12024
H	8.0086	0.821552	1.26922
H	8.01846	0.682083	-1.28989
