18
  This energy is -0.9676 and Call times are: 18913
C	-0.525548	-0.766137	0.650565
C	0.621445	-1.05012	-0.0307092
C	0.971441	0.148649	-0.723944
C	0.00742871	1.05936	-0.405098
O	-0.914825	0.517732	0.433412
H	-1.15309	-1.38278	1.3148
H	1.16639	-2.0077	-0.0437685
H	1.8417	0.305314	-1.38136
H	-0.133125	2.11069	-0.705435
C	5.63103	-0.812404	0.841383
C	4.63221	-0.757532	-0.107564
N	4.78932	0.315002	-0.920888
C	5.88145	0.92319	-0.478189
N	6.42574	0.282084	0.583095
H	5.82602	-1.52895	1.65506
H	3.80102	-1.47262	-0.219935
H	6.32657	1.84125	-0.894447
H	7.28872	0.564888	1.10898
