18
  This energy is -1.0002 and Call times are: 78495
C	1.01223	0.46442	-0.214703
C	0.60839	0.144666	1.04825
C	-0.701214	-0.408855	0.911606
C	-0.982041	-0.378487	-0.42278
O	0.0533106	0.151728	-1.12558
H	1.94571	0.913201	-0.592163
H	1.17579	0.284555	1.98237
H	-1.35108	-0.78346	1.71872
H	-1.87075	-0.699876	-0.990364
C	4.98258	1.0283	0.391741
C	5.88088	0.201672	1.03274
N	6.14183	-0.903411	0.293008
C	5.4082	-0.762885	-0.802739
N	4.69129	0.385801	-0.790856
H	4.5446	1.99601	0.683709
H	6.34539	0.382848	2.01573
H	5.35855	-1.47122	-1.64537
H	4.03801	0.72277	-1.53982
