18
  This energy is -1.1289 and Call times are: 96365
C	1.03299	0.456699	0.103695
C	0.64539	-0.227541	-1.01073
C	-0.699703	-0.641686	-0.767166
C	-1.01533	-0.173965	0.474604
O	0.0311926	0.499214	1.02108
H	1.98187	0.954392	0.362897
H	1.24639	-0.421203	-1.91372
H	-1.34896	-1.22029	-1.44376
H	-1.93801	-0.252515	1.07271
C	4.71199	0.737486	0.870778
C	5.29779	1.06717	-0.333085
N	5.48918	-0.0329966	-1.10088
C	5.02388	-1.04136	-0.376091
N	4.54437	-0.62839	0.821035
H	4.41252	1.35751	1.73068
H	5.58577	2.07916	-0.661413
H	5.01	-2.10216	-0.674012
H	4.12484	-1.23341	1.56883
