18
  This energy is -1.4087 and Call times are: 99008
C	0.0694151	-1.09783	0.276329
C	0.781384	-0.134139	0.92808
C	0.431208	1.10115	0.302342
C	-0.463836	0.783286	-0.67655
O	-0.696416	-0.555375	-0.706656
H	0.0206761	-2.19037	0.415001
H	1.48279	-0.278664	1.76548
H	0.807133	2.10482	0.558118
H	-0.999811	1.40953	-1.40853
C	4.12944	-0.876917	0.691951
C	4.31738	-0.922986	-0.673223
N	4.75227	0.269829	-1.14711
C	4.83381	1.05291	-0.0799885
N	4.46883	0.407791	1.05324
H	3.78953	-1.64192	1.40804
H	4.14698	-1.79554	-1.32474
H	5.15495	2.10697	-0.0719321
H	4.44831	0.809694	2.02242
