18
  This energy is -1.424 and Call times are: 105379
C	-0.196669	0.340324	-1.06391
C	0.960749	-0.281769	-0.69818
C	0.835392	-0.550884	0.698953
C	-0.387564	-0.0694866	1.06366
O	-1.03156	0.478209	-0.000443926
H	-0.542508	0.728301	-2.03608
H	1.8169	-0.526585	-1.34715
H	1.57503	-1.04584	1.34861
H	-0.907826	-0.0559567	2.03546
C	4.37103	1.01826	0.261583
C	5.15635	0.254677	1.09905
N	5.60476	-0.857952	0.468569
C	5.09953	-0.784891	-0.755371
N	4.34825	0.328102	-0.929783
H	3.84433	1.97212	0.423692
H	5.40745	0.486646	2.1469
H	5.24814	-1.51926	-1.56336
H	3.84442	0.611329	-1.80568
