18
  This energy is -1.0872 and Call times are: 69132
C	-0.202668	-1.07815	-0.28794
C	-1.03091	-0.374093	0.535889
C	-0.448689	0.924375	0.658861
C	0.683937	0.899164	-0.100677
O	0.84976	-0.316038	-0.686168
H	-0.250986	-2.11417	-0.661547
H	-1.95876	-0.733102	1.00948
H	-0.83538	1.77228	1.24675
H	1.44572	1.66983	-0.30318
C	4.65951	0.358546	-0.841556
C	4.3815	0.22168	0.501992
N	5.46847	-0.21411	1.18397
C	6.4172	-0.347092	0.266993
N	5.97893	-0.0139771	-0.970161
H	4.03272	0.683824	-1.68705
H	3.41608	0.429572	0.991483
H	7.45054	-0.68477	0.447011
H	6.53777	-0.0354009	-1.85814
