18
  This energy is -1.3634 and Call times are: 81203
C	-0.0881442	-0.604159	0.955836
C	1.09151	-0.465961	0.285251
C	0.80268	0.351885	-0.849571
C	-0.527981	0.641264	-0.77228
O	-1.08787	0.0655161	0.3241
H	-0.343894	-1.14563	1.88139
H	2.0672	-0.896728	0.56197
H	1.5099	0.6813	-1.62766
H	-1.18561	1.23774	-1.42572
C	4.50741	-0.342985	-0.957232
C	5.23019	-1.14524	-0.0998358
N	5.78487	-0.417199	0.899568
C	5.40763	0.831955	0.663074
N	4.63592	0.928894	-0.445375
H	3.92997	-0.579277	-1.86512
H	5.36138	-2.23633	-0.18445
H	5.66818	1.71413	1.26979
H	4.21557	1.80585	-0.839729
