18
  This energy is -1.1134 and Call times are: 103260
C	0.164423	-0.714543	-0.865329
C	0.328707	0.633724	-0.990067
C	0.0350596	1.18393	0.294909
C	-0.282745	0.123314	1.09144
O	-0.208918	-1.04391	0.399244
H	0.281009	-1.53556	-1.59168
H	0.626772	1.18547	-1.89606
H	0.060182	2.24709	0.583288
H	-0.57474	0.0678538	2.15301
C	4.57555	1.13111	-0.0202691
C	3.81593	0.0597511	0.399634
N	4.50487	-1.10178	0.286837
C	5.68738	-0.75233	-0.201187
N	5.7794	0.583394	-0.403579
H	4.35208	2.20859	-0.0717265
H	2.78311	0.104071	0.78196
H	6.52232	-1.43437	-0.429064
H	6.60963	1.10282	-0.780651
