18
  This energy is -0.6235 and Call times are: 79756
C	-0.441495	0.943796	0.448033
C	-0.911112	-0.299413	0.755059
C	-0.112605	-1.2154	0.00440785
C	0.77448	-0.451072	-0.695065
O	0.587941	0.869985	-0.436177
H	-0.750198	1.94627	0.787153
H	-1.73698	-0.546632	1.4413
H	-0.196265	-2.31402	-0.00707944
H	1.57682	-0.723101	-1.4004
C	5.50241	-0.395454	1.09072
C	4.67989	-0.545741	-0.00564826
N	5.21946	0.0353551	-1.10461
C	6.37233	0.544203	-0.691572
N	6.58866	0.310959	0.62463
H	5.3952	-0.730047	2.13479
H	3.7068	-1.06305	-0.0233998
H	7.09646	1.09714	-1.31135
H	7.42459	0.611066	1.18357
