18
  This energy is -1.0114 and Call times are: 19265
C	0.655777	-0.45633	-0.805059
C	0.0690058	-1.20656	0.171274
C	-0.66497	-0.287998	0.982223
C	-0.461927	0.942467	0.42986
O	0.342273	0.858355	-0.662476
H	1.31009	-0.735037	-1.64735
H	0.145376	-2.29739	0.306803
H	-1.27082	-0.525022	1.87152
H	-0.828867	1.94185	0.715929
C	6.32773	-0.331265	-0.0597672
C	5.3236	-0.940148	0.662815
N	4.14419	-0.292326	0.502127
C	4.41561	0.71462	-0.317027
N	5.71883	0.734339	-0.684201
H	7.39686	-0.572796	-0.170132
H	5.42901	-1.83529	1.29722
H	3.69724	1.46721	-0.680035
H	6.17794	1.42902	-1.32287
