18
  This energy is -1.2495 and Call times are: 17149
C	-0.321893	0.0954389	-1.08336
C	0.49636	-0.906084	-0.65002
C	0.669991	-0.690418	0.751215
C	-0.0574872	0.423857	1.05045
O	-0.669859	0.916903	-0.0581182
H	-0.723895	0.330317	-2.0826
H	0.933792	-1.71552	-1.25629
H	1.26881	-1.2994	1.44739
H	-0.217901	0.958814	2.00089
C	4.31101	-0.922454	0.243846
C	4.15454	0.370115	0.69764
N	5.13184	1.17772	0.218909
C	5.8917	0.389161	-0.529032
N	5.43839	-0.886696	-0.546036
H	3.7196	-1.83477	0.421191
H	3.354	0.734433	1.3619
H	6.79194	0.694419	-1.08637
H	5.86455	-1.69471	-1.06253
