18
  This energy is -0.5518 and Call times are: 53801
C	-0.926033	0.572394	-0.318164
C	0.0571194	0.226555	-1.19804
C	1.03917	-0.472642	-0.431999
C	0.569442	-0.492349	0.848368
O	-0.629621	0.141332	0.936163
H	-1.87356	1.11816	-0.458096
H	0.0877162	0.442186	-2.27816
H	1.98258	-0.906908	-0.800091
H	0.988339	-0.919448	1.77431
C	6.74292	0.0853683	-0.510281
C	7.83319	0.902004	-0.723718
N	8.88901	0.515078	0.0326154
C	8.45539	-0.537592	0.712675
N	7.16744	-0.836486	0.420394
H	5.72882	0.0946819	-0.940463
H	7.8769	1.76346	-1.4099
H	9.03945	-1.12684	1.43786
H	6.6003	-1.621	0.82555
