18
  This energy is -0.3969 and Call times are: 121604
C	0.301062	1.01942	-0.395656
C	0.864834	-0.136277	-0.850516
C	0.234594	-1.19153	-0.122945
C	-0.658674	-0.587524	0.712295
O	-0.631423	0.762584	0.559078
H	0.474449	2.07369	-0.667126
H	1.64613	-0.2357	-1.62109
H	0.430088	-2.2718	-0.217246
H	-1.36221	-1.00153	1.45317
C	6.57277	-0.447247	-0.925742
C	5.85541	0.7296	-0.886148
N	5.32554	0.937719	0.343663
C	5.71271	-0.106048	1.06427
N	6.46696	-0.969655	0.343936
H	7.13241	-0.933719	-1.74041
H	5.71068	1.43225	-1.72292
H	5.47211	-0.287693	2.12415
H	6.89046	-1.86634	0.68724
