18
  This energy is -1.1492 and Call times are: 112089
C	-0.204211	-0.659513	-0.899856
C	0.80269	-0.919391	-0.0172528
C	0.741134	0.117972	0.962648
C	-0.297949	0.920191	0.592346
O	-0.886648	0.460271	-0.542959
H	-0.533603	-1.18799	-1.80951
H	1.51711	-1.75751	-0.0526891
H	1.39833	0.244071	1.83802
H	-0.712991	1.83511	1.04613
C	4.74183	-0.748893	0.870403
C	4.35513	0.570956	0.772419
N	4.83072	1.13642	-0.363617
C	5.50988	0.171038	-0.9681
N	5.48614	-0.985225	-0.263769
H	4.54655	-1.51126	1.64125
H	3.74148	1.12534	1.50108
H	6.04378	0.256792	-1.92822
H	5.94693	-1.88946	-0.53079
