18
  This energy is -0.9661 and Call times are: 40048
C	-0.411116	-0.413477	0.972842
C	-0.175423	0.916951	0.786331
C	0.331239	1.04164	-0.543279
C	0.360433	-0.223596	-1.0519
O	-0.0894886	-1.12486	-0.13959
H	-0.801168	-0.972442	1.83925
H	-0.341674	1.72906	1.51223
H	0.635927	1.96965	-1.05324
H	0.675351	-0.609067	-2.03551
C	4.46588	0.513976	0.84783
C	4.11959	0.382817	-0.480335
N	5.0865	-0.263575	-1.17587
C	6.02906	-0.532399	-0.282592
N	5.70194	-0.0838444	0.952474
H	3.93781	0.975045	1.69759
H	3.18938	0.743014	-0.94919
H	6.97881	-1.05543	-0.479171
H	6.27982	-0.174248	1.82376
