18
  This energy is -0.5055 and Call times are: 21060
C	0.99841	-0.111593	0.526426
C	-0.174777	0.0295087	1.20767
C	-1.19374	0.139888	0.212858
C	-0.553272	0.0564931	-0.988483
O	0.785965	-0.0972879	-0.815838
H	2.03725	-0.229225	0.876028
H	-0.30915	0.0534616	2.30105
H	-2.27523	0.266437	0.38156
H	-0.932213	0.0924422	-2.02307
C	5.97203	-0.301692	1.13723
C	5.10255	-0.714546	0.149963
N	5.43002	-0.171796	-1.04782
C	6.4986	0.574926	-0.804556
N	6.8646	0.52979	0.498363
H	6.01727	-0.533027	2.21332
H	4.2448	-1.39432	0.280466
H	7.05232	1.17544	-1.54415
H	7.67407	1.03243	0.938096
