18
  This energy is -1.1324 and Call times are: 33446
C	-0.721299	-0.394209	-0.781491
C	0.232202	-1.1807	-0.204739
C	0.931058	-0.338468	0.713064
C	0.342925	0.88835	0.616148
O	-0.668083	0.872488	-0.291941
H	-1.48796	-0.613879	-1.54257
H	0.424162	-2.24698	-0.405474
H	1.7726	-0.621898	1.36542
H	0.548656	1.84056	1.13211
C	5.64429	-1.16799	0.00795766
C	6.60183	-0.217841	-0.277471
N	6.08881	1.03363	-0.192982
C	4.81783	0.860511	0.143581
N	4.50091	-0.44923	0.276739
H	5.69395	-2.26808	0.0378332
H	7.65368	-0.412895	-0.542855
H	4.07518	1.65835	0.305294
H	3.56291	-0.842284	0.535441
