18
  This energy is -1.0635 and Call times are: 33987
C	-0.853784	-0.597916	0.447158
C	0.420983	-1.07905	0.385107
C	1.19676	-0.0521482	-0.234371
C	0.327579	0.965862	-0.496188
O	-0.929103	0.649671	-0.0865703
H	-1.78353	-1.0396	0.841786
H	0.779088	-2.05881	0.739967
H	2.27595	-0.0774086	-0.455311
H	0.477249	1.95301	-0.963501
C	6.91324	-1.14183	-0.189318
C	7.31078	-0.0837522	-0.978984
N	6.8919	1.0966	-0.461475
C	6.23699	0.772016	0.645031
N	6.22181	-0.565932	0.853008
H	7.06827	-2.22764	-0.291917
H	7.89235	-0.150899	-1.91286
H	5.74918	1.47457	1.3398
H	5.76949	-1.06877	1.6554
