18
  This energy is -1.1526 and Call times are: 115177
C	0.860427	0.731266	-0.106378
C	0.857301	-0.487131	-0.719463
C	-0.375636	-1.10704	-0.351083
C	-1.0171	-0.21273	0.454595
O	-0.27663	0.915561	0.614835
H	1.60205	1.54689	-0.104551
H	1.64427	-0.907204	-1.36623
H	-0.734669	-2.10331	-0.655444
H	-1.99098	-0.259643	0.968987
C	4.21113	-0.40424	0.493779
C	4.95355	-1.01702	-0.493366
N	6.03377	-0.269913	-0.827218
C	5.96177	0.802276	-0.0501413
N	4.88051	0.768337	0.764301
H	3.28473	-0.709429	1.00582
H	4.72911	-1.98483	-0.970672
H	6.67441	1.64262	-0.0366312
H	4.60465	1.49652	1.4678
