18
  This energy is -0.5151 and Call times are: 117839
C	0.376118	-0.917627	0.550361
C	-0.73831	-0.236186	0.942869
C	-0.885454	0.840014	0.0153665
C	0.152046	0.721219	-0.862047
O	0.93256	-0.34679	-0.550334
H	0.869976	-1.81192	0.964595
H	-1.39125	-0.468109	1.7996
H	-1.67516	1.60841	0.00998794
H	0.441169	1.32435	-1.73834
C	5.97813	0.794056	0.386107
C	4.66519	1.02533	0.0341794
N	4.05817	-0.117983	-0.366907
C	4.99098	-1.05497	-0.264193
N	6.16635	-0.555228	0.18562
H	6.76557	1.47156	0.752799
H	4.14505	1.99666	0.0624868
H	4.86685	-2.12301	-0.505269
H	7.05225	-1.09313	0.350276
