18
  This energy is -1.6928 and Call times are: 5376
C	0.273295	-0.97378	0.513287
C	0.276727	0.222903	1.16774
C	-0.116444	1.19827	0.201205
C	-0.32543	0.511515	-0.958566
O	-0.0920539	-0.816206	-0.786214
H	0.50818	-1.99499	0.855655
H	0.530655	0.400927	2.22506
H	-0.227966	2.28289	0.360133
H	-0.637603	0.847431	-1.96104
C	3.55681	-0.0302974	1.08984
C	4.01045	1.08117	0.411623
N	4.45427	0.751245	-0.825585
C	4.27663	-0.55992	-0.914557
N	3.73819	-1.07792	0.214755
H	3.13192	-0.14603	2.0996
H	4.02547	2.11524	0.79284
H	4.52358	-1.19044	-1.78386
H	3.50359	-2.0856	0.390279
