18
  This energy is -0.9132 and Call times are: 102397
C	-0.474958	-0.156692	-1.01797
C	0.314454	-1.09925	-0.427386
C	0.717765	-0.54273	0.82471
C	0.139207	0.69078	0.888732
O	-0.592824	0.94302	-0.22819
H	-1.00441	-0.147981	-1.98485
H	0.585557	-2.0873	-0.832792
H	1.36374	-1.0135	1.58312
H	0.170922	1.47383	1.66402
C	4.57421	-0.108654	-0.920066
C	4.44685	-0.716984	0.31073
N	5.46385	-0.36825	1.13572
C	6.21925	0.453301	0.419455
N	5.72506	0.641749	-0.827078
H	3.94822	-0.155092	-1.82533
H	3.63936	-1.40127	0.618241
H	7.14512	0.94499	0.758932
H	6.13959	1.24463	-1.57938
