18
  This energy is -2.3321 and Call times are: 62191
C	0.33407	0.979328	0.464452
C	0.392301	-0.205623	1.13741
C	-0.107325	-1.19307	0.2344
C	-0.426764	-0.524372	-0.910663
O	-0.163667	0.803299	-0.787859
H	0.612952	2.00353	0.761934
H	0.751094	-0.368047	2.16648
H	-0.21293	-2.27333	0.424125
H	-0.843062	-0.874116	-1.86963
C	3.75911	1.17497	-0.0324819
C	4.28441	0.346466	0.936435
N	4.02988	-0.954928	0.656972
C	3.34927	-0.933859	-0.480988
N	3.1602	0.326995	-0.937157
H	3.76879	2.2714	-0.138692
H	4.8425	0.664422	1.83214
H	2.96533	-1.81276	-1.02354
H	2.65385	0.605536	-1.8131
