18
  This energy is -1.0729 and Call times are: 60572
C	0.293529	0.983833	-0.48199
C	-0.933727	0.782277	0.0780013
C	-0.922705	-0.5578	0.572156
C	0.310314	-1.05685	0.270513
O	1.06619	-0.128921	-0.373398
H	0.733448	1.862	-0.982528
H	-1.76353	1.50479	0.137161
H	-1.74226	-1.08088	1.09063
H	0.765569	-2.04326	0.457543
C	4.58833	0.528079	1.03025
C	5.53337	-0.443504	0.777144
N	5.50247	-0.828601	-0.521801
C	4.54191	-0.0986974	-1.07243
N	3.96036	0.73485	-0.177674
H	4.32696	1.06894	1.95367
H	6.23695	-0.873523	1.50851
H	4.22342	-0.134661	-2.1267
H	3.17981	1.41	-0.367876
