18
  This energy is -1.1795 and Call times are: 135186
C	0.924995	-0.124451	-0.644436
C	0.604681	1.05925	-0.04726
C	-0.609206	0.821067	0.666787
C	-0.923523	-0.487162	0.442921
O	0.00259904	-1.0799	-0.355806
H	1.77059	-0.412092	-1.29057
H	1.16682	2.00524	-0.103901
H	-1.17537	1.54566	1.27385
H	-1.76693	-1.10621	0.790316
C	4.87273	-0.724396	0.924691
C	4.50858	-1.05939	-0.36229
N	4.53235	0.0249738	-1.17476
C	4.90981	1.02886	-0.394778
N	5.12719	0.628182	0.880289
H	4.9657	-1.33252	1.83852
H	4.22913	-2.06408	-0.719152
H	5.04287	2.0775	-0.706003
H	5.43157	1.23271	1.68226
