18
  This energy is -0.9072 and Call times are: 133247
C	-0.272707	1.09538	0.110371
C	1.00306	0.640477	0.271211
C	0.945095	-0.770399	0.0562984
C	-0.36097	-1.05312	-0.2169
O	-1.11886	0.0746164	-0.188095
H	-0.702084	2.10825	0.180923
H	1.89541	1.23846	0.51658
H	1.78358	-1.48381	0.101908
H	-0.870994	-2.00334	-0.445378
C	6.08421	-0.7992	0.527475
C	5.17075	0.0372296	1.13337
N	4.55663	0.831432	0.223091
C	5.0871	0.489006	-0.943088
N	6.01327	-0.490149	-0.812541
H	6.75727	-1.56688	0.941241
H	4.94381	0.0818752	2.21104
H	4.83355	0.923307	-1.92356
H	6.57105	-0.930069	-1.58495
