18
  This energy is -0.6828 and Call times are: 93352
C	1.09407	-0.0086859	-0.298907
C	0.508809	1.0684	0.2992
C	-0.8543	0.701714	0.517357
C	-0.981688	-0.567081	0.0333045
O	0.198422	-1.01661	-0.468964
H	2.12568	-0.180357	-0.647551
H	0.988832	2.02515	0.560548
H	-1.64128	1.31763	0.981479
H	-1.8467	-1.24896	-0.0117964
C	6.66705	0.214019	-0.866561
C	5.32981	0.549305	-0.843581
N	4.74577	0.150139	0.312306
C	5.71699	-0.43057	1.00378
N	6.89478	-0.417437	0.335766
H	7.44672	0.374725	-1.62802
H	4.77596	1.07208	-1.64033
H	5.62041	-0.881986	2.00434
H	7.80752	-0.812929	0.67005
