18
  This energy is -0.402 and Call times are: 125533
C	1.11193	-0.180989	-0.13132
C	0.168748	-0.97678	-0.71226
C	-1.09399	-0.437077	-0.319422
C	-0.810979	0.640875	0.466896
O	0.531386	0.812006	0.592515
H	2.2135	-0.21558	-0.155878
H	0.344585	-1.85568	-1.35313
H	-2.09187	-0.814325	-0.595153
H	-1.46639	1.35723	0.988932
C	7.47322	0.728141	0.303945
C	7.40269	-0.626941	0.548738
N	6.25371	-1.15279	0.0590006
C	5.61389	-0.12783	-0.487534
N	6.30813	1.02837	-0.365839
H	8.24434	1.47514	0.550741
H	8.16027	-1.23461	1.06995
H	4.63402	-0.168181	-0.989989
H	6.01476	1.97345	-0.715156
