18
  This energy is -1.3046 and Call times are: 20519
C	-0.590379	-0.443327	-0.860996
C	-0.119325	0.836552	-0.880813
C	0.561589	1.02185	0.361016
C	0.446523	-0.161156	1.03007
O	-0.254	-1.06732	0.298529
H	-1.17072	-1.0203	-1.59961
H	-0.239313	1.57599	-1.68886
H	1.07451	1.93352	0.707244
H	0.813605	-0.480307	2.01934
C	5.12403	-0.156162	1.04216
C	4.11167	0.733171	0.749985
N	3.74561	0.646313	-0.551924
C	4.5279	-0.293331	-1.06546
N	5.37653	-0.807939	-0.144269
H	5.66461	-0.364404	1.97915
H	3.63884	1.43593	1.45525
H	4.52111	-0.643422	-2.11027
H	6.09076	-1.56012	-0.303498
