18
  This energy is -0.6853 and Call times are: 91087
C	0.55289	0.986792	0.0833963
C	-0.651778	0.875458	-0.546486
C	-1.02069	-0.500623	-0.44437
C	-0.00888632	-1.10871	0.2389
O	0.960529	-0.215275	0.569068
H	1.21277	1.85376	0.25125
H	-1.22328	1.6815	-1.03411
H	-1.93509	-0.973639	-0.837077
H	0.137697	-2.15643	0.548838
C	5.75108	-0.694169	-0.692332
C	4.42423	-0.362055	-0.866444
N	3.99244	0.45928	0.12122
C	5.04741	0.636027	0.905072
N	6.13254	-0.038802	0.457089
H	6.42825	-1.32932	-1.28525
H	3.77074	-0.700361	-1.68702
H	5.08035	1.24957	1.81979
H	7.08331	-0.0589368	0.900811
