18
  This energy is -1.2004 and Call times are: 9074
C	-0.0829058	-0.766613	-0.831764
C	-1.04052	0.179544	-0.612353
C	-0.584524	0.945975	0.50334
C	0.611484	0.400515	0.867223
O	0.933293	-0.646407	0.0626083
H	-0.00834217	-1.57118	-1.58167
H	-1.97433	0.323333	-1.17929
H	-1.09449	1.80216	0.973428
H	1.32052	0.662358	1.66969
C	4.10318	0.243964	-0.576133
C	5.37635	0.207161	-1.10417
N	6.29027	-0.108143	-0.154516
C	5.58675	-0.266344	0.95843
N	4.26308	-0.0647689	0.756272
H	3.12724	0.460774	-1.0388
H	5.65187	0.402468	-2.15336
H	5.99067	-0.529859	1.94921
H	3.50337	-0.131041	1.47717
