18
  This energy is -1.8946 and Call times are: 79297
C	-0.0700916	-0.727107	0.867643
C	0.766622	-0.930608	-0.190125
C	0.572617	0.183853	-1.06217
C	-0.365524	0.970004	-0.460309
O	-0.769151	0.428877	0.719215
H	-0.258013	-1.3224	1.77625
H	1.45171	-1.78028	-0.341148
H	1.07738	0.370065	-2.02375
H	-0.823385	1.92538	-0.76506
C	4.76313	-1.08114	0.0418157
C	5.03995	-0.0975707	-0.883987
N	4.3258	1.02613	-0.631433
C	3.60866	0.740767	0.446946
N	3.83692	-0.517925	0.890999
H	5.14689	-2.10776	0.152749
H	5.74218	-0.178617	-1.72965
H	2.90068	1.41692	0.952735
H	3.39292	-0.977265	1.72355
