18
  This energy is -0.8034 and Call times are: 105827
C	-0.964328	0.204506	-0.560936
C	-0.783374	0.573854	0.73953
C	0.535982	0.150534	1.08626
C	1.0448	-0.440129	-0.0329388
O	0.142083	-0.41603	-1.04858
H	-1.82256	0.32436	-1.24235
H	-1.50644	1.09238	1.38945
H	1.03925	0.27559	2.05846
H	2.02232	-0.909283	-0.23192
C	7.94904	0.785803	-0.216201
C	6.94049	0.893153	0.717856
N	6.13676	-0.197756	0.6967
C	6.64476	-0.978905	-0.246892
N	7.7384	-0.430238	-0.826991
H	8.77421	1.46602	-0.480661
H	6.77837	1.73821	1.40666
H	6.25526	-1.96303	-0.553504
H	8.31585	-0.851019	-1.5956
