18
  This energy is -0.7257 and Call times are: 97901
C	0.613993	-0.379111	0.875036
C	1.187	0.098712	-0.266768
C	0.104701	0.47424	-1.11983
C	-1.03415	0.192747	-0.424016
O	-0.741852	-0.329057	0.796352
H	1.05552	-0.778506	1.80282
H	2.26381	0.178706	-0.486275
H	0.175515	0.903285	-2.13225
H	-2.09854	0.315862	-0.683182
C	6.85746	0.195928	-0.65572
C	6.39471	0.972097	0.385705
N	5.26341	0.450214	0.9189
C	5.02523	-0.64555	0.210947
N	5.9581	-0.8425	-0.750594
H	7.73389	0.305403	-1.31407
H	6.85687	1.89931	0.761909
H	4.18177	-1.33996	0.354469
H	5.99016	-1.63521	-1.4375
