18
  This energy is -1.1 and Call times are: 91674
C	0.508426	1.01234	0.0553817
C	-0.735691	0.848062	-0.478996
C	-1.02694	-0.546025	-0.37032
C	0.064907	-1.11059	0.220876
O	1.01231	-0.173466	0.487779
H	1.13602	1.90939	0.184546
H	-1.38334	1.63013	-0.906793
H	-1.94531	-1.05975	-0.697102
H	0.287256	-2.15327	0.501253
C	4.823	0.0743817	1.17432
C	4.07723	-0.802336	0.415148
N	4.29502	-0.609876	-0.908498
C	5.17256	0.382465	-0.970243
N	5.52215	0.829377	0.259247
H	4.90299	0.209924	2.26463
H	3.38593	-1.5703	0.798778
H	5.5925	0.820722	-1.88993
H	6.19717	1.60352	0.474426
