18
  This energy is -0.8935 and Call times are: 63679
C	0.842246	0.751845	-0.108405
C	1.0625	-0.544544	0.253862
C	-0.22299	-1.16651	0.281817
C	-1.11532	-0.195289	-0.0658354
O	-0.482149	0.982691	-0.307651
H	1.53416	1.59708	-0.257005
H	2.03287	-1.01558	0.478833
H	-0.447484	-2.21566	0.532772
H	-2.21204	-0.215455	-0.17554
C	5.15353	-0.34952	-0.840068
C	4.91345	0.587204	0.142812
N	5.9958	0.74417	0.943056
C	6.90389	-0.0919978	0.458469
N	6.44419	-0.774483	-0.61693
H	4.51845	-0.73106	-1.65532
H	3.97865	1.1526	0.288869
H	7.9215	-0.244154	0.852855
H	6.97066	-1.49087	-1.1745
