18
  This energy is -1.1152 and Call times are: 30759
C	-0.220346	1.09455	-0.199518
C	0.954484	0.50717	-0.567121
C	0.856956	-0.855886	-0.15157
C	-0.368863	-0.981123	0.433287
O	-1.04035	0.200274	0.412758
H	-0.589235	2.12691	-0.315341
H	1.8045	0.985737	-1.07951
H	1.61632	-1.64427	-0.277705
H	-0.873453	-1.84533	0.895664
C	5.43184	-1.11911	-0.150192
C	4.73766	-0.33443	-1.04659
N	4.52356	0.906582	-0.546026
C	5.08279	0.891844	0.656331
N	5.64384	-0.307102	0.94154
H	5.77842	-2.16307	-0.209931
H	4.38746	-0.641511	-2.04554
H	5.11032	1.73162	1.36925
H	6.14487	-0.568335	1.82584
