18
  This energy is -0.8249 and Call times are: 63513
C	-0.736969	0.185762	0.841885
C	0.570739	-0.126568	1.07151
C	1.16738	-0.283048	-0.216766
C	0.171608	-0.0525262	-1.11991
O	-0.998238	0.23525	-0.490894
H	-1.57112	0.393384	1.53206
H	1.06557	-0.235808	2.04993
H	2.21679	-0.537734	-0.435787
H	0.167631	-0.0626305	-2.22224
C	6.74695	-0.470664	-0.259726
C	5.90503	-0.841115	0.767443
N	4.78	-0.0856213	0.773683
C	4.92343	0.750338	-0.245739
N	6.0931	0.558056	-0.900345
H	7.73225	-0.85352	-0.56981
H	6.08921	-1.63999	1.50415
H	4.20242	1.52323	-0.557196
H	6.43645	1.09107	-1.73656
