18
  This energy is -1.6692 and Call times are: 47224
C	0.478311	0.0156458	-1.02829
C	-0.0959744	1.12116	-0.472943
C	-0.579822	0.709569	0.806354
C	-0.258495	-0.611129	0.919838
O	0.388123	-1.05142	-0.191484
H	0.977859	-0.1394	-1.99868
H	-0.171315	2.12571	-0.919383
H	-1.1049	1.33154	1.54901
H	-0.432173	-1.33886	1.72946
C	3.88581	-0.809476	0.85419
C	3.98119	0.557108	1.0107
N	3.96844	1.18833	-0.188424
C	3.86554	0.217037	-1.08543
N	3.81229	-1.00603	-0.506748
H	3.86572	-1.6287	1.59041
H	4.05898	1.09893	1.96738
H	3.825	0.345702	-2.17906
H	3.73057	-1.9283	-1.00069
