18
  This energy is -1.3346 and Call times are: 20194
C	0.862267	0.527607	-0.514323
C	0.198845	1.07406	0.544751
C	-0.8043	0.124999	0.909596
C	-0.66533	-0.917624	0.0412663
O	0.347725	-0.688641	-0.83526
H	1.70613	0.898773	-1.11879
H	0.396093	2.04778	1.02125
H	-1.53947	0.216582	1.72522
H	-1.21724	-1.86698	-0.0555554
C	3.98288	0.703149	0.714032
C	3.96528	-0.67539	0.692435
N	4.79977	-1.15986	-0.259109
C	5.33303	-0.0859586	-0.82567
N	4.87243	1.06172	-0.274054
H	3.44334	1.43012	1.34168
H	3.36541	-1.3291	1.3464
H	6.06593	-0.0830014	-1.64852
H	5.14166	2.03857	-0.547055
