18
  This energy is -1.2528 and Call times are: 105891
C	0.456438	0.977297	-0.350651
C	-0.520201	0.926881	0.600143
C	-0.831045	-0.457025	0.768362
C	-0.0169178	-1.13013	-0.0944842
O	0.776047	-0.269847	-0.785959
H	0.998479	1.8268	-0.797629
H	-0.975997	1.77877	1.12989
H	-1.57577	-0.891467	1.45447
H	0.0926141	-2.20619	-0.307402
C	3.97364	-0.286849	-0.954193
C	4.79694	0.808863	-0.803391
N	5.36344	0.828665	0.42754
C	4.89338	-0.250657	1.03805
N	4.05127	-0.956376	0.246596
H	3.35853	-0.626207	-1.80273
H	4.99233	1.58548	-1.56072
H	5.13323	-0.571437	2.0646
H	3.55252	-1.84438	0.499502
