18
  This energy is -0.8744 and Call times are: 21257
C	0.686243	-0.11075	-0.896217
C	0.762787	0.951871	-0.0445422
C	-0.248377	0.736658	0.941027
C	-0.853566	-0.438479	0.604617
O	-0.295436	-0.969756	-0.514869
H	1.26569	-0.368132	-1.79802
H	1.46124	1.80198	-0.10434
H	-0.489797	1.38673	1.79731
H	-1.68106	-0.995309	1.07413
C	4.74093	0.678572	0.0693455
C	4.78285	-0.66681	-0.22954
N	6.05664	-1.12934	-0.222991
C	6.8021	-0.0749041	0.07881
N	6.05543	1.03935	0.264559
H	3.89685	1.38134	0.154112
H	3.91682	-1.31204	-0.449792
H	7.8996	-0.0630465	0.17673
H	6.41026	1.99585	0.510436
