18
  This energy is -0.7889 and Call times are: 99306
C	1.11717	0.195643	0.00756144
C	0.210457	1.12235	0.431185
C	-1.07263	0.515548	0.27122
C	-0.836729	-0.728405	-0.236033
O	0.495164	-0.940679	-0.403405
H	2.21769	0.2229	-0.0505014
H	0.423767	2.13196	0.817554
H	-2.05194	0.961137	0.508903
H	-1.5215	-1.54546	-0.516671
C	5.05689	0.249334	-0.8779
C	5.09368	-0.907278	-0.128206
N	6.0792	-0.856401	0.80059
C	6.65163	0.327271	0.627752
N	6.07117	1.03164	-0.372513
H	4.40253	0.560692	-1.70761
H	4.42677	-1.77756	-0.240845
H	7.49942	0.728454	1.20615
H	6.34215	1.99092	-0.700552
