18
  This energy is -0.6519 and Call times are: 75450
C	-0.743499	0.590404	-0.620511
C	0.586143	0.892959	-0.590718
C	1.18443	-0.0603086	0.28874
C	0.167582	-0.861241	0.718736
O	-1.01688	-0.478208	0.173432
H	-1.58662	1.05284	-1.15954
H	1.09463	1.70587	-1.13359
H	2.24902	-0.13345	0.563319
H	0.156925	-1.72518	1.40338
C	6.81743	-0.0258716	0.932586
C	5.44241	0.075166	0.948901
N	4.93759	0.0762141	-0.308742
C	5.99541	-0.0237927	-1.10225
N	7.15236	-0.0884286	-0.401617
H	7.55664	-0.0566562	1.74877
H	4.80556	0.147326	1.8456
H	5.97954	-0.0540508	-2.20364
H	8.12012	-0.170551	-0.799041
