18
  This energy is -1.6401 and Call times are: 3117
C	-0.139021	0.266825	-1.09356
C	-0.129885	1.20893	-0.10729
C	0.0662848	0.494615	1.11394
C	0.159708	-0.820937	0.76613
O	0.0365272	-0.978378	-0.578136
H	-0.260163	0.353048	-2.18587
H	-0.249308	2.29766	-0.227672
H	0.1292	0.919399	2.12867
H	0.311518	-1.72861	1.37303
C	4.68603	-0.519779	0.705043
C	4.02998	-1.09003	-0.365267
N	3.19332	-0.201967	-0.955057
C	3.3298	0.914967	-0.253306
N	4.21862	0.774385	0.758538
H	5.42768	-0.92966	1.40895
H	4.14536	-2.12634	-0.722488
H	2.80284	1.86507	-0.437254
H	4.49839	1.51092	1.45173
