18
  This energy is -1.6721 and Call times are: 59521
C	0.486563	0.154749	1.01277
C	-0.339753	1.08257	0.449993
C	-0.746717	0.534026	-0.804437
C	-0.133166	-0.680581	-0.897483
O	0.623981	-0.928444	0.203564
H	1.03164	0.146611	1.97094
H	-0.633256	2.05564	0.875532
H	-1.41849	0.997228	-1.54488
H	-0.154342	-1.45197	-1.68473
C	3.53396	-0.163048	-1.13478
C	3.7274	1.04306	-0.49522
N	4.02011	0.859819	0.81522
C	4.00832	-0.45496	0.987961
N	3.72023	-1.11587	-0.158247
H	3.28524	-0.402741	-2.18083
H	3.66099	2.04218	-0.955857
H	4.20381	-0.986798	1.93303
H	3.6518	-2.15596	-0.279863
