18
  This energy is -1.6789 and Call times are: 109563
C	-0.452268	1.0393	-0.0413276
C	-0.400481	0.310521	1.11044
C	0.229938	-0.923522	0.76428
C	0.50774	-0.83991	-0.568464
O	0.0979465	0.352059	-1.07669
H	-0.849733	2.04562	-0.252499
H	-0.769227	0.611726	2.10412
H	0.447162	-1.76935	1.4362
H	0.987441	-1.55064	-1.26129
C	4.53957	0.0525216	1.16741
C	5.19502	0.810991	0.220709
N	4.78906	0.487564	-1.03113
C	3.8852	-0.467916	-0.861678
N	3.69924	-0.765838	0.446087
H	4.60933	0.0377082	2.26671
H	5.95358	1.5858	0.418511
H	3.32909	-0.983864	-1.66091
H	3.04043	-1.4835	0.836214
