18
  This energy is -1.0642 and Call times are: 62740
C	-0.545767	-0.465692	-0.878448
C	-0.971877	0.683411	-0.279809
C	-0.0391353	0.946817	0.769347
C	0.87462	-0.0645739	0.719215
O	0.580644	-0.936272	-0.281151
H	-0.950921	-1.04199	-1.72637
H	-1.85449	1.28518	-0.549934
H	-0.0547666	1.79342	1.4744
H	1.76728	-0.274371	1.33109
C	4.46283	0.0530059	-1.04581
C	4.18173	0.81501	0.0684035
N	4.99674	0.489755	1.10111
C	5.78045	-0.470378	0.629355
N	5.49789	-0.769507	-0.66071
H	4.0145	0.0383335	-2.05196
H	3.40546	1.59365	0.145648
H	6.57766	-0.989011	1.18588
H	5.97617	-1.49061	-1.25445
