18
  This energy is -1.5733 and Call times are: 109659
C	0.414446	0.845215	-0.632651
C	0.60353	-0.467135	-0.952588
C	-0.0574332	-1.21739	0.0673897
C	-0.592075	-0.297287	0.92058
O	-0.313635	0.967458	0.508387
H	0.742615	1.77331	-1.12883
H	1.1533	-0.866767	-1.81985
H	-0.122022	-2.31439	0.148192
H	-1.18357	-0.413102	1.8436
C	3.7549	0.984344	-0.002659
C	4.15915	0.262883	1.10062
N	4.89054	-0.818251	0.736311
C	4.93985	-0.767689	-0.587938
N	4.27014	0.3008	-1.08131
H	3.15698	1.90509	-0.0935072
H	3.93617	0.503084	2.15297
H	5.45273	-1.48759	-1.2459
H	4.16368	0.559276	-2.0928
