18
  This energy is -0.9576 and Call times are: 109788
C	-1.10025	0.23155	0.149143
C	-0.136433	1.19479	0.209145
C	1.10228	0.52363	-0.0258787
C	0.786083	-0.790503	-0.208754
O	-0.554707	-0.986925	-0.105254
H	-2.19489	0.284166	0.268464
H	-0.283066	2.27008	0.399785
H	2.10703	0.97508	-0.0536922
H	1.41499	-1.67175	-0.416446
C	4.87106	-0.149986	0.70687
C	4.8739	-0.171898	-0.671773
N	6.12026	0.0367974	-1.16121
C	6.88771	0.187605	-0.0902661
N	6.18131	0.0835146	1.06028
H	4.05653	-0.279703	1.43711
H	3.99897	-0.334553	-1.32207
H	7.97335	0.376296	-0.0916022
H	6.55966	0.165134	2.03571
