18
  This energy is -1.4662 and Call times are: 90875
C	-0.758539	0.685963	0.490382
C	-0.796721	-0.66945	0.637935
C	0.304626	-1.17615	-0.117318
C	0.918602	-0.0856439	-0.659723
O	0.28262	1.05996	-0.299
H	-1.4061	1.48345	0.890291
H	-1.52717	-1.25383	1.22021
H	0.59787	-2.2315	-0.237048
H	1.80345	0.00682013	-1.31067
C	4.72475	-1.02285	0.336155
C	6.04153	-0.793914	-0.00267915
N	6.24059	0.503153	-0.341061
C	5.05182	1.0767	-0.212637
N	4.10464	0.198328	0.193429
H	4.2025	-1.93784	0.65801
H	6.85151	-1.5414	-0.00904708
H	4.81911	2.1368	-0.403088
H	3.091	0.40768	0.366553
