18
  This energy is -2.6389 and Call times are: 76843
C	-0.205791	1.11508	0.0252959
C	0.0441118	0.444602	-1.1359
C	0.251293	-0.91865	-0.763428
C	0.109705	-0.960889	0.5925
O	-0.169657	0.272255	1.09082
H	-0.42115	2.17779	0.224096
H	0.0790525	0.867585	-2.15274
H	0.478807	-1.7628	-1.43406
H	0.182619	-1.79501	1.30956
C	3.26162	0.858772	0.319997
C	4.37989	0.431345	1.00405
N	4.99845	-0.579225	0.346289
C	4.2667	-0.777971	-0.741676
N	3.20819	0.0642516	-0.803422
H	2.52464	1.64585	0.545621
H	4.75147	0.834035	1.9604
H	4.46094	-1.52707	-1.52612
H	2.48466	0.104362	-1.56247
