18
  This energy is -0.835 and Call times are: 138041
C	-0.996036	0.25183	-0.480515
C	-0.795075	-0.898633	0.224058
C	0.562714	-0.854837	0.665203
C	1.07162	0.318523	0.191265
O	0.13345	1.00705	-0.510719
H	-1.88463	0.644124	-1.00182
H	-1.52932	-1.69793	0.41407
H	1.09052	-1.61342	1.26526
H	2.07225	0.771755	0.283768
C	4.71779	-0.643085	0.0824931
C	5.24588	0.188497	1.04724
N	6.38862	0.774697	0.614791
C	6.56878	0.30855	-0.61357
N	5.58804	-0.549945	-0.980611
H	3.81443	-1.27352	0.0774027
H	4.8228	0.376004	2.04759
H	7.40206	0.563019	-1.2882
H	5.50617	-1.04944	-1.89988
