18
  This energy is -1.0092 and Call times are: 75482
C	-0.472559	-0.411034	-0.94559
C	-0.285237	-1.17474	0.168879
C	0.326575	-0.316396	1.13275
C	0.459113	0.896056	0.522207
O	-0.0237411	0.856387	-0.747553
H	-0.908163	-0.64867	-1.92998
H	-0.551211	-2.23605	0.299142
H	0.629276	-0.579887	2.15893
H	0.874784	1.85272	0.87895
C	6.04187	-0.273018	-0.0817366
C	5.07428	-0.464346	-1.04522
N	3.8637	-0.0339626	-0.614207
C	4.07946	0.422628	0.612005
N	5.37714	0.300598	0.979056
H	7.12046	-0.496992	-0.0760843
H	5.22798	-0.905222	-2.04365
H	3.32264	0.856845	1.28499
H	5.79691	0.588162	1.89686
