18
  This energy is -0.7659 and Call times are: 14402
C	0.255952	-0.705292	0.85056
C	1.19189	0.0840504	0.249449
C	0.49534	0.817734	-0.758839
C	-0.804758	0.411968	-0.68487
O	-0.969009	-0.517912	0.292553
H	0.333749	-1.43314	1.67484
H	2.26512	0.14367	0.491763
H	0.921135	1.55931	-1.45372
H	-1.69614	0.704971	-1.26352
C	5.07057	0.423163	-0.584974
C	5.29493	0.492698	0.773693
N	6.46808	-0.0986775	1.10611
C	6.96961	-0.533432	-0.0419616
N	6.1642	-0.243192	-1.09109
H	4.23785	0.788523	-1.20676
H	4.63132	0.958981	1.52006
H	7.9231	-1.07042	-0.171338
H	6.33944	-0.480548	-2.09817
