18
  This energy is -1.0901 and Call times are: 134961
C	-0.183281	-1.03548	-0.424961
C	-0.867379	-0.557005	0.653671
C	-0.363706	0.759666	0.883467
C	0.583717	0.96956	-0.0750253
O	0.707036	-0.116392	-0.882809
H	-0.236872	-2.00035	-0.955435
H	-1.64834	-1.0789	1.22971
H	-0.676506	1.46161	1.6731
H	1.23094	1.83671	-0.285761
C	5.35406	0.376109	-0.821598
C	4.32078	1.09306	-0.2564
N	3.65282	0.348988	0.658316
C	4.26938	-0.825096	0.660574
N	5.30194	-0.858902	-0.214787
H	6.09797	0.64828	-1.58715
H	4.04527	2.13389	-0.492244
H	4.00587	-1.69493	1.28361
H	5.94105	-1.67115	-0.396586
