18
  This energy is -1.5762 and Call times are: 123128
C	0.782784	-0.277048	-0.772589
C	-0.300655	-1.06475	-0.515564
C	-1.04195	-0.390124	0.502019
C	-0.346073	0.750275	0.776995
O	0.771086	0.835562	0.00777872
H	1.62221	-0.395614	-1.47726
H	-0.552561	-2.02457	-0.994498
H	-1.98289	-0.722889	0.968921
H	-0.538091	1.57038	1.48819
C	4.86622	-0.957953	-0.663165
C	5.66652	0.163782	-0.614402
N	5.17648	1.07601	0.259784
C	4.07635	0.522306	0.751472
N	3.84611	-0.704415	0.226369
H	4.94773	-1.88768	-1.2484
H	6.58875	0.331224	-1.19433
H	3.40225	0.971479	1.49851
H	3.04343	-1.34108	0.453577
