18
  This energy is -1.5023 and Call times are: 113339
C	0.752501	-0.358965	-0.768952
C	0.872483	0.842842	-0.135202
C	-0.249	0.934627	0.744553
C	-0.955302	-0.219193	0.570747
O	-0.358079	-1.02084	-0.349962
H	1.3824	-0.851369	-1.52791
H	1.67066	1.58978	-0.273376
H	-0.493237	1.76688	1.42411
H	-1.88584	-0.583887	1.03588
C	5.0404	0.772659	-0.704315
C	4.38742	1.04724	0.478636
N	3.87955	-0.081781	1.02989
C	4.21617	-1.05308	0.192107
N	4.91718	-0.588872	-0.869348
H	5.5665	1.42793	-1.41662
H	4.27367	2.03977	0.944242
H	3.97488	-2.12203	0.30771
H	5.29486	-1.15775	-1.66622
