18
  This energy is -1.5063 and Call times are: 117903
C	-0.550513	-0.206291	0.969939
C	-0.691397	0.964719	0.284912
C	0.147749	0.848378	-0.865051
C	0.727345	-0.383457	-0.781236
O	0.312227	-1.0413	0.333185
H	-1.00323	-0.562491	1.90984
H	-1.32289	1.82422	0.561641
H	0.296237	1.59974	-1.6572
H	1.44221	-0.901535	-1.44139
C	4.38568	-0.490007	1.05381
C	4.00731	0.811671	0.801587
N	3.88416	1.03558	-0.529281
C	4.18498	-0.122785	-1.10052
N	4.49444	-1.07444	-0.188286
H	4.5788	-1.02398	1.9978
H	3.82097	1.59327	1.55606
H	4.19436	-0.329176	-2.1829
H	4.76555	-2.06816	-0.388963
