18
  This energy is -1.449 and Call times are: 28328
C	-0.173838	0.128258	1.11343
C	0.413389	-0.985707	0.589389
C	0.456	-0.77753	-0.823043
C	-0.108949	0.445271	-1.03743
O	-0.499306	1.01266	0.134192
H	-0.413092	0.408547	2.1524
H	0.77979	-1.86573	1.14202
H	0.862007	-1.46406	-1.58326
H	-0.288915	1.01522	-1.96373
C	3.91645	-0.955445	-0.488261
C	3.84694	-0.577703	0.835984
N	4.51939	0.579237	1.05002
C	5.00422	0.917942	-0.136921
N	4.66813	0.0244675	-1.09731
H	3.49816	-1.82328	-1.02251
H	3.32363	-1.11923	1.64081
H	5.61188	1.80998	-0.358878
H	4.93023	0.0696044	-2.11245
