18
  This energy is -1.8174 and Call times are: 75066
C	0.082551	-1.10031	-0.262508
C	0.843229	-0.145266	-0.870488
C	0.457067	1.09663	-0.279981
C	-0.5055	0.790858	0.636722
O	-0.746786	-0.546384	0.660737
H	0.037702	-2.19367	-0.395946
H	1.60032	-0.299812	-1.65599
H	0.855226	2.09641	-0.516614
H	-1.08766	1.42547	1.32492
C	3.6958	-0.17872	0.994031
C	4.48345	0.911104	0.688998
N	5.03208	0.787682	-0.543997
C	4.58649	-0.374289	-1.00214
N	3.77708	-0.995309	-0.111755
H	3.10298	-0.422821	1.88986
H	4.66569	1.78425	1.3365
H	4.82177	-0.818108	-1.9829
H	3.30197	-1.92225	-0.239448
