18
  This energy is -1.9822 and Call times are: 83237
C	0.0867776	0.43196	1.04512
C	0.587766	1.0685	-0.0522392
C	0.286956	0.224908	-1.16489
C	-0.371299	-0.852667	-0.649227
O	-0.502371	-0.742829	0.699019
H	0.0851555	0.707006	2.11264
H	1.11614	2.03512	-0.0758199
H	0.535732	0.407417	-2.22267
H	-0.791469	-1.7514	-1.12985
C	3.51205	-0.0955391	0.950101
C	4.53909	0.804412	0.759226
N	5.12035	0.632613	-0.452849
C	4.45645	-0.370103	-1.01179
N	3.47685	-0.843422	-0.205589
H	2.8266	-0.251492	1.79826
H	4.87108	1.5746	1.47437
H	4.64631	-0.797516	-2.00953
H	2.81637	-1.63021	-0.420038
