18
  This energy is -1.3896 and Call times are: 112410
C	-0.746132	-0.215353	-0.826626
C	-0.194811	1.01871	-0.643561
C	0.681231	0.893169	0.477557
C	0.587913	-0.406524	0.880623
O	-0.27936	-1.09803	0.0953395
H	-1.47287	-0.588971	-1.56657
H	-0.385869	1.92636	-1.23834
H	1.30445	1.68413	0.92485
H	1.0801	-0.954817	1.70061
C	5.50439	-0.381313	0.649438
C	5.22805	0.923818	0.300996
N	4.10585	1.00063	-0.454833
C	3.6876	-0.252084	-0.57483
N	4.49716	-1.12277	0.0733172
H	6.31934	-0.820279	1.24668
H	5.81829	1.81141	0.581428
H	2.79457	-0.587773	-1.12623
H	4.3799	-2.16424	0.126783
