18
  This energy is -1.0742 and Call times are: 45955
C	-0.74365	0.616339	-0.594569
C	-1.11676	-0.473664	0.135537
C	0.0811293	-0.973934	0.731272
C	1.08051	-0.145477	0.312621
O	0.594785	0.831384	-0.497825
H	-1.32733	1.31339	-1.21801
H	-2.13354	-0.884227	0.24373
H	0.177789	-1.8495	1.3932
H	2.16358	-0.144499	0.518086
C	4.93526	1.00351	-0.611442
C	5.03947	-0.272361	-1.12372
N	5.09165	-1.19437	-0.131908
C	5.02008	-0.493152	0.991388
N	4.92453	0.836801	0.755408
H	4.87015	1.98555	-1.10632
H	5.07795	-0.544133	-2.1912
H	5.03341	-0.903296	2.01405
H	4.85543	1.59625	1.47632
