18
  This energy is -0.6123 and Call times are: 33510
C	0.892221	-0.699218	-0.037922
C	0.151681	-0.399395	-1.1434
C	-0.867277	0.497892	-0.699873
C	-0.659458	0.667179	0.637485
O	0.410981	-0.0565685	1.05863
H	1.77364	-1.34721	0.0979298
H	0.307352	-0.772652	-2.16836
H	-1.65872	0.958657	-1.31258
H	-1.19582	1.26767	1.39046
C	6.7874	0.517161	0.377737
C	6.0919	0.805607	-0.77735
N	4.99801	0.0150243	-0.899392
C	5.01482	-0.760927	0.175895
N	6.07407	-0.496828	0.977047
H	7.70874	0.947357	0.801531
H	6.35981	1.57	-1.52486
H	4.27579	-1.53911	0.425864
H	6.30746	-0.973648	1.88227
