18
  This energy is -0.792 and Call times are: 54888
C	0.963609	-0.229284	0.552529
C	-0.261445	-0.561447	1.05181
C	-1.21224	-0.11568	0.0836157
C	-0.484263	0.449534	-0.921851
O	0.846364	0.388887	-0.652099
H	1.98038	-0.37615	0.952352
H	-0.474217	-1.06941	2.00617
H	-2.30876	-0.209308	0.138038
H	-0.790423	0.922911	-1.86918
C	5.59729	0.616662	0.920317
C	4.89675	-0.570279	0.959845
N	4.59689	-1.00251	-0.289064
C	5.10946	-0.0871921	-1.1003
N	5.72301	0.909507	-0.419318
H	6.00175	1.25245	1.72389
H	4.60231	-1.12251	1.86714
H	5.06418	-0.0978038	-2.20124
H	6.20304	1.74598	-0.833016
