18
  This energy is -1.1709 and Call times are: 73627
C	0.586558	0.772341	-0.588081
C	0.8642	0.481192	0.715192
C	-0.0747829	-0.524023	1.09986
C	-0.843333	-0.758409	-0.00230317
O	-0.453378	0.0245986	-1.04242
H	1.04948	1.482	-1.29331
H	1.65127	0.929336	1.34271
H	-0.160492	-1.01022	2.08493
H	-1.68691	-1.44741	-0.1723
C	5.04766	0.767285	-0.89112
C	4.0614	-0.167008	-0.655452
N	4.32627	-0.885726	0.462492
C	5.47249	-0.399156	0.918631
N	5.94789	0.599357	0.137256
H	5.16856	1.51484	-1.69117
H	3.16345	-0.335374	-1.27205
H	6.00766	-0.737461	1.8205
H	6.83353	1.14218	0.286407
