18
  This energy is -1.0977 and Call times are: 111479
C	-1.00723	0.177261	-0.490379
C	-0.843475	0.18013	0.863708
C	0.543463	-0.0751104	1.09036
C	1.10481	-0.211421	-0.145224
O	0.172303	-0.0603144	-1.12226
H	-1.89979	0.329511	-1.11919
H	-1.62132	0.345403	1.62642
H	1.05476	-0.147081	2.06375
H	2.14204	-0.414312	-0.458668
C	5.25013	-0.402784	-1.09559
C	5.68766	-0.994055	0.0706452
N	5.34019	-0.256075	1.15285
C	4.68957	0.789045	0.659854
N	4.60867	0.746632	-0.691163
H	5.34662	-0.708421	-2.14954
H	6.24783	-1.93992	0.150596
H	4.25167	1.6148	1.24347
H	4.14553	1.45448	-1.31223
