18
  This energy is -0.7713 and Call times are: 74152
C	1.01793	0.0394006	-0.498665
C	-0.114025	0.489159	-1.11248
C	-1.1755	0.27433	-0.181219
C	-0.598487	-0.287741	0.919467
O	0.740597	-0.438486	0.742997
H	2.0673	0.0047792	-0.834632
H	-0.19355	0.928161	-2.11998
H	-2.24165	0.513651	-0.323115
H	-1.02605	-0.621275	1.87926
C	6.19545	0.549685	-0.530197
C	5.36679	1.06664	0.443055
N	4.44076	0.156193	0.83044
C	4.69397	-0.921481	0.100286
N	5.74273	-0.734464	-0.735613
H	7.04688	0.990056	-1.07305
H	5.42051	2.08025	0.872671
H	4.14236	-1.87466	0.13773
H	6.13605	-1.43435	-1.41143
