18
  This energy is -0.9285 and Call times are: 50721
C	-0.500462	0.987267	0.247475
C	-1.2075	-0.165149	0.0674582
C	-0.240848	-1.17544	-0.224106
C	0.971568	-0.551213	-0.196522
O	0.831817	0.769926	0.0899663
H	-0.823766	2.01334	0.488084
H	-2.30015	-0.291144	0.133374
H	-0.434996	-2.24049	-0.429198
H	1.99327	-0.930855	-0.361595
C	6.71837	1.0835	-0.404265
C	7.01909	-0.108725	-1.02821
N	6.62561	-1.16603	-0.277344
C	6.08285	-0.631755	0.808283
N	6.11468	0.721662	0.779296
H	6.88566	2.12894	-0.708579
H	7.51292	-0.224948	-2.00671
H	5.64705	-1.18565	1.65535
H	5.74912	1.37154	1.51773
