18
  This energy is -2.9341 and Call times are: 29935
C	0.193756	1.08669	0.260717
C	0.484767	0.566811	-0.966237
C	0.104441	-0.808728	-0.908262
C	-0.385408	-1.008	0.349002
O	-0.338394	0.138938	1.07656
H	0.316291	2.10198	0.672327
H	0.923266	1.09862	-1.82588
H	0.189429	-1.55547	-1.71402
H	-0.79206	-1.90663	0.841279
C	4.09775	-1.04887	0.494025
C	5.30194	-0.578256	0.0148641
N	5.17198	0.673161	-0.488702
C	3.89203	0.977733	-0.322571
N	3.20222	-0.0280182	0.265824
H	3.82384	-2.00605	0.965526
H	6.2622	-1.11926	0.0234818
H	3.40723	1.92347	-0.61373
H	2.17996	-0.0298059	0.502998
