18
  This energy is -2.0411 and Call times are: 27394
C	0.590207	0.136412	-0.958879
C	0.565775	1.08129	0.0244743
C	-0.272108	0.55304	1.05356
C	-0.685728	-0.668011	0.608225
O	-0.168658	-0.938628	-0.619137
H	1.10232	0.109878	-1.93473
H	1.08563	2.05281	0.0251016
H	-0.531058	1.03355	2.01072
H	-1.33945	-1.42955	1.06425
C	3.95801	-0.806046	-0.85558
C	4.26619	0.533923	-0.958808
N	4.08553	1.16942	0.224417
C	3.66688	0.227274	1.05851
N	3.57367	-0.981332	0.455046
H	3.98414	-1.62012	-1.59729
H	4.61565	1.05354	-1.86585
H	3.41431	0.367871	2.12185
H	3.26704	-1.88059	0.900659
