18
  This energy is -1.8979 and Call times are: 46829
C	0.562503	0.938761	0.297859
C	0.604625	-0.204571	1.04042
C	-0.216952	-1.14849	0.351836
C	-0.688602	-0.498649	-0.750718
O	-0.222648	0.77709	-0.799598
H	1.04061	1.92167	0.441232
H	1.15866	-0.366954	1.97891
H	-0.426563	-2.18824	0.650298
H	-1.35364	-0.82911	-1.56544
C	4.20921	-0.612623	0.925779
C	5.21105	-0.980965	0.0529794
N	5.40172	-0.0355634	-0.899056
C	4.52151	0.915663	-0.617942
N	3.7787	0.614686	0.473492
H	3.78626	-1.12009	1.80733
H	5.79971	-1.91194	0.0931506
H	4.37865	1.85346	-1.17861
H	3.01947	1.20398	0.894883
