18
  This energy is -0.7304 and Call times are: 76543
C	0.702589	-0.107932	-0.88381
C	1.04244	-0.513693	0.373263
C	-0.0848529	-0.216063	1.19833
C	-1.01406	0.345301	0.372616
O	-0.549962	0.419113	-0.902599
H	1.25597	-0.139049	-1.83673
H	1.99173	-0.976192	0.687959
H	-0.183371	-0.401917	2.27993
H	-2.0292	0.728307	0.567705
C	4.9105	0.351895	0.272494
C	5.55575	-0.775644	0.734505
N	6.80349	-0.872173	0.214568
C	6.93182	0.191437	-0.567025
N	5.81745	0.960706	-0.565944
H	3.90369	0.750827	0.474292
H	5.14333	-1.52123	1.43369
H	7.82048	0.455149	-1.16282
H	5.67205	1.85124	-1.10172
