18
  This energy is -1.3217 and Call times are: 7090
C	-0.111006	1.09194	-0.285912
C	-0.449665	0.622169	0.948997
C	-0.171248	-0.778543	0.924356
C	0.312971	-1.04108	-0.323435
O	0.356603	0.0898083	-1.0759
H	-0.154999	2.10412	-0.720436
H	-0.854886	1.20368	1.79264
H	-0.317682	-1.49898	1.7451
H	0.656369	-1.97785	-0.792244
C	5.07012	-0.0931082	-0.962995
C	5.08089	0.934333	-0.0435425
N	4.17751	0.71676	0.942907
C	3.60848	-0.441254	0.636586
N	4.11235	-0.969507	-0.503874
H	5.65668	-0.257158	-1.88091
H	5.7243	1.82872	-0.0742692
H	2.81763	-0.947904	1.21287
H	3.82766	-1.8743	-0.95282
