18
  This energy is -1.164 and Call times are: 125149
C	-0.0399584	0.171105	1.1205
C	-0.644905	-0.895042	0.522385
C	-0.374649	-0.765148	-0.874113
C	0.37159	0.368907	-1.0061
O	0.58555	0.95348	0.202004
H	0.0178395	0.481011	2.17685
H	-1.22342	-1.69291	1.01516
H	-0.701963	-1.44228	-1.67938
H	0.805422	0.859547	-1.89284
C	5.21986	0.793836	0.486539
C	4.14218	1.04791	-0.335173
N	3.53496	-0.102711	-0.714467
C	4.23327	-1.06693	-0.130279
N	5.25964	-0.577504	0.604991
H	5.93734	1.46932	0.97896
H	3.79192	2.04083	-0.661146
H	4.03639	-2.14837	-0.207421
H	5.95351	-1.13624	1.15963
