18
  This energy is -0.8881 and Call times are: 62320
C	-0.457621	0.226507	1.01276
C	0.665587	0.855229	0.561662
C	0.926533	0.309053	-0.732059
C	-0.0602494	-0.605214	-0.957333
O	-0.914386	-0.66867	0.0978621
H	-1.02302	0.325773	1.95388
H	1.25158	1.62627	1.08722
H	1.75507	0.572425	-1.40901
H	-0.26257	-1.2659	-1.81629
C	5.19644	-0.380575	-1.09491
C	4.70592	0.769717	-0.514075
N	5.14281	0.897168	0.762405
C	5.90147	-0.169998	0.972667
N	5.96541	-0.971169	-0.117115
H	5.05736	-0.806472	-2.10129
H	4.04461	1.50996	-0.99319
H	6.43366	-0.413772	1.90625
H	6.49908	-1.87083	-0.201181
