18
  This energy is -1.6768 and Call times are: 41450
C	-0.497226	-0.00132675	-1.01939
C	-0.869427	-0.856391	-0.0240529
C	-0.0252801	-0.553498	1.08761
C	0.788248	0.459922	0.673451
O	0.513848	0.809727	-0.61082
H	-0.868785	0.127875	-2.0492
H	-1.65919	-1.62347	-0.0682341
H	-0.0304185	-1.03904	2.07671
H	1.59124	1.01057	1.19041
C	4.02919	-1.14522	0.0149172
C	4.95224	-0.502721	0.812614
N	5.00808	0.820755	0.526599
C	4.12304	0.998627	-0.444839
N	3.50639	-0.156813	-0.788775
H	3.71774	-2.20066	-0.036007
H	5.57891	-0.970411	1.5894
H	3.88695	1.95416	-0.940274
H	2.77028	-0.276843	-1.52701
