18
  This energy is -0.8311 and Call times are: 136211
C	0.0521142	-0.460228	1.03531
C	0.646178	0.730104	0.734364
C	0.362319	0.971161	-0.644561
C	-0.380149	-0.0931434	-1.06452
O	-0.5792	-0.97707	-0.0515756
H	0.00644584	-1.03811	1.97298
H	1.2261	1.37382	1.41511
H	0.6784	1.83894	-1.24552
H	-0.82078	-0.335616	-2.04549
C	5.16255	-0.736826	-0.853409
C	4.34323	-0.0153448	-0.0111926
N	5.06953	0.733435	0.853867
C	6.33461	0.47745	0.549468
N	6.44335	-0.403166	-0.473411
H	4.93247	-1.4406	-1.66907
H	3.24104	-0.0216723	-0.0122302
H	7.22054	0.907617	1.04375
H	7.33371	-0.763166	-0.896412
