18
  This energy is -1.1485 and Call times are: 4011
C	-0.249533	0.593201	-0.933941
C	-0.605689	1.01205	0.314294
C	-0.122436	0.0138343	1.21438
C	0.48637	-0.926892	0.43671
O	0.418177	-0.589186	-0.877944
H	-0.410181	1.04032	-1.92869
H	-1.15373	1.9317	0.57506
H	-0.221299	0.00564228	2.31176
H	0.998121	-1.86869	0.694334
C	4.41755	0.209223	1.15217
C	3.94775	-0.946325	0.564686
N	3.94656	-0.841946	-0.786468
C	4.41385	0.373733	-1.03625
N	4.71231	1.04718	0.099966
H	4.55829	0.485337	2.20929
H	3.60963	-1.85349	1.09154
H	4.55776	0.821228	-2.03288
H	5.09528	2.02193	0.166655
