18
  This energy is -1.1112 and Call times are: 92156
C	-0.404599	0.990561	-0.376151
C	-1.20456	0.0433898	0.192443
C	-0.342686	-1.04387	0.531773
C	0.907874	-0.665133	0.140584
O	0.888615	0.574597	-0.415932
H	-0.631165	1.98819	-0.786832
H	-2.29245	0.10425	0.356457
H	-0.629462	-1.99362	1.01119
H	1.88052	-1.18033	0.202047
C	5.49172	0.264657	0.982301
C	5.45052	-0.957309	0.344926
N	4.66974	-0.905215	-0.761503
C	4.22825	0.344316	-0.81034
N	4.69576	1.08942	0.21915
H	6.01372	0.594691	1.89451
H	5.97017	-1.8756	0.663591
H	3.56032	0.766722	-1.57824
H	4.49091	2.10239	0.40129
