18
  This energy is -1.0678 and Call times are: 45240
C	0.815423	0.672623	-0.411173
C	1.08387	-0.540523	0.151487
C	-0.180117	-1.07817	0.543136
C	-1.10939	-0.14611	0.185233
O	-0.519043	0.929647	-0.398936
H	1.47689	1.43693	-0.851118
H	2.07278	-1.00972	0.27804
H	-0.366079	-2.0471	1.03372
H	-2.20664	-0.129883	0.290229
C	5.04906	0.865335	0.796049
C	4.7551	-0.46608	1.00115
N	4.92152	-1.18403	-0.136111
C	5.31721	-0.301376	-1.04329
N	5.40946	0.948425	-0.530375
H	5.028	1.7307	1.4774
H	4.42592	-0.921504	1.94935
H	5.55297	-0.516498	-2.09798
H	5.70014	1.81552	-1.04507
