18
  This energy is -1.0502 and Call times are: 42881
C	-0.922795	0.659158	-0.0189702
C	-0.452394	0.0288117	-1.13331
C	0.705507	-0.694674	-0.713846
C	0.840465	-0.442573	0.619797
O	-0.145368	0.382418	1.06086
H	-1.78937	1.32303	0.134558
H	-0.878084	0.0692562	-2.14882
H	1.35608	-1.3267	-1.33946
H	1.58499	-0.785362	1.35697
C	5.82801	0.602243	-0.86232
C	4.51093	0.196194	-0.823013
N	4.24112	-0.477057	0.321736
C	5.38648	-0.48863	0.990058
N	6.37385	0.149349	0.317994
H	6.39654	1.16274	-1.62137
H	3.7505	0.376958	-1.60014
H	5.55761	-0.950269	1.97587
H	7.36613	0.275041	0.635553
