18
  This energy is -1.3173 and Call times are: 103853
C	0.103152	1.09695	0.269195
C	-0.309472	0.159486	1.16991
C	-0.312167	-1.08378	0.466764
C	0.0990492	-0.796303	-0.801556
O	0.35702	0.530838	-0.939971
H	0.254904	2.18473	0.36377
H	-0.58437	0.326693	2.22374
H	-0.589569	-2.07217	0.867033
H	0.247053	-1.43839	-1.68533
C	3.7096	-0.361505	-0.679406
C	4.66947	0.574328	-1.0019
N	5.54497	0.747683	0.0178859
C	5.12981	-0.0774671	0.969407
N	4.02645	-0.768653	0.597317
H	2.85207	-0.75348	-1.24909
H	4.74598	1.12754	-1.95213
H	5.5969	-0.215061	1.95791
H	3.51064	-1.4793	1.17192
