18
  This energy is -1.6053 and Call times are: 110833
C	-0.487152	0.394233	-0.945338
C	-0.92737	-0.730155	-0.31104
C	-0.0737282	-0.899774	0.821498
C	0.812781	0.135936	0.779301
O	0.574951	0.9361	-0.293166
H	-0.839667	0.905213	-1.85632
H	-1.76881	-1.37538	-0.610624
H	-0.121716	-1.70266	1.5746
H	1.64803	0.410909	1.44414
C	4.2201	1.13985	-0.281867
C	4.9595	0.591078	0.744428
N	4.82024	-0.756439	0.780687
C	3.99758	-1.04254	-0.21931
N	3.60763	0.0670788	-0.890332
H	4.09073	2.18306	-0.611289
H	5.59095	1.14331	1.45938
H	3.64806	-2.04795	-0.504326
H	2.96178	0.103289	-1.71667
