18
  This energy is -1.0654 and Call times are: 47504
C	0.967896	0.423033	0.413063
C	-0.249399	0.728156	0.947352
C	-1.20907	0.0140298	0.166857
C	-0.493499	-0.664445	-0.775482
O	0.837628	-0.426252	-0.639912
H	1.98718	0.74091	0.687418
H	-0.451287	1.38974	1.80505
H	-2.30296	0.0118421	0.299086
H	-0.809504	-1.3402	-1.58711
C	4.73224	-0.108548	1.15981
C	5.34376	0.940607	0.506771
N	5.36511	0.736525	-0.832783
C	4.7691	-0.434782	-1.01009
N	4.36942	-0.984425	0.161122
H	4.53612	-0.287874	2.22889
H	5.76994	1.84116	0.978168
H	4.59905	-0.936371	-1.97638
H	3.87696	-1.90282	0.284844
