18
  This energy is -1.4709 and Call times are: 81822
C	-0.397922	0.492109	0.941216
C	-0.403976	-0.860489	0.76567
C	0.168861	-1.09015	-0.522441
C	0.474398	0.142377	-1.02033
O	0.135032	1.12029	-0.139691
H	-0.739759	1.12219	1.77871
H	-0.774645	-1.62028	1.47236
H	0.330639	-2.06341	-1.01304
H	0.929608	0.452901	-1.97511
C	3.82155	-0.791579	-0.546081
C	4.71338	-1.03189	0.477654
N	5.32698	0.11111	0.869533
C	4.81774	1.05691	0.091866
N	3.90557	0.563071	-0.778573
H	3.15528	-1.46619	-1.1069
H	4.92508	-2.00953	0.94053
H	5.0775	2.12746	0.117653
H	3.36528	1.10825	-1.4942
