18
  This energy is -0.7912 and Call times are: 63820
C	-0.488019	0.964467	-0.343572
C	-0.921845	0.275898	0.75098
C	-0.0692103	-0.864971	0.858442
C	0.81038	-0.772859	-0.179926
O	0.569183	0.338316	-0.924322
H	-0.842254	1.9002	-0.806366
H	-1.75836	0.544431	1.41598
H	-0.113206	-1.65687	1.62333
H	1.6425	-1.42454	-0.493198
C	4.35036	-0.331991	0.610792
C	5.18954	-1.14527	-0.120989
N	6.18482	-0.428317	-0.697106
C	5.96393	0.824972	-0.324151
N	4.86936	0.935167	0.465384
H	3.4506	-0.557761	1.20492
H	5.09469	-2.23652	-0.243584
H	6.57267	1.70089	-0.60062
H	4.48861	1.81774	0.886524
