18
  This energy is -1.5284 and Call times are: 43105
C	0.769318	-0.811986	-0.187696
C	-0.00365034	-0.293587	-1.18477
C	-0.834925	0.688493	-0.564594
C	-0.496554	0.683534	0.756714
O	0.48161	-0.226802	1.00469
H	1.54982	-1.59043	-0.197381
H	0.0101636	-0.574578	-2.25011
H	-1.59377	1.32034	-1.05348
H	-0.872691	1.27156	1.60994
C	4.77723	1.12219	0.146969
C	6.0464	0.601325	0.284994
N	6.0566	-0.731785	0.0416322
C	4.79854	-1.03678	-0.246273
N	3.9883	0.0470017	-0.196184
H	4.39246	2.14768	0.264728
H	6.95492	1.16355	0.555817
H	4.41588	-2.03824	-0.501008
H	2.95583	0.0648413	-0.383134
