18
  This energy is -1.0402 and Call times are: 56350
C	0.141265	1.12297	0.0733397
C	-1.02961	0.510465	0.411351
C	-0.820058	-0.884509	0.187183
C	0.460379	-1.00131	-0.268025
O	1.0623	0.214821	-0.343749
H	0.441434	2.18364	0.084987
H	-1.94868	0.992614	0.781417
H	-1.54434	-1.69898	0.348885
H	1.05212	-1.88161	-0.568286
C	5.16332	1.16551	-0.00164622
C	5.9704	0.217677	0.591126
N	5.48199	-1.03123	0.395682
C	4.37613	-0.858842	-0.315633
N	4.14066	0.447982	-0.580878
H	5.24173	2.26323	-0.0506477
H	6.89636	0.412602	1.15633
H	3.70136	-1.65517	-0.668892
H	3.33295	0.839926	-1.12425
