18
  This energy is -1.6456 and Call times are: 113178
C	-0.0616702	-0.810364	0.791143
C	0.141397	0.501667	1.10373
C	0.158364	1.20206	-0.140971
C	-0.0358331	0.256193	-1.1043
O	-0.172159	-0.978481	-0.552933
H	-0.145747	-1.70839	1.42496
H	0.266674	0.933003	2.10989
H	0.299412	2.2844	-0.291757
H	-0.0963017	0.332684	-2.20236
C	3.89975	0.0612145	-1.17102
C	3.47608	0.999723	-0.254047
N	3.75195	0.604591	1.01255
C	4.34452	-0.574561	0.881837
N	4.45711	-0.946066	-0.415428
H	3.84587	0.0395766	-2.2711
H	2.97628	1.95488	-0.483685
H	4.71573	-1.20856	1.7031
H	4.88707	-1.83253	-0.77679
