18
  This energy is -1.4331 and Call times are: 128542
C	-0.402063	-0.969593	0.429692
C	0.923565	-0.779556	0.170907
C	1.03358	0.544153	-0.354269
C	-0.234537	1.04616	-0.37005
O	-1.12402	0.135196	0.105308
H	-0.950466	-1.83374	0.839266
H	1.74185	-1.49932	0.333526
H	1.95412	1.05477	-0.679797
H	-0.629871	2.02382	-0.691206
C	5.12191	-1.13802	0.28967
C	5.9401	-0.191066	0.868466
N	5.77213	1.02122	0.286526
C	4.85324	0.827079	-0.64973
N	4.42958	-0.458484	-0.687622
H	4.98782	-2.21157	0.497154
H	6.64859	-0.360861	1.69554
H	4.45439	1.59175	-1.33561
H	3.71068	-0.860892	-1.33763
