18
  This energy is -0.6571 and Call times are: 44824
C	-0.773911	0.798905	-0.221842
C	-0.81069	0.0410355	0.911584
C	0.312211	-0.837988	0.830776
C	0.936052	-0.539679	-0.344897
O	0.286287	0.457705	-1.00067
H	-1.43493	1.60259	-0.585708
H	-1.55399	0.0955306	1.72314
H	0.612636	-1.60054	1.56722
H	1.83744	-0.95907	-0.8212
C	6.92806	0.572711	-0.013966
C	6.66768	-0.673283	-0.543914
N	5.37411	-1.02681	-0.348455
C	4.83404	-0.00402124	0.300283
N	5.73037	0.985616	0.525698
H	7.85013	1.17471	0.0163103
H	7.39002	-1.3235	-1.0638
H	3.78669	0.0721971	0.634172
H	5.54774	1.89431	1.01781
