18
  This energy is -0.6358 and Call times are: 111865
C	1.02215	-0.441311	-0.216477
C	0.468486	0.534212	-0.992485
C	-0.802597	0.823753	-0.408849
C	-0.91347	-0.00039551	0.672289
O	0.191886	-0.779906	0.804813
H	1.98699	-0.970151	-0.284651
H	0.910797	1.00289	-1.88624
H	-1.54175	1.56156	-0.760116
H	-1.71721	-0.126369	1.41619
C	4.97882	0.0940522	-0.577446
C	6.21981	-0.15209	-1.12563
N	7.17717	-0.196302	-0.167491
C	6.53255	0.0215838	0.97076
N	5.20473	0.202597	0.776575
H	3.9841	0.196246	-1.03965
H	6.44154	-0.298571	-2.19531
H	6.98427	0.0589797	1.97514
H	4.48454	0.389934	1.5165
