18
  This energy is -0.7349 and Call times are: 114376
C	-1.02337	0.45093	-0.18914
C	-0.0614376	0.391978	-1.15433
C	1.06769	-0.234	-0.543303
C	0.696068	-0.502316	0.741329
O	-0.577908	-0.0907303	0.974981
H	-2.05151	0.848335	-0.204929
H	-0.139191	0.753079	-2.19243
H	2.03945	-0.454742	-1.01346
H	1.23899	-0.975898	1.57572
C	5.87492	-0.966375	0.659975
C	4.91174	-0.0167518	0.392301
N	5.40085	0.964177	-0.404608
C	6.66266	0.624387	-0.630455
N	6.99668	-0.532077	-0.0102801
H	5.84256	-1.88968	1.25998
H	3.87266	-0.0218254	0.759912
H	7.3862	1.18655	-1.24258
H	7.93197	-1.00733	-0.0352649
