18
  This energy is -1.6084 and Call times are: 11718
C	-0.230264	0.562361	0.957668
C	0.640486	-0.486732	0.918019
C	0.664221	-0.923988	-0.441526
C	-0.194119	-0.103496	-1.11266
O	-0.749319	0.810204	-0.273659
H	-0.561342	1.20669	1.78862
H	1.20904	-0.910199	1.76153
H	1.25484	-1.75388	-0.861698
H	-0.492172	-0.0675692	-2.17338
C	3.83548	0.180292	-0.876412
C	4.60317	1.13195	-0.239105
N	5.37372	0.572543	0.725167
C	5.08517	-0.721228	0.686216
N	4.16295	-1.0082	-0.262867
H	3.10372	0.261982	-1.6958
H	4.61485	2.21217	-0.457792
H	5.52007	-1.50249	1.33021
H	3.77191	-1.95556	-0.48837
