18
  This energy is -0.8066 and Call times are: 7960
C	0.873791	-0.0855716	-0.71803
C	0.600495	1.06215	-0.0336202
C	-0.556506	0.780869	0.75527
C	-0.888099	-0.513909	0.483299
O	-0.0252634	-1.05848	-0.414457
H	1.66811	-0.334237	-1.44085
H	1.15775	2.01159	-0.0796788
H	-1.07468	1.46886	1.44248
H	-1.70363	-1.15395	0.858139
C	6.74952	0.188667	-0.167664
C	6.12013	-1.03229	-0.04814
N	4.78652	-0.8785	0.137131
C	4.58931	0.432878	0.132562
N	5.74217	1.11985	-0.047936
H	7.80766	0.452009	-0.324225
H	6.60442	-2.02141	-0.092269
H	3.62089	0.943628	0.257199
H	5.8484	2.16306	-0.088876
