18
  This energy is -1.4563 and Call times are: 127371
C	0.00125202	1.08363	-0.334888
C	-0.0556319	0.0461195	-1.21847
C	-0.0374035	-1.14282	-0.427139
C	0.0290098	-0.726902	0.870156
O	0.0534318	0.629858	0.945105
H	0.0110015	2.17519	-0.48866
H	-0.105431	0.111491	-2.31726
H	-0.0702598	-2.18256	-0.790394
H	0.0641222	-1.28963	1.81744
C	5.0196	0.056273	0.999012
C	3.93168	-0.751664	0.744419
N	3.46249	-0.557823	-0.512083
C	4.25632	0.36685	-1.035
N	5.21114	0.769385	-0.1633
H	5.65002	0.170423	1.89516
H	3.4769	-1.47098	1.44485
H	4.18293	0.785092	-2.05182
H	5.95553	1.48783	-0.339329
