18
  This energy is -1.0272 and Call times are: 88068
C	0.736825	0.690644	-0.516236
C	-0.567906	0.594717	-0.902043
C	-1.16539	-0.362048	-0.0258421
C	-0.173033	-0.766325	0.81805
O	0.995468	-0.133627	0.532903
H	1.5704	1.30017	-0.902097
H	-1.0602	1.14273	-1.72145
H	-2.21305	-0.703343	-0.0308232
H	-0.170805	-1.48804	1.65134
C	5.63269	-0.902964	-0.411641
C	5.6516	0.397508	-0.869417
N	4.79577	1.17631	-0.164056
C	4.24801	0.362075	0.727914
N	4.71984	-0.902508	0.619324
H	6.18579	-1.79883	-0.735754
H	6.26744	0.787796	-1.69602
H	3.49609	0.639783	1.48405
H	4.44302	-1.72577	1.20828
