18
  This energy is -0.733 and Call times are: 74457
C	-0.140236	0.45846	1.02789
C	1.08982	0.141045	0.53131
C	0.857956	-0.404752	-0.768099
C	-0.493318	-0.372684	-0.950865
O	-1.11865	0.151452	0.135993
H	-0.448538	0.901751	1.98898
H	2.06283	0.277556	1.03002
H	1.61545	-0.775555	-1.47718
H	-1.12424	-0.688815	-1.79777
C	5.07723	0.537117	0.757765
C	5.80892	1.12966	-0.249546
N	6.53542	0.210883	-0.931135
C	6.2555	-0.947238	-0.348876
N	5.38101	-0.803423	0.674931
H	4.38496	0.960407	1.50283
H	5.82563	2.20366	-0.496722
H	6.66309	-1.93099	-0.632285
H	5.00588	-1.56752	1.28868
