18
  This energy is -1.2552 and Call times are: 69196
C	-1.11007	-0.0356421	0.229949
C	-0.16421	-0.422329	1.13338
C	1.09492	-0.235094	0.485571
C	0.807338	0.249482	-0.756547
O	-0.534522	0.377571	-0.929798
H	-2.21044	-0.00739726	0.290302
H	-0.33594	-0.801392	2.15364
H	2.09353	-0.440122	0.903685
H	1.45892	0.538248	-1.59756
C	4.89351	-0.202885	1.15926
C	4.59643	0.985022	0.525413
N	4.7042	0.861343	-0.819801
C	5.06676	-0.3985	-1.01973
N	5.19414	-1.08155	0.14252
H	4.91166	-0.476039	2.22631
H	4.30626	1.92911	1.01464
H	5.25236	-0.872804	-1.99687
H	5.46946	-2.0886	0.248852
