18
  This energy is -1.1828 and Call times are: 104767
C	0.150003	0.80804	-0.781647
C	-1.08517	0.336938	-0.445824
C	-0.865516	-0.656132	0.557012
C	0.484499	-0.704215	0.745481
O	1.12032	0.183319	-0.0638568
H	0.467499	1.57588	-1.50613
H	-2.05381	0.656669	-0.862497
H	-1.62998	-1.25945	1.07247
H	1.10763	-1.31814	1.41635
C	4.06357	0.0149376	1.09288
C	4.41809	-1.09691	0.358549
N	4.88589	-0.746232	-0.864032
C	4.82181	0.578132	-0.888061
N	4.33264	1.08464	0.268552
H	3.65255	0.117237	2.10981
H	4.34472	-2.14585	0.688987
H	5.12024	1.22686	-1.7273
H	4.18624	2.09896	0.494332
