18
  This energy is -0.9404 and Call times are: 120100
C	-0.484849	1.02185	0.0845683
C	-0.11085	0.29804	1.17846
C	0.452876	-0.91272	0.672112
C	0.373598	-0.821909	-0.686506
O	-0.196432	0.353023	-1.06282
H	-0.959497	2.01237	-0.00933771
H	-0.220904	0.587679	2.23586
H	0.866802	-1.74847	1.25886
H	0.68332	-1.51604	-1.48495
C	5.49835	-0.392867	1.03541
C	4.22013	-0.526402	0.535925
N	4.11147	0.0456343	-0.687791
C	5.31769	0.532195	-0.946483
N	6.18932	0.293454	0.0619079
H	5.95008	-0.726535	1.98311
H	3.37437	-1.02525	1.0366
H	5.61731	1.07207	-1.85917
H	7.1991	0.577125	0.0957125
