18
  This energy is -1.0438 and Call times are: 105411
C	-1.05345	-0.0173509	0.419939
C	-0.421122	1.14277	0.0813354
C	0.867163	0.759283	-0.401755
C	0.908363	-0.601332	-0.315716
O	-0.25617	-1.09239	0.184023
H	-2.05725	-0.209143	0.833278
H	-0.821704	2.16594	0.163512
H	1.66403	1.426	-0.768607
H	1.69708	-1.32671	-0.574548
C	6.06564	0.696234	-0.826761
C	6.6595	0.301716	0.353418
N	5.83626	-0.501584	1.07001
C	4.73587	-0.605017	0.337167
N	4.82483	0.0991723	-0.816
H	6.42616	1.3382	-1.64618
H	7.66723	0.582306	0.700688
H	3.83499	-1.18358	0.597757
H	4.08883	0.175735	-1.56011
