18
  This energy is -1.1226 and Call times are: 137136
C	0.379083	0.9798	-0.427421
C	-0.692286	0.915968	0.414285
C	-0.85884	-0.466806	0.731009
C	0.125453	-1.1259	0.0548899
O	0.890842	-0.257962	-0.657764
H	0.868933	1.8335	-0.923897
H	-1.30393	1.75814	0.775858
H	-1.6253	-0.909915	1.38697
H	0.383558	-2.19619	-0.000896413
C	5.3117	0.997533	0.125886
C	5.46849	0.0499404	-0.863371
N	4.59487	-0.973501	-0.702542
C	3.89875	-0.662008	0.382363
N	4.29324	0.517201	0.918491
H	5.83533	1.94798	0.315606
H	6.19633	0.0863932	-1.69028
H	3.0888	-1.26186	0.827766
H	3.89849	0.97781	1.7748
