18
  This energy is -1.4238 and Call times are: 72808
C	0.301211	0.788676	-0.757405
C	0.1044	1.0792	0.560637
C	-0.258322	-0.154197	1.18295
C	-0.251145	-1.08955	0.190266
O	0.088401	-0.531248	-1.00138
H	0.590668	1.42373	-1.61073
H	0.204596	2.06333	1.04597
H	-0.495273	-0.316502	2.24672
H	-0.46638	-2.17065	0.202831
C	3.95732	-0.0921143	-0.816394
C	5.16801	0.554827	-0.946158
N	5.8958	0.462794	0.193299
C	5.13949	-0.238575	1.02678
N	3.96065	-0.596615	0.464877
H	3.1215	-0.224765	-1.52162
H	5.52941	1.08635	-1.84155
H	5.40043	-0.518396	2.06015
H	3.19506	-1.1526	0.918775
