18
  This energy is -1.0699 and Call times are: 66540
C	0.750526	-0.823519	-0.211962
C	-0.249288	-0.504502	-1.08315
C	-0.973759	0.564304	-0.472487
C	-0.352704	0.804068	0.717966
O	0.70242	-0.0343447	0.893435
H	1.54942	-1.58151	-0.261737
H	-0.455903	-0.974662	-2.05802
H	-1.85376	1.08759	-0.879738
H	-0.561842	1.53322	1.51787
C	5.06577	0.0738038	1.16283
C	5.70108	0.813309	0.18781
N	5.26666	0.46763	-1.04843
C	4.36527	-0.482711	-0.841132
N	4.20816	-0.756033	0.475759
H	5.16012	0.0791677	2.26037
H	6.46514	1.59009	0.35421
H	3.79055	-1.01221	-1.61803
H	3.55709	-1.46501	0.893751
