18
  This energy is -1.7296 and Call times are: 61051
C	0.35151	-0.586477	-0.904924
C	0.849887	-0.804998	0.345773
C	0.170313	0.113057	1.20337
C	-0.683351	0.811545	0.401033
O	-0.585921	0.397395	-0.889703
H	0.578319	-1.05834	-1.87505
H	1.61892	-1.53904	0.635379
H	0.307685	0.232342	2.29011
H	-1.4021	1.61706	0.624163
C	4.40309	-0.868571	0.767743
C	4.28109	0.47516	1.05173
N	4.04907	1.19335	-0.0738301
C	4.02722	0.298572	-1.05236
N	4.23572	-0.95917	-0.596062
H	4.59091	-1.73776	1.41795
H	4.35632	0.939302	2.0486
H	3.8626	0.510103	-2.12118
H	4.2644	-1.83624	-1.17155
