18
  This energy is -0.6965 and Call times are: 68505
C	-0.820967	0.71852	0.31007
C	-1.06823	-0.392916	-0.440892
C	0.19625	-1.03219	-0.621253
C	1.1046	-0.254974	0.0354148
O	0.500796	0.818467	0.610011
H	-1.49043	1.50686	0.691631
H	-2.04325	-0.728886	-0.828904
H	0.396556	-1.96236	-1.17691
H	2.19453	-0.356123	0.166022
C	6.08412	0.575784	-0.905095
C	5.32511	-0.573696	-0.966328
N	4.92816	-0.963529	0.269379
C	5.43897	-0.0593295	1.09407
N	6.14447	0.889657	0.434319
H	6.56938	1.17273	-1.69358
H	5.0568	-1.12873	-1.88
H	5.32709	-0.0445386	2.1902
H	6.64255	1.70852	0.861695
