18
  This energy is -1.2404 and Call times are: 66508
C	-0.208921	0.433405	1.02709
C	0.00273367	1.21872	-0.0678336
C	0.227867	0.320686	-1.15548
C	0.133914	-0.934129	-0.629182
O	-0.132439	-0.884111	0.702571
H	-0.421145	0.687017	2.0787
H	0.000543494	2.31992	-0.105782
H	0.434937	0.587174	-2.20438
H	0.234941	-1.93004	-1.09091
C	5.27805	0.329422	0.819271
C	4.90633	-0.959882	0.501996
N	3.98557	-0.972297	-0.492264
C	3.78683	0.30445	-0.790665
N	4.54297	1.1287	-0.0274837
H	5.98991	0.721632	1.56289
H	5.28603	-1.88137	0.972683
H	3.09883	0.691396	-1.55953
H	4.56506	2.17692	-0.0722714
