18
  This energy is -1.2015 and Call times are: 112474
C	-0.629512	0.0139676	0.943356
C	0.356184	0.92723	0.709412
C	0.912065	0.58572	-0.561212
C	0.216988	-0.506086	-0.991561
O	-0.72838	-0.868917	-0.0851145
H	-1.32201	-0.113217	1.7916
H	0.661231	1.75804	1.36577
H	1.7338	1.0991	-1.08589
H	0.297938	-1.10845	-1.91127
C	5.94074	0.276692	-0.474751
C	4.96156	-0.517567	-1.03287
N	3.89063	-0.624249	-0.209311
C	4.20425	0.10107	0.855668
N	5.43033	0.664826	0.743862
H	6.93161	0.582962	-0.846134
H	5.00863	-1.01555	-2.01503
H	3.57275	0.253109	1.7458
H	5.90221	1.28032	1.45079
