18
  This energy is -1.4951 and Call times are: 95546
C	-0.272201	-0.805752	-0.750381
C	0.8858	-0.839237	-0.0304583
C	0.868567	0.328171	0.792328
C	-0.298443	0.971987	0.502566
O	-1.00757	0.293515	-0.437557
H	-0.68319	-1.4947	-1.50648
H	1.67315	-1.60882	-0.0744033
H	1.63989	0.643691	1.51316
H	-0.733411	1.90737	0.891292
C	5.40579	-0.984422	0.221405
C	5.53118	0.227294	0.867289
N	4.67596	1.14506	0.354639
C	4.0225	0.505137	-0.605626
N	4.4265	-0.78175	-0.725213
H	5.92676	-1.94457	0.363666
H	6.22342	0.455761	1.69401
H	3.23827	0.931377	-1.2518
H	4.06298	-1.49015	-1.4088
