18
  This energy is -1.274 and Call times are: 80941
C	-0.33573	1.08266	-0.0392422
C	0.980042	0.724451	-0.067658
C	0.998386	-0.702219	-0.00137329
C	-0.307795	-1.08989	0.0616962
O	-1.13625	-0.0127681	0.0396458
H	-0.825492	2.06983	-0.068713
H	1.85039	1.39737	-0.129128
H	1.88578	-1.35538	-0.00123233
H	-0.772033	-2.08778	0.124454
C	5.73658	-0.538254	0.898585
C	5.81924	0.797132	0.565335
N	5.0712	1.07458	-0.530095
C	4.52655	-0.0842707	-0.875106
N	4.89704	-1.08756	-0.0446061
H	6.20031	-1.11722	1.71301
H	6.40523	1.56538	1.09568
H	3.84894	-0.254384	-1.72724
H	4.60112	-2.09244	-0.107258
