18
  This energy is -0.9236 and Call times are: 48815
C	-0.544285	0.180928	0.978479
C	0.816042	0.209453	0.883229
C	1.11781	-0.0600776	-0.48659
C	-0.0847424	-0.229516	-1.10749
O	-1.11065	-0.0857892	-0.227798
H	-1.22048	0.332426	1.83583
H	1.53487	0.401073	1.69605
H	2.11713	-0.118985	-0.94701
H	-0.341053	-0.453043	-2.15611
C	7.54959	0.975321	0.108959
C	6.96964	0.491956	-1.0448
N	6.2908	-0.656454	-0.806392
C	6.44901	-0.884663	0.49034
N	7.20038	0.07094	1.08688
H	8.16555	1.86906	0.297038
H	7.02887	0.951277	-2.04498
H	6.03615	-1.73667	1.05413
H	7.46626	0.114593	2.10111
