18
  This energy is -0.8376 and Call times are: 27726
C	1.02417	0.0957705	-0.477819
C	0.856604	-0.291699	0.819164
C	-0.553287	-0.292661	1.04791
C	-1.12283	0.094305	-0.129485
O	-0.174201	0.335609	-1.0723
H	1.9319	0.237329	-1.08711
H	1.64659	-0.55084	1.54226
H	-1.07379	-0.552696	1.98362
H	-2.17682	0.234525	-0.420499
C	4.84123	-0.208467	-0.952711
C	5.43662	-1.14706	-0.136804
N	6.12263	-0.554182	0.870364
C	5.95348	0.747268	0.68
N	5.18827	1.00704	-0.40654
H	4.216	-0.315902	-1.85331
H	5.38347	-2.24142	-0.256816
H	6.36783	1.55368	1.30629
H	4.91199	1.95396	-0.76467
