18
  This energy is -1.485 and Call times are: 109000
C	-0.401983	-0.500002	0.935312
C	0.929946	-0.281556	0.738792
C	1.03762	0.358659	-0.533469
C	-0.23801	0.474923	-1.0021
O	-1.13001	-0.0442813	-0.117921
H	-0.951277	-0.96399	1.77092
H	1.75395	-0.544844	1.42128
H	1.96171	0.690447	-1.03354
H	-0.637482	0.901731	-1.93671
C	4.59203	1.0143	0.5595
C	4.74907	-0.229848	1.13272
N	4.97595	-1.17692	0.190333
C	4.95972	-0.522795	-0.963133
N	4.73192	0.801213	-0.793723
H	4.39713	2.00324	1.00396
H	4.70273	-0.461095	2.2094
H	5.10906	-0.964573	-1.96151
H	4.67308	1.52712	-1.54927
