18
  This energy is -0.6289 and Call times are: 45560
C	0.269775	1.07962	0.21921
C	1.16627	0.194324	-0.303219
C	0.46378	-1.04244	-0.433712
C	-0.799982	-0.803747	0.0204924
O	-0.936169	0.487092	0.423234
H	0.365492	2.14452	0.487669
H	2.21686	0.392351	-0.569936
H	0.861412	-1.99399	-0.821723
H	-1.68171	-1.45969	0.107383
C	6.45313	0.475797	1.04625
C	5.23738	0.50466	0.396432
N	5.30288	-0.143827	-0.791711
C	6.5545	-0.57336	-0.878657
N	7.28809	-0.225052	0.204914
H	6.77256	0.89056	2.01551
H	4.31414	0.981784	0.763619
H	6.98668	-1.14759	-1.71395
H	8.30009	-0.446666	0.372248
