18
  This energy is -0.9021 and Call times are: 14338
C	0.255506	-0.761111	-0.801142
C	-1.03132	-0.447129	-0.47576
C	-0.944794	0.533942	0.558712
C	0.387266	0.732872	0.77416
O	1.13492	-0.0498585	-0.0476413
H	0.671752	-1.46457	-1.54082
H	-1.94937	-0.864514	-0.919677
H	-1.78242	1.02846	1.07633
H	0.923903	1.39447	1.47384
C	5.08439	0.0244019	1.11209
C	4.27701	0.95632	0.494988
N	4.0301	0.612815	-0.792471
C	4.68182	-0.527866	-0.973385
N	5.33317	-0.924379	0.145595
H	5.48612	-0.0289764	2.13645
H	3.86823	1.87039	0.955659
H	4.71566	-1.11483	-1.90535
H	5.91653	-1.7897	0.255902
