18
  This energy is -0.8689 and Call times are: 47817
C	1.00343	0.0104444	-0.5286
C	0.884878	-0.229419	0.808854
C	-0.512525	-0.159964	1.09618
C	-1.12455	0.116211	-0.0910531
O	-0.21385	0.22363	-1.0941
H	1.88583	0.056005	-1.1878
H	1.69973	-0.434672	1.52159
H	-0.996553	-0.300659	2.07599
H	-2.1865	0.258411	-0.350464
C	6.61143	-0.225495	0.557905
C	5.7004	0.763314	0.86357
N	4.64611	0.736381	0.0125382
C	4.90211	-0.265327	-0.817926
N	6.07558	-0.876864	-0.530569
H	7.57113	-0.502494	1.02243
H	5.78494	1.49568	1.68292
H	4.26409	-0.593867	-1.65412
H	6.49693	-1.69191	-1.0399
