18
  This energy is -1.5059 and Call times are: 101118
C	-0.960589	0.55461	-0.236807
C	-0.548034	-0.530389	-0.953013
C	0.684433	-0.943888	-0.36127
C	0.916222	-0.0750706	0.664305
O	-0.0783364	0.846706	0.754819
H	-1.8509	1.19773	-0.33161
H	-1.06023	-0.993129	-1.81186
H	1.31781	-1.79097	-0.670099
H	1.74076	-0.00729288	1.39286
C	5.17895	0.539701	0.870996
C	4.93085	-0.811657	0.755137
N	4.23621	-1.08573	-0.375735
C	4.05407	0.0911313	-0.959219
N	4.60402	1.10264	-0.246478
H	5.70635	1.12122	1.6438
H	5.24062	-1.5938	1.46727
H	3.52505	0.269122	-1.90932
H	4.5943	2.12157	-0.497337
