18
  This energy is -1.2627 and Call times are: 33003
C	-1.02964	0.279396	0.384946
C	-0.622977	-1.01663	0.261231
C	0.710596	-0.961133	-0.247316
C	1.00114	0.363914	-0.389473
O	-0.0503213	1.13587	-0.00799135
H	-1.97853	0.717624	0.735388
H	-1.20383	-1.92101	0.503757
H	1.36929	-1.81392	-0.477481
H	1.90778	0.879369	-0.746624
C	5.07667	-0.122597	1.13733
C	4.57827	-1.09585	0.297375
N	4.37297	-0.606713	-0.949666
C	4.7426	0.665148	-0.883592
N	5.17457	1.00553	0.353796
H	5.35918	-0.151979	2.20169
H	4.36313	-2.14222	0.56882
H	4.71739	1.39182	-1.71157
H	5.51854	1.94905	0.658285
