18
  This energy is -0.9308 and Call times are: 35806
C	1.08166	0.119526	0.319589
C	0.343876	1.15955	-0.164565
C	-0.947744	0.622026	-0.452498
C	-0.885234	-0.69902	-0.118876
O	0.346813	-1.02319	0.354392
H	2.12583	0.0639425	0.668678
H	0.675897	2.20079	-0.304867
H	-1.81627	1.16364	-0.86043
H	-1.63822	-1.50252	-0.170416
C	7.61063	-0.00698006	0.85318
C	7.05921	1.10064	0.244696
N	6.15462	0.740688	-0.697993
C	6.1449	-0.585198	-0.674417
N	7.0058	-1.08378	0.244195
H	8.36547	-0.101965	1.64989
H	7.29787	2.15306	0.468992
H	5.52644	-1.24071	-1.30849
H	7.17945	-2.09749	0.452772
