18
  This energy is -0.7339 and Call times are: 51015
C	0.657975	-0.0764321	-0.920667
C	0.267453	-1.17248	-0.208941
C	-0.538756	-0.677038	0.860959
C	-0.569728	0.678025	0.708585
O	0.155814	1.06221	-0.374467
H	1.28427	0.0248101	-1.8222
H	0.521618	-2.22433	-0.416529
H	-1.03396	-1.26839	1.64784
H	-1.0652	1.46862	1.29571
C	5.52604	-1.16157	-0.187525
C	4.4075	-0.380481	0.0122022
N	4.7455	0.918738	0.197399
C	6.0687	0.943552	0.112884
N	6.58662	-0.286021	-0.11841
H	5.63862	-2.24246	-0.367932
H	3.36264	-0.73111	0.0259922
H	6.70844	1.83518	0.212711
H	7.60254	-0.526544	-0.224815
