18
  This energy is -0.8334 and Call times are: 12845
C	-0.573933	-0.977829	0.0291979
C	-1.13208	0.183654	-0.417798
C	-0.112464	1.17722	-0.302327
C	0.978747	0.535177	0.205038
O	0.714766	-0.781575	0.413581
H	-0.983221	-1.99716	0.122487
H	-2.1588	0.326434	-0.79136
H	-0.191461	2.24351	-0.56856
H	1.98815	0.898292	0.458993
C	4.80568	1.0863	-0.344116
C	4.90219	0.626595	0.952225
N	5.2652	-0.678721	0.982023
C	5.3934	-1.02747	-0.290991
N	5.12701	0.00184061	-1.12953
H	4.53995	2.07543	-0.74977
H	4.7164	1.21339	1.86656
H	5.68007	-2.02356	-0.664953
H	5.15913	-0.021732	-2.17818
