18
  This energy is -0.449 and Call times are: 52098
C	-0.9227	-0.574758	0.323541
C	-0.860664	0.101007	-0.859618
C	0.440848	0.687458	-0.907162
C	1.05925	0.318294	0.251141
O	0.241109	-0.452831	1.0147
H	-1.72694	-1.17285	0.78259
H	-1.65203	0.178714	-1.62237
H	0.859226	1.31027	-1.71411
H	2.06593	0.536188	0.644036
C	7.2919	0.253025	-0.724972
C	7.34555	0.151985	0.649094
N	6.13009	-0.154066	1.16436
C	5.32546	-0.242555	0.113943
N	5.97858	-0.00549345	-1.04831
H	8.06943	0.482931	-1.47072
H	8.2395	0.294434	1.27791
H	4.24932	-0.478185	0.13921
H	5.56358	-0.0165247	-2.01211
