18
  This energy is -1.2251 and Call times are: 62610
C	0.203041	-0.913011	-0.64155
C	-0.919302	-0.793312	0.124213
C	-0.815431	0.474006	0.774777
C	0.361217	1.01687	0.349135
O	0.996291	0.183384	-0.516307
H	0.549023	-1.7177	-1.31089
H	-1.73819	-1.52414	0.221221
H	-1.53777	0.921143	1.47648
H	0.851725	1.97553	0.584985
C	4.22818	0.487315	-0.622538
C	4.31607	-0.824914	-0.208443
N	5.45737	-1.04169	0.489375
C	6.07517	0.131594	0.508116
N	5.37426	1.08591	-0.148851
H	3.45691	1.01977	-1.20147
H	3.57641	-1.61914	-0.400688
H	7.04299	0.347458	0.98869
H	5.65113	2.09042	-0.273603
