18
  This energy is -1.6997 and Call times are: 34115
C	-0.0592559	0.394922	1.06157
C	0.989909	0.674032	0.235902
C	0.705579	0.00937994	-0.995972
C	-0.492237	-0.617215	-0.814339
O	-0.973752	-0.392497	0.436523
H	-0.27023	0.692549	2.10184
H	1.87523	1.28652	0.470768
H	1.32662	0.00407469	-1.90612
H	-1.09883	-1.24439	-1.4881
C	4.5243	0.27368	1.14213
C	5.19798	0.976443	0.165697
N	5.07499	0.374637	-1.04228
C	4.32785	-0.697393	-0.816106
N	3.97036	-0.802632	0.485708
H	4.4039	0.457202	2.22165
H	5.77058	1.90693	0.311188
H	4.01279	-1.43883	-1.56793
H	3.38311	-1.55986	0.913488
