18
  This energy is -1.403 and Call times are: 63127
C	0.930617	-0.642696	-0.0854091
C	0.124062	-0.379636	-1.15342
C	-0.926727	0.449528	-0.654973
C	-0.669533	0.619962	0.673626
O	0.460986	-0.0401397	1.03859
H	1.85517	-1.2364	0.00382677
H	0.255847	-0.733941	-2.1884
H	-1.77164	0.865925	-1.22666
H	-1.20704	1.17996	1.4564
C	5.0638	-0.20257	1.14771
C	5.89752	-0.57475	0.114486
N	5.39958	-0.178655	-1.08204
C	4.26129	0.43691	-0.792221
N	4.01433	0.448899	0.539114
H	5.14049	-0.35028	2.23667
H	6.8494	-1.12198	0.210951
H	3.57001	0.897032	-1.51654
H	3.18197	0.873558	1.01673
