18
  This energy is -0.8344 and Call times are: 109096
C	-0.929456	-0.123943	0.638084
C	0.0777593	0.732531	0.973263
C	1.05625	0.608804	-0.0598722
C	0.560596	-0.312354	-0.935183
O	-0.651283	-0.770355	-0.524578
H	-1.8836	-0.361263	1.13662
H	0.126767	1.38589	1.85916
H	2.01475	1.14716	-0.134264
H	0.967921	-0.721828	-1.87415
C	4.89748	1.06319	0.0467095
C	5.4876	0.474374	-1.05156
N	5.96557	-0.756863	-0.748069
C	5.67309	-0.931204	0.533603
N	5.02883	0.138066	1.05818
H	4.40963	2.04242	0.17577
H	5.57704	0.915889	-2.0575
H	5.90771	-1.82288	1.137
H	4.69331	0.242469	2.04701
