18
  This energy is -0.5356 and Call times are: 43782
C	0.97915	0.513825	0.252288
C	-0.207173	0.88724	0.812263
C	-1.19389	0.0188597	0.253312
C	-0.523427	-0.808553	-0.598888
O	0.804656	-0.520391	-0.611981
H	2.0034	0.899497	0.384241
H	-0.370989	1.69333	1.54539
H	-2.27485	0.0177979	0.466897
H	-0.872088	-1.63115	-1.24466
C	6.8185	-0.360396	0.466769
C	5.55716	-0.825002	0.773874
N	4.61018	-0.186172	0.0447316
C	5.28149	0.671485	-0.711835
N	6.61634	0.604836	-0.494297
H	7.8125	-0.639039	0.851295
H	5.31344	-1.60972	1.5085
H	4.8451	1.37173	-1.44222
H	7.35631	1.17905	-0.967577
