18
  This energy is -0.699 and Call times are: 22246
C	0.619436	0.706979	-0.634728
C	-0.687631	0.952335	-0.331827
C	-1.11594	-0.147992	0.471885
C	-0.0327891	-0.968608	0.589171
O	1.03582	-0.46195	-0.0804378
H	1.35225	1.27855	-1.22764
H	-1.28977	1.82102	-0.643132
H	-2.11618	-0.302054	0.907624
H	0.104081	-1.92803	1.11455
C	5.75781	-0.523266	0.732812
C	4.73273	-1.12512	0.0341369
N	4.05701	-0.221834	-0.716858
C	4.66059	0.935983	-0.484961
N	5.69234	0.806828	0.382451
H	6.50434	-0.933667	1.43124
H	4.46862	-2.19493	0.0584773
H	4.38777	1.9091	-0.924095
H	6.32237	1.57379	0.723166
