18
  This energy is -1.2196 and Call times are: 87618
C	0.996308	-0.0554137	-0.539166
C	0.836731	0.624125	0.632643
C	-0.536016	0.464396	0.993434
C	-1.09412	-0.29865	0.0102501
O	-0.172707	-0.625159	-0.933888
H	1.87883	-0.206733	-1.18222
H	1.6083	1.18191	1.18731
H	-1.04041	0.873714	1.88346
H	-2.12165	-0.672217	-0.130796
C	4.75391	-0.149048	-1.11494
C	5.49028	0.901892	-0.610536
N	5.70945	0.751596	0.71833
C	5.11132	-0.38825	1.0371
N	4.52066	-0.96943	-0.0338512
H	4.39145	-0.364021	-2.13276
H	5.86735	1.76589	-1.18165
H	5.0752	-0.843501	2.03994
H	3.98676	-1.87285	-0.0395573
