18
  This energy is -0.9857 and Call times are: 87002
C	-0.484125	0.825821	0.608311
C	-0.876523	0.529811	-0.664
C	-0.0440553	-0.550395	-1.08858
C	0.783563	-0.819126	-0.0382471
O	0.528706	0.0118215	1.00654
H	-0.841322	1.58228	1.32624
H	-1.67235	1.02269	-1.24522
H	-0.0661142	-1.06156	-2.06445
H	1.58466	-1.56566	0.0889198
C	4.41152	-1.13369	-0.128943
C	4.33917	-0.147006	-1.08934
N	4.75064	1.04622	-0.595972
C	5.07702	0.800716	0.665705
N	4.89027	-0.499252	0.99555
H	4.16445	-2.20663	-0.164919
H	3.99744	-0.274723	-2.12942
H	5.45804	1.53651	1.3921
H	5.07498	-0.9399	1.92988
