18
  This energy is -1.137 and Call times are: 26878
C	0.483999	1.01611	0.140203
C	-0.0818902	0.633238	-1.04028
C	-0.576849	-0.689312	-0.825822
C	-0.26973	-0.997876	0.466787
O	0.378327	0.032204	1.07174
H	0.987165	1.94973	0.440921
H	-0.144489	1.22298	-1.96893
H	-1.09951	-1.32887	-1.55513
H	-0.45525	-1.90446	1.06591
C	5.47634	-0.561469	0.549429
C	4.16807	-0.981417	0.434442
N	3.42762	-0.0874926	-0.264946
C	4.27332	0.883329	-0.582633
N	5.52117	0.644163	-0.11437
H	6.34949	-1.01995	1.04028
H	3.74518	-1.9134	0.843597
H	4.03145	1.79217	-1.15685
H	6.3625	1.25985	-0.234156
