18
  This energy is -1.3553 and Call times are: 92988
C	-0.371422	1.05613	0.181759
C	-1.13335	-0.0426132	0.451214
C	-0.332444	-1.17056	0.0956814
C	0.848201	-0.66152	-0.359648
O	0.841834	0.69675	-0.314092
H	-0.575208	2.13334	0.297247
H	-2.15671	-0.0573277	0.859391
H	-0.611372	-2.2337	0.173394
H	1.75879	-1.15374	-0.738849
C	5.1892	-0.303111	-1.13369
C	6.13634	-0.492039	-0.149623
N	5.70075	-0.0220493	1.04448
C	4.488	0.456627	0.802121
N	4.1339	0.310686	-0.496688
H	5.19141	-0.553656	-2.20643
H	7.12618	-0.959052	-0.279842
H	3.81607	0.924631	1.53949
H	3.22805	0.608388	-0.934936
