18
  This energy is -1.9336 and Call times are: 39919
C	0.646703	0.0283305	-0.931329
C	0.221526	-1.14104	-0.37261
C	-0.556318	-0.770043	0.766441
C	-0.537805	0.59329	0.803227
O	0.192278	1.09757	-0.226185
H	1.26857	0.23099	-1.81872
H	0.434303	-2.16242	-0.727029
H	-1.06654	-1.44658	1.47076
H	-0.998233	1.31216	1.50071
C	4.41186	-0.726241	-0.771796
C	3.77184	-1.07893	0.397447
N	3.29797	0.0138093	1.04388
C	3.6427	1.0405	0.278577
N	4.31627	0.646308	-0.827997
H	4.91189	-1.33456	-1.54215
H	3.6435	-2.10229	0.78619
H	3.42705	2.10191	0.481382
H	4.69376	1.26783	-1.58461
