18
  This energy is -1.4953 and Call times are: 111186
C	-0.441761	0.641282	-0.824624
C	-0.950205	-0.581668	-0.49866
C	-0.137648	-1.07091	0.569285
C	0.795608	-0.103746	0.801652
O	0.624775	0.94911	-0.0405612
H	-0.744776	1.38009	-1.58462
H	-1.81109	-1.08841	-0.963611
H	-0.243268	-2.03241	1.09698
H	1.62319	-0.045676	1.52759
C	4.53095	-0.0571832	1.12796
C	4.23367	-1.11737	0.298038
N	3.88843	-0.68708	-0.939769
C	3.97121	0.635022	-0.877982
N	4.35481	1.06378	0.347828
H	4.8449	-0.0222492	2.18331
H	4.26212	-2.18506	0.570224
H	3.76195	1.33721	-1.70101
H	4.49192	2.06026	0.646952
