18
  This energy is -1.2629 and Call times are: 26159
C	0.737157	0.508931	0.695693
C	0.225048	1.12889	-0.40602
C	-0.651926	0.180741	-1.01598
C	-0.598307	-0.934915	-0.233158
O	0.245164	-0.752146	0.816683
H	1.45019	0.852806	1.46289
H	0.44299	2.15131	-0.754235
H	-1.24913	0.321865	-1.93115
H	-1.1055	-1.91029	-0.314661
C	4.63379	-0.63087	-0.965627
C	4.16453	0.664732	-0.917151
N	4.00708	1.07981	0.363253
C	4.37726	0.0456392	1.10628
N	4.76372	-1.01024	0.351714
H	4.87638	-1.28783	-1.81597
H	3.93675	1.30744	-1.78312
H	4.38478	0.00777289	2.20752
H	5.09853	-1.94062	0.703224
