18
  This energy is -0.7447 and Call times are: 57451
C	1.05536	0.0560275	0.41168
C	0.197004	-0.952799	0.737056
C	-1.01446	-0.678038	0.0320835
C	-0.789465	0.474436	-0.661858
O	0.46948	0.936622	-0.441732
H	2.09526	0.258071	0.71669
H	0.396891	-1.80496	1.40636
H	-1.94061	-1.2748	0.0461235
H	-1.43519	1.05878	-1.33775
C	6.96594	0.0851659	0.135732
C	6.11613	-0.774	0.799665
N	4.83396	-0.601873	0.396033
C	4.88814	0.360417	-0.514839
N	6.15163	0.807698	-0.707497
H	8.05617	0.228753	0.201445
H	6.40519	-1.515	1.5627
H	4.03257	0.775534	-1.07154
H	6.45343	1.56131	-1.37251
