18
  This energy is -1.3608 and Call times are: 96269
C	0.00738867	0.550258	0.991747
C	-1.00971	-0.281422	0.625434
C	-0.662281	-0.777851	-0.667998
C	0.536462	-0.205707	-0.977902
O	0.960259	0.608361	0.0244449
H	0.168798	1.15102	1.90185
H	-1.91393	-0.521266	1.20764
H	-1.24356	-1.47912	-1.28802
H	1.18129	-0.295681	-1.86748
C	4.2158	0.556155	0.779526
C	3.95908	-0.652135	0.166933
N	4.96336	-0.996003	-0.675489
C	5.83979	-0.00480763	-0.585852
N	5.43478	0.955471	0.278682
H	3.63664	1.14062	1.512
H	3.0672	-1.28195	0.317713
H	6.79449	0.0681975	-1.13125
H	5.95098	1.83635	0.521234
