18
  This energy is -1.6616 and Call times are: 34574
C	-0.595677	0.87239	0.412923
C	0.364518	1.03074	-0.542758
C	0.880848	-0.276194	-0.798568
C	0.190596	-1.11782	0.0233718
O	-0.715238	-0.433352	0.77035
H	-1.25515	1.59971	0.914285
H	0.677781	1.97333	-1.01972
H	1.67404	-0.548397	-1.51331
H	0.249548	-2.20898	0.168799
C	4.407	1.14537	-0.270482
C	3.69266	0.538233	0.740578
N	3.92145	-0.79724	0.76663
C	4.77448	-1.01775	-0.224498
N	5.09793	0.12206	-0.880093
H	4.47045	2.19811	-0.588701
H	3.01628	1.03987	1.45172
H	5.19432	-1.99464	-0.513712
H	5.75068	0.209577	-1.69711
