18
  This energy is -1.2237 and Call times are: 81662
C	-0.318174	-0.0773001	-1.08591
C	-1.16023	-0.375119	-0.0550735
C	-0.40749	-0.159419	1.13948
C	0.828109	0.25117	0.733178
O	0.900374	0.306996	-0.622799
H	-0.463879	-0.0984853	-2.17841
H	-2.20649	-0.712821	-0.128516
H	-0.754081	-0.296631	2.17638
H	1.72977	0.530109	1.30278
C	4.63331	-0.600083	-0.94368
C	5.71273	0.255062	-0.874897
N	5.84517	0.775665	0.369266
C	4.85169	0.245504	1.06967
N	4.09262	-0.590843	0.322717
H	4.22527	-1.19472	-1.77642
H	6.39833	0.505726	-1.70071
H	4.63413	0.435519	2.13305
H	3.25232	-1.1296	0.64659
