18
  This energy is -2.1959 and Call times are: 90372
C	0.688921	-0.894739	-0.105976
C	0.408472	-0.327907	1.1025
C	-0.480867	0.75581	0.829099
C	-0.665372	0.755555	-0.522319
O	0.041578	-0.245753	-1.10936
H	1.32509	-1.75185	-0.381478
H	0.789629	-0.641475	2.08764
H	-0.926343	1.44955	1.56011
H	-1.26663	1.40633	-1.17824
C	4.13783	0.351871	0.972235
C	5.47824	0.0508969	0.854537
N	5.78613	-0.321211	-0.411658
C	4.64108	-0.251347	-1.07694
N	3.61739	0.149787	-0.286534
H	3.53749	0.684465	1.83393
H	6.22869	0.0955758	1.66056
H	4.49595	-0.48288	-2.14444
H	2.61772	0.281718	-0.577223
