18
  This energy is -2.4143 and Call times are: 79628
C	0.433005	-1.02756	-0.20744
C	0.304932	-0.0791153	-1.17926
C	-0.271007	1.06076	-0.539655
C	-0.44404	0.708257	0.766551
O	-0.0194836	-0.563779	0.987204
H	0.825508	-2.05725	-0.237981
H	0.587668	-0.172796	-2.2401
H	-0.523604	2.02659	-1.00599
H	-0.852901	1.26459	1.62595
C	4.60899	-0.907692	-0.749071
C	5.69449	-0.362171	-0.0969656
N	5.32047	0.674707	0.691389
C	4.00793	0.772066	0.528974
N	3.53132	-0.159883	-0.330039
H	4.52978	-1.74713	-1.45802
H	6.74085	-0.698169	-0.181193
H	3.34698	1.50767	1.01504
H	2.53136	-0.288317	-0.621345
