18
  This energy is -0.5772 and Call times are: 54984
C	-0.88575	0.70487	0.0707505
C	0.212735	0.986019	-0.687312
C	1.09641	-0.123882	-0.521938
C	0.459923	-0.985298	0.322583
O	-0.75187	-0.495142	0.694496
H	-1.81616	1.26917	0.24725
H	0.383607	1.88483	-1.30135
H	2.08866	-0.25672	-0.982262
H	0.759062	-1.96532	0.729186
C	6.83832	0.789933	-0.241495
C	6.5594	0.228513	0.986576
N	5.52678	-0.644946	0.901346
C	5.16645	-0.62547	-0.374745
N	5.92701	0.224174	-1.10498
H	7.59556	1.52742	-0.551715
H	7.08476	0.438052	1.93259
H	4.3523	-1.21371	-0.827921
H	5.8392	0.415492	-2.13306
