18
  This energy is -0.6496 and Call times are: 114440
C	1.06508	0.388279	0.0353621
C	-0.00977163	1.17674	0.324171
C	-1.15896	0.342316	0.17179
C	-0.684922	-0.882382	-0.196684
O	0.671227	-0.872421	-0.28484
H	2.14635	0.602541	0.0217969
H	0.00512797	2.23933	0.615308
H	-2.21223	0.629326	0.321291
H	-1.20263	-1.82913	-0.422272
C	6.18213	1.09688	-0.418574
C	7.16894	0.133897	-0.421803
N	6.72962	-1.01781	0.141302
C	5.47504	-0.770253	0.49253
N	5.0979	0.491221	0.176242
H	6.17495	2.13565	-0.785233
H	8.19004	0.249498	-0.820355
H	4.78761	-1.47717	0.984416
H	4.15852	0.925212	0.350861
