18
  This energy is -0.753 and Call times are: 113874
C	0.949021	-0.604599	0.142198
C	0.355546	-0.452534	-1.07642
C	-0.796645	0.361061	-0.851399
C	-0.805545	0.634352	0.484867
O	0.253332	0.0525349	1.10719
H	1.85695	-1.14856	0.450447
H	0.695075	-0.871285	-2.03739
H	-1.52807	0.698541	-1.60321
H	-1.50078	1.22242	1.10622
C	6.77523	-0.318763	0.356886
C	6.3153	-0.269237	-0.94202
N	5.02493	0.142259	-0.988109
C	4.68564	0.347234	0.277391
N	5.70664	0.0832146	1.12677
H	7.75466	-0.602162	0.77394
H	6.89142	-0.523048	-1.84674
H	3.70264	0.690679	0.637943
H	5.68781	0.168484	2.17254
