18
  This energy is -1.6411 and Call times are: 31542
C	0.0167817	-0.51552	1.01013
C	-0.748023	-0.964188	-0.0262819
C	-0.502873	-0.0668863	-1.1102
C	0.390098	0.850899	-0.640465
O	0.718414	0.592166	0.652701
H	0.147822	-0.891181	2.03821
H	-1.41764	-1.83924	-0.0273902
H	-0.944623	-0.107899	-2.11879
H	0.862241	1.72375	-1.12054
C	4.08841	0.157302	1.16099
C	3.48105	-0.815536	0.395585
N	3.8334	-0.702364	-0.908082
C	4.65623	0.336731	-0.951273
N	4.84201	0.889392	0.270872
H	4.03932	0.373242	2.24011
H	2.79491	-1.59706	0.760662
H	5.15078	0.735522	-1.85162
H	5.44521	1.71775	0.497237
