18
  This energy is -1.0435 and Call times are: 68113
C	-0.468487	-0.415095	0.945842
C	-0.551391	-1.05901	-0.25369
C	0.149703	-0.23701	-1.18798
C	0.599145	0.836651	-0.476908
O	0.230698	0.744328	0.827981
H	-0.859392	-0.674489	1.94342
H	-1.05566	-2.01675	-0.45991
H	0.297092	-0.430714	-2.26262
H	1.18374	1.72099	-0.779307
C	5.65671	0.202772	0.781043
C	4.66645	1.08006	0.392583
N	3.84632	0.515268	-0.526611
C	4.32597	-0.707746	-0.707706
N	5.41729	-0.944533	0.0581609
H	6.48714	0.310134	1.49686
H	4.52906	2.11042	0.759094
H	3.91653	-1.47076	-1.38917
H	5.97481	-1.83286	0.0943836
