18
  This energy is -1.245 and Call times are: 14079
C	0.292244	0.376313	-1.02926
C	-1.00429	0.33448	-0.607799
C	-0.967036	-0.190508	0.720026
C	0.34897	-0.423143	0.992759
O	1.13217	-0.0826856	-0.0644538
H	0.741615	0.706836	-1.98009
H	-1.89731	0.642422	-1.17505
H	-1.82544	-0.370539	1.38698
H	0.850173	-0.823089	1.88947
C	4.11132	0.180233	-1.12662
C	4.36172	1.14339	-0.172274
N	4.66584	0.580231	1.02224
C	4.60435	-0.72732	0.809751
N	4.2737	-1.01946	-0.470451
H	3.83817	0.260947	-2.19077
H	4.32838	2.23456	-0.32423
H	4.79222	-1.5154	1.55665
H	4.16228	-1.97735	-0.88432
