18
  This energy is -1.3208 and Call times are: 63288
C	0.325248	0.803637	0.731288
C	-0.838191	0.88698	0.0242973
C	-0.895125	-0.294945	-0.77566
C	0.238549	-0.996208	-0.486892
O	0.995477	-0.340018	0.431522
H	0.782761	1.48316	1.46897
H	-1.58172	1.69927	0.0622987
H	-1.69157	-0.581241	-1.48121
H	0.616844	-1.96121	-0.862269
C	4.16925	0.993305	-0.0243803
C	3.94473	-0.147886	-0.764931
N	4.86651	-1.1011	-0.485265
C	5.65987	-0.553335	0.42532
N	5.28108	0.708886	0.736623
H	3.63436	1.95558	0.0136632
H	3.13413	-0.30053	-1.49602
H	6.53271	-1.03223	0.897591
H	5.74582	1.34891	1.42629
