18
  This energy is -1.1238 and Call times are: 16087
C	-0.0680913	1.13207	-0.0134959
C	-1.12941	0.332763	-0.321846
C	-0.65816	-1.0095	-0.193948
C	0.649536	-0.911946	0.181268
O	1.02664	0.388666	0.296231
H	0.0350422	2.22905	0.0218836
H	-2.14251	0.65595	-0.610416
H	-1.23323	-1.93394	-0.363638
H	1.40837	-1.6826	0.394605
C	5.12385	0.995379	0.346261
C	4.86337	-0.115316	1.12063
N	4.24684	-1.08148	0.397494
C	4.1253	-0.572104	-0.82086
N	4.63894	0.678109	-0.902898
H	5.60395	1.95703	0.58766
H	5.10926	-0.236844	2.18816
H	3.6682	-1.0717	-1.69017
H	4.66318	1.2893	-1.75561
