18
  This energy is -1.1062 and Call times are: 12093
C	-0.196978	-0.808212	0.77097
C	-0.211901	0.519216	1.08416
C	0.0758604	1.2111	-0.131822
C	0.241228	0.245392	-1.08074
O	0.0781308	-0.993753	-0.546946
H	-0.364374	-1.70673	1.38732
H	-0.40607	0.966317	2.07234
H	0.149164	2.3013	-0.273891
H	0.474224	0.309554	-2.1563
C	5.94425	-0.26908	0.471417
C	5.55337	0.954288	-0.0303117
N	4.28157	0.907666	-0.495996
C	3.88497	-0.339881	-0.283971
N	4.8517	-1.08896	0.297313
H	6.89099	-0.603105	0.924909
H	6.16625	1.86974	-0.0646311
H	2.89686	-0.757949	-0.535144
H	4.7822	-2.10142	0.56447
