18
  This energy is -0.8403 and Call times are: 2703
C	0.577762	-0.591577	-0.776291
C	1.06201	-0.3648	0.478479
C	0.0629159	0.403821	1.15016
C	-0.943668	0.578885	0.246544
O	-0.646068	-0.0224104	-0.935357
H	1.00161	-1.13572	-1.63624
H	2.02606	-0.70468	0.889803
H	0.0983135	0.778369	2.1858
H	-1.90996	1.10421	0.321164
C	6.3981	-0.171021	-0.741126
C	5.37296	0.740595	-0.879694
N	4.50889	0.666258	0.161636
C	4.99613	-0.287846	0.943244
N	6.13439	-0.823656	0.442392
H	7.2676	-0.394076	-1.37967
H	5.24133	1.45062	-1.71239
H	4.55914	-0.633896	1.89378
H	6.70695	-1.5902	0.873502
