18
  This energy is -0.8422 and Call times are: 107553
C	-0.71102	-0.0427651	0.882623
C	-0.908188	0.796715	-0.174152
C	0.180972	0.562544	-1.06803
C	0.947562	-0.399362	-0.478578
O	0.417654	-0.780649	0.713407
H	-1.29342	-0.207571	1.80398
H	-1.73742	1.50936	-0.310535
H	0.364107	1.05753	-2.03526
H	1.88062	-0.889993	-0.800957
C	6.02617	-0.902359	0.208591
C	5.81566	0.194414	1.01724
N	4.9108	1.04032	0.467525
C	4.5613	0.470493	-0.6778
N	5.20627	-0.702912	-0.879603
H	6.67962	-1.78135	0.32656
H	6.30046	0.390513	1.98748
H	3.83743	0.869549	-1.4065
H	5.10168	-1.33947	-1.70732
