18
  This energy is -1.0815 and Call times are: 126748
C	-0.842805	-0.374942	-0.659923
C	-0.299961	-1.13505	0.334023
C	0.717716	-0.329738	0.930615
C	0.706922	0.851395	0.248573
O	-0.239925	0.841257	-0.726306
H	-1.65153	-0.582037	-1.37988
H	-0.587345	-2.16002	0.618544
H	1.37626	-0.606172	1.76966
H	1.3142	1.76481	0.358718
C	6.0201	0.677993	-0.280781
C	4.88434	1.06437	0.398868
N	4.02762	0.0251787	0.549255
C	4.62959	-1.00197	-0.0348756
N	5.83382	-0.659406	-0.550693
H	6.91777	1.24132	-0.58144
H	4.66773	2.07435	0.78341
H	4.23313	-2.0271	-0.113455
H	6.49888	-1.29206	-1.05932
