18
  This energy is -0.9526 and Call times are: 22598
C	0.491891	-0.701166	-0.743512
C	-0.81206	-0.31675	-0.854468
C	-1.05853	0.553554	0.250945
C	0.116559	0.624141	0.939821
O	1.07432	-0.136001	0.346615
H	1.11436	-1.36373	-1.36704
H	-1.52848	-0.616027	-1.63631
H	-2.00405	1.06322	0.496581
H	0.396088	1.17252	1.85437
C	5.20366	-1.00254	0.124884
C	4.54275	-0.305842	1.1143
N	3.95257	0.807982	0.616703
C	4.24624	0.802291	-0.676489
N	4.99881	-0.268983	-1.02234
H	5.78585	-1.93725	0.154974
H	4.48117	-0.586909	2.17828
H	3.93566	1.55833	-1.41552
H	5.35783	-0.497269	-1.98163
