18
  This energy is -0.8818 and Call times are: 26352
C	0.727423	-0.860112	-0.132154
C	0.932041	0.363283	-0.699438
C	-0.183267	1.16622	-0.310212
C	-0.970977	0.362609	0.460563
O	-0.430036	-0.878424	0.579862
H	1.32281	-1.78748	-0.159512
H	1.783	0.669566	-1.32884
H	-0.368976	2.21883	-0.577834
H	-1.92743	0.552449	0.974775
C	6.63823	-0.163425	-0.529592
C	6.18066	0.999223	0.0535252
N	4.93918	0.830983	0.570184
C	4.62775	-0.431237	0.308583
N	5.61962	-1.07308	-0.353108
H	7.58504	-0.399963	-1.04061
H	6.72408	1.95644	0.110699
H	3.68665	-0.936595	0.579084
H	5.61379	-2.07313	-0.671104
