18
  This energy is -0.8918 and Call times are: 10421
C	1.11759	-0.0811966	-0.175495
C	0.205206	-0.699238	-0.979207
C	-1.07649	-0.365228	-0.444595
C	-0.834187	0.427436	0.638616
O	0.500396	0.611344	0.817717
H	2.21934	-0.056924	-0.204145
H	0.413822	-1.32733	-1.86016
H	-2.0592	-0.682864	-0.828627
H	-1.5158	0.91645	1.35383
C	5.54866	-0.940485	-0.66238
C	5.80087	-0.786857	0.684444
N	5.38289	0.424726	1.12475
C	4.87331	1.02047	0.0551455
N	4.94974	0.238156	-1.04746
H	5.7464	-1.77723	-1.35107
H	6.27695	-1.52853	1.34635
H	4.43113	2.02928	0.0234707
H	4.61629	0.482847	-2.01193
