18
  This energy is -0.9345 and Call times are: 5764
C	0.405967	0.977129	-0.408424
C	-0.772732	0.440281	-0.836018
C	-0.940062	-0.772156	-0.0997341
C	0.151155	-0.86918	0.712797
O	0.983691	0.190603	0.537421
H	0.935334	1.90064	-0.695047
H	-1.45583	0.856328	-1.59389
H	-1.7787	-1.48306	-0.173236
H	0.447699	-1.63266	1.45064
C	5.07136	0.713076	-0.859483
C	4.02879	-0.186975	-0.923579
N	3.8778	-0.844323	0.251838
C	4.8231	-0.353937	1.04213
N	5.56929	0.588178	0.418268
H	5.48053	1.41036	-1.60775
H	3.38283	-0.373819	-1.79689
H	5.01311	-0.649306	2.08658
H	6.37386	1.12181	0.829567
