18
  This energy is -0.8984 and Call times are: 125725
C	-0.378801	0.994055	0.393404
C	0.762641	0.411026	0.859839
C	0.904124	-0.809429	0.131424
C	-0.163349	-0.864466	-0.715833
O	-0.957256	0.228811	-0.569302
H	-0.879088	1.93918	0.661169
H	1.43731	0.801247	1.63871
H	1.7103	-1.55361	0.233243
H	-0.466779	-1.61748	-1.46159
C	6.61019	0.139813	0.364718
C	5.64514	1.11868	0.256847
N	4.47625	0.604555	-0.196899
C	4.71525	-0.688344	-0.369862
N	5.98775	-1.01816	-0.0449755
H	7.6608	0.183837	0.69308
H	5.77134	2.18668	0.498292
H	3.99399	-1.43853	-0.732138
H	6.41818	-1.9739	-0.0955416
