18
  This energy is -0.9626 and Call times are: 24997
C	0.579504	0.974974	0.00141946
C	-0.399025	0.708211	-0.910552
C	-0.885706	-0.596207	-0.591565
C	-0.161619	-1.0114	0.487175
O	0.737846	-0.0643257	0.862696
H	1.22784	1.85545	0.141661
H	-0.743553	1.36419	-1.72608
H	-1.6826	-1.15268	-1.1106
H	-0.190454	-1.94589	1.07126
C	5.85869	-0.663321	0.161259
C	5.37803	0.315347	1.00525
N	4.25105	0.879674	0.507302
C	4.03339	0.25348	-0.641231
N	4.97516	-0.685881	-0.894702
H	6.73764	-1.3233	0.234902
H	5.82423	0.624366	1.96455
H	3.19922	0.443503	-1.3357
H	5.02315	-1.31207	-1.73544
