18
  This energy is -1.9233 and Call times are: 34862
C	0.629575	-0.903308	-0.272161
C	-0.114087	-0.848595	0.869919
C	-0.755256	0.427682	0.858233
C	-0.346803	1.04022	-0.289956
O	0.499281	0.241738	-0.992512
H	1.28524	-1.68973	-0.68069
H	-0.202292	-1.62872	1.64304
H	-1.43942	0.833847	1.62049
H	-0.583265	2.02961	-0.714745
C	3.32832	0.455705	0.852218
C	3.88682	1.13172	-0.211846
N	4.60247	0.294424	-1.00133
C	4.48838	-0.896498	-0.429222
N	3.7298	-0.851655	0.691555
H	2.69473	0.800934	1.68463
H	3.78621	2.20861	-0.424046
H	4.93995	-1.83498	-0.789186
H	3.49267	-1.65898	1.31865
