18
  This energy is -0.6566 and Call times are: 24381
C	-0.378151	0.159479	1.05734
C	-0.759739	-0.907582	0.298297
C	-0.0830665	-0.760693	-0.950965
C	0.652291	0.383162	-0.845046
O	0.48404	0.958123	0.37484
H	-0.645712	0.45951	2.08381
H	-1.44862	-1.71694	0.588954
H	-0.142983	-1.43352	-1.82149
H	1.32625	0.887575	-1.5568
C	6.64252	0.183041	0.215014
C	5.82241	-0.739731	0.829056
N	4.56178	-0.677813	0.335605
C	4.59969	0.279729	-0.581073
N	5.83218	0.829631	-0.691331
H	7.70984	0.417527	0.354227
H	6.11773	-1.44907	1.61929
H	3.75375	0.618393	-1.20068
H	6.11634	1.60148	-1.34307
