18
  This energy is -0.9539 and Call times are: 99620
C	-0.00250495	-0.525021	1.00536
C	-0.31348	0.796146	0.8705
C	-0.200421	1.08407	-0.523929
C	0.169662	-0.0865602	-1.11809
O	0.295143	-1.07985	-0.199042
H	0.0427415	-1.17866	1.89191
H	-0.594312	1.49758	1.67251
H	-0.376165	2.05313	-1.01803
H	0.372219	-0.339571	-2.17175
C	4.78782	0.363108	-1.04084
C	4.06217	-0.208615	-0.0172651
N	4.85757	-0.505532	1.03899
C	6.07206	-0.119476	0.672084
N	6.08235	0.410768	-0.57384
H	4.48472	0.727274	-2.03535
H	2.97894	-0.412187	-0.0219862
H	6.98933	-0.20193	1.2771
H	6.91739	0.786583	-1.08643
