18
  This energy is -0.8652 and Call times are: 2479
C	-0.543535	0.981574	-0.165783
C	0.729823	0.768394	-0.605654
C	1.06113	-0.564352	-0.213047
C	-0.0390113	-1.04794	0.432082
O	-1.02858	-0.117186	0.470196
H	-1.20583	1.85957	-0.24153
H	1.37144	1.47842	-1.15181
H	2.0107	-1.0931	-0.394273
H	-0.240319	-2.02433	0.902609
C	6.06866	0.603295	-0.75764
C	5.43281	-0.597907	-0.989905
N	4.747	-1.00743	0.104841
C	4.9566	-0.0638786	1.0128
N	5.74734	0.929025	0.541145
H	6.70582	1.22851	-1.40314
H	5.4566	-1.17641	-1.92779
H	4.55492	-0.0502985	2.03881
H	6.05671	1.78407	1.06502
