18
  This energy is -1.5214 and Call times are: 55220
C	0.833311	-0.593788	-0.489294
C	0.908358	0.755717	-0.306048
C	-0.313206	1.1323	0.3312
C	-1.0269	-0.0203281	0.481113
O	-0.341807	-1.08432	-0.0144451
H	1.53966	-1.31098	-0.938693
H	1.74046	1.41941	-0.591035
H	-0.616541	2.14602	0.638531
H	-2.02023	-0.213543	0.918383
C	5.00494	1.05454	-0.330237
C	4.47657	0.718631	0.898229
N	4.10903	-0.585318	0.932024
C	4.40825	-1.05655	-0.270902
N	4.95094	-0.106482	-1.06868
H	5.4023	2.00589	-0.718281
H	4.35397	1.39378	1.76078
H	4.25085	-2.08964	-0.620439
H	5.26981	-0.23065	-2.06073
