18
  This energy is -1.3575 and Call times are: 113211
C	-0.0874471	-0.0166554	1.1307
C	0.915924	-0.658534	0.466159
C	0.688146	-0.408699	-0.92158
C	-0.43431	0.363795	-0.982562
O	-0.921249	0.612933	0.261557
H	-0.315723	0.0668449	2.20595
H	1.73435	-1.24874	0.908795
H	1.29486	-0.766684	-1.76884
H	-0.979519	0.794916	-1.83821
C	5.51065	0.37897	0.858166
C	4.76417	1.15637	-0.00180826
N	4.05887	0.388302	-0.867334
C	4.36663	-0.860837	-0.545533
N	5.23852	-0.919394	0.488866
H	6.19349	0.6488	1.67942
H	4.72186	2.2577	-0.0132547
H	3.98209	-1.77024	-1.03475
H	5.6322	-1.7883	0.926214
