18
  This energy is -0.5115 and Call times are: 25117
C	-0.522977	0.455174	-0.897615
C	-1.13558	0.319531	0.313458
C	-0.169874	-0.285539	1.17452
C	0.947602	-0.466231	0.413619
O	0.749745	-0.0195223	-0.854576
H	-0.880072	0.867926	-1.85541
H	-2.1643	0.615835	0.574283
H	-0.300984	-0.551643	2.2357
H	1.93419	-0.895373	0.653907
C	5.19821	0.191144	0.366913
C	6.30271	0.976732	0.620055
N	7.41382	0.458132	0.042985
C	7.00019	-0.644987	-0.56584
N	5.67197	-0.849763	-0.400066
H	4.14379	0.295669	0.668236
H	6.31778	1.90843	1.20874
H	7.62805	-1.33944	-1.147
H	5.11011	-1.64916	-0.782869
