18
  This energy is -1.3838 and Call times are: 107302
C	-0.147366	-0.785843	0.804447
C	-0.0601293	0.544907	1.09057
C	0.120517	1.20354	-0.163895
C	0.127724	0.217125	-1.10587
O	-0.0346823	-1.00417	-0.532209
H	-0.287602	-1.6656	1.45376
H	-0.117257	1.01552	2.08524
H	0.231299	2.28634	-0.335249
H	0.23884	0.253783	-2.20202
C	5.29596	0.669015	-0.367104
C	3.96771	1.03185	-0.294761
N	3.20758	0.0125669	0.174035
C	4.06102	-0.978837	0.391692
N	5.33266	-0.632602	0.0808174
H	6.18792	1.22636	-0.694708
H	3.54424	2.01084	-0.572428
H	3.80816	-1.97935	0.77805
H	6.18429	-1.23997	0.16497
