18
  This energy is -1.4333 and Call times are: 7864
C	-0.480502	-0.580667	-0.847553
C	0.292367	-1.18061	0.102769
C	0.709452	-0.136626	0.983819
C	0.154639	1.00913	0.494117
O	-0.575365	0.756517	-0.624049
H	-1.01221	-0.989382	-1.72248
H	0.543563	-2.25096	0.175996
H	1.34833	-0.23659	1.87597
H	0.203266	2.05302	0.845086
C	3.98775	0.841896	-0.128656
C	3.872	-0.482452	-0.494511
N	5.00122	-1.17129	-0.199771
C	5.81442	-0.277679	0.346854
N	5.24941	0.951183	0.412132
H	3.28503	1.68615	-0.212082
H	2.99393	-0.953264	-0.965863
H	6.83453	-0.4696	0.716668
H	5.68875	1.8214	0.800673
