18
  This energy is -1.2065 and Call times are: 125629
C	0.579324	-0.0294186	0.974638
C	-0.538658	0.734856	0.812233
C	-0.975992	0.508017	-0.528439
C	-0.0866522	-0.374851	-1.06695
O	0.869893	-0.713806	-0.162989
H	1.24876	-0.171264	1.83892
H	-1.00826	1.3924	1.56137
H	-1.85209	0.954712	-1.02544
H	-0.0257222	-0.832321	-2.06808
C	5.20237	0.122123	-1.16606
C	6.14419	0.44989	-0.213863
N	5.6927	0.176622	1.03433
C	4.4754	-0.318789	0.857149
N	4.13366	-0.372063	-0.452036
H	5.21655	0.202877	-2.26461
H	7.1414	0.878652	-0.405136
H	3.79124	-0.658132	1.6515
H	3.22728	-0.722968	-0.847759
