18
  This energy is -1.2037 and Call times are: 123384
C	-1.10454	0.25538	-0.0343527
C	-0.338348	0.474149	1.07266
C	0.976089	0.0308697	0.732248
C	0.897098	-0.419648	-0.55273
O	-0.366267	-0.290042	-1.03659
H	-2.17275	0.44201	-0.232694
H	-0.665927	0.904503	2.03265
H	1.87027	0.0491994	1.37583
H	1.65779	-0.849798	-1.22472
C	5.82086	-0.621642	0.692106
C	5.64215	-0.774831	-0.666474
N	4.73382	0.11094	-1.14277
C	4.35049	0.810975	-0.0837024
N	4.97726	0.407332	1.0467
H	6.4671	-1.15428	1.4078
H	6.15235	-1.50862	-1.31154
H	3.61378	1.63041	-0.0797782
H	4.84566	0.802862	2.00977
