18
  This energy is -0.8274 and Call times are: 56734
C	0.446592	-0.0174363	-1.04243
C	-0.484119	-0.925773	-0.631238
C	-0.797008	-0.581023	0.719083
C	-0.0298783	0.507553	1.01385
O	0.735776	0.865382	-0.0504511
H	0.973149	0.10601	-2.00303
H	-0.907816	-1.75535	-1.21977
H	-1.51153	-1.09016	1.38566
H	0.0613257	1.11069	1.93209
C	7.97621	0.0143439	-0.0375553
C	7.18684	-0.435299	0.999677
N	5.87072	-0.304629	0.704247
C	5.84372	0.224067	-0.511637
N	7.0881	0.435206	-1.00208
H	9.0706	0.0629934	-0.153694
H	7.54338	-0.851657	1.95591
H	4.93992	0.476699	-1.08918
H	7.33022	0.842003	-1.93865
