18
  This energy is -1.7608 and Call times are: 20130
C	-0.328365	-0.125937	1.07829
C	0.384043	0.956799	0.653403
C	0.604215	0.756286	-0.743535
C	0.00691416	-0.431279	-1.04898
O	-0.567576	-0.983858	0.0517644
H	-0.719808	-0.399466	2.07188
H	0.72073	1.81098	1.26259
H	1.14555	1.4241	-1.4328
H	-0.0781818	-0.983802	-1.9991
C	4.35568	-1.12108	0.355412
C	5.13672	-0.115507	0.884525
N	4.93579	1.05449	0.230878
C	4.03354	0.77581	-0.700199
N	3.65206	-0.522997	-0.666062
H	4.25417	-2.18448	0.624511
H	5.84161	-0.21325	1.72621
H	3.61742	1.48553	-1.43326
H	2.95341	-0.986151	-1.29743
