18
  This energy is -0.9164 and Call times are: 133919
C	-0.939538	-0.386948	-0.503924
C	-0.186978	0.618837	-1.03536
C	0.895613	0.819758	-0.125553
C	0.70904	-0.0809848	0.881535
O	-0.406983	-0.826213	0.666735
H	-1.86355	-0.873575	-0.856981
H	-0.375314	1.16452	-1.9739
H	1.71354	1.5522	-0.218432
H	1.29135	-0.288051	1.79438
C	5.84192	-0.977933	-0.367516
C	4.70233	-0.413379	-0.900217
N	4.35467	0.711466	-0.229122
C	5.27508	0.844231	0.716314
N	6.19395	-0.149512	0.674587
H	6.40838	-1.88047	-0.646936
H	4.12476	-0.797543	-1.75677
H	5.32359	1.65065	1.46569
H	7.01762	-0.266608	1.31421
