18
  This energy is -1.2033 and Call times are: 104186
C	-0.207604	-0.874335	-0.691983
C	-0.350038	-0.964228	0.661533
C	-0.00215131	0.321399	1.17753
C	0.322161	1.08343	0.093788
O	0.202269	0.36919	-1.05621
H	-0.364716	-1.61376	-1.49437
H	-0.668168	-1.84728	1.23869
H	0.00307662	0.633326	2.23431
H	0.649099	2.13283	0.00936944
C	5.1771	-0.677263	-0.567918
C	4.17915	0.0888118	-1.13218
N	3.46849	0.742746	-0.181473
C	4.02344	0.383719	0.968201
N	5.05775	-0.471544	0.788409
H	5.93835	-1.33241	-1.02048
H	3.9592	0.181395	-2.20823
H	3.71179	0.717447	1.97106
H	5.65497	-0.896899	1.53918
