18
  This energy is -1.0032 and Call times are: 49494
C	0.00642872	0.243282	1.10778
C	-0.943767	0.729582	0.258653
C	-0.618509	0.209481	-1.03124
C	0.501734	-0.548732	-0.856479
O	0.897246	-0.539323	0.443711
H	0.156812	0.378709	2.19143
H	-1.78893	1.38846	0.514922
H	-1.16135	0.384924	-1.97391
H	1.10468	-1.13698	-1.56759
C	4.38178	-0.559846	0.186788
C	4.60641	0.798146	0.267683
N	5.89869	1.09705	-0.010095
C	6.47358	-0.0710642	-0.262356
N	5.60064	-1.10081	-0.156599
H	3.47119	-1.15955	0.344034
H	3.85917	1.5676	0.521502
H	7.53084	-0.22945	-0.529468
H	5.81205	-2.11758	-0.307445
