18
  This energy is -0.9356 and Call times are: 17919
C	0.266361	0.625898	-0.907581
C	1.16658	0.350255	0.0793308
C	0.467677	-0.450388	1.03359
C	-0.797938	-0.593328	0.545579
O	-0.938588	0.0575081	-0.639175
H	0.35857	1.20705	-1.83979
H	2.21738	0.67787	0.130232
H	0.868845	-0.866964	1.97148
H	-1.67819	-1.12619	0.941134
C	4.71981	-0.725195	-0.290595
C	5.75641	-0.989073	0.579441
N	6.59262	0.0726494	0.679523
C	6.07673	0.991695	-0.125363
N	4.94695	0.558744	-0.73342
H	3.86507	-1.33972	-0.615132
H	5.91593	-1.92653	1.13674
H	6.4859	1.99867	-0.306533
H	4.35653	1.09833	-1.41276
