18
  This energy is -1.5724 and Call times are: 1695
C	0.594774	0.960211	0.103148
C	0.66337	0.174488	-1.00964
C	-0.213809	-0.926078	-0.765867
C	-0.741003	-0.715741	0.474374
O	-0.258192	0.431653	1.01971
H	1.09664	1.90709	0.361629
H	1.27074	0.352096	-1.91167
H	-0.421767	-1.77144	-1.4413
H	-1.45965	-1.3002	1.07205
C	4.60861	-1.12435	0.160261
C	4.2319	-0.222903	1.13321
N	3.94313	0.986208	0.593601
C	4.13995	0.835431	-0.709147
N	4.54197	-0.419493	-1.02081
H	4.90936	-2.18227	0.222683
H	4.1633	-0.423291	2.21487
H	4.00443	1.61137	-1.47972
H	4.76115	-0.785744	-1.97949
