18
  This energy is -0.8149 and Call times are: 102461
C	0.8513	0.526851	0.533027
C	0.822966	-0.825937	0.36117
C	-0.388007	-1.10536	-0.342809
C	-0.992779	0.101343	-0.538999
O	-0.249805	1.10918	-0.0105453
H	1.58891	1.18688	1.01836
H	1.57898	-1.55401	0.696499
H	-0.757581	-2.09316	-0.661823
H	-1.94012	0.372586	-1.03318
C	6.5347	-0.026634	-0.714641
C	5.96831	-1.09546	-0.0528649
N	4.90212	-0.703308	0.686035
C	4.80744	0.603829	0.483423
N	5.76919	1.05962	-0.353763
H	7.3995	0.0357723	-1.39418
H	6.30987	-2.14255	-0.0953174
H	4.05273	1.27544	0.923397
H	5.90571	2.05151	-0.668066
