18
  This energy is -1.2582 and Call times are: 103547
C	0.939307	-0.321192	-0.548578
C	0.190492	0.747256	-0.946155
C	-0.893086	0.831811	-0.0194257
C	-0.710774	-0.192432	0.862653
O	0.403513	-0.906889	0.554552
H	1.86255	-0.760731	-0.960503
H	0.38197	1.40942	-1.80579
H	-1.70879	1.57257	-0.0176693
H	-1.29522	-0.514322	1.74018
C	4.14331	0.424469	0.7952
C	4.34075	-0.899631	0.465167
N	5.29093	-1.02807	-0.492518
C	5.68148	0.211644	-0.755606
N	5.01918	1.12354	-0.00501411
H	3.46417	0.902788	1.51874
H	3.81461	-1.76459	0.900915
H	6.44891	0.508183	-1.48865
H	5.14829	2.16472	-0.0282207
