18
  This energy is -0.833 and Call times are: 60669
C	-0.464517	0.388828	-0.958873
C	0.313947	-0.730675	-0.92598
C	0.706137	-0.894261	0.43767
C	0.132714	0.139716	1.11771
O	-0.585855	0.933232	0.280446
H	-0.983307	0.894408	-1.78983
H	0.584827	-1.37649	-1.77665
H	1.34156	-1.69213	0.854501
H	0.159617	0.417683	2.18413
C	4.82388	0.495242	-0.898843
C	4.44167	-0.621044	-0.185428
N	5.34268	-0.913799	0.783585
C	6.28029	0.0173273	0.671745
N	6.0132	0.890393	-0.32826
H	4.34953	1.01893	-1.744
H	3.53192	-1.22044	-0.35254
H	7.18367	0.106505	1.29639
H	6.60026	1.71182	-0.614415
