18
  This energy is -1.1765 and Call times are: 78399
C	-0.401216	1.00213	-0.348094
C	0.795449	0.506188	-0.775192
C	0.949641	-0.7565	-0.125608
C	-0.166411	-0.920707	0.641098
O	-1.00224	0.143759	0.517347
H	-0.92923	1.94093	-0.582827
H	1.49901	0.981824	-1.47724
H	1.79652	-1.45452	-0.223874
H	-0.479882	-1.73881	1.3102
C	5.01789	0.182342	1.1567
C	4.53498	-0.954082	0.543111
N	4.53771	-0.819986	-0.805415
C	5.02048	0.395007	-1.02757
N	5.32503	1.03953	0.123701
H	5.15997	0.433357	2.21987
H	4.18465	-1.86836	1.04929
H	5.17184	0.862509	-2.01386
H	5.71989	2.00776	0.212487
