18
  This energy is -0.8176 and Call times are: 121251
C	-0.391889	0.040608	-1.06357
C	-1.21704	0.0908543	0.0213203
C	-0.364524	0.0149262	1.16481
C	0.906325	-0.0750155	0.677753
O	0.908322	-0.0607515	-0.681219
H	-0.603668	0.0679275	-2.14507
H	-2.31581	0.173131	0.0167981
H	-0.670894	0.0266284	2.22316
H	1.88073	-0.153342	1.1873
C	6.7399	-0.158371	-0.246273
C	5.95544	-0.937032	0.578025
N	4.68645	-0.464746	0.633846
C	4.68367	0.602848	-0.152831
N	5.89828	0.829415	-0.706874
H	7.80205	-0.234724	-0.528287
H	6.28238	-1.83115	1.13347
H	3.81943	1.25479	-0.358476
H	6.15078	1.60901	-1.36241
