18
  This energy is -1.4185 and Call times are: 12604
C	0.447914	0.617089	-0.839628
C	0.287502	-0.734267	-0.93171
C	-0.298435	-1.14361	0.30491
C	-0.444357	-0.00626924	1.04351
O	0.00627912	1.0785	0.359983
H	0.858187	1.35463	-1.54882
H	0.554958	-1.37823	-1.78487
H	-0.575604	-2.16806	0.601184
H	-0.849358	0.161706	2.05495
C	5.28313	-0.254338	-0.923981
C	5.43791	-0.707207	0.369115
N	4.46905	-0.214697	1.17859
C	3.71608	0.540838	0.39067
N	4.16568	0.549467	-0.886581
H	5.86953	-0.440954	-1.83768
H	6.23131	-1.3805	0.732494
H	2.82371	1.1099	0.697399
H	3.74347	1.06941	-1.69445
