18
  This energy is -1.3616 and Call times are: 24008
C	0.254063	-0.885616	0.661466
C	-0.781382	-0.91008	-0.226018
C	-0.781277	0.368695	-0.862299
C	0.254224	1.06171	-0.307468
O	0.897466	0.310928	0.625041
H	0.630748	-1.64473	1.36652
H	-1.47561	-1.74488	-0.413768
H	-1.4754	0.722503	-1.64147
H	0.631056	2.08189	-0.487735
C	4.29655	-0.223667	1.1374
C	3.89369	0.887683	0.427648
N	4.30119	0.817436	-0.8629
C	4.95438	-0.333119	-0.953426
N	4.97937	-0.997844	0.226026
H	4.15053	-0.508896	2.19137
H	3.31628	1.73894	0.823648
H	5.43392	-0.737224	-1.8595
H	5.43255	-1.92611	0.410986
