18
  This energy is -1.6349 and Call times are: 116716
C	-0.00596813	1.09448	0.297445
C	0.0475605	0.088078	1.2165
C	0.0372772	-1.12738	0.466383
C	-0.0216273	-0.756428	-0.844837
O	-0.0487237	0.596891	-0.966512
H	-0.0192685	2.19065	0.413558
H	0.0900261	0.191272	2.31269
H	0.0701842	-2.15395	0.865351
H	-0.0492359	-1.35145	-1.77244
C	3.73783	-0.666227	-0.853014
C	3.66244	-0.891202	0.505237
N	4.30814	0.0783714	1.1977
C	4.78231	0.901711	0.272552
N	4.46507	0.496194	-0.979848
H	3.33875	-1.23219	-1.70973
H	3.1537	-1.73575	0.997961
H	5.36847	1.81635	0.457171
H	4.7238	0.975892	-1.87662
