18
  This energy is -0.4587 and Call times are: 137360
C	-0.944476	0.53255	-0.3328
C	0.25555	1.17199	-0.225893
C	1.18771	0.183109	0.213782
C	0.475026	-0.973323	0.33674
O	-0.828893	-0.778259	0.00695556
H	-1.94095	0.893799	-0.635762
H	0.463467	2.23354	-0.43561
H	2.26206	0.325502	0.41274
H	0.775559	-1.988	0.645542
C	5.64579	0.416328	0.316875
C	5.9312	-0.853314	-0.138862
N	7.25154	-0.988976	-0.412375
C	7.78321	0.192014	-0.127402
N	6.85589	1.07348	0.316092
H	4.69879	0.883142	0.631209
H	5.20808	-1.67389	-0.275217
H	8.84618	0.465452	-0.225238
H	7.02628	2.06801	0.604416
