18
  This energy is -1.1054 and Call times are: 31884
C	0.239657	0.263643	1.07678
C	-0.356894	-0.912339	0.728116
C	-0.490622	-0.876502	-0.693485
C	0.0360152	0.318215	-1.08805
O	0.486746	1.02737	-0.0198892
H	0.537028	0.670003	2.05744
H	-0.671235	-1.72364	1.40418
H	-0.929262	-1.6545	-1.33878
H	0.147318	0.774437	-2.0854
C	5.51318	-0.634157	0.386055
C	5.10119	0.594689	0.856526
N	4.01242	1.03644	0.181287
C	3.74996	0.0852561	-0.704713
N	4.62661	-0.943385	-0.621199
H	6.34672	-1.28864	0.68672
H	5.57004	1.17046	1.67109
H	2.92793	0.0912364	-1.4385
H	4.63024	-1.81115	-1.21131
