18
  This energy is -0.5776 and Call times are: 36096
C	0.784129	0.140002	-0.807429
C	-0.513538	-0.166395	-1.09475
C	-1.18136	-0.259333	0.164416
C	-0.23283	-0.00152488	1.11004
O	0.973411	0.244505	0.53431
H	1.65737	0.307302	-1.45913
H	-0.95609	-0.312323	-2.09322
H	-2.24464	-0.491647	0.336328
H	-0.28879	0.0364615	2.21035
C	6.53486	-0.380546	0.411519
C	5.489	0.132315	1.14928
N	4.44821	0.472273	0.350728
C	4.84687	0.171457	-0.877767
N	6.09818	-0.345809	-0.893966
H	7.52591	-0.755275	0.71306
H	5.46676	0.263132	2.24347
H	4.26221	0.309592	-1.80152
H	6.63367	-0.660449	-1.73984
