18
  This energy is -0.8039 and Call times are: 74585
C	-0.655968	0.25927	0.888192
C	0.428705	1.00836	0.537875
C	0.987689	0.372825	-0.612668
C	0.195257	-0.708529	-0.863864
O	-0.813463	-0.793242	0.0429545
H	-1.38635	0.368408	1.70666
H	0.798119	1.91728	1.03936
H	1.87667	0.691021	-1.1806
H	0.242649	-1.48368	-1.64626
C	6.14612	-0.528538	0.898606
C	4.82476	-0.137952	0.847618
N	4.53207	0.44149	-0.341957
C	5.66753	0.410491	-1.02635
N	6.67055	-0.164655	-0.321538
H	6.73086	-1.02319	1.6904
H	4.07736	-0.263864	1.64786
H	5.82003	0.795122	-2.04764
H	7.65932	-0.306381	-0.643258
