18
  This energy is -0.9062 and Call times are: 50527
C	-0.103013	1.04747	-0.422599
C	-1.16543	0.354268	0.0785213
C	-0.643703	-0.904018	0.508219
C	0.69147	-0.868655	0.231749
O	1.03902	0.315732	-0.336976
H	-0.029794	2.05541	-0.863003
H	-2.21156	0.694838	0.139466
H	-1.2049	-1.73302	0.968564
H	1.49061	-1.6115	0.389226
C	4.55443	-0.534411	-0.453204
C	5.87565	-0.854787	-0.68316
N	6.70474	-0.0303954	0.00204256
C	5.90092	0.798259	0.654599
N	4.59475	0.535287	0.413
H	3.61955	-0.977166	-0.832027
H	6.24552	-1.66601	-1.33121
H	6.21607	1.61577	1.32287
H	3.76992	1.04849	0.809911
