18
  This energy is -0.7477 and Call times are: 100958
C	-0.862429	0.0141526	0.73649
C	-0.352378	1.15358	0.187009
C	0.704986	0.732192	-0.675853
C	0.747735	-0.627539	-0.577483
O	-0.20251	-1.08304	0.280753
H	-1.68305	-0.147349	1.45464
H	-0.687147	2.18713	0.370864
H	1.35303	1.37406	-1.29402
H	1.39833	-1.37536	-1.05992
C	6.24577	0.0703684	0.981389
C	6.46119	0.745898	-0.201149
N	5.52228	0.426164	-1.12457
C	4.72739	-0.44441	-0.517213
N	5.12163	-0.691847	0.754377
H	6.79456	0.0778536	1.93654
H	7.27728	1.45827	-0.404583
H	3.84242	-0.931551	-0.957385
H	4.65909	-1.3407	1.43724
