18
  This energy is -0.9082 and Call times are: 8958
C	-0.74249	-0.674457	-0.529355
C	0.47327	-1.12056	-0.101228
C	1.1102	0.0037882	0.507275
C	0.227433	1.03771	0.397279
O	-0.909419	0.641384	-0.233201
H	-1.56738	-1.18741	-1.05059
H	0.880679	-2.1392	-0.203652
H	2.10963	0.0302248	0.970451
H	0.28877	2.08918	0.722717
C	4.84282	-0.782791	0.193855
C	4.80766	0.283516	-0.679586
N	5.97034	0.979034	-0.648638
C	6.72392	0.346614	0.240621
N	6.08892	-0.722462	0.776762
H	4.09425	-1.55453	0.433863
H	3.9642	0.563453	-1.33154
H	7.74833	0.623967	0.537069
H	6.47272	-1.38009	1.4989
