18
  This energy is -0.8273 and Call times are: 36321
C	0.94142	0.357286	-0.521991
C	-0.0147896	1.21851	-0.0699677
C	-1.02839	0.402928	0.519563
C	-0.602104	-0.884694	0.375751
O	0.59912	-0.931225	-0.258211
H	1.8981	0.53376	-1.04053
H	-0.00713084	2.31784	-0.144229
H	-1.96287	0.744175	0.993266
H	-1.05576	-1.84303	0.67749
C	4.79237	0.862501	-0.61927
C	4.79823	-0.482154	-0.924247
N	5.47788	-1.19189	0.00895107
C	5.89209	-0.29096	0.889511
N	5.50415	0.962587	0.555268
H	4.34692	1.72644	-1.13765
H	4.32422	-0.952915	-1.80092
H	6.48277	-0.494831	1.79712
H	5.70695	1.84299	1.08914
