18
  This energy is -0.7003 and Call times are: 136275
C	0.776864	0.754645	-0.336741
C	1.08199	-0.554737	-0.106985
C	-0.139604	-1.17614	0.295098
C	-1.0834	-0.19164	0.275553
O	-0.541232	0.994079	-0.108037
H	1.39952	1.60428	-0.661825
H	2.06836	-1.03484	-0.210285
H	-0.288702	-2.23385	0.56553
H	-2.16047	-0.206636	0.509928
C	6.50416	0.717461	0.611963
C	5.39636	0.0453237	1.08328
N	4.82025	-0.693908	0.10443
C	5.56781	-0.481178	-0.970056
N	6.59569	0.362762	-0.715441
H	7.2103	1.40031	1.11059
H	5.00245	0.0805337	2.11209
H	5.40736	-0.918245	-1.96879
H	7.32365	0.685417	-1.39898
