18
  This energy is -0.7911 and Call times are: 25278
C	1.10563	0.25197	0.022306
C	0.555658	-0.537044	-0.944836
C	-0.836455	-0.620682	-0.636384
C	-1.01429	0.124604	0.492019
O	0.161267	0.664905	0.908126
H	2.14182	0.589286	0.188949
H	1.0779	-1.01247	-1.79061
H	-1.60817	-1.17385	-1.19545
H	-1.91509	0.345546	1.08784
C	5.31815	0.286486	1.10615
C	5.01277	0.996169	-0.0358792
N	5.49305	0.374861	-1.14033
C	6.09409	-0.716116	-0.685205
N	6.01614	-0.814716	0.66305
H	5.09558	0.480679	2.16742
H	4.4545	1.94538	-0.0827097
H	6.60698	-1.47669	-1.29569
H	6.412	-1.58355	1.25757
