18
  This energy is -0.7855 and Call times are: 84149
C	0.949308	0.0531284	0.618379
C	0.387166	-1.13169	0.243447
C	-0.776466	-0.790821	-0.51146
C	-0.82268	0.572208	-0.531202
O	0.223583	1.10414	0.153925
H	1.85271	0.279503	1.20819
H	0.755022	-2.14414	0.475231
H	-1.4902	-1.48643	-0.981359
H	-1.53836	1.27287	-0.991773
C	6.73238	-0.205432	-0.246172
C	5.64522	-0.930701	-0.685735
N	4.48725	-0.413029	-0.208626
C	4.85464	0.629425	0.524135
N	6.19837	0.796492	0.533036
H	7.81224	-0.327322	-0.426696
H	5.67564	-1.81823	-1.33859
H	4.18058	1.30447	1.07567
H	6.73177	1.54639	1.03742
