18
  This energy is -1.5081 and Call times are: 27031
C	-0.560336	-0.937066	-0.307135
C	-0.881892	0.297471	-0.789725
C	0.0349404	1.20686	-0.179352
C	0.835824	0.447753	0.622347
O	0.486421	-0.863964	0.55656
H	-0.993976	-1.93242	-0.498127
H	-1.68423	0.5431	-1.50388
H	0.0847954	2.29775	-0.326172
H	1.67787	0.717718	1.28063
C	4.74131	-0.657448	0.914527
C	3.8206	-0.999985	-0.0529968
N	3.66932	-0.00299994	-0.958339
C	4.49304	0.954399	-0.554002
N	5.16217	0.607903	0.571077
H	5.11438	-1.20628	1.79382
H	3.26277	-1.94864	-0.114024
H	4.64521	1.9292	-1.04475
H	5.86722	1.1919	1.08402
