18
  This energy is -1.0962 and Call times are: 120710
C	-0.165084	0.195078	-1.10503
C	1.08012	0.139314	-0.551198
C	0.878562	-0.120839	0.838698
C	-0.472018	-0.201087	1.01152
O	-1.12491	-0.010611	-0.165117
H	-0.497099	0.371612	-2.1413
H	2.04389	0.268428	-1.06943
H	1.65499	-0.233536	1.61236
H	-1.08448	-0.38653	1.90915
C	4.98414	0.0314532	-1.15651
C	4.69142	1.01267	-0.233098
N	5.07887	0.643256	1.01186
C	5.60993	-0.562542	0.861369
N	5.57644	-0.975656	-0.427741
H	4.8184	-0.0196992	-2.24437
H	4.2076	1.98053	-0.44287
H	6.038	-1.18729	1.66179
H	5.93362	-1.8891	-0.80096
