18
  This energy is -1.2478 and Call times are: 138137
C	-0.592519	0.617469	0.744348
C	0.284746	1.17909	-0.136198
C	0.82574	0.0958124	-0.893791
C	0.231311	-1.03216	-0.409322
O	-0.637774	-0.732203	0.591543
H	-1.23663	1.06373	1.51974
H	0.526628	2.24889	-0.241657
H	1.57047	0.158709	-1.70343
H	0.339942	-2.09318	-0.68805
C	5.11625	0.789572	-0.81342
C	4.04175	0.872563	0.0466395
N	3.97539	-0.215285	0.852056
C	5.00481	-0.970275	0.49302
N	5.72341	-0.407898	-0.507452
H	5.47969	1.47504	-1.59546
H	3.3132	1.69789	0.100443
H	5.27847	-1.94422	0.929807
H	6.57989	-0.807867	-0.963227
