18
  This energy is -1.8407 and Call times are: 71960
C	-0.804367	-0.600434	-0.528084
C	-0.658603	0.74353	-0.709432
C	0.443721	1.13159	0.11179
C	0.874262	-0.0094884	0.722479
O	0.123411	-1.07692	0.343237
H	-1.51945	-1.3225	-0.955317
H	-1.26636	1.39616	-1.35658
H	0.860565	2.14492	0.227962
H	1.69296	-0.191606	1.4379
C	3.97861	-0.0419525	-0.998603
C	5.04116	-0.848833	-0.650646
N	5.52122	-0.523456	0.574175
C	4.75938	0.481459	0.984504
N	3.81449	0.808964	0.0715343
H	3.34866	-0.0139903	-1.90188
H	5.47	-1.65994	-1.26143
H	4.85006	1.01404	1.9449
H	3.09411	1.56672	0.161707
