18
  This energy is -1.1598 and Call times are: 95611
C	0.110989	-0.341761	1.07577
C	-0.883657	-0.800012	0.262715
C	-0.692714	-0.148544	-0.993967
C	0.401758	0.650299	-0.837915
O	0.905341	0.544774	0.419972
H	0.358214	-0.56629	2.12635
H	-1.67266	-1.52415	0.521912
H	-1.30424	-0.267151	-1.90285
H	0.914662	1.33222	-1.53588
C	3.8777	-0.652173	0.330332
C	4.3442	-0.469254	-0.954215
N	5.42704	0.34544	-0.969438
C	5.63153	0.666712	0.300835
N	4.72368	0.0902054	1.12366
H	3.03179	-1.23854	0.722958
H	3.91884	-0.910529	-1.87029
H	6.43159	1.32049	0.683865
H	4.67376	0.189777	2.16714
