18
  This energy is -0.8752 and Call times are: 102783
C	0.531613	-0.681161	-0.734717
C	1.15817	0.365013	-0.123713
C	0.175166	0.97368	0.714949
C	-0.965307	0.245723	0.542405
O	-0.765759	-0.768838	-0.339558
H	0.89402	-1.42737	-1.46072
H	2.20731	0.676822	-0.250836
H	0.310623	1.85124	1.36736
H	-1.97065	0.346412	0.983315
C	6.03435	-0.724797	-0.819208
C	6.51863	0.519254	-0.474314
N	5.77394	1.07764	0.510652
C	4.83126	0.183391	0.775795
N	4.94528	-0.920824	0.000361148
H	6.37624	-1.45996	-1.56499
H	7.39203	1.02393	-0.918535
H	4.03267	0.286358	1.52804
H	4.32269	-1.76537	0.0197746
