18
  This energy is -0.7193 and Call times are: 76223
C	-0.0153962	0.03422	1.13358
C	-1.05894	-0.453746	0.403309
C	-0.669518	-0.331056	-0.96542
C	0.577612	0.221053	-0.950737
O	0.992685	0.450727	0.322831
H	0.130417	0.138081	2.22133
H	-2.00774	-0.859396	0.789716
H	-1.25636	-0.622666	-1.85124
H	1.26526	0.495626	-1.76744
C	5.70881	1.13407	0.249873
C	4.7827	0.219388	-0.204905
N	5.34821	-0.998354	-0.388772
C	6.62032	-0.839734	-0.0493524
N	6.88765	0.428454	0.342855
H	5.61552	2.20156	0.505395
H	3.7166	0.416307	-0.403646
H	7.39903	-1.61912	-0.069335
H	7.81604	0.802861	0.657775
