18
  This energy is -1.4489 and Call times are: 89034
C	-0.0270728	0.556715	-0.987794
C	-1.0621	0.59311	-0.100233
C	-0.658934	-0.21815	1.00404
C	0.586876	-0.678679	0.69381
O	0.988425	-0.215347	-0.519076
H	0.107385	1.03071	-1.97395
H	-2.014	1.13671	-0.211946
H	-1.23609	-0.428614	1.91875
H	1.2823	-1.33348	1.24415
C	4.25254	0.474935	-1.01922
C	3.82012	0.818976	0.244029
N	4.43085	0.0665533	1.19133
C	5.23907	-0.741198	0.51833
N	5.16791	-0.533912	-0.817918
H	3.98266	0.863655	-2.014
H	3.07841	1.59663	0.48889
H	5.90488	-1.50327	0.954422
H	5.70728	-1.04444	-1.55934
