18
  This energy is -1.2749 and Call times are: 68780
C	0.0773606	-1.12032	-0.159053
C	-0.317031	-0.267694	-1.14792
C	-0.289153	1.03895	-0.571713
C	0.119813	0.869453	0.718399
O	0.348143	-0.442949	0.987619
H	0.204117	-2.21531	-0.145316
H	-0.599271	-0.53234	-2.17962
H	-0.545481	1.98883	-1.06783
H	0.285359	1.59254	1.53387
C	5.37042	0.22602	-0.626326
C	4.56454	-0.888648	-0.722296
N	3.53025	-0.820454	0.150685
C	3.69386	0.332137	0.785813
N	4.78938	1.00013	0.353132
H	6.28574	0.513578	-1.16766
H	4.71087	-1.74086	-1.4058
H	3.04083	0.735477	1.57645
H	5.13105	1.93047	0.698066
