18
  This energy is -1.2569 and Call times are: 33695
C	0.0452002	-1.04255	0.444339
C	-1.0696	-0.560923	-0.176644
C	-0.742008	0.764785	-0.595329
C	0.544064	0.976245	-0.193238
O	1.04044	-0.117082	0.443359
H	0.254073	-2.014	0.921741
H	-2.02662	-1.08648	-0.324992
H	-1.39453	1.47146	-1.13284
H	1.20875	1.84939	-0.298394
C	6.50619	1.1383	-0.279462
C	7.37375	0.119888	-0.613129
N	6.94188	-1.06895	-0.126632
C	5.81071	-0.789123	0.506438
N	5.50495	0.528474	0.442909
H	6.52967	2.21782	-0.497663
H	8.30355	0.221624	-1.19619
H	5.16658	-1.5113	1.03349
H	4.66516	0.996351	0.863753
