18
  This energy is -0.6671 and Call times are: 24542
C	0.701652	0.888866	0.0632648
C	1.1179	-0.34226	-0.350789
C	-0.0349442	-1.18372	-0.295773
C	-1.0539	-0.392511	0.147043
O	-0.621961	0.876399	0.371333
H	1.24258	1.84218	0.180877
H	2.13475	-0.629077	-0.663578
H	-0.0896456	-2.25266	-0.557424
H	-2.11704	-0.609998	0.341205
C	6.64286	0.649624	-0.641282
C	5.51678	-0.00636173	-1.0916
N	4.89481	-0.659893	-0.0803815
C	5.63223	-0.410289	0.993183
N	6.69761	0.374966	0.706959
H	7.38439	1.27171	-1.16729
H	5.14197	-0.0198003	-2.12803
H	5.43743	-0.777629	2.01365
H	7.42647	0.710617	1.38324
