18
  This energy is -1.0897 and Call times are: 57663
C	1.05332	-0.039945	0.418704
C	-0.0521538	-0.10191	1.21523
C	-1.17371	-0.0228078	0.334334
C	-0.654587	0.0805123	-0.922731
O	0.704036	0.0716278	-0.889945
H	2.12915	-0.064907	0.657944
H	-0.0754758	-0.194075	2.31298
H	-2.23951	-0.0414474	0.613298
H	-1.1393	0.165614	-1.90917
C	6.23546	1.11278	0.277177
C	6.19978	0.541585	-0.977258
N	6.56688	-0.762109	-0.931149
C	6.82931	-0.998789	0.34703
N	6.64439	0.100272	1.1161
H	6.00642	2.13406	0.620791
H	5.91572	1.0468	-1.91477
H	7.16034	-1.95907	0.774236
H	6.78563	0.168164	2.15374
