18
  This energy is -0.8303 and Call times are: 137168
C	-0.42502	-0.833255	-0.641439
C	0.209605	0.249077	-1.1764
C	0.59578	1.06315	-0.0681265
C	0.163052	0.406425	1.04625
O	-0.462548	-0.75364	0.714756
H	-0.887861	-1.71599	-1.11241
H	0.387904	0.453667	-2.24432
H	1.13303	2.02442	-0.105913
H	0.237535	0.656398	2.11733
C	6.22668	-0.351828	0.760202
C	6.43043	0.220424	-0.477601
N	5.25249	0.502018	-1.08561
C	4.32152	0.105966	-0.228252
N	4.85828	-0.415951	0.900055
H	6.93499	-0.706149	1.5259
H	7.40628	0.435159	-0.942851
H	3.23178	0.1749	-0.376405
H	4.33226	-0.796876	1.72435
