18
  This energy is -1.1774 and Call times are: 113571
C	0.108734	-0.890401	-0.694092
C	-1.02207	-0.128746	-0.654747
C	-0.779961	0.88017	0.32688
C	0.477413	0.645985	0.800738
O	1.03494	-0.431557	0.188301
H	0.374771	-1.77347	-1.29796
H	-1.93509	-0.263834	-1.2566
H	-1.46795	1.68286	0.63744
H	1.08032	1.16672	1.56271
C	4.86612	-0.892961	-0.608642
C	4.15574	0.173637	-1.11744
N	3.76674	1.01699	-0.130549
C	4.23402	0.475638	0.98624
N	4.90421	-0.677195	0.750837
H	5.33171	-1.7613	-1.10135
H	3.91693	0.349766	-2.17894
H	4.11407	0.881774	2.00354
H	5.36503	-1.28991	1.46741
