18
  This energy is -0.8102 and Call times are: 55636
C	-0.251269	0.00301676	-1.10601
C	0.479346	0.994714	-0.52025
C	0.582536	0.6413	0.859811
C	-0.0941301	-0.535164	0.99556
O	-0.609859	-0.939595	-0.195016
H	-0.579079	-0.145557	-2.14799
H	0.903104	1.88572	-1.01079
H	1.10221	1.20381	1.65203
H	-0.278361	-1.17548	1.8738
C	6.43035	-0.549605	-0.796615
C	5.99641	0.255274	0.235379
N	7.04026	0.72486	0.960901
C	8.11767	0.213245	0.381206
N	7.80262	-0.562399	-0.683082
H	5.87816	-1.09596	-1.57772
H	4.94883	0.505569	0.469448
H	9.16153	0.374294	0.6953
H	8.47551	-1.07572	-1.30355
