18
  This energy is -1.5333 and Call times are: 59908
C	0.00049512	-1.09712	0.287621
C	-0.883821	-0.203667	0.816865
C	-0.573243	1.05534	0.218056
C	0.473445	0.820098	-0.624251
O	0.83682	-0.48913	-0.594376
H	0.135725	-2.17835	0.454693
H	-1.67543	-0.41045	1.5549
H	-1.07617	2.01879	0.399502
H	1.04081	1.49065	-1.29036
C	4.21663	-1.12974	0.308514
C	4.63344	-0.546287	-0.869194
N	4.33786	0.77609	-0.890746
C	3.73995	1.01211	0.269181
N	3.64285	-0.105284	1.02786
H	4.28542	-2.16687	0.673443
H	5.14214	-1.05581	-1.70374
H	3.35369	1.9849	0.613732
H	3.21248	-0.17747	1.98224
