18
  This energy is -1.8976 and Call times are: 94167
C	-0.249072	1.02716	0.411467
C	0.296808	0.84857	-0.825664
C	0.461876	-0.561732	-0.980314
C	0.00229464	-1.12046	0.175965
O	-0.435727	-0.164737	1.03721
H	-0.546829	1.93915	0.95448
H	0.557122	1.63143	-1.55606
H	0.87562	-1.08974	-1.85445
H	-0.0657867	-2.17077	0.503798
C	3.50229	1.05232	-0.173229
C	3.70644	0.422509	1.03624
N	4.30665	-0.780455	0.86555
C	4.47422	-0.896492	-0.444823
N	4.00551	0.182775	-1.11496
H	3.04963	2.0253	-0.422117
H	3.4314	0.81456	2.02896
H	4.93448	-1.75088	-0.966759
H	4.02226	0.329257	-2.15396
