18
  This energy is -0.9786 and Call times are: 17598
C	0.709839	-0.181384	0.865811
C	0.858635	-0.797269	-0.342046
C	-0.211804	-0.320328	-1.15863
C	-0.920235	0.544906	-0.377686
O	-0.371488	0.641858	0.861866
H	1.29859	-0.243739	1.79572
H	1.64346	-1.51539	-0.629182
H	-0.421947	-0.595139	-2.20477
H	-1.82089	1.14617	-0.583968
C	6.5639	-0.154328	-0.0813841
C	5.81588	-0.095221	1.07539
N	4.50251	0.0922899	0.798949
C	4.436	0.149293	-0.524287
N	5.65261	0.00582353	-1.10124
H	7.64417	-0.294352	-0.245534
H	6.20033	-0.184516	2.1045
H	3.52184	0.294521	-1.12215
H	5.86183	0.0148645	-2.12954
