18
  This energy is -1.3838 and Call times are: 122904
C	0.156909	1.08884	0.276073
C	-0.980628	0.409693	0.60034
C	-0.805245	-0.912866	0.0902466
C	0.423984	-0.925168	-0.500701
O	1.02566	0.288982	-0.396617
H	0.465469	2.13026	0.464445
H	-1.85547	0.800825	1.14418
H	-1.51707	-1.75104	0.159959
H	0.976573	-1.72396	-1.02207
C	4.01563	-1.07158	-0.0467802
C	3.86177	-0.136958	0.955191
N	4.56345	0.990237	0.683906
C	5.15037	0.755784	-0.481931
N	4.85123	-0.47386	-0.963674
H	3.60338	-2.08591	-0.168176
H	3.25704	-0.255771	1.86899
H	5.80953	1.45008	-1.02755
H	5.19108	-0.8922	-1.86409
