18
  This energy is -0.9108 and Call times are: 11364
C	0.702352	0.521382	-0.721986
C	0.861506	-0.784819	-0.362981
C	-0.20184	-1.0728	0.546129
C	-0.916921	0.0828463	0.662414
O	-0.378859	1.06686	-0.105186
H	1.28308	1.1696	-1.39861
H	1.64873	-1.47618	-0.704127
H	-0.402984	-2.03183	1.04999
H	-1.81574	0.330373	1.25072
C	5.25424	-0.487534	-1.06979
C	4.59307	-0.984377	0.0334463
N	4.7407	-0.164087	1.10202
C	5.4906	0.837831	0.663354
N	5.82624	0.689033	-0.640026
H	5.35484	-0.875039	-2.09608
H	4.01216	-1.92003	0.0775388
H	5.82328	1.70621	1.25452
H	6.41081	1.34497	-1.21385
