18
  This energy is -1.0291 and Call times are: 127949
C	0.258762	-0.582347	0.938251
C	-0.922822	0.0836702	0.794535
C	-0.878013	0.684436	-0.500528
C	0.326997	0.332504	-1.03388
O	1.03425	-0.441139	-0.168854
H	0.661771	-1.18549	1.76834
H	-1.74363	0.14568	1.52702
H	-1.65717	1.30485	-0.971797
H	0.792354	0.565267	-2.00574
C	4.05175	0.578562	0.388818
C	4.84083	0.914206	-0.690922
N	5.85095	0.025442	-0.852966
C	5.68914	-0.858208	0.122536
N	4.61793	-0.568523	0.898543
H	3.15721	1.05879	0.81628
H	4.69938	1.78174	-1.35592
H	6.32628	-1.73655	0.314387
H	4.2826	-1.11384	1.73007
