18
  This energy is -1.419 and Call times are: 77099
C	0.309064	1.04213	0.323813
C	-0.715926	0.822292	-0.548794
C	-0.798383	-0.594956	-0.706046
C	0.183496	-1.11607	0.0843492
O	0.869697	-0.130564	0.720679
H	0.731531	1.97329	0.735756
H	-1.3503	1.58194	-1.03315
H	-1.5094	-1.15263	-1.33656
H	0.491232	-2.15686	0.277492
C	5.25184	1.03393	0.438497
C	6.0545	0.0332748	-0.0670276
N	5.31444	-1.02135	-0.487244
C	4.05744	-0.676262	-0.243337
N	3.96704	0.554213	0.314649
H	5.49586	2.02055	0.863437
H	7.15436	0.0533812	-0.136079
H	3.16465	-1.28692	-0.453703
H	3.08607	1.0486	0.598789
