18
  This energy is -2.0902 and Call times are: 115081
C	0.18269	-0.950148	-0.591815
C	-0.54864	-0.935915	0.559414
C	-0.553221	0.42179	1.00296
C	0.175713	1.11738	0.0836201
O	0.63282	0.295273	-0.897302
H	0.451536	-1.77075	-1.27708
H	-1.03599	-1.79529	1.04733
H	-1.04483	0.82439	1.90314
H	0.438186	2.18589	0.0155052
C	3.89864	0.195715	-0.992547
C	5.23887	0.436489	-0.775902
N	5.59945	0.0934141	0.484574
C	4.48713	-0.358475	1.04775
N	3.43377	-0.317144	0.197857
H	3.26396	0.34796	-1.87998
H	5.95213	0.851605	-1.50651
H	4.38798	-0.731835	2.07974
H	2.45033	-0.618387	0.406062
