18
  This energy is -1.498 and Call times are: 51707
C	0.520649	0.874423	-0.500709
C	-0.181927	-0.05828	-1.20557
C	-0.681336	-0.98407	-0.239327
C	-0.239855	-0.535377	0.970691
O	0.495788	0.598642	0.829831
H	1.07622	1.76981	-0.824559
H	-0.333312	-0.0910625	-2.29649
H	-1.29692	-1.87737	-0.432131
H	-0.37916	-0.928138	1.99127
C	4.505	-0.455361	1.00683
C	3.86204	-1.13216	-0.0078992
N	3.53263	-0.295066	-1.02144
C	3.96957	0.896515	-0.636946
N	4.56334	0.852284	0.579226
H	4.9116	-0.800225	1.97083
H	3.62993	-2.20948	-0.0268531
H	3.88077	1.83506	-1.20745
H	4.98736	1.66019	1.09764
