18
  This energy is -1.162 and Call times are: 98460
C	0.559518	0.950574	0.2641
C	0.674096	-0.192618	0.99919
C	-0.168705	-1.15353	0.361656
C	-0.723907	-0.512712	-0.706743
O	-0.290256	0.773119	-0.781561
H	1.02401	1.94364	0.379532
H	1.29029	-0.344032	1.90001
H	-0.335887	-2.19811	0.669889
H	-1.43209	-0.856661	-1.47838
C	5.5693	-1.02746	0.330427
C	6.03965	-0.180215	-0.650437
N	5.25268	0.916869	-0.767047
C	4.29775	0.750858	0.138032
N	4.4445	-0.406377	0.825682
H	5.94294	-1.99609	0.69877
H	6.93274	-0.340886	-1.27607
H	3.46659	1.44586	0.338987
H	3.82036	-0.762614	1.59041
