18
  This energy is -1.0744 and Call times are: 7657
C	-0.637205	-0.887107	0.305634
C	0.694118	-1.0035	0.0328614
C	1.13937	0.309774	-0.309465
C	0.0408259	1.11275	-0.215663
O	-1.05301	0.39842	0.158859
H	-1.38902	-1.63349	0.610479
H	1.30167	-1.92201	0.0690809
H	2.16078	0.61194	-0.591435
H	-0.0914684	2.19366	-0.38713
C	5.43293	0.889711	-0.76969
C	6.15807	-0.281607	-0.827346
N	5.87207	-1.08567	0.225358
C	4.97291	-0.415726	0.93339
N	4.67496	0.781277	0.374822
H	5.40362	1.7636	-1.43977
H	6.88251	-0.56093	-1.60967
H	4.49986	-0.75531	1.86888
H	3.99592	1.49144	0.743385
