18
  This energy is -1.3768 and Call times are: 61548
C	0.235774	0.841802	-0.722621
C	0.66832	-0.436037	-0.923639
C	0.177909	-1.19355	0.183515
C	-0.511028	-0.311745	0.963362
O	-0.486006	0.935903	0.425068
H	0.372927	1.7617	-1.31442
H	1.27215	-0.807891	-1.76697
H	0.325911	-2.26951	0.369278
H	-1.05623	-0.445852	1.91205
C	3.83218	0.0962454	0.485387
C	4.91916	-0.575493	1.00345
N	5.9905	-0.480739	0.178971
C	5.56975	0.247016	-0.846684
N	4.27511	0.619235	-0.708968
H	2.80894	0.234507	0.869306
H	4.94957	-1.12682	1.95737
H	6.16834	0.53686	-1.72526
H	3.7154	1.19628	-1.3835
