18
  This energy is -1.3 and Call times are: 83763
C	0.531784	0.042978	-1.00088
C	0.858754	0.866682	0.0359309
C	-0.0190342	0.515091	1.10644
C	-0.80492	-0.492428	0.6293
O	-0.482268	-0.793579	-0.656085
H	0.940005	-0.0455658	-2.02106
H	1.63973	1.6439	0.0458868
H	-0.0539574	0.965511	2.11142
H	-1.61806	-1.07018	1.09863
C	5.67416	0.605215	-0.264241
C	5.01011	-0.289622	-1.07631
N	3.92351	-0.803882	-0.450728
C	3.9135	-0.230258	0.744881
N	4.94869	0.627662	0.905962
H	6.58137	1.20753	-0.430719
H	5.29557	-0.573387	-2.10238
H	3.17112	-0.402498	1.54077
H	5.15865	1.20074	1.75963
