18
  This energy is -0.9869 and Call times are: 92828
C	-1.10323	0.234514	0.119498
C	-0.412048	-0.510191	1.02947
C	0.926921	-0.584391	0.537766
C	0.93576	0.121521	-0.629274
O	-0.295702	0.62864	-0.900095
H	-2.15889	0.550039	0.0837151
H	-0.805609	-0.961949	1.9542
H	1.77792	-1.10512	1.00546
H	1.74315	0.333805	-1.34922
C	4.82456	-0.647696	-0.118737
C	4.89574	0.685683	0.225031
N	6.18175	1.11075	0.269836
C	6.90562	0.0451303	-0.0449404
N	6.13349	-1.04034	-0.288169
H	3.96379	-1.32244	-0.250401
H	4.04222	1.34861	0.441531
H	8.00475	0.00432337	-0.11194
H	6.46819	-1.99849	-0.554984
