18
  This energy is -0.8773 and Call times are: 94200
C	0.14702	-0.919078	0.648137
C	-1.07096	-0.567382	0.144941
C	-0.853078	0.626972	-0.607496
C	0.478814	0.899695	-0.497681
O	1.10501	-0.0342237	0.265654
H	0.459326	-1.76436	1.28313
H	-2.02693	-1.09598	0.289155
H	-1.60653	1.20852	-1.16267
H	1.09428	1.71624	-0.90963
C	4.52823	0.340597	-0.569867
C	5.80789	0.81855	-0.757403
N	6.68602	0.201854	0.0703016
C	5.9539	-0.65542	0.768667
N	4.64636	-0.609744	0.41962
H	3.57372	0.600814	-1.05436
H	6.11328	1.59732	-1.47511
H	6.32462	-1.34048	1.54808
H	3.87041	-1.18808	0.82544
