18
  This energy is -1.6064 and Call times are: 19569
C	0.645934	-0.525956	-0.769766
C	0.829841	0.783078	-0.433637
C	-0.161304	1.07662	0.552052
C	-0.86339	-0.0789494	0.731249
O	-0.383954	-1.06806	-0.068008
H	1.17429	-1.17855	-1.48406
H	1.58745	1.47278	-0.83913
H	-0.324954	2.03917	1.06275
H	-1.71411	-0.323108	1.38844
C	4.31749	-0.683587	0.940475
C	4.88718	-1.05935	-0.257612
N	4.94227	-0.016186	-1.12092
C	4.4088	1.00284	-0.460909
N	4.01656	0.651304	0.78655
H	4.11181	-1.25266	1.86101
H	5.25943	-2.06446	-0.514568
H	4.28108	2.02815	-0.843874
H	3.56855	1.27651	1.50046
