18
  This energy is -1.6129 and Call times are: 105475
C	-0.432731	0.657929	-0.816256
C	-0.228094	-0.679617	-0.987918
C	0.3205	-1.1524	0.243195
C	0.402674	-0.0620279	1.05849
O	-0.053071	1.05216	0.427709
H	-0.836667	1.42854	-1.49319
H	-0.442001	-1.27372	-1.8909
H	0.616508	-2.18595	0.484523
H	0.762052	0.050758	2.09453
C	4.76484	0.278106	0.994336
C	4.71963	1.0201	-0.166934
N	3.97628	0.399269	-1.11483
C	3.56192	-0.723599	-0.543787
N	4.0108	-0.842949	0.728158
H	5.2636	0.46236	1.95913
H	5.21005	1.99228	-0.337801
H	2.92785	-1.49373	-1.01186
H	3.82066	-1.638	1.38619
