18
  This energy is -0.7129 and Call times are: 17630
C	0.758645	0.0772977	0.839574
C	-0.548581	0.431317	1.00146
C	-1.17648	0.195838	-0.259657
C	-0.197531	-0.281293	-1.08086
O	0.990738	-0.360187	-0.426029
H	1.61139	0.0899137	1.53808
H	-1.02309	0.819355	1.91708
H	-2.23462	0.364999	-0.516228
H	-0.218449	-0.596323	-2.13706
C	5.37527	0.438278	-0.95795
C	4.83793	0.339991	0.308045
N	5.72166	-0.215721	1.17217
C	6.80314	-0.461249	0.445019
N	6.64415	-0.0847943	-0.845948
H	4.95842	0.830353	-1.89925
H	3.82841	0.660098	0.61342
H	7.73932	-0.915372	0.807748
H	7.35251	-0.174323	-1.61502
