18
  This energy is -1.0343 and Call times are: 101249
C	0.0230337	-0.561473	0.985199
C	-1.13106	-0.357767	0.287387
C	-0.757844	0.3758	-0.879963
C	0.591372	0.555608	-0.792452
O	1.08484	-0.010357	0.340328
H	0.218802	-1.07616	1.9402
H	-2.14362	-0.690678	0.566671
H	-1.4235	0.724734	-1.68572
H	1.30644	1.0616	-1.46171
C	4.41615	-0.300239	0.716767
C	5.63133	-0.939086	0.588912
N	6.41291	-0.322931	-0.330873
C	5.68536	0.694293	-0.771952
N	4.47326	0.750906	-0.170937
H	3.54388	-0.512171	1.35533
H	5.95813	-1.83356	1.14386
H	5.9918	1.42852	-1.53434
H	3.72044	1.46036	-0.347537
