18
  This energy is -1.9638 and Call times are: 126556
C	0.0856903	-0.82911	-0.769178
C	-0.0124347	-1.08042	0.56783
C	-0.100792	0.197166	1.20036
C	-0.048861	1.11641	0.194039
O	0.0650278	0.507269	-1.0155
H	0.174459	-1.50497	-1.63554
H	-0.0216684	-2.06654	1.05934
H	-0.192152	0.398554	2.2798
H	-0.083032	2.21817	0.207776
C	3.27103	1.01826	0.261583
C	4.05635	0.254677	1.09905
N	4.50476	-0.857952	0.468569
C	3.99953	-0.784891	-0.755371
N	3.24825	0.328102	-0.929783
H	2.74433	1.97212	0.423692
H	4.30745	0.486646	2.1469
H	4.14814	-1.51926	-1.56336
H	2.74442	0.611329	-1.80568
