18
  This energy is -2.6887 and Call times are: 14626
C	-0.544239	0.197382	-0.975318
C	-0.0267273	1.20187	-0.211403
C	0.571659	0.56519	0.918507
C	0.366989	-0.772154	0.745317
O	-0.312965	-1.01486	-0.406104
H	-1.09192	0.21428	-1.93188
H	-0.0627528	2.28273	-0.422409
H	1.09183	1.05427	1.75774
H	0.651903	-1.64113	1.36091
C	3.92669	1.08597	0.419206
C	4.94514	0.220697	0.758626
N	4.83826	-0.948935	0.0825733
C	3.75761	-0.809804	-0.673377
N	3.17248	0.399869	-0.506335
H	3.69305	2.10733	0.759444
H	5.75515	0.419411	1.47921
H	3.35023	-1.56249	-1.36745
H	2.30882	0.748655	-0.989768
