18
  This energy is -1.3904 and Call times are: 118840
C	-1.01121	0.245043	0.451457
C	-0.297496	-0.859164	0.814385
C	0.901559	-0.821917	0.0391441
C	0.814723	0.301763	-0.729085
O	-0.346925	0.965478	-0.490198
H	-1.99103	0.62444	0.785007
H	-0.586412	-1.62326	1.55384
H	1.72716	-1.55139	0.0580138
H	1.50327	0.732985	-1.47421
C	5.01177	0.141975	-1.09333
C	4.69779	-1.05009	-0.47564
N	4.24959	-0.843238	0.786438
C	4.28538	0.472147	0.951076
N	4.73778	1.11081	-0.153931
H	5.39792	0.362069	-2.1013
H	4.78663	-2.0557	-0.918024
H	3.99153	1.02024	1.86073
H	4.85708	2.14665	-0.272475
