18
  This energy is -1.7533 and Call times are: 48655
C	-0.855479	-0.120063	-0.734943
C	-0.355405	1.10093	-0.389276
C	0.695504	0.843322	0.543112
C	0.744855	-0.512345	0.684905
O	-0.195325	-1.11662	-0.088351
H	-1.6686	-0.409607	-1.4207
H	-0.692731	2.08434	-0.754262
H	1.33499	1.58729	1.04477
H	1.39397	-1.16032	1.29648
C	3.75543	0.0853178	-1.03984
C	4.06441	1.11824	-0.18033
N	4.69259	0.659263	0.929285
C	4.77301	-0.653403	0.758801
N	4.22204	-1.04866	-0.413289
H	3.25328	0.0772339	-2.0203
H	3.84532	2.18644	-0.34097
H	5.2253	-1.37219	1.46095
H	4.16179	-2.03166	-0.775705
