18
  This energy is -1.0288 and Call times are: 127179
C	0.584221	0.120833	-0.964617
C	-0.295706	-0.9024	-0.76689
C	-0.823861	-0.715513	0.546976
C	-0.220058	0.405427	1.03615
O	0.642989	0.929199	0.126301
H	1.22159	0.380895	-1.82565
H	-0.54759	-1.70798	-1.4752
H	-1.56666	-1.34738	1.0599
H	-0.317567	0.925524	2.00323
C	5.036	-0.169633	1.14045
C	5.63604	0.742119	0.297947
N	5.11908	0.665873	-0.95243
C	4.20182	-0.289546	-0.885884
N	4.11373	-0.824364	0.355003
H	5.19474	-0.391483	2.20774
H	6.43272	1.45359	0.569905
H	3.56603	-0.637301	-1.71599
H	3.46623	-1.5916	0.66055
