18
  This energy is -0.4585 and Call times are: 23367
C	0.833977	0.763167	0.0919754
C	0.0639341	0.391071	1.1545
C	-0.861105	-0.572493	0.648567
C	-0.57468	-0.704156	-0.678459
O	0.457831	0.104194	-1.03554
H	1.66973	1.47726	0.00923185
H	0.139718	0.758292	2.1906
H	-1.64514	-1.1009	1.21441
H	-1.02603	-1.33077	-1.46516
C	5.95702	-0.263701	1.12094
C	5.11606	0.343902	0.212788
N	5.72272	0.495379	-0.989509
C	6.93543	-0.0163061	-0.827842
N	7.12552	-0.487072	0.427481
H	5.8115	-0.543607	2.17641
H	4.08244	0.675698	0.403545
H	7.72375	-0.0717093	-1.59578
H	7.997	-0.936584	0.801284
