18
  This energy is -0.8544 and Call times are: 24157
C	0.805989	0.543488	-0.584298
C	1.08761	-0.487803	0.262758
C	-0.167484	-0.904256	0.802595
C	-1.10528	-0.0906914	0.23777
O	-0.528446	0.799486	-0.611854
H	1.45732	1.16884	-1.21672
H	2.07966	-0.912647	0.48513
H	-0.34204	-1.71619	1.52674
H	-2.20029	-0.0447917	0.356477
C	6.80735	-0.317448	0.24105
C	5.77274	-1.14637	-0.13793
N	4.63086	-0.44373	-0.335225
C	4.95584	0.8163	-0.0796141
N	6.25716	0.944502	0.27214
H	7.86104	-0.529214	0.482758
H	5.82975	-2.23884	-0.272536
H	4.2796	1.68457	-0.134688
H	6.7526	1.83547	0.521111
