18
  This energy is -2.0719 and Call times are: 36000
C	0.530277	-0.637762	0.773606
C	0.294878	0.692615	0.960843
C	-0.382791	1.139	-0.214583
C	-0.501682	0.0419919	-1.01634
O	0.0504898	-1.05193	-0.428592
H	1.02293	-1.38991	1.41143
H	0.570769	1.29881	1.83863
H	-0.736786	2.1601	-0.42935
H	-0.95194	-0.0890636	-2.01401
C	3.3774	1.08298	-0.183448
C	3.93715	0.599243	0.980091
N	4.31794	-0.693601	0.838439
C	3.99565	-1.0107	-0.408236
N	3.42558	0.0267904	-1.06568
H	2.96205	2.07112	-0.437609
H	4.07307	1.15992	1.91925
H	4.15491	-1.98851	-0.890691
H	3.08515	0.0266354	-2.05833
