18
  This energy is -1.2664 and Call times are: 66155
C	0.821936	0.194043	0.757079
C	0.78354	-0.935905	-0.00588621
C	-0.381777	-0.816452	-0.823128
C	-0.952618	0.375947	-0.487425
O	-0.23074	1.00641	0.476119
H	1.53578	0.533434	1.52551
H	1.50359	-1.76987	0.00565447
H	-0.744881	-1.53938	-1.57121
H	-1.86019	0.881546	-0.856104
C	4.41724	0.79447	0.64366
C	4.10795	0.376356	-0.633317
N	4.99357	-0.550978	-1.07178
C	5.84901	-0.707563	-0.0706139
N	5.5444	0.0817018	0.986676
H	3.93121	1.52444	1.31034
H	3.26166	0.727199	-1.24613
H	6.71647	-1.38698	-0.0588782
H	6.06724	0.139633	1.89471
