18
  This energy is -1.5566 and Call times are: 110865
C	0.889294	-0.539564	0.452138
C	0.949038	0.765293	0.0595137
C	-0.34743	1.07982	-0.450742
C	-1.08498	-0.0605975	-0.324883
O	-0.345516	-1.05968	0.22469
H	1.6462	-1.20324	0.901448
H	1.81882	1.43877	0.122858
H	-0.682707	2.04565	-0.861675
H	-2.13198	-0.286639	-0.585542
C	4.6577	-1.16875	-0.131609
C	4.92771	-0.235127	-1.10966
N	4.89448	1.02287	-0.606823
C	4.60495	0.870255	0.678287
N	4.45259	-0.432701	1.01397
H	4.59895	-2.26817	-0.168507
H	5.1459	-0.446701	-2.16913
H	4.49268	1.67889	1.41838
H	4.22213	-0.810274	1.96559
