18
  This energy is -0.6361 and Call times are: 116620
C	-0.915453	-0.257325	-0.618168
C	-0.777547	-0.649325	0.680944
C	0.486864	-0.142279	1.11023
C	1.01	0.51481	0.0355513
O	0.166945	0.454634	-1.02871
H	-1.72502	-0.419221	-1.34867
H	-1.49431	-1.23663	1.27712
H	0.945365	-0.258283	2.10542
H	1.95974	1.05842	-0.0976484
C	5.94517	-1.10075	-0.412829
C	4.94342	-0.153886	-0.445455
N	5.35106	1.00839	0.119738
C	6.60095	0.783429	0.501542
N	7.00548	-0.47381	0.202708
H	5.97749	-2.14163	-0.772092
H	3.93382	-0.288553	-0.866685
H	7.26538	1.50453	1.00432
H	7.94737	-0.891423	0.401951
