18
  This energy is -0.9786 and Call times are: 35774
C	-0.447598	-0.737587	-0.736222
C	-0.659481	0.606623	-0.828844
C	0.0570553	1.19131	0.25966
C	0.643549	0.152773	0.92136
O	0.345985	-1.03259	0.326893
H	-0.800848	-1.57783	-1.35626
H	-1.2601	1.13358	-1.58757
H	0.122448	2.26172	0.512691
H	1.28729	0.126055	1.81586
C	4.31073	-0.481337	0.41804
C	4.59896	0.863363	0.318792
N	5.83116	1.06129	-0.209425
C	6.30556	-0.155999	-0.437004
N	5.42627	-1.12024	-0.0754832
H	3.42043	-1.01116	0.792452
H	3.93989	1.69429	0.618859
H	7.29082	-0.398318	-0.866862
H	5.56743	-2.157	-0.155831
