18
  This energy is -1.1363 and Call times are: 88295
C	-0.0907853	-0.336248	-1.0794
C	0.853229	0.559181	-0.670228
C	0.651132	0.726233	0.733826
C	-0.398539	-0.0818591	1.05871
O	-0.863984	-0.738239	-0.0365253
H	-0.312889	-0.762381	-2.07153
H	1.61543	1.05256	-1.29451
H	1.22549	1.37489	1.41461
H	-0.901841	-0.275555	2.02018
C	4.81986	1.14249	0.0363826
C	4.30802	0.139248	0.83178
N	4.85483	-1.06028	0.51771
C	5.70268	-0.802168	-0.468776
N	5.71799	0.511863	-0.795394
H	4.61536	2.22448	0.00445924
H	3.55397	0.259447	1.62664
H	6.33728	-1.53835	-0.987959
H	6.30265	0.964102	-1.54032
