18
  This energy is -1.4251 and Call times are: 8476
C	0.332066	-1.00349	-0.411261
C	0.673626	-0.577094	0.838498
C	0.0771397	0.712033	0.988406
C	-0.576268	0.959601	-0.182978
O	-0.43118	-0.0774977	-1.04923
H	0.566032	-1.93287	-0.95602
H	1.28435	-1.11627	1.58039
H	0.133436	1.37109	1.86964
H	-1.17225	1.82391	-0.519155
C	4.30076	-1.13603	-0.070679
C	3.74158	-0.0879178	-0.77063
N	4.32983	1.08797	-0.442336
C	5.25044	0.77055	0.457857
N	5.27233	-0.55855	0.715935
H	4.08332	-2.21594	-0.0764773
H	2.92423	-0.159113	-1.50664
H	5.93576	1.47228	0.959995
H	5.90826	-1.05462	1.38733
