18
  This energy is -0.6988 and Call times are: 72460
C	-0.817691	-0.613281	0.491598
C	-1.08677	0.485428	-0.27051
C	0.180691	0.978248	-0.707297
C	1.11241	0.13719	-0.173546
O	0.52038	-0.840618	0.561574
H	-1.48101	-1.30903	1.03122
H	-2.07833	0.906595	-0.501882
H	0.367234	1.85749	-1.34466
H	2.21264	0.127153	-0.241669
C	5.96025	1.08248	0.0386319
C	5.1777	0.551344	-0.964688
N	4.82065	-0.725026	-0.682011
C	5.37957	-0.984723	0.492207
N	6.07744	0.0735008	0.968366
H	6.42648	2.07399	0.152993
H	4.86433	1.06623	-1.88748
H	5.30974	-1.93354	1.04817
H	6.60691	0.117055	1.87336
