18
  This energy is -0.9921 and Call times are: 118102
C	-0.958366	-0.474022	0.378468
C	-0.193408	-1.04893	-0.593484
C	0.911822	-0.166709	-0.794152
C	0.724687	0.869434	0.0728888
O	-0.412599	0.698167	0.796947
H	-1.90049	-0.794693	0.852634
H	-0.387922	-1.99896	-1.11665
H	1.74461	-0.29672	-1.50384
H	1.32039	1.77629	0.267844
C	6.09884	-0.874382	0.363553
C	4.72039	-0.875547	0.331705
N	4.24167	0.298892	-0.145826
C	5.31905	1.02588	-0.409223
N	6.46341	0.362688	-0.119078
H	6.82203	-1.64076	0.684795
H	4.06269	-1.70277	0.644735
H	5.32699	2.05007	-0.815688
H	7.44196	0.722339	-0.23894
