18
  This energy is -0.7111 and Call times are: 81331
C	0.372796	0.627225	-0.868339
C	0.647989	0.940671	0.430273
C	0.0164485	-0.0692392	1.21853
C	-0.588919	-0.910676	0.33203
O	-0.3816	-0.500481	-0.946942
H	0.651964	1.11972	-1.81426
H	1.23666	1.79714	0.796376
H	0.0181027	-0.151477	2.31732
H	-1.18848	-1.82337	0.482895
C	6.68073	0.427005	-0.186522
C	6.34919	-0.869445	0.14581
N	5.00862	-1.0105	0.285444
C	4.51041	0.193857	0.0406674
N	5.4784	1.09536	-0.248921
H	7.65468	0.905329	-0.376688
H	7.05326	-1.70557	0.287333
H	3.44404	0.470861	0.0598646
H	5.33948	2.11013	-0.477442
