18
  This energy is -1.6097 and Call times are: 14208
C	0.000304972	-0.408186	1.0582
C	1.10545	0.157218	0.493097
C	0.715993	0.543617	-0.825666
C	-0.592768	0.180225	-0.950024
O	-1.04609	-0.402503	0.191001
H	-0.167899	-0.845976	2.05585
H	2.09559	0.288969	0.958251
H	1.34413	1.03452	-1.58629
H	-1.30287	0.280071	-1.7873
C	4.85879	-1.02591	0.371412
C	6.08377	-0.484662	0.699494
N	6.26773	0.71237	0.0913959
C	5.16109	0.912969	-0.611262
N	4.28063	-0.106807	-0.47545
H	4.37376	-1.96863	0.670664
H	6.83813	-0.936437	1.36408
H	4.94353	1.78951	-1.24259
H	3.3373	-0.182836	-0.928877
