18
  This energy is -0.8801 and Call times are: 115925
C	0.193362	1.0765	0.300257
C	0.485747	0.0259138	1.11949
C	0.105502	-1.1482	0.400482
C	-0.385678	-0.711454	-0.794661
O	-0.339566	0.644553	-0.872952
H	0.315349	2.16392	0.434008
H	0.925113	0.0730298	2.12887
H	0.191432	-2.19242	0.741538
H	-0.792766	-1.2577	-1.66134
C	5.94959	0.0479691	-0.906042
C	6.10971	-0.664399	0.263588
N	5.04983	-0.491276	1.09015
C	4.23529	0.325388	0.43578
N	4.73296	0.679058	-0.772869
H	6.59382	0.147173	-1.79411
H	6.97101	-1.30018	0.525868
H	3.26193	0.696086	0.795491
H	4.27859	1.31319	-1.47478
