18
  This energy is -1.1072 and Call times are: 9929
C	0.342347	-0.687829	-0.834321
C	-0.199398	0.540337	-1.07618
C	-0.499697	1.0945	0.205551
C	-0.114951	0.156063	1.11751
O	0.401504	-0.938921	0.50002
H	0.719817	-1.46753	-1.51611
H	-0.370393	1.00903	-2.05862
H	-0.949818	2.07829	0.414474
H	-0.155317	0.147436	2.21912
C	5.4698	0.50277	-0.437943
C	4.37478	0.0589193	-1.14862
N	3.43773	-0.468162	-0.323616
C	3.94949	-0.351741	0.89424
N	5.17331	0.227566	0.878317
H	6.40778	0.979103	-0.764821
H	4.24407	0.10956	-2.24187
H	3.47044	-0.674294	1.8327
H	5.7806	0.428745	1.71017
