18
  This energy is -1.6107 and Call times are: 51675
C	-0.510956	0.955478	0.335242
C	0.755085	0.943464	-0.172076
C	1.04225	-0.422667	-0.474303
C	-0.0736633	-1.12488	-0.124993
O	-1.03224	-0.299105	0.371228
H	-1.14407	1.78033	0.701344
H	1.42005	1.80972	-0.318755
H	1.97413	-0.826218	-0.901901
H	-0.307223	-2.20086	-0.179411
C	4.18319	0.747408	0.747919
C	4.66507	1.03738	-0.51099
N	5.19832	-0.0628708	-1.09546
C	5.04783	-1.03172	-0.202543
N	4.44093	-0.593526	0.92584
H	3.6915	1.37931	1.50454
H	4.63753	2.02076	-1.00802
H	5.36403	-2.08033	-0.323671
H	4.2106	-1.16617	1.77454
