18
  This energy is -0.7654 and Call times are: 126334
C	-0.996597	-0.149167	0.520523
C	-0.0253655	0.666529	1.02224
C	1.06209	0.593333	0.0990917
C	0.659382	-0.26063	-0.885261
O	-0.595409	-0.723564	-0.644006
H	-2.00309	-0.401997	0.892407
H	-0.0702156	1.26021	1.9494
H	2.02801	1.11898	0.168188
H	1.16597	-0.615307	-1.79785
C	6.00611	-0.803114	0.758405
C	6.22822	-0.76266	-0.601806
N	5.60887	0.302209	-1.16658
C	5.00483	0.920021	-0.160568
N	5.21417	0.292387	1.02089
H	6.34427	-1.51036	1.53234
H	6.82427	-1.48275	-1.18579
H	4.39638	1.83585	-0.233271
H	4.84377	0.584613	1.95826
