18
  This energy is -0.9358 and Call times are: 14973
C	-0.247119	-0.945239	-0.576069
C	0.632975	-0.933904	0.465891
C	0.677595	0.417782	0.925317
C	-0.179171	1.11312	0.12355
O	-0.752686	0.296419	-0.798998
H	-0.594141	-1.76117	-1.23111
H	1.19443	-1.79137	0.870385
H	1.28052	0.816697	1.75684
H	-0.464108	2.17792	0.107752
C	4.43225	0.592803	0.666507
C	4.86353	0.931037	-0.598696
N	5.7506	0.0222874	-1.07176
C	5.86918	-0.876293	-0.103711
N	5.09433	-0.576951	0.965678
H	3.72464	1.08531	1.35227
H	4.55051	1.8145	-1.17867
H	6.50944	-1.77285	-0.125773
H	5.01336	-1.13049	1.85354
