18
  This energy is -1.2222 and Call times are: 49168
C	0.899887	0.194863	0.662293
C	-0.0192698	1.16108	0.376035
C	-0.986349	0.541489	-0.47307
C	-0.572789	-0.74866	-0.630731
O	0.577546	-0.977821	0.0557291
H	1.81514	0.215425	1.27641
H	-0.0165454	2.20537	0.727548
H	-1.88252	1.00986	-0.910794
H	-1.00313	-1.5902	-1.19806
C	5.15147	-0.92032	0.483719
C	5.26664	0.402381	0.855665
N	4.48777	1.19707	0.0821432
C	3.89167	0.370517	-0.766447
N	4.25898	-0.91714	-0.564921
H	5.62564	-1.83318	0.8779
H	5.89778	0.797524	1.6683
H	3.17715	0.655221	-1.55552
H	3.92713	-1.75369	-1.10466
