18
  This energy is -1.1323 and Call times are: 41322
C	0.0260432	0.955771	-0.610102
C	-1.00182	0.0631629	-0.694439
C	-0.677357	-0.993411	0.210266
C	0.520146	-0.653188	0.76759
O	0.964387	0.53426	0.27807
H	0.205162	1.91511	-1.12277
H	-1.89856	0.140961	-1.32998
H	-1.2725	-1.89769	0.41564
H	1.15073	-1.16396	1.51373
C	4.45612	-0.463964	0.528133
C	4.49254	0.671422	-0.253351
N	5.74776	0.915812	-0.701907
C	6.48724	-0.0642345	-0.200602
N	5.75455	-0.922065	0.548325
H	3.62581	-0.961763	1.05379
H	3.63559	1.31863	-0.501564
H	7.57025	-0.201468	-0.350536
H	6.10821	-1.77384	1.04898
