18
  This energy is -0.8242 and Call times are: 5088
C	-0.655165	0.56454	-0.733794
C	0.452975	1.12124	-0.165914
C	1.00255	0.115604	0.686605
C	0.181727	-0.966848	0.564429
O	-0.835934	-0.710343	-0.299043
H	-1.38843	0.965958	-1.45243
H	0.844144	2.13804	-0.330814
H	1.90454	0.197678	1.31411
H	0.213137	-1.96467	1.03199
C	6.37386	-0.545515	-0.569105
C	5.07527	-0.38636	-1.00439
N	4.33492	0.293046	-0.0951019
C	5.17105	0.554381	0.900501
N	6.4127	0.0694183	0.662372
H	7.24406	-1.03648	-1.03305
H	4.65928	-0.749587	-1.95826
H	4.92628	1.09756	1.82748
H	7.24617	0.147061	1.29527
