18
  This energy is -0.6827 and Call times are: 135954
C	0.496752	-0.227588	-0.993903
C	0.983641	-0.697172	0.190497
C	0.0998032	-0.205464	1.19905
C	-0.849164	0.521189	0.541925
O	-0.622244	0.518401	-0.798042
H	0.85042	-0.352044	-2.03057
H	1.8757	-1.32667	0.33905
H	0.170339	-0.377919	2.28504
H	-1.72527	1.0809	0.908552
C	5.05027	-0.626793	-0.300395
C	6.36919	-0.976563	-0.498499
N	7.20463	-0.018327	-0.0290967
C	6.40702	0.922329	0.458358
N	5.09873	0.602323	0.318566
H	4.11193	-1.14817	-0.547824
H	6.73294	-1.90317	-0.971719
H	6.72842	1.86559	0.928681
H	4.27771	1.18039	0.623576
