18
  This energy is -1.8482 and Call times are: 132957
C	-0.607399	-0.116152	-0.950776
C	0.0271988	-1.16708	-0.356466
C	0.674955	-0.630558	0.797948
C	0.379009	0.700872	0.807175
O	-0.403261	1.03242	-0.253552
H	-1.22733	-0.0560003	-1.86034
H	0.0380724	-2.21499	-0.696858
H	1.28791	-1.17977	1.53057
H	0.660364	1.50754	1.50386
C	4.84243	-0.918752	0.358155
C	4.88655	0.366234	0.856158
N	4.00924	1.17139	0.209201
C	3.42308	0.388883	-0.686749
N	3.89108	-0.880787	-0.636674
H	5.40203	-1.82722	0.632154
H	5.53569	0.7268	1.67069
H	2.64467	0.694351	-1.40438
H	3.58713	-1.68336	-1.24062
