18
  This energy is -0.6224 and Call times are: 125309
C	-0.64896	-0.654835	0.660638
C	-0.52751	0.689257	0.858222
C	0.360486	1.1553	-0.158826
C	0.703288	0.0548551	-0.888132
O	0.0959247	-1.05936	-0.401677
H	-1.22647	-1.42378	1.19958
H	-1.0144	1.29207	1.64158
H	0.698983	2.19129	-0.320804
H	1.36134	-0.0656443	-1.76432
C	5.8646	0.284803	-1.12999
C	4.70012	-0.177454	-0.554283
N	4.86739	-0.40573	0.771017
C	6.13084	-0.0863027	1.01655
N	6.77439	0.335751	-0.0975832
H	6.10232	0.571545	-2.16672
H	3.74226	-0.350346	-1.07145
H	6.63592	-0.14269	1.99428
H	7.77565	0.643211	-0.162559
