18
  This energy is -0.6025 and Call times are: 120324
C	1.12272	0.0955751	-0.129455
C	0.294221	-0.236791	-1.16071
C	-1.02436	-0.256871	-0.612033
C	-0.885229	0.0649985	0.706077
O	0.419335	0.28352	1.01812
H	2.2161	0.228566	-0.0837619
H	0.58268	-0.446758	-2.20321
H	-1.96152	-0.485501	-1.14454
H	-1.62653	0.170052	1.5152
C	7.18929	-0.120663	0.428941
C	6.30693	-1.13249	0.114616
N	5.13853	-0.633086	-0.356523
C	5.29546	0.683545	-0.334563
N	6.51526	1.04258	0.131017
H	8.21493	-0.145255	0.830164
H	6.49244	-2.21391	0.219345
H	4.54913	1.43106	-0.648309
H	6.87837	2.0207	0.243595
