18
  This energy is -1.0357 and Call times are: 127565
C	-0.887854	-0.558551	0.431435
C	-0.125919	-1.06707	-0.579126
C	0.879245	-0.086986	-0.84217
C	0.642819	0.933933	0.0308707
O	-0.432649	0.662799	0.816279
H	-1.76878	-0.962155	0.95711
H	-0.258419	-2.03523	-1.08826
H	1.68104	-0.144158	-1.5958
H	1.16048	1.89402	0.190547
C	4.29627	0.367395	0.492582
C	4.92742	0.912871	-0.605255
N	6.0647	0.237678	-0.90059
C	6.1388	-0.723016	0.0105626
N	5.09581	-0.68707	0.873393
H	3.36577	0.645685	1.01245
H	4.58256	1.78152	-1.18952
H	6.93551	-1.47991	0.0917991
H	4.92817	-1.33837	1.67897
