18
  This energy is -0.8098 and Call times are: 65065
C	-0.224607	-1.0946	-0.194411
C	1.04475	-0.631103	-0.00930038
C	0.920061	0.775636	0.204366
C	-0.41449	1.04759	0.130962
O	-1.12843	-0.0830079	-0.11203
H	-0.611576	-2.10812	-0.390089
H	1.97553	-1.22068	-0.0219486
H	1.73493	1.49362	0.390319
H	-0.974957	1.99141	0.232579
C	4.96405	-0.441135	0.560788
C	5.28197	0.891201	0.402843
N	6.43269	1.03927	-0.297473
C	6.82713	-0.196514	-0.572937
N	5.97509	-1.12473	-0.0769208
H	4.11809	-0.934724	1.06504
H	4.70167	1.74829	0.781656
H	7.73219	-0.478481	-1.13471
H	6.06713	-2.16663	-0.161938
