18
  This energy is -0.9471 and Call times are: 39984
C	0.970132	-0.398799	-0.431513
C	0.912791	0.232004	0.776449
C	-0.458402	0.581919	0.970117
C	-1.11793	0.134054	-0.136594
O	-0.260965	-0.467452	-1.00309
H	1.81452	-0.838472	-0.987346
H	1.7519	0.43095	1.46231
H	-0.893806	1.10611	1.83599
H	-2.18143	0.181252	-0.422958
C	6.42194	-0.739084	0.404062
C	5.06078	-0.955785	0.366326
N	4.41101	0.108855	-0.163633
C	5.36545	0.982707	-0.453567
N	6.59555	0.518203	-0.130052
H	7.25165	-1.36957	0.761286
H	4.53591	-1.86125	0.712
H	5.21894	1.97767	-0.903922
H	7.50774	1.02019	-0.261123
