18
  This energy is -0.9152 and Call times are: 2543
C	-0.0588625	1.00304	-0.526163
C	-0.315695	-0.173714	-1.16621
C	-0.140866	-1.19806	-0.186278
C	0.207369	-0.556842	0.966088
O	0.262212	0.787836	0.776761
H	-0.0704144	2.04641	-0.881817
H	-0.599762	-0.307031	-2.22244
H	-0.26243	-2.2835	-0.33167
H	0.439075	-0.938744	1.97391
C	5.95592	0.971752	-0.102733
C	6.41004	-0.32601	0.000868105
N	5.3779	-1.19807	0.104265
C	4.28761	-0.444184	0.0649578
N	4.58326	0.871406	-0.0591625
H	6.49447	1.9277	-0.201099
H	7.46394	-0.648716	0.00286122
H	3.24773	-0.804035	0.123132
H	3.89747	1.66397	-0.112117
