18
  This energy is -1.2025 and Call times are: 135986
C	0.0968336	0.742738	-0.851683
C	-0.530311	1.05197	0.319401
C	-0.448431	-0.122128	1.12866
C	0.221522	-1.04519	0.38067
O	0.562111	-0.534026	-0.831652
H	0.275844	1.33537	-1.76382
H	-1.00315	2.01069	0.586568
H	-0.845161	-0.254725	2.14804
H	0.514462	-2.08619	0.594545
C	4.56	-0.717423	0.919128
C	3.88535	-1.00598	-0.24823
N	3.89547	0.053534	-1.09312
C	4.57382	0.995805	-0.45234
N	4.99573	0.579745	0.765228
H	4.75439	-1.32316	1.81848
H	3.39148	-1.95969	-0.495974
H	4.79077	2.00847	-0.82873
H	5.5493	1.1388	1.45969
