18
  This energy is -0.9036 and Call times are: 64708
C	-0.361074	0.0274064	1.07484
C	0.861283	0.504495	0.702542
C	0.948859	0.297248	-0.707953
C	-0.227712	-0.28819	-1.07308
O	-1.0396	-0.460456	0.00310766
H	-0.858428	-0.0217127	2.05742
H	1.6247	0.956967	1.35566
H	1.79367	0.557086	-1.36588
H	-0.603212	-0.625672	-2.05305
C	6.21961	-0.243309	0.398311
C	7.28464	-1.11454	0.309921
N	8.38018	-0.497338	-0.195426
C	7.99625	0.752033	-0.419688
N	6.70184	0.955353	-0.0779785
H	5.1871	-0.386691	0.754557
H	7.28219	-2.17741	0.601731
H	8.62271	1.55887	-0.832958
H	6.16743	1.85474	-0.160201
