18
  This energy is -1.3621 and Call times are: 75935
C	0.721902	-0.036114	-0.874045
C	-0.628448	-0.137444	-1.03733
C	-1.18847	-0.0499803	0.273716
C	-0.13091	0.0970776	1.12243
O	1.04349	0.107642	0.438558
H	1.54957	-0.0517747	-1.60203
H	-1.1753	-0.261353	-1.98585
H	-2.25587	-0.0925918	0.543802
H	-0.0824593	0.203115	2.21863
C	4.07543	0.985406	0.154842
C	4.69635	0.237053	1.13238
N	5.32793	-0.83654	0.598516
C	5.0997	-0.754527	-0.705251
N	4.34908	0.326745	-1.02307
H	3.47812	1.90924	0.212146
H	4.69993	0.452545	2.2133
H	5.45873	-1.45956	-1.47223
H	4.03534	0.609466	-1.98374
