18
  This energy is -1.1512 and Call times are: 75290
C	0.526495	0.691638	-0.728588
C	1.17306	-0.325253	-0.0896328
C	0.190355	-0.959254	0.7304
C	-0.969973	-0.273826	0.520165
O	-0.783035	0.737717	-0.368005
H	0.881443	1.44241	-1.45358
H	2.23543	-0.601214	-0.186094
H	0.339312	-1.82452	1.39615
H	-1.98236	-0.405205	0.936173
C	6.33912	1.03792	0.42139
C	7.06252	0.0772938	1.09594
N	7.30587	-0.996035	0.305208
C	6.7356	-0.702385	-0.855476
N	6.1395	0.513291	-0.836028
H	5.96473	2.02483	0.736656
H	7.41323	0.139442	2.13901
H	6.72457	-1.3417	-1.75291
H	5.62356	0.969303	-1.62794
