18
  This energy is -0.713 and Call times are: 103228
C	-0.868754	-0.714239	-0.146732
C	-0.997049	0.634344	-0.305597
C	0.294091	1.184	-0.0392294
C	1.09741	0.122785	0.258894
O	0.403723	-1.04431	0.19804
H	-1.59752	-1.53504	-0.248907
H	-1.90937	1.18665	-0.582571
H	0.58187	2.24721	-0.0686163
H	2.16514	0.0667773	0.527345
C	5.41975	0.789248	-0.854219
C	4.75753	-0.407546	-0.680171
N	5.22037	-1.06823	0.408772
C	6.16612	-0.28428	0.908374
N	6.32422	0.847812	0.182452
H	5.31488	1.57711	-1.61698
H	3.95408	-0.806144	-1.32082
H	6.77391	-0.491004	1.80397
H	7.00592	1.62255	0.373025
