18
  This energy is -1.1344 and Call times are: 119480
C	-0.80037	-0.0553466	-0.801715
C	-0.871012	-0.779252	0.352124
C	0.301756	-0.445052	1.09579
C	0.985532	0.453577	0.33075
O	0.326935	0.703142	-0.831567
H	-1.47902	0.00733023	-1.66818
H	-1.66893	-1.47844	0.64971
H	0.593918	-0.833603	2.08461
H	1.93868	0.981261	0.499026
C	4.4899	-0.308097	-1.09271
C	4.95198	-1.14277	-0.0972422
N	5.21428	-0.450769	1.03803
C	4.91606	0.808418	0.747959
N	4.47489	0.946279	-0.524815
H	4.181	-0.511205	-2.13043
H	5.10079	-2.2319	-0.177843
H	5.00216	1.66919	1.43053
H	4.17797	1.83869	-0.99033
