18
  This energy is -1.5255 and Call times are: 18272
C	-0.494254	-0.9133	-0.456067
C	0.846099	-0.681453	-0.556441
C	1.08315	0.546802	0.13299
C	-0.133274	0.957097	0.593804
O	-1.108	0.0773324	0.243197
H	-1.12431	-1.73533	-0.833611
H	1.59295	-1.3121	-1.06496
H	2.05034	1.05781	0.26529
H	-0.433502	1.84406	1.17554
C	4.89226	-0.889643	0.770434
C	5.47362	0.348763	0.942233
N	5.29016	1.13037	-0.14953
C	4.59762	0.379705	-0.995411
N	4.33284	-0.847124	-0.487112
H	4.83883	-1.76885	1.432
H	6.02216	0.692293	1.83439
H	4.25833	0.679011	-2.00017
H	3.80244	-1.61888	-0.960741
