18
  This energy is -1.1206 and Call times are: 10582
C	0.267723	-0.211217	-1.08172
C	-0.999381	0.109807	-0.692147
C	-0.937321	0.299734	0.722135
C	0.362229	0.0780056	1.07196
O	1.11229	-0.235207	-0.017222
H	0.691488	-0.44209	-2.07286
H	-1.88856	0.203467	-1.33611
H	-1.76881	0.56993	1.39274
H	0.872345	0.111397	2.04865
C	4.23085	-0.246614	-0.754218
C	4.46584	0.959129	-0.128033
N	5.55451	0.888218	0.675875
C	5.99324	-0.356781	0.548896
N	5.22884	-1.08096	-0.302481
H	3.4501	-0.559531	-1.4656
H	3.86935	1.87896	-0.241907
H	6.8698	-0.790586	1.05652
H	5.3696	-2.08645	-0.567887
