18
  This energy is -1.0996 and Call times are: 31381
C	-0.0901865	-0.269022	1.09813
C	-0.962692	0.577311	0.4794
C	-0.526214	0.665229	-0.877757
C	0.574484	-0.13514	-0.968558
O	0.855108	-0.713615	0.228784
H	-0.0348679	-0.629763	2.13835
H	-1.82695	1.08842	0.933174
H	-0.984775	1.25806	-1.68545
H	1.23712	-0.373554	-1.81669
C	6.08812	-0.312284	1.13465
C	6.70692	0.791265	0.586544
N	6.51653	0.842606	-0.754213
C	5.78242	-0.225032	-1.0368
N	5.49782	-0.953548	0.0685757
H	6.02807	-0.674567	2.17325
H	7.28733	1.55134	1.1345
H	5.42555	-0.520734	-2.03652
H	4.93477	-1.83831	0.106307
