18
  This energy is -2.1755 and Call times are: 133215
C	-0.257002	-1.01366	0.439135
C	0.764466	-0.247567	0.918798
C	0.773495	0.936569	0.120138
C	-0.243252	0.78955	-0.777071
O	-0.883281	-0.395707	-0.596681
H	-0.634087	-2.00359	0.744276
H	1.44347	-0.491818	1.7515
H	1.4609	1.79296	0.210486
H	-0.607774	1.44724	-1.58319
C	4.88523	-1.14053	-0.266686
C	6.04864	-0.483188	0.0732013
N	5.81482	0.829036	0.317954
C	4.5113	0.985172	0.130617
N	3.90605	-0.173312	-0.223187
H	4.69128	-2.19304	-0.52773
H	7.05256	-0.932255	0.14621
H	3.94853	1.92632	0.239122
H	2.88535	-0.308886	-0.425766
