18
  This energy is -1.2308 and Call times are: 106950
C	0.48602	0.742867	0.705928
C	-0.6889	1.00553	0.0648786
C	-0.972373	-0.152358	-0.721918
C	0.0543438	-1.02038	-0.492213
O	0.954101	-0.489995	0.377351
H	1.08377	1.34271	1.41172
H	-1.29514	1.92266	0.138665
H	-1.8421	-0.31148	-1.37945
H	0.257666	-2.03163	-0.881175
C	5.20992	-1.13531	-0.0110666
C	5.99258	-0.0675963	0.374397
N	5.31547	1.10078	0.260727
C	4.11731	0.759204	-0.193527
N	4.004	-0.578079	-0.373596
H	5.4188	-2.21616	-0.0516939
H	7.03371	-0.11937	0.732488
H	3.28557	1.44834	-0.41154
H	3.15858	-1.09243	-0.722833
