18
  This energy is -0.5992 and Call times are: 87778
C	0.629265	0.906342	-0.262623
C	1.05826	-0.369467	-0.483176
C	0.00475219	-1.22026	-0.0288808
C	-0.975033	-0.389251	0.42918
O	-0.610511	0.913011	0.294084
H	1.1059	1.88152	-0.45522
H	2.0201	-0.680264	-0.921777
H	-0.0126425	-2.32186	-0.0452174
H	-1.96426	-0.597862	0.868691
C	7.20457	-0.610699	-0.0545892
C	7.02489	0.717401	-0.378639
N	5.73595	1.09456	-0.19729
C	5.11835	0.00457777	0.237611
N	5.9609	-1.05046	0.340492
H	8.09958	-1.25259	-0.0764429
H	7.80221	1.41023	-0.740043
H	4.05013	-0.0763718	0.495678
H	5.71384	-2.01894	0.660291
