18
  This energy is -1.9066 and Call times are: 26501
C	-0.340316	0.944514	0.52771
C	0.465822	0.972378	-0.572171
C	0.67014	-0.392067	-0.941852
C	-0.0291791	-1.13327	-0.035243
O	-0.652405	-0.333284	0.869533
H	-0.756341	1.75385	1.14993
H	0.875491	1.86429	-1.07293
H	1.26972	-0.768397	-1.78623
H	-0.160916	-2.22243	0.0726021
C	4.54305	1.06328	0.483805
C	5.32904	0.484811	-0.490228
N	4.87488	-0.749991	-0.81506
C	3.81119	-0.936849	-0.0454707
N	3.56973	0.127874	0.755561
H	4.60539	2.04175	0.98605
H	6.21569	0.936305	-0.964421
H	3.17278	-1.83483	-0.0281428
H	2.78969	0.222741	1.45111
