18
  This energy is -1.2801 and Call times are: 106758
C	-0.331173	1.05201	-0.264566
C	0.727773	0.444839	-0.873128
C	0.829987	-0.850241	-0.279463
C	-0.175521	-0.920147	0.639471
O	-0.894652	0.232831	0.661956
H	-0.77786	2.05074	-0.399689
H	1.37227	0.866632	-1.66104
H	1.56949	-1.63221	-0.515571
H	-0.479988	-1.72339	1.33037
C	5.32692	0.371123	-1.03204
C	5.53867	0.942686	0.204743
N	4.89483	0.253789	1.17809
C	4.28597	-0.741363	0.54754
N	4.51573	-0.714205	-0.78665
H	5.68417	0.650589	-2.03593
H	6.14448	1.8398	0.412187
H	3.65937	-1.51825	1.0145
H	4.14631	-1.39098	-1.49852
