18
  This energy is -1.0157 and Call times are: 24965
C	0.247331	-0.288345	1.06868
C	-0.874204	-0.73366	0.432895
C	-0.834139	-0.163356	-0.876023
C	0.308343	0.580118	-0.924547
O	0.981135	0.515174	0.254497
H	0.631339	-0.468834	2.08614
H	-1.65172	-1.39719	0.844361
H	-1.57441	-0.296788	-1.68119
H	0.7481	1.19315	-1.72832
C	4.95776	-0.256478	1.13977
C	6.01227	-0.628692	0.333164
N	5.85164	-0.160202	-0.928275
C	4.70186	0.500139	-0.90432
N	4.12426	0.471223	0.32007
H	4.74847	-0.451441	2.2036
H	6.88611	-1.22689	0.6388
H	4.2365	1.02338	-1.75514
H	3.21477	0.91802	0.592952
