18
  This energy is -2.9543 and Call times are: 122775
C	-0.359638	-0.913023	-0.568727
C	-0.0355084	-0.958132	0.755388
C	0.366193	0.367218	1.10496
C	0.252076	1.10523	-0.0363911
O	-0.189919	0.339374	-1.06844
H	-0.718831	-1.6926	-1.26046
H	-0.0752981	-1.83658	1.41934
H	0.699783	0.720668	2.09384
H	0.451812	2.16975	-0.241724
C	3.91097	0.597807	0.936149
C	5.17727	0.644019	0.392568
N	5.2774	-0.174078	-0.683166
C	4.07776	-0.725717	-0.806473
N	3.21851	-0.292522	0.146213
H	3.46835	1.11813	1.80038
H	6.02045	1.253	0.757307
H	3.77437	-1.45315	-1.57655
H	2.21584	-0.580094	0.261196
