18
  This energy is -1.2629 and Call times are: 97039
C	-0.936933	-0.621712	-0.148431
C	-0.310975	-0.520841	1.0592
C	0.812445	0.335319	0.846985
C	0.77382	0.682056	-0.471595
O	-0.288004	0.106549	-1.09476
H	-1.8394	-1.17261	-0.460375
H	-0.610314	-1.00115	2.00461
H	1.55732	0.650801	1.59514
H	1.43448	1.32242	-1.07882
C	4.37983	0.0853488	-0.839719
C	5.42189	-0.816159	-0.789386
N	6.17569	-0.630159	0.321339
C	5.60343	0.382886	0.957649
N	4.51678	0.849163	0.297831
H	3.57727	0.232494	-1.57985
H	5.64333	-1.59747	-1.53462
H	5.93907	0.82316	1.9104
H	3.89673	1.64156	0.596002
