18
  This energy is -1.5369 and Call times are: 93750
C	0.789323	-0.232612	-0.780552
C	0.983705	-0.470697	0.548322
C	-0.216778	-0.0532724	1.20002
C	-1.03878	0.403044	0.211866
O	-0.440462	0.300926	-1.00411
H	1.43959	-0.396686	-1.65547
H	1.88232	-0.897454	1.02211
H	-0.434007	-0.0920363	2.27956
H	-2.05887	0.819776	0.243728
C	4.35759	0.333932	-1.0382
C	4.94158	1.14484	-0.088186
N	5.34089	0.426073	0.989052
C	5.00589	-0.825977	0.708395
N	4.40998	-0.933644	-0.502761
H	3.92293	0.561593	-2.02449
H	5.08197	2.23565	-0.160746
H	5.17381	-1.70274	1.35439
H	4.05543	-1.81483	-0.948915
