18
  This energy is -1.948 and Call times are: 30031
C	0.619087	-0.588813	-0.745944
C	0.467284	0.764106	-0.829262
C	-0.367183	1.13235	0.26991
C	-0.651647	-0.0280486	0.927885
O	-0.0574901	-1.08917	0.321247
H	1.17549	-1.30224	-1.37578
H	0.899567	1.43542	-1.58858
H	-0.710531	2.14594	0.532266
H	-1.25632	-0.229099	1.82744
C	3.41771	-0.262599	0.839145
C	4.12985	-1.15303	0.0638149
N	4.94278	-0.50353	-0.804396
C	4.73576	0.78494	-0.568576
N	3.8248	0.982172	0.413689
H	2.67484	-0.421349	1.63694
H	4.07163	-2.25249	0.115327
H	5.22474	1.62586	-1.08624
H	3.49203	1.9071	0.781151
