18
  This energy is -1.5 and Call times are: 38995
C	-0.259183	0.543372	-0.961234
C	0.44289	-0.625959	-0.949691
C	0.567478	-0.993655	0.424862
C	-0.0694594	-0.0165591	1.13195
O	-0.580274	0.930176	0.30142
H	-0.58946	1.18967	-1.79098
H	0.833821	-1.17455	-1.82165
H	1.07421	-1.88402	0.830536
H	-0.226384	0.118125	2.21476
C	4.88335	0.705684	-0.73946
C	4.11348	1.09072	0.33766
N	3.58691	0.0147997	0.971393
C	4.02843	-1.03373	0.290014
N	4.8141	-0.669547	-0.750988
H	5.45648	1.29339	-1.47408
H	3.92855	2.12559	0.668875
H	3.8069	-2.09046	0.510168
H	5.28145	-1.31233	-1.43631
