18
  This energy is -1.1264 and Call times are: 30360
C	-0.0122423	-0.267141	-1.10222
C	-0.9199	0.586516	-0.547421
C	-0.582838	0.669158	0.838103
C	0.501039	-0.141294	1.00767
O	0.863052	-0.721158	-0.166944
H	0.115574	-0.627378	-2.13621
H	-1.74411	1.10591	-1.06221
H	-1.09375	1.26537	1.61115
H	1.09784	-0.386544	1.90149
C	4.05312	0.418022	-0.338207
C	5.27461	0.672664	-0.924941
N	6.27299	0.0264691	-0.275183
C	5.67314	-0.626571	0.710894
N	4.33449	-0.422671	0.715479
H	3.03743	0.764025	-0.5876
H	5.45341	1.31107	-1.80546
H	6.16664	-1.26846	1.45834
H	3.64273	-0.82781	1.39268
