18
  This energy is -1.1748 and Call times are: 107014
C	0.181302	-0.443089	-1.0282
C	-0.977019	-0.64888	-0.338047
C	-0.829305	0.0590447	0.893676
C	0.406243	0.634945	0.847474
O	1.03741	0.338754	-0.319109
H	0.514042	-0.793384	-2.01908
H	-1.84809	-1.23991	-0.66366
H	-1.56307	0.126028	1.71294
H	0.944514	1.26966	1.57042
C	4.47156	0.404649	-0.97062
C	4.06673	-0.656957	-0.189438
N	4.91126	-0.846305	0.853355
C	5.8365	0.0942584	0.719603
N	5.61568	0.874207	-0.365067
H	4.04082	0.844534	-1.88413
H	3.18039	-1.28966	-0.359571
H	6.69763	0.256713	1.38766
H	6.20395	1.6826	-0.683982
