18
  This energy is -0.8563 and Call times are: 121732
C	0.705657	0.253153	-0.851095
C	-0.575908	-0.162403	-1.06388
C	-1.13685	-0.379199	0.231674
C	-0.148548	-0.0769858	1.12179
O	0.983669	0.311053	0.477953
H	1.50885	0.534559	-1.55177
H	-1.07606	-0.302243	-2.03568
H	-2.15839	-0.720549	0.464088
H	-0.125848	-0.0972303	2.22375
C	5.2048	-0.401714	-1.02949
C	4.23685	-0.982295	-0.23757
N	4.01607	-0.249316	0.880691
C	4.84391	0.782064	0.782879
N	5.58226	0.735702	-0.351261
H	5.63731	-0.707272	-1.99547
H	3.69383	-1.91693	-0.453056
H	4.95006	1.60016	1.51341
H	6.30463	1.4333	-0.65589
