18
  This energy is -1.2717 and Call times are: 97647
C	0.733939	0.326257	0.800806
C	-0.531483	-0.0889581	1.09522
C	-1.13867	-0.41072	-0.156946
C	-0.190688	-0.163726	-1.106
O	0.959201	0.286975	-0.538867
H	1.55903	0.67058	1.44572
H	-0.991222	-0.16139	2.09396
H	-2.16278	-0.782227	-0.322079
H	-0.210432	-0.267103	-2.20335
C	4.72803	-1.1439	0.26723
C	5.67947	-0.249143	0.709185
N	5.45886	0.988444	0.203003
C	4.37468	0.861935	-0.550108
N	3.89632	-0.404843	-0.54409
H	4.58861	-2.21841	0.466022
H	6.52116	-0.474399	1.38422
H	3.88882	1.66477	-1.12772
H	3.05261	-0.756933	-1.0593
