18
  This energy is -0.9578 and Call times are: 62707
C	0.763182	-0.379635	0.748219
C	-0.549679	-0.199789	1.07137
C	-1.18211	0.281381	-0.115491
C	-0.199883	0.353095	-1.05914
O	0.994598	-0.0468601	-0.548978
H	1.6207	-0.734057	1.34345
H	-1.02507	-0.387165	2.04758
H	-2.24533	0.541249	-0.242452
H	-0.222328	0.668174	-2.1153
C	5.07193	-0.547049	-0.950047
C	6.3368	-0.0194773	-0.798663
N	6.48982	0.539142	0.426507
C	5.32431	0.358809	1.03288
N	4.43606	-0.291394	0.24431
H	4.59521	-1.06891	-1.79499
H	7.14173	-0.0319054	-1.55152
H	5.06747	0.683026	2.05423
H	3.45072	-0.551253	0.494983
