18
  This energy is -0.9799 and Call times are: 7429
C	0.758455	-0.623716	0.567561
C	0.522711	0.686798	0.863116
C	-0.482091	1.12003	-0.0549267
C	-0.771667	0.0360088	-0.830442
O	-0.0233292	-1.03769	-0.464159
H	1.4477	-1.36074	1.01139
H	1.00773	1.2881	1.64879
H	-0.931023	2.12401	-0.122565
H	-1.4805	-0.0982206	-1.66398
C	7.23462	0.412844	0.821574
C	6.09877	-0.340417	1.03035
N	5.49112	-0.643583	-0.142412
C	6.24712	-0.0805388	-1.07518
N	7.31061	0.568307	-0.544532
H	7.96971	0.835173	1.52501
H	5.70683	-0.67057	2.00617
H	6.06782	-0.112435	-2.16195
H	8.05182	1.09034	-1.07307
