18
  This energy is -1.2365 and Call times are: 100100
C	-0.307158	0.950595	0.537051
C	-1.04077	0.417709	-0.481882
C	-0.341999	-0.758067	-0.893454
C	0.756932	-0.839887	-0.089694
O	0.79415	0.195474	0.789883
H	-0.459906	1.85064	1.15498
H	-1.97978	0.812951	-0.901567
H	-0.631511	-1.4557	-1.69569
H	1.57645	-1.57581	-0.0444299
C	5.33903	-1.00099	0.617734
C	6.40896	-0.320881	0.0756524
N	5.99979	0.796389	-0.573039
C	4.68104	0.809358	-0.433917
N	4.23417	-0.253346	0.276402
H	5.2874	-1.93301	1.20272
H	7.46881	-0.616345	0.14099
H	3.99426	1.57353	-0.832179
H	3.23619	-0.467041	0.520591
