18
  This energy is -1.1653 and Call times are: 54014
C	0.458247	0.598174	0.847702
C	0.918107	-0.635848	0.492609
C	0.0990074	-1.05937	-0.59818
C	-0.789085	-0.0467691	-0.813362
O	-0.584149	0.973598	0.0606311
H	0.782869	1.30154	1.63202
H	1.75061	-1.19208	0.952653
H	0.170163	-2.00926	-1.15202
H	-1.60416	0.0673049	-1.54677
C	5.53401	0.246292	1.01944
C	4.57952	1.00862	0.379957
N	4.18075	0.423725	-0.775638
C	4.88519	-0.697188	-0.85276
N	5.71563	-0.849742	0.205862
H	6.07871	0.401027	1.96438
H	4.17144	1.97018	0.731696
H	4.83204	-1.44226	-1.66287
H	6.37267	-1.6504	0.374707
