18
  This energy is -1.1952 and Call times are: 128045
C	-0.0480866	-0.667109	-0.915999
C	0.611422	0.526802	-0.915713
C	0.448235	1.06331	0.397925
C	-0.296589	0.149892	1.08442
O	-0.608582	-0.913233	0.297376
H	-0.190041	-1.42374	-1.70506
H	1.15799	0.983832	-1.75624
H	0.843122	2.01902	0.778417
H	-0.665603	0.139764	2.12316
C	4.52257	0.648183	-0.94233
C	4.08162	0.836422	0.350446
N	4.60116	-0.0966735	1.18467
C	5.36153	-0.860873	0.412356
N	5.34732	-0.452693	-0.878681
H	4.31476	1.20127	-1.87209
H	3.39791	1.6288	0.696184
H	5.95047	-1.73238	0.740755
H	5.8658	-0.891275	-1.67874
