18
  This energy is -1.2475 and Call times are: 132421
C	0.0434306	1.02337	0.487062
C	-0.422205	0.837306	-0.781377
C	-0.320585	-0.564929	-1.03343
C	0.198177	-1.11197	0.10324
O	0.426598	-0.156432	1.04228
H	0.151821	1.93324	1.09996
H	-0.799398	1.60999	-1.47042
H	-0.603324	-1.09561	-1.95675
H	0.447961	-2.15317	0.36544
C	3.58935	-0.423792	-0.613364
C	4.16637	0.821769	-0.742879
N	5.19671	0.975482	0.123884
C	5.25866	-0.170362	0.788586
N	4.31044	-1.04677	0.380682
H	2.7448	-0.895216	-1.14064
H	3.85769	1.61227	-1.44621
H	5.97885	-0.420634	1.58415
H	4.15431	-2.01614	0.751088
