18
  This energy is -1.058 and Call times are: 125245
C	-0.79132	-0.628957	0.51442
C	-0.421275	0.600067	0.975876
C	0.583388	1.0695	0.0756515
C	0.738589	0.0858961	-0.856451
O	-0.0931044	-0.958863	-0.603913
H	-1.52935	-1.35807	0.887183
H	-0.816174	1.12357	1.86137
H	1.12232	2.02933	0.124393
H	1.39845	0.00994558	-1.73626
C	5.62039	0.120895	0.922779
C	5.40338	1.03833	-0.0833841
N	4.50846	0.570093	-0.986922
C	4.17156	-0.633251	-0.542978
N	4.81503	-0.95007	0.605573
H	6.26928	0.153262	1.8124
H	5.87652	2.02973	-0.173558
H	3.45836	-1.32448	-1.02023
H	4.71876	-1.84167	1.15059
