18
  This energy is -1.2549 and Call times are: 86831
C	-0.706697	-0.798826	0.385821
C	-0.816939	0.511233	0.749092
C	0.235422	1.19577	0.0678676
C	0.895847	0.243589	-0.651554
O	0.333977	-0.980364	-0.469197
H	-1.29862	-1.68662	0.66278
H	-1.56435	0.951393	1.42861
H	0.466177	2.2722	0.114187
H	1.76818	0.30826	-1.32245
C	4.32871	1.14511	-0.0151129
C	3.86394	0.196217	0.87074
N	4.38317	-1.02494	0.595653
C	5.16709	-0.834351	-0.456854
N	5.16816	0.457454	-0.862847
H	4.12819	2.22502	-0.099434
H	3.16325	0.370856	1.70344
H	5.76313	-1.60616	-0.969962
H	5.70598	0.858733	-1.66968
