18
  This energy is -1.2461 and Call times are: 106662
C	0.522076	0.504167	-0.871581
C	0.516984	-0.849857	-0.707361
C	-0.229992	-1.09631	0.484867
C	-0.615426	0.128865	0.943952
O	-0.164826	1.11772	0.127783
H	0.972553	1.14485	-1.64737
H	0.991629	-1.59986	-1.36028
H	-0.449655	-2.07539	0.940112
H	-1.20429	0.426629	1.82703
C	4.19329	-0.358611	-0.778273
C	4.00449	0.529154	0.259693
N	5.15063	0.714651	0.958596
C	6.04705	-0.0551092	0.3565
N	5.51879	-0.72269	-0.696526
H	3.50128	-0.744192	-1.54378
H	3.06181	1.03915	0.516802
H	7.10446	-0.167288	0.645546
H	6.0229	-1.39041	-1.33
