18
  This energy is -1.4223 and Call times are: 120645
C	-0.18051	0.29878	-1.07914
C	0.0160402	1.21718	-0.0900569
C	0.205742	0.465378	1.1095
C	0.10837	-0.846066	0.747548
O	-0.127374	-0.966324	-0.585484
H	-0.365957	0.416143	-2.15946
H	0.0263977	2.31401	-0.194683
H	0.392426	0.863418	2.11985
H	0.186874	-1.77476	1.33629
C	4.97669	-0.969621	0.335191
C	5.12648	-0.287039	-0.853419
N	4.30219	0.78729	-0.907155
C	3.64356	0.771254	0.243741
N	4.0146	-0.268745	1.02753
H	5.4702	-1.87434	0.724378
H	5.81454	-0.550501	-1.67318
H	2.87877	1.49722	0.563599
H	3.64063	-0.497575	1.98097
