18
  This energy is -0.8991 and Call times are: 64418
C	1.08718	0.159195	0.281247
C	0.48572	-1.06292	0.352375
C	-0.861808	-0.861043	-0.0760308
C	-0.964848	0.466613	-0.371134
O	0.215995	1.10497	-0.15871
H	2.11533	0.482618	0.512663
H	0.94491	-2.01142	0.674236
H	-1.65514	-1.6219	-0.15237
H	-1.81165	1.07093	-0.735803
C	5.96799	0.687111	-0.833039
C	6.37545	0.584367	0.480187
N	5.61121	-0.303972	1.16084
C	4.73297	-0.750631	0.273252
N	4.90674	-0.183311	-0.943934
H	6.34554	1.29767	-1.66863
H	7.20718	1.13531	0.948734
H	3.94102	-1.49335	0.461469
H	4.34085	-0.370796	-1.80758
