18
  This energy is -0.6901 and Call times are: 113082
C	0.337654	-0.65896	0.859164
C	1.17082	0.234726	0.25292
C	0.39327	0.86523	-0.765901
C	-0.846407	0.301177	-0.692306
O	-0.898289	-0.631726	0.294615
H	0.501494	-1.3628	1.69164
H	2.227	0.430331	0.498534
H	0.726718	1.64688	-1.46727
H	-1.76445	0.474618	-1.27742
C	6.51308	-0.88068	-0.317832
C	5.70413	-0.832437	0.797709
N	5.01641	0.333984	0.852501
C	5.39725	1.0068	-0.22495
N	6.29879	0.316819	-0.963019
H	7.20305	-1.65655	-0.685941
H	5.6044	-1.61837	1.56401
H	5.04729	2.00875	-0.521344
H	6.7488	0.633706	-1.85651
