18
  This energy is -1.5814 and Call times are: 31236
C	0.923316	0.192667	-0.629895
C	0.784983	0.68705	0.63376
C	-0.490555	0.236696	1.09235
C	-1.01908	-0.493135	0.0684435
O	-0.169096	-0.530526	-0.991336
H	1.73972	0.283263	-1.3651
H	1.50858	1.3067	1.18742
H	-0.952564	0.43775	2.07225
H	-1.97746	-1.02916	-0.0286836
C	4.56592	-0.98864	0.07498
C	5.80299	-0.841811	-0.515983
N	6.2419	0.436698	-0.419609
C	5.28076	1.08057	0.228677
N	4.24851	0.264738	0.548781
H	3.91084	-1.86705	0.18812
H	6.3867	-1.63548	-1.01017
H	5.28173	2.14982	0.495012
H	3.37317	0.535417	1.06041
