18
  This energy is -0.9608 and Call times are: 113842
C	0.810866	-0.207658	0.76536
C	1.08818	0.0059137	-0.552919
C	-0.172393	0.22856	-1.18656
C	-1.10874	0.13139	-0.199558
O	-0.525954	-0.134662	0.999018
H	1.46705	-0.419084	1.62558
H	2.08084	0.00659828	-1.03116
H	-0.351422	0.436192	-2.25377
H	-2.20652	0.229753	-0.220993
C	6.05919	0.72879	-0.801939
C	4.82851	0.840855	-0.190371
N	4.62231	-0.175074	0.682487
C	5.72089	-0.914581	0.612682
N	6.61753	-0.41129	-0.268408
H	6.56044	1.35865	-1.55398
H	4.08567	1.63656	-0.363306
H	5.92082	-1.8348	1.18493
H	7.55873	-0.813017	-0.500828
