18
  This energy is -1.0073 and Call times are: 46608
C	-0.736415	0.535897	-0.67595
C	-0.810106	0.604457	0.684286
C	0.272011	-0.188268	1.17493
C	0.911441	-0.671271	0.0712022
O	0.309039	-0.239026	-1.06778
H	-1.35951	0.987053	-1.46555
H	-1.55205	1.15776	1.28218
H	0.535883	-0.371802	2.22886
H	1.79401	-1.32311	-0.0357166
C	5.83971	-0.42737	-0.890629
C	4.51508	-0.046762	-0.931227
N	4.09782	0.400166	0.278176
C	5.15955	0.297212	1.06606
N	6.23506	-0.196697	0.408093
H	6.50675	-0.832535	-1.66809
H	3.85298	-0.0866321	-1.8115
H	5.20446	0.569402	2.13289
H	7.18845	-0.370753	0.810598
