18
  This energy is -0.7624 and Call times are: 39091
C	0.174329	0.393902	1.04921
C	-1.05927	0.386532	0.467362
C	-0.875056	-0.175813	-0.832619
C	0.454851	-0.462443	-0.930407
O	1.11092	-0.12102	0.209774
H	0.512538	0.734322	2.04168
H	-2.00416	0.741488	0.909266
H	-1.64872	-0.343553	-1.59904
H	1.04938	-0.904471	-1.74674
C	6.51937	-0.0974039	0.350175
C	5.78638	1.06479	0.235393
N	4.52779	0.808054	-0.196521
C	4.48016	-0.508408	-0.349107
N	5.65628	-1.09994	-0.0321821
H	7.5594	-0.276031	0.666343
H	6.14313	2.08396	0.456491
H	3.60912	-1.09077	-0.690219
H	5.86996	-2.12665	-0.0704415
