18
  This energy is -1.1221 and Call times are: 98556
C	-0.422228	1.05151	0.0496116
C	-1.19668	-0.0560332	0.233873
C	-0.318502	-1.17425	0.0978572
C	0.915074	-0.651329	-0.157514
O	0.870201	0.706577	-0.190519
H	-0.667868	2.12607	0.0642575
H	-2.2779	-0.0828705	0.444448
H	-0.583457	-2.24047	0.182007
H	1.89134	-1.13265	-0.33212
C	5.74754	-0.893848	-0.682161
C	6.48346	-0.26993	0.302874
N	5.77142	0.722218	0.890375
C	4.59824	0.713834	0.27216
N	4.5343	-0.242522	-0.684337
H	5.99315	-1.72744	-1.35917
H	7.51544	-0.517892	0.600181
H	3.75047	1.38626	0.480421
H	3.71635	-0.448586	-1.30864
