18
  This energy is -0.675 and Call times are: 74713
C	0.70319	0.624668	-0.63381
C	-0.561162	0.311331	-1.0383
C	-1.12462	-0.47428	0.0131056
C	-0.154854	-0.571666	0.967274
O	0.968179	0.0935847	0.588787
H	1.50163	1.21051	-1.1181
H	-1.04817	0.604054	-1.98235
H	-2.13536	-0.911776	0.0463228
H	-0.14041	-1.07893	1.94591
C	6.15038	0.810126	0.0751126
C	4.83536	1.02143	-0.281563
N	4.13202	-0.136803	-0.263488
C	5.00738	-1.06311	0.103007
N	6.23852	-0.542279	0.31887
H	7.00132	1.50332	0.169572
H	4.38148	1.98885	-0.55162
H	4.79994	-2.138	0.228804
H	7.0967	-1.06844	0.615422
