18
  This energy is -1.2623 and Call times are: 15199
C	-0.758504	-0.220833	0.813822
C	-0.168565	1.00134	0.677335
C	0.711628	0.887848	-0.441815
C	0.581861	-0.393667	-0.890429
O	-0.311892	-1.085	-0.135264
H	-1.50179	-0.597358	1.53563
H	-0.336388	1.89332	1.30208
H	1.36194	1.67433	-0.857311
H	1.06328	-0.928113	-1.72581
C	5.63318	0.714167	0.0649998
C	4.42448	0.871225	0.709604
N	3.57451	-0.140072	0.40739
C	4.25333	-0.921538	-0.421547
N	5.49998	-0.449385	-0.659287
H	6.54818	1.3276	0.0702603
H	4.15049	1.69613	1.38733
H	3.88526	-1.8516	-0.883874
H	6.22662	-0.886409	-1.27756
