18
  This energy is -1.968 and Call times are: 115241
C	-0.145556	0.788435	0.802238
C	0.589461	-0.341041	1.01297
C	0.539486	-1.07424	-0.211788
C	-0.221658	-0.328086	-1.06284
O	-0.648376	0.812823	-0.460137
H	-0.382978	1.63975	1.46114
H	1.11419	-0.628995	1.93809
H	1.01777	-2.0437	-0.425083
H	-0.528615	-0.496947	-2.10807
C	3.73523	0.638922	0.952245
C	3.94613	1.10848	-0.326888
N	4.23132	0.0940155	-1.17897
C	4.19747	-1.00072	-0.431291
N	3.90257	-0.724859	0.861196
H	3.48622	1.16132	1.8896
H	3.89763	2.16107	-0.650213
H	4.38101	-2.02995	-0.779471
H	3.81758	-1.41784	1.64466
