18
  This energy is -1.069 and Call times are: 98848
C	0.97013	0.176381	0.560481
C	0.942112	-0.232652	-0.740396
C	-0.4394	-0.341637	-1.08632
C	-1.13365	0.0104185	0.0336981
O	-0.288718	0.329825	1.04912
H	1.81004	0.390663	1.24157
H	1.80748	-0.437117	-1.39111
H	-0.858133	-0.647402	-2.05857
H	-2.21597	0.0730594	0.23346
C	6.17211	0.786891	0.0729156
C	5.56567	0.327957	-1.07719
N	4.59688	-0.57559	-0.791605
C	4.60229	-0.676808	0.530647
N	5.53437	0.124884	1.0982
H	6.98525	1.51349	0.229107
H	5.8098	0.632611	-2.10794
H	3.94484	-1.32289	1.13443
H	5.7333	0.223389	2.12386
