18
  This energy is -2.1276 and Call times are: 40999
C	-0.71175	-0.421839	-0.775799
C	-0.573949	0.918364	-0.563097
C	0.398346	1.05161	0.474693
C	0.768869	-0.218935	0.804555
O	0.100853	-1.13139	0.0507721
H	-1.34584	-0.989497	-1.47648
H	-1.10383	1.73155	-1.08468
H	0.772207	1.98864	0.91773
H	1.48763	-0.6012	1.54786
C	4.5477	0.710683	0.904803
C	5.21588	-0.442438	0.551267
N	4.66049	-1.01219	-0.545747
C	3.6516	-0.215555	-0.87153
N	3.54204	0.83745	-0.0272748
H	4.71122	1.42618	1.72631
H	6.08876	-0.873506	1.06809
H	2.96129	-0.356486	-1.71879
H	2.8272	1.60433	-0.0738588
