18
  This energy is -0.6324 and Call times are: 101917
C	-0.653351	0.175328	0.910381
C	0.634338	0.619331	0.839007
C	1.1181	0.21158	-0.44155
C	0.0833326	-0.445599	-1.03966
O	-1.00646	-0.477208	-0.228268
H	-1.41242	0.258667	1.70544
H	1.18799	1.17794	1.6107
H	2.12141	0.391191	-0.860122
H	-0.00262628	-0.929604	-2.02637
C	6.75609	0.596855	0.848303
C	7.32497	0.023237	-0.269054
N	6.3886	-0.586905	-1.03552
C	5.24319	-0.392541	-0.396082
N	5.41195	0.315976	0.745459
H	7.19791	1.16607	1.68156
H	8.39427	0.0386957	-0.535906
H	4.25141	-0.747467	-0.71953
H	4.66179	0.597671	1.42308
