18
  This energy is -1.4187 and Call times are: 129488
C	0.258621	0.653803	0.889976
C	0.861052	0.801889	-0.324734
C	0.278073	-0.187932	-1.17356
C	-0.629145	-0.853505	-0.402625
O	-0.654222	-0.352607	0.8605
H	0.389557	1.1944	1.84175
H	1.63802	1.53464	-0.595827
H	0.513166	-0.375213	-2.23363
H	-1.30937	-1.69015	-0.631914
C	4.43224	-0.415732	-1.09894
C	4.70649	-1.13752	0.0434033
N	4.70603	-0.338636	1.13807
C	4.43253	0.87415	0.67658
N	4.25895	0.880036	-0.666337
H	4.35083	-0.722249	-2.15391
H	4.90469	-2.22042	0.0973461
H	4.34751	1.79327	1.27843
H	4.03503	1.71298	-1.2641
