18
  This energy is -2.349 and Call times are: 66849
C	0.549314	0.743107	-0.657607
C	-0.013304	1.09793	0.533164
C	-0.603091	-0.0927465	1.05715
C	-0.348818	-1.07006	0.140324
O	0.354008	-0.577296	-0.913349
H	1.10824	1.32911	-1.40557
H	-0.0130224	2.09782	0.996103
H	-1.15101	-0.199579	2.00713
H	-0.61052	-2.14077	0.121436
C	4.44247	1.12251	-0.323675
C	5.31395	0.0786064	-0.551555
N	4.83207	-1.08053	-0.0409657
C	3.66608	-0.756955	0.501607
N	3.3861	0.560014	0.357405
H	4.49743	2.19024	-0.589121
H	6.28178	0.141052	-1.07524
H	2.97713	-1.44538	1.01702
H	2.52783	1.05776	0.69929
