18
  This energy is -1.1419 and Call times are: 37886
C	0.421561	0.905356	0.537603
C	1.12404	0.229855	-0.41665
C	0.27215	-0.830837	-0.851782
C	-0.875699	-0.709874	-0.125019
O	-0.801857	0.345156	0.728485
H	0.677598	1.78818	1.14614
H	2.14017	0.455835	-0.777896
H	0.496463	-1.59076	-1.61748
H	-1.80498	-1.3029	-0.121921
C	6.19439	-0.11752	0.849864
C	7.41119	0.523795	0.946068
N	8.08717	0.467751	-0.22714
C	7.29275	-0.205771	-1.04805
N	6.13933	-0.58059	-0.445792
H	5.39057	-0.271991	1.58713
H	7.81345	1.02593	1.84099
H	7.50664	-0.452482	-2.10048
H	5.35293	-1.12099	-0.882614
