18
  This energy is -1.7267 and Call times are: 63320
C	0.679474	0.652072	0.632074
C	0.816716	-0.703652	0.572484
C	-0.206106	-1.16164	-0.313069
C	-0.878087	-0.0453491	-0.716454
O	-0.350685	1.07127	-0.148987
H	1.24383	1.42041	1.18561
H	1.56332	-1.31942	1.09928
H	-0.410209	-2.20309	-0.609387
H	-1.73688	0.0857537	-1.39508
C	4.612	-0.831081	0.833219
C	5.37681	0.315615	0.797146
N	5.10568	1.04917	-0.309605
C	4.1762	0.36017	-0.957667
N	3.8447	-0.781363	-0.309134
H	4.56115	-1.6516	1.5665
H	6.11938	0.626789	1.54987
H	3.70389	0.64588	-1.91136
H	3.13784	-1.49297	-0.617728
