18
  This energy is -0.7115 and Call times are: 60059
C	-1.05859	0.338647	-0.226089
C	-0.742216	-0.96902	-0.00183175
C	0.664657	-0.994401	0.243487
C	1.08381	0.299996	0.147485
O	0.0445443	1.12763	-0.138787
H	-2.01865	0.829687	-0.455021
H	-1.43051	-1.82943	-0.00849388
H	1.28404	-1.8784	0.464847
H	2.08128	0.755721	0.259891
C	7.04328	0.195684	-0.199297
C	5.9924	1.02672	-0.525155
N	4.80771	0.48687	-0.1489
C	5.12243	-0.674659	0.408257
N	6.45827	-0.896229	0.4021
H	8.12977	0.300544	-0.347855
H	6.0678	2.00617	-1.025
H	4.41387	-1.40166	0.836791
H	6.9539	-1.7392	0.782901
