18
  This energy is -2.1703 and Call times are: 69292
C	0.213203	-0.000154258	-1.11398
C	-0.524801	0.976042	-0.511677
C	-0.570795	0.632633	0.873989
C	0.143163	-0.523101	0.996128
O	0.629223	-0.923893	-0.208083
H	0.50935	-0.149096	-2.16534
H	-0.99012	1.85026	-0.994713
H	-1.07887	1.18765	1.67892
H	0.375314	-1.14986	1.87278
C	4.18332	1.04005	-0.550547
C	5.21244	0.122431	-0.546309
N	4.89169	-0.968098	0.191509
C	3.66823	-0.727922	0.643275
N	3.19724	0.470216	0.223486
H	4.08613	2.02538	-1.03349
H	6.18064	0.227712	-1.06241
H	3.07111	-1.3955	1.28516
H	2.25956	0.885881	0.445373
