18
  This energy is -0.9728 and Call times are: 14111
C	0.537954	0.995571	0.0764474
C	-0.56479	0.819442	-0.706693
C	-0.948154	-0.546422	-0.540663
C	-0.0458372	-1.08438	0.329281
O	0.868913	-0.156801	0.716381
H	1.16943	1.87998	0.261678
H	-1.05871	1.57551	-1.33797
H	-1.79841	-1.05992	-1.01761
H	0.052228	-2.10043	0.745527
C	4.35624	-0.258186	-0.101184
C	4.91037	0.77411	0.625758
N	6.26135	0.776572	0.519227
C	6.54426	-0.250292	-0.270799
N	5.42928	-0.906012	-0.671352
H	3.30917	-0.567332	-0.248203
H	4.35957	1.51717	1.2252
H	7.55103	-0.566623	-0.587939
H	5.38975	-1.74757	-1.29704
