18
  This energy is -1.3124 and Call times are: 116556
C	0.757728	-0.210019	0.817399
C	0.271782	-1.18996	0.0025753
C	-0.643905	-0.543802	-0.882924
C	-0.636687	0.773963	-0.531047
O	0.213718	0.995736	0.505601
H	1.48449	-0.241543	1.64569
H	0.532037	-2.26045	0.0230342
H	-1.23477	-1.01369	-1.68553
H	-1.18401	1.64151	-0.934837
C	4.22743	-0.962019	0.0852021
C	3.97849	0.156418	-0.681786
N	4.96457	1.07521	-0.540444
C	5.82199	0.528841	0.310992
N	5.42233	-0.699498	0.71725
H	3.65783	-1.89505	0.221426
H	3.10504	0.316865	-1.33462
H	6.75841	0.984749	0.670835
H	5.92662	-1.33147	1.38625
