18
  This energy is -0.7114 and Call times are: 16540
C	-0.127947	0.0568543	1.12552
C	-0.927191	0.748792	0.263659
C	-0.462345	0.423682	-1.0472
C	0.579923	-0.438226	-0.870659
O	0.798038	-0.673375	0.45
H	-0.116323	0.000349336	2.2264
H	-1.7605	1.42073	0.524806
H	-0.863579	0.793434	-2.00448
H	1.23833	-0.947089	-1.59371
C	5.46632	1.16182	-0.131924
C	4.4646	0.221747	-0.0136578
N	4.97812	-1.02479	0.124045
C	6.29339	-0.85867	0.0913296
N	6.63804	0.441892	-0.0614805
H	5.4295	2.25567	-0.257057
H	3.38055	0.420606	-0.0252221
H	7.05009	-1.65532	0.174886
H	7.61223	0.828224	-0.115923
