18
  This energy is -0.3557 and Call times are: 73156
C	-0.917158	-0.471848	0.471786
C	-1.00175	0.419581	-0.557084
C	0.34343	0.78252	-0.871554
C	1.13129	0.0808394	-0.00709144
O	0.378084	-0.69039	0.820495
H	-1.69428	-1.01417	1.03501
H	-1.91936	0.784912	-1.04557
H	0.676154	1.4852	-1.65234
H	2.22585	0.043509	0.118578
C	7.81215	0.59847	-0.0497213
C	7.61703	-0.653665	0.493629
N	6.32305	-1.03973	0.379216
C	5.71773	-0.030935	-0.232787
N	6.57292	0.980989	-0.512513
H	8.71505	1.22354	-0.1369
H	8.38674	-1.28542	0.966158
H	4.6499	0.0188112	-0.500159
H	6.33693	1.88476	-0.990807
