18
  This energy is -0.7008 and Call times are: 58939
C	1.03035	-0.319389	0.350375
C	0.47521	-0.784415	-0.805454
C	-0.807122	-0.162649	-0.901104
C	-0.922392	0.627441	0.204719
O	0.190624	0.543918	0.98011
H	2.0025	-0.523615	0.82837
H	0.923725	-1.49409	-1.5191
H	-1.55053	-0.294398	-1.70365
H	-1.73449	1.28834	0.549628
C	4.85639	0.541059	-0.0567122
C	5.76967	0.395497	-1.07939
N	6.86643	-0.282458	-0.662237
C	6.63442	-0.556438	0.614373
N	5.43551	-0.0809121	1.02678
H	3.86829	1.02702	-0.024375
H	5.65688	0.76751	-2.11076
H	7.30876	-1.10254	1.29354
H	5.02529	-0.169203	1.98864
