18
  This energy is -1.5131 and Call times are: 109595
C	-0.971507	0.449177	0.375254
C	-0.406212	-0.651675	0.948789
C	0.788148	-0.90838	0.208705
C	0.847274	0.0582635	-0.751752
O	-0.219353	0.89597	-0.664771
H	-1.89451	1.0039	0.611059
H	-0.791621	-1.22539	1.80693
H	1.51289	-1.7207	0.378942
H	1.58611	0.255804	-1.5457
C	4.54059	-0.595011	-0.847417
C	5.60762	0.263807	-1.00559
N	6.00296	0.776375	0.184997
C	5.1843	0.237589	1.07838
N	4.28446	-0.596543	0.505574
H	3.96461	-1.18549	-1.57756
H	6.0993	0.522775	-1.95745
H	5.19975	0.419466	2.16508
H	3.53456	-1.14075	0.998265
