18
  This energy is -0.7029 and Call times are: 60540
C	-0.836887	0.748398	-0.161002
C	-0.880463	-0.195725	0.822414
C	0.335151	-0.936748	0.707154
C	1.01426	-0.380038	-0.336522
O	0.313183	0.650401	-0.878461
H	-1.55112	1.53697	-0.449595
H	-1.68766	-0.354412	1.55546
H	0.657861	-1.78421	1.33306
H	1.99144	-0.622527	-0.785488
C	6.5894	-0.218114	-0.928572
C	6.95778	0.396798	0.249276
N	5.90927	0.484627	1.10335
C	4.89429	-0.0736747	0.457794
N	5.25353	-0.513093	-0.771615
H	7.16417	-0.458645	-1.83705
H	7.96133	0.778651	0.498128
H	3.8666	-0.186818	0.838953
H	4.63272	-0.988007	-1.47183
