18
  This energy is -1.1149 and Call times are: 75866
C	-0.471211	0.600354	0.839008
C	-1.11812	-0.433297	0.227908
C	-0.214586	-0.930478	-0.760297
C	0.904703	-0.156758	-0.665838
O	0.765401	0.783243	0.305762
H	-0.778486	1.27505	1.65486
H	-2.13007	-0.808059	0.450671
H	-0.386696	-1.76737	-1.45606
H	1.85461	-0.17384	-1.22497
C	4.89989	1.11361	0.324043
C	4.87551	0.617773	-0.962306
N	4.61524	-0.712163	-0.968484
C	4.47868	-1.04013	0.309174
N	4.64127	0.0259956	1.12803
H	5.07708	2.12957	0.7113
H	5.04105	1.19582	-1.88605
H	4.25931	-2.04654	0.700646
H	4.58167	0.0243839	2.17574
