18
  This energy is -0.8209 and Call times are: 64901
C	0.568975	-0.406851	0.892827
C	0.405178	0.930179	0.678591
C	-0.353196	1.04304	-0.526501
C	-0.585883	-0.23498	-0.942298
O	-0.0298548	-1.13326	-0.0873484
H	1.08404	-0.961115	1.69454
H	0.780723	1.75428	1.30622
H	-0.682554	1.97205	-1.019
H	-1.12602	-0.632206	-1.81735
C	6.13903	0.196258	-0.894658
C	6.35489	-0.624271	0.192208
N	5.29061	-0.614192	1.03108
C	4.41781	0.209457	0.46677
N	4.88264	0.723857	-0.696378
H	6.76953	0.434127	-1.76611
H	7.25951	-1.22337	0.386112
H	3.42341	0.471388	0.862747
H	4.38145	1.39645	-1.327
