18
  This energy is -0.9159 and Call times are: 76255
C	1.09663	0.200102	-0.209173
C	0.531241	-1.02822	-0.387856
C	-0.842543	-0.882829	-0.0249586
C	-0.995377	0.421507	0.34345
O	0.178787	1.09755	0.237087
H	2.12743	0.559707	-0.362111
H	1.03141	-1.94473	-0.739894
H	-1.61929	-1.6642	-0.0396859
H	-1.87606	0.983412	0.695447
C	6.26362	0.784872	-0.152404
C	5.79814	-0.123714	-1.0792
N	4.79375	-0.874618	-0.565529
C	4.63673	-0.43355	0.675208
N	5.49958	0.566864	0.972276
H	7.05801	1.54578	-0.211642
H	6.16902	-0.250886	-2.1093
H	3.90475	-0.807844	1.40893
H	5.57263	1.07889	1.88538
