18
  This energy is -0.9424 and Call times are: 113714
C	0.883517	-0.0224653	-0.71084
C	0.93109	-0.583528	0.531464
C	-0.352809	-0.353808	1.11366
C	-1.07162	0.327354	0.17573
O	-0.332119	0.538331	-0.944826
H	1.6373	0.0437109	-1.51251
H	1.78467	-1.10668	0.991699
H	-0.692607	-0.663436	2.11504
H	-2.10425	0.713163	0.184123
C	6.67362	0.287165	-0.387262
C	6.15422	-0.983157	-0.2544
N	4.88584	-0.945162	0.221283
C	4.61938	0.34383	0.382907
N	5.66564	1.12755	0.0297787
H	7.65641	0.640811	-0.737391
H	6.67197	-1.92642	-0.49325
H	3.6739	0.768864	0.756597
H	5.70205	2.17568	0.0666534
