18
  This energy is -0.9614 and Call times are: 1777
C	0.0637915	0.585708	-0.969164
C	0.609766	-0.656327	-0.82904
C	0.326088	-1.05915	0.511624
C	-0.368197	-0.0277131	1.07241
O	-0.53748	0.985232	0.182299
H	0.0355122	1.27955	-1.82534
H	1.15734	-1.23118	-1.59311
H	0.609981	-2.00842	0.993687
H	-0.791188	0.105647	2.08164
C	4.40706	0.765726	-0.0377132
C	4.34705	-0.588515	-0.289854
N	5.56602	-1.16511	-0.155142
C	6.37917	-0.17235	0.179299
N	5.7281	1.01201	0.262965
H	3.62914	1.5456	-0.050543
H	3.44603	-1.15987	-0.56656
H	7.46033	-0.2572	0.374525
H	6.14937	1.9409	0.509844
