18
  This energy is -1.22 and Call times are: 15958
C	0.221888	-1.04885	-0.370246
C	-0.841971	-0.324599	-0.821954
C	-0.785717	0.924732	-0.131936
C	0.307551	0.853643	0.680519
O	0.934813	-0.344668	0.547838
H	0.575189	-2.0627	-0.620309
H	-1.59118	-0.638627	-1.56638
H	-1.48264	1.77195	-0.234996
H	0.739124	1.57811	1.39055
C	4.21325	0.0204462	-0.641093
C	4.3088	-0.130314	0.726126
N	5.60187	-0.107498	1.13105
C	6.30583	0.0567922	0.0192593
N	5.51427	0.139454	-1.07627
H	3.34061	0.0504644	-1.31276
H	3.46788	-0.255141	1.42764
H	7.40359	0.123194	-0.049553
H	5.83124	0.269437	-2.06819
