18
  This energy is -0.6762 and Call times are: 50078
C	-0.261759	-0.884886	0.659439
C	-0.908777	0.312213	0.752685
C	-0.305602	1.15994	-0.225915
C	0.656762	0.406038	-0.830781
O	0.697442	-0.845486	-0.302535
H	-0.388602	-1.82959	1.21325
H	-1.72856	0.572206	1.44149
H	-0.564737	2.20789	-0.446709
H	1.36918	0.640864	-1.6386
C	7.68713	0.0269873	0.64027
C	6.81631	-1.03364	0.506503
N	5.78124	-0.716219	-0.308598
C	6.00906	0.536562	-0.679087
N	7.14618	1.0294	-0.133505
H	8.6223	0.135739	1.21226
H	6.91633	-2.02222	0.983526
H	5.37539	1.14049	-1.34839
H	7.5406	1.99177	-0.273308
