18
  This energy is -1.216 and Call times are: 92892
C	-1.12955	-0.0418642	-0.0936569
C	-0.427112	1.11831	-0.238437
C	0.945637	0.769958	-0.0531487
C	0.960886	-0.572333	0.188501
O	-0.297799	-1.08447	0.167463
H	-2.20959	-0.254779	-0.152261
H	-0.83475	2.11902	-0.454079
H	1.81396	1.44688	-0.096566
H	1.79089	-1.26994	0.387708
C	5.07542	-1.16954	0.0418483
C	4.44345	-0.300433	-0.822101
N	4.82145	0.980136	-0.590216
C	5.68464	0.905742	0.413772
N	5.87153	-0.369078	0.830303
H	5.01692	-2.26447	0.147848
H	3.72151	-0.574437	-1.6086
H	6.20914	1.75395	0.88246
H	6.50264	-0.687113	1.60607
