18
  This energy is -1.0607 and Call times are: 88745
C	0.713169	-0.116046	-0.874257
C	1.08173	0.482697	0.29452
C	-0.070841	0.438369	1.13697
C	-1.04198	-0.18355	0.408634
O	-0.580576	-0.528987	-0.822133
H	1.27129	-0.307277	-1.80548
H	2.06646	0.912462	0.538901
H	-0.15743	0.826931	2.1644
H	-2.08756	-0.436458	0.649594
C	4.87775	-0.284959	-0.673305
C	6.08787	-0.942416	-0.60619
N	6.92269	-0.340572	0.275491
C	6.2331	0.686347	0.75353
N	4.99411	0.762846	0.212557
H	3.97222	-0.482003	-1.2689
H	6.37354	-1.84025	-1.17815
H	6.58752	1.41384	1.50144
H	4.26168	1.48312	0.427081
