18
  This energy is -2.2944 and Call times are: 116748
C	0.132519	0.910121	0.663717
C	-0.308201	-0.28736	1.14557
C	-0.343124	-1.17114	0.0240389
C	0.0793384	-0.435712	-1.04416
O	0.374069	0.837647	-0.671728
H	0.313849	1.87662	1.16197
H	-0.581308	-0.524531	2.18636
H	-0.648692	-2.22978	0.0223834
H	0.212078	-0.698914	-2.1064
C	3.44121	0.3779	-1.05525
C	4.21537	1.06962	-0.147867
N	4.43899	0.331556	0.966481
C	3.80596	-0.813679	0.751227
N	3.18884	-0.834888	-0.453887
H	3.06459	0.653666	-2.05307
H	4.61658	2.08801	-0.277296
H	3.76206	-1.67049	1.44273
H	2.62545	-1.62472	-0.853923
