18
  This energy is -0.4375 and Call times are: 49654
C	0.205433	0.262287	-1.08416
C	1.19312	-0.123319	-0.226163
C	0.550809	-0.363758	1.02673
C	-0.772681	-0.103856	0.823759
O	-1.00157	0.279737	-0.459782
H	0.231826	0.546995	-2.14882
H	2.26633	-0.227947	-0.452808
H	1.027	-0.691872	1.96464
H	-1.64	-0.153695	1.50238
C	7.39924	0.938968	-0.120421
C	7.72374	-0.264179	0.469731
N	6.67666	-1.12377	0.434642
C	5.70626	-0.456431	-0.17496
N	6.09251	0.792137	-0.529196
H	7.98614	1.85859	-0.27333
H	8.69463	-0.527396	0.920211
H	4.69335	-0.8346	-0.38762
H	5.50793	1.51131	-1.02145
