18
  This energy is -0.7479 and Call times are: 18304
C	-0.7239	-0.615594	-0.619204
C	-0.517541	0.713764	-0.844145
C	0.448046	1.12871	0.123107
C	0.746505	0.016291	0.853736
O	0.0399127	-1.05817	0.414106
H	-1.37891	-1.34849	-1.11828
H	-0.997167	1.3394	-1.61398
H	0.865927	2.14003	0.252331
H	1.43502	-0.139252	1.7005
C	4.93178	-0.396312	-0.884035
C	4.63225	-0.434907	0.461303
N	5.62935	0.110099	1.19972
C	6.54398	0.485373	0.315843
N	6.17016	0.201734	-0.954352
H	4.37007	-0.740619	-1.76691
H	3.71454	-0.846239	0.912372
H	7.50563	0.972393	0.544512
H	6.71911	0.399682	-1.82656
