18
  This energy is -1.8275 and Call times are: 130298
C	0.0174069	0.372153	1.07126
C	-0.183305	-0.939833	0.756968
C	-0.137618	-1.01175	-0.668815
C	0.0869799	0.262639	-1.09993
O	0.184313	1.12083	-0.0506281
H	0.0629971	0.892713	2.04193
H	-0.347102	-1.77336	1.45876
H	-0.258949	-1.91212	-1.29228
H	0.196139	0.683136	-2.11311
C	4.03978	-0.370079	1.10842
C	3.62267	-1.12276	0.0310966
N	3.57407	-0.374876	-1.09798
C	3.95956	0.837171	-0.72253
N	4.25142	0.89147	0.598628
H	4.19577	-0.634097	2.16648
H	3.35592	-2.19206	0.0482768
H	4.04588	1.72136	-1.37444
H	4.57692	1.73405	1.13283
