18
  This energy is -1.4307 and Call times are: 21513
C	0.0808703	0.21696	-1.11031
C	-0.103951	-1.04388	-0.62401
C	-0.154877	-0.911222	0.797231
C	0.00331923	0.418979	1.05397
O	0.14865	1.12286	-0.0994838
H	0.178703	0.596044	-2.14083
H	-0.195261	-1.97405	-1.20758
H	-0.293523	-1.71808	1.5347
H	0.0302938	0.98265	2.00096
C	5.12831	0.101933	-1.04671
C	5.62983	-0.52166	0.0761257
N	4.75323	-0.450597	1.10716
C	3.71185	0.214554	0.625786
N	3.88951	0.569649	-0.668792
H	5.55118	0.241319	-2.05432
H	6.60849	-1.02158	0.160763
H	2.79294	0.468891	1.17819
H	3.21256	1.10018	-1.27007
