18
  This energy is -0.9502 and Call times are: 102141
C	0.20241	-1.11182	-0.096399
C	0.888572	-0.179257	-0.817431
C	0.356737	1.08706	-0.425364
C	-0.607473	0.816537	0.500644
O	-0.715205	-0.521367	0.713762
H	0.272164	-2.21166	-0.0695216
H	1.68894	-0.364504	-1.55173
H	0.662767	2.07884	-0.795237
H	-1.27772	1.47864	1.07304
C	5.83309	0.134432	-1.04059
C	4.54455	0.503459	-0.717148
N	4.25841	0.199906	0.572228
C	5.36523	-0.355327	1.04687
N	6.34374	-0.417632	0.112944
H	6.40377	0.222666	-1.97872
H	3.81621	0.983302	-1.39104
H	5.51332	-0.733801	2.07111
H	7.30774	-0.811453	0.242832
