18
  This energy is -1.5337 and Call times are: 49039
C	-0.99157	-0.547978	0.053939
C	-0.309657	-0.160254	1.16975
C	0.872427	0.489182	0.699615
C	0.808517	0.440988	-0.661989
O	-0.32321	-0.188909	-1.07361
H	-1.94963	-1.0791	-0.0696917
H	-0.609029	-0.315959	2.21867
H	1.67179	0.937122	1.31154
H	1.49521	0.813495	-1.43977
C	4.59222	-0.989323	0.630735
C	4.55409	0.300781	1.11583
N	4.44297	1.19899	0.107181
C	4.41229	0.46889	-0.999451
N	4.49928	-0.856628	-0.736723
H	4.67613	-1.96006	1.14471
H	4.60475	0.599564	2.17556
H	4.3272	0.853897	-2.02841
H	4.49646	-1.63496	-1.44061
