18
  This energy is -1.8126 and Call times are: 29583
C	0.65365	0.847684	-0.374932
C	0.325865	-0.221966	-1.15518
C	-0.496226	-1.0612	-0.34279
C	-0.598237	-0.430308	0.862176
O	0.0978411	0.736947	0.860311
H	1.26665	1.74091	-0.578949
H	0.632251	-0.401951	-2.19817
H	-0.953967	-2.02125	-0.630673
H	-1.12909	-0.704791	1.78851
C	5.72279	-0.17826	-0.945888
C	7.05753	-0.497087	-0.811815
N	7.52177	-0.151424	0.413543
C	6.47901	0.379823	1.03728
N	5.37053	0.386505	0.259575
H	5.02207	-0.30894	-1.7858
H	7.69387	-0.970341	-1.57729
H	6.47193	0.77952	2.06413
H	4.42324	0.752226	0.524429
