18
  This energy is -1.1448 and Call times are: 109692
C	-0.622396	-0.346117	0.882738
C	-1.18224	0.18096	-0.243822
C	-0.0925201	0.491831	-1.1133
C	1.03704	0.127278	-0.441307
O	0.73212	-0.386397	0.77942
H	-1.07317	-0.7246	1.81484
H	-2.25497	0.335357	-0.442605
H	-0.15236	0.935179	-2.12025
H	2.1025	0.18134	-0.718998
C	4.50843	-0.852733	0.645215
C	5.21595	-1.00639	-0.528224
N	5.64007	0.189826	-1.00329
C	5.19735	1.08219	-0.127905
N	4.50913	0.503346	0.884454
H	4.02077	-1.5879	1.30495
H	5.42798	-1.95896	-1.04057
H	5.34881	2.17241	-0.180029
H	4.06137	0.994078	1.69683
