18
  This energy is -1.5372 and Call times are: 54920
C	-0.396529	0.475146	-0.950475
C	-0.203989	-0.869908	-0.831587
C	0.296943	-1.0779	0.489747
C	0.366294	0.158418	1.06167
O	-0.0533858	1.11866	0.196326
H	-0.767439	1.08946	-1.78731
H	-0.395501	-1.63851	-1.59753
H	0.571043	-2.03983	0.951978
H	0.692381	0.483337	2.06334
C	4.79398	-0.194046	-1.12295
C	5.4257	0.652376	-0.236584
N	4.82033	0.630694	0.975673
C	3.81687	-0.225922	0.841867
N	3.75868	-0.750175	-0.405274
H	5.00099	-0.432053	-2.17843
H	6.30744	1.27832	-0.450069
H	3.09424	-0.505957	1.62521
H	3.05833	-1.44744	-0.758257
