18
  This energy is -0.5955 and Call times are: 45656
C	0.245416	-0.165183	-1.09494
C	-0.867836	-0.691549	-0.508437
C	-0.82794	-0.269356	0.855483
C	0.306171	0.477737	0.982053
O	0.973917	0.551867	-0.199315
H	0.626512	-0.227228	-2.12749
H	-1.63969	-1.31462	-0.988147
H	-1.56271	-0.500004	1.64353
H	0.74278	1.00313	1.84726
C	5.899	0.214801	0.836987
C	4.54651	0.0150099	1.01583
N	3.92465	-0.206789	-0.167646
C	4.8877	-0.144832	-1.07722
N	6.09653	0.107194	-0.521538
H	6.70791	0.419123	1.55633
H	4.00826	0.0269285	1.97759
H	4.76285	-0.276549	-2.16409
H	7.01018	0.202472	-1.02892
