18
  This energy is -0.7535 and Call times are: 134239
C	-0.39909	0.741577	-0.759732
C	-1.184	0.202522	0.216852
C	-0.335322	-0.671305	0.962703
C	0.893279	-0.589095	0.376057
O	0.872575	0.269231	-0.677441
H	-0.623205	1.46252	-1.56301
H	-2.25334	0.400384	0.39421
H	-0.615826	-1.28566	1.83332
H	1.85001	-1.08399	0.610554
C	6.18573	0.341868	-0.163178
C	7.00012	0.656882	0.903913
N	8.22472	0.0928098	0.767204
C	8.17025	-0.569619	-0.380334
N	6.96175	-0.450412	-0.979434
H	5.14364	0.616272	-0.391832
H	6.72602	1.28106	1.77
H	8.98655	-1.15854	-0.828724
H	6.67127	-0.879728	-1.89188
