18
  This energy is -1.5094 and Call times are: 73380
C	0.925131	-0.36985	0.541982
C	0.515339	0.929804	0.599815
C	-0.667246	1.00276	-0.197861
C	-0.87572	-0.258756	-0.672726
O	0.0872429	-1.10991	-0.23085
H	1.78448	-0.886545	1.00001
H	0.997461	1.7544	1.14909
H	-1.28433	1.89516	-0.39002
H	-1.66182	-0.673944	-1.32458
C	4.72053	-1.04935	0.485098
C	5.05864	0.185922	0.995912
N	4.64978	1.18302	0.174234
C	4.06028	0.56865	-0.842459
N	4.07711	-0.778014	-0.701732
H	4.88672	-2.06831	0.869346
H	5.59026	0.375568	1.94262
H	3.59955	1.05678	-1.71636
H	3.67636	-1.4814	-1.36949
