18
  This energy is -0.8177 and Call times are: 118262
C	1.05069	0.163501	0.394621
C	0.0650341	1.09605	0.533224
C	-1.09492	0.53329	-0.0815372
C	-0.715696	-0.693478	-0.541542
O	0.591481	-0.935764	-0.259412
H	2.10597	0.16218	0.713409
H	0.146616	2.08139	1.01958
H	-2.0915	0.995547	-0.166595
H	-1.27437	-1.47783	-1.07813
C	4.73234	1.06491	0.179898
C	5.1625	0.176635	1.14275
N	5.647	-0.95705	0.580142
C	5.51791	-0.772787	-0.726765
N	4.97135	0.431144	-1.01902
H	4.28788	2.06966	0.260345
H	5.13194	0.333459	2.23331
H	5.80756	-1.48704	-1.51427
H	4.76834	0.809679	-1.9765
