18
  This energy is -0.6941 and Call times are: 7493
C	0.874891	0.289511	-0.661173
C	-0.372894	0.0576607	-1.16082
C	-1.18844	-0.275947	-0.036679
C	-0.367034	-0.218509	1.05069
O	0.896706	0.125366	0.68775
H	1.81871	0.574231	-1.15452
H	-0.687457	0.115734	-2.21523
H	-2.26105	-0.527959	-0.0462001
H	-0.557972	-0.397971	2.12147
C	5.64311	0.819338	-0.772047
C	4.70342	-0.1687	-0.976789
N	4.55606	-0.939389	0.128124
C	5.4011	-0.431398	1.01495
N	6.08004	0.630563	0.520099
H	6.01926	1.61683	-1.43239
H	4.12914	-0.339275	-1.90197
H	5.56254	-0.798428	2.04133
H	6.80177	1.20137	1.02462
