18
  This energy is -2.8335 and Call times are: 95981
C	-0.203403	1.08	-0.280412
C	-0.256472	0.0663659	-1.19151
C	0.0539333	-1.12577	-0.468626
C	0.269283	-0.735404	0.820407
O	0.116321	0.608439	0.953451
H	-0.37052	2.1648	-0.383065
H	-0.490703	0.149792	-2.26495
H	0.108221	-2.15044	-0.870146
H	0.534064	-1.30935	1.72358
C	3.21863	1.00806	-0.175867
C	4.28628	0.805767	0.672867
N	4.7109	-0.480319	0.626004
C	3.90971	-1.07363	-0.248477
N	2.99293	-0.218355	-0.75996
H	2.62335	1.90794	-0.398124
H	4.75781	1.56476	1.3182
H	3.95049	-2.13237	-0.551176
H	2.25147	-0.446096	-1.4668
