18
  This energy is -0.6387 and Call times are: 71351
C	0.804687	0.127274	-0.789101
C	0.180821	1.18977	-0.204063
C	-0.753666	0.633223	0.721738
C	-0.618358	-0.72024	0.620717
O	0.328996	-1.04698	-0.29731
H	1.59292	0.0749393	-1.55799
H	0.360647	2.25824	-0.404362
H	-1.44244	1.18439	1.38196
H	-1.13037	-1.54695	1.13999
C	5.02741	0.86952	0.179234
C	4.82841	-0.273856	-0.565235
N	5.93214	-1.06013	-0.55766
C	6.81252	-0.407021	0.188671
N	6.31469	0.762213	0.656275
H	4.36612	1.72347	0.396077
H	3.9082	-0.54554	-1.10769
H	7.8361	-0.739713	0.424955
H	6.81417	1.45501	1.26604
