18
  This energy is -0.8827 and Call times are: 29871
C	-0.366346	1.03439	-0.286772
C	-1.1464	0.14567	0.392992
C	-0.346393	-1.02502	0.565001
C	0.851907	-0.748357	-0.0248347
O	0.857339	0.50503	-0.550194
H	-0.562997	2.06085	-0.637412
H	-2.18133	0.299113	0.738616
H	-0.637732	-1.95973	1.07051
H	1.76838	-1.3508	-0.136141
C	5.86648	0.918096	-0.569728
C	4.53214	0.706094	-0.294509
N	4.35071	-0.455962	0.378707
C	5.56787	-0.96294	0.520593
N	6.51621	-0.171629	-0.0344385
H	6.38244	1.7399	-1.09123
H	3.69709	1.3708	-0.569641
H	5.82137	-1.91057	1.02257
H	7.54956	-0.353564	-0.0533889
