18
  This energy is -0.9031 and Call times are: 64967
C	-0.213878	-0.14164	1.10481
C	-1.08864	-0.535236	0.135146
C	-0.473972	-0.193544	-1.10805
C	0.722151	0.378691	-0.788347
O	0.897441	0.418553	0.558759
H	-0.264759	-0.203645	2.20427
H	-2.06847	-1.01778	0.280727
H	-0.882461	-0.358487	-2.11801
H	1.52653	0.792115	-1.41867
C	5.62213	-0.898078	-0.238908
C	4.85373	-0.191828	-1.13997
N	4.14033	0.778547	-0.518736
C	4.46492	0.674687	0.762857
N	5.35527	-0.321547	0.982807
H	6.31679	-1.74199	-0.376038
H	4.80132	-0.365068	-2.22721
H	4.08006	1.30273	1.58242
H	5.76436	-0.601439	1.90778
