18
  This energy is -1.514 and Call times are: 98620
C	0.207071	0.184714	-1.09973
C	0.593415	-0.959542	-0.46586
C	0.160435	-0.821672	0.888259
C	-0.452276	0.394663	0.962335
O	-0.432951	1.02299	-0.242592
H	0.326542	0.51825	-2.14363
H	1.12952	-1.81488	-0.907541
H	0.29409	-1.54886	1.70522
H	-0.935254	0.920031	1.80255
C	4.16887	-0.834285	-0.819675
C	3.79893	-0.91161	0.506339
N	4.09836	0.234385	1.16479
C	4.65194	1.01967	0.25073
N	4.71716	0.420828	-0.962005
H	4.0836	-1.55941	-1.64458
H	3.32134	-1.77376	0.999738
H	5.0271	2.04255	0.415642
H	5.11046	0.833934	-1.84287
