18
  This energy is -1.06 and Call times are: 48385
C	0.639518	-0.934103	-0.0697864
C	0.92084	0.0806187	0.797147
C	-0.0953937	1.06313	0.592066
C	-0.908011	0.562074	-0.382084
O	-0.47407	-0.656877	-0.797852
H	1.1475	-1.8934	-0.262052
H	1.75982	0.132084	1.50958
H	-0.200998	2.02783	1.11388
H	-1.81402	0.969849	-0.859699
C	6.08693	0.69104	0.660065
C	6.43394	-0.512352	0.0833688
N	5.39588	-1.03897	-0.61062
C	4.40864	-0.165591	-0.465009
N	4.77552	0.894892	0.292859
H	6.66124	1.39335	1.28494
H	7.41472	-1.01004	0.155604
H	3.39665	-0.253406	-0.89208
H	4.17533	1.71596	0.551456
