18
  This energy is -0.6372 and Call times are: 106019
C	-0.609293	-0.660066	-0.692442
C	-1.13934	-0.0914118	0.428299
C	-0.0789002	0.655092	1.0269
C	1.00555	0.476717	0.219109
O	0.699658	-0.323732	-0.835748
H	-1.05332	-1.31531	-1.45974
H	-2.17335	-0.187946	0.79654
H	-0.12724	1.25243	1.95153
H	2.03702	0.860156	0.284705
C	5.14078	0.753031	-0.282458
C	5.52163	-0.369734	-0.986376
N	6.54833	-1.00647	-0.372398
C	6.80345	-0.281473	0.708304
N	5.98163	0.790158	0.807394
H	4.35705	1.50321	-0.473582
H	5.07398	-0.731769	-1.92626
H	7.58098	-0.490162	1.46071
H	5.98446	1.51181	1.56928
