18
  This energy is -2.0892 and Call times are: 109499
C	-0.243718	1.09588	0.161376
C	-0.401405	0.160528	1.14149
C	0.00364521	-1.08195	0.565031
C	0.373097	-0.796172	-0.716456
O	0.228442	0.529191	-0.980087
H	-0.429611	2.18243	0.150974
H	-0.766347	0.328644	2.16747
H	0.0151942	-2.06871	1.05521
H	0.750791	-1.43841	-1.52894
C	4.16776	-0.498275	1.04061
C	5.25158	0.29384	0.725918
N	5.20202	0.698761	-0.566404
C	4.09169	0.159896	-1.05158
N	3.43271	-0.571101	-0.121536
H	3.87722	-0.998611	1.97805
H	6.06841	0.580427	1.40819
H	3.71411	0.268511	-2.08109
H	2.53323	-1.09376	-0.259463
