18
  This energy is -1.6804 and Call times are: 136083
C	0.549123	0.472141	0.872896
C	-0.238086	-0.632422	1.01649
C	-0.748541	-0.920756	-0.285978
C	-0.228202	0.0330625	-1.11051
O	0.566639	0.89202	-0.419546
H	1.14212	1.04721	1.6029
H	-0.43914	-1.18838	1.94632
H	-1.42406	-1.74472	-0.566782
H	-0.34545	0.206941	-2.19276
C	4.94343	1.12473	-0.0462443
C	5.70319	0.0429814	0.345856
N	4.98872	-1.10651	0.277207
C	3.79029	-0.739281	-0.155835
N	3.71261	0.596223	-0.365562
H	5.18352	2.19744	-0.11824
H	6.75407	0.0713403	0.677057
H	2.93306	-1.40763	-0.336649
H	2.87448	1.1278	-0.706465
