18
  This energy is -1.3843 and Call times are: 46307
C	-1.12081	-0.171022	0.0305944
C	-0.278574	-0.973931	-0.680987
C	1.03243	-0.446017	-0.474383
C	0.875602	0.63289	0.345213
O	-0.432956	0.815504	0.663552
H	-2.21464	-0.195942	0.16542
H	-0.552975	-1.85006	-1.29025
H	1.9766	-0.831449	-0.891611
H	1.60591	1.34251	0.767509
C	5.39404	0.502823	-0.942435
C	5.30119	-0.847221	-0.678043
N	4.66879	-1.07221	0.499224
C	4.37045	0.133668	0.963412
N	4.78682	1.1166	0.130294
H	5.83456	1.05191	-1.78977
H	5.67918	-1.66295	-1.31566
H	3.8478	0.354038	1.90814
H	4.66943	2.14945	0.274126
