18
  This energy is -0.7412 and Call times are: 35168
C	-0.850039	-0.573174	-0.485083
C	-0.958926	0.742033	-0.140484
C	0.298541	1.10112	0.433927
C	1.06484	-0.0263501	0.389635
O	0.379273	-1.05856	-0.168531
H	-1.56564	-1.26738	-0.955451
H	-1.83669	1.39393	-0.277084
H	0.589583	2.08678	0.831239
H	2.09888	-0.220918	0.718504
C	5.73623	0.858077	-0.770061
C	4.94196	0.949882	0.353258
N	4.88961	-0.232887	1.01267
C	5.64852	-1.05532	0.301144
N	6.18157	-0.444871	-0.78366
H	6.00703	1.60289	-1.53521
H	4.40573	1.84836	0.699734
H	5.84794	-2.11473	0.529435
H	6.81367	-0.881024	-1.49884
