18
  This energy is -1.7837 and Call times are: 50950
C	-0.0101792	-0.547234	0.993394
C	-0.10026	0.81098	0.906723
C	-0.0539514	1.11773	-0.487508
C	0.06034	-0.0801178	-1.12975
O	0.0885667	-1.10769	-0.240764
H	-0.00521584	-1.22565	1.86229
H	-0.190287	1.5252	1.74091
H	-0.100934	2.11707	-0.949244
H	0.129738	-0.331727	-2.20079
C	3.48678	0.557016	-0.835932
C	3.46391	-0.792322	-0.553255
N	4.29492	-1.09031	0.474912
C	4.83129	0.069746	0.828736
N	4.376	1.09349	0.0683164
H	2.95107	1.15355	-1.59138
H	2.86267	-1.55618	-1.07276
H	5.56279	0.226259	1.63784
H	4.64847	2.10348	0.151691
