18
  This energy is -1.375 and Call times are: 78014
C	0.981768	-0.493604	0.280867
C	0.275102	-0.852432	-0.829196
C	-0.884211	-0.018187	-0.841266
C	-0.783643	0.776791	0.262486
O	0.349823	0.500014	0.959379
H	1.93516	-0.864083	0.692014
H	0.543307	-1.6269	-1.56565
H	-1.69358	-0.017228	-1.58894
H	-1.44332	1.56708	0.656839
C	4.36605	-0.578213	-0.998012
C	4.92374	-1.10057	0.149709
N	5.05192	-0.150018	1.10706
C	4.57555	0.957827	0.555357
N	4.14959	0.751561	-0.713346
H	4.11622	-1.04316	-1.96494
H	5.23592	-2.1463	0.304149
H	4.51523	1.94764	1.03585
H	3.73369	1.4681	-1.35743
