18
  This energy is -0.7529 and Call times are: 38078
C	0.810464	0.261765	0.749018
C	0.927122	-0.785213	-0.117355
C	-0.276322	-0.792094	-0.886635
C	-1.02215	0.251287	-0.422449
O	-0.373767	0.905879	0.576611
H	1.49079	0.646842	1.52627
H	1.77552	-1.4827	-0.205834
H	-0.546516	-1.49597	-1.69015
H	-2.0163	0.62679	-0.715574
C	6.27829	0.739867	-0.780341
C	6.80075	0.375644	0.442572
N	5.98434	-0.496344	1.08258
C	4.95929	-0.672409	0.259843
N	5.08965	0.0514086	-0.877119
H	6.65563	1.41765	-1.56249
H	7.75217	0.726424	0.874557
H	4.08638	-1.3202	0.440491
H	4.41399	0.0822727	-1.67948
