18
  This energy is -0.6471 and Call times are: 78142
C	0.105948	-0.591071	0.962191
C	0.941105	0.438592	0.641752
C	0.49517	0.923863	-0.625439
C	-0.573126	0.147904	-0.967497
O	-0.824881	-0.782484	-0.00936922
H	0.0698994	-1.25716	1.83984
H	1.78638	0.818303	1.23792
H	0.925955	1.75463	-1.20711
H	-1.22965	0.157017	-1.85302
C	5.56524	0.0374096	-1.17579
C	5.79491	-1.07178	-0.389597
N	5.76501	-0.752158	0.927012
C	5.51772	0.550355	0.957491
N	5.38904	1.07273	-0.285148
H	5.51634	0.159194	-2.26955
H	5.98167	-2.09694	-0.748782
H	5.42079	1.17118	1.8627
H	5.1925	2.0754	-0.524523
