18
  This energy is -1.5951 and Call times are: 23143
C	0.41527	-0.502444	-0.928171
C	0.0245624	-1.20823	0.171641
C	-0.433491	-0.239175	1.11569
C	-0.282258	0.973243	0.509439
O	0.234855	0.831274	-0.739341
H	0.832531	-0.827647	-1.89533
H	0.0557849	-2.30157	0.304764
H	-0.828025	-0.431787	2.1263
H	-0.502332	1.99639	0.855839
C	4.2574	0.0566357	-1.17413
C	3.48786	0.844267	-0.344317
N	3.66739	0.505593	0.955522
C	4.54496	-0.488364	0.932178
N	4.93124	-0.79615	-0.328632
H	4.36945	0.043089	-2.26994
H	2.80633	1.65084	-0.660227
H	4.93887	-1.0266	1.80931
H	5.61398	-1.54226	-0.608724
