18
  This energy is -0.5475 and Call times are: 104506
C	0.986335	-0.214603	-0.517195
C	-0.174883	-0.835854	-0.872154
C	-1.18074	-0.309381	-0.0054363
C	-0.545391	0.587115	0.802649
O	0.77856	0.657731	0.504017
H	2.01295	-0.304754	-0.908584
H	-0.309618	-1.58928	-1.66481
H	-2.25041	-0.573449	0.00751876
H	-0.918323	1.2295	1.61721
C	6.90259	0.358837	0.201536
C	5.75452	0.839131	0.795155
N	4.65686	0.197163	0.326611
C	5.12221	-0.678061	-0.554329
N	6.47045	-0.619582	-0.665722
H	7.96123	0.634856	0.330573
H	5.69854	1.63737	1.55313
H	4.51951	-1.38588	-1.14592
H	7.07198	-1.20755	-1.29319
