18
  This energy is -0.9478 and Call times are: 66123
C	-0.774975	0.448293	-0.69631
C	0.362824	-0.14698	-1.15613
C	1.07379	-0.580387	0.00438701
C	0.307687	-0.211702	1.07094
O	-0.825075	0.417741	0.66147
H	-1.61596	0.925183	-1.226
H	0.670588	-0.268672	-2.20712
H	2.04239	-1.10493	0.0320976
H	0.455937	-0.337854	2.156
C	6.37042	-0.357944	0.561467
C	5.56454	0.708502	0.899685
N	4.53025	0.833523	0.0330157
C	4.69386	-0.151616	-0.839542
N	5.78938	-0.898267	-0.563978
H	7.28574	-0.757275	1.02651
H	5.71087	1.38996	1.75353
H	4.04083	-0.37164	-1.69941
H	6.13105	-1.73025	-1.10465
