18
  This energy is -0.9056 and Call times are: 87746
C	0.925402	0.655758	-0.00353581
C	0.172218	0.449281	-1.12177
C	-0.889878	-0.418535	-0.723072
C	-0.691968	-0.665759	0.60361
O	0.412166	-0.0176576	1.05953
H	1.83733	1.25209	0.16388
H	0.347021	0.866253	-2.1266
H	-1.70229	-0.808192	-1.35731
H	-1.25784	-1.27691	1.32578
C	6.13967	0.908222	-0.1145
C	6.31634	-0.369402	-0.601955
N	5.26426	-1.16288	-0.285676
C	4.43805	-0.38048	0.3954
N	4.92083	0.877918	0.525578
H	6.77389	1.80686	-0.175761
H	7.18408	-0.732877	-1.1762
H	3.46639	-0.678033	0.821505
H	4.45535	1.67805	1.01992
