18
  This energy is -0.9845 and Call times are: 101054
C	0.832376	0.285626	0.71552
C	0.358332	-0.989595	0.618214
C	-0.668606	-0.950353	-0.373742
C	-0.731453	0.345383	-0.795039
O	0.178196	1.11415	-0.140405
H	1.62162	0.726048	1.34668
H	0.697765	-1.86961	1.18782
H	-1.2837	-1.79389	-0.726148
H	-1.37109	0.840406	-1.54409
C	5.74364	-0.677008	0.715874
C	5.78181	-0.659515	-0.662306
N	4.90485	0.243685	-1.16398
C	4.32485	0.784456	-0.101072
N	4.79641	0.262771	1.05611
H	6.30479	-1.27187	1.45397
H	6.42642	-1.28242	-1.30365
H	3.54857	1.56643	-0.113225
H	4.49742	0.524355	2.02741
