18
  This energy is -0.8846 and Call times are: 9687
C	-0.744143	-0.14729	-0.843183
C	-1.1264	0.228332	0.411075
C	0.0754201	0.307355	1.17887
C	1.08599	-0.0269533	0.326021
O	0.603597	-0.307656	-0.913136
H	-1.32686	-0.331421	-1.76068
H	-2.15181	0.429573	0.760541
H	0.167087	0.582046	2.24199
H	2.17549	-0.101132	0.476839
C	4.7617	0.542451	-0.622972
C	5.16238	-0.771406	-0.742899
N	6.15438	-1.06167	0.133567
C	6.3683	0.067816	0.794715
N	5.55353	1.06471	0.375249
H	3.99471	1.12337	-1.15944
H	4.75345	-1.5151	-1.44614
H	7.10947	0.220117	1.59578
H	5.52958	2.0481	0.740796
