18
  This energy is -1.5385 and Call times are: 20615
C	0.0270949	0.727851	0.869425
C	-0.536664	1.04502	-0.331389
C	-0.377075	-0.110522	-1.15563
C	0.270118	-1.03181	-0.38574
O	0.524778	-0.536699	0.854026
H	0.136372	1.30645	1.80137
H	-1.01674	1.99718	-0.6089
H	-0.708813	-0.232426	-2.19927
H	0.601447	-2.06103	-0.600645
C	3.57539	0.449499	0.952801
C	3.9681	1.1357	-0.176822
N	4.54156	0.303342	-1.0795
C	4.50474	-0.894678	-0.51204
N	3.93164	-0.859084	0.714284
H	3.08402	0.788469	1.87865
H	3.84793	2.21647	-0.356673
H	4.8835	-1.832	-0.950455
H	3.78635	-1.67321	1.3603
