18
  This energy is -1.1399 and Call times are: 120132
C	-0.211763	0.355269	1.0561
C	1.04482	0.34913	0.525687
C	0.906205	-0.158242	-0.802273
C	-0.422848	-0.41736	-0.966132
O	-1.12051	-0.109631	0.158848
H	-0.585722	0.662225	2.04664
H	1.97594	0.669727	1.01999
H	1.70848	-0.309244	-1.5423
H	-0.989676	-0.816362	-1.82331
C	5.76013	0.508809	0.901365
C	4.87365	1.10946	0.032735
N	4.41714	0.225991	-0.88791
C	5.01813	-0.918392	-0.591549
N	5.8381	-0.799676	0.479496
H	6.32226	0.906635	1.76118
H	4.55529	2.16447	0.0538265
H	4.89365	-1.87387	-1.12614
H	6.422	-1.55961	0.907073
