18
  This energy is -1.2475 and Call times are: 63352
C	0.838178	-0.420108	0.638254
C	0.423275	0.875388	0.737849
C	-0.632801	1.02189	-0.212602
C	-0.770025	-0.19702	-0.809102
O	0.120335	-1.08964	-0.30166
H	1.62341	-0.979461	1.17285
H	0.821007	1.65012	1.4129
H	-1.21668	1.93279	-0.420993
H	-1.45422	-0.552535	-1.59697
C	5.51699	-0.962609	0.437259
C	5.85086	-0.299319	-0.724515
N	5.04536	0.772028	-0.924249
C	4.21494	0.773367	0.109684
N	4.45868	-0.252717	0.958997
H	5.94339	-1.85964	0.913766
H	6.65853	-0.574602	-1.42219
H	3.40973	1.50269	0.293989
H	3.94024	-0.466717	1.84595
