18
  This energy is -1.3248 and Call times are: 46576
C	0.196855	-1.00846	-0.480262
C	-0.508923	-0.877044	0.67947
C	-0.542815	0.523047	0.960033
C	0.145245	1.12361	-0.0530198
O	0.604034	0.203307	-0.941599
H	0.474008	-1.89716	-1.07073
H	-0.960382	-1.68499	1.27739
H	-1.02578	1.01648	1.81873
H	0.375241	2.183	-0.253118
C	3.70611	0.688504	-0.655418
C	4.05208	0.880107	0.665467
N	4.86842	-0.10825	1.10507
C	5.02827	-0.909954	0.0608785
N	4.34749	-0.472666	-1.02489
H	3.0701	1.27667	-1.33593
H	3.72729	1.71379	1.30915
H	5.63319	-1.83067	0.0365969
H	4.31452	-0.930871	-1.96841
