18
  This energy is -0.9402 and Call times are: 134207
C	0.392435	0.80068	0.700933
C	1.11874	-0.307955	0.378777
C	0.300237	-1.06605	-0.513109
C	-0.853987	-0.353756	-0.657239
O	-0.814947	0.789119	0.0771494
H	0.619752	1.65936	1.35381
H	2.12948	-0.566003	0.733604
H	0.550189	-2.02874	-0.987283
H	-1.76554	-0.54989	-1.24534
C	6.13619	-0.710027	-0.876318
C	6.95676	-0.014254	-0.013929
N	6.23174	0.707114	0.875165
C	4.9662	0.459799	0.565523
N	4.85595	-0.389025	-0.48373
H	6.36505	-1.38825	-1.71368
H	8.05894	-0.0198423	-0.0173233
H	4.08101	0.874001	1.07454
H	3.96496	-0.736421	-0.915849
