18
  This energy is -1.3601 and Call times are: 91399
C	-1.03455	-0.464734	0.0113008
C	-0.594683	0.313641	-1.01876
C	0.734247	0.706174	-0.672375
C	0.989155	0.133018	0.538776
O	-0.0801538	-0.5857	0.971251
H	-1.99274	-0.983697	0.178055
H	-1.1503	0.584243	-1.93099
H	1.41386	1.34163	-1.26264
H	1.88004	0.160225	1.18749
C	5.21475	0.662954	0.879527
C	5.25894	0.953521	-0.467604
N	4.68731	-0.0335278	-1.19937
C	4.29001	-0.933012	-0.309597
N	4.58515	-0.559193	0.957975
H	5.57477	1.22078	1.75859
H	5.69304	1.85769	-0.924646
H	3.77806	-1.88312	-0.531914
H	4.37451	-1.09775	1.83367
