18
  This energy is -1.066 and Call times are: 76747
C	-0.54605	0.623252	-0.774459
C	-0.178434	1.12465	0.439556
C	0.475314	0.0542766	1.12295
C	0.449484	-1.00672	0.266221
O	-0.170504	-0.677081	-0.897378
H	-1.07244	1.08367	-1.62662
H	-0.35038	2.14582	0.816058
H	0.911023	0.0805354	2.13466
H	0.832719	-2.03562	0.364938
C	4.35878	-0.910983	-0.0760811
C	4.19309	0.229675	0.680615
N	5.24359	1.07253	0.530457
C	6.05789	0.457094	-0.316173
N	5.56904	-0.742402	-0.710924
H	3.72232	-1.80106	-0.203483
H	3.33437	0.459586	1.33222
H	7.02479	0.839949	-0.680526
H	6.02508	-1.4157	-1.37421
