18
  This energy is -0.752 and Call times are: 35136
C	0.908914	0.62679	-0.259636
C	-0.355842	1.13743	-0.263676
C	-1.21421	0.0587265	0.11012
C	-0.398221	-1.01586	0.309583
O	0.901714	-0.686974	0.0881908
H	1.88462	1.08885	-0.482664
H	-0.654378	2.17011	-0.505611
H	-2.3106	0.088768	0.215625
H	-0.616848	-2.05471	0.606656
C	5.98747	-0.464573	-0.741047
C	5.17166	-1.14866	0.135087
N	4.38633	-0.296768	0.837967
C	4.7137	0.911222	0.399548
N	5.67477	0.863245	-0.553148
H	6.74322	-0.816927	-1.46093
H	5.13564	-2.24166	0.272637
H	4.28077	1.86492	0.741989
H	6.10058	1.68162	-1.05336
