18
  This energy is -1.1284 and Call times are: 53641
C	0.727336	-0.799627	0.343481
C	-0.62406	-0.942607	0.460359
C	-1.19151	0.25456	-0.0734079
C	-0.136784	1.02343	-0.469345
O	1.04272	0.395158	-0.222234
H	1.55985	-1.46661	0.621529
H	-1.16686	-1.80463	0.880321
H	-2.26176	0.505291	-0.149579
H	-0.0938249	2.02219	-0.933981
C	4.77872	-1.07146	0.399235
C	4.30795	-0.753079	-0.857013
N	4.09068	0.579428	-0.974189
C	4.42539	1.08578	0.204882
N	4.84661	0.130677	1.06741
H	5.06081	-2.03623	0.84999
H	4.12118	-1.46097	-1.68094
H	4.38122	2.14917	0.490302
H	5.16438	0.277873	2.05666
