18
  This energy is -1.0959 and Call times are: 71928
C	-0.0783035	0.269603	1.0989
C	0.533328	-0.871002	0.668434
C	0.430332	-0.856166	-0.756097
C	-0.235147	0.292195	-1.07039
O	-0.553449	0.991947	0.0503462
H	-0.238988	0.675703	2.11108
H	1.00928	-1.64515	1.29154
H	0.810547	-1.61653	-1.45708
H	-0.539141	0.718938	-2.0403
C	5.94605	0.537499	0.0442931
C	5.03012	0.592985	-0.984845
N	3.93097	-0.147228	-0.701161
C	4.16414	-0.659971	0.499401
N	5.36608	-0.276684	0.991356
H	6.9365	1.00421	0.165689
H	5.14268	1.15386	-1.92697
H	3.48853	-1.32237	1.06421
H	5.77774	-0.548035	1.91773
