18
  This energy is -0.7224 and Call times are: 66251
C	0.985337	-0.561672	-0.0060361
C	0.920619	0.800177	-0.0454332
C	-0.469784	1.12635	-0.0229084
C	-1.13198	-0.0649716	0.0282655
O	-0.258924	-1.10644	0.0392502
H	1.84395	-1.25308	-0.00522955
H	1.76708	1.50441	-0.0862616
H	-0.915695	2.13375	-0.0428001
H	-2.20798	-0.30254	0.0604132
C	5.53075	-0.818091	0.517615
C	5.14657	0.454123	0.150159
N	6.17329	1.12838	-0.422329
C	7.19054	0.277695	-0.410075
N	6.85363	-0.909878	0.146479
H	4.97492	-1.63729	1.00083
H	4.14696	0.897579	0.287867
H	8.20411	0.47299	-0.79578
H	7.48069	-1.74201	0.271455
