18
  This energy is -0.9122 and Call times are: 36653
C	-1.09004	0.137877	0.281413
C	-0.107608	-0.0107664	1.21581
C	1.10992	-0.156188	0.483286
C	0.764021	-0.083572	-0.834079
O	-0.575649	0.0958857	-0.975824
H	-2.17874	0.2793	0.381377
H	-0.228196	-0.0173487	2.31103
H	2.12102	-0.297939	0.897633
H	1.3694	-0.144489	-1.75335
C	5.07839	0.622385	0.568057
C	4.92575	-0.0584199	-0.621207
N	6.07984	-0.667101	-0.987399
C	6.94516	-0.365053	-0.0289554
N	6.38948	0.410579	0.931883
H	4.37042	1.22258	1.16142
H	4.00355	-0.121324	-1.22158
H	7.99833	-0.685638	0.0187188
H	6.86652	0.780178	1.79042
