18
  This energy is -0.9077 and Call times are: 100574
C	0.69825	-0.794887	-0.408658
C	1.15501	0.318741	0.23288
C	-0.0072111	1.06677	0.593156
C	-1.0716	0.34422	0.139973
O	-0.659206	-0.795728	-0.474408
H	1.23008	-1.64934	-0.85846
H	2.20504	0.586579	0.43239
H	-0.0374657	2.0299	1.12754
H	-2.15689	0.530577	0.191459
C	5.00511	-0.519522	0.695231
C	6.13859	-1.09454	0.160698
N	6.82796	-0.205231	-0.594567
C	6.12481	0.917217	-0.528831
N	5.01664	0.778953	0.236953
H	4.21739	-0.928795	1.34755
H	6.47133	-2.13516	0.306471
H	6.37607	1.86988	-1.02233
H	4.30232	1.51975	0.442432
