18
  This energy is -1.8323 and Call times are: 58362
C	0.555662	-0.732479	-0.664166
C	0.394307	-0.937748	0.674566
C	-0.345833	0.18504	1.15588
C	-0.571429	0.977312	0.0687765
O	-0.0278399	0.432295	-1.05126
H	1.05889	-1.33212	-1.44033
H	0.759818	-1.79393	1.26401
H	-0.668275	0.372479	2.19269
H	-1.09803	1.93991	-0.0376973
C	4.37132	-0.353423	1.0893
C	4.45588	-1.09875	-0.0676268
N	4.06339	-0.37568	-1.14448
C	3.73656	0.813699	-0.657464
N	3.90485	0.877364	0.684631
H	4.60236	-0.60343	2.13699
H	4.79308	-2.14528	-0.144621
H	3.36831	1.67399	-1.23929
H	3.71596	1.70636	1.29973
