18
  This energy is -1.9376 and Call times are: 101216
C	-0.309516	1.09115	0.000850669
C	0.0129785	0.422492	1.14509
C	0.34337	-0.907073	0.741084
C	0.193607	-0.933526	-0.614366
O	-0.204658	0.278304	-1.08326
H	-0.625286	2.13296	-0.172841
H	0.0177289	0.825139	2.17073
H	0.655216	-1.74025	1.39121
H	0.337544	-1.74167	-1.35019
C	3.51622	-0.367312	-0.797413
C	4.74266	-0.933429	-0.520811
N	5.38611	-0.251465	0.457662
C	4.56198	0.733976	0.786825
N	3.42084	0.707286	0.0583492
H	2.73077	-0.643873	-1.51861
H	5.17477	-1.82173	-1.00974
H	4.74454	1.50314	1.55448
H	2.61665	1.3775	0.131502
