18
  This energy is -1.4066 and Call times are: 2767
C	-0.667147	-0.735412	-0.548165
C	-0.376529	-0.861425	0.778499
C	0.478003	0.237671	1.09769
C	0.634141	0.938301	-0.0621034
O	-0.0582783	0.358235	-1.07753
H	-1.28611	-1.34967	-1.22257
H	-0.728592	-1.64932	1.46361
H	0.920221	0.471382	2.07948
H	1.20417	1.85333	-0.292394
C	4.73871	-0.612787	0.903946
C	3.74547	-1.01473	0.0361555
N	3.48759	-0.0579013	-0.888235
C	4.3177	0.933854	-0.595026
N	5.09305	0.647714	0.477606
H	5.20297	-1.1177	1.76596
H	3.2103	-1.97798	0.0604881
H	4.39932	1.89198	-1.13314
H	5.82473	1.26791	0.903353
