18
  This energy is -0.904 and Call times are: 87194
C	0.017463	-1.13242	0.0609761
C	0.729668	-0.343825	0.91611
C	0.453919	1.00272	0.527642
C	-0.402449	0.918103	-0.530586
O	-0.679758	-0.378414	-0.829175
H	-0.0760621	-2.22807	-0.0168555
H	1.3836	-0.676928	1.738
H	0.851548	1.92121	0.988455
H	-0.879651	1.69603	-1.14893
C	4.47593	0.13565	0.716096
C	4.73402	-0.939936	-0.1071
N	5.88873	-0.763432	-0.794129
C	6.34525	0.417163	-0.398652
N	5.52889	0.99915	0.511528
H	3.6452	0.340855	1.40986
H	4.10773	-1.84016	-0.217608
H	7.27225	0.902865	-0.743607
H	5.67097	1.93069	0.973383
