18
  This energy is -2.0119 and Call times are: 116117
C	-0.142009	0.811356	0.779702
C	0.330869	1.07593	-0.472
C	0.368083	-0.18086	-1.14965
C	-0.0853398	-1.1025	-0.252227
O	-0.401422	-0.514058	0.931345
H	-0.336416	1.4699	1.64212
H	0.624068	2.05764	-0.877445
H	0.695872	-0.367334	-2.18496
H	-0.227968	-2.19265	-0.332687
C	3.56309	1.10752	-0.31996
C	3.82238	0.652091	0.955383
N	4.05402	-0.683137	0.959748
C	3.93888	-1.05464	-0.308066
N	3.64357	-0.0111321	-1.11892
H	3.33462	2.11489	-0.702756
H	3.84647	1.26302	1.87246
H	4.06082	-2.07813	-0.697721
H	3.50276	-0.0473344	-2.15821
