18
  This energy is -1.3735 and Call times are: 17053
C	-0.695533	-0.412755	0.795153
C	0.212899	-1.1934	0.142682
C	0.890665	-0.326627	-0.768062
C	0.336575	0.907175	-0.591736
O	-0.633798	0.872981	0.359168
H	-1.43312	-0.64929	1.57954
H	0.388142	-2.27147	0.288137
H	1.69589	-0.599034	-1.46914
H	0.542027	1.87667	-1.07456
C	4.5416	-0.775578	-0.870909
C	5.10279	-1.02154	0.364293
N	5.12835	0.101862	1.12181
C	4.58509	1.04117	0.359455
N	4.21493	0.561995	-0.851727
H	4.35773	-1.43571	-1.73344
H	5.48969	-1.98946	0.722461
H	4.43424	2.09638	0.638752
H	3.76483	1.1058	-1.62823
