18
  This energy is -0.6117 and Call times are: 103611
C	-0.13735	1.11852	-0.128287
C	-0.99591	0.209857	-0.673803
C	-0.496699	-1.07448	-0.297786
C	0.622852	-0.83728	0.444316
O	0.857234	0.496568	0.558003
H	-0.124783	2.22049	-0.155632
H	-1.89097	0.42266	-1.28016
H	-0.927749	-2.05545	-0.55464
H	1.33002	-1.52233	0.940163
C	6.0002	-0.944693	0.492392
C	4.65115	-0.718323	0.319286
N	4.42935	0.474655	-0.284139
C	5.63621	0.986429	-0.484618
N	6.61671	0.168529	-0.0337655
H	6.5469	-1.79096	0.937907
H	3.83388	-1.39442	0.618983
H	5.85906	1.95658	-0.957252
H	7.64972	0.348183	-0.0768186
