18
  This energy is -0.7343 and Call times are: 99780
C	0.226527	-1.09001	-0.2167
C	1.0645	-0.301422	0.515619
C	0.444641	0.984299	0.56863
C	-0.717407	0.867893	-0.135975
O	-0.866732	-0.392189	-0.622705
H	0.293911	-2.14913	-0.514992
H	2.02299	-0.595604	0.972635
H	0.826965	1.88518	1.07492
H	-1.5125	1.59773	-0.360509
C	6.73861	0.471321	0.290231
C	5.49093	1.00746	0.528948
N	4.51239	0.19584	0.0596509
C	5.15059	-0.839875	-0.468198
N	6.49463	-0.720886	-0.354208
H	7.74915	0.84146	0.525491
H	5.27928	1.96538	1.0314
H	4.68247	-1.71282	-0.950959
H	7.21381	-1.40624	-0.692324
