18
  This energy is -1.0495 and Call times are: 67857
C	1.0088	-0.505283	-0.115795
C	0.0456047	-0.981311	0.724456
C	-1.06218	-0.0890608	0.594755
C	-0.67814	0.853443	-0.313306
O	0.583838	0.614736	-0.757649
H	2.02458	-0.867955	-0.343624
H	0.108854	-1.87147	1.37076
H	-2.02861	-0.149878	1.12051
H	-1.20373	1.73225	-0.721602
C	5.70869	-0.935174	-0.0911411
C	4.97706	-0.555962	1.01433
N	4.26945	0.573271	0.768096
C	4.56098	0.893386	-0.485362
N	5.42476	0.0146426	-1.04687
H	6.38861	-1.78536	-0.259727
H	4.9471	-1.07693	1.98517
H	4.16983	1.76081	-1.04107
H	5.80561	0.0501159	-2.02409
