18
  This energy is -1.2444 and Call times are: 764
C	-1.10599	0.105269	0.228283
C	-0.54524	0.60027	-0.912292
C	0.843593	0.275047	-0.838206
C	1.00894	-0.389984	0.341102
O	-0.17135	-0.502712	1.00534
H	-2.14413	0.120488	0.598787
H	-1.05816	1.14026	-1.72434
H	1.62158	0.512741	-1.58139
H	1.90322	-0.827282	0.814691
C	5.52096	-1.08333	-0.185124
C	4.62329	-0.398021	-0.976118
N	4.35737	0.828081	-0.463798
C	5.08731	0.903125	0.640824
N	5.80663	-0.224405	0.852577
H	5.962	-2.08795	-0.283939
H	4.16273	-0.766307	-1.9073
H	5.13244	1.76056	1.33148
H	6.45788	-0.409108	1.65447
