18
  This energy is -1.6941 and Call times are: 49135
C	0.0414436	-1.13293	-0.0339816
C	0.548556	-0.353215	-1.03161
C	0.310608	0.997181	-0.631697
C	-0.320905	0.923466	0.575006
O	-0.493435	-0.369842	0.955268
H	-0.000160997	-2.22766	0.0888237
H	1.0408	-0.69474	-1.95635
H	0.581686	1.91084	-1.18472
H	-0.69359	1.70768	1.25425
C	3.48869	0.732579	0.436122
C	3.73426	-0.563581	0.837133
N	4.74173	-1.11504	0.11783
C	5.11974	-0.164599	-0.726208
N	4.39455	0.96873	-0.573756
H	2.75781	1.47874	0.786247
H	3.20253	-1.11072	1.63259
H	5.92226	-0.245451	-1.47698
H	4.50188	1.85791	-1.12065
