18
  This energy is -0.8722 and Call times are: 38450
C	-0.879696	0.714986	0.0364814
C	0.411747	1.1396	0.147173
C	1.21882	-0.0353105	0.0558868
C	0.34932	-1.07418	-0.102531
O	-0.936465	-0.634216	-0.116622
H	-1.83431	1.26613	0.0510315
H	0.761003	2.17619	0.279804
H	2.31824	-0.0907906	0.103668
H	0.51767	-2.15781	-0.214997
C	4.86337	0.381876	-0.913219
C	5.45752	1.15448	0.0620852
N	6.11422	0.384109	0.963077
C	5.92818	-0.861673	0.548301
N	5.18033	-0.915888	-0.579251
H	4.25764	0.654636	-1.79199
H	5.42411	2.25397	0.131787
H	6.31736	-1.77161	1.03285
H	4.89611	-1.78159	-1.09987
