18
  This energy is -0.8589 and Call times are: 132165
C	-0.350627	-0.922636	-0.558753
C	0.710773	-0.174931	-0.976774
C	0.840024	0.885127	-0.0282553
C	-0.153802	0.69163	0.88566
O	-0.890653	-0.407879	0.577209
H	-0.814445	-1.83135	-0.976326
H	1.33961	-0.352102	-1.86406
H	1.589	1.69327	-0.0338965
H	-0.437781	1.25788	1.78786
C	6.62035	-0.553401	0.194218
C	6.15285	0.57126	0.840534
N	4.93869	0.939315	0.364245
C	4.65404	0.0463807	-0.57398
N	5.63676	-0.874562	-0.714396
H	7.55229	-1.12874	0.312613
H	6.66989	1.12372	1.64198
H	3.73981	0.0202614	-1.18859
H	5.64738	-1.67982	-1.38723
