18
  This energy is -1.1653 and Call times are: 88809
C	-0.028996	0.263582	-1.10276
C	1.13653	-7.61754e-05	-0.445184
C	0.76784	-0.285298	0.90494
C	-0.59044	-0.170758	0.953217
O	-1.09372	0.163896	-0.264046
H	-0.231643	0.530815	-2.15289
H	2.15385	0.00570966	-0.868414
H	1.44246	-0.544624	1.73664
H	-1.30608	-0.300383	1.78165
C	5.13876	0.152545	1.16633
C	4.69769	-0.966546	0.492357
N	4.79272	-0.79822	-0.848966
C	5.29085	0.42066	-1.00652
N	5.5167	1.03485	0.178961
H	5.20812	0.37605	2.24279
H	4.31259	-1.8924	0.949898
H	5.50977	0.912654	-1.96789
H	5.90562	1.99938	0.31922
