18
  This energy is -1.0287 and Call times are: 48623
C	-0.403264	0.195347	-1.04193
C	-0.793656	-0.878495	-0.29706
C	-0.0778668	-0.780662	0.935089
C	0.686745	0.344328	0.834398
O	0.500532	0.952887	-0.366432
H	-0.691114	0.527308	-2.05297
H	-1.51347	-1.66101	-0.586268
H	-0.13236	-1.47224	1.79116
H	1.39484	0.812415	1.53778
C	5.91655	0.226869	-0.547943
C	5.36975	0.928596	0.505494
N	4.18713	0.38999	0.889969
C	4.00097	-0.641949	0.0781373
N	5.01613	-0.78226	-0.806942
H	6.85152	0.369439	-1.11278
H	5.80738	1.81387	0.995009
H	3.13871	-1.32798	0.0883065
H	5.10109	-1.51934	-1.54907
