18
  This energy is -1.1863 and Call times are: 34830
C	0.579996	-0.355025	0.907724
C	0.262446	-1.1853	-0.12677
C	-0.457612	-0.383854	-1.06449
C	-0.516514	0.865425	-0.520242
O	0.112087	0.901197	0.684163
H	1.128	-0.534268	1.84731
H	0.510393	-2.25483	-0.220157
H	-0.878954	-0.708446	-2.02948
H	-0.970404	1.80132	-0.8854
C	4.01642	-0.770404	-0.104162
C	4.16874	0.412542	-0.795957
N	5.30435	1.05254	-0.425424
C	5.85444	0.269603	0.492749
N	5.11591	-0.842017	0.721778
H	3.22966	-1.54064	-0.139966
H	3.47958	0.815703	-1.5558
H	6.79743	0.462567	1.02919
H	5.33846	-1.61178	1.39942
