18
  This energy is -0.9804 and Call times are: 136793
C	0.611715	0.779608	-0.55174
C	1.03258	-0.50948	-0.405099
C	0.00709864	-1.17383	0.334596
C	-0.949891	-0.232075	0.574673
O	-0.597106	0.966759	0.0404909
H	1.07447	1.64765	-1.04935
H	1.97102	-0.948496	-0.780188
H	-0.00763605	-2.23036	0.647048
H	-1.91398	-0.288418	1.10628
C	5.40315	0.688278	0.949729
C	4.5794	0.683121	-0.155961
N	4.98411	-0.239325	-1.0625
C	6.05487	-0.804279	-0.521259
N	6.34821	-0.279533	0.692074
H	5.38435	1.29203	1.87096
H	3.7003	1.32847	-0.315832
H	6.66181	-1.60684	-0.97042
H	7.14396	-0.557061	1.31739
