18
  This energy is -0.9854 and Call times are: 72648
C	0.560381	-0.164582	-0.972259
C	-0.597761	-0.821544	-0.676487
C	-0.99379	-0.354242	0.613826
C	-0.0426957	0.54703	0.992641
O	0.914059	0.675277	0.0359877
H	1.21962	-0.206202	-1.85482
H	-1.12072	-1.56104	-1.30399
H	-1.88485	-0.659381	1.18566
H	0.0655112	1.15562	1.90542
C	5.96416	-0.580296	0.344582
C	5.31715	-0.696763	-0.867421
N	4.23829	0.121247	-0.925966
C	4.21609	0.742822	0.245262
N	5.23611	0.354208	1.0466
H	6.86125	-1.07963	0.743878
H	5.60946	-1.35638	-1.70068
H	3.4752	1.49186	0.568144
H	5.43453	0.699079	2.01765
