18
  This energy is -1.5418 and Call times are: 81139
C	-0.508822	0.94125	-0.376229
C	-0.65567	0.493309	0.903676
C	0.125782	-0.698966	0.992731
C	0.681179	-0.874356	-0.240616
O	0.304326	0.118113	-1.08914
H	-0.924722	1.8203	-0.895409
H	-1.25424	0.956057	1.70472
H	0.253567	-1.34443	1.87655
H	1.35259	-1.65424	-0.635887
C	3.97842	1.10455	0.340548
C	4.59581	0.118518	1.08063
N	4.68746	-1.0358	0.376598
C	4.12906	-0.766896	-0.795795
N	3.68591	0.510662	-0.866898
H	3.73466	2.15189	0.579691
H	4.97675	0.219326	2.10999
H	4.01849	-1.46897	-1.63787
H	3.21015	0.962662	-1.6858
