18
  This energy is -0.8485 and Call times are: 136564
C	1.09142	0.261899	0.163119
C	0.491273	0.36011	-1.05776
C	-0.862802	-0.0500811	-0.861948
C	-0.970574	-0.362742	0.461306
O	0.213376	-0.178055	1.10253
H	2.12303	0.472521	0.489734
H	0.955532	0.688467	-2.00155
H	-1.65714	-0.102993	-1.62373
H	-1.82303	-0.72286	1.06038
C	5.87024	-0.962247	0.366056
C	5.43244	-0.696619	-0.914145
N	4.81275	0.506838	-0.978785
C	4.8659	0.985981	0.256618
N	5.49373	0.137273	1.10463
H	6.40524	-1.82705	0.789649
H	5.55261	-1.35177	-1.79232
H	4.46075	1.95315	0.595228
H	5.66169	0.288097	2.12947
