18
  This energy is -1.053 and Call times are: 55957
C	0.627618	0.666842	-0.669192
C	0.768215	0.653583	0.687432
C	-0.181415	-0.298144	1.16965
C	-0.818487	-0.782456	0.0651368
O	-0.337011	-0.204136	-1.06656
H	1.1468	1.24326	-1.45242
H	1.47022	1.25379	1.28829
H	-0.36208	-0.582559	2.21873
H	-1.62062	-1.53027	-0.0471271
C	5.67626	-1.08428	0.260505
C	6.37267	-0.107884	-0.419796
N	5.63525	1.02243	-0.542741
C	4.48573	0.748293	0.059
N	4.46119	-0.509591	0.559716
H	5.9502	-2.11308	0.543441
H	7.394	-0.198755	-0.824118
H	3.62803	1.43242	0.161704
H	3.66772	-0.96106	1.07726
