18
  This energy is -0.7783 and Call times are: 111671
C	-0.16564	0.546561	-0.979916
C	-1.19654	0.0536833	-0.235143
C	-0.596092	-0.556705	0.908099
C	0.748731	-0.382943	0.761023
O	1.02954	0.288895	-0.386491
H	-0.151169	1.09249	-1.93752
H	-2.27194	0.113903	-0.467517
H	-1.11337	-1.06384	1.73836
H	1.59867	-0.686311	1.39413
C	5.80891	0.990801	-0.180655
C	4.52671	0.717947	-0.608039
N	4.13665	-0.521442	-0.222963
C	5.17293	-1.01559	0.440788
N	6.20617	-0.14199	0.493998
H	6.44554	1.88122	-0.304725
H	3.87607	1.39317	-1.18735
H	5.22847	-2.01186	0.908335
H	7.13325	-0.29789	0.960335
