18
  This energy is -1.068 and Call times are: 79980
C	-0.713546	0.300289	0.828903
C	-0.598831	1.01133	-0.329385
C	0.384166	0.330361	-1.11048
C	0.78337	-0.736703	-0.360557
O	0.123286	-0.770562	0.826942
H	-1.34566	0.450559	1.71946
H	-1.15103	1.92383	-0.605999
H	0.745651	0.609898	-2.11312
H	1.519	-1.53394	-0.556813
C	4.19494	-0.140747	0.595929
C	5.16272	-1.09611	0.368288
N	6.18954	-0.588568	-0.355973
C	5.86002	0.676846	-0.576804
N	4.6661	0.995487	-0.0230738
H	3.23626	-0.187475	1.13658
H	5.13846	-2.14252	0.713665
H	6.45658	1.41404	-1.13795
H	4.19005	1.93003	-0.0585349
