18
  This energy is -0.5567 and Call times are: 45048
C	-0.612419	0.0774663	-0.951495
C	0.751336	0.100267	-0.956728
C	1.14962	-0.0188619	0.409762
C	-0.00590674	-0.103945	1.12941
O	-1.09176	-0.0467529	0.314134
H	-1.34783	0.140718	-1.77029
H	1.41069	0.191795	-1.83478
H	2.17918	-0.0380633	0.801855
H	-0.187142	-0.20645	2.21195
C	6.46495	-1.02556	0.55328
C	5.43857	-0.128703	0.761484
N	5.55933	0.949285	-0.0508403
C	6.65645	0.72205	-0.76029
N	7.23876	-0.455834	-0.433039
H	6.69189	-1.9965	1.02157
H	4.61308	-0.240145	1.48328
H	7.07837	1.3851	-1.53267
H	8.11311	-0.858383	-0.851026
