18
  This energy is -1.1999 and Call times are: 128319
C	0.143002	-0.961958	-0.583599
C	-1.08905	-0.42494	-0.351128
C	-0.860449	0.765678	0.404046
C	0.491112	0.851126	0.566387
O	1.11963	-0.195692	-0.0303916
H	0.453991	-1.87242	-1.12173
H	-2.06131	-0.826912	-0.678585
H	-1.62023	1.47038	0.778518
H	1.12017	1.59729	1.079
C	4.32272	0.362689	-0.546326
C	4.45213	0.0337573	0.786416
N	5.72119	-0.343554	1.07559
C	6.37659	-0.249055	-0.0733897
N	5.57713	0.172743	-1.08163
H	3.45566	0.707009	-1.13216
H	3.65253	0.0619263	1.54451
H	7.44298	-0.476498	-0.232471
H	5.85915	0.325897	-2.08077
