18
  This energy is -0.8476 and Call times are: 72996
C	-0.29546	1.06921	-0.236417
C	0.36026	0.729125	0.910207
C	0.553194	-0.684638	0.845657
C	-0.00165964	-1.08368	-0.334714
O	-0.524614	-0.0255498	-1.00843
H	-0.649919	2.04204	-0.614849
H	0.676376	1.40593	1.72021
H	1.04864	-1.32192	1.59566
H	-0.0876705	-2.07796	-0.802962
C	4.40487	-0.41826	0.10416
C	5.39744	-0.895296	-0.725538
N	6.53692	-0.174626	-0.588741
C	6.25235	0.745993	0.322359
N	4.97903	0.640957	0.770934
H	3.36526	-0.746629	0.262033
H	5.31178	-1.74657	-1.42041
H	6.93949	1.52141	0.697587
H	4.51717	1.2503	1.48971
