18
  This energy is -1.4081 and Call times are: 77943
C	-0.164987	1.06288	-0.359823
C	-0.16895	-0.00460065	-1.20885
C	0.0690721	-1.15323	-0.393922
C	0.197475	-0.686268	0.881158
O	0.0573619	0.664966	0.920505
H	-0.306499	2.14113	-0.54034
H	-0.323938	0.0148818	-2.29958
H	0.135324	-2.20139	-0.727182
H	0.387148	-1.20622	1.83454
C	5.17217	0.338431	0.714053
C	3.85604	0.746361	0.764413
N	3.12381	0.155922	-0.211153
C	3.98242	-0.615367	-0.864244
N	5.2306	-0.54015	-0.344658
H	6.0423	0.602367	1.33594
H	3.42169	1.45613	1.48719
H	3.75013	-1.25594	-1.73024
H	6.08086	-1.05334	-0.68371
