18
  This energy is -1.1856 and Call times are: 84738
C	-1.10325	-0.13934	0.22323
C	-0.348661	0.816271	0.83787
C	0.96801	0.679729	0.301351
C	0.90179	-0.347265	-0.593785
O	-0.355705	-0.859182	-0.654277
H	-2.16858	-0.405034	0.32182
H	-0.685447	1.54429	1.59329
H	1.85506	1.28084	0.55808
H	1.66847	-0.802944	-1.24171
C	5.39164	-1.06208	-0.414749
C	5.68144	-0.552981	0.833442
N	5.19321	0.703344	0.974135
C	4.60278	0.972608	-0.182374
N	4.6951	-0.0603146	-1.05309
H	5.62404	-2.03394	-0.878457
H	6.23405	-1.06967	1.635
H	4.08777	1.91075	-0.444807
H	4.30953	-0.0920079	-2.02858
