18
  This energy is -0.8395 and Call times are: 132925
C	1.08888	0.154618	0.277196
C	0.309594	-0.79058	0.87694
C	-0.977775	-0.679616	0.268266
C	-0.871539	0.323594	-0.649698
O	0.383749	0.844362	-0.657714
H	2.1456	0.431885	0.424542
H	0.611071	-1.49525	1.66855
H	-1.8729	-1.28115	0.494118
H	-1.60606	0.755257	-1.34926
C	6.25541	0.259516	0.765516
C	5.41712	-0.834626	0.800991
N	4.54806	-0.818252	-0.238712
C	4.84608	0.281865	-0.916613
N	5.86874	0.966139	-0.351334
H	7.07251	0.57479	1.43371
H	5.4238	-1.63556	1.55816
H	4.3471	0.633698	-1.83393
H	6.28732	1.86391	-0.697829
