18
  This energy is -1.349 and Call times are: 14562
C	0.117549	-0.966415	0.581914
C	-0.36695	-0.935616	-0.692717
C	-0.364993	0.439589	-1.07862
C	0.12053	1.12776	-0.0057485
O	0.42037	0.284879	1.01732
H	0.292659	-1.80355	1.27746
H	-0.69301	-1.79509	-1.30025
H	-0.689233	0.858361	-2.04485
H	0.298364	2.20408	0.152848
C	4.43612	1.17554	-0.0435737
C	3.71574	0.402036	0.841802
N	3.90745	-0.918466	0.605088
C	4.74358	-0.963994	-0.423227
N	5.09182	0.272801	-0.85061
H	4.52557	2.26806	-0.152805
H	3.06109	0.773116	1.64715
H	5.13295	-1.87651	-0.902733
H	5.73817	0.500632	-1.64533
