18
  This energy is -0.8591 and Call times are: 122808
C	0.312629	0.284359	-1.05252
C	1.18618	-0.246136	-0.149273
C	0.430304	-0.467228	1.04232
C	-0.838424	-0.0523221	0.762042
O	-0.928379	0.409698	-0.512893
H	0.448758	0.610165	-2.09683
H	2.25556	-0.460279	-0.306347
H	0.7971	-0.886873	1.99282
H	-1.75402	-0.034143	1.37572
C	5.84321	0.964127	-0.581172
C	4.91536	0.89781	0.43659
N	4.76391	-0.374631	0.877578
C	5.59465	-1.09496	0.136212
N	6.26839	-0.33359	-0.758203
H	6.2185	1.81459	-1.17228
H	4.35248	1.7453	0.860601
H	5.74888	-2.18376	0.206652
H	6.97921	-0.66811	-1.45396
