18
  This energy is -1.1888 and Call times are: 122406
C	-0.520703	-0.139698	-0.997875
C	-0.657881	-1.02776	0.0282387
C	0.137207	-0.514795	1.0982
C	0.690063	0.641445	0.631476
O	0.299033	0.885917	-0.646937
H	-0.948311	-0.124656	-2.01384
H	-1.25869	-1.9514	0.0313716
H	0.275424	-0.96164	2.09586
H	1.36874	1.37022	1.10426
C	4.60466	0.862126	0.79545
C	3.99839	0.806927	-0.441699
N	4.32856	-0.332262	-1.09725
C	5.13659	-0.981316	-0.269933
N	5.33422	-0.302322	0.884839
H	4.56973	1.62228	1.59199
H	3.32866	1.56868	-0.873021
H	5.61145	-1.95738	-0.459736
H	5.92974	-0.605216	1.69408
