18
  This energy is -1.0812 and Call times are: 13753
C	0.346163	-0.482234	-0.966448
C	0.306942	-1.16154	0.215662
C	-0.175724	-0.230788	1.18564
C	-0.388844	0.935116	0.510645
O	-0.0753614	0.799639	-0.804796
H	0.650317	-0.794066	-1.97912
H	0.58955	-2.2126	0.387365
H	-0.341749	-0.416734	2.25893
H	-0.756272	1.91833	0.847605
C	4.87083	-0.052909	-1.17357
C	3.93802	-0.67611	-0.371941
N	4.15395	-0.397267	0.936544
C	5.21668	0.395904	0.94662
N	5.68588	0.633289	-0.301213
H	5.00777	-0.0492885	-2.26663
H	3.11306	-1.32195	-0.714269
H	5.6927	0.831253	1.83999
H	6.51297	1.22696	-0.555667
