18
  This energy is -0.4115 and Call times are: 64142
C	-0.0997811	0.159963	1.11842
C	0.44178	-0.974035	0.588196
C	0.394253	-0.804278	-0.829211
C	-0.172156	0.41847	-1.04002
O	-0.48015	1.02132	0.138419
H	-0.268284	0.470616	2.16262
H	0.835256	-1.8429	1.13987
H	0.743551	-1.51536	-1.59501
H	-0.406789	0.965323	-1.968
C	5.32681	1.10388	-0.165115
C	5.77632	0.229081	-1.13145
N	6.12753	-0.961432	-0.587531
C	5.89677	-0.825707	0.711297
N	5.4133	0.401814	1.01633
H	4.96361	2.14172	-0.232322
H	5.85353	0.435609	-2.21137
H	6.06425	-1.59366	1.48359
H	5.15378	0.752002	1.97094
