18
  This energy is -0.5681 and Call times are: 81395
C	-0.395092	0.976779	-0.419769
C	-0.990345	0.338252	0.628244
C	-0.214163	-0.837891	0.861372
C	0.786883	-0.814261	-0.0647599
O	0.691773	0.286953	-0.855516
H	-0.644675	1.91549	-0.941103
H	-1.88615	0.662907	1.18163
H	-0.388512	-1.60645	1.63144
H	1.61728	-1.51204	-0.261721
C	5.96176	-0.282617	-1.14182
C	4.98256	-0.513531	-0.198955
N	5.36041	-0.0570589	1.0198
C	6.56942	0.45509	0.833727
N	6.97649	0.343404	-0.452903
H	6.00679	-0.51183	-2.21838
H	4.01021	-1.00132	-0.376249
H	7.20092	0.924263	1.6053
H	7.89087	0.671236	-0.850002
