18
  This energy is -0.8923 and Call times are: 10254
C	-0.28436	0.801424	-0.750506
C	-1.1981	-0.0638565	-0.224438
C	-0.468619	-0.908684	0.666767
C	0.826495	-0.485085	0.606629
O	0.957228	0.558549	-0.254038
H	-0.390013	1.62365	-1.47716
H	-2.27752	-0.103255	-0.442129
H	-0.869998	-1.73334	1.27744
H	1.73584	-0.838352	1.11999
C	4.73958	-0.429959	0.941358
C	5.84097	0.399552	0.94138
N	6.22621	0.700274	-0.322608
C	5.36708	0.0597579	-1.1038
N	4.45117	-0.636037	-0.38926
H	4.15995	-0.873409	1.76654
H	6.36454	0.786438	1.83079
H	5.36313	0.0659987	-2.2057
H	3.67015	-1.22103	-0.775328
