18
  This energy is -1.1113 and Call times are: 19009
C	-0.994029	0.0232489	-0.545679
C	-0.711829	0.859694	0.494078
C	0.614485	0.531913	0.910695
C	1.02569	-0.475898	0.0887476
O	0.0559068	-0.799227	-0.806789
H	-1.89328	-0.0842309	-1.17421
H	-1.37147	1.63022	0.924496
H	1.18764	0.997767	1.72835
H	1.97188	-1.03945	0.0398957
C	5.18287	0.978053	-0.401348
C	6.48808	0.586279	-0.611299
N	6.74723	-0.59634	-0.00239436
C	5.60713	-0.936934	0.583078
N	4.63331	-0.0200483	0.371931
H	4.62484	1.86684	-0.73632
H	7.24743	1.13575	-1.19123
H	5.43037	-1.84702	1.17867
H	3.64746	-0.0615775	0.729214
