18
  This energy is -0.8625 and Call times are: 127917
C	-0.534106	0.771116	0.637582
C	0.687463	1.00559	0.0779692
C	1.02348	-0.182895	-0.639471
C	-0.0224137	-1.03871	-0.454942
O	-0.982629	-0.472488	0.322481
H	-1.18038	1.39959	1.27208
H	1.29135	1.92339	0.161964
H	1.93969	-0.369776	-1.22233
H	-0.201155	-2.06389	-0.818687
C	6.0756	-1.03787	0.285884
C	4.96042	-0.826162	-0.49687
N	4.69367	0.496811	-0.61973
C	5.63976	1.10354	0.0841282
N	6.49743	0.221444	0.649738
H	6.58198	-1.96463	0.599289
H	4.34353	-1.60431	-0.975172
H	5.75127	2.19153	0.218514
H	7.32589	0.452769	1.2509
