18
  This energy is -0.5466 and Call times are: 23335
C	-0.410583	-1.00425	0.330602
C	-1.17586	0.124441	0.302899
C	-0.317614	1.16744	-0.161503
C	0.896367	0.584041	-0.376593
O	0.857733	-0.741955	-0.0812067
H	-0.64759	-2.04135	0.619596
H	-2.23817	0.213599	0.581541
H	-0.582188	2.22607	-0.314519
H	1.85353	0.998184	-0.733768
C	6.62523	-0.156363	-0.556369
C	5.36279	-0.303505	-1.09092
N	4.40714	-0.0444898	-0.165628
C	5.07419	0.262172	0.938742
N	6.41464	0.209012	0.754486
H	7.62522	-0.281625	-1.00119
H	5.12438	-0.59192	-2.12766
H	4.63057	0.533366	1.91028
H	7.15285	0.408183	1.47326
