18
  This energy is -1.5327 and Call times are: 34734
C	-0.845484	-0.116334	-0.74701
C	0.139439	0.815094	-0.897812
C	1.00534	0.654071	0.226644
C	0.47312	-0.361542	0.965321
O	-0.65747	-0.84377	0.385465
H	-1.7239	-0.358526	-1.36748
H	0.245556	1.54257	-1.71855
H	1.91631	1.23188	0.45108
H	0.799521	-0.827783	1.90942
C	4.62626	-1.11482	0.334798
C	5.50503	-0.210622	0.892776
N	5.44529	0.98477	0.257183
C	4.53294	0.82278	-0.691492
N	4.00969	-0.426129	-0.685857
H	4.40346	-2.1646	0.583511
H	6.18109	-0.399377	1.74258
H	4.20975	1.58592	-1.41772
H	3.27441	-0.79881	-1.33527
