18
  This energy is -1.4377 and Call times are: 123192
C	0.190014	-0.244442	-1.09112
C	-0.819056	-0.822216	-0.378148
C	-0.736374	-0.268252	0.935779
C	0.315922	0.599139	0.909739
O	0.893314	0.626278	-0.320258
H	0.507506	-0.366922	-2.13967
H	-1.54845	-1.56409	-0.741077
H	-1.38891	-0.495216	1.79414
H	0.74846	1.24744	1.68939
C	4.61906	-0.937099	0.688621
C	5.75956	-0.164869	0.624929
N	5.62222	0.8359	-0.278459
C	4.40116	0.685093	-0.773323
N	3.75589	-0.370144	-0.222249
H	4.36895	-1.82051	1.29737
H	6.67906	-0.311891	1.21464
H	3.92958	1.31928	-1.54121
H	2.78334	-0.69459	-0.446194
