18
  This energy is -0.7145 and Call times are: 136532
C	0.923445	-0.0949621	0.651639
C	0.340581	-1.17109	0.049477
C	-0.778663	-0.656085	-0.673146
C	-0.780949	0.689288	-0.448778
O	0.251599	1.04938	0.358185
H	1.80773	-0.0127175	1.30474
H	0.666137	-2.22211	0.108264
H	-1.49344	-1.22842	-1.28603
H	-1.45399	1.48811	-0.801139
C	6.09339	0.510579	-0.878802
C	4.9066	0.939178	-0.32295
N	4.50557	0.110701	0.671692
C	5.44002	-0.828292	0.732657
N	6.41898	-0.631609	-0.181965
H	6.70876	0.923759	-1.69375
H	4.33251	1.83136	-0.621775
H	5.45656	-1.68275	1.42825
H	7.26487	-1.23436	-0.331728
