18
  This energy is -1.1761 and Call times are: 86037
C	0.811558	0.683043	-0.40153
C	-0.452642	0.671312	-0.913424
C	-1.17158	-0.304189	-0.157353
C	-0.283247	-0.802458	0.749822
O	0.932822	-0.210846	0.614968
H	1.70332	1.27319	-0.669365
H	-0.84004	1.28776	-1.74047
H	-2.22722	-0.594463	-0.28164
H	-0.391811	-1.56963	1.53399
C	6.12987	1.04988	0.503893
C	6.97634	0.763401	-0.546133
N	6.92253	-0.550767	-0.872598
C	6.04601	-1.07756	-0.0283136
N	5.53988	-0.153053	0.82181
H	5.91282	1.99317	1.02984
H	7.62493	1.48141	-1.074
H	5.73795	-2.13481	0.0110351
H	4.83276	-0.320679	1.57887
