18
  This energy is -0.876 and Call times are: 88938
C	0.0978356	0.957132	-0.600606
C	0.892565	0.684589	0.47387
C	0.472495	-0.592205	0.957043
C	-0.54185	-0.987182	0.135172
O	-0.783981	-0.0530587	-0.821802
H	0.0609618	1.82312	-1.28174
H	1.69419	1.31902	0.884968
H	0.883665	-1.14455	1.81725
H	-1.16321	-1.89772	0.126321
C	6.17078	-0.67968	-0.573602
C	4.79566	-0.77197	-0.614258
N	4.21923	0.171424	0.169486
C	5.23291	0.846402	0.694359
N	6.43041	0.371582	0.277064
H	6.95677	-1.26808	-1.07315
H	4.20911	-1.50236	-1.19506
H	5.15465	1.69729	1.39014
H	7.37639	0.735021	0.54961
