18
  This energy is -0.8253 and Call times are: 52194
C	0.323599	-0.885017	0.631213
C	0.899736	-0.595522	-0.570716
C	0.23282	0.571876	-1.05292
C	-0.691987	0.892708	-0.103092
O	-0.650449	0.0135804	0.932486
H	0.514514	-1.69148	1.35814
H	1.71279	-1.14857	-1.06788
H	0.425984	1.10392	-1.99829
H	-1.42902	1.71057	-0.0471021
C	4.79127	-0.746237	0.0492951
C	5.95629	-0.811365	0.783891
N	6.788	0.21234	0.472757
C	6.1414	0.909892	-0.451343
N	4.93277	0.372454	-0.741082
H	3.90121	-1.39516	0.0335689
H	6.21162	-1.57867	1.53282
H	6.50702	1.82241	-0.949209
H	4.23619	0.738258	-1.4355
