18
  This energy is -1.0387 and Call times are: 27694
C	-0.471292	-0.238045	1.0038
C	0.338726	0.843001	0.81517
C	0.729526	0.80387	-0.558097
C	0.123821	-0.297634	-1.08742
O	-0.613519	-0.94583	-0.147642
H	-1.00073	-0.607883	1.8972
H	0.63165	1.59277	1.56759
H	1.3857	1.51727	-1.08212
H	0.138144	-0.72192	-2.10478
C	5.92827	0.000905041	-0.836099
C	5.71943	-0.969641	0.120756
N	4.67693	-0.647236	0.924348
C	4.24069	0.518886	0.467757
N	4.96241	0.951812	-0.593039
H	6.67108	0.0795666	-1.64578
H	6.3023	-1.89674	0.245679
H	3.39631	1.09937	0.873092
H	4.81441	1.8422	-1.12835
