18
  This energy is -1.6521 and Call times are: 41858
C	0.496389	0.986315	-0.259196
C	0.778367	-0.170414	-0.924658
C	-0.0328196	-1.17782	-0.318666
C	-0.738893	-0.547773	0.663613
O	-0.428183	0.774318	0.714066
H	0.88098	2.01223	-0.381018
H	1.48656	-0.301148	-1.75861
H	-0.0786225	-2.24493	-0.589352
H	-1.48299	-0.923566	1.38497
C	5.27066	1.04431	-0.39638
C	5.98369	0.151691	0.37561
N	5.24824	-0.952889	0.650425
C	4.08339	-0.746308	0.0512006
N	4.0472	0.443925	-0.593489
H	5.53838	2.03136	-0.80578
H	7.01563	0.2849	0.739224
H	3.22228	-1.43385	0.0526022
H	3.24078	0.834896	-1.13946
