18
  This energy is -1.0813 and Call times are: 107238
C	-0.781922	0.258395	0.779892
C	-0.00311069	1.20661	0.184311
C	0.844184	0.502235	-0.724571
C	0.508345	-0.814233	-0.604161
O	-0.483045	-0.981423	0.310282
H	-1.57417	0.336426	1.54246
H	-0.0232602	2.29308	0.366713
H	1.61159	0.933994	-1.38697
H	0.895025	-1.71627	-1.10621
C	4.44232	-0.454272	-0.511442
C	4.50714	0.171649	0.715411
N	5.77142	0.572901	0.993051
C	6.48821	0.197335	-0.0575656
N	5.7324	-0.426245	-0.99217
H	3.59762	-0.902699	-1.0582
H	3.6643	0.340908	1.40522
H	7.57036	0.354025	-0.194032
H	6.06565	-0.814415	-1.90843
