18
  This energy is -0.8759 and Call times are: 126077
C	-0.591487	-0.332204	-0.908947
C	0.772127	-0.343717	-0.880663
C	1.14044	0.136788	0.413005
C	-0.0306153	0.399512	1.06106
O	-1.09842	0.118843	0.268585
H	-1.30884	-0.6166	-1.6962
H	1.45057	-0.658953	-1.68964
H	2.16123	0.268177	0.806486
H	-0.235501	0.78369	2.07382
C	7.50153	0.98328	-0.408321
C	7.45324	-0.243296	-1.03627
N	6.79593	-1.15458	-0.278627
C	6.4378	-0.495837	0.815189
N	6.84	0.7968	0.784909
H	7.94503	1.94362	-0.71587
H	7.88091	-0.48705	-2.02245
H	5.87969	-0.911835	1.6694
H	6.67864	1.5193	1.52869
