18
  This energy is -0.7453 and Call times are: 61902
C	1.11508	-0.105122	0.178742
C	0.454544	-0.83554	-0.764951
C	-0.912204	-0.427659	-0.689116
C	-0.966216	0.516003	0.294224
O	0.262843	0.72548	0.835099
H	2.17627	-0.084327	0.476559
H	0.886431	-1.58625	-1.44613
H	-1.7507	-0.799245	-1.29981
H	-1.80672	1.10432	0.69756
C	7.594	-1.05729	-0.152309
C	7.73	0.0450604	-0.969305
N	7.02134	1.09713	-0.492376
C	6.4479	0.649167	0.616277
N	6.76231	-0.64432	0.864519
H	8.01613	-2.07253	-0.220274
H	8.32675	0.100116	-1.89435
H	5.78817	1.22623	1.2841
H	6.43491	-1.22246	1.67681
