18
  This energy is -0.9869 and Call times are: 117359
C	-0.365428	-0.779878	0.738006
C	0.927275	-0.732611	0.305501
C	0.996333	0.369263	-0.600712
C	-0.260266	0.898064	-0.641983
O	-1.10477	0.208678	0.169545
H	-0.877254	-1.45885	1.43964
H	1.7497	-1.40611	0.59552
H	1.88294	0.719945	-1.15301
H	-0.676005	1.75224	-1.20126
C	6.66235	0.291796	0.413958
C	5.51769	0.0753051	1.15154
N	4.47293	-0.244309	0.349767
C	4.96757	-0.226166	-0.880528
N	6.28374	0.0917422	-0.894791
H	7.68543	0.564951	0.717652
H	5.42695	0.144001	2.24785
H	4.40993	-0.438002	-1.80703
H	6.89864	0.170771	-1.7415
