18
  This energy is -0.8765 and Call times are: 71105
C	0.96649	-0.439083	0.39938
C	0.244618	-1.04056	-0.589306
C	-0.88743	-0.199097	-0.814075
C	-0.757402	0.842308	0.057099
O	0.369179	0.71196	0.805989
H	1.90904	-0.725609	0.894108
H	0.485179	-1.98232	-1.10826
H	-1.6991	-0.358719	-1.54195
H	-1.38999	1.7266	0.239083
C	6.0283	-0.814036	0.438198
C	4.82403	-1.03621	-0.195455
N	4.24768	0.130894	-0.572547
C	5.09119	1.07352	-0.174345
N	6.18035	0.554564	0.440478
H	6.76334	-1.50978	0.873157
H	4.3607	-2.01773	-0.387294
H	4.96029	2.1595	-0.307587
H	6.98694	1.09231	0.842336
