18
  This energy is -1.1397 and Call times are: 33035
C	0.711165	0.849674	-0.242281
C	0.339322	0.550208	1.03538
C	-0.549748	-0.562991	0.933116
C	-0.642719	-0.845516	-0.398015
O	0.120852	0.00734165	-1.13055
H	1.38043	1.62721	-0.64574
H	0.659037	1.06189	1.95737
H	-1.05642	-1.08602	1.76005
H	-1.21051	-1.61689	-0.94377
C	6.01034	-0.0585438	0.385747
C	4.86702	-0.311686	1.11366
N	3.75737	-0.14867	0.352995
C	4.21058	0.204261	-0.842272
N	5.56259	0.272561	-0.873647
H	7.07539	-0.0895524	0.665487
H	4.8229	-0.609031	2.17408
H	3.59596	0.424469	-1.72996
H	6.15658	0.528902	-1.69992
