18
  This energy is -0.6598 and Call times are: 77879
C	0.126905	0.877018	0.70791
C	-1.09846	0.442923	0.295102
C	-0.84913	-0.662102	-0.57488
C	0.506591	-0.805725	-0.616906
O	1.11854	0.125878	0.160682
H	0.423009	1.69863	1.38061
H	-2.07951	0.859116	0.575138
H	-1.59843	-1.27302	-1.10349
H	1.14962	-1.52165	-1.1547
C	4.86148	0.11074	0.276762
C	5.63703	-1.02241	0.401757
N	6.90715	-0.793266	-0.0115356
C	6.91949	0.477211	-0.391481
N	5.70988	1.06593	-0.237067
H	3.80124	0.298728	0.509339
H	5.30289	-2.00121	0.782748
H	7.78745	1.02656	-0.790334
H	5.46498	2.06051	-0.465286
