18
  This energy is -1.2803 and Call times are: 18112
C	-0.134749	1.12549	-0.0388685
C	-0.878936	0.328623	0.78062
C	-0.423716	-1.00507	0.547897
C	0.558464	-0.905464	-0.393259
O	0.748138	0.388496	-0.762993
H	-0.137377	2.21643	-0.19727
H	-1.66917	0.647957	1.47894
H	-0.790827	-1.92539	1.0299
H	1.18923	-1.67022	-0.875471
C	4.33598	-1.08475	-0.275499
C	5.29305	-0.744988	0.657087
N	5.4627	0.598237	0.716043
C	4.6141	1.08991	-0.176574
N	3.91155	0.115195	-0.80103
H	3.94009	-2.06289	-0.591821
H	5.8642	-1.445	1.28846
H	4.46673	2.15605	-0.412894
H	3.18244	0.248217	-1.54397
