18
  This energy is -0.856 and Call times are: 97356
C	0.723094	0.283014	-0.826703
C	-0.111243	1.19088	-0.243572
C	-0.854621	0.465397	0.73683
C	-0.408927	-0.821751	0.666261
O	0.554714	-0.95123	-0.283288
H	1.47313	0.388403	-1.62769
H	-0.194824	2.2638	-0.480092
H	-1.62917	0.863994	1.41159
H	-0.693225	-1.7258	1.2294
C	5.25852	-0.0959444	1.16442
C	4.3062	0.287385	0.243933
N	4.81371	0.288393	-1.01263
C	6.07607	-0.0928598	-0.872213
N	6.3928	-0.336406	0.421602
H	5.21091	-0.210803	2.25899
H	3.26201	0.563243	0.463976
H	6.8123	-0.210243	-1.68365
H	7.32485	-0.648877	0.788893
