18
  This energy is -1.4318 and Call times are: 40759
C	0.0517844	1.12327	0.148262
C	-1.07032	0.400432	0.428905
C	-0.749598	-0.956133	0.117476
C	0.540181	-0.942517	-0.325983
O	1.04521	0.31915	-0.313797
H	0.267441	2.20101	0.23319
H	-2.02783	0.784033	0.816356
H	-1.409	-1.83345	0.215457
H	1.20209	-1.7523	-0.674377
C	3.96796	0.305213	1.08706
C	4.5271	1.1268	0.131279
N	4.78649	0.443032	-1.00964
C	4.38978	-0.798022	-0.762594
N	3.88873	-0.932244	0.488214
H	3.63205	0.506842	2.11664
H	4.748	2.20069	0.244487
H	4.44341	-1.64757	-1.46233
H	3.51173	-1.81146	0.919621
