18
  This energy is -1.131 and Call times are: 43945
C	0.61224	0.00686833	-0.954734
C	-0.559027	0.695146	-0.833155
C	-1.02481	0.443015	0.49334
C	-0.0970628	-0.377079	1.06527
O	0.909631	-0.653668	0.195163
H	1.31815	-0.092135	-1.79565
H	-1.04614	1.31792	-1.6006
H	-1.94487	0.831439	0.958868
H	-0.0392449	-0.826899	2.07004
C	4.7938	1.07891	0.236717
C	6.01039	0.551403	0.614579
N	6.15015	-0.721383	0.17074
C	5.02454	-0.982481	-0.479994
N	4.17438	0.0714162	-0.468593
H	4.34011	2.067	0.413904
H	6.78981	1.06639	1.19951
H	4.77103	-1.9293	-0.98349
H	3.22438	0.113103	-0.91247
