18
  This energy is -0.9001 and Call times are: 109627
C	-0.368662	0.882287	0.609966
C	0.943038	0.509261	0.58414
C	1.01005	-0.624819	-0.281591
C	-0.26662	-0.844699	-0.708377
O	-1.1217	0.0663668	-0.17376
H	-0.886171	1.69913	1.13931
H	1.77951	0.984987	1.12089
H	1.9088	-1.20321	-0.549535
H	-0.690892	-1.60582	-1.38361
C	4.83372	-0.119682	0.661109
C	5.42175	1.06165	0.261342
N	6.52312	0.828446	-0.493044
C	6.61799	-0.492539	-0.561019
N	5.62264	-1.1095	0.118846
H	3.93951	-0.319373	1.2727
H	5.07104	2.07807	0.503727
H	7.39671	-1.0603	-1.09533
H	5.47922	-2.14464	0.21463
