18
  This energy is -0.3884 and Call times are: 111090
C	1.0672	-0.251969	-0.289824
C	0.152297	-1.21062	0.0331624
C	-1.05624	-0.511787	0.335138
C	-0.773173	0.812216	0.170027
O	0.519153	0.98921	-0.211522
H	2.12592	-0.322873	-0.588706
H	0.312405	-2.30053	0.0564299
H	-2.01946	-0.952146	0.63909
H	-1.39601	1.71367	0.291314
C	6.12107	-0.937715	0.60183
C	5.50884	-0.34876	-0.48419
N	6.22177	0.713947	-0.930156
C	7.2723	0.784001	-0.123867
N	7.25734	-0.190081	0.816628
H	5.83803	-1.80696	1.21652
H	4.56546	-0.671596	-0.953946
H	8.08269	1.52872	-0.177589
H	7.97464	-0.346066	1.56656
