18
  This energy is -1.3223 and Call times are: 10222
C	-0.0905289	1.10067	-0.258315
C	0.985784	0.349466	-0.629279
C	0.736749	-0.964702	-0.128217
C	-0.469761	-0.900554	0.504706
O	-0.989285	0.353342	0.435044
H	-0.332579	2.16327	-0.424271
H	1.86672	0.686917	-1.19864
H	1.38621	-1.84876	-0.231849
H	-1.05832	-1.66649	1.03593
C	4.40557	-0.527881	0.867805
C	4.4212	-0.888327	-0.462976
N	5.21414	-0.0593429	-1.18446
C	5.68863	0.812068	-0.304611
N	5.23045	0.571899	0.946782
H	3.88324	-0.961695	1.73528
H	3.87453	-1.73169	-0.915461
H	6.37506	1.64594	-0.523004
H	5.45988	1.1192	1.81228
