18
  This energy is -0.5688 and Call times are: 137520
C	0.823697	-0.144301	0.766226
C	-0.433908	0.254673	1.11209
C	-1.17258	0.321189	-0.108587
C	-0.301154	-0.0430102	-1.09264
O	0.922635	-0.330729	-0.576334
H	1.72491	-0.329417	1.37351
H	-0.804258	0.479574	2.12519
H	-2.22951	0.607916	-0.230109
H	-0.427721	-0.135576	-2.18381
C	6.56715	0.952692	-0.394726
C	7.05414	-0.336024	-0.338166
N	6.13023	-1.18551	0.172981
C	5.07409	-0.426681	0.432536
N	5.28772	0.870413	0.107724
H	7.02524	1.89121	-0.745276
H	8.0556	-0.66809	-0.657022
H	4.11842	-0.769641	0.860683
H	4.60817	1.66249	0.217689
