18
  This energy is -1.579 and Call times are: 128109
C	-0.183694	0.0140664	-1.11913
C	-0.089262	1.15651	-0.38002
C	0.140953	0.734182	0.964882
C	0.16688	-0.629052	0.928895
O	-0.0296868	-1.08586	-0.335898
H	-0.356317	-0.147968	-2.19579
H	-0.173292	2.19267	-0.745247
H	0.270906	1.3778	1.84973
H	0.314578	-1.37871	1.72353
C	4.00182	-1.04169	0.376056
C	3.7598	-0.456427	-0.848703
N	4.37515	0.747124	-0.945256
C	4.99655	0.907897	0.215191
N	4.80208	-0.143469	1.0461
H	3.67219	-2.00179	0.803966
H	3.1522	-0.881027	-1.66442
H	5.60765	1.77654	0.508875
H	5.1875	-0.253427	2.01595
