18
  This energy is -0.7145 and Call times are: 55476
C	0.822368	0.780303	-0.035196
C	-0.494123	1.11199	0.0959905
C	-1.21016	-0.12389	0.10029
C	-0.268016	-1.1017	-0.0286484
O	0.978802	-0.567484	-0.112727
H	1.73142	1.40187	-0.0855105
H	-0.918436	2.1253	0.181185
H	-2.30002	-0.25932	0.18948
H	-0.355258	-2.19973	-0.0729808
C	4.92723	-0.0939645	0.0293759
C	5.84408	-1.0738	0.346324
N	7.11307	-0.620913	0.201197
C	6.98396	0.635101	-0.204242
N	5.68542	1.00015	-0.323099
H	3.82562	-0.0977197	0.0296971
H	5.61266	-2.09941	0.677117
H	7.80735	1.3322	-0.428541
H	5.32489	1.93797	-0.626039
