18
  This energy is -1.1161 and Call times are: 132637
C	-0.0735068	0.924893	0.652358
C	-0.126944	-0.337463	1.16614
C	-0.00270921	-1.2196	0.0496654
C	0.115679	-0.418427	-1.04783
O	0.0744625	0.894249	-0.698263
H	-0.128678	1.914	1.13596
H	-0.242277	-0.619182	2.22512
H	-0.00256798	-2.32125	0.0708816
H	0.233368	-0.656719	-2.11769
C	3.84161	-0.2074	0.0147676
C	4.49623	0.782003	-0.687873
N	5.83334	0.730575	-0.473412
C	6.00757	-0.286862	0.359107
N	4.83674	-0.884929	0.683242
H	2.77366	-0.468584	0.0840866
H	4.02769	1.53203	-1.34572
H	6.97125	-0.636939	0.762839
H	4.71099	-1.70794	1.32206
