18
  This energy is -1.1669 and Call times are: 102718
C	0.200807	0.111245	1.11072
C	-0.388085	1.0956	0.372737
C	-0.46879	0.58955	-0.960498
C	0.0779091	-0.659376	-0.91954
O	0.49212	-0.967816	0.337562
H	0.463547	0.0570154	2.17996
H	-0.731224	2.07938	0.731255
H	-0.886943	1.10295	-1.84121
H	0.228356	-1.41773	-1.70536
C	5.20355	-0.230896	0.983621
C	3.87071	-0.495093	0.749334
N	3.50474	-0.0969706	-0.493273
C	4.60634	0.412275	-1.02783
N	5.65806	0.354672	-0.176859
H	5.83955	-0.412099	1.86465
H	3.16659	-0.965844	1.45464
H	4.6985	0.840849	-2.0388
H	6.63382	0.69184	-0.365213
