18
  This energy is -0.8914 and Call times are: 69970
C	0.350287	-0.725422	-0.798412
C	-0.792124	-0.925172	-0.0805196
C	-0.892371	0.185552	0.81187
C	0.19763	0.965999	0.560525
O	0.967439	0.424779	-0.420029
H	0.826162	-1.31983	-1.59558
H	-1.49383	-1.76994	-0.170369
H	-1.68726	0.373198	1.55149
H	0.534021	1.91705	1.00503
C	6.1605	0.471796	-0.194548
C	5.47154	0.448632	0.999583
N	4.27732	-0.177134	0.862635
C	4.2256	-0.540795	-0.41161
N	5.33742	-0.172355	-1.0911
H	7.14539	0.887225	-0.460894
H	5.81477	0.872232	1.9575
H	3.39708	-1.07917	-0.899402
H	5.53483	-0.344578	-2.10728
