18
  This energy is -0.8064 and Call times are: 121379
C	-1.04603	-0.00531525	-0.438406
C	0.0116626	0.569904	-1.07933
C	1.13957	0.375045	-0.224953
C	0.671564	-0.302049	0.862652
O	-0.661177	-0.542703	0.749077
H	-2.10828	-0.0975792	-0.718335
H	-0.00112057	1.08024	-2.0558
H	2.17517	0.704258	-0.407282
H	1.17869	-0.665441	1.77151
C	6.10207	-0.890443	0.742544
C	4.95334	-0.664924	0.0140464
N	5.06505	0.455495	-0.740072
C	6.27847	0.923274	-0.480396
N	6.94344	0.146933	0.407685
H	6.37137	-1.68909	1.4519
H	4.04594	-1.29058	0.0190677
H	6.73025	1.83043	-0.913052
H	7.91487	0.305121	0.77178
