18
  This energy is -1.1202 and Call times are: 124669
C	-0.399642	1.01432	0.312791
C	-1.11921	-0.133894	0.468315
C	-0.292747	-1.18447	-0.0350404
C	0.858911	-0.585498	-0.453722
O	0.810917	0.75716	-0.248838
H	-0.634192	2.06306	0.558513
H	-2.13054	-0.231295	0.894719
H	-0.53588	-2.25837	-0.0765015
H	1.77431	-0.998524	-0.908369
C	4.50598	0.414556	-0.643402
C	5.8514	0.543999	-0.91585
N	6.6032	-0.0557951	0.038905
C	5.72751	-0.555435	0.90038
N	4.44969	-0.298408	0.533331
H	3.61435	0.767565	-1.18554
H	6.29312	1.05943	-1.78422
H	5.96781	-1.11824	1.81675
H	3.58151	-0.587219	1.04724
