18
  This energy is -0.9619 and Call times are: 103789
C	-0.133556	0.954926	0.597227
C	1.09018	0.39107	0.385306
C	0.850961	-0.780016	-0.396647
C	-0.49784	-0.828413	-0.593538
O	-1.11484	0.22338	0.0065125
H	-0.435142	1.86343	1.14397
H	2.06366	0.762547	0.74368
H	1.60209	-1.49705	-0.765093
H	-1.13227	-1.54936	-1.13481
C	6.32792	0.732385	-0.404054
C	5.91384	0.592179	0.903627
N	4.94025	-0.344458	1.01012
C	4.75106	-0.783647	-0.226785
N	5.56391	-0.165278	-1.11587
H	7.08688	1.38563	-0.863159
H	6.30014	1.15008	1.77217
H	4.03007	-1.55691	-0.537383
H	5.60442	-0.336947	-2.15035
