18
  This energy is -2.1288 and Call times are: 62546
C	-0.563419	0.0072286	-0.984331
C	-0.266414	-1.14706	-0.321179
C	0.437102	-0.751109	0.857126
C	0.5079	0.610192	0.810003
O	-0.0980293	1.09016	-0.307805
H	-1.09401	0.189413	-1.9333
H	-0.517546	-2.1743	-0.63071
H	0.839882	-1.41031	1.64282
H	0.956183	1.34331	1.50053
C	6.22174	1.11115	0.379873
C	7.35928	0.462334	-0.0516189
N	7.08506	-0.813293	-0.417805
C	5.78236	-0.955296	-0.214259
N	5.21634	0.1771	0.266257
H	6.06187	2.13724	0.747485
H	8.37295	0.891795	-0.105274
H	5.19236	-1.86716	-0.400364
H	4.20441	0.316903	0.506493
