18
  This energy is -0.8425 and Call times are: 91610
C	-0.493124	0.979414	0.289789
C	0.621724	0.508699	0.919006
C	0.936532	-0.730295	0.281896
C	-0.0137315	-0.907335	-0.680408
O	-0.894937	0.127267	-0.689702
H	-1.08783	1.89481	0.443489
H	1.16764	0.986077	1.74858
H	1.77506	-1.40455	0.519276
H	-0.170416	-1.71588	-1.41318
C	4.89967	0.614491	-0.443736
C	4.86478	-0.241108	0.636948
N	6.0853	-0.780905	0.872417
C	6.87438	-0.262155	-0.0586478
N	6.20651	0.58533	-0.876762
H	4.11325	1.22179	-0.919415
H	3.98079	-0.478593	1.25097
H	7.94915	-0.468763	-0.186782
H	6.60776	1.11859	-1.68663
