18
  This energy is -1.4749 and Call times are: 89130
C	-0.0473084	-0.216653	1.11231
C	0.997223	0.449464	0.541679
C	0.697389	0.525711	-0.85274
C	-0.503899	-0.100543	-1.01113
O	-0.973249	-0.560062	0.178649
H	-0.247285	-0.504814	2.1574
H	1.88936	0.847226	1.05155
H	1.31083	0.994345	-1.63897
H	-1.12107	-0.282613	-1.90623
C	4.6772	-0.388361	-1.10417
C	5.43989	0.680251	-0.682844
N	5.35046	0.845392	0.659259
C	4.53539	-0.11711	1.06898
N	4.10251	-0.887815	0.0432037
H	4.50837	-0.81453	-2.10587
H	6.0531	1.33505	-1.32322
H	4.22213	-0.302829	2.10898
H	3.45288	-1.70932	0.109331
