18
  This energy is -1.2001 and Call times are: 25246
C	0.506947	-0.270575	0.977852
C	0.820454	0.859046	0.280684
C	-0.0169739	0.849471	-0.876356
C	-0.768295	-0.285156	-0.784098
O	-0.461454	-0.981235	0.342106
H	0.895826	-0.675838	1.92642
H	1.56657	1.62247	0.5538
H	-0.049237	1.60399	-1.6787
H	-1.54461	-0.703743	-1.44543
C	5.73628	0.289242	0.65177
C	4.55722	-0.268511	1.09884
N	3.6932	-0.470904	0.074621
C	4.33381	-0.040348	-1.00374
N	5.56962	0.427604	-0.708107
H	6.65162	0.587537	1.18724
H	4.3145	-0.528513	2.14207
H	3.94436	-0.0447117	-2.03453
H	6.26779	0.820888	-1.38571
