18
  This energy is -0.6883 and Call times are: 36192
C	-1.01267	0.236297	-0.452851
C	-0.832838	0.0732345	0.889329
C	0.55624	-0.208266	1.06635
C	1.10263	-0.192375	-0.183275
O	0.158856	0.0775516	-1.12319
H	-1.91236	0.464693	-1.04752
H	-1.60128	0.144076	1.67582
H	1.07894	-0.399078	2.01739
H	2.1357	-0.355659	-0.531636
C	5.02988	-0.394385	0.537046
C	6.03902	-1.1562	-0.0128824
N	7.00513	-0.37263	-0.550616
C	6.59689	0.87056	-0.335103
N	5.41108	0.910474	0.317464
H	4.09852	-0.678976	1.05193
H	6.08731	-2.25719	-0.0312806
H	7.12778	1.78867	-0.634215
H	4.88274	1.7714	0.601944
