18
  This energy is -1.7033 and Call times are: 6982
C	-0.236631	0.756891	-0.810877
C	-0.253062	-0.587672	-1.03947
C	0.0921009	-1.19992	0.203971
C	0.288987	-0.175441	1.08264
O	0.0924432	1.02665	0.479841
H	-0.437953	1.61382	-1.4745
H	-0.484979	-1.09723	-1.9885
H	0.181012	-2.27855	0.410705
H	0.567925	-0.170391	2.14914
C	3.59018	0.500312	-0.339175
C	4.82558	0.643717	-0.934466
N	5.76955	-0.0758794	-0.280554
C	5.12223	-0.663467	0.716613
N	3.80552	-0.347564	0.724274
H	2.60586	0.927374	-0.58873
H	5.05269	1.25352	-1.82408
H	5.56402	-1.33502	1.47032
H	3.0858	-0.684357	1.40972
