18
  This energy is -1.1591 and Call times are: 72943
C	0.26517	0.894681	0.644694
C	-0.216364	-0.267841	1.17104
C	-0.42717	-1.14179	0.0611316
C	-0.0558471	-0.43617	-1.04548
O	0.369594	0.809577	-0.707661
H	0.566984	1.84255	1.11978
H	-0.404268	-0.487873	2.23423
H	-0.811017	-2.17414	0.0926697
H	-0.0473484	-0.704312	-2.11473
C	5.862	-0.186556	-0.0071704
C	5.21396	0.984598	0.323873
N	3.8698	0.84458	0.223118
C	3.68467	-0.408671	-0.168941
N	4.85531	-1.07186	-0.321817
H	6.93258	-0.444052	-0.0400163
H	5.69221	1.9281	0.633614
H	2.71282	-0.89205	-0.358907
H	4.97354	-2.07023	-0.622705
