18
  This energy is -1.3352 and Call times are: 62965
C	-0.621323	0.933597	-0.169575
C	-0.36164	0.0382145	-1.16518
C	0.43806	-0.98558	-0.571511
C	0.596466	-0.625446	0.734469
O	-0.0438892	0.54409	0.997416
H	-1.1961	1.87426	-0.163874
H	-0.69935	0.0931749	-2.21257
H	0.843665	-1.88223	-1.06709
H	1.13439	-1.10929	1.5662
C	5.3415	-0.470782	0.67479
C	4.83245	0.807897	0.758458
N	3.87229	1.01366	-0.175494
C	3.78601	-0.133006	-0.83605
N	4.65147	-1.05983	-0.361102
H	6.11998	-0.986053	1.25959
H	5.14079	1.58567	1.47599
H	3.10603	-0.34812	-1.67604
H	4.77357	-2.04032	-0.714622
