18
  This energy is -1.107 and Call times are: 35870
C	0.416846	0.948142	-0.462241
C	1.06439	-0.249592	-0.542832
C	0.238602	-1.18782	0.14849
C	-0.840671	-0.480595	0.590509
O	-0.748334	0.825532	0.226478
H	0.677196	1.94743	-0.848119
H	2.027	-0.452091	-1.0393
H	0.433644	-2.26239	0.294603
H	-1.72932	-0.786758	1.16654
C	5.0134	0.216054	1.15365
C	4.43229	0.935659	0.131098
N	4.74233	0.405613	-1.07697
C	5.51286	-0.638846	-0.804908
N	5.70593	-0.795327	0.526192
H	4.98412	0.34771	2.24697
H	3.79486	1.82781	0.243378
H	5.96242	-1.32293	-1.54258
H	6.27478	-1.54438	0.991577
