18
  This energy is -1.8564 and Call times are: 25793
C	0.152342	-0.489248	1.01184
C	-0.378579	0.759878	0.877012
C	-0.410181	1.02186	-0.526727
C	0.104218	-0.0902994	-1.12578
O	0.453	-1.02329	-0.201176
H	0.364498	-1.10109	1.90397
H	-0.71428	1.42962	1.685
H	-0.775255	1.93511	-1.0235
H	0.272404	-0.337617	-2.18682
C	3.23459	0.968513	-0.0655663
C	3.47349	0.203047	1.0561
N	4.2873	-0.842157	0.770126
C	4.55225	-0.725551	-0.524026
N	3.94075	0.350519	-1.07334
H	2.63212	1.87891	-0.213033
H	3.07323	0.386216	2.06659
H	5.18798	-1.40056	-1.11937
H	3.99437	0.655874	-2.0759
