18
  This energy is -1.1617 and Call times are: 68537
C	0.45107	0.829077	-0.628943
C	-0.591989	1.04383	0.223279
C	-0.871753	-0.220838	0.825327
C	0.0250431	-1.09677	0.287862
O	0.840656	-0.472661	-0.602235
H	0.998611	1.51048	-1.30061
H	-1.1122	1.99718	0.409298
H	-1.65201	-0.442993	1.57095
H	0.183321	-2.17503	0.453887
C	5.38181	-0.921436	-0.266815
C	5.55894	0.384199	-0.673121
N	4.5844	1.18608	-0.179384
C	3.80565	0.380968	0.530523
N	4.2443	-0.899936	0.508944
H	5.96526	-1.83391	-0.468103
H	6.37247	0.761971	-1.31368
H	2.90144	0.677205	1.08629
H	3.80212	-1.72036	0.99127
