18
  This energy is -1.2655 and Call times are: 21994
C	0.466111	0.396388	-0.954997
C	-0.825243	0.663834	-0.606784
C	-1.03918	0.00118545	0.640312
C	0.14033	-0.612699	0.944091
O	1.07077	-0.381934	-0.0192555
H	1.06446	0.697056	-1.83069
H	-1.55404	1.26722	-1.17147
H	-1.96683	-0.0113591	1.23479
H	0.44101	-1.23404	1.80361
C	4.4959	-0.761188	0.556718
C	5.87429	-0.738089	0.582266
N	6.36009	0.276272	-0.17377
C	5.28715	0.880158	-0.666467
N	4.13882	0.292078	-0.25526
H	3.76811	-1.43029	1.04268
H	6.52697	-1.43517	1.13267
H	5.28539	1.75731	-1.33343
H	3.16249	0.58304	-0.507016
