18
  This energy is -1.0761 and Call times are: 46211
C	0.054952	0.766101	-0.834548
C	0.62626	0.97383	0.386448
C	0.346341	-0.198046	1.15357
C	-0.371311	-1.01844	0.333626
O	-0.558584	-0.445548	-0.88446
H	0.0151973	1.39433	-1.73953
H	1.18841	1.86308	0.714048
H	0.648305	-0.398046	2.1942
H	-0.800546	-2.02076	0.496012
C	6.0085	0.254884	0.550501
C	5.70789	0.486448	-0.775076
N	4.45399	0.0669975	-1.07224
C	3.97853	-0.42292	0.064656
N	4.87792	-0.332575	1.07288
H	6.91666	0.459733	1.13942
H	6.37329	0.948662	-1.52237
H	2.97817	-0.860019	0.214557
H	4.74024	-0.64963	2.06372
