18
  This energy is -0.5345 and Call times are: 52871
C	-0.774555	0.82395	0.0870224
C	0.509148	1.06663	-0.304878
C	1.16815	-0.200514	-0.291734
C	0.228978	-1.10567	0.107038
O	-0.963305	-0.497429	0.342645
H	-1.63742	1.49668	0.221721
H	0.947981	2.04029	-0.576017
H	2.21952	-0.404663	-0.550655
H	0.283048	-2.19605	0.260026
C	5.82543	-0.924712	-0.27378
C	5.39891	0.354871	0.0123964
N	6.44689	1.16983	0.284583
C	7.51947	0.398766	0.167709
N	7.19737	-0.873021	-0.167559
H	5.26833	-1.83797	-0.536732
H	4.35379	0.704639	0.0273488
H	8.56463	0.714448	0.3167
H	7.86547	-1.66819	-0.317933
