18
  This energy is -0.8765 and Call times are: 33317
C	0.549115	-0.137848	0.982787
C	-0.36913	0.852466	0.791791
C	-0.833447	0.701569	-0.550504
C	-0.157952	-0.367634	-1.06127
O	0.690663	-0.892513	-0.138576
H	1.16208	-0.407548	1.85845
H	-0.687556	1.61294	1.52281
H	-1.58345	1.32179	-1.06714
H	-0.191036	-0.847292	-2.05328
C	5.32045	1.09839	-0.0431333
C	4.00169	0.71211	-0.156243
N	3.87687	-0.633916	-0.0606114
C	5.1135	-1.08098	0.111172
N	6.01997	-0.075198	0.128805
H	5.79482	2.09221	-0.071869
H	3.13803	1.38053	-0.30514
H	5.41154	-2.13521	0.229435
H	7.0579	-0.171121	0.250305
