18
  This energy is -1.9859 and Call times are: 80664
C	-0.0795331	0.576553	-0.973479
C	0.456371	-0.676006	-0.908091
C	0.381796	-1.06199	0.46507
C	-0.193098	-0.0112324	1.11758
O	-0.481376	0.998167	0.254436
H	-0.229733	1.26412	-1.82198
H	0.863367	-1.26869	-1.74306
H	0.719474	-2.01345	0.906439
H	-0.447063	0.139269	2.1797
C	4.39514	1.10368	0.394961
C	5.29874	0.641044	-0.538108
N	5.13824	-0.686625	-0.757307
C	4.13887	-1.04627	0.0367574
N	3.65685	-0.00247355	0.752107
H	4.23072	2.10826	0.816041
H	6.06361	1.24146	-1.05707
H	3.72019	-2.06095	0.133534
H	2.87053	-0.0304865	1.4465
