18
  This energy is -1.5698 and Call times are: 123738
C	-0.4319	-0.665206	-0.81078
C	0.349076	-1.1532	0.195357
C	0.693603	-0.0273736	1.00402
C	0.0927473	1.04921	0.420658
O	-0.598831	0.678026	-0.688825
H	-0.922978	-1.16381	-1.66254
H	0.652146	-2.20087	0.352328
H	1.31691	-0.0285925	1.91264
H	0.0810438	2.11709	0.694074
C	5.18511	0.845746	0.813979
C	6.14962	0.47632	-0.0994674
N	5.71374	-0.536099	-0.887833
C	4.48349	-0.79377	-0.465075
N	4.11854	0.0127334	0.559598
H	5.18233	1.61676	1.60079
H	7.15222	0.922159	-0.203787
H	3.80594	-1.56238	-0.870528
H	3.19842	0.00495254	1.06414
