18
  This energy is -1.7798 and Call times are: 106147
C	-0.376454	0.551521	-0.916792
C	0.493805	-0.495402	-1.00031
C	0.727381	-0.917874	0.343965
C	-0.020762	-0.0918239	1.13028
O	-0.701351	0.811672	0.376953
H	-0.833382	1.18618	-1.69376
H	0.927735	-0.926874	-1.91663
H	1.37842	-1.74203	0.677145
H	-0.152692	-0.0449962	2.22374
C	3.59514	0.477493	-0.889518
C	3.85668	1.05245	0.336113
N	4.58163	0.219593	1.12181
C	4.76911	-0.867902	0.386402
N	4.19351	-0.761513	-0.834643
H	3.04395	0.849928	-1.76759
H	3.53528	2.0533	0.667549
H	5.3204	-1.77133	0.693216
H	4.20152	-1.48502	-1.59473
