18
  This energy is -0.426 and Call times are: 24189
C	1.04375	0.150263	-0.417616
C	-0.0434799	-0.0387674	-1.21922
C	-1.15773	-0.187736	-0.338096
C	-0.653034	-0.0765878	0.924165
O	0.689877	0.130086	0.894397
H	2.10855	0.30851	-0.655144
H	-0.0592454	-0.0701544	-2.32052
H	-2.20918	-0.357589	-0.620399
H	-1.13861	-0.125615	1.91263
C	7.2608	0.587326	0.342063
C	6.82507	-0.6328	0.813845
N	5.68028	-1.01458	0.197238
C	5.40684	-0.0350162	-0.653833
N	6.33021	0.954194	-0.604296
H	8.13798	1.20006	0.60406
H	7.31622	-1.24448	1.5881
H	4.54329	0.00859473	-1.33692
H	6.33609	1.83316	-1.17757
