18
  This energy is -2.2069 and Call times are: 28232
C	-0.134734	-0.739864	-0.849028
C	0.819707	-0.897388	0.112535
C	0.676972	0.219186	0.991743
C	-0.352092	0.960463	0.489839
O	-0.859572	0.389505	-0.634208
H	-0.396284	-1.35315	-1.72694
H	1.55091	-1.71759	0.194475
H	1.2755	0.436833	1.8909
H	-0.812243	1.90078	0.835263
C	4.86773	1.14302	-0.156977
C	6.11091	0.547265	-0.130519
N	6.00826	-0.788844	0.0714353
C	4.70635	-1.02109	0.16989
N	3.97637	0.111863	0.0389502
H	4.56437	2.19278	-0.296704
H	7.08009	1.05757	-0.253533
H	4.23332	-2.00205	0.337782
H	2.93064	0.189895	0.0790426
