18
  This energy is -1.4241 and Call times are: 39123
C	0.357805	-0.958665	0.489223
C	0.250642	-0.825036	-0.863934
C	-0.224804	0.502856	-1.08926
C	-0.366209	1.06346	0.146094
O	-0.0148392	0.185035	1.12176
H	0.682344	-1.8048	1.1169
H	0.483082	-1.58529	-1.62688
H	-0.434289	0.976866	-2.06164
H	-0.703207	2.06495	0.460251
C	4.74236	-0.0183888	1.12585
C	3.87111	-0.892822	0.511496
N	3.70193	-0.576559	-0.795357
C	4.46531	0.490019	-0.990993
N	5.11321	0.865495	0.13721
H	5.11238	0.0356488	2.16205
H	3.36156	-1.74625	0.987795
H	4.58662	1.0355	-1.94071
H	5.77243	1.67558	0.239354
