18
  This energy is -0.9991 and Call times are: 83666
C	1.04877	0.105902	0.418654
C	0.667607	-0.965635	-0.334272
C	-0.702379	-0.740331	-0.669674
C	-1.03746	0.448998	-0.0920997
O	0.0199702	0.97977	0.576585
H	2.01025	0.360467	0.894046
H	1.28886	-1.82818	-0.624374
H	-1.35452	-1.39346	-1.27153
H	-1.98217	1.01705	-0.0833869
C	5.53347	-1.17496	-0.0111282
C	6.43516	-0.390651	-0.698843
N	6.22383	0.925476	-0.454589
C	5.19495	0.95753	0.381476
N	4.74288	-0.283645	0.679307
H	5.40281	-2.26785	0.0342929
H	7.23442	-0.750853	-1.36689
H	4.73254	1.8629	0.806576
H	3.9426	-0.521634	1.31505
