18
  This energy is -0.9305 and Call times are: 37374
C	0.299897	-0.477991	0.983864
C	0.60839	-1.03451	-0.222574
C	0.0696809	-0.153069	-1.20897
C	-0.520453	0.864275	-0.518225
O	-0.389429	0.68205	0.822162
H	0.511194	-0.804884	2.01524
H	1.15997	-1.97171	-0.40008
H	0.120534	-0.270978	-2.30332
H	-1.05872	1.76382	-0.859313
C	4.3795	-0.930335	-0.0213565
C	5.02685	-0.360174	-1.097
N	5.77842	0.698891	-0.709659
C	5.59802	0.785416	0.601291
N	4.76281	-0.174694	1.06412
H	3.69599	-1.7916	0.0462225
H	4.96507	-0.694007	-2.14561
H	6.05349	1.53276	1.27081
H	4.46416	-0.316457	2.0601
