18
  This energy is -1.0464 and Call times are: 30585
C	-1.0361	-0.129998	-0.442727
C	0.0488137	0.1907	-1.20463
C	1.1529	0.264256	-0.301468
C	0.645214	-0.017986	0.932618
O	-0.690166	-0.261291	0.864983
H	-2.09394	-0.290861	-0.707938
H	0.0695266	0.35862	-2.29342
H	2.19985	0.500546	-0.550777
H	1.12359	-0.0765033	1.92407
C	4.98775	-0.621269	0.976764
C	4.62291	-0.953345	-0.310776
N	5.02955	-0.00842627	-1.19298
C	5.64433	0.906372	-0.455537
N	5.6457	0.58268	0.859306
H	4.83097	-1.13922	1.93629
H	4.07355	-1.85782	-0.618974
H	6.11138	1.83256	-0.827379
H	6.06759	1.14224	1.64043
