18
  This energy is -0.6005 and Call times are: 108131
C	0.0230337	-0.98304	0.565245
C	-1.13106	-0.454032	0.0666585
C	-0.757844	0.769643	-0.568517
C	0.591372	0.880381	-0.402005
O	1.08484	-0.181261	0.288227
H	0.218802	-1.91045	1.12814
H	-2.14362	-0.882527	0.138916
H	-1.4235	1.47854	-1.08665
H	1.30644	1.6556	-0.722898
C	6.11867	-0.671214	-0.301
C	4.91933	-0.560808	-0.972214
N	4.08572	0.303631	-0.344245
C	4.76533	0.727886	0.712526
N	5.9968	0.16922	0.782976
H	7.0202	-1.26845	-0.511001
H	4.64058	-1.0894	-1.89835
H	4.40863	1.4474	1.46704
H	6.7208	0.343153	1.52245
