18
  This energy is -0.4388 and Call times are: 14877
C	-0.472351	-0.349644	-0.970069
C	-1.15601	0.388727	-0.0493091
C	-0.2379	0.630277	1.01786
C	0.925747	0.0181917	0.655027
O	0.800547	-0.585234	-0.556259
H	-0.775006	-0.763374	-1.94602
H	-2.2019	0.729135	-0.115016
H	-0.430425	1.19521	1.94408
H	1.90055	-0.0594443	1.16394
C	7.46404	-0.169111	0.473628
C	7.18647	0.342181	-0.776444
N	5.85032	0.398764	-0.995569
C	5.30106	-0.0756208	0.114344
N	6.23236	-0.431695	1.03059
H	8.41903	-0.358375	0.989099
H	7.92637	0.671259	-1.52418
H	4.2219	-0.184034	0.308985
H	6.05075	-0.831603	1.98366
