18
  This energy is -0.7422 and Call times are: 2511
C	0.167309	1.12133	0.0320009
C	0.583663	0.291881	1.03152
C	0.197145	-1.02437	0.633783
C	-0.421283	-0.883073	-0.573675
O	-0.448433	0.420685	-0.956416
H	0.247957	2.21366	-0.0927991
H	1.11015	0.578214	1.95614
H	0.364367	-1.96149	1.18871
H	-0.878438	-1.62219	-1.25189
C	6.9327	-0.0081563	1.17642
C	5.87988	0.391097	0.380617
N	6.18702	0.268921	-0.93363
C	7.42568	-0.204327	-0.953079
N	7.91939	-0.388328	0.294314
H	7.04584	-0.0473382	2.2715
H	4.90415	0.765122	0.731209
H	8.01825	-0.43401	-1.85327
H	8.87226	-0.751416	0.542248
