18
  This energy is -1.5215 and Call times are: 21866
C	-0.0345725	-1.02868	-0.476478
C	0.0307956	-0.851198	0.874301
C	0.0573701	0.56167	1.08218
C	0.00589495	1.12285	-0.15991
O	-0.0506355	0.166282	-1.12365
H	-0.0743172	-1.9418	-1.09281
H	0.0576115	-1.63644	1.64681
H	0.108887	1.08968	2.04792
H	0.00312607	2.17559	-0.486995
C	5.37609	-0.45243	0.149779
C	4.25746	-0.707307	0.914543
N	3.18557	-0.0148332	0.458427
C	3.63751	0.667043	-0.585328
N	4.95252	0.437129	-0.812228
H	6.40912	-0.828576	0.219716
H	4.20461	-1.37845	1.78725
H	3.04819	1.34934	-1.21889
H	5.53788	0.856594	-1.57555
