18
  This energy is -1.7794 and Call times are: 805
C	0.772403	0.120942	0.821685
C	0.508675	1.10641	-0.0836776
C	-0.506282	0.586056	-0.943454
C	-0.773182	-0.671451	-0.487589
O	-0.00137508	-0.972015	0.589902
H	1.47793	0.0748969	1.66747
H	0.981437	2.10007	-0.140379
H	-0.976915	1.09606	-1.79931
H	-1.47986	-1.44151	-0.838094
C	4.93902	-0.0707119	-1.17319
C	6.07841	0.079385	-0.411346
N	5.78037	0.124283	0.90989
C	4.4611	0.00250248	0.967486
N	3.90738	-0.118019	-0.262334
H	4.79416	-0.144739	-2.26272
H	7.11019	0.156086	-0.791355
H	3.84976	-0.00466481	1.88424
H	2.88666	-0.226779	-0.480427
