18
  This energy is -0.9738 and Call times are: 67921
C	-1.03047	0.0953347	-0.464152
C	-0.434254	-1.11277	-0.251115
C	0.83379	-0.824235	0.339587
C	0.900516	0.534716	0.435374
O	-0.229461	1.11246	-0.0508112
H	-2.00898	0.361614	-0.896434
H	-0.846089	-2.10733	-0.48634
H	1.60059	-1.55061	0.653414
H	1.68637	1.20246	0.824995
C	6.02507	-0.96227	0.261577
C	4.88783	-0.515288	0.900353
N	4.42774	0.627729	0.336135
C	5.27633	0.888851	-0.648922
N	6.25727	-0.040641	-0.734851
H	6.66423	-1.84165	0.439622
H	4.39105	-0.997066	1.75823
H	5.2261	1.74738	-1.33786
H	7.04469	-0.056254	-1.42839
