18
  This energy is -0.7957 and Call times are: 117167
C	-0.481313	0.897152	0.499857
C	0.812255	0.535535	0.737111
C	1.04721	-0.623881	-0.0633061
C	-0.123517	-0.868416	-0.719025
O	-1.06793	0.0507386	-0.38698
H	-1.09309	1.72506	0.894253
H	1.52908	1.03512	1.40842
H	1.98243	-1.20196	-0.135974
H	-0.408376	-1.65372	-1.43833
C	6.56095	0.433871	-0.674987
C	5.20365	0.567993	-0.877215
N	4.50021	-0.0592969	0.0965354
C	5.41763	-0.580589	0.899797
N	6.67563	-0.310984	0.4775
H	7.42455	0.803437	-1.25045
H	4.71934	1.10614	-1.70829
H	5.22314	-1.16881	1.81106
H	7.56828	-0.612009	0.939914
