18
  This energy is -1.3138 and Call times are: 49788
C	0.283406	1.09499	0.0841066
C	-0.451349	0.455264	1.0387
C	-0.599173	-0.889999	0.58205
C	0.0582979	-0.953586	-0.611291
O	0.603335	0.249677	-0.930831
H	0.639529	2.13571	0.0110369
H	-0.849318	0.88735	1.97092
H	-1.13454	-1.70833	1.0898
H	0.208738	-1.78467	-1.31975
C	3.83666	0.85737	-0.25947
C	3.90798	0.140829	0.916382
N	4.90915	-0.771455	0.8727
C	5.45685	-0.621441	-0.325693
N	4.84566	0.348476	-1.04632
H	3.16181	1.66642	-0.581259
H	3.25497	0.265769	1.79548
H	6.30762	-1.19567	-0.726539
H	5.09325	0.654507	-2.0191
