18
  This energy is -1.1963 and Call times are: 15830
C	-0.110364	-0.986772	0.548181
C	0.880876	-0.0962774	0.83945
C	0.690236	1.0055	-0.049289
C	-0.400673	0.691027	-0.805197
O	-0.902321	-0.522185	-0.453805
H	-0.356531	-1.97249	0.975969
H	1.66741	-0.204424	1.6035
H	1.29957	1.92145	-0.111317
H	-0.912098	1.23832	-1.614
C	4.66029	-0.108493	1.04021
C	5.73986	0.697995	0.748225
N	6.10457	0.574754	-0.551124
C	5.25449	-0.304843	-1.06327
N	4.36402	-0.746371	-0.143652
H	4.10057	-0.268302	1.97547
H	6.26213	1.36659	1.45183
H	5.23937	-0.661091	-2.10591
H	3.59453	-1.44207	-0.302258
