18
  This energy is -0.7554 and Call times are: 57727
C	-0.704788	-0.867937	-0.190686
C	0.314694	-0.554503	-1.04086
C	0.966643	0.579973	-0.468104
C	0.288006	0.859652	0.681507
O	-0.735897	-0.0146282	0.866626
H	-1.46728	-1.66333	-0.225339
H	0.580907	-1.07043	-1.97736
H	1.83884	1.11853	-0.872241
H	0.432636	1.64277	1.44378
C	6.543	0.243141	0.660855
C	5.29531	0.822517	0.754396
N	4.44516	0.302859	-0.164138
C	5.1627	-0.595483	-0.824999
N	6.43417	-0.668952	-0.365026
H	7.46972	0.409791	1.23265
H	4.99332	1.60618	1.4682
H	4.8065	-1.22724	-1.6546
H	7.19256	-1.30041	-0.721891
