18
  This energy is -1.0571 and Call times are: 71511
C	-0.456617	-0.849173	0.597333
C	-0.69301	-0.684249	-0.735818
C	0.0450887	0.475592	-1.12324
C	0.667366	0.917043	0.00736397
O	0.372114	0.119836	1.06769
H	-0.813898	-1.60577	1.31508
H	-1.32386	-1.31597	-1.38161
H	0.100292	0.921933	-2.12914
H	1.33708	1.77425	0.186055
C	5.9321	-0.256152	0.50424
C	5.22889	0.924948	0.612193
N	4.07755	0.875062	-0.100856
C	4.06654	-0.332395	-0.649081
N	5.16314	-1.05284	-0.314408
H	6.89324	-0.575454	0.937589
H	5.53167	1.8122	1.19181
H	3.2798	-0.74027	-1.30399
H	5.38528	-2.0318	-0.620274
