18
  This energy is -1.5964 and Call times are: 43913
C	0.175552	1.11924	-0.0537727
C	0.346369	0.407555	1.09719
C	0.0344611	-0.947152	0.769159
C	-0.299425	-0.943722	-0.553294
O	-0.218718	0.309901	-1.07188
H	0.300728	2.1918	-0.275541
H	0.660502	0.797447	2.07871
H	0.0586772	-1.81645	1.44579
H	-0.608238	-1.75609	-1.23148
C	5.31859	0.585995	-0.0645971
C	4.57329	0.344658	1.07005
N	3.45412	-0.361697	0.778447
C	3.50493	-0.557819	-0.532117
N	4.61003	-0.00552963	-1.08647
H	6.27128	1.11903	-0.212256
H	4.82305	0.667555	2.09387
H	2.75922	-1.09913	-1.13638
H	4.87635	-0.0243478	-2.10135
