18
  This energy is -0.8449 and Call times are: 63884
C	-0.453089	1.03557	0.0932623
C	0.635928	0.782417	-0.687973
C	0.90241	-0.613704	-0.546728
C	-0.0472873	-1.09045	0.30835
O	-0.883498	-0.0968958	0.709113
H	-1.00938	1.96618	0.292686
H	1.19545	1.50621	-1.3021
H	1.70963	-1.1876	-1.02957
H	-0.23279	-2.10241	0.704302
C	7.27677	-0.870806	-0.696303
C	6.11125	-0.84543	0.0399461
N	5.99399	0.315358	0.729391
C	7.08262	1.00747	0.422023
N	7.88768	0.33517	-0.43441
H	7.70055	-1.63618	-1.36574
H	5.35284	-1.6439	0.0860237
H	7.33998	2.01157	0.795908
H	8.80288	0.668995	-0.824583
