18
  This energy is -1.2831 and Call times are: 33631
C	0.196961	-1.03839	-0.411521
C	-0.448853	-0.0773683	-1.13245
C	-0.504005	1.07362	-0.288464
C	0.112975	0.714341	0.873701
O	0.547245	-0.572166	0.816056
H	0.465065	-2.07933	-0.656098
H	-0.846507	-0.169725	-2.15589
H	-0.952922	2.0511	-0.527432
H	0.304341	1.27489	1.80344
C	4.21493	-1.01768	-0.0843608
C	3.90734	0.0482484	0.734383
N	4.79549	1.05928	0.574653
C	5.65081	0.622234	-0.339706
N	5.34368	-0.624966	-0.768374
H	3.72674	-1.99528	-0.223999
H	3.06049	0.105903	1.43749
H	6.51995	1.17476	-0.731545
H	5.86592	-1.18592	-1.48522
