18
  This energy is -1.0749 and Call times are: 99338
C	0.215562	-1.10063	-0.168947
C	-0.432744	-0.333283	-1.09158
C	-0.513697	0.975145	-0.524497
C	0.0922876	0.891853	0.694609
O	0.54356	-0.368634	0.928144
H	0.500068	-2.16566	-0.173829
H	-0.815558	-0.656239	-2.07303
H	-0.971754	1.86836	-0.978852
H	0.264157	1.64737	1.47876
C	6.0485	0.120556	0.226945
C	5.20497	1.07434	-0.302096
N	3.94412	0.594438	-0.430416
C	4.00523	-0.652327	0.0173164
N	5.25269	-0.985593	0.425195
H	7.12294	0.14971	0.468328
H	5.48355	2.10017	-0.593504
H	3.16632	-1.36494	0.0686695
H	5.55588	-1.91041	0.817677
