18
  This energy is -0.9509 and Call times are: 42945
C	1.10126	-0.244728	-0.117175
C	0.598646	0.998362	-0.367128
C	-0.803874	0.911775	-0.111089
C	-1.03451	-0.376584	0.272725
O	0.117866	-1.09703	0.27465
H	2.12648	-0.645025	-0.180003
H	1.1593	1.88714	-0.69856
H	-1.54686	1.72007	-0.204534
H	-1.96076	-0.897358	0.56615
C	4.71741	0.70173	0.529364
C	4.9203	-0.640815	0.769274
N	5.90344	-1.13538	-0.0215099
C	6.30893	-0.103578	-0.749233
N	5.62454	1.02699	-0.454256
H	4.01513	1.42457	0.97415
H	4.3749	-1.26145	1.49879
H	7.1034	-0.120527	-1.51262
H	5.75927	1.97139	-0.891534
