18
  This energy is -1.6486 and Call times are: 101314
C	-0.230779	-0.869132	0.691195
C	1.00065	-0.686028	0.134023
C	0.898158	0.496039	-0.66117
C	-0.386847	0.93093	-0.51973
O	-1.09052	0.109114	0.302751
H	-0.617281	-1.64569	1.37151
H	1.89178	-1.31979	0.269413
H	1.69403	0.961002	-1.26491
H	-0.91595	1.7991	-0.945851
C	4.68159	0.832778	-0.768237
C	5.64188	-0.139368	-0.952387
N	5.74922	-0.933403	0.140544
C	4.8589	-0.455671	0.999452
N	4.18953	0.609414	0.498322
H	4.32543	1.64078	-1.42689
H	6.25921	-0.28205	-1.85428
H	4.6562	-0.847957	2.00904
H	3.43876	1.16012	0.982385
