18
  This energy is -1.5102 and Call times are: 13817
C	0.419909	-0.804396	0.680459
C	-0.564999	0.0500316	1.08082
C	-0.82054	0.902941	-0.0360379
C	0.030767	0.494422	-1.02029
O	0.795742	-0.547311	-0.600036
H	0.931743	-1.62753	1.20556
H	-1.06173	0.0769812	2.06399
H	-1.5548	1.72266	-0.0909725
H	0.187041	0.858029	-2.04919
C	4.12851	-0.983486	-0.302064
C	5.36679	-0.897181	0.298236
N	5.72125	0.394588	0.503659
C	4.70673	1.10695	0.032589
N	3.72145	0.321985	-0.464045
H	3.52819	-1.85252	-0.615013
H	6.01078	-1.74385	0.586804
H	4.63371	2.20644	0.0264672
H	2.81933	0.6461	-0.891121
