18
  This energy is -1.1217 and Call times are: 60444
C	-0.689132	0.823444	0.365291
C	0.564391	1.0768	-0.108909
C	1.1115	-0.193382	-0.465892
C	0.144013	-1.11079	-0.178325
O	-0.962499	-0.507362	0.330119
H	-1.47382	1.49412	0.752229
H	1.0546	2.05954	-0.198344
H	2.11025	-0.391255	-0.887139
H	0.120579	-2.20745	-0.288093
C	5.32947	1.10461	-0.237416
C	4.93994	0.602121	0.986065
N	4.62743	-0.713516	0.89689
C	4.82236	-1.02602	-0.377069
N	5.24593	0.0362454	-1.10217
H	5.64954	2.11322	-0.543694
H	4.87878	1.16531	1.93154
H	4.67011	-2.01791	-0.832269
H	5.46833	0.0444316	-2.12771
