18
  This energy is -1.1643 and Call times are: 91450
C	0.845545	0.432902	-0.619718
C	-0.196767	-0.245967	-1.17927
C	-1.04256	-0.627873	-0.0934923
C	-0.442429	-0.148667	1.03371
O	0.711768	0.501864	0.730971
H	1.73276	0.909277	-1.06823
H	-0.35423	-0.456662	-2.24927
H	-1.98617	-1.19355	-0.154277
H	-0.732043	-0.203676	2.09595
C	5.6117	0.443996	-0.902101
C	5.76849	-0.8	-0.328486
N	4.89487	-0.981363	0.691517
C	4.19875	0.145834	0.75046
N	4.59324	1.03688	-0.189758
H	6.13533	0.933005	-1.73889
H	6.49633	-1.56992	-0.632341
H	3.3888	0.371519	1.46269
H	4.19849	1.99653	-0.346269
