18
  This energy is -1.1848 and Call times are: 42149
C	0.557702	0.982686	-0.0984814
C	0.574032	0.245363	1.04889
C	-0.23158	-0.904474	0.786248
C	-0.669092	-0.768296	-0.498436
O	-0.196677	0.37854	-1.05396
H	1.0356	1.94154	-0.358214
H	1.10056	0.486952	1.98617
H	-0.45386	-1.73165	1.4794
H	-1.31212	-1.40933	-1.12361
C	4.75869	1.11481	-0.372613
C	4.07574	0.645532	0.72943
N	4.22466	-0.694873	0.862278
C	4.99706	-1.05577	-0.153486
N	5.34576	-0.000555941	-0.927125
H	4.86493	2.1297	-0.787659
H	3.47821	1.25011	1.43107
H	5.33758	-2.0795	-0.37767
H	5.9485	-0.0270344	-1.78577
