18
  This energy is -0.839 and Call times are: 45208
C	1.10808	0.211782	-0.117083
C	0.595051	-0.406321	0.985244
C	-0.813582	-0.492483	0.765137
C	-1.037	0.0805731	-0.452264
O	0.125506	0.5162	-1.00528
H	2.14075	0.488427	-0.385972
H	1.15263	-0.765549	1.8651
H	-1.56532	-0.931798	1.44041
H	-1.9643	0.237333	-1.02741
C	4.78637	0.453031	0.719625
C	5.36227	1.06979	-0.370828
N	6.26272	0.255843	-0.973482
C	6.2455	-0.861617	-0.259613
N	5.37142	-0.792415	0.77227
H	4.02694	0.80067	1.43793
H	5.14419	2.0875	-0.733531
H	6.8528	-1.76146	-0.448561
H	5.17652	-1.54426	1.47796
