18
  This energy is -2.1981 and Call times are: 58113
C	0.339276	0.162642	1.06997
C	0.652807	1.02935	0.0645439
C	0.055847	0.490998	-1.1161
C	-0.56978	-0.657167	-0.72793
O	-0.406994	-0.873167	0.603932
H	0.583725	0.170617	2.14488
H	1.24505	1.95493	0.146115
H	0.0932161	0.916181	-2.13194
H	-1.15594	-1.39826	-1.29578
C	5.19908	-0.426804	0.917513
C	6.3617	0.313138	0.961728
N	6.7809	0.63949	-0.284978
C	5.88176	0.104043	-1.09952
N	4.90785	-0.549468	-0.422758
H	4.57905	-0.860303	1.71825
H	6.90555	0.617368	1.87086
H	5.88852	0.16026	-2.19998
H	4.08724	-1.05355	-0.839608
