18
  This energy is -1.6318 and Call times are: 131441
C	-1.1243	-0.101182	-0.110096
C	-0.318895	0.266228	-1.14774
C	1.01008	0.282013	-0.62458
C	0.899475	-0.0771443	0.686582
O	-0.396959	-0.314866	1.01788
H	-2.21551	-0.244345	-0.0467532
H	-0.629489	0.502436	-2.1782
H	1.93475	0.532894	-1.16876
H	1.6574	-0.198344	1.47786
C	4.57029	0.632126	0.673082
C	5.87424	0.941761	0.34903
N	6.41924	-0.0102528	-0.446679
C	5.45706	-0.90708	-0.61562
N	4.32245	-0.565153	0.0396126
H	3.82603	1.1614	1.2891
H	6.43153	1.83503	0.675119
H	5.52989	-1.83253	-1.20931
H	3.42495	-1.10857	0.0609967
