18
  This energy is -1.116 and Call times are: 127243
C	0.569781	0.752845	-0.62847
C	0.55667	-0.579835	-0.918585
C	-0.255903	-1.19046	0.0848993
C	-0.667612	-0.17702	0.899644
O	-0.172737	1.01671	0.478802
H	1.06257	1.60448	-1.12559
H	1.06792	-1.08246	-1.7553
H	-0.499933	-2.26066	0.18092
H	-1.30543	-0.175012	1.79877
C	5.64537	-0.062599	-0.982174
C	4.27697	-0.198214	-0.881143
N	3.86669	-0.0689413	0.403954
C	4.97636	0.146053	1.09752
N	6.07567	0.158933	0.306995
H	6.32089	-0.106592	-1.85124
H	3.57835	-0.38702	-1.71249
H	5.04087	0.300587	2.18665
H	7.06692	0.309072	0.617057
