18
  This energy is -1.1195 and Call times are: 62514
C	-0.165708	-1.08865	-0.271614
C	-1.08813	-0.120359	-0.539799
C	-0.525766	1.10015	-0.055843
C	0.690659	0.769955	0.465359
O	0.92689	-0.562716	0.342089
H	-0.167832	-2.174	-0.464693
H	-2.06642	-0.252338	-1.02932
H	-0.981345	2.10264	-0.0955256
H	1.471	1.38284	0.945658
C	4.10921	0.469306	-0.829252
C	4.44472	1.03187	0.384048
N	5.26038	0.214144	1.09294
C	5.43024	-0.851669	0.322344
N	4.75647	-0.745977	-0.847464
H	3.47676	0.835559	-1.65351
H	4.11285	2.01315	0.760632
H	6.03779	-1.73809	0.566004
H	4.73184	-1.45476	-1.62095
