18
  This energy is -0.8267 and Call times are: 15435
C	-0.0926913	-0.989291	-0.546912
C	0.452939	-0.891981	0.69936
C	0.393811	0.49262	1.04505
C	-0.182732	1.11919	-0.0204932
O	-0.486306	0.229361	-1.00185
H	-0.255708	-1.85627	-1.20799
H	0.856568	-1.71288	1.31361
H	0.742482	0.958701	1.98062
H	-0.428019	2.17875	-0.200576
C	5.49599	0.138088	1.16482
C	4.32938	0.0673785	0.43327
N	4.58949	-0.0944572	-0.886831
C	5.91243	-0.124034	-0.973902
N	6.50485	0.0122742	0.236075
H	5.67374	0.264807	2.24458
H	3.30467	0.130236	0.834336
H	6.49909	-0.243301	-1.89902
H	7.53619	0.0205408	0.429799
