18
  This energy is -2.0863 and Call times are: 8990
C	-0.73683	-0.611348	0.608059
C	-0.382122	-0.949721	-0.664757
C	0.54979	0.046194	-1.0888
C	0.682293	0.905239	-0.0376779
O	-0.0962948	0.518913	1.0071
H	-1.42559	-1.08637	1.32585
H	-0.740742	-1.81394	-1.24666
H	1.05737	0.107671	-2.06485
H	1.2902	1.81594	0.0900991
C	4.35866	0.879394	0.564546
C	5.64118	0.42206	0.781665
N	5.9404	-0.606227	-0.0487586
C	4.84767	-0.786129	-0.778276
N	3.86558	0.0850658	-0.446444
H	3.78123	1.68695	1.042
H	6.35596	0.815639	1.52263
H	4.71284	-1.54145	-1.56919
H	2.9105	0.144168	-0.877234
