18
  This energy is -0.9457 and Call times are: 22694
C	0.560864	0.363115	-0.916504
C	-0.767667	0.608142	-0.728518
C	-1.10441	0.00110586	0.519772
C	0.048068	-0.561285	0.984403
O	1.07517	-0.349903	0.119887
H	1.2465	0.63854	-1.73461
H	-1.44279	1.1609	-1.40139
H	-2.09254	-0.0103683	1.00718
H	0.265155	-1.13049	1.90317
C	4.44733	0.629939	-0.284052
C	5.76307	0.9663	-0.522421
N	6.60352	0.00831143	-0.0615368
C	5.81218	-0.918834	0.460766
N	4.50306	-0.590469	0.351312
H	3.50666	1.15515	-0.513923
H	6.121	1.88306	-1.0187
H	6.13892	-1.85774	0.936085
H	3.68617	-1.15752	0.686574
