18
  This energy is -1.5721 and Call times are: 110769
C	0.376433	-1.02685	0.300478
C	0.58807	-0.506135	-0.942279
C	-0.0263135	0.783287	-0.935766
C	-0.559156	0.936696	0.310395
O	-0.322628	-0.159174	1.0786
H	0.66842	-1.99072	0.748745
H	1.12315	-0.982271	-1.77958
H	-0.0622992	1.50566	-1.76702
H	-1.12202	1.76693	0.767724
C	5.06983	0.408826	-1.0398
C	5.63225	0.656964	0.194405
N	4.94814	0.0252851	1.17903
C	3.96505	-0.612304	0.558022
N	3.9953	-0.412487	-0.780914
H	5.34889	0.747291	-2.05029
H	6.51939	1.28047	0.392054
H	3.19516	-1.23953	1.03561
H	3.32745	-0.807885	-1.48724
