18
  This energy is -1.376 and Call times are: 95066
C	0.0941042	-0.608854	0.952283
C	-0.270058	-1.1663	-0.238099
C	-0.276836	-0.0968491	-1.18485
C	0.0837843	1.01972	-0.489438
O	0.314092	0.725454	0.817228
H	0.230676	-1.04833	1.95401
H	-0.509855	-2.22446	-0.430212
H	-0.522931	-0.160951	-2.25696
H	0.210926	2.06829	-0.805019
C	4.84112	-0.387769	0.907576
C	4.66866	-1.01129	-0.310056
N	3.86532	-0.282715	-1.12267
C	3.54064	0.788715	-0.411862
N	4.1041	0.77206	0.819328
H	5.41695	-0.677657	1.80084
H	5.1095	-1.9738	-0.616782
H	2.89353	1.61622	-0.744607
H	3.99946	1.50334	1.56467
