18
  This energy is -1.4258 and Call times are: 133535
C	0.109503	1.08273	-0.319533
C	1.05327	0.139083	-0.600973
C	0.564003	-1.08161	-0.0436241
C	-0.635555	-0.776155	0.529202
O	-0.928831	0.541313	0.370205
H	0.0599607	2.15922	-0.551869
H	1.99909	0.287701	-1.14635
H	1.05505	-2.06762	-0.070945
H	-1.36586	-1.39815	1.07236
C	5.29348	0.734527	0.896053
C	6.51157	0.470422	0.306442
N	6.38271	-0.42778	-0.700106
C	5.08959	-0.719783	-0.734799
N	4.39034	-0.0446072	0.207952
H	5.01471	1.39959	1.72883
H	7.48109	0.91188	0.589289
H	4.60146	-1.42132	-1.43036
H	3.35708	-0.10344	0.381624
