18
  This energy is -1.2339 and Call times are: 25999
C	0.0467817	1.05194	-0.421472
C	-1.09895	0.522545	0.0956587
C	-0.762734	-0.799808	0.518104
C	0.558769	-0.961753	0.221832
O	1.0692	0.159237	-0.352496
H	0.261731	2.03875	-0.863346
H	-2.08221	1.01394	0.171978
H	-1.43349	-1.53753	0.987083
H	1.24152	-1.81487	0.367749
C	4.61805	-0.963025	-0.597092
C	4.15448	-0.909293	0.70035
N	3.882	0.365864	1.06946
C	4.17542	1.10041	0.00504748
N	4.6233	0.345482	-1.02601
H	4.93405	-1.81151	-1.22459
H	4.01174	-1.76778	1.37672
H	4.0809	2.19546	-0.0734592
H	4.91833	0.691102	-1.97193
