18
  This energy is -1.0486 and Call times are: 123224
C	0.0500698	-0.728081	0.868212
C	0.295719	-1.1078	-0.418583
C	0.137437	0.070087	-1.21082
C	-0.190963	1.06562	-0.338215
O	-0.24877	0.595981	0.935799
H	0.0557526	-1.29735	1.81222
H	0.561699	-2.1162	-0.774218
H	0.256295	0.156525	-2.30284
H	-0.405514	2.13527	-0.496524
C	5.80634	0.458012	-0.724657
C	6.04161	-0.317035	0.391183
N	4.88047	-0.673584	0.992128
C	3.92848	-0.12183	0.251913
N	4.43577	0.571003	-0.795096
H	6.4943	0.921683	-1.44941
H	7.02837	-0.625342	0.773404
H	2.84367	-0.193542	0.431539
H	3.88917	1.09451	-1.52203
