18
  This energy is -0.9002 and Call times are: 18336
C	0.638724	0.746105	0.567238
C	0.835737	-0.600607	0.65628
C	-0.149681	-1.19663	-0.188604
C	-0.861878	-0.161518	-0.719359
O	-0.394015	1.03219	-0.268596
H	1.15887	1.59407	1.04227
H	1.59847	-1.12199	1.25669
H	-0.302887	-2.272	-0.373506
H	-1.71284	-0.142854	-1.4199
C	4.56192	-0.70864	-0.054039
C	5.76171	-0.970425	0.572944
N	6.62123	0.0683711	0.436441
C	5.95719	0.971163	-0.272528
N	4.71079	0.549845	-0.592778
H	3.64334	-1.30882	-0.151713
H	6.02256	-1.89024	1.12136
H	6.33633	1.9575	-0.584958
H	3.99433	1.08072	-1.14606
