18
  This energy is -0.9865 and Call times are: 110289
C	-0.493214	-0.358949	0.956188
C	-0.757606	0.863641	0.412365
C	0.0428377	0.948087	-0.767583
C	0.725708	-0.230354	-0.840646
O	0.410505	-1.04051	0.204009
H	-0.877753	-0.854507	1.86272
H	-1.44713	1.62921	0.802944
H	0.0973222	1.79215	-1.47376
H	1.45491	-0.608414	-1.57589
C	4.48997	-0.604926	-0.717647
C	5.6318	-1.06872	-0.0993721
N	6.20444	-0.101822	0.658069
C	5.42084	0.957771	0.510252
N	4.37336	0.705144	-0.309842
H	3.77596	-1.09799	-1.39633
H	6.0527	-2.08368	-0.186256
H	5.56776	1.94375	0.979811
H	3.61657	1.37889	-0.582986
