18
  This energy is -1.0492 and Call times are: 29967
C	0.000816153	-1.10894	0.238011
C	-0.494407	-0.176833	1.1019
C	-0.321254	1.08552	0.456443
C	0.264494	0.813373	-0.744894
O	0.46845	-0.521874	-0.894986
H	0.0770097	-2.20624	0.311338
H	-0.937217	-0.359843	2.09413
H	-0.603119	2.07585	0.848728
H	0.581614	1.47251	-1.56965
C	6.47388	-0.49516	0.82813
C	5.65221	-1.14543	-0.0680645
N	5.02136	-0.263741	-0.881183
C	5.45003	0.928967	-0.49091
N	6.32748	0.84271	0.536821
H	7.13051	-0.877039	1.62596
H	5.50328	-2.23498	-0.14252
H	5.15357	1.8982	-0.923264
H	6.80524	1.64259	1.01973
