18
  This energy is -1.0654 and Call times are: 98396
C	0.780464	-0.235868	-0.788444
C	0.824204	0.899673	-0.0341187
C	-0.310546	0.838238	0.831148
C	-0.947542	-0.329423	0.529193
O	-0.295004	-0.998117	-0.457749
H	1.44607	-0.612139	-1.58258
H	1.57975	1.70025	-0.0821874
H	-0.609736	1.58171	1.58734
H	-1.86083	-0.791176	0.938995
C	4.84731	-0.956387	-0.588239
C	4.43082	0.341868	-0.793705
N	5.04326	1.19314	0.064647
C	5.83667	0.425904	0.799815
N	5.75444	-0.878243	0.444807
H	4.57156	-1.8989	-1.0874
H	3.69939	0.679562	-1.54592
H	6.49907	0.767474	1.61148
H	6.28133	-1.67756	0.874617
