18
  This energy is -2.2363 and Call times are: 61384
C	-0.410204	-1.02873	-0.244625
C	-0.293745	-0.574428	1.03616
C	0.253581	0.741076	0.936158
C	0.423269	0.974527	-0.396914
O	0.0230669	-0.0957092	-1.13274
H	-0.781296	-1.98411	-0.650578
H	-0.565955	-1.11177	1.9588
H	0.490108	1.42648	1.76584
H	0.813728	1.84954	-0.942016
C	4.09845	0.976782	0.52175
C	4.2903	0.602965	-0.791489
N	3.69132	-0.583935	-1.05417
C	3.13001	-0.945064	0.0917584
N	3.34702	-0.0371397	1.07266
H	4.43234	1.86301	1.08447
H	4.85019	1.16841	-1.55415
H	2.54866	-1.86442	0.267921
H	3.00754	-0.0946276	2.06398
