18
  This energy is -1.189 and Call times are: 61580
C	0.189752	1.04479	-0.398497
C	1.01435	-0.00485701	-0.678946
C	0.451936	-1.13383	-0.00869475
C	-0.66669	-0.674413	0.622167
O	-0.842114	0.653969	0.394926
H	0.227499	2.10476	-0.699002
H	1.92709	0.0139943	-1.29591
H	0.841921	-2.16435	-0.00266584
H	-1.41148	-1.1853	1.25425
C	6.3843	1.17491	0.0666224
C	6.67786	0.29222	1.08438
N	6.60105	-0.991028	0.655564
C	6.26114	-0.904761	-0.623359
N	6.11849	0.380182	-1.02605
H	6.34699	2.27564	0.043367
H	6.9437	0.558312	2.12042
H	6.10362	-1.75112	-1.31118
H	5.85551	0.70848	-1.98747
