18
  This energy is -0.6166 and Call times are: 123448
C	-0.107998	-0.749904	0.844027
C	-1.10461	-0.516181	-0.0573729
C	-0.598898	0.477069	-0.950587
C	0.662098	0.762626	-0.516167
O	0.978356	0.0224626	0.578891
H	-0.0491039	-1.43148	1.70846
H	-2.09637	-0.995165	-0.0900169
H	-1.12061	0.921305	-1.81347
H	1.42464	1.46306	-0.894556
C	6.23513	0.694167	0.169556
C	4.92386	1.09387	0.0213879
N	4.10547	0.0285182	-0.156873
C	4.90599	-1.02808	-0.119436
N	6.1998	-0.679167	0.0752561
H	7.16007	1.2706	0.330074
H	4.55365	2.13187	0.0399174
H	4.5971	-2.08012	-0.229124
H	7.01978	-1.33069	0.14171
