18
  This energy is -0.6594 and Call times are: 99588
C	0.997149	-0.539738	-0.0278787
C	0.677417	0.450041	-0.910196
C	-0.64016	0.875729	-0.559628
C	-1.00927	0.108504	0.505969
O	-0.021398	-0.761415	0.844149
H	1.90481	-1.15553	0.0826062
H	1.30631	0.841146	-1.72606
H	-1.23595	1.66251	-1.04964
H	-1.93489	0.0850108	1.10424
C	6.20951	-0.173283	1.14506
C	5.09081	-0.564053	0.440116
N	5.18252	-0.201084	-0.862326
C	6.35365	0.412529	-0.964987
N	7.01091	0.455028	0.218145
H	6.48292	-0.293828	2.20537
H	4.21915	-1.10139	0.84795
H	6.77873	0.849508	-1.88291
H	7.95172	0.884738	0.395554
