18
  This energy is -0.8647 and Call times are: 73785
C	0.760772	-0.224233	0.810769
C	0.0928863	0.963139	0.744058
C	-0.763121	0.866771	-0.395275
C	-0.542764	-0.370983	-0.924218
O	0.384929	-1.05095	-0.200313
H	1.51789	-0.598382	1.51931
H	0.192977	1.82082	1.4285
H	-1.45868	1.63488	-0.769838
H	-0.976695	-0.87922	-1.80094
C	5.68501	0.92747	-0.538201
C	4.34184	0.708271	-0.316849
N	4.13848	-0.463972	0.331997
C	5.35087	-0.970076	0.512485
N	6.31722	-0.168444	0.00537375
H	6.21792	1.75807	-1.02774
H	3.51585	1.37496	-0.613698
H	5.58798	-1.92436	1.00983
H	7.35107	-0.347617	0.0229333
