18
  This energy is -0.9358 and Call times are: 98880
C	0.332428	-0.442349	0.99006
C	-0.982087	-0.33698	0.641746
C	-0.996138	0.260353	-0.655603
C	0.311031	0.467274	-0.985553
O	1.13613	0.0440081	0.00795792
H	0.819154	-0.83944	1.89597
H	-1.85434	-0.648628	1.23853
H	-1.88145	0.503922	-1.2647
H	0.778208	0.901314	-1.88478
C	4.98548	1.02567	0.565674
C	4.2801	-0.134631	0.805063
N	4.66908	-1.12492	-0.0343009
C	5.61217	-0.581045	-0.791529
N	5.83938	0.714249	-0.468759
H	4.94168	2.01784	1.04233
H	3.49749	-0.274968	1.56839
H	6.16888	-1.08637	-1.59711
H	6.53373	1.35854	-0.92045
