18
  This energy is -1.9732 and Call times are: 31509
C	-0.138972	-0.230729	1.10175
C	0.702699	-0.950204	0.305308
C	0.605738	-0.366028	-0.994482
C	-0.286625	0.65886	-0.877582
O	-0.751461	0.755938	0.395806
H	-0.386981	-0.319797	2.17217
H	1.329	-1.8064	0.603232
H	1.14192	-0.67924	-1.9047
H	-0.669546	1.38262	-1.61569
C	3.97826	-0.239784	-1.14576
C	4.467	-1.08375	-0.171089
N	4.4675	-0.480376	1.04236
C	3.98092	0.733296	0.821309
N	3.67084	0.927151	-0.482479
H	3.83233	-0.382263	-2.22833
H	4.81927	-2.11723	-0.321695
H	3.83057	1.51967	1.57844
H	3.2722	1.80007	-0.907155
