18
  This energy is -0.7884 and Call times are: 96397
C	0.00516536	0.189127	1.1183
C	-1.11702	0.338187	0.357476
C	-0.729407	0.014468	-0.978593
C	0.595423	-0.303835	-0.916273
O	1.06044	-0.202537	0.35672
H	0.180678	0.329313	2.19756
H	-2.11739	0.645294	0.702493
H	-1.3695	0.0206805	-1.87544
H	1.31026	-0.614072	-1.69603
C	7.20857	0.88392	-0.318911
C	6.25099	0.268921	-1.09734
N	5.61887	-0.712871	-0.409571
C	6.18217	-0.706971	0.790965
N	7.14649	0.237877	0.895569
H	7.90653	1.7081	-0.536011
H	6.00488	0.51603	-2.14291
H	5.92654	-1.37312	1.63069
H	7.73477	0.439827	1.74079
