18
  This energy is -0.7555 and Call times are: 60380
C	0.478066	-0.134139	1.01974
C	-0.626743	0.64225	0.827404
C	-0.923489	0.561338	-0.567413
C	0.0261788	-0.257353	-1.1043
O	0.890328	-0.691244	-0.149318
H	1.05827	-0.368034	1.92743
H	-1.17749	1.21452	1.59113
H	-1.75005	1.0584	-1.10015
H	0.193495	-0.603829	-2.13736
C	5.479	0.431365	-0.929394
C	4.41174	-0.441333	-0.951475
N	3.99017	-0.729542	0.303804
C	4.79285	-0.0382704	1.10159
N	5.70767	0.677825	0.405955
H	6.07218	0.879511	-1.74232
H	3.93834	-0.868181	-1.85067
H	4.75461	-0.0202793	2.2027
H	6.44975	1.30188	0.807363
