18
  This energy is -1.4258 and Call times are: 65327
C	0.422269	0.134554	1.04402
C	-0.802395	-0.421563	0.817517
C	-0.976926	-0.418784	-0.600104
C	0.156492	0.138786	-1.11474
O	1.0219	0.482627	-0.124865
H	0.972686	0.335229	1.97785
H	-1.51171	-0.796159	1.57293
H	-1.84846	-0.790796	-1.16236
H	0.464067	0.343328	-2.1534
C	4.63157	1.06441	0.256656
C	4.4598	0.521947	-0.999279
N	3.93759	-0.726378	-0.925116
C	3.78599	-0.957464	0.371895
N	4.19008	0.0920823	1.12605
H	5.02366	2.04098	0.582403
H	4.7033	1.00893	-1.95761
H	3.38375	-1.87834	0.824021
H	4.17074	0.15344	2.17349
