18
  This energy is -1.1789 and Call times are: 1598
C	0.266897	1.0739	0.248792
C	0.53436	0.0395608	1.09671
C	0.0574232	-1.13655	0.441416
C	-0.459387	-0.717086	-0.749101
O	-0.339873	0.630021	-0.883379
H	0.456023	2.15661	0.33384
H	1.0189	0.0988424	2.08454
H	0.0986539	-2.17045	0.820148
H	-0.933871	-1.27082	-1.57584
C	5.46713	-0.00916769	0.969507
C	4.15784	0.411531	0.869918
N	3.69864	0.283562	-0.398652
C	4.71917	-0.21463	-1.08344
N	5.80867	-0.408949	-0.303172
H	6.15698	-0.0509567	1.82736
H	3.53631	0.805104	1.69068
H	4.7228	-0.455979	-2.1586
H	6.73674	-0.791304	-0.609362
