18
  This energy is -0.4532 and Call times are: 110417
C	0.398842	-0.881506	0.591838
C	1.09403	0.284608	0.460424
C	0.27729	1.13839	-0.342139
C	-0.844892	0.418646	-0.630313
O	-0.787575	-0.817257	-0.0679332
H	0.636421	-1.81857	1.12166
H	2.08278	0.519949	0.885958
H	0.506892	2.16732	-0.662583
H	-1.74372	0.669538	-1.21718
C	5.46257	0.0613474	0.552326
C	5.91002	-0.961479	-0.256843
N	7.15381	-0.702799	-0.728652
C	7.47673	0.476022	-0.214137
N	6.48997	0.978111	0.565483
H	4.51727	0.197187	1.10141
H	5.35769	-1.88146	-0.508668
H	8.42296	1.01708	-0.3758
H	6.50475	1.8917	1.08163
