18
  This energy is -0.831 and Call times are: 116235
C	0.714514	0.86304	0.17616
C	1.11406	-0.43974	0.235367
C	-0.0513539	-1.21893	-0.0381254
C	-1.06018	-0.323522	-0.240317
O	-0.61033	0.952609	-0.11328
H	1.26907	1.80503	0.318874
H	2.12776	-0.81444	0.450093
H	-0.120893	-2.31789	-0.0776089
H	-2.12717	-0.465699	-0.478141
C	7.94657	-0.143338	0.804898
C	6.70503	0.423231	1.00168
N	5.9823	0.426776	-0.14469
C	6.77247	-0.135455	-1.0492
N	7.96801	-0.496583	-0.525871
H	8.78828	-0.314442	1.49467
H	6.31781	0.829511	1.95028
H	6.52546	-0.307159	-2.10927
H	8.76031	-0.957794	-1.03656
