18
  This energy is -1.5392 and Call times are: 29743
C	-0.717204	-0.65448	-0.586238
C	-0.688049	0.702247	-0.723412
C	0.330312	1.16333	0.165666
C	0.833565	0.047662	0.767657
O	0.205456	-1.07144	0.320324
H	-1.33943	-1.42505	-1.0703
H	-1.32025	1.3167	-1.38437
H	0.644674	2.20636	0.331097
H	1.62829	-0.0813544	1.52066
C	4.77037	-0.321695	1.12463
C	5.82709	0.377051	0.580358
N	5.6488	0.576007	-0.748227
C	4.48589	0.00286715	-1.02711
N	3.91687	-0.552512	0.0689589
H	4.57195	-0.659751	2.15414
H	6.71496	0.741198	1.12251
H	4.00444	-0.0392642	-2.0174
H	3.00018	-1.06189	0.107282
