18
  This energy is -2.1351 and Call times are: 98094
C	0.0986774	-0.690814	-0.894114
C	0.173048	0.666348	-1.00793
C	0.00534397	1.17939	0.314485
C	-0.156703	0.0904498	1.11967
O	-0.102454	-1.06004	0.398259
H	0.172339	-1.49275	-1.64693
H	0.330234	1.24784	-1.93057
H	0.00664974	2.23775	0.621025
H	-0.316386	0.00236425	2.20687
C	3.48963	0.428827	-0.96991
C	4.47784	1.03045	-0.219819
N	4.83361	0.25405	0.832388
C	4.06902	-0.825127	0.735427
N	3.24151	-0.767556	-0.334857
H	2.96297	0.756463	-1.8803
H	4.94049	2.01082	-0.419008
H	4.07429	-1.68757	1.42128
H	2.54384	-1.49558	-0.625529
