18
  This energy is -1.6924 and Call times are: 126684
C	0.793266	0.116933	0.802157
C	0.521937	-1.08272	0.212588
C	-0.520266	-0.828136	-0.730344
C	-0.793809	0.504611	-0.633746
O	-0.00095919	1.09744	0.297357
H	1.51792	0.400529	1.58299
H	1.00704	-2.04989	0.420811
H	-1.00388	-1.55867	-1.39857
H	-1.51927	1.14243	-1.16491
C	4.75751	0.282756	1.04682
C	4.93303	-0.899343	0.359083
N	4.2602	-0.884845	-0.817182
C	3.66952	0.301735	-0.859011
N	3.93863	1.04282	0.24188
H	5.14447	0.625458	2.01962
H	5.53309	-1.76242	0.690553
H	3.02882	0.679068	-1.67225
H	3.58992	2.01179	0.443782
