18
  This energy is -0.2312 and Call times are: 53833
C	0.298878	0.503629	0.971304
C	-0.0351908	1.21136	-0.145785
C	-0.34625	0.239921	-1.14562
C	-0.174806	-0.975689	-0.551248
O	0.219069	-0.8335	0.741677
H	0.607249	0.829556	1.97824
H	-0.0600726	2.30753	-0.254792
H	-0.66026	0.433146	-2.18396
H	-0.299245	-2.00143	-0.935474
C	5.6751	0.184305	-1.03711
C	5.75871	-1.00967	-0.352585
N	6.43562	-0.859019	0.81172
C	6.77068	0.423536	0.84935
N	6.33501	1.09518	-0.242748
H	5.20827	0.441659	-2.00116
H	5.34273	-1.97711	-0.677952
H	7.33499	0.923223	1.65315
H	6.47353	2.11542	-0.445687
