18
  This energy is -1.8096 and Call times are: 62772
C	-0.31943	0.844434	-0.68651
C	0.477447	-0.178707	-1.10905
C	0.65507	-1.02965	0.0242891
C	-0.048944	-0.45139	1.03935
O	-0.650427	0.693984	0.623001
H	-0.716054	1.72777	-1.21344
H	0.897992	-0.320019	-2.11765
H	1.24072	-1.96191	0.0691243
H	-0.198422	-0.752056	2.08935
C	3.92336	-0.508063	-0.992525
C	4.63189	-1.10797	0.0269015
N	4.90136	-0.225752	1.01967
C	4.36205	0.917118	0.617653
N	3.76061	0.798639	-0.589747
H	3.53635	-0.905293	-1.94435
H	4.95348	-2.16157	0.0638617
H	4.37837	1.87128	1.1686
H	3.26478	1.55759	-1.11834
