18
  This energy is -1.4205 and Call times are: 89194
C	0.171754	-0.604571	-0.944137
C	-0.885269	-0.832736	-0.112863
C	-0.759518	0.114664	0.948616
C	0.363247	0.838138	0.672291
O	0.944633	0.412403	-0.47999
H	0.480829	-1.09055	-1.88411
H	-1.67437	-1.59202	-0.234917
H	-1.43173	0.235977	1.8132
H	0.847291	1.67037	1.20926
C	5.49159	-0.393508	-0.853463
C	5.42881	-0.712018	0.486594
N	6.40094	-0.0774426	1.18573
C	7.06428	0.632042	0.282825
N	6.55451	0.475195	-0.961813
H	4.87564	-0.712898	-1.70911
H	4.69948	-1.38833	0.961498
H	7.93111	1.2835	0.478873
H	6.90265	0.928898	-1.84171
