18
  This energy is -1.5369 and Call times are: 93966
C	-0.657324	-0.648812	0.658308
C	-0.59472	-0.808327	-0.69484
C	0.325985	0.178359	-1.16267
C	0.744735	0.853722	-0.0541131
O	0.15434	0.361803	1.06681
H	-1.23307	-1.18337	1.43163
H	-1.142	-1.54674	-1.30257
H	0.634499	0.35707	-2.20525
H	1.45006	1.69205	0.068263
C	5.53389	0.642262	-0.972111
C	5.62485	-0.731297	-0.89333
N	5.81756	-1.13567	0.385674
C	5.84605	-0.0172338	1.09765
N	5.67945	1.08201	0.324664
H	5.38098	1.31546	-1.83057
H	5.55487	-1.43777	-1.73645
H	5.98598	0.0540088	2.18832
H	5.66409	2.07926	0.651019
