18
  This energy is -1.1495 and Call times are: 122872
C	0.532079	-0.519035	0.856677
C	-0.187965	0.626223	1.03073
C	-0.697618	0.967489	-0.259197
C	-0.244025	0.000647696	-1.10763
O	0.508607	-0.9153	-0.443106
H	1.10016	-1.1407	1.56806
H	-0.344504	1.17559	1.97295
H	-1.32788	1.83406	-0.51595
H	-0.385076	-0.146178	-2.19105
C	5.65042	-0.08245	-0.689199
C	5.25441	-0.974763	0.284506
N	4.11031	-0.566522	0.885235
C	3.79773	0.574713	0.286482
N	4.69553	0.909525	-0.670311
H	6.51532	-0.0831333	-1.37147
H	5.77373	-1.90581	0.56433
H	2.92253	1.20589	0.50977
H	4.66922	1.7623	-1.28133
