18
  This energy is -1.1515 and Call times are: 119448
C	0.568363	0.580862	-0.791179
C	0.636165	-0.777858	-0.692907
C	-0.202856	-1.13266	0.407221
C	-0.709305	0.0405723	0.884104
O	-0.248858	1.09725	0.164075
H	1.0476	1.28832	-1.48766
H	1.21858	-1.46167	-1.3311
H	-0.400299	-2.14625	0.791592
H	-1.39748	0.254366	1.71834
C	5.892	0.543081	0.325727
C	4.74735	1.1349	-0.164851
N	3.79704	0.208358	-0.438633
C	4.35005	-0.953845	-0.119116
N	5.61282	-0.805182	0.346614
H	6.85341	0.971657	0.650615
H	4.59016	2.21385	-0.326156
H	3.87476	-1.94415	-0.206436
H	6.25656	-1.57107	0.663285
