18
  This energy is -1.5564 and Call times are: 13063
C	-1.01146	0.13596	-0.494841
C	-0.377378	-1.07075	-0.448295
C	0.850067	-0.840973	0.245028
C	0.857706	0.485867	0.560958
O	-0.271475	1.09794	0.11674
H	-1.97936	0.437022	-0.928179
H	-0.737848	-2.02678	-0.860812
H	1.6305	-1.58342	0.47695
H	1.59767	1.10664	1.09231
C	4.55619	-0.809885	-0.852068
C	4.63409	0.558278	-1.0044
N	4.53266	1.18953	0.190481
C	4.39238	0.216671	1.0807
N	4.40034	-1.00741	0.501772
H	4.5992	-1.62959	-1.58676
H	4.76166	1.10123	-1.95508
H	4.27993	0.344869	2.16935
H	4.30581	-1.93097	0.991015
