18
  This energy is -0.514 and Call times are: 134463
C	1.06933	0.30658	0.221249
C	0.474052	0.54884	-0.981803
C	-0.850048	0.0238607	-0.875635
C	-0.947026	-0.492863	0.382922
O	0.215942	-0.328913	1.06676
H	2.08116	0.53373	0.595217
H	0.922397	1.04723	-1.85627
H	-1.63245	0.0342868	-1.65142
H	-1.77755	-0.99617	0.904612
C	7.29329	0.428731	0.463318
C	7.03305	-0.884844	0.13477
N	5.78612	-1.02251	-0.377785
C	5.27473	0.201008	-0.367252
N	6.1446	1.11145	0.130757
H	8.18487	0.909941	0.895817
H	7.72269	-1.73571	0.258379
H	4.26799	0.486253	-0.712715
H	5.9761	2.14122	0.24229
