18
  This energy is -1.143 and Call times are: 29295
C	0.967896	0.57395	0.141982
C	-0.249399	1.10761	0.448207
C	-1.20907	0.0965887	0.13678
C	-0.493499	-0.965641	-0.332261
O	0.837628	-0.691595	-0.335969
H	1.98718	0.986986	0.217602
H	-0.451287	2.11242	0.852807
H	-2.30296	0.161658	0.251911
H	-0.809504	-1.95934	-0.689962
C	4.98304	1.13298	-0.14605
C	4.71343	0.213018	-1.13707
N	4.42328	-1.00151	-0.610518
C	4.51256	-0.835632	0.702166
N	4.84748	0.43409	1.03266
H	5.25278	2.19995	-0.194565
H	4.72306	0.403858	-2.22258
H	4.34281	-1.61058	1.46693
H	4.97885	0.813795	2.00211
