18
  This energy is -1.0091 and Call times are: 131024
C	0.693637	0.717455	-0.539006
C	-0.216529	1.13757	0.38591
C	-0.890966	-0.0392952	0.833381
C	-0.333401	-1.07469	0.142406
O	0.636056	-0.630764	-0.700263
H	1.42986	1.27141	-1.14428
H	-0.395067	2.17241	0.719591
H	-1.69639	-0.0983555	1.58298
H	-0.535589	-2.15824	0.15974
C	6.11839	0.262533	0.528246
C	5.69561	0.689825	-0.712649
N	4.46917	0.19484	-1.00817
C	4.13238	-0.536745	0.0453847
N	5.09369	-0.527763	0.998999
H	7.04503	0.458384	1.09086
H	6.25355	1.3464	-1.4
H	3.19365	-1.10008	0.170595
H	5.06408	-1.02759	1.92125
