18
  This energy is -1.716 and Call times are: 74184
C	-0.740202	-0.0360849	0.858604
C	0.237768	0.911139	0.776647
C	0.955121	0.62946	-0.425925
C	0.35219	-0.465027	-0.972683
O	-0.685099	-0.884796	-0.201427
H	-1.52687	-0.21156	1.61067
H	0.434294	1.72642	1.49134
H	1.81842	1.18293	-0.829015
H	0.563647	-1.03243	-1.89387
C	3.98323	-1.10143	0.267591
C	4.47395	-0.651729	-0.939932
N	4.73565	0.677234	-0.896594
C	4.40854	1.05057	0.333137
N	3.94955	0.0142324	1.07404
H	3.66619	-2.10301	0.59904
H	4.64385	-1.26238	-1.84164
H	4.48529	2.07036	0.743455
H	3.62908	0.0531934	2.07255
