18
  This energy is -1.1763 and Call times are: 55732
C	0.799883	0.801318	0.0669128
C	-0.501812	1.09077	-0.219762
C	-1.19081	-0.160382	-0.214817
C	-0.249324	-1.10395	0.0744429
O	0.972104	-0.53434	0.249587
H	1.68731	1.44743	0.16825
H	-0.93351	2.08554	-0.415112
H	-2.26292	-0.328547	-0.405572
H	-0.320566	-2.19869	0.18266
C	5.25141	0.965115	-0.171185
C	4.88148	0.420619	1.04035
N	4.13016	-0.693704	0.866228
C	4.03437	-0.839947	-0.448329
N	4.69358	0.135134	-1.11783
H	5.85212	1.85481	-0.418447
H	5.14323	0.81185	2.03698
H	3.49353	-1.64338	-0.973896
H	4.76596	0.239078	-2.15957
