18
  This energy is -1.2149 and Call times are: 124220
C	1.03321	-0.306093	-0.353822
C	0.808545	0.853367	0.328492
C	-0.594212	0.884229	0.595768
C	-1.10292	-0.259096	0.0531873
O	-0.123096	-0.997936	-0.530821
H	1.95743	-0.746499	-0.762606
H	1.55568	1.61091	0.614858
H	-1.15093	1.67046	1.13056
H	-2.1305	-0.656561	0.0162909
C	5.7122	-1.00507	-0.0115397
C	5.36637	-0.234249	-1.10121
N	4.65966	0.858256	-0.722373
C	4.56743	0.765548	0.597295
N	5.18616	-0.340657	1.07383
H	6.2766	-1.94795	0.0657699
H	5.61411	-0.446837	-2.15396
H	4.05806	1.48014	1.26372
H	5.2525	-0.635935	2.07865
