18
  This energy is -1.1809 and Call times are: 89514
C	-0.417513	0.320277	1.00474
C	0.898515	0.00956949	0.826116
C	1.03406	-0.340404	-0.552021
C	-0.211098	-0.212666	-1.0939
O	-1.10992	0.190005	-0.157418
H	-0.97776	0.643518	1.89743
H	1.69402	0.0252522	1.58836
H	1.95556	-0.65002	-1.07074
H	-0.582743	-0.376378	-2.11875
C	4.99964	0.708254	0.918328
C	4.42015	0.788194	-0.330247
N	4.8824	-0.189449	-1.14698
C	5.74538	-0.873291	-0.407892
N	5.85138	-0.371281	0.84524
H	4.87051	1.32269	1.8235
H	3.67679	1.53378	-0.6564
H	6.32713	-1.75022	-0.734681
H	6.4654	-0.735102	1.61457
