18
  This energy is -1.339 and Call times are: 84450
C	0.226812	0.713809	-0.851724
C	-0.708398	-0.273593	-0.955619
C	-0.704492	-0.949773	0.302508
C	0.23276	-0.315884	1.06416
O	0.81145	0.702603	0.375095
H	0.564743	1.47918	-1.56954
H	-1.33786	-0.502792	-1.83046
H	-1.33032	-1.80748	0.597087
H	0.576127	-0.491349	2.09691
C	4.35981	0.632969	0.962678
C	3.82893	-0.594032	0.625352
N	4.32846	-1.0348	-0.554778
C	5.16604	-0.0848522	-0.948076
N	5.22015	0.942066	-0.0671088
H	4.19185	1.28627	1.83361
H	3.09443	-1.16916	1.21236
H	5.76529	-0.0905485	-1.87279
H	5.80588	1.80862	-0.152304
