18
  This energy is -1.2965 and Call times are: 112698
C	-0.279525	0.434821	-1.00955
C	0.0409031	-0.880614	-0.844236
C	0.329008	-1.0412	0.545486
C	0.159204	0.190287	1.10673
O	-0.212448	1.10373	0.171578
H	-0.569146	1.00989	-1.90435
H	0.0713325	-1.6597	-1.62282
H	0.62723	-1.96954	1.05864
H	0.270453	0.54192	2.14559
C	7.36869	-0.133347	-0.0384398
C	6.60538	0.160111	1.07169
N	5.29067	0.241308	0.753139
C	5.23858	-0.000857371	-0.549652
N	6.46564	-0.23277	-1.07323
H	8.45439	-0.273781	-0.161202
H	6.97973	0.314706	2.09678
H	4.32797	-0.0206101	-1.16984
H	6.68692	-0.447419	-2.07634
