18
  This energy is -0.6104 and Call times are: 102815
C	-0.958489	0.232089	0.560209
C	-0.0585695	1.1991	0.220492
C	0.999329	0.525838	-0.463383
C	0.652488	-0.79316	-0.481203
O	-0.540297	-0.990666	0.139497
H	-1.92129	0.284594	1.09454
H	-0.132313	2.27826	0.430424
H	1.90889	0.979205	-0.889109
H	1.16165	-1.67743	-0.898415
C	7.17489	-0.157776	0.452556
C	6.62858	-0.813445	-0.630394
N	5.36746	-0.382968	-0.876951
C	5.13231	0.53626	0.0495198
N	6.19153	0.708503	0.875339
H	8.16096	-0.243477	0.936148
H	7.12178	-1.5894	-1.23825
H	4.20147	1.11381	0.168688
H	6.25212	1.37498	1.68367
