18
  This energy is -1.5238 and Call times are: 109288
C	-0.926948	0.643	0.117133
C	-0.554303	-0.278368	1.05126
C	0.643963	-0.876237	0.554444
C	0.897784	-0.267441	-0.639422
O	-0.0514931	0.663113	-0.922187
H	-1.7822	1.33731	0.0756329
H	-1.07137	-0.513417	1.99545
H	1.24068	-1.667	1.03685
H	1.7098	-0.405002	-1.37219
C	4.08647	0.00359702	1.10185
C	4.23148	-1.09097	0.27599
N	4.73838	-0.730824	-0.928113
C	4.9072	0.582169	-0.849542
N	4.52872	1.07237	0.354639
H	3.71235	0.0945683	2.13398
H	3.97943	-2.1341	0.52739
H	5.30435	1.23381	-1.64444
H	4.56522	2.07548	0.660744
