18
  This energy is -0.6108 and Call times are: 130106
C	0.91623	0.237252	0.625008
C	-0.325859	0.701831	0.944
C	-1.2027	0.198025	-0.0646839
C	-0.419034	-0.529949	-0.911024
O	0.877882	-0.516805	-0.505009
H	1.89479	0.370795	1.11475
H	-0.597377	1.33572	1.8034
H	-2.28924	0.363624	-0.14285
H	-0.660516	-1.0974	-1.82477
C	6.57995	-0.00066965	-0.651755
C	5.43779	0.73859	-0.875588
N	4.50283	0.49299	0.074172
C	5.06284	-0.395256	0.884129
N	6.31536	-0.724998	0.48909
H	7.53061	-0.0605686	-1.20512
H	5.2716	1.44477	-1.70537
H	4.60016	-0.837431	1.78114
H	6.96176	-1.40321	0.961805
