18
  This energy is -0.6917 and Call times are: 56478
C	-1.13018	0.0773977	-0.0557782
C	-0.349634	-0.0309937	-1.16905
C	0.996523	-0.103843	-0.697171
C	0.919763	-0.033539	0.662806
O	-0.37152	0.0774393	1.07181
H	-2.22266	0.160589	0.0658812
H	-0.687891	-0.0570344	-2.21738
H	1.90951	-0.197597	-1.30689
H	1.70032	-0.0517113	1.44104
C	5.4298	-0.952168	-0.171182
C	5.10424	0.353687	-0.471013
N	6.11269	1.19676	-0.141188
C	7.06025	0.416885	0.361347
N	6.69652	-0.887444	0.364941
H	4.86843	-1.8916	-0.297181
H	4.15977	0.702634	-0.919417
H	8.03981	0.748963	0.741377
H	7.27016	-1.69547	0.710325
