18
  This energy is -1.1488 and Call times are: 64804
C	0.301713	-1.09282	-0.0334323
C	-0.990269	-0.6865	-0.194867
C	-0.9682	0.737808	-0.0900907
C	0.335319	1.07613	0.126121
O	1.12479	-0.0294667	0.163656
H	0.758548	-2.09608	-0.0376216
H	-1.87053	-1.32565	-0.370146
H	-1.82795	1.42254	-0.167981
H	0.822861	2.05465	0.267717
C	4.80308	1.10613	0.26401
C	5.00075	-0.0143507	1.04285
N	4.52788	-1.12596	0.428658
C	4.03873	-0.696726	-0.726809
N	4.18075	0.641918	-0.873267
H	5.0529	2.16566	0.432952
H	5.47608	-0.0405974	2.03694
H	3.56552	-1.3201	-1.50251
H	3.87505	1.21667	-1.69635
