18
  This energy is -0.8128 and Call times are: 38931
C	-0.818912	-0.36132	-0.696585
C	-1.03742	-0.130401	0.629803
C	0.213996	0.306524	1.16195
C	1.08675	0.304033	0.113779
O	0.472906	-0.10115	-1.02904
H	-1.49099	-0.707752	-1.4988
H	-1.98479	-0.255223	1.17844
H	0.429799	0.58782	2.20522
H	2.15588	0.565538	0.0520021
C	4.99658	1.04958	-0.173337
C	5.88153	0.711624	0.828556
N	6.2624	-0.58498	0.727227
C	5.61619	-1.04963	-0.333494
N	4.83994	-0.102424	-0.911268
H	4.48429	1.99674	-0.405666
H	6.25202	1.38013	1.62271
H	5.6752	-2.07569	-0.730926
H	4.23419	-0.222679	-1.75971
