18
  This energy is -1.5564 and Call times are: 118134
C	-0.38468	0.4351	-0.974223
C	0.480647	1.10992	-0.164159
C	0.727757	0.24835	0.947935
C	-0.00837904	-0.876904	0.719284
O	-0.69401	-0.78008	-0.450138
H	-0.847941	0.707015	-1.93688
H	0.902609	2.11371	-0.332827
H	1.3794	0.451318	1.81295
H	-0.127812	-1.80378	1.304
C	4.25259	-0.542843	-0.610172
C	5.56991	-0.38387	-0.985041
N	6.2685	0.292008	-0.0407533
C	5.38791	0.551345	0.916286
N	4.15799	0.068492	0.620075
H	3.40407	-1.03145	-1.11497
H	6.0288	-0.744745	-1.91994
H	5.59049	1.0915	1.85513
H	3.29647	0.145205	1.21436
