18
  This energy is -1.3797 and Call times are: 18977
C	-0.272215	-1.09576	0.10773
C	-0.487101	-0.188463	1.10322
C	-0.0210439	1.06372	0.598292
C	0.4375	0.811067	-0.661184
O	0.291837	-0.502675	-0.977214
H	-0.473937	-2.17793	0.0487751
H	-0.92943	-0.381599	2.09375
H	-0.0301765	2.03447	1.11949
H	0.88425	1.47118	-1.4227
C	3.95227	-0.240243	-0.655121
C	3.96581	0.293636	0.616073
N	5.23383	0.438198	1.07185
C	6.00401	-0.00431594	0.0871514
N	5.27859	-0.424443	-0.976263
H	3.12041	-0.493671	-1.33138
H	3.08335	0.577106	1.21253
H	7.10524	-0.0430018	0.092297
H	5.65483	-0.81591	-1.87429
