18
  This energy is -1.0219 and Call times are: 54397
C	-0.341786	-0.575837	-0.915421
C	-0.463979	-1.07386	0.348468
C	0.0692285	-0.0726794	1.21648
C	0.470187	0.948774	0.40639
O	0.226713	0.658482	-0.898778
H	-0.617564	-0.99593	-1.8966
H	-0.887143	-2.04849	0.640253
H	0.141677	-0.116709	2.31507
H	0.936314	1.92173	0.632955
C	4.07209	0.0754778	-0.327427
C	5.00549	1.09029	-0.334537
N	6.20873	0.650565	0.107476
C	6.02249	-0.632164	0.387734
N	4.75063	-1.02682	0.142362
H	3.00848	0.0602213	-0.613874
H	4.8323	2.13188	-0.650685
H	6.78345	-1.32858	0.775255
H	4.35651	-1.98917	0.283165
