18
  This energy is -1.1256 and Call times are: 45496
C	0.879678	-0.198851	0.687768
C	0.92541	-0.45877	-0.650412
C	-0.352336	-0.0820812	-1.16577
C	-1.06608	0.374774	-0.0970185
O	-0.329128	0.310621	1.04307
H	1.63044	-0.330514	1.48418
H	1.77381	-0.874095	-1.2177
H	-0.691588	-0.147278	-2.21207
H	-2.09318	0.767235	-0.0176689
C	6.90762	0.654987	0.888781
C	6.06703	1.06566	-0.124091
N	5.8	0.0492577	-0.979742
C	6.47237	-0.988012	-0.499519
N	7.15614	-0.673728	0.626213
H	7.33238	1.19619	1.74914
H	5.64845	2.07713	-0.2528
H	6.49891	-2.00076	-0.932954
H	7.76046	-1.31925	1.19133
