18
  This energy is -0.648 and Call times are: 49718
C	-0.94425	0.47074	0.416168
C	0.22534	0.43725	1.1171
C	1.16789	-0.226104	0.273494
C	0.491073	-0.53942	-0.868489
O	-0.800159	-0.121266	-0.798648
H	-1.93589	0.881329	0.667795
H	0.406203	0.839338	2.12691
H	2.22485	-0.440598	0.49917
H	0.810896	-1.05182	-1.79066
C	7.25846	0.067646	0.196159
C	6.36104	1.11412	0.170516
N	5.10478	0.674354	-0.0843203
C	5.22242	-0.639943	-0.216269
N	6.50144	-1.05465	-0.0559512
H	8.34596	0.0429838	0.370167
H	6.5975	2.17858	0.331328
H	4.40414	-1.34617	-0.430513
H	6.85001	-2.04284	-0.11286
