18
  This energy is -0.8812 and Call times are: 65952
C	0.130015	0.435738	-1.03905
C	-0.505123	-0.751071	-0.818921
C	-0.468017	-0.958245	0.593814
C	0.186519	0.120252	1.11227
O	0.558893	0.981694	0.129283
H	0.338825	0.991986	-1.96762
H	-0.954662	-1.41411	-1.57548
H	-0.883067	-1.81385	1.15038
H	0.446959	0.388239	2.14939
C	4.22397	0.453235	0.147747
C	4.97609	-0.216809	1.08929
N	6.17011	-0.601957	0.576959
C	6.15877	-0.172481	-0.677651
N	5.00703	0.469963	-0.984824
H	3.22039	0.904294	0.201718
H	4.67857	-0.429235	2.1291
H	6.96763	-0.301518	-1.41476
H	4.75802	0.899055	-1.90956
