18
  This energy is -0.9083 and Call times are: 132453
C	-0.157102	-0.936786	-0.619799
C	-0.812767	-0.72079	0.556561
C	-0.356648	0.54673	1.0314
C	0.537479	0.993403	0.103283
O	0.671618	0.0999664	-0.911995
H	-0.192478	-1.77663	-1.333
H	-1.54423	-1.38719	1.0413
H	-0.664154	1.05848	1.95749
H	1.13675	1.91718	0.0507686
C	4.64055	-0.880306	0.182733
C	4.35905	0.356757	-0.357246
N	5.47264	1.12627	-0.422554
C	6.4413	0.369477	0.0750169
N	5.9902	-0.849667	0.454207
H	3.99741	-1.75122	0.386238
H	3.37238	0.707825	-0.700882
H	7.49893	0.658658	0.184674
H	6.56001	-1.62402	0.874857
