18
  This energy is -2.9635 and Call times are: 103725
C	0.0209065	-0.93379	-0.643429
C	0.0965442	0.320544	-1.17381
C	0.0399342	1.21826	-0.0642929
C	-0.0652991	0.433261	1.04615
O	-0.078382	-0.883766	0.711064
H	0.0273851	-1.92934	-1.11681
H	0.18348	0.586912	-2.23944
H	0.0742514	2.31905	-0.0986479
H	-0.137588	0.686796	2.11654
C	3.68325	0.481789	0.87897
C	5.0529	0.501207	0.721401
N	5.42433	-0.152176	-0.40627
C	4.28942	-0.575326	-0.946224
N	3.21128	-0.218264	-0.208854
H	3.03272	0.902562	1.66211
H	5.77973	0.974962	1.40119
H	4.19066	-1.15091	-1.88067
H	2.20715	-0.433665	-0.424701
