18
  This energy is -1.6406 and Call times are: 74681
C	-0.7479	-0.638291	0.565359
C	-0.772026	-0.515093	-0.792806
C	0.309114	0.356987	-1.12557
C	0.898471	0.689719	0.058631
O	0.26586	0.0908037	1.10176
H	-1.38844	-1.20688	1.25938
H	-1.48012	-0.990624	-1.49035
H	0.605932	0.692048	-2.13241
H	1.76223	1.33455	0.289652
C	4.49085	0.96968	-0.590965
C	5.5775	0.821049	0.244643
N	5.63027	-0.431401	0.759517
C	4.58035	-1.05737	0.24528
N	3.86173	-0.255129	-0.575444
H	4.13267	1.83162	-1.17604
H	6.32438	1.59508	0.48524
H	4.2911	-2.10335	0.436329
H	2.99119	-0.51638	-1.10001
