18
  This energy is -1.1185 and Call times are: 97388
C	0.895673	-0.479417	0.504312
C	0.995152	0.18694	-0.681625
C	-0.324452	0.639962	-0.987455
C	-1.11383	0.21045	0.0385914
O	-0.385196	-0.474905	0.958586
H	1.65202	-0.993951	1.11949
H	1.90638	0.34373	-1.28094
H	-0.63979	1.21783	-1.87104
H	-2.19359	0.326251	0.228242
C	5.89949	-0.631179	-0.947108
C	6.64653	-0.451792	0.197832
N	5.99531	0.33589	1.08776
C	4.84862	0.643988	0.497159
N	4.74325	0.0849903	-0.731666
H	6.10208	-1.19886	-1.86919
H	7.64374	-0.876609	0.397707
H	4.05044	1.27531	0.919733
H	3.9348	0.179195	-1.39408
