18
  This energy is -0.7007 and Call times are: 14175
C	0.190329	0.736863	-0.840957
C	-0.699702	-0.290132	-0.957146
C	-0.659374	-0.98544	0.289866
C	0.251739	-0.321957	1.058
O	0.780544	0.732586	0.383232
H	0.489947	1.52813	-1.54762
H	-1.32218	-0.533634	-1.83311
H	-1.24437	-1.87523	0.572985
H	0.60747	-0.498142	2.08643
C	5.48029	-0.970998	-0.324828
C	4.21519	-0.906238	0.219647
N	3.85785	0.375948	0.47425
C	4.89733	1.10385	0.0891879
N	5.90123	0.337959	-0.399863
H	6.09048	-1.82736	-0.653252
H	3.55386	-1.76171	0.433333
H	4.97612	2.20163	0.143161
H	6.82436	0.676726	-0.766368
