18
  This energy is -1.2778 and Call times are: 20647
C	0.672732	0.911565	0.0536808
C	0.171209	0.307203	1.16885
C	-0.617092	-0.787435	0.699308
C	-0.527699	-0.755359	-0.661337
O	0.25608	0.275807	-1.07292
H	1.32866	1.78889	-0.0700737
H	0.339495	0.602601	2.21695
H	-1.18153	-1.5095	1.31098
H	-0.968617	-1.40112	-1.43841
C	5.15929	-0.612024	0.758852
C	4.82153	0.722017	0.844862
N	4.04891	1.09897	-0.202744
C	3.9079	0.00294854	-0.935871
N	4.55876	-1.05574	-0.398158
H	5.76432	-1.25555	1.41715
H	5.12148	1.41928	1.64405
H	3.33856	-0.0800101	-1.87566
H	4.59839	-2.02913	-0.7883
