18
  This energy is -0.7323 and Call times are: 30392
C	0.764124	-0.523674	-0.654432
C	-0.50825	-0.990377	-0.500723
C	-1.15628	-0.0750329	0.383766
C	-0.222701	0.87022	0.692475
O	0.955972	0.611886	0.0671709
H	1.61628	-0.903608	-1.24157
H	-0.946509	-1.88906	-0.963742
H	-2.19688	-0.122915	0.742873
H	-0.272217	1.7639	1.33601
C	5.86232	1.11875	-0.0471147
C	6.4302	0.0950006	0.681305
N	5.75435	-1.06581	0.501682
C	4.77093	-0.763341	-0.334989
N	4.79304	0.541794	-0.695159
H	6.13437	2.18157	-0.146857
H	7.31548	0.173163	1.33324
H	4.00655	-1.45944	-0.716305
H	4.12326	1.02259	-1.34438
