18
  This energy is -1.0759 and Call times are: 13215
C	-0.218236	-0.682873	0.878896
C	-0.126698	0.671544	1.01137
C	0.154077	1.17416	-0.295788
C	0.20933	0.0825191	-1.11165
O	-0.0157249	-1.06003	-0.410971
H	-0.420173	-1.47755	1.61576
H	-0.245023	1.25787	1.93674
H	0.29673	2.22766	-0.585404
H	0.398064	-0.0128101	-2.19357
C	5.9649	-0.154581	-0.0647615
C	5.15106	-0.43842	1.01145
N	3.85828	-0.136217	0.739553
C	3.87009	0.333314	-0.500618
N	5.11678	0.342387	-1.02907
H	7.05134	-0.267311	-0.207876
H	5.47351	-0.855848	1.97924
H	2.99419	0.684329	-1.06967
H	5.386	0.666285	-1.99025
