18
  This energy is -1.5479 and Call times are: 4451
C	0.977625	-0.523845	0.237144
C	0.8793	0.833616	0.147665
C	-0.488212	1.10708	-0.160953
C	-1.10483	-0.107407	-0.232822
O	-0.22461	-1.11458	0.00763224
H	1.83471	-1.182	0.455054
H	1.68858	1.56863	0.28519
H	-0.950025	2.09629	-0.310287
H	-2.1505	-0.38506	-0.444323
C	4.68414	-0.751016	0.89869
C	5.13823	-1.04263	-0.37013
N	5.14239	0.0630088	-1.15374
C	4.69258	1.03683	-0.37402
N	4.4024	0.596635	0.873222
H	4.54615	-1.38595	1.78827
H	5.46293	-2.031	-0.734192
H	4.55611	2.09065	-0.665692
H	4.03316	1.17227	1.66919
