18
  This energy is -0.8956 and Call times are: 119352
C	-1.11164	0.155323	-0.162918
C	-0.172682	0.632877	-1.02934
C	1.09112	0.242007	-0.49069
C	0.812894	-0.439897	0.657339
O	-0.527477	-0.502463	0.872982
H	-2.2123	0.216316	-0.171176
H	-0.352035	1.20318	-1.95491
H	2.08646	0.449	-0.915592
H	1.47069	-0.922761	1.39856
C	6.24838	-0.251366	-1.14013
C	7.23717	-0.090357	-0.192761
N	6.70824	0.193471	1.02222
C	5.3963	0.208483	0.82933
N	5.06856	-0.054027	-0.458019
H	6.29911	-0.484629	-2.21556
H	8.32276	-0.173902	-0.364151
H	4.63014	0.406238	1.59622
H	4.1002	-0.0987161	-0.859943
