18
  This energy is -1.0194 and Call times are: 135025
C	-0.245806	-1.10678	0.0319742
C	-0.975285	-0.217425	-0.701023
C	-0.365963	1.05687	-0.488858
C	0.682075	0.833731	0.355059
O	0.770306	-0.482111	0.683372
H	-0.346336	-2.1957	0.171252
H	-1.85429	-0.436745	-1.3282
H	-0.678602	2.022	-0.918832
H	1.42936	1.51787	0.789544
C	4.87401	-0.261948	-1.13411
C	4.2416	0.854956	-0.630396
N	4.21882	0.834257	0.724434
C	4.83476	-0.291208	1.05995
N	5.2485	-0.987464	-0.0252448
H	5.07728	-0.581179	-2.16866
H	3.80134	1.67536	-1.22028
H	5.01002	-0.653832	2.08563
H	5.75756	-1.90513	-0.0224535
