18
  This energy is -1.0331 and Call times are: 28598
C	-0.0390788	1.08135	0.339946
C	-0.666604	0.0789253	1.01946
C	-0.389662	-1.1191	0.292708
C	0.382651	-0.74301	-0.766756
O	0.606634	0.59739	-0.753604
H	0.0229186	2.1656	0.529183
H	-1.26453	0.17363	1.94012
H	-0.730176	-2.13794	0.537853
H	0.829986	-1.32569	-1.58872
C	5.57058	-0.0552625	1.07731
C	6.22499	0.251999	-0.0967767
N	5.37493	0.223748	-1.15181
C	4.19763	-0.0998102	-0.634212
N	4.26339	-0.278599	0.706423
H	5.93058	-0.128357	2.11586
H	7.29529	0.493565	-0.201505
H	3.25469	-0.219233	-1.19173
H	3.46979	-0.537938	1.34219
