18
  This energy is -2.5226 and Call times are: 129821
C	-0.193037	1.11764	-0.00313997
C	0.032576	0.418599	1.14612
C	0.230014	-0.938271	0.746076
C	0.107624	-0.94861	-0.612338
O	-0.15081	0.298458	-1.08673
H	-0.393706	2.18691	-0.181036
H	0.0574661	0.818348	2.17261
H	0.438421	-1.79972	1.40072
H	0.181671	-1.76729	-1.34686
C	3.11678	0.794868	-0.642757
C	3.83236	-0.285754	-1.11324
N	4.37685	-0.992716	-0.0933195
C	4.0005	-0.353106	1.00572
N	3.23911	0.731513	0.727356
H	2.54813	1.57834	-1.16844
H	3.96551	-0.567968	-2.17035
H	4.2544	-0.636018	2.03999
H	2.82154	1.39733	1.42276
