18
  This energy is -1.3083 and Call times are: 16508
C	0.284786	1.09165	-0.116657
C	0.0235574	0.286598	-1.18625
C	-0.292931	-0.995671	-0.642433
C	-0.197166	-0.861005	0.711475
O	0.154706	0.407234	1.05025
H	0.569913	2.15468	-0.0540961
H	0.0509823	0.567539	-2.25134
H	-0.55968	-1.90659	-1.20205
H	-0.352401	-1.58212	1.53071
C	5.74522	-0.116373	-0.245012
C	5.03847	1.06227	-0.133444
N	3.73642	0.82552	0.158337
C	3.6358	-0.494977	0.227519
N	4.81985	-1.10823	-0.00814847
H	6.8058	-0.312949	-0.468738
H	5.44472	2.07924	-0.258257
H	2.71877	-1.065	0.447462
H	4.99885	-2.14226	-0.0100657
