18
  This energy is -1.5189 and Call times are: 122551
C	-0.94969	0.0448014	-0.618452
C	-0.0848292	-1.00791	-0.68324
C	0.97279	-0.701598	0.226558
C	0.660862	0.51125	0.766997
O	-0.509973	0.981801	0.262282
H	-1.89956	0.243865	-1.14129
H	-0.181898	-1.90967	-1.30894
H	1.85877	-1.31865	0.446513
H	1.18256	1.13651	1.51005
C	4.38949	0.936006	-0.0645173
C	5.5182	0.700217	-0.820542
N	6.09585	-0.477956	-0.481823
C	5.32843	-0.971197	0.480672
N	4.28643	-0.155697	0.7684
H	3.67611	1.77542	-0.0604155
H	5.92608	1.35911	-1.60434
H	5.48379	-1.92553	1.0092
H	3.54189	-0.323145	1.48873
