18
  This energy is -0.7245 and Call times are: 17245
C	0.495376	0.94792	-0.377428
C	-0.604744	0.969794	0.42857
C	-0.927967	-0.397426	0.686163
C	0.00317006	-1.13409	0.0148377
O	0.880266	-0.328722	-0.640212
H	1.08978	1.7611	-0.825398
H	-1.1354	1.85947	0.804047
H	-1.75905	-0.778575	1.30107
H	0.147842	-2.22327	-0.0747177
C	6.66836	0.1202	0.074635
C	5.92261	-0.97318	0.461306
N	4.60249	-0.769997	0.23216
C	4.52955	0.444812	-0.294663
N	5.74855	1.023	-0.410217
H	7.75237	0.313289	0.109036
H	6.31344	-1.90501	0.901521
H	3.6088	0.959261	-0.613716
H	5.95385	1.9772	-0.795709
