18
  This energy is -0.6676 and Call times are: 74361
C	0.250628	-1.10465	0.0578075
C	1.07722	-0.198355	-0.53864
C	0.4268	1.06692	-0.411593
C	-0.739843	0.822128	0.251275
O	-0.86379	-0.498835	0.545737
H	0.340508	-2.19431	0.198523
H	2.04763	-0.400548	-1.0198
H	0.792645	2.04079	-0.774668
H	-1.55496	1.49297	0.568763
C	5.16661	0.203906	-0.687244
C	5.29121	-0.782668	0.267896
N	6.50294	-0.727492	0.87219
C	7.1277	0.289443	0.294135
N	6.3637	0.883598	-0.652906
H	4.33842	0.461802	-1.36631
H	4.52848	-1.5333	0.531817
H	8.14559	0.641914	0.526259
H	6.63213	1.70545	-1.24769
