18
  This energy is -1.0561 and Call times are: 110033
C	0.141294	-1.12141	0.0941648
C	-1.07195	-0.557878	-0.171976
C	-0.847525	0.8521	-0.213344
C	0.483056	1.02571	0.0311689
O	1.10239	-0.168977	0.221297
H	0.447946	-2.17327	0.215845
H	-2.02894	-1.08246	-0.32392
H	-1.59591	1.63808	-0.403739
H	1.10198	1.9357	0.0952904
C	4.34995	-0.773242	0.874457
C	4.96619	0.45758	0.954864
N	4.96219	1.08542	-0.246098
C	4.3458	0.247282	-1.06842
N	3.95746	-0.887814	-0.440462
H	4.16897	-1.54981	1.63454
H	5.41362	0.903834	1.85792
H	4.15219	0.414882	-2.14018
H	3.45341	-1.70035	-0.872872
