18
  This energy is -1.8161 and Call times are: 114083
C	0.786606	0.727119	-0.37276
C	0.409545	0.666956	0.936659
C	-0.585887	-0.35471	1.01035
C	-0.729247	-0.828683	-0.260545
O	0.101277	-0.179329	-1.11821
H	1.52165	1.36261	-0.893451
H	0.793833	1.28048	1.76733
H	-1.12685	-0.690817	1.90951
H	-1.37925	-1.61474	-0.678704
C	4.84117	-0.81715	-0.806452
C	6.09838	-0.387711	-0.437485
N	6.02672	0.5663	0.522326
C	4.72997	0.728089	0.747942
N	3.97359	-0.0834351	-0.0285302
H	4.51341	-1.56791	-1.54298
H	7.05588	-0.749154	-0.846639
H	4.27963	1.42727	1.47083
H	2.92587	-0.142461	-0.0364413
