18
  This energy is -1.1808 and Call times are: 18752
C	0.595893	-0.471598	-0.841967
C	-0.140543	0.663355	-1.01494
C	-0.735949	0.940213	0.253512
C	-0.310795	-0.0499963	1.08964
O	0.503387	-0.92096	0.437301
H	1.22144	-1.05083	-1.54085
H	-0.253193	1.24703	-1.94269
H	-1.40202	1.78123	0.504772
H	-0.513696	-0.244008	2.15568
C	5.45099	-0.958699	0.512442
C	6.02007	0.296049	0.458577
N	5.22476	1.16493	-0.211529
C	4.16632	0.451922	-0.572008
N	4.25521	-0.834603	-0.159041
H	5.80067	-1.89975	0.965964
H	6.99027	0.589962	0.891225
H	3.29743	0.822267	-1.13956
H	3.54796	-1.59304	-0.319754
