18
  This energy is -0.6751 and Call times are: 118648
C	-0.628018	-0.142498	-0.933643
C	0.437121	0.708487	-0.89267
C	0.962893	0.613305	0.431951
C	0.172634	-0.287443	1.0835
O	-0.804055	-0.759131	0.2646
H	-1.33134	-0.394964	-1.7441
H	0.814693	1.3399	-1.71295
H	1.82917	1.15625	0.842901
H	0.20087	-0.672347	2.11612
C	5.69627	0.650619	0.959312
C	4.83347	-0.250332	0.37193
N	5.39472	-0.823517	-0.720301
C	6.60111	-0.280221	-0.810167
N	6.83071	0.614885	0.179609
H	5.5869	1.29323	1.84736
H	3.81606	-0.497045	0.716674
H	7.35657	-0.501944	-1.58111
H	7.70613	1.17495	0.325294
