18
  This energy is -0.5227 and Call times are: 115466
C	0.110862	-0.0105228	1.12872
C	1.07982	0.480997	0.304158
C	0.57974	0.323069	-1.02441
C	-0.650669	-0.251017	-0.894439
O	-0.95312	-0.461791	0.413655
H	0.0586483	-0.0945129	2.22666
H	2.04946	0.911581	0.60165
H	1.08455	0.606859	-1.96181
H	-1.3987	-0.554748	-1.64507
C	7.45122	0.166914	0.178692
C	6.80221	-1.04152	0.0386572
N	5.47285	-0.8627	-0.154583
C	5.29783	0.451678	-0.134505
N	6.46072	1.11656	0.0634994
H	8.51243	0.410183	0.346568
H	7.26934	-2.03923	0.0735941
H	4.33918	0.980389	-0.259762
H	6.58426	2.15721	0.118741
