18
  This energy is -0.7827 and Call times are: 108839
C	-0.0324898	0.177587	1.11974
C	1.08768	0.406748	0.376038
C	0.739965	0.0713833	-0.968114
C	-0.561988	-0.333109	-0.92715
O	-1.04965	-0.2746	0.340041
H	-0.231232	0.295623	2.19761
H	2.06116	0.775006	0.737712
H	1.39025	0.127922	-1.85582
H	-1.24454	-0.6817	-1.71953
C	7.07219	-0.0612833	-0.0854259
C	6.227	0.720805	-0.843797
N	4.93489	0.542311	-0.476222
C	4.97834	-0.347128	0.506446
N	6.24452	-0.741954	0.779347
H	8.16754	-0.177752	-0.0994645
H	6.52637	1.41067	-1.6496
H	4.11269	-0.744016	1.06085
H	6.53952	-1.43462	1.51041
