18
  This energy is -0.798 and Call times are: 78431
C	-0.68035	0.757429	-0.499827
C	-0.804388	-0.584883	-0.707644
C	0.215042	-1.19869	0.0823676
C	0.872047	-0.177284	0.703211
O	0.338473	1.02434	0.359109
H	-1.24748	1.61448	-0.898684
H	-1.53997	-1.09193	-1.35257
H	0.427015	-2.27627	0.171757
H	1.72336	-0.17429	1.40358
C	5.94796	-0.980274	-0.0656082
C	5.89473	0.0399879	-0.991555
N	5.04245	1.01602	-0.594713
C	4.56875	0.60284	0.572983
N	5.0843	-0.595632	0.935559
H	6.52022	-1.92143	-0.04883
H	6.45602	0.0893214	-1.93885
H	3.84219	1.13894	1.2046
H	4.86743	-1.13001	1.81229
