18
  This energy is -0.9597 and Call times are: 102109
C	0.326488	-0.44476	-0.990956
C	-0.460763	-1.12503	-0.109006
C	-0.651896	-0.24769	1.00178
C	0.0354276	0.891268	0.700562
O	0.639022	0.788383	-0.512739
H	0.727723	-0.724165	-1.97898
H	-0.866206	-2.14258	-0.228645
H	-1.235	-0.44975	1.91461
H	0.170719	1.8326	1.25809
C	5.74704	0.668784	-0.46941
C	5.66962	0.2254	0.833879
N	4.5581	-0.524748	1.0296
C	3.94828	-0.546652	-0.147799
N	4.62571	0.158464	-1.08454
H	6.49575	1.29061	-0.985454
H	6.39588	0.433335	1.63648
H	3.00318	-1.06381	-0.379265
H	4.34939	0.291132	-2.08819
