18
  This energy is -1.092 and Call times are: 30983
C	0.0191919	1.12128	0.169593
C	-1.12496	0.386199	0.274243
C	-0.749731	-0.963202	-0.00582831
C	0.590589	-0.933599	-0.256901
O	1.07667	0.331384	-0.154155
H	0.210135	2.19918	0.299724
H	-2.13213	0.757009	0.523641
H	-1.40813	-1.84665	-0.0167543
H	1.30362	-1.73326	-0.516461
C	4.59633	-0.134078	-0.93379
C	4.37072	0.669402	0.163783
N	5.39078	0.581518	1.05163
C	6.24595	-0.273232	0.506918
N	5.8123	-0.732841	-0.690701
H	3.9976	-0.316073	-1.8404
H	3.4902	1.31094	0.330952
H	7.2048	-0.59773	0.942285
H	6.30793	-1.41528	-1.3151
