18
  This energy is -1.1905 and Call times are: 56286
C	-0.462283	-0.0947078	-1.03137
C	0.678705	-0.753776	-0.679021
C	0.940079	-0.385946	0.676155
C	-0.06426	0.465426	1.0323
O	-0.929699	0.654565	0.00164635
H	-1.03441	-0.0758196	-1.97348
H	1.27634	-1.43102	-1.31011
H	1.78066	-0.721293	1.30469
H	-0.272712	0.996114	1.97579
C	4.66491	0.449029	-0.697207
C	5.99758	0.277874	-1.00682
N	6.6745	-0.267976	0.032573
C	5.76524	-0.434818	0.983379
N	4.53784	-0.01775	0.59204
H	3.82597	0.856375	-1.28353
H	6.48277	0.538468	-1.96156
H	5.9442	-0.857863	1.98499
H	3.6572	-0.0448111	1.16212
