18
  This energy is 0.1334 and Call times are: 66881
C	-0.86168	-0.632784	0.378805
C	0.381312	-1.1488	0.157289
C	1.1796	-0.0596122	-0.308023
C	0.353961	1.02585	-0.329775
O	-0.896462	0.694017	0.08657
H	-1.79339	-1.09919	0.738865
H	0.703708	-2.19181	0.306579
H	2.244	-0.0902258	-0.591236
H	0.532994	2.07495	-0.617151
C	4.48575	-0.57019	0.297107
C	4.36796	0.764393	-0.0287137
N	3.08365	1.08499	-0.319003
C	2.40726	-0.0463944	-0.173823
N	3.20797	-1.07357	0.196808
H	5.3593	-1.17709	0.583688
H	5.18667	1.5017	-0.0595315
H	1.32399	-0.178645	-0.326364
H	2.91182	-2.06461	0.374001
