18
  This energy is -2.2247 and Call times are: 129298
C	0.397218	0.952677	0.470133
C	0.21827	-0.195076	1.18499
C	-0.288434	-1.1574	0.25908
C	-0.374395	-0.512757	-0.939845
O	0.040297	0.776752	-0.829355
H	0.766649	1.94825	0.766122
H	0.422589	-0.348644	2.25679
H	-0.555093	-2.20544	0.470261
H	-0.709993	-0.856163	-1.93216
C	4.03454	-0.770898	0.886862
C	4.80461	-0.882493	-0.251421
N	4.63573	0.189818	-1.06268
C	3.76421	0.963702	-0.430083
N	3.37157	0.428239	0.750045
H	3.91538	-1.43771	1.7556
H	5.47904	-1.71753	-0.501851
H	3.37941	1.93293	-0.786126
H	2.69165	0.846803	1.43105
