18
  This energy is -1.2772 and Call times are: 76127
C	0.361166	0.0922482	-1.07119
C	0.51871	1.09349	-0.158464
C	-0.0547368	0.608739	1.05656
C	-0.512083	-0.645933	0.779065
O	-0.266469	-0.977623	-0.515797
H	0.648249	0.0190811	-2.13302
H	0.991326	2.07495	-0.324184
H	-0.115135	1.13963	2.0202
H	-1.02289	-1.39358	1.40783
C	5.38825	-0.787004	0.379971
C	4.28557	-1.03525	-0.409715
N	3.59485	0.104251	-0.656596
C	4.26647	1.0558	-0.0224798
N	5.35589	0.568967	0.617634
H	6.16769	-1.45697	0.776406
H	3.97601	-2.01616	-0.805751
H	4.00453	2.12575	0.0059286
H	6.04467	1.11956	1.18658
