18
  This energy is -0.4086 and Call times are: 115733
C	0.914814	-0.215896	-0.634748
C	0.0642505	0.815243	-0.906167
C	-0.948382	0.761913	0.0997392
C	-0.627232	-0.297107	0.897055
O	0.507774	-0.905791	0.463148
H	1.83247	-0.559048	-1.14013
H	0.142113	1.54064	-1.7319
H	-1.81176	1.43774	0.208993
H	-1.11856	-0.714462	1.7913
C	7.42892	0.225832	-0.244212
C	6.8732	0.0413385	1.0041
N	5.54268	-0.200373	0.91577
C	5.274	-0.165961	-0.382403
N	6.37842	0.0876249	-1.12372
H	8.4631	0.438596	-0.558439
H	7.40846	0.0783054	1.9669
H	4.28556	-0.319757	-0.844527
H	6.42549	0.164338	-2.16926
