18
  This energy is -1.1964 and Call times are: 24574
C	-0.0385089	1.00436	-0.525521
C	0.363574	0.873445	0.77123
C	0.277266	-0.520942	1.06847
C	-0.169938	-1.11902	-0.0728797
O	-0.368047	-0.20245	-1.05658
H	-0.132972	1.88945	-1.17587
H	0.688362	1.67807	1.45033
H	0.521833	-1.01239	2.02386
H	-0.384489	-2.17409	-0.309642
C	4.36354	0.217111	0.965853
C	3.88963	0.0597578	-0.31937
N	4.90224	-0.179293	-1.18769
C	6.00017	-0.170276	-0.443985
N	5.72811	0.0646041	0.861544
H	3.84365	0.420053	1.91562
H	2.8352	0.114434	-0.635661
H	7.02912	-0.330125	-0.804444
H	6.42407	0.119985	1.64502
