18
  This energy is -0.8917 and Call times are: 61516
C	-0.0246535	-0.315244	1.08923
C	-0.744374	-0.959124	0.126005
C	-0.455667	-0.280344	-1.09712
C	0.414992	0.718407	-0.773352
O	0.689207	0.711851	0.557728
H	0.0638235	-0.488635	2.17429
H	-1.41164	-1.82519	0.263053
H	-0.854583	-0.515488	-2.09695
H	0.905176	1.48947	-1.39014
C	5.42183	-0.0581627	-0.840418
C	4.5923	1.00864	-0.566629
N	3.76541	0.73102	0.470525
C	4.08076	-0.503316	0.838758
N	5.07402	-1.02257	0.0788911
H	6.20879	-0.194738	-1.59909
H	4.57564	1.97367	-1.09887
H	3.61583	-1.07446	1.65844
H	5.49833	-1.97782	0.172262
