18
  This energy is -1.1479 and Call times are: 11170
C	-1.00002	0.470059	0.255749
C	-0.0222273	1.1497	-0.409372
C	1.06782	0.236294	-0.542042
C	0.659917	-0.920882	0.0537182
O	-0.600506	-0.796003	0.546416
H	-2.01046	0.771352	0.577434
H	-0.0643425	2.1899	-0.770358
H	2.0389	0.427489	-1.02634
H	1.16617	-1.8905	0.190807
C	6.07247	0.737965	-0.281583
C	5.68359	-0.387312	-0.977043
N	4.64177	-1.00298	-0.367061
C	4.38531	-0.262462	0.702747
N	5.22077	0.798852	0.798734
H	6.86848	1.47514	-0.472617
H	6.13608	-0.765982	-1.90802
H	3.59708	-0.452011	1.44906
H	5.21989	1.52899	1.5525
