18
  This energy is -2.2381 and Call times are: 83107
C	0.0693998	0.433031	1.04598
C	0.321285	-0.881068	0.78127
C	0.133084	-1.03955	-0.625706
C	-0.217193	0.19169	-1.09658
O	-0.260953	1.10305	-0.0893436
H	0.0907823	1.00635	1.98731
H	0.610593	-1.66061	1.50426
H	0.247461	-1.9664	-1.21049
H	-0.457673	0.544496	-2.11292
C	3.19525	0.506303	-0.873516
C	3.91512	-0.667932	-0.937601
N	4.48709	-0.956217	0.256656
C	4.12345	0.0354028	1.05857
N	3.3438	0.942673	0.424059
H	2.60738	1.04433	-1.63409
H	4.03204	-1.31228	-1.82416
H	4.39998	0.146356	2.11945
H	2.93112	1.81275	0.841102
