18
  This energy is -1.3374 and Call times are: 137050
C	0.677415	-0.518604	0.747369
C	0.61663	-0.889908	-0.563666
C	-0.333532	-0.0154167	-1.17406
C	-0.769499	0.813079	-0.182138
O	-0.162589	0.519946	0.998008
H	1.27019	-0.908714	1.59098
H	1.18397	-1.6985	-1.05193
H	-0.649357	-0.0111705	-2.22967
H	-1.49878	1.63974	-0.18782
C	5.0114	-0.62433	-0.856606
C	4.44826	-1.11558	0.302139
N	3.94936	-0.113476	1.06595
C	4.20205	0.995234	0.383645
N	4.84103	0.740108	-0.78263
H	5.50487	-1.1322	-1.70046
H	4.393	-2.17513	0.600717
H	3.94087	2.02038	0.692012
H	5.14816	1.44701	-1.49483
