18
  This energy is -0.8836 and Call times are: 105185
C	-0.560551	0.0370782	-0.985296
C	-0.249703	-1.13751	-0.365538
C	0.444826	-0.777219	0.829427
C	0.497083	0.585726	0.834406
O	-0.112063	1.09966	-0.26642
H	-1.09078	0.248068	-1.92848
H	-0.485803	-2.15552	-0.714822
H	0.854286	-1.46035	1.59085
H	0.933223	1.29802	1.5539
C	4.32994	0.126496	0.00648086
C	5.26123	1.06226	-0.391249
N	6.52177	0.580388	-0.267332
C	6.37304	-0.649636	0.205476
N	5.07013	-0.970365	0.387527
H	3.22955	0.162303	0.0440726
H	5.04618	2.07647	-0.765402
H	7.18461	-1.35841	0.436206
H	4.69524	-1.88108	0.749903
