18
  This energy is -2.239 and Call times are: 44649
C	-0.131731	1.00385	-0.511201
C	-0.544656	0.776154	0.76865
C	-0.210372	-0.583434	1.0513
C	0.377319	-1.06654	-0.0807763
O	0.433627	-0.110683	-1.04523
H	-0.182255	1.90326	-1.14663
H	-1.03542	1.49363	1.44576
H	-0.390419	-1.12969	1.99114
H	0.791918	-2.05887	-0.322927
C	3.50444	0.378851	-1.09696
C	4.04542	-0.833416	-0.724282
N	4.12762	-0.937888	0.624362
C	3.63949	0.205221	1.08659
N	3.25011	1.03269	0.0879497
H	3.2896	0.80821	-2.08844
H	4.37789	-1.63455	-1.40436
H	3.54425	0.488149	2.1473
H	2.8338	1.98993	0.195768
