18
  This energy is -0.5072 and Call times are: 117135
C	0.63411	-0.691018	-0.637808
C	1.17827	0.282721	0.147112
C	0.0772689	0.931023	0.785566
C	-1.0425	0.296222	0.334435
O	-0.72108	-0.697077	-0.535655
H	1.09737	-1.43468	-1.30685
H	2.2477	0.520603	0.264713
H	0.123327	1.7715	1.4966
H	-2.11118	0.454612	0.553738
C	5.82004	0.403459	-0.941254
C	5.47647	0.582814	0.381975
N	6.36976	-0.0187225	1.2046
C	7.26409	-0.569162	0.39478
N	6.97687	-0.342787	-0.909003
H	5.33922	0.742736	-1.87251
H	4.60004	1.13548	0.757846
H	8.14881	-1.14889	0.703673
H	7.53004	-0.672856	-1.73745
