18
  This energy is -0.7816 and Call times are: 50462
C	0.486074	0.994192	0.248427
C	0.986893	-0.19464	0.691408
C	0.113466	-1.20204	0.179177
C	-0.843988	-0.539891	-0.531602
O	-0.631958	0.802143	-0.499994
H	0.828421	2.03178	0.394887
H	1.88162	-0.346897	1.3162
H	0.196353	-2.29068	0.327858
H	-1.71693	-0.904001	-1.09786
C	5.01549	0.197592	0.750793
C	4.94002	-0.447481	-0.465484
N	6.15283	-0.497698	-1.06803
C	6.97757	0.113896	-0.228752
N	6.33978	0.551169	0.882826
H	4.24619	0.422554	1.50651
H	4.03218	-0.877562	-0.919041
H	8.05813	0.269133	-0.37879
H	6.77178	1.06218	1.69122
