18
  This energy is -1.4022 and Call times are: 93287
C	0.287021	-0.344857	-1.04168
C	-0.885881	-0.709727	-0.448765
C	-0.884657	-0.0866903	0.836513
C	0.288884	0.603909	0.915555
O	1.01685	0.457398	-0.222691
H	0.713047	-0.586288	-2.02933
H	-1.67297	-1.35307	-0.873846
H	-1.67061	-0.150927	1.60609
H	0.716613	1.22937	1.71624
C	4.06119	0.103797	-1.17167
C	4.00266	-1.0647	-0.442061
N	4.07429	-0.814446	0.887884
C	4.17686	0.504288	0.982974
N	4.17347	1.10348	-0.231338
H	4.03187	0.288535	-2.25728
H	3.91003	-2.08385	-0.851454
H	4.25736	1.08295	1.91727
H	4.24311	2.13335	-0.420471
