18
  This energy is -0.6956 and Call times are: 56510
C	-0.200736	0.528718	0.983139
C	-1.18243	-0.108568	0.28277
C	-0.548966	-0.642532	-0.880726
C	0.763909	-0.284407	-0.788642
O	0.994375	0.431371	0.343417
H	-0.223997	1.08129	1.93675
H	-2.24596	-0.194068	0.557873
H	-1.0237	-1.22435	-1.68708
H	1.62205	-0.474795	-1.45392
C	6.23017	-0.364116	0.622328
C	5.13645	-1.11736	0.251458
N	4.25218	-0.377294	-0.460491
C	4.79526	0.83048	-0.531027
N	5.98841	0.889556	0.10653
H	7.1333	-0.622862	1.19761
H	4.96955	-2.18157	0.484834
H	4.36182	1.70803	-1.03726
H	6.61076	1.73021	0.191696
