18
  This energy is -2.0482 and Call times are: 126620
C	0.486832	-0.209226	1.00281
C	0.795137	0.88991	0.256332
C	-0.0116101	0.803077	-0.919141
C	-0.74169	-0.341454	-0.787214
O	-0.449995	-0.972316	0.380664
H	0.859178	-0.556997	1.98039
H	1.51813	1.68233	0.508191
H	-0.0384782	1.51479	-1.75988
H	-1.49185	-0.810043	-1.44519
C	5.04757	0.648949	0.950088
C	5.91723	0.294523	-0.0594759
N	5.29483	-0.458654	-0.998549
C	4.04381	-0.571051	-0.573177
N	3.84443	0.0793902	0.597618
H	5.19481	1.24625	1.86392
H	6.98262	0.568771	-0.1271
H	3.23293	-1.11829	-1.08036
H	2.94473	0.138549	1.13456
