18
  This energy is -1.7129 and Call times are: 66753
C	0.032029	-0.599679	0.962164
C	-0.419083	-1.12659	-0.212244
C	-0.306224	-0.0810451	-1.17879
C	0.203892	0.992488	-0.509701
O	0.416558	0.69357	0.798898
H	0.128385	-1.03591	1.96997
H	-0.793736	-2.14897	-0.38098
H	-0.575975	-0.131596	-2.24592
H	0.45728	2.01104	-0.846748
C	4.79629	-0.62161	-0.593922
C	5.27204	0.633053	-0.911137
N	6.19257	1.04934	-0.00789291
C	6.28752	0.0567137	0.866345
N	5.46557	-0.973901	0.556792
H	4.0536	-1.26717	-1.0891
H	4.96758	1.24536	-1.77556
H	6.94321	0.0325386	1.75162
H	5.35852	-1.8705	1.0915
