18
  This energy is -1.0133 and Call times are: 2859
C	0.268563	-0.941306	-0.572903
C	-0.728095	-0.101177	-0.974438
C	-0.762439	0.953124	-0.0114277
C	0.216263	0.664192	0.893577
O	0.856043	-0.48929	0.566202
H	0.651825	-1.88019	-1.00518
H	-1.37427	-0.212702	-1.85994
H	-1.44054	1.82156	-0.00181991
H	0.551739	1.19226	1.80124
C	5.73795	-0.682531	0.465919
C	5.55301	-0.394485	-0.869735
N	4.48954	0.425917	-1.04997
C	4.01654	0.645989	0.169231
N	4.73496	-0.000380182	1.11774
H	6.48733	-1.30394	0.981499
H	6.16788	-0.763928	-1.70658
H	3.14651	1.27231	0.424176
H	4.56106	0.0151573	2.15252
