18
  This energy is -1.0323 and Call times are: 84706
C	0.144185	0.362041	-1.06515
C	0.300932	-0.94568	-0.710646
C	0.0389643	-1.00459	0.692215
C	-0.254743	0.272326	1.07114
O	-0.195209	1.12008	0.0105852
H	0.244487	0.873239	-2.03668
H	0.573673	-1.78466	-1.37081
H	0.0682078	-1.89834	1.336
H	-0.518943	0.701552	2.05156
C	4.5644	-0.292012	1.08958
C	3.97059	-0.682815	-0.091859
N	4.61921	-0.160415	-1.16092
C	5.61163	0.551763	-0.644663
N	5.62134	0.504153	0.708566
H	4.31786	-0.516632	2.13949
H	3.08577	-1.33236	-0.192025
H	6.36027	1.12774	-1.21214
H	6.30397	0.982583	1.34605
