18
  This energy is -0.8171 and Call times are: 73252
C	0.880134	0.523293	-0.487781
C	1.01185	-0.226333	0.64407
C	-0.296817	-0.712972	0.94523
C	-1.11271	-0.217765	-0.0291722
O	-0.410656	0.539461	-0.912766
H	1.61818	1.08832	-1.08048
H	1.93768	-0.417433	1.21012
H	-0.587379	-1.3564	1.7912
H	-2.19554	-0.329852	-0.202837
C	6.46101	-0.91347	-0.337237
C	6.67856	-0.0903094	0.747301
N	5.71847	0.86175	0.838487
C	4.90838	0.630102	-0.185588
N	5.31325	-0.429882	-0.924579
H	7.02299	-1.78025	-0.719869
H	7.51108	-0.166312	1.46563
H	4.0043	1.20611	-0.440692
H	4.84251	-0.810763	-1.78166
