18
  This energy is -2.023 and Call times are: 60026
C	-0.4212	-0.209973	1.03194
C	-0.028484	-1.2059	0.186788
C	0.437367	-0.554176	-0.995735
C	0.288202	0.782473	-0.768814
O	-0.234829	1.01084	0.464594
H	-0.843875	-0.239021	2.04966
H	-0.0633506	-2.29065	0.377006
H	0.835506	-1.03316	-1.90466
H	0.513713	1.66023	-1.39646
C	4.24053	1.1688	0.131786
C	4.85606	0.224662	0.926063
N	4.5964	-1.02989	0.484267
C	3.82272	-0.864676	-0.580041
N	3.57935	0.442993	-0.833744
H	4.22667	2.2691	0.183582
H	5.48287	0.426229	1.80999
H	3.40646	-1.66706	-1.21023
H	2.9978	0.830193	-1.61677
