18
  This energy is -1.0112 and Call times are: 76319
C	0.87922	-0.113891	-0.707391
C	0.402936	-1.15153	0.0388211
C	-0.690397	-0.622927	0.790697
C	-0.785718	0.69107	0.437573
O	0.165094	1.01911	-0.476409
H	1.70916	-0.0538182	-1.43047
H	0.783362	-2.18546	0.057884
H	-1.32622	-1.16552	1.50862
H	-1.47704	1.48664	0.760656
C	4.36083	0.698941	-0.120561
C	5.50361	0.708075	-0.891994
N	6.38361	-0.233453	-0.472886
C	5.78901	-0.824438	0.554641
N	4.56717	-0.297964	0.80669
H	3.44588	1.31089	-0.164351
H	5.70893	1.37716	-1.74348
H	6.20358	-1.64804	1.158
H	3.90348	-0.592981	1.56415
