18
  This energy is -0.9094 and Call times are: 73444
C	-0.902774	-0.547522	-0.414271
C	0.346739	-0.696548	-0.940468
C	1.20167	0.141175	-0.161089
C	0.399122	0.728169	0.772575
O	-0.889281	0.318962	0.632646
H	-1.87087	-0.996426	-0.690899
H	0.637257	-1.33259	-1.79202
H	2.28684	0.283792	-0.288218
H	0.620575	1.44487	1.58038
C	5.95951	1.01458	0.206573
C	5.24589	0.263064	1.11603
N	4.73257	-0.848644	0.535411
C	5.12625	-0.787038	-0.729439
N	5.86877	0.317783	-0.97767
H	6.50723	1.96424	0.314686
H	5.09221	0.503094	2.18075
H	4.89892	-1.52433	-1.51618
H	6.29428	0.591441	-1.89708
