18
  This energy is -0.8795 and Call times are: 66785
C	-0.843199	-0.726998	-0.216538
C	-0.819718	0.0518742	0.902917
C	0.381345	0.820375	0.81942
C	0.985789	0.443281	-0.343688
O	0.251766	-0.500949	-0.989172
H	-1.57309	-1.47194	-0.573706
H	-1.57264	0.0821919	1.70683
H	0.744798	1.56501	1.54572
H	1.92706	0.767627	-0.817034
C	4.39247	-0.402531	0.456016
C	5.1528	0.646996	0.926698
N	6.2521	0.837527	0.157451
C	6.17405	-0.0902711	-0.786859
N	5.07066	-0.863232	-0.650334
H	3.44828	-0.83959	0.817991
H	4.92786	1.27016	1.80756
H	6.89781	-0.247968	-1.60267
H	4.78602	-1.6614	-1.26933
