18
  This energy is -1.2137 and Call times are: 101378
C	0.749266	-0.652085	-0.547528
C	-0.128573	-1.15733	0.365981
C	-0.894173	-0.0442499	0.82969
C	-0.416596	1.04292	0.158611
O	0.587383	0.690092	-0.686697
H	1.52848	-1.13675	-1.15841
H	-0.227095	-2.20841	0.681624
H	-1.70431	-0.0607242	1.57635
H	-0.702639	2.107	0.192936
C	4.22334	-1.13245	-0.161617
C	4.67662	-0.246945	-1.11638
N	4.89695	0.97835	-0.581016
C	4.58156	0.853465	0.700996
N	4.16969	-0.400499	1.00353
H	3.94446	-2.19618	-0.226687
H	4.84862	-0.47023	-2.18194
H	4.6338	1.64844	1.46226
H	3.86713	-0.748792	1.94608
