18
  This energy is -1.794 and Call times are: 124957
C	-0.378546	0.966607	0.456919
C	0.871319	0.851341	-0.076865
C	0.974271	-0.494406	-0.544287
C	-0.221771	-1.08271	-0.254876
O	-1.05996	-0.204995	0.35674
H	-0.895142	1.81679	0.931865
H	1.64333	1.63533	-0.135564
H	1.84198	-0.961276	-1.03745
H	-0.595121	-2.105	-0.430302
C	4.79196	0.507054	-0.932676
C	6.07023	-0.00513707	-0.863247
N	6.32616	-0.515183	0.365926
C	5.2109	-0.320153	1.05642
N	4.25597	0.292842	0.317533
H	4.24406	0.992625	-1.75582
H	6.81242	-0.0157907	-1.67805
H	5.03964	-0.606771	2.10654
H	3.29113	0.554986	0.636299
