18
  This energy is -0.742 and Call times are: 2607
C	-0.279112	1.00524	0.444969
C	-0.760136	0.580276	-0.758525
C	-0.190505	-0.711858	-0.973065
C	0.588327	-0.962437	0.118267
O	0.545972	0.0755698	0.994486
H	-0.446205	1.9359	1.01171
H	-1.44717	1.12234	-1.42804
H	-0.34807	-1.37082	-1.84199
H	1.21382	-1.82965	0.386499
C	5.63563	-0.422787	1.09776
C	4.54092	-0.386129	0.260259
N	4.8581	0.169333	-0.934467
C	6.14469	0.476101	-0.838508
N	6.65927	0.138852	0.367748
H	5.7547	-0.796339	2.12723
H	3.52792	-0.750524	0.496666
H	6.75892	0.949019	-1.62164
H	7.64938	0.27859	0.686212
