18
  This energy is -0.8807 and Call times are: 8748
C	-0.0899757	1.04456	-0.432674
C	-0.889166	0.0155122	-0.836081
C	-0.478799	-1.12037	-0.0735304
C	0.534935	-0.685178	0.728544
O	0.785649	0.634543	0.522408
H	-0.0456516	2.10117	-0.743874
H	-1.68757	0.0526021	-1.59455
H	-0.895768	-2.13908	-0.123213
H	1.15025	-1.20903	1.47836
C	4.70689	0.320467	-0.808311
C	4.47389	-0.418699	0.33208
N	5.61651	-0.602528	1.03716
C	6.55479	0.0202271	0.336849
N	6.05653	0.592675	-0.784593
H	4.03035	0.660688	-1.60836
H	3.5018	-0.822652	0.658739
H	7.62275	0.0880162	0.599684
H	6.59562	1.13965	-1.49975
