18
  This energy is -1.0337 and Call times are: 37118
C	-0.775653	0.541716	0.625545
C	-0.867683	-0.788657	0.339168
C	0.277165	-1.09729	-0.45719
C	0.967731	0.071727	-0.587156
O	0.339146	1.08314	0.0677828
H	-1.42975	1.21114	1.20803
H	-1.66207	-1.48301	0.656843
H	0.546904	-2.07851	-0.879724
H	1.90658	0.311714	-1.11273
C	5.33411	-0.951536	0.691743
C	6.14552	0.160273	0.77323
N	5.82916	1.0672	-0.182758
C	4.82531	0.5201	-0.854759
N	4.48984	-0.697331	-0.365972
H	5.29892	-1.87484	1.29158
H	6.95355	0.324288	1.50469
H	4.29918	0.967709	-1.71329
H	3.73114	-1.32752	-0.724442
