18
  This energy is -1.1171 and Call times are: 72524
C	0.83006	-0.17631	-0.752539
C	-0.473922	-0.0291023	-1.12447
C	-1.20539	0.171945	0.085754
C	-0.283829	0.129847	1.0904
O	0.964463	-0.0820369	0.596557
H	1.74383	-0.350618	-1.34406
H	-0.87997	-0.0590846	-2.14835
H	-2.29134	0.328834	0.186775
H	-0.387829	0.235276	2.1828
C	4.49728	-0.850858	0.545772
C	5.39637	0.0239378	1.11807
N	5.90586	0.87471	0.19442
C	5.32505	0.529024	-0.94654
N	4.46714	-0.50643	-0.787137
H	3.89682	-1.6669	0.978274
H	5.68656	0.0564602	2.18088
H	5.49182	1.0008	-1.9283
H	3.88913	-0.960377	-1.5362
