18
  This energy is -0.8455 and Call times are: 61352
C	0.644744	-0.908095	0.214639
C	-0.66518	-0.837569	0.588135
C	-1.12878	0.440008	0.148823
C	-0.0612233	1.03741	-0.45435
O	1.0303	0.228327	-0.42325
H	1.39979	-1.70105	0.342588
H	-1.24665	-1.60793	1.11968
H	-2.14115	0.857149	0.272032
H	0.0487771	2.02207	-0.937661
C	5.83774	0.730706	-0.386455
C	5.05515	-0.108919	-1.15047
N	4.19124	-0.810088	-0.376814
C	4.43696	-0.406982	0.862441
N	5.4214	0.521605	0.909354
H	6.63489	1.4386	-0.663919
H	5.09839	-0.221331	-2.24607
H	3.92529	-0.759195	1.77259
H	5.7961	0.992547	1.76904
