18
  This energy is -0.6855 and Call times are: 97869
C	-0.678793	-0.396892	-0.817385
C	-0.835467	0.845643	-0.277075
C	0.193218	0.977486	0.705036
C	0.887698	-0.196119	0.678182
O	0.368857	-1.04706	-0.245787
H	-1.2396	-0.928173	-1.60382
H	-1.59885	1.59425	-0.543395
H	0.38599	1.84864	1.35158
H	1.7582	-0.543954	1.25826
C	6.10557	0.827788	0.666524
C	4.81081	0.363817	0.763735
N	4.56369	-0.592964	-0.163635
C	5.70083	-0.722063	-0.833613
N	6.66123	0.112915	-0.37097
H	6.65264	1.59064	1.24299
H	4.05052	0.702294	1.4864
H	5.88486	-1.413	-1.67204
H	7.64222	0.19927	-0.733529
