18
  This energy is -2.3367 and Call times are: 42018
C	-0.329884	1.06171	0.224374
C	0.378169	0.738105	-0.895587
C	0.602052	-0.670705	-0.82315
C	0.0110469	-1.08364	0.334681
O	-0.562961	-0.0387096	0.987105
H	-0.721972	2.02557	0.588368
H	0.709561	1.42279	-1.69276
H	1.14154	-1.2955	-1.55299
H	-0.0695296	-2.08	0.799465
C	3.75995	-1.10863	0.392979
C	4.34678	-0.664717	-0.77309
N	4.20488	0.675842	-0.911936
C	3.53258	1.06211	0.163906
N	3.24083	0.0228887	0.981519
H	3.67775	-2.11605	0.831015
H	4.87001	-1.28771	-1.5167
H	3.22784	2.0938	0.402614
H	2.71867	0.0701154	1.89057
