18
  This energy is -0.7354 and Call times are: 80568
C	-0.227645	-0.508001	-0.988187
C	1.03955	-0.406534	-0.49392
C	0.919976	0.286331	0.749365
C	-0.409731	0.5471	0.905098
O	-1.12539	0.0690352	-0.146706
H	-0.616901	-0.961047	-1.91473
H	1.96559	-0.781938	-0.958258
H	1.73488	0.55494	1.44065
H	-0.96536	1.05811	1.70846
C	7.09958	0.381758	0.173986
C	6.31119	-0.307307	1.07108
N	5.09764	-0.590139	0.538335
C	5.13304	-0.0784805	-0.684603
N	6.31882	0.518179	-0.952061
H	8.12672	0.771688	0.254525
H	6.59627	-0.605451	2.09318
H	4.31835	-0.112455	-1.42579
H	6.59146	0.99404	-1.84676
