18
  This energy is -0.7827 and Call times are: 16215
C	-0.689465	-0.705301	-0.559991
C	0.330646	-1.15282	0.227076
C	0.960397	0.0162627	0.753167
C	0.269526	1.07499	0.241146
O	-0.741472	0.652748	-0.562973
H	-1.43885	-1.24461	-1.16233
H	0.611488	-2.20104	0.418026
H	1.82659	0.0547	1.43312
H	0.396373	2.16235	0.370811
C	6.36218	-0.772388	-0.212514
C	5.03191	-1.05795	0.011092
N	4.31782	0.0743711	0.22188
C	5.20171	1.05865	0.129392
N	6.4486	0.599529	-0.131504
H	7.22468	-1.42654	-0.416741
H	4.57461	-2.06072	0.0241035
H	4.9896	2.13385	0.244162
H	7.31593	1.17837	-0.249578
