18
  This energy is -0.5986 and Call times are: 18817
C	-0.249056	-0.706314	0.851758
C	-1.20183	-0.213049	0.00957245
C	-0.509247	0.626323	-0.915574
C	0.805621	0.571888	-0.557062
O	0.982708	-0.237352	0.520334
H	-0.318347	-1.38991	1.71382
H	-2.28382	-0.419556	0.0370615
H	-0.947479	1.20001	-1.748
H	1.7	1.0562	-0.982249
C	6.67325	0.670622	0.580904
C	6.76669	-0.684565	0.344517
N	5.69728	-1.13315	-0.356654
C	4.94327	-0.0603294	-0.554501
N	5.48859	1.05226	-0.00827982
H	7.34357	1.36721	1.10908
H	7.5866	-1.34668	0.667335
H	3.98217	-0.0332907	-1.09282
H	5.08572	2.02102	-0.0295522
