18
  This energy is -1.4664 and Call times are: 33727
C	-0.32014	-0.718521	-0.817092
C	0.828794	-0.89023	-0.10236
C	0.883507	0.200727	0.817932
C	-0.236822	0.942797	0.584337
O	-0.983409	0.395996	-0.410967
H	-0.77104	-1.31126	-1.62986
H	1.56402	-1.70355	-0.212187
H	1.66959	0.401449	1.56351
H	-0.611596	1.86802	1.05206
C	4.96231	-1.14047	0.240991
C	5.34546	-0.473866	-0.903553
N	4.99976	0.835194	-0.845498
C	4.40442	0.980143	0.330589
N	4.35699	-0.182426	1.02325
H	5.07385	-2.19368	0.544068
H	5.86514	-0.91402	-1.77018
H	3.98485	1.91567	0.734306
H	3.93877	-0.326528	1.97487
