18
  This energy is -0.9177 and Call times are: 19688
C	0.954407	0.446338	0.41987
C	0.0460817	1.18791	-0.276829
C	-1.003	0.286726	-0.633768
C	-0.643148	-0.925993	-0.12368
O	0.549578	-0.846912	0.522974
H	1.91497	0.717757	0.887739
H	0.108551	2.26181	-0.515455
H	-1.91565	0.522976	-1.20417
H	-1.14228	-1.90848	-0.152457
C	6.05814	0.805105	0.0222325
C	5.88687	-0.246146	0.897835
N	4.79173	-0.976647	0.576021
C	4.28554	-0.380844	-0.495152
N	5.0132	0.698465	-0.868232
H	6.82412	1.59519	-0.0285291
H	6.53387	-0.490607	1.75602
H	3.38369	-0.693338	-1.04583
H	4.81848	1.33313	-1.68097
