18
  This energy is -1.082 and Call times are: 10678
C	-0.388091	-0.912556	-0.550479
C	-1.20686	-0.0858713	0.161271
C	-0.362038	0.931929	0.700233
C	0.898407	0.637359	0.270257
O	0.901048	-0.485907	-0.494779
H	-0.597572	-1.82463	-1.13314
H	-2.29643	-0.18305	0.293494
H	-0.666357	1.78079	1.33342
H	1.86441	1.14146	0.437503
C	4.86507	-0.821647	0.840092
C	4.97774	-1.01808	-0.520006
N	4.8528	0.150663	-1.1945
C	4.66334	1.06866	-0.256411
N	4.66255	0.532454	0.987002
H	4.91307	-1.52613	1.68563
H	5.14695	-1.98217	-1.0267
H	4.51966	2.14812	-0.424799
H	4.53246	1.04969	1.89077
