18
  This energy is -1.6516 and Call times are: 42625
C	0.719709	-0.792463	0.374729
C	-0.175918	-1.03337	-0.625365
C	-0.892866	0.187992	-0.810764
C	-0.372065	1.06744	0.0924019
O	0.613824	0.485519	0.824797
H	1.47617	-1.43835	0.849963
H	-0.317502	-1.97654	-1.17717
H	-1.70085	0.380075	-1.53489
H	-0.613161	2.12097	0.309672
C	3.64571	0.408616	-0.805711
C	4.4932	1.1531	-0.0128328
N	5.22341	0.356198	0.804634
C	4.83042	-0.877962	0.519972
N	3.88043	-0.899354	-0.444729
H	2.91651	0.707074	-1.5756
H	4.59085	2.25096	-0.0159788
H	5.20553	-1.80235	0.98799
H	3.41194	-1.7502	-0.842008
