18
  This energy is -1.0388 and Call times are: 134591
C	0.375707	-0.951753	0.489297
C	1.16262	0.152152	0.339186
C	0.346776	1.12858	-0.309731
C	-0.86667	0.535166	-0.498879
O	-0.866877	-0.735552	-0.0169169
H	0.579376	-1.93984	0.933648
H	2.2123	0.267296	0.653853
H	0.63813	2.15131	-0.598228
H	-1.79817	0.905684	-0.957432
C	5.72574	0.908886	-0.712785
C	6.4841	0.490344	0.359995
N	5.92813	-0.590477	0.959357
C	4.82904	-0.841492	0.26106
N	4.66265	0.0348127	-0.75776
H	5.86277	1.73919	-1.42367
H	7.42245	0.948876	0.712263
H	4.1104	-1.65458	0.45259
H	3.87405	0.046216	-1.45004
