18
  This energy is -0.635 and Call times are: 77815
C	-0.234621	-0.406019	1.03272
C	-1.20255	0.0691341	0.197424
C	-0.525335	0.484194	-0.989681
C	0.796652	0.226038	-0.775018
O	0.992359	-0.317788	0.455008
H	-0.289167	-0.828185	2.0496
H	-2.28486	0.12204	0.397186
H	-0.978174	0.922896	-1.89332
H	1.68439	0.381388	-1.40987
C	7.06132	0.467456	0.200438
C	6.7917	-0.779898	-0.321632
N	5.45655	-0.991642	-0.416685
C	4.89999	0.120124	0.0446629
N	5.82568	1.03047	0.429316
H	8.01329	0.977299	0.418027
H	7.53664	-1.53086	-0.631419
H	3.81924	0.320361	0.122866
H	5.63789	1.98358	0.82627
