18
  This energy is -0.9582 and Call times are: 95419
C	0.647447	-0.601296	-0.711096
C	-0.424423	-1.14264	-0.0642441
C	-0.975691	-0.0896948	0.727922
C	-0.19203	1.00214	0.495221
O	0.804113	0.707754	-0.381163
H	1.36853	-1.03671	-1.42222
H	-0.79019	-2.17943	-0.137577
H	-1.85386	-0.147779	1.3909
H	-0.23798	2.03179	0.886318
C	4.39903	-0.876077	-0.355285
C	5.58157	-0.473816	-0.939186
N	6.12847	0.56838	-0.267441
C	5.2884	0.811744	0.729402
N	4.22967	-0.0324056	0.719761
H	3.6897	-1.67631	-0.619877
H	6.04994	-0.916918	-1.83313
H	5.40034	1.59618	1.49514
H	3.43181	-0.0423215	1.40136
