18
  This energy is -1.1612 and Call times are: 137624
C	0.858098	0.500292	-0.547519
C	1.02468	-0.635925	0.18844
C	-0.264652	-0.953491	0.714635
C	-1.10531	0.0166986	0.253775
O	-0.436502	0.912832	-0.518654
H	1.57185	1.10443	-1.13132
H	1.96153	-1.1944	0.345063
H	-0.526238	-1.80714	1.36035
H	-2.18555	0.178977	0.402117
C	4.80884	-0.739846	-0.460204
C	6.09251	-1.04513	-0.0600439
N	6.72679	0.0500671	0.424452
C	5.83998	1.03106	0.325237
N	4.66774	0.60543	-0.202302
H	4.01233	-1.36389	-0.895719
H	6.57237	-2.03602	-0.112241
H	5.99688	2.08	0.624144
H	3.81405	1.18903	-0.380838
