18
  This energy is -1.9461 and Call times are: 92924
C	0.367959	0.927821	-0.53866
C	-0.147768	-0.146112	-1.20279
C	-0.493959	-1.09877	-0.196456
C	-0.159224	-0.522897	0.993794
O	0.368556	0.714961	0.803614
H	0.763526	1.89073	-0.901409
H	-0.271949	-0.256377	-2.29206
H	-0.939922	-2.09453	-0.350348
H	-0.245348	-0.88552	2.03126
C	3.70271	0.573888	0.648126
C	5.04364	0.872594	0.530581
N	5.66706	0.00242178	-0.300476
C	4.7165	-0.832939	-0.696989
N	3.5141	-0.53035	-0.15267
H	2.89622	1.05299	1.2257
H	5.57245	1.7004	1.03054
H	4.84627	-1.68367	-1.38521
H	2.61037	-1.03985	-0.310583
