18
  This energy is -1.6294 and Call times are: 128894
C	0.738984	-0.762358	0.398889
C	0.0764605	0.108288	1.21339
C	-0.750186	0.895198	0.354585
C	-0.519841	0.435954	-0.908906
O	0.386934	-0.576321	-0.900519
H	1.47652	-1.55175	0.618321
H	0.161355	0.18835	2.30905
H	-1.43365	1.70669	0.651996
H	-0.932503	0.741466	-1.88442
C	4.37117	-0.976687	-0.633938
C	4.33881	0.319394	-1.10327
N	4.11977	1.19865	-0.0955724
C	4.01663	0.450871	0.994758
N	4.16097	-0.867717	0.722576
H	4.52381	-1.93683	-1.15199
H	4.46959	0.635832	-2.15094
H	3.83567	0.817505	2.01802
H	4.12048	-1.65672	1.4133
