18
  This energy is -1.3282 and Call times are: 106307
C	0.0560461	-0.221161	1.11101
C	0.162005	-1.19844	0.16546
C	0.0443237	-0.537238	-1.09513
C	-0.123159	0.785727	-0.808619
O	-0.118498	0.996836	0.533925
H	0.0881709	-0.262689	2.21215
H	0.308352	-2.27677	0.338332
H	0.0812875	-1.00098	-2.09396
H	-0.254775	1.6642	-1.46147
C	5.4105	0.255335	0.546616
C	4.62182	1.12089	-0.181355
N	3.52798	0.489433	-0.672572
C	3.63766	-0.763093	-0.250942
N	4.75594	-0.954757	0.488182
H	6.35957	0.409715	1.08418
H	4.82245	2.18969	-0.360941
H	2.92741	-1.5806	-0.454574
H	5.06538	-1.85387	0.932143
