18
  This energy is -0.9087 and Call times are: 76811
C	0.619464	-0.950082	0.00293055
C	-0.694311	-0.933578	0.369122
C	-1.12029	0.423234	0.236017
C	-0.0292259	1.11608	-0.199764
O	1.04216	0.293101	-0.347543
H	1.35332	-1.77097	-0.0503669
H	-1.30243	-1.79086	0.699802
H	-2.12436	0.827098	0.442976
H	0.111921	2.18306	-0.438266
C	4.46565	-0.387026	0.406733
C	4.99721	-0.608024	-0.846164
N	6.20881	-0.0146667	-0.974525
C	6.42805	0.572203	0.194295
N	5.40618	0.376847	1.06102
H	3.51631	-0.708557	0.863791
H	4.5282	-1.18498	-1.6598
H	7.32028	1.15765	0.468931
H	5.34251	0.738396	2.04412
