18
  This energy is -1.2535 and Call times are: 114536
C	0.957757	-0.205442	0.571747
C	0.239728	-1.19645	-0.0305106
C	-0.881148	-0.552957	-0.638518
C	-0.749122	0.774472	-0.354132
O	0.36838	1.00472	0.384236
H	1.8922	-0.231337	1.15604
H	0.475715	-2.27264	-0.045141
H	-1.68701	-1.03103	-1.21829
H	-1.37427	1.64393	-0.61582
C	4.69522	1.02759	-0.564066
C	4.05534	-0.154337	-0.871861
N	4.40939	-1.14	-0.0118461
C	5.26566	-0.571714	0.826291
N	5.4711	0.734675	0.535205
H	4.65472	2.02319	-1.03383
H	3.34454	-0.313536	-1.69907
H	5.77172	-1.06633	1.67097
H	6.10135	1.39803	1.04902
