18
  This energy is -0.6846 and Call times are: 75322
C	0.489339	-0.0483813	1.02206
C	1.02728	0.659108	-0.012566
C	0.136103	0.479454	-1.11422
C	-0.867754	-0.32196	-0.655549
O	-0.668155	-0.653898	0.647136
H	0.82884	-0.197904	2.06015
H	1.95826	1.24838	-0.00112473
H	0.238739	0.901739	-2.12676
H	-1.76824	-0.721454	-1.1503
C	6.26388	-0.963901	0.568844
C	6.88672	-0.346228	-0.494965
N	6.19046	0.742064	-0.904045
C	5.13966	0.79932	-0.097088
N	5.13848	-0.207429	0.808476
H	6.53287	-1.8584	1.15284
H	7.82602	-0.666346	-0.974649
H	4.34053	1.55749	-0.125507
H	4.41761	-0.379032	1.55155
