18
  This energy is -0.8205 and Call times are: 129552
C	0.990113	0.324529	-0.448061
C	-0.0345185	1.19814	-0.230557
C	-1.09387	0.425177	0.335495
C	-0.62308	-0.852546	0.413928
O	0.648057	-0.932303	-0.0602679
H	1.99916	0.470898	-0.867164
H	-0.043449	2.27849	-0.447012
H	-2.08746	0.787066	0.645181
H	-1.08802	-1.78168	0.782429
C	6.4025	0.716229	0.239996
C	6.18232	0.0272999	-0.933904
N	5.04393	-0.704678	-0.864725
C	4.55973	-0.470738	0.347482
N	5.34285	0.379746	1.05246
H	7.21129	1.39934	0.544557
H	6.82447	0.0452914	-1.82954
H	3.63526	-0.896301	0.769953
H	5.17481	0.718317	2.03143
