18
  This energy is -1.329 and Call times are: 74041
C	-0.312374	-0.240798	-1.06341
C	0.520535	0.796991	-0.764026
C	0.675353	0.777036	0.655745
C	-0.0766142	-0.271186	1.09863
O	-0.686822	-0.903995	0.0621884
H	-0.70841	-0.606414	-2.02504
H	0.979829	1.50549	-1.47196
H	1.27855	1.46699	1.26748
H	-0.257237	-0.664569	2.11247
C	4.81538	-1.05797	0.468413
C	4.0515	-0.0498852	1.01742
N	4.01702	1.03453	0.205409
C	4.75669	0.700465	-0.843355
N	5.26037	-0.551558	-0.732302
H	5.06546	-2.06625	0.834971
H	3.52463	-0.085601	1.98488
H	4.9623	1.33481	-1.7206
H	5.87313	-1.0429	-1.42827
