18
  This energy is -0.7843 and Call times are: 21449
C	1.05765	-0.248079	0.325932
C	0.564725	-0.611413	-0.892832
C	-0.778659	-0.127718	-0.931272
C	-0.988065	0.488496	0.267395
O	0.122867	0.424497	1.04762
H	2.04382	-0.406381	0.792467
H	1.09402	-1.16455	-1.68528
H	-1.49803	-0.231265	-1.75945
H	-1.87108	1.00321	0.680446
C	6.09609	0.0118565	-1.01471
C	6.06703	-1.00495	-0.0838947
N	5.27634	-0.681822	0.968204
C	4.81662	0.530825	0.691137
N	5.28203	0.992664	-0.493638
H	6.62094	0.103829	-1.97887
H	6.60243	-1.96592	-0.152617
H	4.1363	1.12621	1.32114
H	5.06424	1.92102	-0.931804
