18
  This energy is -0.6761 and Call times are: 110609
C	0.123146	-0.92946	-0.638232
C	1.15111	-0.0650073	-0.400766
C	0.612638	0.963742	0.431004
C	-0.69684	0.637128	0.628396
O	-1.01295	-0.516161	-0.017366
H	0.0725195	-1.86185	-1.22419
H	2.18486	-0.143873	-0.773897
H	1.14589	1.84109	0.830998
H	-1.49669	1.13614	1.19977
C	5.88313	-0.95804	0.541731
C	7.14323	-0.414419	0.675061
N	7.2828	0.690696	-0.0967898
C	6.11373	0.832119	-0.706636
N	5.23611	-0.137202	-0.354806
H	5.41661	-1.84146	1.00591
H	7.95417	-0.799801	1.31436
H	5.84665	1.6278	-1.42064
H	4.25056	-0.243244	-0.699337
