18
  This energy is -1.0728 and Call times are: 130616
C	-0.555943	0.973346	-0.17299
C	-0.6248	0.292592	1.00693
C	0.196779	-0.863763	0.83969
C	0.695165	-0.787561	-0.42766
O	0.245821	0.328035	-1.06055
H	-1.02432	1.91553	-0.501864
H	-1.19676	0.576275	1.90497
H	0.388466	-1.6549	1.58228
H	1.36993	-1.45433	-0.989229
C	5.85024	0.0509672	-0.52866
C	4.97217	1.09536	-0.3302
N	3.85477	0.678679	0.313468
C	4.03894	-0.619269	0.513561
N	5.2272	-1.04571	0.023888
H	6.84133	0.0118518	-1.008
H	5.1249	2.14206	-0.639922
H	3.33574	-1.30472	1.01346
H	5.60239	-2.02514	0.0585452
