18
  This energy is -0.4771 and Call times are: 31734
C	1.07501	-0.361531	-0.0077839
C	0.447865	0.0893731	-1.13195
C	-0.873163	0.449163	-0.725071
C	-0.936668	0.186361	0.611819
O	0.244257	-0.309291	1.06653
H	2.09659	-0.741678	0.156877
H	0.87288	0.161393	-2.14599
H	-1.67603	0.855605	-1.36091
H	-1.75317	0.306825	1.34262
C	5.44311	0.157457	-0.147976
C	6.21884	0.641791	0.883915
N	7.51357	0.268873	0.738531
C	7.54094	-0.444097	-0.379302
N	6.3173	-0.540278	-0.951185
H	4.36675	0.256623	-0.36048
H	5.86751	1.25363	1.73071
H	8.43029	-0.918614	-0.824394
H	6.07977	-1.04937	-1.83756
