18
  This energy is -2.0074 and Call times are: 128479
C	-0.152105	0.897332	-0.676801
C	-0.472746	-0.371082	-1.0624
C	-0.141726	-1.21155	0.044011
C	0.351975	-0.382547	1.00805
O	0.352903	0.90894	0.584882
H	-0.234247	1.86362	-1.201
H	-0.899551	-0.683525	-2.029
H	-0.260849	-2.30521	0.105815
H	0.730416	-0.585689	2.02332
C	3.4562	-0.716943	-0.758532
C	4.35707	0.281215	-1.06391
N	4.78686	0.911042	0.0564142
C	4.15501	0.305913	1.05302
N	3.34102	-0.68283	0.61324
H	2.90724	-1.42549	-1.39895
H	4.70464	0.558208	-2.07253
H	4.25174	0.547023	2.12387
H	2.73722	-1.30492	1.20458
