18
  This energy is -1.7243 and Call times are: 105443
C	-0.933715	-0.154446	-0.625079
C	-0.513655	1.08251	-0.232835
C	0.677627	0.8686	0.525588
C	0.880379	-0.480194	0.529855
O	-0.0941724	-1.12056	-0.168134
H	-1.80202	-0.476041	-1.2233
H	-0.994459	2.04867	-0.45526
H	1.30411	1.63592	1.00811
H	1.66962	-1.09943	0.986907
C	5.06794	0.183025	-1.13918
C	6.31129	0.137129	-0.54495
N	6.2083	-0.0933187	0.786515
C	4.90601	-0.190019	1.01741
N	4.17612	-0.0306507	-0.111957
H	4.76476	0.347145	-2.18546
H	7.28082	0.266168	-1.05308
H	4.43263	-0.376754	1.99479
H	3.13015	-0.0635863	-0.190165
