18
  This energy is -0.7464 and Call times are: 50142
C	0.109569	0.214722	-1.10828
C	1.17066	-0.125863	-0.321862
C	0.640002	-0.313931	0.990825
C	-0.698526	-0.0716697	0.890688
O	-1.0399	0.252582	-0.384198
H	0.0421985	0.451595	-2.18281
H	2.22163	-0.233827	-0.634758
H	1.19773	-0.596702	1.89806
H	-1.50426	-0.0964738	1.64264
C	6.45892	-0.88059	-0.4189
C	6.5378	-0.311996	0.834744
N	5.62675	0.680798	0.979193
C	4.98513	0.727927	-0.180429
N	5.45016	-0.193727	-1.05672
H	7.03019	-1.69812	-0.886684
H	7.23575	-0.600328	1.6376
H	4.16658	1.41798	-0.44127
H	5.10755	-0.354452	-2.03552
