18
  This energy is -1.2559 and Call times are: 17213
C	0.201036	0.246834	1.0886
C	-0.8377	0.795	0.395123
C	-0.760384	0.248028	-0.922056
C	0.318774	-0.5861	-0.917208
O	0.917811	-0.599031	0.302628
H	0.532547	0.375888	2.13201
H	-1.58354	1.51254	0.773201
H	-1.43436	0.457166	-1.76829
H	0.757862	-1.2181	-1.70653
C	4.3923	-0.102453	0.849837
C	4.16654	0.218241	-0.47203
N	5.32633	0.248874	-1.17236
C	6.26801	-0.0516725	-0.288319
N	5.75546	-0.272264	0.945465
H	3.7024	-0.217992	1.70085
H	3.18758	0.428063	-0.932967
H	7.34872	-0.123906	-0.491021
H	6.2939	-0.524579	1.81015
