18
  This energy is -0.577 and Call times are: 2575
C	-0.795279	-0.758033	0.281637
C	0.486719	-0.839807	0.740079
C	1.17604	0.276159	0.174775
C	0.25443	0.94137	-0.579213
O	-0.954957	0.323714	-0.525418
H	-1.67574	-1.39852	0.454348
H	0.905002	-1.60884	1.4092
H	2.23505	0.544412	0.318453
H	0.3331	1.85364	-1.19307
C	6.36765	-0.634917	-0.988634
C	5.29215	0.112107	-0.556904
N	5.55993	0.715534	0.626599
C	6.79685	0.344272	0.927935
N	7.32719	-0.470363	-0.0147771
H	6.51324	-1.25141	-1.8899
H	4.32776	0.226484	-1.07817
H	7.3621	0.639847	1.82647
H	8.28653	-0.895599	-0.0055809
