18
  This energy is -0.7716 and Call times are: 37438
C	-0.563739	0.825693	-0.535566
C	-1.1849	-0.069718	0.284658
C	-0.157726	-0.938745	0.764047
C	1.00046	-0.497669	0.194452
O	0.771099	0.57918	-0.602292
H	-0.954639	1.67342	-1.12192
H	-2.25871	-0.113827	0.527727
H	-0.276781	-1.79061	1.4527
H	2.03877	-0.859111	0.275119
C	6.53277	-0.653511	0.746742
C	6.9636	0.452916	0.0457826
N	5.97032	0.96147	-0.723155
C	4.92724	0.173533	-0.500071
N	5.21567	-0.815279	0.378932
H	7.05288	-1.31514	1.45757
H	7.97336	0.893355	0.0811002
H	3.92841	0.275521	-0.954142
H	4.56076	-1.56275	0.716032
