18
  This energy is -2.1117 and Call times are: 20326
C	0.572256	-0.967213	0.153049
C	0.533333	0.0157819	1.09781
C	-0.273703	1.05695	0.545743
C	-0.656706	0.618285	-0.68765
O	-0.149111	-0.61609	-0.943927
H	1.07111	-1.95019	0.140863
H	1.02374	0.00843901	2.0845
H	-0.533434	2.01736	1.01928
H	-1.28076	1.08399	-1.46799
C	3.96823	0.33665	1.11511
C	4.10569	-0.937177	0.605584
N	3.83398	-0.964458	-0.721795
C	3.5291	0.287683	-1.03455
N	3.59557	1.11053	0.0388021
H	4.10466	0.733954	2.13347
H	4.39607	-1.83704	1.17196
H	3.24982	0.656894	-2.03451
H	3.40042	2.14158	0.0491357
