18
  This energy is -1.1131 and Call times are: 107078
C	1.09345	0.0052755	-0.301248
C	0.517832	-1.05142	0.34097
C	-0.847781	-0.687017	0.546958
C	-0.986122	0.560186	0.0124317
O	0.189496	0.998417	-0.509954
H	2.12305	0.1709	-0.658634
H	1.00592	-1.99303	0.639679
H	-1.62902	-1.28992	1.03713
H	-1.85663	1.23284	-0.0583424
C	5.51007	-0.543983	-0.910494
C	5.46508	0.814279	-0.677593
N	4.79519	1.0918	0.467288
C	4.42602	-0.089809	0.94283
N	4.83324	-1.10764	0.147981
H	5.96081	-1.12981	-1.72731
H	5.90397	1.59898	-1.31514
H	3.85592	-0.266925	1.86903
H	4.66535	-2.13116	0.307617
