18
  This energy is -1.8789 and Call times are: 57887
C	0.0994048	-1.10825	0.219752
C	0.324976	-0.586336	-1.02004
C	0.103005	0.819418	-0.898795
C	-0.238615	1.03244	0.40439
O	-0.245798	-0.133864	1.10203
H	0.150644	-2.14244	0.598032
H	0.618257	-1.13611	-1.92879
H	0.189964	1.57628	-1.69484
H	-0.496227	1.95423	0.951377
C	3.53101	-0.945321	-0.596077
C	3.81351	-0.875211	0.751669
N	4.21476	0.370713	1.10264
C	4.18132	1.07088	-0.023092
N	3.77541	0.322094	-1.07578
H	3.18489	-1.7796	-1.22672
H	3.735	-1.70131	1.4771
H	4.44395	2.13539	-0.132929
H	3.66746	0.645421	-2.06829
