18
  This energy is -0.8417 and Call times are: 104090
C	-0.513967	0.668941	0.758128
C	0.727134	0.144276	0.969716
C	1.02739	-0.630441	-0.192082
C	-0.0567295	-0.510805	-1.01107
O	-1.00766	0.279214	-0.44661
H	-1.14588	1.32513	1.3789
H	1.367	0.288355	1.8551
H	1.94634	-1.20646	-0.386578
H	-0.270857	-0.932562	-2.00682
C	4.49079	0.385229	0.0796553
C	4.9499	-0.881469	0.372641
N	6.28617	-0.976354	0.167993
C	6.65465	0.226903	-0.25036
N	5.60822	1.08345	-0.32038
H	3.48163	0.824544	0.125973
H	4.34089	-1.72862	0.728027
H	7.67791	0.53498	-0.519154
H	5.64174	2.08804	-0.621947
