18
  This energy is -0.978 and Call times are: 134623
C	0.930538	0.0247991	0.647985
C	-0.140818	-0.76783	0.938347
C	-1.09828	-0.524384	-0.0932125
C	-0.527495	0.39552	-0.922883
O	0.711639	0.742143	-0.485378
H	1.89539	0.166987	1.16188
H	-0.246281	-1.45501	1.79319
H	-2.0937	-0.985278	-0.197194
H	-0.894855	0.87644	-1.8443
C	4.80773	0.556566	0.99494
C	5.5832	1.05069	-0.0325
N	5.71706	0.138613	-1.02584
C	5.02726	-0.917315	-0.616192
N	4.46005	-0.714904	0.59661
H	4.48931	1.0048	1.94953
H	6.04851	2.04896	-0.0748403
H	4.90471	-1.86486	-1.16516
H	3.86818	-1.39665	1.13157
