18
  This energy is -1.2934 and Call times are: 46179
C	-1.09013	0.301251	-0.0852003
C	-0.632888	-0.512961	0.908962
C	0.769642	-0.65841	0.681203
C	1.04565	0.0797613	-0.432034
O	-0.0785403	0.672741	-0.913263
H	-2.09885	0.684858	-0.310137
H	-1.22396	-0.96572	1.72121
H	1.48221	-1.24636	1.28175
H	1.98842	0.260991	-0.973876
C	4.88354	-0.788619	0.869594
C	4.59224	0.553269	0.994591
N	4.5772	1.16472	-0.21471
C	4.8581	0.205812	-1.08661
N	5.05125	-0.990421	-0.482197
H	4.98015	-1.58757	1.62184
H	4.39265	1.09119	1.93569
H	4.93486	0.32486	-2.17939
H	5.28434	-1.89859	-0.953537
