18
  This energy is -0.6917 and Call times are: 80909
C	-0.928206	-0.499017	-0.419306
C	-0.820108	-0.142419	0.892764
C	0.473086	0.447752	1.03228
C	1.04108	0.399701	-0.206854
O	0.199302	-0.175358	-1.10559
H	-1.74422	-0.983215	-0.980494
H	-1.57527	-0.281063	1.68308
H	0.919937	0.857667	1.95227
H	2.02442	0.736667	-0.573923
C	6.84217	0.228408	0.496794
C	5.92117	-0.714314	0.901973
N	4.82892	-0.70666	0.0998145
C	5.07141	0.237221	-0.799582
N	6.27266	0.830445	-0.602932
H	7.82962	0.504264	0.89977
H	6.02521	-1.39987	1.75874
H	4.40338	0.534736	-1.62387
H	6.69056	1.602	-1.17854
