18
  This energy is -0.8136 and Call times are: 123866
C	0.153833	-0.571137	0.967749
C	-0.793051	-0.926389	0.0525542
C	-0.680368	0.0177966	-1.01325
C	0.325427	0.866676	-0.655263
O	0.846214	0.521822	0.551745
H	0.430681	-1.00895	1.94085
H	-1.49995	-1.76882	0.121117
H	-1.28253	0.0529826	-1.93534
H	0.759063	1.74261	-1.16512
C	5.43022	-0.236366	-0.892194
C	4.34489	-0.985864	-0.490359
N	3.72631	-0.418577	0.57362
C	4.42522	0.678677	0.83087
N	5.46286	0.833054	-0.0253235
H	6.15739	-0.383429	-1.70652
H	3.9971	-1.92579	-0.949095
H	4.2208	1.40444	1.63443
H	6.1595	1.61787	-0.028239
