18
  This energy is -1.0953 and Call times are: 20900
C	-0.56734	0.91619	-0.353727
C	-1.05313	0.0837525	0.611378
C	-0.0684426	-0.937234	0.778972
C	0.932156	-0.638577	-0.0985132
O	0.644144	0.490171	-0.798505
H	-0.981978	1.83227	-0.805536
H	-2.009	0.179113	1.15112
H	-0.109046	-1.79087	1.47449
H	1.88762	-1.1431	-0.317133
C	4.77718	-0.227863	-1.07443
C	4.2618	0.659356	-0.153357
N	5.00138	0.669478	0.982177
C	5.97188	-0.208126	0.76638
N	5.88046	-0.776218	-0.459386
H	4.44789	-0.498788	-2.09016
H	3.36957	1.29236	-0.287817
H	6.77561	-0.473022	1.47213
H	6.52686	-1.49706	-0.864119
