18
  This energy is -2.3691 and Call times are: 76779
C	-0.47173	0.9429	0.418104
C	-0.26433	0.760318	-0.917569
C	0.339226	-0.527732	-1.04705
C	0.447369	-1.01855	0.220929
O	-0.0430141	-0.133579	1.12832
H	-0.909682	1.78292	0.981855
H	-0.511559	1.46226	-1.73013
H	0.652997	-1.02303	-1.97996
H	0.849205	-1.97073	0.604521
C	3.5729	0.834241	0.0710453
C	4.78726	0.815225	0.723821
N	5.4929	-0.298587	0.410764
C	4.71925	-0.968004	-0.433014
N	3.55061	-0.326291	-0.669803
H	2.75045	1.56705	0.0809503
H	5.1669	1.58523	1.41507
H	4.95975	-1.93311	-0.907313
H	2.77526	-0.650958	-1.29805
