18
  This energy is -0.6913 and Call times are: 138073
C	-0.0340485	0.662385	-0.920048
C	-1.15519	0.103654	-0.380378
C	-0.711702	-0.649669	0.749198
C	0.641293	-0.484782	0.800081
O	1.07219	0.313587	-0.21182
H	0.107527	1.31812	-1.79482
H	-2.19062	0.211204	-0.741506
H	-1.33492	-1.24233	1.438
H	1.39993	-0.877225	1.49701
C	7.21973	0.912632	0.742837
C	6.21093	-0.0163682	0.599959
N	6.52081	-0.932011	-0.349822
C	7.7173	-0.572418	-0.794471
N	8.18156	0.534066	-0.166977
H	7.31797	1.78717	1.40546
H	5.26504	-0.0423526	1.16518
H	8.29868	-1.08403	-1.57837
H	9.09935	1.01243	-0.340479
