18
  This energy is -0.844 and Call times are: 80504
C	-0.696872	0.75789	0.475787
C	-1.15355	-0.379994	-0.121743
C	0.00667044	-1.06642	-0.593788
C	1.06992	-0.287412	-0.243046
O	0.658674	0.830706	0.410943
H	-1.22752	1.58417	0.976704
H	-2.20223	-0.703515	-0.22022
H	0.0364035	-2.02798	-1.13103
H	2.15359	-0.416229	-0.398933
C	7.05576	-0.594913	-0.907442
C	6.42574	0.630662	-0.954138
N	6.02385	1.02081	0.279873
C	6.40311	0.0409931	1.08904
N	7.02965	-0.956403	0.421028
H	7.50583	-1.21474	-1.69915
H	6.25397	1.24038	-1.85613
H	6.24714	0.00299798	2.1792
H	7.42098	-1.83726	0.836025
