18
  This energy is -1.6138 and Call times are: 77623
C	-0.547117	0.320252	0.94048
C	-0.539702	-0.971935	0.503936
C	0.242371	-0.976383	-0.691246
C	0.64383	0.313479	-0.879553
O	0.170764	1.11896	0.107576
H	-1.01952	0.793087	1.81713
H	-1.03525	-1.83536	0.976184
H	0.473753	-1.84395	-1.32991
H	1.25961	0.780126	-1.66588
C	3.67805	0.45595	0.708237
C	4.62149	-0.4935	1.03932
N	5.41056	-0.789128	-0.0220428
C	4.95836	-0.0259795	-1.00781
N	3.91428	0.742961	-0.617663
H	2.88184	0.931807	1.30251
H	4.74695	-0.970506	2.025
H	5.35517	0.00922346	-2.0352
H	3.38547	1.42738	-1.21197
