18
  This energy is -2.1916 and Call times are: 118616
C	0.198415	0.920838	0.631735
C	-0.439324	0.984583	-0.572258
C	-0.499403	-0.358535	-1.05448
C	0.106926	-1.12447	-0.102603
O	0.539129	-0.359551	0.93427
H	0.466539	1.70431	1.35943
H	-0.82841	1.8869	-1.07079
H	-0.944331	-0.704637	-2.00124
H	0.291457	-2.20982	-0.0458795
C	3.98864	-0.677257	0.743405
C	5.35328	-0.480231	0.735136
N	5.71914	0.363439	-0.260292
C	4.58578	0.688567	-0.867251
N	3.51396	0.086738	-0.299275
H	3.34324	-1.28674	1.39573
H	6.08043	-0.931718	1.42959
H	4.48371	1.36326	-1.73247
H	2.51221	0.183651	-0.596553
