18
  This energy is -1.0924 and Call times are: 93782
C	0.708035	-0.512023	-0.723132
C	-0.620857	-0.356976	-0.98843
C	-1.16855	0.322797	0.142084
C	-0.125994	0.523141	0.998423
O	1.02769	0.0196304	0.486073
H	1.52049	-0.976702	-1.30558
H	-1.16122	-0.688083	-1.8898
H	-2.21799	0.623534	0.291517
H	-0.0755958	1.0043	1.98898
C	4.23039	0.768619	0.195167
C	5.38848	0.993094	-0.518675
N	6.16997	-0.113796	-0.542706
C	5.49924	-1.0215	0.153581
N	4.32339	-0.538042	0.61964
H	3.37518	1.42437	0.423521
H	5.67415	1.9339	-1.0168
H	5.82323	-2.0557	0.352862
H	3.61712	-1.05927	1.19476
