18
  This energy is -0.7083 and Call times are: 96461
C	-0.0340088	1.03569	0.461085
C	-0.981865	0.594675	-0.414959
C	-0.599434	-0.73548	-0.767878
C	0.548359	-0.989886	-0.0763429
O	0.908171	0.0808664	0.679327
H	0.081186	1.99502	0.991794
H	-1.86205	1.15031	-0.77639
H	-1.12416	-1.41621	-1.45734
H	1.19567	-1.88133	-0.0366858
C	6.47584	0.758235	-0.456331
C	6.75422	-0.45876	0.128968
N	5.61966	-1.07106	0.54653
C	4.64115	-0.237093	0.221512
N	5.10609	0.880453	-0.38554
H	7.13361	1.52054	-0.903304
H	7.7534	-0.905972	0.257442
H	3.5662	-0.395412	0.404952
H	4.53242	1.68645	-0.735583
