18
  This energy is -1.2957 and Call times are: 2447
C	0.134147	0.254571	-1.09709
C	0.808054	0.908466	-0.107822
C	0.378436	0.313179	1.1174
C	-0.520078	-0.651937	0.768699
O	-0.681425	-0.701615	-0.579823
H	0.146969	0.374174	-2.19289
H	1.53479	1.72781	-0.228758
H	0.705843	0.57921	2.13531
H	-1.10503	-1.36062	1.37768
C	4.04984	0.414228	0.889271
C	4.56173	1.13629	-0.16796
N	5.26403	0.339332	-1.00948
C	5.18811	-0.872531	-0.476329
N	4.46662	-0.87968	0.669531
H	3.43885	0.719403	1.75362
H	4.4369	2.21802	-0.33862
H	5.64241	-1.79005	-0.883759
H	4.26344	-1.71226	1.27516
