18
  This energy is -0.7198 and Call times are: 80877
C	0.41028	0.75717	0.738081
C	-0.91027	0.707845	0.400314
C	-1.03385	-0.360736	-0.539355
C	0.222086	-0.870075	-0.692855
O	1.11655	-0.199352	0.0798543
H	0.964987	1.4169	1.42533
H	-1.71647	1.35866	0.775256
H	-1.95492	-0.70316	-1.03783
H	0.604839	-1.69718	-1.31306
C	6.08363	-0.64305	-0.0637322
C	5.17684	-0.618545	0.974669
N	4.15846	0.23672	0.713998
C	4.43244	0.740882	-0.48157
N	5.58292	0.241851	-0.992405
H	7.01861	-1.20871	-0.202911
H	5.23916	-1.20266	1.90728
H	3.82442	1.4789	-1.02917
H	6.01178	0.483074	-1.91931
