18
  This energy is -0.7647 and Call times are: 43750
C	0.409265	-0.105043	-1.05255
C	-0.431964	-1.02598	-0.500662
C	-0.722817	-0.551147	0.814654
C	-0.0336483	0.618036	0.950421
O	0.663213	0.905774	-0.180332
H	0.89003	-0.0551383	-2.04332
H	-0.809776	-1.94726	-0.972467
H	-1.37097	-1.03107	1.56543
H	0.0424241	1.32862	1.78978
C	6.38781	-0.771126	0.0474308
C	6.48373	0.604041	0.0767411
N	5.25967	1.18091	0.00328163
C	4.40761	0.167472	-0.0713174
N	5.0388	-1.0303	-0.0483679
H	7.15836	-1.55742	0.086656
H	7.41424	1.19031	0.149577
H	3.31093	0.246104	-0.144399
H	4.58667	-1.97619	-0.0947196
