18
  This energy is -1.0747 and Call times are: 42593
C	-0.125244	0.643821	0.925316
C	-1.16899	0.335738	0.103093
C	-0.621955	-0.479191	-0.934578
C	0.707787	-0.597159	-0.654858
O	1.02858	0.0823876	0.477539
H	-0.0740196	1.24535	1.8477
H	-2.21881	0.650748	0.215978
H	-1.16331	-0.92165	-1.7862
H	1.52016	-1.12952	-1.17629
C	5.26434	-0.418183	-0.876851
C	4.73189	0.849533	-0.774196
N	4.01741	0.988327	0.368941
C	4.10627	-0.188808	0.973159
N	4.84768	-1.07082	0.261852
H	5.88941	-0.886468	-1.65373
H	4.85047	1.66652	-1.50449
H	3.64769	-0.458921	1.93803
H	5.06392	-2.06283	0.52723
