18
  This energy is -1.0331 and Call times are: 115498
C	-0.489036	1.02277	0.0343841
C	0.865059	0.861096	0.00862721
C	1.08979	-0.548867	-0.0316199
C	-0.146818	-1.12433	-0.0269051
O	-1.12271	-0.17932	0.0132049
H	-1.11669	1.92841	0.0679277
H	1.62901	1.65507	0.0171188
H	2.06262	-1.06544	-0.0605376
H	-0.46179	-2.18052	-0.0493614
C	4.67891	0.889732	0.271119
C	5.23887	-0.017469	1.14552
N	6.02038	-0.909633	0.489921
C	5.94552	-0.557245	-0.786341
N	5.14879	0.522148	-0.969963
H	4.00189	1.74245	0.438624
H	5.09298	-0.0442465	2.2377
H	6.45405	-1.05511	-1.62763
H	4.93058	0.989895	-1.88367
