18
  This energy is -0.6339 and Call times are: 77035
C	-0.863613	0.330035	-0.657001
C	-1.03929	-0.472748	0.431601
C	0.261158	-0.663501	0.990682
C	1.11672	0.039554	0.194374
O	0.446895	0.65257	-0.816845
H	-1.58073	0.736692	-1.38887
H	-1.98933	-0.888849	0.803585
H	0.519869	-1.25691	1.88233
H	2.20904	0.180797	0.240413
C	5.12198	0.747902	-0.234147
C	6.12268	0.912976	0.699932
N	6.96794	-0.14629	0.702865
C	6.49342	-0.965389	-0.225862
N	5.38128	-0.471199	-0.819592
H	4.27204	1.39026	-0.514339
H	6.24992	1.77742	1.3718
H	6.92155	-1.93974	-0.511481
H	4.82292	-0.929415	-1.58086
