18
  This energy is -0.8817 and Call times are: 37246
C	0.278566	-0.396329	1.02554
C	0.65236	-1.02389	-0.12634
C	0.121257	-0.234562	-1.19171
C	-0.530201	0.805667	-0.596814
O	-0.444304	0.722755	0.75698
H	0.461535	-0.642052	2.0845
H	1.24285	-1.94977	-0.216725
H	0.21809	-0.426764	-2.27234
H	-1.08621	1.65822	-1.02021
C	5.30862	0.816541	0.825668
C	4.35708	0.0675943	0.166278
N	4.93133	-0.779063	-0.722495
C	6.23417	-0.556206	-0.614886
N	6.51267	0.397151	0.305514
H	5.2172	1.5924	1.60234
H	3.26649	0.122976	0.31591
H	7.02834	-1.06323	-1.18625
H	7.46447	0.749668	0.572093
