18
  This energy is -0.6122 and Call times are: 45400
C	0.898147	-0.309694	-0.619534
C	0.541821	0.996149	-0.451669
C	-0.620884	0.980648	0.377785
C	-0.87243	-0.3333	0.643566
O	0.0454072	-1.13531	0.0424329
H	1.7261	-0.775517	-1.17877
H	1.04706	1.8815	-0.869976
H	-1.19637	1.85159	0.730449
H	-1.66226	-0.820692	1.23843
C	6.09813	-0.887019	-0.767242
C	4.96484	-0.510738	-0.0778954
N	5.21096	0.554813	0.72244
C	6.49207	0.838492	0.53033
N	7.07128	-0.00239298	-0.359062
H	6.27508	-1.69476	-1.4951
H	3.97399	-0.989017	-0.143684
H	7.05627	1.65131	1.01535
H	8.07117	0.0160229	-0.677097
