18
  This energy is -1.3591 and Call times are: 132517
C	0.611855	0.950001	0.0976389
C	0.0399703	0.567319	-1.08002
C	-0.636251	-0.660478	-0.805507
C	-0.417902	-0.919699	0.515667
O	0.342456	0.0535033	1.08289
H	1.22607	1.82664	0.361262
H	0.0893588	1.09655	-2.0452
H	-1.21541	-1.27248	-1.51553
H	-0.744586	-1.75142	1.16125
C	5.55018	0.334044	-0.413064
C	4.48752	-0.148428	-1.1473
N	3.43175	-0.43608	-0.347845
C	3.8379	-0.133211	0.877688
N	5.10833	0.335223	0.891142
H	6.55602	0.665573	-0.716242
H	4.46369	-0.294125	-2.23957
H	3.24538	-0.235124	1.80114
H	5.65296	0.641043	1.73441
