18
  This energy is -2.6079 and Call times are: 118936
C	-0.472396	0.0105541	-1.03108
C	-0.224145	1.15368	-0.32965
C	0.365985	0.736152	0.902233
C	0.42626	-0.625261	0.844838
O	-0.0814611	-1.08537	-0.328846
H	-0.917148	-0.154611	-2.02615
H	-0.435398	2.18724	-0.647806
H	0.703254	1.38162	1.7291
H	0.802616	-1.37138	1.56381
C	3.99983	-0.341008	-1.00928
C	5.3211	-0.49591	-0.646795
N	5.55212	0.0136193	0.587514
C	4.37863	0.482835	0.989238
N	3.41054	0.292974	0.0616981
H	3.45538	-0.627504	-1.92308
H	6.11183	-0.966196	-1.25378
H	4.1724	0.97481	1.95343
H	2.403	0.574988	0.142917
