18
  This energy is -1.1779 and Call times are: 136761
C	0.621063	-0.0655995	-0.946772
C	-0.742671	-0.0818146	-0.965212
C	-1.15336	0.0179766	0.399153
C	-0.00433929	0.0863639	1.13089
O	1.08893	0.0366637	0.325099
H	1.36392	-0.119633	-1.75949
H	-1.39407	-0.156552	-1.85075
H	-2.1865	0.0359947	0.781779
H	0.167078	0.17118	2.21656
C	4.35247	0.598098	1.0028
C	4.87951	-0.668502	0.864615
N	4.90187	-1.04924	-0.435787
C	4.39064	-0.0227494	-1.10181
N	4.04393	0.995335	-0.279074
H	4.18085	1.224	1.89293
H	5.24403	-1.31444	1.67993
H	4.24753	0.0360999	-2.19281
H	3.62072	1.91253	-0.563495
