18
  This energy is -0.8686 and Call times are: 53982
C	0.798721	0.781503	0.194161
C	-0.504601	0.964507	0.552261
C	-1.19136	-0.220755	0.147737
C	-0.247076	-1.02342	-0.42185
O	0.974022	-0.427152	-0.402022
H	1.68539	1.42677	0.306819
H	-0.938824	1.84575	1.05122
H	-2.26391	-0.441206	0.270693
H	-0.315955	-2.02733	-0.872048
C	7.66011	0.383766	0.337605
C	6.65434	-0.0920082	1.15198
N	5.56627	-0.448656	0.427126
C	5.89578	-0.1951	-0.832143
N	7.1484	0.308092	-0.938566
H	8.67009	0.758343	0.568208
H	6.6943	-0.184324	2.24958
H	5.25754	-0.359228	-1.71529
H	7.63674	0.587373	-1.82445
