18
  This energy is -1.2229 and Call times are: 86197
C	-0.463737	-0.323726	0.983133
C	0.716018	0.357997	0.921436
C	0.965831	0.582316	-0.46687
C	-0.0833199	0.0178691	-1.13099
O	-0.965919	-0.54004	-0.261066
H	-1.04303	-0.706494	1.83938
H	1.34704	0.671457	1.76858
H	1.82905	1.10428	-0.910149
H	-0.31502	-0.0527826	-2.20643
C	7.39198	0.70299	0.308664
C	6.78512	0.630328	-0.927293
N	5.7898	-0.289362	-0.929624
C	5.77922	-0.785365	0.300211
N	6.72656	-0.21939	1.08495
H	8.22256	1.32505	0.678397
H	7.04763	1.22503	-1.81739
H	5.09876	-1.56469	0.679489
H	6.91773	-0.440995	2.09272
