18
  This energy is -0.6311 and Call times are: 112218
C	-0.324578	-0.521112	0.953673
C	-1.15451	0.304411	0.253609
C	-0.396855	0.761206	-0.867733
C	0.829193	0.174498	-0.753916
O	0.890982	-0.612005	0.352703
H	-0.477646	-1.09583	1.88186
H	-2.19579	0.565494	0.501939
H	-0.733895	1.44688	-1.66168
H	1.73033	0.235369	-1.38597
C	4.95592	-0.178897	-0.800389
C	6.05807	-0.974193	-0.56818
N	6.82393	-0.4688	0.42909
C	6.19928	0.635827	0.814097
N	5.06772	0.854223	0.103134
H	4.12759	-0.271909	-1.52063
H	6.31437	-1.90361	-1.10236
H	6.52689	1.32177	1.61184
H	4.40233	1.65751	0.218252
