18
  This energy is -1.7238 and Call times are: 108195
C	-0.244837	0.541807	0.965868
C	0.273599	1.18345	-0.120363
C	0.442254	0.180516	-1.12326
C	0.0119914	-0.985464	-0.561354
O	-0.411129	-0.78335	0.714237
H	-0.534764	0.910694	1.96342
H	0.513219	2.25546	-0.206719
H	0.838638	0.320316	-2.1418
H	-0.0432681	-2.01205	-0.959232
C	5.15631	-0.185996	-0.660277
C	4.5254	1.01984	-0.438785
N	3.45171	0.867503	0.373928
C	3.41667	-0.427907	0.655549
N	4.42356	-1.10611	0.055713
H	6.04522	-0.445783	-1.25684
H	4.82568	1.99702	-0.850835
H	2.67532	-0.93272	1.2957
H	4.61043	-2.13654	0.123207
