18
  This energy is -0.4347 and Call times are: 123545
C	0.964882	-0.262829	-0.535093
C	-0.034648	0.444062	-1.13644
C	-1.06665	0.572182	-0.157323
C	-0.606662	-0.0677256	0.955916
O	0.632498	-0.583648	0.743034
H	1.94837	-0.596979	-0.904338
H	-0.0442549	0.83596	-2.16621
H	-2.0355	1.08317	-0.277007
H	-1.0591	-0.223609	1.94902
C	7.2259	-0.731452	0.409823
C	7.37634	0.608571	0.121983
N	6.21722	1.14389	-0.332317
C	5.35099	0.139779	-0.326335
N	5.91091	-1.01223	0.112939
H	7.93781	-1.48015	0.792162
H	8.30048	1.19872	0.233971
H	4.29411	0.193029	-0.633571
H	5.43414	-1.94213	0.20905
