18
  This energy is -1.3496 and Call times are: 104961
C	0.723094	-0.521534	0.701097
C	-0.111243	-1.20845	-0.131011
C	-0.854621	-0.218656	-0.843624
C	-0.408927	0.98573	-0.384077
O	0.554714	0.819615	0.559752
H	1.47313	-0.866058	1.43185
H	-0.194824	-2.30241	-0.232785
H	-1.62917	-0.392613	-1.60777
H	-0.693225	2.01841	-0.644857
C	3.81051	-0.86517	-0.401463
C	3.90265	0.417661	-0.898452
N	4.79772	1.15159	-0.193683
C	5.2591	0.32721	0.736987
N	4.69469	-0.900828	0.653587
H	3.19871	-1.72649	-0.713507
H	3.33933	0.826789	-1.75293
H	6.01096	0.571251	1.5047
H	4.89288	-1.7234	1.27436
