18
  This energy is -1.7728 and Call times are: 124252
C	0.377541	0.812329	0.69569
C	-0.317144	1.09172	-0.444367
C	-0.614083	-0.171684	-1.04082
C	-0.0746404	-1.11159	-0.212601
O	0.534822	-0.528393	0.852974
H	0.808642	1.46946	1.46873
H	-0.592818	2.08758	-0.826927
H	-1.16576	-0.350142	-1.97779
H	-0.0567014	-2.21236	-0.269476
C	4.7408	-0.397678	-1.09869
C	5.73279	-0.16181	-0.170541
N	5.21297	0.293512	0.99521
C	3.90347	0.339938	0.791037
N	3.56856	-0.0669714	-0.456299
H	4.78463	-0.765201	-2.13626
H	6.81427	-0.312016	-0.321156
H	3.14427	0.664099	1.52094
H	2.60037	-0.120363	-0.857579
