18
  This energy is -0.9106 and Call times are: 127693
C	0.749322	-0.82144	0.22395
C	0.422164	-0.458527	-1.04948
C	-0.537361	0.591845	-0.922416
C	-0.711852	0.778076	0.417451
O	0.0661599	-0.0765666	1.1325
H	1.44464	-1.58433	0.610975
H	0.816927	-0.887462	-1.98451
H	-1.03447	1.13922	-1.73933
H	-1.35162	1.47668	0.98128
C	6.06241	0.156586	-1.0219
C	6.63574	-0.0214745	0.219365
N	5.68941	-0.172353	1.1776
C	4.5334	-0.0882133	0.53325
N	4.70497	0.109946	-0.795241
H	6.50941	0.308133	-2.01727
H	7.71526	-0.0437799	0.440675
H	3.53155	-0.164809	0.98565
H	3.94813	0.209153	-1.51539
