18
  This energy is -0.8484 and Call times are: 30919
C	-0.287302	0.485334	-0.984027
C	-1.20003	0.223122	-0.00497591
C	-0.46669	-0.38065	1.06169
C	0.829439	-0.434095	0.640307
O	0.957232	0.0904717	-0.606894
H	-0.395642	0.943359	-1.98089
H	-2.28126	0.433744	-0.0312851
H	-0.866275	-0.73123	2.02685
H	1.74147	-0.816159	1.12761
C	4.83256	-0.696008	0.674675
C	6.03966	-0.123601	1.01586
N	6.53335	0.620079	-0.00380451
C	5.63594	0.509452	-0.973875
N	4.59171	-0.27379	-0.613701
H	4.15064	-1.35205	1.23871
H	6.56319	-0.233895	1.9795
H	5.69391	0.981165	-1.96804
H	3.75756	-0.51371	-1.20352
