18
  This energy is -2.3017 and Call times are: 91863
C	-0.206962	1.08213	0.26936
C	-0.531501	0.0482991	1.09775
C	-0.120433	-1.13979	0.41983
C	0.419017	-0.727103	-0.762986
O	0.374419	0.626866	-0.871578
H	-0.335761	2.17185	0.375101
H	-1.01215	0.11559	2.08697
H	-0.218998	-2.17682	0.778919
H	0.862179	-1.2905	-1.60051
C	3.75572	1.15363	-0.228651
C	4.51561	0.208546	-0.884815
N	4.32168	-1.02532	-0.359009
C	3.44483	-0.846382	0.61963
N	3.0728	0.450193	0.738296
H	3.65595	2.2407	-0.376439
H	5.20031	0.394877	-1.72821
H	3.04134	-1.63045	1.28044
H	2.39354	0.844482	1.43429
