18
  This energy is -0.929 and Call times are: 77655
C	0.399956	-0.534938	-0.916667
C	1.04513	0.524656	-0.349756
C	0.244399	0.918884	0.765382
C	-0.819402	0.0653965	0.781476
O	-0.740601	-0.829053	-0.238702
H	0.646119	-1.15724	-1.79268
H	1.99011	0.982699	-0.683381
H	0.445106	1.74336	1.46827
H	-1.68738	-0.00837721	1.45707
C	6.07986	0.369986	0.886563
C	6.26463	0.618003	-0.457123
N	5.29016	0.0385158	-1.19949
C	4.50384	-0.566698	-0.319693
N	4.93761	-0.396309	0.951686
H	6.66099	0.674413	1.77152
H	7.08362	1.20469	-0.904223
H	3.59733	-1.14839	-0.55231
H	4.48922	-0.775667	1.82133
