18
  This energy is -0.7854 and Call times are: 51804
C	-0.835529	0.553908	0.530545
C	0.479771	0.755235	0.830258
C	1.2151	-0.110057	-0.0361585
C	0.284237	-0.763765	-0.788842
O	-0.973397	-0.370538	-0.456067
H	-1.75573	1.00034	0.941854
H	0.890936	1.44398	1.58568
H	2.30975	-0.225593	-0.0860611
H	0.387172	-1.5213	-1.58307
C	5.51217	0.153649	0.942533
C	6.81843	0.569555	0.794752
N	7.30644	0.224567	-0.421531
C	6.30672	-0.402974	-1.026
N	5.20286	-0.47157	-0.244739
H	4.80442	0.254968	1.7806
H	7.41751	1.11238	1.54395
H	6.32914	-0.832032	-2.04071
H	4.28605	-0.916297	-0.495636
