18
  This energy is -1.3208 and Call times are: 47849
C	-0.476865	0.619641	0.821612
C	0.783011	0.864432	0.359915
C	1.02345	-0.110435	-0.65593
C	-0.110724	-0.864894	-0.725327
O	-1.03749	-0.433035	0.170007
H	-1.07968	1.11607	1.59971
H	1.47375	1.65244	0.700529
H	1.93767	-0.228556	-1.25954
H	-0.37899	-1.7249	-1.36068
C	5.62264	-0.498228	-0.783997
C	4.88959	-1.14101	0.190997
N	4.16371	-0.257696	0.918583
C	4.44538	0.928551	0.396947
N	5.32038	0.836628	-0.632378
H	6.31491	-0.883398	-1.54947
H	4.87145	-2.22629	0.382489
H	4.03875	1.89689	0.730426
H	5.69682	1.63089	-1.20571
