18
  This energy is -1.273 and Call times are: 7300
C	0.730894	0.729926	-0.468404
C	0.980964	0.10624	0.718548
C	-0.155322	-0.721087	0.972521
C	-0.999451	-0.529935	-0.0816514
O	-0.474182	0.353118	-0.971214
H	1.32235	1.45374	-1.05281
H	1.87582	0.217607	1.35173
H	-0.316634	-1.37871	1.84177
H	-1.98903	-0.957266	-0.31268
C	5.54938	0.185422	0.963853
C	5.2279	-1.03314	0.404469
N	4.46315	-0.875788	-0.703195
C	4.31079	0.435397	-0.830491
N	4.94689	1.11884	0.150262
H	6.14442	0.445727	1.85364
H	5.53405	-2.02303	0.780272
H	3.7433	0.948507	-1.62353
H	4.97564	2.16118	0.268388
