18
  This energy is -1.4964 and Call times are: 83301
C	0.359976	0.052827	1.07426
C	0.444923	1.11466	0.222397
C	-0.101261	0.66512	-1.01845
C	-0.471759	-0.631738	-0.815323
O	-0.197372	-1.02216	0.457191
H	0.6571	-0.0635331	2.12945
H	0.851426	2.11421	0.445448
H	-0.202433	1.24682	-1.94877
H	-0.934597	-1.37359	-1.48665
C	4.66577	-1.13913	-0.129743
C	3.78934	-0.592729	0.78374
N	3.72472	0.754614	0.653356
C	4.55789	1.04297	-0.337247
N	5.14996	-0.0650518	-0.842556
H	4.96907	-2.18152	-0.316765
H	3.20247	-1.14655	1.53455
H	4.77195	2.04895	-0.732732
H	5.84535	-0.0993824	-1.62774
