18
  This energy is -0.9027 and Call times are: 19408
C	0.53333	-0.541366	0.841952
C	-0.78041	-0.183184	0.920485
C	-1.08287	0.467168	-0.314699
C	0.0727408	0.448995	-1.039
O	1.07012	-0.163097	-0.347915
H	1.19299	-1.06229	1.55521
H	-1.46756	-0.359279	1.76364
H	-2.05116	0.89557	-0.619638
H	0.311558	0.832976	-2.04437
C	4.30522	0.175196	0.744158
C	5.1894	-0.882799	0.747686
N	6.09602	-0.765259	-0.252686
C	5.77549	0.36137	-0.874454
N	4.70252	0.965539	-0.311161
H	3.44993	0.413654	1.39619
H	5.18941	-1.72884	1.45413
H	6.29306	0.790242	-1.74762
H	4.25797	1.86471	-0.619576
