18
  This energy is -0.7896 and Call times are: 6000
C	0.0703902	1.03837	0.45081
C	-1.11578	0.377975	0.319466
C	-0.799191	-0.878807	-0.280858
C	0.552494	-0.875466	-0.463368
O	1.09981	0.287637	-0.0221735
H	0.31184	2.03347	0.859147
H	-2.11359	0.739578	0.615615
H	-1.50274	-1.68537	-0.542706
H	1.23445	-1.62906	-0.890322
C	6.25549	-0.665436	0.458714
C	6.13245	0.704666	0.552663
N	5.02479	1.14131	-0.0945877
C	4.4628	0.0462582	-0.588197
N	5.16698	-1.06904	-0.281844
H	7.01528	-1.35867	0.853279
H	6.82308	1.38594	1.07588
H	3.53515	0.00421238	-1.18143
H	4.92906	-2.05361	-0.556187
