18
  This energy is -0.7713 and Call times are: 54461
C	-0.0867463	1.10838	-0.224413
C	-1.00998	0.201481	-0.655161
C	-0.560579	-1.06894	-0.181677
C	0.597603	-0.826225	0.496612
O	0.902002	0.498198	0.480613
H	-0.0207315	2.20136	-0.352054
H	-1.91652	0.406557	-1.24696
H	-1.04941	-2.04471	-0.333374
H	1.28891	-1.50091	1.02778
C	5.0097	0.255379	-0.918348
C	4.63543	-0.379796	0.246819
N	5.6871	-0.510905	1.09139
C	6.70992	0.0408347	0.4526
N	6.35262	0.517563	-0.763402
H	4.43462	0.530202	-1.81684
H	3.62539	-0.745815	0.493206
H	7.74219	0.1225	0.82939
H	6.97922	0.995793	-1.45617
