18
  This energy is -0.8435 and Call times are: 76095
C	0.861295	-0.0634829	-0.735215
C	0.863797	-0.734198	0.452433
C	-0.372366	-0.407052	1.08883
C	-1.02114	0.434698	0.233888
O	-0.282239	0.655442	-0.885175
H	1.60281	-0.015923	-1.54955
H	1.65661	-1.39321	0.841341
H	-0.72856	-0.761985	2.06926
H	-1.99963	0.937451	0.305028
C	6.4172	0.241206	0.811847
C	6.28999	0.82193	-0.432228
N	5.23514	0.304421	-1.10749
C	4.70994	-0.593936	-0.285448
N	5.3869	-0.669474	0.884853
H	7.14376	0.406051	1.62332
H	6.94045	1.60506	-0.85468
H	3.8296	-1.22424	-0.490295
H	5.16852	-1.30138	1.69372
