18
  This energy is -0.6237 and Call times are: 2639
C	-0.42573	-0.821257	0.656271
C	0.779438	-0.234896	0.909499
C	0.965796	0.736557	-0.120874
C	-0.141943	0.658081	-0.912788
O	-1.00232	-0.288114	-0.452923
H	-0.976156	-1.61805	1.18296
H	1.46811	-0.463524	1.73869
H	1.82768	1.41089	-0.249407
H	-0.433072	1.21297	-1.81976
C	6.26962	1.12101	-0.31567
C	5.1062	0.566192	0.173993
N	5.26638	-0.754017	0.434576
C	6.52438	-1.01721	0.107814
N	7.17128	0.0808032	-0.349876
H	6.51165	2.1482	-0.63167
H	4.1541	1.09484	0.343926
H	7.02295	-1.99695	0.183911
H	8.16949	0.130291	-0.66983
