18
  This energy is -0.8703 and Call times are: 83269
C	0.646097	-0.882021	-0.301661
C	0.369441	-0.591254	1.00191
C	-0.459814	0.5714	0.975685
C	-0.616701	0.888479	-0.341593
O	0.0519023	0.0114026	-1.13577
H	1.2448	-1.68609	-0.760216
H	0.71469	-1.14041	1.89259
H	-0.885352	1.10292	1.842
H	-1.17183	1.70213	-0.836635
C	4.94907	1.07803	-0.315907
C	4.30314	-0.111962	-0.576381
N	4.98972	-1.16266	-0.0653538
C	6.05753	-0.626534	0.50996
N	6.07881	0.721729	0.38617
H	4.69327	2.11849	-0.571929
H	3.354	-0.231217	-1.12389
H	6.85534	-1.17536	1.03581
H	6.81556	1.3718	0.754785
