18
  This energy is -0.8696 and Call times are: 103451
C	-0.0230863	-1.05832	-0.40722
C	0.655113	-0.727515	0.728997
C	0.449491	0.673896	0.913078
C	-0.336209	1.07576	-0.126899
O	-0.634396	0.0307949	-0.943076
H	-0.146356	-2.02035	-0.93119
H	1.24137	-1.40264	1.3729
H	0.844625	1.30138	1.72808
H	-0.745581	2.06365	-0.39474
C	6.41159	0.37762	0.0828216
C	5.49683	0.705916	-0.895222
N	4.30929	0.0894106	-0.680308
C	4.48667	-0.618656	0.426851
N	5.73783	-0.478227	0.925297
H	7.45939	0.682298	0.233891
H	5.67243	1.37658	-1.75209
H	3.73364	-1.25738	0.915944
H	6.12154	-0.934395	1.78897
