18
  This energy is -0.7934 and Call times are: 26288
C	-0.17268	1.11258	-0.136945
C	-0.885573	0.17299	-0.822024
C	-0.386968	-1.09194	-0.384461
C	0.5866	-0.81367	0.529379
O	0.730845	0.527771	0.692908
H	-0.212749	2.21415	-0.150474
H	-1.68259	0.35264	-1.56133
H	-0.720539	-2.08803	-0.717059
H	1.24029	-1.47212	1.12468
C	5.45889	0.152264	1.15845
C	4.47411	0.182438	0.193848
N	4.99195	-0.0320714	-1.03998
C	6.29303	-0.194702	-0.841577
N	6.62449	-0.0925619	0.467349
H	5.4142	0.283316	2.25132
H	3.39924	0.355144	0.366071
H	7.04827	-0.391011	-1.61959
H	7.58619	-0.182699	0.877576
