18
  This energy is -0.8666 and Call times are: 72879
C	-1.00835	-0.0297992	0.518407
C	-0.85014	-0.374569	-0.791737
C	0.540357	-0.210468	-1.07406
C	1.10911	0.220095	0.0884826
O	0.177915	0.335998	1.07156
H	-1.90103	-0.00291161	1.16466
H	-1.63398	-0.710723	-1.48937
H	1.04897	-0.394091	-2.03411
H	2.15117	0.475313	0.341916
C	6.0019	1.03863	0.23332
C	6.25572	0.22114	-0.847621
N	5.49717	-0.900863	-0.800474
C	4.77551	-0.779895	0.305509
N	5.04345	0.372565	0.964019
H	6.4215	2.01466	0.524571
H	6.9726	0.420814	-1.66069
H	4.03594	-1.5058	0.680095
H	4.60467	0.696913	1.86042
