18
  This energy is -0.6868 and Call times are: 103012
C	0.7561	-0.501547	-0.680562
C	0.344263	0.785025	-0.868969
C	-0.595176	1.05147	0.173423
C	-0.674485	-0.0958091	0.906802
O	0.144104	-1.05473	0.399466
H	1.47016	-1.12969	-1.23806
H	0.669402	1.47702	-1.6624
H	-1.14324	1.99111	0.34889
H	-1.26756	-0.353225	1.79969
C	6.5957	-0.231014	0.727637
C	6.67551	0.0493344	-0.62002
N	5.44623	0.266042	-1.14767
C	4.60699	0.120686	-0.131217
N	5.25134	-0.179524	1.0213
H	7.37445	-0.456011	1.4736
H	7.59807	0.0991198	-1.22107
H	3.51073	0.223111	-0.175428
H	4.81076	-0.342087	1.95976
