18
  This energy is -1.1243 and Call times are: 69388
C	0.627527	0.0926888	0.940223
C	1.06938	-0.563051	-0.171149
C	0.0138336	-0.46516	-1.12842
C	-0.979865	0.241758	-0.517512
O	-0.62211	0.590522	0.746366
H	1.10071	0.272488	1.91952
H	2.04113	-1.06531	-0.303564
H	0.00446491	-0.876425	-2.1506
H	-1.97537	0.557763	-0.870157
C	5.10221	1.17269	-0.0180154
C	4.5017	0.305799	0.870257
N	4.83324	-0.979741	0.59826
C	5.63637	-0.910625	-0.454748
N	5.82958	0.365602	-0.86402
H	5.06467	2.27021	-0.105075
H	3.83516	0.584899	1.70253
H	6.11065	-1.76385	-0.965907
H	6.42083	0.680313	-1.67188
