18
  This energy is -0.8943 and Call times are: 62836
C	0.395254	-0.48707	0.944954
C	1.18394	0.268109	0.127611
C	0.339438	0.700841	-0.939943
C	-0.890765	0.171899	-0.680726
O	-0.874908	-0.556487	0.466538
H	0.615489	-1.02174	1.88351
H	2.25315	0.497431	0.262894
H	0.623685	1.33238	-1.79694
H	-1.84558	0.239336	-1.22757
C	5.65914	-0.588052	1.00696
C	4.78403	-0.908723	-0.0091555
N	4.86214	-0.0122091	-1.0224
C	5.78222	0.861313	-0.636351
N	6.29276	0.557757	0.580528
H	5.86886	-1.0778	1.97117
H	4.09767	-1.77091	-0.0293119
H	6.1203	1.74179	-1.20617
H	7.03067	1.09322	1.10016
