18
  This energy is -1.4953 and Call times are: 34371
C	0.921325	-0.456346	0.478862
C	0.96081	0.165674	-0.734359
C	-0.374467	0.601215	-0.994085
C	-1.11205	0.2069	0.0833502
O	-0.336749	-0.440439	0.992679
H	1.70891	-0.94425	1.07628
H	1.84185	0.303929	-1.38147
H	-0.734562	1.1443	-1.88261
H	-2.18237	0.325008	0.319388
C	5.16456	-1.11266	0.11908
C	5.15219	-0.365451	-1.03966
N	4.66681	0.879388	-0.813178
C	4.37916	0.904351	0.481139
N	4.6614	-0.273003	1.08758
H	5.48512	-2.14795	0.316431
H	5.4848	-0.702265	-2.03504
H	3.95985	1.75903	1.03606
H	4.52324	-0.502487	2.10223
