18
  This energy is -1.2742 and Call times are: 125917
C	0.233506	0.072859	1.10751
C	-0.512192	-0.941873	0.583457
C	-0.584597	-0.689173	-0.820473
C	0.123247	0.457673	-1.03041
O	0.629908	0.936742	0.136123
H	0.548315	0.290301	2.14136
H	-0.965767	-1.78387	1.13064
H	-1.10547	-1.29629	-1.57823
H	0.337312	1.02672	-1.94998
C	3.63004	-0.283927	-0.843586
C	4.39836	-1.15277	-0.0979777
N	5.17602	-0.481828	0.786106
C	4.89121	0.798381	0.589706
N	3.96458	0.969807	-0.382693
H	2.89346	-0.463105	-1.64289
H	4.40552	-2.25173	-0.182103
H	5.33209	1.65133	1.13038
H	3.57517	1.88366	-0.721055
