18
  This energy is -1.5304 and Call times are: 98684
C	-0.248671	-0.242211	-1.07977
C	0.691732	0.684334	-0.73694
C	0.717348	0.705564	0.690999
C	-0.209662	-0.209882	1.09471
O	-0.809263	-0.798246	0.0263853
H	-0.606222	-0.592086	-2.06211
H	1.30578	1.2919	-1.42098
H	1.3552	1.33286	1.33422
H	-0.531572	-0.530218	2.09921
C	4.24981	0.915909	-0.723635
C	4.1946	0.931983	0.653985
N	4.41467	-0.303186	1.16627
C	4.60569	-1.08256	0.110472
N	4.51627	-0.394486	-1.05235
H	4.12259	1.71749	-1.46849
H	3.99991	1.81269	1.28746
H	4.81457	-2.16429	0.132044
H	4.62854	-0.784851	-2.01996
