18
  This energy is -0.6801 and Call times are: 65162
C	-0.192936	1.06145	-0.350005
C	-0.905582	-0.00302477	-0.818414
C	-0.378012	-1.15066	-0.151547
C	0.610451	-0.686187	0.665505
O	0.737193	0.662586	0.557068
H	-0.250491	2.13802	-0.580087
H	-1.72097	0.0178372	-1.55922
H	-0.703032	-2.19653	-0.272507
H	1.28696	-1.20645	1.3633
C	6.25612	0.875891	-0.214912
C	6.25667	-0.377461	-0.789589
N	5.24123	-1.13562	-0.309402
C	4.61311	-0.355574	0.559865
N	5.18681	0.867473	0.652669
H	6.91889	1.74424	-0.357193
H	6.97158	-0.748274	-1.54209
H	3.72772	-0.629827	1.15577
H	4.87623	1.65859	1.26824
