18
  This energy is -1.3252 and Call times are: 31950
C	-0.97145	-0.24752	0.530489
C	0.0995438	-1.0921	0.536001
C	1.11581	-0.439803	-0.226775
C	0.576131	0.745803	-0.631071
O	-0.698002	0.879802	-0.177595
H	-1.97149	-0.331981	0.986598
H	0.16713	-2.07577	1.02786
H	2.12801	-0.817163	-0.443906
H	0.990126	1.56895	-1.23629
C	5.17409	-0.465348	-1.0142
C	4.74697	0.828906	-0.805347
N	4.38709	1.02218	0.486801
C	4.59018	-0.147722	1.07731
N	5.06436	-1.07736	0.214455
H	5.53627	-0.977106	-1.91999
H	4.69202	1.6267	-1.56387
H	4.40823	-0.378528	2.13932
H	5.30296	-2.07438	0.438691
