18
  This energy is -1.2051 and Call times are: 88649
C	0.552328	0.154418	0.978514
C	-0.0107303	-1.04039	0.638252
C	-0.604685	-0.841273	-0.645372
C	-0.352151	0.457632	-0.976198
O	0.353445	1.08067	0.00408881
H	1.11392	0.469563	1.87325
H	-0.00807645	-1.96881	1.23165
H	-1.15411	-1.58462	-1.24509
H	-0.616989	1.04983	-1.8675
C	5.73717	0.451974	-0.324182
C	5.07949	0.662465	0.869257
N	3.90616	-0.0145964	0.906602
C	3.8362	-0.642729	-0.259237
N	4.91638	-0.393394	-1.03682
H	6.6991	0.831282	-0.704108
H	5.43058	1.29074	1.70404
H	3.01625	-1.2979	-0.594874
H	5.09465	-0.771935	-1.9992
