18
  This energy is -1.632 and Call times are: 56766
C	-0.50687	-0.83632	0.574502
C	-0.101268	0.31996	1.17357
C	0.482916	1.1124	0.138731
C	0.382731	0.370415	-1.00135
O	-0.219188	-0.822633	-0.753678
H	-1.0053	-1.73296	0.978043
H	-0.203228	0.58797	2.23746
H	0.923953	2.11698	0.240753
H	0.697133	0.576372	-2.03769
C	5.02393	1.12194	-0.308761
C	6.23821	0.490699	-0.140797
N	6.06973	-0.805276	0.217776
C	4.75593	-0.977363	0.272055
N	4.0815	0.155396	-0.0371182
H	4.77217	2.15607	-0.592892
H	7.23284	0.947159	-0.271918
H	4.23444	-1.91239	0.532824
H	3.03925	0.274642	-0.0646529
