18
  This energy is -0.8475 and Call times are: 42753
C	0.388276	-0.779	0.727188
C	0.730182	0.538374	0.816624
C	0.0529576	1.1919	-0.257802
C	-0.643008	0.216193	-0.908956
O	-0.449773	-0.99373	-0.320943
H	0.670606	-1.65083	1.33993
H	1.39281	1.00328	1.5642
H	0.0861127	2.26425	-0.508893
H	-1.30297	0.253679	-1.79117
C	6.11666	-0.293718	-0.886128
C	6.2818	0.748942	0.000851283
N	5.26446	0.795658	0.894919
C	4.47121	-0.214181	0.563853
N	4.94166	-0.901488	-0.503799
H	6.73162	-0.634842	-1.73406
H	7.11678	1.46834	0.0116997
H	3.53339	-0.495131	1.06962
H	4.49619	-1.73798	-0.954464
