18
  This energy is -0.9365 and Call times are: 64675
C	0.0978558	1.12538	0.101668
C	-1.11215	0.502947	0.00766716
C	-0.826561	-0.891991	-0.105058
C	0.53275	-0.998839	-0.0699901
O	1.11344	0.223435	0.0559338
H	0.366597	2.18964	0.203572
H	-2.1061	0.978416	0.0167914
H	-1.55506	-1.71311	-0.200711
H	1.19886	-1.8755	-0.124932
C	4.85969	0.0699646	-1.12445
C	4.43828	-0.850234	-0.188076
N	5.03574	-0.637345	1.00952
C	5.82479	0.410938	0.816835
N	5.75415	0.873862	-0.453716
H	4.59519	0.205123	-2.18526
H	3.71385	-1.66395	-0.355165
H	6.47563	0.88042	1.57196
H	6.28047	1.68972	-0.85198
