18
  This energy is -1.2286 and Call times are: 90019
C	0.589865	0.24855	-0.936313
C	0.540605	-1.01176	-0.41711
C	-0.288047	-0.924591	0.742999
C	-0.672015	0.381287	0.830311
O	-0.145049	1.11208	-0.187165
H	1.10547	0.654764	-1.82197
H	1.03791	-1.91245	-0.811498
H	-0.560966	-1.74426	1.42692
H	-1.3094	0.908784	1.55883
C	3.90169	-0.772216	0.389193
C	4.74911	-0.929545	-0.687033
N	5.53846	0.159785	-0.850753
C	5.18208	0.989749	0.120214
N	4.1987	0.473654	0.894942
H	3.1339	-1.43651	0.816702
H	4.80511	-1.80955	-1.34832
H	5.60875	1.98792	0.309521
H	3.74832	0.934733	1.72309
