18
  This energy is -0.9175 and Call times are: 133855
C	-0.965735	-0.214023	-0.554934
C	-0.0683159	0.719309	-0.983776
C	1.00085	0.697722	-0.036925
C	0.662407	-0.246896	0.886938
O	-0.535575	-0.813829	0.586209
H	-1.93439	-0.540651	-0.967568
H	-0.150951	1.35883	-1.87724
H	1.912	1.31717	-0.050302
H	1.18139	-0.603562	1.79175
C	4.64959	-0.367672	0.382816
C	5.62295	-1.13227	-0.224723
N	6.7088	-0.383643	-0.53616
C	6.41021	0.840732	-0.123397
N	5.17939	0.902165	0.437758
H	3.65072	-0.628624	0.767132
H	5.56117	-2.21069	-0.443919
H	7.05651	1.72925	-0.207459
H	4.71682	1.75469	0.838362
