18
  This energy is -1.0254 and Call times are: 119224
C	0.834808	0.57269	-0.511392
C	0.822373	0.345069	0.833378
C	-0.370544	-0.396166	1.09345
C	-0.981775	-0.556069	-0.115349
O	-0.259494	0.0293462	-1.10662
H	1.55579	1.10069	-1.15689
H	1.57749	0.666857	1.56846
H	-0.724233	-0.763351	2.07027
H	-1.92062	-1.05943	-0.398976
C	6.19831	-0.0624283	0.757782
C	5.01084	0.615256	0.936124
N	4.20061	0.473112	-0.140832
C	4.88284	-0.289853	-0.984081
N	6.09357	-0.639051	-0.488301
H	7.08103	-0.171523	1.40774
H	4.7242	1.20422	1.82258
H	4.54287	-0.622843	-1.97795
H	6.81502	-1.23542	-0.962747
