18
  This energy is -0.9238 and Call times are: 99524
C	-0.191426	0.582307	0.954293
C	1.02473	0.571269	0.336859
C	0.871175	-0.259999	-0.814459
C	-0.425256	-0.683554	-0.798944
O	-1.08885	-0.178769	0.274295
H	-0.541703	1.08557	1.87042
H	1.9383	1.09587	0.659768
H	1.64202	-0.508053	-1.56169
H	-0.989185	-1.33692	-1.48477
C	5.99004	1.00246	0.477517
C	4.83073	0.827723	-0.248156
N	4.69357	-0.460041	-0.647358
C	5.76373	-1.08183	-0.171151
N	6.57611	-0.243069	0.514499
H	6.42497	1.89523	0.954324
H	4.09081	1.60777	-0.490829
H	6.00182	-2.15054	-0.295278
H	7.48016	-0.493799	0.984689
