18
  This energy is -0.9516 and Call times are: 84085
C	0.842754	-0.679346	0.338609
C	-0.39065	-0.699891	0.920561
C	-1.16517	0.281669	0.23007
C	-0.336691	0.815382	-0.712876
O	0.893537	0.240193	-0.660831
H	1.7567	-1.26138	0.541567
H	-0.721831	-1.34185	1.75261
H	-2.21626	0.55206	0.42031
H	-0.500415	1.59909	-1.47067
C	6.2605	-0.169698	0.481293
C	5.57154	-1.04401	-0.332379
N	4.37732	-0.524623	-0.707309
C	4.3256	0.667373	-0.128435
N	5.43742	0.927943	0.599272
H	7.24539	-0.248306	0.968471
H	5.91477	-2.04028	-0.655621
H	3.49708	1.38989	-0.204255
H	5.63483	1.79998	1.14868
