18
  This energy is -1.8463 and Call times are: 34243
C	-0.456131	-1.0358	-0.0738913
C	-0.204086	-0.268572	-1.17308
C	0.361381	0.946917	-0.680176
C	0.404967	0.815156	0.6767
O	-0.0903376	-0.389587	1.06436
H	-0.887451	-2.04497	0.0300182
H	-0.397011	-0.532127	-2.22541
H	0.694054	1.81315	-1.27437
H	0.760439	1.49722	1.46643
C	4.07939	-1.15731	-0.116393
C	4.19466	-0.41417	1.03929
N	3.91535	0.89198	0.810221
C	3.62791	0.958886	-0.482653
N	3.71274	-0.25055	-1.08569
H	4.22739	-2.23142	-0.311144
H	4.47435	-0.797058	2.03429
H	3.34886	1.86826	-1.03889
H	3.53338	-0.45799	-2.09864
