18
  This energy is -1.2071 and Call times are: 78975
C	0.896377	0.408485	-0.562183
C	0.926682	0.158887	0.778398
C	-0.369582	-0.339107	1.11279
C	-1.07759	-0.349865	-0.0529655
O	-0.319954	0.103504	-1.08615
H	1.66387	0.798391	-1.25079
H	1.7766	0.31027	1.46311
H	-0.724537	-0.650605	2.10832
H	-2.11371	-0.652868	-0.276295
C	5.43387	-0.419653	1.01032
C	4.53417	-1.04476	0.1731
N	4.25161	-0.272846	-0.904313
C	4.97326	0.826951	-0.736131
N	5.70328	0.786801	0.403629
H	5.88637	-0.737363	1.96312
H	4.08387	-2.03891	0.327162
H	5.0045	1.69272	-1.41708
H	6.35109	1.53262	0.757694
