18
  This energy is -0.7463 and Call times are: 90500
C	-0.549875	0.241266	-0.9622
C	0.803185	0.365611	-0.843274
C	1.11553	-0.024187	0.494864
C	-0.0742281	-0.352321	1.07553
O	-1.10196	-0.196087	0.200099
H	-1.22978	0.430132	-1.80914
H	1.51037	0.698439	-1.61994
H	2.11304	-0.0536735	0.961986
H	-0.319532	-0.705822	2.09047
C	6.82385	-0.0644195	-0.72625
C	6.3033	-1.08351	0.0429203
N	5.2364	-0.657205	0.761598
C	5.09561	0.621488	0.439501
N	6.02871	1.02645	-0.454326
H	7.67546	-0.0391261	-1.42458
H	6.67843	-2.11874	0.0921808
H	4.32613	1.30752	0.828713
H	6.1276	1.98818	-0.862432
