18
  This energy is -1.746 and Call times are: 84825
C	-0.0452231	-0.142448	-1.12431
C	0.67528	0.859435	-0.543375
C	0.486515	0.711064	0.864627
C	-0.332675	-0.368389	1.01981
O	-0.667241	-0.901968	-0.184501
H	-0.194009	-0.417874	-2.18131
H	1.27911	1.62605	-1.05503
H	0.914887	1.33977	1.6617
H	-0.744108	-0.85026	1.92191
C	4.10864	-0.608632	0.469185
C	5.45547	-0.833037	0.66112
N	6.20323	0.0590121	-0.0328635
C	5.32364	0.833873	-0.652969
N	4.04721	0.47182	-0.382306
H	3.21922	-1.12415	0.865068
H	5.90104	-1.62262	1.28791
H	5.55999	1.68075	-1.31717
H	3.17665	0.927376	-0.750874
