18
  This energy is -1.7064 and Call times are: 76031
C	-0.528518	-0.502025	-0.868931
C	-0.778878	0.78969	-0.509535
C	0.0672583	1.05501	0.610187
C	0.759987	-0.0980006	0.836192
O	0.408698	-1.05944	-0.0578066
H	-0.945604	-1.13136	-1.67219
H	-1.48824	1.48585	-0.98521
H	0.144375	1.99777	1.17529
H	1.52022	-0.358178	1.59092
C	5.60159	-0.249191	-1.13297
C	6.45372	-0.91361	-0.276491
N	6.436	-0.357471	0.959189
C	5.57614	0.648137	0.86963
N	5.04603	0.754887	-0.371812
H	5.35929	-0.414322	-2.19484
H	7.081	-1.7843	-0.528018
H	5.29779	1.33794	1.68261
H	4.34531	1.46688	-0.693256
