18
  This energy is -1.8972 and Call times are: 98158
C	-0.350002	-0.799087	-0.724817
C	-0.132137	0.491214	-1.10957
C	0.29315	1.18308	0.0654122
C	0.297629	0.254489	1.06445
O	-0.0924728	-0.961579	0.599678
H	-0.684695	-1.68409	-1.2905
H	-0.258262	0.913439	-2.11947
H	0.562326	2.24838	0.147638
H	0.554681	0.332145	2.13363
C	4.49229	0.489787	0.950186
C	4.5876	-0.827749	0.555014
N	3.89481	-1.04607	-0.589054
C	3.37171	0.131538	-0.902439
N	3.70294	1.09009	-0.00519211
H	4.91617	1.02484	1.81481
H	5.14384	-1.62472	1.07491
H	2.73836	0.347689	-1.77787
H	3.41358	2.09846	-0.0321746
