18
  This energy is -1.0584 and Call times are: 30488
C	0.660322	-0.883469	0.264306
C	1.01446	0.403225	0.546043
C	-0.0572417	1.21738	0.0677975
C	-0.971678	0.356333	-0.46397
O	-0.549751	-0.930746	-0.352541
H	1.17512	-1.84061	0.449024
H	1.93776	0.744766	1.04099
H	-0.130088	2.31567	0.118218
H	-1.94805	0.532012	-0.944683
C	4.61887	0.45863	-0.63116
C	4.58515	-0.698241	0.118278
N	5.7795	-0.928304	0.715856
C	6.55124	0.0819994	0.338574
N	5.89742	0.945349	-0.474285
H	3.84919	0.953476	-1.24456
H	3.72043	-1.37103	0.238513
H	7.60283	0.238351	0.628305
H	6.28971	1.81904	-0.903278
