18
  This energy is -2.2425 and Call times are: 11460
C	-0.723051	0.783185	-0.387582
C	-0.449645	0.635026	0.940451
C	0.491123	-0.436075	1.02885
C	0.709559	-0.847898	-0.252973
O	-0.0238215	-0.114262	-1.13101
H	-1.38754	1.48038	-0.923877
H	-0.868439	1.2212	1.77419
H	0.946767	-0.845487	1.94474
H	1.35405	-1.64103	-0.666276
C	4.49512	-0.626553	0.976961
C	5.20825	-0.68771	-0.201532
N	4.70847	0.173968	-1.12036
C	3.68917	0.767429	-0.514187
N	3.51968	0.319071	0.75224
H	4.60894	-1.17088	1.92791
H	6.07443	-1.33814	-0.405283
H	3.03347	1.53747	-0.9516
H	2.78515	0.632149	1.4332
