18
  This energy is -0.7788 and Call times are: 126141
C	0.694091	-0.484097	0.755175
C	-0.427036	-1.10613	0.289848
C	-1.02786	-0.192867	-0.629434
C	-0.220855	0.906622	-0.644717
O	0.835577	0.746038	0.195031
H	1.46286	-0.806265	1.47659
H	-0.794108	-2.10761	0.566229
H	-1.9534	-0.345481	-1.20752
H	-0.288074	1.85517	-1.20239
C	5.74217	0.722055	0.86409
C	4.59811	-0.0469022	0.832622
N	4.52015	-0.760019	-0.317117
C	5.61169	-0.434696	-0.996332
N	6.38093	0.455851	-0.326416
H	6.13389	1.4167	1.62407
H	3.82754	-0.0999226	1.61892
H	5.89669	-0.819127	-1.98892
H	7.29061	0.865483	-0.651896
