18
  This energy is -1.8854 and Call times are: 2892
C	-0.215448	-1.04456	0.385835
C	0.353032	-0.0806729	1.16565
C	0.461921	1.07816	0.33778
C	-0.049632	0.720112	-0.874858
O	-0.468044	-0.572874	-0.863451
H	-0.487688	-2.09126	0.599308
H	0.664452	-0.176126	2.21827
H	0.874552	2.05983	0.620894
H	-0.170364	1.28582	-1.81329
C	3.73353	0.954478	-0.391377
C	4.58924	0.14714	-1.11048
N	5.06452	-0.865258	-0.345194
C	4.50579	-0.686663	0.844154
N	3.69471	0.397403	0.867332
H	3.16831	1.85594	-0.676758
H	4.8722	0.277014	-2.1678
H	4.65612	-1.32015	1.73315
H	3.14165	0.746943	1.68783
