18
  This energy is -0.983 and Call times are: 63192
C	0.748309	0.731815	0.436899
C	1.10727	-0.513511	0.0118345
C	-0.0923208	-1.12472	-0.465145
C	-1.07844	-0.198945	-0.28945
O	-0.582907	0.940871	0.260345
H	1.33816	1.55202	0.878028
H	2.11565	-0.9572	0.0321372
H	-0.198958	-2.13653	-0.888192
H	-2.15771	-0.229187	-0.511992
C	5.00089	-0.701707	-0.802238
C	5.83269	0.37102	-1.0441
N	6.22551	0.955525	0.11373
C	5.63961	0.2481	1.07024
N	4.8903	-0.762288	0.568999
H	4.49663	-1.40288	-1.48607
H	6.15644	0.733703	-2.03329
H	5.72543	0.426695	2.1542
H	4.33156	-1.45906	1.11997
