18
  This energy is -2.3529 and Call times are: 130938
C	0.642478	-0.477035	0.803779
C	0.315537	0.847054	0.820259
C	-0.490827	1.06513	-0.338334
C	-0.585461	-0.144943	-0.960535
O	0.100673	-1.09821	-0.276779
H	1.24573	-1.08978	1.49362
H	0.612424	1.59515	1.57279
H	-0.94345	2.01593	-0.662702
H	-1.10419	-0.454256	-1.88276
C	4.57984	0.479005	1.03795
C	5.33688	-0.411568	0.306564
N	4.7087	-0.757784	-0.843237
C	3.56631	-0.0845544	-0.825227
N	3.44158	0.675664	0.288371
H	4.76441	0.970346	2.00648
H	6.32508	-0.810497	0.587921
H	2.78514	-0.111616	-1.60193
H	2.63201	1.29659	0.533971
