18
  This energy is -0.824 and Call times are: 41922
C	0.768103	-0.464551	-0.693261
C	1.05529	-0.134181	0.598542
C	-0.147429	0.415791	1.1381
C	-1.0634	0.372952	0.128382
O	-0.521401	-0.161734	-0.997387
H	1.38595	-0.915064	-1.48734
H	2.01754	-0.26468	1.11925
H	-0.303091	0.796488	2.16032
H	-2.11902	0.687672	0.085047
C	4.98782	0.563855	0.206516
C	6.25971	1.08995	0.288161
N	7.19468	0.15743	-0.0163564
C	6.50545	-0.942994	-0.28589
N	5.17069	-0.749292	-0.165492
H	3.99851	1.01591	0.380996
H	6.51948	2.12569	0.561337
H	6.92813	-1.91824	-0.576544
H	4.41846	-1.46338	-0.325117
