18
  This energy is -0.6739 and Call times are: 30221
C	0.342778	0.959064	0.499099
C	-0.824654	0.877072	-0.201439
C	-0.905323	-0.469569	-0.670659
C	0.219934	-1.09161	-0.215431
O	0.99356	-0.234037	0.500863
H	0.815998	1.79767	1.0358
H	-1.55567	1.68394	-0.370781
H	-1.71132	-0.914391	-1.27614
H	0.580911	-2.12672	-0.331604
C	4.75082	-0.0278697	0.252369
C	5.79529	-0.00411658	1.15217
N	6.99006	0.0253844	0.513279
C	6.68792	0.0199535	-0.777965
N	5.35045	-0.0117801	-0.987133
H	3.65965	-0.0542061	0.401401
H	5.7082	-0.00773669	2.25092
H	7.40723	0.0383433	-1.61253
H	4.86311	-0.0221509	-1.91646
