18
  This energy is -1.1719 and Call times are: 67432
C	0.936237	0.33627	0.544779
C	-0.21366	0.00987426	1.20172
C	-1.15165	-0.357514	0.189143
C	-0.492142	-0.223193	-0.997187
O	0.784124	0.199656	-0.798802
H	1.91797	0.675678	0.913893
H	-0.38424	0.0261866	2.29018
H	-2.19408	-0.682686	0.336411
H	-0.815524	-0.394968	-2.03698
C	4.74037	-1.00299	0.614397
C	4.12972	-0.803981	-0.605704
N	4.27913	0.476392	-1.02384
C	4.9798	1.06944	-0.0667719
N	5.28241	0.219481	0.942976
H	4.82476	-1.89816	1.25086
H	3.58401	-1.56132	-1.19178
H	5.29845	2.12422	-0.0548635
H	5.8263	0.448158	1.81081
