18
  This energy is -1.1899 and Call times are: 28264
C	0.532454	0.157897	-0.98892
C	0.917668	0.789374	0.157039
C	0.0184162	0.34063	1.17197
C	-0.836935	-0.525455	0.556631
O	-0.537612	-0.648984	-0.763277
H	0.932374	0.197645	-2.01544
H	1.75143	1.49991	0.275734
H	0.0163255	0.634056	2.23404
H	-1.68824	-1.11009	0.942295
C	5.03293	-1.1344	-0.20967
C	5.04916	-0.103394	-1.12504
N	4.73099	1.07601	-0.538288
C	4.51818	0.777809	0.736236
N	4.68777	-0.542446	0.984748
H	5.23582	-2.21153	-0.320023
H	5.28475	-0.189405	-2.19833
H	4.23581	1.48788	1.53014
H	4.57735	-1.02349	1.91085
