18
  This energy is -1.2756 and Call times are: 90244
C	-0.16285	-1.12099	-0.0571587
C	-1.02565	-0.22785	-0.621298
C	-0.488375	1.06549	-0.340738
C	0.655318	0.848527	0.370081
O	0.869535	-0.481075	0.552516
H	-0.171601	-2.22272	-0.0203975
H	-1.94792	-0.456824	-1.17905
H	-0.91125	2.03867	-0.63771
H	1.39413	1.54635	0.797215
C	4.19065	0.0224447	0.938836
C	5.09926	-0.961656	0.61155
N	5.74875	-0.663653	-0.539914
C	5.24498	0.500891	-0.925498
N	4.30188	0.956204	-0.0671013
H	3.49594	0.121075	1.78807
H	5.29781	-1.88136	1.18563
H	5.53086	1.06429	-1.82832
H	3.75887	1.8502	-0.151734
