18
  This energy is -0.9993 and Call times are: 107777
C	0.500837	0.483395	0.895485
C	0.812906	0.823765	-0.387923
C	-0.0152526	0.0106587	-1.22047
C	-0.76029	-0.754809	-0.372322
O	-0.458108	-0.479226	0.923731
H	0.884673	0.847894	1.86247
H	1.55213	1.57233	-0.715492
H	-0.0457963	0.00344356	-2.32188
H	-1.52875	-1.52167	-0.563739
C	5.88051	-0.959674	0.0319758
C	4.50792	-0.914101	0.154669
N	4.05186	0.359277	0.0708235
C	5.1374	1.10085	-0.103223
N	6.26525	0.352101	-0.133594
H	6.58717	-1.80457	0.050162
H	3.8385	-1.77722	0.302188
H	5.16329	2.19687	-0.214169
H	7.24593	0.703834	-0.259314
