18
  This energy is -0.7406 and Call times are: 95322
C	-0.478104	-0.985661	0.293749
C	0.447512	-0.360785	1.07678
C	0.807391	0.832902	0.379846
C	0.0699214	0.832095	-0.767547
O	-0.720715	-0.271146	-0.836569
H	-1.03103	-1.92994	0.427414
H	0.837722	-0.70582	2.04775
H	1.5321	1.59739	0.703021
H	0.0177309	1.54872	-1.6036
C	4.66954	0.146774	0.54927
C	5.41967	-1.00874	0.492288
N	6.55317	-0.820518	-0.226228
C	6.50641	0.446937	-0.613521
N	5.39014	1.07296	-0.171211
H	3.70606	0.368143	1.03533
H	5.16331	-1.97486	0.956751
H	7.26312	0.967508	-1.22231
H	5.12427	2.07329	-0.344167
