18
  This energy is -1.6009 and Call times are: 30791
C	-0.0699724	-1.12998	0.068177
C	-0.184376	-0.323731	1.16236
C	-0.0437492	1.0131	0.67942
C	0.144175	0.90575	-0.667256
O	0.131017	-0.395916	-1.05777
H	-0.112806	-2.22622	-0.039893
H	-0.351071	-0.638782	2.20498
H	-0.0797319	1.94062	1.27314
H	0.297011	1.66957	-1.4473
C	4.74022	0.434519	0.805211
C	4.21757	-0.840753	0.764381
N	3.39794	-0.998963	-0.303179
C	3.41205	0.173701	-0.922278
N	4.20669	1.07148	-0.292885
H	5.43101	0.917731	1.51433
H	4.41721	-1.64953	1.4861
H	2.85877	0.429219	-1.84033
H	4.38281	2.06372	-0.585626
