18
  This energy is -1.7418 and Call times are: 135089
C	-0.75915	-0.14295	-0.830456
C	-0.625251	-1.02957	0.197335
C	0.416399	-0.512449	1.02659
C	0.827084	0.644522	0.432347
O	0.119948	0.88561	-0.702927
H	-1.43347	-0.130928	-1.70246
H	-1.20213	-1.9549	0.355642
H	0.807725	-0.957126	1.95569
H	1.60211	1.37606	0.714173
C	4.00642	-0.827865	-0.813793
C	4.21337	0.51731	-1.03474
N	4.40429	1.18036	0.131627
C	4.31611	0.250068	1.07258
N	4.077	-0.977418	0.553262
H	3.82012	-1.66149	-1.50943
H	4.22835	1.02129	-2.01486
H	4.4187	0.413086	2.15754
H	3.96645	-1.87251	1.08978
