18
  This energy is -1.2532 and Call times are: 98652
C	-1.13011	-0.0961216	-0.00447887
C	-0.368027	-0.386283	-1.09783
C	0.984529	-0.146284	-0.706536
C	0.929577	0.26935	0.591386
O	-0.354069	0.305864	1.03628
H	-2.21972	-0.134687	0.158331
H	-0.722757	-0.734402	-2.08123
H	1.88699	-0.271326	-1.32623
H	1.72191	0.56472	1.29864
C	5.3703	1.09189	0.236106
C	5.1894	0.065994	1.13941
N	4.75252	-1.05804	0.521186
C	4.66272	-0.730699	-0.76077
N	5.02436	0.555009	-0.983842
H	5.7094	2.13134	0.3706
H	5.3663	0.116727	2.22614
H	4.33767	-1.39408	-1.57839
H	5.03852	1.04879	-1.90971
