18
  This energy is -0.8915 and Call times are: 47085
C	0.133157	-0.735871	0.85274
C	-0.515233	-1.06472	-0.301306
C	-0.477969	0.106431	-1.11808
C	0.189903	1.04758	-0.391054
O	0.570415	0.550367	0.815182
H	0.346693	-1.3196	1.76319
H	-0.973758	-2.03471	-0.552242
H	-0.901858	0.225022	-2.1282
H	0.455289	2.09339	-0.61707
C	5.43465	0.529658	-0.904823
C	4.2178	-0.118364	-0.926862
N	3.90566	-0.613469	0.295412
C	4.92499	-0.273889	1.07276
N	5.87276	0.416757	0.395753
H	6.00095	1.04594	-1.69621
H	3.55948	-0.237531	-1.8028
H	5.0283	-0.505576	2.14508
H	6.77032	0.794297	0.787045
