18
  This energy is -1.7999 and Call times are: 2827
C	0.633493	-0.433075	-0.835185
C	0.58433	-0.990701	0.408604
C	-0.306928	-0.173289	1.16861
C	-0.723724	0.811687	0.322163
O	-0.159318	0.668502	-0.905826
H	1.18666	-0.721111	-1.74419
H	1.12177	-1.88767	0.756034
H	-0.597907	-0.310475	2.22246
H	-1.41065	1.661	0.470633
C	4.71327	-0.804664	-0.752874
C	4.931	0.556225	-0.794316
N	4.3035	1.18289	0.230402
C	3.69878	0.214446	0.904986
N	3.91551	-1.00243	0.351961
H	5.05806	-1.61921	-1.40951
H	5.52962	1.09715	-1.54525
H	3.08458	0.34089	1.81108
H	3.5462	-1.92145	0.698748
