18
  This energy is -1.1662 and Call times are: 41160
C	-0.593601	0.928888	0.266843
C	0.0251875	0.778973	-0.93939
C	0.658719	-0.50048	-0.897495
C	0.371146	-1.01947	0.330642
O	-0.392781	-0.159944	1.05496
H	-1.19924	1.75186	0.680571
H	0.0345662	1.49731	-1.77485
H	1.25696	-0.971386	-1.69402
H	0.647004	-1.97673	0.802663
C	5.91017	-0.56006	0.225807
C	4.66008	-0.88006	0.711627
N	3.72054	-0.021355	0.246438
C	4.38523	0.828132	-0.525037
N	5.70875	0.545524	-0.569997
H	6.89596	-1.02533	0.38477
H	4.41925	-1.71516	1.38947
H	3.95185	1.67544	-1.08045
H	6.44181	1.0689	-1.10848
