18
  This energy is -0.8189 and Call times are: 114632
C	-0.761694	0.819938	-0.184187
C	0.503166	1.08285	0.253283
C	1.15036	-0.185666	0.363453
C	0.223852	-1.11176	-0.0164195
O	-0.94965	-0.51527	-0.354204
H	-1.61061	1.48613	-0.409527
H	0.936926	2.07094	0.476054
H	2.18567	-0.37665	0.688625
H	0.275436	-2.21058	-0.08847
C	5.81981	-0.833424	-0.766955
C	5.14356	-1.01715	0.420513
N	4.93964	0.163164	1.05437
C	5.48729	1.07566	0.263137
N	6.03122	0.524865	-0.847879
H	6.15441	-1.54925	-1.53453
H	4.79915	-1.98023	0.831255
H	5.51815	2.1613	0.449354
H	6.52072	1.03528	-1.6232
