18
  This energy is -1.5284 and Call times are: 82723
C	0.19156	-0.281057	-1.08199
C	0.937538	-0.779688	-0.0547377
C	0.400209	-0.201069	1.13547
C	-0.62669	0.600068	0.730464
O	-0.768295	0.563268	-0.620686
H	0.242849	-0.447141	-2.17059
H	1.78152	-1.48428	-0.127793
H	0.744751	-0.367837	2.1687
H	-1.32304	1.23908	1.29793
C	5.03714	-1.11507	-0.374596
C	5.93735	-0.493722	0.46486
N	5.58731	0.796327	0.687929
C	4.47419	0.974608	-0.0104854
N	4.10146	-0.148531	-0.668686
H	4.99747	-2.14239	-0.770314
H	6.83314	-0.953149	0.913561
H	3.89131	1.90752	-0.075007
H	3.26002	-0.261515	-1.28551
