44
  This energy is -5.5671 and Call times are: 31897
C	1.01118	2.48234	-2.21995
C	-0.0378316	1.7341	-1.49136
O	-1.19647	2.12595	-1.47111
H	0.563285	3.39093	-2.67793
H	1.44347	1.85043	-3.02403
H	1.81611	2.79204	-1.52046
N	0.35329	0.622137	-0.864506
C	-0.543896	-0.188174	-0.0790048
C	0.266113	-0.878515	1.00214
O	1.4947	-0.831026	0.995718
H	1.30782	0.338123	-0.856033
H	-1.26298	0.452422	0.416152
C	-1.26466	-1.22908	-0.963457
H	-0.527805	-1.89325	-1.46342
H	-1.9687	-1.85012	-0.372559
H	-1.84453	-0.701871	-1.75222
N	-0.409019	-1.53356	1.96709
C	0.276952	-2.21535	3.03985
H	-1.40321	-1.55736	1.95758
H	-0.451491	-2.69258	3.73183
H	0.899532	-1.50033	3.62501
H	0.948291	-3.00755	2.63629
C	4.41895	-2.74859	-2.13341
C	4.62945	-2.13871	-0.801159
O	4.74632	-2.83098	0.200599
H	4.37593	-3.85448	-2.02844
H	5.25705	-2.48434	-2.81201
H	3.46276	-2.39168	-2.57089
N	4.68082	-0.805264	-0.760322
C	4.83735	-0.0670883	0.468152
C	4.17206	1.28535	0.29534
O	3.76828	1.65239	-0.806452
H	4.54308	-0.254106	-1.57831
H	4.31589	-0.583717	1.26426
C	6.33084	0.105364	0.821683
H	6.86409	0.644627	0.00996303
H	6.46428	0.660252	1.7729
H	6.79911	-0.896685	0.935538
N	4.03449	2.05897	1.39015
C	3.40904	3.35916	1.32323
H	4.36384	1.74299	2.27376
H	3.3905	3.83875	2.32667
H	2.36045	3.27222	0.956924
H	3.96424	4.02696	0.625424
