44
  This energy is -5.2199 and Call times are: 39649
C	0.300849	1.12162	-3.28088
C	0.763402	1.06333	-1.87596
O	1.85815	1.50209	-1.55126
H	1.09238	1.58477	-3.90924
H	-0.621619	1.73506	-3.35494
H	0.0951006	0.0979359	-3.65881
N	-0.0749354	0.508119	-0.997717
C	0.252377	0.341494	0.396436
C	-0.502802	-0.866276	0.9185
O	-1.36235	-1.41635	0.232701
H	-0.945518	0.118489	-1.28432
H	1.30949	0.127014	0.492031
C	-0.119429	1.60367	1.20509
H	-1.20576	1.81809	1.11591
H	0.140486	1.4931	2.27781
H	0.438645	2.47623	0.800683
N	-0.190812	-1.31419	2.1506
C	-0.852924	-2.46052	2.72828
H	0.510419	-0.858362	2.68872
H	-0.457343	-2.67152	3.74622
H	-0.695377	-3.3647	2.09668
H	-1.94969	-2.28203	2.80814
C	4.84153	2.70376	-2.10528
C	5.74874	1.7071	-1.49307
O	6.89044	1.55343	-1.90456
H	5.36605	3.2118	-2.94351
H	4.54525	3.46461	-1.3529
H	3.93324	2.20226	-2.501
N	5.25054	0.994543	-0.479933
C	5.99811	-0.0416332	0.187922
C	5.01397	-1.06412	0.724176
O	3.80411	-0.846467	0.700513
H	4.30604	1.10243	-0.183041
H	6.62883	-0.547788	-0.532234
C	6.8492	0.544545	1.33566
H	6.20159	1.05481	2.08016
H	7.4402	-0.241491	1.84887
H	7.55642	1.29588	0.921334
N	5.51373	-2.215	1.21583
C	4.65335	-3.24865	1.74262
H	6.49533	-2.37461	1.22271
H	5.25253	-4.11572	2.09816
H	3.94678	-3.6083	0.959868
H	4.05333	-2.86243	2.59816
