44
  This energy is -3.4874 and Call times are: 39236
C	-2.00161	2.74425	-0.75852
C	-0.708363	2.14529	-0.358635
O	0.317849	2.81077	-0.33757
H	-1.84502	3.8121	-1.02506
H	-2.7262	2.68585	0.080709
H	-2.4141	2.21046	-1.64057
N	-0.730077	0.851688	-0.029251
C	0.456069	0.119725	0.339324
C	0.250474	-1.33517	-0.0382469
O	-0.848789	-1.73948	-0.41224
H	-1.56563	0.31322	-0.0907109
H	1.29601	0.486977	-0.237098
C	0.738163	0.251917	1.852
H	-0.118865	-0.134429	2.44384
H	1.65684	-0.295975	2.14588
H	0.877372	1.32522	2.10694
N	1.31401	-2.15871	0.0436273
C	1.21479	-3.55796	-0.300525
H	2.19633	-1.81218	0.344452
H	2.19539	-4.066	-0.168112
H	0.897315	-3.67995	-1.36147
H	0.464708	-4.06933	0.345251
C	10.7739	-0.801936	-2.01241
C	9.56175	-0.0054762	-1.71676
O	9.28924	0.996355	-2.36366
H	11.3305	-0.326836	-2.84931
H	10.491	-1.83379	-2.30898
H	11.4329	-0.841751	-1.11948
N	8.79613	-0.440307	-0.713205
C	7.60835	0.252726	-0.280261
C	7.40418	-0.0350003	1.19524
O	8.08696	-0.878843	1.7727
H	9.05276	-1.23421	-0.169408
H	7.7601	1.32	-0.382799
C	6.37733	-0.200052	-1.09563
H	6.21496	-1.29314	-0.982329
H	5.45882	0.336514	-0.781053
H	6.55214	0.0127854	-2.17288
N	6.45816	0.671327	1.84497
C	6.19676	0.469891	3.25112
H	5.91864	1.35274	1.36158
H	5.3843	1.14439	3.60067
H	7.10982	0.679192	3.85429
H	5.88758	-0.582401	3.44664
