44
  This energy is 1.1093 and Call times are: 37884
C	1.44266	-2.27196	2.20672
C	0.483592	-1.92739	1.13313
O	-0.12636	-2.79688	0.526201
H	1.49355	-3.37741	2.31287
H	1.11123	-1.83319	3.17128
H	2.45368	-1.88827	1.95433
N	0.329126	-0.627661	0.870033
C	-0.535936	-0.139927	-0.17512
C	0.020149	1.18154	-0.671147
O	0.94493	1.73687	-0.081138
H	0.863109	0.0661935	1.34469
H	-0.515035	-0.831669	-1.008
C	-1.97964	0.0404371	0.342974
H	-2.00308	0.758063	1.19062
H	-2.65847	0.40243	-0.456202
H	-2.36335	-0.93721	0.708112
N	-0.529478	1.71436	-1.78022
C	-0.0619851	2.96591	-2.32908
H	-1.27424	1.24815	-2.2461
H	-0.639301	3.23557	-3.24079
H	1.01534	2.89607	-2.60435
H	-0.175805	3.78798	-1.58585
C	6.77837	2.98167	-1.78138
C	6.16213	1.84924	-1.05403
O	4.97913	1.86526	-0.743141
H	6.01392	3.77176	-1.94639
H	7.1614	2.64091	-2.76622
H	7.61398	3.40854	-1.18758
N	6.96612	0.824709	-0.760226
C	6.52161	-0.329039	-0.0187232
C	7.71322	-0.900196	0.726547
O	8.84973	-0.483837	0.510471
H	7.93641	0.844161	-0.983882
H	5.79571	-0.0192382	0.722707
C	5.91341	-1.39018	-0.961757
H	6.66102	-1.71606	-1.71604
H	5.55476	-2.27768	-0.401193
H	5.04827	-0.947977	-1.50241
N	7.47776	-1.86839	1.63383
C	8.54901	-2.46763	2.39509
H	6.55081	-2.1893	1.7977
H	8.15336	-3.2427	3.08789
H	9.08094	-1.69681	2.99855
H	9.29131	-2.94855	1.71771
