44
  This energy is 0.2363 and Call times are: 32361
C	-3.21608	0.82406	1.04425
C	-2.08453	0.93706	0.0966407
O	-2.21839	1.49065	-0.985965
H	-4.12061	1.2868	0.593061
H	-2.97653	1.35215	1.99108
H	-3.42881	-0.244125	1.26063
N	-0.925748	0.403069	0.489658
C	0.252702	0.396767	-0.340869
C	1.08917	-0.812058	0.0341317
O	0.807478	-1.49178	1.01919
H	-0.843181	-0.080269	1.35651
H	-0.0406952	0.277335	-1.37638
C	1.06572	1.69662	-0.154807
H	1.37596	1.81428	0.905354
H	1.96842	1.70992	-0.799379
H	0.431531	2.56834	-0.427316
N	2.13989	-1.11414	-0.75375
C	2.98948	-2.24928	-0.478386
H	2.34949	-0.554638	-1.54879
H	3.79676	-2.33005	-1.23931
H	2.39925	-3.19411	-0.491982
H	3.46226	-2.15199	0.525686
C	9.15873	2.84101	0.0801665
C	8.00624	2.04585	0.560416
O	7.39612	2.36284	1.57219
H	9.33819	3.68671	0.779048
H	8.94766	3.24878	-0.930735
H	10.0703	2.20812	0.0403236
N	7.67964	0.975097	-0.167055
C	6.60955	0.0802854	0.197336
C	6.93961	-1.29746	-0.345294
O	7.88769	-1.46241	-1.11057
H	8.21126	0.706696	-0.965299
H	6.56323	-0.000534291	1.2762
C	5.25995	0.575512	-0.367089
H	5.30359	0.648526	-1.4747
H	4.42579	-0.0976994	-0.0816295
H	5.04264	1.58835	0.0369804
N	6.16393	-2.32678	0.0482139
C	6.40546	-3.67437	-0.412052
H	5.40385	-2.17417	0.671162
H	5.66175	-4.37779	0.0230755
H	7.4243	-4.014	-0.115593
H	6.33266	-3.72947	-1.52237
