44
  This energy is -6.0919 and Call times are: 37667
C	-0.900302	-0.166707	-3.35773
C	-0.491388	0.591957	-2.15425
O	-0.157307	1.76632	-2.22952
H	-0.825192	0.491899	-4.25018
H	-1.9502	-0.512581	-3.25368
H	-0.234857	-1.04398	-3.50149
N	-0.507134	-0.0755787	-0.99817
C	-0.0948148	0.515491	0.250505
C	0.436696	-0.589316	1.14407
O	0.312223	-1.77064	0.826752
H	-0.742167	-1.04258	-0.959026
H	0.721348	1.20335	0.0678539
C	-1.27408	1.24322	0.932408
H	-2.10752	0.535725	1.12957
H	-0.965933	1.71439	1.88821
H	-1.6521	2.04192	0.257491
N	1.05341	-0.227396	2.2863
C	1.59582	-1.20916	3.19631
H	1.1481	0.733671	2.52391
H	2.06262	-0.714179	4.07626
H	2.37162	-1.8279	2.68979
H	0.794487	-1.89142	3.56173
C	5.30803	-2.30607	2.56613
C	5.81841	-1.48627	1.44425
O	7.01906	-1.36507	1.24383
H	6.16632	-2.72497	3.13509
H	4.69087	-3.14359	2.17829
H	4.69503	-1.68083	3.24904
N	4.90071	-0.893676	0.676762
C	5.24413	-0.0304103	-0.425684
C	4.12387	0.97688	-0.604439
O	3.06888	0.862284	0.0165033
H	3.92804	-0.968555	0.877144
H	6.14064	0.5246	-0.178969
C	5.45112	-0.8456	-1.72101
H	4.52823	-1.40691	-1.98031
H	5.72959	-0.193611	-2.57417
H	6.26985	-1.58151	-1.56462
N	4.33229	1.999	-1.45757
C	3.32557	3.00882	-1.68765
H	5.19406	2.07706	-1.94781
H	3.68583	3.76333	-2.42126
H	3.07324	3.53528	-0.738732
H	2.39215	2.54961	-2.08641
