44
  This energy is -5.8189 and Call times are: 39563
C	0.705761	0.935076	3.27723
C	-0.233048	0.753311	2.1473
O	-1.44266	0.836223	2.30973
H	0.127995	1.12362	4.2081
H	1.37174	1.80256	3.0857
H	1.32054	0.020639	3.41486
N	0.31377	0.49462	0.957152
C	-0.471938	0.251477	-0.226953
C	0.32398	-0.657697	-1.14427
O	1.49981	-0.923382	-0.902286
H	1.2982	0.38963	0.84876
H	-1.37607	-0.277926	0.0467426
C	-0.815633	1.57621	-0.942628
H	0.111614	2.11466	-1.233
H	-1.4322	1.40341	-1.84845
H	-1.39094	2.22887	-0.250236
N	-0.30616	-1.16552	-2.2218
C	0.369211	-2.04436	-3.14792
H	-1.25904	-0.942303	-2.39862
H	-0.316753	-2.35523	-3.96647
H	0.731272	-2.96036	-2.62722
H	1.24954	-1.53487	-3.60242
C	5.20507	-0.667637	3.38525
C	4.61988	0.124824	2.28039
O	3.73916	0.947752	2.48904
H	4.70596	-0.39178	4.33953
H	6.29153	-0.456672	3.47384
H	5.05314	-1.75203	3.20062
N	5.10395	-0.112146	1.05895
C	4.60469	0.54934	-0.120765
C	4.80507	-0.37877	-1.30399
O	5.46229	-1.41162	-1.19003
H	5.79201	-0.814236	0.899291
H	3.53932	0.712044	-0.0152232
C	5.33672	1.88919	-0.353501
H	6.42845	1.7217	-0.472351
H	4.95164	2.41478	-1.25127
H	5.18306	2.54929	0.527972
N	4.23162	-0.0335316	-2.4736
C	4.36334	-0.857734	-3.65238
H	3.70014	0.80401	-2.54517
H	3.82106	-0.404865	-4.51149
H	3.94454	-1.87391	-3.46995
H	5.43503	-0.971588	-3.93464
