44
  This energy is -4.713 and Call times are: 35768
C	2.4683	-2.38471	-0.577362
C	1.15216	-1.97581	-0.0372527
O	0.343568	-2.80554	0.355341
H	2.5415	-3.49394	-0.565826
H	3.28519	-1.96415	0.0459835
H	2.58042	-2.02803	-1.62297
N	0.904385	-0.664282	-0.00752688
C	-0.348141	-0.116395	0.450249
C	-0.579291	1.19981	-0.267899
O	0.305203	1.70556	-0.956085
H	1.55617	-0.00345669	-0.368576
H	-1.15375	-0.783122	0.169015
C	-0.330782	0.0970636	1.97975
H	0.488934	0.789291	2.26771
H	-1.29471	0.505651	2.34639
H	-0.152326	-0.877568	2.48432
N	-1.78581	1.78398	-0.129786
C	-2.09888	3.03492	-0.780416
H	-2.49013	1.35743	0.427935
H	-3.13893	3.35122	-0.544849
H	-2.00431	2.93698	-1.88619
H	-1.4034	3.83767	-0.444207
C	5.7213	-3.11039	1.55985
C	6.18777	-1.71276	1.41773
O	6.88987	-1.18979	2.27211
H	6.09467	-3.52627	2.52084
H	6.11	-3.73035	0.724802
H	4.61141	-3.1452	1.56029
N	5.79861	-1.06634	0.316326
C	6.137	0.31122	0.0587142
C	5.04155	0.914744	-0.799955
O	4.16336	0.207141	-1.28964
H	5.19337	-1.49209	-0.35022
H	6.15095	0.856578	0.994135
C	7.50387	0.419935	-0.651988
H	7.48678	-0.130586	-1.61671
H	7.78211	1.47655	-0.843452
H	8.28892	-0.034921	-0.00922667
N	5.0639	2.24778	-0.996267
C	4.05946	2.91122	-1.79446
H	5.78025	2.80416	-0.588403
H	4.25042	4.00622	-1.83624
H	3.04492	2.74859	-1.3637
H	4.05998	2.51502	-2.83569
