44
  This energy is -5.0589 and Call times are: 39004
C	-1.72834	-2.30331	1.95455
C	-1.23948	-0.933168	1.68094
O	-1.64457	0.0240317	2.32598
H	-2.47839	-2.26879	2.77438
H	-0.885356	-2.95536	2.26593
H	-2.20742	-2.72709	1.04681
N	-0.343603	-0.807752	0.69908
C	0.191693	0.466382	0.288471
C	0.562948	0.372523	-1.17949
O	0.544389	-0.70795	-1.76596
H	-0.0542214	-1.59069	0.155819
H	-0.577735	1.22298	0.378865
C	1.42596	0.845211	1.136
H	2.21972	0.074593	1.0353
H	1.83905	1.83085	0.838686
H	1.13275	0.900344	2.20714
N	0.902984	1.51252	-1.81258
C	1.26588	1.52145	-3.21059
H	0.908154	2.37772	-1.3222
H	1.5119	2.5529	-3.54644
H	0.427	1.13977	-3.83659
H	2.15364	0.872837	-3.39037
C	4.81687	2.35524	2.55889
C	5.25915	1.91162	1.21771
O	5.76905	2.69465	0.428226
H	5.01243	3.44408	2.66859
H	5.37646	1.80842	3.34667
H	3.72888	2.17122	2.68331
N	5.06787	0.622967	0.92588
C	5.40715	0.053546	-0.354435
C	4.47787	-1.11754	-0.612455
O	3.73121	-1.53544	0.270479
H	4.6142	0.00699677	1.56355
H	5.22572	0.786418	-1.13071
C	6.88058	-0.408633	-0.379671
H	7.06468	-1.16826	0.409704
H	7.15798	-0.836335	-1.36488
H	7.54199	0.462735	-0.180697
N	4.49672	-1.67192	-1.84059
C	3.64337	-2.78676	-2.17986
H	5.1048	-1.31726	-2.54311
H	3.80539	-3.09918	-3.23503
H	2.57069	-2.51211	-2.05646
H	3.85465	-3.65872	-1.51942
