44
  This energy is -1.1522 and Call times are: 33072
C	-2.00922	1.69696	2.27949
C	-1.07139	1.67265	1.13448
O	-0.867697	2.67381	0.461742
H	-2.45313	2.71223	2.36916
H	-1.47103	1.45568	3.22017
H	-2.82527	0.960627	2.12145
N	-0.471718	0.506613	0.883212
C	0.433331	0.316329	-0.222788
C	0.364747	-1.1392	-0.645038
O	-0.247223	-1.96317	0.0319226
H	-0.678803	-0.309944	1.41445
H	0.100295	0.912115	-1.06348
C	1.87651	0.697767	0.173405
H	2.22245	0.0795302	1.02906
H	2.58065	0.568759	-0.673982
H	1.90142	1.76445	0.486333
N	0.988971	-1.48906	-1.78695
C	0.973164	-2.84992	-2.27069
H	1.47554	-0.807362	-2.32324
H	1.54116	-2.93531	-3.22322
H	-0.0719818	-3.18942	-2.45423
H	1.43357	-3.53757	-1.52483
C	8.86129	0.802234	2.64795
C	8.13464	-0.179725	1.81195
O	8.36031	-1.37855	1.90312
H	9.5918	0.266635	3.29242
H	8.1487	1.35527	3.29535
H	9.40993	1.52142	2.00388
N	7.23215	0.316666	0.962544
C	6.47725	-0.510053	0.0541257
C	6.13091	0.322195	-1.16611
O	6.34405	1.53296	-1.18381
H	7.08886	1.29793	0.87066
H	7.09814	-1.33142	-0.281266
C	5.19385	-1.04176	0.728957
H	4.55157	-0.199503	1.0638
H	4.61085	-1.69103	0.0440649
H	5.47092	-1.641	1.62366
N	5.5925	-0.314374	-2.22484
C	5.23582	0.394401	-3.43173
H	5.43132	-1.29524	-2.19317
H	4.80899	-0.303028	-4.18582
H	6.13047	0.887083	-3.87687
H	4.47925	1.18303	-3.21539
