44
  This energy is -0.637 and Call times are: 39849
C	-2.53497	-0.809451	2.24307
C	-1.13479	-0.898744	1.77121
O	-0.262054	-1.3961	2.46933
H	-2.60436	-1.23144	3.26923
H	-3.20302	-1.38776	1.57075
H	-2.86364	0.250959	2.26762
N	-0.886019	-0.407851	0.554857
C	0.434738	-0.384655	-0.0227429
C	0.510538	0.787464	-0.982922
O	-0.498425	1.42385	-1.28078
H	-1.59885	0.0309015	0.015199
H	1.16339	-0.209033	0.758824
C	0.738319	-1.70805	-0.75875
H	-0.00271165	-1.88344	-1.56754
H	1.75776	-1.70797	-1.19609
H	0.669359	-2.55258	-0.0387742
N	1.71933	1.1065	-1.48597
C	1.88937	2.20964	-2.40269
H	2.5248	0.582346	-1.22995
H	2.95575	2.31123	-2.70224
H	1.56516	3.16564	-1.93127
H	1.27995	2.05407	-3.32222
C	7.94836	-3.02904	0.469662
C	6.84835	-2.21857	-0.099786
O	6.09709	-2.67849	-0.948602
H	7.95077	-4.0326	-0.00858932
H	7.80582	-3.15269	1.5638
H	8.92518	-2.5371	0.277609
N	6.72967	-0.971466	0.361768
C	5.73532	-0.0491438	-0.127262
C	6.27947	1.35859	0.0269269
O	7.31948	1.56718	0.648677
H	7.3741	-0.597954	1.02287
H	5.57874	-0.22039	-1.18499
C	4.40914	-0.205058	0.648748
H	4.56718	-0.0191284	1.73249
H	3.63108	0.490197	0.272234
H	4.03355	-1.24466	0.528391
N	5.58793	2.36263	-0.547244
C	6.03206	3.73411	-0.457961
H	4.75076	2.17358	-1.04973
H	5.33008	4.41047	-0.993687
H	7.04373	3.84959	-0.910142
H	6.09013	4.06	0.605789
