44
  This energy is -5.0579 and Call times are: 35248
C	-1.393	-2.15458	-2.3516
C	-0.482593	-1.05015	-1.97408
O	0.35916	-0.628626	-2.75522
H	-1.15362	-2.49139	-3.38365
H	-2.44751	-1.80835	-2.32207
H	-1.26553	-3.01044	-1.65565
N	-0.632964	-0.550931	-0.745031
C	0.20683	0.496504	-0.219498
C	0.275172	0.336575	1.28759
O	-0.452157	-0.466076	1.86936
H	-1.29523	-0.931996	-0.106233
H	1.21223	0.374397	-0.602754
C	-0.349276	1.88844	-0.591639
H	-1.3767	2.01823	-0.189667
H	0.29615	2.70333	-0.204465
H	-0.397946	1.98023	-1.69869
N	1.16359	1.0969	1.95741
C	1.30324	1.00933	3.39233
H	1.74635	1.73771	1.46872
H	2.08469	1.71289	3.75506
H	1.59236	-0.0227216	3.69658
H	0.342548	1.26161	3.89687
C	5.9758	3.10599	-0.657787
C	4.9523	2.06432	-0.899691
O	3.96539	2.29368	-1.58512
H	5.6704	4.04611	-1.16647
H	6.95669	2.78021	-1.06336
H	6.07277	3.30165	0.430966
N	5.16828	0.876454	-0.329849
C	4.24103	-0.222122	-0.438946
C	4.38237	-1.08524	0.80066
O	5.29427	-0.891555	1.6023
H	5.95561	0.717432	0.258941
H	3.22939	0.163999	-0.449518
C	4.51701	-1.05271	-1.71142
H	5.55127	-1.45782	-1.69611
H	3.80076	-1.89353	-1.81403
H	4.41581	-0.399244	-2.60534
N	3.47111	-2.05953	0.991421
C	3.52223	-2.92695	2.14517
H	2.7381	-2.19822	0.333749
H	2.68766	-3.66192	2.12189
H	3.44172	-2.33493	3.08555
H	4.48386	-3.4888	2.17221
