44
  This energy is -3.3559 and Call times are: 41088
C	1.33025	-1.69916	-2.73056
C	1.46929	-0.811692	-1.55404
O	2.57073	-0.506108	-1.11831
H	2.33976	-2.00772	-3.07921
H	0.813463	-1.16395	-3.55471
H	0.750917	-2.60674	-2.45897
N	0.334548	-0.37332	-1.00397
C	0.307996	0.46199	0.170815
C	-0.988861	0.195387	0.911517
O	-1.87337	-0.492384	0.40523
H	-0.554961	-0.663748	-1.34498
H	1.11966	0.178433	0.829174
C	0.416549	1.95454	-0.210943
H	-0.421789	2.24856	-0.877862
H	0.411167	2.60728	0.685954
H	1.36904	2.12491	-0.758742
N	-1.12862	0.730875	2.14023
C	-2.32568	0.526467	2.92219
H	-0.40018	1.28114	2.53477
H	-2.2485	1.04615	3.90259
H	-2.48975	-0.558899	3.11281
H	-3.21823	0.921427	2.38507
C	6.25604	-2.87452	-1.84919
C	6.54182	-1.47044	-1.47766
O	7.56614	-0.913601	-1.84797
H	7.09765	-3.2722	-2.45697
H	5.32278	-2.92953	-2.44816
H	6.14638	-3.49718	-0.936316
N	5.62687	-0.858466	-0.722184
C	5.78495	0.492952	-0.245492
C	5.02688	0.625019	1.06197
O	4.28588	-0.274409	1.45394
H	4.81772	-1.33785	-0.394582
H	6.8306	0.67644	-0.032042
C	5.25746	1.5089	-1.28224
H	4.18205	1.32773	-1.49369
H	5.38627	2.55379	-0.932745
H	5.8209	1.38885	-2.23327
N	5.20294	1.75459	1.77548
C	4.52736	1.96647	3.03439
H	5.80981	2.46933	1.44392
H	4.80209	2.95376	3.46685
H	4.80392	1.17383	3.76686
H	3.42215	1.93901	2.89687
