44
  This energy is -4.9515 and Call times are: 34958
C	-0.769486	3.30752	0.762158
C	0.171274	2.26083	0.303299
O	1.24758	2.55329	-0.199143
H	-0.335013	4.30918	0.552901
H	-0.944349	3.21271	1.85448
H	-1.73639	3.21564	0.223883
N	-0.222607	0.995755	0.467073
C	0.565322	-0.130099	0.0309768
C	-0.379961	-1.27095	-0.295288
O	-1.57528	-1.19766	-0.0168116
H	-1.11904	0.774208	0.840164
H	1.08465	0.129922	-0.882983
C	1.57107	-0.555699	1.12303
H	1.03814	-0.832657	2.05755
H	2.1933	-1.41304	0.793905
H	2.24738	0.296815	1.35144
N	0.136512	-2.35591	-0.90533
C	-0.687586	-3.48805	-1.2593
H	1.10538	-2.39501	-1.12631
H	-0.0794703	-4.27833	-1.75213
H	-1.4972	-3.18067	-1.96024
H	-1.16392	-3.92627	-0.352546
C	4.09071	1.99101	-2.32279
C	4.25842	0.724016	-1.57597
O	3.39381	-0.141146	-1.59493
H	3.10293	1.98872	-2.83284
H	4.88957	2.09337	-3.08705
H	4.13329	2.8545	-1.62591
N	5.39436	0.586468	-0.888152
C	5.68187	-0.571504	-0.0788338
C	6.60212	-0.143735	1.04888
O	7.10365	0.978773	1.06105
H	6.07061	1.31656	-0.849332
H	4.76439	-0.92923	0.371607
C	6.34075	-1.68459	-0.922722
H	7.28744	-1.3214	-1.37649
H	6.55441	-2.58688	-0.313832
H	5.65319	-1.97631	-1.74643
N	6.83955	-1.03266	2.03348
C	7.69768	-0.712372	3.15026
H	6.42137	-1.93464	2.00822
H	7.76654	-1.57218	3.85256
H	7.30266	0.166372	3.70977
H	8.72498	-0.463974	2.798
