44
  This energy is -2.9386 and Call times are: 40703
C	2.10538	-2.66551	-0.758354
C	0.780124	-2.00628	-0.77391
O	-0.139145	-2.44889	-1.44878
H	2.08608	-3.54505	-1.43799
H	2.34937	-3.01012	0.268515
H	2.88824	-1.95924	-1.1068
N	0.652289	-0.912916	-0.0185303
C	-0.562908	-0.139025	0.035789
C	-0.194402	1.2987	0.349953
O	0.953944	1.5988	0.670822
H	1.42162	-0.541428	0.49332
H	-1.03444	-0.145529	-0.939017
C	-1.52536	-0.697707	1.10668
H	-1.0459	-0.681449	2.10862
H	-2.47062	-0.118714	1.14867
H	-1.7751	-1.75298	0.860969
N	-1.16577	2.22801	0.255912
C	-0.90719	3.62222	0.530676
H	-2.08793	1.96646	-0.00919703
H	-1.83124	4.22708	0.398386
H	-0.126466	4.01995	-0.15748
H	-0.546679	3.7565	1.57621
C	10.1693	-1.41529	-0.255538
C	8.8112	-1.35758	0.330485
O	8.38643	-2.26352	1.03423
H	10.656	-2.37049	0.0387172
H	10.7835	-0.569062	0.117834
H	10.1103	-1.3684	-1.36342
N	8.08765	-0.272301	0.0458212
C	6.73379	-0.0931157	0.507871
C	6.00374	0.780979	-0.494409
O	6.61308	1.33876	-1.40506
H	8.43186	0.437663	-0.561906
H	6.23214	-1.05264	0.524704
C	6.71044	0.55487	1.90959
H	7.21571	1.544	1.89053
H	5.67383	0.685421	2.28232
H	7.25704	-0.0978552	2.62479
N	4.67017	0.914067	-0.353422
C	3.89074	1.72127	-1.26287
H	4.1942	0.451641	0.387314
H	2.81498	1.70424	-0.980598
H	3.9855	1.34068	-2.30568
H	4.24059	2.77888	-1.24824
