44
  This energy is -4.6424 and Call times are: 36982
C	2.41566	1.8046	1.73802
C	1.1774	0.994921	1.69013
O	0.66459	0.561469	2.71265
H	2.74943	1.90317	2.79384
H	2.22671	2.81765	1.32478
H	3.21894	1.31041	1.15184
N	0.663196	0.768004	0.479144
C	-0.513506	-0.0380673	0.268954
C	-0.417748	-0.664367	-1.1095
O	0.462034	-0.321836	-1.89714
H	1.11468	1.09299	-0.346935
H	-0.526658	-0.845826	0.990053
C	-1.79527	0.815232	0.38815
H	-1.78714	1.63774	-0.358478
H	-2.70881	0.203183	0.242012
H	-1.84043	1.27005	1.40178
N	-1.32273	-1.6097	-1.43101
C	-1.30644	-2.26512	-2.718
H	-2.02459	-1.87642	-0.778841
H	-2.12899	-3.01039	-2.79022
H	-0.339035	-2.79437	-2.87704
H	-1.43275	-1.52258	-3.53887
C	8.12052	0.783703	2.56279
C	7.12033	1.1689	1.54181
O	6.63929	2.29341	1.51957
H	8.30206	1.64465	3.24225
H	9.0774	0.503288	2.07443
H	7.74598	-0.0735199	3.16108
N	6.77855	0.22609	0.660511
C	5.7872	0.437949	-0.364624
C	5.14521	-0.898704	-0.685222
O	5.60262	-1.94339	-0.225756
H	7.14832	-0.696937	0.716562
H	5.00902	1.08571	0.0193924
C	6.42521	1.04984	-1.63103
H	7.2164	0.380706	-2.03143
H	5.66962	1.23061	-2.42282
H	6.89571	2.02322	-1.37125
N	4.0572	-0.895105	-1.48035
C	3.37629	-2.11845	-1.83524
H	3.69944	-0.0393379	-1.83916
H	2.50611	-1.90702	-2.49504
H	3.00598	-2.64062	-0.923378
H	4.06473	-2.80963	-2.37326
