44
  This energy is 0.1082 and Call times are: 35665
C	-0.550871	1.24445	3.20321
C	0.345115	0.88359	2.08155
O	1.52008	1.22391	2.07528
H	0.015979	1.8449	3.94754
H	-0.933377	0.326992	3.69788
H	-1.40592	1.84746	2.83122
N	-0.200896	0.175798	1.08994
C	0.533333	-0.212621	-0.0884455
C	-0.448204	-0.333307	-1.23891
O	-1.6603	-0.27336	-1.04156
H	-1.16884	-0.0586196	1.08991
H	1.23662	0.56975	-0.345179
C	1.27052	-1.55089	0.137027
H	0.548392	-2.35619	0.3901
H	1.85081	-1.85382	-0.758528
H	1.97745	-1.44158	0.988292
N	0.0570873	-0.498966	-2.47716
C	-0.799993	-0.617803	-3.63366
H	1.04078	-0.540963	-2.61737
H	-0.196324	-0.74734	-4.55887
H	-1.42998	0.293584	-3.75097
H	-1.47836	-1.49561	-3.5316
C	6.69887	2.44775	0.352588
C	6.11216	1.2825	-0.34678
O	6.52275	0.930122	-1.44389
H	7.49548	2.89387	-0.281637
H	7.14446	2.12978	1.31855
H	5.91777	3.21431	0.540588
N	5.11965	0.650042	0.283541
C	4.42136	-0.473611	-0.289484
C	3.01126	-0.48946	0.269923
O	2.68998	0.261064	1.18927
H	4.76896	0.973577	1.15773
H	4.3419	-0.336295	-1.36068
C	5.14729	-1.79776	0.0343986
H	5.21974	-1.94423	1.13319
H	4.6269	-2.66924	-0.413079
H	6.17949	-1.76064	-0.377354
N	2.12924	-1.34589	-0.28196
C	0.763589	-1.4273	0.181239
H	2.4068	-1.94237	-1.02777
H	0.196661	-2.18919	-0.397847
H	0.250218	-0.445346	0.0650444
H	0.73008	-1.70903	1.25857
