44
  This energy is 0.2123 and Call times are: 38501
C	-3.09231	1.1227	1.13573
C	-2.07516	0.0616337	0.960507
O	-2.17166	-1.01002	1.54245
H	-3.86802	0.773316	1.85133
H	-3.57733	1.35216	0.1637
H	-2.61967	2.04301	1.53913
N	-1.059	0.343068	0.141609
C	0.0293385	-0.572265	-0.0955319
C	1.26494	0.239871	-0.435044
O	1.18806	1.45114	-0.631564
H	-0.972834	1.23502	-0.292967
H	0.242169	-1.11785	0.815332
C	-0.310183	-1.54735	-1.24409
H	-0.518297	-0.988635	-2.18141
H	0.514526	-2.26628	-1.42714
H	-1.22192	-2.12526	-0.977432
N	2.44231	-0.412129	-0.503814
C	3.67191	0.278763	-0.815162
H	2.48508	-1.39173	-0.337595
H	4.52953	-0.42949	-0.824163
H	3.87948	1.07091	-0.0597239
H	3.60741	0.764343	-1.81576
C	5.5129	-2.38547	1.53965
C	5.30696	-1.27695	0.58052
O	6.2542	-0.726954	0.0358659
H	6.60251	-2.57258	1.65626
H	5.02741	-3.31098	1.16485
H	5.08604	-2.11923	2.52959
N	4.04169	-0.917771	0.351429
C	3.68532	0.171565	-0.523158
C	2.37084	0.755168	-0.0403327
O	1.71791	0.194964	0.838051
H	3.28354	-1.34764	0.833374
H	4.43253	0.951446	-0.445108
C	3.55858	-0.312754	-1.98419
H	2.7847	-1.10545	-2.06661
H	3.29807	0.519641	-2.66959
H	4.52945	-0.743048	-2.31372
N	1.95452	1.90734	-0.60175
C	0.718974	2.53971	-0.202118
H	2.49859	2.34786	-1.30815
H	0.552136	3.47626	-0.778558
H	0.741085	2.79481	0.882187
H	-0.145722	1.85996	-0.379283
