44
  This energy is -5.8231 and Call times are: 35965
C	-0.120789	1.22541	-3.25522
C	0.503064	1.14516	-1.91526
O	1.61186	1.6167	-1.70399
H	0.575827	1.73666	-3.95467
H	-1.06671	1.80441	-3.20292
H	-0.332625	0.20568	-3.64041
N	-0.207831	0.533021	-0.965367
C	0.284356	0.339618	0.375866
C	-0.362182	-0.910955	0.941207
O	-1.27537	-1.47426	0.340807
H	-1.09143	0.118176	-1.1629
H	1.35234	0.16374	0.34258
C	-0.0356761	1.56286	1.26272
H	-1.13191	1.73737	1.30572
H	0.350419	1.43198	2.29438
H	0.440665	2.4676	0.825808
N	0.105969	-1.3813	2.11408
C	-0.443917	-2.56847	2.72599
H	0.848243	-0.914078	2.58292
H	0.0740523	-2.79284	3.68442
H	-0.328715	-3.4475	2.05122
H	-1.52968	-2.43508	2.93685
C	4.35737	-2.29875	-2.56628
C	5.09202	-1.17104	-1.95007
O	6.16745	-0.796591	-2.3969
H	4.94655	-2.69803	-3.42027
H	3.37062	-1.95377	-2.94052
H	4.20752	-3.10974	-1.8227
N	4.51793	-0.597294	-0.890061
C	5.13214	0.482487	-0.158363
C	4.64819	0.416004	1.27793
O	3.74377	-0.350886	1.60291
H	3.66208	-0.93973	-0.513083
H	6.2054	0.339265	-0.144074
C	4.77625	1.84754	-0.787025
H	3.67583	1.99953	-0.792321
H	5.25454	2.68624	-0.240812
H	5.13265	1.87073	-1.84001
N	5.2498	1.21823	2.17822
C	4.85986	1.21968	3.56895
H	5.98255	1.82901	1.89699
H	5.47155	1.94606	4.14812
H	4.99865	0.209032	4.01684
H	3.78709	1.50042	3.67608
