44
  This energy is -2.2739 and Call times are: 40787
C	2.12427	2.24182	-1.60449
C	1.82058	0.903499	-1.04968
O	2.54747	-0.0545081	-1.2739
H	3.04868	2.18344	-2.21925
H	2.28527	2.96968	-0.781657
H	1.28722	2.58897	-2.24629
N	0.718769	0.807112	-0.301961
C	0.269861	-0.437683	0.270338
C	-1.23947	-0.376589	0.410821
O	-1.84811	0.673805	0.216012
H	0.115097	1.58681	-0.162229
H	0.497827	-1.24724	-0.411778
C	0.931976	-0.684008	1.64372
H	0.689738	0.140969	2.34711
H	0.604946	-1.64619	2.08845
H	2.03628	-0.717016	1.51811
N	-1.88267	-1.51218	0.746596
C	-3.31858	-1.55121	0.897734
H	-1.37332	-2.35318	0.896118
H	-3.65708	-2.57358	1.17592
H	-3.82164	-1.26215	-0.0533974
H	-3.64955	-0.84377	1.69217
C	8.61935	3.0788	-1.26281
C	7.73241	2.24451	-0.421117
O	6.97116	2.75073	0.391697
H	8.46935	4.14978	-1.00523
H	8.3788	2.93029	-2.33651
H	9.6817	2.81102	-1.08175
N	7.81488	0.923984	-0.59943
C	7.04654	-0.0181313	0.175569
C	7.83031	-1.31456	0.256509
O	8.84402	-1.48086	-0.419102
H	8.46875	0.524861	-1.23584
H	6.93658	0.355936	1.18582
C	5.66266	-0.261165	-0.465563
H	5.77491	-0.654892	-1.49824
H	5.05609	-0.974316	0.129428
H	5.11004	0.702045	-0.521911
N	7.37996	-2.26599	1.09792
C	8.06361	-3.52973	1.24547
H	6.56019	-2.11137	1.63934
H	7.53943	-4.17665	1.98301
H	9.1087	-3.37214	1.59791
H	8.10532	-4.07004	0.272089
