44
  This energy is -4.6481 and Call times are: 39367
C	2.43632	0.302834	-2.46684
C	1.1482	0.69541	-1.85222
O	0.549002	1.69559	-2.22238
H	2.71625	1.04937	-3.24157
H	2.34363	-0.694562	-2.94575
H	3.2341	0.269409	-1.69514
N	0.688179	-0.0968129	-0.881065
C	-0.52925	0.178625	-0.159567
C	-0.400843	-0.417222	1.22969
O	0.544088	-1.15	1.5158
H	1.2075	-0.884746	-0.562741
H	-0.640534	1.24937	-0.0422901
C	-1.75163	-0.415809	-0.892834
H	-1.64286	-1.51573	-1.00406
H	-2.69677	-0.198495	-0.354316
H	-1.82131	0.0284163	-1.90977
N	-1.35133	-0.107238	2.1333
C	-1.30929	-0.623052	3.48176
H	-2.10603	0.490644	1.88425
H	-2.17747	-0.254146	4.07117
H	-0.374631	-0.301983	3.99616
H	-1.33591	-1.73679	3.47757
C	6.30062	-1.57564	-2.93749
C	5.52681	-1.54011	-1.6761
O	4.66707	-2.37686	-1.43711
H	5.95029	-2.42791	-3.5594
H	7.38111	-1.70972	-2.71998
H	6.15213	-0.632327	-3.50422
N	5.81916	-0.551185	-0.828193
C	5.12209	-0.360539	0.419326
C	5.15987	1.11704	0.761238
O	5.85566	1.89599	0.112527
H	6.49303	0.146212	-1.05489
H	4.08244	-0.635994	0.29333
C	5.77037	-1.19389	1.54649
H	6.83408	-0.90431	1.68327
H	5.2342	-1.06639	2.50918
H	5.73878	-2.27076	1.27134
N	4.40006	1.54026	1.7906
C	4.36784	2.92927	2.1853
H	3.84057	0.895617	2.30097
H	3.68462	3.07648	3.05061
H	4.01174	3.56824	1.34494
H	5.38455	3.2785	2.47769
