44
  This energy is 0.1168 and Call times are: 41194
C	-3.25755	-0.290828	1.19017
C	-2.16321	-0.690301	0.276939
O	-2.25204	-1.69421	-0.416377
H	-4.07973	-1.03637	1.12639
H	-3.65277	0.70563	0.901006
H	-2.88786	-0.252192	2.23656
N	-1.08739	0.100052	0.258473
C	0.0748972	-0.181793	-0.54664
C	1.28564	0.415909	0.14503
O	1.15371	1.15434	1.11921
H	-1.0128	0.891215	0.858776
H	0.226079	-1.25306	-0.593056
C	-0.0820824	0.40501	-1.96659
H	-0.226668	1.50545	-1.9201
H	0.800596	0.182705	-2.60061
H	-0.978478	-0.0404331	-2.45074
N	2.50236	0.1012	-0.341375
C	3.71182	0.618341	0.25523
H	2.58903	-0.501211	-1.12792
H	4.60849	0.24493	-0.286788
H	3.78999	0.303066	1.32095
H	3.72093	1.73191	0.223084
C	3.96491	-2.21567	2.66876
C	3.70822	-1.82846	1.2633
O	3.26116	-2.63228	0.456807
H	3.70722	-3.28819	2.80716
H	3.34063	-1.60472	3.35416
H	5.03741	-2.06893	2.91634
N	3.99283	-0.566335	0.934005
C	3.83681	-0.0544114	-0.404705
C	4.84374	1.06265	-0.604272
O	5.49738	1.49779	0.341834
H	4.39463	0.0647919	1.59135
H	4.07605	-0.8352	-1.11587
C	2.40017	0.464426	-0.633003
H	2.15794	1.27273	0.0894998
H	2.26343	0.848562	-1.66463
H	1.67989	-0.367569	-0.473904
N	4.99849	1.54956	-1.85126
C	5.93729	2.60912	-2.1379
H	4.46351	1.1818	-2.60466
H	5.91803	2.8698	-3.21906
H	6.97342	2.29881	-1.87063
H	5.68883	3.52356	-1.55206
