44
  This energy is -1.8682 and Call times are: 37499
C	0.067111	-3.42388	0.620652
C	-0.165581	-2.02614	1.04881
O	-0.714778	-1.77294	2.11215
H	-0.34178	-4.11611	1.38844
H	1.15531	-3.61372	0.50868
H	-0.443175	-3.61789	-0.346333
N	0.252811	-1.07221	0.213739
C	0.0582552	0.332657	0.472673
C	-0.0297108	1.05155	-0.86037
O	0.225112	0.464783	-1.91036
H	0.661294	-1.29435	-0.666979
H	-0.888382	0.474848	0.978924
C	1.21662	0.903047	1.32007
H	2.18682	0.766891	0.796414
H	1.07142	1.981	1.53793
H	1.26721	0.356987	2.28734
N	-0.403525	2.34622	-0.849104
C	-0.520116	3.10997	-2.06946
H	-0.60959	2.80264	0.0101329
H	-0.839312	4.15299	-1.85164
H	-1.27099	2.64881	-2.75122
H	0.456052	3.14644	-2.6051
C	6.06623	-2.6234	-2.28409
C	6.6425	-1.40941	-1.66334
O	7.79774	-1.0731	-1.88405
H	6.83961	-3.11759	-2.91139
H	5.20237	-2.35152	-2.9264
H	5.73319	-3.33374	-1.49823
N	5.83595	-0.715131	-0.857214
C	6.267	0.463765	-0.14802
C	5.45059	0.574352	1.12588
O	4.48657	-0.163121	1.3221
H	4.91096	-1.02404	-0.655156
H	7.30365	0.346909	0.142343
C	6.08731	1.72733	-1.01771
H	5.02223	1.85346	-1.30709
H	6.42863	2.64016	-0.487835
H	6.68713	1.62097	-1.94789
N	5.82591	1.49979	2.03071
C	5.11243	1.67383	3.27443
H	6.61116	2.0845	1.85587
H	5.57409	2.4825	3.88282
H	5.12866	0.73333	3.87149
H	4.04843	1.94281	3.08288
