44
  This energy is -3.2296 and Call times are: 38605
C	-0.933571	0.620403	3.29488
C	-1.10888	-0.0739614	1.9994
O	-1.86891	-1.02614	1.88934
H	-1.56331	0.12481	4.0654
H	-1.24481	1.68239	3.20507
H	0.128952	0.572542	3.61401
N	-0.394738	0.394812	0.973419
C	-0.426511	-0.203194	-0.338046
C	0.910334	0.0538806	-1.00761
O	1.73267	0.814463	-0.50067
H	0.250455	1.14475	1.08828
H	-0.536657	-1.27589	-0.238951
C	-1.57761	0.383544	-1.18418
H	-1.45933	1.48253	-1.29499
H	-1.62124	-0.0788803	-2.19155
H	-2.5452	0.190806	-0.671375
N	1.16248	-0.585888	-2.16655
C	2.40977	-0.407382	-2.87266
H	0.486321	-1.20058	-2.55903
H	2.42615	-1.0177	-3.80243
H	3.26968	-0.716558	-2.23529
H	2.55382	0.661429	-3.152
C	3.42341	-2.87742	0.348481
C	4.26547	-1.79701	0.909539
O	4.34779	-1.6211	2.1173
H	2.92214	-3.42102	1.1786
H	4.0504	-3.59356	-0.22316
H	2.64766	-2.44946	-0.32095
N	4.91859	-1.03552	0.0286511
C	5.74215	0.0809293	0.420886
C	5.73596	1.09325	-0.709047
O	5.23624	0.818249	-1.79825
H	4.80932	-1.1651	-0.952739
H	5.30386	0.561325	1.28677
C	7.18424	-0.378465	0.728421
H	7.63803	-0.861944	-0.162848
H	7.82478	0.470065	1.04501
H	7.16383	-1.12457	1.55259
N	6.28785	2.29938	-0.470996
C	6.32296	3.32788	-1.48447
H	6.68358	2.50466	0.418009
H	6.81674	4.24586	-1.09623
H	5.29111	3.59534	-1.80857
H	6.88634	2.9784	-2.37979
