44
  This energy is -0.3211 and Call times are: 33044
C	-2.28771	2.53062	0.689214
C	-0.916701	1.97281	0.707346
O	0.0473995	2.67177	0.987308
H	-2.24726	3.61286	0.940242
H	-2.92204	2.01146	1.43811
H	-2.73567	2.41231	-0.319956
N	-0.798456	0.678684	0.401366
C	0.474508	0.00508937	0.335097
C	0.356893	-1.13131	-0.663057
O	-0.735035	-1.44777	-1.13131
H	-1.58792	0.132728	0.135748
H	1.22224	0.69082	-0.0434504
C	0.886585	-0.533472	1.72268
H	0.124962	-1.24509	2.10682
H	1.87171	-1.04222	1.6876
H	0.958754	0.314137	2.43871
N	1.48875	-1.76971	-1.01996
C	1.47515	-2.85965	-1.96761
H	2.3634	-1.49657	-0.63336
H	2.50305	-3.25241	-2.13001
H	1.06993	-2.52188	-2.94893
H	0.835219	-3.69351	-1.59843
C	8.18553	0.236419	2.65693
C	6.81432	0.271775	2.10042
O	5.83422	0.282549	2.83233
H	8.13076	0.205393	3.76683
H	8.74662	1.14402	2.35002
H	8.72093	-0.667845	2.29814
N	6.71438	0.288562	0.769215
C	5.44751	0.280015	0.0810776
C	5.64545	-0.389221	-1.26596
O	6.77248	-0.665583	-1.67233
H	7.52037	0.238088	0.18639
H	4.74163	-0.321904	0.639683
C	4.90923	1.71602	-0.101624
H	5.62827	2.33101	-0.6837
H	3.92747	1.72191	-0.617993
H	4.77963	2.1891	0.896242
N	4.54534	-0.674377	-1.99015
C	4.63552	-1.31566	-3.2812
H	3.64169	-0.446786	-1.64275
H	3.62336	-1.46523	-3.71756
H	5.12921	-2.31044	-3.19202
H	5.23379	-0.695395	-3.98724
