44
  This energy is -1.8305 and Call times are: 41615
C	2.4451	-1.79295	-1.70866
C	1.13875	-1.09917	-1.65159
O	0.507876	-0.852737	-2.67026
H	2.70516	-1.99966	-2.76956
H	2.39168	-2.75538	-1.15765
H	3.23695	-1.15514	-1.26227
N	0.698654	-0.761554	-0.437216
C	-0.533833	-0.044328	-0.224792
C	-0.396374	0.76472	1.05118
O	0.571306	0.610126	1.79375
H	1.24267	-0.932417	0.37931
H	-0.683759	0.656529	-1.03655
C	-1.72821	-1.0181	-0.122488
H	-1.57982	-1.73059	0.716778
H	-2.68499	-0.4771	0.0272919
H	-1.80482	-1.60509	-1.06372
N	-1.36486	1.65866	1.33213
C	-1.31619	2.47719	2.52117
H	-2.13801	1.77238	0.717
H	-2.20182	3.14813	2.57325
H	-0.39784	3.10797	2.52647
H	-1.30353	1.8413	3.43585
C	3.79138	2.46167	0.0899619
C	4.60713	1.41024	0.738179
O	4.6155	1.2751	1.95394
H	3.2615	3.04913	0.870971
H	3.03977	2.00112	-0.585107
H	4.44265	3.1456	-0.494123
N	5.32497	0.630919	-0.0740796
C	6.1999	-0.406998	0.411481
C	7.32267	-0.587323	-0.592734
O	7.28636	-0.0252948	-1.68567
H	5.33957	0.779536	-1.05874
H	6.64913	-0.0883351	1.34383
C	5.42973	-1.73144	0.606239
H	4.97751	-2.06427	-0.35228
H	6.08957	-2.53489	0.993036
H	4.60822	-1.57396	1.33881
N	8.35742	-1.37485	-0.239027
C	9.47362	-1.60072	-1.12742
H	8.37081	-1.81783	0.651294
H	10.2214	-2.27558	-0.655653
H	9.97773	-0.639049	-1.37713
H	9.13047	-2.06783	-2.07884
