44
  This energy is -2.0297 and Call times are: 36531
C	2.96453	1.71714	0.612945
C	1.56494	1.37199	0.949357
O	1.07325	1.69615	2.02154
H	3.42437	2.26016	1.46708
H	2.99254	2.36982	-0.284815
H	3.54981	0.794026	0.416998
N	0.882544	0.69264	0.0245889
C	-0.474459	0.248734	0.224708
C	-0.6885	-1.00554	-0.601455
O	0.158722	-1.379	-1.41044
H	1.30923	0.400378	-0.826523
H	-0.612071	-0.0222326	1.26407
C	-1.48025	1.34621	-0.186582
H	-1.34653	1.61707	-1.2556
H	-2.52848	1.02163	-0.0241534
H	-1.30001	2.25709	0.425106
N	-1.83113	-1.69358	-0.409044
C	-2.11905	-2.902	-1.14594
H	-2.50279	-1.37787	0.252973
H	-3.10521	-3.31999	-0.845975
H	-1.33856	-3.67381	-0.955086
H	-2.14273	-2.69839	-2.24098
C	4.57254	0.268096	-3.06468
C	4.99301	-0.507128	-1.87582
O	4.5326	-1.6175	-1.64888
H	3.81334	-0.312745	-3.63222
H	5.44473	0.460391	-3.72425
H	4.12525	1.23526	-2.75228
N	5.89127	0.07289	-1.07639
C	6.36447	-0.539246	0.140137
C	6.7551	0.564961	1.10435
O	6.7982	1.73706	0.735509
H	6.22613	0.994171	-1.25237
H	5.55623	-1.09604	0.597693
C	7.56884	-1.46455	-0.140111
H	8.4022	-0.891663	-0.599855
H	7.93367	-1.95265	0.786807
H	7.2622	-2.26003	-0.85392
N	7.04248	0.214238	2.37337
C	7.41877	1.19719	3.3625
H	6.99809	-0.738837	2.654
H	7.6148	0.712208	4.34413
H	6.60711	1.94819	3.49852
H	8.34053	1.73819	3.04818
