44
  This energy is -4.9049 and Call times are: 36595
C	-1.72045	-2.81367	-1.11176
C	-1.25984	-1.909	-0.0344652
O	-1.70664	-1.99773	1.10083
H	-2.49293	-3.50318	-0.70712
H	-0.869646	-3.41377	-1.49744
H	-2.16386	-2.22496	-1.94236
N	-0.341385	-1.00146	-0.373859
C	0.171792	-0.0249479	0.554382
C	0.584709	1.20452	-0.232685
O	0.609757	1.18637	-1.46181
H	-0.0174313	-0.914794	-1.31163
H	-0.61901	0.275406	1.23044
C	1.37265	-0.591392	1.34326
H	2.1884	-0.8899	0.65081
H	1.76808	0.146313	2.07124
H	1.0494	-1.4948	1.90513
N	0.912202	2.31133	0.46283
C	1.31224	3.53028	-0.200734
H	0.8819	2.30787	1.45688
H	1.54058	4.32584	0.542347
H	0.500608	3.89795	-0.869576
H	2.22092	3.35947	-0.822237
C	4.14024	-1.31565	-3.00612
C	5.13364	-1.24639	-1.9109
O	6.01524	-2.0874	-1.80182
H	4.34084	-2.21532	-3.62758
H	4.21393	-0.412221	-3.64732
H	3.11417	-1.38923	-2.58799
N	5.00862	-0.225247	-1.06
C	5.87336	-0.0483348	0.0799472
C	5.09463	0.686306	1.15486
O	3.98848	1.1662	0.914362
H	4.26116	0.428265	-1.13793
H	6.13937	-1.01859	0.480521
C	7.14133	0.743918	-0.307127
H	6.86942	1.74349	-0.708319
H	7.82184	0.874791	0.559072
H	7.69113	0.191844	-1.1004
N	5.65497	0.78398	2.37654
C	4.98567	1.4602	3.46325
H	6.54901	0.385691	2.55299
H	5.60711	1.43335	4.38538
H	4.00788	0.974512	3.68532
H	4.79061	2.52563	3.20255
