44
  This energy is 0.1111 and Call times are: 40515
C	-2.53994	2.3284	0.489835
C	-2.02784	0.939557	0.487615
O	-2.67457	0.0256593	0.980502
H	-3.52673	2.3552	1.00112
H	-2.66491	2.69188	-0.551804
H	-1.83622	2.99488	1.03176
N	-0.832445	0.748725	-0.0754033
C	-0.184603	-0.538627	-0.115226
C	1.31543	-0.312784	-0.136771
O	1.78033	0.81579	-0.284758
H	-0.299859	1.50919	-0.43584
H	-0.415833	-1.08311	0.791804
C	-0.629156	-1.34176	-1.35723
H	-0.382633	-0.788365	-2.28837
H	-0.147757	-2.34055	-1.39195
H	-1.7309	-1.48821	-1.32455
N	2.11201	-1.38838	0.0200155
C	3.55147	-1.26958	0.0185781
H	1.71719	-2.29291	0.142575
H	4.02831	-2.26431	0.161225
H	3.89092	-0.597242	0.839565
H	3.90977	-0.843943	-0.946618
C	4.42751	-1.0603	0.96115
C	5.53738	-0.0811472	0.985748
O	5.38784	1.03319	1.46773
H	3.52145	-0.599838	1.41159
H	4.70069	-1.96321	1.5467
H	4.19914	-1.35367	-0.085205
N	6.69473	-0.482509	0.454873
C	7.85201	0.372835	0.36737
C	8.67345	-0.063932	-0.830979
O	8.40276	-1.0992	-1.43649
H	6.78908	-1.37806	0.0294914
H	7.53088	1.39073	0.184615
C	8.69485	0.294525	1.65916
H	9.03338	-0.747691	1.84146
H	9.58148	0.959318	1.60964
H	8.07146	0.61085	2.52384
N	9.69826	0.725803	-1.20791
C	10.5318	0.39373	-2.33976
H	9.89922	1.5617	-0.707945
H	11.3184	1.16597	-2.48892
H	9.92291	0.329337	-3.27054
H	11.031	-0.590143	-2.18504
