44
  This energy is -4.8077 and Call times are: 34200
C	-0.767135	1.9852	2.75375
C	-1.1532	1.0493	1.67386
O	-2.2576	0.523545	1.65667
H	-1.60639	2.0779	3.4769
H	-0.545148	2.98735	2.33046
H	0.127904	1.6037	3.28897
N	-0.233999	0.815714	0.73423
C	-0.447521	-0.103645	-0.355608
C	0.899581	-0.661716	-0.774449
O	1.94296	-0.195906	-0.320471
H	0.675058	1.21944	0.784074
H	-1.04762	-0.935634	-0.00875689
C	-1.13521	0.601261	-1.54533
H	-0.514955	1.44836	-1.90831
H	-1.31764	-0.0994951	-2.38568
H	-2.11526	1.00866	-1.21387
N	0.907167	-1.6858	-1.65036
C	2.14131	-2.28493	-2.10214
H	0.0525127	-2.05184	-2.00343
H	1.93819	-3.11111	-2.81865
H	2.71437	-2.70023	-1.24167
H	2.7821	-1.52886	-2.61096
C	3.14764	0.64407	2.69778
C	4.09007	1.08623	1.64541
O	4.24508	2.27299	1.39248
H	2.65212	1.53342	3.1443
H	3.69368	0.0984089	3.4958
H	2.3709	-0.0190328	2.26184
N	4.7495	0.123544	0.99673
C	5.6675	0.395709	-0.0811139
C	5.67502	-0.803586	-1.0102
O	5.10321	-1.84614	-0.697428
H	4.58225	-0.839842	1.18586
H	5.30785	1.24318	-0.651255
C	7.08773	0.670421	0.45993
H	7.46135	-0.202824	1.03604
H	7.80093	0.895023	-0.359477
H	7.05689	1.54687	1.14347
N	6.32085	-0.679297	-2.18641
C	6.37649	-1.76561	-3.13668
H	6.77413	0.173577	-2.42351
H	6.95191	-1.46805	-4.04088
H	5.35078	-2.06137	-3.45564
H	6.86841	-2.65761	-2.6856
