44
  This energy is -4.0598 and Call times are: 37527
C	2.30767	-2.57559	0.392053
C	1.91282	-1.24779	-0.129665
O	2.73925	-0.486203	-0.612792
H	3.40596	-2.70363	0.27705
H	1.79097	-3.37852	-0.174575
H	2.04718	-2.65672	1.46846
N	0.617824	-0.935928	-0.0396394
C	0.0895724	0.336246	-0.465176
C	-1.13968	0.641193	0.369996
O	-1.61947	-0.208467	1.11805
H	-0.0361351	-1.54965	0.393424
H	0.817923	1.11143	-0.262139
C	-0.269105	0.310121	-1.96714
H	-1.02413	-0.477974	-2.17423
H	-0.664021	1.28834	-2.31015
H	0.643379	0.0773728	-2.55837
N	-1.67579	1.87325	0.266867
C	-2.84264	2.25594	1.02725
H	-1.27097	2.54854	-0.340736
H	-3.12966	3.30728	0.804691
H	-2.64452	2.17063	2.1203
H	-3.70619	1.59677	0.780442
C	4.24925	0.264664	2.40603
C	5.24059	-0.521593	1.63778
O	5.52389	-1.66801	1.95698
H	3.87543	-0.346085	3.25638
H	3.39177	0.538936	1.75622
H	4.71976	1.18757	2.80594
N	5.8004	0.0896193	0.591155
C	6.8128	-0.53142	-0.226103
C	7.69405	0.562124	-0.799809
O	7.38881	1.74671	-0.676109
H	5.58977	1.03716	0.368322
H	7.43977	-1.15765	0.396282
C	6.17333	-1.36225	-1.36014
H	5.53839	-0.718186	-2.00519
H	6.94244	-1.85677	-1.98818
H	5.52674	-2.15108	-0.917425
N	8.82021	0.187248	-1.43796
C	9.72294	1.15804	-2.01138
H	9.05235	-0.775937	-1.52435
H	10.5899	0.653215	-2.49173
H	10.1097	1.84685	-1.22573
H	9.20268	1.7712	-2.78242
