44
  This energy is -7.749 and Call times are: 33692
C	-2.6852	-1.00189	-1.97448
C	-1.30979	-0.479056	-1.81319
O	-0.549367	-0.392945	-2.76752
H	-2.8479	-1.28598	-3.03689
H	-3.42577	-0.22402	-1.69303
H	-2.83093	-1.89886	-1.33629
N	-0.9544	-0.114568	-0.578995
C	0.364096	0.372154	-0.257701
C	0.658043	0.0219817	1.18886
O	-0.222242	-0.429437	1.91895
H	-1.57071	-0.228918	0.194929
H	1.09406	-0.143506	-0.869154
C	0.456874	1.8984	-0.474967
H	-0.284632	2.42857	0.159952
H	1.47137	2.28319	-0.244195
H	0.230309	2.13219	-1.53815
N	1.91438	0.215682	1.63622
C	2.28858	-0.0940556	2.99644
H	2.61399	0.578001	1.02931
H	3.36333	0.133831	3.17025
H	2.11954	-1.17354	3.21421
H	1.68261	0.502365	3.71632
C	6.33846	-2.75648	2.08893
C	6.87323	-1.7575	1.13646
O	8.07696	-1.63679	0.955144
H	7.18378	-3.29939	2.56491
H	5.69617	-3.48834	1.55547
H	5.74479	-2.25154	2.87992
N	5.97375	-1.00525	0.498137
C	6.34296	0.0377611	-0.426183
C	5.25367	1.09355	-0.407654
O	4.19581	0.896629	0.187197
H	4.99929	-1.08723	0.686717
H	7.2559	0.510183	-0.0856167
C	6.52494	-0.527521	-1.85187
H	5.58543	-1.003	-2.20582
H	6.82287	0.263483	-2.57025
H	7.32105	-1.30367	-1.84006
N	5.49279	2.25011	-1.05665
C	4.51705	3.31457	-1.08874
H	6.35644	2.39252	-1.52878
H	4.89986	4.18154	-1.67104
H	4.28095	3.66222	-0.0569085
H	3.57009	2.96566	-1.56062
