44
  This energy is 0.1335 and Call times are: 34867
C	2.70891	1.88759	-1.10069
C	1.46371	1.72925	-0.316117
O	1.12036	2.57045	0.502962
H	3.21654	2.82915	-0.797972
H	2.47436	1.93826	-2.18475
H	3.3925	1.03349	-0.910139
N	0.74964	0.626224	-0.55238
C	-0.461957	0.312178	0.163139
C	-0.611008	-1.19709	0.201339
O	0.131486	-1.9202	-0.460111
H	1.06318	-0.0692125	-1.19264
H	-0.370908	0.653335	1.18683
C	-1.68791	0.960325	-0.5167
H	-1.78788	0.602584	-1.56363
H	-2.62541	0.737324	0.0327405
H	-1.55354	2.06383	-0.540691
N	-1.57626	-1.71033	0.989311
C	-1.78894	-3.13515	1.09345
H	-2.16447	-1.10931	1.5202
H	-2.62712	-3.35778	1.78996
H	-0.872847	-3.64224	1.47412
H	-2.03548	-3.56958	0.0976475
C	7.38513	-1.93674	1.83466
C	6.9208	-0.636584	1.30067
O	7.40423	0.417109	1.6911
H	8.1715	-1.75961	2.60024
H	7.81193	-2.5556	1.0176
H	6.53982	-2.48035	2.30689
N	5.95385	-0.683845	0.381339
C	5.36972	0.499546	-0.199122
C	3.94227	0.175586	-0.597884
O	3.52471	-0.980237	-0.560144
H	5.54191	-1.54699	0.103592
H	5.3261	1.28053	0.54973
C	6.18108	0.970362	-1.42601
H	6.21724	0.173332	-2.19898
H	5.74928	1.8889	-1.87361
H	7.2241	1.19412	-1.11236
N	3.15358	1.19781	-0.983926
C	1.77962	0.986206	-1.37587
H	3.50823	2.12674	-1.00404
H	1.29867	1.94847	-1.65864
H	1.19746	0.535929	-0.539433
H	1.72159	0.2954	-2.24797
