44
  This energy is -3.3625 and Call times are: 41958
C	2.75083	1.87817	1.00901
C	1.3374	1.46015	1.14543
O	0.679797	1.76389	2.13119
H	3.05347	2.45041	1.9128
H	2.87383	2.5259	0.115666
H	3.40588	0.986768	0.91204
N	0.832192	0.739346	0.141645
C	-0.51431	0.224167	0.150692
C	-0.540783	-1.04485	-0.680233
O	0.432731	-1.37705	-1.35375
H	1.39198	0.465302	-0.63515
H	-0.786071	-0.0474526	1.16312
C	-1.50639	1.26329	-0.416079
H	-1.23419	1.53441	-1.4584
H	-2.5486	0.883672	-0.40158
H	-1.46435	2.18629	0.202511
N	-1.66153	-1.7923	-0.644612
C	-1.7763	-3.01897	-1.39846
H	-2.43734	-1.50921	-0.090478
H	-2.77213	-3.48768	-1.23766
H	-0.992122	-3.7464	-1.08672
H	-1.65235	-2.82365	-2.48825
C	6.40296	0.589236	3.36737
C	6.71394	0.760002	1.93026
O	7.53725	1.5829	1.5542
H	7.00475	1.31074	3.96163
H	6.65374	-0.442097	3.69327
H	5.32515	0.783012	3.55132
N	6.04824	-0.0266283	1.08147
C	6.21155	0.0531052	-0.34875
C	4.91327	-0.387447	-0.998333
O	4.01109	-0.885871	-0.328004
H	5.35139	-0.663046	1.39964
H	6.38023	1.08456	-0.632079
C	7.38238	-0.836604	-0.82079
H	7.20482	-1.89654	-0.539624
H	7.52714	-0.773089	-1.91876
H	8.32042	-0.501291	-0.326848
N	4.7855	-0.204532	-2.32733
C	3.58387	-0.587999	-3.03104
H	5.5249	0.204169	-2.85205
H	3.67241	-0.356707	-4.11543
H	2.70087	-0.0416976	-2.62714
H	3.39469	-1.68021	-2.91959
