44
  This energy is -0.9026 and Call times are: 39535
C	1.73157	2.48363	-1.71636
C	0.558634	2.00386	-0.9514
O	-0.287978	2.78302	-0.535985
H	1.68599	3.59106	-1.80242
H	1.72973	2.04359	-2.73573
H	2.67025	2.20211	-1.19414
N	0.483791	0.687195	-0.743605
C	-0.575574	0.0761143	0.019864
C	-0.033687	-1.19384	0.648461
O	1.0738	-1.62772	0.337123
H	1.20183	0.0701541	-1.05271
H	-0.862214	0.738666	0.827016
C	-1.79125	-0.240462	-0.878557
H	-1.50007	-0.928527	-1.70064
H	-2.61908	-0.698695	-0.299565
H	-2.1662	0.70197	-1.33416
N	-0.804436	-1.81811	1.56074
C	-0.369496	-3.02977	2.21565
H	-1.6959	-1.44951	1.80259
H	-1.14171	-3.38906	2.93106
H	0.575555	-2.85425	2.77899
H	-0.181717	-3.83467	1.46865
C	6.64559	-1.82625	2.86735
C	6.27172	-0.567135	2.18469
O	5.90009	0.410594	2.819
H	6.50918	-1.70404	3.96385
H	7.70894	-2.07143	2.66259
H	6.00018	-2.65853	2.51548
N	6.36153	-0.564976	0.852657
C	5.99132	0.571783	0.0468802
C	5.53521	0.0629903	-1.30762
O	5.67925	-1.11798	-1.61789
H	6.62647	-1.38157	0.347844
H	5.1476	1.07386	0.503688
C	7.17951	1.54546	-0.112503
H	8.04175	1.03369	-0.590712
H	6.90303	2.43182	-0.719494
H	7.50167	1.89877	0.891352
N	4.96263	0.947749	-2.14748
C	4.4928	0.553647	-3.45519
H	4.85105	1.89824	-1.87694
H	4.05363	1.42229	-3.99355
H	3.71251	-0.237066	-3.37038
H	5.33016	0.148021	-4.06792
