44
  This energy is -4.839 and Call times are: 40023
C	2.31647	-2.59664	-0.0642358
C	1.45485	-1.60182	-0.741797
O	1.56789	-1.37746	-1.939
H	3.02483	-3.03217	-0.802082
H	1.69613	-3.41229	0.36313
H	2.89726	-2.1101	0.747587
N	0.560905	-0.971628	0.0237744
C	-0.3176	0.0527812	-0.483547
C	-0.645935	1.00054	0.654655
O	-0.317786	0.735392	1.80953
H	0.50864	-1.13548	1.00474
H	0.202164	0.626154	-1.24099
C	-1.60887	-0.565199	-1.06318
H	-2.1479	-1.1448	-0.28373
H	-2.2875	0.212493	-1.4696
H	-1.34408	-1.26108	-1.889
N	-1.29884	2.13969	0.351187
C	-1.64869	3.1042	1.36779
H	-1.55233	2.3386	-0.589689
H	-2.18044	3.9724	0.919811
H	-0.735402	3.48048	1.88315
H	-2.3128	2.64367	2.13462
C	3.22254	2.95109	0.869033
C	3.64301	1.93907	-0.126045
O	3.1826	1.93626	-1.25937
H	2.46334	3.62231	0.411937
H	4.09473	3.55959	1.188
H	2.77525	2.45354	1.75529
N	4.54127	1.0407	0.284374
C	5.01447	-0.0306976	-0.556312
C	5.4051	-1.19428	0.335343
O	5.4482	-1.06459	1.55724
H	4.87613	1.03097	1.22226
H	4.20623	-0.369072	-1.19261
C	6.21884	0.42705	-1.40789
H	7.0522	0.764385	-0.755384
H	6.58367	-0.385	-2.0697
H	5.9122	1.28411	-2.04645
N	5.69248	-2.36885	-0.25948
C	6.06877	-3.53288	0.508384
H	5.64809	-2.4554	-1.24923
H	6.2648	-4.39918	-0.161194
H	5.25711	-3.81477	1.21763
H	6.99053	-3.33179	1.10088
