44
  This energy is -3.4875 and Call times are: 38976
C	0.145898	-1.36635	-3.19758
C	-0.0523977	-0.225241	-2.27578
O	-0.105629	0.923518	-2.69283
H	0.244473	-0.985678	-4.23741
H	-0.724158	-2.05428	-3.14769
H	1.07026	-1.91964	-2.92831
N	-0.165638	-0.522507	-0.979178
C	-0.319309	0.483473	0.0420712
C	0.275537	-0.0549275	1.32964
O	0.62757	-1.22967	1.41783
H	-0.0792666	-1.45872	-0.650674
H	0.250173	1.36229	-0.233611
C	-1.80778	0.8435	0.242279
H	-2.39057	-0.0556526	0.53539
H	-1.93819	1.62719	1.01646
H	-2.22433	1.22768	-0.714404
N	0.409728	0.800631	2.36213
C	0.970523	0.379489	3.6248
H	0.122926	1.74846	2.2703
H	0.997009	1.22643	4.34537
H	2.01035	0.00392563	3.48702
H	0.363202	-0.441348	4.07037
C	3.33602	2.35117	0.716609
C	4.45343	1.46934	1.12271
O	4.96761	1.56749	2.22833
H	3.10693	3.05814	1.54339
H	2.43056	1.74633	0.499685
H	3.61662	2.93318	-0.186499
N	4.86142	0.574404	0.219928
C	5.96529	-0.32304	0.45365
C	6.5981	-0.653144	-0.885062
O	6.06178	-0.31003	-1.93689
H	4.46013	0.534051	-0.690671
H	6.71571	0.18132	1.04956
C	5.48894	-1.61134	1.15977
H	4.72674	-2.13467	0.543953
H	6.33201	-2.30455	1.35776
H	5.02224	-1.34516	2.13327
N	7.76648	-1.32458	-0.87579
C	8.44514	-1.67763	-2.10092
H	8.18707	-1.59004	-0.0145635
H	9.38849	-2.22564	-1.88407
H	8.69717	-0.764564	-2.6875
H	7.79948	-2.32776	-2.73463
