44
  This energy is -1.3594 and Call times are: 37912
C	-1.12918	-0.572856	3.24183
C	-0.671873	-1.05077	1.91759
O	-0.400397	-2.22851	1.72882
H	-1.14958	-1.42668	3.95348
H	-2.15127	-0.14643	3.16276
H	-0.434662	0.20185	3.62985
N	-0.573048	-0.129896	0.956024
C	-0.101121	-0.434842	-0.3717
C	0.545004	0.813532	-0.942349
O	0.454613	1.89221	-0.359248
H	-0.758312	0.831968	1.13592
H	0.666164	-1.19664	-0.311907
C	-1.26194	-0.905128	-1.27534
H	-2.04447	-0.119781	-1.3455
H	-0.909034	-1.15625	-2.29658
H	-1.72492	-1.81484	-0.834401
N	1.22388	0.69277	-2.10018
C	1.87617	1.82501	-2.71559
H	1.2894	-0.189211	-2.55503
H	2.38059	1.52287	-3.65978
H	2.64237	2.2565	-2.03147
H	1.13647	2.62352	-2.953
C	4.95853	-1.09262	3.18186
C	5.3065	-1.34851	1.76602
O	5.54268	-2.48045	1.36685
H	4.97711	-2.05167	3.74375
H	3.94088	-0.654285	3.25263
H	5.69353	-0.395428	3.63657
N	5.34845	-0.2826	0.963233
C	5.7137	-0.367374	-0.428873
C	6.33639	0.95482	-0.835849
O	6.30875	1.9234	-0.0790207
H	5.19384	0.637463	1.31171
H	6.47008	-1.13216	-0.553795
C	4.48019	-0.677411	-1.30499
H	3.70823	0.112387	-1.18522
H	4.7508	-0.758915	-2.37767
H	4.03616	-1.64507	-0.984339
N	6.92395	1.02284	-2.0467
C	7.54741	2.23781	-2.51717
H	6.93982	0.227313	-2.64332
H	7.974	2.09263	-3.53411
H	8.37028	2.54747	-1.83287
H	6.80577	3.06788	-2.56305
