44
  This energy is -5.2797 and Call times are: 34500
C	-0.409249	1.14849	-3.25978
C	0.158672	1.26699	-1.89795
O	1.03871	2.07894	-1.64757
H	0.100886	1.86987	-3.93451
H	-1.49531	1.37853	-3.24286
H	-0.255397	0.120487	-3.65045
N	-0.339981	0.443172	-0.973268
C	0.141583	0.41109	0.38527
C	-0.0701772	-0.989213	0.929203
O	-0.721806	-1.81847	0.297203
H	-1.02724	-0.240406	-1.20187
H	1.20756	0.601585	0.391007
C	-0.598658	1.44853	1.25763
H	-1.69113	1.24722	1.26058
H	-0.227132	1.44321	2.30284
H	-0.436389	2.46474	0.836539
N	0.486942	-1.28866	2.11915
C	0.34348	-2.59746	2.71299
H	1.01416	-0.605604	2.61366
H	0.872967	-2.6462	3.68997
H	0.768592	-3.38084	2.04451
H	-0.731257	-2.83576	2.88415
C	4.7755	0.200514	-3.45937
C	5.58488	0.00493288	-2.23552
O	6.73643	-0.403246	-2.2967
H	5.376	-0.093086	-4.34765
H	4.48419	1.26726	-3.55911
H	3.86209	-0.429658	-3.41884
N	4.98841	0.295091	-1.0769
C	5.63318	0.114915	0.199958
C	4.56037	-0.158806	1.23713
O	3.36916	-0.0355602	0.958692
H	4.03704	0.587369	-1.04048
H	6.27142	-0.758862	0.15771
C	6.45258	1.36595	0.585645
H	5.79639	2.2607	0.639424
H	6.96515	1.23427	1.56056
H	7.22615	1.55181	-0.191124
N	4.96109	-0.547598	2.46361
C	4.01147	-0.83553	3.51313
H	5.92929	-0.645644	2.6687
H	4.53611	-1.13915	4.44576
H	3.32938	-1.66253	3.20963
H	3.38896	0.060919	3.73674
