44
  This energy is -2.8275 and Call times are: 38459
C	0.251964	-1.85902	-2.93142
C	-0.061658	-0.608421	-2.20425
O	-0.252944	0.441002	-2.80302
H	0.289953	-1.64975	-4.02259
H	-0.532456	-2.62078	-2.73869
H	1.23784	-2.25358	-2.60666
N	-0.119787	-0.694514	-0.873236
C	-0.372019	0.445345	-0.0272689
C	0.300716	0.199847	1.31016
O	0.786647	-0.897169	1.57875
H	0.0786282	-1.54692	-0.39795
H	0.088414	1.32295	-0.463675
C	-1.88868	0.666982	0.162092
H	-2.35973	-0.229085	0.619493
H	-2.09614	1.55019	0.800393
H	-2.36145	0.836664	-0.829897
N	0.351855	1.22608	2.18208
C	0.976915	1.08751	3.47679
H	-0.0432857	2.10743	1.94509
H	0.917202	2.04103	4.0464
H	2.05072	0.811501	3.36702
H	0.474889	0.291032	4.07239
C	7.55567	-2.31715	-1.28667
C	6.6032	-1.86352	-0.248315
O	6.22306	-2.61907	0.635452
H	7.80551	-3.38653	-1.11389
H	8.48894	-1.71765	-1.23806
H	7.10145	-2.21255	-2.29454
N	6.18853	-0.597507	-0.335772
C	5.22968	-0.0251077	0.576106
C	4.4759	1.06935	-0.155706
O	4.83524	1.44474	-1.27
H	6.47521	-0.00679001	-1.08458
H	4.50771	-0.78183	0.856734
C	5.9313	0.544862	1.82834
H	6.66452	1.32868	1.54184
H	5.20228	0.976099	2.54464
H	6.48295	-0.271612	2.34351
N	3.40022	1.60378	0.455294
C	2.61795	2.64648	-0.166788
H	3.12254	1.28404	1.35515
H	1.7762	2.95307	0.492521
H	2.19432	2.29488	-1.13539
H	3.24822	3.54225	-0.370519
