44
  This energy is -2.4996 and Call times are: 39734
C	-0.26992	-2.42546	-2.48133
C	-0.850037	-1.36495	-1.62697
O	-1.96763	-0.917604	-1.8444
H	-0.990369	-2.68226	-3.2881
H	-0.0671292	-3.33499	-1.8777
H	0.67535	-2.07033	-2.94333
N	-0.0882826	-0.931127	-0.620039
C	-0.498565	0.126086	0.270202
C	0.747196	0.829787	0.77462
O	1.86518	0.371448	0.547105
H	0.835515	-1.27612	-0.480585
H	-1.07857	0.85411	-0.283157
C	-1.3194	-0.4352	1.45191
H	-0.721141	-1.17434	2.02619
H	-1.65298	0.370775	2.13722
H	-2.22178	-0.952576	1.059
N	0.581817	1.97271	1.46917
C	1.70932	2.71434	1.98386
H	-0.330522	2.33	1.63962
H	1.36765	3.62391	2.52531
H	2.38202	3.03213	1.15455
H	2.30264	2.0884	2.68906
C	8.06769	1.81569	1.85589
C	7.4823	0.536929	1.39411
O	8.04642	-0.528665	1.60072
H	9.03795	1.61466	2.35991
H	7.38408	2.31127	2.57687
H	8.24469	2.4898	0.991412
N	6.31826	0.617142	0.745284
C	5.64784	-0.536251	0.198678
C	4.83253	-0.0860257	-0.998874
O	4.69176	1.10897	-1.25159
H	5.89165	1.49537	0.548903
H	6.38652	-1.24176	-0.160828
C	4.73698	-1.19755	1.25615
H	3.97233	-0.47733	1.6176
H	4.22576	-2.09502	0.851523
H	5.35339	-1.51184	2.12655
N	4.28007	-1.04027	-1.77361
C	3.49224	-0.706799	-2.93735
H	4.40856	-2.002	-1.55534
H	3.12599	-1.62816	-3.44152
H	4.09865	-0.12465	-3.66856
H	2.61025	-0.0892801	-2.65116
