44
  This energy is 0.1048 and Call times are: 36418
C	-2.53664	1.63521	-1.73328
C	-1.169	1.07567	-1.64592
O	-0.468906	0.956788	-2.64198
H	-2.76702	1.87826	-2.79334
H	-2.60996	2.56295	-1.12775
H	-3.27745	0.894346	-1.36529
N	-0.753256	0.711643	-0.430592
C	0.53619	0.111903	-0.193525
C	0.424603	-0.782694	1.02664
O	-0.587579	-0.772533	1.72456
H	-1.34972	0.776555	0.364316
H	0.796354	-0.519636	-1.03382
C	1.61611	1.19407	0.0254149
H	1.35496	1.83566	0.893867
H	2.61615	0.745081	0.195244
H	1.67482	1.84172	-0.876503
N	1.46706	-1.58889	1.30832
C	1.44873	-2.47862	2.44597
H	2.27576	-1.58597	0.729468
H	2.39626	-3.05796	2.50743
H	0.602136	-3.19865	2.36788
H	1.32691	-1.90387	3.39252
C	8.71076	0.65008	0.23848
C	7.54263	0.0535961	-0.447697
O	7.6361	-0.396016	-1.58151
H	9.59066	0.619145	-0.440246
H	8.94714	0.0771401	1.15968
H	8.4994	1.70716	0.504886
N	6.39628	0.0388239	0.236441
C	5.16466	-0.46938	-0.314389
C	4.01275	0.263555	0.347026
O	4.20714	1.00538	1.30808
H	6.32614	0.445601	1.14279
H	5.12619	-0.242612	-1.37256
C	5.0429	-1.99134	-0.0819097
H	5.07172	-2.22359	1.00403
H	4.1051	-2.39704	-0.513728
H	5.90022	-2.50654	-0.567616
N	2.77881	0.0775977	-0.161732
C	1.62277	0.737663	0.398671
H	2.64204	-0.523323	-0.942285
H	0.701466	0.457134	-0.157866
H	1.73945	1.84451	0.348027
H	1.48737	0.453338	1.4673
