44
  This energy is -2.446 and Call times are: 37234
C	0.935953	-3.19252	-1.022
C	-0.0117345	-2.25624	-0.376695
O	-1.14606	-2.60676	-0.0819788
H	0.434586	-4.17218	-1.17941
H	1.82513	-3.34381	-0.374525
H	1.25928	-2.7921	-2.00597
N	0.440514	-1.02233	-0.14154
C	-0.378225	0.011662	0.440776
C	0.123309	1.35193	-0.0629012
O	1.17112	1.43289	-0.701059
H	1.35274	-0.739961	-0.424355
H	-1.39775	-0.102257	0.0940366
C	-0.321492	-0.0428331	1.98319
H	0.722828	0.0845404	2.33986
H	-0.958844	0.739709	2.44356
H	-0.685414	-1.03497	2.329
N	-0.623475	2.44067	0.207257
C	-0.228518	3.75727	-0.236339
H	-1.47038	2.35457	0.721458
H	-0.972534	4.51969	0.0836267
H	-0.148745	3.78998	-1.34712
H	0.763026	4.03442	0.189298
C	5.10272	-2.86253	1.97367
C	5.58363	-2.02676	0.850562
O	6.63254	-2.28224	0.275298
H	5.83741	-3.67373	2.16867
H	4.12293	-3.31858	1.71914
H	4.9961	-2.24608	2.89111
N	4.8142	-0.990124	0.510342
C	5.17125	-0.0620288	-0.533551
C	4.54585	1.28096	-0.206678
O	3.73824	1.39229	0.713688
H	3.98383	-0.771022	1.01466
H	6.24543	0.0748425	-0.537812
C	4.684	-0.565612	-1.90986
H	3.58082	-0.696127	-1.90927
H	4.965	0.133652	-2.72386
H	5.14796	-1.55301	-2.12466
N	4.914	2.34051	-0.95356
C	4.37567	3.65892	-0.712402
H	5.57193	2.2314	-1.69133
H	4.80108	4.39471	-1.42995
H	4.6159	3.99825	0.321245
H	3.26747	3.65793	-0.826613
