44
  This energy is -7.5249 and Call times are: 37149
C	-1.89291	0.0255583	-2.92043
C	-0.636352	0.277378	-2.17963
O	0.403704	0.539192	-2.76797
H	-1.69689	0.100102	-4.01217
H	-2.65952	0.778433	-2.64073
H	-2.27416	-0.992168	-2.69245
N	-0.706416	0.199965	-0.848663
C	0.441473	0.377554	0.00537042
C	0.218938	-0.429281	1.2707
O	-0.870059	-0.951398	1.50134
H	-1.55095	-0.0543963	-0.386143
H	1.31784	-0.0271892	-0.485333
C	0.651255	1.86961	0.344465
H	-0.243418	2.2826	0.857338
H	1.54036	2.02091	0.990321
H	0.804152	2.44186	-0.59655
N	1.25638	-0.557318	2.1212
C	1.13977	-1.31128	3.34762
H	2.13097	-0.13099	1.91528
H	2.09971	-1.2993	3.9094
H	0.872478	-2.37138	3.13307
H	0.346111	-0.880372	3.99997
C	5.90719	2.77875	1.74706
C	5.54977	2.08678	0.488255
O	5.4687	2.6973	-0.568678
H	6.05047	3.86207	1.54277
H	6.85102	2.36259	2.15785
H	5.0944	2.65834	2.49401
N	5.32222	0.774224	0.576527
C	4.92335	-0.0269124	-0.553803
C	4.09832	-1.19189	-0.0402614
O	4.01027	-1.41836	1.165
H	5.35205	0.298782	1.45112
H	4.28391	0.560952	-1.20045
C	6.1566	-0.537618	-1.33068
H	6.80756	-1.14954	-0.670498
H	5.86235	-1.14438	-2.21147
H	6.74967	0.331511	-1.69015
N	3.46377	-1.95763	-0.94965
C	2.65148	-3.08452	-0.554082
H	3.54374	-1.75615	-1.92026
H	2.21445	-3.58642	-1.44534
H	1.81724	-2.7547	0.106629
H	3.26054	-3.83094	0.00542377
