44
  This energy is -1.8551 and Call times are: 40675
C	-1.11915	-3.02115	1.31637
C	-0.84223	-1.57171	1.43285
O	-1.24925	-0.924233	2.38758
H	-1.72959	-3.34947	2.18553
H	-0.167591	-3.59319	1.30895
H	-1.6826	-3.22926	0.382395
N	-0.132898	-1.02175	0.444533
C	0.179157	0.384975	0.396447
C	0.322973	0.788065	-1.05902
O	0.338108	-0.0602225	-1.94891
H	0.15641	-1.55341	-0.346352
H	-0.649159	0.948868	0.806993
C	1.47894	0.688612	1.17337
H	2.33112	0.118414	0.745936
H	1.72255	1.77067	1.15545
H	1.35367	0.378354	2.23375
N	0.424115	2.10288	-1.33664
C	0.558794	2.58088	-2.69294
H	0.405761	2.77449	-0.603382
H	0.627178	3.69088	-2.71374
H	-0.318033	2.2722	-3.30708
H	1.47652	2.1639	-3.16734
C	6.50332	-2.82042	1.98809
C	5.64275	-1.78916	1.36592
O	4.42387	-1.89238	1.37475
H	5.86469	-3.63057	2.40241
H	7.09903	-2.37523	2.81252
H	7.18859	-3.25513	1.23013
N	6.26994	-0.755142	0.80039
C	5.56984	0.304771	0.118477
C	6.48838	0.867592	-0.949739
O	7.66926	0.529962	-1.00663
H	7.26401	-0.705666	0.76532
H	4.70323	-0.105521	-0.384774
C	5.14737	1.41276	1.10798
H	6.03704	1.84128	1.61682
H	4.59521	2.2281	0.597235
H	4.48234	0.976709	1.88511
N	5.96099	1.73888	-1.83219
C	6.75738	2.32214	-2.88659
H	5.00234	1.99677	-1.77253
H	6.14393	3.0121	-3.50697
H	7.17195	1.52905	-3.55022
H	7.61125	2.89785	-2.46162
