44
  This energy is -2.0867 and Call times are: 38396
C	2.65534	-1.3144	-1.82597
C	1.37395	-0.578974	-1.73486
O	0.928256	0.0372296	-2.69302
H	3.08458	-1.17983	-2.8426
H	2.48863	-2.39737	-1.64674
H	3.37555	-0.922566	-1.07706
N	0.744538	-0.62692	-0.558457
C	-0.489534	0.0736966	-0.303972
C	-0.549311	0.404325	1.17544
O	0.276646	-0.0606826	1.95856
H	1.14018	-1.09873	0.224319
H	-0.485524	1.01212	-0.844317
C	-1.70595	-0.783721	-0.716766
H	-1.71634	-1.74204	-0.155018
H	-2.66178	-0.249709	-0.538591
H	-1.6372	-1.0203	-1.80104
N	-1.53065	1.2282	1.59286
C	-1.66316	1.60326	2.98137
H	-2.18712	1.5977	0.943576
H	-2.52957	2.28621	3.12328
H	-0.744599	2.12388	3.33699
H	-1.81822	0.702739	3.61868
C	5.19596	-3.31845	0.8909
C	5.14674	-1.86681	1.17635
O	4.53338	-1.43187	2.14125
H	4.59979	-3.86338	1.65476
H	6.24491	-3.68046	0.928278
H	4.76915	-3.52571	-0.113066
N	5.80176	-1.07234	0.326549
C	5.80947	0.364172	0.448682
C	5.98399	0.95577	-0.937366
O	6.25332	0.23846	-1.89894
H	6.26226	-1.43778	-0.477345
H	4.84887	0.696066	0.822459
C	6.9457	0.832222	1.38418
H	7.93228	0.501013	0.995591
H	6.95353	1.93569	1.49737
H	6.80215	0.380934	2.3902
N	5.82498	2.287	-1.07357
C	5.96641	2.93795	-2.35515
H	5.60317	2.85027	-0.284516
H	5.79794	4.03335	-2.26057
H	5.22952	2.5318	-3.08543
H	6.988	2.77451	-2.76841
