44
  This energy is 0.1495 and Call times are: 32878
C	2.99802	-0.686933	-1.62871
C	2.09975	-0.784588	-0.456221
O	2.34516	-1.5483	0.467323
H	3.84253	-1.39919	-1.50472
H	3.40554	0.342342	-1.71393
H	2.44499	-0.943341	-2.55688
N	1.0192	-0.000621665	-0.469546
C	0.0307694	-0.0153528	0.579906
C	-1.30383	0.382666	-0.0217356
O	-1.37394	0.806909	-1.17361
H	0.811584	0.585834	-1.24726
H	-0.0739599	-1.02472	0.957849
C	0.421151	0.951689	1.71906
H	0.518414	1.9891	1.3339
H	-0.325153	0.939086	2.53967
H	1.40432	0.646175	2.13905
N	-2.40203	0.245921	0.747216
C	-3.7156	0.594111	0.257841
H	-2.32571	-0.102961	1.6754
H	-4.48719	0.410645	1.03772
H	-3.97376	-0.0126647	-0.640183
H	-3.75572	1.66983	-0.0291604
C	7.49199	1.78008	1.92116
C	6.58047	0.63291	1.71068
O	6.59314	-0.331909	2.46259
H	8.13382	1.5815	2.80687
H	6.90648	2.70595	2.10196
H	8.14115	1.92131	1.03137
N	5.75686	0.713791	0.663054
C	4.843	-0.342187	0.304846
C	4.6157	-0.28282	-1.19395
O	5.03891	0.661303	-1.8582
H	5.78678	1.48723	0.0363591
H	5.29946	-1.29934	0.524214
C	3.50491	-0.194144	1.06172
H	3.03108	0.783236	0.828791
H	2.79769	-1.00925	0.804885
H	3.69626	-0.232456	2.15637
N	3.9443	-1.30197	-1.7654
C	3.68538	-1.33434	-3.186
H	3.61324	-2.05908	-1.21199
H	3.12139	-2.25243	-3.46213
H	4.64042	-1.32389	-3.75965
H	3.08636	-0.447879	-3.49665
