44
  This energy is -1.9587 and Call times are: 40543
C	-1.78293	2.32454	-1.87893
C	-0.695194	1.33251	-1.72447
O	-0.0619573	0.931788	-2.69134
H	-1.89615	2.58094	-2.95472
H	-1.5414	3.24857	-1.31274
H	-2.74074	1.90322	-1.50719
N	-0.452702	0.906228	-0.482753
C	0.545126	-0.0893255	-0.179814
C	0.109262	-0.830863	1.06987
O	-0.849064	-0.438726	1.73285
H	-1.00384	1.21096	0.288771
H	0.585519	-0.811411	-0.985787
C	1.92874	0.563155	0.0325923
H	1.89041	1.29635	0.866257
H	2.70846	-0.194496	0.252899
H	2.22391	1.10671	-0.891403
N	0.803171	-1.93263	1.41719
C	0.457934	-2.70572	2.58737
H	1.57304	-2.2366	0.865851
H	1.14519	-3.57265	2.70279
H	-0.583997	-3.09245	2.50929
H	0.52578	-2.07948	3.50627
C	9.69941	0.290757	2.9018
C	9.2407	0.796351	1.58837
O	9.48392	1.94054	1.23047
H	10.2383	1.10096	3.4394
H	10.389	-0.568062	2.76167
H	8.82976	-0.0297067	3.51343
N	8.55281	-0.0604119	0.829981
C	8.00439	0.299513	-0.453861
C	6.77323	-0.552664	-0.698002
O	6.49558	-1.4873	0.0510457
H	8.32752	-0.975406	1.1523
H	7.68143	1.33277	-0.427376
C	9.04264	0.0852508	-1.57697
H	9.36644	-0.976828	-1.6114
H	8.63694	0.371973	-2.56879
H	9.93803	0.712332	-1.37353
N	5.99729	-0.241944	-1.75506
C	4.80282	-0.993416	-2.06279
H	6.23612	0.520468	-2.34732
H	4.30279	-0.583812	-2.96802
H	4.08199	-0.950031	-1.21437
H	5.04933	-2.06327	-2.25197
