44
  This energy is -6.783 and Call times are: 38948
C	-1.393	-1.93827	-2.53285
C	-0.482593	-0.87153	-2.05918
O	0.35916	-0.382608	-2.8
H	-1.15362	-2.18252	-3.59064
H	-2.44751	-1.59601	-2.47283
H	-1.26553	-2.8523	-1.91528
N	-0.632964	-0.482915	-0.790816
C	0.20683	0.513963	-0.174748
C	0.275172	0.221436	1.3123
O	-0.452157	-0.629501	1.82084
H	-1.29523	-0.918956	-0.188204
H	1.21223	0.426214	-0.567298
C	-0.349276	1.93335	-0.422387
H	-1.3767	2.0271	-0.0105155
H	0.29615	2.71082	0.035307
H	-0.397946	2.12264	-1.51699
N	1.16359	0.919569	2.04671
C	1.30324	0.705497	3.46828
H	1.74635	1.60107	1.61658
H	2.08469	1.37424	3.89178
H	1.59236	-0.349405	3.6801
H	0.342548	0.912197	3.99314
C	3.63636	-1.37773	-2.89052
C	4.48686	-1.46297	-1.68199
O	4.94057	-2.53337	-1.30147
H	3.50099	-2.39544	-3.31689
H	4.11825	-0.729941	-3.65269
H	2.64034	-0.962279	-2.62897
N	4.72307	-0.316229	-1.04045
C	5.49666	-0.245936	0.174109
C	5.0043	0.941055	0.980458
O	4.20945	1.74481	0.496826
H	4.31314	0.540875	-1.33909
H	5.31524	-1.13497	0.765148
C	7.00222	-0.10124	-0.138328
H	7.1902	0.816281	-0.735708
H	7.60994	-0.0599909	0.788762
H	7.33887	-0.976608	-0.735599
N	5.4623	1.07399	2.24084
C	5.04505	2.16907	3.08516
H	6.10186	0.411181	2.61598
H	5.53076	2.10301	4.08363
H	3.94061	2.15386	3.231
H	5.31916	3.14623	2.62564
