44
  This energy is -3.7738 and Call times are: 33608
C	0.918853	-2.47183	2.27122
C	1.00666	-1.82502	0.942661
O	1.87835	-2.13698	0.143132
H	1.74384	-3.20963	2.37577
H	-0.0517142	-3.00077	2.37595
H	1.01341	-1.71082	3.07434
N	0.0902953	-0.891655	0.675305
C	0.0730374	-0.14487	-0.55781
C	-0.550246	1.21036	-0.281341
O	-1.08515	1.44881	0.79974
H	-0.587949	-0.619679	1.35197
H	1.09074	0.0287493	-0.884565
C	-0.724628	-0.895791	-1.64643
H	-1.77166	-1.06485	-1.316
H	-0.733576	-0.337432	-2.6049
H	-0.255484	-1.88764	-1.82668
N	-0.487476	2.13815	-1.25668
C	-1.0484	3.45764	-1.08201
H	-0.0469249	1.92784	-2.12314
H	-0.895785	4.07389	-1.99533
H	-0.566647	3.97868	-0.223114
H	-2.14209	3.39608	-0.879033
C	7.87784	-1.59956	-1.77882
C	6.97694	-0.4487	-1.54416
O	7.14171	0.613513	-2.12808
H	8.66325	-1.30813	-2.5096
H	7.30446	-2.45674	-2.19019
H	8.36589	-1.90341	-0.828794
N	5.98879	-0.637862	-0.66657
C	5.05845	0.401476	-0.302145
C	4.58375	0.136069	1.11411
O	4.86377	-0.91602	1.68543
H	5.89222	-1.495	-0.168727
H	5.57199	1.35483	-0.296891
C	3.86104	0.436704	-1.27692
H	3.32755	-0.537686	-1.27482
H	3.14439	1.24193	-1.01509
H	4.23257	0.624215	-2.30801
N	3.85594	1.09503	1.71966
C	3.36566	0.933339	3.06861
H	3.64303	1.9413	1.24262
H	2.78991	1.82989	3.3879
H	4.21144	0.788614	3.77923
H	2.69845	0.0440591	3.14037
