44
  This energy is -3.6044 and Call times are: 40487
C	2.57047	2.01064	1.20942
C	1.20817	1.82672	0.660378
O	0.397955	2.74321	0.65713
H	2.67449	3.04855	1.59386
H	3.32872	1.8437	0.41574
H	2.74611	1.29913	2.04369
N	0.921349	0.615406	0.177853
C	-0.375684	0.272044	-0.349754
C	-0.59307	-1.2147	-0.140231
O	0.323076	-1.93644	0.248966
H	1.57783	-0.132054	0.224801
H	-1.13986	0.792389	0.214073
C	-0.472888	0.627415	-1.84959
H	0.304144	0.0857267	-2.42996
H	-1.47171	0.380539	-2.26424
H	-0.302718	1.71846	-1.98001
N	-1.82262	-1.70779	-0.387399
C	-2.1246	-3.10914	-0.210779
H	-2.55215	-1.10733	-0.69774
H	-3.18737	-3.31742	-0.464455
H	-1.94913	-3.41872	0.84499
H	-1.47803	-3.73622	-0.86642
C	6.41764	-1.23202	3.15061
C	6.4345	-0.166369	2.12335
O	6.80055	0.968842	2.39487
H	6.75629	-0.810999	4.12216
H	7.1016	-2.0563	2.85819
H	5.38844	-1.63113	3.27111
N	6.02909	-0.51488	0.90001
C	5.9494	0.422197	-0.192734
C	4.85961	-0.0458853	-1.13869
O	4.33274	-1.14766	-0.996541
H	5.69524	-1.43256	0.704405
H	5.65144	1.39098	0.188466
C	7.30148	0.523659	-0.932209
H	7.60247	-0.467882	-1.33258
H	7.25696	1.25249	-1.76728
H	8.08546	0.860048	-0.21908
N	4.48871	0.790527	-2.12806
C	3.45631	0.433057	-3.07281
H	4.9238	1.67961	-2.22445
H	3.29566	1.25187	-3.80831
H	2.49298	0.239848	-2.54749
H	3.73642	-0.489681	-3.63069
