44
  This energy is -3.9124 and Call times are: 32456
C	-1.11631	-0.111264	-3.29456
C	-0.747923	-0.768678	-2.0205
O	-1.00012	-1.94896	-1.82118
H	-1.63424	-0.84476	-3.95002
H	-0.205611	0.254392	-3.81385
H	-1.79926	0.742693	-3.10106
N	-0.134199	-0.00437865	-1.1141
C	0.246748	-0.490992	0.188457
C	0.235353	0.680102	1.1528
O	0.0959387	1.83125	0.743976
H	0.0275455	0.965078	-1.27491
H	-0.493472	-1.20138	0.534946
C	1.64573	-1.14389	0.146025
H	2.40721	-0.412499	-0.199305
H	1.94461	-1.53495	1.14014
H	1.63281	-1.99307	-0.571663
N	0.37442	0.410291	2.46577
C	0.370096	1.46009	3.45779
H	0.481957	-0.527909	2.77769
H	0.496494	1.03697	4.47868
H	-0.590269	2.02411	3.42861
H	1.19929	2.18039	3.27142
C	6.94124	-2.50432	-1.81909
C	6.15516	-2.03865	-0.654451
O	5.62667	-2.8331	0.111027
H	6.9287	-3.6155	-1.85007
H	7.99301	-2.15902	-1.73366
H	6.49939	-2.11358	-2.75992
N	6.05781	-0.716799	-0.494406
C	5.291	-0.113068	0.566752
C	4.80609	1.24231	0.0878241
O	5.21607	1.72086	-0.967928
H	6.45926	-0.0826095	-1.149
H	4.41473	-0.718215	0.763163
C	6.1429	0.0377026	1.84612
H	7.03648	0.667164	1.6478
H	5.55953	0.488729	2.67484
H	6.49347	-0.965288	2.17391
N	3.90878	1.89222	0.854944
C	3.3866	3.18475	0.476966
H	3.58581	1.48701	1.70381
H	2.66216	3.55356	1.23618
H	2.86479	3.12552	-0.505626
H	4.20971	3.93002	0.38636
