44
  This energy is 0.1202 and Call times are: 36680
C	-3.21739	0.551267	-1.20715
C	-1.89182	1.03634	-0.761377
O	-1.55144	2.19826	-0.935992
H	-3.76629	1.38311	-1.69971
H	-3.80796	0.196963	-0.33627
H	-3.0963	-0.279463	-1.934
N	-1.10076	0.139754	-0.167468
C	0.233372	0.451452	0.28143
C	1.05922	-0.820069	0.228943
O	0.528605	-1.90701	0.00822165
H	-1.37577	-0.812397	-0.0692581
H	0.684943	1.1579	-0.403878
C	0.21309	1.02514	1.7152
H	-0.240487	0.296537	2.42049
H	1.23322	1.28209	2.0671
H	-0.40326	1.95045	1.73156
N	2.38819	-0.710979	0.423791
C	3.25494	-1.86577	0.386493
H	2.79975	0.177677	0.596963
H	4.31166	-1.5704	0.569047
H	3.19791	-2.36778	-0.606487
H	2.95795	-2.60544	1.16484
C	0.95283	-0.741604	-0.148378
C	2.37464	-1.14975	-0.093377
O	2.69168	-2.31375	0.109145
H	0.308657	-1.62888	0.0350057
H	0.712996	-0.323964	-1.14878
H	0.74341	0.0216576	0.630497
N	3.27711	-0.182544	-0.273516
C	4.69789	-0.417601	-0.205081
C	5.36789	0.864353	0.252364
O	4.7308	1.91255	0.336645
H	3.00408	0.767282	-0.396594
H	4.89939	-1.17227	0.544914
C	5.25107	-0.857506	-1.57829
H	5.05392	-0.0789875	-2.34581
H	6.3418	-1.05497	-1.53535
H	4.74109	-1.7928	-1.89687
N	6.67667	0.80751	0.568414
C	7.39701	1.97569	1.01855
H	7.17421	-0.0507067	0.497774
H	8.46022	1.72536	1.22866
H	6.94204	2.38276	1.95053
H	7.37149	2.77592	0.243875
