44
  This energy is -6.2166 and Call times are: 35014
C	0.697596	2.18206	-2.62005
C	-0.224377	1.60114	-1.61823
O	-1.31778	2.10348	-1.39793
H	0.232936	3.08894	-3.0645
H	0.896639	1.44736	-3.42835
H	1.65565	2.46895	-2.13744
N	0.205709	0.511896	-0.977182
C	-0.560988	-0.140578	0.054812
C	0.407171	-0.814755	1.0086
O	1.60548	-0.886924	0.742956
H	1.1149	0.138615	-1.13811
H	-1.10508	0.605047	0.621065
C	-1.53325	-1.17611	-0.551501
H	-0.974715	-1.94723	-1.12373
H	-2.13924	-1.67551	0.232017
H	-2.22698	-0.661959	-1.25202
N	-0.0927597	-1.31993	2.15354
C	0.753499	-1.97432	3.12401
H	-1.06449	-1.24823	2.35272
H	0.156592	-2.32041	3.99645
H	1.54064	-1.27715	3.49229
H	1.25915	-2.85818	2.67207
C	4.28328	-2.32011	2.50706
C	5.14416	-1.77017	1.43579
O	6.29739	-2.15197	1.29188
H	4.86217	-3.06206	3.09887
H	3.39808	-2.8244	2.06562
H	3.94595	-1.50597	3.18267
N	4.59309	-0.843138	0.648821
C	5.31884	-0.185043	-0.408892
C	4.72251	1.19632	-0.603287
O	3.68225	1.51918	-0.0329177
H	3.66639	-0.513044	0.804131
H	6.34972	-0.051572	-0.105422
C	5.24111	-0.997767	-1.71988
H	4.18428	-1.12596	-2.03727
H	5.8077	-0.508357	-2.53839
H	5.67567	-2.00739	-1.55209
N	5.37741	2.05183	-1.41275
C	4.88818	3.38934	-1.65337
H	6.21986	1.77374	-1.86222
H	5.56499	3.93705	-2.3456
H	4.82442	3.96176	-0.699668
H	3.87113	3.36015	-2.10714
