44
  This energy is -1.159 and Call times are: 40899
C	1.46984	0.605416	-3.09608
C	1.5133	0.0781099	-1.71362
O	2.43743	-0.627889	-1.3342
H	2.35766	0.24009	-3.65661
H	1.48496	1.71552	-3.08291
H	0.550553	0.254545	-3.61076
N	0.494995	0.413772	-0.918157
C	0.375985	-0.0577892	0.439056
C	-1.09836	-0.116603	0.791767
O	-1.94554	0.359913	0.0388203
H	-0.270484	0.955419	-1.25361
H	0.763173	-1.06714	0.50178
C	1.12939	0.872858	1.41451
H	0.725507	1.90617	1.3582
H	1.05687	0.512774	2.46122
H	2.20446	0.90697	1.13268
N	-1.44086	-0.71465	1.94981
C	-2.81979	-0.822611	2.36584
H	-0.741412	-1.09794	2.54388
H	-2.89553	-1.34642	3.34416
H	-3.41285	-1.39406	1.6155
H	-3.2785	0.187065	2.47205
C	5.76626	3.04147	-1.64771
C	5.57052	1.57734	-1.55207
O	4.82152	0.98744	-2.3185
H	5.13441	3.4436	-2.46924
H	6.83006	3.27185	-1.8668
H	5.47103	3.53004	-0.695224
N	6.25036	0.949319	-0.58988
C	6.13031	-0.466484	-0.345657
C	6.4096	-0.718274	1.1241
O	6.83986	0.17908	1.84613
H	6.82459	1.44903	0.0523045
H	5.11092	-0.777005	-0.538102
C	7.11519	-1.26405	-1.22835
H	8.16191	-0.9533	-1.02373
H	7.02272	-2.35651	-1.05958
H	6.89749	-1.05841	-2.29917
N	6.16135	-1.95231	1.60527
C	6.39158	-2.28328	2.99222
H	5.8095	-2.66414	1.00645
H	6.12715	-3.34501	3.1923
H	5.77468	-1.63704	3.65787
H	7.46237	-2.13198	3.2599
