44
  This energy is 0.1345 and Call times are: 38638
C	1.45847	2.58426	1.81856
C	0.295145	1.7487	1.44485
O	-0.747893	1.7944	2.08234
H	1.20629	3.18241	2.72105
H	1.71497	3.27617	0.988968
H	2.33416	1.9408	2.04707
N	0.452837	0.951593	0.385549
C	-0.574223	0.0495398	-0.0727155
C	0.099317	-1.13005	-0.74833
O	1.30747	-1.1196	-0.976323
H	1.32147	0.895296	-0.0983638
H	-1.11854	-0.335203	0.7807
C	-1.53444	0.758863	-1.05255
H	-0.978127	1.14454	-1.93335
H	-2.33797	0.0785416	-1.40186
H	-2.00985	1.62318	-0.539433
N	-0.671277	-2.18515	-1.07845
C	-0.117076	-3.35475	-1.71961
H	-1.6462	-2.17677	-0.882168
H	-0.909525	-4.11189	-1.90932
H	0.666078	-3.82026	-1.07832
H	0.350393	-3.08446	-2.69406
C	6.7571	2.78052	-2.05323
C	7.29984	1.64186	-1.2786
O	8.46948	1.30113	-1.38933
H	7.55759	3.1984	-2.70165
H	6.39999	3.57566	-1.36551
H	5.91611	2.44118	-2.69404
N	6.4457	1.01686	-0.464826
C	6.81559	-0.134277	0.320418
C	5.57438	-0.98021	0.533384
O	4.46426	-0.562269	0.209841
H	5.48642	1.28004	-0.416181
H	7.52338	-0.734727	-0.237365
C	7.41854	0.293495	1.67641
H	6.68896	0.900683	2.25354
H	7.72015	-0.583808	2.2846
H	8.32075	0.917899	1.49625
N	5.73625	-2.20171	1.07905
C	4.61349	-3.07937	1.3142
H	6.64288	-2.52398	1.33051
H	4.95123	-4.03695	1.76829
H	4.08871	-3.31037	0.358935
H	3.88016	-2.60314	2.00453
