44
  This energy is -1.0938 and Call times are: 41671
C	-2.01626	0.0644412	2.83606
C	-1.43457	-0.631343	1.66616
O	-1.53549	-1.84348	1.53598
H	-2.49569	-0.681816	3.50623
H	-2.78377	0.7949	2.50424
H	-1.22058	0.595209	3.40021
N	-0.799885	0.134329	0.775487
C	-0.146141	-0.403526	-0.391514
C	0.999882	0.519947	-0.759457
O	1.13537	1.60805	-0.203223
H	-0.690634	1.11422	0.916001
H	0.282061	-1.36799	-0.148449
C	-1.13725	-0.532241	-1.56896
H	-1.56888	0.458651	-1.8256
H	-0.649133	-0.958253	-2.46939
H	-1.97139	-1.20595	-1.27456
N	1.86175	0.100215	-1.70658
C	2.98551	0.90901	-2.11791
H	1.73794	-0.785139	-2.14234
H	3.57542	0.390942	-2.90584
H	3.65867	1.11439	-1.25422
H	2.63838	1.88619	-2.52505
C	8.92048	-2.74186	1.51099
C	7.75712	-1.85291	1.29302
O	6.6459	-2.15122	1.70849
H	8.5905	-3.65079	2.05947
H	9.69361	-2.21972	2.11297
H	9.35572	-3.04841	0.53648
N	7.99143	-0.722501	0.622445
C	6.95185	0.221532	0.295905
C	7.35032	0.941876	-0.978418
O	8.47385	0.799798	-1.45717
H	8.89308	-0.513012	0.255017
H	6.03407	-0.31492	0.0896959
C	6.74238	1.23112	1.44573
H	7.6808	1.78918	1.65062
H	5.93486	1.9549	1.21212
H	6.45934	0.681338	2.36983
N	6.42864	1.73078	-1.56506
C	6.71575	2.4514	-2.78344
H	5.52359	1.82991	-1.16491
H	5.83168	3.04333	-3.10788
H	6.98511	1.7461	-3.60275
H	7.57048	3.15028	-2.63463
