44
  This energy is -3.9332 and Call times are: 37051
C	-1.23185	-1.99103	-2.57508
C	-0.114348	-1.41468	-1.79396
O	1.03075	-1.82225	-1.93193
H	-0.843159	-2.80166	-3.22905
H	-1.69791	-1.20895	-3.2106
H	-1.99699	-2.41629	-1.89185
N	-0.428988	-0.437981	-0.939884
C	0.542779	0.190822	-0.0803276
C	-0.171813	0.673278	1.16793
O	-1.39893	0.648301	1.24051
H	-1.37184	-0.145126	-0.809013
H	1.27389	-0.545007	0.230578
C	1.23354	1.37052	-0.798933
H	0.485097	2.1307	-1.10877
H	1.99395	1.85432	-0.152219
H	1.74312	0.995607	-1.71333
N	0.58587	1.11886	2.1894
C	-0.00583831	1.59248	3.41893
H	1.57745	1.12755	2.11348
H	0.781368	1.9153	4.13539
H	-0.608968	0.788543	3.89976
H	-0.678637	2.45861	3.22324
C	5.70062	2.03878	-2.63721
C	4.92681	0.901693	-2.09002
O	4.06707	0.342053	-2.7564
H	5.35029	2.25875	-3.66908
H	6.78111	1.78549	-2.67086
H	5.55213	2.94112	-2.00729
N	5.21916	0.531166	-0.841173
C	4.52209	-0.529951	-0.158033
C	4.55987	-0.239125	1.33044
O	5.25566	0.670987	1.77685
H	5.89303	1.02273	-0.296999
H	3.48244	-0.527332	-0.460925
C	5.17037	-1.89907	-0.458866
H	6.23408	-1.90576	-0.138675
H	4.6342	-2.72592	0.0503945
H	5.13878	-2.08732	-1.55427
N	3.80006	-1.00617	2.13689
C	3.76784	-0.799674	3.56605
H	3.24057	-1.73517	1.75663
H	3.08462	-1.52959	4.05355
H	3.41174	0.228274	3.80645
H	4.78455	-0.924097	4.00419
