44
  This energy is -4.0476 and Call times are: 36502
C	-0.290341	0.942883	3.33757
C	-0.726909	1.0006	1.92434
O	-1.78207	1.53317	1.60904
H	-1.06093	1.42194	3.97988
H	0.670344	1.485	3.46379
H	-0.163131	-0.113305	3.65596
N	0.0891682	0.441455	1.02782
C	-0.220164	0.381222	-0.379041
C	0.460878	-0.843108	-0.961064
O	1.2664	-1.49158	-0.29598
H	0.924897	-0.0242904	1.30441
H	-1.28732	0.247056	-0.504733
C	0.253897	1.66021	-1.10339
H	1.35032	1.79267	-0.983625
H	0.00904838	1.632	-2.18495
H	-0.251143	2.54399	-0.655926
N	0.144201	-1.19414	-2.22301
C	0.737771	-2.3475	-2.85833
H	-0.512911	-0.659346	-2.74385
H	0.349589	-2.46952	-3.89354
H	0.505622	-3.27442	-2.28545
H	1.84561	-2.24151	-2.90929
C	6.08695	3.47774	-0.129419
C	5.4422	2.19364	0.22633
O	4.44675	2.16052	0.936535
H	5.53596	4.31229	0.356163
H	6.06532	3.62492	-1.2297
H	7.13955	3.48829	0.224111
N	6.00737	1.08916	-0.266727
C	5.51958	-0.235394	0.0268145
C	6.68965	-1.19804	-0.0495918
O	7.78036	-0.830497	-0.481974
H	6.8413	1.1295	-0.80967
H	5.14621	-0.26152	1.04295
C	4.4126	-0.64862	-0.967705
H	4.79812	-0.632161	-2.00941
H	4.01909	-1.66129	-0.743683
H	3.57024	0.0740394	-0.900282
N	6.49035	-2.45976	0.379761
C	7.54698	-3.44405	0.350202
H	5.6019	-2.73728	0.730083
H	7.18672	-4.41972	0.744577
H	8.41035	-3.11225	0.971308
H	7.91048	-3.59934	-0.691383
