44
  This energy is -0.0662 and Call times are: 37121
C	1.29696	3.16953	-0.620214
C	0.21931	2.27227	-0.14615
O	-0.745013	2.70978	0.466284
H	1.06848	4.21285	-0.311759
H	1.36874	3.12968	-1.72746
H	2.269	2.86814	-0.175907
N	0.363642	0.974056	-0.42216
C	-0.580241	-0.025994	0.0109047
C	0.164282	-1.33681	0.181242
O	1.32857	-1.45346	-0.19631
H	1.17423	0.627802	-0.885758
H	-0.973254	0.250222	0.981408
C	-1.72605	-0.183122	-1.01265
H	-1.32433	-0.476771	-2.00584
H	-2.46683	-0.940527	-0.683863
H	-2.25177	0.789932	-1.12728
N	-0.492884	-2.35777	0.765878
C	0.136489	-3.64087	0.974972
H	-1.43327	-2.24291	1.06845
H	-0.565925	-4.34752	1.46943
H	1.03902	-3.53526	1.61962
H	0.45557	-4.08498	0.00435558
C	4.83669	0.683914	3.24259
C	5.72759	0.924589	2.08521
O	6.46547	1.8995	2.04634
H	4.96042	1.50761	3.97885
H	5.0969	-0.27796	3.73232
H	3.77745	0.654778	2.91059
N	5.67532	0.0260989	1.09912
C	6.45093	0.147759	-0.110083
C	5.69307	-0.540948	-1.22941
O	4.69364	-1.21617	-0.99085
H	5.03983	-0.740218	1.1268
H	6.53741	1.1941	-0.375245
C	7.84934	-0.483783	0.0655731
H	7.76131	-1.5598	0.327279
H	8.46127	-0.384214	-0.85429
H	8.38266	0.0302958	0.894808
N	6.14995	-0.377736	-2.48664
C	5.49048	-0.990625	-3.61608
H	6.95784	0.175678	-2.66019
H	6.01646	-0.738186	-4.56311
H	4.43699	-0.63681	-3.69525
H	5.47509	-2.09934	-3.50811
