44
  This energy is -1.3415 and Call times are: 41859
C	-1.9828	-2.7361	-0.833626
C	-1.14172	-1.97856	0.120239
O	-1.09507	-2.28388	1.30388
H	-2.51892	-3.54376	-0.289436
H	-1.34956	-3.19344	-1.62267
H	-2.72986	-2.06238	-1.30382
N	-0.448729	-0.954493	-0.383178
C	0.379806	-0.0981542	0.42847
C	0.425887	1.27112	-0.223089
O	-0.043278	1.45068	-1.3453
H	-0.52878	-0.692933	-1.3408
H	-0.0780174	0.0232426	1.40227
C	1.80379	-0.679521	0.56819
H	2.27788	-0.794396	-0.429849
H	2.44752	-0.0361991	1.20244
H	1.74516	-1.68472	1.03988
N	0.989286	2.27696	0.474682
C	1.07318	3.61518	-0.0622698
H	1.35977	2.11305	1.38295
H	1.56908	4.29893	0.661461
H	0.056614	4.01474	-0.281841
H	1.65907	3.62248	-1.00981
C	9.0776	0.33184	-2.4216
C	8.13803	0.904511	-1.43144
O	8.20873	2.07918	-1.09743
H	9.79549	1.11718	-2.74366
H	8.52134	-0.0329583	-3.31056
H	9.64419	-0.50938	-1.9695
N	7.22302	0.0712682	-0.930595
C	6.26861	0.471492	0.0731389
C	5.90589	-0.750988	0.895054
O	6.27699	-1.87229	0.553498
H	7.20405	-0.892285	-1.18172
H	6.73261	1.18456	0.743107
C	5.00706	1.08072	-0.576914
H	4.52474	0.345945	-1.25626
H	4.27035	1.40555	0.186146
H	5.29727	1.96887	-1.17967
N	5.17382	-0.559967	2.01022
C	4.78574	-1.66318	2.85787
H	4.8864	0.355305	2.27241
H	4.18874	-1.30236	3.72426
H	5.68437	-2.19371	3.24809
H	4.17065	-2.39799	2.28966
