44
  This energy is -5.1746 and Call times are: 40175
C	-2.05204	-0.56696	2.75325
C	-1.43312	0.330598	1.75202
O	-1.80463	1.48917	1.62514
H	-2.85531	-0.0183775	3.29148
H	-1.29098	-0.90246	3.48875
H	-2.49589	-1.4523	2.25098
N	-0.459746	-0.195381	1.00484
C	0.20757	0.541131	-0.0395756
C	0.677458	-0.447843	-1.08967
O	0.613445	-1.65895	-0.887558
H	-0.196409	-1.15192	1.0918
H	-0.501514	1.20592	-0.516951
C	1.40272	1.33956	0.525544
H	2.13559	0.656924	1.00612
H	1.91643	1.92191	-0.266604
H	1.03658	2.05113	1.29753
N	1.15613	0.0493811	-2.2471
C	1.621	-0.815422	-3.30644
H	1.19623	1.03221	-2.39376
H	1.97531	-0.217764	-4.17506
H	0.802179	-1.48655	-3.65342
H	2.4632	-1.45295	-2.95232
C	4.14024	-2.84252	1.63945
C	5.13364	-1.76164	1.44971
O	6.01524	-1.56039	2.27354
H	4.34084	-3.36087	2.60222
H	4.21393	-3.57953	0.812319
H	3.11417	-2.41882	1.66642
N	5.00862	-1.02866	0.340881
C	5.87336	0.0847942	0.0392142
C	5.09463	1.07204	-0.809594
O	3.98848	0.78004	-1.26001
H	4.26116	-1.17825	-0.300035
H	6.13937	0.590024	0.959325
C	7.14133	-0.387369	-0.705469
H	6.86942	-0.89645	-1.65465
H	7.82184	0.459089	-0.93116
H	7.69113	-1.11485	-0.0692015
N	5.65497	2.27547	-1.04153
C	4.98567	3.2809	-1.83358
H	6.54901	2.49481	-0.665151
H	5.60711	4.20036	-1.90868
H	4.00788	3.55522	-1.37537
H	4.79061	2.90418	-2.86371
