44
  This energy is -5.2115 and Call times are: 39905
C	1.32634	2.39011	-2.15428
C	0.195918	1.79047	-1.41015
O	-0.878395	2.36812	-1.31751
H	1.02018	3.38286	-2.54999
H	1.61377	1.73719	-3.00506
H	2.199	2.52519	-1.48099
N	0.418568	0.598222	-0.852156
C	-0.570524	-0.0907236	-0.0612007
C	0.153729	-0.960833	0.948711
O	1.37151	-1.11821	0.885857
H	1.31116	0.159255	-0.901672
H	-1.15119	0.634331	0.49535
C	-1.49084	-0.950352	-0.955232
H	-0.896836	-1.70133	-1.51846
H	-2.26552	-1.47507	-0.359347
H	-2.00435	-0.294196	-1.69152
N	-0.58339	-1.54306	1.91499
C	0.0198072	-2.38367	2.92282
H	-1.56696	-1.40055	1.95183
H	-0.750661	-2.76791	3.62706
H	0.776655	-1.81323	3.50853
H	0.531529	-3.25477	2.45328
C	3.95236	-1.64121	-2.19245
C	4.23508	-0.596149	-1.18295
O	3.43558	0.302836	-0.961512
H	2.96756	-1.43735	-2.66623
H	3.91896	-2.64052	-1.70973
H	4.737	-1.6365	-2.97818
N	5.40099	-0.692355	-0.539689
C	5.83505	0.273493	0.43872
C	7.35184	0.303223	0.43342
O	7.99588	-0.530869	-0.19999
H	6.05927	-1.40648	-0.760025
H	5.4921	1.25788	0.145488
C	5.30546	-0.0882416	1.84369
H	5.66566	-1.09365	2.14938
H	5.6214	0.655565	2.60359
H	4.19402	-0.111979	1.82206
N	7.9606	1.27744	1.13792
C	9.39987	1.38828	1.18686
H	7.42239	1.94569	1.64076
H	9.70657	2.25235	1.81659
H	9.81758	1.53407	0.164344
H	9.85091	0.464174	1.61551
