44
  This energy is -1.9867 and Call times are: 41341
C	1.57791	2.41057	-1.95244
C	0.771497	1.17836	-1.80248
O	0.201895	0.674139	-2.76046
H	1.53822	2.74898	-3.01064
H	2.63525	2.21172	-1.67815
H	1.17261	3.21462	-1.30258
N	0.703084	0.659711	-0.574189
C	-0.0776999	-0.511813	-0.263598
C	-0.514648	-0.418301	1.18619
O	-0.0632897	0.454771	1.92493
H	1.1386	1.10445	0.203245
H	-0.974118	-0.515052	-0.871098
C	0.741543	-1.79948	-0.500245
H	1.65593	-1.8015	0.130578
H	0.146742	-2.70902	-0.277835
H	1.05738	-1.84294	-1.56547
N	-1.41642	-1.31762	1.62671
C	-1.89503	-1.30288	2.98939
H	-1.77318	-2.01405	1.01289
H	-2.63093	-2.12002	3.1566
H	-2.39042	-0.332253	3.22122
H	-1.05117	-1.4391	3.70387
C	6.73789	2.89658	1.6573
C	6.40304	1.4548	1.64006
O	6.63549	0.739388	2.60472
H	7.21366	3.15154	2.62915
H	5.81678	3.50484	1.53756
H	7.44706	3.13457	0.836627
N	5.84177	0.989237	0.52175
C	5.49938	-0.399315	0.339425
C	5.57413	-0.714221	-1.14274
O	5.72431	0.182582	-1.97033
H	5.69632	1.57531	-0.270223
H	6.23571	-1.01725	0.838016
C	4.08519	-0.695073	0.885174
H	3.32814	-0.0689598	0.366614
H	3.8153	-1.76409	0.763168
H	4.05146	-0.449905	1.96919
N	5.47875	-2.00643	-1.51301
C	5.5447	-2.40199	-2.90058
H	5.36162	-2.71832	-0.828488
H	5.4474	-3.50557	-2.99997
H	6.51595	-2.09382	-3.35113
H	4.72577	-1.92356	-3.48504
