44
  This energy is -7.1948 and Call times are: 41222
C	1.32219	1.95231	-2.55988
C	0.281771	1.66014	-1.54829
O	-0.579873	2.48287	-1.27063
H	1.17322	2.98133	-2.95334
H	1.25057	1.23184	-3.40163
H	2.3313	1.88552	-2.10128
N	0.342154	0.461214	-0.964081
C	-0.574664	0.0491125	0.0694456
C	0.137096	-0.949731	0.962341
O	1.23863	-1.399	0.651726
H	1.07375	-0.182044	-1.17108
H	-0.830256	0.904623	0.682149
C	-1.84669	-0.579834	-0.540149
H	-1.586	-1.46386	-1.16029
H	-2.56665	-0.888652	0.245232
H	-2.34682	0.166001	-1.19586
N	-0.476964	-1.31583	2.10468
C	0.126625	-2.25674	3.0193
H	-1.36622	-0.93831	2.34084
H	-0.532303	-2.4281	3.89889
H	1.10729	-1.87498	3.38514
H	0.302788	-3.2354	2.51697
C	2.80832	2.4866	1.9247
C	3.99813	1.75058	1.44119
O	5.12904	2.16416	1.65665
H	3.13613	3.40845	2.45252
H	2.22848	1.85532	2.6304
H	2.16173	2.77331	1.06866
N	3.76433	0.624646	0.762965
C	4.81853	-0.176925	0.19313
C	4.26277	-0.894242	-1.02267
O	3.05917	-0.870065	-1.2726
H	2.83726	0.322448	0.560294
H	5.61438	0.471825	-0.150922
C	5.35627	-1.19427	1.22322
H	4.54242	-1.86688	1.56862
H	6.17797	-1.80818	0.800778
H	5.75051	-0.647605	2.10756
N	5.13463	-1.54675	-1.81645
C	4.69829	-2.25306	-2.99836
H	6.10531	-1.55154	-1.60003
H	5.56255	-2.72383	-3.51669
H	4.19958	-1.55641	-3.71057
H	3.97069	-3.05347	-2.73176
