44
  This energy is 0.1168 and Call times are: 36624
C	2.51276	-1.77985	1.62199
C	1.19706	-1.1017	1.6081
O	0.414987	-1.21823	2.54147
H	2.61198	-2.36986	2.55897
H	3.33037	-1.02977	1.58135
H	2.5983	-2.46698	0.75388
N	0.91935	-0.367263	0.528349
C	-0.337436	0.316609	0.35124
C	-0.611671	0.424336	-1.13696
O	0.248673	0.116896	-1.95976
H	1.54917	-0.315173	-0.24138
H	-1.13207	-0.278722	0.783403
C	-0.29841	1.71876	0.997532
H	0.509847	2.3335	0.547149
H	-1.26506	2.25007	0.879964
H	-0.0885273	1.61608	2.08462
N	-1.82889	0.858789	-1.51862
C	-2.18231	0.988213	-2.91309
H	-2.51325	1.0989	-0.838141
H	-3.22518	1.35951	-3.02164
H	-2.10476	0.00476113	-3.43085
H	-1.49997	1.70355	-3.42675
C	5.22495	-2.68356	0.900456
C	3.93968	-2.12203	0.42725
O	3.05728	-2.84513	-0.0142212
H	5.21713	-3.78654	0.761752
H	5.36751	-2.45787	1.97818
H	6.06755	-2.25415	0.318468
N	3.80551	-0.796222	0.508555
C	2.62984	-0.100606	0.0476067
C	3.04261	1.2963	-0.376463
O	4.17466	1.71621	-0.144398
H	4.54832	-0.217087	0.832104
H	2.23911	-0.601664	-0.82926
C	1.55722	-0.0349783	1.15686
H	1.95414	0.488277	2.0528
H	0.641586	0.486197	0.809719
H	1.27612	-1.06801	1.45713
N	2.1294	2.04981	-1.02011
C	2.43378	3.38937	-1.46634
H	1.2199	1.69113	-1.20243
H	1.55466	3.84407	-1.97392
H	3.28648	3.38029	-2.18335
H	2.7146	4.03658	-0.604141
