44
  This energy is -0.3535 and Call times are: 32417
C	-0.913109	1.33743	-3.08062
C	-1.15668	1.09712	-1.64045
O	-2.04562	1.68686	-1.04179
H	-1.62774	2.10421	-3.45105
H	-1.06235	0.399486	-3.65572
H	0.1226	1.70601	-3.23728
N	-0.356231	0.211341	-1.04292
C	-0.443299	-0.0958688	0.363001
C	0.932932	-0.519343	0.840718
O	1.84549	-0.713265	0.0398786
H	0.389272	-0.230229	-1.53394
H	-0.712527	0.800048	0.908419
C	-1.47428	-1.21671	0.619972
H	-1.19286	-2.13937	0.0690297
H	-1.56062	-1.45279	1.7004
H	-2.47206	-0.888187	0.255458
N	1.1167	-0.66517	2.16774
C	2.39371	-1.05984	2.71514
H	0.367326	-0.49977	2.80032
H	2.34303	-1.12449	3.82441
H	3.18277	-0.321953	2.44277
H	2.70034	-2.05507	2.31937
C	7.16361	3.21722	-1.14973
C	7.49525	2.03393	-0.324512
O	8.58376	1.92956	0.223827
H	8.03662	3.90508	-1.17306
H	6.29414	3.75462	-0.716168
H	6.92446	2.90474	-2.18811
N	6.54751	1.09958	-0.218881
C	6.7385	-0.127043	0.514251
C	5.86148	-1.19434	-0.112877
O	5.03125	-0.90275	-0.971599
H	5.6817	1.17965	-0.704484
H	7.7664	-0.450561	0.407668
C	6.38143	0.0600102	2.00514
H	5.32391	0.381729	2.11558
H	6.53757	-0.873844	2.58312
H	7.02985	0.850948	2.44138
N	6.03286	-2.46596	0.298993
C	5.24752	-3.54912	-0.245215
H	6.71253	-2.68282	0.991882
H	5.53666	-4.51706	0.220315
H	5.39979	-3.63028	-1.3459
H	4.16229	-3.38028	-0.0583651
