44
  This energy is 0.1388 and Call times are: 41546
C	-0.327529	3.41261	-0.599582
C	-0.774381	2.15216	0.0350237
O	-1.62927	2.15239	0.909994
H	-0.869203	4.26755	-0.139635
H	-0.546753	3.39187	-1.68782
H	0.763089	3.55319	-0.445039
N	-0.193481	1.03101	-0.398523
C	-0.492744	-0.267096	0.152765
C	0.73714	-1.14171	-0.00211671
O	1.69893	-0.763687	-0.668282
H	0.530136	1.05102	-1.08252
H	-0.686991	-0.168575	1.21352
C	-1.704	-0.904431	-0.562711
H	-1.50115	-1.01542	-1.64925
H	-1.95305	-1.89845	-0.137939
H	-2.59027	-0.243699	-0.443087
N	0.737378	-2.33638	0.621411
C	1.86593	-3.23369	0.535418
H	-0.0485039	-2.62302	1.15928
H	1.67426	-4.16333	1.11529
H	2.78391	-2.7503	0.941533
H	2.06409	-3.51562	-0.524012
C	5.31473	2.94775	1.06261
C	4.75664	2.07787	0.00289235
O	4.56109	2.50304	-1.12733
H	5.47985	3.96741	0.651673
H	6.28504	2.54239	1.4189
H	4.60665	3.0143	1.9154
N	4.48146	0.819034	0.352181
C	3.89472	-0.133269	-0.557441
C	3.09332	-1.1323	0.25574
O	3.15989	-1.14278	1.48341
H	4.60781	0.499074	1.2868
H	3.20156	0.379089	-1.2129
C	4.98493	-0.854819	-1.37967
H	5.69021	-1.38932	-0.708147
H	4.54494	-1.58084	-2.09369
H	5.56384	-0.103871	-1.96043
N	2.30517	-1.99546	-0.414913
C	1.50208	-2.97812	0.274738
H	2.26142	-1.96888	-1.40812
H	0.924331	-3.5928	-0.450246
H	0.782299	-2.4823	0.965651
H	2.14581	-3.65904	0.877322
