44
  This energy is -1.2653 and Call times are: 36474
C	-2.69695	-2.11296	0.612005
C	-1.78083	-1.40226	-0.308198
O	-1.76345	-1.65564	-1.50482
H	-3.28695	-2.86033	0.0382286
H	-3.39512	-1.39309	1.08854
H	-2.11649	-2.64026	1.39822
N	-0.984208	-0.482275	0.240801
C	-0.00996298	0.260735	-0.51903
C	1.1292	0.635167	0.4103
O	1.04006	0.449557	1.62245
H	-0.981017	-0.316161	1.22277
H	0.400855	-0.375933	-1.29267
C	-0.641937	1.52657	-1.13831
H	-1.05419	2.18511	-0.344317
H	0.0948197	2.10003	-1.73736
H	-1.47805	1.22916	-1.80824
N	2.23743	1.16721	-0.141784
C	3.37427	1.54908	0.663174
H	2.29244	1.30594	-1.12504
H	4.18511	1.96586	0.0259466
H	3.77873	0.669234	1.21413
H	3.08417	2.32157	1.41167
C	7.20777	-3.33964	0.404314
C	6.86739	-1.92075	0.155235
O	5.74913	-1.59414	-0.21789
H	6.32251	-3.97422	0.181858
H	7.49506	-3.4834	1.46712
H	8.04789	-3.65236	-0.251031
N	7.84291	-1.03207	0.357733
C	7.67581	0.379456	0.116421
C	9.02889	0.960293	-0.248789
O	10.0528	0.28834	-0.140113
H	8.75978	-1.3173	0.62202
H	7.02318	0.521337	-0.735962
C	7.10092	1.08793	1.36254
H	7.77534	0.951556	2.23466
H	6.95463	2.17305	1.1847
H	6.11465	0.641518	1.61617
N	9.06309	2.22908	-0.701588
C	10.3045	2.86395	-1.07849
H	8.22359	2.75548	-0.786491
H	10.1242	3.90544	-1.42496
H	10.7991	2.301	-1.90295
H	11.0066	2.89831	-0.214225
