44
  This energy is -2.318 and Call times are: 41587
C	0.327811	-3.38821	0.724732
C	0.325386	-1.96373	1.1272
O	0.328474	-1.63919	2.30663
H	0.314639	-4.02695	1.63453
H	1.2414	-3.61836	0.137254
H	-0.57123	-3.61474	0.113582
N	0.317359	-1.0675	0.137706
C	0.270945	0.354257	0.372243
C	-0.416993	1.00678	-0.812034
O	-0.676978	0.359408	-1.82447
H	0.273549	-1.34722	-0.817128
H	-0.335757	0.552381	1.24705
C	1.69222	0.929566	0.557264
H	2.31186	0.735823	-0.344152
H	1.66906	2.02132	0.752353
H	2.17952	0.432139	1.42413
N	-0.737094	2.31168	-0.7081
C	-1.39836	3.01563	-1.78205
H	-0.522274	2.81765	0.120701
H	-1.57619	4.0781	-1.50502
H	-2.38108	2.5447	-2.01389
H	-0.778054	2.99339	-2.70718
C	7.71469	-0.722611	-2.96975
C	6.48688	-0.395839	-2.21024
O	5.45069	-0.0892195	-2.78356
H	7.5119	-0.619204	-4.05788
H	8.02774	-1.76704	-2.76018
H	8.53437	-0.0279236	-2.68936
N	6.57925	-0.45323	-0.879611
C	5.48184	-0.120984	-0.00561729
C	6.05662	0.392864	1.30097
O	7.26169	0.315785	1.5324
H	7.44064	-0.664544	-0.426614
H	4.90717	0.685153	-0.444381
C	4.58383	-1.35226	0.244943
H	5.17056	-2.17588	0.704774
H	3.72734	-1.10588	0.905433
H	4.18071	-1.71604	-0.725366
N	5.20215	0.940624	2.18745
C	5.65878	1.46127	3.45495
H	4.23107	0.99781	1.98051
H	4.80692	1.86932	4.04238
H	6.4006	2.27793	3.29984
H	6.14755	0.660446	4.05573
