44
  This energy is -2.5682 and Call times are: 36712
C	1.45023	-3.15761	-0.19754
C	0.356785	-2.20487	-0.493874
O	-0.524631	-2.48233	-1.29546
H	1.31655	-4.07329	-0.813603
H	1.43078	-3.44066	0.875887
H	2.4325	-2.70068	-0.44138
N	0.392487	-1.03955	0.156608
C	-0.577973	0.00475831	-0.0582977
C	0.0894154	1.33679	0.227777
O	1.20965	1.38445	0.732269
H	1.13889	-0.811898	0.77542
H	-0.873296	0.00909208	-1.10012
C	-1.80955	-0.190581	0.852909
H	-1.50852	-0.184549	1.9222
H	-2.57026	0.59954	0.686908
H	-2.27721	-1.17485	0.631857
N	-0.585178	2.45693	-0.0981731
C	-0.0273996	3.76921	0.132002
H	-1.48881	2.39803	-0.509326
H	-0.733391	4.56085	-0.20281
H	0.928612	3.89314	-0.42653
H	0.183275	3.92228	1.2152
C	3.05813	-1.11631	2.54769
C	4.38315	-1.02912	1.89356
O	5.39662	-1.40945	2.46333
H	3.17954	-1.54012	3.56823
H	2.38492	-1.77694	1.96194
H	2.60465	-0.106019	2.62973
N	4.40414	-0.514893	0.66168
C	5.62284	-0.326549	-0.0852225
C	5.42198	0.842383	-1.03117
O	4.31028	1.34476	-1.18435
H	3.57634	-0.17188	0.227016
H	6.42092	-0.057297	0.595354
C	5.99024	-1.60336	-0.872621
H	5.17633	-1.87405	-1.57854
H	6.93428	-1.47564	-1.44096
H	6.12461	-2.44731	-0.161253
N	6.50323	1.31026	-1.6854
C	6.40948	2.42284	-2.60166
H	7.39517	0.893273	-1.54525
H	7.40519	2.6577	-3.03828
H	6.03293	3.3317	-2.07871
H	5.70774	2.18811	-3.43449
