44
  This energy is -2.2183 and Call times are: 34036
C	-1.31007	2.89243	1.42487
C	-0.312067	1.80028	1.37632
O	0.701394	1.83805	2.06034
H	-0.961069	3.6778	2.13005
H	-2.28789	2.50193	1.77716
H	-1.43348	3.3431	0.41752
N	-0.581117	0.786832	0.549943
C	0.315012	-0.326886	0.362473
C	0.110454	-0.867657	-1.04012
O	-0.818635	-0.46868	-1.73964
H	-1.39017	0.789941	-0.0308299
H	1.33784	0.0227469	0.427399
C	0.0519092	-1.42934	1.41157
H	-0.994225	-1.79579	1.33837
H	0.744908	-2.28644	1.2864
H	0.199639	-1.00921	2.4304
N	0.98545	-1.78914	-1.48877
C	0.873469	-2.3565	-2.8123
H	1.73319	-2.09648	-0.909561
H	1.68553	-3.09465	-2.99375
H	0.943907	-1.56015	-3.58828
H	-0.105241	-2.87402	-2.93658
C	5.05126	-1.41904	3.12973
C	4.48936	-0.362365	2.2586
O	3.69814	0.462684	2.69412
H	4.62488	-1.31799	4.15141
H	6.15538	-1.3187	3.18954
H	4.79257	-2.42221	2.72998
N	4.89173	-0.366501	0.985625
C	4.39985	0.57217	0.00812726
C	4.45882	-0.09037	-1.35537
O	5.02379	-1.17194	-1.50611
H	5.50464	-1.06938	0.636101
H	3.35991	0.791701	0.215377
C	5.23921	1.86857	0.0169668
H	6.3043	1.64518	-0.206003
H	4.86179	2.6049	-0.721872
H	5.18805	2.33201	1.02639
N	3.86479	0.544241	-2.38513
C	3.86515	-0.0127382	-3.71778
H	3.4091	1.41666	-2.24266
H	3.32655	0.656869	-4.42402
H	3.36451	-1.008	-3.72766
H	4.9075	-0.146946	-4.08741
