44
  This energy is -1.9162 and Call times are: 38107
C	-1.9716	2.66266	1.0657
C	-0.713052	2.11172	0.514648
O	0.147189	2.84457	0.0463223
H	-1.96875	3.76864	0.953094
H	-2.05975	2.4114	2.14359
H	-2.84346	2.24784	0.517167
N	-0.577432	0.784261	0.557447
C	0.572033	0.0990531	0.0209943
C	0.135648	-1.28704	-0.41473
O	-0.983967	-1.71161	-0.135584
H	-1.30398	0.198067	0.904389
H	0.918737	0.620645	-0.862391
C	1.69939	0.00622597	1.07251
H	1.34744	-0.538008	1.97472
H	2.59526	-0.507131	0.667042
H	1.99731	1.03161	1.38265
N	1.01361	-2.0256	-1.12166
C	0.684469	-3.35391	-1.58364
H	1.91337	-1.66327	-1.34129
H	1.53585	-3.79695	-2.14586
H	-0.203479	-3.32712	-2.25603
H	0.446507	-4.02133	-0.723959
C	5.37947	2.03043	-2.65484
C	5.07067	1.19387	-1.47333
O	3.95129	1.18363	-0.980084
H	4.47117	2.59979	-2.94924
H	5.69363	1.38998	-3.50565
H	6.19129	2.74863	-2.41358
N	6.07549	0.463252	-0.984518
C	5.93987	-0.366711	0.186517
C	7.29701	-0.463112	0.857675
O	8.30499	-0.0259679	0.305793
H	6.99159	0.513439	-1.37195
H	5.26673	0.111375	0.887191
C	5.42106	-1.77177	-0.190178
H	6.11669	-2.26686	-0.900832
H	5.29921	-2.41596	0.704637
H	4.43084	-1.67637	-0.686866
N	7.35246	-1.03463	2.07682
C	8.59913	-1.16526	2.7944
H	6.52546	-1.37874	2.50895
H	8.43722	-1.66057	3.77709
H	9.05396	-0.164723	2.97696
H	9.32688	-1.77395	2.21042
