44
  This energy is -4.1291 and Call times are: 39130
C	1.34909	-1.59689	-2.78255
C	0.343305	-0.717927	-2.14462
O	-0.425742	-0.0443705	-2.81641
H	1.27074	-1.50314	-3.88751
H	1.16838	-2.65475	-2.49792
H	2.37171	-1.29927	-2.46827
N	0.328856	-0.703884	-0.809716
C	-0.563439	0.133348	-0.0472127
C	0.104436	0.453867	1.27671
O	1.14337	-0.112149	1.6113
H	0.988291	-1.22644	-0.276847
H	-0.708632	1.07026	-0.570422
C	-1.91737	-0.572113	0.186111
H	-1.77003	-1.52825	0.732132
H	-2.61817	0.0679616	0.760304
H	-2.3843	-0.804234	-0.795952
N	-0.476761	1.38239	2.06162
C	0.089837	1.75643	3.33647
H	-1.31496	1.83245	1.77187
H	-0.532989	2.53435	3.83059
H	1.11886	2.16274	3.20492
H	0.151111	0.873817	4.0135
C	6.33884	-0.34352	-3.25291
C	5.97289	0.481202	-2.07942
O	6.27213	1.66584	-2.02019
H	6.90188	0.281371	-3.97978
H	5.42411	-0.733338	-3.74694
H	6.97966	-1.19399	-2.93806
N	5.30756	-0.13922	-1.10228
C	4.92102	0.520202	0.120134
C	4.86111	-0.521813	1.22113
O	4.95869	-1.71947	0.960733
H	5.10707	-1.11373	-1.14685
H	5.68412	1.23732	0.395892
C	3.55305	1.21922	-0.0388465
H	2.76778	0.482277	-0.311436
H	3.25078	1.74234	0.891477
H	3.61804	1.97165	-0.854911
N	4.70649	-0.0858932	2.48686
C	4.64423	-1.00392	3.6002
H	4.63348	0.887329	2.67813
H	4.51507	-0.452732	4.55767
H	5.57947	-1.60585	3.66574
H	3.78847	-1.70741	3.48218
