44
  This energy is -3.3153 and Call times are: 37206
C	2.00531	2.76363	0.673624
C	0.830437	1.90718	0.951684
O	0.172986	2.04688	1.97377
H	2.15199	3.47144	1.51824
H	1.84318	3.3449	-0.258352
H	2.91714	2.13913	0.565624
N	0.537945	0.984279	0.0324052
C	-0.549184	0.0493581	0.182851
C	-0.194895	-1.21441	-0.578012
O	0.788507	-1.25098	-1.3151
H	1.10685	0.855583	-0.774846
H	-0.647074	-0.219628	1.22721
C	-1.8698	0.648795	-0.348081
H	-1.77323	0.915177	-1.42221
H	-2.71729	-0.056309	-0.225136
H	-2.1052	1.57671	0.217524
N	-0.98947	-2.28962	-0.408853
C	-0.727509	-3.53738	-1.08757
H	-1.77829	-2.24192	0.194932
H	-1.49183	-4.2994	-0.818552
H	0.27568	-3.9334	-0.808189
H	-0.747234	-3.39554	-2.19239
C	3.41633	-0.911237	1.20935
C	4.89303	-1.0138	1.20804
O	5.48688	-1.61064	2.09546
H	3.01329	-1.42487	2.10912
H	2.9983	-1.39527	0.301763
H	3.10681	0.154876	1.23529
N	5.52817	-0.421151	0.194258
C	6.96513	-0.398546	0.0793869
C	7.35932	0.854735	-0.679213
O	6.50768	1.55779	-1.2197
H	5.03348	0.0958076	-0.498483
H	7.40145	-0.327875	1.06795
C	7.48007	-1.65811	-0.651082
H	7.0409	-1.72547	-1.66924
H	8.58628	-1.65919	-0.733593
H	7.17333	-2.56316	-0.0826409
N	8.66873	1.16923	-0.729678
C	9.13729	2.34587	-1.42405
H	9.34254	0.590214	-0.282692
H	10.244	2.43082	-1.35135
H	8.68571	3.26581	-0.986939
H	8.85877	2.3032	-2.5019
