44
  This energy is -2.5833 and Call times are: 40571
C	-1.44984	0.413355	3.13684
C	-1.53011	0.371411	1.65936
O	-2.60966	0.360103	1.08416
H	-2.47758	0.412504	3.56067
H	-0.926282	1.33559	3.46564
H	-0.904098	-0.476368	3.51585
N	-0.368167	0.344682	1.00244
C	-0.285234	0.259671	-0.434381
C	1.01267	-0.43934	-0.792698
O	1.85824	-0.67716	0.0676293
H	0.502036	0.312989	1.48577
H	-1.09587	-0.356368	-0.803165
C	-0.338242	1.66436	-1.07412
H	0.499324	2.29335	-0.70412
H	-0.289171	1.61148	-2.18106
H	-1.29263	2.1603	-0.792097
N	1.19714	-0.794214	-2.07958
C	2.3987	-1.46846	-2.51296
H	0.499682	-0.596908	-2.76053
H	2.36126	-1.67559	-3.60517
H	2.5207	-2.43728	-1.9765
H	3.29702	-0.84321	-2.30505
C	10.552	-0.899191	1.17016
C	9.08955	-1.10696	1.07366
O	8.56897	-2.13878	1.47462
H	11.022	-1.80007	1.62113
H	10.7721	-0.0198948	1.81135
H	10.9829	-0.736747	0.159721
N	8.38381	-0.11391	0.527617
C	6.95803	-0.187695	0.326966
C	6.60305	0.677802	-0.867387
O	7.44053	1.41774	-1.38006
H	8.82664	0.702693	0.168567
H	6.68424	-1.20591	0.080209
C	6.19854	0.287627	1.58493
H	6.47113	1.33573	1.83237
H	5.09967	0.222465	1.44794
H	6.47962	-0.354716	2.44791
N	5.3458	0.597895	-1.34585
C	4.91845	1.37996	-2.48248
H	4.68343	-0.0096749	-0.920164
H	3.85208	1.17424	-2.72284
H	5.533	1.13738	-3.37957
H	5.02725	2.46885	-2.27364
