44
  This energy is -2.9725 and Call times are: 37342
C	0.467442	-3.4484	0.052218
C	0.709174	-2.10918	-0.530192
O	1.57417	-1.93405	-1.37726
H	1.18273	-4.17567	-0.389728
H	-0.567859	-3.78163	-0.171057
H	0.617317	-3.42009	1.15214
N	-0.0624891	-1.11764	-0.0787864
C	0.0831426	0.247497	-0.518947
C	-0.372404	1.1582	0.605622
O	-0.92849	0.699322	1.60157
H	-0.734625	-1.26786	0.640614
H	1.13071	0.455274	-0.69801
C	-0.746367	0.506996	-1.79559
H	-1.82257	0.304112	-1.60944
H	-0.631622	1.55105	-2.1524
H	-0.401287	-0.1757	-2.60256
N	-0.13771	2.47874	0.474809
C	-0.530748	3.42117	1.49635
H	0.317208	2.83066	-0.336532
H	-0.250917	4.45729	1.20417
H	-0.031696	3.18289	2.46353
H	-1.63239	3.38791	1.65891
C	5.12515	2.70964	-2.17254
C	5.1614	1.25634	-1.89367
O	5.16649	0.437363	-2.80233
H	5.08781	2.87188	-3.2717
H	6.03536	3.19983	-1.76762
H	4.22377	3.16544	-1.7112
N	5.18548	0.89929	-0.607463
C	5.17874	-0.477248	-0.178917
C	4.51739	-0.544843	1.18476
O	4.24513	0.481719	1.80424
H	5.13958	1.57651	0.12132
H	4.57256	-1.06066	-0.860676
C	6.61488	-1.04151	-0.112782
H	7.23428	-0.449764	0.594483
H	6.62207	-2.10497	0.202667
H	7.08215	-0.974719	-1.11953
N	4.23451	-1.76469	1.68272
C	3.60062	-1.92711	2.97034
H	4.45869	-2.58359	1.16482
H	3.45186	-3.00475	3.20231
H	2.60616	-1.425	2.98471
H	4.2258	-1.47796	3.77567
