44
  This energy is -1.1797 and Call times are: 31733
C	-0.583283	0.935225	-3.30118
C	-0.199985	1.24864	-1.9062
O	0.286849	2.33151	-1.61158
H	-0.338345	1.80189	-3.95293
H	-1.67382	0.736054	-3.36289
H	-0.0243392	0.0457222	-3.66099
N	-0.41311	0.289408	-1.00241
C	-0.0522188	0.430777	0.386236
C	0.244603	-0.94981	0.9407
O	0.00196326	-1.95883	0.281364
H	-0.772222	-0.601765	-1.26454
H	0.858862	1.01124	0.461244
C	-1.18975	1.10252	1.18625
H	-2.1218	0.501936	1.1183
H	-0.918481	1.2296	2.25433
H	-1.39537	2.10792	0.758173
N	0.788378	-1.02574	2.17138
C	1.11004	-2.29618	2.77857
H	0.981282	-0.198004	2.68782
H	1.54833	-2.14881	3.79021
H	1.84617	-2.8541	2.15559
H	0.196537	-2.9257	2.88032
C	3.86929	0.832698	2.34755
C	4.29999	0.562107	0.957432
O	3.48321	0.421572	0.0576874
H	2.75867	0.857361	2.38974
H	4.26367	1.81375	2.68629
H	4.23695	0.0330125	3.0246
N	5.61615	0.479672	0.749333
C	6.18545	0.179024	-0.540651
C	7.51563	-0.516371	-0.320151
O	8.0107	-0.587178	0.803059
H	6.26711	0.555662	1.49922
H	5.54031	-0.516776	-1.06244
C	6.37861	1.4662	-1.37198
H	7.04886	2.17601	-0.841892
H	6.8035	1.24646	-2.37283
H	5.39383	1.96253	-1.51411
N	8.12435	-1.05667	-1.39419
C	9.3902	-1.74278	-1.28002
H	7.70618	-0.992743	-2.29426
H	9.72621	-2.1159	-2.27255
H	9.30456	-2.6127	-0.589239
H	10.173	-1.05915	-0.878839
