44
  This energy is 0.1112 and Call times are: 35536
C	2.96453	-0.688513	-1.68826
C	1.56494	-0.207655	-1.65545
O	1.07325	0.375047	-2.61206
H	3.42437	-0.414242	-2.66253
H	2.99254	-1.79274	-1.57583
H	3.54981	-0.218855	-0.869751
N	0.882544	-0.443627	-0.532495
C	-0.474459	0.00154291	-0.335201
C	-0.6885	0.222479	1.15037
O	0.158722	-0.131227	1.96819
H	1.30923	-0.88288	0.252913
H	-0.612071	0.956702	-0.82649
C	-1.48025	-1.03687	-0.878643
H	-1.34653	-2.01405	-0.367493
H	-2.52848	-0.699359	-0.745119
H	-1.30001	-1.18859	-1.96531
N	-1.83113	0.824729	1.53472
C	-2.11905	1.0816	2.92659
H	-2.50279	1.10745	0.857954
H	-3.10521	1.58388	3.03798
H	-1.33856	1.73855	3.37439
H	-2.14273	0.129871	3.5052
C	8.35183	-0.00335328	1.36419
C	7.24004	0.664277	0.650503
O	7.25049	1.871	0.450177
H	9.10625	0.756942	1.66195
H	8.83712	-0.751183	0.702379
H	7.97179	-0.509102	2.2768
N	6.2381	-0.120187	0.246618
C	5.06739	0.390432	-0.422153
C	3.90384	-0.531206	-0.108627
O	4.08589	-1.60121	0.468996
H	6.2245	-1.09438	0.453075
H	4.82348	1.366	-0.0204049
C	5.29587	0.474475	-1.94727
H	5.53577	-0.527945	-2.36157
H	4.4064	0.879295	-2.47213
H	6.15666	1.14761	-2.15286
N	2.6714	-0.130075	-0.477696
C	1.50344	-0.93858	-0.216247
H	2.54364	0.740904	-0.940456
H	0.585434	-0.437408	-0.594831
H	1.38243	-1.11171	0.877674
H	1.59254	-1.93077	-0.715018
