44
  This energy is 1.1143 and Call times are: 35796
C	-1.06693	-1.15967	-3.10315
C	-0.0203748	-0.962533	-2.07504
O	1.06379	-1.52271	-2.15988
H	-0.695006	-1.86842	-3.87466
H	-1.3109	-0.19271	-3.59122
H	-1.98381	-1.58139	-2.63993
N	-0.328983	-0.14902	-1.06245
C	0.569875	0.107107	0.0352797
C	-0.261905	0.430694	1.26206
O	-1.47603	0.602626	1.17233
H	-1.2304	0.267456	-0.985946
H	1.13151	-0.792429	0.254448
C	1.52504	1.275	-0.294769
H	0.949693	2.20072	-0.509378
H	2.23141	1.47296	0.537317
H	2.11778	1.01967	-1.2002
N	0.37616	0.513198	2.44616
C	-0.333776	0.811079	3.66822
H	1.35842	0.366858	2.49933
H	0.365098	0.834813	4.53323
H	-1.11262	0.0398615	3.86798
H	-0.838795	1.80161	3.59795
C	7.24372	-2.67746	-2.20869
C	6.70892	-1.83278	-1.11705
O	5.54481	-1.92982	-0.753926
H	6.43414	-3.33388	-2.59541
H	8.07172	-3.313	-1.8302
H	7.6166	-2.04013	-3.03805
N	7.56256	-0.968962	-0.562525
C	7.17751	-0.0511218	0.48048
C	8.06424	1.17589	0.381859
O	9.03409	1.19295	-0.373657
H	8.49586	-0.872891	-0.896561
H	6.15811	0.273246	0.312478
C	7.31457	-0.707848	1.87158
H	8.36245	-1.0313	2.0487
H	7.00781	-0.0157002	2.68235
H	6.66329	-1.60784	1.91832
N	7.74451	2.2412	1.14272
C	8.5271	3.45476	1.11121
H	6.95359	2.20987	1.74483
H	8.10405	4.21366	1.80572
H	8.5396	3.88753	0.0846486
H	9.58006	3.25138	1.41297
