44
  This energy is -5.7958 and Call times are: 39281
C	1.00194	1.71682	2.85681
C	0.024517	0.899811	2.10295
O	-0.943737	0.399099	2.65809
H	0.702538	1.75315	3.92682
H	1.02635	2.75161	2.45513
H	2.01468	1.26752	2.78208
N	0.262606	0.743248	0.798661
C	-0.57503	-0.0595377	-0.0571773
C	0.281909	-0.598504	-1.1871
O	1.43348	-0.199532	-1.34963
H	1.07705	1.12298	0.369306
H	-0.94495	-0.910406	0.501226
C	-1.74933	0.772435	-0.617608
H	-1.37033	1.63955	-1.19942
H	-2.40949	0.161857	-1.26715
H	-2.35808	1.16328	0.226792
N	-0.261671	-1.53079	-1.99418
C	0.480109	-2.10524	-3.09234
H	-1.1936	-1.84403	-1.84429
H	-0.138509	-2.85247	-3.63656
H	1.39923	-2.61434	-2.72179
H	0.790249	-1.31463	-3.81338
C	6.39288	-1.66366	2.79289
C	5.27393	-1.11967	1.9909
O	4.11218	-1.3965	2.25567
H	5.98662	-2.32341	3.59009
H	6.96195	-0.836245	3.26649
H	7.07331	-2.25766	2.14694
N	5.60606	-0.321406	0.973622
C	4.63086	0.248812	0.0778613
C	5.29454	0.463293	-1.2694
O	6.50795	0.317646	-1.40401
H	6.55804	-0.13821	0.745524
H	3.82407	-0.458406	-0.0689345
C	4.08674	1.58374	0.632073
H	4.91265	2.31319	0.772914
H	3.32476	2.02589	-0.0420171
H	3.61268	1.40424	1.62171
N	4.50661	0.808725	-2.30664
C	5.04866	1.02844	-3.62728
H	3.52637	0.917834	-2.17898
H	4.24247	1.30371	-4.34248
H	5.55173	0.108287	-4.00346
H	5.79994	1.85092	-3.61196
