44
  This energy is -2.0228 and Call times are: 40815
C	-1.67869	2.82693	-1.14155
C	-0.676392	2.16794	-0.274217
O	0.138317	2.8223	0.361768
H	-1.52901	3.9279	-1.10486
H	-2.70454	2.59173	-0.787918
H	-1.56178	2.48316	-2.19096
N	-0.714183	0.834115	-0.231157
C	0.223732	0.0506344	0.533717
C	0.37928	-1.29684	-0.145751
O	-0.358997	-1.62351	-1.07308
H	-1.35678	0.313747	-0.786268
H	1.19217	0.534802	0.515465
C	-0.264444	-0.129343	1.98786
H	-1.25311	-0.635494	2.00759
H	0.455944	-0.719276	2.59081
H	-0.378836	0.869475	2.46286
N	1.35646	-2.11181	0.298056
C	1.58301	-3.41093	-0.291135
H	1.94639	-1.82819	1.0468
H	2.43008	-3.92817	0.21101
H	1.82411	-3.31421	-1.37455
H	0.675352	-4.04974	-0.19514
C	5.13068	2.78671	2.04235
C	4.59131	1.69074	1.20624
O	3.39718	1.42528	1.20387
H	4.30141	3.25078	2.61924
H	5.60006	3.56194	1.4009
H	5.88508	2.3895	2.75381
N	5.47615	1.01768	0.467018
C	5.10871	-0.1018	-0.363826
C	6.30815	-1.02441	-0.471889
O	7.40758	-0.681069	-0.0416631
H	6.45055	1.21887	0.510737
H	4.31535	-0.659266	0.118299
C	4.66309	0.373267	-1.76418
H	5.48033	0.936187	-2.26346
H	4.36438	-0.478571	-2.4089
H	3.78947	1.05321	-1.66026
N	6.12062	-2.22915	-1.04586
C	7.20242	-3.17565	-1.18738
H	5.22274	-2.49063	-1.38426
H	6.84836	-4.10634	-1.68305
H	7.6202	-3.44655	-0.190704
H	8.02562	-2.74287	-1.80071
