44
  This energy is 0.1003 and Call times are: 39208
C	3.39276	-0.304979	0.713355
C	2.04135	0.222291	1.00804
O	1.7958	0.775988	2.07083
H	4.05656	-0.12261	1.58627
H	3.81822	0.207535	-0.174934
H	3.34374	-1.39758	0.521248
N	1.11928	0.0566291	0.0568675
C	-0.250365	0.478003	0.215185
C	-1.12461	-0.42697	-0.632326
O	-0.624917	-1.22478	-1.42323
H	1.32374	-0.432426	-0.786274
H	-0.549217	0.341177	1.24698
C	-0.426386	1.95267	-0.208622
H	-0.129909	2.0915	-1.27016
H	-1.47405	2.29316	-0.078253
H	0.228417	2.59563	0.419223
N	-2.45986	-0.328719	-0.479137
C	-3.37056	-1.15318	-1.2388
H	-2.84529	0.319907	0.168785
H	-4.42544	-0.924118	-0.970496
H	-3.18419	-2.23294	-1.03715
H	-3.24062	-0.978575	-2.33139
C	4.09682	-0.788614	-2.77055
C	4.36623	0.00194342	-1.54842
O	3.71355	1.00248	-1.28507
H	3.27209	-0.310777	-3.34269
H	3.79427	-1.82181	-2.49903
H	5.00375	-0.82528	-3.41024
N	5.35307	-0.436647	-0.763455
C	5.76027	0.250597	0.436728
C	7.23104	-0.0381936	0.671256
O	7.82313	-0.878746	-0.00299438
H	5.90231	-1.22932	-1.01215
H	5.66097	1.3186	0.287972
C	4.91858	-0.208102	1.64768
H	5.02841	-1.30197	1.80715
H	5.21325	0.323987	2.57534
H	3.84533	0.00563638	1.45072
N	7.86019	0.663504	1.63448
C	9.26039	0.46073	1.92515
H	7.36525	1.34232	2.16675
H	9.5923	1.13127	2.74822
H	9.88309	0.674424	1.02634
H	9.44925	-0.593059	2.23338
