44
  This energy is 0.1276 and Call times are: 35432
C	3.39276	0.00446583	-0.775801
C	2.04135	-0.59582	-0.842941
O	1.7958	-1.51835	-1.60783
H	4.05656	-0.502157	-1.50968
H	3.81822	-0.123452	0.241727
H	3.34374	1.08606	-1.02245
N	1.11928	-0.0742511	-0.0304557
C	-0.250365	-0.524045	-0.0129708
C	-1.12461	0.638777	0.417257
O	-0.624917	1.68087	0.836862
H	1.32374	0.703509	0.557041
H	-0.549217	-0.798066	-1.01708
C	-0.426386	-1.71895	0.949559
H	-0.129909	-1.43524	1.98186
H	-1.47405	-2.08335	0.961437
H	0.228417	-2.55507	0.620194
N	-2.45986	0.488807	0.314159
C	-3.37056	1.54335	0.694634
H	-2.84529	-0.360327	-0.0315126
H	-4.42544	1.22816	0.536163
H	-3.18419	2.46041	0.0900315
H	-3.24062	1.80613	1.76944
C	7.45955	-1.21474	2.14191
C	7.01872	-0.679507	0.834109
O	7.82948	-0.330475	-0.0127974
H	8.5704	-1.21055	2.1849
H	7.09886	-2.25696	2.27011
H	7.06565	-0.583457	2.96617
N	5.70034	-0.600021	0.639325
C	5.12006	-0.0605194	-0.565153
C	3.76732	0.530275	-0.214962
O	3.27113	0.352892	0.895911
H	5.05298	-0.849687	1.35378
H	5.74085	0.748517	-0.929432
C	4.9698	-1.15572	-1.64367
H	4.32441	-1.98099	-1.27429
H	4.53684	-0.749806	-2.58085
H	5.97068	-1.57934	-1.87847
N	3.13974	1.25864	-1.15923
C	1.85151	1.86429	-0.914623
H	3.55903	1.39447	-2.05075
H	1.50221	2.42149	-1.8117
H	1.90829	2.57655	-0.0597895
H	1.09259	1.08728	-0.666738
