44
  This energy is -1.9294 and Call times are: 36042
C	2.39323	0.692259	2.43021
C	1.11649	0.0827348	1.99481
O	0.512101	-0.701607	2.7131
H	2.66046	0.304985	3.43743
H	2.29101	1.79646	2.48525
H	3.20432	0.43136	1.71807
N	0.672574	0.434895	0.785971
C	-0.531745	-0.107296	0.207866
C	-0.379798	-0.0931085	-1.30153
O	0.569123	0.479734	-1.83361
H	1.19645	1.04284	0.196211
H	-0.639706	-1.14112	0.511492
C	-1.76744	0.714583	0.635432
H	-1.66192	1.77297	0.314916
H	-2.70278	0.298793	0.207901
H	-1.85435	0.696949	1.7438
N	-1.31399	-0.735394	-2.03007
C	-1.24902	-0.779955	-3.47228
H	-2.07223	-1.19663	-1.58128
H	-2.10634	-1.35462	-3.88699
H	-0.305142	-1.26742	-3.80806
H	-1.27702	0.248781	-3.89897
C	4.37582	-2.84293	0.838396
C	4.66368	-1.6941	-0.0495734
O	4.15046	-1.60543	-1.15644
H	3.68044	-3.54041	0.322833
H	3.90049	-2.49071	1.77794
H	5.31463	-3.38461	1.07983
N	5.50788	-0.77474	0.424243
C	5.91769	0.376894	-0.340184
C	7.30491	0.781862	0.121555
O	7.81505	0.263388	1.11284
H	5.94934	-0.881523	1.31057
H	5.99257	0.103692	-1.38535
C	4.92329	1.54406	-0.155411
H	4.85404	1.8317	0.915343
H	5.22041	2.43217	-0.749961
H	3.91351	1.22267	-0.492152
N	7.95436	1.71883	-0.596997
C	9.28056	2.16317	-0.236532
H	7.5268	2.12381	-1.39841
H	9.64352	2.93629	-0.949125
H	9.99753	1.31049	-0.249407
H	9.28345	2.60121	0.7878
