44
  This energy is -3.0074 and Call times are: 40453
C	1.30505	-2.30172	-2.26089
C	1.12984	-0.918293	-1.76433
O	1.80453	0.00236711	-2.20433
H	2.11213	-2.31815	-3.02524
H	0.363518	-2.66402	-2.72457
H	1.58818	-2.97543	-1.42479
N	0.204812	-0.740014	-0.818334
C	-0.0501262	0.540507	-0.206915
C	-0.562278	0.299031	1.20055
O	-0.850718	-0.83435	1.57997
H	-0.307829	-1.50604	-0.441145
H	0.880593	1.0875	-0.122087
C	-1.08011	1.34806	-1.02681
H	-2.03859	0.791997	-1.1052
H	-1.27454	2.34177	-0.573743
H	-0.687947	1.506	-2.05521
N	-0.679604	1.36628	2.01494
C	-1.15326	1.23247	3.37285
H	-0.437403	2.2749	1.69116
H	-1.17865	2.2222	3.87982
H	-0.486888	0.55675	3.95648
H	-2.18107	0.802996	3.3901
C	4.861	2.96175	-1.76869
C	4.80853	1.48442	-1.69183
O	4.80952	0.797476	-2.70401
H	4.87961	3.27359	-2.83559
H	5.77753	3.3387	-1.26806
H	3.96591	3.40233	-1.28108
N	4.75839	0.955295	-0.467126
C	4.66063	-0.463933	-0.233053
C	3.93856	-0.677451	1.08399
O	3.69441	0.269593	1.82911
H	4.71694	1.52883	0.346014
H	4.05442	-0.913166	-1.00979
C	6.06083	-1.11447	-0.194579
H	6.67957	-0.661228	0.609026
H	5.99835	-2.20952	-0.0287741
H	6.57386	-0.938918	-1.16531
N	3.57059	-1.93508	1.39861
C	2.87419	-2.23366	2.62827
H	3.77334	-2.68773	0.780972
H	2.65896	-3.32232	2.70396
H	1.90789	-1.68119	2.67653
H	3.48695	-1.93508	3.50947
