44
  This energy is -7.6894 and Call times are: 36904
C	-1.8613	1.39036	2.59136
C	-0.57741	0.955887	1.99639
O	0.491797	1.25804	2.50816
H	-1.65802	2.00214	3.49705
H	-2.46644	0.506391	2.88317
H	-2.43197	2.00472	1.86336
N	-0.656919	0.226203	0.881209
C	0.506331	-0.232932	0.163848
C	0.135568	-0.368853	-1.30094
O	-1.03327	-0.26233	-1.66724
H	-1.53327	0.0229588	0.453939
H	1.28599	0.515554	0.231132
C	1.00259	-1.58377	0.724391
H	0.206642	-2.35471	0.645923
H	1.90621	-1.94115	0.189337
H	1.26057	-1.4626	1.79915
N	1.13118	-0.600655	-2.17904
C	0.874465	-0.738942	-3.59366
H	2.07119	-0.679651	-1.86407
H	1.82029	-0.925102	-4.14863
H	0.405961	0.186556	-4.00015
H	0.18153	-1.58981	-3.78605
C	6.49531	3.20142	0.232002
C	6.36074	1.80664	0.709118
O	7.11924	1.35053	1.55355
H	7.35765	3.68264	0.742524
H	5.57398	3.77587	0.464188
H	6.67307	3.21546	-0.864024
N	5.37595	1.0864	0.167059
C	5.14715	-0.297861	0.498743
C	4.51314	-0.973518	-0.702542
O	4.1317	-0.313969	-1.66753
H	4.79247	1.45888	-0.548954
H	6.09797	-0.784163	0.677799
C	4.23241	-0.42464	1.73665
H	3.25293	0.06495	1.54967
H	4.05993	-1.48567	2.01048
H	4.71247	0.0835528	2.6013
N	4.39322	-2.31547	-0.674128
C	3.80755	-3.04549	-1.77423
H	4.71145	-2.83218	0.113784
H	3.79885	-4.13723	-1.56146
H	4.38645	-2.87559	-2.71087
H	2.75876	-2.71429	-1.95173
