44
  This energy is -1.5454 and Call times are: 37178
C	1.88157	1.23665	-2.65388
C	0.588814	0.990082	-1.97629
O	-0.443378	1.51377	-2.37219
H	1.72485	1.94237	-3.49844
H	2.29251	0.2852	-3.05213
H	2.60754	1.68344	-1.94223
N	0.618606	0.1743	-0.919884
C	-0.551088	-0.127074	-0.132769
C	-0.101604	-0.438135	1.28242
O	1.09143	-0.567062	1.55029
H	1.47327	-0.211949	-0.584874
H	-1.18484	0.749659	-0.0845646
C	-1.32506	-1.32261	-0.730187
H	-0.678567	-2.2251	-0.770101
H	-2.23549	-1.55572	-0.140864
H	-1.63719	-1.0758	-1.76846
N	-1.05355	-0.55819	2.22868
C	-0.720107	-0.847684	3.60389
H	-2.01335	-0.446389	1.9934
H	-1.63935	-0.906869	4.22735
H	-0.0621436	-0.0528878	4.02419
H	-0.180513	-1.81927	3.68134
C	6.36119	-3.25268	1.07669
C	6.81815	-1.94576	0.552962
O	8.0071	-1.6609	0.512089
H	7.24247	-3.84461	1.40658
H	5.8258	-3.81654	0.284116
H	5.68447	-3.10189	1.94409
N	5.86612	-1.10782	0.135985
C	6.15267	0.215621	-0.35894
C	4.95264	1.09818	-0.0715583
O	3.90085	0.615415	0.343638
H	4.90024	-1.33782	0.213605
H	6.99326	0.62661	0.186153
C	6.45214	0.185287	-1.87375
H	5.58603	-0.226473	-2.43442
H	6.68793	1.19649	-2.26411
H	7.3287	-0.472548	-2.06145
N	5.08659	2.42287	-0.27955
C	4.00033	3.3411	-0.0284357
H	5.9468	2.79524	-0.611912
H	4.30662	4.38518	-0.259292
H	3.68678	3.2959	1.03971
H	3.11733	3.08708	-0.658466
