44
  This energy is -0.7978 and Call times are: 41116
C	-1.64828	3.05369	0.266176
C	-0.738256	2.01342	0.796116
O	-0.0469069	2.22065	1.78379
H	-1.55805	3.97149	0.886962
H	-2.6992	2.6973	0.30226
H	-1.37778	3.30085	-0.782077
N	-0.716959	0.8522	0.137712
C	0.148815	-0.239578	0.507868
C	0.457319	-1.04308	-0.741437
O	-0.135816	-0.821273	-1.79534
H	-1.25502	0.712852	-0.688692
H	1.08672	0.157249	0.875959
C	-0.517284	-1.13409	1.57623
H	-1.47435	-1.54992	1.19524
H	0.145088	-1.97056	1.87973
H	-0.741291	-0.523657	2.4782
N	1.40576	-1.99636	-0.65342
C	1.77034	-2.80729	-1.79169
H	1.87759	-2.15832	0.206937
H	2.56791	-3.53282	-1.51835
H	2.14702	-2.16943	-2.62387
H	0.88985	-3.37825	-2.16569
C	5.10699	-3.05711	0.478706
C	6.02244	-2.16795	-0.271297
O	6.75521	-2.60711	-1.14685
H	5.23472	-4.10186	0.120893
H	4.05338	-2.74747	0.315075
H	5.33928	-3.01799	1.56387
N	6.00121	-0.875724	0.0634982
C	6.86539	0.103464	-0.54719
C	7.11279	1.21008	0.460659
O	6.48161	1.25446	1.51487
H	5.42895	-0.540165	0.806315
H	7.82265	-0.352528	-0.767044
C	6.22948	0.674767	-1.83345
H	5.25229	1.15199	-1.60674
H	6.89142	1.4198	-2.32057
H	6.05002	-0.153489	-2.55326
N	8.05036	2.13053	0.161068
C	8.35807	3.21692	1.06176
H	8.55353	2.07555	-0.695012
H	9.15547	3.86588	0.637214
H	8.71053	2.82539	2.04347
H	7.45547	3.84397	1.24411
