44
  This energy is -4.3294 and Call times are: 31823
C	1.89165	-0.41745	-2.89138
C	1.0643	-0.952622	-1.78675
O	0.656984	-2.10599	-1.80237
H	2.02848	-1.2059	-3.66306
H	2.88831	-0.111524	-2.50951
H	1.38977	0.4572	-3.35634
N	0.791803	-0.110242	-0.787486
C	-0.036323	-0.472784	0.335603
C	-0.705131	0.785629	0.85584
O	-0.376229	1.89335	0.435727
H	1.09619	0.837792	-0.808701
H	-0.820663	-1.13996	0.000463172
C	0.803064	-1.13917	1.44763
H	1.60126	-0.451171	1.79916
H	0.174431	-1.43553	2.31222
H	1.28948	-2.05325	1.0424
N	-1.67235	0.642032	1.78314
C	-2.3684	1.78231	2.3322
H	-1.92744	-0.262766	2.10771
H	-3.12658	1.45816	3.07874
H	-2.88943	2.34945	1.52712
H	-1.65431	2.47395	2.83504
C	7.29018	-3.06203	-0.215781
C	7.27993	-1.58268	-0.266741
O	8.32228	-0.942933	-0.291786
H	8.34186	-3.4213	-0.188504
H	6.79104	-3.4794	-1.11545
H	6.76535	-3.41715	0.696092
N	6.07995	-0.997678	-0.281105
C	5.90912	0.433875	-0.286497
C	4.58922	0.755258	0.388874
O	3.79689	-0.138571	0.680423
H	5.24077	-1.53039	-0.218951
H	6.69347	0.889453	0.305007
C	5.9281	0.986316	-1.72861
H	5.117	0.527059	-2.33296
H	5.81134	2.08931	-1.74535
H	6.89974	0.732662	-2.20602
N	4.32522	2.04816	0.662251
C	3.09698	2.44865	1.30817
H	4.98051	2.75679	0.422424
H	3.06691	3.55195	1.44628
H	3.00443	1.96755	2.30879
H	2.21532	2.14739	0.697383
