44
  This energy is -3.8409 and Call times are: 36819
C	1.47261	2.82271	1.40585
C	0.327392	1.9018	1.22827
O	-0.656089	1.96769	1.95273
H	1.26948	3.50032	2.26343
H	1.61712	3.43461	0.49073
H	2.39841	2.24623	1.61481
N	0.433358	1.0059	0.24414
C	-0.580235	0.0161148	-0.0232809
C	0.0933223	-1.1967	-0.637251
O	1.27424	-1.15657	-0.977153
H	1.25753	0.937832	-0.310813
H	-1.02543	-0.300892	0.911566
C	-1.66013	0.575575	-0.97516
H	-1.20548	0.891177	-1.93835
H	-2.45368	-0.172584	-1.1778
H	-2.13405	1.46693	-0.509072
N	-0.645616	-2.31373	-0.786386
C	-0.0882445	-3.5183	-1.35606
H	-1.59838	-2.32811	-0.501599
H	-0.852516	-4.32556	-1.39395
H	0.772473	-3.87885	-0.747417
H	0.275956	-3.33109	-2.39214
C	4.97599	-2.83553	-1.86372
C	5.90828	-2.02916	-1.04411
O	6.95891	-2.50094	-0.631794
H	5.38979	-3.85955	-1.99025
H	4.84871	-2.37308	-2.86507
H	3.98825	-2.90662	-1.36136
N	5.5361	-0.773644	-0.784194
C	6.31757	0.118719	0.035291
C	5.37232	1.10569	0.69406
O	4.18914	1.16068	0.364284
H	4.65889	-0.416754	-1.09237
H	6.79467	-0.447566	0.82543
C	7.3735	0.862753	-0.811267
H	6.88387	1.45226	-1.6155
H	7.99091	1.54273	-0.189211
H	8.04916	0.120791	-1.29014
N	5.87475	1.90762	1.65348
C	5.0493	2.87399	2.33972
H	6.83376	1.84554	1.90944
H	5.64491	3.43595	3.0925
H	4.20724	2.36836	2.86559
H	4.61686	3.60445	1.6182
