44
  This energy is -5.2108 and Call times are: 35936
C	-1.22119	-3.06142	1.11763
C	-0.407703	-2.24279	0.190693
O	0.386099	-2.76183	-0.581887
H	-0.963234	-4.13436	0.982978
H	-2.30171	-2.92199	0.903651
H	-1.01224	-2.77077	2.1688
N	-0.589352	-0.921497	0.250492
C	0.160257	0.00718031	-0.558337
C	0.257088	1.32003	0.195717
O	-0.391197	1.50504	1.22393
H	-1.20931	-0.511124	0.913147
H	1.16871	-0.365357	-0.688202
C	-0.519597	0.218777	-1.92884
H	-1.55048	0.610936	-1.79647
H	0.0554852	0.921263	-2.56626
H	-0.586944	-0.756009	-2.4595
N	1.08176	2.26494	-0.297327
C	1.24257	3.54327	0.355512
H	1.60117	2.09518	-1.12827
H	1.96268	4.1818	-0.202112
H	1.62419	3.40892	1.39358
H	0.268389	4.08072	0.41269
C	3.32685	0.769727	-2.64811
C	4.07438	1.14294	-1.4262
O	4.19407	2.313	-1.08997
H	2.95603	1.69107	-3.14759
H	2.45884	0.129321	-2.38509
H	3.99038	0.222436	-3.35045
N	4.60451	0.138296	-0.724747
C	5.39501	0.346851	0.462757
C	6.37647	-0.803456	0.585676
O	6.29319	-1.78388	-0.151569
H	4.53336	-0.805941	-1.03331
H	5.97452	1.25479	0.351226
C	4.49657	0.428369	1.71631
H	3.90966	-0.507046	1.83707
H	5.09241	0.602668	2.63561
H	3.78128	1.27181	1.60095
N	7.34087	-0.705228	1.52178
C	8.32255	-1.7482	1.70802
H	7.39453	0.0977202	2.10613
H	9.02957	-1.48159	2.52428
H	8.90914	-1.90678	0.77418
H	7.828	-2.71075	1.9727
