44
  This energy is -2.1572 and Call times are: 33664
C	1.93027	1.14737	2.659
C	1.54136	0.100681	1.68723
O	2.21247	-0.91219	1.5454
H	2.87573	0.848696	3.16178
H	1.13795	1.26988	3.42708
H	2.09094	2.11395	2.13652
N	0.429987	0.327947	0.983261
C	-0.051655	-0.577861	-0.0297014
C	-0.820133	0.229154	-1.05913
O	-1.08435	1.41357	-0.861495
H	-0.0831767	1.17591	1.08066
H	0.792532	-1.02776	-0.537218
C	-0.95508	-1.66717	0.588738
H	-1.8269	-1.20663	1.10048
H	-1.32112	-2.37909	-0.179192
H	-0.374521	-2.23986	1.3446
N	-1.19145	-0.396172	-2.19364
C	-1.92123	0.292755	-3.23238
H	-0.964908	-1.35385	-2.33721
H	-2.1332	-0.390963	-4.08375
H	-1.33482	1.15889	-3.61608
H	-2.89092	0.678108	-2.84207
C	5.09525	-2.4969	2.15819
C	5.48882	-1.098	1.87652
O	5.28634	-0.207372	2.69028
H	4.60995	-2.54787	3.15706
H	5.99063	-3.15344	2.15973
H	4.37651	-2.85412	1.39081
N	6.06809	-0.870844	0.695318
C	6.46693	0.444885	0.26134
C	6.40436	0.482306	-1.254
O	6.21717	-0.54558	-1.90216
H	6.18903	-1.59896	0.0266763
H	5.75677	1.17371	0.6316
C	7.89232	0.779436	0.752846
H	8.62284	0.0380383	0.364625
H	8.20568	1.79554	0.436824
H	7.91656	0.738326	1.86373
N	6.55236	1.67856	-1.85656
C	6.50193	1.81235	-3.29383
H	6.69888	2.4997	-1.31496
H	6.64427	2.87354	-3.59525
H	5.51865	1.46541	-3.68635
H	7.30029	1.20124	-3.77373
