44
  This energy is -3.028 and Call times are: 36446
C	2.13982	-0.0914234	2.74327
C	1.18755	-0.736115	1.81122
O	1.03758	-1.9501	1.79886
H	2.6469	-0.873348	3.34935
H	1.59994	0.598284	3.4256
H	2.90657	0.476243	2.17499
N	0.513587	0.0772128	0.994739
C	-0.415748	-0.405724	0.00394717
C	-0.442938	0.58719	-1.14276
O	0.125518	1.67336	-1.04894
H	0.676543	1.0597	0.988359
H	-0.0573475	-1.34729	-0.393084
C	-1.82728	-0.574669	0.607501
H	-2.19975	0.393272	1.00549
H	-2.54897	-0.959225	-0.142037
H	-1.78201	-1.29929	1.44966
N	-1.10236	0.231048	-2.26274
C	-1.17715	1.10882	-3.40734
H	-1.55266	-0.653754	-2.32128
H	-1.76163	0.636637	-4.2275
H	-0.157511	1.34042	-3.792
H	-1.66959	2.07004	-3.13401
C	8.08849	-3.23766	1.00428
C	7.74534	-1.8285	1.30037
O	7.45229	-1.47303	2.43358
H	8.00976	-3.83847	1.93632
H	9.12776	-3.30574	0.619525
H	7.38721	-3.6518	0.249455
N	7.77266	-0.981668	0.268613
C	7.42139	0.411144	0.392045
C	6.87789	0.882043	-0.943784
O	6.94908	0.165681	-1.94051
H	7.97324	-1.29403	-0.655538
H	6.62566	0.515796	1.11902
C	8.64719	1.25471	0.805635
H	9.45991	1.15601	0.0547759
H	8.38644	2.3271	0.917479
H	9.03298	0.887478	1.78167
N	6.31075	2.10351	-0.992567
C	5.7614	2.6334	-2.21878
H	6.25877	2.66681	-0.174604
H	5.34068	3.64985	-2.05428
H	4.94804	1.97518	-2.6015
H	6.54821	2.70232	-3.00448
