44
  This energy is -1.6092 and Call times are: 32953
C	1.62097	1.68213	-2.57984
C	0.535261	1.56461	-1.58056
O	-0.205756	2.50699	-1.33718
H	1.62421	2.71166	-2.9993
H	1.4607	0.957952	-3.40604
H	2.60387	1.48574	-2.10189
N	0.417629	0.384167	-0.968112
C	-0.56295	0.13112	0.0580417
C	-0.0120351	-0.935078	0.986088
O	1.01956	-1.54237	0.705523
H	1.05418	-0.360525	-1.14727
H	-0.704247	1.02919	0.646376
C	-1.90198	-0.327934	-0.559616
H	-1.75955	-1.25513	-1.15464
H	-2.66954	-0.512662	0.219649
H	-2.28248	0.464065	-1.24102
N	-0.687999	-1.18241	2.12535
C	-0.236314	-2.17552	3.07187
H	-1.51849	-0.677842	2.33693
H	-0.925452	-2.23041	3.94325
H	0.782976	-1.9263	3.44632
H	-0.192594	-3.18154	2.59525
C	5.72837	-3.25117	-1.04041
C	4.7936	-2.19469	-0.591843
O	3.58222	-2.35049	-0.660425
H	5.14687	-4.11522	-1.42917
H	6.35558	-3.59327	-0.190516
H	6.38251	-2.8647	-1.85023
N	5.34613	-1.07607	-0.116668
C	4.56674	0.0564881	0.317394
C	5.39728	1.30918	0.111139
O	6.58444	1.2336	-0.199723
H	6.3337	-0.947913	-0.105226
H	3.68739	0.145848	-0.308211
C	4.16335	-0.0875139	1.80124
H	5.06534	-0.168636	2.44456
H	3.55106	0.771792	2.1436
H	3.56333	-1.01472	1.93011
N	4.78515	2.49883	0.272468
C	5.49391	3.74428	0.0916586
H	3.82282	2.53969	0.520111
H	4.81859	4.6103	0.268263
H	5.89723	3.8199	-0.944146
H	6.34959	3.8162	0.801426
