44
  This energy is -5.9812 and Call times are: 41250
C	-0.108128	-3.013	-1.73862
C	0.162937	-1.55962	-1.66544
O	0.75023	-0.979026	-2.56789
H	0.312701	-3.41794	-2.68457
H	-1.20255	-3.19943	-1.72336
H	0.367484	-3.53462	-0.881423
N	-0.264882	-0.930659	-0.568287
C	-0.0372052	0.473616	-0.334332
C	0.0209121	0.700052	1.16464
O	-0.277708	-0.198191	1.9493
H	-0.705169	-1.42451	0.176106
H	0.927496	0.751575	-0.74019
C	-1.15759	1.32721	-0.967859
H	-2.14628	1.04973	-0.544151
H	-0.986357	2.41126	-0.806501
H	-1.18697	1.13955	-2.06343
N	0.417858	1.91242	1.59894
C	0.508978	2.21817	3.00762
H	0.659343	2.62519	0.948767
H	0.853464	3.26453	3.16145
H	1.22938	1.53427	3.51219
H	-0.482996	2.09934	3.50058
C	3.89019	-2.21164	-2.61716
C	4.18989	-1.92501	-1.19618
O	4.12811	-2.80301	-0.346648
H	3.60823	-3.28161	-2.72446
H	4.78376	-2.01077	-3.2448
H	3.04512	-1.58072	-2.96482
N	4.52479	-0.666455	-0.902474
C	4.80215	-0.225643	0.441887
C	4.44725	1.2461	0.53976
O	4.16193	1.89336	-0.4659
H	4.5309	0.0460816	-1.59825
H	4.16041	-0.758802	1.1322
C	6.28761	-0.44944	0.800437
H	6.94614	0.105816	0.0989509
H	6.51075	-0.126739	1.83803
H	6.52687	-1.53188	0.71435
N	4.44873	1.80959	1.76389
C	4.11862	3.20265	1.95517
H	4.67831	1.2686	2.5662
H	4.17579	3.47611	3.03182
H	3.08623	3.41484	1.59403
H	4.82301	3.85474	1.38969
