44
  This energy is 0.1017 and Call times are: 40135
C	3.22514	-1.22063	0.470359
C	1.83916	-0.987781	0.935116
O	1.41263	-1.52463	1.94817
H	3.72994	-1.93019	1.16143
H	3.79085	-0.265327	0.459878
H	3.21813	-1.65706	-0.550705
N	1.09297	-0.169162	0.18984
C	-0.287029	0.120207	0.490549
C	-0.997736	0.439984	-0.811063
O	-0.364872	0.5837	-1.85535
H	1.44126	0.228005	-0.654447
H	-0.755299	-0.763864	0.905004
C	-0.400495	1.30503	1.4747
H	0.0704588	2.21503	1.04558
H	-1.45779	1.52874	1.72491
H	0.133273	1.05205	2.41674
N	-2.34038	0.551014	-0.77946
C	-3.10254	0.847752	-1.96994
H	-2.83521	0.427268	0.0742974
H	-4.18943	0.897528	-1.73881
H	-2.9444	0.0618319	-2.74363
H	-2.79073	1.82586	-2.40264
C	7.60984	1.33108	-0.194644
C	6.13778	1.46094	-0.280133
O	5.60229	2.55839	-0.352811
H	8.06834	2.34381	-0.191772
H	7.99541	0.764498	-1.06818
H	7.8939	0.805356	0.741301
N	5.44007	0.322741	-0.270793
C	3.99912	0.289806	-0.304605
C	3.53806	-0.969957	0.403905
O	4.34506	-1.83412	0.741065
H	5.88789	-0.561077	-0.169906
H	3.60939	1.13349	0.251197
C	3.48073	0.31351	-1.75924
H	3.87181	-0.557586	-2.32695
H	2.37218	0.302491	-1.79833
H	3.83672	1.23989	-2.26066
N	2.22039	-1.09957	0.654829
C	1.69005	-2.26153	1.32918
H	1.58339	-0.387756	0.378001
H	0.58641	-2.18112	1.4421
H	2.13939	-2.36633	2.34327
H	1.91723	-3.18789	0.753511
