44
  This energy is -0.9836 and Call times are: 39961
C	1.00082	-2.3943	2.31914
C	-0.0456937	-1.66312	1.56991
O	-1.21055	-2.03644	1.58204
H	0.544655	-3.27349	2.82394
H	1.45353	-1.73338	3.08789
H	1.79151	-2.74885	1.62475
N	0.354708	-0.587594	0.887781
C	-0.539773	0.200484	0.0769798
C	0.266814	0.827212	-1.04471
O	1.49447	0.759939	-1.05129
H	1.31342	-0.319946	0.854454
H	-1.27532	-0.45025	-0.379255
C	-1.23235	1.29248	0.921446
H	-0.478605	1.96669	1.38117
H	-1.93417	1.89725	0.311348
H	-1.8101	0.811526	1.74074
N	-0.410463	1.44835	-2.03036
C	0.272085	2.06895	-3.14174
H	-1.40394	1.48885	-2.00967
H	-0.457726	2.52586	-3.84589
H	0.87557	1.31777	-3.70103
H	0.96109	2.8677	-2.78338
C	5.81912	3.03565	-1.65906
C	5.47328	2.09219	-0.572126
O	4.78519	2.4438	0.376192
H	5.37826	4.03135	-1.43524
H	5.41217	2.67152	-2.62578
H	6.92174	3.14047	-1.73839
N	5.95375	0.851944	-0.687596
C	5.73808	-0.165175	0.311158
C	6.90966	-1.12797	0.266405
O	7.74478	-1.06227	-0.633571
H	6.54639	0.592075	-1.44463
H	5.73425	0.292824	1.2924
C	4.41151	-0.914433	0.0580381
H	4.41911	-1.39332	-0.944288
H	4.22724	-1.69098	0.828455
H	3.56909	-0.189311	0.0874001
N	7.0029	-2.04543	1.24905
C	8.08648	-2.99946	1.29211
H	6.31968	-2.08033	1.9709
H	7.98679	-3.66821	2.17532
H	9.06799	-2.47635	1.35761
H	8.09189	-3.62985	0.373565
