44
  This energy is -0.6143 and Call times are: 41803
C	1.72005	-1.65641	2.53188
C	0.544286	-1.49001	1.64812
O	-0.317125	-2.35513	1.57104
H	1.66133	-2.64383	3.03926
H	1.73602	-0.856948	3.30217
H	2.65595	-1.6138	1.93575
N	0.483812	-0.354641	0.948364
C	-0.576697	-0.068424	0.0145765
C	-0.0261603	0.851271	-1.05903
O	1.09043	1.35348	-0.946173
H	1.21333	0.322024	0.990786
H	-0.881411	-0.98644	-0.472278
C	-1.7774	0.590391	0.728381
H	-1.46765	1.53763	1.21913
H	-2.60617	0.803061	0.0223792
H	-2.15891	-0.0967603	1.51491
N	-0.799707	1.08747	-2.13693
C	-0.357161	1.94498	-3.21163
H	-1.69864	0.668753	-2.21222
H	-1.13321	2.01282	-4.00559
H	0.578769	1.55009	-3.6692
H	-0.150191	2.97269	-2.83464
C	7.65542	2.8045	1.07983
C	7.56113	1.35399	0.800041
O	8.55616	0.642443	0.804624
H	8.71887	3.07614	1.2563
H	7.06458	3.0589	1.98478
H	7.27468	3.38671	0.214299
N	6.34077	0.877154	0.543656
C	6.09603	-0.504279	0.211537
C	4.86167	-0.567726	-0.66817
O	4.16256	0.42809	-0.845125
H	5.54615	1.47616	0.503233
H	6.92657	-0.884378	-0.370146
C	5.89582	-1.3513	1.48735
H	5.03729	-0.968222	2.07915
H	5.7203	-2.41956	1.24538
H	6.80798	-1.28376	2.1196
N	4.56871	-1.74725	-1.25034
C	3.41706	-1.90133	-2.10832
H	5.14867	-2.54075	-1.09846
H	3.34775	-2.94377	-2.49011
H	3.48251	-1.21206	-2.98119
H	2.47957	-1.66783	-1.55359
