44
  This energy is -1.96 and Call times are: 41699
C	0.359255	-1.06034	-3.29534
C	-0.449856	-0.857229	-2.07255
O	-1.66624	-0.985764	-2.08981
H	-0.314104	-1.30927	-4.14417
H	1.07424	-1.89666	-3.14661
H	0.920174	-0.134079	-3.5413
N	0.219928	-0.527451	-0.965747
C	-0.433241	-0.255732	0.290478
C	0.428642	0.719015	1.07059
O	1.55841	1.01057	0.682853
H	1.20576	-0.386472	-0.976882
H	-1.38163	0.231731	0.101901
C	-0.643691	-1.55677	1.09562
H	0.329895	-2.05178	1.29844
H	-1.15827	-1.36258	2.05895
H	-1.27021	-2.25817	0.502436
N	-0.0920385	1.2551	2.19199
C	0.652299	2.19613	2.9961
H	-1.00951	1.01004	2.48741
H	0.0537482	2.52201	3.87517
H	0.918359	3.09852	2.39929
H	1.59706	1.73602	3.36604
C	4.34874	0.278673	-0.683029
C	5.57661	-0.52385	-0.484407
O	5.52614	-1.74096	-0.372611
H	3.4655	-0.396397	-0.687655
H	4.39553	0.815936	-1.65355
H	4.2347	1.01401	0.141196
N	6.72618	0.15308	-0.433134
C	7.99834	-0.484731	-0.202087
C	8.91176	0.515505	0.481105
O	8.58115	1.69415	0.596013
H	6.74705	1.14744	-0.484737
H	7.86291	-1.31556	0.479087
C	8.62194	-0.968825	-1.5295
H	8.77082	-0.115246	-2.22468
H	9.59543	-1.47406	-1.36347
H	7.93303	-1.69355	-2.01583
N	10.0869	0.0629757	0.960914
C	11.0181	0.940566	1.63093
H	10.335	-0.895008	0.862005
H	11.9243	0.381155	1.95198
H	10.5492	1.39564	2.53331
H	11.3369	1.76603	0.954065
