44
  This energy is -6.1757 and Call times are: 34895
C	0.521743	-2.96151	-1.75212
C	-0.288127	-2.09894	-0.86261
O	-1.44539	-2.38368	-0.586785
H	-0.0957502	-3.82127	-2.09182
H	1.40787	-3.34878	-1.20665
H	0.857233	-2.38662	-2.64097
N	0.312927	-1.00521	-0.38841
C	-0.359581	-0.0476011	0.453773
C	0.278583	1.31027	0.22907
O	1.30715	1.42053	-0.43547
H	1.24215	-0.76545	-0.654725
H	-1.39626	0.0290141	0.150365
C	-0.259002	-0.453825	1.94041
H	0.804193	-0.522293	2.255
H	-0.784907	0.268378	2.59796
H	-0.725006	-1.45368	2.08
N	-0.326345	2.38353	0.77515
C	0.205233	3.71631	0.60994
H	-1.16017	2.27474	1.30617
H	-0.43351	4.46204	1.13255
H	0.251771	3.98965	-0.46913
H	1.23584	3.783	1.02772
C	7.30164	-0.508159	2.83648
C	6.29249	0.255477	2.06861
O	5.62965	1.1376	2.59673
H	7.30773	-0.152853	3.88984
H	8.31094	-0.355285	2.3998
H	7.05365	-1.59047	2.82373
N	6.15052	-0.0746808	0.782828
C	5.17953	0.549409	-0.0810256
C	4.78599	-0.451416	-1.15109
O	5.39454	-1.51252	-1.27534
H	6.66839	-0.822652	0.377602
H	4.28834	0.778353	0.489919
C	5.75523	1.83054	-0.723302
H	6.6635	1.59459	-1.31778
H	5.01231	2.3279	-1.37999
H	6.0437	2.54516	0.0782211
N	3.74577	-0.137792	-1.94834
C	3.29612	-1.03086	-2.99065
H	3.26323	0.723707	-1.8298
H	2.42989	-0.594896	-3.53546
H	2.98312	-2.00999	-2.56098
H	4.11245	-1.22104	-3.72453
