44
  This energy is -2.8105 and Call times are: 41727
C	3.03827	1.42983	0.914995
C	1.56039	1.45013	0.833652
O	0.90435	2.28419	1.44222
H	3.37991	2.24101	1.59407
H	3.47919	1.59356	-0.0907479
H	3.38606	0.454699	1.31656
N	0.995281	0.513856	0.0678716
C	-0.433006	0.379818	-0.0756164
C	-0.744551	-1.07611	-0.366765
O	0.156847	-1.87751	-0.605419
H	1.54039	-0.183515	-0.388632
H	-0.911415	0.630623	0.862921
C	-0.960667	1.28401	-1.21107
H	-0.477933	1.02009	-2.17613
H	-2.06117	1.20019	-1.32235
H	-0.714597	2.34362	-0.980806
N	-2.03753	-1.45528	-0.34526
C	-2.42915	-2.82108	-0.604857
H	-2.75245	-0.793221	-0.146131
H	-3.53403	-2.93232	-0.540867
H	-1.96397	-3.5107	0.136296
H	-2.1031	-3.13685	-1.62227
C	6.2218	1.82426	-2.9397
C	5.75652	0.811746	-1.96528
O	4.6242	0.352327	-2.02174
H	5.39596	2.06203	-3.6449
H	7.08528	1.43161	-3.51674
H	6.52228	2.75377	-2.41168
N	6.63556	0.437742	-1.03264
C	6.31487	-0.506057	0.00896783
C	7.17285	-0.185381	1.21835
O	8.0836	0.637251	1.14412
H	7.53992	0.85083	-0.974751
H	5.28094	-0.375633	0.303256
C	6.56484	-1.95506	-0.463402
H	7.62782	-2.09223	-0.755454
H	6.30845	-2.69199	0.325091
H	5.93274	-2.16502	-1.35374
N	6.89409	-0.82644	2.37046
C	7.65342	-0.581719	3.57449
H	6.1506	-1.48566	2.41192
H	7.27143	-1.20395	4.41362
H	7.58307	0.489561	3.8723
H	8.72887	-0.826489	3.41752
