44
  This energy is -4.6132 and Call times are: 35903
C	-0.0415408	3.18799	1.3956
C	0.0865601	1.7176	1.50832
O	0.478591	1.19376	2.5419
H	0.281565	3.659	2.34934
H	-1.09801	3.46602	1.19731
H	0.600729	3.56609	0.572419
N	-0.245176	1.00838	0.42696
C	-0.132184	-0.427781	0.370141
C	0.112339	-0.826252	-1.07311
O	0.0206285	0.000180667	-1.97883
H	-0.523539	1.45143	-0.420441
H	0.732295	-0.741006	0.942152
C	-1.41204	-1.10362	0.90907
H	-2.29769	-0.790798	0.315935
H	-1.33198	-2.20972	0.883457
H	-1.57559	-0.791589	1.9637
N	0.439846	-2.10983	-1.3205
C	0.696053	-2.57947	-2.66214
H	0.51321	-2.7629	-0.574053
H	0.94954	-3.6625	-2.65798
H	1.5465	-2.02223	-3.11765
H	-0.199376	-2.43122	-3.30818
C	7.45845	0.563143	-2.786
C	6.3258	0.920161	-1.90236
O	5.75483	1.99676	-2.00882
H	7.66409	1.40778	-3.47892
H	7.2084	-0.338877	-3.38314
H	8.36821	0.365098	-2.18087
N	5.97218	0.00867429	-0.993223
C	4.91748	0.229452	-0.0353948
C	5.22734	-0.586144	1.20572
O	6.1454	-1.40398	1.20889
H	6.47289	-0.846214	-0.891691
H	4.91274	1.27217	0.256721
C	3.54685	-0.17516	-0.620972
H	3.54782	-1.24749	-0.911076
H	2.72473	0.00311438	0.102117
H	3.34458	0.428522	-1.53256
N	4.46805	-0.374418	2.29873
C	4.69259	-1.10006	3.52722
H	3.73239	0.294495	2.27807
H	3.96663	-0.784511	4.30866
H	5.72231	-0.914858	3.9102
H	4.57719	-2.19591	3.36315
