44
  This energy is -1.3999 and Call times are: 38685
C	2.18166	-0.67143	2.62721
C	1.07584	-1.05509	1.72106
O	0.66891	-2.20764	1.67161
H	2.53398	-1.57057	3.17792
H	1.83062	0.0845821	3.36067
H	3.02815	-0.25361	2.04243
N	0.558719	-0.0800509	0.969879
C	-0.492487	-0.307949	0.00988486
C	-0.353537	0.720474	-1.09673
O	0.437773	1.65563	-0.991683
H	0.927957	0.844646	0.991457
H	-0.360771	-1.28458	-0.438982
C	-1.88136	-0.201342	0.676891
H	-2.02112	0.803971	1.12839
H	-2.69891	-0.388543	-0.0491187
H	-1.95773	-0.957522	1.4885
N	-1.11949	0.565065	-2.19454
C	-1.05158	1.4911	-3.3009
H	-1.7509	-0.200259	-2.26291
H	-1.75689	1.19254	-4.1075
H	-0.0227143	1.51864	-3.72747
H	-1.31498	2.52113	-2.96805
C	3.43145	2.65678	0.989811
C	4.2166	1.92626	-0.0305031
O	4.14426	2.22101	-1.21554
H	2.81417	3.43493	0.490507
H	4.11182	3.14909	1.71609
H	2.75944	1.95646	1.52927
N	4.99583	0.938227	0.415564
C	5.78548	0.109953	-0.461341
C	5.94929	-1.24924	0.192359
O	5.59023	-1.43717	1.35316
H	5.0129	0.683411	1.37818
H	5.24852	-0.0411159	-1.38949
C	7.16455	0.750557	-0.731597
H	7.72014	0.896065	0.219292
H	7.77678	0.128978	-1.41668
H	7.02021	1.74735	-1.20266
N	6.4918	-2.2371	-0.546453
C	6.68167	-3.56482	-0.0104829
H	6.77241	-2.06683	-1.48525
H	7.14061	-4.23409	-0.771205
H	5.70716	-4.00545	0.301694
H	7.34936	-3.5371	0.880899
