44
  This energy is -4.0959 and Call times are: 32515
C	-2.39611	-0.781344	2.40018
C	-1.5243	0.185383	1.69553
O	-1.66502	1.39119	1.84599
H	-3.13861	-0.226651	3.01409
H	-1.78903	-1.42806	3.06798
H	-2.9379	-1.41399	1.6658
N	-0.589593	-0.332308	0.895092
C	0.304931	0.481929	0.110615
C	0.695092	-0.302507	-1.12793
O	0.39254	-1.48861	-1.24344
H	-0.513994	-1.31489	0.751263
H	-0.218682	1.36971	-0.221501
C	1.55925	0.866066	0.925703
H	2.10256	-0.0442175	1.25771
H	2.24941	1.50466	0.337147
H	1.24937	1.4322	1.83114
N	1.37365	0.349133	-2.09279
C	1.78231	-0.314097	-3.30906
H	1.60577	1.30993	-1.98295
H	2.3273	0.389272	-3.9765
H	0.89633	-0.704774	-3.86014
H	2.45387	-1.1734	-3.0816
C	5.31597	2.09209	2.77526
C	5.13135	1.82325	1.33138
O	4.51315	2.6002	0.616817
H	4.80614	3.04391	3.03975
H	6.3967	2.18543	3.01202
H	4.87564	1.26929	3.37707
N	5.67142	0.695326	0.863929
C	5.53894	0.276711	-0.509302
C	5.602	-1.23852	-0.550053
O	5.9067	-1.88333	0.451487
H	6.13656	0.0527771	1.46612
H	4.56417	0.569057	-0.879415
C	6.65583	0.888829	-1.38286
H	7.65581	0.580646	-1.00989
H	6.55667	0.585073	-2.44513
H	6.59547	1.99792	-1.33171
N	5.30488	-1.84557	-1.71591
C	5.33291	-3.2836	-1.848
H	5.05659	-1.30702	-2.51428
H	5.05859	-3.58899	-2.88179
H	4.61435	-3.75712	-1.14038
H	6.3499	-3.67918	-1.62354
