44
  This energy is -2.5199 and Call times are: 40328
C	3.38575	-0.783037	-0.190343
C	2.04208	-0.653002	-0.797612
O	1.88479	-0.727372	-2.00845
H	4.13972	-0.92787	-0.994352
H	3.41451	-1.65897	0.491318
H	3.63918	0.136309	0.378577
N	1.02695	-0.450061	0.045421
C	-0.331481	-0.261339	-0.39912
C	-1.04714	0.603813	0.621126
O	-0.517016	0.879494	1.69569
H	1.17623	-0.350962	1.02509
H	-0.328535	0.28086	-1.33648
C	-1.05269	-1.61749	-0.560187
H	-1.06524	-2.16952	0.403735
H	-2.09535	-1.48629	-0.915395
H	-0.507326	-2.23698	-1.30528
N	-2.27375	1.06175	0.302164
C	-3.02819	1.89628	1.20801
H	-2.68443	0.831326	-0.573807
H	-4.01109	2.16949	0.764738
H	-2.47194	2.83511	1.43265
H	-3.21255	1.36562	2.17007
C	6.28127	-2.69612	2.13883
C	6.48718	-1.25172	1.88893
O	6.31924	-0.425692	2.77543
H	5.95644	-2.84405	3.19166
H	7.2281	-3.25191	1.97338
H	5.49634	-3.0936	1.46136
N	6.85993	-0.910473	0.65321
C	7.05683	0.458771	0.247062
C	6.76761	0.557602	-1.23892
O	6.59031	-0.454148	-1.91467
H	6.95285	-1.59042	-0.06852
H	6.33997	1.0895	0.757855
C	8.49858	0.922217	0.550082
H	9.23407	0.282007	0.0178904
H	8.65873	1.97936	0.254564
H	8.69069	0.833854	1.6417
N	6.70471	1.78881	-1.78315
C	6.42934	1.98113	-3.18792
H	6.8469	2.59566	-1.21937
H	6.41886	3.06399	-3.44196
H	5.43848	1.54848	-3.45677
H	7.20503	1.48175	-3.81248
