44
  This energy is -7.2343 and Call times are: 41916
C	-2.14564	-1.34175	-2.38927
C	-0.820562	-1.24167	-1.73713
O	0.0655758	-2.0502	-1.9768
H	-2.16002	-2.23017	-3.05739
H	-2.3434	-0.432893	-2.99558
H	-2.94155	-1.45525	-1.62328
N	-0.655115	-0.230286	-0.881494
C	0.563548	-0.0276027	-0.138298
C	0.213996	0.672233	1.16155
O	-0.917588	1.11232	1.35534
H	-1.39914	0.395654	-0.665872
H	0.98997	-0.989487	0.117776
C	1.57235	0.812823	-0.95147
H	1.13927	1.80379	-1.20539
H	2.52023	0.964145	-0.395463
H	1.80751	0.285522	-1.90173
N	1.18276	0.784102	2.09161
C	0.941083	1.42953	3.36094
H	2.09105	0.418087	1.91813
H	1.85987	1.42077	3.98781
H	0.130859	0.907004	3.91931
H	0.629172	2.48839	3.2104
C	5.74547	1.0973	3.29921
C	5.19113	1.00277	1.92994
O	4.04586	1.35595	1.68491
H	4.96691	1.49869	3.98374
H	6.62113	1.77981	3.3113
H	6.05512	0.0926791	3.65689
N	6.00573	0.513007	0.992412
C	5.59495	0.320854	-0.376125
C	6.4019	-0.825697	-0.955627
O	7.34715	-1.3077	-0.334438
H	6.9216	0.191562	1.21538
H	4.55329	0.0257724	-0.398352
C	5.81115	1.60734	-1.20284
H	6.88142	1.90461	-1.18905
H	5.4857	1.47645	-2.25521
H	5.21766	2.43472	-0.756137
N	6.03931	-1.29702	-2.16492
C	6.74507	-2.38949	-2.79308
H	5.26912	-0.896731	-2.65035
H	6.29624	-2.6309	-3.78177
H	6.70209	-3.3027	-2.1563
H	7.8166	-2.12736	-2.94883
