44
  This energy is 0.1191 and Call times are: 37799
C	2.55373	-0.576811	2.29313
C	1.12272	-0.550869	1.91539
O	0.269593	-1.05568	2.63216
H	2.66904	-1.11588	3.25852
H	2.9371	0.458437	2.41158
H	3.14551	-1.10312	1.51474
N	0.824838	0.0468948	0.759396
C	-0.517634	0.113572	0.237972
C	-0.434618	0.175895	-1.27556
O	0.646207	0.329385	-1.84122
H	1.5348	0.417114	0.167142
H	-1.04622	-0.795957	0.494852
C	-1.26346	1.34789	0.790637
H	-0.727223	2.28189	0.518354
H	-2.30296	1.40284	0.40732
H	-1.30525	1.28513	1.89999
N	-1.58221	0.0488248	-1.97048
C	-1.6002	0.0900557	-3.41414
H	-2.4464	-0.0787692	-1.49513
H	-2.6369	-0.0324365	-3.79817
H	-0.970707	-0.725509	-3.83825
H	-1.20141	1.0621	-3.78459
C	3.77252	-0.725192	2.22339
C	4.3453	0.0509512	1.10059
O	3.64904	0.798368	0.427535
H	2.68343	-0.514807	2.29743
H	4.26034	-0.43475	3.17754
H	3.91754	-1.81243	2.05029
N	5.64976	-0.114373	0.869375
C	6.33979	0.539849	-0.21432
C	7.5058	-0.336987	-0.630456
O	7.82426	-1.31962	0.0364104
H	6.19468	-0.757369	1.39992
H	5.67509	0.61804	-1.0656
C	6.83888	1.93747	0.213253
H	7.52913	1.85688	1.07992
H	7.35985	2.45706	-0.616885
H	5.96992	2.55914	0.521104
N	8.16822	-0.00389916	-1.75574
C	9.28738	-0.782515	-2.23261
H	7.89312	0.792458	-2.28414
H	9.69696	-0.348434	-3.17126
H	8.97619	-1.83229	-2.43858
H	10.1017	-0.806612	-1.4727
