44
  This energy is -2.4778 and Call times are: 39989
C	2.60623	-1.55819	1.70067
C	1.63056	-0.456957	1.5379
O	1.4455	0.361496	2.42801
H	3.06813	-1.4935	2.70981
H	3.40523	-1.47804	0.93392
H	2.09591	-2.53941	1.60128
N	0.972495	-0.413876	0.377094
C	-0.0383229	0.57284	0.0886527
C	-1.02367	-0.0325357	-0.893263
O	-0.794783	-1.11565	-1.42822
H	1.10431	-1.11107	-0.321766
H	-0.584883	0.799968	0.995469
C	0.593132	1.85419	-0.498404
H	1.14513	1.62348	-1.43441
H	-0.173599	2.62691	-0.71184
H	1.31639	2.27547	0.233564
N	-2.1549	0.654256	-1.14757
C	-3.15315	0.153962	-2.06375
H	-2.32423	1.52703	-0.701865
H	-4.00843	0.861206	-2.13803
H	-3.5424	-0.831907	-1.72051
H	-2.72022	0.0188776	-3.08134
C	6.7058	2.6262	2.20201
C	6.29938	2.1027	0.878409
O	5.78818	2.83136	0.0392735
H	6.45226	3.70686	2.2632
H	7.80065	2.50545	2.34157
H	6.16856	2.08479	3.00906
N	6.51978	0.804087	0.660657
C	6.13915	0.141704	-0.562015
C	5.86216	-1.3156	-0.244011
O	6.13229	-1.78136	0.86134
H	6.89919	0.215033	1.36841
H	5.21621	0.572752	-0.929434
C	7.25359	0.261726	-1.6245
H	8.1978	-0.189761	-1.25212
H	6.96678	-0.232485	-2.5753
H	7.44507	1.33646	-1.83571
N	5.30483	-2.07148	-1.21046
C	5.00023	-3.46716	-0.997202
H	5.08967	-1.67569	-2.0971
H	4.54675	-3.91451	-1.90905
H	4.28271	-3.58814	-0.153513
H	5.92437	-4.03768	-0.748952
