44
  This energy is 0.4286 and Call times are: 36257
C	1.65075	0.87665	2.93585
C	0.414832	0.62588	2.16076
O	-0.673912	0.548279	2.71305
H	1.39821	0.95093	4.01593
H	2.12014	1.82869	2.61023
H	2.36903	0.0422246	2.79131
N	0.5597	0.489182	0.84064
C	-0.54421	0.199233	-0.0401953
C	-0.00678228	-0.562252	-1.23722
O	1.20376	-0.687248	-1.41239
H	1.45761	0.514147	0.410529
H	-1.24519	-0.451338	0.467763
C	-1.24342	1.49912	-0.494781
H	-0.527261	2.16229	-1.02522
H	-2.10382	1.28843	-1.16249
H	-1.62168	2.04381	0.397729
N	-0.901615	-1.09939	-2.08974
C	-0.483307	-1.84567	-3.25346
H	-1.87706	-0.991073	-1.92897
H	-1.36527	-2.20567	-3.82772
H	0.125367	-2.72987	-2.95515
H	0.137448	-1.21015	-3.92572
C	4.9304	2.99465	-1.06281
C	4.97434	1.51563	-1.02134
O	4.04722	0.842539	-1.45007
H	3.96382	3.32114	-1.50437
H	5.76103	3.38482	-1.68777
H	5.01455	3.40892	-0.0359813
N	6.07164	0.969111	-0.492518
C	6.24111	-0.454937	-0.344455
C	7.15135	-0.701911	0.843835
O	7.73663	0.229454	1.39312
H	6.80003	1.53062	-0.110398
H	5.28373	-0.906858	-0.116838
C	6.84198	-1.0751	-1.62492
H	7.82901	-0.619259	-1.853
H	6.96446	-2.17338	-1.52852
H	6.16336	-0.875317	-2.48277
N	7.2854	-1.97141	1.27559
C	8.12589	-2.30168	2.40282
H	6.80052	-2.71107	0.820751
H	8.10408	-3.39571	2.60245
H	7.77996	-1.77122	3.31946
H	9.1809	-2.00163	2.20773
