44
  This energy is -1.7902 and Call times are: 40871
C	-2.43328	2.33146	0.869551
C	-1.19693	1.56957	1.15607
O	-0.480581	1.85888	2.10452
H	-2.54266	3.14818	1.6158
H	-3.31805	1.66391	0.935098
H	-2.38131	2.77732	-0.146129
N	-0.914442	0.562828	0.325976
C	0.275352	-0.241767	0.450781
C	0.649899	-0.749426	-0.928911
O	-0.109003	-0.595738	-1.88398
H	-1.48566	0.365421	-0.465606
H	1.09157	0.379068	0.798613
C	0.0433933	-1.4233	1.41795
H	-0.786932	-2.06642	1.05603
H	0.956547	-2.04248	1.53324
H	-0.237224	-1.0286	2.41886
N	1.84166	-1.36313	-1.06711
C	2.28537	-1.87395	-2.34319
H	2.44381	-1.47443	-0.283467
H	3.28985	-2.34279	-2.25136
H	2.34892	-1.0534	-3.09414
H	1.57443	-2.64027	-2.72851
C	7.83347	-3.34297	0.492602
C	7.29377	-2.2432	-0.338296
O	7.07004	-2.4017	-1.53045
H	7.99113	-4.24075	-0.143786
H	7.1177	-3.59759	1.30228
H	8.80519	-3.04383	0.939083
N	7.07151	-1.08323	0.284155
C	6.58874	0.0902713	-0.400237
C	7.10314	1.31264	0.336491
O	7.66562	1.20201	1.42419
H	7.2971	-0.957451	1.246
H	7.0046	0.11732	-1.39971
C	5.04534	0.100963	-0.455363
H	4.61827	0.0838677	0.569999
H	4.66168	0.992731	-0.992089
H	4.69097	-0.806292	-0.991694
N	6.92824	2.51437	-0.247702
C	7.38966	3.73251	0.376302
H	6.47443	2.58331	-1.12996
H	7.15298	4.61408	-0.259351
H	8.49211	3.69992	0.533868
H	6.90319	3.87462	1.36842
