44
  This energy is -1.5122 and Call times are: 39482
C	1.30229	3.02994	-1.11183
C	1.28872	1.55007	-1.08128
O	1.9485	0.894469	-1.87581
H	1.95891	3.3742	-1.94021
H	1.69452	3.42895	-0.152824
H	0.276022	3.41863	-1.28152
N	0.521064	0.982787	-0.147857
C	0.372024	-0.445648	-0.0216781
C	-0.996487	-0.728055	0.569065
O	-1.69584	0.185373	1.00296
H	-0.0420065	1.52946	0.465306
H	0.397514	-0.895823	-1.00622
C	1.48141	-1.03909	0.87405
H	1.449	-0.585218	1.88745
H	1.38572	-2.14027	0.967759
H	2.4741	-0.813574	0.426773
N	-1.41569	-2.0086	0.591536
C	-2.70584	-2.37228	1.12953
H	-0.837339	-2.73341	0.232056
H	-2.8663	-3.47063	1.05804
H	-3.52283	-1.86159	0.570058
H	-2.78294	-2.07544	2.20055
C	5.37154	3.47255	-0.0444691
C	5.99214	2.21325	0.424772
O	7.04417	2.22023	1.04896
H	6.01508	4.33048	0.24822
H	4.3699	3.60074	0.417074
H	5.26999	3.4603	-1.15019
N	5.34343	1.08502	0.127012
C	5.84493	-0.220146	0.478559
C	5.32941	-1.21593	-0.54331
O	4.48391	-0.886374	-1.3729
H	4.50935	1.09269	-0.417135
H	6.92564	-0.217931	0.410084
C	5.39317	-0.620217	1.90021
H	4.28445	-0.632883	1.96808
H	5.78452	-1.6175	2.18796
H	5.77485	0.126507	2.63032
N	5.83703	-2.46386	-0.511614
C	5.41071	-3.47732	-1.44827
H	6.52343	-2.71049	0.164489
H	5.94344	-4.43552	-1.2604
H	5.62143	-3.15853	-2.49481
H	4.31567	-3.66103	-1.3572
