44
  This energy is -2.0506 and Call times are: 26039
C	1.06896	2.76943	-1.82036
C	0.766089	1.32501	-1.7058
O	0.788752	0.594231	-2.68659
H	1.29002	3.0153	-2.88175
H	1.95393	3.02509	-1.20045
H	0.197601	3.37102	-1.48604
N	0.465209	0.877238	-0.4846
C	0.148221	-0.502305	-0.214028
C	-0.624211	-0.555817	1.08971
O	-0.659841	0.417906	1.83966
H	0.421619	1.48811	0.301449
H	-0.501011	-0.874162	-0.99652
C	1.42689	-1.36325	-0.109683
H	2.09093	-0.978576	0.693551
H	1.18644	-2.4261	0.0984538
H	1.98429	-1.31474	-1.07046
N	-1.28217	-1.69544	1.38012
C	-2.05374	-1.83436	2.59321
H	-1.24693	-2.46982	0.756964
H	-2.51722	-2.84386	2.65103
H	-2.86621	-1.07299	2.63141
H	-1.40646	-1.6938	3.489
C	5.15438	-3.41346	-0.478286
C	5.47562	-2.25289	0.382579
O	5.58977	-2.37649	1.59427
H	5.04496	-4.32096	0.154437
H	5.97039	-3.58313	-1.21188
H	4.20156	-3.23612	-1.02016
N	5.62485	-1.07915	-0.235818
C	5.93878	0.139752	0.466008
C	5.52573	1.30358	-0.413834
O	5.25822	1.1299	-1.60131
H	5.50061	-0.985967	-1.2201
H	5.34785	0.186333	1.37194
C	7.44644	0.228927	0.791767
H	8.04971	0.180166	-0.139791
H	7.69162	1.1662	1.33231
H	7.73663	-0.629724	1.4357
N	5.443	2.52099	0.158069
C	5.04645	3.68581	-0.598325
H	5.65663	2.6398	1.12217
H	5.04066	4.59111	0.0479271
H	4.02462	3.55051	-1.02117
H	5.74942	3.86324	-1.44421
