44
  This energy is -5.493 and Call times are: 2228
C	0.370148	2.38251	-2.51252
C	-0.285919	1.18513	-1.94062
O	-1.27332	0.69212	-2.46832
H	-0.179543	2.70222	-3.42438
H	1.41962	2.14828	-2.78921
H	0.359005	3.2136	-1.77624
N	0.255406	0.687698	-0.826222
C	-0.269739	-0.473222	-0.152935
C	0.221131	-0.441774	1.28139
O	1.1292	0.315574	1.61855
H	1.04235	1.11566	-0.389757
H	-1.35027	-0.40925	-0.132287
C	0.187386	-1.77813	-0.842406
H	1.29638	-1.84017	-0.862437
H	-0.215313	-2.674	-0.32662
H	-0.177454	-1.7884	-1.89261
N	-0.387213	-1.25384	2.16822
C	0.00466927	-1.28353	3.55809
H	-1.12491	-1.85419	1.87734
H	-0.611851	-2.01553	4.12495
H	-0.12549	-0.280151	4.02449
H	1.07535	-1.57465	3.65846
C	4.92761	-1.63375	-3.05772
C	4.8251	-1.64376	-1.58104
O	4.72158	-2.69336	-0.961264
H	4.88653	-2.67836	-3.43583
H	5.88916	-1.17563	-3.37136
H	4.08449	-1.05941	-3.49615
N	4.84627	-0.453331	-0.977059
C	4.75596	-0.30075	0.453113
C	4.29187	1.11352	0.742397
O	4.30538	1.97195	-0.137806
H	4.90167	0.396107	-1.49506
H	4.0017	-0.978501	0.832346
C	6.11799	-0.562655	1.13386
H	6.88957	0.133912	0.741991
H	6.052	-0.446165	2.23516
H	6.44746	-1.60139	0.913376
N	3.84737	1.38357	1.98558
C	3.37458	2.69883	2.34991
H	3.83761	0.673525	2.68197
H	3.05394	2.72044	3.41479
H	2.50678	2.99378	1.71654
H	4.1779	3.45798	2.21007
