44
  This energy is -0.279 and Call times are: 6026
C	2.92939	-0.629924	-1.77426
C	2.20362	-0.0368975	-0.62849
O	2.80572	0.478378	0.303421
H	4.02375	-0.520566	-1.61215
H	2.65152	-0.108579	-2.71437
H	2.68556	-1.70942	-1.86462
N	0.870952	-0.103767	-0.671921
C	0.0273058	0.428881	0.367971
C	-1.3222	-0.255471	0.269343
O	-1.62509	-0.907195	-0.728328
H	0.393016	-0.552015	-1.42264
H	0.454073	0.177409	1.33063
C	-0.141062	1.95827	0.227527
H	-0.578479	2.21274	-0.761426
H	-0.789981	2.37171	1.02675
H	0.854572	2.44772	0.300305
N	-2.15978	-0.140066	1.3187
C	-3.46083	-0.767328	1.31959
H	-1.89347	0.385695	2.11988
H	-3.99927	-0.554652	2.26938
H	-3.36449	-1.87195	1.21111
H	-4.07969	-0.389993	0.473543
C	7.44729	3.46172	0.232971
C	6.7641	2.24417	-0.259
O	5.69658	2.31389	-0.852325
H	6.83635	4.35451	-0.0230256
H	8.44487	3.56001	-0.244523
H	7.56876	3.41349	1.33563
N	7.37344	1.08199	-0.0132331
C	6.83273	-0.187395	-0.429313
C	7.46186	-1.26621	0.430679
O	8.45144	-1.02389	1.11904
H	8.22835	1.03616	0.496632
H	5.76694	-0.195145	-0.239323
C	7.12378	-0.46074	-1.92186
H	8.21802	-0.45141	-2.11334
H	6.70869	-1.4373	-2.2456
H	6.65868	0.337038	-2.54103
N	6.88491	-2.48404	0.427207
C	7.40699	-3.56979	1.22393
H	6.08042	-2.65832	-0.131064
H	6.79663	-4.4891	1.08397
H	7.39667	-3.30358	2.30571
H	8.45814	-3.79934	0.934872
