44
  This energy is 0.1125 and Call times are: 28006
C	3.38146	-0.0836059	0.827585
C	2.14899	0.649592	0.460646
O	2.11228	1.87227	0.475268
H	4.17622	0.645588	1.09681
H	3.73151	-0.696515	-0.0295193
H	3.18902	-0.743702	1.69947
N	1.0938	-0.0956063	0.12357
C	-0.174589	0.472495	-0.257594
C	-1.23862	-0.589932	-0.0618441
O	-0.927479	-1.76688	0.110795
H	1.12763	-1.09129	0.143673
H	-0.405392	1.29553	0.406799
C	-0.159988	0.945104	-1.72849
H	0.0777644	0.0984238	-2.40726
H	-1.13506	1.38322	-2.02525
H	0.624333	1.72225	-1.85901
N	-2.52631	-0.192596	-0.0626341
C	-3.60698	-1.13168	0.12827
H	-2.75739	0.765439	-0.196793
H	-4.59001	-0.612383	0.093287
H	-3.51482	-1.64149	1.1146
H	-3.59429	-1.91239	-0.666411
C	3.28969	-2.27294	-2.63133
C	2.74269	-1.04733	-2.00692
O	2.01679	-0.287969	-2.63377
H	2.93761	-2.33745	-3.68382
H	2.94102	-3.17147	-2.08007
H	4.39965	-2.24328	-2.62484
N	3.09059	-0.822446	-0.737765
C	2.63817	0.326772	0.00483099
C	3.59574	0.540988	1.16086
O	4.39882	-0.33292	1.4821
H	3.7061	-1.43342	-0.247066
H	2.691	1.20048	-0.63228
C	1.2015	0.123551	0.535673
H	1.15079	-0.773978	1.18835
H	0.849954	1.00664	1.10782
H	0.510046	-0.0334786	-0.320701
N	3.54667	1.72529	1.80196
C	4.42803	2.0236	2.90669
H	2.89462	2.42237	1.52243
H	4.23254	3.04516	3.30094
H	5.49332	1.97002	2.58493
H	4.28054	1.29371	3.73536
