44
  This energy is -2.7478 and Call times are: 31306
C	-3.24057	1.14246	-0.56536
C	-2.28626	0.159031	-0.00557087
O	-2.66715	-0.750764	0.718092
H	-4.26678	0.899805	-0.213419
H	-3.22273	1.10406	-1.67488
H	-2.97738	2.16676	-0.226981
N	-1.00225	0.327812	-0.329907
C	0.0433562	-0.547274	0.136742
C	1.35821	0.200675	0.0320138
O	1.43935	1.24143	-0.617669
H	-0.700799	1.08998	-0.896613
H	-0.125511	-0.770847	1.18248
C	0.103366	-1.84657	-0.697124
H	0.276043	-1.61349	-1.76949
H	0.907303	-2.52274	-0.340387
H	-0.866	-2.38454	-0.613057
N	2.41908	-0.304655	0.691705
C	3.70852	0.345352	0.659596
H	2.33145	-1.14413	1.21785
H	4.45096	-0.223919	1.26123
H	3.63878	1.37717	1.07401
H	4.08613	0.418043	-0.386016
C	6.45629	2.99847	1.20897
C	7.56386	2.18888	0.653058
O	8.6245	2.70548	0.329561
H	6.76768	4.06469	1.25459
H	6.20689	2.65278	2.23421
H	5.55792	2.91379	0.561902
N	7.33447	0.880126	0.522987
C	8.31456	-0.0368436	-0.00181756
C	7.5829	-1.27267	-0.488296
O	6.41081	-1.47314	-0.175499
H	6.4559	0.475785	0.762918
H	8.79847	0.417027	-0.85733
C	9.35491	-0.423963	1.07285
H	8.85498	-0.888673	1.94934
H	10.1112	-1.12982	0.672074
H	9.8831	0.490031	1.42183
N	8.25593	-2.12332	-1.28793
C	7.6373	-3.31994	-1.80906
H	9.20159	-1.93984	-1.5355
H	8.35275	-3.88819	-2.44347
H	6.74679	-3.06431	-2.42783
H	7.302	-3.98268	-0.978676
