44
  This energy is -1.7982 and Call times are: 21448
C	1.46862	0.247461	-3.1477
C	1.55892	0.132468	-1.67467
O	2.63435	-0.0429965	-1.11864
H	2.48436	0.142769	-3.58723
H	1.05561	1.23886	-3.42944
H	0.816452	-0.553616	-3.55501
N	0.409932	0.224758	-1.00112
C	0.336303	0.132715	0.435172
C	-1.0854	-0.242365	0.805727
O	-1.9915	-0.166828	-0.0219914
H	-0.463199	0.33857	-1.46762
H	0.9853	-0.666399	0.770273
C	0.72485	1.46961	1.10515
H	0.0574786	2.28732	0.758623
H	0.669381	1.40221	2.21111
H	1.76784	1.7338	0.824937
N	-1.30983	-0.678828	2.06077
C	-2.62904	-1.06953	2.50034
H	-0.562123	-0.739648	2.71381
H	-2.6085	-1.39683	3.56322
H	-3.01593	-1.91151	1.88177
H	-3.34188	-0.218216	2.40924
C	5.31399	-3.22759	-0.425522
C	5.97875	-2.00982	-0.941598
O	6.46797	-1.98301	-2.06251
H	5.36048	-4.02645	-1.19722
H	4.24946	-3.01332	-0.19381
H	5.82721	-3.58419	0.492293
N	6.01594	-0.960082	-0.117563
C	6.62751	0.294391	-0.47688
C	6.95185	1.03837	0.803957
O	6.47245	0.679637	1.87788
H	5.63952	-1.00382	0.804031
H	7.5612	0.0969934	-0.988071
C	5.68898	1.14459	-1.36201
H	4.73184	1.34465	-0.834778
H	6.15683	2.11116	-1.64064
H	5.45804	0.58811	-2.29643
N	7.79631	2.08535	0.721997
C	8.17223	2.84622	1.89073
H	8.17934	2.35563	-0.155194
H	8.87197	3.66658	1.61757
H	8.67415	2.19251	2.64039
H	7.27418	3.29693	2.37193
