44
  This energy is 0.1142 and Call times are: 14751
C	-3.37046	0.0444732	0.874175
C	-2.21575	-0.559588	0.17205
O	-2.31042	-1.64574	-0.382754
H	-4.24441	-0.638447	0.798754
H	-3.634	1.01797	0.409779
H	-3.12769	0.200445	1.94641
N	-1.07974	0.141559	0.186903
C	0.128645	-0.314446	-0.452395
C	1.29569	0.417634	0.181081
O	1.10856	1.40549	0.888856
H	-1.00727	1.01163	0.667176
H	0.255405	-1.37086	-0.252431
C	0.0958731	-0.0462682	-1.97362
H	-0.0349486	1.03835	-2.17514
H	1.02475	-0.396307	-2.46903
H	-0.764044	-0.587022	-2.42559
N	2.53317	-0.0666452	-0.0427997
C	3.70367	0.557445	0.52872
H	2.66331	-0.871386	-0.612614
H	4.62602	0.013712	0.227269
H	3.64495	0.557983	1.64128
H	3.79205	1.61418	0.187143
C	1.12614	-1.54976	-3.08218
C	1.89951	-1.33533	-1.83834
O	2.86655	-2.03347	-1.56647
H	1.56814	-2.39866	-3.64774
H	1.16082	-0.63882	-3.71607
H	0.0697736	-1.79082	-2.83946
N	1.47855	-0.351093	-1.04057
C	2.1276	-0.021351	0.203145
C	1.13282	0.735564	1.06147
O	0.0971038	1.18541	0.574878
H	0.671907	0.191647	-1.25897
H	2.37977	-0.937401	0.722122
C	3.38936	0.838859	-0.0316155
H	3.12712	1.7775	-0.56481
H	3.89168	1.09444	0.923967
H	4.10957	0.273717	-0.662534
N	1.41638	0.874947	2.37149
C	0.522598	1.56998	3.2683
H	2.25621	0.497572	2.74766
H	0.932273	1.57972	4.30238
H	-0.474875	1.07423	3.29116
H	0.376712	2.62421	2.93893
