44
  This energy is -4.3618 and Call times are: 16441
C	-0.410943	-2.94105	-1.81864
C	-0.747196	-1.52733	-1.53664
O	-1.48965	-0.894392	-2.27464
H	-0.922233	-3.26095	-2.75251
H	-0.750184	-3.58896	-0.983208
H	0.685517	-3.0545	-1.95225
N	-0.193173	-0.992155	-0.446224
C	-0.425181	0.371046	-0.0404105
C	0.711099	0.784609	0.874505
O	1.47329	-0.0552868	1.34935
H	0.433113	-1.50943	0.130952
H	-0.392381	1.00884	-0.914605
C	-1.77746	0.517387	0.692415
H	-1.80793	-0.138773	1.58832
H	-1.95936	1.56584	1.00615
H	-2.60144	0.210284	0.0120449
N	0.863985	2.09963	1.1262
C	1.92488	2.58797	1.97602
H	0.241199	2.76432	0.726762
H	1.88199	3.6962	2.06109
H	2.92045	2.30648	1.56267
H	1.84048	2.1542	2.99871
C	5.77618	2.46402	-2.45449
C	5.23081	1.76952	-1.26645
O	4.24855	2.19972	-0.67773
H	5.16471	3.36847	-2.66408
H	5.74125	1.79377	-3.33901
H	6.82567	2.77501	-2.26796
N	5.87175	0.664135	-0.879548
C	5.46073	-0.120293	0.257361
C	6.65055	-0.944419	0.709463
O	7.64082	-1.06557	-0.00923261
H	6.68817	0.340024	-1.35003
H	5.19564	0.546788	1.06779
C	4.27647	-1.04707	-0.0972161
H	4.55167	-1.7296	-0.929404
H	3.95735	-1.65241	0.775997
H	3.41178	-0.431394	-0.427966
N	6.58856	-1.51523	1.92862
C	7.6785	-2.30787	2.44815
H	5.7814	-1.39955	2.49813
H	7.43636	-2.69181	3.46363
H	8.60922	-1.6993	2.51629
H	7.88307	-3.17837	1.78365
