44
  This energy is -5.5113 and Call times are: 29026
C	-0.673812	1.90326	-2.8372
C	-0.735334	1.67936	-1.37526
O	-1.1472	2.54828	-0.619047
H	-1.03869	2.92779	-3.06754
H	-1.31548	1.1663	-3.36443
H	0.372479	1.80527	-3.19584
N	-0.313945	0.489955	-0.939247
C	-0.313226	0.123812	0.454585
C	0.671699	-1.0146	0.636743
O	1.11052	-1.62763	-0.334577
H	0.0466177	-0.198884	-1.56249
H	0.0424301	0.963111	1.03867
C	-1.72003	-0.310778	0.922728
H	-2.08209	-1.17155	0.320974
H	-1.7231	-0.593241	1.99557
H	-2.43235	0.531376	0.783029
N	1.06007	-1.3102	1.89284
C	2.0035	-2.37015	2.16237
H	0.69904	-0.797821	2.66508
H	2.19362	-2.45902	3.25471
H	2.97405	-2.17124	1.65275
H	1.61367	-3.3465	1.79366
C	4.36814	-2.96452	-1.82512
C	5.05187	-2.00844	-0.925331
O	6.12861	-2.2814	-0.412867
H	4.9815	-3.88733	-1.91488
H	4.2419	-2.51745	-2.8336
H	3.37271	-3.23326	-1.41301
N	4.42669	-0.849319	-0.706341
C	4.96612	0.181147	0.144529
C	3.82084	1.07684	0.574971
O	2.7307	1.01897	0.00920384
H	3.53603	-0.650612	-1.10655
H	5.37768	-0.277298	1.03477
C	6.04242	1.01109	-0.590243
H	5.61698	1.47942	-1.50336
H	6.46001	1.80535	0.0620958
H	6.87518	0.343351	-0.901352
N	4.03711	1.91544	1.60743
C	3.00187	2.79706	2.09447
H	4.92401	1.94236	2.05679
H	3.37432	3.40828	2.94591
H	2.11951	2.21248	2.44225
H	2.66267	3.48777	1.28885
