44
  This energy is 0.1124 and Call times are: 14930
C	-3.13629	-1.49499	-0.234124
C	-2.25459	-0.375743	0.167233
O	-2.71804	0.673063	0.593511
H	-4.19725	-1.19855	-0.0846527
H	-2.9229	-2.39127	0.385532
H	-2.97933	-1.7408	-1.30552
N	-0.94179	-0.576931	0.0313848
C	0.0415144	0.41736	0.379703
C	1.32207	0.085941	-0.361633
O	1.47225	-1.0103	-0.897853
H	-0.577808	-1.42499	-0.34445
H	-0.298356	1.38496	0.0328555
C	0.300672	0.442836	1.90263
H	0.648555	-0.551552	2.25517
H	1.05721	1.20744	2.17433
H	-0.645168	0.685513	2.43427
N	2.27119	1.04033	-0.427388
C	3.51811	0.819373	-1.12205
H	2.12785	1.92355	0.00689598
H	4.16682	1.72093	-1.06201
H	3.33396	0.591057	-2.19686
H	4.06958	-0.0398269	-0.676144
C	1.76808	3.46691	0.298723
C	1.20675	2.17817	-0.165222
O	0.0909704	2.11681	-0.662979
H	1.02698	4.27599	0.119782
H	2.69859	3.70203	-0.259578
H	1.99162	3.41815	1.38528
N	1.98009	1.10199	-0.00350152
C	1.57287	-0.220683	-0.405431
C	2.40924	-1.22101	0.36857
O	3.41622	-0.86196	0.975955
H	2.87542	1.16051	0.429955
H	0.537936	-0.370571	-0.125231
C	1.76381	-0.430833	-1.92415
H	2.82651	-0.275639	-2.20822
H	1.45108	-1.44821	-2.23706
H	1.14694	0.308665	-2.47981
N	1.99601	-2.50361	0.382063
C	2.72194	-3.52383	1.10202
H	1.17457	-2.773	-0.109777
H	2.2252	-4.51279	0.990381
H	2.77295	-3.27779	2.18742
H	3.76426	-3.60959	0.718093
