44
  This energy is -2.0419 and Call times are: 15811
C	1.23992	-2.65453	1.88207
C	0.835002	-1.23797	1.73854
O	0.790391	-0.491626	2.70677
H	1.46268	-2.86641	2.95041
H	2.15003	-2.8553	1.27857
H	0.419366	-3.32316	1.54657
N	0.52036	-0.833145	0.505863
C	0.108334	0.515155	0.207283
C	-0.64683	0.49123	-1.1074
O	-0.600936	-0.494574	-1.84083
H	0.53258	-1.45827	-0.270029
H	-0.577463	0.851559	0.974478
C	1.32272	1.46487	0.1052
H	2.02452	1.11642	-0.682312
H	1.00904	2.50393	-0.124465
H	1.86808	1.47259	1.07405
N	-1.38124	1.57519	-1.42624
C	-2.14305	1.63797	-2.65176
H	-1.41125	2.36012	-0.816134
H	-2.67749	2.61008	-2.73321
H	-2.89763	0.819097	-2.68767
H	-1.47429	1.53024	-3.53625
C	5.18789	-2.69337	1.84463
C	6.24391	-2.0345	1.04344
O	7.35501	-2.53335	0.929026
H	5.58914	-3.63554	2.27728
H	4.31549	-2.93598	1.20206
H	4.86345	-2.02757	2.67191
N	5.91503	-0.876092	0.466981
C	6.83428	-0.117402	-0.343082
C	6.3418	1.316	-0.388298
O	5.20558	1.60234	-0.0156582
H	5.01568	-0.465529	0.591644
H	7.80591	-0.116478	0.134413
C	6.92919	-0.691938	-1.77417
H	5.93055	-0.692025	-2.26083
H	7.63628	-0.1102	-2.40057
H	7.28987	-1.74258	-1.72724
N	7.19913	2.25793	-0.828483
C	6.82239	3.65069	-0.895248
H	8.11675	2.00717	-1.11887
H	7.66253	4.2671	-1.28442
H	6.54647	4.0319	0.1146
H	5.94514	3.78878	-1.56796
