44
  This energy is -3.2755 and Call times are: 22882
C	-1.09487	3.06593	-1.2359
C	-0.856525	1.6126	-1.38499
O	-1.25342	1.00422	-2.36928
H	-1.65958	3.43793	-2.11828
H	-0.127755	3.60781	-1.17367
H	-1.68909	3.2644	-0.319134
N	-0.196515	1.01482	-0.390299
C	0.111097	-0.393091	-0.391439
C	0.369753	-0.814636	1.04196
O	0.547891	0.0255312	1.92186
H	0.0961023	1.51578	0.419853
H	-0.752726	-0.9417	-0.744868
C	1.34758	-0.697991	-1.26623
H	2.23174	-0.133038	-0.901261
H	1.58714	-1.78122	-1.26946
H	1.14582	-0.383548	-2.3134
N	0.374532	-2.13443	1.31422
C	0.600416	-2.62912	2.65229
H	0.221286	-2.79841	0.589735
H	0.568172	-3.74081	2.67121
H	-0.177976	-2.244	3.35016
H	1.59572	-2.30066	3.03
C	3.98011	-2.59962	0.934953
C	4.85799	-1.92547	-0.0479169
O	5.14683	-2.46039	-1.10949
H	3.68118	-3.59439	0.538792
H	3.06655	-1.99357	1.11084
H	4.51916	-2.74235	1.89515
N	5.31307	-0.717788	0.293809
C	6.17602	0.0619108	-0.557204
C	6.89455	1.07596	0.311503
O	6.51704	1.29938	1.46016
H	5.09417	-0.305144	1.174
H	6.9246	-0.589194	-0.990506
C	5.37327	0.783383	-1.66273
H	4.60578	1.44997	-1.2147
H	6.03469	1.38455	-2.31992
H	4.85071	0.0297668	-2.29134
N	7.96704	1.70053	-0.213555
C	8.72085	2.67272	0.543274
H	8.2611	1.50076	-1.14245
H	9.56329	3.07469	-0.0616766
H	9.14095	2.21193	1.46654
H	8.07013	3.52423	0.847728
