44
  This energy is -1.8191 and Call times are: 20195
C	-0.303899	-0.895498	-3.3514
C	-0.521206	0.0474832	-2.23123
O	-0.969244	1.16895	-2.42634
H	-0.599666	-0.40711	-4.30526
H	-0.920426	-1.80781	-3.20855
H	0.767919	-1.17954	-3.4103
N	-0.196941	-0.393429	-1.01352
C	-0.351636	0.407381	0.174584
C	0.560439	-0.16327	1.24309
O	1.06779	-1.27514	1.10825
H	0.194478	-1.29866	-0.871076
H	-0.0207399	1.41652	-0.0357218
C	-1.81559	0.404049	0.668501
H	-2.152	-0.632812	0.882664
H	-1.93829	1.01984	1.58312
H	-2.47362	0.823261	-0.123584
N	0.807911	0.59936	2.32622
C	1.67334	0.144059	3.38919
H	0.393541	1.49931	2.41351
H	1.74901	0.911613	4.19068
H	2.69771	-0.0600907	3.00159
H	1.28102	-0.796193	3.83996
C	6.9438	2.84549	-1.93225
C	6.71329	2.18122	-0.629635
O	6.78776	2.80464	0.420266
H	7.18084	3.91799	-1.76075
H	6.03337	2.77525	-2.56392
H	7.79682	2.36873	-2.45951
N	6.42922	0.877392	-0.670919
C	6.1798	0.0939071	0.512622
C	6.41215	-1.36343	0.16416
O	6.50383	-1.72252	-1.00822
H	6.40013	0.374448	-1.53065
H	6.89841	0.368599	1.27434
C	4.73622	0.293847	1.02567
H	4.00163	0.0117403	0.241512
H	4.54083	-0.307885	1.937
H	4.57839	1.36548	1.27633
N	6.53505	-2.23767	1.18229
C	6.76968	-3.64331	0.947122
H	6.46496	-1.92637	2.12432
H	6.83933	-4.19677	1.90946
H	7.72039	-3.79449	0.38628
H	5.94114	-4.0852	0.347585
