44
  This energy is -3.0591 and Call times are: 26328
C	-0.691012	-1.21022	-3.19124
C	-0.0391226	-0.244324	-2.27839
O	0.758082	0.583372	-2.69777
H	-0.328021	-1.0384	-4.22785
H	-1.79272	-1.07393	-3.16907
H	-0.441322	-2.24957	-2.89064
N	-0.365934	-0.335276	-0.98716
C	0.18448	0.534406	0.0215651
C	0.0260049	-0.151173	1.36474
O	-0.711544	-1.12706	1.48923
H	-0.994554	-1.03281	-0.65366
H	1.24428	0.658771	-0.161257
C	-0.531933	1.90322	0.035951
H	-1.61906	1.77187	0.223085
H	-0.110492	2.5754	0.811414
H	-0.409446	2.39467	-0.953809
N	0.736485	0.334078	2.40192
C	0.658701	-0.261343	3.71554
H	1.33331	1.12021	2.27931
H	1.3142	0.280604	4.43238
H	0.980612	-1.32745	3.68335
H	-0.385975	-0.227631	4.10115
C	4.68007	1.41227	3.14027
C	4.79853	0.240531	2.2435
O	4.80746	-0.898703	2.6891
H	4.61558	1.0634	4.19384
H	3.76364	1.9897	2.89622
H	5.56951	2.06821	3.03268
N	4.89959	0.500783	0.937961
C	5.02106	-0.533562	-0.0581329
C	5.62299	0.0874383	-1.30364
O	5.68211	1.30893	-1.43131
H	4.92041	1.43423	0.589848
H	5.71073	-1.28745	0.299751
C	3.64822	-1.16111	-0.387707
H	2.94298	-0.384819	-0.753922
H	3.73813	-1.95804	-1.15425
H	3.21736	-1.61149	0.532978
N	6.10612	-0.745456	-2.24644
C	6.70803	-0.244905	-3.46025
H	6.05545	-1.73086	-2.12136
H	7.04179	-1.08458	-4.10894
H	7.59275	0.390755	-3.2269
H	5.98022	0.373521	-4.03385
