44
  This energy is -1.1931 and Call times are: 30002
C	1.20698	-2.8634	1.57171
C	1.14096	-1.39259	1.41817
O	1.68187	-0.647609	2.22372
H	1.78804	-3.11147	2.48641
H	1.70999	-3.31766	0.692251
H	0.184231	-3.28433	1.67045
N	0.459339	-0.93634	0.364798
C	0.306789	0.468359	0.0812892
C	-0.900893	0.633144	-0.820702
O	-1.40343	-0.338524	-1.38208
H	-0.00144527	-1.55281	-0.268118
H	0.101238	0.993534	1.00542
C	1.56547	1.04346	-0.605798
H	1.7738	0.501958	-1.55316
H	1.45146	2.12492	-0.825382
H	2.44323	0.915578	0.0645249
N	-1.40999	1.87268	-0.963453
C	-2.56566	2.12404	-1.79256
H	-0.993408	2.64495	-0.495179
H	-2.82938	3.20459	-1.78243
H	-3.44473	1.5453	-1.42713
H	-2.36686	1.82142	-2.84616
C	5.32379	3.39807	-0.593682
C	5.65766	2.03086	-1.05245
O	5.80642	1.78106	-2.24071
H	5.24052	4.071	-1.47465
H	6.12079	3.7817	0.0774662
H	4.35472	3.39406	-0.0516164
N	5.77859	1.09986	-0.103256
C	6.1002	-0.274699	-0.393071
C	5.65197	-1.11659	0.785719
O	5.35341	-0.590752	1.85633
H	5.62632	1.30967	0.858891
H	5.53412	-0.593452	-1.2591
C	7.61538	-0.459484	-0.632286
H	8.19312	-0.13089	0.25786
H	7.86649	-1.51671	-0.855861
H	7.93139	0.163227	-1.49745
N	5.57352	-2.45005	0.607617
C	5.14517	-3.33032	1.6696
H	5.81256	-2.85581	-0.268425
H	5.14864	-4.38898	1.32832
H	4.11338	-3.07247	2.0015
H	5.82279	-3.24332	2.54963
