44
  This energy is -5.3183 and Call times are: 19888
C	0.326153	-2.47189	2.43095
C	0.34567	-2.02266	1.02063
O	0.712992	-2.76935	0.12395
H	0.687333	-3.52178	2.48702
H	-0.707822	-2.42564	2.83291
H	0.99079	-1.82981	3.04652
N	-0.0509398	-0.768507	0.792215
C	-0.0873865	-0.188123	-0.526365
C	-0.0672737	1.32021	-0.372221
O	-0.279089	1.84332	0.720171
H	-0.320174	-0.160702	1.53452
H	0.808111	-0.475967	-1.06237
C	-1.35148	-0.626381	-1.2991
H	-2.26827	-0.330105	-0.746073
H	-1.38265	-0.181411	-2.31488
H	-1.35493	-1.73321	-1.40427
N	0.211329	2.05666	-1.46585
C	0.26416	3.49906	-1.41217
H	0.386935	1.61437	-2.33922
H	0.50579	3.92121	-2.4125
H	1.04366	3.8371	-0.691517
H	-0.714884	3.91626	-1.08263
C	7.78983	1.50416	1.77662
C	7.00398	0.314732	1.37801
O	7.35389	-0.812008	1.70129
H	8.67557	1.17902	2.36452
H	7.17043	2.17935	2.40374
H	8.13783	2.05255	0.876
N	5.90908	0.544308	0.649417
C	5.04268	-0.510313	0.186863
C	4.24991	0.0211056	-0.991421
O	4.21603	1.226	-1.23413
H	5.65053	1.46452	0.367828
H	5.64929	-1.33332	-0.169155
C	4.08396	-0.98101	1.3033
H	3.46366	-0.134073	1.66666
H	3.41551	-1.79313	0.950571
H	4.67693	-1.36684	2.16101
N	3.60798	-0.874073	-1.76768
C	2.83813	-0.461878	-2.91817
H	3.65342	-1.84546	-1.55892
H	2.38589	-1.34278	-3.42485
H	3.48419	0.0714399	-3.65263
H	2.0175	0.228063	-2.61532
