44
  This energy is -3.5882 and Call times are: 1591
C	-0.0714417	1.57205	3.1064
C	-0.490169	1.46784	1.69041
O	-1.35911	2.19702	1.23245
H	-0.663663	2.36872	3.60685
H	1.00609	1.8326	3.16852
H	-0.249395	0.609243	3.63012
N	0.126122	0.538238	0.956658
C	-0.172123	0.317069	-0.435808
C	0.289792	-1.08188	-0.79473
O	1.03182	-1.71111	-0.0428669
H	0.811761	-0.0692433	1.34883
H	-1.24491	0.355425	-0.576278
C	0.534214	1.35668	-1.33437
H	1.63455	1.31505	-1.18724
H	0.306599	1.18939	-2.40721
H	0.188221	2.37724	-1.06072
N	-0.159288	-1.61137	-1.9497
C	0.217687	-2.94139	-2.36818
H	-0.764807	-1.089	-2.54106
H	-0.251773	-3.19437	-3.34433
H	-0.10764	-3.69673	-1.6166
H	1.32337	-3.01966	-2.48003
C	4.87586	-2.95375	-1.79447
C	4.71498	-2.21593	-0.52131
O	4.57279	-2.80836	0.539492
H	4.83553	-4.04637	-1.5934
H	5.85519	-2.70943	-2.25711
H	4.0586	-2.68725	-2.49733
N	4.72848	-0.883405	-0.60237
C	4.58384	-0.0287862	0.548949
C	4.12797	1.33352	0.0636261
O	4.18791	1.62854	-1.12852
H	4.81584	-0.412493	-1.47618
H	3.80604	-0.427624	1.18772
C	5.91422	0.10109	1.32376
H	6.71009	0.509903	0.665289
H	5.80638	0.758349	2.21098
H	6.23798	-0.903632	1.67284
N	3.63844	2.1919	0.979897
C	3.16957	3.50672	0.608979
H	3.59152	1.93186	1.93876
H	2.80744	4.06161	1.5024
H	2.33155	3.43339	-0.12149
H	3.98804	4.09731	0.137291
