44
  This energy is -1.9741 and Call times are: 29109
C	1.89491	-0.298422	-2.90626
C	1.08122	-0.883957	-1.81711
O	0.756577	-2.06328	-1.83397
H	2.11431	-1.08259	-3.6631
H	2.85368	0.088821	-2.50175
H	1.33986	0.528943	-3.39649
N	0.723906	-0.0557394	-0.83286
C	-0.0671349	-0.477844	0.295373
C	-0.706199	0.755314	0.903779
O	-0.319125	1.88092	0.595539
H	0.970055	0.909762	-0.845238
H	-0.863501	-1.12232	-0.0546641
C	0.798828	-1.20259	1.34987
H	1.6152	-0.538808	1.7063
H	0.192843	-1.5291	2.2199
H	1.26225	-2.10329	0.89147
N	-1.72082	0.570211	1.77113
C	-2.39773	1.68529	2.39126
H	-2.02421	-0.348352	2.00227
H	-3.2007	1.32804	3.07306
H	-2.85992	2.34273	1.61965
H	-1.68174	2.29936	2.9841
C	5.28313	3.33138	-0.872284
C	5.53846	2.27306	0.1307
O	5.78538	2.55215	1.29588
H	5.36442	4.32702	-0.384471
H	4.26214	3.22026	-1.29424
H	6.03004	3.27055	-1.69166
N	5.48919	1.01389	-0.310216
C	5.71519	-0.123362	0.545598
C	6.09749	-1.29877	-0.332754
O	5.92746	-1.25556	-1.54974
H	5.31581	0.800522	-1.268
H	6.55416	0.0873813	1.19659
C	4.45495	-0.465074	1.37152
H	3.59606	-0.680062	0.700555
H	4.62554	-1.34019	2.0317
H	4.18463	0.404276	2.00972
N	6.64642	-2.37404	0.265971
C	7.05266	-3.53514	-0.490997
H	6.78238	-2.38692	1.25115
H	7.47926	-4.31271	0.180305
H	7.82518	-3.26154	-1.24572
H	6.18362	-3.97625	-1.03078
