44
  This energy is -1.1893 and Call times are: 33167
C	-2.89758	-1.93097	0.0384652
C	-2.17834	-0.658345	0.271509
O	-2.78089	0.362768	0.572778
H	-3.98843	-1.7669	0.176252
H	-2.55595	-2.70141	0.761335
H	-2.71597	-2.28939	-0.996666
N	-0.851391	-0.692376	0.128652
C	-0.0144553	0.464705	0.322378
C	1.29416	0.219963	-0.403471
O	1.59234	-0.905179	-0.799675
H	-0.375074	-1.52356	-0.145561
H	-0.48921	1.32305	-0.135803
C	0.250284	0.722624	1.82255
H	0.736769	-0.160175	2.28957
H	0.894288	1.61296	1.97532
H	-0.716111	0.899256	2.34315
N	2.09966	1.27954	-0.614371
C	3.35985	1.14467	-1.30712
H	1.83732	2.18326	-0.292341
H	3.87629	2.12722	-1.37885
H	3.20125	0.755934	-2.33909
H	4.02969	0.43479	-0.769931
C	6.08467	-1.86792	-1.87223
C	7.12458	-1.75207	-0.825158
O	7.40337	-2.69931	-0.102996
H	5.65607	-2.89348	-1.85233
H	6.52759	-1.68295	-2.87344
H	5.27147	-1.13489	-1.68697
N	7.72615	-0.565284	-0.715589
C	8.75751	-0.298391	0.254921
C	8.83219	1.20288	0.454531
O	8.27776	1.96974	-0.330552
H	7.46972	0.207183	-1.29046
H	8.47398	-0.742284	1.20078
C	10.1259	-0.840593	-0.214879
H	10.4133	-0.38363	-1.18579
H	10.9223	-0.636919	0.530136
H	10.0576	-1.94097	-0.358589
N	9.50582	1.65782	1.52936
C	9.61994	3.0706	1.80724
H	9.94158	1.02101	2.15691
H	10.2124	3.24273	2.73278
H	8.61281	3.52633	1.94596
H	10.1242	3.59738	0.964994
