44
  This energy is 0.1395 and Call times are: 6406
C	-2.89935	-1.57991	1.10623
C	-1.98267	-0.418176	1.07072
O	-2.28567	0.643012	1.59852
H	-3.82575	-1.30019	1.6534
H	-2.41669	-2.43225	1.62909
H	-3.17022	-1.88558	0.0736888
N	-0.824393	-0.596088	0.431112
C	0.17	0.440181	0.312134
C	1.06396	0.0953414	-0.863093
O	1.03831	-1.02715	-1.36428
H	-0.60164	-1.45627	-0.0198825
H	-0.323378	1.37702	0.0863517
C	1.01175	0.562784	1.60192
H	1.51595	-0.400257	1.83093
H	1.77831	1.3599	1.51379
H	0.345222	0.814426	2.45548
N	1.86424	1.06622	-1.34575
C	2.7409	0.833615	-2.46982
H	1.86533	1.9702	-0.930962
H	3.31827	1.75221	-2.7149
H	2.15526	0.537158	-3.37003
H	3.46265	0.0158708	-2.24278
C	-1.58083	1.19046	1.23411
C	-0.689554	0.813403	0.113989
O	-1.09914	0.785282	-1.03838
H	-2.59578	1.41086	0.837687
H	-1.19053	2.09535	1.74563
H	-1.65315	0.35624	1.96335
N	0.568868	0.50466	0.435576
C	1.55361	0.118875	-0.543343
C	2.65294	-0.638934	0.175289
O	2.73547	-0.613854	1.40183
H	0.882669	0.503136	1.38134
H	1.09704	-0.558776	-1.25356
C	2.14236	1.35164	-1.265
H	2.60934	2.04501	-0.533374
H	2.90084	1.05818	-2.01956
H	1.32695	1.89876	-1.78645
N	3.51459	-1.35231	-0.576142
C	4.58596	-2.11489	0.0212149
H	3.42685	-1.3657	-1.56678
H	5.18563	-2.63012	-0.761205
H	4.17982	-2.88559	0.715701
H	5.26509	-1.44995	0.602429
