44
  This energy is -1.6118 and Call times are: 5541
C	2.12223	-1.58694	2.25918
C	1.59927	-1.37932	0.890014
O	2.11951	-1.92225	-0.0749033
H	3.00132	-2.26615	2.21749
H	1.34211	-2.04789	2.90086
H	2.43751	-0.61766	2.69967
N	0.543857	-0.569882	0.774762
C	-0.0772067	-0.270677	-0.490775
C	-0.854426	1.02187	-0.33431
O	-1.08558	1.4853	0.780873
H	0.147086	-0.110515	1.56501
H	0.69503	-0.102642	-1.2307
C	-1.02269	-1.40851	-0.93633
H	-1.81326	-1.57867	-0.174656
H	-1.50247	-1.18145	-1.91051
H	-0.441536	-2.34997	-1.0462
N	-1.25876	1.64796	-1.45704
C	-1.99424	2.89002	-1.4065
H	-1.05571	1.26064	-2.35034
H	-2.23715	3.24521	-2.43221
H	-1.3976	3.67934	-0.8944
H	-2.94789	2.75959	-0.845503
C	6.44766	1.31743	-3.21354
C	6.37318	1.45359	-1.74143
O	6.21535	2.54623	-1.21442
H	6.34654	2.32108	-3.6808
H	5.62621	0.666235	-3.57956
H	7.42483	0.880398	-3.50866
N	6.49323	0.327204	-1.03488
C	6.44114	0.298412	0.405007
C	7.11194	-0.979487	0.870023
O	7.35426	-1.88692	0.0764988
H	6.65061	-0.552955	-1.47475
H	7.01337	1.13083	0.79451
C	4.98408	0.350017	0.91631
H	4.39975	-0.504991	0.514271
H	4.94033	0.328166	2.02464
H	4.50347	1.29014	0.567989
N	7.4487	-1.07078	2.17166
C	8.10163	-2.2446	2.70271
H	7.2506	-0.322756	2.79652
H	8.29411	-2.12857	3.79208
H	9.0761	-2.41745	2.19109
H	7.4679	-3.14855	2.55288
