44
  This energy is 0.1076 and Call times are: 11944
C	-3.0236	0.445051	1.6691
C	-2.22721	-0.0752342	0.534962
O	-2.72912	-0.806365	-0.307668
H	-4.06347	0.0589196	1.59541
H	-3.04952	1.55472	1.64116
H	-2.58319	0.110018	2.63177
N	-0.944565	0.292751	0.492845
C	-0.0433558	-0.131904	-0.54846
C	1.37299	0.0142623	-0.0270733
O	1.60363	0.660214	0.993408
H	-0.540152	0.865122	1.20121
H	-0.211832	-1.18156	-0.753165
C	-0.227368	0.711221	-1.83002
H	-0.0544516	1.78757	-1.61625
H	0.464925	0.386791	-2.63392
H	-1.2691	0.596529	-2.20122
N	2.35696	-0.604968	-0.708506
C	3.73446	-0.531684	-0.280346
H	2.14912	-1.12888	-1.52799
H	4.39204	-1.10363	-0.971504
H	3.85053	-0.954378	0.74391
H	4.08368	0.526032	-0.258956
C	6.66221	0.654213	1.02767
C	5.27121	0.229464	1.30316
O	4.95121	-0.218441	2.39563
H	7.28378	0.486454	1.93396
H	6.68845	1.7336	0.768702
H	7.084	0.0625882	0.188018
N	4.40184	0.358077	0.298166
C	3.01376	-0.0118371	0.413243
C	2.47262	-0.231643	-0.986074
O	3.10299	0.148912	-1.97078
H	4.68129	0.697094	-0.596213
H	2.94317	-0.952377	0.944726
C	2.19712	1.08494	1.13247
H	2.27229	2.0486	0.584919
H	1.12788	0.803273	1.22291
H	2.60415	1.23728	2.15583
N	1.29446	-0.874575	-1.10683
C	0.707106	-1.13927	-2.39955
H	0.80307	-1.18104	-0.29822
H	-0.261345	-1.67515	-2.28917
H	1.38708	-1.76819	-3.01869
H	0.520977	-0.188089	-2.94891
