44
  This energy is -5.1618 and Call times are: 12327
C	0.473026	2.75914	-2.07112
C	-0.402246	1.80671	-1.35141
O	-1.61315	1.97346	-1.30239
H	-0.147699	3.57396	-2.50312
H	1.00807	2.24018	-2.89405
H	1.2126	3.20294	-1.37182
N	0.203763	0.772979	-0.76275
C	-0.512986	-0.237176	-0.0260774
C	0.469156	-0.918166	0.907136
O	1.68073	-0.762071	0.767308
H	1.19399	0.663999	-0.785231
H	-1.2684	0.241702	0.583922
C	-1.15341	-1.27614	-0.97346
H	-0.375709	-1.76499	-1.59821
H	-1.70622	-2.05533	-0.409517
H	-1.86981	-0.764574	-1.65259
N	-0.0352967	-1.67658	1.90028
C	0.822829	-2.35375	2.84434
H	-1.01884	-1.78475	2.00112
H	0.220015	-2.92725	3.58255
H	1.45189	-1.62068	3.39944
H	1.50209	-3.06362	2.3191
C	4.41633	3.1649	-1.41358
C	4.42265	1.68812	-1.51505
O	4.09433	1.12377	-2.54956
H	4.0767	3.59797	-2.37948
H	5.43859	3.53755	-1.19237
H	3.72261	3.49049	-0.610026
N	4.7976	1.02019	-0.421598
C	4.85469	-0.418715	-0.365793
C	4.79799	-0.831039	1.09229
O	4.9708	-0.00482786	1.98635
H	5.03478	1.49066	0.424179
H	3.97945	-0.824884	-0.856762
C	6.14708	-0.95617	-1.02001
H	7.04299	-0.536957	-0.51432
H	6.1942	-2.06381	-0.978911
H	6.17718	-0.646399	-2.08738
N	4.53115	-2.12315	1.36659
C	4.44572	-2.60511	2.72548
H	4.38726	-2.77495	0.629231
H	4.22029	-3.6942	2.74302
H	3.64114	-2.07167	3.28167
H	5.40686	-2.43721	3.26325
