44
  This energy is -1.2787 and Call times are: 7752
C	0.766945	-3.0319	1.5315
C	0.672348	-2.16515	0.335257
O	1.11401	-2.52893	-0.745987
H	1.27944	-3.97991	1.25856
H	-0.24833	-3.26927	1.91319
H	1.35122	-2.5237	2.32729
N	0.0890741	-0.976825	0.508607
C	-0.0768891	-0.0242558	-0.559988
C	-0.272245	1.34463	0.0622819
O	-0.520788	1.4606	1.26087
H	-0.240587	-0.680153	1.40093
H	0.832214	0.00795645	-1.14699
C	-1.289	-0.381642	-1.44891
H	-2.2198	-0.414471	-0.843395
H	-1.4196	0.349715	-2.27282
H	-1.13419	-1.38694	-1.89785
N	-0.141855	2.42004	-0.739284
C	-0.298659	3.76352	-0.232689
H	0.0665614	2.30569	-1.70506
H	-0.155684	4.50942	-1.04537
H	0.447225	3.97084	0.568509
H	-1.31633	3.9049	0.198048
C	5.22773	3.47797	-0.12219
C	5.94615	2.20895	0.132122
O	7.14665	2.19781	0.367
H	5.94612	4.32446	-0.0653771
H	4.43459	3.62799	0.640202
H	4.76968	3.46257	-1.13357
N	5.21441	1.09333	0.0839529
C	5.77077	-0.216715	0.309963
C	4.83669	-1.23394	-0.316124
O	3.70177	-0.914204	-0.664776
H	4.24299	1.11302	-0.137136
H	6.72324	-0.287232	-0.199837
C	5.93585	-0.505068	1.81884
H	4.95695	-0.431217	2.33884
H	6.36415	-1.51293	1.99645
H	6.6213	0.247555	2.26591
N	5.30384	-2.48544	-0.49364
C	4.49038	-3.51777	-1.09262
H	6.22758	-2.72268	-0.211425
H	5.05122	-4.47662	-1.14998
H	4.18486	-3.2282	-2.12415
H	3.56642	-3.68719	-0.493634
