44
  This energy is -1.8204 and Call times are: 22684
C	0.0577439	3.47383	0.235213
C	-0.29789	2.22284	-0.471733
O	-0.991257	2.24093	-1.47941
H	-0.402045	4.33743	-0.292647
H	1.16011	3.60594	0.247932
H	-0.322934	3.44584	1.27792
N	0.17316	1.08989	0.0544638
C	-0.0871711	-0.206051	-0.519645
C	0.125653	-1.24642	0.562753
O	0.697533	-0.9546	1.61138
H	0.712683	1.08588	0.89222
H	-1.12534	-0.254457	-0.82285
C	0.845963	-0.487979	-1.71835
H	1.91021	-0.43686	-1.40389
H	0.648095	-1.48498	-2.16289
H	0.681235	0.281604	-2.50369
N	-0.352347	-2.48661	0.340397
C	-0.206957	-3.53912	1.31879
H	-0.818541	-2.70113	-0.511586
H	-0.663113	-4.48432	0.9503
H	-0.705785	-3.2586	2.27468
H	0.869383	-3.72977	1.53402
C	6.71608	-0.57201	-3.26533
C	6.40527	0.335146	-2.13765
O	6.66276	1.52957	-2.19721
H	7.19036	0.0101847	-4.08507
H	5.78449	-1.03895	-3.64865
H	7.41858	-1.36612	-2.93547
N	5.84035	-0.224111	-1.06506
C	5.47949	0.528124	0.109999
C	5.37008	-0.442935	1.26944
O	5.32692	-1.65573	1.07171
H	5.66223	-1.20336	-1.01729
H	6.27498	1.22579	0.339193
C	4.14005	1.27233	-0.0879012
H	3.32634	0.553677	-0.323528
H	3.85927	1.85269	0.814944
H	4.23294	1.97961	-0.940708
N	5.34457	0.0709676	2.51494
C	5.25391	-0.777118	3.68058
H	5.38772	1.05478	2.65452
H	5.24436	-0.167308	4.61079
H	6.12154	-1.47443	3.72753
H	4.32202	-1.38697	3.65144
