44
  This energy is -4.6325 and Call times are: 28558
C	-0.874081	3.2036	1.04837
C	-0.660904	2.19439	-0.0133522
O	-0.967755	2.42397	-1.17509
H	-1.33187	4.11371	0.60342
H	0.0953875	3.47986	1.51381
H	-1.5564	2.802	1.8269
N	-0.126416	1.03299	0.371152
C	0.141183	-0.0459811	-0.545931
C	0.235068	-1.32825	0.257947
O	0.341832	-1.2961	1.48245
H	0.0922996	0.847272	1.32541
H	-0.694966	-0.144873	-1.22648
C	1.45458	0.190281	-1.32457
H	2.31017	0.291942	-0.623324
H	1.66359	-0.638577	-2.03174
H	1.37344	1.13304	-1.90832
N	0.1751	-2.49399	-0.415437
C	0.244513	-3.76516	0.266824
H	0.081417	-2.4991	-1.4056
H	0.180225	-4.60526	-0.459373
H	-0.592625	-3.86648	0.994956
H	1.2028	-3.85864	0.827299
C	5.94441	3.27855	-0.907252
C	5.98281	2.15328	0.0537398
O	6.63031	2.2274	1.08899
H	6.57262	4.11133	-0.522957
H	4.90229	3.64156	-1.02983
H	6.34087	2.95434	-1.89247
N	5.28208	1.0663	-0.277627
C	5.22161	-0.108511	0.554838
C	4.8106	-1.27783	-0.318656
O	4.35336	-1.09111	-1.44466
H	4.78222	1.00717	-1.13761
H	6.21135	-0.31787	0.940396
C	4.21195	0.0721917	1.71028
H	3.1978	0.287486	1.31118
H	4.16299	-0.830505	2.35333
H	4.52356	0.932421	2.34198
N	4.9856	-2.51921	0.175672
C	4.6342	-3.69336	-0.588571
H	5.36377	-2.64973	1.08627
H	4.85077	-4.61842	-0.0101231
H	5.21338	-3.731	-1.53956
H	3.54999	-3.68567	-0.844721
