44
  This energy is 0.1267 and Call times are: 17582
C	-3.33047	-0.309958	-0.968513
C	-2.26947	-0.31268	0.0637016
O	-2.54481	-0.381165	1.25366
H	-4.32425	-0.370054	-0.473883
H	-3.21097	-1.18436	-1.64228
H	-3.28189	0.625317	-1.56504
N	-1.01225	-0.230866	-0.377966
C	0.127192	-0.222634	0.504325
C	1.29377	0.388834	-0.246963
O	1.24575	0.541346	-1.46609
H	-0.80227	-0.146193	-1.34837
H	-0.0887785	0.415221	1.35201
C	0.486518	-1.65055	0.972367
H	0.706833	-2.30239	0.100195
H	1.36337	-1.64785	1.65201
H	-0.376494	-2.08782	1.52023
N	2.36647	0.775098	0.47145
C	3.51915	1.37789	-0.156372
H	2.38326	0.649765	1.45798
H	4.29584	1.62372	0.600968
H	3.23341	2.3172	-0.68297
H	3.96639	0.684678	-0.905112
C	7.73436	1.0854	-0.401271
C	6.28192	1.20935	-0.65867
O	5.82419	2.17984	-1.24614
H	8.25723	1.97724	-0.810023
H	8.13444	0.175847	-0.89673
H	7.92592	1.02562	0.690826
N	5.51327	0.213747	-0.211097
C	4.08293	0.191444	-0.385615
C	3.50176	-0.750657	0.650689
O	4.22693	-1.52228	1.27565
H	5.89477	-0.557356	0.29169
H	3.68898	1.18044	-0.188754
C	3.69683	-0.277833	-1.80612
H	4.10315	-1.29247	-2.00496
H	2.59618	-0.296034	-1.94397
H	4.12951	0.419791	-2.55595
N	2.17386	-0.693196	0.872861
C	1.53356	-1.54362	1.84907
H	1.60508	-0.0570012	0.361995
H	0.439054	-1.34832	1.88315
H	1.95385	-1.36151	2.86466
H	1.69051	-2.61763	1.59796
