44
  This energy is -2.7663 and Call times are: 14083
C	-2.66924	-1.47748	-1.67878
C	-1.62624	-0.434362	-1.55531
O	-1.41623	0.360512	-2.46116
H	-3.15969	-1.39064	-2.67265
H	-3.43646	-1.34698	-0.886844
H	-2.21418	-2.48638	-1.58949
N	-0.935135	-0.419077	-0.413158
C	0.110668	0.535526	-0.145093
C	0.994976	-0.0362755	0.945906
O	0.627446	-1.0031	1.61074
H	-1.09587	-1.09033	0.305532
H	0.717901	0.651055	-1.03391
C	-0.470307	1.89605	0.300494
H	-1.09324	1.77374	1.21215
H	0.332239	2.63349	0.507579
H	-1.11705	2.30374	-0.506763
N	2.19806	0.538676	1.14087
C	3.11236	0.0547665	2.14887
H	2.48021	1.31566	0.587762
H	4.0462	0.659051	2.15542
H	3.38409	-1.00817	1.95507
H	2.64931	0.113825	3.16044
C	7.01343	-0.229935	3.38975
C	6.92888	0.531816	2.12335
O	7.13746	1.73688	2.09491
H	7.27312	0.46359	4.21888
H	7.79935	-1.01066	3.31485
H	6.03719	-0.708965	3.61431
N	6.60964	-0.166733	1.03134
C	6.48947	0.433696	-0.273219
C	5.63873	-0.482466	-1.1312
O	5.39731	-1.63377	-0.773362
H	6.41355	-1.14284	1.0725
H	5.96592	1.37668	-0.179671
C	7.87398	0.639848	-0.927252
H	8.40859	-0.329431	-1.02107
H	7.78513	1.10214	-1.93183
H	8.48786	1.31169	-0.288567
N	5.14419	0.0183702	-2.28037
C	4.31427	-0.776214	-3.15561
H	5.345	0.954721	-2.54899
H	4.00877	-0.188007	-4.04888
H	3.39369	-1.11246	-2.62578
H	4.86301	-1.68153	-3.5027
