44
  This energy is 0.1055 and Call times are: 12854
C	1.40785	-2.23814	2.26602
C	1.3199	-0.897508	1.64458
O	1.96101	0.0469101	2.08452
H	2.10467	-2.1969	3.13123
H	1.7914	-2.97629	1.5306
H	0.407658	-2.56004	2.6251
N	0.504823	-0.783485	0.593386
C	0.314093	0.455789	-0.117001
C	-1.00209	0.36646	-0.864616
O	-1.57266	-0.713489	-1.00601
H	-0.034323	-1.55339	0.262478
H	0.231189	1.26301	0.599658
C	1.47046	0.720438	-1.10689
H	1.55309	-0.10992	-1.84024
H	1.32686	1.67397	-1.65547
H	2.42903	0.782539	-0.547041
N	-1.52747	1.51098	-1.34425
C	-2.78263	1.52506	-2.05878
H	-1.05406	2.37584	-1.21334
H	-3.0444	2.55932	-2.37347
H	-3.60503	1.13558	-1.41597
H	-2.72381	0.885745	-2.96927
C	-1.3683	1.50173	-1.65864
C	0.068396	1.16471	-1.54237
O	0.851612	1.41252	-2.44882
H	-1.55632	1.97195	-2.64829
H	-1.65949	2.21623	-0.860184
H	-1.98525	0.58236	-1.57453
N	0.449477	0.576716	-0.40597
C	1.8129	0.189516	-0.14526
C	1.79689	-0.871835	0.937569
O	0.783737	-1.07461	1.60408
H	-0.203322	0.353692	0.313092
H	2.22845	-0.258555	-1.03892
C	2.66392	1.39713	0.307028
H	2.23441	1.85478	1.22365
H	3.71436	1.10255	0.508476
H	2.66668	2.16788	-0.494267
N	2.92046	-1.59231	1.12334
C	2.99467	-2.63214	2.12305
H	3.72764	-1.41797	0.569001
H	4.00058	-3.10692	2.1227
H	2.23423	-3.42204	1.92552
H	2.8039	-2.21546	3.13851
