44
  This energy is 0.1319 and Call times are: 16231
C	-3.32032	0.871375	-0.585073
C	-2.12813	0.0348366	-0.849806
O	-2.19261	-0.945823	-1.57826
H	-4.19274	0.45062	-1.1307
H	-3.14426	1.91014	-0.935486
H	-3.5471	0.881694	0.501853
N	-0.996286	0.408177	-0.248209
C	0.245955	-0.304553	-0.408462
C	1.13941	0.0467331	0.765238
O	0.869975	0.996492	1.49817
H	-0.963328	1.1921	0.366046
H	0.0493755	-1.36831	-0.3654
C	0.941707	0.0693119	-1.73634
H	1.14128	1.16137	-1.77745
H	1.89847	-0.477808	-1.86301
H	0.2766	-0.191853	-2.58815
N	2.2186	-0.730166	0.983818
C	3.11987	-0.479299	2.08426
H	2.41563	-1.49845	0.383696
H	3.94543	-1.22468	2.09418
H	2.57962	-0.541708	3.05661
H	3.56677	0.537922	2.00226
C	7.06379	2.7818	2.08133
C	6.97111	1.32403	1.84149
O	6.79149	0.541315	2.76431
H	6.95312	2.98282	3.16908
H	6.25604	3.31168	1.53398
H	8.05044	3.16336	1.74389
N	7.09986	0.922076	0.574912
C	7.03235	-0.463318	0.183818
C	7.71665	-0.601315	-1.16226
O	7.98096	0.391489	-1.83777
H	7.27496	1.567	-0.16424
H	7.58799	-1.05796	0.897782
C	5.56915	-0.950189	0.0883588
H	5.00188	-0.33756	-0.644445
H	5.51352	-2.01659	-0.212418
H	5.07867	-0.842834	1.08035
N	8.04035	-1.84277	-1.57458
C	8.70452	-2.07061	-2.83678
H	7.82444	-2.63287	-1.01035
H	8.88327	-3.15676	-2.99666
H	9.687	-1.54599	-2.86407
H	8.0858	-1.68901	-3.68103
