44
  This energy is -3.3392 and Call times are: 32979
C	-1.96575	-0.485569	2.83305
C	-0.651448	-0.433985	2.15397
O	0.391597	-0.520062	2.78733
H	-1.80932	-0.600045	3.92771
H	-2.5545	-1.35065	2.46179
H	-2.53002	0.452435	2.64679
N	-0.674782	-0.283838	0.827591
C	0.521881	-0.216743	0.0273893
C	0.16845	0.458205	-1.28363
O	-1.00558	0.610933	-1.61553
H	-1.5304	-0.185641	0.326377
H	1.24863	0.40653	0.532794
C	1.10021	-1.6245	-0.238807
H	0.351802	-2.26145	-0.756788
H	2.02179	-1.5765	-0.854571
H	1.35393	-2.10874	0.729329
N	1.18305	0.899615	-2.05288
C	0.942492	1.56485	-3.31216
H	2.12615	0.772927	-1.7635
H	1.90263	1.85007	-3.79593
H	0.338969	2.48879	-3.1594
H	0.383431	0.898446	-4.00824
C	5.29229	2.14211	-2.6655
C	5.33233	1.84134	-1.21666
O	5.11386	2.71044	-0.383939
H	5.05283	3.21794	-2.81079
H	4.51038	1.52972	-3.1619
H	6.27854	1.92773	-3.12843
N	5.62332	0.582585	-0.880157
C	5.69902	0.136885	0.488218
C	6.53004	-1.13104	0.51994
O	6.79099	-1.7377	-0.51722
H	5.82796	-0.109503	-1.56723
H	6.21804	0.885094	1.07377
C	4.29365	-0.13432	1.07002
H	3.76376	-0.901861	0.466519
H	4.34825	-0.47753	2.12359
H	3.6945	0.801776	1.04006
N	6.98543	-1.55017	1.717
C	7.7942	-2.74018	1.84331
H	6.76942	-1.04151	2.54394
H	8.06779	-2.91868	2.90657
H	8.73306	-2.64175	1.25161
H	7.24197	-3.63233	1.46875
