44
  This energy is 0.136 and Call times are: 17439
C	3.31642	0.512845	-0.929778
C	2.15875	0.768259	-0.0433383
O	2.27875	1.42868	0.979372
H	4.22101	0.996311	-0.501024
H	3.12662	0.936263	-1.9385
H	3.49911	-0.579009	-1.01593
N	0.994075	0.235831	-0.420716
C	-0.221102	0.396992	0.337044
C	-1.17	-0.716465	-0.0617667
O	-0.955817	-1.39613	-1.06377
H	0.915433	-0.324663	-1.24084
H	0.00217313	0.277651	1.38965
C	-0.872916	1.77193	0.0691067
H	-1.10002	1.89127	-1.01177
H	-1.80875	1.89941	0.651119
H	-0.167427	2.57898	0.364256
N	-2.23576	-0.943456	0.731091
C	-3.18682	-1.99006	0.437345
H	-2.38783	-0.387246	1.54149
H	-3.99174	-2.01665	1.20458
H	-2.68448	-2.98437	0.421801
H	-3.65731	-1.82534	-0.558992
C	1.75465	0.345588	-2.17757
C	3.19772	0.147732	-1.9137
O	3.97738	-0.108143	-2.82098
H	1.55889	0.216443	-3.26424
H	1.44747	1.36915	-1.87626
H	1.15645	-0.400643	-1.61344
N	3.58863	0.258308	-0.641964
C	4.95919	0.0930983	-0.228344
C	4.96286	-0.233318	1.25242
O	3.95283	-0.0706122	1.93448
H	2.93919	0.438286	0.0920533
H	5.38545	-0.75274	-0.75269
C	5.78454	1.37223	-0.492446
H	5.34408	2.2381	0.0464231
H	6.8404	1.24843	-0.175261
H	5.77304	1.60119	-1.58037
N	6.10056	-0.725197	1.78128
C	6.19415	-1.07576	3.17932
H	6.90504	-0.856347	1.21132
H	7.20954	-1.4601	3.42125
H	5.45036	-1.86408	3.43733
H	5.99303	-0.187886	3.82151
