44
  This energy is -4.3846 and Call times are: 23892
C	-1.10083	3.02005	-1.33924
C	-0.855675	2.11738	-0.191954
O	-1.00076	2.50416	0.959497
H	-1.4056	4.02008	-0.961185
H	-1.91327	2.61457	-1.97827
H	-0.17598	3.13088	-1.94366
N	-0.46631	0.875038	-0.487511
C	-0.189984	-0.117941	0.519695
C	0.694129	-1.18045	-0.103734
O	0.842384	-1.23879	-1.32293
H	-0.323577	0.580633	-1.42873
H	0.367847	0.343269	1.32479
C	-1.49223	-0.756078	1.05267
H	-2.06232	-1.22771	0.224011
H	-1.28312	-1.52102	1.8285
H	-2.13157	0.0326788	1.50571
N	1.32251	-2.03647	0.725944
C	2.19361	-3.07334	0.223702
H	1.19532	-1.96847	1.71003
H	2.61343	-3.67382	1.06062
H	3.0404	-2.63142	-0.349796
H	1.63734	-3.75924	-0.45548
C	5.92438	-3.31286	0.906198
C	5.3391	-1.97696	1.15923
O	4.57976	-1.7868	2.09931
H	5.55407	-4.02734	1.67317
H	7.03193	-3.26297	0.966575
H	5.62535	-3.67771	-0.0989949
N	5.68168	-1.00832	0.306747
C	5.19423	0.342946	0.422151
C	5.33833	1.00756	-0.933119
O	6.02551	0.495163	-1.81463
H	6.27813	-1.18266	-0.472217
H	4.13959	0.31699	0.665315
C	5.98172	1.1358	1.48909
H	7.06334	1.15985	1.23686
H	5.60887	2.17665	1.58065
H	5.86911	0.638139	2.47692
N	4.67132	2.16043	-1.13805
C	4.73911	2.85845	-2.40073
H	4.11471	2.5554	-0.414574
H	4.12476	3.78524	-2.3712
H	4.36114	2.21361	-3.2269
H	5.79026	3.14186	-2.63725
