44
  This energy is -1.6445 and Call times are: 31995
C	2.20162	-0.679037	-2.61111
C	1.88318	-0.0600122	-1.30474
O	2.75279	0.470594	-0.627443
H	3.28959	-0.571837	-2.81287
H	1.63446	-0.174977	-3.42171
H	1.94356	-1.75891	-2.59615
N	0.60785	-0.121232	-0.914671
C	0.143787	0.435913	0.330745
C	-1.16421	-0.243668	0.686499
O	-1.77156	-0.913449	-0.146772
H	-0.085905	-0.581859	-1.4619
H	0.858691	0.20139	1.1092
C	-0.0635562	1.96304	0.2212
H	-0.797028	2.20009	-0.578764
H	-0.420722	2.39531	1.17847
H	0.90148	2.44898	-0.0409422
N	-1.61874	-0.103523	1.94736
C	-2.84886	-0.724301	2.38051
H	-1.10916	0.436626	2.60902
H	-3.05254	-0.490323	3.44869
H	-2.79074	-1.8313	2.26912
H	-3.70821	-0.360707	1.77181
C	6.19147	2.53064	2.19162
C	6.42447	1.10404	1.8727
O	6.351	0.242298	2.73786
H	5.96679	2.63273	3.27557
H	5.32964	2.9173	1.60804
H	7.09637	3.12877	1.95425
N	6.72133	0.821244	0.602165
C	6.97398	-0.519591	0.138316
C	7.76245	-0.424907	-1.15343
O	7.85735	0.64319	-1.75509
H	6.80684	1.53548	-0.0873897
H	7.5922	-1.03239	0.864206
C	5.65616	-1.2904	-0.0989332
H	5.02409	-0.761207	-0.84362
H	5.84704	-2.32328	-0.45601
H	5.08738	-1.35181	0.854411
N	8.36775	-1.54314	-1.5997
C	9.14977	-1.54582	-2.81404
H	8.28497	-2.39606	-1.0948
H	9.56374	-2.55889	-3.01294
H	9.99926	-0.829237	-2.73585
H	8.52381	-1.24548	-3.68533
