44
  This energy is -5.0748 and Call times are: 8602
C	1.55501	2.93169	-1.05512
C	0.494119	2.21618	-0.310964
O	-0.282528	2.81749	0.418241
H	1.49844	4.01731	-0.822524
H	1.41745	2.79067	-2.14783
H	2.55479	2.5518	-0.756664
N	0.442216	0.892632	-0.47797
C	-0.533583	0.0596536	0.178377
C	-0.000267999	-1.35971	0.192902
O	0.956169	-1.67907	-0.51071
H	1.09891	0.410802	-1.05201
H	-0.637363	0.382587	1.20649
C	-1.89541	0.108068	-0.54977
H	-1.78515	-0.22321	-1.60439
H	-2.64914	-0.5321	-0.0469294
H	-2.27474	1.15317	-0.554618
N	-0.597171	-2.24336	1.01685
C	-0.15023	-3.61389	1.10665
H	-1.36517	-1.96375	1.58361
H	-0.768136	-4.18199	1.83651
H	0.91282	-3.65962	1.43692
H	-0.225933	-4.11774	0.115901
C	4.73898	0.837118	-3.32446
C	4.28084	0.393819	-1.98849
O	3.08972	0.280872	-1.73357
H	3.85508	1.03013	-3.97048
H	5.36329	0.0491138	-3.79573
H	5.33026	1.77275	-3.23545
N	5.23417	0.134585	-1.09054
C	4.94547	-0.305711	0.250961
C	6.15628	-0.0019736	1.11173
O	7.23415	0.292882	0.598814
H	6.20017	0.258406	-1.30136
H	4.11383	0.26892	0.638576
C	4.63085	-1.81783	0.291224
H	5.48584	-2.40428	-0.107743
H	4.40794	-2.16017	1.32268
H	3.74279	-2.02739	-0.344057
N	5.99923	-0.0461998	2.44941
C	7.09285	0.239838	3.34849
H	5.1172	-0.279842	2.84523
H	6.76518	0.149372	4.40759
H	7.4742	1.27408	3.18673
H	7.93563	-0.469127	3.18035
