44
  This energy is -3.1749 and Call times are: 23160
C	-3.15837	-0.678831	1.30001
C	-2.13667	0.261236	0.786588
O	-2.40173	1.43973	0.593202
H	-4.1168	-0.135129	1.44718
H	-2.83303	-1.10342	2.273
H	-3.32037	-1.50256	0.57326
N	-0.927501	-0.25081	0.545564
C	0.169621	0.537901	0.0444782
C	1.17178	-0.407355	-0.589091
O	1.10315	-1.61937	-0.393786
H	-0.732163	-1.21871	0.679551
H	-0.1969	1.19738	-0.731938
C	0.843557	1.34667	1.17533
H	1.2178	0.667069	1.97044
H	1.68867	1.95523	0.792942
H	0.0987897	2.03434	1.63203
N	2.11854	0.127274	-1.38522
C	3.10782	-0.696051	-2.04069
H	2.15304	1.1097	-1.5365
H	3.79855	-0.0715792	-2.64911
H	2.61885	-1.43619	-2.71474
H	3.71105	-1.25759	-1.29104
C	7.51219	-2.36309	-2.54664
C	7.1071	-1.08892	-1.91135
O	6.35461	-0.309822	-2.4799
H	7.03737	-2.44106	-3.5488
H	7.18276	-3.22216	-1.92511
H	8.6154	-2.39662	-2.66804
N	7.61142	-0.843755	-0.69977
C	7.30983	0.352579	0.0449811
C	8.40514	0.548688	1.07507
O	9.19263	-0.358892	1.33581
H	8.2465	-1.47284	-0.259469
H	7.33455	1.20102	-0.627041
C	5.93577	0.248757	0.743762
H	5.91369	-0.623071	1.43191
H	5.70032	1.16832	1.318
H	5.14222	0.104115	-0.0214202
N	8.49366	1.75377	1.67167
C	9.51187	2.0365	2.6563
H	7.85142	2.47762	1.44186
H	9.41789	3.07965	3.03081
H	10.5283	1.91195	2.21732
H	9.42312	1.3431	3.52377
