44
  This energy is -2.1019 and Call times are: 742
C	-0.224947	3.45796	-0.343596
C	0.231361	2.24857	0.377771
O	0.988981	2.33098	1.3347
H	0.230896	4.35799	0.123315
H	-1.33042	3.54382	-0.28541
H	0.0861507	3.40884	-1.40837
N	-0.223834	1.07918	-0.0779514
C	0.130572	-0.183744	0.518919
C	-0.108384	-1.26969	-0.512035
O	-0.76117	-1.03908	-1.52817
H	-0.817375	1.0232	-0.876395
H	1.18778	-0.178394	0.752042
C	-0.707278	-0.461422	1.78699
H	-1.79135	-0.46554	1.54433
H	-0.436837	-1.43302	2.2492
H	-0.524267	0.341635	2.53382
N	0.437088	-2.48039	-0.282569
C	0.272823	-3.572	-1.21402
H	0.968024	-2.64515	0.54217
H	0.793391	-4.48387	-0.84694
H	0.694018	-3.3051	-2.21031
H	-0.806129	-3.81451	-1.34904
C	10.886	-1.76856	-1.33556
C	10.1125	-1.24909	-0.185306
O	10.3897	-1.57293	0.961342
H	11.6827	-2.44963	-0.964936
H	11.3588	-0.929929	-1.88868
H	10.2199	-2.33396	-2.02083
N	9.10476	-0.422145	-0.473296
C	8.26197	0.16476	0.537682
C	6.96634	0.590276	-0.12529
O	6.87606	0.646874	-1.35023
H	8.87067	-0.188916	-1.41337
H	8.02132	-0.589243	1.27636
C	8.9439	1.38198	1.20135
H	9.18999	2.15323	0.440613
H	8.29775	1.83622	1.98041
H	9.89226	1.05729	1.68233
N	5.92085	0.879923	0.67411
C	4.644	1.28251	0.13211
H	6.01174	0.821247	1.66281
H	3.91434	1.47827	0.948518
H	4.22788	0.485879	-0.526277
H	4.74951	2.21125	-0.474099
