44
  This energy is -4.0742 and Call times are: 658
C	-2.39572	1.78182	1.79213
C	-0.988741	1.46929	1.45461
O	-0.0674626	2.13937	1.90041
H	-2.42448	2.66872	2.4618
H	-2.86391	0.921441	2.31497
H	-2.96934	2.00968	0.869099
N	-0.791044	0.429724	0.640616
C	0.520291	0.00291868	0.222208
C	0.362273	-0.811371	-1.04712
O	-0.743435	-1.21718	-1.40005
H	-1.55143	-0.0903515	0.260783
H	1.11416	0.875515	-0.0185591
C	1.21121	-0.844045	1.31418
H	0.59895	-1.73803	1.55921
H	2.22121	-1.17422	0.995347
H	1.31997	-0.236692	2.23908
N	1.46894	-1.05136	-1.77767
C	1.41354	-1.80743	-3.00708
H	2.35345	-0.708325	-1.47899
H	2.42586	-1.89791	-3.45905
H	0.7436	-1.30927	-3.74482
H	1.01982	-2.83279	-2.82054
C	8.17033	-1.64545	-3.06372
C	8.23903	-1.65155	-1.58505
O	8.11231	-2.68953	-0.950216
H	7.99025	-2.68045	-3.4273
H	9.12697	-1.27631	-3.48963
H	7.33826	-0.99453	-3.40565
N	8.43891	-0.47035	-0.995825
C	8.52919	-0.315488	0.434103
C	8.23319	1.13431	0.76533
O	8.22321	1.99117	-0.116446
H	8.5115	0.372357	-1.52262
H	7.76505	-0.922592	0.902708
C	9.93114	-0.703803	0.954547
H	10.7127	-0.0795041	0.471255
H	10.0041	-0.585878	2.05525
H	10.1364	-1.76756	0.704626
N	7.96225	1.43934	2.04968
C	7.65727	2.79106	2.45714
H	7.96822	0.730578	2.74743
H	7.46543	2.838	3.55179
H	6.75263	3.16675	1.92637
H	8.5051	3.47382	2.22008
