44
  This energy is -0.9263 and Call times are: 21556
C	0.172572	3.47659	0.0984135
C	0.673616	2.13717	0.480673
O	1.72383	2.00605	1.09415
H	0.889431	4.25066	0.448829
H	-0.816075	3.66355	0.567927
H	0.0767886	3.54884	-1.00547
N	-0.0777837	1.0962	0.114409
C	0.277332	-0.267977	0.413959
C	-0.465331	-1.16643	-0.555818
O	-1.39415	-0.729143	-1.23251
H	-0.91653	1.21433	-0.410459
H	1.33753	-0.401814	0.240363
C	-0.089309	-0.638256	1.86846
H	-1.17753	-0.499156	2.04326
H	0.182913	-1.68796	2.10252
H	0.460218	0.027741	2.5689
N	-0.0558534	-2.44596	-0.661356
C	-0.695155	-3.37166	-1.5672
H	0.702288	-2.77893	-0.110371
H	-0.216709	-4.37404	-1.50754
H	-0.61913	-3.009	-2.61789
H	-1.77521	-3.48316	-1.31775
C	8.02054	1.09485	3.30553
C	7.99438	1.35384	1.84833
O	7.79832	2.47866	1.40921
H	7.83516	2.04565	3.85094
H	9.01241	0.696041	3.60547
H	7.23058	0.363903	3.57873
N	8.18919	0.298036	1.0548
C	8.19217	0.391088	-0.383309
C	7.91631	-0.992007	-0.940255
O	7.98672	-1.98552	-0.219278
H	8.31887	-0.618265	1.42428
H	7.38294	1.03889	-0.695668
C	9.54656	0.915583	-0.910236
H	10.3746	0.249028	-0.587392
H	9.55226	0.988606	-2.01722
H	9.73746	1.92877	-0.494116
N	7.57247	-1.0854	-2.23989
C	7.28004	-2.35934	-2.85449
H	7.51398	-0.269039	-2.80502
H	7.02001	-2.22763	-3.92794
H	6.42206	-2.85401	-2.34419
H	8.16008	-3.03923	-2.78769
