44
  This energy is -3.7437 and Call times are: 7242
C	1.1585	-0.0359575	-3.2837
C	0.386158	-0.630067	-2.16938
O	-0.326511	-1.60874	-2.34485
H	0.961543	-0.61083	-4.21461
H	2.24531	-0.0758413	-3.0599
H	0.852437	1.01966	-3.44163
N	0.509214	-0.0364997	-0.979884
C	-0.178842	-0.49846	0.199099
C	-0.237599	0.652016	1.1851
O	0.459633	1.65225	1.02625
H	1.07018	0.777715	-0.856144
H	-1.19624	-0.756907	-0.0658287
C	0.544042	-1.7068	0.835073
H	1.58768	-1.43835	1.10501
H	0.0168131	-2.06515	1.74304
H	0.581525	-2.54227	0.102456
N	-1.09303	0.544562	2.2208
C	-1.22583	1.59495	3.20327
H	-1.65391	-0.269781	2.32801
H	-1.97694	1.3183	3.97564
H	-1.55238	2.5448	2.7212
H	-0.252589	1.78273	3.71191
C	9.09014	-1.70051	-0.541693
C	8.01755	-0.780644	-0.982811
O	8.10985	-0.158188	-2.03187
H	9.91103	-1.69384	-1.29133
H	8.69455	-2.73402	-0.451189
H	9.49602	-1.37323	0.438661
N	6.96154	-0.669653	-0.17356
C	5.83869	0.184882	-0.466501
C	5.11638	0.468112	0.8363
O	5.35441	-0.19494	1.84404
H	6.91132	-1.15985	0.692534
H	6.2053	1.12813	-0.851153
C	4.87466	-0.478948	-1.47501
H	4.501	-1.44667	-1.0775
H	4.00901	0.176403	-1.70292
H	5.41608	-0.682346	-2.42456
N	4.22739	1.48077	0.850808
C	3.50075	1.83125	2.04886
H	4.05395	2.01017	0.0268605
H	2.81749	2.68796	1.85792
H	4.2032	2.11825	2.8646
H	2.8914	0.969373	2.40529
