44
  This energy is -0.8211 and Call times are: 8042
C	0.833931	-3.11883	1.30522
C	0.27381	-1.75598	1.44702
O	-0.288961	-1.40727	2.4757
H	0.642964	-3.69326	2.23765
H	1.92966	-3.06617	1.13365
H	0.351678	-3.64434	0.454205
N	0.413635	-0.945038	0.395742
C	-0.0783589	0.409434	0.382506
C	-0.224315	0.837987	-1.06466
O	0.288272	0.181741	-1.96933
H	0.84833	-1.25033	-0.44733
H	-1.0627	0.430654	0.832725
C	0.882891	1.36433	1.12499
H	1.89192	1.33956	0.660928
H	0.507015	2.40809	1.11684
H	0.982217	1.03896	2.18349
N	-0.950286	1.94452	-1.31872
C	-1.15357	2.42189	-2.66667
H	-1.36304	2.45786	-0.573503
H	-1.77521	3.34429	-2.66763
H	-1.66993	1.65063	-3.28292
H	-0.178441	2.65565	-3.15213
C	4.36428	2.82413	0.0790644
C	4.66511	1.44886	-0.37848
O	3.84449	0.799209	-1.01175
H	3.33603	3.1008	-0.240341
H	5.08447	3.54186	-0.367045
H	4.42417	2.88093	1.18637
N	5.86765	0.966544	-0.0565813
C	6.30582	-0.35434	-0.430884
C	7.43385	-0.75251	0.500917
O	7.98727	0.0845013	1.21152
H	6.51634	1.49486	0.484737
H	5.49168	-1.05149	-0.278472
C	6.79003	-0.391787	-1.8976
H	7.62481	0.325057	-2.05057
H	7.128	-1.40744	-2.18916
H	5.955	-0.0970324	-2.5699
N	7.78728	-2.05249	0.534781
C	8.84227	-2.52643	1.39997
H	7.32254	-2.71568	-0.0426506
H	8.9844	-3.62333	1.28227
H	8.59925	-2.317	2.46689
H	9.80511	-2.02022	1.15939
