44
  This energy is -6.9353 and Call times are: 24922
C	1.21901	-1.24633	-3.01443
C	0.944984	-1.38094	-1.56599
O	1.11678	-2.44415	-0.985855
H	1.57016	-2.22247	-3.41407
H	2.00747	-0.483484	-3.18535
H	0.294579	-0.949087	-3.55297
N	0.499536	-0.287614	-0.942627
C	0.189231	-0.261843	0.464454
C	-0.745551	0.905675	0.7141
O	-0.906862	1.77551	-0.139835
H	0.335937	0.564696	-1.43226
H	-0.341005	-1.1692	0.72451
C	1.46719	-0.111486	1.31963
H	2.00902	0.820024	1.04977
H	1.2319	-0.0914407	2.40361
H	2.14408	-0.972168	1.12678
N	-1.40318	0.939578	1.88984
C	-2.3228	2.00611	2.21079
H	-1.26455	0.222521	2.56501
H	-2.76092	1.85653	3.22219
H	-3.15461	2.04369	1.47057
H	-1.80276	2.99126	2.19606
C	4.98832	3.43321	-0.575675
C	4.4475	2.0818	-0.844785
O	3.47913	1.92187	-1.57497
H	4.37961	4.18751	-1.12008
H	6.04026	3.50075	-0.924501
H	4.94495	3.65338	0.511794
N	5.06941	1.06397	-0.245107
C	4.66044	-0.308078	-0.409617
C	5.2055	-1.10047	0.762674
O	6.06729	-0.622599	1.49806
H	5.83922	1.20981	0.370574
H	3.57988	-0.36054	-0.36814
C	5.18553	-0.896085	-1.73839
H	6.29432	-0.840059	-1.77787
H	4.87232	-1.9524	-1.86833
H	4.78007	-0.306196	-2.58915
N	4.69621	-2.32952	0.977251
C	5.14541	-3.15232	2.07607
H	3.99429	-2.69569	0.375199
H	4.60896	-4.12671	2.08264
H	4.95959	-2.64337	3.04956
H	6.23806	-3.35408	1.99499
