44
  This energy is -2.1082 and Call times are: 25756
C	0.556443	2.89354	1.85578
C	0.457537	2.17303	0.566482
O	0.506207	2.77275	-0.498632
H	0.665442	3.98251	1.66054
H	1.44204	2.54005	2.42462
H	-0.360718	2.72659	2.45901
N	0.308062	0.848272	0.637444
C	0.197858	0.0104701	-0.529934
C	-0.464215	-1.28773	-0.110903
O	-0.574727	-1.58188	1.07783
H	0.240571	0.374683	1.51157
H	-0.451025	0.493318	-1.24957
C	1.58388	-0.275892	-1.14966
H	2.2472	-0.770639	-0.408479
H	1.50268	-0.920618	-2.04883
H	2.05888	0.683026	-1.45132
N	-0.941946	-2.0883	-1.08397
C	-1.59836	-3.33838	-0.779683
H	-0.849168	-1.82925	-2.03975
H	-1.91799	-3.8521	-1.71305
H	-2.49999	-3.16524	-0.14855
H	-0.912434	-4.01721	-0.223015
C	4.68807	0.0224368	-3.34669
C	5.11208	0.715971	-2.10958
O	5.36712	1.9124	-2.11085
H	4.66327	0.750927	-4.18606
H	3.67337	-0.408691	-3.21497
H	5.40447	-0.788556	-3.5957
N	5.20332	-0.0356038	-1.00996
C	5.60242	0.495495	0.268903
C	6.09415	-0.659118	1.11997
O	5.87312	-1.82256	0.789228
H	5.02101	-1.01508	-1.02815
H	6.43308	1.17456	0.124167
C	4.42758	1.21123	0.97217
H	3.57692	0.511876	1.11846
H	4.73146	1.62151	1.95711
H	4.07577	2.05409	0.33816
N	6.79573	-0.361946	2.23149
C	7.31412	-1.39573	3.09679
H	6.97025	0.585615	2.47828
H	7.86007	-0.950773	3.95772
H	8.01667	-2.05784	2.54066
H	6.4867	-2.02686	3.49457
