44
  This energy is -4.4855 and Call times are: 22371
C	0.811687	-0.602863	-3.33224
C	0.546036	-1.06861	-1.95249
O	0.467828	-2.26119	-1.69149
H	0.906388	-1.48275	-4.00506
H	1.7576	-0.0223191	-3.36459
H	-0.024946	0.0340443	-3.68909
N	0.393374	-0.120063	-1.0255
C	0.130509	-0.416377	0.360117
C	-0.487194	0.816312	0.991114
O	-0.451929	1.90205	0.41513
H	0.430411	0.848655	-1.25604
H	-0.597999	-1.21519	0.417039
C	1.42577	-0.803683	1.10805
H	2.17117	0.0177722	1.04707
H	1.22696	-1.03263	2.17521
H	1.86909	-1.70719	0.635498
N	-1.09018	0.670694	2.18745
C	-1.71606	1.78587	2.85889
H	-1.11442	-0.217637	2.63411
H	-2.15438	1.4648	3.82947
H	-2.53043	2.21539	2.23155
H	-0.973014	2.59148	3.05903
C	3.54382	2.86336	1.44503
C	4.1206	2.13525	0.292467
O	4.14336	2.63467	-0.824028
H	3.17054	3.85356	1.1044
H	4.31842	3.02021	2.22491
H	2.69694	2.28882	1.8759
N	4.60181	0.915273	0.542366
C	5.19409	0.0849786	-0.475789
C	5.14269	-1.3517	0.00645041
O	4.89268	-1.61163	1.18193
H	4.55105	0.507858	1.45032
H	4.59614	0.151427	-1.37585
C	6.65562	0.498388	-0.758884
H	7.26605	0.429691	0.166738
H	7.11467	-0.138806	-1.54249
H	6.67976	1.55296	-1.11023
N	5.35825	-2.32392	-0.901478
C	5.31744	-3.72089	-0.536814
H	5.55195	-2.09343	-1.84942
H	5.52147	-4.36423	-1.42097
H	4.31624	-3.99163	-0.129935
H	6.07972	-3.94576	0.243917
