44
  This energy is -0.8094 and Call times are: 34127
C	-3.19617	-0.792677	-1.13238
C	-1.75401	-1.09416	-0.989221
O	-1.29578	-2.1735	-1.33785
H	-3.71347	-1.67281	-1.57241
H	-3.33972	0.0807238	-1.80274
H	-3.64186	-0.57325	-0.139319
N	-0.996776	-0.131339	-0.458247
C	0.42274	-0.275598	-0.255782
C	0.847694	0.7294	0.797134
O	0.097518	1.64427	1.13192
H	-1.38686	0.732695	-0.151296
H	0.623757	-1.26537	0.134108
C	1.20514	-0.0351207	-1.56618
H	0.99607	0.980929	-1.96373
H	2.29848	-0.145565	-1.4139
H	0.883897	-0.776818	-2.32962
N	2.06057	0.568038	1.36185
C	2.5452	1.46888	2.38155
H	2.65004	-0.182768	1.08248
H	3.56242	1.17067	2.71856
H	1.86727	1.46278	3.26564
H	2.59623	2.51169	1.9928
C	8.18694	3.12768	0.364334
C	6.99614	2.24926	0.324734
O	5.88653	2.67442	0.615433
H	7.88142	4.14613	0.688822
H	8.64663	3.19466	-0.644138
H	8.93257	2.72962	1.08442
N	7.20629	0.981384	-0.0367882
C	6.14769	0.00729186	-0.122442
C	6.77466	-1.37077	-0.0381613
O	7.98801	-1.51855	-0.171466
H	8.11938	0.639827	-0.243048
H	5.49268	0.123464	0.73169
C	5.35632	0.151138	-1.44159
H	6.03145	0.0320731	-2.31574
H	4.54033	-0.597298	-1.51074
H	4.90303	1.16512	-1.49172
N	5.95888	-2.41465	0.20843
C	6.46772	-3.762	0.317519
H	4.98071	-2.2736	0.320361
H	5.64192	-4.47899	0.520572
H	7.20822	-3.83638	1.14659
H	6.97417	-4.06852	-0.626271
