44
  This energy is -1.2601 and Call times are: 13999
C	-3.06143	-1.40572	0.881887
C	-1.82909	-0.656296	1.21491
O	-1.68439	-0.131699	2.31052
H	-3.75267	-1.38125	1.7522
H	-2.81498	-2.46286	0.648355
H	-3.56686	-0.942664	0.00835072
N	-0.901674	-0.584471	0.257256
C	0.349519	0.10911	0.431299
C	0.896526	0.435674	-0.944701
O	0.429046	-0.0967502	-1.9496
H	-1.04369	-0.991278	-0.641228
H	0.164679	1.04537	0.942502
C	1.36497	-0.750966	1.2163
H	1.55176	-1.71097	0.6894
H	2.32946	-0.219864	1.35225
H	0.951989	-0.984337	2.22185
N	1.89156	1.34108	-1.0231
C	2.46693	1.72358	-2.29149
H	2.25144	1.76614	-0.199059
H	3.27187	2.4775	-2.1468
H	1.69047	2.1635	-2.95844
H	2.90418	0.838397	-2.80768
C	7.37231	-2.22292	2.6712
C	6.71415	-1.72779	1.44121
O	5.79588	-2.34719	0.921974
H	6.90166	-3.18188	2.97902
H	7.25392	-1.48474	3.49212
H	8.45286	-2.39675	2.4838
N	7.18215	-0.583239	0.93787
C	6.64464	0.0244875	-0.25317
C	7.69543	0.964289	-0.81159
O	8.6684	1.29249	-0.13524
H	7.94994	-0.103141	1.35372
H	6.46687	-0.746529	-0.992091
C	5.344	0.801503	0.0496698
H	5.52985	1.59122	0.808564
H	4.92735	1.27059	-0.86528
H	4.5828	0.102212	0.45919
N	7.53296	1.40375	-2.07511
C	8.4885	2.29193	-2.69497
H	6.7426	1.12107	-2.60865
H	8.17796	2.54058	-3.73372
H	9.49649	1.819	-2.73423
H	8.5747	3.24107	-2.118
