44
  This energy is -3.1396 and Call times are: 17117
C	-0.315044	2.89667	-1.90688
C	0.428677	2.03704	-0.958661
O	1.57248	2.30964	-0.621177
H	0.330508	3.74762	-2.21511
H	-1.23063	3.2971	-1.42295
H	-0.598466	2.31523	-2.8094
N	-0.214822	0.958409	-0.506069
C	0.376553	0.0272988	0.421366
C	-0.377051	-1.28374	0.309624
O	-1.45662	-1.34028	-0.276181
H	-1.13592	0.731444	-0.811036
H	1.40248	-0.157045	0.128857
C	0.308419	0.557361	1.87102
H	-0.745418	0.746026	2.16759
H	0.763043	-0.157074	2.58774
H	0.863084	1.51852	1.93933
N	0.189342	-2.37868	0.853973
C	-0.449053	-3.67253	0.786318
H	1.06687	-2.31377	1.31761
H	0.171716	-4.44428	1.29258
H	-0.597835	-3.98229	-0.273474
H	-1.44677	-3.64492	1.28126
C	3.76506	1.44837	2.9564
C	4.83597	1.15836	1.97646
O	5.93969	1.67685	2.0737
H	4.14473	2.1692	3.71279
H	3.45597	0.515233	3.47267
H	2.88728	1.89475	2.44337
N	4.52504	0.312935	0.991099
C	5.46055	-0.0669928	-0.0371486
C	4.66667	-0.579113	-1.2232
O	3.4732	-0.852366	-1.11
H	3.61337	-0.0802635	0.90623
H	6.00447	0.811616	-0.360059
C	6.43295	-1.15871	0.462574
H	5.87156	-2.05834	0.793675
H	7.15477	-1.45348	-0.326639
H	7.00759	-0.771616	1.33211
N	5.31044	-0.700594	-2.40082
C	4.63313	-1.16886	-3.58748
H	6.27462	-0.467608	-2.47379
H	5.33194	-1.20107	-4.45227
H	3.78476	-0.495071	-3.84733
H	4.22444	-2.19301	-3.42849
