44
  This energy is -7.0951 and Call times are: 22171
C	-1.99342	-1.70925	2.28711
C	-0.698624	-1.12536	1.87024
O	0.24988	-1.07471	2.64113
H	-1.92068	-2.04736	3.34364
H	-2.24353	-2.58142	1.64712
H	-2.79933	-0.949567	2.20754
N	-0.633228	-0.658884	0.621046
C	0.557811	-0.0628189	0.0706259
C	0.146617	0.794599	-1.11047
O	-0.976871	0.693488	-1.59974
H	-1.42172	-0.679469	0.0121131
H	0.999919	0.589766	0.81275
C	1.56872	-1.14024	-0.381416
H	1.11166	-1.80835	-1.14223
H	2.48705	-0.684727	-0.805604
H	1.86108	-1.76228	0.492504
N	1.04615	1.67931	-1.5839
C	0.739421	2.54607	-2.69782
H	1.94759	1.75109	-1.16979
H	1.60715	3.19901	-2.93859
H	-0.133498	3.1965	-2.46077
H	0.488481	1.94807	-3.6037
C	4.85288	-1.54591	-3.11995
C	5.07783	-1.5731	-1.65712
O	5.30899	-2.62228	-1.07208
H	4.9258	-2.57977	-3.52203
H	5.62057	-0.913465	-3.61338
H	3.8427	-1.14336	-3.34455
N	5.0078	-0.39955	-1.02447
C	5.20404	-0.264863	0.396858
C	4.55892	1.03552	0.835096
O	4.22045	1.8795	0.00746636
H	4.78995	0.444122	-1.50789
H	4.69013	-1.07333	0.901182
C	6.7059	-0.261495	0.759509
H	7.23016	0.568731	0.239898
H	6.8606	-0.158089	1.8532
H	7.16707	-1.21877	0.432248
N	4.35323	1.21777	2.15437
C	3.73455	2.41941	2.66376
H	4.62765	0.519895	2.80774
H	3.65501	2.3811	3.77257
H	2.71035	2.5427	2.24297
H	4.33239	3.31749	2.38586
