44
  This energy is -1.7483 and Call times are: 30958
C	-0.338531	-2.83297	-1.99645
C	0.0459317	-1.41697	-1.80067
O	0.619109	-0.789661	-2.6807
H	-0.0182645	-3.16398	-3.00824
H	-1.44005	-2.94528	-1.91356
H	0.156247	-3.47274	-1.23564
N	-0.26183	-0.876852	-0.619176
C	0.0469809	0.489334	-0.280058
C	0.0482362	0.605228	1.23183
O	-0.42757	-0.287239	1.93108
H	-0.702778	-1.40682	0.100292
H	1.04538	0.721325	-0.628573
C	-0.984523	1.46648	-0.886933
H	-2.00772	1.22519	-0.52782
H	-0.749651	2.51934	-0.627889
H	-0.976529	1.37103	-1.99462
N	0.606537	1.70541	1.77396
C	0.664103	1.89687	3.20442
H	0.99266	2.41308	1.19143
H	1.15849	2.86192	3.45242
H	1.23892	1.07415	3.6881
H	-0.360662	1.90533	3.64141
C	4.96881	2.09162	-2.65714
C	4.60125	1.13119	-1.59239
O	3.42995	0.887177	-1.33745
H	4.0436	2.50164	-3.11729
H	5.56544	1.58201	-3.44273
H	5.55942	2.92926	-2.22996
N	5.61254	0.560839	-0.933339
C	5.4144	-0.393739	0.127957
C	6.67706	-0.426445	0.966921
O	7.71753	0.0846776	0.557026
H	6.56203	0.78983	-1.13074
H	4.60663	-0.0517924	0.762496
C	5.1115	-1.8018	-0.431264
H	5.94191	-2.14922	-1.0823
H	4.95825	-2.53926	0.383254
H	4.18508	-1.76414	-1.04484
N	6.60784	-1.01338	2.178
C	7.75617	-1.08147	3.05144
H	5.75482	-1.41498	2.49472
H	7.49877	-1.60326	3.99945
H	8.12039	-0.0588189	3.30199
H	8.59012	-1.63468	2.56189
