44
  This energy is -3.8078 and Call times are: 29390
C	0.743358	-2.92274	-1.74102
C	-0.135178	-2.11957	-0.861075
O	-1.24657	-2.51898	-0.542047
H	0.221207	-3.86315	-2.02183
H	1.68472	-3.17893	-1.2109
H	0.982473	-2.35481	-2.66472
N	0.351253	-0.946813	-0.448296
C	-0.384523	-0.054429	0.411421
C	0.2014	1.33496	0.251674
O	1.28494	1.49997	-0.305589
H	1.24646	-0.619433	-0.738734
H	-1.41472	-0.0169975	0.0807032
C	-0.300565	-0.499813	1.88848
H	0.757701	-0.537766	2.22426
H	-0.866156	0.185047	2.5532
H	-0.731807	-1.51936	1.99194
N	-0.516934	2.37406	0.721019
C	-0.0445997	3.73389	0.602939
H	-1.39487	2.22054	1.16249
H	-0.774821	4.44402	1.04986
H	0.100705	4.00779	-0.467156
H	0.93086	3.85804	1.12662
C	5.19328	-3.44043	-0.451141
C	4.96595	-2.2547	0.405338
O	4.62761	-2.37462	1.5748
H	5.00153	-4.36243	0.139634
H	6.24338	-3.45644	-0.811467
H	4.50432	-3.42164	-1.32173
N	5.14465	-1.06381	-0.171047
C	4.96179	0.180464	0.532637
C	4.7305	1.26873	-0.497613
O	4.96903	1.06911	-1.68719
H	5.39202	-0.978921	-1.13258
H	4.07086	0.111403	1.14383
C	6.19404	0.522787	1.39952
H	7.10633	0.592201	0.769426
H	6.05654	1.48021	1.94286
H	6.35343	-0.282541	2.14931
N	4.2367	2.44523	-0.0640118
C	3.97314	3.53549	-0.973984
H	4.04346	2.58482	0.9016
H	3.57228	4.41671	-0.426246
H	3.2274	3.23272	-1.74434
H	4.9062	3.84359	-1.499
