44
  This energy is -1.056 and Call times are: 700
C	-0.0431673	-3.35881	0.917984
C	0.353021	-1.95135	1.14888
O	0.896718	-1.60996	2.19019
H	0.227708	-3.96735	1.80802
H	0.486429	-3.76465	0.0304939
H	-1.13968	-3.42634	0.75661
N	0.0786674	-1.08937	0.166998
C	0.403433	0.312555	0.244209
C	-0.478472	1.05023	-0.744382
O	-1.10499	0.437492	-1.60685
H	-0.390864	-1.37436	-0.66442
H	0.161905	0.675628	1.23513
C	1.89261	0.563763	-0.0819349
H	2.13708	0.189484	-1.09892
H	2.14613	1.64222	-0.0232576
H	2.52803	0.0171268	0.648523
N	-0.564455	2.38993	-0.62679
C	-1.38878	3.17513	-1.51569
H	-0.0553122	2.86671	0.0822128
H	-1.32515	4.2556	-1.25924
H	-2.45497	2.86002	-1.44368
H	-1.06112	3.04565	-2.5726
C	8.36992	-0.831304	1.59817
C	9.84852	-0.802985	1.53398
O	10.5299	-1.15738	2.48614
H	8.05268	-1.19931	2.59807
H	7.96617	-1.51251	0.819861
H	7.96039	0.189258	1.44427
N	10.3842	-0.367352	0.39135
C	11.8069	-0.282683	0.177354
C	12.0505	0.699886	-0.951548
O	11.1263	1.0703	-1.67296
H	9.81841	-0.0539119	-0.366627
H	12.2735	0.117733	1.06841
C	12.405	-1.66166	-0.180179
H	11.9235	-2.0698	-1.09437
H	13.5003	-1.60011	-0.345467
H	12.2188	-2.37258	0.654131
N	13.305	1.16348	-1.11689
C	13.6294	2.11095	-2.15767
H	14.0379	0.85712	-0.518274
H	14.7112	2.36853	-2.13174
H	13.0425	3.0495	-2.03141
H	13.3935	1.68857	-3.16121
