44
  This energy is 0.1047 and Call times are: 4806
C	3.26943	-0.455438	1.10883
C	1.96999	0.25269	1.1435
O	1.73559	1.10334	1.99082
H	3.91092	-0.0866725	1.93852
H	3.78419	-0.263323	0.143979
H	3.11363	-1.54777	1.23323
N	1.08068	-0.0939338	0.210048
C	-0.226287	0.505709	0.114627
C	-1.11776	-0.441591	-0.664564
O	-0.636527	-1.37695	-1.30123
H	1.27275	-0.809048	-0.456776
H	-0.641518	0.604629	1.10955
C	-0.165008	1.87883	-0.590991
H	0.262071	1.77376	-1.61113
H	-1.16965	2.34342	-0.666019
H	0.491925	2.56315	-0.0110791
N	-2.448	-0.232168	-0.613684
C	-3.37531	-1.08991	-1.31408
H	-2.81845	0.525949	-0.0871249
H	-4.42277	-0.753318	-1.15044
H	-3.28506	-2.14116	-0.956343
H	-3.17048	-1.07908	-2.40912
C	11.6482	-0.0832558	-1.11403
C	10.4399	0.652168	-0.677779
O	10.4661	1.86194	-0.498195
H	12.4934	0.630654	-1.22271
H	11.4646	-0.574414	-2.09274
H	11.9215	-0.851781	-0.360622
N	9.33756	-0.0770802	-0.489467
C	8.0846	0.495271	-0.0660035
C	7.24484	-0.614885	0.535329
O	7.55218	-1.79421	0.372354
H	9.33653	-1.06611	-0.610971
H	8.27535	1.22231	0.713161
C	7.33514	1.14667	-1.24969
H	7.14169	0.39816	-2.04746
H	6.36999	1.5885	-0.927116
H	7.96121	1.95733	-1.68212
N	6.17058	-0.259606	1.26728
C	5.31917	-1.24733	1.8883
H	5.94257	0.700245	1.39348
H	4.48957	-0.757642	2.44437
H	5.90021	-1.87237	2.60452
H	4.87635	-1.92284	1.12099
