44
  This energy is 0.1198 and Call times are: 15963
C	-2.01769	-0.0258963	2.83802
C	-1.781	0.293569	1.41215
O	-2.68386	0.708466	0.69856
H	-3.08407	0.167499	3.08563
H	-1.37756	0.610967	3.48413
H	-1.79159	-1.09531	3.03343
N	-0.5407	0.0978931	0.958573
C	-0.156007	0.363326	-0.404652
C	1.10224	-0.430863	-0.696748
O	1.75151	-0.93806	0.215958
H	0.179057	-0.268136	1.54245
H	-0.933501	0.00287347	-1.0662
C	0.101331	1.8695	-0.633404
H	0.899017	2.2361	0.0473435
H	0.397601	2.07744	-1.6821
H	-0.827456	2.44028	-0.414964
N	1.46469	-0.575717	-1.98657
C	2.64114	-1.32521	-2.36128
H	0.922144	-0.163687	-2.71122
H	2.77059	-1.32753	-3.46604
H	2.56079	-2.38128	-2.01561
H	3.55347	-0.88014	-1.90221
C	4.11125	2.61427	0.634118
C	3.46794	1.33425	1.00681
O	3.84106	0.699703	1.98386
H	4.92461	2.84079	1.3573
H	3.36738	3.43816	0.6603
H	4.54628	2.5417	-0.384913
N	2.47391	0.918527	0.218484
C	1.75131	-0.306307	0.451834
C	1.09951	-0.718672	-0.853676
O	1.02221	0.0695798	-1.79416
H	2.19855	1.42981	-0.591268
H	2.45396	-1.08219	0.728153
C	0.67753	-0.125811	1.54798
H	-0.0412342	0.671346	1.26156
H	0.119338	-1.06707	1.73029
H	1.16762	0.177342	2.4988
N	0.632489	-1.9792	-0.948385
C	0.00714609	-2.46455	-2.15651
H	0.71087	-2.60421	-0.178677
H	-0.311331	-3.52351	-2.03636
H	0.714235	-2.40653	-3.01552
H	-0.890854	-1.85449	-2.4067
