44
  This energy is -0.7715 and Call times are: 1802
C	-1.11059	-2.72684	1.85932
C	-1.28916	-1.36028	1.3191
O	-2.35002	-0.764167	1.44446
H	-2.05501	-3.05629	2.34449
H	-0.296446	-2.73643	2.61424
H	-0.862323	-3.43325	1.03939
N	-0.237918	-0.829045	0.690567
C	-0.257972	0.490833	0.112339
C	0.843362	0.560694	-0.927575
O	1.71701	-0.303093	-0.976918
H	0.611328	-1.33606	0.569502
H	-1.20167	0.637263	-0.397628
C	-0.0431843	1.57932	1.18759
H	0.92553	1.42568	1.70923
H	-0.0582054	2.59686	0.745808
H	-0.855685	1.5168	1.94395
N	0.813801	1.5861	-1.80146
C	1.814	1.72824	-2.83373
H	0.0944867	2.27103	-1.74966
H	1.61827	2.63408	-3.44887
H	1.81276	0.840493	-3.50689
H	2.83011	1.82092	-2.38641
C	6.76052	-1.10158	-3.26374
C	7.21724	-0.907154	-1.86918
O	8.27499	-1.38117	-1.47809
H	7.50839	-1.71367	-3.81319
H	6.65592	-0.120171	-3.77239
H	5.78412	-1.63019	-3.27667
N	6.41197	-0.197909	-1.0749
C	6.7197	0.076283	0.30603
C	5.42271	0.417729	1.01347
O	4.40496	0.672097	0.372126
H	5.53898	0.158274	-1.39732
H	7.11717	-0.821161	0.762849
C	7.72058	1.24589	0.437776
H	7.30991	2.16476	-0.0324969
H	7.95983	1.45959	1.49979
H	8.6659	0.98383	-0.0855107
N	5.42479	0.409623	2.36103
C	4.23352	0.710485	3.12033
H	6.25669	0.194271	2.86183
H	4.43833	0.653797	4.21216
H	3.42049	-0.0117689	2.87829
H	3.86598	1.73558	2.88521
