44
  This energy is -1.3175 and Call times are: 8328
C	-1.71409	-2.00551	-2.27287
C	-1.51792	-0.725119	-1.55641
O	-2.17378	0.266977	-1.84294
H	-2.49931	-1.87552	-3.04902
H	-2.03784	-2.79545	-1.56294
H	-0.76926	-2.3169	-2.76611
N	-0.590206	-0.718883	-0.596378
C	-0.285353	0.450742	0.188395
C	1.10098	0.269635	0.775351
O	1.65011	-0.830427	0.762831
H	-0.0421619	-1.52564	-0.392104
H	-0.256154	1.31432	-0.463879
C	-1.31849	0.654505	1.31898
H	-1.3463	-0.233551	1.98584
H	-1.08684	1.55434	1.92512
H	-2.32992	0.784773	0.876041
N	1.71033	1.35743	1.28662
C	3.03561	1.28347	1.85612
H	1.25228	2.24026	1.28097
H	3.3617	2.28119	2.22419
H	3.77085	0.932845	1.09604
H	3.05658	0.570056	2.71156
C	8.49626	-1.96823	2.67536
C	8.75964	-0.979928	1.60527
O	9.83951	-0.411334	1.52119
H	9.39796	-2.06196	3.31879
H	8.26646	-2.95996	2.23208
H	7.64115	-1.63628	3.30109
N	7.75811	-0.746714	0.753848
C	7.86262	0.186912	-0.338969
C	6.45766	0.583743	-0.748695
O	5.48382	-0.054912	-0.354257
H	6.8733	-1.19475	0.850351
H	8.36855	1.07909	0.00762178
C	8.61078	-0.43405	-1.53971
H	8.08941	-1.34946	-1.89228
H	8.69316	0.282206	-2.3829
H	9.63804	-0.721526	-1.22627
N	6.31916	1.6677	-1.53727
C	5.01953	2.12753	-1.96822
H	7.11901	2.17542	-1.84007
H	5.11504	3.03035	-2.61091
H	4.38396	2.3875	-1.09089
H	4.49591	1.33572	-2.55136
