44
  This energy is -3.2095 and Call times are: 32104
C	-0.410708	1.21882	3.23604
C	-0.313951	0.103278	2.26784
O	-0.273093	-1.05977	2.64487
H	-0.428513	0.808152	4.26894
H	-1.34324	1.79602	3.0627
H	0.465547	1.89288	3.13232
N	-0.268635	0.440733	0.97693
C	-0.174546	-0.531824	-0.0823659
C	0.369168	0.16956	-1.31187
O	0.408063	1.39715	-1.36961
H	-0.273309	1.39311	0.683851
H	0.538179	-1.29513	0.203054
C	-1.55168	-1.15912	-0.394007
H	-2.28058	-0.373189	-0.685804
H	-1.48283	-1.90855	-1.20911
H	-1.93963	-1.66873	0.514806
N	0.824253	-0.599723	-2.32038
C	1.3707	-0.0204204	-3.52537
H	0.790785	-1.59138	-2.25167
H	1.68845	-0.815823	-4.23503
H	2.25618	0.613431	-3.29
H	0.612874	0.619699	-4.03244
C	5.18606	-1.24356	-3.24004
C	5.28256	-1.40274	-1.77152
O	5.50133	-2.49536	-1.26673
H	5.33342	-2.23196	-3.72708
H	5.96941	-0.544558	-3.60138
H	4.18488	-0.851769	-3.51771
N	5.11251	-0.297133	-1.04276
C	5.1779	-0.292157	0.396865
C	4.44763	0.940977	0.892163
O	4.15118	1.84923	0.118201
H	4.90592	0.581745	-1.46446
H	4.65293	-1.15979	0.775933
C	6.64089	-0.278494	0.893445
H	7.17668	0.612541	0.502157
H	6.6949	-0.274787	2.00153
H	7.16522	-1.18623	0.522969
N	4.12009	0.990998	2.19839
C	3.41366	2.11991	2.75757
H	4.36252	0.242745	2.80714
H	3.23859	1.97419	3.84632
H	2.42641	2.25201	2.25844
H	3.99887	3.05771	2.61889
