44
  This energy is -6.8207 and Call times are: 15553
C	-0.0123458	0.270889	3.47168
C	-0.349568	-0.445181	2.22079
O	-0.822147	-1.57326	2.24543
H	-0.251653	-0.377824	4.34218
H	-0.604124	1.20727	3.54791
H	1.07053	0.515593	3.49275
N	-0.103888	0.204731	1.08078
C	-0.37873	-0.360517	-0.216052
C	0.468855	0.376528	-1.23468
O	1.02554	1.43323	-0.942598
H	0.308388	1.11187	1.07319
H	-0.0699127	-1.39815	-0.220235
C	-1.8752	-0.234234	-0.579022
H	-2.18879	0.831479	-0.573135
H	-2.09035	-0.668622	-1.57692
H	-2.48535	-0.777259	0.175289
N	0.604189	-0.179351	-2.4548
C	1.40148	0.444348	-3.48509
H	0.151581	-1.03858	-2.6695
H	1.38711	-0.164337	-4.41597
H	2.45941	0.551183	-3.1525
H	1.01046	1.45983	-3.72399
C	3.05624	-1.91876	2.36128
C	3.50675	-0.614909	1.82442
O	3.11136	0.437983	2.30565
H	2.35018	-1.74548	3.20231
H	3.92551	-2.49929	2.73567
H	2.53716	-2.49982	1.57016
N	4.35417	-0.658864	0.793736
C	4.88089	0.525462	0.163845
C	5.35209	0.143671	-1.22592
O	5.4848	-1.03703	-1.5424
H	4.64614	-1.52272	0.391948
H	4.08362	1.24952	0.0535138
C	6.0518	1.12151	0.976745
H	6.86764	0.375838	1.08858
H	6.45965	2.03365	0.494627
H	5.69397	1.39596	1.993
N	5.59608	1.14068	-2.09911
C	6.03682	0.8726	-3.4482
H	5.47592	2.08951	-1.82615
H	6.18472	1.82148	-4.00944
H	5.28424	0.257193	-3.9924
H	7.00086	0.314225	-3.44313
