44
  This energy is -1.2782 and Call times are: 30698
C	0.512263	-3.26062	1.11
C	-0.356934	-2.19079	0.570401
O	-1.50259	-2.42696	0.21236
H	-0.0457004	-4.22215	1.10996
H	0.813524	-3.02002	2.15123
H	1.4194	-3.37146	0.479309
N	0.181272	-0.9714	0.494293
C	-0.539232	0.171019	-0.00828201
C	0.477293	1.21156	-0.436296
O	1.65589	1.11466	-0.0996222
H	1.12526	-0.797692	0.76195
H	-1.09787	-0.124192	-0.887398
C	-1.48129	0.759009	1.06592
H	-0.904991	1.06018	1.96663
H	-2.03775	1.63873	0.682221
H	-2.22029	-0.0132837	1.37184
N	0.0453241	2.2255	-1.21174
C	0.943552	3.25626	-1.67748
H	-0.910888	2.28242	-1.47942
H	0.399179	4.00069	-2.29935
H	1.76114	2.81612	-2.29317
H	1.40837	3.79058	-0.817462
C	8.70633	-0.938051	-2.79289
C	8.00549	-1.2571	-1.52868
O	7.84838	-2.41524	-1.16741
H	9.01704	-1.88305	-3.28918
H	9.60996	-0.327031	-2.5857
H	8.03099	-0.379301	-3.47456
N	7.55688	-0.217883	-0.820763
C	6.85647	-0.367932	0.429734
C	6.06448	0.901573	0.675398
O	6.28404	1.91671	0.0172758
H	7.66551	0.71972	-1.14019
H	6.15068	-1.18416	0.341972
C	7.83717	-0.616638	1.59742
H	8.56021	0.222291	1.68416
H	7.30118	-0.732785	2.56179
H	8.41203	-1.54863	1.40487
N	5.10416	0.866273	1.62013
C	4.29143	2.02328	1.91507
H	4.93691	0.0331484	2.13701
H	3.56075	1.79521	2.72212
H	3.72582	2.34679	1.01137
H	4.92701	2.87556	2.248
