44
  This energy is -4.4646 and Call times are: 32727
C	-1.20923	-2.4472	-2.1622
C	-0.405134	-1.2351	-1.88751
O	0.328167	-0.755602	-2.74124
H	-1.01318	-2.79031	-3.20129
H	-2.29106	-2.22065	-2.05667
H	-0.931371	-3.25885	-1.45725
N	-0.523657	-0.709055	-0.666204
C	0.194003	0.469188	-0.249626
C	0.240496	0.474871	1.26597
O	-0.4832	-0.2738	1.91988
H	-1.10215	-1.12582	0.0299201
H	1.21303	0.406189	-0.609744
C	-0.489212	1.75554	-0.765014
H	-1.53464	1.81662	-0.394238
H	0.0608791	2.66468	-0.446185
H	-0.518054	1.73863	-1.87633
N	1.1146	1.30997	1.86142
C	1.23747	1.37564	3.29905
H	1.69668	1.90283	1.31467
H	2.00722	2.12238	3.59423
H	1.53322	0.384789	3.71375
H	0.268155	1.66887	3.7634
C	3.18391	-1.98078	-0.742555
C	3.94154	-1.09122	0.166229
O	3.45284	-0.693731	1.21488
H	2.17933	-2.17873	-0.309541
H	3.71839	-2.94608	-0.866402
H	3.05888	-1.49791	-1.7346
N	5.17091	-0.7499	-0.226862
C	6.02974	0.108241	0.549557
C	7.07318	0.690813	-0.383759
O	7.24292	0.222171	-1.50777
H	5.5468	-1.05672	-1.09721
H	5.44422	0.929861	0.942216
C	6.71611	-0.669845	1.69437
H	7.31538	-1.51239	1.28804
H	7.37803	-0.0120423	2.29431
H	5.94109	-1.09254	2.37025
N	7.78512	1.74713	0.0559598
C	8.79188	2.37533	-0.767424
H	7.62801	2.11635	0.966028
H	9.26705	3.22441	-0.228427
H	8.34195	2.76567	-1.70893
H	9.58718	1.64496	-1.04174
