44
  This energy is -3.73 and Call times are: 1019
C	0.940126	-3.0816	-1.32138
C	0.898702	-2.09706	-0.216767
O	1.30239	-2.38402	0.901797
H	1.36653	-4.03714	-0.9459
H	1.57846	-2.70325	-2.14734
H	-0.0848973	-3.27118	-1.70391
N	0.395245	-0.896172	-0.511331
C	0.28939	0.165918	0.456959
C	-0.757446	1.14493	-0.0379198
O	-1.16241	1.0991	-1.19798
H	0.042769	-0.68407	-1.41891
H	-0.0625972	-0.246173	1.39417
C	1.64188	0.887241	0.650789
H	2.00036	1.3082	-0.31275
H	1.56399	1.70554	1.39584
H	2.40037	0.15912	1.01229
N	-1.23775	2.04472	0.842815
C	-2.24504	3.00848	0.465053
H	-0.902497	2.06113	1.77907
H	-2.50767	3.66106	1.32669
H	-3.17109	2.49412	0.119922
H	-1.87902	3.65458	-0.365466
C	8.7814	-1.74567	2.98205
C	9.11586	-0.632582	2.06534
O	9.86925	0.267037	2.41113
H	9.30492	-1.5935	3.95088
H	9.10825	-2.71261	2.54499
H	7.6867	-1.77463	3.16574
N	8.54779	-0.667874	0.857687
C	8.77624	0.343274	-0.143419
C	7.62818	0.287522	-1.13241
O	6.85834	-0.671081	-1.14847
H	7.91291	-1.39075	0.59822
H	8.75632	1.31712	0.329135
C	10.1186	0.117913	-0.874439
H	10.1359	-0.88232	-1.3575
H	10.2977	0.894815	-1.64587
H	10.9513	0.159923	-0.138954
N	7.47381	1.33148	-1.97046
C	6.40213	1.37173	-2.93796
H	8.10298	2.10107	-1.93709
H	6.4455	2.30986	-3.53402
H	5.41189	1.32499	-2.42954
H	6.47192	0.507884	-3.63801
