44
  This energy is -3.818 and Call times are: 14465
C	-2.339	2.4945	0.657795
C	-1.1839	1.95987	-0.0979382
O	-0.741718	2.54654	-1.07609
H	-2.68129	3.44052	0.184782
H	-2.0454	2.70356	1.70799
H	-3.17515	1.76397	0.646503
N	-0.666203	0.811466	0.344238
C	0.458886	0.167567	-0.285364
C	0.443261	-1.29467	0.11572
O	-0.265726	-1.68504	1.04134
H	-1.05372	0.328181	1.12475
H	0.335569	0.215254	-1.35988
C	1.79223	0.821259	0.141247
H	1.91518	0.771173	1.24419
H	2.66061	0.327983	-0.341832
H	1.79063	1.89229	-0.157128
N	1.21381	-2.14494	-0.59089
C	1.25414	-3.55683	-0.289042
H	1.77503	-1.81079	-1.34096
H	1.94678	-4.08691	-0.979341
H	0.241534	-4.00979	-0.39252
H	1.60277	-3.72566	0.75553
C	3.91724	-0.405502	-2.9932
C	4.82755	-0.905075	-1.93823
O	5.20663	-2.06813	-1.92854
H	3.67617	-1.23479	-3.69322
H	4.40409	0.414596	-3.56174
H	2.97473	-0.0320315	-2.54028
N	5.1988	-0.0219911	-1.00833
C	6.08058	-0.35797	0.0808859
C	5.87201	0.664063	1.18142
O	5.25979	1.70763	0.962353
H	4.85995	0.915085	-1.01071
H	5.80043	-1.32687	0.474363
C	7.55805	-0.358054	-0.371012
H	7.84189	0.637216	-0.774731
H	8.23975	-0.61651	0.46521
H	7.69742	-1.10994	-1.1781
N	6.36095	0.375275	2.40353
C	6.20001	1.2828	3.51559
H	6.84725	-0.477649	2.56248
H	6.67191	0.867756	4.43335
H	5.12019	1.45904	3.72576
H	6.67322	2.26629	3.29198
