44
  This energy is -3.8664 and Call times are: 24018
C	-0.378328	-1.68214	-3.02546
C	-0.686702	-1.50204	-1.58891
O	-1.55607	-2.16538	-1.04057
H	-1.04548	-2.46399	-3.44911
H	0.677049	-2.00269	-3.15293
H	-0.54454	-0.731607	-3.57483
N	0.0282544	-0.580028	-0.939985
C	-0.15585	-0.290613	0.459719
C	0.401999	1.0939	0.726513
O	1.11838	1.65326	-0.101577
H	0.71362	-0.025728	-1.4047
H	-1.21608	-0.265621	0.677369
C	0.560073	-1.33217	1.34839
H	1.64742	-1.35563	1.12201
H	0.420231	-1.11241	2.42678
H	0.143268	-2.34216	1.14262
N	0.0661001	1.69014	1.8874
C	0.540168	3.01271	2.22244
H	-0.520571	1.22396	2.54141
H	0.156769	3.32738	3.21805
H	0.199923	3.75558	1.46506
H	1.65362	3.03531	2.25226
C	4.8317	-3.11993	1.06844
C	4.62437	-1.83319	0.366659
O	3.6109	-1.62475	-0.285976
H	3.95937	-3.78381	0.883624
H	4.92769	-2.94856	2.16125
H	5.74917	-3.61851	0.690786
N	5.6005	-0.929939	0.483598
C	5.54367	0.367621	-0.140851
C	6.96093	0.896199	-0.24672
O	7.87735	0.367791	0.380012
H	6.43429	-1.12266	0.994087
H	5.15766	0.257623	-1.14632
C	4.67099	1.34698	0.675475
H	5.06945	1.45696	1.70662
H	4.62494	2.34703	0.197391
H	3.63573	0.947838	0.746731
N	7.17749	1.94487	-1.06489
C	8.49607	2.50832	-1.23826
H	6.42403	2.35402	-1.56899
H	8.46786	3.36379	-1.94864
H	9.2006	1.7436	-1.63837
H	8.89858	2.87325	-0.265639
