44
  This energy is -3.0101 and Call times are: 7293
C	1.67136	-1.34785	2.74153
C	1.52387	-0.326404	1.68035
O	2.24241	0.663201	1.65069
H	2.48672	-1.0437	3.4333
H	1.92825	-2.33072	2.29342
H	0.726799	-1.44028	3.31791
N	0.568035	-0.546089	0.774548
C	0.303785	0.356353	-0.317512
C	-1.10832	0.0967503	-0.805174
O	-1.71687	-0.914159	-0.459402
H	-0.0300429	-1.34143	0.826302
H	0.343108	1.37406	0.0496448
C	1.31036	0.152532	-1.4718
H	1.26784	-0.892733	-1.8456
H	1.10986	0.845931	-2.31428
H	2.34095	0.344499	-1.10141
N	-1.67233	1.02088	-1.6076
C	-3.01701	0.864781	-2.11121
H	-1.16612	1.83571	-1.87034
H	-3.29881	1.72766	-2.75408
H	-3.74615	0.800658	-1.27127
H	-3.10451	-0.066614	-2.71621
C	4.38999	-1.37819	-2.48729
C	4.82547	-1.27045	-1.07663
O	4.22629	-1.8532	-0.183395
H	3.49107	-2.02966	-2.54544
H	5.19801	-1.82487	-3.10406
H	4.13281	-0.374404	-2.88631
N	5.89341	-0.504224	-0.84257
C	6.4363	-0.30208	0.476988
C	7.25882	0.971531	0.452307
O	7.57752	1.49342	-0.614413
H	6.35533	-0.0113253	-1.57511
H	5.62119	-0.153785	1.1739
C	7.31686	-1.49485	0.911743
H	8.15167	-1.64456	0.194241
H	7.73638	-1.34256	1.92742
H	6.70303	-2.42178	0.924657
N	7.60449	1.51545	1.63581
C	8.37682	2.73367	1.71075
H	7.3309	1.08192	2.48812
H	8.56028	3.01842	2.77024
H	7.8387	3.57138	1.21084
H	9.3619	2.60622	1.20623
