44
  This energy is -1.7994 and Call times are: 16609
C	-2.62692	0.798913	2.14177
C	-1.27058	0.262493	1.88919
O	-0.527888	-0.0400934	2.81296
H	-2.79753	0.864721	3.23832
H	-3.39241	0.127726	1.69864
H	-2.72562	1.81335	1.70116
N	-0.911329	0.136999	0.609519
C	0.375554	-0.370128	0.205066
C	0.637671	0.101269	-1.21209
O	-0.26958	0.571071	-1.8962
H	-1.51446	0.4143	-0.133629
H	1.13889	0.059693	0.841183
C	0.417073	-1.91332	0.26787
H	-0.367737	-2.35094	-0.385338
H	1.40661	-2.30714	-0.0427765
H	0.222454	-2.24594	1.31077
N	1.89799	0.00589822	-1.67954
C	2.24441	0.440751	-3.01261
H	2.61971	-0.370513	-1.108
H	3.32698	0.278755	-3.2102
H	2.02289	1.5249	-3.1422
H	1.66041	-0.124453	-3.77462
C	4.06493	-1.85089	1.32541
C	5.50522	-1.52412	1.22551
O	6.3228	-2.03132	1.98102
H	3.90926	-2.57508	2.15437
H	3.70963	-2.30762	0.377794
H	3.47761	-0.932297	1.53563
N	5.85055	-0.649774	0.277545
C	7.21238	-0.232964	0.057281
C	7.18079	1.08886	-0.685018
O	6.1439	1.49045	-1.20983
H	5.17149	-0.221397	-0.312627
H	7.68704	-0.0611245	1.01501
C	7.99671	-1.28306	-0.760789
H	7.50664	-1.4574	-1.7424
H	9.04576	-0.965361	-0.932091
H	8.01154	-2.24697	-0.206894
N	8.31872	1.80952	-0.727061
C	8.38051	3.08563	-1.4008
H	9.1455	1.47078	-0.290123
H	9.40143	3.5208	-1.32595
H	7.65922	3.80413	-0.948317
H	8.12533	2.97339	-2.47944
