44
  This energy is 0.1256 and Call times are: 13592
C	-3.34465	0.621341	-0.743894
C	-2.09863	0.920888	-0.00300365
O	-2.00975	1.90991	0.711446
H	-4.09604	1.41338	-0.534257
H	-3.75559	-0.358314	-0.421055
H	-3.14419	0.596044	-1.83574
N	-1.09078	0.0605217	-0.165361
C	0.18353	0.216869	0.489256
C	1.20896	-0.583336	-0.290099
O	0.855838	-1.4086	-1.13038
H	-1.16576	-0.725693	-0.772963
H	0.476297	1.25823	0.445234
C	0.127781	-0.273724	1.95327
H	-0.173518	-1.34219	1.99476
H	1.10731	-0.154633	2.46033
H	-0.627766	0.31947	2.5131
N	2.51113	-0.340044	-0.0427679
C	3.55818	-1.04498	-0.744859
H	2.7767	0.33679	0.63591
H	4.55996	-0.706067	-0.400156
H	3.48565	-0.865029	-1.84194
H	3.47951	-2.14229	-0.569042
C	3.00285	-3.09435	-0.0150693
C	3.71076	-1.99162	-0.703576
O	4.04617	-2.0898	-1.87591
H	2.86607	-3.94112	-0.722274
H	2.00548	-2.75111	0.331713
H	3.5959	-3.44543	0.855551
N	3.96204	-0.901756	0.0254111
C	4.64209	0.253177	-0.504199
C	5.20702	1.0376	0.664036
O	4.84195	0.802444	1.81436
H	3.70956	-0.845372	0.987706
H	5.47483	-0.0769162	-1.1122
C	3.68323	1.1423	-1.3271
H	2.82978	1.47861	-0.700487
H	4.20366	2.03243	-1.7365
H	3.27532	0.555809	-2.17902
N	6.13307	1.97903	0.395434
C	6.73558	2.76744	1.44499
H	6.42057	2.14949	-0.541323
H	7.47082	3.48763	1.02309
H	7.26543	2.11214	2.17374
H	5.95923	3.34303	1.99921
