44
  This energy is -0.2597 and Call times are: 5457
C	-2.32701	-2.03966	1.59717
C	-0.933623	-1.62226	1.32247
O	0.00374463	-2.09478	1.95061
H	-2.33064	-2.79054	2.41694
H	-2.77559	-2.49607	0.689826
H	-2.93453	-1.16411	1.90907
N	-0.766569	-0.707145	0.364857
C	0.5282	-0.202055	-0.0163066
C	0.322888	1.13164	-0.707931
O	-0.795271	1.48002	-1.08235
H	-1.54067	-0.308433	-0.119637
H	1.11288	-0.0227565	0.877045
C	1.2591	-1.18297	-0.960075
H	0.6562	-1.36518	-1.87519
H	2.25647	-0.797224	-1.25541
H	1.40233	-2.15633	-0.442187
N	1.40156	1.92207	-0.87438
C	1.30029	3.21437	-1.51147
H	2.29664	1.62538	-0.558088
H	2.29507	3.71006	-1.55563
H	0.603459	3.87653	-0.948243
H	0.913573	3.11084	-2.55114
C	5.08791	-3.23846	1.27512
C	4.76946	-1.79523	1.35798
O	4.03667	-1.35848	2.23477
H	4.56365	-3.77784	2.09371
H	6.18163	-3.39577	1.38394
H	4.75083	-3.64955	0.300272
N	5.31878	-1.01233	0.426484
C	5.10302	0.41165	0.375802
C	5.41195	0.879833	-1.03296
O	6.00917	0.149353	-1.82135
H	5.89059	-1.38429	-0.299883
H	4.05752	0.616194	0.568566
C	6.00117	1.15314	1.39101
H	7.073	0.940537	1.19076
H	5.83747	2.2498	1.35474
H	5.76598	0.80044	2.41884
N	4.99006	2.10892	-1.38982
C	5.2282	2.63472	-2.71384
H	4.50212	2.68209	-0.739728
H	4.80711	3.6596	-2.81156
H	4.75388	1.9859	-3.48539
H	6.32062	2.68259	-2.92714
