44
  This energy is -9.5129 and Call times are: 25237
C	-2.50039	-2.41764	-0.170821
C	-1.09263	-2.01406	0.0449061
O	-0.257806	-2.8167	0.439025
H	-2.61737	-3.49326	0.0845597
H	-2.7826	-2.26804	-1.23421
H	-3.17402	-1.81892	0.477809
N	-0.796444	-0.737061	-0.207894
C	0.529046	-0.19522	-0.045682
C	0.403343	1.30932	0.0950237
O	-0.647805	1.88141	-0.187175
H	-1.49167	-0.0859813	-0.500616
H	0.955226	-0.577076	0.873356
C	1.43019	-0.542576	-1.25166
H	0.989666	-0.149932	-2.19288
H	2.4516	-0.127014	-1.12996
H	1.51328	-1.64739	-1.3446
N	1.47301	1.98533	0.558516
C	1.44214	3.41833	0.736649
H	2.31222	1.50343	0.788131
H	2.41708	3.78747	1.12456
H	0.645229	3.70729	1.45961
H	1.23302	3.93024	-0.230513
C	4.89503	2.82656	-2.0287
C	5.24366	1.41918	-1.73047
O	5.82628	0.724226	-2.55149
H	5.23717	3.08001	-3.05562
H	5.39402	3.50574	-1.30583
H	3.79536	2.96911	-1.97083
N	4.88267	0.960485	-0.529784
C	5.15224	-0.386533	-0.0942363
C	4.1899	-0.713756	1.03096
O	3.54531	0.174637	1.58512
H	4.38266	1.52773	0.119184
H	4.94786	-1.06779	-0.910441
C	6.61057	-0.539017	0.392738
H	6.817	0.161784	1.22963
H	6.82159	-1.57506	0.728696
H	7.30553	-0.295423	-0.440229
N	4.05435	-2.00801	1.38102
C	3.15268	-2.41577	2.43312
H	4.57948	-2.71297	0.915735
H	3.18447	-3.51884	2.5727
H	2.10579	-2.12348	2.18855
H	3.42981	-1.93208	3.3977
