44
  This energy is -4.9382 and Call times are: 1888
C	-0.368592	-3.27985	1.11034
C	-0.0865618	-2.28968	0.0467523
O	0.297635	-2.64217	-1.05988
H	-0.16798	-4.30232	0.722821
H	-1.43277	-3.2155	1.4205
H	0.284135	-3.09411	1.9892
N	-0.269087	-1.00665	0.3675
C	-0.0367976	0.071592	-0.560007
C	0.169866	1.34087	0.243398
O	-0.120734	1.38339	1.43737
H	-0.554416	-0.730514	1.28143
H	0.877279	-0.124654	-1.10592
C	-1.22645	0.244887	-1.53047
H	-2.16265	0.445405	-0.967051
H	-1.05084	1.0742	-2.24613
H	-1.36815	-0.691983	-2.11215
N	0.700534	2.40381	-0.392641
C	0.944431	3.6509	0.294001
H	0.935671	2.34731	-1.35739
H	1.38206	4.40253	-0.399379
H	1.65268	3.50112	1.14088
H	-0.0042353	4.06464	0.706351
C	5.39637	3.29059	-0.634432
C	5.34307	2.097	0.239463
O	5.95844	2.05862	1.29603
H	6.05438	4.05681	-0.169892
H	4.37956	3.71855	-0.759958
H	5.80805	3.01871	-1.62919
N	4.5975	1.07775	-0.193682
C	4.44721	-0.150235	0.545444
C	4.00465	-1.22738	-0.425704
O	3.59598	-0.933055	-1.54739
H	4.12437	1.10996	-1.07007
H	5.41102	-0.441741	0.943147
C	3.41025	-2.12916e-05	1.6809
H	2.42285	0.299741	1.26943
H	3.29217	-0.943689	2.25215
H	3.74541	0.792697	2.38475
N	4.09723	-2.50964	-0.0216744
C	3.71024	-3.60296	-0.882535
H	4.43718	-2.72773	0.887228
H	3.85816	-4.57876	-0.369524
H	4.31824	-3.6021	-1.81612
H	2.63716	-3.51662	-1.16929
