44
  This energy is 0.1106 and Call times are: 15293
C	-2.81655	0.566629	1.96777
C	-1.34945	0.536279	1.77304
O	-0.588669	0.965282	2.62958
H	-3.04666	1.02312	2.95495
H	-3.22699	-0.464782	1.94438
H	-3.29608	1.17312	1.1708
N	-0.914888	0.024691	0.61901
C	0.483498	-0.0728894	0.284612
C	0.594906	-0.19059	-1.22303
O	-0.394074	-0.443018	-1.90862
H	-1.54573	-0.294804	-0.0830524
H	0.980773	0.842035	0.580762
C	1.14005	-1.29597	0.962943
H	0.627019	-2.23277	0.657443
H	2.21687	-1.37403	0.707704
H	1.05073	-1.19829	2.06686
N	1.80596	0.0125464	-1.77809
C	2.00551	-0.0671184	-3.20638
H	2.59259	0.222807	-1.20693
H	3.06915	0.128656	-3.46636
H	1.3721	0.68233	-3.73398
H	1.73218	-1.07837	-3.58565
C	0.67915	0.903354	0.531071
C	2.12868	1.06657	0.782893
O	2.55375	2.0003	1.44919
H	0.1253	1.73235	1.02288
H	0.324787	-0.0627109	0.948164
H	0.474487	0.931888	-0.559912
N	2.93186	0.14832	0.240587
C	4.36425	0.172334	0.397125
C	4.96938	-0.648843	-0.724808
O	4.26826	-1.39288	-1.40794
H	2.57581	-0.59117	-0.324495
H	4.71348	1.19088	0.284547
C	4.79021	-0.403272	1.7662
H	4.42973	-1.44804	1.8786
H	5.89254	-0.386139	1.8901
H	4.33954	0.206255	2.57954
N	6.29035	-0.514892	-0.955204
C	6.95157	-1.24759	-2.00978
H	6.83927	0.0976937	-0.396044
H	8.03631	-1.00309	-2.03811
H	6.50936	-0.99493	-3.00067
H	6.84346	-2.3453	-1.85325
