44
  This energy is -3.4781 and Call times are: 31348
C	-2.46984	-1.76389	1.70726
C	-1.08034	-1.61129	1.22021
O	-0.201006	-2.38983	1.56246
H	-2.527	-2.64333	2.38489
H	-3.15962	-1.9238	0.852016
H	-2.78072	-0.857309	2.26798
N	-0.84867	-0.582826	0.401092
C	0.451208	-0.304016	-0.155154
C	0.475078	1.15242	-0.576427
O	-0.566476	1.80107	-0.655456
H	-1.56715	0.0614555	0.152851
H	1.19955	-0.435679	0.616032
C	0.750703	-1.2129	-1.36815
H	-0.0192997	-1.07577	-2.15708
H	1.7509	-1.00097	-1.7988
H	0.729114	-2.277	-1.04665
N	1.67476	1.7082	-0.836931
C	1.79652	3.0918	-1.23319
H	2.50678	1.16864	-0.760389
H	2.86255	3.35969	-1.40363
H	1.38811	3.76388	-0.444044
H	1.23222	3.28212	-2.17475
C	4.11305	-1.63765	2.74237
C	4.79858	-1.64747	1.43045
O	5.2286	-2.68669	0.949217
H	4.0862	-2.67137	3.15049
H	3.07183	-1.26963	2.6272
H	4.6591	-0.984045	3.45481
N	4.92188	-0.468146	0.816959
C	5.56412	-0.316934	-0.464251
C	5.98563	1.13272	-0.605926
O	5.54943	1.99172	0.158064
H	4.5932	0.375664	1.23276
H	6.46072	-0.923451	-0.482169
C	4.6155	-0.709648	-1.61882
H	3.69646	-0.08594	-1.59703
H	5.10689	-0.59454	-2.60678
H	4.3131	-1.77325	-1.50288
N	6.86645	1.43526	-1.5799
C	7.33419	2.78667	-1.78259
H	7.21329	0.724807	-2.18338
H	8.0513	2.8314	-2.63171
H	7.84801	3.16567	-0.869581
H	6.48188	3.4681	-2.0071
