44
  This energy is 0.1022 and Call times are: 15896
C	-2.83501	1.34388	-1.51091
C	-2.18472	0.457775	-0.519373
O	-2.84023	-0.128268	0.33113
H	-3.93092	1.36112	-1.32507
H	-2.65077	0.967595	-2.53915
H	-2.43862	2.37704	-1.41915
N	-0.857315	0.344379	-0.605985
C	-0.0833493	-0.480277	0.287182
C	1.34941	0.0150798	0.254735
O	1.72765	0.787696	-0.623805
H	-0.33147	0.849751	-1.28497
H	-0.453674	-0.34997	1.29612
C	-0.140903	-1.96728	-0.128303
H	0.239102	-2.09723	-1.16408
H	0.453867	-2.60511	0.55741
H	-1.19572	-2.31771	-0.101621
N	2.17805	-0.404253	1.23121
C	3.55618	0.0242974	1.28857
H	1.85113	-1.0238	1.93727
H	4.07319	-0.429885	2.16245
H	3.6194	1.13275	1.38117
H	4.10015	-0.276498	0.364017
C	4.34164	-1.20017	-2.59212
C	3.63104	-0.102992	-1.89753
O	3.76285	1.06033	-2.25224
H	4.95949	-0.775793	-3.41311
H	3.61103	-1.91541	-3.02509
H	5.00639	-1.73572	-1.88202
N	2.85359	-0.456158	-0.871276
C	2.09893	0.497442	-0.0979924
C	1.77673	-0.138621	1.24023
O	1.92326	-1.34708	1.41338
H	2.77729	-1.40407	-0.573673
H	2.71756	1.3656	0.0908776
C	0.795158	0.902362	-0.82141
H	0.16323	0.00926701	-1.01419
H	0.211709	1.63666	-0.22881
H	1.04475	1.36591	-1.80068
N	1.34833	0.669818	2.22963
C	1.02886	0.155318	3.54089
H	1.24305	1.64617	2.07187
H	0.693286	0.974912	4.21387
H	1.91959	-0.332122	3.9994
H	0.21463	-0.602491	3.47813
