44
  This energy is 0.1394 and Call times are: 28049
C	1.84045	-1.67902	-2.43305
C	1.5468	-0.475463	-1.62286
O	2.27827	0.504447	-1.65771
H	2.77566	-1.51359	-3.01088
H	1.00933	-1.87451	-3.14287
H	1.9773	-2.5611	-1.77263
N	0.453469	-0.527457	-0.858462
C	0.0366186	0.56437	-0.0152671
C	-0.879011	0.00307906	1.05516
O	-1.34569	-1.12983	0.952358
H	-0.118331	-1.34246	-0.816639
H	0.905921	0.978554	0.479545
C	-0.70024	1.65272	-0.82745
H	-1.5911	1.22423	-1.33428
H	-1.02247	2.49499	-0.181285
H	-0.0192971	2.05497	-1.6089
N	-1.14054	0.780335	2.12449
C	-1.99182	0.325598	3.19908
H	-0.747608	1.69148	2.19268
H	-2.08555	1.10776	3.98437
H	-1.57415	-0.594303	3.66874
H	-3.0113	0.0866318	2.81865
C	6.69711	-0.0981227	1.48734
C	5.51021	0.640132	1.00006
O	5.37961	1.83795	1.21139
H	7.36576	0.601524	2.0344
H	7.255	-0.533131	0.631571
H	6.38595	-0.910948	2.17686
N	4.60169	-0.0732805	0.330735
C	3.3949	0.503829	-0.205396
C	2.39604	-0.61735	-0.416269
O	2.75433	-1.79307	-0.382355
H	4.70555	-1.05431	0.190309
H	2.97594	1.18463	0.524705
C	3.66498	1.23284	-1.54058
H	4.09536	0.531647	-2.28704
H	2.7379	1.67853	-1.9561
H	4.39898	2.05093	-1.37286
N	1.10789	-0.277096	-0.618488
C	0.0844597	-1.27682	-0.816826
H	0.836653	0.67966	-0.63534
H	-0.908343	-0.798596	-0.968144
H	0.0174723	-1.95128	0.0673986
H	0.312884	-1.90119	-1.71079
