44
  This energy is -6.4952 and Call times are: 33402
C	0.715743	3.03206	1.55579
C	-0.181462	2.14796	0.778222
O	-1.33196	2.47837	0.525886
H	0.16758	3.95818	1.83449
H	1.60211	3.30858	0.946931
H	1.04955	2.51936	2.48242
N	0.333548	0.982218	0.380521
C	-0.415422	0.0169006	-0.383701
C	0.251015	-1.33389	-0.209177
O	1.37889	-1.4208	0.272666
H	1.26296	0.711969	0.617357
H	-1.41586	-0.0547854	0.0238056
C	-0.46096	0.397425	-1.88044
H	0.567048	0.470749	-2.2951
H	-1.03703	-0.343678	-2.47179
H	-0.950288	1.38922	-1.99471
N	-0.444955	-2.42681	-0.579535
C	0.103823	-3.75548	-0.439352
H	-1.35911	-2.33615	-0.96077
H	-0.619258	-4.51971	-0.800409
H	0.339634	-3.97259	0.627651
H	1.04415	-3.85652	-1.02822
C	8.39066	3.02959	-1.68276
C	7.56547	1.92171	-1.1509
O	6.34357	1.97572	-1.17371
H	7.72433	3.83587	-2.05928
H	9.02433	2.66713	-2.51937
H	9.03829	3.44349	-0.881379
N	8.22793	0.878003	-0.646726
C	7.56461	-0.275371	-0.093041
C	8.54508	-0.981647	0.822982
O	9.7428	-0.705072	0.794775
H	9.22342	0.858665	-0.607346
H	6.72951	0.0553985	0.511338
C	7.08797	-1.23743	-1.20406
H	7.9471	-1.57426	-1.82256
H	6.57665	-2.12655	-0.781222
H	6.37128	-0.707798	-1.86889
N	8.05227	-1.90039	1.67682
C	8.90848	-2.61497	2.59468
H	7.07902	-2.10498	1.68941
H	8.31675	-3.32721	3.21099
H	9.42809	-1.90652	3.27977
H	9.68443	-3.19131	2.04069
