44
  This energy is 0.1915 and Call times are: 15059
C	-0.781919	1.14675	-3.1937
C	0.128722	0.477178	-2.23787
O	1.15146	-0.074986	-2.61945
H	-0.376329	1.04055	-4.2233
H	-0.865451	2.22678	-2.95002
H	-1.78878	0.680257	-3.15415
N	-0.233307	0.507723	-0.953199
C	0.54904	-0.0990406	0.093988
C	-0.364496	-0.334816	1.28104
O	-1.47093	0.198417	1.33842
H	-1.08365	0.935519	-0.658495
H	0.903016	-1.0642	-0.24548
C	1.73346	0.803408	0.50611
H	1.36676	1.79294	0.853192
H	2.33806	0.339152	1.31215
H	2.39443	0.969487	-0.372349
N	0.0719832	-1.16214	2.25111
C	-0.73397	-1.45551	3.41324
H	0.967448	-1.5896	2.1829
H	-0.200804	-2.15375	4.09547
H	-1.69841	-1.92613	3.11388
H	-0.965246	-0.522746	3.97684
C	10.6767	-0.435138	-0.73115
C	9.27397	-0.20778	-1.14567
O	8.99086	0.0425229	-2.30915
H	11.3424	-0.331531	-1.61545
H	10.7912	-1.45733	-0.313005
H	10.9759	0.312342	0.0334981
N	8.35134	-0.285772	-0.183884
C	6.94537	-0.0892022	-0.431699
C	6.28541	0.26743	0.886066
O	6.87764	0.101801	1.9508
H	8.59772	-0.461564	0.765503
H	6.82034	0.752764	-1.10068
C	6.29572	-1.35946	-1.0246
H	6.42643	-2.22139	-0.336048
H	5.21315	-1.21152	-1.21678
H	6.78872	-1.61077	-1.98893
N	5.04362	0.789009	0.842282
C	4.34104	1.1696	2.04549
H	4.58394	0.921941	-0.029645
H	3.3347	1.57576	1.80146
H	4.90872	1.95045	2.6016
H	4.21105	0.291789	2.71909
