44
  This energy is -2.7606 and Call times are: 25882
C	0.347145	3.26232	1.16742
C	0.143404	2.28612	0.073469
O	-0.121525	2.6551	-1.06238
H	0.212917	4.29204	0.770512
H	1.37393	3.16688	1.57902
H	-0.392852	3.08995	1.97713
N	0.259104	0.996809	0.40005
C	0.0892171	-0.0695443	-0.554338
C	-0.228916	-1.33696	0.214876
O	-0.0572383	-1.39397	1.43106
H	0.446503	0.707935	1.33513
H	-0.76171	0.154874	-1.18492
C	1.36262	-0.270421	-1.40593
H	2.23373	-0.499817	-0.755814
H	1.2352	-1.09067	-2.14196
H	1.58554	0.665311	-1.96348
N	-0.723628	-2.38135	-0.478315
C	-1.06683	-3.62491	0.171254
H	-0.862073	-2.31312	-1.46087
H	-1.45499	-4.36038	-0.567443
H	-1.84989	-3.46019	0.946454
H	-0.174358	-4.06697	0.670508
C	7.67747	-0.879236	-2.79789
C	6.65186	-1.17648	-1.77272
O	5.9671	-2.1881	-1.83775
H	7.68035	-1.68858	-3.56
H	8.68235	-0.823715	-2.32888
H	7.44986	0.0852655	-3.29876
N	6.5185	-0.282084	-0.79056
C	5.56437	-0.43212	0.278992
C	5.31864	0.938249	0.879779
O	6.06559	1.88047	0.622643
H	7.06221	0.552569	-0.764591
H	4.62681	-0.783755	-0.132619
C	6.08318	-1.40245	1.36361
H	7.04544	-1.03902	1.78324
H	5.35088	-1.5204	2.1886
H	6.26038	-2.40222	0.910611
N	4.24587	1.0859	1.68189
C	3.92569	2.35664	2.28925
H	3.64939	0.313072	1.87209
H	3.00924	2.27401	2.91418
H	3.74892	3.13172	1.50871
H	4.76223	2.70423	2.93775
