44
  This energy is -0.4604 and Call times are: 4122
C	-0.368592	3.22751	-1.25437
C	-0.0865618	2.28537	-0.148008
O	0.297635	2.68648	0.941946
H	-0.16798	4.26613	-0.912459
H	-1.43277	3.14951	-1.56138
H	0.284135	3.00307	-2.12415
N	-0.269087	0.989402	-0.411677
C	-0.0367976	-0.0467457	0.562626
C	0.169866	-1.35033	-0.183836
O	-0.120734	-1.44562	-1.37476
H	-0.554416	0.673105	-1.3125
H	0.877279	0.173461	1.09933
C	-1.22645	-0.176935	1.53981
H	-2.16265	-0.402184	0.98581
H	-1.05084	-0.973776	2.29146
H	-1.36815	0.784752	2.07946
N	0.700534	-2.38409	0.498608
C	0.944431	-3.66033	-0.132188
H	0.935671	-2.28495	1.45992
H	1.38206	-4.38055	0.593768
H	1.65268	-3.54817	-0.98486
H	-0.0042353	-4.09191	-0.525829
C	8.39485	2.44606	-1.47088
C	7.6822	1.14929	-1.51242
O	7.59515	0.508333	-2.55073
H	8.78389	2.68398	-2.48474
H	9.24797	2.39123	-0.762373
H	7.70215	3.2536	-1.1531
N	7.14315	0.731854	-0.364575
C	6.41967	-0.508887	-0.246443
C	5.5354	-0.417458	0.981951
O	5.70298	0.473879	1.81217
H	7.19588	1.27702	0.467859
H	5.77459	-0.623481	-1.10831
C	7.38175	-1.71121	-0.12019
H	8.04249	-1.59005	0.764606
H	6.82798	-2.6682	-0.0291979
H	8.02471	-1.76646	-1.02556
N	4.55345	-1.33078	1.11468
C	3.65487	-1.31527	2.24538
H	4.42949	-2.03995	0.428422
H	2.91911	-2.14646	2.1744
H	3.09409	-0.353546	2.2884
H	4.2205	-1.42804	3.19855
