44
  This energy is -2.7912 and Call times are: 24062
C	-0.793577	-3.30857	0.741432
C	-0.460022	-2.23427	-0.220761
O	-0.253319	-2.48346	-1.40045
H	-0.805515	-4.28568	0.211367
H	-1.79552	-3.12783	1.18445
H	-0.0337471	-3.34768	1.55018
N	-0.393857	-0.995598	0.272882
C	-0.0807501	0.153496	-0.538522
C	0.413635	1.25275	0.381509
O	0.256143	1.17228	1.59829
H	-0.535693	-0.809293	1.24144
H	0.728266	-0.100858	-1.21148
C	-1.31698	0.637901	-1.32859
H	-2.14522	0.897346	-0.63518
H	-1.07937	1.52249	-1.95455
H	-1.6701	-0.176689	-1.99784
N	1.04633	2.30124	-0.180974
C	1.56177	3.38938	0.616805
H	1.17023	2.34453	-1.16688
H	2.04576	4.15523	-0.02854
H	2.31717	3.01796	1.34664
H	0.741415	3.88039	1.18874
C	2.77084	-1.59095	2.24981
C	3.58568	-0.429472	1.82769
O	3.55107	0.625619	2.44581
H	2.18003	-1.31709	3.15082
H	3.42904	-2.4497	2.49908
H	2.07268	-1.88425	1.43772
N	4.3449	-0.60059	0.742936
C	5.19224	0.436361	0.210416
C	5.47798	0.104813	-1.24136
O	5.2286	-1.01168	-1.69201
H	4.34225	-1.45555	0.231098
H	4.65522	1.37612	0.233663
C	6.51519	0.543206	1.0013
H	7.0632	-0.422796	0.975934
H	7.16995	1.34081	0.593999
H	6.29216	0.785205	2.06329
N	5.99096	1.08079	-2.01617
C	6.28425	0.860877	-3.41324
H	6.17912	1.97982	-1.63463
H	6.70086	1.78192	-3.87731
H	5.36135	0.575432	-3.96823
H	7.02772	0.0400434	-3.53432
