44
  This energy is -4.081 and Call times are: 31443
C	0.910212	3.35541	-0.197162
C	0.642478	2.04051	-0.822107
O	0.623873	1.91024	-2.03832
H	1.06608	4.11552	-0.993277
H	1.82367	3.30121	0.431703
H	0.0476035	3.66384	0.43031
N	0.4199	1.02193	0.0117588
C	0.145633	-0.316931	-0.445459
C	-0.550662	-1.05956	0.678337
O	-0.562781	-0.603708	1.82022
H	0.40894	1.14685	1.0003
H	-0.539441	-0.269507	-1.28242
C	1.44467	-1.05256	-0.843533
H	2.14546	-1.0988	0.0172117
H	1.23711	-2.08373	-1.19621
H	1.94581	-0.498006	-1.66663
N	-1.16884	-2.21755	0.373525
C	-1.86774	-2.98764	1.37587
H	-1.15382	-2.56619	-0.557847
H	-2.30746	-3.9068	0.929734
H	-2.69141	-2.38881	1.82776
H	-1.1737	-3.29168	2.1926
C	4.12573	0.0364625	3.13072
C	4.17895	0.42854	1.70431
O	3.24687	1.01826	1.17521
H	3.15299	0.356365	3.56351
H	4.94792	0.526824	3.69319
H	4.21748	-1.06579	3.22849
N	5.28852	0.0980689	1.03948
C	5.48803	0.41145	-0.352934
C	6.5512	-0.52485	-0.893532
O	7.25347	-1.18581	-0.130787
H	6.02868	-0.408038	1.47418
H	4.57065	0.214247	-0.892926
C	5.92815	1.88042	-0.541434
H	6.86919	2.07942	0.0143963
H	6.08251	2.12515	-1.61244
H	5.14149	2.55608	-0.140423
N	6.67928	-0.619114	-2.23171
C	7.65623	-1.49359	-2.83755
H	6.0967	-0.0813671	-2.83226
H	7.60747	-1.429	-3.94691
H	7.47463	-2.55169	-2.53976
H	8.68584	-1.216	-2.515
