44
  This energy is -2.9132 and Call times are: 16273
C	-2.49731	2.38217	0.463493
C	-1.32288	1.85252	-0.265468
O	-0.944234	2.36291	-1.31075
H	-2.91617	3.24772	-0.0944031
H	-2.19766	2.71955	1.47799
H	-3.27911	1.59851	0.550808
N	-0.715259	0.795065	0.277631
C	0.439689	0.168107	-0.313848
C	0.537071	-1.2418	0.235617
O	-0.122774	-1.58134	1.216
H	-1.0509	0.370373	1.11424
H	0.29097	0.0946645	-1.38369
C	1.73142	0.953235	0.00571769
H	1.88053	1.02724	1.10408
H	2.62265	0.473305	-0.448334
H	1.64699	1.98456	-0.400948
N	1.35163	-2.10602	-0.401269
C	1.49914	-3.47249	0.0427811
H	1.87179	-1.81412	-1.19717
H	2.21344	-4.02271	-0.608593
H	0.519616	-4.00257	0.0148755
H	1.8806	-3.50681	1.08896
C	5.79175	0.423075	-2.73906
C	6.02703	0.0808568	-1.31824
O	5.09386	-0.116622	-0.55227
H	4.69746	0.463151	-2.93085
H	6.2441	-0.347519	-3.39814
H	6.23408	1.41446	-2.9724
N	7.30203	0.00814163	-0.929067
C	7.69005	-0.314542	0.4208
C	9.10405	0.190489	0.632472
O	9.79972	0.530369	-0.322696
H	8.05282	0.199769	-1.55558
H	7.04463	0.216494	1.10892
C	7.62595	-1.83703	0.6758
H	8.28872	-2.37876	-0.0322834
H	7.92396	-2.08899	1.7143
H	6.5854	-2.19478	0.516332
N	9.55561	0.27194	1.89954
C	10.8844	0.752406	2.19872
H	8.97487	-0.00112403	2.65942
H	11.0684	0.74282	3.29569
H	11.0174	1.79536	1.83018
H	11.6534	0.112406	1.70859
