44
  This energy is -2.9727 and Call times are: 23976
C	-0.922861	-3.05276	1.39825
C	-1.06913	-1.9919	0.376303
O	-1.81058	-2.13818	-0.585648
H	-1.56186	-3.91949	1.12198
H	-1.24182	-2.67342	2.39183
H	0.134129	-3.3885	1.45302
N	-0.347614	-0.884368	0.563792
C	-0.383415	0.234746	-0.343474
C	0.881605	1.04433	-0.134825
O	1.59196	0.857556	0.851247
H	0.27489	-0.78904	1.33602
H	-0.372503	-0.136287	-1.36047
C	-1.6265	1.1187	-0.0975432
H	-1.63485	1.49708	0.946905
H	-1.65728	1.98127	-0.79454
H	-2.5464	0.513767	-0.25238
N	1.20463	1.95296	-1.07613
C	2.39657	2.76156	-0.968327
H	0.620603	2.08428	-1.87042
H	2.4857	3.44862	-1.83853
H	3.30581	2.11859	-0.934872
H	2.37286	3.37465	-0.0384143
C	4.15982	-2.4245	1.57595
C	5.36442	-2.0085	0.822907
O	6.28784	-2.78654	0.626835
H	4.27335	-3.48352	1.89449
H	3.25816	-2.33706	0.93394
H	4.03392	-1.78939	2.47802
N	5.38274	-0.748221	0.382753
C	6.48475	-0.197328	-0.364855
C	6.4216	1.31279	-0.243264
O	5.41205	1.86709	0.187313
H	4.63705	-0.115533	0.574042
H	7.41357	-0.524967	0.0845955
C	6.42012	-0.613798	-1.85129
H	5.4657	-0.276684	-2.30906
H	7.26729	-0.191449	-2.42983
H	6.46604	-1.72211	-1.9267
N	7.51439	2.01503	-0.601993
C	7.55072	3.45595	-0.509184
H	8.32409	1.54763	-0.941332
H	8.53393	3.8474	-0.85168
H	7.38915	3.7861	0.542547
H	6.7531	3.91071	-1.1402
