44
  This energy is -1.3361 and Call times are: 30431
C	-2.11972	-1.0138	-2.57005
C	-0.93889	-0.272437	-2.07282
O	-0.156372	0.262728	-2.84597
H	-2.13056	-0.984551	-3.6813
H	-3.05254	-0.547317	-2.18919
H	-2.07437	-2.07265	-2.23881
N	-0.780087	-0.229947	-0.747924
C	0.319262	0.452957	-0.113968
C	0.482563	-0.120844	1.28006
O	-0.396154	-0.821997	1.77813
H	-1.40848	-0.694593	-0.129729
H	1.22781	0.243771	-0.664295
C	0.0659469	1.97507	-0.0356496
H	-0.867213	2.18603	0.528993
H	0.910569	2.504	0.451812
H	-0.0531095	2.38306	-1.06303
N	1.62845	0.147872	1.93637
C	1.87745	-0.365395	3.26329
H	2.3305	0.711364	1.51347
H	2.87251	-0.0332046	3.63311
H	1.85736	-1.47932	3.26383
H	1.10044	-0.0057229	3.97608
C	3.77358	2.92243	-0.254136
C	5.06554	2.2	-0.265939
O	6.10431	2.76668	-0.576276
H	3.93973	3.97719	-0.563545
H	3.33868	2.91187	0.767418
H	3.06293	2.44763	-0.963006
N	5.02622	0.909107	0.0723268
C	6.20039	0.0742983	0.107895
C	5.74851	-1.36976	0.00918823
O	4.56757	-1.67135	0.171234
H	4.16942	0.451655	0.294954
H	6.81057	0.288114	-0.760457
C	7.00564	0.291273	1.40851
H	6.37645	0.071678	2.29734
H	7.91049	-0.34988	1.43911
H	7.32981	1.35304	1.46948
N	6.68092	-2.29797	-0.282427
C	6.34163	-3.69626	-0.408365
H	7.63009	-2.03302	-0.417031
H	7.24436	-4.29979	-0.649357
H	5.59242	-3.84728	-1.21899
H	5.9052	-4.08191	0.541359
