44
  This energy is -5.622 and Call times are: 20466
C	0.704807	0.553153	3.36503
C	0.367155	1.04053	2.00868
O	0.0976231	2.2168	1.80811
H	0.656598	1.40095	4.0825
H	1.73195	0.131613	3.37538
H	-0.0180965	-0.227694	3.68225
N	0.369158	0.128827	1.03341
C	0.0615705	0.449958	-0.337394
C	-0.349489	-0.831932	-1.03527
O	-0.139477	-1.92605	-0.515037
H	0.561956	-0.831863	1.21462
H	-0.786212	1.1229	-0.359425
C	1.27724	1.0788	-1.05421
H	2.14534	0.386056	-1.02914
H	1.04382	1.32744	-2.10989
H	1.56922	2.01633	-0.532731
N	-0.968396	-0.72385	-2.22744
C	-1.40648	-1.88915	-2.95979
H	-1.13566	0.170809	-2.62849
H	-1.89111	-1.59326	-3.91626
H	-2.14077	-2.47595	-2.36169
H	-0.543333	-2.5532	-3.19471
C	5.01956	3.23529	1.21778
C	4.97881	2.25774	0.106956
O	5.04141	2.6223	-1.05909
H	5.10317	4.26226	0.800387
H	5.89791	3.03908	1.86803
H	4.09033	3.16739	1.82182
N	4.86509	0.972947	0.451557
C	4.81284	-0.0940712	-0.515692
C	4.17605	-1.29738	0.151976
O	4.03936	-1.33955	1.37319
H	4.78566	0.690979	1.40399
H	4.17172	0.204992	-1.33521
C	6.22392	-0.456696	-1.02997
H	6.87917	-0.762384	-0.186568
H	6.18733	-1.27786	-1.77503
H	6.68002	0.433304	-1.51578
N	3.74985	-2.29978	-0.641466
C	3.12069	-3.47992	-0.0959354
H	3.86303	-2.24372	-1.62802
H	2.84314	-4.18832	-0.907346
H	2.19649	-3.20912	0.464206
H	3.80914	-4.00339	0.606347
