44
  This energy is -0.9801 and Call times are: 1933
C	-0.838347	-2.38732	2.39249
C	-1.14206	-1.1712	1.60508
O	-2.24598	-0.646214	1.65257
H	-1.74117	-2.68755	2.96749
H	-0.00996434	-2.18558	3.10375
H	-0.54995	-3.2193	1.71604
N	-0.152786	-0.693531	0.846448
C	-0.295516	0.481809	0.0248451
C	0.773194	0.431729	-1.04967
O	1.71459	-0.354543	-0.963769
H	0.73296	-1.14699	0.793898
H	-1.25904	0.451787	-0.46789
C	-0.148894	1.77325	0.860195
H	0.840413	1.80044	1.36482
H	-0.258404	2.68017	0.23069
H	-0.936646	1.79733	1.64442
N	0.639113	1.26053	-2.10377
C	1.6012	1.27476	-3.18097
H	-0.133544	1.88442	-2.15846
H	1.31719	2.0245	-3.952
H	1.65936	0.274928	-3.66903
H	2.61555	1.53186	-2.79866
C	6.75998	3.03519	-1.57421
C	7.11616	1.63788	-1.23979
O	8.07902	1.08923	-1.75785
H	7.48002	3.42825	-2.32449
H	6.80655	3.67007	-0.664492
H	5.73621	3.07743	-2.00206
N	6.32929	1.0208	-0.355253
C	6.54777	-0.338545	0.0705231
C	5.24097	-0.867707	0.628635
O	4.31479	-0.103281	0.892591
H	5.53076	1.46889	0.0378089
H	6.80482	-0.940389	-0.791905
C	7.6559	-0.420525	1.14405
H	7.38925	0.198565	2.02708
H	7.82681	-1.46584	1.47402
H	8.60758	-0.02892	0.723218
N	5.12868	-2.19946	0.80134
C	3.91777	-2.79522	1.31609
H	5.88689	-2.80209	0.575108
H	4.02248	-3.90033	1.38679
H	3.05392	-2.56689	0.650602
H	3.68566	-2.39927	2.33124
