44
  This energy is -1.3982 and Call times are: 3645
C	1.04336	-1.80448	-2.78951
C	1.26821	-0.785082	-1.74
O	2.36032	-0.252128	-1.59947
H	1.98746	-1.96467	-3.3542
H	0.257028	-1.46107	-3.49419
H	0.732413	-2.76587	-2.3291
N	0.222107	-0.492243	-0.963934
C	0.28513	0.47845	0.0993686
C	-0.847803	0.186928	1.06411
O	-1.76323	-0.570697	0.748137
H	-0.654326	-0.954459	-1.06956
H	1.21607	0.351268	0.637179
C	0.161317	1.91878	-0.445815
H	-0.794532	2.04555	-0.997539
H	0.209606	2.66876	0.370265
H	0.996215	2.11945	-1.15209
N	-0.799969	0.768877	2.27862
C	-1.82819	0.540536	3.26695
H	-0.0471291	1.37319	2.51793
H	-1.61106	1.10802	4.19865
H	-1.89361	-0.541777	3.523
H	-2.82214	0.864998	2.88228
C	5.23638	0.770404	2.98812
C	5.72201	-0.203398	1.98458
O	5.6636	-1.40761	2.19182
H	4.85552	0.222477	3.87726
H	4.41238	1.38038	2.56178
H	6.06458	1.43857	3.30527
N	6.22579	0.306922	0.858464
C	6.7372	-0.512745	-0.210847
C	7.66856	0.341848	-1.0484
O	7.68157	1.56502	-0.923889
H	6.29462	1.29042	0.713779
H	7.32248	-1.31897	0.212866
C	5.59422	-1.06989	-1.08851
H	4.99544	-0.240135	-1.52104
H	5.98448	-1.70161	-1.91277
H	4.91843	-1.69305	-0.463099
N	8.48954	-0.289071	-1.91091
C	9.41884	0.441205	-2.74114
H	8.46902	-1.28016	-1.99194
H	10.0034	-0.254371	-3.38278
H	10.1326	1.02296	-2.11397
H	8.87746	1.15648	-3.40179
