44
  This energy is -2.9596 and Call times are: 22840
C	-0.150751	0.0859531	3.47793
C	-0.726622	0.363838	2.14288
O	-1.87155	0.777212	2.02144
H	-0.910821	0.305933	4.25881
H	0.738969	0.727045	3.65178
H	0.143234	-0.982146	3.55331
N	0.0674586	0.13294	1.0948
C	-0.350234	0.355628	-0.266369
C	0.545563	-0.469635	-1.16954
O	1.58572	-0.965285	-0.740324
H	0.988288	-0.231468	1.20533
H	-1.36312	-0.0069839	-0.387402
C	-0.255758	1.85021	-0.646381
H	0.784521	2.21908	-0.520411
H	-0.576791	2.02526	-1.69379
H	-0.915493	2.44401	0.0231741
N	0.148329	-0.654699	-2.44389
C	0.930651	-1.43587	-3.37337
H	-0.700199	-0.251327	-2.77027
H	0.438725	-1.46925	-4.37043
H	1.04913	-2.48092	-3.00585
H	1.9468	-0.996492	-3.49817
C	6.2991	2.90758	0.778749
C	7.385	1.93439	1.03355
O	8.24023	2.14857	1.88161
H	6.42549	3.78343	1.45163
H	5.31192	2.44033	0.9787
H	6.33634	3.2556	-0.275026
N	7.37654	0.827537	0.287108
C	8.36649	-0.211472	0.418572
C	8.37335	-1.01394	-0.867989
O	7.46214	-0.898873	-1.68547
H	6.69119	0.678086	-0.420636
H	9.34252	0.244192	0.527249
C	8.05748	-1.13424	1.61863
H	7.0552	-1.5995	1.5042
H	8.81787	-1.93531	1.72285
H	8.05418	-0.534279	2.55467
N	9.41976	-1.83421	-1.0875
C	9.51804	-2.62844	-2.28988
H	10.1508	-1.90805	-0.417125
H	10.4485	-3.23799	-2.28358
H	9.53321	-1.97508	-3.19217
H	8.64753	-3.31814	-2.37764
