44
  This energy is -2.5253 and Call times are: 24108
C	1.39877	-2.48877	1.99389
C	0.675666	-2.04613	0.780471
O	0.421502	-2.82837	-0.125062
H	1.63897	-3.57049	1.90421
H	0.766666	-2.33443	2.89358
H	2.34502	-1.9185	2.10508
N	0.328589	-0.757825	0.733848
C	-0.379051	-0.178785	-0.380058
C	-0.147491	1.31947	-0.351093
O	0.324404	1.86345	0.645522
H	0.567022	-0.124162	1.46498
H	0.0434331	-0.559172	-1.30141
C	-1.89178	-0.484105	-0.305503
H	-2.32181	-0.0930864	0.641224
H	-2.43966	-0.0398348	-1.16179
H	-2.04793	-1.58471	-0.326342
N	-0.456228	2.02125	-1.45933
C	-0.258621	3.45037	-1.52824
H	-0.830387	1.56175	-2.25815
H	-0.573622	3.84354	-2.51993
H	0.814715	3.70643	-1.37455
H	-0.853174	3.9678	-0.740875
C	7.09501	-0.71073	3.21091
C	6.45221	-1.11277	1.93954
O	6.18057	-2.28336	1.71058
H	7.26359	-1.61269	3.83853
H	6.44021	-0.00515372	3.76428
H	8.07315	-0.225627	3.00874
N	6.19666	-0.133655	1.06869
C	5.57475	-0.367599	-0.210111
C	5.90749	0.805396	-1.11156
O	6.37622	1.84255	-0.646324
H	6.44924	0.812144	1.2547
H	6.00589	-1.25606	-0.653766
C	4.04285	-0.513882	-0.0722548
H	3.60393	0.399053	0.383824
H	3.56083	-0.694268	-1.05505
H	3.81231	-1.37567	0.591307
N	5.69145	0.658734	-2.43361
C	5.98943	1.71734	-3.36996
H	5.3182	-0.19089	-2.79146
H	5.74135	1.40522	-4.40837
H	7.07097	1.98208	-3.3325
H	5.40144	2.63239	-3.12887
