44
  This energy is 0.1059 and Call times are: 12749
C	-3.06303	-1.65646	-0.0120781
C	-2.25187	-0.420709	0.0663624
O	-2.77891	0.683237	0.0619223
H	-4.13936	-1.38582	-0.0762693
H	-2.90216	-2.27783	0.893923
H	-2.78482	-2.24041	-0.914601
N	-0.928549	-0.583381	0.135148
C	-0.00825538	0.522633	0.216503
C	1.35193	0.0314572	-0.23944
O	1.58061	-1.17141	-0.351917
H	-0.509661	-1.48713	0.108576
H	-0.326101	1.29615	-0.471047
C	0.0816473	1.07482	1.65669
H	0.407332	0.278496	2.35948
H	0.789303	1.92665	1.72288
H	-0.921221	1.43024	1.97929
N	2.28445	0.958342	-0.534889
C	3.60401	0.584874	-0.988172
H	2.07776	1.92701	-0.444318
H	4.22518	1.48804	-1.17706
H	3.54327	-0.00255376	-1.93288
H	4.11923	-0.0416945	-0.224538
C	6.57001	-1.40672	0.313546
C	5.21619	-1.11851	0.838262
O	4.82438	-1.61584	1.88499
H	7.09055	-2.10525	1.00416
H	7.1594	-0.468648	0.239696
H	6.49956	-1.87855	-0.689131
N	4.45841	-0.298941	0.105843
C	3.11969	0.0758426	0.48555
C	2.39738	0.549807	-0.760595
O	3.02031	0.80477	-1.78957
H	4.77833	0.0767046	-0.759881
H	2.60026	-0.799724	0.853862
C	3.1296	1.19413	1.55159
H	3.66383	2.09058	1.17068
H	2.10039	1.48502	1.84635
H	3.66252	0.834888	2.45884
N	1.05543	0.658159	-0.702168
C	0.281857	1.09028	-1.8428
H	0.568915	0.440334	0.137529
H	-0.802289	1.11675	-1.59546
H	0.428393	0.396817	-2.70238
H	0.593045	2.11029	-2.16516
