44
  This energy is -0.2269 and Call times are: 3519
C	1.12251	-3.12572	-1.0469
C	0.495798	-1.81142	-1.31349
O	0.238576	-1.45309	-2.45451
H	1.29468	-3.65273	-2.01048
H	0.455234	-3.74605	-0.412277
H	2.09734	-2.98794	-0.533422
N	0.238099	-1.05019	-0.247429
C	-0.369407	0.252912	-0.345921
C	-0.040617	1.01726	0.921717
O	0.412876	0.436623	1.90611
H	0.479019	-1.34106	0.674679
H	0.0751218	0.786507	-1.17643
C	-1.9009	0.147784	-0.520798
H	-2.35359	-0.400754	0.332603
H	-2.37186	1.14936	-0.597119
H	-2.12856	-0.415189	-1.45213
N	-0.242807	2.34959	0.918526
C	0.052747	3.1615	2.07595
H	-0.603792	2.80201	0.109674
H	-0.18238	4.23032	1.87698
H	1.13107	3.0841	2.34517
H	-0.54701	2.82796	2.95358
C	10.0107	-2.12966	-2.64801
C	10.3883	-1.09103	-1.66319
O	11.5505	-0.730038	-1.53874
H	10.9209	-2.47511	-3.18472
H	9.29399	-1.71366	-3.38697
H	9.54728	-2.99653	-2.13157
N	9.39717	-0.584598	-0.925953
C	9.60715	0.432673	0.0729944
C	8.43578	0.389883	1.03493
O	7.41333	-0.232205	0.75307
H	8.45894	-0.907821	-1.01646
H	10.5022	0.195552	0.633919
C	9.71839	1.83468	-0.566633
H	8.79873	2.07441	-1.14184
H	9.88026	2.62034	0.199732
H	10.5793	1.85257	-1.26993
N	8.56773	1.03674	2.20973
C	7.50965	1.04114	3.1929
H	9.40573	1.5285	2.42225
H	7.80831	1.62796	4.08939
H	7.27067	0.0025169	3.51753
H	6.5828	1.49284	2.77087
