44
  This energy is -3.1534 and Call times are: 6279
C	-1.01646	2.7242	-1.91616
C	-0.75432	2.07591	-0.611473
O	-0.814282	2.70967	0.433155
H	-1.24733	3.79924	-1.7523
H	-1.88341	2.24252	-2.41537
H	-0.12252	2.64417	-2.56993
N	-0.44702	0.77716	-0.645754
C	-0.166347	0.0087748	0.540684
C	0.625152	-1.21629	0.125961
O	0.701476	-1.54473	-1.05647
H	-0.372812	0.278809	-1.50545
H	0.458954	0.596462	1.20076
C	-1.46789	-0.416791	1.25622
H	-2.10729	-1.01893	0.575983
H	-1.25542	-1.0085	2.17028
H	-2.03908	0.489473	1.55383
N	1.25397	-1.91147	1.0941
C	2.04063	-3.08467	0.792514
H	1.18594	-1.62552	2.04428
H	2.47514	-3.51616	1.7211
H	2.87562	-2.83047	0.100105
H	1.41233	-3.86433	0.304123
C	6.6294	-1.82733	2.96345
C	6.07104	-1.47316	1.63906
O	5.13903	-2.10192	1.15686
H	6.07744	-2.70109	3.37301
H	6.5217	-0.973343	3.66483
H	7.70318	-2.09333	2.86754
N	6.64336	-0.443896	1.01022
C	6.21112	0.0195236	-0.284089
C	7.35244	0.80227	-0.903724
O	8.31047	1.16246	-0.222352
H	7.42091	0.0418656	1.40058
H	6.01732	-0.836667	-0.91769
C	4.95468	0.911574	-0.171405
H	5.15684	1.78859	0.479818
H	4.61907	1.27001	-1.16622
H	4.12635	0.326997	0.28498
N	7.28567	1.06569	-2.22363
C	8.33158	1.79461	-2.90254
H	6.50551	0.759496	-2.7592
H	8.09246	1.91097	-3.9826
H	9.30449	1.25891	-2.81471
H	8.45491	2.80928	-2.45936
