44
  This energy is -2.1587 and Call times are: 2423
C	-0.50988	3.43272	-0.287321
C	-0.853043	2.03306	-0.62553
O	-1.84805	1.76759	-1.28582
H	-1.27846	4.11284	-0.714615
H	0.480792	3.69734	-0.713192
H	-0.485442	3.56532	0.814842
N	-0.0246417	1.09196	-0.166787
C	-0.225147	-0.313648	-0.413547
C	0.545718	-1.0861	0.639219
O	1.38618	-0.525802	1.34031
H	0.766673	1.31892	0.394684
H	-1.27512	-0.546432	-0.289304
C	0.259485	-0.711595	-1.8256
H	1.33684	-0.470788	-1.94983
H	0.10643	-1.79324	-2.01897
H	-0.312016	-0.138045	-2.58755
N	0.259504	-2.39438	0.789194
C	0.934065	-3.20738	1.77418
H	-0.428967	-2.82785	0.217051
H	0.561417	-4.2549	1.74141
H	0.762145	-2.80613	2.79921
H	2.03242	-3.21988	1.58804
C	8.21489	-2.14504	-0.972764
C	7.14797	-1.16701	-1.28315
O	7.00368	-0.726301	-2.41517
H	8.79607	-2.35985	-1.89577
H	7.76968	-3.09145	-0.600044
H	8.90122	-1.73181	-0.203909
N	6.36836	-0.796711	-0.2646
C	5.28818	0.14616	-0.40965
C	4.97864	0.714598	0.96159
O	5.42435	0.183976	1.97727
H	6.51446	-1.1408	0.659086
H	5.61704	0.964005	-1.03819
C	4.02994	-0.526737	-1.00222
H	3.6957	-1.3657	-0.35527
H	3.19631	0.196477	-1.11539
H	4.27015	-0.940062	-2.00602
N	4.22065	1.82725	1.02047
C	3.88417	2.44648	2.28123
H	3.87538	2.2458	0.186908
H	3.25312	3.34824	2.12041
H	4.80583	2.75616	2.82519
H	3.32231	1.73644	2.93033
