44
  This energy is -4.4748 and Call times are: 20930
C	1.29544	-2.67709	-1.81139
C	0.190519	-1.75733	-1.4587
O	-0.862648	-1.76587	-2.081
H	0.989833	-3.30311	-2.67775
H	1.52917	-3.34123	-0.952846
H	2.20178	-2.09837	-2.0881
N	0.413808	-0.926055	-0.438164
C	-0.564695	0.0262776	0.0227296
C	0.16596	1.11005	0.791383
O	1.33259	0.951564	1.14591
H	1.28669	-0.908704	0.0421538
H	-1.03453	0.491003	-0.834804
C	-1.62148	-0.646116	0.927281
H	-1.13597	-1.12242	1.80565
H	-2.37655	0.0843096	1.28381
H	-2.14878	-1.43875	0.352967
N	-0.501477	2.25212	1.04867
C	0.116855	3.3439	1.76411
H	-1.44267	2.36395	0.747196
H	-0.59351	4.19234	1.87722
H	1.01699	3.71067	1.21961
H	0.437176	3.01691	2.77981
C	4.2093	2.52458	2.33672
C	4.75647	1.20476	1.94957
O	5.47437	0.569911	2.70989
H	4.56404	2.78404	3.35785
H	3.09944	2.49282	2.33915
H	4.55489	3.30546	1.62698
N	4.42752	0.759682	0.734636
C	4.88201	-0.505849	0.21628
C	4.7773	-0.454761	-1.29556
O	4.13586	0.434783	-1.85153
H	3.86572	1.29935	0.113286
H	5.92665	-0.63507	0.469473
C	4.03717	-1.67583	0.768104
H	2.96597	-1.5397	0.507119
H	4.38453	-2.65179	0.371108
H	4.12133	-1.70165	1.87643
N	5.42781	-1.40197	-1.99957
C	5.39502	-1.42643	-3.44335
H	5.94741	-2.10918	-1.53148
H	5.98844	-2.28149	-3.83574
H	5.81827	-0.484684	-3.86195
H	4.34829	-1.52789	-3.81109
