44
  This energy is -6.2309 and Call times are: 29295
C	1.81464	-0.34263	2.95226
C	0.940699	-0.890584	1.89057
O	0.678701	-2.08446	1.84049
H	2.14852	-1.1694	3.61621
H	1.25852	0.402925	3.55864
H	2.70771	0.139697	2.50199
N	0.468095	-0.0146796	1.00074
C	-0.394268	-0.395841	-0.0891589
C	-0.306649	0.682446	-1.15164
O	0.202686	1.77291	-0.900046
H	0.712349	0.950767	1.03523
H	-0.0260912	-1.31653	-0.523736
C	-1.85661	-0.560221	0.381625
H	-2.2309	0.385936	0.827512
H	-2.52332	-0.853833	-0.455075
H	-1.90712	-1.35199	1.16053
N	-0.785074	0.392368	-2.37759
C	-0.733682	1.35248	-3.45542
H	-1.18701	-0.49824	-2.56332
H	-1.17751	0.927151	-4.38243
H	0.319643	1.64329	-3.67263
H	-1.29824	2.2748	-3.18749
C	5.01405	-3.06954	1.59143
C	5.01295	-1.58928	1.59874
O	5.14176	-0.961785	2.64092
H	5.13723	-3.44187	2.63165
H	5.85425	-3.44842	0.972293
H	4.054	-3.45111	1.18443
N	4.85885	-0.99055	0.415463
C	4.8373	0.442141	0.261315
C	4.14579	0.759262	-1.05035
O	3.9459	-0.12159	-1.88461
H	4.72566	-1.51284	-0.422635
H	4.2445	0.872899	1.05825
C	6.26623	1.02975	0.264204
H	6.8718	0.585169	-0.554176
H	6.25331	2.13274	0.145851
H	6.76243	0.789604	1.22974
N	3.74308	2.0291	-1.25366
C	3.06586	2.42189	-2.46744
H	3.9077	2.72601	-0.563409
H	2.81774	3.50598	-2.44613
H	2.1191	1.84806	-2.59241
H	3.70795	2.22649	-3.35666
