44
  This energy is 0.1018 and Call times are: 10201
C	-3.409	-0.451484	-0.548632
C	-2.26718	-0.0919471	0.322103
O	-2.44562	0.371314	1.44015
H	-4.36004	-0.22423	-0.0197242
H	-3.38111	-1.53533	-0.788055
H	-3.37222	0.135828	-1.49026
N	-1.04856	-0.296057	-0.183528
C	0.159401	0.00406612	0.542828
C	1.28354	0.153027	-0.46383
O	1.14098	-0.223533	-1.6256
H	-0.916373	-0.646782	-1.10681
H	0.0402818	0.955209	1.04603
C	0.498255	-1.11175	1.55636
H	0.619109	-2.08622	1.03683
H	1.42774	-0.883785	2.11749
H	-0.333406	-1.21171	2.28745
N	2.42675	0.729543	-0.0434687
C	3.54691	0.924101	-0.934293
H	2.52006	1.03411	0.898742
H	4.39292	1.41169	-0.401587
H	3.25675	1.56878	-1.79536
H	3.90227	-0.0516215	-1.33786
C	5.32171	2.28656	-1.12816
C	4.12855	1.93863	-0.324098
O	3.63655	2.74087	0.457461
H	5.63961	3.32345	-0.88391
H	5.0832	2.22952	-2.21107
H	6.15565	1.59098	-0.896512
N	3.63374	0.710903	-0.497917
C	2.47702	0.226597	0.212215
C	2.51247	-1.28901	0.181809
O	3.26831	-1.88487	-0.583352
H	4.06095	0.0564824	-1.11611
H	2.54439	0.536499	1.24735
C	1.16809	0.740353	-0.427984
H	1.10257	0.421193	-1.49004
H	0.275445	0.369444	0.116436
H	1.15491	1.85176	-0.400604
N	1.70567	-1.95038	1.03485
C	1.68012	-3.39363	1.08541
H	1.10648	-1.45009	1.65122
H	0.952192	-3.74755	1.84838
H	2.68567	-3.79543	1.34745
H	1.3861	-3.8164	0.0974896
