44
  This energy is -0.6085 and Call times are: 28220
C	-0.237541	-3.42162	-0.601825
C	0.39599	-2.10211	-0.822572
O	1.4224	-1.99521	-1.47949
H	0.366173	-4.20773	-1.10524
H	-1.2634	-3.42931	-1.02654
H	-0.285876	-3.64618	0.484536
N	-0.210196	-1.05227	-0.263349
C	0.285581	0.295022	-0.389221
C	-0.298382	1.11425	0.745276
O	-1.23678	0.683924	1.41315
H	-1.02975	-1.15601	0.293884
H	1.36148	0.286701	-0.269055
C	-0.107676	0.914368	-1.74895
H	-1.21204	0.92071	-1.86919
H	0.272613	1.95172	-1.84926
H	0.325139	0.304468	-2.57166
N	0.261698	2.31235	1.00388
C	-0.219758	3.15672	2.07225
H	1.02494	2.63985	0.456676
H	0.368304	4.09947	2.12381
H	-0.134047	2.63609	3.0535
H	-1.29064	3.41962	1.91328
C	5.28929	3.2159	1.33434
C	5.86224	1.85385	1.24625
O	6.89422	1.56244	1.83499
H	5.93948	3.8469	1.9785
H	4.273	3.17536	1.77969
H	5.23186	3.67317	0.324115
N	5.19581	0.977906	0.490641
C	5.62811	-0.384646	0.307882
C	4.98442	-0.911595	-0.959882
O	4.05578	-0.306218	-1.49184
H	4.37211	1.23563	-0.0073818
H	6.70075	-0.39688	0.161775
C	5.23048	-1.26725	1.51205
H	4.12951	-1.25187	1.65947
H	5.56196	-2.31702	1.37469
H	5.70736	-0.870098	2.43455
N	5.48106	-2.04785	-1.48741
C	4.93974	-2.61812	-2.699
H	6.23753	-2.51914	-1.04598
H	5.48049	-3.5516	-2.97001
H	5.03243	-1.90079	-3.5464
H	3.86051	-2.86278	-2.57024
