44
  This energy is -2.7037 and Call times are: 23248
C	-0.16332	1.64285	-3.06602
C	-0.583106	0.564089	-2.14339
O	-1.50543	-0.187734	-2.42722
H	-0.807974	1.62325	-3.97151
H	0.893036	1.4936	-3.37369
H	-0.26786	2.63164	-2.57175
N	0.09354	0.467951	-0.996531
C	-0.197492	-0.530172	0.00140606
C	0.361558	-0.0433509	1.32417
O	1.15211	0.897526	1.36436
H	0.823828	1.1048	-0.764079
H	-1.27119	-0.61662	0.109935
C	0.425954	-1.89444	-0.368999
H	1.52741	-1.80196	-0.480204
H	0.203667	-2.66534	0.397214
H	0.0092028	-2.2395	-1.34028
N	-0.056076	-0.663341	2.44542
C	0.412885	-0.260759	3.75086
H	-0.701681	-1.41808	2.3926
H	-0.0437801	-0.892067	4.54469
H	0.147964	0.802376	3.95286
H	1.52055	-0.359351	3.81825
C	6.53372	2.65503	2.07268
C	6.87911	1.4644	1.26378
O	8.04485	1.15336	1.06181
H	7.46833	3.15236	2.41183
H	5.94316	2.35414	2.96348
H	5.94467	3.37338	1.46446
N	5.85445	0.764949	0.770622
C	6.03053	-0.417245	-0.0345121
C	4.75673	-0.634601	-0.827877
O	3.72611	-0.0287277	-0.540536
H	4.90961	1.04516	0.917907
H	6.83277	-0.245581	-0.740917
C	6.3288	-1.65481	0.841039
H	5.5041	-1.82759	1.56501
H	6.46509	-2.56683	0.224261
H	7.26348	-1.48253	1.41796
N	4.80506	-1.494	-1.86475
C	3.64483	-1.75523	-2.68438
H	5.65041	-1.96918	-2.08571
H	3.88532	-2.49081	-3.48334
H	3.28603	-0.817692	-3.16762
H	2.81272	-2.16632	-2.06812
