44
  This energy is -3.8136 and Call times are: 32364
C	0.638556	-2.5818	2.24782
C	0.455654	-1.14749	1.93079
O	0.410398	-0.304715	2.81633
H	0.710254	-2.70809	3.34999
H	1.57212	-2.96071	1.78123
H	-0.226096	-3.16977	1.87418
N	0.338839	-0.836175	0.63781
C	0.156392	0.515565	0.172688
C	-0.445256	0.452639	-1.21774
O	-0.458339	-0.601915	-1.84986
H	0.348144	-1.53514	-0.0723265
H	-0.555373	1.01623	0.816735
C	1.49631	1.284	0.13749
H	2.22436	0.767256	-0.523602
H	1.35944	2.32525	-0.220051
H	1.92733	1.32204	1.16166
N	-0.979927	1.5834	-1.71925
C	-1.5857	1.61613	-3.03003
H	-0.965953	2.42494	-1.18931
H	-1.96552	2.63545	-3.26236
H	-2.4396	0.902723	-3.08614
H	-0.84555	1.33092	-3.81234
C	4.40428	2.20493	2.46248
C	4.79207	1.9009	1.06663
O	4.64799	2.72693	0.175894
H	3.99148	3.23591	2.51274
H	5.29026	2.13974	3.12852
H	3.62852	1.4899	2.80872
N	5.29577	0.684995	0.84254
C	5.71859	0.242381	-0.462122
C	5.7297	-1.2739	-0.458754
O	5.66019	-1.90067	0.59678
H	5.38106	0.0107271	1.57125
H	4.99064	0.564367	-1.19594
C	7.12301	0.783176	-0.811765
H	7.86718	0.451521	-0.056561
H	7.45161	0.444391	-1.81577
H	7.10183	1.89479	-0.809769
N	5.79591	-1.90117	-1.64961
C	5.79983	-3.34235	-1.74535
H	5.84431	-1.37626	-2.49303
H	5.861	-3.66571	-2.80786
H	4.87042	-3.76805	-1.3024
H	6.67063	-3.77028	-1.19784
