44
  This energy is -2.6541 and Call times are: 8195
C	-0.921839	-3.33995	-0.347955
C	-0.91024	-2.06432	0.402935
O	-1.57916	-1.92121	1.41711
H	-1.60512	-4.05705	0.156784
H	0.0988648	-3.77599	-0.377136
H	-1.28088	-3.17056	-1.38494
N	-0.140404	-1.09211	-0.0915629
C	-0.0249101	0.20439	0.526965
C	0.470227	1.17933	-0.523544
O	0.935355	0.774528	-1.58732
H	0.377186	-1.21129	-0.934672
H	-1.00711	0.532198	0.843047
C	0.95169	0.171677	1.72375
H	1.95813	-0.165676	1.39604
H	1.04286	1.16833	2.20244
H	0.578398	-0.546936	2.48559
N	0.36062	2.49553	-0.255956
C	0.794622	3.49753	-1.20138
H	-0.0251231	2.80321	0.607621
H	0.623243	4.51967	-0.797518
H	0.23557	3.40127	-2.16025
H	1.88081	3.38526	-1.42224
C	6.51491	-3.3726	0.0603684
C	5.51798	-2.28262	0.156619
O	4.32108	-2.52474	0.229416
H	5.98934	-4.3522	0.0615324
H	7.20743	-3.33532	0.927467
H	7.09623	-3.27774	-0.880916
N	5.99882	-1.03717	0.153006
C	5.15406	0.127094	0.240782
C	5.93208	1.30934	-0.303481
O	7.14614	1.23397	-0.482963
H	6.9739	-0.852234	0.0638864
H	4.28875	-0.0173927	-0.3936
C	4.72304	0.400673	1.69903
H	5.6132	0.547754	2.34718
H	4.07235	1.29639	1.77022
H	4.15513	-0.473124	2.08647
N	5.24229	2.42823	-0.600598
C	5.89663	3.59986	-1.13473
H	4.25918	2.46708	-0.454967
H	5.16078	4.41505	-1.31142
H	6.39712	3.36384	-2.10171
H	6.67156	3.97418	-0.427232
