44
  This energy is -2.3631 and Call times are: 30291
C	0.951988	1.9502	-2.72334
C	1.04172	0.715413	-1.91189
O	1.69623	-0.245444	-2.2925
H	1.54176	1.82002	-3.65666
H	1.36283	2.8116	-2.15586
H	-0.105583	2.15565	-2.99218
N	0.368956	0.713435	-0.758739
C	0.359785	-0.41394	0.138908
C	-0.860797	-0.290056	1.03001
O	-1.49146	0.763786	1.08929
H	-0.184256	1.49161	-0.473547
H	0.254083	-1.32317	-0.4392
C	1.6428	-0.458951	0.998539
H	1.74844	0.475604	1.58978
H	1.63909	-1.3259	1.69076
H	2.52969	-0.548567	0.334051
N	-1.23602	-1.3781	1.73099
C	-2.39222	-1.3577	2.59641
H	-0.716756	-2.22375	1.66405
H	-2.5346	-2.34636	3.08581
H	-3.31281	-1.11785	2.01655
H	-2.27438	-0.586435	3.39168
C	6.90111	0.0825052	3.18688
C	5.77122	0.300559	2.25575
O	4.66046	0.603721	2.66902
H	6.5506	0.232326	4.23118
H	7.71683	0.805203	2.97446
H	7.2886	-0.952861	3.08288
N	6.03446	0.142219	0.956521
C	5.03883	0.320156	-0.070073
C	5.50817	-0.419838	-1.30756
O	6.66909	-0.813803	-1.4019
H	6.93625	-0.133365	0.634418
H	4.11273	-0.13675	0.254961
C	4.82608	1.81576	-0.394133
H	5.77827	2.2815	-0.726605
H	4.05997	1.95639	-1.18412
H	4.48357	2.34683	0.520631
N	4.60436	-0.645626	-2.28128
C	4.95702	-1.35251	-3.49046
H	3.66795	-0.325125	-2.18305
H	4.07871	-1.43533	-4.16793
H	5.31556	-2.38055	-3.25419
H	5.77036	-0.819662	-4.03426
