44
  This energy is -1.1002 and Call times are: 7837
C	2.24068	0.649997	-2.58514
C	0.888241	0.307886	-2.09011
O	-0.0688257	0.254651	-2.85016
H	2.19508	0.834523	-3.68047
H	2.94254	-0.188141	-2.39086
H	2.61215	1.56713	-2.08133
N	0.778453	0.0704772	-0.780927
C	-0.47105	-0.274484	-0.151187
C	-0.349338	0.0378797	1.32761
O	0.748398	0.260601	1.83476
H	1.56009	0.145533	-0.167456
H	-1.25447	0.353198	-0.556576
C	-0.808778	-1.76864	-0.352532
H	-0.00268696	-2.40968	0.0638964
H	-1.77036	-2.03764	0.130981
H	-0.894048	-1.98482	-1.4398
N	-1.48448	0.0829038	2.05248
C	-1.46761	0.384284	3.46495
H	-2.36376	-0.0932214	1.62228
H	-2.49871	0.372057	3.882
H	-1.02806	1.3918	3.64648
H	-0.856197	-0.364105	4.01928
C	5.91651	0.660154	3.41895
C	5.62165	1.0358	2.01782
O	4.97325	2.03931	1.75505
H	5.46054	1.40809	4.10345
H	7.01386	0.641151	3.5871
H	5.49088	-0.340231	3.64481
N	6.0952	0.22009	1.07298
C	5.89069	0.452404	-0.334515
C	6.07961	-0.867369	-1.05684
O	6.59765	-1.82662	-0.488242
H	6.59712	-0.610021	1.30085
H	4.86834	0.771078	-0.493638
C	6.88219	1.5038	-0.880973
H	7.93002	1.17398	-0.715477
H	6.7274	1.6852	-1.96444
H	6.73448	2.46552	-0.342991
N	5.64087	-0.952556	-2.32816
C	5.76731	-2.17249	-3.09101
H	5.21789	-0.167355	-2.76837
H	5.34998	-2.04179	-4.11375
H	5.22034	-3.00567	-2.59313
H	6.83723	-2.46881	-3.18403
