44
  This energy is -1.5525 and Call times are: 154
C	-0.143114	-2.85156	-1.99355
C	-0.156268	-2.1856	-0.671612
O	-0.400586	-2.81247	0.350069
H	-0.38557	-3.9288	-1.86454
H	0.861994	-2.76244	-2.45684
H	-0.900196	-2.39034	-2.66216
N	0.105281	-0.876432	-0.664519
C	0.129199	-0.0906651	0.5433
C	-0.0670669	1.3626	0.15764
O	0.0401813	1.72223	-1.01326
H	0.274103	-0.371279	-1.50669
H	-0.705779	-0.380759	1.16838
C	1.46478	-0.263661	1.30054
H	2.31926	0.0342012	0.656136
H	1.48652	0.339893	2.23115
H	1.59725	-1.33255	1.57637
N	-0.382602	2.23224	1.13752
C	-0.599863	3.63355	0.863092
H	-0.471847	1.92045	2.07776
H	-0.847013	4.1836	1.79776
H	-1.44094	3.76743	0.144821
H	0.311801	4.0926	0.416644
C	5.05689	-2.85156	-1.99355
C	5.04373	-2.1856	-0.671612
O	4.79941	-2.81247	0.350069
H	4.81443	-3.9288	-1.86454
H	6.06199	-2.76244	-2.45684
H	4.2998	-2.39034	-2.66216
N	5.30528	-0.876432	-0.664519
C	5.3292	-0.0906651	0.5433
C	5.13293	1.3626	0.15764
O	5.24018	1.72223	-1.01326
H	5.4741	-0.371279	-1.50669
H	4.49422	-0.380759	1.16838
C	6.66478	-0.263661	1.30054
H	7.51926	0.0342012	0.656136
H	6.68652	0.339893	2.23115
H	6.79725	-1.33255	1.57637
N	4.8174	2.23224	1.13752
C	4.60014	3.63355	0.863092
H	4.72815	1.92045	2.07776
H	4.35299	4.1836	1.79776
H	3.75906	3.76743	0.144821
H	5.5118	4.0926	0.416644
