44
  This energy is -1.0124 and Call times are: 29151
C	-3.1545	0.685771	-1.30574
C	-1.67725	0.759768	-1.36451
O	-1.10483	1.20239	-2.35087
H	-3.57978	1.07311	-2.25704
H	-3.53527	1.30238	-0.464529
H	-3.47997	-0.36698	-1.16888
N	-1.01808	0.31439	-0.292364
C	0.420071	0.321796	-0.200187
C	0.824481	-0.688772	0.855486
O	-0.00793803	-1.15464	1.63129
H	-1.49493	-0.070839	0.493224
H	0.834904	-0.00566636	-1.14504
C	0.952522	1.72305	0.174127
H	0.524423	2.05616	1.1436
H	2.05957	1.73235	0.245802
H	0.648621	2.45428	-0.606309
N	2.11678	-1.06882	0.894478
C	2.59158	-2.03488	1.85753
H	2.77371	-0.685664	0.25348
H	3.68205	-2.21364	1.73038
H	2.06042	-3.00641	1.73406
H	2.41416	-1.674	2.89651
C	8.18899	0.94	2.83585
C	6.92288	0.596573	2.15012
O	5.8799	0.465817	2.77588
H	8.00146	1.03472	3.92751
H	8.58138	1.90576	2.45353
H	8.94346	0.142649	2.66864
N	6.99026	0.434876	0.826606
C	5.84349	0.0997771	0.0207181
C	6.34593	-0.503117	-1.27671
O	7.52836	-0.404694	-1.59918
H	7.85159	0.515475	0.332082
H	5.2631	-0.657524	0.532298
C	4.97848	1.34595	-0.272436
H	5.5772	2.12106	-0.796693
H	4.09453	1.09147	-0.89264
H	4.61761	1.77887	0.685943
N	5.45716	-1.16408	-2.04431
C	5.8468	-1.78099	-3.29081
H	4.50623	-1.23889	-1.76257
H	4.97498	-2.2734	-3.77529
H	6.63343	-2.55103	-3.11906
H	6.25592	-1.02054	-3.99474
