44
  This energy is -5.6211 and Call times are: 25557
C	0.508666	-0.775255	3.35654
C	-0.318961	-0.78529	2.12929
O	-1.37291	-1.40453	2.08216
H	0.0155565	-1.39441	4.13715
H	0.617107	0.262432	3.73637
H	1.51335	-1.19773	3.14426
N	0.152402	-0.0916992	1.09049
C	-0.539299	-0.00629724	-0.170892
C	0.472073	0.383101	-1.23143
O	1.58143	0.809171	-0.9158
H	1.02662	0.384701	1.13188
H	-0.92497	-0.98477	-0.427647
C	-1.6803	1.03407	-0.117413
H	-1.2812	2.03656	0.146899
H	-2.2151	1.10228	-1.08701
H	-2.41376	0.738067	0.663977
N	0.117448	0.224045	-2.52175
C	1.01927	0.556838	-3.59979
H	-0.782238	-0.128948	-2.75669
H	0.544051	0.357898	-4.58561
H	1.9525	-0.0479256	-3.53217
H	1.30186	1.63366	-3.55761
C	4.61354	-3.20309	1.29455
C	4.34734	-1.747	1.30636
O	3.51146	-1.26285	2.05696
H	3.95125	-3.70354	2.034
H	5.67136	-3.40084	1.56791
H	4.40802	-3.62171	0.286842
N	5.0614	-1.00671	0.45521
C	4.91568	0.423209	0.350628
C	5.44989	0.848176	-1.00335
O	6.12632	0.0778416	-1.68221
H	5.71861	-1.41654	-0.171726
H	3.86269	0.672809	0.381893
C	5.68345	1.15072	1.47685
H	6.76322	0.89188	1.44224
H	5.57325	2.25192	1.39941
H	5.28354	0.829953	2.46343
N	5.1378	2.08485	-1.43838
C	5.5919	2.57199	-2.72005
H	4.58325	2.69073	-0.877474
H	5.23351	3.61026	-2.89556
H	5.21058	1.9257	-3.54354
H	6.70492	2.57227	-2.76855
