44
  This energy is -0.7868 and Call times are: 5330
C	1.46455	3.07733	-0.715014
C	1.28486	1.8916	0.152706
O	1.99101	1.71432	1.13577
H	2.29807	3.69821	-0.32053
H	0.536659	3.68702	-0.72667
H	1.71123	2.76037	-1.75021
N	0.322423	1.03723	-0.202472
C	0.0273528	-0.161121	0.541645
C	-0.706691	-1.11399	-0.381646
O	-1.17056	-0.721271	-1.45049
H	-0.226784	1.17783	-1.02195
H	0.95746	-0.633978	0.8304
C	-0.837853	0.146954	1.78407
H	-1.79094	0.63259	1.48425
H	-1.06679	-0.773557	2.35942
H	-0.289535	0.846753	2.45174
N	-0.809979	-2.40149	0.00262494
C	-1.48102	-3.38323	-0.817177
H	-0.421737	-2.70126	0.867865
H	-1.46215	-4.38245	-0.328862
H	-0.985701	-3.46959	-1.81138
H	-2.54399	-3.09488	-0.984917
C	4.91607	2.17178	-2.37279
C	5.33163	0.820947	-1.9326
O	5.09054	-0.167642	-2.61162
H	4.38758	2.09397	-3.34773
H	5.80587	2.82411	-2.49745
H	4.22887	2.62312	-1.62648
N	5.97112	0.749026	-0.762881
C	6.43773	-0.493889	-0.202286
C	6.62319	-0.291836	1.28903
O	6.62974	0.837905	1.77428
H	6.13582	1.5582	-0.205158
H	5.67514	-1.25001	-0.339459
C	7.76945	-0.93737	-0.847997
H	8.54933	-0.159077	-0.705978
H	8.13151	-1.89416	-0.418757
H	7.62055	-1.08083	-1.94042
N	6.75718	-1.39113	2.05688
C	6.92654	-1.29703	3.48819
H	6.74208	-2.29687	1.64623
H	7.02098	-2.30889	3.94037
H	6.05374	-0.784944	3.95426
H	7.84259	-0.71431	3.73813
