44
  This energy is -2.5062 and Call times are: 3216
C	-0.185139	-3.46025	-0.344263
C	-0.478516	-2.08784	-0.815024
O	-0.986245	-1.8898	-1.91023
H	-0.489404	-4.18963	-1.12612
H	-0.750977	-3.6745	0.58673
H	0.902183	-3.57417	-0.150104
N	-0.15379	-1.09404	0.0152057
C	-0.37786	0.29386	-0.301588
C	0.544013	1.12522	0.569175
O	1.11697	0.624678	1.5351
H	0.286055	-1.26678	0.892493
H	-0.101341	0.468279	-1.33367
C	-1.84875	0.696901	-0.0543006
H	-2.12926	0.516035	1.00528
H	-2.02481	1.76494	-0.29737
H	-2.51386	0.0799696	-0.697082
N	0.725651	2.41721	0.231871
C	1.59445	3.2825	0.995189
H	0.258623	2.8018	-0.557564
H	1.60993	4.30643	0.560947
H	2.63637	2.88801	0.999884
H	1.24787	3.35474	2.05152
C	6.55238	0.931909	-3.34159
C	6.47539	1.26094	-1.90041
O	6.66417	2.40172	-1.50107
H	6.80018	1.85121	-3.91547
H	5.57673	0.538577	-3.69686
H	7.34333	0.173125	-3.51935
N	6.19717	0.249036	-1.07517
C	6.08868	0.411999	0.35259
C	6.28976	-0.947517	0.993309
O	6.2504	-1.97336	0.3166
H	6.0742	-0.681428	-1.40991
H	6.88713	1.05818	0.694655
C	4.71123	0.988073	0.749935
H	3.89442	0.323025	0.396883
H	4.62436	1.11498	1.84863
H	4.57568	1.98337	0.273328
N	6.53305	-0.984302	2.31825
C	6.74889	-2.23234	3.01251
H	6.56807	-0.142721	2.84716
H	6.93081	-2.05369	4.09521
H	7.63091	-2.76805	2.59264
H	5.86072	-2.89722	2.91115
