44
  This energy is -1.1076 and Call times are: 30334
C	0.201921	-3.44025	-0.500065
C	0.0643535	-2.25893	0.381287
O	-0.178183	-2.38423	1.57375
H	0.0453506	-4.36452	0.0974783
H	1.21836	-3.46854	-0.946026
H	-0.556128	-3.40356	-1.3106
N	0.213257	-1.06574	-0.198787
C	0.108294	0.174797	0.527073
C	-0.190368	1.27546	-0.472213
O	-0.0538907	1.08292	-1.67892
H	0.381753	-0.975979	-1.17679
H	-0.730137	0.113463	1.20923
C	1.41299	0.491192	1.29178
H	2.27116	0.552732	0.589017
H	1.33557	1.44568	1.85191
H	1.62124	-0.323025	2.01967
N	-0.628494	2.45523	0.00966464
C	-0.949366	3.55729	-0.867077
H	-0.739244	2.58907	0.988977
H	-1.29002	4.43943	-0.281387
H	-1.76069	3.2724	-1.57548
H	-0.0581437	3.85624	-1.46502
C	7.00845	0.709888	3.32369
C	6.85524	-0.238514	2.19752
O	7.1935	-1.40912	2.3059
H	7.45717	0.179851	4.19178
H	6.01779	1.11307	3.62178
H	7.67524	1.54795	3.03046
N	6.33819	0.257242	1.07091
C	6.12771	-0.541299	-0.11013
C	6.04042	0.397397	-1.29776
O	5.89343	1.60703	-1.13344
H	6.09358	1.21945	0.985689
H	6.98761	-1.18184	-0.259632
C	4.83456	-1.3795	0.000706507
H	3.9545	-0.71928	0.15469
H	4.66951	-1.99569	-0.906955
H	4.9106	-2.06207	0.875045
N	6.15157	-0.139817	-2.52864
C	6.09237	0.677551	-3.718
H	6.27724	-1.12008	-2.64055
H	6.2013	0.0517069	-4.63107
H	6.90788	1.43661	-3.71404
H	5.11918	1.21668	-3.77639
