44
  This energy is -2.7495 and Call times are: 26192
C	-0.701899	-0.225218	3.40334
C	-0.566075	-0.830876	2.05949
O	-0.64384	-2.04131	1.90041
H	-0.865064	-1.02908	4.15371
H	-1.56916	0.467762	3.42477
H	0.22199	0.331084	3.66773
N	-0.350596	0.0130705	1.04772
C	-0.197718	-0.425141	-0.316623
C	0.528116	0.666861	-1.07816
O	0.652268	1.79199	-0.598059
H	-0.260192	0.994541	1.19427
H	0.42677	-1.30932	-0.334318
C	-1.5672	-0.710108	-0.972698
H	-2.20553	0.198866	-0.952227
H	-1.45315	-1.04789	-2.02326
H	-2.08932	-1.51083	-0.404919
N	1.04605	0.351359	-2.28157
C	1.76391	1.32283	-3.07346
H	0.941179	-0.566634	-2.64971
H	2.10956	0.872396	-4.02996
H	2.65526	1.69877	-2.52082
H	1.11236	2.19458	-3.3116
C	6.29066	-2.93749	-1.86966
C	6.18655	-1.46486	-1.76138
O	6.16434	-0.757255	-2.75903
H	6.3455	-3.22392	-2.94242
H	5.3995	-3.41852	-1.4144
H	7.20704	-3.29541	-1.3548
N	6.1254	-0.96399	-0.525358
C	6.02165	0.448418	-0.258582
C	6.49266	0.690011	1.16234
O	6.63313	-0.247074	1.9459
H	6.17375	-1.54884	0.279967
H	6.6905	0.98187	-0.922018
C	4.56956	0.947891	-0.429099
H	3.88601	0.398057	0.252491
H	4.48611	2.03508	-0.224579
H	4.23599	0.764148	-1.47367
N	6.76973	1.95887	1.52182
C	7.23529	2.28344	2.85001
H	6.65655	2.70253	0.871135
H	7.40543	3.37806	2.95052
H	8.19292	1.75825	3.06992
H	6.48762	1.973	3.61539
