44
  This energy is -4.0534 and Call times are: 8498
C	1.41201	2.59082	1.84933
C	1.18068	1.87908	0.572177
O	1.55869	2.34982	-0.491779
H	1.94138	3.54705	1.64623
H	2.03738	1.97041	2.52521
H	0.443351	2.8143	2.344
N	0.538	0.711609	0.651898
C	0.239841	-0.0969632	-0.503152
C	-0.900278	-1.02778	-0.13854
O	-1.23295	-1.18472	1.03472
H	0.209381	0.35272	1.52146
H	-0.1036	0.546004	-1.3036
C	1.47173	-0.915434	-0.949999
H	1.82182	-1.57343	-0.12623
H	1.24569	-1.53905	-1.83926
H	2.30015	-0.222175	-1.21317
N	-1.54267	-1.6533	-1.14455
C	-2.64788	-2.54884	-0.894175
H	-1.26311	-1.50769	-2.08789
H	-3.04087	-2.96476	-1.84802
H	-3.47727	-2.01429	-0.376859
H	-2.32746	-3.39735	-0.247227
C	8.39293	0.521966	-2.42606
C	7.67179	0.924044	-1.19745
O	8.04679	1.8759	-0.526749
H	9.2603	1.19978	-2.58129
H	7.71922	0.593271	-3.30576
H	8.764	-0.520022	-2.32855
N	6.60602	0.190386	-0.868441
C	5.80265	0.458008	0.297665
C	5.04927	-0.811063	0.645673
O	4.98291	-1.74218	-0.154604
H	6.3278	-0.600442	-1.40707
H	6.45581	0.691245	1.12896
C	4.80861	1.61304	0.0429087
H	4.14054	1.37071	-0.810953
H	4.18853	1.82184	0.938832
H	5.37284	2.53648	-0.212151
N	4.47937	-0.885377	1.86457
C	3.75191	-2.05902	2.28829
H	4.55032	-0.124084	2.50067
H	3.35767	-1.92616	3.31988
H	4.41294	-2.95578	2.2785
H	2.89262	-2.25606	1.60713
