44
  This energy is -0.4339 and Call times are: 27694
C	0.715743	3.23236	-1.07966
C	-0.181462	2.0583	-0.991356
O	-1.33196	2.10895	-1.404
H	0.16758	4.07919	-1.54684
H	1.60211	2.99046	-1.70308
H	1.04955	3.53629	-0.0651941
N	0.333548	0.958842	-0.436085
C	-0.415422	-0.262481	-0.280385
C	0.251015	-1.08226	0.807301
O	1.37889	-0.798575	1.20636
H	1.26296	0.939179	-0.0772821
H	-1.41586	-0.0212907	0.0558108
C	-0.46096	-1.06639	-1.59901
H	0.567048	-1.31154	-1.94138
H	-1.03703	-2.00734	-1.48271
H	-0.950288	-0.45456	-2.38792
N	-0.444955	-2.11124	1.32963
C	0.103823	-2.9401	2.37749
H	-1.35911	-2.32039	0.99824
H	-0.619258	-3.7326	2.67134
H	0.339634	-2.32915	3.2788
H	1.04415	-3.43172	2.03795
C	5.72183	2.61087	2.29353
C	6.00864	2.01311	0.970043
O	6.52895	2.66984	0.0787118
H	6.04317	3.6751	2.2933
H	6.27726	2.06797	3.08699
H	4.63314	2.56421	2.5069
N	5.66374	0.733338	0.810067
C	5.87907	0.0136443	-0.419771
C	4.93807	-1.17528	-0.434728
O	4.35707	-1.53001	0.589203
H	5.21395	0.217439	1.53427
H	5.61462	0.652945	-1.2525
C	7.34275	-0.465711	-0.542108
H	7.61089	-1.12077	0.314118
H	7.51208	-1.02012	-1.48801
H	8.02201	0.414387	-0.528736
N	4.74891	-1.80802	-1.6094
C	3.86209	-2.94246	-1.72239
H	5.22275	-1.50136	-2.42835
H	3.84284	-3.32404	-2.76703
H	2.82391	-2.65989	-1.43329
H	4.19398	-3.769	-1.05317
