44
  This energy is -2.5806 and Call times are: 15469
C	3.10218	-0.377924	-1.53616
C	2.17693	0.33988	-0.630691
O	2.56684	1.26475	0.0686436
H	4.12011	0.0590747	-1.44285
H	2.76281	-0.276833	-2.5885
H	3.1465	-1.45355	-1.26409
N	0.910518	-0.0825701	-0.620437
C	-0.10631	0.51558	0.207274
C	-1.22878	-0.491266	0.367125
O	-1.29104	-1.48341	-0.356477
H	0.611677	-0.855966	-1.17315
H	0.30685	0.706317	1.18961
C	-0.64757	1.81943	-0.42053
H	-1.07006	1.62021	-1.42847
H	-1.4306	2.2827	0.214301
H	0.18448	2.54819	-0.533415
N	-2.13455	-0.268467	1.33973
C	-3.23119	-1.1788	1.57394
H	-2.06288	0.536477	1.91952
H	-3.86646	-0.821285	2.4141
H	-2.85102	-2.19436	1.82955
H	-3.86924	-1.26767	0.665
C	11.6533	0.829796	-0.725217
C	10.2691	0.512734	-1.14308
O	9.92194	0.615096	-2.31164
H	12.2398	1.15317	-1.61249
H	12.1348	-0.0680718	-0.283898
H	11.649	1.65138	0.0217237
N	9.43377	0.119731	-0.178603
C	8.05672	-0.223497	-0.429097
C	7.30201	-0.107887	0.880975
O	7.90569	-0.0193444	1.94848
H	9.72075	0.0683121	0.774253
H	7.63389	0.497629	-1.11704
C	7.92762	-1.65657	-0.991913
H	8.36298	-2.39371	-0.283954
H	6.8686	-1.92405	-1.18608
H	8.48568	-1.72847	-1.95085
N	5.95572	-0.0840604	0.826805
C	5.1534	0.0355317	2.02186
H	5.48588	-0.149714	-0.0473626
H	4.07001	0.0349548	1.76984
H	5.38772	0.982945	2.55921
H	5.35255	-0.813171	2.71556
