44
  This energy is -3.789 and Call times are: 8370
C	1.96783	1.05827	-2.67092
C	1.37551	1.26183	-1.32969
O	1.6936	2.21809	-0.636234
H	2.69212	1.87521	-2.8804
H	1.17343	1.07471	-3.44647
H	2.50201	0.0855987	-2.70994
N	0.490153	0.347136	-0.927388
C	-0.171178	0.408908	0.351538
C	-0.667379	-0.984051	0.687227
O	-0.704989	-1.86214	-0.172646
H	0.261119	-0.443138	-1.48948
H	0.550289	0.692133	1.10741
C	-1.35415	1.40239	0.325669
H	-2.09203	1.10922	-0.451316
H	-1.86553	1.45254	1.30891
H	-0.977671	2.41867	0.0775118
N	-1.04119	-1.22477	1.95936
C	-1.51573	-2.52427	2.37446
H	-0.996685	-0.503024	2.64224
H	-1.77547	-2.52101	3.45602
H	-0.734994	-3.30054	2.20386
H	-2.42307	-2.81436	1.79675
C	7.09703	3.05568	0.488272
C	6.50908	1.79772	1.00114
O	6.61429	1.48441	2.17896
H	7.60582	3.58928	1.3203
H	6.30047	3.70994	0.0756632
H	7.84145	2.83469	-0.305421
N	5.87148	1.03472	0.110256
C	5.24776	-0.217168	0.457495
C	5.09794	-1.03125	-0.812966
O	5.24288	-0.507481	-1.91591
H	5.81773	1.28675	-0.852306
H	5.90325	-0.764125	1.12327
C	3.866	0.00527729	1.11198
H	3.19632	0.567241	0.42653
H	3.38301	-0.956626	1.38076
H	3.98928	0.603748	2.04084
N	4.8239	-2.34448	-0.685226
C	4.67551	-3.2011	-1.83864
H	4.71735	-2.7511	0.216182
H	4.45064	-4.2449	-1.52693
H	5.61053	-3.20994	-2.44435
H	3.84558	-2.84309	-2.48997
