44
  This energy is -9.8418 and Call times are: 33653
C	-0.691012	-0.330525	-3.39697
C	-0.0391226	0.36203	-2.26268
O	0.758082	1.27076	-2.4502
H	-0.328021	0.10726	-4.35219
H	-1.79272	-0.20482	-3.33981
H	-0.441322	-1.41233	-3.3796
N	-0.365934	-0.064524	-1.04054
C	0.18448	0.510025	0.161024
C	0.0260049	-0.503949	1.27726
O	-0.711544	-1.47831	1.14135
H	-0.994554	-0.82512	-0.901743
H	1.24428	0.678002	0.0172376
C	-0.531933	1.82711	0.534049
H	-1.61906	1.65126	0.680163
H	-0.110492	2.27228	1.45871
H	-0.409446	2.56103	-0.292093
N	0.736485	-0.307829	2.40542
C	0.658701	-1.22705	3.5168
H	1.33331	0.48293	2.49337
H	1.3142	-0.892172	4.35072
H	0.980612	-2.24736	3.20602
H	-0.385975	-1.29569	3.89775
C	4.59328	-0.976433	3.32967
C	4.36595	0.052696	2.29024
O	4.02761	1.18966	2.58911
H	4.40153	-0.534949	4.33176
H	5.64338	-1.33492	3.2899
H	3.90432	-1.83371	3.17681
N	4.54465	-0.333095	1.02469
C	4.36179	0.554099	-0.0961443
C	4.1305	-0.295953	-1.33031
O	4.36903	-1.50208	-1.31657
H	4.79202	-1.27002	0.792503
H	3.47086	1.14732	0.066368
C	5.59404	1.46341	-0.300652
H	6.50633	0.851565	-0.466428
H	5.45654	2.14793	-1.1628
H	5.75343	2.08001	0.610694
N	3.6367	0.313935	-2.42584
C	3.37314	-0.416972	-3.64342
H	3.44346	1.28952	-2.41481
H	2.97228	0.26014	-4.4296
H	2.6274	-1.22482	-3.4631
H	4.3062	-0.888181	-4.02881
