44
  This energy is -0.8587 and Call times are: 24657
C	0.575809	3.04374	1.59066
C	0.468474	2.2126	0.370463
O	0.514842	2.71568	-0.743653
H	0.688203	4.11074	1.29955
H	1.46249	2.7381	2.18496
H	-0.339359	2.93465	2.20994
N	0.314144	0.899936	0.558776
C	0.195586	-0.0372226	-0.529573
C	-0.469714	-1.29049	0.00514741
O	-0.576191	-1.47803	1.21565
H	0.248616	0.505698	1.47158
H	-0.454538	0.382942	-1.28646
C	1.57776	-0.38312	-1.12711
H	2.24237	-0.813296	-0.34778
H	1.49013	-1.10439	-1.96548
H	2.05518	0.543368	-1.5142
N	-0.9548	-2.17183	-0.891475
C	-1.61475	-3.38734	-0.475319
H	-0.865179	-1.99862	-1.86677
H	-1.94045	-3.98012	-1.35837
H	-2.51294	-3.15529	0.14165
H	-0.929062	-4.01727	0.136397
C	7.02806	2.99837	-1.40488
C	5.97502	1.99626	-1.12544
O	4.80524	2.21136	-1.41154
H	6.56708	3.89436	-1.87452
H	7.78299	2.57607	-2.101
H	7.52628	3.30367	-0.460685
N	6.37453	0.862394	-0.544842
C	5.46754	-0.20666	-0.211207
C	6.12412	-1.05808	0.858012
O	7.32259	-0.941137	1.10663
H	7.32595	0.711094	-0.290189
H	4.5658	0.216443	0.212961
C	5.13632	-1.07017	-1.44885
H	6.06371	-1.5021	-1.88186
H	4.43804	-1.89419	-1.19554
H	4.65697	-0.434679	-2.22508
N	5.34385	-1.9244	1.53378
C	5.87884	-2.76772	2.57723
H	4.37477	-1.9992	1.32276
H	5.08139	-3.41057	3.01088
H	6.3155	-2.15081	3.39576
H	6.68192	-3.42761	2.17624
