44
  This energy is -1.3325 and Call times are: 19136
C	2.28799	0.71144	2.52687
C	1.23295	-0.136111	1.92707
O	0.941006	-1.22061	2.41198
H	2.71357	0.194944	3.41455
H	1.86046	1.68453	2.84802
H	3.10025	0.88972	1.79108
N	0.632926	0.346826	0.836612
C	-0.412028	-0.361118	0.141116
C	-0.485746	0.186503	-1.27094
O	0.0822812	1.23554	-1.56877
H	0.899874	1.21849	0.434281
H	-0.143732	-1.40785	0.0743959
C	-1.77468	-0.190273	0.849007
H	-2.0465	0.88476	0.916327
H	-2.58151	-0.734243	0.316188
H	-1.70715	-0.594131	1.88268
N	-1.17406	-0.52763	-2.18321
C	-1.28861	-0.0906059	-3.5551
H	-1.62075	-1.37772	-1.92429
H	-1.89427	-0.810933	-4.14801
H	-0.282459	-0.0075638	-4.02628
H	-1.77896	0.908265	-3.60979
C	4.10997	3.11564	-0.217301
C	5.30081	2.24236	-0.319686
O	6.36034	2.6666	-0.760043
H	4.36445	4.12957	-0.595512
H	3.78581	3.19795	0.841456
H	3.27885	2.70276	-0.82699
N	5.14716	0.980011	0.0868046
C	6.21353	0.0113737	0.0489359
C	5.58896	-1.37019	0.0698881
O	4.40437	-1.52013	0.363302
H	4.27092	0.638653	0.41637
H	6.75045	0.115502	-0.885381
C	7.16987	0.180354	1.25059
H	6.61564	0.0735985	2.20743
H	7.99224	-0.563824	1.22446
H	7.6199	1.19669	1.22445
N	6.37153	-2.4151	-0.264393
C	5.86066	-3.76595	-0.283999
H	7.3258	-2.2724	-0.505716
H	6.65695	-4.48325	-0.581747
H	5.01847	-3.85702	-1.00766
H	5.48386	-4.05834	0.722835
