44
  This energy is -3.8244 and Call times are: 27348
C	0.511393	2.78022	2.03346
C	0.305504	2.1589	0.705767
O	0.139803	2.84374	-0.29425
H	0.477975	3.88662	1.93038
H	1.5007	2.48727	2.44367
H	-0.288391	2.46022	2.7341
N	0.30587	0.824356	0.669092
C	0.118356	0.0758253	-0.548023
C	-0.339155	-1.31977	-0.170894
O	-0.248457	-1.71919	0.988447
H	0.412812	0.277528	1.49521
H	-0.672781	0.536386	-1.126
C	1.42436	0.00271192	-1.37029
H	2.23401	-0.469684	-0.774106
H	1.28349	-0.572831	-2.3082
H	1.7496	1.03132	-1.63924
N	-0.864702	-2.08964	-1.14409
C	-1.33794	-3.42774	-0.87632
H	-0.936104	-1.74573	-2.07461
H	-1.73197	-3.89847	-1.8039
H	-2.15375	-3.41149	-0.117745
H	-0.513178	-4.06495	-0.482743
C	5.30288	-3.21558	1.33564
C	5.52783	-1.75778	1.45976
O	5.75899	-1.2436	2.54543
H	5.3758	-3.68534	2.34056
H	6.07057	-3.66599	0.671863
H	4.2927	-3.413	0.919073
N	5.4578	-1.04871	0.330741
C	5.65404	0.378422	0.290595
C	5.00892	0.901921	-0.977871
O	4.67045	0.132074	-1.87487
H	5.23995	-1.47513	-0.543128
H	5.14013	0.828029	1.13073
C	7.1559	0.740499	0.31128
H	7.68016	0.27708	-0.551573
H	7.3106	1.83864	0.28062
H	7.61707	0.350484	1.24474
N	4.80323	2.23037	-1.07225
C	4.18455	2.81832	-2.23746
H	5.07765	2.83603	-0.332578
H	4.10501	3.92215	-2.12571
H	3.16035	2.40663	-2.38838
H	4.78239	2.60058	-3.15199
