44
  This energy is 0.1062 and Call times are: 21901
C	2.35725	-2.43743	0.792737
C	1.9928	-1.05412	0.412195
O	2.83204	-0.164616	0.38136
H	3.44343	-2.48022	1.02563
H	2.14157	-3.13398	-0.0445949
H	1.78449	-2.75097	1.69084
N	0.70906	-0.839533	0.114979
C	0.202003	0.452383	-0.273188
C	-1.29402	0.459204	-0.0259919
O	-1.90069	-0.588805	0.187216
H	0.0295031	-1.56609	0.172032
H	0.643874	1.20927	0.362383
C	0.496017	0.748258	-1.76085
H	0.041838	-0.0305088	-2.40997
H	0.107066	1.74233	-2.06304
H	1.595	0.739258	-1.92907
N	-1.9224	1.65132	-0.0274581
C	-3.34312	1.75691	0.210454
H	-1.41269	2.48881	-0.194889
H	-3.67128	2.81882	0.166882
H	-3.60469	1.35015	1.21413
H	-3.91356	1.18188	-0.554483
C	-1.06352	-0.680345	0.105589
C	0.0742892	0.265228	0.0557059
O	-0.106872	1.46541	-0.0967671
H	-2.01421	-0.11798	-0.0201119
H	-1.08276	-1.20447	1.08423
H	-0.976896	-1.42705	-0.711643
N	1.29277	-0.266113	0.179587
C	2.49702	0.524964	0.151277
C	3.64967	-0.39369	-0.204705
O	3.51548	-1.61525	-0.164357
H	1.42876	-1.24872	0.274094
H	2.41274	1.26618	-0.633303
C	2.75824	1.20085	1.51585
H	2.8435	0.437604	2.31853
H	3.68468	1.81089	1.49752
H	1.9063	1.87013	1.76567
N	4.80962	0.177258	-0.584866
C	5.95787	-0.617576	-0.953574
H	4.89614	1.16754	-0.617976
H	6.81419	0.0347829	-1.23357
H	5.71896	-1.27405	-1.82145
H	6.2746	-1.26749	-0.105945
