44
  This energy is -4.9234 and Call times are: 15511
C	0.728517	-3.40514	0.0208432
C	0.624974	-2.10044	-0.670715
O	1.02869	-1.95817	-1.81669
H	1.20913	-4.14323	-0.657452
H	-0.28219	-3.77405	0.295061
H	1.3463	-3.30437	0.937976
N	0.0771973	-1.1019	0.025856
C	-0.0921162	0.224746	-0.510971
C	-0.235843	1.1841	0.654453
O	-0.449868	0.765432	1.79056
H	-0.221258	-1.2229	0.968839
H	0.801841	0.500601	-1.05578
C	-1.33587	0.307654	-1.42384
H	-2.25104	0.0233755	-0.861912
H	-1.46913	1.32778	-1.83901
H	-1.21877	-0.400557	-2.27288
N	-0.0988555	2.50053	0.400987
C	-0.207737	3.48736	1.45003
H	0.0812047	2.81901	-0.523884
H	-0.0669393	4.51243	1.0418
H	0.563945	3.31351	2.23459
H	-1.20981	3.4373	1.9343
C	4.36855	1.43965	3.05977
C	4.20158	1.30844	1.59482
O	3.30091	1.89051	1.00619
H	3.57492	2.10638	3.46163
H	5.3605	1.88019	3.29382
H	4.2823	0.44491	3.54557
N	5.07844	0.522187	0.966098
C	5.04538	0.29589	-0.45676
C	5.79574	-0.990633	-0.741464
O	6.50951	-1.50526	0.117335
H	5.78991	0.0303306	1.46088
H	4.01793	0.152873	-0.766522
C	5.69046	1.46898	-1.22803
H	6.74423	1.61332	-0.907306
H	5.66656	1.29806	-2.32393
H	5.13245	2.40561	-1.01011
N	5.63292	-1.55383	-1.95485
C	6.29797	-2.78531	-2.3117
H	5.04543	-1.1258	-2.63373
H	6.03887	-3.0853	-3.35099
H	5.99642	-3.60825	-1.62389
H	7.40392	-2.66814	-2.24588
