44
  This energy is 0.1029 and Call times are: 26370
C	-2.20867	-1.49907	2.23623
C	-1.8214	-1.08665	0.86833
O	-2.47643	-1.43148	-0.105591
H	-3.12319	-2.12905	2.18483
H	-2.42263	-0.605195	2.85915
H	-1.3921	-2.08839	2.70404
N	-0.725586	-0.331135	0.764642
C	-0.223381	0.14835	-0.498177
C	1.24127	0.495726	-0.3155
O	1.72893	0.592054	0.809107
H	-0.184085	-0.081116	1.56289
H	-0.283677	-0.650069	-1.22685
C	-1.00746	1.38907	-0.980816
H	-0.944048	2.20595	-0.230615
H	-0.623459	1.76079	-1.953
H	-2.07896	1.1218	-1.10965
N	1.9852	0.671269	-1.42534
C	3.39132	0.992632	-1.34948
H	1.57378	0.581995	-2.32645
H	3.82592	1.09885	-2.36785
H	3.94897	0.191605	-0.81224
H	3.54678	1.94939	-0.800279
C	10.4542	-0.133206	2.65088
C	10.0917	-0.379193	1.2369
O	10.9244	-0.765994	0.428539
H	11.5352	-0.34808	2.79564
H	9.86362	-0.795776	3.31802
H	10.2597	0.927104	2.91708
N	8.81971	-0.150254	0.902324
C	8.31591	-0.344092	-0.433881
C	7.04772	0.474714	-0.576996
O	6.48593	0.94155	0.412089
H	8.15761	0.192585	1.5634
H	9.03836	0.0419792	-1.14176
C	8.02021	-1.83469	-0.712817
H	7.27921	-2.22768	0.0156094
H	7.63226	-1.98754	-1.74088
H	8.95678	-2.42379	-0.603608
N	6.57775	0.686788	-1.82205
C	5.38336	1.46434	-2.05662
H	7.05061	0.306577	-2.61013
H	5.15955	1.5228	-3.14462
H	5.50691	2.50115	-1.66802
H	4.50809	1.00503	-1.5427
