44
  This energy is -1.9373 and Call times are: 25924
C	-0.4125	-2.77516	-2.06263
C	-0.943964	-1.58736	-1.35703
O	-2.09126	-1.20405	-1.53944
H	-1.20063	-3.19047	-2.72764
H	-0.113891	-3.55379	-1.32956
H	0.466247	-2.49251	-2.67977
N	-0.103815	-0.966067	-0.526061
C	-0.474968	0.202473	0.231295
C	0.798217	0.923293	0.629612
O	1.89174	0.370429	0.52771
H	0.837527	-1.27086	-0.408118
H	-1.04441	0.867965	-0.405042
C	-1.28644	-0.17736	1.49001
H	-0.69954	-0.860652	2.14022
H	-1.57399	0.720078	2.07541
H	-2.21587	-0.705696	1.18479
N	0.686097	2.19026	1.07483
C	1.84465	2.9592	1.46555
H	-0.207021	2.62256	1.14331
H	1.54601	3.97574	1.80423
H	2.55061	3.06797	0.610535
H	2.38685	2.45699	2.2992
C	4.70339	-0.468026	-3.08465
C	5.34002	0.396593	-2.06566
O	5.5866	1.57202	-2.29819
H	4.52598	0.123348	-4.00913
H	3.73025	-0.848778	-2.70935
H	5.36629	-1.32498	-3.32786
N	5.62956	-0.17926	-0.896506
C	6.24972	0.531921	0.192736
C	6.89006	-0.490062	1.11184
O	6.61728	-1.6847	1.01057
H	5.45029	-1.14514	-0.729538
H	7.03863	1.16011	-0.201058
C	5.21761	1.37577	0.973623
H	4.40938	0.728262	1.37564
H	5.6918	1.92481	1.81295
H	4.75492	2.11967	0.289033
N	7.77858	-0.0430808	2.02109
C	8.44728	-0.944175	2.93051
H	7.99128	0.926562	2.08261
H	9.13726	-0.385855	3.60094
H	9.04097	-1.70086	2.36819
H	7.70678	-1.48625	3.56217
