44
  This energy is 0.1017 and Call times are: 17364
C	3.13475	0.0784318	1.51436
C	1.91733	0.75022	1.00664
O	1.72603	1.94301	1.19938
H	3.76325	0.817915	2.0566
H	3.72098	-0.3406	0.669635
H	2.85786	-0.738903	2.2131
N	1.05103	-0.0165848	0.340379
C	-0.177882	0.492597	-0.213995
C	-1.11841	-0.679395	-0.416656
O	-0.702986	-1.83539	-0.362643
H	1.20432	-0.993189	0.215148
H	-0.636344	1.16218	0.502629
C	0.0678581	1.21505	-1.55742
H	0.538869	0.525435	-2.29002
H	-0.876308	1.60849	-1.98699
H	0.759169	2.07066	-1.39566
N	-2.4199	-0.406038	-0.634372
C	-3.39106	-1.45777	-0.826475
H	-2.73775	0.535829	-0.667415
H	-4.40482	-1.03133	-0.992891
H	-3.43263	-2.12211	0.0669244
H	-3.12422	-2.08272	-1.70932
C	3.29578	-3.05298	-1.11959
C	3.29616	-1.57276	-1.10717
O	4.16454	-0.935552	-1.68715
H	4.16945	-3.4156	-1.70361
H	2.36527	-3.43135	-1.59266
H	3.36878	-3.44457	-0.0831155
N	2.30788	-0.985183	-0.428618
C	2.17373	0.445963	-0.325416
C	1.3153	0.747169	0.887686
O	0.665647	-0.142096	1.43449
H	1.62302	-1.51549	0.0640112
H	3.15068	0.879412	-0.152879
C	1.52733	1.04335	-1.59522
H	0.525537	0.595989	-1.76959
H	1.42267	2.14519	-1.51918
H	2.16507	0.814837	-2.47682
N	1.31044	2.01245	1.35142
C	0.532507	2.39025	2.50826
H	1.84845	2.71631	0.89937
H	0.658882	3.47275	2.7307
H	0.851869	1.8089	3.4034
H	-0.550097	2.1917	2.33585
