44
  This energy is -2.3618 and Call times are: 6810
C	-2.19683	2.50331	-1.0166
C	-1.31736	1.34782	-1.30394
O	-1.28046	0.842455	-2.41737
H	-2.75959	2.7742	-1.93627
H	-1.58955	3.37609	-0.696766
H	-2.92074	2.24365	-0.215673
N	-0.582332	0.894421	-0.285837
C	0.32071	-0.221798	-0.409924
C	0.569243	-0.776672	0.97917
O	0.247027	-0.136923	1.97854
H	-0.64299	1.29627	0.623985
H	-0.157585	-0.998146	-0.993526
C	1.65657	0.204812	-1.05845
H	2.14421	1.00182	-0.457534
H	2.3542	-0.652301	-1.15565
H	1.46076	0.610538	-2.07491
N	1.13211	-1.99747	1.07316
C	1.39561	-2.6115	2.35368
H	1.37914	-2.5024	0.25264
H	1.86244	-3.61238	2.22123
H	0.450775	-2.73897	2.93012
H	2.08612	-1.97964	2.95793
C	9.36513	1.4971	-1.88652
C	8.53036	1.40833	-0.6673
O	8.75703	2.11232	0.307132
H	10.1609	2.25786	-1.73219
H	8.74286	1.79913	-2.75506
H	9.84142	0.516318	-2.09666
N	7.53321	0.521033	-0.694661
C	6.63541	0.319719	0.414511
C	6.00565	-1.05111	0.261301
O	6.09084	-1.667	-0.799479
H	7.37681	-0.0672362	-1.48359
H	7.20691	0.318254	1.334
C	5.53834	1.40689	0.454663
H	4.95442	1.40603	-0.490409
H	4.84538	1.25497	1.30761
H	6.0126	2.40631	0.565925
N	5.3737	-1.57185	1.33157
C	4.75456	-2.87587	1.28294
H	5.32172	-1.06087	2.18329
H	4.28567	-3.12525	2.26028
H	5.50918	-3.66048	1.0459
H	3.96539	-2.90725	0.497181
