44
  This energy is 0.105 and Call times are: 32491
C	3.35938	-0.762457	-0.509291
C	2.15873	0.0641772	-0.76685
O	2.22756	1.09059	-1.42884
H	4.24158	-0.289473	-0.992886
H	3.2209	-1.78012	-0.931201
H	3.54541	-0.83758	0.582813
N	1.01416	-0.370512	-0.234537
C	-0.23751	0.32486	-0.397671
C	-1.16591	-0.119456	0.715838
O	-0.902033	-1.10834	1.39725
H	0.976508	-1.19267	0.327228
H	-0.0675894	1.38756	-0.279888
C	-0.874048	0.0222805	-1.77258
H	-1.04637	-1.06885	-1.89032
H	-1.83791	0.556243	-1.90157
H	-0.183746	0.351296	-2.57966
N	-2.27039	0.619102	0.940891
C	-3.20619	0.279504	1.98738
H	-2.46267	1.41994	0.383283
H	-4.04873	1.00528	2.01223
H	-2.70439	0.290836	2.98202
H	-3.62581	-0.739513	1.82397
C	5.7596	2.0498	-2.56511
C	5.93568	1.36909	-1.26249
O	7.01518	1.37402	-0.687024
H	6.72396	2.50946	-2.87263
H	4.9924	2.84782	-2.47913
H	5.44671	1.31862	-3.33998
N	4.86057	0.753431	-0.765014
C	4.87514	0.0486931	0.49195
C	3.71498	-0.927662	0.492151
O	2.82092	-0.841703	-0.347555
H	3.9945	0.731827	-1.25734
H	5.78942	-0.526841	0.562082
C	4.74982	1.02294	1.68453
H	3.81111	1.61221	1.60905
H	4.76085	0.483621	2.65396
H	5.60482	1.73355	1.67241
N	3.71466	-1.89789	1.42738
C	2.6575	-2.87957	1.49741
H	4.45086	-1.955	2.0937
H	2.83593	-3.59063	2.33395
H	2.59841	-3.46161	0.549262
H	1.6725	-2.38547	1.66117
