44
  This energy is -1.7216 and Call times are: 27198
C	0.432248	3.42234	0.47634
C	0.0566332	2.07713	0.966772
O	-0.194353	1.88181	2.14802
H	0.441236	4.13502	1.32949
H	-0.303121	3.77374	-0.277694
H	1.44431	3.39481	0.0203535
N	0.0153115	1.10346	0.0542869
C	-0.333591	-0.25681	0.377959
C	0.212118	-1.1512	-0.718172
O	0.602949	-0.674558	-1.78208
H	0.250258	1.26919	-0.899794
H	0.155137	-0.534798	1.30313
C	-1.86419	-0.432484	0.494218
H	-2.36243	-0.145786	-0.456402
H	-2.13633	-1.4787	0.74351
H	-2.25178	0.228776	1.29961
N	0.271504	-2.475	-0.473165
C	0.787255	-3.40242	-1.453
H	-0.0430064	-2.84053	0.396723
H	0.751709	-4.44434	-1.0652
H	1.84442	-3.15865	-1.70641
H	0.188012	-3.35672	-2.39108
C	3.13365	-1.8927	1.71587
C	3.70114	-0.593544	1.29001
O	3.1199	0.457388	1.5228
H	2.16415	-1.71873	2.23131
H	3.82745	-2.40163	2.41762
H	2.9595	-2.54245	0.832449
N	4.86656	-0.639899	0.640378
C	5.54317	0.539843	0.163687
C	6.50134	0.11646	-0.932618
O	6.78278	-1.06895	-1.09827
H	5.3158	-1.5044	0.431209
H	4.81508	1.20945	-0.276299
C	6.31553	1.24381	1.30167
H	7.06112	0.553818	1.75123
H	6.83757	2.15271	0.938119
H	5.60268	1.54791	2.09887
N	7.01014	1.08057	-1.72484
C	7.92105	0.770837	-2.8021
H	6.76462	2.03334	-1.57928
H	8.22863	1.69713	-3.3356
H	7.44095	0.0856614	-3.53782
H	8.83666	0.270852	-2.41113
