44
  This energy is 0.1561 and Call times are: 25195
C	-3.40084	0.210609	0.718377
C	-2.27597	-0.231788	-0.13612
O	-2.46047	-0.975452	-1.08975
H	-4.34556	-0.240715	0.344651
H	-3.49367	1.31658	0.686315
H	-3.23665	-0.116004	1.76686
N	-1.06468	0.219774	0.197383
C	0.126748	-0.122423	-0.537619
C	1.31745	0.104229	0.373471
O	1.19728	0.74136	1.4182
H	-0.923404	0.801639	0.993882
H	0.0973764	-1.1761	-0.784559
C	0.264914	0.73475	-1.81562
H	0.294063	1.81514	-1.55866
H	1.18118	0.473746	-2.38404
H	-0.613928	0.560609	-2.47399
N	2.49687	-0.434563	0.00646799
C	3.68253	-0.281113	0.816918
H	2.57213	-0.952853	-0.839075
H	4.54997	-0.793777	0.345773
H	3.52528	-0.717647	1.82981
H	3.93706	0.796378	0.941057
C	2.92991	-2.43138	0.598061
C	3.39466	-1.02604	0.61334
O	2.63225	-0.110667	0.891404
H	1.84998	-2.46396	0.859891
H	3.49793	-3.03027	1.3407
H	3.06798	-2.86933	-0.412921
N	4.67715	-0.822181	0.303473
C	5.27578	0.488431	0.275706
C	6.52049	0.413925	-0.587062
O	6.99779	-0.672403	-0.909416
H	5.28085	-1.57346	0.0503621
H	4.58888	1.17906	-0.196815
C	5.64278	0.969431	1.69735
H	6.34704	0.258277	2.17941
H	6.10381	1.97835	1.67964
H	4.72274	1.01861	2.31966
N	7.06473	1.57523	-1.00079
C	8.24345	1.60245	-1.83509
H	6.65955	2.44386	-0.735167
H	8.53725	2.64998	-2.06663
H	8.05706	1.0702	-2.79594
H	9.09833	1.10323	-1.32407
