44
  This energy is -1.8091 and Call times are: 4563
C	-0.371318	3.17925	-1.37136
C	0.382508	2.18545	-0.574301
O	1.51192	2.42452	-0.169634
H	0.253174	4.08837	-1.51056
H	-1.30632	3.46286	-0.84395
H	-0.622356	2.75957	-2.36825
N	-0.235405	1.02681	-0.333239
C	0.368661	-0.0377144	0.427497
C	-0.343106	-1.32794	0.0698196
O	-1.41081	-1.30872	-0.539658
H	-1.14415	0.83285	-0.693091
H	1.4043	-0.139702	0.128977
C	0.261008	0.225021	1.94621
H	-0.802724	0.329792	2.24889
H	0.725286	-0.592662	2.53496
H	0.785221	1.17339	2.19509
N	0.247163	-2.48642	0.424107
C	-0.350698	-3.76446	0.115309
H	1.11468	-2.48118	0.910538
H	0.284777	-4.59677	0.490375
H	-0.47282	-3.88537	-0.985468
H	-1.35671	-3.85178	0.585941
C	4.48407	-1.91547	-2.51161
C	4.74216	-0.618229	-1.84695
O	4.37607	0.434615	-2.35093
H	3.94853	-1.7373	-3.46937
H	3.85444	-2.55945	-1.86225
H	5.44271	-2.43286	-2.72672
N	5.39499	-0.667583	-0.683443
C	5.71895	0.509944	0.0816087
C	6.86239	0.159827	1.01392
O	7.17837	-1.0124	1.20852
H	5.71361	-1.52927	-0.297561
H	6.06841	1.28208	-0.592008
C	4.50225	1.00434	0.89544
H	4.14593	0.209528	1.58495
H	4.74817	1.911	1.48559
H	3.67122	1.25639	0.201171
N	7.52642	1.17663	1.59803
C	8.63638	0.939994	2.49143
H	7.26009	2.11865	1.42226
H	9.04817	1.90135	2.87021
H	9.45235	0.391393	1.96753
H	8.31434	0.328008	3.3649
