44
  This energy is -6.92 and Call times are: 32685
C	2.09665	-2.10766	-1.81327
C	1.62833	-1.52043	-0.537717
O	2.04679	-1.92741	0.537343
H	2.82773	-2.91712	-1.59843
H	2.59229	-1.33095	-2.43284
H	1.24002	-2.53672	-2.37456
N	0.729638	-0.53766	-0.631944
C	0.180297	0.13223	0.519707
C	-1.12725	0.777553	0.103645
O	-1.42013	0.894946	-1.08475
H	0.374776	-0.234812	-1.51245
H	-0.0438683	-0.603882	1.28126
C	1.15178	1.20325	1.064
H	1.38011	1.95641	0.279958
H	0.731982	1.7209	1.95089
H	2.10603	0.718001	1.36417
N	-1.95765	1.19338	1.08014
C	-3.22944	1.80847	0.779484
H	-1.70579	1.08303	2.03597
H	-3.7648	2.08233	1.71524
H	-3.87507	1.11159	0.197451
H	-3.08576	2.73275	0.17431
C	4.42347	-1.66117	2.91688
C	5.44425	-1.05723	2.03118
O	6.60683	-0.940515	2.39349
H	4.89669	-1.9466	3.88148
H	3.99577	-2.56998	2.44364
H	3.61061	-0.931754	3.11729
N	5.02215	-0.648399	0.832405
C	5.89677	-0.0418751	-0.139192
C	5.0392	0.745527	-1.11068
O	3.82048	0.586225	-1.14511
H	4.06648	-0.722435	0.560135
H	6.55062	0.658555	0.364745
C	6.71852	-1.10716	-0.898796
H	6.04462	-1.82445	-1.41404
H	7.39316	-0.643566	-1.64761
H	7.34145	-1.67779	-0.175961
N	5.65819	1.63471	-1.91206
C	4.92193	2.43789	-2.86023
H	6.64442	1.75422	-1.86415
H	5.60808	3.10566	-3.42639
H	4.16883	3.07106	-2.33757
H	4.38255	1.79023	-3.58878
