44
  This energy is -2.9019 and Call times are: 27541
C	-0.172926	3.12068	1.53543
C	0.116815	1.66936	1.56585
O	0.633279	1.14782	2.5445
H	0.154727	3.58077	2.49294
H	-1.26292	3.29064	1.40956
H	0.375122	3.60306	0.698835
N	-0.210208	0.97634	0.472626
C	0.00950337	-0.442817	0.352009
C	0.0243856	-0.788148	-1.12439
O	-0.379435	0.016139	-1.96218
H	-0.603691	1.4178	-0.329383
H	0.984684	-0.683478	0.755962
C	-1.09478	-1.24638	1.07447
H	-2.09392	-0.996555	0.658027
H	-0.928601	-2.33951	0.983708
H	-1.09608	-0.983559	2.15478
N	0.514015	-1.99229	-1.4798
C	0.578758	-2.40337	-2.86292
H	0.842637	-2.62633	-0.787539
H	1.00966	-3.42515	-2.94971
H	1.21518	-1.70347	-3.45142
H	-0.43787	-2.41161	-3.31853
C	4.93315	-1.61451	-3.03285
C	4.66478	-0.523602	-2.06895
O	3.94221	0.418186	-2.36462
H	4.39592	-1.40522	-3.98334
H	4.57581	-2.58293	-2.62383
H	6.02155	-1.68116	-3.24235
N	5.25645	-0.626897	-0.876635
C	5.09153	0.35477	0.165458
C	6.25706	0.215568	1.12536
O	6.98659	-0.773517	1.08907
H	5.86614	-1.38417	-0.658108
H	5.14181	1.3439	-0.27177
C	3.75682	0.157208	0.918207
H	3.70831	-0.858771	1.36492
H	3.62654	0.911523	1.72121
H	2.91109	0.260421	0.203894
N	6.47243	1.22047	1.99701
C	7.5652	1.18104	2.94067
H	5.8752	2.01575	2.00595
H	7.57351	2.09733	3.57122
H	8.5416	1.11297	2.40847
H	7.4745	0.295303	3.61031
