44
  This energy is -1.2729 and Call times are: 5372
C	-0.0839487	-3.15091	1.48016
C	-0.45011	-2.212	0.395914
O	-1.0239	-2.60203	-0.611629
H	-0.405362	-4.17782	1.20088
H	-0.589933	-2.86046	2.42485
H	1.0157	-3.14788	1.63412
N	-0.114767	-0.933021	0.580607
C	-0.40383	0.0979556	-0.383945
C	0.53525	1.25897	-0.120504
O	1.17748	1.32301	0.92605
H	0.378412	-0.632676	1.3927
H	-0.190737	-0.278843	-1.37626
C	-1.87195	0.568352	-0.281595
H	-2.08728	0.953651	0.737862
H	-2.09797	1.36208	-1.023
H	-2.54968	-0.291448	-0.475414
N	0.653227	2.19769	-1.08014
C	1.53225	3.3329	-0.922719
H	0.130427	2.1243	-1.92307
H	1.48837	3.99138	-1.81811
H	2.58588	2.99787	-0.785365
H	1.24205	3.93403	-0.030752
C	5.59167	3.37167	-0.793456
C	5.88519	1.97021	-1.16892
O	6.03787	1.64755	-2.33899
H	5.53958	3.99492	-1.71253
H	6.3939	3.76758	-0.1358
H	4.61747	3.43015	-0.263861
N	5.96575	1.09217	-0.166458
C	6.24505	-0.306456	-0.372984
C	5.75734	-1.064	0.846649
O	5.46523	-0.467885	1.88161
H	5.81058	1.362	0.780142
H	5.67773	-0.656319	-1.22611
C	7.75572	-0.55339	-0.582783
H	8.33476	-0.19269	0.293988
H	7.97429	-1.6293	-0.74225
H	8.10087	0.00782669	-1.47836
N	5.63702	-2.40231	0.744427
C	5.16913	-3.20555	1.8499
H	5.87161	-2.86547	-0.103917
H	5.14137	-4.28172	1.57
H	4.143	-2.8959	2.1539
H	5.84016	-3.0897	2.73165
