44
  This energy is -4.1884 and Call times are: 23347
C	0.558492	0.720162	3.36089
C	0.42831	1.13326	1.9454
O	0.423618	2.31499	1.62922
H	0.635161	1.62511	4.00203
H	1.47248	0.104665	3.49728
H	-0.33156	0.133662	3.67197
N	0.311994	0.150594	1.04918
C	0.177744	0.394188	-0.364843
C	-0.438362	-0.840316	-0.993851
O	-0.497867	-1.89947	-0.372173
H	0.287897	-0.807427	1.32222
H	-0.508324	1.21784	-0.516416
C	1.54599	0.695705	-1.01608
H	2.24755	-0.151033	-0.858093
H	1.44625	0.883904	-2.10484
H	1.98734	1.60137	-0.545831
N	-0.933423	-0.725124	-2.24191
C	-1.54924	-1.84383	-2.91678
H	-0.882177	0.142384	-2.72568
H	-1.89146	-1.54983	-3.93349
H	-2.43054	-2.21198	-2.34317
H	-0.827726	-2.68646	-3.01961
C	5.31174	-3.45453	0.436924
C	5.46263	-2.07799	0.959981
O	5.5684	-1.86537	2.16002
H	5.30901	-4.17189	1.28619
H	6.15694	-3.70158	-0.239415
H	4.35463	-3.55057	-0.117741
N	5.46994	-1.09702	0.0544413
C	5.60908	0.292887	0.40888
C	5.06533	1.1228	-0.737777
O	4.84573	0.612116	-1.8345
H	5.35372	-1.28076	-0.918015
H	4.99968	0.496516	1.28022
C	7.08576	0.659947	0.676849
H	7.70817	0.449162	-0.218852
H	7.19648	1.72944	0.950181
H	7.4726	0.0443997	1.51804
N	4.81397	2.42562	-0.502253
C	4.28406	3.29082	-1.53027
H	4.99163	2.81854	0.39401
H	4.14811	4.32453	-1.1427
H	3.29688	2.91775	-1.88738
H	4.97425	3.33175	-2.40385
