44
  This energy is -1.9258 and Call times are: 3300
C	-2.45371	-1.27155	-2.11862
C	-1.8018	-0.148198	-1.40849
O	-2.13552	1.01025	-1.61615
H	-3.22445	-0.870013	-2.81187
H	-2.94439	-1.95119	-1.39051
H	-1.70276	-1.8402	-2.70655
N	-0.837111	-0.472767	-0.544554
C	-0.111172	0.508632	0.221408
C	1.19469	-0.120542	0.6665
O	1.36684	-1.33531	0.585713
H	-0.5544	-1.41814	-0.405725
H	0.129423	1.34745	-0.419354
C	-0.922356	0.975107	1.45084
H	-1.16803	0.111989	2.10566
H	-0.366374	1.73093	2.04278
H	-1.87697	1.433	1.11145
N	2.15821	0.700126	1.12925
C	3.43848	0.192436	1.56438
H	2.00223	1.6811	1.18018
H	4.09316	1.02203	1.91138
H	3.95512	-0.336637	0.731067
H	3.31067	-0.528247	2.40429
C	7.29775	-2.86064	1.97982
C	7.46613	-2.19156	0.670174
O	7.7918	-2.82315	-0.325578
H	7.51667	-3.94493	1.86915
H	6.25443	-2.73963	2.33991
H	7.99807	-2.42674	2.72428
N	7.24955	-0.874429	0.644978
C	7.37346	-0.0847222	-0.554121
C	7.57713	1.36009	-0.141488
O	7.36395	1.7196	1.01486
H	7.0131	-0.366459	1.46899
H	8.25739	-0.400471	-1.09361
C	6.11628	-0.211118	-1.4433
H	5.21126	0.112985	-0.886509
H	6.20839	0.395583	-2.36753
H	5.9775	-1.2742	-1.73781
N	8.01828	2.2217	-1.07905
C	8.25237	3.61422	-0.775283
H	8.19183	1.90991	-2.00743
H	8.61052	4.15854	-1.67678
H	9.0205	3.71802	0.0249934
H	7.31576	4.10191	-0.420192
