44
  This energy is -0.5631 and Call times are: 13832
C	0.679448	-3.1934	1.21107
C	-0.0926338	-2.2617	0.358413
O	-0.910994	-2.67574	-0.451123
H	0.386356	-4.23873	0.971845
H	0.466456	-2.99682	2.2829
H	1.76705	-3.07297	1.02251
N	0.160321	-0.960971	0.521186
C	-0.510437	0.0663398	-0.23482
C	0.349217	1.31461	-0.189433
O	1.2754	1.41115	0.613496
H	0.850299	-0.637729	1.16335
H	-0.581053	-0.247012	-1.26869
C	-1.912	0.365216	0.342592
H	-1.83589	0.685747	1.40353
H	-2.43133	1.15569	-0.237257
H	-2.53148	-0.557262	0.304796
N	0.0737521	2.2957	-1.07124
C	0.846152	3.51557	-1.11007
H	-0.675382	2.19566	-1.71778
H	0.464163	4.19787	-1.90114
H	1.9172	3.29576	-1.32403
H	0.791368	4.04678	-0.132319
C	7.60692	2.68471	-2.02384
C	7.88184	1.73228	-0.924524
O	8.97877	1.68884	-0.384751
H	8.5222	3.28074	-2.23091
H	6.78622	3.37486	-1.73581
H	7.32053	2.13425	-2.94467
N	6.87493	0.931362	-0.568124
C	6.98898	-0.0466681	0.484148
C	5.90554	-1.08635	0.273318
O	4.97675	-0.877442	-0.504841
H	5.99504	0.956363	-1.03513
H	7.94555	-0.546288	0.397984
C	6.83624	0.604943	1.8767
H	5.85411	1.11715	1.96139
H	6.92368	-0.145299	2.68926
H	7.63492	1.36534	2.01832
N	6.01247	-2.2467	0.950188
C	5.03468	-3.29967	0.803962
H	6.77532	-2.39956	1.56981
H	5.29675	-4.17124	1.44343
H	4.98361	-3.64419	-0.254309
H	4.02246	-2.93987	1.09915
