44
  This energy is -4.929 and Call times are: 28925
C	-0.000725442	-0.972904	3.34359
C	0.178247	-1.26409	1.90332
O	0.614518	-2.3427	1.52549
H	0.321649	-1.85439	3.93934
H	-1.06902	-0.763071	3.56161
H	0.615037	-0.096531	3.63642
N	-0.155458	-0.288571	1.05516
C	-0.0377858	-0.421997	-0.374938
C	0.010576	0.971642	-0.97048
O	-0.297982	1.95366	-0.297975
H	-0.482279	0.596183	1.37662
H	0.899646	-0.911464	-0.606708
C	-1.2272	-1.21134	-0.965994
H	-2.18732	-0.706768	-0.725774
H	-1.13969	-1.31606	-2.06697
H	-1.25227	-2.22987	-0.520901
N	0.422706	1.09159	-2.24788
C	0.512082	2.37966	-2.89524
H	0.674913	0.285586	-2.77323
H	0.868528	2.26925	-3.9431
H	1.22219	3.04412	-2.35167
H	-0.483178	2.87993	-2.91423
C	5.14622	2.44436	-2.46792
C	5.15899	1.03017	-2.03076
O	5.20424	0.117173	-2.84371
H	5.17624	2.48578	-3.57844
H	6.03259	2.97755	-2.06435
H	4.22084	2.94603	-2.11443
N	5.11262	0.816147	-0.713791
C	5.11838	-0.503953	-0.135752
C	4.54483	-0.402064	1.26421
O	4.40848	0.691457	1.8096
H	5.04656	1.5677	-0.0628332
H	4.46377	-1.14396	-0.713635
C	6.54749	-1.08874	-0.0831233
H	7.21653	-0.429331	0.509912
H	6.55555	-2.10521	0.36128
H	6.95683	-1.15714	-1.11458
N	4.17346	-1.54585	1.87236
C	3.60651	-1.54571	3.2008
H	4.2852	-2.42018	1.4116
H	3.3681	-2.58214	3.52672
H	2.66836	-0.945373	3.22751
H	4.32043	-1.10336	3.9328
