44
  This energy is -2.9633 and Call times are: 17035
C	-0.229275	3.45912	-0.32867
C	-0.323229	2.21884	0.473878
O	-0.50061	2.26009	1.68356
H	-0.336846	4.3394	0.341706
H	-1.03831	3.48523	-1.08867
H	0.756599	3.51263	-0.836739
N	-0.198156	1.06956	-0.193854
C	-0.267329	-0.218868	0.448017
C	0.413169	-1.22739	-0.456997
O	0.676023	-0.947031	-1.62496
H	-0.0248378	1.04978	-1.17493
H	0.290039	-0.180374	1.37534
C	-1.73099	-0.64031	0.707226
H	-2.30004	-0.678125	-0.24612
H	-1.78791	-1.63189	1.20151
H	-2.21867	0.107075	1.37035
N	0.735209	-2.42437	0.0717047
C	1.39578	-3.44297	-0.710779
H	0.520535	-2.62956	1.02094
H	1.57364	-4.35496	-0.0993175
H	2.3784	-3.07505	-1.08539
H	0.774882	-3.72663	-1.59123
C	4.35676	-3.14625	1.43965
C	5.19484	-2.08958	0.829511
O	6.41388	-2.18731	0.800093
H	5.01191	-3.95572	1.82875
H	3.66856	-3.5745	0.68084
H	3.76481	-2.72752	2.28062
N	4.54747	-1.03605	0.326175
C	5.22458	0.0715582	-0.299575
C	4.28974	1.2651	-0.27152
O	3.09696	1.12327	-0.00887305
H	3.55593	-0.954538	0.382305
H	6.09943	0.325133	0.28558
C	5.61874	-0.260424	-1.75612
H	4.71896	-0.520745	-2.3534
H	6.14046	0.590223	-2.24088
H	6.30257	-1.13705	-1.76309
N	4.81831	2.47913	-0.522001
C	4.00747	3.67431	-0.50551
H	5.78724	2.57404	-0.725445
H	4.62379	4.57086	-0.737041
H	3.54096	3.81879	0.495856
H	3.19082	3.6057	-1.26019
