44
  This energy is -0.1322 and Call times are: 21774
C	-0.0393243	-1.15185	3.286
C	-0.728769	-0.750775	2.039
O	-1.93471	-0.906331	1.90485
H	-0.780407	-1.58508	3.99238
H	0.436285	-0.2683	3.76136
H	0.736439	-1.91523	3.06606
N	0.0370401	-0.222106	1.08171
C	-0.488374	0.216233	-0.186605
C	0.658957	0.257101	-1.17716
O	1.82482	0.194332	-0.791604
H	1.02286	-0.127448	1.1919
H	-1.20415	-0.514006	-0.542262
C	-1.14191	1.6116	-0.0727552
H	-0.405005	2.35813	0.292997
H	-1.54767	1.9521	-1.04754
H	-1.97997	1.56857	0.656595
N	0.351641	0.341931	-2.4865
C	1.37739	0.374668	-3.50283
H	-0.598051	0.384476	-2.77891
H	0.924691	0.4478	-4.51623
H	1.99974	-0.548543	-3.46279
H	2.04948	1.25079	-3.3549
C	6.42669	1.53002	-3.12313
C	5.77674	0.617387	-2.15573
O	4.69362	0.103869	-2.39998
H	5.7778	1.63788	-4.01933
H	7.40843	1.11776	-3.43785
H	6.57594	2.53039	-2.66497
N	6.43358	0.397586	-1.01441
C	5.92966	-0.465739	0.0236491
C	6.61781	-0.0859666	1.32036
O	7.61397	0.634783	1.31568
H	7.30144	0.844732	-0.814864
H	4.86966	-0.284357	0.14841
C	6.195	-1.95235	-0.303016
H	7.28333	-2.13473	-0.431014
H	5.80812	-2.61989	0.494158
H	5.68665	-2.21767	-1.25556
N	6.08559	-0.547816	2.46903
C	6.66553	-0.228328	3.75268
H	5.27496	-1.12388	2.45236
H	6.08585	-0.702552	4.57508
H	6.67119	0.873439	3.91797
H	7.71719	-0.591482	3.81021
