44
  This energy is -2.9664 and Call times are: 27963
C	1.24784	3.20217	0.561357
C	0.557905	2.20427	-0.286805
O	0.0342417	2.52681	-1.34427
H	1.18396	4.20151	0.0785509
H	2.31726	2.9286	0.680995
H	0.76593	3.2542	1.56036
N	0.537777	0.950057	0.170269
C	-0.0944655	-0.131426	-0.542117
C	-0.38513	-1.2379	0.453101
O	0.129902	-1.23042	1.56958
H	0.942697	0.705437	1.04727
H	-1.04185	0.213408	-0.9366
C	0.809626	-0.661819	-1.6772
H	1.78092	-1.01412	-1.26906
H	0.325791	-1.49454	-2.22789
H	1.01612	0.158427	-2.3988
N	-1.23997	-2.20905	0.0761163
C	-1.58577	-3.29678	0.96124
H	-1.65194	-2.19355	-0.829023
H	-2.30006	-3.99275	0.468611
H	-2.05921	-2.91004	1.89265
H	-0.676945	-3.87307	1.24951
C	6.46502	3.19851	1.20558
C	6.00582	1.80445	1.39782
O	5.75534	1.36912	2.51327
H	6.53094	3.70308	2.19398
H	5.74652	3.75323	0.566157
H	7.46791	3.20899	0.729097
N	5.88956	1.06101	0.295031
C	5.45417	-0.312532	0.320649
C	5.92687	-0.975059	-0.958746
O	6.33696	-0.300606	-1.9015
H	6.12456	1.41837	-0.604971
H	5.93338	-0.818144	1.14938
C	3.91663	-0.413213	0.434363
H	3.42824	0.107095	-0.417031
H	3.57798	-1.46948	0.454501
H	3.58293	0.0767323	1.37497
N	5.90041	-2.32133	-1.01222
C	6.3423	-3.03981	-2.18469
H	5.57177	-2.84956	-0.236202
H	6.24151	-4.13733	-2.03456
H	7.41054	-2.81287	-2.40515
H	5.73718	-2.7505	-3.07425
