44
  This energy is -2.7246 and Call times are: 31264
C	0.957397	-1.87334	-2.77491
C	0.16731	-0.792164	-2.14401
O	-0.495903	-0.0169043	-2.81901
H	0.832432	-1.82357	-3.87844
H	0.604421	-2.86357	-2.4176
H	2.03372	-1.75427	-2.52936
N	0.227468	-0.713197	-0.812656
C	-0.485951	0.284301	-0.0557825
C	0.191698	0.417814	1.29411
O	1.00367	-0.422952	1.67575
H	0.794457	-1.33255	-0.27613
H	-0.401173	1.23746	-0.562109
C	-1.96934	-0.105446	0.130662
H	-2.05261	-1.08406	0.649796
H	-2.52166	0.660529	0.712908
H	-2.45409	-0.201251	-0.865326
N	-0.112416	1.49662	2.04224
C	0.492219	1.71387	3.33584
H	-0.766597	2.16947	1.71277
H	0.112568	2.65338	3.79457
H	1.59981	1.79146	3.24378
H	0.261347	0.86911	4.0245
C	8.68118	-0.46719	3.36119
C	7.82941	0.0945653	2.28875
O	6.77628	0.660235	2.5484
H	8.19867	-0.286117	4.34621
H	9.67786	0.0220778	3.35393
H	8.80572	-1.56119	3.21769
N	8.27253	-0.0576012	1.03861
C	7.55535	0.434905	-0.110267
C	8.03587	-0.335282	-1.32482
O	9.05646	-1.01899	-1.27225
H	9.11767	-0.545923	0.838065
H	6.50091	0.224732	0.0164998
C	7.79033	1.94834	-0.313747
H	8.87314	2.16045	-0.442799
H	7.23942	2.33089	-1.19746
H	7.43529	2.50115	0.583189
N	7.29414	-0.25861	-2.4473
C	7.66707	-0.967339	-3.64931
H	6.46764	0.294302	-2.46771
H	6.93269	-0.775969	-4.46252
H	7.70494	-2.06501	-3.46244
H	8.67281	-0.642151	-4.00133
