44
  This energy is -1.0666 and Call times are: 20111
C	-3.32534	0.807598	0.645009
C	-1.88772	0.833739	0.996838
O	-1.47917	1.49793	1.9394
H	-3.88731	1.46072	1.34749
H	-3.71959	-0.227422	0.723254
H	-3.47309	1.18185	-0.389907
N	-1.07596	0.102951	0.229141
C	0.346691	0.0272089	0.446264
C	0.992379	-0.423865	-0.849443
O	0.31278	-0.893088	-1.76038
H	-1.41699	-0.410735	-0.553651
H	0.721204	1.01733	0.67315
C	0.69036	-0.960876	1.58323
H	0.304109	-1.97545	1.3475
H	1.78499	-1.02152	1.75317
H	0.210581	-0.619954	2.52649
N	2.32582	-0.270743	-0.969781
C	3.0258	-0.66074	-2.1715
H	2.85724	0.117587	-0.224105
H	4.11516	-0.457424	-2.07559
H	2.64013	-0.0966236	-3.05142
H	2.88823	-1.74811	-2.37117
C	8.34849	3.43632	-0.543884
C	7.91037	2.26055	0.241501
O	7.35994	2.39362	1.32585
H	8.0992	4.36466	0.0145938
H	7.8286	3.45649	-1.52476
H	9.44602	3.39955	-0.708286
N	8.15511	1.06344	-0.296449
C	7.78804	-0.17257	0.347264
C	8.64381	-1.27689	-0.242118
O	9.28587	-1.0916	-1.27423
H	8.63037	0.967474	-1.16699
H	8.02164	-0.102846	1.40208
C	6.29084	-0.4922	0.139061
H	6.05455	-0.562351	-0.944158
H	6.00477	-1.44321	0.633556
H	5.67476	0.32473	0.574056
N	8.68932	-2.45156	0.416732
C	9.48642	-3.55649	-0.0627903
H	8.16822	-2.57951	1.25418
H	9.39074	-4.43354	0.614622
H	10.5619	-3.27085	-0.116547
H	9.15939	-3.86367	-1.08254
