44
  This energy is 0.1184 and Call times are: 13324
C	-3.11692	-0.543092	1.45464
C	-1.67761	-0.855431	1.3062
O	-1.12114	-1.64543	2.05636
H	-3.5312	-1.11845	2.3109
H	-3.66679	-0.825515	0.532301
H	-3.25526	0.541233	1.6497
N	-1.03276	-0.226074	0.321093
C	0.368729	-0.425999	0.0514863
C	0.867756	0.771794	-0.733051
O	0.0767726	1.56278	-1.24346
H	-1.49056	0.43723	-0.264898
H	0.907416	-0.451986	0.990217
C	0.607445	-1.72408	-0.751703
H	0.0528362	-1.69432	-1.7138
H	1.68556	-1.88118	-0.960902
H	0.236573	-2.59385	-0.166803
N	2.20073	0.945079	-0.82877
C	2.76778	2.06337	-1.54575
H	2.82434	0.297918	-0.40272
H	3.87907	2.0293	-1.51216
H	2.43302	3.02729	-1.0985
H	2.44855	2.04866	-2.61301
C	-1.38211	0.115652	-1.51744
C	-0.0549729	0.702536	-1.22508
O	0.319803	1.72662	-1.77941
H	-1.90142	0.741282	-2.27558
H	-1.99831	0.0842843	-0.594329
H	-1.26579	-0.913024	-1.91899
N	0.698806	0.0509986	-0.336441
C	2.01262	0.498464	0.0514945
C	2.75778	-0.689312	0.628705
O	2.15923	-1.71926	0.933304
H	0.3941	-0.798212	0.0865616
H	2.54784	0.825301	-0.831
C	1.93436	1.63486	1.09534
H	1.38409	1.29634	1.99906
H	2.94425	1.98188	1.39614
H	1.38527	2.49844	0.660755
N	4.09318	-0.579677	0.772464
C	4.88762	-1.66329	1.30241
H	4.56013	0.259453	0.513514
H	5.96221	-1.37914	1.34429
H	4.78975	-2.57099	0.663863
H	4.55445	-1.92793	2.33204
