44
  This energy is -1.6156 and Call times are: 16845
C	1.69019	1.40154	2.70279
C	0.50363	0.746741	2.10738
O	-0.431427	0.377437	2.80436
H	1.55862	1.46834	3.80465
H	1.80793	2.42641	2.29218
H	2.60386	0.80926	2.48518
N	0.519856	0.581299	0.782716
C	-0.561339	-0.038595	0.0591296
C	-0.0146001	-0.525222	-1.26884
O	1.08354	-0.147507	-1.67289
H	1.30024	0.860152	0.229382
H	-0.90329	-0.904745	0.611332
C	-1.72252	0.953175	-0.175746
H	-1.36805	1.84083	-0.741906
H	-2.55679	0.479077	-0.732521
H	-2.11342	1.3031	0.804508
N	-0.763955	-1.39743	-1.9715
C	-0.319492	-1.92419	-3.24081
H	-1.64665	-1.69656	-1.62422
H	-1.07475	-2.62346	-3.66254
H	0.64128	-2.47572	-3.12256
H	-0.156843	-1.10041	-3.973
C	3.97125	1.28983	-2.29559
C	4.85104	0.205821	-1.80357
O	4.83936	-0.902444	-2.32136
H	3.35974	0.910464	-3.14294
H	4.58171	2.14744	-2.64866
H	3.29174	1.62886	-1.48548
N	5.64198	0.506679	-0.770968
C	6.5529	-0.441933	-0.181746
C	6.87786	0.0335786	1.22094
O	6.59709	1.17611	1.57819
H	5.62121	1.40451	-0.339225
H	6.0568	-1.4005	-0.0974472
C	7.84886	-0.568554	-1.01336
H	8.35487	0.416757	-1.09839
H	8.55244	-1.2983	-0.562561
H	7.59714	-0.916426	-2.03892
N	7.46135	-0.845315	2.05945
C	7.79665	-0.485628	3.41752
H	7.6741	-1.76754	1.75373
H	8.26995	-1.34245	3.94582
H	6.88353	-0.187157	3.98176
H	8.50769	0.371907	3.43289
