44
  This energy is -4.467 and Call times are: 5583
C	1.60164	2.96397	0.880751
C	0.944985	1.68494	1.233
O	0.934137	1.27595	2.38586
H	2.04064	3.4159	1.79667
H	0.859382	3.66977	0.452119
H	2.41248	2.7876	0.142926
N	0.378941	1.01251	0.228114
C	-0.297782	-0.246306	0.413214
C	-0.343858	-0.952138	-0.928022
O	-0.0870199	-0.34597	-1.9665
H	0.41981	1.34191	-0.71144
H	0.282466	-0.861687	1.089
C	-1.73009	-0.0406377	0.954807
H	-2.32235	0.59164	0.259417
H	-2.25397	-1.00792	1.09864
H	-1.68265	0.47832	1.93694
N	-0.653191	-2.26373	-0.933857
C	-0.70955	-3.02134	-2.16228
H	-0.850845	-2.73809	-0.0822992
H	-0.982007	-4.08044	-1.95898
H	0.277499	-3.00633	-2.67877
H	-1.46834	-2.59081	-2.85515
C	5.90822	1.4552	2.99867
C	5.6537	0.271357	2.14723
O	5.97159	-0.851598	2.51386
H	6.40491	1.13134	3.93903
H	4.95077	1.95693	3.25238
H	6.5718	2.17151	2.46998
N	5.06976	0.502708	0.969158
C	4.75771	-0.546644	0.0319748
C	4.60828	0.0827571	-1.33943
O	4.50135	1.30136	-1.46353
H	4.84208	1.42534	0.669431
H	5.5898	-1.23784	-0.0122174
C	3.4566	-1.28204	0.423653
H	2.60518	-0.569873	0.468698
H	3.21345	-2.09077	-0.295788
H	3.57855	-1.73762	1.43049
N	4.61948	-0.737759	-2.40837
C	4.49513	-0.227577	-3.7539
H	4.71418	-1.72046	-2.28765
H	4.52458	-1.05782	-4.49355
H	5.32623	0.477442	-3.98512
H	3.53299	0.319904	-3.87933
