44
  This energy is -2.0524 and Call times are: 27626
C	-0.32392	2.45562	2.44768
C	-0.843581	1.69864	1.28659
O	-1.99564	1.8433	0.90147
H	-1.1289	3.10762	2.85113
H	0.531996	3.09141	2.13783
H	0.00517362	1.75598	3.24464
N	0.00883074	0.856222	0.69829
C	-0.349636	0.0509981	-0.441861
C	0.619104	-1.11335	-0.513013
O	1.65456	-1.11099	0.150061
H	0.935944	0.725744	1.03943
H	-1.34133	-0.355124	-0.287988
C	-0.291797	0.870931	-1.7501
H	0.726769	1.28663	-1.90447
H	-0.567393	0.253992	-2.62999
H	-1.00495	1.7214	-1.68484
N	0.291829	-2.15112	-1.30796
C	1.14697	-3.30874	-1.42973
H	-0.553986	-2.13733	-1.83106
H	0.706017	-4.05139	-2.13064
H	1.28574	-3.80057	-0.439733
H	2.15113	-3.01696	-1.81406
C	5.03508	3.41919	0.638792
C	5.21812	2.27436	-0.281563
O	5.29957	2.44152	-1.49066
H	4.98625	4.36033	0.0491079
H	5.88893	3.48201	1.34577
H	4.0901	3.30371	1.2103
N	5.2818	1.06538	0.281192
C	5.45795	-0.143976	-0.482515
C	4.97232	-1.30449	0.364018
O	4.76449	-1.16105	1.56737
H	5.18494	0.939594	1.26493
H	4.83314	-0.0967389	-1.36539
C	6.93855	-0.353049	-0.871374
H	7.57676	-0.400373	0.0366847
H	7.07774	-1.28328	-1.45965
H	7.28255	0.504222	-1.49017
N	4.75851	-2.48269	-0.254151
C	4.28479	-3.64011	0.468441
H	4.92573	-2.57673	-1.23008
H	4.17333	-4.51132	-0.214066
H	3.29536	-3.433	0.936823
H	4.99852	-3.91756	1.27762
