44
  This energy is -1.0248 and Call times are: 23506
C	-0.380445	-0.994639	-3.31543
C	-0.900469	-0.822862	-1.9402
O	-2.07774	-1.02832	-1.67885
H	-1.20987	-1.31028	-3.98497
H	0.410245	-1.77399	-3.33088
H	0.0381223	-0.0363966	-3.68895
N	-0.0190693	-0.429741	-1.01772
C	-0.373963	-0.219893	0.363161
C	0.672552	0.687271	0.980492
O	1.73674	0.902897	0.403575
H	0.930912	-0.237481	-1.24904
H	-1.32444	0.296523	0.407612
C	-0.441324	-1.55608	1.13594
H	0.535195	-2.08353	1.08771
H	-0.714494	-1.39817	2.19952
H	-1.21061	-2.21202	0.67323
N	0.382887	1.25987	2.16549
C	1.31324	2.14752	2.82329
H	-0.486632	1.07852	2.61301
H	0.893447	2.51399	3.78596
H	1.53663	3.02934	2.18006
H	2.27303	1.62342	3.03612
C	5.09867	2.59356	2.31007
C	5.15681	2.09051	0.91911
O	4.96736	2.83647	-0.0317512
H	4.86294	3.67991	2.29819
H	6.07752	2.44373	2.8123
H	4.30704	2.06019	2.87732
N	5.41903	0.790058	0.769316
C	5.50812	0.154204	-0.52087
C	5.29218	-1.33356	-0.322967
O	5.33662	-1.83123	0.800503
H	5.54267	0.186848	1.55276
H	4.70774	0.521891	-1.15037
C	6.88232	0.408582	-1.17964
H	7.70114	0.0307562	-0.53087
H	6.95427	-0.079499	-2.17331
H	7.02887	1.50197	-1.31807
N	5.03012	-2.07792	-1.41533
C	4.79915	-3.50068	-1.32259
H	4.9913	-1.65543	-2.3149
H	4.60279	-3.93356	-2.32823
H	3.92082	-3.71449	-0.671404
H	5.68578	-4.01521	-0.886322
