44
  This energy is 0.1084 and Call times are: 11900
C	2.14121	-1.97836	-1.90459
C	1.8411	-0.7445	-1.14385
O	2.71072	0.0849731	-0.915306
H	3.2171	-1.98481	-2.18436
H	1.52901	-2.01557	-2.83015
H	1.92605	-2.87311	-1.28324
N	0.582347	-0.59829	-0.723688
C	0.137258	0.548168	0.0275494
C	-1.13111	0.159977	0.76225
O	-1.73841	-0.867875	0.468074
H	-0.110182	-1.29492	-0.891143
H	0.885456	0.79421	0.770339
C	-0.132887	1.75619	-0.897012
H	-0.900421	1.50008	-1.6582
H	-0.475626	2.64074	-0.32179
H	0.803528	2.02991	-1.43026
N	-1.54993	0.96787	1.75618
C	-2.74033	0.672626	2.51905
H	-1.04075	1.79136	1.98386
H	-2.91847	1.4557	3.28867
H	-2.6427	-0.310014	3.03493
H	-3.63235	0.625906	1.85324
C	3.36757	1.52952	3.12616
C	2.91041	0.451008	2.22117
O	2.30393	-0.520624	2.65083
H	3.07484	1.28207	4.16968
H	2.89744	2.49388	2.84014
H	4.47245	1.62823	3.07663
N	3.20212	0.599526	0.926865
C	2.82406	-0.364691	-0.075225
C	3.72695	-0.165961	-1.27711
O	4.41692	0.846088	-1.38449
H	3.72215	1.38135	0.593328
H	3.00306	-1.36067	0.309562
C	1.34485	-0.196101	-0.488316
H	1.1646	0.826966	-0.881967
H	1.05037	-0.937077	-1.25969
H	0.69394	-0.342885	0.401019
N	3.75909	-1.14425	-2.20335
C	4.59788	-1.048	-3.37526
H	3.19874	-1.95878	-2.09485
H	4.48307	-1.94984	-4.01616
H	5.66976	-0.958511	-3.08493
H	4.32783	-0.151737	-3.97938
