44
  This energy is -0.5231 and Call times are: 5016
C	-1.50391	-0.394677	3.11586
C	-1.57548	-0.266691	1.64287
O	-2.63074	-0.425207	1.04471
H	-2.5116	-0.646619	3.51203
H	-1.16946	0.563019	3.56728
H	-0.795335	-1.20238	3.39601
N	-0.432445	0.0222695	1.01651
C	-0.342557	0.178761	-0.413263
C	1.10599	-0.0224762	-0.813824
O	1.99823	-0.0203982	0.0321889
H	0.426392	0.120275	1.51223
H	-0.926597	-0.598403	-0.889694
C	-0.827352	1.57683	-0.857679
H	-0.226483	2.37171	-0.366523
H	-0.759625	1.70065	-1.95807
H	-1.88926	1.71226	-0.557408
N	1.37127	-0.223869	-2.11961
C	2.71927	-0.43644	-2.59279
H	0.634685	-0.229139	-2.78792
H	2.73071	-0.580952	-3.69562
H	3.16507	-1.33949	-2.11634
H	3.3646	0.437792	-2.34692
C	6.05733	1.8032	2.97279
C	5.89896	1.69217	1.50521
O	5.38025	2.5894	0.855289
H	5.63863	2.77453	3.31494
H	7.13262	1.75922	3.24596
H	5.51338	0.978718	3.48004
N	6.34538	0.565999	0.944114
C	6.26182	0.311793	-0.471946
C	6.35723	-1.18678	-0.68271
O	6.73079	-1.92676	0.225427
H	6.73959	-0.16992	1.48813
H	5.29223	0.633329	-0.83054
C	7.3941	1.02948	-1.24004
H	8.38735	0.697769	-0.869179
H	7.33266	0.835993	-2.33072
H	7.31383	2.12628	-1.07658
N	5.99834	-1.67271	-1.88731
C	6.04513	-3.08715	-2.176
H	5.69193	-1.05835	-2.60697
H	5.71377	-3.28683	-3.21887
H	5.38034	-3.6518	-1.48285
H	7.08123	-3.47871	-2.05618
