44
  This energy is 0.1491 and Call times are: 9234
C	3.42643	0.587049	-0.202746
C	2.22514	-0.22506	-0.500401
O	2.28312	-1.18814	-1.25247
H	4.29557	0.1752	-0.76027
H	3.64949	0.555922	0.884496
H	3.26428	1.63976	-0.516518
N	1.09003	0.156917	0.0895016
C	-0.160779	-0.532804	-0.101769
C	-1.28043	0.424608	0.257377
O	-1.04541	1.46649	0.86655
H	1.04964	0.960649	0.677139
H	-0.266939	-0.784984	-1.14925
C	-0.243903	-1.801	0.776808
H	-0.133949	-1.53871	1.85069
H	-1.2057	-2.33459	0.631886
H	0.582208	-2.4936	0.504802
N	-2.52885	0.101343	-0.133699
C	-3.65607	0.957699	0.153041
H	-2.69755	-0.742756	-0.631966
H	-4.59581	0.5184	-0.248402
H	-3.51379	1.96196	-0.307894
H	-3.77509	1.09598	1.25208
C	6.39405	-1.49259	-2.96787
C	6.61213	-1.11744	-1.55263
O	7.58765	-1.52078	-0.93443
H	7.22062	-2.15587	-3.30358
H	6.38007	-0.584478	-3.60659
H	5.43132	-2.03514	-3.07616
N	5.68847	-0.328112	-0.99929
C	5.76227	0.121938	0.367764
C	4.36676	0.527203	0.80083
O	3.47158	0.68201	-0.0277335
H	4.88315	-0.029936	-1.50475
H	6.07402	-0.704405	0.993899
C	6.73201	1.31564	0.515406
H	6.40959	2.16132	-0.128786
H	6.79134	1.6646	1.56683
H	7.75037	1.00621	0.193933
N	4.1436	0.687859	2.12007
C	2.84348	1.06115	2.62655
H	4.8792	0.551014	2.77535
H	2.86272	1.14504	3.73553
H	2.07929	0.3006	2.34582
H	2.52474	2.04237	2.2061
