44
  This energy is 0.1381 and Call times are: 14658
C	-0.952816	-3.31389	0.486232
C	0.0473821	-2.28852	0.112825
O	1.21369	-2.59038	-0.0995598
H	-0.459117	-4.30887	0.53243
H	-1.76435	-3.35022	-0.270683
H	-1.38634	-3.08122	1.48165
N	-0.39473	-1.03157	0.0293857
C	0.458206	0.0752285	-0.323226
C	-0.199712	1.34747	0.174548
O	-1.37561	1.34799	0.533835
H	-1.34082	-0.794295	0.233221
H	1.40346	-0.0303244	0.193904
C	0.676627	0.152653	-1.85078
H	-0.295165	0.260229	-2.37819
H	1.33306	1.00369	-2.12576
H	1.15803	-0.78557	-2.20311
N	0.555536	2.46227	0.227659
C	0.0181334	3.7173	0.699127
H	1.50713	2.43982	-0.0607949
H	0.793192	4.51442	0.665396
H	-0.340396	3.6213	1.74959
H	-0.842486	4.03804	0.0685371
C	4.11316	2.23492	0.196978
C	3.36856	1.15457	-0.488287
O	3.68232	0.783778	-1.61104
H	4.92701	2.59858	-0.467298
H	4.5613	1.85312	1.13837
H	3.43295	3.08147	0.428512
N	2.34466	0.622049	0.182855
C	1.52603	-0.436848	-0.351383
C	0.207425	-0.429221	0.39725
O	0.0808025	0.208397	1.44092
H	2.08088	0.952734	1.08508
H	1.31457	-0.227101	-1.39223
C	2.215	-1.81144	-0.199924
H	2.43109	-2.02309	0.869011
H	1.58745	-2.62903	-0.610408
H	3.18019	-1.80365	-0.751735
N	-0.817062	-1.12503	-0.134047
C	-2.11314	-1.16592	0.502108
H	-0.69671	-1.62876	-0.983166
H	-2.82051	-1.79085	-0.0863931
H	-2.54043	-0.140719	0.589468
H	-2.03459	-1.5957	1.52695
