44
  This energy is -4.7596 and Call times are: 23549
C	-1.32711	-1.7535	2.70003
C	-0.419223	-1.64882	1.53556
O	0.408831	-2.51764	1.29897
H	-1.10688	-2.69167	3.25428
H	-2.38394	-1.77648	2.36031
H	-1.17692	-0.889774	3.38147
N	-0.554239	-0.560411	0.774314
C	0.255973	-0.317159	-0.392397
C	0.213504	1.16958	-0.6874
O	-0.621166	1.89382	-0.148284
H	-1.21281	0.154353	0.994171
H	1.2824	-0.578956	-0.168806
C	-0.258618	-1.11549	-1.61099
H	-1.31207	-0.844949	-1.83716
H	0.363065	-0.930633	-2.51105
H	-0.223588	-2.20286	-1.38175
N	1.13293	1.66432	-1.5394
C	1.1771	3.06941	-1.87098
H	1.80452	1.06318	-1.9599
H	2.00142	3.27854	-2.58793
H	1.34357	3.68381	-0.956625
H	0.217779	3.39409	-2.33516
C	4.56459	3.46799	0.254515
C	5.08659	2.23532	-0.377334
O	5.76821	2.28445	-1.39196
H	4.88904	4.35047	-0.338629
H	4.95913	3.56481	1.28785
H	3.45488	3.44287	0.283718
N	4.76689	1.08329	0.2168
C	5.20032	-0.198537	-0.279071
C	4.26875	-1.25474	0.282918
O	3.50538	-0.990638	1.20993
H	4.18665	1.05464	1.02639
H	5.09978	-0.211146	-1.35694
C	6.65742	-0.499369	0.137444
H	6.7571	-0.48498	1.24378
H	6.99442	-1.48556	-0.242857
H	7.32958	0.282028	-0.279406
N	4.29518	-2.47705	-0.283887
C	3.43543	-3.54233	0.176756
H	4.9149	-2.66903	-1.03776
H	3.6068	-4.46919	-0.413843
H	2.36401	-3.25458	0.0743612
H	3.63099	-3.76907	1.24985
