44
  This energy is -4.2116 and Call times are: 20643
C	0.495493	-3.1028	-1.50108
C	0.480304	-2.21881	-0.313845
O	0.637012	-2.66965	0.812511
H	0.656174	-4.15331	-1.17478
H	1.31865	-2.80938	-2.18602
H	-0.473603	-3.03784	-2.03921
N	0.281857	-0.918958	-0.544863
C	0.241423	0.0647109	0.507557
C	-0.495604	1.28064	-0.0192703
O	-0.714099	1.41088	-1.22224
H	0.126424	-0.567972	-1.46442
H	-0.329177	-0.331603	1.33787
C	1.66393	0.461252	0.961821
H	2.24672	0.86679	0.107419
H	1.63647	1.21842	1.77221
H	2.19369	-0.438253	1.34442
N	-0.917004	2.1935	0.878009
C	-1.63728	3.37721	0.470319
H	-0.736677	2.06654	1.84785
H	-1.89505	4.00398	1.35234
H	-2.58201	3.10182	-0.0520645
H	-1.02271	3.99028	-0.227991
C	7.76059	3.46026	-0.26259
C	7.93267	2.11907	-0.864916
O	7.91614	1.9637	-2.07821
H	7.62101	4.21069	-1.07082
H	8.66002	3.73227	0.328891
H	6.86738	3.47203	0.396943
N	8.09854	1.10374	-0.0140563
C	8.27856	-0.258543	-0.448331
C	7.91582	-1.16835	0.70921
O	7.7904	-0.718736	1.84673
H	8.081	1.23911	0.973013
H	7.58873	-0.464137	-1.25699
C	9.73509	-0.519399	-0.892865
H	10.4401	-0.306853	-0.061089
H	9.87718	-1.56738	-1.22802
H	9.98884	0.153974	-1.7404
N	7.71663	-2.47361	0.439716
C	7.35644	-3.41279	1.47625
H	7.81589	-2.81681	-0.488504
H	7.23897	-4.43604	1.05625
H	6.3951	-3.11849	1.9563
H	8.14101	-3.44599	2.26651
