44
  This energy is -1.1975 and Call times are: 14423
C	-0.43268	2.98166	-1.74603
C	-0.646858	1.5261	-1.58268
O	-1.39787	0.909897	-2.32616
H	-1.04551	3.34982	-2.59736
H	0.637373	3.18958	-1.95716
H	-0.738488	3.5195	-0.823983
N	0.016111	0.937502	-0.584493
C	-0.08903	-0.47134	-0.299999
C	0.340728	-0.68968	1.13766
O	0.929368	0.193241	1.75878
H	0.602425	1.45572	0.03245
H	-1.12625	-0.770475	-0.382311
C	0.797399	-1.30511	-1.25194
H	1.86068	-0.995161	-1.1654
H	0.718711	-2.39039	-1.03575
H	0.473262	-1.13549	-2.30185
N	0.0348338	-1.87123	1.70895
C	0.393192	-2.1643	3.07712
H	-0.448234	-2.57024	1.19198
H	0.0567678	-3.18564	3.3616
H	-0.0795804	-1.43324	3.7723
H	1.49725	-2.10761	3.21504
C	5.67006	-2.66204	2.22198
C	4.92544	-1.50556	1.67492
O	3.78291	-1.26035	2.03684
H	5.02638	-3.20235	2.94971
H	6.58748	-2.31492	2.74225
H	5.95051	-3.35851	1.40391
N	5.56667	-0.761318	0.770877
C	4.97417	0.395805	0.148917
C	5.724	0.666743	-1.14088
O	6.80252	0.121465	-1.36741
H	6.48668	-0.988411	0.462722
H	3.94729	0.169649	-0.108865
C	5.04597	1.63071	1.07465
H	6.10078	1.85948	1.33765
H	4.59049	2.52344	0.598894
H	4.49405	1.41905	2.01631
N	5.15545	1.50436	-2.03034
C	5.79019	1.81262	-3.2906
H	4.27881	1.93012	-1.83168
H	5.16808	2.52052	-3.88147
H	5.9365	0.887251	-3.89353
H	6.78874	2.27785	-3.12436
