44
  This energy is -1.6497 and Call times are: 32811
C	-0.969631	0.850103	-3.2347
C	-0.0676882	0.984142	-2.06862
O	0.955912	1.65082	-2.13402
H	-0.55051	1.42209	-4.09087
H	-1.97427	1.25449	-2.98976
H	-1.0622	-0.217263	-3.52643
N	-0.432339	0.336845	-0.959386
C	0.341305	0.371586	0.255972
C	-0.0496951	-0.831698	1.09171
O	-1.05688	-1.48355	0.822467
H	-1.25351	-0.226714	-0.927582
H	1.39055	0.272995	0.00810599
C	0.0868115	1.67368	1.04774
H	-0.990655	1.77195	1.29978
H	0.68107	1.70379	1.98407
H	0.376075	2.54762	0.424277
N	0.755692	-1.16797	2.11849
C	0.470027	-2.30523	2.96183
H	1.57004	-0.632133	2.31587
H	1.24725	-2.41552	3.74987
H	0.444388	-3.24319	2.36115
H	-0.519661	-2.1868	3.45949
C	6.20411	1.24977	-3.17308
C	6.16757	1.38509	-1.69946
O	6.66837	2.35106	-1.14036
H	6.73648	2.12293	-3.60901
H	5.17155	1.21861	-3.58012
H	6.74201	0.321428	-3.45908
N	5.56825	0.398972	-1.02809
C	5.45311	0.388726	0.408389
C	5.21615	-1.04343	0.846593
O	4.90357	-1.9073	0.0293693
H	5.18976	-0.396931	-1.49308
H	6.39188	0.713408	0.838944
C	4.29225	1.28946	0.886083
H	3.33084	0.953956	0.441962
H	4.20086	1.284	1.9917
H	4.47717	2.33549	0.557801
N	5.38197	-1.33322	2.15217
C	5.18981	-2.67187	2.65938
H	5.64211	-0.62172	2.79663
H	5.37092	-2.70654	3.75631
H	5.89075	-3.38342	2.16578
H	4.14981	-3.02055	2.46444
