44
  This energy is -1.8769 and Call times are: 2143
C	-2.25446	-2.07402	1.6559
C	-1.66377	-1.52001	0.416795
O	-1.9687	-1.96263	-0.682114
H	-2.95449	-2.89668	1.39314
H	-2.81549	-1.28434	2.19854
H	-1.45596	-2.47782	2.31338
N	-0.786001	-0.526019	0.571235
C	-0.127796	0.115059	-0.538996
C	1.12656	0.785314	-0.013085
O	1.2971	0.940584	1.19466
H	-0.52398	-0.193844	1.47342
H	0.177214	-0.640917	-1.25142
C	-1.04671	1.15987	-1.21062
H	-1.35826	1.93351	-0.476767
H	-0.543073	1.6553	-2.06599
H	-1.96239	0.656537	-1.59054
N	2.04844	1.18041	-0.91311
C	3.27909	1.81669	-0.504655
H	1.89517	1.03943	-1.88567
H	3.90432	2.06815	-1.38959
H	3.86743	1.14371	0.160323
H	3.06864	2.75693	0.0546577
C	8.14335	3.47604	-0.0244386
C	7.53011	2.13667	0.121323
O	6.36989	2.00864	0.487345
H	7.39751	4.25333	0.250142
H	8.46153	3.63877	-1.07568
H	9.02324	3.56932	0.64641
N	8.31229	1.09238	-0.161528
C	7.85861	-0.272217	-0.0672723
C	9.08016	-1.16163	0.0592509
O	10.2038	-0.724444	-0.182049
H	9.26464	1.20875	-0.430662
H	7.27329	-0.386799	0.836241
C	7.03269	-0.677403	-1.30856
H	7.63598	-0.557999	-2.23371
H	6.68165	-1.72752	-1.23919
H	6.14148	-0.0177468	-1.39066
N	8.88877	-2.43255	0.464387
C	9.99357	-3.34897	0.624895
H	7.97252	-2.76542	0.661674
H	9.63223	-4.34518	0.962903
H	10.7169	-2.96393	1.3797
H	10.5375	-3.48149	-0.338329
