44
  This energy is -1.3158 and Call times are: 24402
C	1.12569	2.14804	-2.49897
C	1.31284	0.989531	-1.59674
O	2.28848	0.258756	-1.69968
H	1.9734	2.19538	-3.21662
H	1.09904	3.08995	-1.91167
H	0.178399	2.04084	-3.06827
N	0.361663	0.791219	-0.681157
C	0.403483	-0.29311	0.267162
C	-1.00804	-0.52805	0.768792
O	-1.89404	0.299381	0.563353
H	-0.442972	1.37645	-0.626314
H	0.725942	-1.19292	-0.241212
C	1.34111	0.031286	1.45154
H	1.00777	0.955299	1.97039
H	1.37577	-0.801602	2.18357
H	2.37157	0.202418	1.07075
N	-1.25518	-1.67968	1.42353
C	-2.57169	-1.99511	1.92701
H	-0.526506	-2.3398	1.57352
H	-2.57143	-2.98403	2.43622
H	-3.31252	-2.02921	1.09559
H	-2.9081	-1.22444	2.65781
C	9.56535	1.85241	-0.696055
C	8.4571	1.4574	0.202248
O	8.41742	1.83953	1.36367
H	10.2786	2.49706	-0.137869
H	9.17019	2.42131	-1.56382
H	10.1035	0.951574	-1.05913
N	7.52059	0.664978	-0.324419
C	6.3814	0.197029	0.423979
C	5.84412	-1.03955	-0.269886
O	6.20499	-1.32772	-1.40943
H	7.57944	0.336774	-1.26344
H	6.70715	-0.0965669	1.41381
C	5.28142	1.27866	0.509081
H	4.95004	1.578	-0.50812
H	4.40284	0.921705	1.08481
H	5.68788	2.17959	1.01824
N	4.98012	-1.81475	0.414633
C	4.42553	-3.01803	-0.160475
H	4.70586	-1.56842	1.33839
H	3.73561	-3.51487	0.556746
H	5.23496	-3.73699	-0.423453
H	3.85667	-2.78373	-1.08928
