44
  This energy is -2.6792 and Call times are: 23202
C	0.833246	3.33009	-0.585097
C	0.281808	2.02936	-1.02694
O	-0.267046	1.91139	-2.11383
H	0.650312	4.09312	-1.37261
H	1.92713	3.24404	-0.415315
H	0.338345	3.65672	0.353695
N	0.413417	1.0095	-0.175508
C	-0.0717636	-0.316615	-0.463349
C	-0.23252	-1.05006	0.85402
O	0.266038	-0.605065	1.88613
H	0.836609	1.12515	0.719181
H	-1.05062	-0.241791	-0.919755
C	0.903016	-1.08479	-1.38358
H	1.90639	-1.1591	-0.91258
H	0.532415	-2.10624	-1.60735
H	1.01311	-0.536723	-2.34465
N	-0.955756	-2.18712	0.852202
C	-1.17242	-2.94677	2.0614
H	-1.3571	-2.52707	0.00804746
H	-1.7893	-3.8488	1.85391
H	-1.69992	-2.32929	2.82409
H	-0.20188	-3.27816	2.49663
C	6.85034	0.824297	3.03243
C	5.68835	0.814096	2.11544
O	4.58697	1.19661	2.48574
H	6.53105	1.20827	4.02565
H	7.64823	1.48425	2.6316
H	7.24946	-0.20446	3.15617
N	5.91245	0.36249	0.879234
C	4.88219	0.292189	-0.125981
C	5.32276	-0.70975	-1.17539
O	6.48573	-1.10679	-1.21635
H	6.8075	0.0263691	0.598424
H	3.97369	-0.0839472	0.327022
C	4.63736	1.67137	-0.777917
H	5.57157	2.05457	-1.24108
H	3.84454	1.62088	-1.5523
H	4.31635	2.39654	0.00133661
N	4.39185	-1.16008	-2.03946
C	4.71621	-2.12409	-3.06496
H	3.45444	-0.83208	-1.98553
H	3.81812	-2.36688	-3.67466
H	5.09712	-3.06752	-2.61097
H	5.50397	-1.72525	-3.74433
