44
  This energy is -0.7906 and Call times are: 33209
C	-0.50836	2.04236	2.77425
C	-0.236829	1.84996	1.33187
O	-0.217837	2.79861	0.55974
H	-0.679531	3.12232	2.97489
H	0.358905	1.69812	3.37605
H	-1.41404	1.47342	3.07257
N	-0.0230889	0.594578	0.930992
C	0.254227	0.248406	-0.440171
C	-0.0726844	-1.22067	-0.625074
O	-0.250855	-1.95218	0.347022
H	-0.0700395	-0.172984	1.5647
H	-0.403706	0.815651	-1.08626
C	1.73361	0.512705	-0.798888
H	2.40579	-0.0702633	-0.133721
H	1.95056	0.247378	-1.85402
H	1.96069	1.59195	-0.658171
N	-0.180864	-1.68306	-1.88622
C	-0.500786	-3.06476	-2.15961
H	-0.0400875	-1.0737	-2.65959
H	-0.542625	-3.24927	-3.25572
H	-1.48907	-3.33341	-1.72101
H	0.267587	-3.74069	-1.71927
C	5.50873	0.4104	0.339688
C	6.68779	-0.325153	-0.170214
O	6.56606	-1.40851	-0.725205
H	4.58997	-0.180831	0.134317
H	5.42338	1.3947	-0.166962
H	5.59878	0.565621	1.43547
N	7.87526	0.255905	0.0159
C	9.11294	-0.336455	-0.42466
C	10.239	0.286616	0.377152
O	10.0501	1.30471	1.04018
H	7.96396	1.12492	0.495364
H	9.09585	-1.39535	-0.199881
C	9.34276	-0.101899	-1.93439
H	9.35905	0.985415	-2.16154
H	10.2948	-0.556849	-2.27699
H	8.51059	-0.561979	-2.51056
N	11.4385	-0.327153	0.351678
C	12.5662	0.186728	1.0936
H	11.5695	-1.15407	-0.185233
H	13.4617	-0.455645	0.942971
H	12.3375	0.219248	2.1835
H	12.8164	1.22056	0.762341
