44
  This energy is -4.0679 and Call times are: 4436
C	-1.47052	1.36911	2.84416
C	-1.2551	0.248388	1.9014
O	-1.70235	-0.866719	2.13162
H	-2.05872	1.00804	3.71566
H	-2.03257	2.18627	2.345
H	-0.49536	1.75853	3.20521
N	-0.547664	0.524742	0.803438
C	-0.25522	-0.460729	-0.206587
C	0.947726	0.0216185	-0.99367
O	1.33743	1.18377	-0.896856
H	-0.163896	1.42996	0.641449
H	0.0190999	-1.38963	0.277118
C	-1.45892	-0.671559	-1.15198
H	-1.73808	0.283494	-1.64601
H	-1.23721	-1.42986	-1.93083
H	-2.33383	-1.02367	-0.563173
N	1.58	-0.872219	-1.77934
C	2.74142	-0.506863	-2.5564
H	1.25357	-1.80985	-1.83871
H	3.11577	-1.37828	-3.13755
H	3.56182	-0.149782	-1.89256
H	2.49468	0.311406	-3.27105
C	7.63403	-1.57948	-2.77774
C	6.5629	-1.42445	-1.76786
O	5.52143	-2.06123	-1.84757
H	7.3121	-2.31751	-3.54425
H	8.5647	-1.94531	-2.29522
H	7.83386	-0.607591	-3.27618
N	6.7982	-0.55485	-0.782576
C	5.85248	-0.295462	0.273443
C	6.18828	1.05372	0.878576
O	7.26218	1.60145	0.636579
H	7.63852	-0.0206504	-0.744778
H	4.85951	-0.226987	-0.152456
C	5.90686	-1.39314	1.35938
H	6.92709	-1.46112	1.79369
H	5.17981	-1.1966	2.17396
H	5.66019	-2.3766	0.903181
N	5.26184	1.63309	1.66727
C	5.4885	2.92247	2.27744
H	4.39602	1.17711	1.84527
H	4.61138	3.2274	2.88976
H	5.66009	3.70079	1.49898
H	6.38449	2.89228	2.93886
