44
  This energy is -3.9686 and Call times are: 12150
C	1.73353	-2.02168	2.24362
C	0.51789	-1.28956	1.8224
O	-0.533458	-1.40239	2.43757
H	1.50042	-2.63504	3.14101
H	2.54261	-1.30522	2.49834
H	2.0777	-2.69306	1.42891
N	0.636932	-0.514629	0.741807
C	-0.456559	0.259331	0.210685
C	-0.142911	0.575293	-1.23881
O	0.989541	0.408378	-1.68772
H	1.49107	-0.453757	0.232216
H	-1.3557	-0.3434	0.228844
C	-0.659231	1.56731	1.00771
H	0.265309	2.18288	0.987554
H	-1.50054	2.16561	0.601499
H	-0.887139	1.32224	2.06797
N	-1.1512	1.02131	-2.01368
C	-0.949565	1.33656	-3.40872
H	-2.06222	1.143	-1.6336
H	-1.8969	1.68881	-3.87319
H	-0.5978	0.439159	-3.96744
H	-0.183536	2.13724	-3.52402
C	7.96869	0.885805	2.29064
C	6.60289	0.416884	1.96524
O	5.8385	0.0380791	2.842
H	8.12875	0.817098	3.3886
H	8.09587	1.94252	1.97439
H	8.72314	0.253268	1.77717
N	6.2643	0.427249	0.673875
C	4.9713	0.000947449	0.201393
C	5.10451	-0.349794	-1.26778
O	6.10064	-0.0150287	-1.90614
H	6.90604	0.710644	-0.0337936
H	4.68283	-0.898989	0.729576
C	3.9106	1.10855	0.38911
H	4.21003	2.03053	-0.153491
H	2.91377	0.783577	0.0264751
H	3.82337	1.35723	1.46925
N	4.10653	-1.05579	-1.83488
C	4.15173	-1.44539	-3.22497
H	3.31205	-1.32342	-1.29972
H	3.23905	-2.01722	-3.50297
H	5.04108	-2.086	-3.42473
H	4.21754	-0.548523	-3.88261
