44
  This energy is -1.1776 and Call times are: 34043
C	-1.23307	-3.12399	-0.919996
C	-1.21335	-1.94407	-0.0263483
O	-2.04385	-1.8092	0.861671
H	-2.08263	-3.78355	-0.638779
H	-0.286263	-3.69533	-0.820219
H	-1.36128	-2.80297	-1.9752
N	-0.250725	-1.04655	-0.250352
C	-0.101693	0.152364	0.535286
C	0.701544	1.1469	-0.280155
O	1.31166	0.788154	-1.28558
H	0.402179	-1.15341	-0.995493
H	-1.07965	0.583078	0.708939
C	0.613298	-0.137556	1.87389
H	1.61596	-0.579952	1.69203
H	0.729566	0.783425	2.48138
H	0.0155484	-0.868188	2.46127
N	0.701789	2.43209	0.125172
C	1.42841	3.45148	-0.595272
H	0.196031	2.70386	0.93732
H	1.30663	4.44226	-0.104576
H	1.05829	3.53146	-1.64306
H	2.51517	3.20882	-0.63058
C	8.55942	3.37892	0.481814
C	9.39515	2.28627	-0.0648831
O	10.331	2.52136	-0.816836
H	8.92787	4.35296	0.0927725
H	8.61986	3.38874	1.59045
H	7.50201	3.24446	0.170757
N	9.06517	1.0462	0.303497
C	9.78353	-0.119752	-0.145222
C	8.87065	-1.31981	0.0152341
O	7.84307	-1.24269	0.686025
H	8.28264	0.865568	0.893364
H	10.0041	-0.0129158	-1.19974
C	11.0817	-0.327496	0.666347
H	10.8518	-0.436059	1.74777
H	11.6374	-1.22435	0.323334
H	11.7413	0.558823	0.541445
N	9.21627	-2.45738	-0.619174
C	8.40219	-3.64741	-0.533887
H	10.048	-2.49766	-1.16306
H	8.85462	-4.47632	-1.12165
H	7.3797	-3.45328	-0.931472
H	8.30349	-3.98112	0.524451
