44
  This energy is 0.1172 and Call times are: 13143
C	-3.15011	-0.879453	-1.19562
C	-2.14556	0.131196	-0.794787
O	-2.34148	1.32483	-0.977394
H	-4.02296	-0.367321	-1.65573
H	-3.49505	-1.44925	-0.307268
H	-2.71286	-1.5807	-1.93725
N	-1.0264	-0.334535	-0.235376
C	0.042564	0.524845	0.206915
C	1.30685	-0.308346	0.28828
O	1.25418	-1.53613	0.248375
H	-0.866111	-1.31106	-0.118599
H	0.204087	1.29607	-0.535509
C	-0.271486	1.1497	1.58461
H	-0.437286	0.35571	2.34369
H	0.549482	1.81212	1.9281
H	-1.20031	1.75646	1.51193
N	2.48137	0.345514	0.382956
C	3.73755	-0.363853	0.453621
H	2.5036	1.33959	0.406594
H	4.58802	0.349047	0.529226
H	3.88599	-0.991427	-0.454871
H	3.7612	-1.03365	1.34356
C	-1.72348	1.54881	-0.765425
C	-0.943023	0.413465	-0.224064
O	-1.49363	-0.516276	0.349444
H	-2.80242	1.38823	-0.551018
H	-1.58231	1.62063	-1.86439
H	-1.39968	2.49791	-0.288655
N	0.380138	0.469401	-0.392834
C	1.27237	-0.559664	0.0781008
C	2.65877	0.0432673	0.194657
O	2.91774	1.12854	-0.322017
H	0.81943	1.24627	-0.836037
H	0.963029	-0.867162	1.06897
C	1.29735	-1.76686	-0.885832
H	1.61446	-1.4477	-1.90155
H	1.98326	-2.56117	-0.526152
H	0.275789	-2.19876	-0.963474
N	3.58094	-0.641411	0.899513
C	4.92409	-0.139779	1.0742
H	3.34989	-1.51453	1.31606
H	5.53181	-0.846209	1.68155
H	4.91087	0.846326	1.59253
H	5.42461	-0.0048022	0.0880785
