44
  This energy is -0.6286 and Call times are: 24192
C	-3.45262	0.00374952	0.453352
C	-2.08569	0.397797	0.862534
O	-1.90264	1.18887	1.77751
H	-4.19382	0.535045	1.08912
H	-3.58937	-1.09079	0.580265
H	-3.62824	0.277243	-0.608393
N	-1.0801	-0.151103	0.177067
C	0.304426	0.133744	0.457739
C	1.11114	-0.211776	-0.778817
O	0.616698	-0.878553	-1.68588
H	-1.24294	-0.771785	-0.585281
H	0.415851	1.19558	0.637092
C	0.812195	-0.681193	1.66818
H	0.695787	-1.77002	1.48106
H	1.8779	-0.464164	1.88715
H	0.21247	-0.419882	2.56717
N	2.37288	0.255697	-0.852814
C	3.21222	-0.012624	-1.99724
H	2.75248	0.799533	-0.111612
H	4.2133	0.454959	-1.86897
H	2.75164	0.394616	-2.92636
H	3.35229	-1.10944	-2.13343
C	5.04764	1.65142	1.12383
C	6.3841	1.05821	1.35445
O	6.95678	1.18726	2.42771
H	4.72053	2.18756	2.04112
H	4.31033	0.854506	0.891191
H	5.08942	2.37334	0.281199
N	6.92025	0.388642	0.331424
C	8.21299	-0.244217	0.403093
C	8.71703	-0.436045	-1.01408
O	7.95839	-0.31026	-1.9735
H	6.45641	0.315335	-0.547447
H	8.90192	0.419271	0.910266
C	8.13295	-1.60656	1.12747
H	7.42483	-2.2845	0.604906
H	9.12666	-2.09652	1.18456
H	7.76136	-1.45252	2.16397
N	10.0227	-0.725507	-1.17932
C	10.5947	-0.913699	-2.49218
H	10.622	-0.816103	-0.390689
H	11.6801	-1.14576	-2.41868
H	10.474	0.00627691	-3.10888
H	10.0917	-1.75389	-3.02337
