44
  This energy is -2.099 and Call times are: 15853
C	0.438339	-1.56711	3.07866
C	0.388057	-1.59478	1.5995
O	0.705882	-2.59716	0.974429
H	0.797167	-2.55068	3.45242
H	-0.573613	-1.37297	3.49228
H	1.13634	-0.77529	3.42328
N	-0.0140074	-0.472374	0.998734
C	-0.114918	-0.345258	-0.433218
C	-0.080182	1.132	-0.773418
O	-0.233749	1.98229	0.101377
H	-0.242358	0.346933	1.51789
H	0.750824	-0.808315	-0.889445
C	-1.41867	-0.982149	-0.963977
H	-2.30477	-0.505206	-0.493372
H	-1.49951	-0.886179	-2.06626
H	-1.43246	-2.06386	-0.707358
N	0.145702	1.47259	-2.05754
C	0.207701	2.8545	-2.47309
H	0.27462	0.769872	-2.7495
H	0.399992	2.92819	-3.56617
H	1.0244	3.38978	-1.93669
H	-0.751406	3.3755	-2.24981
C	6.17571	-1.71199	2.81567
C	5.99806	-1.58991	1.35118
O	6.51398	-2.38964	0.582574
H	6.81831	-2.59208	3.03559
H	5.19156	-1.85315	3.30997
H	6.66439	-0.800309	3.21938
N	5.25574	-0.564394	0.927325
C	4.99238	-0.313839	-0.467196
C	4.59777	1.14302	-0.612392
O	4.30328	1.81579	0.373758
H	4.86495	0.0970988	1.56187
H	5.90456	-0.465245	-1.03029
C	3.86406	-1.22543	-0.999187
H	2.92996	-1.068	-0.418851
H	3.65881	-1.03523	-2.07272
H	4.16487	-2.2898	-0.886121
N	4.60415	1.67182	-1.85188
C	4.2543	3.05353	-2.08573
H	4.85232	1.11297	-2.6363
H	4.31777	3.2973	-3.16915
H	4.94338	3.73228	-1.53282
H	3.21549	3.25989	-1.74009
