44
  This energy is 0.137 and Call times are: 16092
C	-3.31761	-0.641702	0.84133
C	-2.28922	0.0868759	0.0649236
O	-2.60147	0.847654	-0.840732
H	-4.32571	-0.377177	0.454528
H	-3.2587	-0.359484	1.91357
H	-3.16958	-1.73742	0.739142
N	-1.01831	-0.139222	0.405544
C	0.0931752	0.495488	-0.256705
C	1.32953	-0.344081	-0.00019186
O	1.32812	-1.21681	0.865931
H	-0.775597	-0.783504	1.12591
H	-0.0876035	0.497229	-1.32413
C	0.310677	1.93411	0.263088
H	0.49519	1.92867	1.35855
H	1.16567	2.42581	-0.244843
H	-0.602387	2.53851	0.0703185
N	2.41277	-0.112319	-0.767574
C	3.63118	-0.870446	-0.60357
H	2.39176	0.593491	-1.46802
H	4.4061	-0.530393	-1.32545
H	3.44483	-1.95545	-0.774694
H	4.03461	-0.747863	0.427643
C	5.87865	0.20569	-0.817645
C	4.45738	0.0288204	-1.1917
O	4.11284	-0.0158991	-2.36463
H	6.4938	0.287153	-1.74004
H	6.23021	-0.666385	-0.227128
H	6.00449	1.1322	-0.218738
N	3.58709	-0.0713202	-0.184257
C	2.1714	-0.24679	-0.388849
C	1.45971	0.194976	0.875102
O	2.08447	0.371505	1.91929
H	3.8766	-0.00417975	0.766855
H	1.84877	0.403175	-1.1923
C	1.82706	-1.71932	-0.705417
H	2.16003	-2.38338	0.12058
H	0.737792	-1.85795	-0.863668
H	2.35542	-2.0311	-1.63266
N	0.13065	0.405718	0.802998
C	-0.629151	0.839104	1.95237
H	-0.355732	0.264266	-0.0529557
H	-1.70442	0.954616	1.69217
H	-0.251859	1.81846	2.32621
H	-0.546305	0.0983611	2.78039
