44
  This energy is -2.1718 and Call times are: 29706
C	0.958451	2.31536	-2.41797
C	-0.00912395	1.79358	-1.42664
O	-1.01986	2.41982	-1.13902
H	0.603341	3.29892	-2.79531
H	1.04631	1.61281	-3.27326
H	1.95476	2.44972	-1.94652
N	0.288545	0.617292	-0.869768
C	-0.554519	-0.019061	0.110603
C	0.294684	-1.01027	0.882352
O	1.40495	-1.3413	0.47056
H	1.12955	0.13074	-1.09093
H	-0.905884	0.728225	0.810731
C	-1.74404	-0.744959	-0.556643
H	-1.37998	-1.5104	-1.27474
H	-2.39533	-1.23593	0.195393
H	-2.35755	-0.00825897	-1.1197
N	-0.202525	-1.49246	2.03833
C	0.539602	-2.43162	2.84666
H	-1.09993	-1.20691	2.35825
H	-0.0377571	-2.71027	3.75565
H	1.51045	-1.99072	3.1696
H	0.756713	-3.36026	2.27074
C	8.85553	2.36017	-2.03373
C	8.62932	0.963331	-1.59913
O	9.11564	0.0233547	-2.21266
H	9.49037	2.36263	-2.94633
H	9.37346	2.93048	-1.23417
H	7.88693	2.84974	-2.2684
N	7.86783	0.795394	-0.515475
C	7.55819	-0.502592	0.0287497
C	6.30983	-0.365772	0.878529
O	5.89391	0.742603	1.21071
H	7.45345	1.56775	-0.0414582
H	7.32992	-1.17978	-0.784504
C	8.72494	-1.04749	0.8825
H	8.9569	-0.350002	1.71546
H	8.48992	-2.04687	1.30297
H	9.63362	-1.14198	0.248845
N	5.66809	-1.49642	1.23322
C	4.46476	-1.46363	2.03141
H	6.01647	-2.38343	0.948505
H	4.08887	-2.49363	2.21863
H	3.6647	-0.887502	1.51253
H	4.65841	-0.976844	3.01463
