44
  This energy is -4.5338 and Call times are: 28390
C	-2.6869	-1.19478	-1.86526
C	-1.23617	-1.09688	-1.58778
O	-0.427692	-1.78246	-2.19838
H	-2.85847	-1.95279	-2.66015
H	-3.07689	-0.215026	-2.21283
H	-3.23187	-1.5052	-0.948968
N	-0.870903	-0.231026	-0.639498
C	0.503149	-0.0237229	-0.257615
C	0.51396	0.586265	1.13056
O	-0.514082	1.04792	1.62233
H	-1.54147	0.300557	-0.128922
H	1.00071	-0.983454	-0.199071
C	1.22916	0.908414	-1.25318
H	0.715698	1.89183	-1.31126
H	2.28745	1.07005	-0.962204
H	1.21329	0.450894	-2.26638
N	1.67999	0.582118	1.8061
C	1.78336	1.13026	3.1384
H	2.49927	0.197424	1.39375
H	2.8226	1.035	3.52329
H	1.10034	0.595343	3.8374
H	1.50548	2.20913	3.14221
C	5.05181	3.26846	-0.0874479
C	5.19658	1.9525	0.57475
O	4.8064	1.77457	1.72044
H	4.56893	3.982	0.615086
H	4.41833	3.17278	-0.994294
H	6.0488	3.66486	-0.373513
N	5.77633	0.987867	-0.14339
C	5.9869	-0.34466	0.363425
C	7.08651	-0.987643	-0.459185
O	7.45276	-0.486048	-1.52036
H	6.11628	1.15338	-1.06533
H	6.33575	-0.281016	1.38633
C	4.69618	-1.18954	0.277771
H	4.34073	-1.25219	-0.772868
H	4.85474	-2.21612	0.667341
H	3.8982	-0.707356	0.883468
N	7.65612	-2.10841	0.0260229
C	8.71865	-2.78351	-0.682101
H	7.35065	-2.49483	0.890086
H	9.05288	-3.68519	-0.123065
H	9.59466	-2.10776	-0.813242
H	8.37581	-3.10434	-1.6924
