44
  This energy is -2.5917 and Call times are: 12470
C	-1.12736	-0.330473	-3.2781
C	-1.31859	-0.463446	-1.81627
O	-2.40372	-0.77648	-1.34618
H	-2.08712	-0.547749	-3.79533
H	-0.358452	-1.04986	-3.63035
H	-0.809203	0.703057	-3.53016
N	-0.250498	-0.218232	-1.05377
C	-0.279845	-0.306693	0.384335
C	0.877049	0.510857	0.925117
O	1.77967	0.891118	0.181809
H	0.620346	0.0643428	-1.44711
H	-1.19666	0.141493	0.745791
C	-0.163172	-1.77196	0.86026
H	0.778164	-2.22886	0.487107
H	-0.18559	-1.84372	1.96711
H	-1.01568	-2.36048	0.456493
N	0.864908	0.819799	2.23676
C	1.9181	1.60427	2.83807
H	0.121947	0.508799	2.8203
H	1.72904	1.7493	3.92457
H	1.98469	2.60697	2.35702
H	2.90304	1.09766	2.71804
C	6.00353	-0.906667	3.3387
C	5.45578	-0.623694	1.99293
O	4.27875	-0.83174	1.73249
H	5.19605	-1.31276	3.98595
H	6.39573	0.026011	3.79598
H	6.82006	-1.65599	3.26992
N	6.31489	-0.140139	1.09267
C	5.93148	0.184264	-0.258106
C	7.18632	0.192844	-1.1093
O	8.29971	0.200437	-0.587625
H	7.27787	-0.00242386	1.3086
H	5.28261	-0.595366	-0.63656
C	5.23184	1.55997	-0.329246
H	5.90005	2.35734	0.0603891
H	4.93515	1.81282	-1.36791
H	4.31492	1.541	0.299272
N	7.03374	0.169697	-2.44802
C	8.17117	0.163922	-3.33819
H	6.12446	0.156554	-2.85086
H	7.83961	0.145778	-4.39979
H	8.80898	-0.730972	-3.15488
H	8.7973	1.07204	-3.18181
