44
  This energy is -3.3937 and Call times are: 2837
C	-1.31128	-3.13852	0.745903
C	-0.181923	-2.25163	0.386495
O	0.967678	-2.66921	0.363227
H	-0.922373	-4.1551	0.972111
H	-2.02749	-3.20772	-0.0997254
H	-1.83555	-2.74648	1.64279
N	-0.490778	-0.984912	0.0994404
C	0.49822	-0.00325109	-0.268055
C	-0.0912	1.37024	-0.0124335
O	-1.29601	1.50955	0.189704
H	-1.42776	-0.649628	0.150276
H	1.36159	-0.115644	0.375402
C	0.901913	-0.140142	-1.75312
H	0.0137186	-0.024979	-2.41036
H	1.66342	0.614131	-2.03941
H	1.3311	-1.15084	-1.92758
N	0.754046	2.41963	0.00603257
C	0.285246	3.76323	0.253311
H	1.72668	2.28541	-0.152692
H	1.13043	4.48585	0.226205
H	-0.202324	3.83151	1.25274
H	-0.460794	4.06711	-0.516275
C	5.3253	-3.41015	0.704554
C	5.70854	-2.01718	1.027
O	6.24078	-1.73808	2.09251
H	5.59341	-4.07152	1.55694
H	5.86549	-3.75548	-0.201957
H	4.23074	-3.47535	0.529515
N	5.43575	-1.09712	0.0988629
C	5.74892	0.299481	0.266954
C	4.86963	1.09151	-0.681095
O	4.25519	0.529741	-1.58592
H	4.97546	-1.33261	-0.752969
H	5.49624	0.597703	1.27655
C	7.23878	0.58151	-0.0295037
H	7.4947	0.273767	-1.0658
H	7.48338	1.65594	0.0991184
H	7.87228	-0.00539768	0.670755
N	4.77222	2.42049	-0.480268
C	3.94931	3.25408	-1.32533
H	5.27165	2.85538	0.261807
H	4.00235	4.31671	-1.00089
H	2.88504	2.92734	-1.28275
H	4.28685	3.19376	-2.38533
