44
  This energy is -1.0001 and Call times are: 24234
C	-1.28689	-2.97607	-1.27005
C	-0.357087	-2.22942	-0.393018
O	0.34893	-2.80975	0.420157
H	-1.21308	-4.06198	-1.04373
H	-1.02212	-2.81234	-2.33584
H	-2.33108	-2.64229	-1.0934
N	-0.341572	-0.902396	-0.538343
C	0.509649	-0.0405012	0.24229
C	-0.0814891	1.35537	0.205809
O	-0.95688	1.64624	-0.60716
H	-0.942642	-0.438951	-1.184
H	0.499882	-0.37505	1.27188
C	1.95151	-0.0215011	-0.312507
H	1.95775	0.321535	-1.36911
H	2.60966	0.641071	0.286334
H	2.37281	-1.04994	-0.281493
N	0.371286	2.24969	1.10647
C	-0.141388	3.59914	1.15484
H	1.07498	1.99296	1.76079
H	0.357249	4.18056	1.96141
H	-1.23796	3.59598	1.35171
H	0.0340186	4.1212	0.186414
C	6.22108	1.86277	-2.9237
C	6.99571	1.4205	-1.74237
O	8.17325	1.72371	-1.60838
H	6.87898	2.46015	-3.59166
H	5.36451	2.49343	-2.6053
H	5.84305	0.982517	-3.48512
N	6.34062	0.676081	-0.848457
C	6.95867	0.171513	0.351649
C	6.14001	-1.00922	0.836309
O	5.01716	-1.2238	0.383534
H	5.38947	0.411429	-0.983358
H	7.94966	-0.191944	0.111005
C	7.02627	1.25726	1.44878
H	6.00799	1.62836	1.69272
H	7.50175	0.872151	2.3742
H	7.62758	2.11709	1.08101
N	6.6963	-1.81911	1.7586
C	5.99655	-2.97444	2.2702
H	7.6089	-1.63268	2.10735
H	6.61874	-3.5108	3.02017
H	5.75286	-3.68308	1.44577
H	5.0421	-2.67153	2.75851
