44
  This energy is -0.1544 and Call times are: 7378
C	0.767129	-1.29449	-3.14037
C	0.0726141	-1.37059	-1.83536
O	-0.747683	-2.24855	-1.60561
H	0.409965	-2.11887	-3.79512
H	1.86323	-1.39864	-2.99705
H	0.549738	-0.32379	-3.63375
N	0.388048	-0.431753	-0.940112
C	-0.202833	-0.373892	0.373029
C	-0.0359133	1.03913	0.897191
O	0.733081	1.8263	0.3487
H	1.03638	0.295352	-1.14969
H	-1.26418	-0.570805	0.290279
C	0.466258	-1.38017	1.33576
H	1.5551	-1.17567	1.41778
H	0.0135837	-1.33836	2.34775
H	0.338021	-2.41122	0.939996
N	-0.773955	1.40098	1.96507
C	-0.690425	2.72923	2.52628
H	-1.39586	0.751741	2.39046
H	-1.37192	2.83075	3.39949
H	-0.975398	3.49456	1.76845
H	0.348168	2.94838	2.86462
C	7.77995	2.97866	1.71136
C	7.61359	2.10504	0.528013
O	6.86025	2.41357	-0.385106
H	7.13254	3.87547	1.59975
H	8.83696	3.30716	1.7988
H	7.48476	2.43478	2.63332
N	8.32178	0.973323	0.522159
C	8.26643	0.0222121	-0.559115
C	8.74318	-1.31555	-0.0277583
O	9.32292	-1.39182	1.05387
H	8.90985	0.719276	1.28542
H	7.23658	-0.0959915	-0.871377
C	9.14965	0.467753	-1.74593
H	10.2053	0.588695	-1.42189
H	9.10923	-0.262266	-2.58033
H	8.7909	1.44936	-2.12528
N	8.48869	-2.41016	-0.771438
C	8.89433	-3.72765	-0.340304
H	8.01196	-2.32858	-1.64052
H	8.59644	-4.49522	-1.0882
H	8.42014	-3.98541	0.63435
H	9.99971	-3.77553	-0.209835
