44
  This energy is -1.1188 and Call times are: 11482
C	-0.462771	-2.11113	2.73041
C	-0.35826	-1.87147	1.27341
O	-0.337099	-2.80173	0.479262
H	-0.505561	-3.20562	2.92045
H	-1.38557	-1.64063	3.13028
H	0.422369	-1.69009	3.25213
N	-0.283556	-0.596018	0.886093
C	-0.178396	-0.20392	-0.496668
C	0.397142	1.19824	-0.54087
O	0.449986	1.88836	0.475384
H	-0.272423	0.151745	1.54462
H	0.520465	-0.862269	-0.996911
C	-1.55547	-0.235265	-1.19652
H	-2.27014	0.44071	-0.680354
H	-1.47812	0.065962	-2.26144
H	-1.96685	-1.2674	-1.1563
N	0.864309	1.6452	-1.72323
C	1.44082	2.96257	-1.85867
H	0.819131	1.06895	-2.53263
H	1.76441	3.14431	-2.90724
H	2.32796	3.07343	-1.1939
H	0.700023	3.74642	-1.57941
C	4.88325	2.1385	-0.414968
C	6.33711	1.89056	-0.288444
O	7.1494	2.78863	-0.462038
H	4.71425	3.20458	-0.68101
H	4.37324	1.92313	0.547494
H	4.45336	1.49655	-1.21249
N	6.70158	0.642936	0.0164573
C	8.07833	0.247166	0.173778
C	8.15446	-1.25641	-0.00708318
O	7.13506	-1.94374	0.007858
H	6.0317	-0.0864753	0.12674
H	8.66749	0.703208	-0.611706
C	8.62201	0.643155	1.56472
H	8.01488	0.174124	2.36816
H	9.68192	0.340025	1.68916
H	8.5597	1.74667	1.68522
N	9.37092	-1.80139	-0.205095
C	9.53971	-3.22273	-0.398732
H	10.1831	-1.22748	-0.220975
H	10.6133	-3.47513	-0.543396
H	8.97488	-3.56691	-1.29525
H	9.16266	-3.78728	0.484607
