44
  This energy is -0.9983 and Call times are: 26904
C	-1.94807	0.0559965	2.88583
C	-0.6461	0.175922	2.19178
O	0.356028	0.547634	2.78682
H	-1.82583	0.35373	3.94992
H	-2.30788	-0.993635	2.84544
H	-2.69831	0.722173	2.41013
N	-0.635034	-0.13641	0.893827
C	0.555134	-0.0697457	0.0839603
C	0.126356	0.0273992	-1.36723
O	-1.03354	-0.212336	-1.69737
H	-1.46421	-0.409968	0.413654
H	1.09671	0.835298	0.32823
C	1.44756	-1.31368	0.292123
H	0.88862	-2.24038	0.0412564
H	2.36493	-1.26553	-0.329874
H	1.75393	-1.37411	1.35919
N	1.05373	0.405015	-2.26911
C	0.734341	0.536398	-3.67157
H	1.98522	0.601563	-1.98113
H	1.62926	0.854412	-4.25057
H	-0.0681945	1.29431	-3.82242
H	0.375343	-0.433636	-4.0855
C	4.58086	-2.28864	-2.14021
C	5.74056	-1.81609	-1.3509
O	6.74403	-2.50465	-1.22677
H	4.79949	-3.30101	-2.54413
H	4.38773	-1.59766	-2.9876
H	3.67759	-2.34569	-1.49694
N	5.62258	-0.612071	-0.786285
C	6.66541	-0.0169178	0.0106674
C	6.03212	1.04424	0.889377
O	4.88992	1.44285	0.669537
H	4.78863	-0.0732395	-0.870656
H	7.08688	-0.773428	0.660383
C	7.76158	0.613334	-0.8772
H	7.32561	1.3885	-1.54291
H	8.5662	1.07238	-0.266755
H	8.2168	-0.173947	-1.51681
N	6.75661	1.51255	1.92465
C	6.23163	2.51514	2.82209
H	7.67639	1.17218	2.09018
H	6.97792	2.77036	3.60642
H	5.30733	2.14781	3.32406
H	5.97569	3.44564	2.26546
