44
  This energy is -3.8493 and Call times are: 9150
C	-1.63863	3.00333	-0.648853
C	-1.50626	1.53581	-0.790444
O	-2.37888	0.871323	-1.33219
H	-2.60562	3.32914	-1.09004
H	-0.809921	3.51538	-1.18164
H	-1.61925	3.28773	0.424314
N	-0.394504	0.989864	-0.292127
C	-0.122418	-0.423983	-0.354033
C	0.900699	-0.748877	0.716907
O	1.5307	0.146443	1.27666
H	0.295533	1.53815	0.172815
H	-1.02876	-0.967352	-0.11874
C	0.414878	-0.833085	-1.74366
H	1.34432	-0.273272	-1.98211
H	0.625291	-1.92115	-1.79485
H	-0.343242	-0.588839	-2.51938
N	1.07418	-2.04484	1.04307
C	2.01766	-2.44846	2.0595
H	0.549652	-2.7541	0.583665
H	2.0158	-3.55413	2.18097
H	1.75945	-1.98768	3.04044
H	3.0493	-2.1272	1.78802
C	4.76607	0.109981	2.7877
C	5.54174	-0.635673	1.77107
O	5.67928	-1.84898	1.8449
H	4.38487	-0.600689	3.55288
H	3.90356	0.621773	2.31129
H	5.41253	0.862478	3.28648
N	6.07898	0.0884012	0.786462
C	6.85976	-0.493985	-0.275629
C	7.71545	0.602321	-0.879904
O	7.48917	1.78514	-0.631763
H	5.98423	1.0798	0.75338
H	7.52562	-1.23734	0.144051
C	5.95525	-1.12061	-1.3602
H	5.273	-0.355404	-1.78812
H	6.55322	-1.57009	-2.17945
H	5.33274	-1.9213	-0.904643
N	8.73811	0.230527	-1.67485
C	9.61362	1.204	-2.28478
H	8.90928	-0.732005	-1.85779
H	10.3902	0.7018	-2.9028
H	10.1259	1.81411	-1.50598
H	9.03647	1.89536	-2.94061
