44
  This energy is -0.5012 and Call times are: 6068
C	2.27781	-1.59719	-2.09444
C	1.1663	-1.62598	-1.11724
O	0.590313	-2.6703	-0.844987
H	2.44799	-2.62307	-2.48747
H	3.20852	-1.24099	-1.60483
H	2.02557	-0.925043	-2.94152
N	0.832502	-0.457605	-0.564218
C	-0.227302	-0.325208	0.403312
C	-0.669235	1.12524	0.414713
O	0.0139249	1.99476	-0.122933
H	1.29009	0.39101	-0.816018
H	-1.07132	-0.923742	0.0847882
C	0.241968	-0.748706	1.81312
H	1.10835	-0.133115	2.13646
H	-0.571676	-0.648142	2.56054
H	0.564127	-1.8126	1.79111
N	-1.84092	1.41702	1.01306
C	-2.34809	2.7685	1.06268
H	-2.38274	0.69829	1.43625
H	-3.32253	2.80344	1.59793
H	-2.49856	3.16967	0.0342481
H	-1.63246	3.43767	1.59302
C	9.13246	1.24342	2.78377
C	8.09815	1.35528	1.73073
O	7.28233	2.26679	1.73969
H	9.01032	2.07741	3.50862
H	10.1454	1.30445	2.33312
H	9.02607	0.27919	3.32404
N	8.10712	0.410082	0.787924
C	7.16436	0.384	-0.301727
C	7.11794	-1.03133	-0.843879
O	7.97921	-1.85202	-0.533216
H	8.75857	-0.343682	0.807859
H	6.17952	0.622756	0.0792851
C	7.57082	1.36856	-1.4209
H	8.58189	1.12112	-1.80901
H	6.84696	1.35113	-2.26143
H	7.60232	2.40147	-1.01072
N	6.09202	-1.35676	-1.65479
C	5.95859	-2.68382	-2.20913
H	5.40119	-0.680532	-1.88868
H	5.0528	-2.7526	-2.85106
H	5.87117	-3.44176	-1.39727
H	6.84783	-2.94232	-2.8285
