44
  This energy is -1.6802 and Call times are: 28627
C	0.0241485	-1.421	3.17904
C	-0.158004	-1.51427	1.71298
O	-0.328008	-2.59426	1.16414
H	-0.0163855	-2.44078	3.6198
H	-0.783221	-0.803847	3.62637
H	1.00966	-0.966707	3.41427
N	-0.119749	-0.364054	1.0363
C	-0.281236	-0.292885	-0.39397
C	0.320516	1.01636	-0.866204
O	0.599496	1.90549	-0.064044
H	0.0485096	0.506269	1.49146
H	0.28042	-1.09718	-0.851932
C	-1.77104	-0.368555	-0.796287
H	-2.34438	0.457597	-0.324194
H	-1.89899	-0.314184	-1.89695
H	-2.20044	-1.33158	-0.44364
N	0.555534	1.15636	-2.18574
C	1.13707	2.36314	-2.72582
H	0.32942	0.422581	-2.81793
H	1.24947	2.28559	-3.82972
H	2.14283	2.5468	-2.28317
H	0.494209	3.24452	-2.49981
C	5.10081	-2.49603	2.39512
C	5.02721	-2.00728	0.999801
O	4.77544	-2.76809	0.0755288
H	4.90484	-3.59019	2.41183
H	4.3387	-1.98489	3.02022
H	6.11099	-2.30539	2.81479
N	5.25527	-0.704917	0.814864
C	5.21868	-0.0817014	-0.484017
C	6.00683	1.21115	-0.402825
O	6.32357	1.68694	0.685813
H	5.48807	-0.10099	1.5725
H	5.71634	-0.726067	-1.1976
C	3.76751	0.207768	-0.92834
H	3.25973	0.868515	-0.193702
H	3.73567	0.687509	-1.92815
H	3.20045	-0.747023	-0.982782
N	6.36192	1.80059	-1.56148
C	7.1234	3.02773	-1.58268
H	6.10221	1.39619	-2.43225
H	7.31412	3.35416	-2.62877
H	8.10501	2.88981	-1.07409
H	6.5731	3.84094	-1.05633
