44
  This energy is -4.474 and Call times are: 28669
C	0.147443	1.58059	-3.09937
C	0.210956	1.6066	-1.62069
O	0.543435	2.61881	-1.01955
H	0.444061	2.57535	-3.49728
H	-0.88664	1.35353	-3.43394
H	0.842065	0.81198	-3.49897
N	-0.106652	0.47167	-0.993456
C	-0.0922062	0.341322	0.441684
C	0.0168157	-1.13402	0.774436
O	-0.176267	-1.98886	-0.0880026
H	-0.34773	-0.354652	-1.49546
H	0.79073	0.832387	0.830723
C	-1.37099	0.935318	1.07335
H	-2.27487	0.42971	0.671513
H	-1.36308	0.836757	2.17833
H	-1.4398	2.01601	0.821302
N	0.352403	-1.46706	2.03637
C	0.491322	-2.84621	2.44237
H	0.511571	-0.760511	2.71804
H	0.76996	-2.91359	3.51711
H	1.28102	-3.35455	1.84303
H	-0.464729	-3.39823	2.29265
C	8.69969	0.875017	1.43523
C	7.24889	1.08644	1.23106
O	6.63337	1.91972	1.88166
H	9.06277	1.56241	2.22992
H	9.25307	1.08709	0.496283
H	8.89348	-0.172127	1.74968
N	6.66144	0.318307	0.310606
C	5.25725	0.407226	-0.00112124
C	4.84242	-0.895018	-0.65787
O	5.68686	-1.68991	-1.0664
H	7.16787	-0.377139	-0.192205
H	4.69762	0.503658	0.92061
C	4.96469	1.595	-0.944905
H	5.54093	1.4932	-1.8892
H	3.88436	1.66648	-1.18686
H	5.27408	2.54274	-0.452757
N	3.52347	-1.15377	-0.754941
C	3.03487	-2.3737	-1.35429
H	2.8559	-0.501148	-0.411927
H	1.92294	-2.39997	-1.34202
H	3.41259	-3.26282	-0.799267
H	3.37598	-2.45622	-2.41165
