44
  This energy is -1.687 and Call times are: 33125
C	0.482551	-2.15653	2.69122
C	0.387728	-0.796956	2.11349
O	0.396104	0.195953	2.82802
H	0.548391	-2.08134	3.79841
H	1.39014	-2.67116	2.3114
H	-0.417362	-2.74964	2.42414
N	0.287895	-0.723127	0.784223
C	0.188164	0.52809	0.0761721
C	-0.418808	0.246338	-1.2845
O	-0.497981	-0.903987	-1.71149
H	0.252817	-1.54041	0.215228
H	-0.490219	1.18141	0.61007
C	1.57279	1.19382	-0.0872956
H	2.26641	0.520598	-0.634827
H	1.49963	2.15755	-0.631944
H	2.00724	1.39394	0.916374
N	-0.883768	1.29551	-1.99094
C	-1.48882	1.12255	-3.29101
H	-0.817013	2.21797	-1.6251
H	-1.80558	2.10266	-3.71087
H	-2.38513	0.464355	-3.22278
H	-0.769095	0.653322	-4.00024
C	6.29853	2.97616	-1.80727
C	6.38009	2.2248	-0.53448
O	6.68238	2.78292	0.511279
H	6.55275	4.0423	-1.62134
H	5.26938	2.91887	-2.22007
H	7.01607	2.55893	-2.54483
N	6.11306	0.91831	-0.598963
C	6.15085	0.0549426	0.554291
C	6.319	-1.37009	0.0641507
O	6.14677	-1.65191	-1.12023
H	5.89646	0.469764	-1.462
H	7.01984	0.302348	1.15072
C	4.8591	0.179443	1.39273
H	3.96955	-0.0744217	0.7776
H	4.88492	-0.483901	2.2816
H	4.74686	1.22806	1.74478
N	6.683	-2.30259	0.966347
C	6.87838	-3.68311	0.589295
H	6.82453	-2.05333	1.91875
H	7.17317	-4.29366	1.4711
H	7.67867	-3.77054	-0.180865
H	5.9417	-4.11075	0.163955
