44
  This energy is -3.7817 and Call times are: 22434
C	-0.000725442	-2.55322	-2.36795
C	0.178247	-1.13515	-1.98292
O	0.614518	-0.314077	-2.7779
H	0.321649	-2.69085	-3.42293
H	-1.06902	-2.84215	-2.27805
H	0.615037	-3.2077	-1.71568
N	-0.155458	-0.814008	-0.730771
C	-0.0377858	0.524279	-0.209264
C	0.010576	0.432239	1.30349
O	-0.297982	-0.608995	1.88008
H	-0.482279	-1.49782	-0.0838401
H	0.899646	0.950798	-0.542996
C	-1.2272	1.40636	-0.650093
H	-2.18732	0.965523	-0.306648
H	-1.13969	2.43756	-0.250399
H	-1.25227	1.46483	-1.76009
N	0.422706	1.52049	1.9831
C	0.512082	1.52208	3.42469
H	0.674913	2.35129	1.49792
H	0.868528	2.50833	3.7955
H	1.22219	0.738395	3.77516
H	-0.483178	1.31489	3.88044
C	8.99617	0.657458	3.28613
C	8.66966	-0.280546	2.18852
O	8.82737	-1.48659	2.31921
H	9.38128	0.0838714	4.15708
H	8.08722	1.21462	3.59631
H	9.77545	1.37639	2.95627
N	8.20494	0.26402	1.06164
C	7.84336	-0.518337	-0.0933458
C	7.86941	0.396369	-1.30242
O	7.91386	1.61753	-1.16595
H	8.10843	1.25029	0.957314
H	8.59072	-1.28661	-0.245939
C	6.44047	-1.14509	0.0685439
H	5.67633	-0.354176	0.225571
H	6.15896	-1.74831	-0.818958
H	6.43423	-1.81191	0.958184
N	7.86425	-0.178381	-2.52129
C	7.89942	0.612113	-3.72962
H	7.83527	-1.16852	-2.6108
H	7.88692	-0.0428881	-4.62855
H	8.82139	1.23664	-3.76384
H	7.01909	1.29307	-3.77961
