44
  This energy is -1.6903 and Call times are: 10643
C	2.10715	2.71769	0.547925
C	1.81864	1.39375	-0.0480316
O	2.59288	0.874293	-0.84
H	3.07492	3.09553	0.15229
H	2.17927	2.63245	1.65262
H	1.30506	3.43903	0.284731
N	0.674936	0.813197	0.322453
C	0.256345	-0.474496	-0.170961
C	-1.24423	-0.580986	0.0191982
O	-1.84494	0.215858	0.737546
H	0.0386799	1.25965	0.945988
H	0.457801	-0.526666	-1.2334
C	0.96952	-1.62265	0.577532
H	0.761244	-1.5657	1.66725
H	0.649634	-2.61558	0.199994
H	2.06801	-1.53266	0.431379
N	-1.89011	-1.56152	-0.642168
C	-3.32002	-1.73273	-0.53156
H	-1.38721	-2.19193	-1.22432
H	-3.66191	-2.5931	-1.1481
H	-3.85325	-0.818457	-0.879421
H	-3.6126	-1.92143	0.526726
C	6.86893	-1.44252	3.11571
C	6.75449	-1.44202	1.63986
O	6.30847	-2.41018	1.03968
H	6.50556	-2.41557	3.51193
H	6.25268	-0.626044	3.54748
H	7.92855	-1.30467	3.4176
N	7.16783	-0.337901	1.01341
C	7.11914	-0.187273	-0.418988
C	8.10472	0.897725	-0.80713
O	8.58387	1.64524	0.0434381
H	7.55633	0.432783	1.51145
H	7.44673	-1.10987	-0.88114
C	5.699	0.189251	-0.89705
H	5.36584	1.13582	-0.420479
H	5.65792	0.30587	-1.99954
H	4.98637	-0.612849	-0.605615
N	8.44805	0.994567	-2.10665
C	9.38833	1.9893	-2.56768
H	8.05478	0.375709	-2.77866
H	9.53819	1.90916	-3.66694
H	10.3758	1.85756	-2.06884
H	9.01955	3.01514	-2.33787
