44
  This energy is -0.402 and Call times are: 31651
C	-2.31616	-1.17162	2.32139
C	-1.93415	-0.787917	0.94369
O	-2.68744	-0.985218	0.000228426
H	-3.32663	-1.63488	2.3068
H	-2.34152	-0.274592	2.97524
H	-1.59004	-1.90581	2.72962
N	-0.731685	-0.226948	0.7962
C	-0.219726	0.199917	-0.481498
C	1.29019	0.287077	-0.372872
O	1.84386	0.263314	0.724724
H	-0.115317	-0.098147	1.56849
H	-0.453213	-0.553084	-1.22349
C	-0.802867	1.57062	-0.891658
H	-0.562045	2.34059	-0.127938
H	-0.410868	1.90223	-1.8751
H	-1.90949	1.49376	-0.96662
N	1.99562	0.368609	-1.51817
C	3.43803	0.443494	-1.51349
H	1.52957	0.379259	-2.39676
H	3.83191	0.506475	-2.55183
H	3.87663	-0.457359	-1.02632
H	3.78317	1.34195	-0.952388
C	5.67867	-1.82094	0.922168
C	6.61007	-0.684395	1.10094
O	6.37348	0.206897	1.90476
H	4.80841	-1.69305	1.60198
H	6.189	-2.77602	1.16753
H	5.31387	-1.85577	-0.126
N	7.70518	-0.689388	0.337345
C	8.70445	0.347293	0.397082
C	9.48685	0.315623	-0.901413
O	9.39726	-0.643088	-1.66606
H	7.87219	-1.40608	-0.33452
H	8.21071	1.3087	0.460256
C	9.65678	0.142166	1.59629
H	10.1611	-0.845359	1.52865
H	10.4274	0.938748	1.64537
H	9.07137	0.166244	2.54121
N	10.2601	1.38051	-1.19143
C	11.0317	1.44435	-2.41072
H	10.3137	2.14968	-0.563154
H	11.6026	2.39747	-2.46539
H	10.365	1.38355	-3.30125
H	11.7553	0.598776	-2.46272
