44
  This energy is -2.4962 and Call times are: 4339
C	-0.599798	0.38756	-3.40825
C	-1.07003	0.22077	-2.0146
O	-2.25726	0.307998	-1.73289
H	-1.47073	0.594356	-4.06747
H	-0.0979128	-0.539717	-3.75623
H	0.110379	1.23864	-3.47343
N	-0.131078	-0.0212019	-1.09689
C	-0.432825	-0.206736	0.300017
C	0.833215	0.0624569	1.0899
O	1.92384	0.128551	0.525994
H	0.835832	-0.0610305	-1.33445
H	-1.17046	0.526308	0.601036
C	-0.93963	-1.63905	0.580603
H	-0.180735	-2.38853	0.269989
H	-1.17306	-1.78531	1.65527
H	-1.86661	-1.82417	-0.00471425
N	0.713227	0.246577	2.41945
C	1.86202	0.519945	3.25115
H	-0.178986	0.196281	2.8561
H	1.55831	0.638484	4.31461
H	2.36918	1.45678	2.92499
H	2.60005	-0.31221	3.18786
C	3.46295	-1.92863	-2.42648
C	4.24528	-1.79425	-1.17704
O	4.48648	-2.76598	-0.474149
H	3.16987	-2.99217	-2.56372
H	4.07403	-1.60912	-3.29672
H	2.54455	-1.30692	-2.37189
N	4.65998	-0.563819	-0.866483
C	5.43086	-0.274025	0.316133
C	5.27652	1.20297	0.622561
O	4.80281	1.9719	-0.21181
H	4.43218	0.224244	-1.43217
H	5.01798	-0.827815	1.14975
C	6.92268	-0.62168	0.11433
H	7.34287	-0.0523076	-0.742042
H	7.51914	-0.399911	1.02308
H	7.02213	-1.70596	-0.110617
N	5.65542	1.63113	1.84285
C	5.53442	3.01784	2.22833
H	6.02982	0.992098	2.5067
H	5.89996	3.1704	3.26773
H	4.47156	3.34813	2.17858
H	6.13032	3.66837	1.54797
