44
  This energy is -2.4384 and Call times are: 20069
C	1.35677	-1.33713	2.91503
C	1.16953	-1.33855	1.44665
O	1.80304	-2.10016	0.728941
H	2.12305	-2.09475	3.18831
H	0.402651	-1.5918	3.4226
H	1.70138	-0.338195	3.25609
N	0.283791	-0.465666	0.960947
C	-0.00777266	-0.348637	-0.44551
C	-0.615688	1.02004	-0.68299
O	-1.01224	1.70374	0.25889
H	-0.204667	0.16961	1.5532
H	0.919369	-0.397872	-1.00234
C	-0.984206	-1.45172	-0.911236
H	-1.934	-1.39871	-0.337477
H	-1.21074	-1.36465	-1.99377
H	-0.527729	-2.44933	-0.730829
N	-0.682993	1.4621	-1.95423
C	-1.23498	2.75757	-2.27553
H	-0.35024	0.89695	-2.70197
H	-1.20382	2.93714	-3.37282
H	-0.657998	3.56646	-1.7715
H	-2.29456	2.8279	-1.9386
C	4.63053	-1.03475	-0.604951
C	5.61953	-4.20416e-05	-0.227524
O	5.28852	1.16883	-0.0837544
H	3.63122	-0.5621	-0.722626
H	4.56953	-1.81209	0.185521
H	4.91976	-1.50806	-1.56686
N	6.87775	-0.414656	-0.0621355
C	7.9515	0.473539	0.30528
C	9.25759	-0.182383	-0.0986234
O	9.29519	-1.37299	-0.403377
H	7.14026	-1.36438	-0.210614
H	7.85663	1.39256	-0.259048
C	7.94878	0.761569	1.82322
H	8.04558	-0.183464	2.39912
H	8.7742	1.44529	2.10955
H	6.9864	1.24084	2.10653
N	10.3612	0.59021	-0.131158
C	11.6469	0.0555226	-0.515166
H	10.3089	1.55319	0.112084
H	12.4286	0.84592	-0.477617
H	11.6094	-0.351421	-1.55162
H	11.9496	-0.769904	0.169105
