44
  This energy is 0.1438 and Call times are: 16803
C	1.10879	-0.664034	3.23354
C	1.34773	-0.51684	1.78012
O	2.48019	-0.550209	1.31869
H	2.08249	-0.790379	3.75489
H	0.47801	-1.55662	3.42908
H	0.602541	0.240407	3.63185
N	0.266899	-0.341949	1.01619
C	0.338149	-0.184207	-0.4145
C	-0.93862	0.493415	-0.872677
O	-1.90894	0.579077	-0.122367
H	-0.64795	-0.287414	1.40736
H	1.16405	0.473036	-0.655329
C	0.499947	-1.54747	-1.12335
H	-0.348673	-2.21945	-0.873554
H	0.555291	-1.42966	-2.22509
H	1.43815	-2.03416	-0.778301
N	-0.959223	1.01267	-2.11604
C	-2.1269	1.68662	-2.6342
H	-0.161416	0.939409	-2.70542
H	-1.94775	2.04091	-3.67326
H	-2.3844	2.5678	-2.00296
H	-3.00469	1.00063	-2.64402
C	4.38547	-1.73727	0.783273
C	5.57899	-0.954064	1.17481
O	5.73991	-0.580541	2.32854
H	3.73625	-1.88699	1.6732
H	4.69115	-2.72977	0.390423
H	3.80911	-1.19366	0.00529364
N	6.45295	-0.679591	0.203614
C	7.66146	0.072361	0.429179
C	8.1193	0.62957	-0.904667
O	7.64153	0.21179	-1.95777
H	6.29613	-0.964519	-0.738278
H	7.4385	0.910762	1.07683
C	8.76864	-0.813221	1.04321
H	8.99439	-1.6727	0.376534
H	9.70055	-0.237329	1.21834
H	8.4205	-1.21618	2.01921
N	9.04628	1.60755	-0.888548
C	9.53373	2.20683	-2.10897
H	9.41545	1.93702	-0.0257648
H	10.2921	2.98974	-1.88704
H	8.69863	2.67848	-2.67589
H	10.0046	1.43809	-2.7636
