44
  This energy is -4.3113 and Call times are: 6501
C	0.780681	2.67975	2.08221
C	0.163849	2.11826	0.859324
O	-0.523846	2.81134	0.122296
H	0.503279	3.75234	2.17423
H	1.88653	2.59823	2.02493
H	0.416225	2.13603	2.97914
N	0.396331	0.826021	0.617587
C	-0.134868	0.13795	-0.531853
C	-0.128432	-1.34791	-0.229504
O	0.505301	-1.79224	0.725894
H	0.934234	0.264851	1.24103
H	-1.16437	0.439487	-0.677734
C	0.703576	0.426273	-1.79716
H	1.75929	0.116338	-1.64378
H	0.297232	-0.101873	-2.68413
H	0.691879	1.51802	-2.00718
N	-0.856344	-2.15176	-1.02949
C	-0.919757	-3.57815	-0.811385
H	-1.36807	-1.77217	-1.79322
H	-1.56699	-4.06423	-1.57432
H	-1.33688	-3.80326	0.196869
H	0.096298	-4.03085	-0.873609
C	5.39927	3.08683	1.57341
C	5.638	1.62766	1.50242
O	6.38029	1.06871	2.29808
H	5.98683	3.51463	2.41461
H	4.32174	3.29016	1.74775
H	5.71868	3.57349	0.627845
N	5.0069	0.9703	0.526747
C	5.13878	-0.45117	0.329623
C	4.7457	-0.761509	-1.10161
O	4.15906	0.0734892	-1.78751
H	4.42771	1.44158	-0.133086
H	6.17798	-0.728568	0.452858
C	4.2425	-1.24052	1.30979
H	3.17719	-0.952994	1.18111
H	4.34172	-2.33539	1.16085
H	4.5397	-1.00358	2.35463
N	5.08167	-1.97006	-1.59408
C	4.75942	-2.34973	-2.94988
H	5.56255	-2.62936	-1.02548
H	5.11695	-3.3808	-3.16505
H	5.23769	-1.65407	-3.6769
H	3.65816	-2.31867	-3.11557
