44
  This energy is -2.2012 and Call times are: 34381
C	1.32099	-1.0362	3.0508
C	0.714682	-0.00618633	2.1775
O	0.376483	1.08168	2.62321
H	1.38605	-0.645148	4.08941
H	2.34317	-1.28521	2.69591
H	0.696219	-1.95414	3.05086
N	0.556707	-0.33567	0.893423
C	-0.0178963	0.560022	-0.0783764
C	-0.516677	-0.273565	-1.24267
O	-0.177939	-1.44923	-1.36471
H	0.809452	-1.23572	0.548519
H	-0.87393	1.05509	0.362289
C	1.01806	1.59492	-0.571219
H	1.8952	1.08359	-1.02209
H	0.578901	2.28628	-1.3195
H	1.37649	2.19826	0.291135
N	-1.35597	0.314149	-2.11799
C	-1.89138	-0.404696	-3.25059
H	-1.6239	1.26444	-1.998
H	-2.55932	0.250464	-3.85215
H	-2.4792	-1.28872	-2.91265
H	-1.06988	-0.767806	-3.90974
C	5.06393	2.78089	-1.89938
C	4.94698	1.94375	-0.684176
O	4.28735	2.31335	0.277478
H	4.48746	3.72042	-1.75502
H	4.6543	2.23935	-2.77788
H	6.12793	3.03727	-2.08674
N	5.60142	0.780215	-0.700398
C	5.58325	-0.142291	0.406616
C	6.79101	-1.04986	0.276656
O	7.43295	-1.09579	-0.771025
H	6.15913	0.503561	-1.47844
H	5.68741	0.413705	1.32971
C	4.28641	-0.982054	0.417797
H	4.18241	-1.55061	-0.530907
H	4.26907	-1.69333	1.26901
H	3.40912	-0.305602	0.512209
N	7.14238	-1.78076	1.35291
C	8.28496	-2.66392	1.32624
H	6.61438	-1.72431	2.1939
H	8.40803	-3.17738	2.30525
H	9.21732	-2.09369	1.10991
H	8.16364	-3.43986	0.536073
