44
  This energy is 0.2274 and Call times are: 16708
C	2.16043	2.63952	0.701142
C	1.8768	1.1945	0.550547
O	2.77444	0.364986	0.601891
H	3.25261	2.7861	0.847811
H	1.62177	3.04522	1.58323
H	1.84325	3.18895	-0.210155
N	0.600096	0.858314	0.352115
C	0.167646	-0.506569	0.18807
C	-1.17575	-0.488364	-0.514913
O	-1.81924	0.554674	-0.614076
H	-0.118079	1.54563	0.283163
H	0.868666	-1.02285	-0.455434
C	0.0447598	-1.22527	1.55023
H	-0.674664	-0.692596	2.20811
H	-0.287885	-2.2765	1.42758
H	1.03507	-1.23082	2.05561
N	-1.62167	-1.64609	-1.04107
C	-2.88406	-1.72234	-1.73873
H	-1.08299	-2.4779	-0.956559
H	-3.07436	-2.75864	-2.09525
H	-2.88705	-1.04207	-2.62104
H	-3.72216	-1.4225	-1.06875
C	5.90657	-1.74659	2.44745
C	5.7958	-1.16264	1.09174
O	6.75579	-1.13637	0.33396
H	6.94522	-2.1092	2.60742
H	5.20689	-2.60213	2.55383
H	5.67146	-0.979525	3.2151
N	4.60232	-0.668307	0.754702
C	4.33893	-0.0684101	-0.528878
C	3.11737	0.818625	-0.38674
O	2.39284	0.736747	0.603302
H	3.83593	-0.669357	1.39155
H	5.17486	0.563908	-0.799933
C	4.09246	-1.14248	-1.61181
H	3.23466	-1.78978	-1.33021
H	3.88948	-0.684008	-2.60145
H	4.99402	-1.78635	-1.70541
N	2.87247	1.70742	-1.36963
C	1.73944	2.60151	-1.31482
H	3.4746	1.76328	-2.15929
H	1.70909	3.25353	-2.21549
H	1.79605	3.25261	-0.412546
H	0.78668	2.02613	-1.26614
