44
  This energy is -3.4291 and Call times are: 6195
C	-0.046825	-1.11979	3.29697
C	-0.718113	-0.556159	2.10412
O	-1.93213	-0.409135	2.07183
H	-0.81003	-1.35983	4.06883
H	0.669466	-0.382645	3.71693
H	0.496192	-2.04995	3.02699
N	0.0714854	-0.228721	1.0786
C	-0.434016	0.330683	-0.149554
C	0.601259	0.0914694	-1.23132
O	1.74387	-0.258272	-0.941583
H	1.05595	-0.380411	1.10605
H	-1.33453	-0.19917	-0.43312
C	-0.712434	1.84361	-0.00587859
H	0.213336	2.384	0.285744
H	-1.10193	2.27753	-0.949696
H	-1.4714	2.00555	0.790297
N	0.216001	0.254682	-2.51231
C	1.12972	0.0376577	-3.60968
H	-0.715055	0.531167	-2.72661
H	0.625902	0.22418	-4.58365
H	1.50699	-1.01062	-3.60533
H	2.00657	0.720493	-3.53197
C	3.73613	-3.07087	0.743613
C	4.73067	-2.24309	0.0246836
O	5.61333	-2.75709	-0.648528
H	3.952	-4.14594	0.560604
H	2.71274	-2.84262	0.378406
H	3.7913	-2.87393	1.835
N	4.60987	-0.920371	0.159591
C	5.50115	0.0150536	-0.478718
C	5.41653	1.32793	0.275228
O	4.509	1.53395	1.07883
H	3.90423	-0.514594	0.734345
H	6.51651	-0.350091	-0.390472
C	5.12421	0.228815	-1.96173
H	4.08175	0.602785	-2.04861
H	5.80857	0.948418	-2.45631
H	5.18895	-0.740359	-2.50271
N	6.37954	2.24269	0.047582
C	6.38783	3.51653	0.728339
H	7.1095	2.05432	-0.601198
H	7.25787	4.12952	0.405045
H	6.45129	3.37219	1.83124
H	5.45615	4.08617	0.507734
