44
  This energy is -4.0096 and Call times are: 8243
C	-0.643475	1.04652	-3.25835
C	-0.336729	1.32732	-1.8377
O	-0.0814128	2.46184	-1.45799
H	-0.588577	1.9924	-3.83986
H	-1.66651	0.625466	-3.35286
H	0.0922666	0.326039	-3.67374
N	-0.349931	0.279938	-1.00994
C	-0.0720813	0.394042	0.399527
C	0.33634	-0.975504	0.906256
O	0.146083	-1.98061	0.224062
H	-0.530784	-0.643889	-1.3367
H	0.769226	1.0609	0.539454
C	-1.30699	0.901642	1.177
H	-2.16837	0.215548	1.03069
H	-1.09648	0.990808	2.26259
H	-1.59682	1.90499	0.795626
N	0.930791	-1.04355	2.11373
C	1.36454	-2.30283	2.67253
H	1.08238	-0.218053	2.6474
H	1.82774	-2.15068	3.67231
H	2.11549	-2.78934	2.00874
H	0.502757	-2.99943	2.78763
C	4.7684	-2.65998	-2.22965
C	4.91208	-1.21591	-1.93775
O	5.11535	-0.406863	-2.83252
H	4.88153	-2.82673	-3.32293
H	3.76534	-3.0162	-1.91372
H	5.55104	-3.23838	-1.69499
N	4.81349	-0.857426	-0.655506
C	4.93087	0.509641	-0.21485
C	5.28945	0.495119	1.25839
O	5.18383	-0.535285	1.92092
H	4.67682	-1.52947	0.0674094
H	5.74654	0.98215	-0.747283
C	3.61313	1.28615	-0.433264
H	2.77835	0.798302	0.113791
H	3.70005	2.3392	-0.0951765
H	3.36088	1.28848	-1.51609
N	5.74533	1.64079	1.8021
C	6.12248	1.71888	3.19416
H	5.83043	2.46213	1.24767
H	6.46967	2.74404	3.4506
H	6.94644	1.0034	3.4187
H	5.25809	1.46696	3.85032
