44
  This energy is 0.1078 and Call times are: 8110
C	-1.47052	-1.24193	-2.90195
C	-1.2551	-0.164022	-1.91053
O	-1.70235	0.960179	-2.09119
H	-2.05872	-0.842665	-3.75662
H	-2.03257	-2.08038	-2.43943
H	-0.49536	-1.615	-3.27987
N	-0.547664	-0.488682	-0.825867
C	-0.25522	0.451138	0.226769
C	0.947726	-0.0655599	0.991741
O	1.33743	-1.22229	0.843604
H	-0.163896	-1.40018	-0.704086
H	0.0190999	1.40053	-0.215366
C	-1.45892	0.619935	1.18057
H	-1.73808	-0.35604	1.63185
H	-1.23721	1.34303	1.9922
H	-2.33383	0.997752	0.607911
N	1.58	0.792642	1.81619
C	2.74142	0.393265	2.57632
H	1.25357	1.72673	1.91698
H	3.11577	1.23812	3.19545
H	3.56182	0.0659028	1.89734
H	2.49468	-0.455821	3.25407
C	8.51594	-1.444	-0.972157
C	7.55581	-0.317394	-0.961891
O	7.84891	0.767913	-1.44427
H	9.46141	-1.11639	-1.45654
H	8.09678	-2.29868	-1.54368
H	8.73766	-1.76756	0.0666367
N	6.36982	-0.554136	-0.39641
C	5.33202	0.442066	-0.31056
C	4.38488	0.0335786	0.800882
O	4.42348	-1.10042	1.27458
H	6.15368	-1.43368	0.0190711
H	5.77595	1.3896	-0.0327677
C	4.5626	0.569167	-1.64433
H	4.10903	-0.404845	-1.92664
H	3.76285	1.3355	-1.58178
H	5.26766	0.867655	-2.45052
N	3.52206	0.961599	1.25949
C	2.59094	0.667239	2.3237
H	3.51114	1.87585	0.86802
H	1.96624	1.55748	2.55708
H	3.13401	0.36779	3.24925
H	1.91478	-0.169508	2.03414
