44
  This energy is 0.1213 and Call times are: 23390
C	-0.308509	3.04137	1.66765
C	-0.882211	1.91629	0.895462
O	-2.08928	1.81815	0.722678
H	-1.13058	3.70032	2.02238
H	0.376811	3.63508	1.02682
H	0.249014	2.65688	2.54758
N	-0.0136756	1.02527	0.411619
C	-0.419374	-0.12267	-0.359395
C	0.695529	-1.14807	-0.290193
O	1.81037	-0.837433	0.125109
H	0.964887	1.10051	0.583929
H	-1.29787	-0.560615	0.0972401
C	-0.700277	0.258273	-1.83014
H	0.202835	0.707857	-2.29531
H	-1.01305	-0.623288	-2.42663
H	-1.51793	1.01075	-1.86711
N	0.411762	-2.40713	-0.677796
C	1.4068	-3.45321	-0.635371
H	-0.498398	-2.64031	-1.00409
H	0.981115	-4.41569	-0.995465
H	1.77717	-3.60118	0.404904
H	2.27849	-3.19285	-1.27844
C	0.785114	-0.889847	-0.108832
C	2.04959	-0.496833	-0.770537
O	2.1548	-0.504876	-1.98929
H	0.0374597	-1.17007	-0.882361
H	0.385509	-0.0422753	0.486784
H	0.956539	-1.76124	0.557682
N	3.05505	-0.144067	0.0337979
C	4.34589	0.263031	-0.461007
C	5.35237	0.0816976	0.658529
O	4.97923	-0.102299	1.81557
H	2.96604	-0.169594	1.02595
H	4.63462	-0.393037	-1.27236
C	4.33039	1.73568	-0.928106
H	4.03314	2.40588	-0.0934818
H	5.32274	2.05238	-1.30985
H	3.58842	1.85554	-1.74741
N	6.66	0.108019	0.333857
C	7.68988	-0.067569	1.3312
H	6.94171	0.251017	-0.609235
H	8.69957	-0.0120583	0.867839
H	7.58774	-1.05788	1.8313
H	7.61884	0.722967	2.11298
