44
  This energy is -2.2414 and Call times are: 6321
C	1.76	-2.68936	1.3401
C	0.671944	-2.13198	0.505439
O	-0.0192842	-2.85539	-0.198386
H	1.80752	-3.79042	1.19425
H	1.56653	-2.47698	2.41262
H	2.73423	-2.24542	1.04558
N	0.498425	-0.809506	0.563094
C	-0.518706	-0.121029	-0.190745
C	-0.110682	1.33512	-0.302066
O	0.78506	1.79275	0.405074
H	1.08693	-0.22754	1.11799
H	-0.552263	-0.530725	-1.19229
C	-1.89955	-0.235065	0.492907
H	-1.86134	0.185553	1.5204
H	-2.68509	0.29383	-0.0849922
H	-2.18645	-1.3065	0.569497
N	-0.748277	2.09497	-1.21426
C	-0.418931	3.48902	-1.39952
H	-1.46546	1.70435	-1.78198
H	-1.05381	3.94097	-2.1932
H	0.648623	3.60438	-1.69661
H	-0.578247	4.05932	-0.455829
C	6.3405	-2.8824	-1.94268
C	5.93029	-2.06422	-0.779279
O	4.99704	-2.40356	-0.0648684
H	5.67851	-3.77236	-2.01753
H	7.38962	-3.2243	-1.81908
H	6.25292	-2.28968	-2.87754
N	6.628	-0.946356	-0.564915
C	6.34857	-0.0477475	0.526528
C	6.93648	1.30577	0.177842
O	7.73475	1.42426	-0.749822
H	7.3674	-0.665838	-1.17116
H	5.27652	0.0728125	0.617388
C	6.95447	-0.565081	1.85029
H	8.05426	-0.688248	1.75332
H	6.74105	0.12439	2.69283
H	6.51662	-1.55758	2.09396
N	6.53569	2.36739	0.904705
C	7.03257	3.69703	0.637593
H	5.8835	2.2521	1.64672
H	6.58641	4.43258	1.34269
H	6.77961	4.0096	-0.401423
H	8.14054	3.73228	0.748655
