44
  This energy is -3.2414 and Call times are: 24530
C	-0.118828	-2.55506	-2.36298
C	0.047916	-1.13168	-1.99231
O	0.3914	-0.298635	-2.81968
H	0.119026	-2.68409	-3.44124
H	-1.16663	-2.87647	-2.18518
H	0.568664	-3.18952	-1.76485
N	-0.1905	-0.819319	-0.7164
C	-0.0710552	0.522608	-0.204743
C	0.105372	0.434019	1.29867
O	-0.122262	-0.615446	1.89754
H	-0.441444	-1.51201	-0.0454686
H	0.821964	0.977227	-0.614512
C	-1.3194	1.36727	-0.544307
H	-2.23377	0.897652	-0.122996
H	-1.23069	2.40117	-0.151933
H	-1.4382	1.42353	-1.64833
N	0.538891	1.53525	1.94315
C	0.747402	1.54141	3.37237
H	0.724423	2.37277	1.43979
H	1.10298	2.5386	3.7136
H	1.50781	0.780305	3.66175
H	-0.199823	1.30441	3.90881
C	5.95214	2.31568	-2.53005
C	5.77047	1.96403	-1.10368
O	5.96508	2.78684	-0.219594
H	6.27644	3.37613	-2.60846
H	4.9955	2.1909	-3.07968
H	6.72862	1.66757	-2.98827
N	5.39246	0.709883	-0.845616
C	5.17487	0.218562	0.491577
C	5.2774	-1.29384	0.45468
O	5.2579	-1.89928	-0.615316
H	5.26536	0.0407659	-1.57298
H	5.96463	0.586209	1.13438
C	3.79023	0.644232	1.02888
H	2.98242	0.265972	0.366703
H	3.61947	0.267709	2.05837
H	3.72739	1.75408	1.04985
N	5.41174	-1.94011	1.62954
C	5.52844	-3.37841	1.69174
H	5.43257	-1.43177	2.48416
H	5.62848	-3.71961	2.74569
H	6.42273	-3.7249	1.1248
H	4.62927	-3.86521	1.24936
