44
  This energy is -2.5438 and Call times are: 16399
C	1.75678	2.95128	0.574284
C	1.05674	2.00736	-0.325798
O	0.836622	2.29324	-1.49469
H	2.00378	3.87883	0.0134764
H	2.6979	2.49632	0.948611
H	1.10587	3.21404	1.43464
N	0.680745	0.844288	0.21111
C	-0.00906976	-0.175619	-0.537739
C	-0.720887	-1.07843	0.450943
O	-0.45122	-1.03397	1.64975
H	0.840025	0.635053	1.17225
H	-0.763136	0.292436	-1.15773
C	0.972052	-1.00101	-1.39986
H	1.74466	-1.47922	-0.760718
H	0.444194	-1.78714	-1.97791
H	1.48789	-0.328086	-2.11905
N	-1.66779	-1.90809	-0.0297068
C	-2.40625	-2.79547	0.83829
H	-1.87653	-1.92417	-1.00203
H	-3.13735	-3.39763	0.255062
H	-2.96479	-2.21634	1.60892
H	-1.71657	-3.49457	1.3644
C	7.11794	-2.96944	1.72801
C	6.32932	-2.14039	0.78888
O	5.39974	-2.61664	0.152036
H	6.72402	-4.00897	1.72003
H	7.03734	-2.56251	2.75793
H	8.18468	-2.98696	1.42024
N	6.69411	-0.861001	0.677283
C	6.02348	0.069772	-0.194924
C	6.97314	1.22006	-0.467382
O	7.98536	1.37426	0.213398
H	7.47157	-0.492103	1.17968
H	5.81837	-0.418199	-1.13932
C	4.71865	0.597599	0.442215
H	4.93267	1.097	1.41119
H	4.19965	1.31443	-0.226792
H	4.03207	-0.254713	0.637942
N	6.67735	2.04597	-1.49031
C	7.52929	3.16127	-1.83161
H	5.85731	1.90029	-2.03395
H	7.11556	3.72106	-2.6992
H	8.55164	2.80761	-2.09799
H	7.62015	3.86399	-0.971896
