44
  This energy is -4.2328 and Call times are: 28477
C	0.698751	2.72508	-2.05227
C	0.0718446	2.12612	-0.852505
O	-0.460233	2.8251	-0.00114417
H	0.595394	3.83104	-2.00729
H	0.197667	2.35442	-2.97115
H	1.77787	2.4662	-2.09002
N	0.127728	0.795745	-0.75583
C	-0.437337	0.0681592	0.352389
C	0.237	-1.28869	0.411265
O	0.909758	-1.69779	-0.533121
H	0.589565	0.239514	-1.44158
H	-0.205238	0.590992	1.27155
C	-1.96437	-0.103995	0.192218
H	-2.19893	-0.640132	-0.752058
H	-2.40272	-0.663685	1.0439
H	-2.44644	0.896957	0.149176
N	0.0888677	-2.01195	1.53863
C	0.704179	-3.3099	1.69002
H	-0.453575	-1.66045	2.29456
H	0.463895	-3.74536	2.68494
H	1.81191	-3.2325	1.5996
H	0.341726	-4.01086	0.903593
C	4.13606	0.868721	-3.36
C	4.23256	-0.113518	-2.25678
O	4.45133	-1.2962	-2.48018
H	4.28342	0.346762	-4.33042
H	4.91941	1.64763	-3.24835
H	3.13488	1.34893	-3.3586
N	4.06251	0.363519	-1.02152
C	4.1279	-0.468293	0.15349
C	3.39763	0.248125	1.27272
O	3.10118	1.43698	1.16992
H	3.85592	1.32393	-0.854567
H	3.60293	-1.39479	-0.0416352
C	5.59089	-0.745489	0.565729
H	6.12668	0.207161	0.764495
H	5.6449	-1.38584	1.47006
H	6.11522	-1.26944	-0.262944
N	3.07009	-0.469556	2.36527
C	2.36366	0.124911	3.47601
H	3.31252	-1.43222	2.42646
H	2.18859	-0.625868	4.27783
H	1.37641	0.522269	3.14633
H	2.94887	0.968969	3.90759
