44
  This energy is -3.4722 and Call times are: 25064
C	-0.248001	-2.67693	2.2133
C	0.286996	-2.04994	0.983719
O	1.15627	-2.5987	0.32061
H	0.26596	-3.64778	2.38403
H	-1.33764	-2.86121	2.10579
H	-0.069591	-2.01706	3.08833
N	-0.226298	-0.86307	0.651692
C	0.192083	-0.129606	-0.516133
C	-0.176468	1.32653	-0.308569
O	-0.947367	1.65788	0.590182
H	-0.913226	-0.412915	1.21599
H	1.26987	-0.187329	-0.600462
C	-0.485914	-0.672286	-1.794
H	-1.59152	-0.612199	-1.70379
H	-0.165869	-0.109868	-2.69513
H	-0.209016	-1.73992	-1.93412
N	0.386912	2.23674	-1.12718
C	0.104622	3.64725	-0.997009
H	1.01382	1.9494	-1.84387
H	0.66159	4.23199	-1.76194
H	0.402247	4.01608	0.0112727
H	-0.983939	3.84409	-1.12918
C	3.85736	-1.72928	2.0264
C	4.26045	-0.528292	1.26066
O	3.49041	0.40902	1.10261
H	2.81084	-1.6051	2.38027
H	4.52093	-1.86229	2.90664
H	3.91404	-2.63139	1.38148
N	5.49628	-0.534186	0.755622
C	6.03231	0.561576	-0.0117125
C	7.18817	0.030796	-0.837245
O	7.67774	-1.07137	-0.597717
H	6.10391	-1.31611	0.866571
H	5.27318	0.915238	-0.697801
C	6.51633	1.70685	0.905452
H	7.29455	1.34038	1.60844
H	6.92954	2.55228	0.317845
H	5.66072	2.08613	1.50563
N	7.63858	0.798991	-1.84868
C	8.72724	0.370828	-2.69583
H	7.22449	1.68472	-2.03103
H	8.95149	1.14036	-3.46705
H	8.47033	-0.580975	-3.21478
H	9.64893	0.198184	-2.09428
