44
  This energy is 0.1092 and Call times are: 13535
C	3.18379	1.22363	0.701655
C	1.94641	0.513113	1.09568
O	1.86162	-0.0593748	2.17344
H	3.93803	1.12486	1.51235
H	2.9708	2.30102	0.538322
H	3.59781	0.783617	-0.229972
N	0.945653	0.530582	0.212194
C	-0.320083	-0.115344	0.452029
C	-0.986352	-0.347574	-0.890131
O	-0.57276	0.213973	-1.90277
H	1.03732	0.975691	-0.674604
H	-0.141306	-1.08347	0.902414
C	-1.22991	0.747652	1.35457
H	-1.41069	1.74034	0.889816
H	-2.20529	0.253186	1.54139
H	-0.730072	0.911515	2.33409
N	-2.02652	-1.20333	-0.931916
C	-2.71542	-1.49556	-2.16731
H	-2.34175	-1.65332	-0.102841
H	-3.54187	-2.21979	-1.99489
H	-2.01448	-1.93483	-2.9136
H	-3.14838	-0.567067	-2.60506
C	1.49616	1.1397	0.489649
C	2.95628	1.36787	0.404707
O	3.42264	2.49839	0.434903
H	0.975554	2.11861	0.570674
H	1.25578	0.529615	1.38566
H	1.13689	0.615857	-0.421096
N	3.72078	0.27955	0.288734
C	5.15764	0.339955	0.195831
C	5.63871	-0.953674	-0.432125
O	4.88719	-1.92176	-0.53141
H	3.32692	-0.634244	0.235948
H	5.43361	1.15003	-0.467264
C	5.80383	0.527874	1.5866
H	5.51808	-0.304546	2.2645
H	6.91015	0.574947	1.51871
H	5.44248	1.47826	2.03643
N	6.90455	-0.99204	-0.892748
C	7.44605	-2.17684	-1.51662
H	7.49483	-0.195871	-0.809564
H	8.50142	-2.01084	-1.82626
H	6.85455	-2.45028	-2.42028
H	7.4188	-3.03944	-0.812104
