44
  This energy is -2.4134 and Call times are: 5856
C	-1.11972	-1.50096	2.9359
C	-0.955699	-0.320264	2.05825
O	-1.49056	0.746661	2.32674
H	-1.77204	-1.23218	3.79503
H	-0.132501	-1.82973	3.32335
H	-1.59158	-2.33376	2.3731
N	-0.203803	-0.491372	0.968412
C	0.0484204	0.563355	0.0193265
C	0.461498	-0.0780197	-1.29111
O	0.775489	-1.26589	-1.3381
H	0.202651	-1.37343	0.745468
H	-0.871584	1.10647	-0.155878
C	1.15848	1.51526	0.518082
H	2.10066	0.95469	0.697442
H	1.35512	2.32867	-0.210251
H	0.84425	1.97771	1.47909
N	0.449466	0.693591	-2.39586
C	0.815831	0.166479	-3.68973
H	0.185457	1.65079	-2.33845
H	0.744424	0.955591	-4.47041
H	0.141959	-0.672879	-3.97717
H	1.86093	-0.219191	-3.67547
C	5.30512	1.63816	-3.07255
C	5.62808	0.467339	-2.22634
O	6.0368	-0.575359	-2.71851
H	5.48995	1.38297	-4.13865
H	5.94618	2.5006	-2.79315
H	4.23727	1.91656	-2.94954
N	5.44257	0.615932	-0.912612
C	5.71258	-0.432606	0.0384367
C	4.92852	-0.130072	1.30056
O	4.42531	0.977748	1.47761
H	5.08146	1.46068	-0.526691
H	5.34688	-1.37088	-0.359024
C	7.22097	-0.525986	0.359594
H	7.59296	0.438468	0.766501
H	7.43243	-1.33246	1.09148
H	7.78427	-0.746738	-0.573205
N	4.78799	-1.12188	2.20199
C	4.0481	-0.929897	3.4275
H	5.19665	-2.01354	2.03715
H	4.04807	-1.86053	4.03674
H	2.99103	-0.65395	3.20911
H	4.49969	-0.11277	4.0354
