44
  This energy is -3.3615 and Call times are: 33584
C	-0.846011	-1.27105	-3.12967
C	-0.249288	-0.226666	-2.26689
O	0.366315	0.715005	-2.74729
H	-0.627022	-1.0373	-4.19422
H	-1.94678	-1.30172	-2.98759
H	-0.414036	-2.26389	-2.88349
N	-0.417084	-0.377357	-0.951023
C	0.104533	0.555809	0.0153854
C	0.195914	-0.157987	1.35007
O	-0.371068	-1.23454	1.52729
H	-0.895556	-1.16428	-0.570557
H	1.10809	0.83936	-0.275383
C	-0.800884	1.80152	0.140019
H	-1.8298	1.50692	0.43779
H	-0.402086	2.52221	0.883222
H	-0.860572	2.31477	-0.844439
N	0.934901	0.418857	2.31814
C	1.08905	-0.193436	3.61718
H	1.39186	1.28668	2.15291
H	1.73086	0.434133	4.27405
H	1.5599	-1.19887	3.52423
H	0.0989317	-0.320281	4.11192
C	8.33018	0.678352	2.29437
C	6.96263	0.218925	1.96282
O	6.23608	-0.272014	2.81582
H	8.52943	0.491028	3.3719
H	8.42717	1.76629	2.09484
H	9.07771	0.123741	1.68893
N	6.57934	0.365969	0.692455
C	5.27867	-0.0331047	0.217262
C	5.3672	-0.214653	-1.28555
O	6.33436	0.210988	-1.91424
H	7.19093	0.740559	0.000656016
H	5.02503	-0.99247	0.650112
C	4.20523	1.02316	0.562469
H	4.46893	2.00627	0.117419
H	3.20248	0.718965	0.198146
H	4.15102	1.14773	1.66596
N	4.3631	-0.874589	-1.89569
C	4.36712	-1.1055	-3.32147
H	3.59262	-1.2176	-1.36849
H	3.45585	-1.66254	-3.63219
H	5.26046	-1.7002	-3.62064
H	4.39384	-0.139603	-3.87601
