44
  This energy is 0.1104 and Call times are: 17321
C	-3.29101	-1.11947	0.205372
C	-2.26373	-0.0637969	0.351827
O	-2.57559	1.09123	0.607074
H	-4.29872	-0.674692	0.355541
H	-3.13277	-1.91507	0.963529
H	-3.24184	-1.56312	-0.81134
N	-0.99488	-0.443807	0.184531
C	0.115363	0.468217	0.295892
C	1.29308	-0.139283	-0.441104
O	1.28109	-1.32141	-0.779147
H	-0.755676	-1.3818	-0.0518844
H	-0.140172	1.39587	-0.200337
C	0.487658	0.723404	1.77352
H	0.748594	-0.230424	2.27972
H	1.34209	1.42536	1.86291
H	-0.383637	1.16731	2.30262
N	2.33441	0.666697	-0.727517
C	3.49445	0.179306	-1.43669
H	2.3221	1.62223	-0.451751
H	4.24151	0.991886	-1.57405
H	3.20722	-0.206252	-2.44172
H	3.97902	-0.651126	-0.873883
C	-0.0538634	-1.7106	0.420447
C	1.1749	-1.40738	-0.34728
O	1.47465	-2.05304	-1.34215
H	-0.581074	-2.56696	-0.0534312
H	-0.729921	-0.829832	0.42391
H	0.204864	-1.98171	1.46568
N	1.92762	-0.404193	0.110313
C	3.15144	0.0091821	-0.528608
C	3.978	0.765559	0.493119
O	3.47573	1.15056	1.54732
H	1.68781	0.0952349	0.938563
H	3.7116	-0.870713	-0.818563
C	2.87067	0.906791	-1.75441
H	2.29529	1.80817	-1.45345
H	3.81084	1.22677	-2.24884
H	2.26356	0.341624	-2.49478
N	5.2787	0.977551	0.211622
C	6.14613	1.67798	1.12985
H	5.66819	0.651913	-0.643649
H	7.17668	1.7526	0.717957
H	6.1969	1.14466	2.1067
H	5.76838	2.70893	1.31858
