44
  This energy is -3.8326 and Call times are: 1233
C	2.19767	0.699992	-2.60891
C	1.39753	1.11426	-1.43445
O	1.4983	2.23962	-0.965502
H	2.84467	1.54536	-2.92922
H	1.52764	0.421773	-3.44943
H	2.84134	-0.166182	-2.34741
N	0.575683	0.195001	-0.922695
C	-0.266729	0.448421	0.218772
C	-0.64091	-0.888885	0.827737
O	-0.451054	-1.93555	0.211076
H	0.524064	-0.727518	-1.29583
H	0.29963	0.999799	0.958565
C	-1.54091	1.22409	-0.183629
H	-2.11917	0.655896	-0.943163
H	-2.19175	1.42103	0.692951
H	-1.25323	2.20116	-0.629409
N	-1.16464	-0.885709	2.06939
C	-1.53992	-2.11176	2.73433
H	-1.30388	-0.0288335	2.55478
H	-1.95232	-1.90038	3.74551
H	-0.65776	-2.78253	2.8488
H	-2.31395	-2.65656	2.14675
C	6.06932	2.0476	-2.7585
C	5.76256	0.730624	-2.15628
O	5.46087	-0.22863	-2.85293
H	5.96802	1.97877	-3.86343
H	7.10904	2.34858	-2.51104
H	5.36246	2.8157	-2.37993
N	5.82875	0.657495	-0.82488
C	5.55808	-0.554828	-0.0942374
C	5.21451	-0.172247	1.33224
O	5.44296	0.960805	1.75156
H	6.04724	1.45346	-0.266632
H	4.6895	-1.0379	-0.523534
C	6.77602	-1.50533	-0.110699
H	7.66545	-1.00633	0.329802
H	6.57098	-2.43988	0.450863
H	7.01827	-1.77716	-1.16121
N	4.63384	-1.10873	2.10801
C	4.26056	-0.831769	3.47554
H	4.45065	-2.01765	1.74809
H	3.7996	-1.72783	3.94653
H	3.52613	0.00478153	3.5206
H	5.15306	-0.540318	4.07528
