44
  This energy is -3.9326 and Call times are: 19836
C	0.660608	-1.1106	-3.23362
C	0.616097	-0.0451422	-2.20696
O	1.07776	1.06594	-2.428
H	1.15928	-0.719816	-4.14711
H	-0.369193	-1.43224	-3.49607
H	1.23488	-1.98261	-2.85578
N	0.0545097	-0.369252	-1.03994
C	-0.0627834	0.5595	0.0557242
C	-0.244442	-0.243046	1.32936
O	-0.521544	-1.44012	1.28391
H	-0.291752	-1.2865	-0.861915
H	0.86179	1.11541	0.146273
C	-1.25882	1.51695	-0.144058
H	-2.20557	0.943289	-0.237243
H	-1.35196	2.23353	0.69773
H	-1.11428	2.0981	-1.08081
N	-0.0698365	0.397474	2.50207
C	-0.210504	-0.287891	3.76567
H	0.161132	1.36476	2.5178
H	-0.0302036	0.409313	4.6134
H	0.518588	-1.12695	3.84081
H	-1.23573	-0.710858	3.87142
C	5.95845	3.31606	0.0978661
C	5.79313	2.02267	-0.602862
O	6.05238	1.91044	-1.79311
H	6.32373	4.07997	-0.622458
H	6.69823	3.21418	0.919545
H	4.98616	3.65207	0.515836
N	5.34437	1.00286	0.132655
C	5.13286	-0.316544	-0.40702
C	4.16691	-1.04459	0.507384
O	3.90747	-0.604752	1.62589
H	5.10903	1.11422	1.0945
H	4.66309	-0.228227	-1.37841
C	6.45978	-1.10113	-0.510975
H	6.93934	-1.18927	0.487211
H	6.30057	-2.11747	-0.926294
H	7.15907	-0.556895	-1.1825
N	3.59265	-2.17081	0.040632
C	2.65133	-2.92448	0.835662
H	3.81014	-2.50664	-0.869945
H	2.29243	-3.81772	0.278377
H	1.76872	-2.29754	1.09871
H	3.1247	-3.26925	1.78341
