44
  This energy is -5.376 and Call times are: 22268
C	-0.0428991	-1.83461	2.95947
C	-0.490286	-1.59741	1.56851
O	-1.18785	-2.41251	0.980715
H	-0.433827	-2.81489	3.3089
H	-0.428466	-1.03543	3.6269
H	1.06632	-1.85239	3.00712
N	-0.0861061	-0.458222	1.00171
C	-0.439943	-0.0867069	-0.344992
C	0.567848	0.939412	-0.825279
O	1.32483	1.49605	-0.0322045
H	0.50607	0.184143	1.48091
H	-0.353937	-0.956365	-0.984031
C	-1.86772	0.500115	-0.4099
H	-1.95259	1.39171	0.247344
H	-2.14346	0.787101	-1.44546
H	-2.59632	-0.26076	-0.0544336
N	0.615089	1.1981	-2.14696
C	1.5504	2.15118	-2.69743
H	-0.000961392	0.732019	-2.77344
H	1.433	2.22492	-3.80107
H	2.59869	1.84564	-2.47613
H	1.38551	3.16196	-2.25889
C	6.41715	-3.00377	0.661306
C	6.60808	-1.55152	0.875178
O	5.82775	-0.905123	1.56056
H	5.50238	-3.33692	1.19802
H	7.2897	-3.5664	1.05493
H	6.29698	-3.21877	-0.421412
N	7.66582	-0.998113	0.277451
C	7.98405	0.402772	0.391808
C	8.87748	0.774403	-0.77563
O	9.40826	-0.0960411	-1.46297
H	8.27775	-1.52969	-0.302124
H	7.07177	0.979114	0.304355
C	8.69879	0.710094	1.72666
H	9.6339	0.116656	1.81336
H	8.94514	1.78793	1.81805
H	8.03449	0.432373	2.57384
N	9.04705	2.08475	-1.04064
C	9.8704	2.5331	-2.13939
H	8.60328	2.77381	-0.477168
H	9.88556	3.64408	-2.19163
H	9.48102	2.14201	-3.10721
H	10.9178	2.17339	-2.018
