44
  This energy is -3.8211 and Call times are: 4973
C	-0.370345	-2.64649	2.23272
C	-0.789891	-1.88687	1.03349
O	-1.66468	-2.31028	0.290553
H	-0.958561	-3.58772	2.29566
H	-0.553188	-2.04654	3.14894
H	0.708549	-2.90065	2.16687
N	-0.159302	-0.730949	0.813104
C	-0.456907	0.119766	-0.311414
C	0.739564	1.02215	-0.542472
O	1.6206	1.12818	0.30863
H	0.571891	-0.410943	1.40967
H	-0.580967	-0.494515	-1.19422
C	-1.72151	0.969491	-0.0547691
H	-1.59104	1.59793	0.851961
H	-1.95363	1.6256	-0.918727
H	-2.5905	0.296835	0.114153
N	0.808832	1.68007	-1.7165
C	1.91675	2.55219	-2.02974
H	0.0894293	1.57556	-2.3953
H	1.7903	3.00145	-3.0394
H	2.87728	1.98791	-2.01501
H	1.98985	3.37772	-1.2852
C	4.7867	-1.41056	-3.18357
C	4.62091	-1.51336	-1.71621
O	4.22868	-2.54821	-1.19492
H	4.49945	-2.3759	-3.65417
H	5.84551	-1.18954	-3.43439
H	4.13596	-0.606357	-3.58698
N	4.91595	-0.420704	-1.0081
C	4.80506	-0.366223	0.427711
C	4.7013	1.09152	0.832014
O	4.96953	1.98623	0.0324096
H	5.20666	0.425375	-1.44693
H	3.88826	-0.85711	0.728691
C	6.02577	-1.02158	1.11143
H	6.96462	-0.515975	0.799914
H	5.94356	-0.981507	2.21706
H	6.09132	-2.08869	0.806255
N	4.28587	1.36479	2.08451
C	4.14542	2.72329	2.55453
H	4.06674	0.626918	2.7144
H	3.79467	2.73996	3.60996
H	3.40869	3.28037	1.93153
H	5.1198	3.26072	2.50024
