44
  This energy is -3.0653 and Call times are: 21944
C	1.70178	2.37858	1.89009
C	0.540841	1.49098	1.65433
O	-0.332998	1.35452	2.49948
H	1.61468	2.83701	2.89911
H	1.72622	3.18676	1.12912
H	2.64562	1.7958	1.84036
N	0.510321	0.8534	0.48175
C	-0.55386	-0.0432272	0.107042
C	-0.0325476	-0.95306	-0.988256
O	1.01616	-0.693184	-1.57521
H	1.24301	0.950372	-0.186606
H	-0.806977	-0.663693	0.957352
C	-1.79348	0.732423	-0.391785
H	-1.53007	1.36841	-1.26371
H	-2.61486	0.0450629	-0.680999
H	-2.16498	1.39605	0.419222
N	-0.746787	-2.05934	-1.27462
C	-0.321853	-2.99029	-2.29391
H	-1.58908	-2.25583	-0.783526
H	-1.04211	-3.83339	-2.38138
H	0.680842	-3.40988	-2.04938
H	-0.252279	-2.48431	-3.28402
C	5.04328	2.4204	-2.48632
C	4.81595	1.02461	-2.04894
O	4.47761	0.159462	-2.84488
H	4.85153	2.49887	-3.57854
H	6.09338	2.71865	-2.28351
H	4.35432	3.10662	-1.95025
N	4.99465	0.773683	-0.749909
C	4.81179	-0.534724	-0.174183
C	4.5805	-0.360622	1.31425
O	4.81903	0.711873	1.86624
H	5.24202	1.49321	-0.106464
H	3.92086	-0.983052	-0.595286
C	6.04404	-1.4341	-0.418725
H	6.95633	-0.970836	0.013973
H	5.90654	-2.44237	0.0231496
H	6.20343	-1.55284	-1.51264
N	4.0867	-1.41209	1.99731
C	3.82314	-1.33554	3.41536
H	3.89346	-2.26923	1.53127
H	3.42228	-2.30174	3.79355
H	3.0774	-0.537167	3.63382
H	4.7562	-1.09931	3.97639
