44
  This energy is -1.8806 and Call times are: 27583
C	-0.299121	3.18983	-1.36443
C	-0.193713	1.71977	-1.50239
O	-0.331693	1.17491	-2.58893
H	-0.51526	3.63748	-2.35879
H	0.65593	3.60766	-0.98218
H	-1.12213	3.45081	-0.666226
N	0.0516821	1.03518	-0.382798
C	0.181645	-0.399831	-0.35669
C	-0.0679275	-0.864459	1.06495
O	-0.0774637	-0.0615695	1.99614
H	0.13314	1.48806	0.501059
H	-0.586196	-0.834146	-0.984275
C	1.5855	-0.846059	-0.82273
H	2.37081	-0.398149	-0.177143
H	1.68895	-1.95047	-0.803991
H	1.75648	-0.498612	-1.86493
N	-0.298639	-2.17744	1.26206
C	-0.557851	-2.70966	2.57954
H	-0.293817	-2.81013	0.494655
H	-0.721009	-3.80902	2.53444
H	-1.46531	-2.23853	3.02203
H	0.30139	-2.51025	3.26007
C	6.32793	-1.42337	3.16989
C	6.65627	-1.40053	1.72667
O	7.47179	-2.17851	1.25111
H	6.92799	-2.21399	3.6706
H	5.24959	-1.64563	3.31343
H	6.56774	-0.44292	3.63266
N	6.02087	-0.487564	0.988343
C	6.23398	-0.34293	-0.429574
C	5.79074	1.0515	-0.827488
O	5.11805	1.73963	-0.0621073
H	5.38032	0.159843	1.3927
H	7.29374	-0.422676	-0.63604
C	5.44045	-1.40085	-1.22846
H	4.35374	-1.31662	-1.01376
H	5.60239	-1.29245	-2.32061
H	5.77356	-2.41785	-0.926975
N	6.17881	1.5104	-2.03364
C	5.81439	2.83043	-2.4929
H	6.72894	0.941045	-2.63566
H	6.22637	3.02115	-3.50835
H	6.21	3.60987	-1.8021
H	4.70653	2.93904	-2.53781
