44
  This energy is -1.4973 and Call times are: 26234
C	2.54577	1.76997	-1.58505
C	1.23701	1.70851	-0.896153
O	0.637348	2.72842	-0.585226
H	2.83312	2.83358	-1.73346
H	2.48006	1.27384	-2.57619
H	3.32482	1.26934	-0.972363
N	0.761692	0.488846	-0.633765
C	-0.497856	0.267022	0.0304357
C	-0.475439	-1.13112	0.616885
O	0.384548	-1.94157	0.277134
H	1.27336	-0.334058	-0.86606
H	-0.590721	0.96663	0.85141
C	-1.68373	0.413336	-0.949061
H	-1.58491	-0.305375	-1.79037
H	-2.65513	0.243316	-0.440878
H	-1.68831	1.44131	-1.37261
N	-1.41398	-1.43968	1.53337
C	-1.46371	-2.74255	2.15486
H	-2.09695	-0.767741	1.80034
H	-2.30666	-2.80127	2.87821
H	-0.51661	-2.95299	2.70255
H	-1.60338	-3.5387	1.38817
C	5.45301	-2.58244	-1.97539
C	6.55783	-1.91533	-1.25044
O	7.65022	-2.45247	-1.12937
H	5.79843	-3.57471	-2.33864
H	5.14201	-1.96902	-2.84706
H	4.58496	-2.72963	-1.2988
N	6.29003	-0.711412	-0.739337
C	7.26236	0.0613475	-0.00842252
C	6.51314	1.06945	0.841067
O	5.32093	1.29581	0.642978
H	5.38735	-0.297094	-0.819624
H	7.80291	-0.595763	0.660975
C	8.23495	0.789415	-0.962945
H	7.67701	1.46216	-1.64868
H	8.98507	1.38527	-0.403438
H	8.77668	0.0401227	-1.58039
N	7.19469	1.68536	1.82705
C	6.56133	2.65133	2.69419
H	8.15709	1.4833	1.97599
H	7.2869	3.04651	3.43892
H	5.71149	2.18706	3.24506
H	6.16316	3.50805	2.10371
