44
  This energy is -2.7973 and Call times are: 27898
C	0.0745238	-1.4665	3.15752
C	0.314534	-0.324499	2.24679
O	0.651922	0.769096	2.6789
H	0.243844	-1.14122	4.20699
H	0.772558	-2.29714	2.92172
H	-0.972008	-1.82354	3.05632
N	0.136655	-0.557212	0.944268
C	0.331979	0.453609	-0.0641545
C	-0.432364	0.02948	-1.30316
O	-0.858846	-1.11817	-1.41649
H	-0.166576	-1.44454	0.607171
H	-0.0962792	1.38508	0.283744
C	1.82969	0.63209	-0.399008
H	2.26599	-0.325546	-0.754949
H	1.98369	1.40979	-1.17505
H	2.37864	0.941615	0.516954
N	-0.642604	0.958458	-2.25647
C	-1.37039	0.64948	-3.46521
H	-0.295663	1.88365	-2.14296
H	-1.43559	1.54313	-4.12428
H	-2.40555	0.314338	-3.22572
H	-0.865218	-0.166974	-4.03035
C	3.8836	-2.30973	2.24909
C	4.57877	-1.0384	1.94631
O	4.83516	-0.231749	2.82952
H	3.66446	-2.35823	3.33789
H	4.52607	-3.17221	1.97308
H	2.92759	-2.36659	1.68718
N	4.8984	-0.827309	0.667383
C	5.57681	0.361802	0.217263
C	5.31481	0.513497	-1.26853
O	4.84707	-0.416735	-1.92254
H	4.65813	-1.47894	-0.047171
H	5.14823	1.22165	0.71632
C	7.09648	0.277033	0.482822
H	7.53277	-0.606552	-0.0300571
H	7.62191	1.19109	0.137576
H	7.27501	0.164917	1.57447
N	5.592	1.70503	-1.83369
C	5.36387	1.94593	-3.23944
H	5.96331	2.44768	-1.28612
H	5.65548	2.98392	-3.51293
H	4.28795	1.80595	-3.49249
H	5.95958	1.23895	-3.86112
