44
  This energy is -0.6092 and Call times are: 25376
C	1.79276	2.93001	0.571987
C	1.40906	1.54707	0.934563
O	1.97099	0.952573	1.84412
H	2.61986	3.26719	1.23386
H	0.927428	3.61356	0.701562
H	2.13833	2.96746	-0.482586
N	0.430197	0.994981	0.213885
C	-0.0533501	-0.342391	0.447224
C	-0.744321	-0.815187	-0.816999
O	-1.03814	-0.0201047	-1.7077
H	0.000175471	1.47908	-0.54352
H	0.791294	-0.996001	0.624547
C	-1.0369	-0.385147	1.63799
H	-1.90183	0.287005	1.45303
H	-1.41105	-1.41348	1.82052
H	-0.519029	-0.035402	2.55757
N	-1.00115	-2.13293	-0.933561
C	-1.64502	-2.67641	-2.10669
H	-0.749199	-2.76126	-0.204892
H	-1.76992	-3.77764	-2.01213
H	-1.03947	-2.46941	-3.01866
H	-2.65137	-2.22031	-2.2496
C	5.90938	-3.11204	1.50789
C	5.21737	-1.81005	1.37701
O	4.19747	-1.56952	2.00824
H	5.3517	-3.75404	2.22392
H	6.94098	-2.96033	1.88948
H	5.95129	-3.62401	0.523476
N	5.7641	-0.929893	0.535121
C	5.20686	0.378447	0.301549
C	5.73333	0.878204	-1.02973
O	6.68053	0.320308	-1.58055
H	6.57881	-1.14858	0.00469239
H	4.13081	0.292897	0.218557
C	5.59151	1.36303	1.42839
H	6.69607	1.44788	1.51119
H	5.16395	2.37138	1.25177
H	5.20115	0.985035	2.39838
N	5.11293	1.935	-1.59034
C	5.53687	2.47282	-2.86204
H	4.34365	2.36823	-1.13234
H	4.90391	3.33999	-3.15294
H	5.46062	1.69972	-3.66063
H	6.5964	2.81338	-2.81123
