44
  This energy is -4.5132 and Call times are: 29453
C	2.12925	1.68464	2.18047
C	1.16318	1.66666	1.05904
O	0.732333	2.7059	0.578591
H	2.3458	2.73811	2.46183
H	3.07677	1.19169	1.8771
H	1.7041	1.15771	3.06054
N	0.792215	0.46345	0.615152
C	-0.13982	0.283561	-0.469181
C	-0.715784	-1.11496	-0.361309
O	-0.196851	-1.95358	0.373038
H	1.128	-0.376001	1.03409
H	-0.955816	0.985313	-0.351848
C	0.548775	0.470286	-1.83961
H	1.3858	-0.250745	-1.95636
H	-0.166067	0.33261	-2.67677
H	0.967487	1.49813	-1.90562
N	-1.82201	-1.39249	-1.07912
C	-2.44769	-2.69339	-1.03048
H	-2.23116	-0.698191	-1.66202
H	-3.34252	-2.72429	-1.69047
H	-2.76971	-2.93588	0.00814185
H	-1.73756	-3.48386	-1.36521
C	4.97737	3.14747	-1.44246
C	5.19209	1.68637	-1.54386
O	5.19741	1.12163	-2.629
H	4.83088	3.56872	-2.46077
H	5.86083	3.63255	-0.976596
H	4.0745	3.36033	-0.832156
N	5.3709	1.03206	-0.393964
C	5.59161	-0.390633	-0.330331
C	5.23485	-0.855363	1.06824
O	5.08134	-0.0447776	1.97995
H	5.33537	1.49903	0.485591
H	4.9192	-0.882289	-1.02186
C	7.06065	-0.746814	-0.649955
H	7.74775	-0.240226	0.0609469
H	7.23405	-1.84153	-0.601997
H	7.30985	-0.400111	-1.67652
N	5.07262	-2.17862	1.26487
C	4.72095	-2.71257	2.56002
H	5.19421	-2.81793	0.512713
H	4.63552	-3.82082	2.51847
H	3.7455	-2.29852	2.90399
H	5.49435	-2.44857	3.31721
