44
  This energy is 0.1366 and Call times are: 33065
C	0.405719	3.25357	1.17294
C	0.862971	1.8522	1.03776
O	1.96986	1.50754	1.42827
H	1.20822	3.85739	1.64965
H	-0.503925	3.29962	1.80796
H	0.18023	3.68085	0.173175
N	0.00721571	1.00173	0.466139
C	0.30822	-0.393238	0.265427
C	-0.603697	-0.913945	-0.828423
O	-1.57849	-0.26177	-1.19759
H	-0.880216	1.30096	0.125756
H	1.32839	-0.486211	-0.0848268
C	0.099592	-1.20602	1.56272
H	-0.947843	-1.10786	1.9196
H	0.330623	-2.28055	1.41176
H	0.772334	-0.814057	2.3564
N	-0.293064	-2.09901	-1.38978
C	-1.09653	-2.66835	-2.44642
H	0.503972	-2.60823	-1.08212
H	-0.679587	-3.6461	-2.77416
H	-1.12673	-1.98718	-3.32752
H	-2.14279	-2.83159	-2.10019
C	2.94754	1.12602	-3.29165
C	3.29994	0.103775	-2.28069
O	3.69116	-1.00648	-2.61353
H	3.09491	0.702613	-4.30894
H	3.59799	2.01843	-3.17617
H	1.88465	1.42649	-3.17793
N	3.16055	0.461555	-1.00205
C	3.4637	-0.422919	0.0945978
C	2.72433	0.0819224	1.31841
O	2.22763	1.2066	1.33321
H	2.81318	1.35915	-0.744004
H	3.0843	-1.41061	-0.13474
C	4.98242	-0.472201	0.374215
H	5.36843	0.542806	0.608465
H	5.21937	-1.15245	1.21795
H	5.51269	-0.84242	-0.530159
N	2.61546	-0.752185	2.37122
C	1.91894	-0.362572	3.57506
H	3.01809	-1.66101	2.33713
H	1.94025	-1.1838	4.32498
H	0.854868	-0.119174	3.35201
H	2.39155	0.538698	4.02842
