44
  This energy is 0.1072 and Call times are: 14700
C	2.43041	0.542899	-2.43403
C	1.53548	1.02496	-1.35796
O	1.61084	2.17178	-0.938901
H	3.11565	1.36409	-2.73726
H	1.83352	0.228834	-3.31602
H	3.03552	-0.315266	-2.07301
N	0.658038	0.141573	-0.876211
C	-0.278439	0.461744	0.171324
C	-0.724807	-0.838709	0.810712
O	-0.496467	-1.91749	0.266717
H	0.626117	-0.79828	-1.20575
H	0.22816	1.04449	0.930162
C	-1.50035	1.22874	-0.38163
H	-2.0173	0.628315	-1.16032
H	-2.22338	1.47699	0.422349
H	-1.15991	2.1787	-0.848357
N	-1.35646	-0.766561	1.99891
C	-1.80725	-1.95303	2.6883
H	-1.52554	0.115439	2.42636
H	-2.30452	-1.68591	3.64675
H	-0.948693	-2.62603	2.91458
H	-2.53408	-2.51929	2.062
C	1.83738	-3.44149	-0.139629
C	1.55344	-2.06351	-0.599782
O	0.839281	-1.85548	-1.57097
H	1.31916	-4.16521	-0.805615
H	1.46957	-3.58155	0.898598
H	2.92943	-3.63937	-0.174422
N	2.12171	-1.07669	0.0970876
C	1.93938	0.315382	-0.228067
C	3.08578	1.09215	0.389701
O	3.81318	0.573696	1.23464
H	2.72499	-1.26012	0.868672
H	2.0008	0.436813	-1.3021
C	0.589858	0.845592	0.305579
H	0.529966	0.718853	1.40761
H	0.44617	1.91716	0.0568247
H	-0.241638	0.267699	-0.15355
N	3.28704	2.35454	-0.0367685
C	4.36128	3.16642	0.485752
H	2.69192	2.75376	-0.726473
H	4.35993	4.17276	0.0119049
H	5.34759	2.6874	0.288316
H	4.25526	3.2972	1.58704
