44
  This energy is 0.1043 and Call times are: 3561
C	1.09269	3.17343	0.928186
C	1.34197	1.81547	0.394329
O	2.43227	1.5075	-0.0670798
H	2.01464	3.78525	0.820805
H	0.821455	3.11794	2.00344
H	0.26986	3.66136	0.364426
N	0.316255	0.962214	0.441508
C	0.404585	-0.393536	-0.039083
C	-1.00378	-0.882236	-0.316396
O	-1.97859	-0.262055	0.104268
H	-0.575628	1.234	0.793097
H	0.945585	-0.399891	-0.976821
C	1.09211	-1.31313	0.994732
H	0.534878	-1.30371	1.95573
H	1.16191	-2.35777	0.627821
H	2.12245	-0.943807	1.19008
N	-1.14323	-2.00114	-1.05437
C	-2.44554	-2.53473	-1.3791
H	-0.342233	-2.48476	-1.39165
H	-2.3505	-3.45877	-1.99096
H	-3.04168	-1.79166	-1.95676
H	-3.0103	-2.78463	-0.451858
C	12.5988	2.35758	-2.51378
C	13.0792	1.25893	-1.64578
O	14.1804	0.753992	-1.81558
H	13.3748	2.59015	-3.27516
H	12.406	3.26764	-1.90761
H	11.6651	2.055	-3.03299
N	12.2457	0.855291	-0.68414
C	12.5711	-0.20226	0.239175
C	11.2728	-0.736796	0.811728
O	10.2209	-0.115976	0.670702
H	11.3395	1.25489	-0.574444
H	13.048	-1.00866	-0.303367
C	13.4843	0.305811	1.37721
H	12.9922	1.13346	1.93128
H	13.7369	-0.505993	2.0899
H	14.4314	0.695777	0.944666
N	11.3139	-1.91954	1.45626
C	10.1255	-2.51245	2.02395
H	12.1737	-2.41007	1.55371
H	10.3651	-3.48235	2.51299
H	9.36271	-2.69758	1.23331
H	9.67512	-1.83686	2.78678
