44
  This energy is 0.1112 and Call times are: 18943
C	0.386767	0.0123075	-3.46069
C	-0.397343	-0.279983	-2.23965
O	-1.55981	-0.654627	-2.309
H	-0.249864	-0.159054	-4.35579
H	1.27187	-0.655787	-3.51602
H	0.722627	1.07066	-3.45581
N	0.231856	-0.106071	-1.07508
C	-0.398353	-0.349658	0.197843
C	0.37258	0.418187	1.25393
O	1.48184	0.887029	1.00583
H	1.16979	0.227497	-1.03099
H	-1.40574	0.0461164	0.173185
C	-0.411323	-1.85628	0.539935
H	0.623679	-2.25917	0.563731
H	-0.896009	-2.04742	1.51939
H	-0.977975	-2.40769	-0.241732
N	-0.211047	0.583511	2.45728
C	0.442366	1.31072	3.52048
H	-1.11224	0.202641	2.63623
H	-0.196657	1.33535	4.43058
H	0.649415	2.36021	3.20912
H	1.41248	0.831593	3.78597
C	-1.18819	0.911372	1.32612
C	-0.358424	0.167386	0.351869
O	-0.857616	-0.646724	-0.412674
H	-2.24863	0.593899	1.22343
H	-1.11943	2.00255	1.13268
H	-0.847641	0.697585	2.36114
N	0.950128	0.431814	0.363433
C	1.88537	-0.211162	-0.524675
C	3.26777	-0.0883296	0.0861474
O	3.47745	0.688567	1.01582
H	1.34884	1.07581	1.01092
H	1.64514	-1.26503	-0.585625
C	1.86496	0.436028	-1.92747
H	2.11118	1.51728	-1.86116
H	2.58383	-0.05675	-2.61389
H	0.846711	0.34049	-2.36357
N	4.24317	-0.873694	-0.411664
C	5.58759	-0.834235	0.114786
H	4.05187	-1.50107	-1.15936
H	6.24322	-1.55115	-0.426909
H	5.59403	-1.10175	1.19628
H	6.02133	0.186481	0.00902009
