44
  This energy is -4.0258 and Call times are: 33353
C	0.898517	3.30491	0.6296
C	0.574555	2.19839	-0.298775
O	0.450931	2.39596	-1.49968
H	0.987196	4.25242	0.0549521
H	1.8626	3.10412	1.14248
H	0.0939578	3.41758	1.38652
N	0.421992	0.990377	0.248755
C	0.105905	-0.183977	-0.524427
C	-0.492928	-1.21287	0.41473
O	-0.405475	-1.07751	1.63369
H	0.496538	0.847611	1.23211
H	-0.648584	0.0703041	-1.25802
C	1.36393	-0.760439	-1.21159
H	2.13612	-1.01958	-0.456152
H	1.1241	-1.66469	-1.8079
H	1.79374	0.00321169	-1.89587
N	-1.13805	-2.26049	-0.135091
C	-1.75001	-3.2836	0.680346
H	-1.20421	-2.34846	-1.12358
H	-2.2289	-4.0598	0.0436147
H	-2.53015	-2.84355	1.3429
H	-0.988998	-3.77963	1.32532
C	6.60455	2.61899	-2.01172
C	6.47923	1.95151	-0.696435
O	7.06872	2.37686	0.287471
H	7.28527	3.49275	-1.9168
H	5.61065	2.97363	-2.357
H	7.02578	1.91482	-2.75982
N	5.69919	0.868927	-0.652758
C	5.47849	0.11272	0.554002
C	5.01046	-1.27359	0.156077
O	4.64015	-1.50626	-0.993082
H	5.2475	0.515363	-1.46756
H	6.41943	0.00432708	1.07836
C	4.42423	0.790378	1.45758
H	3.4604	0.900601	0.916288
H	4.25197	0.2108	2.38774
H	4.77837	1.80543	1.74112
N	5.03736	-2.2368	1.09815
C	4.62167	-3.58929	0.808064
H	5.34711	-2.03033	2.02046
H	4.71496	-4.23165	1.71135
H	5.24967	-4.02841	-0.000652925
H	3.56008	-3.61044	0.470799
