44
  This energy is 0.0857 and Call times are: 27083
C	0.954602	-0.458917	-3.31727
C	1.17298	0.104808	-1.96607
O	2.21459	0.67964	-1.68127
H	1.85334	-0.269971	-3.94371
H	0.0757108	0.0226508	-3.79525
H	0.785613	-1.55444	-3.25234
N	0.179594	-0.0560548	-1.08876
C	0.243823	0.437066	0.263839
C	-0.759547	-0.341929	1.09188
O	-1.61997	-1.03323	0.550017
H	-0.652193	-0.551695	-1.32415
H	1.2288	0.235533	0.665426
C	-0.0736893	1.94778	0.327459
H	-1.08459	2.15102	-0.0859176
H	-0.024971	2.33079	1.36751
H	0.667582	2.5071	-0.283954
N	-0.657393	-0.264327	2.43335
C	-1.56116	-0.980987	3.30271
H	0.0501778	0.294822	2.85279
H	-1.31616	-0.787435	4.3703
H	-1.49383	-2.07812	3.12101
H	-2.61405	-0.665024	3.12165
C	5.89916	-3.30748	-1.08484
C	5.93045	-2.28804	-0.0120054
O	5.91439	-2.61075	1.16787
H	5.85521	-4.32007	-0.628133
H	6.81452	-3.23422	-1.709
H	5.00329	-3.16259	-1.72466
N	5.97059	-1.0132	-0.406364
C	6.00501	0.0906567	0.51946
C	5.52709	1.32884	-0.213835
O	5.43575	1.33722	-1.43997
H	5.95386	-0.762232	-1.37056
H	5.30844	-0.103934	1.32506
C	7.43	0.317243	1.0719
H	8.14212	0.515925	0.242733
H	7.46007	1.16639	1.78522
H	7.76896	-0.597246	1.60572
N	5.18858	2.40243	0.526989
C	4.7117	3.62162	-0.0832196
H	5.26268	2.37352	1.5184
H	4.48779	4.38768	0.691544
H	3.78198	3.43128	-0.666872
H	5.47625	4.03857	-0.778042
