44
  This energy is -1.6169 and Call times are: 14331
C	2.60743	0.646484	-2.21574
C	1.19343	0.774238	-1.79683
O	0.420364	1.50953	-2.39533
H	2.79074	1.30195	-3.09473
H	2.82926	-0.404087	-2.49843
H	3.28109	0.956706	-1.38936
N	0.82135	0.0523768	-0.737186
C	-0.520161	0.0706229	-0.211027
C	-0.463537	-0.409712	1.22609
O	0.542402	-0.964663	1.66421
H	1.46776	-0.520574	-0.24038
H	-0.881009	1.09131	-0.202728
C	-1.46076	-0.834859	-1.03716
H	-1.08723	-1.88106	-1.04411
H	-2.49457	-0.823024	-0.634837
H	-1.49263	-0.473237	-2.08804
N	-1.54183	-0.186182	2.00283
C	-1.57437	-0.597549	3.38699
H	-2.34347	0.270869	1.63175
H	-2.54645	-0.326756	3.85496
H	-0.758502	-0.103677	3.96292
H	-1.43894	-1.70004	3.47268
C	7.42763	3.00967	1.29661
C	7.45361	1.92936	0.284945
O	8.14696	2.01935	-0.718879
H	8.09976	3.83339	0.971665
H	7.77929	2.62443	2.27679
H	6.39692	3.40829	1.40469
N	6.6801	0.869088	0.529624
C	6.59902	-0.261371	-0.360497
C	5.30248	-0.991686	-0.069201
O	4.661	-0.750776	0.951733
H	6.0976	0.820536	1.33664
H	6.55258	0.0969785	-1.38104
C	7.80001	-1.21451	-0.170088
H	7.84502	-1.57971	0.878113
H	7.74082	-2.08599	-0.854051
H	8.74361	-0.667294	-0.385274
N	4.87418	-1.89115	-0.976689
C	3.64485	-2.62608	-0.790149
H	5.4038	-2.06681	-1.80002
H	3.46668	-3.3174	-1.64314
H	2.77821	-1.92984	-0.716382
H	3.68494	-3.22788	0.146549
