44
  This energy is -3.4694 and Call times are: 27030
C	-0.975901	2.44276	2.28182
C	-0.717914	1.98215	0.898891
O	-1.01046	2.67728	-0.0642799
H	-1.44961	3.44802	2.25175
H	-0.0222436	2.51165	2.84627
H	-1.66087	1.73798	2.79859
N	-0.159899	0.776181	0.769921
C	0.151801	0.191997	-0.510079
C	0.265317	-1.30836	-0.322236
O	0.349918	-1.79634	0.803173
H	0.0470064	0.207235	1.56139
H	-0.669519	0.377081	-1.1907
C	1.47187	0.757444	-1.07999
H	2.31219	0.566416	-0.378923
H	1.71481	0.309868	-2.0656
H	1.37618	1.85727	-1.21182
N	0.247657	-2.07976	-1.42706
C	0.338535	-3.51894	-1.34531
H	0.171352	-1.66637	-2.32845
H	0.30893	-3.97312	-2.36025
H	-0.508178	-3.93296	-0.751251
H	1.28906	-3.82536	-0.851568
C	6.82932	-2.7287	-1.81371
C	5.72594	-1.88846	-1.29625
O	4.56974	-2.0746	-1.64987
H	6.41782	-3.47922	-2.52311
H	7.32935	-3.26106	-0.977428
H	7.5721	-2.09912	-2.34742
N	6.06687	-0.925234	-0.43699
C	5.10586	-0.0275494	0.152456
C	5.84979	1.20612	0.62562
O	7.07655	1.20713	0.708638
H	7.01596	-0.764954	-0.179153
H	4.40248	0.2844	-0.609134
C	4.3695	-0.691064	1.33763
H	5.09412	-1.01046	2.11674
H	3.62866	-0.00265196	1.79373
H	3.82954	-1.59404	0.978152
N	5.12054	2.29837	0.927581
C	5.74298	3.52254	1.37495
H	4.12937	2.2799	0.847102
H	4.97638	4.30348	1.57423
H	6.44619	3.91068	0.602876
H	6.32009	3.35035	2.31222
