44
  This energy is 0.1584 and Call times are: 28306
C	1.52194	-1.09226	-2.93544
C	1.31953	-0.0826599	-1.87198
O	2.02139	0.917184	-1.80714
H	2.36646	-0.776445	-3.58575
H	0.605518	-1.18363	-3.55563
H	1.76366	-2.07847	-2.48609
N	0.341763	-0.330487	-0.997386
C	0.0238719	0.557713	0.0920513
C	-0.726856	-0.240548	1.14011
O	-1.1824	-1.35185	0.876815
H	-0.204001	-1.16292	-1.0436
H	0.944799	0.906746	0.541654
C	-0.836607	1.74862	-0.385885
H	-1.78027	1.38692	-0.847187
H	-1.08308	2.43461	0.450448
H	-0.276029	2.32458	-1.15411
N	-0.854323	0.302526	2.36682
C	-1.54269	-0.38923	3.43162
H	-0.472485	1.19989	2.5622
H	-1.54277	0.221136	4.36152
H	-1.04815	-1.36302	3.65162
H	-2.59998	-0.595398	3.14735
C	10.215	-1.30729	2.39368
C	9.87707	-0.316889	1.34674
O	10.5965	0.649414	1.13425
H	11.1611	-1.00524	2.89331
H	10.3529	-2.31139	1.94023
H	9.4062	-1.35282	3.15305
N	8.75175	-0.537321	0.663051
C	8.29051	0.336664	-0.385872
C	6.80312	0.103499	-0.566221
O	6.25537	-0.8771	-0.0659977
H	8.15908	-1.31241	0.86532
H	8.42687	1.36413	-0.0731445
C	9.03541	0.0656265	-1.71207
H	8.89395	-0.989492	-2.0296
H	8.68281	0.736974	-2.52185
H	10.124	0.238765	-1.56637
N	6.10813	1.01747	-1.27166
C	4.68578	0.885186	-1.48524
H	6.56825	1.80792	-1.66243
H	4.29819	1.73475	-2.0896
H	4.14222	0.870082	-0.512842
H	4.45568	-0.0623388	-2.02415
