44
  This energy is -2.7808 and Call times are: 8560
C	1.86975	1.63269	2.44224
C	0.589738	1.35273	1.75346
O	-0.468259	1.79354	2.18104
H	1.67445	2.25822	3.34025
H	2.55683	2.18163	1.76444
H	2.34774	0.68308	2.76273
N	0.660018	0.595442	0.656222
C	-0.498918	0.237307	-0.121874
C	-0.152462	-0.995985	-0.933167
O	1.01521	-1.36217	-1.05273
H	1.52435	0.218184	0.334442
H	-1.30582	-0.0268227	0.549855
C	-0.923939	1.38857	-1.06052
H	-0.0935887	1.65742	-1.7478
H	-1.81613	1.11622	-1.66103
H	-1.17394	2.28635	-0.454196
N	-1.16841	-1.68079	-1.49433
C	-0.935625	-2.87393	-2.27433
H	-2.10707	-1.37241	-1.38008
H	-1.89546	-3.29054	-2.65169
H	-0.433015	-3.65428	-1.65816
H	-0.282341	-2.65067	-3.14872
C	3.76935	2.66069	-1.43238
C	4.74655	2.11404	-0.464145
O	5.44311	2.85351	0.217391
H	3.81118	3.77135	-1.40904
H	2.74235	2.33408	-1.16516
H	4.01205	2.31339	-2.45874
N	4.82353	0.78348	-0.386461
C	5.7258	0.103654	0.508289
C	5.92913	-1.30446	-0.0162201
O	5.1868	-1.76656	-0.880651
H	4.27142	0.191864	-0.967921
H	6.68554	0.604196	0.487512
C	5.16388	0.0587725	1.94681
H	4.17896	-0.454789	1.96434
H	5.85619	-0.463872	2.63842
H	5.01832	1.09627	2.31906
N	6.96012	-2.01453	0.482634
C	7.23843	-3.35918	0.0346986
H	7.55384	-1.62036	1.17644
H	8.12409	-3.77463	0.564099
H	7.44574	-3.37366	-1.05986
H	6.36808	-4.02663	0.230098
