44
  This energy is -3.708 and Call times are: 21648
C	0.1978	-2.65066	2.24967
C	0.300543	-1.21064	1.92259
O	0.47313	-0.373865	2.7981
H	0.294619	-2.78543	3.34891
H	1.00931	-3.21635	1.74543
H	-0.786682	-3.04791	1.9242
N	0.188752	-0.886136	0.632407
C	0.267754	0.472528	0.158468
C	-0.3999	0.53107	-1.2017
O	-0.661143	-0.499956	-1.8186
H	0.0191946	-1.57419	-0.0681371
H	-0.293319	1.11195	0.828101
C	1.73438	0.94647	0.0512181
H	2.30722	0.287892	-0.635982
H	1.79886	1.9923	-0.313285
H	2.21257	0.897739	1.05377
N	-0.712544	1.74643	-1.69278
C	-1.36062	1.89967	-2.97446
H	-0.499393	2.56855	-1.17517
H	-1.53208	2.9748	-3.20237
H	-2.34531	1.37853	-2.98161
H	-0.733878	1.46468	-3.78634
C	7.76355	1.76184	-2.39438
C	6.87893	0.644764	-1.99341
O	6.38429	-0.101086	-2.8274
H	7.86085	1.774	-3.50174
H	8.77117	1.63161	-1.94653
H	7.33337	2.72961	-2.06075
N	6.653	0.507613	-0.684779
C	5.81504	-0.531057	-0.140893
C	5.3678	-0.0934283	1.2403
O	5.9144	0.85013	1.80842
H	7.03838	1.1394	-0.0174951
H	4.93054	-0.62856	-0.757523
C	6.57111	-1.8756	-0.0533033
H	7.47827	-1.77179	0.579465
H	5.92875	-2.67762	0.36493
H	6.89437	-2.1846	-1.07123
N	4.34204	-0.759956	1.80559
C	3.84007	-0.406386	3.11295
H	3.90821	-1.51611	1.32678
H	2.99726	-1.07151	3.40368
H	3.47512	0.646215	3.12221
H	4.642	-0.500521	3.88057
