44
  This energy is -1.8222 and Call times are: 31693
C	2.86584	1.9741	-0.126572
C	1.44957	1.75801	0.245859
O	0.842759	2.57401	0.92587
H	3.21756	2.93475	0.308532
H	2.96804	2.02116	-1.23118
H	3.49561	1.14899	0.267795
N	0.885823	0.630963	-0.194954
C	-0.483814	0.280745	0.0848165
C	-0.626984	-1.21833	-0.0927079
O	0.248967	-1.87097	-0.657156
H	1.39925	-0.0397431	-0.723612
H	-0.701674	0.511704	1.11984
C	-1.45786	1.02274	-0.857414
H	-1.23109	0.784052	-1.91841
H	-2.51336	0.75549	-0.644626
H	-1.34235	2.11979	-0.718605
N	-1.73239	-1.80434	0.407975
C	-1.9492	-3.228	0.296797
H	-2.42639	-1.26002	0.867663
H	-2.91469	-3.51669	0.767689
H	-1.13088	-3.79065	0.801799
H	-1.97355	-3.53956	-0.772555
C	6.56944	-0.106769	3.43186
C	7.36098	-0.466556	2.23386
O	8.43469	-1.04396	2.3351
H	7.11319	-0.436128	4.34385
H	5.5801	-0.609902	3.402
H	6.42327	0.992977	3.47808
N	6.84076	-0.121425	1.05377
C	7.49249	-0.403338	-0.200263
C	6.92968	0.544673	-1.2413
O	5.90605	1.18808	-1.01757
H	5.97917	0.374561	0.985884
H	8.55009	-0.193774	-0.102079
C	7.26373	-1.86779	-0.636354
H	6.1777	-2.07951	-0.735458
H	7.76434	-2.08831	-1.60152
H	7.67934	-2.55213	0.13506
N	7.60253	0.669094	-2.40224
C	7.14861	1.55679	-3.4473
H	8.43283	0.145182	-2.56147
H	7.83434	1.51728	-4.3222
H	7.10903	2.60794	-3.08022
H	6.12727	1.27174	-3.78905
