44
  This energy is -3.1013 and Call times are: 7626
C	-1.09709	2.51054	2.14935
C	-1.24068	1.68999	0.925715
O	-2.24584	1.75938	0.231932
H	-2.01004	3.13013	2.28531
H	-0.21739	3.18191	2.05872
H	-0.971828	1.85545	3.03711
N	-0.222609	0.877099	0.633992
C	-0.215198	0.017855	-0.522932
C	0.785083	-1.09363	-0.271385
O	1.59479	-1.01385	0.650481
H	0.578237	0.808213	1.22292
H	-1.19196	-0.436646	-0.629924
C	0.167503	0.797909	-1.8005
H	1.16977	1.26342	-1.68702
H	0.17403	0.139328	-2.69325
H	-0.572153	1.60988	-1.97301
N	0.736799	-2.17233	-1.07766
C	1.64181	-3.28489	-0.906323
H	0.0695555	-2.22122	-1.81361
H	1.44546	-4.07228	-1.66705
H	1.52178	-3.73684	0.1049
H	2.69945	-2.95112	-1.01199
C	7.09884	2.07776	-2.09337
C	7.63281	1.71385	-0.761591
O	7.50182	2.461	0.198155
H	6.61226	3.07554	-2.03387
H	6.34637	1.33001	-2.42123
H	7.92245	2.1233	-2.8367
N	8.26221	0.539612	-0.675696
C	8.83485	0.0476689	0.551865
C	9.87771	-0.993656	0.195039
O	9.93324	-1.46463	-0.939389
H	8.3879	-0.0469318	-1.47137
H	9.34141	0.861613	1.05482
C	7.75569	-0.573022	1.46689
H	7.23756	-1.40725	0.947539
H	8.19316	-0.952686	2.41306
H	6.9972	0.199472	1.72006
N	10.7472	-1.36249	1.15626
C	11.7818	-2.33856	0.9052
H	10.6904	-0.964555	2.06602
H	12.3926	-2.50818	1.81923
H	12.4587	-1.99293	0.090555
H	11.3371	-3.31179	0.594968
