44
  This energy is -1.9857 and Call times are: 2655
C	-0.733698	-3.35817	0.557222
C	-0.107582	-2.277	-0.236659
O	0.623134	-2.53013	-1.18454
H	-0.419621	-4.3431	0.148401
H	-1.84002	-3.28223	0.501455
H	-0.411808	-3.29006	1.61774
N	-0.381093	-1.02702	0.144257
C	0.153017	0.129839	-0.528975
C	0.0847084	1.30091	0.431837
O	-0.588433	1.23319	1.45854
H	-0.954512	-0.83416	0.936048
H	1.19617	-0.0469799	-0.758418
C	-0.642574	0.449963	-1.81415
H	-1.71241	0.630149	-1.57518
H	-0.233877	1.3401	-2.3351
H	-0.585725	-0.416021	-2.50912
N	0.802407	2.40057	0.129066
C	0.808151	3.55997	0.990416
H	1.34653	2.43325	-0.70286
H	1.45595	4.35988	0.568806
H	1.19154	3.29559	2.00252
H	-0.221921	3.96802	1.10715
C	4.53383	0.973933	-3.33629
C	4.07006	0.171822	-2.18185
O	3.05184	-0.502909	-2.24863
H	3.82356	0.845504	-4.1818
H	5.54079	0.634469	-3.65817
H	4.57649	2.04929	-3.06292
N	4.8178	0.234403	-1.07762
C	4.49624	-0.489661	0.12619
C	5.20484	0.189715	1.28186
O	6.09456	1.01327	1.07695
H	5.62917	0.810584	-1.02622
H	3.431	-0.418286	0.305792
C	4.93611	-1.9675	0.0281852
H	6.02931	-2.03701	-0.156755
H	4.68987	-2.52799	0.953388
H	4.41096	-2.45356	-0.822766
N	4.80871	-0.126132	2.53059
C	5.41747	0.47903	3.69221
H	4.08208	-0.789642	2.67548
H	4.95638	0.0886738	4.62617
H	5.28699	1.5853	3.67277
H	6.50953	0.260668	3.72241
