44
  This energy is -1.7797 and Call times are: 24276
C	-1.14977	0.468671	-3.25338
C	-0.111435	0.606165	-2.20736
O	1.00797	1.01891	-2.47766
H	-0.728263	0.783003	-4.23287
H	-2.02169	1.11308	-3.01396
H	-1.48111	-0.58854	-3.32733
N	-0.465541	0.251239	-0.970027
C	0.434133	0.328908	0.153085
C	-0.0851825	-0.602214	1.23131
O	-1.22406	-1.0616	1.17006
H	-1.37153	-0.11106	-0.767897
H	1.40868	-0.0312952	-0.151185
C	0.530343	1.77144	0.698022
H	-0.471283	2.13804	1.00861
H	1.22239	1.83487	1.56279
H	0.910778	2.44377	-0.1016
N	0.751603	-0.920559	2.2385
C	0.348621	-1.80923	3.30342
H	1.67181	-0.544156	2.26645
H	1.1746	-1.94517	4.0359
H	0.0722772	-2.80918	2.89725
H	-0.535426	-1.39973	3.84374
C	4.20386	2.07545	0.0145193
C	5.61232	1.78666	0.366716
O	6.32736	2.64327	0.868152
H	3.96975	3.13111	0.272683
H	3.52279	1.40715	0.582271
H	4.04341	1.92764	-1.07422
N	6.04898	0.553247	0.101442
C	7.394	0.121904	0.387287
C	7.69087	-1.0848	-0.481608
O	6.7851	-1.67783	-1.06445
H	5.46525	-0.126892	-0.333996
H	8.08301	0.907879	0.10519
C	7.56256	-0.243207	1.87906
H	6.85376	-1.04933	2.16521
H	8.5971	-0.575619	2.10267
H	7.34116	0.648655	2.50493
N	8.97798	-1.46417	-0.60584
C	9.35731	-2.59415	-1.42159
H	9.69729	-0.966985	-0.131898
H	10.4587	-2.74693	-1.39404
H	9.05209	-2.43397	-2.48103
H	8.86494	-3.52479	-1.05738
