44
  This energy is 0.1081 and Call times are: 21816
C	-3.2594	0.519302	1.1103
C	-2.23066	0.5238	0.0459359
O	-2.52978	0.730946	-1.12201
H	-4.25583	0.717259	0.658853
H	-3.03998	1.31047	1.85778
H	-3.28359	-0.469345	1.61521
N	-0.975515	0.285275	0.433349
C	0.134229	0.257364	-0.485627
C	1.25734	-0.527522	0.163842
O	1.2275	-0.791144	1.36444
H	-0.748797	0.0891123	1.38364
H	-0.163467	-0.27384	-1.38077
C	0.614317	1.68464	-0.831322
H	0.918308	2.22696	0.0893279
H	1.46864	1.66683	-1.53885
H	-0.217752	2.24958	-1.3053
N	2.2693	-0.939726	-0.624849
C	3.37611	-1.70291	-0.0969361
H	2.27167	-0.722478	-1.59543
H	4.10573	-1.94508	-0.90084
H	3.01698	-2.65824	0.349841
H	3.90657	-1.12852	0.696714
C	0.00415738	0.192674	-1.2464
C	1.00708	-0.357135	-0.306682
O	0.674846	-1.08631	0.617669
H	-1.00781	-0.160802	-0.951728
H	0.218545	-0.152403	-2.27973
H	0.0198884	1.30255	-1.21692
N	2.27723	-0.00800901	-0.52389
C	3.36543	-0.462819	0.304239
C	4.5253	0.49584	0.117391
O	4.53116	1.30207	-0.810932
H	2.53168	0.610119	-1.26288
H	3.06198	-0.41364	1.3423
C	3.79659	-1.89805	-0.0716883
H	4.10661	-1.94502	-1.13743
H	4.63421	-2.25144	0.564135
H	2.93792	-2.59032	0.0683474
N	5.52974	0.444109	1.01429
C	6.66985	1.32622	0.923679
H	5.50315	-0.210503	1.76263
H	7.38696	1.12819	1.7506
H	6.34856	2.39117	0.985901
H	7.20229	1.18222	-0.0442851
