44
  This energy is -1.413 and Call times are: 15101
C	-0.715737	-2.51503	2.29967
C	-1.12274	-1.57046	1.23508
O	-2.24479	-1.61008	0.749375
H	-1.56269	-3.19786	2.5283
H	-0.443834	-1.95869	3.22129
H	0.152767	-3.1197	1.96349
N	-0.200751	-0.689598	0.839617
C	-0.447162	0.292651	-0.185711
C	0.893916	0.742076	-0.732304
O	1.93654	0.474481	-0.138032
H	0.719165	-0.686398	1.2226
H	-0.992996	-0.173842	-0.995972
C	-1.22668	1.50447	0.37193
H	-0.66418	1.98023	1.20341
H	-1.41825	2.26267	-0.414973
H	-2.2065	1.16182	0.770294
N	0.898708	1.42118	-1.89626
C	2.12891	1.87889	-2.49899
H	0.0450251	1.62169	-2.36557
H	1.92404	2.41795	-3.45014
H	2.80123	1.0188	-2.72139
H	2.66902	2.57091	-1.813
C	11.1434	-1.57212	-1.36067
C	10.5022	-0.441542	-0.652277
O	11.1699	0.461763	-0.167782
H	12.2465	-1.43496	-1.3485
H	10.7974	-1.60856	-2.41509
H	10.8948	-2.52998	-0.85707
N	9.16995	-0.47167	-0.570979
C	8.40353	0.556555	0.0864248
C	7.05112	-0.0278658	0.445153
O	6.67723	-1.09289	-0.0424612
H	8.6392	-1.22786	-0.944361
H	8.89935	0.829165	1.00942
C	8.22384	1.79251	-0.823108
H	7.71547	1.50911	-1.76935
H	7.63427	2.58624	-0.319948
H	9.22162	2.21052	-1.07967
N	6.29186	0.649586	1.32867
C	4.99496	0.163978	1.73904
H	6.61514	1.50603	1.71755
H	4.52672	0.861191	2.46835
H	5.08429	-0.837392	2.21917
H	4.31589	0.0666344	0.861229
