44
  This energy is -4.3336 and Call times are: 23433
C	0.558492	-0.186881	3.4321
C	0.42831	0.583131	2.17458
O	0.423618	1.80642	2.17954
H	0.635161	0.518144	4.28821
H	1.47248	-0.816601	3.40222
H	-0.33156	-0.834454	3.5784
N	0.311994	-0.129961	1.05194
C	0.177744	0.476103	-0.248636
C	-0.438362	-0.550115	-1.17951
O	-0.497867	-1.73528	-0.857508
H	0.287897	-1.12606	1.06405
H	-0.508324	1.31067	-0.178792
C	1.54599	0.937925	-0.797945
H	2.24755	0.0794002	-0.867658
H	1.44625	1.4052	-1.79919
H	1.98734	1.68848	-0.10655
N	-0.933423	-0.1115	-2.35362
C	-1.54924	-1.01394	-3.29836
H	-0.882177	0.852546	-2.59283
H	-1.89146	-0.463482	-4.20232
H	-2.43054	-1.51969	-2.84144
H	-0.827726	-1.80007	-3.61868
C	5.24118	-3.44626	-0.487388
C	5.39928	-2.2591	0.382575
O	5.47269	-2.37122	1.59853
H	5.20114	-4.36096	0.143161
H	6.10196	-3.52744	-1.18401
H	4.29959	-3.37057	-1.07102
N	5.44997	-1.07545	-0.232865
C	5.60159	0.169125	0.477686
C	5.10624	1.28346	-0.423489
O	4.911	1.08367	-1.6209
H	5.3598	-0.994891	-1.22196
H	4.96992	0.151632	1.35675
C	7.07552	0.417641	0.868714
H	7.72081	0.434307	-0.0354063
H	7.19583	1.37505	1.41613
H	7.42676	-0.406032	1.52776
N	4.86969	2.48454	0.139933
C	4.3852	3.60147	-0.637196
H	5.02701	2.6243	1.11202
H	4.25497	4.50031	0.00497214
H	3.40304	3.35883	-1.10382
H	5.10175	3.85354	-1.45217
