44
  This energy is -2.4174 and Call times are: 21690
C	-0.144523	-2.70762	2.18496
C	0.45923	-1.99016	1.03956
O	1.49174	-2.38745	0.517478
H	0.485386	-3.58721	2.44069
H	-1.16386	-3.06011	1.92127
H	-0.202432	-2.0379	3.06874
N	-0.180444	-0.895326	0.621799
C	0.283602	-0.0918148	-0.480861
C	-0.336178	1.28556	-0.346909
O	-1.27287	1.48099	0.42526
H	-1.00487	-0.565537	1.07401
H	1.3576	0.0220321	-0.405778
C	-0.105846	-0.719968	-1.83765
H	-1.20825	-0.835933	-1.91102
H	0.250059	-0.103895	-2.68886
H	0.353329	-1.72894	-1.92295
N	0.190472	2.28247	-1.08502
C	-0.326542	3.62928	-1.01445
H	0.952947	2.10573	-1.69872
H	0.237273	4.30318	-1.69652
H	-0.241679	4.02888	0.0220628
H	-1.40127	3.65358	-1.30692
C	8.49678	0.524644	-2.13969
C	7.34755	1.01921	-1.34856
O	7.13627	2.21736	-1.22094
H	9.06613	1.39088	-2.54135
H	8.13853	-0.0947284	-2.98872
H	9.17035	-0.0819615	-1.49839
N	6.57097	0.0901418	-0.786308
C	5.41609	0.415396	0.0119888
C	5.1025	-0.782333	0.887403
O	5.61786	-1.87615	0.66426
H	6.7704	-0.882255	-0.873522
H	5.66112	1.24421	0.66398
C	4.19818	0.758943	-0.874466
H	3.94998	-0.0932397	-1.54252
H	3.30722	1.01003	-0.262982
H	4.44108	1.63708	-1.51167
N	4.26118	-0.596145	1.92351
C	3.91356	-1.6756	2.81801
H	3.86002	0.298283	2.09173
H	3.209	-1.3239	3.60359
H	4.82329	-2.07951	3.3185
H	3.42843	-2.50839	2.25918
