44
  This energy is -0.4745 and Call times are: 26820
C	-2.40804	-2.09483	-1.39254
C	-1.98788	-1.0598	-0.421264
O	-2.80419	-0.493792	0.292723
H	-3.51101	-2.22293	-1.33865
H	-1.92163	-3.06386	-1.15337
H	-2.13186	-1.78738	-2.42315
N	-0.68272	-0.782251	-0.377861
C	-0.12177	0.200067	0.515007
C	1.22317	0.622923	-0.0431855
O	1.76703	-0.0279143	-0.933386
H	-0.0314711	-1.22945	-0.985168
H	-0.762578	1.07261	0.525557
C	0.0500637	-0.369058	1.94108
H	0.707462	-1.26445	1.92647
H	0.481631	0.384763	2.63121
H	-0.941945	-0.676202	2.33823
N	1.78285	1.74274	0.455588
C	3.05595	2.22892	-0.0229728
H	1.32365	2.2595	1.17066
H	3.3475	3.15982	0.511519
H	3.00667	2.45171	-1.11347
H	3.85321	1.46762	0.138198
C	6.9252	-2.37339	-2.20636
C	7.27906	-0.979375	-1.85607
O	7.21165	-0.0822824	-2.68503
H	6.6247	-2.41841	-3.27572
H	6.07731	-2.72183	-1.57986
H	7.79865	-3.04093	-2.05008
N	7.67624	-0.766282	-0.599406
C	8.05286	0.535356	-0.108771
C	8.91391	0.337529	1.12359
O	8.97106	-0.756714	1.68144
H	7.75485	-1.51047	0.0585795
H	8.65809	1.03172	-0.856697
C	6.81114	1.38536	0.241577
H	6.19217	0.872879	1.00862
H	7.09752	2.38831	0.619539
H	6.18813	1.52201	-0.669097
N	9.62459	1.39368	1.5657
C	10.4812	1.29631	2.72456
H	9.57043	2.26889	1.09632
H	10.9781	2.2702	2.92924
H	11.2708	0.52651	2.5659
H	9.89269	1.00674	3.62512
