44
  This energy is -1.7062 and Call times are: 7335
C	-2.12789	1.7584	-2.12279
C	-1.39998	0.528972	-1.73567
O	-1.58288	-0.526788	-2.32594
H	-2.80838	1.53038	-2.97179
H	-1.41019	2.5445	-2.43865
H	-2.73144	2.13103	-1.2685
N	-0.548514	0.640975	-0.713503
C	0.231989	-0.466069	-0.221469
C	0.656632	-0.142407	1.19774
O	0.551055	0.999828	1.64044
H	-0.429937	1.49965	-0.222028
H	-0.393727	-1.34878	-0.184385
C	1.47528	-0.714218	-1.10451
H	2.11461	0.193556	-1.14087
H	2.07844	-1.56606	-0.728562
H	1.1508	-0.949075	-2.14167
N	1.12938	-1.1523	1.95447
C	1.54659	-0.941279	3.32107
H	1.20043	-2.07109	1.58031
H	1.90569	-1.89171	3.77381
H	0.699927	-0.558254	3.93564
H	2.37303	-0.195715	3.36907
C	8.31075	0.131155	2.68728
C	6.94964	0.237403	2.1152
O	5.96982	0.373191	2.83492
H	8.24878	0.188703	3.79576
H	8.9465	0.963727	2.31922
H	8.77097	-0.838525	2.40291
N	6.85865	0.170742	0.784919
C	5.60375	0.259078	0.0818862
C	5.79359	-0.358987	-1.28968
O	6.92018	-0.591655	-1.72384
H	7.66127	0.0307578	0.211201
H	4.86329	-0.329668	0.608356
C	5.13838	1.72587	-0.0561631
H	5.90064	2.32713	-0.596127
H	4.17232	1.79752	-0.596888
H	5.00411	2.16755	0.95529
N	4.68751	-0.66058	-1.99794
C	4.77009	-1.26248	-3.30831
H	3.78461	-0.471152	-1.62629
H	3.754	-1.43175	-3.72804
H	5.29623	-2.24323	-3.25771
H	5.33356	-0.604119	-4.00847
