44
  This energy is -4.6683 and Call times are: 27241
C	0.810998	-3.25738	-0.926227
C	-0.150866	-2.24505	-0.4351
O	-1.3358	-2.51439	-0.294092
H	0.272949	-4.21	-1.12339
H	1.59708	-3.43987	-0.163606
H	1.28432	-2.91022	-1.86877
N	0.346807	-1.03595	-0.165352
C	-0.463598	0.0523887	0.32003
C	0.267544	1.34684	0.0216035
O	1.45235	1.33821	-0.307028
H	1.30859	-0.820562	-0.312034
H	-1.39696	0.0678445	-0.228304
C	-0.723481	-0.073228	1.83786
H	0.236166	-0.0894559	2.39726
H	-1.34733	0.763104	2.21488
H	-1.25845	-1.02596	2.04341
N	-0.432888	2.4948	0.108779
C	0.176337	3.77463	-0.168793
H	-1.39264	2.48032	0.369345
H	-0.561297	4.5973	-0.0408648
H	0.561062	3.80823	-1.21383
H	1.03187	3.96041	0.520211
C	6.40838	-0.929402	-2.92702
C	6.99619	-1.24921	-1.60663
O	6.86378	-2.35801	-1.10711
H	5.87252	-1.82218	-3.31645
H	7.20838	-0.649287	-3.64421
H	5.68721	-0.0904565	-2.832
N	7.66478	-0.264998	-1.00109
C	8.29258	-0.423345	0.286397
C	8.48398	0.956904	0.884322
O	8.36215	1.96483	0.190727
H	7.74082	0.642684	-1.40516
H	7.62589	-0.974342	0.937557
C	9.65444	-1.14261	0.163492
H	10.3357	-0.574991	-0.505737
H	10.1405	-1.26632	1.15304
H	9.50072	-2.15189	-0.276816
N	8.76859	1.03454	2.19923
C	8.95598	2.30618	2.858
H	8.85603	0.207666	2.745
H	9.18378	2.16033	3.93692
H	8.03714	2.93077	2.77511
H	9.79868	2.86854	2.39454
