44
  This energy is -1.4843 and Call times are: 2059
C	-1.10048	-3.2261	0.712289
C	-0.705489	-2.16688	-0.243349
O	-0.58831	-2.40415	-1.4377
H	-1.24374	-4.18178	0.162725
H	-2.05306	-2.95345	1.21336
H	-0.307892	-3.36666	1.47714
N	-0.482519	-0.95588	0.272526
C	-0.0920188	0.175725	-0.529849
C	0.563637	1.19163	0.385191
O	0.462266	1.095	1.60675
H	-0.552991	-0.782181	1.2512
H	0.649165	-0.143621	-1.25147
C	-1.30941	0.808402	-1.24034
H	-2.06808	1.13427	-0.497127
H	-1.01227	1.67993	-1.85915
H	-1.78149	0.0538537	-1.90663
N	1.2738	2.18293	-0.188385
C	1.9428	3.1889	0.603222
H	1.34993	2.23983	-1.17843
H	2.47097	3.91709	-0.0510158
H	2.69159	2.7206	1.28237
H	1.2102	3.74745	1.22973
C	7.53693	-1.3738	2.46773
C	6.6177	-0.323633	1.97441
O	6.20628	0.556849	2.71737
H	7.7411	-1.20558	3.54749
H	8.49641	-1.33505	1.91031
H	7.07636	-2.37617	2.34095
N	6.26602	-0.399546	0.688755
C	5.37937	0.54908	0.0636179
C	4.80034	-0.102097	-1.17732
O	5.28923	-1.13477	-1.63164
H	6.58486	-1.1384	0.101078
H	4.55881	0.760677	0.737396
C	6.1235	1.84869	-0.316393
H	6.96506	1.62786	-1.00714
H	5.44369	2.58139	-0.797844
H	6.54392	2.31535	0.601003
N	3.72468	0.478985	-1.74414
C	3.09834	-0.0762852	-2.92124
H	3.33935	1.31035	-1.35736
H	2.23137	0.545545	-3.23578
H	2.73412	-1.11013	-2.72183
H	3.8221	-0.122327	-3.76695
