44
  This energy is -3.9317 and Call times are: 2543
C	0.595339	3.11397	-1.44045
C	0.682788	1.63633	-1.45208
O	1.08923	1.03447	-2.43649
H	0.937214	3.50986	-2.42139
H	1.24301	3.52925	-0.639893
H	-0.454105	3.43407	-1.2697
N	0.290605	1.01031	-0.340025
C	0.317525	-0.423677	-0.199407
C	-0.642767	-0.800964	0.911778
O	-1.08421	0.0532662	1.6781
H	-0.0660017	1.51029	0.444696
H	-0.0453216	-0.873851	-1.1147
C	1.73912	-0.92975	0.132346
H	2.10852	-0.465416	1.07153
H	1.76348	-2.03354	0.241154
H	2.43316	-0.646052	-0.688617
N	-1.00677	-2.09467	1.01095
C	-1.92577	-2.54507	2.03014
H	-0.644132	-2.76965	0.376815
H	-2.09794	-3.6409	1.94792
H	-2.90738	-2.02761	1.93047
H	-1.52296	-2.3286	3.04605
C	7.79934	2.27135	2.58145
C	8.19679	1.95148	1.19187
O	8.41063	2.83697	0.375372
H	7.73837	3.37489	2.70123
H	8.55071	1.87337	3.2955
H	6.80568	1.82994	2.8067
N	8.29996	0.655574	0.887987
C	8.6772	0.18749	-0.421751
C	8.19826	-1.2445	-0.560568
O	7.83213	-1.88313	0.424282
H	8.09482	-0.0567061	1.55395
H	8.16384	0.779886	-1.16848
C	10.2071	0.25807	-0.62523
H	10.7307	-0.350215	0.142908
H	10.5011	-0.10148	-1.63276
H	10.5456	1.31188	-0.519888
N	8.16942	-1.77678	-1.79825
C	7.71718	-3.12898	-2.0289
H	8.46302	-1.24144	-2.58339
H	7.76963	-3.38202	-3.11078
H	6.66308	-3.25383	-1.69048
H	8.3483	-3.85563	-1.46778
