44
  This energy is -2.6244 and Call times are: 34253
C	-1.13592	2.47912	2.16559
C	-1.22832	1.12542	1.57383
O	-2.01969	0.298775	2.00614
H	-1.86179	2.56409	3.0033
H	-1.37725	3.24788	1.40165
H	-0.112305	2.65655	2.55759
N	-0.402275	0.86468	0.557949
C	-0.374667	-0.406421	-0.120556
C	0.966086	-0.533613	-0.817292
O	1.69738	0.44496	-0.956706
H	0.258165	1.5368	0.233891
H	-0.440085	-1.19892	0.614109
C	-1.5212	-0.519541	-1.15001
H	-1.45142	0.295378	-1.90178
H	-1.503	-1.49714	-1.67418
H	-2.49778	-0.423603	-0.627287
N	1.33025	-1.7554	-1.25389
C	2.59396	-1.97486	-1.918
H	0.727684	-2.53617	-1.12524
H	2.70832	-3.04413	-2.20231
H	3.44186	-1.697	-1.25084
H	2.6649	-1.35673	-2.84215
C	6.49783	0.747744	-3.37768
C	6.14338	-0.184605	-2.28393
O	5.65584	-1.2813	-2.52071
H	6.24287	0.282015	-4.35439
H	7.58634	0.9658	-3.35681
H	5.92919	1.69561	-3.27214
N	6.37978	0.24196	-1.04114
C	6.08868	-0.551393	0.126194
C	5.97982	0.387204	1.31212
O	6.3755	1.54867	1.23292
H	6.75028	1.1491	-0.860125
H	5.12614	-1.02947	-0.00436599
C	7.19132	-1.60332	0.380668
H	8.17751	-1.10946	0.513488
H	6.97025	-2.21605	1.2787
H	7.26187	-2.2839	-0.495672
N	5.41698	-0.0919285	2.43891
C	5.26028	0.732119	3.61474
H	5.09649	-1.03254	2.48086
H	4.77866	0.157448	4.43634
H	4.62664	1.62057	3.39024
H	6.24993	1.0959	3.97451
