44
  This energy is -3.0315 and Call times are: 4381
C	-2.72732	-1.28359	1.74363
C	-1.35325	-1.40233	1.20602
O	-0.645588	-2.36048	1.4847
H	-2.94514	-2.16011	2.3918
H	-3.46275	-1.25999	0.912111
H	-2.82326	-0.35702	2.34795
N	-0.938314	-0.410387	0.41467
C	0.37233	-0.38421	-0.183956
C	0.686648	1.05213	-0.554587
O	-0.198163	1.9058	-0.56836
H	-1.5138	0.37912	0.218617
H	1.10125	-0.701322	0.551024
C	0.435436	-1.28278	-1.43923
H	-0.314088	-0.95507	-2.19085
H	1.44329	-1.26507	-1.90258
H	0.202178	-2.33193	-1.15458
N	1.96694	1.35715	-0.844116
C	2.36249	2.70091	-1.19631
H	2.6697	0.653738	-0.820471
H	3.45486	2.74851	-1.40054
H	2.12962	3.40881	-0.368128
H	1.82018	3.04439	-2.10685
C	7.58525	-1.11463	-2.67181
C	6.38401	-1.19772	-1.81081
O	5.46267	-1.95545	-2.08185
H	7.4715	-1.81289	-3.52933
H	8.49011	-1.39887	-2.09453
H	7.7056	-0.0822397	-3.0625
N	6.36628	-0.401639	-0.739212
C	5.26742	-0.369617	0.19262
C	5.32789	0.948808	0.939171
O	6.33445	1.65329	0.890255
H	7.11011	0.232389	-0.545143
H	4.33672	-0.392344	-0.359962
C	5.34032	-1.54818	1.18901
H	6.29665	-1.52217	1.7537
H	4.4956	-1.52665	1.90787
H	5.29629	-2.50804	0.629659
N	4.23604	1.32435	1.63402
C	4.19728	2.56895	2.36591
H	3.42874	0.743802	1.65547
H	3.21533	2.6968	2.87254
H	4.35294	3.43304	1.68009
H	4.99755	2.59448	3.14057
