44
  This energy is -4.8448 and Call times are: 32937
C	0.456398	-3.26903	-1.10964
C	0.883212	-1.85472	-1.016
O	1.97262	-1.49341	-1.43927
H	1.26213	-3.86471	-1.59111
H	-0.46587	-3.35054	-1.7225
H	0.263512	-3.67866	-0.0957686
N	0.0205338	-1.0116	-0.443903
C	0.2928	0.394167	-0.281047
C	-0.606517	0.91823	0.821597
O	-1.55708	0.252151	1.22732
H	-0.851723	-1.32355	-0.0767633
H	1.31806	0.518692	0.043626
C	0.0360108	1.17229	-1.59089
H	-1.01652	1.0418	-1.92145
H	0.244825	2.25503	-1.46907
H	0.69994	0.778156	-2.3909
N	-0.311588	2.1226	1.34934
C	-1.10449	2.69694	2.41123
H	0.466076	2.64307	1.01232
H	-0.703623	3.69127	2.70764
H	-1.09884	2.03539	3.30765
H	-2.16181	2.82798	2.08551
C	4.91922	3.35194	0.33895
C	4.5906	1.94668	0.0096105
O	3.43895	1.60327	-0.219001
H	3.98654	3.95689	0.339116
H	5.61772	3.76871	-0.416842
H	5.3857	3.41039	1.34489
N	5.61329	1.08889	-0.0160968
C	5.4523	-0.310453	-0.320636
C	6.65384	-1.04954	0.235496
O	7.65656	-0.436781	0.597324
H	6.54284	1.37517	0.200528
H	4.5725	-0.682487	0.188902
C	5.34214	-0.545607	-1.84369
H	6.24605	-0.162164	-2.36334
H	5.21793	-1.62204	-2.0817
H	4.45894	0.0019174	-2.23906
N	6.57078	-2.39074	0.336868
C	7.66055	-3.17749	0.86565
H	5.74806	-2.86759	0.0453637
H	7.4008	-4.25905	0.865924
H	7.89372	-2.87278	1.91161
H	8.58001	-3.03779	0.252244
