44
  This energy is -1.3817 and Call times are: 11566
C	2.65683	2.04959	0.930909
C	1.37771	1.36391	1.22229
O	0.904783	1.36	2.35048
H	3.05136	2.50376	1.86576
H	2.49825	2.85242	0.180484
H	3.40104	1.32277	0.542541
N	0.784135	0.75393	0.193713
C	-0.464438	0.045427	0.319877
C	-0.569933	-0.923221	-0.841945
O	0.183077	-0.828881	-1.80937
H	1.1941	0.739505	-0.714394
H	-0.448185	-0.536351	1.23275
C	-1.66575	1.01698	0.312318
H	-1.67897	1.61268	-0.625277
H	-2.62873	0.474759	0.409449
H	-1.57606	1.72195	1.16737
N	-1.49893	-1.89616	-0.762242
C	-1.66438	-2.87102	-1.81507
H	-2.09399	-1.9601	0.0321382
H	-2.47914	-3.5857	-1.56476
H	-0.724459	-3.44987	-1.96579
H	-1.91989	-2.3709	-2.77724
C	6.76221	0.335588	-3.42407
C	7.59119	-0.0838849	-2.27167
O	8.62574	-0.71632	-2.43358
H	7.2348	-0.0201971	-4.36531
H	6.68499	1.44274	-3.45694
H	5.7454	-0.103356	-3.3442
N	7.14304	0.260619	-1.06219
C	7.83914	-0.0751722	0.154166
C	6.84195	-0.0106825	1.29464
O	5.74564	0.524586	1.14156
H	6.28376	0.750595	-0.941785
H	8.19507	-1.09532	0.0857251
C	9.0114	0.896106	0.417873
H	8.64277	1.9418	0.486846
H	9.54966	0.640331	1.35362
H	9.73413	0.84029	-0.42515
N	7.19369	-0.577882	2.46536
C	6.30429	-0.575733	3.60341
H	8.08252	-1.01243	2.5672
H	6.77483	-1.08836	4.47119
H	5.35285	-1.10155	3.35946
H	6.05477	0.467235	3.90529
