44
  This energy is -2.8289 and Call times are: 32322
C	-0.111453	-3.29187	1.13018
C	-0.0555167	-2.29075	0.0412204
O	0.103693	-2.63078	-1.12305
H	0.0168991	-4.30921	0.700753
H	-1.09308	-3.24102	1.64655
H	0.701557	-3.106	1.86326
N	-0.181717	-1.01217	0.404095
C	-0.148195	0.0754582	-0.540769
C	0.203213	1.34068	0.217486
O	0.155821	1.37108	1.44576
H	-0.281747	-0.745992	1.35912
H	0.64055	-0.107063	-1.25955
C	-1.50874	0.243676	-1.25333
H	-2.31571	0.430104	-0.512956
H	-1.48639	1.0802	-1.98169
H	-1.75523	-0.690176	-1.80406
N	0.587298	2.41392	-0.50129
C	0.952135	3.65823	0.134922
H	0.626105	2.36721	-1.49404
H	1.23635	4.41965	-0.624494
H	1.81611	3.50944	0.822416
H	0.100999	4.05888	0.731769
C	7.34506	3.121	-1.37425
C	7.61914	1.67236	-1.50661
O	7.51985	1.10587	-2.58631
H	7.05376	3.53175	-2.36535
H	8.25337	3.65125	-1.0184
H	6.51426	3.28951	-0.657093
N	7.97036	1.03081	-0.389735
C	8.26868	-0.378761	-0.358899
C	8.10998	-0.857398	1.07112
O	8.02873	-0.0533099	1.99777
H	8.01944	1.49759	0.489265
H	7.54221	-0.905489	-0.964604
C	9.70353	-0.661093	-0.857501
H	10.4462	-0.118662	-0.234315
H	9.93649	-1.74553	-0.835211
H	9.80717	-0.304829	-1.90559
N	8.04003	-2.18666	1.28126
C	7.87719	-2.73443	2.60777
H	8.10057	-2.8209	0.517514
H	7.84332	-3.84569	2.57291
H	6.93165	-2.36932	3.07025
H	8.72328	-2.42981	3.26542
