44
  This energy is -4.183 and Call times are: 23592
C	0.87499	-1.67948	2.9223
C	0.397537	-1.6674	1.5212
O	0.248304	-2.70752	0.894801
H	1.05469	-2.72954	3.24004
H	0.111991	-1.22747	3.59039
H	1.82464	-1.1105	3.00809
N	0.149361	-0.468158	0.989607
C	-0.320609	-0.294209	-0.361577
C	0.00146576	1.12488	-0.787828
O	0.333711	1.97011	0.0410477
H	0.302661	0.373406	1.50069
H	0.224906	-0.965155	-1.01297
C	-1.84113	-0.547943	-0.46531
H	-2.39764	0.141603	0.204717
H	-2.2063	-0.415004	-1.50442
H	-2.06408	-1.59032	-0.149262
N	-0.0690175	1.41402	-2.10215
C	0.231573	2.73523	-2.60237
H	-0.332866	0.714413	-2.75802
H	0.11486	2.77312	-3.70789
H	1.27825	3.02199	-2.35041
H	-0.451525	3.49105	-2.15149
C	3.51215	-3.04068	-0.177748
C	4.29807	-1.95007	-0.797525
O	4.70735	-2.03961	-1.94686
H	3.39641	-3.8708	-0.908059
H	2.5051	-2.67128	0.108966
H	4.03493	-3.42499	0.723333
N	4.53409	-0.881054	-0.0334214
C	5.2833	0.259986	-0.495536
C	5.79351	1.00641	0.721746
O	5.34577	0.764157	1.84097
H	4.22017	-0.832479	0.911051
H	6.14391	-0.0866468	-1.05344
C	4.40922	1.19299	-1.36307
H	3.5269	1.54619	-0.787838
H	4.98303	2.07254	-1.72069
H	4.04075	0.634076	-2.25076
N	6.76409	1.92187	0.532246
C	7.31978	2.67303	1.63368
H	7.11829	2.09844	-0.380222
H	8.10338	3.37605	1.27456
H	7.7795	1.98906	2.3834
H	6.52658	3.26407	2.14621
