44
  This energy is -4.2808 and Call times are: 3890
C	-2.16526	-2.41002	-1.27654
C	-0.918544	-2.01748	-0.581702
O	-0.190244	-2.85521	-0.0676271
H	-2.28202	-3.51439	-1.22558
H	-2.12242	-2.10202	-2.34243
H	-3.04162	-1.93309	-0.789218
N	-0.645538	-0.711116	-0.546258
C	0.529902	-0.175293	0.0925402
C	0.267702	1.28615	0.400233
O	-0.684766	1.8745	-0.10817
H	-1.26162	-0.0361248	-0.943458
H	0.683037	-0.687335	1.03405
C	1.77423	-0.312625	-0.812946
H	1.61343	0.213247	-1.7782
H	2.68114	0.0988383	-0.324076
H	1.95486	-1.38759	-1.03196
N	1.09993	1.90248	1.26251
C	0.921381	3.2893	1.62449
H	1.86074	1.40724	1.66889
H	1.70679	3.6125	2.34277
H	-0.0740521	3.44632	2.09957
H	0.980534	3.94154	0.723232
C	6.31487	3.38488	0.0684662
C	5.98627	2.13971	-0.661441
O	5.80152	2.14535	-1.87071
H	6.34544	4.2338	-0.648652
H	7.30751	3.29131	0.557069
H	5.54229	3.59253	0.838499
N	5.89942	1.02765	0.0721459
C	5.58802	-0.260249	-0.49458
C	5.06744	-1.14633	0.620359
O	5.20573	-0.821339	1.79811
H	6.02342	1.0411	1.06077
H	4.7928	-0.142599	-1.21974
C	6.83208	-0.903251	-1.14726
H	7.64613	-1.02186	-0.400697
H	6.59581	-1.89499	-1.58477
H	7.20441	-0.243996	-1.96145
N	4.43346	-2.28303	0.271097
C	3.89395	-3.18293	1.26371
H	4.32534	-2.52493	-0.687562
H	3.41287	-4.06072	0.77864
H	3.13047	-2.66598	1.88909
H	4.69976	-3.5529	1.93823
