44
  This energy is -0.9204 and Call times are: 23807
C	0.735288	2.89581	1.78879
C	-0.0337274	2.16246	0.758252
O	-0.988476	2.6792	0.194404
H	0.29457	3.90721	1.9255
H	1.79354	3.00493	1.47097
H	0.694361	2.35218	2.75613
N	0.369789	0.918283	0.49073
C	-0.277184	0.0798955	-0.486696
C	0.0717503	-1.36105	-0.168627
O	0.979764	-1.6295	0.615769
H	1.13094	0.498208	0.977688
H	-1.34988	0.188024	-0.388192
C	0.178305	0.432817	-1.92026
H	1.27932	0.321457	-2.01758
H	-0.318052	-0.210749	-2.67539
H	-0.0819272	1.49108	-2.14052
N	-0.661086	-2.32636	-0.757805
C	-0.409289	-3.72612	-0.505925
H	-1.39632	-2.08868	-1.38404
H	-1.11483	-4.36281	-1.08393
H	-0.533298	-3.95905	0.576484
H	0.630197	-3.99775	-0.800649
C	3.88134	1.52853	-0.252425
C	4.78394	0.372104	-0.450453
O	4.35364	-0.708556	-0.82928
H	2.83875	1.22589	-0.491732
H	4.17612	2.3631	-0.922812
H	3.92304	1.87038	0.803199
N	6.07677	0.577162	-0.187992
C	7.07648	-0.450578	-0.333494
C	8.27255	-0.0602651	0.512861
O	8.38016	1.07953	0.961332
H	6.41058	1.45389	0.147953
H	6.68498	-1.38039	0.0592552
C	7.50166	-0.616766	-1.80954
H	7.90218	0.339147	-2.20945
H	8.27123	-1.40744	-1.92519
H	6.6165	-0.901495	-2.4191
N	9.19322	-1.01019	0.769749
C	10.3592	-0.733952	1.57614
H	9.08458	-1.92858	0.4037
H	10.9961	-1.64102	1.67031
H	10.0613	-0.407206	2.59874
H	10.9702	0.0776071	1.1187
