44
  This energy is -0.2533 and Call times are: 15385
C	0.371607	3.22746	-1.2536
C	0.889619	1.8663	-0.98885
O	1.96867	1.50216	-1.43557
H	1.0995	3.78092	-1.88584
H	0.234404	3.77704	-0.298635
H	-0.599197	3.17014	-1.78951
N	0.114636	1.07054	-0.24822
C	0.482418	-0.280075	0.0944378
C	-0.784164	-1.0294	0.459849
O	-1.83254	-0.424206	0.675429
H	-0.775569	1.36904	0.0854917
H	0.908996	-0.760434	-0.776974
C	1.47691	-0.309565	1.27648
H	1.03633	0.184634	2.16854
H	1.76233	-1.34801	1.54284
H	2.39985	0.243602	0.996598
N	-0.720476	-2.37428	0.516654
C	-1.8787	-3.17242	0.844816
H	0.135467	-2.84594	0.331887
H	-1.62371	-4.25511	0.842298
H	-2.6949	-3.00286	0.10569
H	-2.26649	-2.90579	1.85462
C	7.80898	2.16508	2.55322
C	7.55141	0.805405	2.02772
O	7.83444	-0.189358	2.68105
H	8.27289	2.08774	3.56052
H	6.85635	2.72901	2.63867
H	8.5022	2.71107	1.87922
N	7.00466	0.733284	0.811898
C	6.69487	-0.517773	0.167136
C	6.59636	-0.261509	-1.32413
O	6.51974	0.885206	-1.76117
H	6.80555	1.5505	0.277624
H	7.51239	-1.20886	0.328836
C	5.36776	-1.10839	0.693513
H	4.53137	-0.39655	0.526625
H	5.12628	-2.07181	0.199261
H	5.45248	-1.29042	1.78705
N	6.61822	-1.33015	-2.14481
C	6.54145	-1.18274	-3.57958
H	6.68792	-2.24967	-1.77216
H	6.57247	-2.17607	-4.07917
H	7.39383	-0.5733	-3.95808
H	5.59536	-0.672391	-3.87221
