44
  This energy is -4.8823 and Call times are: 29959
C	-3.10762	0.884625	1.29856
C	-1.88289	1.19536	0.527405
O	-1.77788	2.24108	-0.0986458
H	-3.83334	1.71939	1.18736
H	-2.86174	0.76317	2.37448
H	-3.57287	-0.0491386	0.918335
N	-0.916762	0.274304	0.552365
C	0.332735	0.433006	-0.147919
C	0.938121	-0.944084	-0.338623
O	0.506859	-1.91216	0.284817
H	-1.02599	-0.586461	1.04235
H	0.136023	0.844686	-1.1297
C	1.30747	1.33756	0.638708
H	1.50654	0.912607	1.64563
H	2.27054	1.46201	0.102252
H	0.851884	2.34286	0.772747
N	1.94389	-1.0672	-1.22703
C	2.57377	-2.34142	-1.48354
H	2.27398	-0.273223	-1.72691
H	3.37915	-2.23607	-2.24349
H	1.82913	-3.07869	-1.86193
H	3.02335	-2.7525	-0.55076
C	5.32054	-3.22566	1.31162
C	5.29438	-1.75449	1.47342
O	5.09832	-1.24176	2.56665
H	5.13516	-3.70683	2.2965
H	6.31241	-3.55139	0.933577
H	4.53058	-3.54672	0.600397
N	5.48919	-1.03272	0.367321
C	5.49217	0.408397	0.364811
C	5.21631	0.872409	-1.05217
O	5.28672	0.0871421	-1.99569
H	5.61887	-1.46214	-0.522465
H	4.68294	0.763022	0.990478
C	6.84656	0.968942	0.853213
H	7.67456	0.602611	0.209532
H	6.85226	2.07833	0.852675
H	7.03746	0.620919	1.89176
N	4.87247	2.16299	-1.23153
C	4.58004	2.69177	-2.54342
H	4.81398	2.78101	-0.454439
H	4.32001	3.77158	-2.48317
H	3.72206	2.14979	-3.00316
H	5.46008	2.58003	-3.21738
