44
  This energy is -0.6495 and Call times are: 29832
C	0.248387	-0.149882	-3.47015
C	0.776943	-0.421676	-2.11444
O	1.78107	-1.10114	-1.95148
H	0.893323	-0.652451	-4.22338
H	0.248245	0.942527	-3.66881
H	-0.786094	-0.542395	-3.56357
N	0.0962504	0.107999	-1.09539
C	0.486515	-0.0678278	0.280696
C	-0.730789	0.191084	1.14694
O	-1.73186	0.730501	0.679265
H	-0.736828	0.635384	-1.23955
H	0.785597	-1.09714	0.432845
C	1.62957	0.896484	0.668812
H	1.31958	1.9515	0.510858
H	1.93264	0.763662	1.72772
H	2.51489	0.697468	0.0263531
N	-0.679989	-0.210076	2.43243
C	-1.79562	-0.0163464	3.3291
H	0.13649	-0.651218	2.79019
H	-1.55931	-0.411066	4.34182
H	-2.70071	-0.54376	2.94979
H	-2.04093	1.06632	3.42313
C	6.68105	2.26849	-2.41607
C	7.74806	1.51543	-1.71924
O	8.90389	1.53964	-2.11921
H	7.1164	2.79674	-3.29203
H	6.23207	3.01817	-1.73108
H	5.89147	1.5734	-2.77154
N	7.37492	0.813714	-0.646519
C	8.29838	0.031207	0.135612
C	7.49848	-1.00238	0.904438
O	6.27596	-0.909314	0.997368
H	6.42493	0.778671	-0.347804
H	8.96446	-0.499123	-0.533092
C	9.09934	0.918744	1.11432
H	8.4129	1.46184	1.7984
H	9.81147	0.319423	1.71803
H	9.67996	1.67234	0.538882
N	8.17273	-2.02951	1.45794
C	7.49398	-3.06752	2.19823
H	9.16113	-2.0909	1.36554
H	8.2204	-3.8207	2.57543
H	6.75158	-3.58958	1.55205
H	6.95042	-2.63711	3.07027
