44
  This energy is 0.1433 and Call times are: 11120
C	-3.48084	-0.0320997	0.0940826
C	-2.19018	0.668692	-0.0910631
O	-2.14985	1.82758	-0.480749
H	-4.31307	0.653081	-0.177541
H	-3.60034	-0.340035	1.15414
H	-3.52642	-0.929297	-0.558532
N	-1.08896	-0.0342374	0.183849
C	0.238913	0.510143	0.0525597
C	1.20788	-0.649687	-0.0704807
O	0.854194	-1.79571	0.200395
H	-1.13393	-0.986867	0.472659
H	0.294874	1.08414	-0.863669
C	0.610615	1.38611	1.26978
H	0.551513	0.794297	2.20807
H	1.6324	1.807	1.17188
H	-0.107254	2.23136	1.34958
N	2.45427	-0.379453	-0.505781
C	3.44143	-1.42165	-0.665488
H	2.71909	0.553446	-0.726687
H	4.40342	-0.999446	-1.03098
H	3.09238	-2.1844	-1.39871
H	3.63025	-1.93618	0.304456
C	-0.894881	1.71715	1.16884
C	0.470095	1.17451	1.35211
O	1.12257	1.42902	2.3551
H	-1.16165	2.34458	2.04692
H	-1.62809	0.887691	1.08383
H	-0.938085	2.34359	0.253059
N	0.940141	0.406358	0.366534
C	2.24996	-0.193714	0.400116
C	2.64481	-0.530482	-1.02463
O	1.80966	-0.522353	-1.92701
H	0.410129	0.230197	-0.458688
H	2.96005	0.532236	0.7754
C	2.26173	-1.47019	1.27051
H	1.53165	-2.21249	0.883089
H	3.2688	-1.93471	1.29868
H	1.96965	-1.21028	2.31132
N	3.94019	-0.814836	-1.26369
C	4.41093	-1.13552	-2.591
H	4.60209	-0.809195	-0.521332
H	5.50417	-1.34042	-2.58168
H	4.21873	-0.290275	-3.2909
H	3.88857	-2.03667	-2.98626
