44
  This energy is 0.102 and Call times are: 17160
C	-3.21936	0.686627	1.13594
C	-2.27344	0.280241	0.0723235
O	-2.67455	-0.116888	-1.01299
H	-4.26112	0.557233	0.770061
H	-3.06155	1.75318	1.40122
H	-3.07451	0.0562234	2.03847
N	-0.974653	0.367089	0.368917
C	0.0653623	0.00827062	-0.561913
C	1.3258	-0.271961	0.233074
O	1.41165	0.0614824	1.41345
H	-0.660984	0.664495	1.26675
H	-0.215174	-0.907173	-1.06722
C	0.321526	1.13948	-1.58262
H	0.608446	2.07729	-1.06079
H	1.12166	0.866445	-2.30097
H	-0.609539	1.33598	-2.15765
N	2.33041	-0.914946	-0.394089
C	3.56374	-1.23505	0.286058
H	2.23894	-1.18284	-1.34756
H	4.265	-1.76155	-0.398254
H	3.36914	-1.89384	1.16319
H	4.06172	-0.308753	0.653729
C	0.447516	1.35075	2.00977
C	0.903685	0.446131	0.930522
O	0.141833	-0.362824	0.41899
H	-0.622651	1.14737	2.23167
H	0.553738	2.40934	1.69208
H	1.04426	1.17979	2.93043
N	2.18097	0.562162	0.5598
C	2.77086	-0.24764	-0.476099
C	4.2742	-0.234411	-0.278536
O	4.80223	0.582775	0.473276
H	2.79924	1.20491	1.00427
H	2.43273	-1.26946	-0.359349
C	2.41486	0.288706	-1.88063
H	2.76259	1.33738	-1.99673
H	2.86734	-0.332605	-2.68064
H	1.31096	0.275002	-2.0124
N	4.99936	-1.15998	-0.936921
C	6.43554	-1.23153	-0.801115
H	4.5528	-1.81719	-1.53516
H	6.84863	-2.05675	-1.4221
H	6.72118	-1.41469	0.260065
H	6.90915	-0.277013	-1.12632
