44
  This energy is -1.2103 and Call times are: 16315
C	-0.503057	0.282594	-3.43412
C	-1.00753	0.0837976	-2.05674
O	-2.2075	0.0494364	-1.8214
H	-1.36433	0.389247	-4.12889
H	0.106003	-0.591003	-3.74828
H	0.116523	1.20259	-3.48588
N	-0.0851146	-0.0476778	-1.10058
C	-0.420323	-0.247421	0.286703
C	0.778857	0.162195	1.11942
O	1.87789	0.335593	0.596067
H	0.889233	0.0112495	-1.30086
H	-1.24158	0.407772	0.548112
C	-0.785631	-1.72157	0.570508
H	0.0588407	-2.39099	0.300573
H	-1.04443	-1.87887	1.63778
H	-1.66463	-2.00965	-0.0463557
N	0.588373	0.348303	2.44044
C	1.66896	0.750274	3.31045
H	-0.310138	0.209913	2.84387
H	1.31315	0.848794	4.35971
H	2.08807	1.7312	2.98893
H	2.49164	-0.00064883	3.28815
C	7.11886	0.620679	-3.42444
C	6.76737	1.01492	-2.0416
O	6.35568	2.13897	-1.78959
H	6.95034	1.48251	-4.10613
H	6.48279	-0.227713	-3.75377
H	8.18744	0.323669	-3.47799
N	6.93091	0.0831148	-1.0996
C	6.63187	0.316289	0.290736
C	7.3965	-0.705571	1.1095
O	7.90908	-1.68546	0.571989
H	7.29465	-0.819664	-1.31318
H	6.99391	1.298	0.568673
C	5.11697	0.193642	0.568518
H	4.74878	-0.814445	0.281621
H	4.88318	0.372747	1.63812
H	4.56806	0.946604	-0.0380224
N	7.50945	-0.487018	2.43444
C	8.22933	-1.39935	3.29211
H	7.09366	0.31554	2.84948
H	8.20775	-1.04725	4.34701
H	9.29324	-1.48266	2.97213
H	7.77624	-2.41637	3.25251
