44
  This energy is -3.325 and Call times are: 24965
C	-0.678998	-1.67674	2.9755
C	-0.197693	-1.65222	1.57588
O	0.329181	-2.63398	1.07087
H	-0.470551	-2.67498	3.41814
H	-1.77323	-1.49106	3.00708
H	-0.155448	-0.901765	3.57405
N	-0.366425	-0.507009	0.910757
C	0.0496803	-0.329148	-0.457472
C	0.193502	1.15889	-0.711025
O	-0.268058	1.9789	0.0804166
H	-0.77066	0.294969	1.34245
H	1.02439	-0.781197	-0.590413
C	-0.974289	-0.93907	-1.44063
H	-1.97324	-0.473524	-1.30105
H	-0.656918	-0.804018	-2.49506
H	-1.0714	-2.02901	-1.2438
N	0.860623	1.54291	-1.81713
C	1.05746	2.93814	-2.13461
H	1.23288	0.864117	-2.44155
H	1.62682	3.04894	-3.08372
H	1.62516	3.44929	-1.32364
H	0.0783167	3.45683	-2.25043
C	7.54731	1.79914	-2.16742
C	6.65163	1.7153	-0.991869
O	6.49529	2.67241	-0.246221
H	8.00155	2.81284	-2.21152
H	6.97172	1.62241	-3.10031
H	8.35831	1.04515	-2.08539
N	6.03881	0.545571	-0.79551
C	5.13757	0.310222	0.304123
C	5.05047	-1.18773	0.522733
O	5.47641	-1.9722	-0.322851
H	6.19697	-0.23568	-1.39348
H	5.5547	0.749861	1.20122
C	3.73395	0.887342	0.0144334
H	3.30928	0.434649	-0.90689
H	3.03752	0.708007	0.859176
H	3.81155	1.98493	-0.145005
N	4.51252	-1.62031	1.6801
C	4.39897	-3.02844	1.98084
H	4.18003	-0.969629	2.35486
H	3.92923	-3.18106	2.97748
H	5.4033	-3.51063	1.98921
H	3.77454	-3.5446	1.21608
