44
  This energy is -2.7378 and Call times are: 7420
C	-1.73081	2.84629	1.01442
C	-1.49191	1.3859	1.05157
O	-2.07846	0.669125	1.85074
H	-2.47521	3.11664	1.79457
H	-2.12729	3.14394	0.0209216
H	-0.785809	3.39404	1.21416
N	-0.605139	0.907612	0.175644
C	-0.266854	-0.490639	0.0902788
C	1.08201	-0.602762	-0.593263
O	1.56816	0.35854	-1.18605
H	-0.112318	1.50579	-0.450654
H	-0.162402	-0.889138	1.09146
C	-1.33195	-1.2796	-0.703585
H	-1.437	-0.867712	-1.72995
H	-1.07467	-2.35664	-0.771113
H	-2.31555	-1.18857	-0.193293
N	1.73055	-1.78087	-0.506884
C	3.02528	-1.97714	-1.11626
H	1.32372	-2.54467	-0.0166447
H	3.39198	-3.01168	-0.935994
H	3.76983	-1.26309	-0.695519
H	2.9711	-1.811	-2.21655
C	6.32039	-0.464117	3.26109
C	6.10516	-0.464872	1.79655
O	5.06383	-0.884225	1.31047
H	5.42514	-0.889972	3.76411
H	6.47711	0.573386	3.6242
H	7.20564	-1.0831	3.51829
N	7.10578	0.00798779	1.04988
C	7.04509	0.0719137	-0.388539
C	8.46622	0.147355	-0.911932
O	9.40223	0.398813	-0.155307
H	7.96064	0.319718	1.45607
H	6.60474	-0.843416	-0.763156
C	6.2381	1.30088	-0.863421
H	6.69222	2.2381	-0.476755
H	6.18924	1.35308	-1.97052
H	5.19941	1.23429	-0.472462
N	8.66285	-0.091864	-2.22346
C	9.9827	-0.0538772	-2.80891
H	7.89331	-0.300659	-2.81797
H	9.93632	-0.275262	-3.89799
H	10.6483	-0.805842	-2.32644
H	10.4434	0.951557	-2.67472
