44
  This energy is -1.7341 and Call times are: 8413
C	1.05631	1.90682	-2.71558
C	0.985525	0.629392	-1.97102
O	1.4143	-0.409238	-2.45464
H	1.52783	1.72875	-3.70645
H	1.66802	2.6437	-2.15376
H	0.0359751	2.31617	-2.87145
N	0.42742	0.679449	-0.759252
C	0.287328	-0.479853	0.0852718
C	-0.806419	-0.191245	1.09505
O	-1.22264	0.953786	1.26088
H	0.0555036	1.5262	-0.388261
H	-0.0355619	-1.31827	-0.518781
C	1.6097	-0.80825	0.813691
H	1.93838	0.0542441	1.43191
H	1.50542	-1.70047	1.46472
H	2.40302	-1.01653	0.0630839
N	-1.31463	-1.23379	1.78122
C	-2.36684	-1.05686	2.75473
H	-0.969418	-2.15383	1.62761
H	-2.64717	-2.0312	3.21225
H	-3.27388	-0.619732	2.27782
H	-2.03875	-0.369211	3.56755
C	6.75889	2.35474	-2.43455
C	6.77816	1.86874	-1.03646
O	7.43195	2.44248	-0.176305
H	7.40629	3.25447	-2.51958
H	5.72407	2.62737	-2.73057
H	7.1438	1.56909	-3.11833
N	6.05317	0.777941	-0.777796
C	5.97194	0.186292	0.533761
C	5.53231	-1.25542	0.368104
O	5.07379	-1.65389	-0.700919
H	5.54812	0.302661	-1.49332
H	6.95887	0.180172	0.978743
C	4.97176	0.946734	1.43292
H	3.9605	0.951635	0.973092
H	4.90687	0.493896	2.44361
H	5.30438	2.00165	1.54544
N	5.68351	-2.08018	1.42305
C	5.30389	-3.47208	1.3545
H	6.06314	-1.74044	2.27726
H	5.50369	-3.98231	2.32248
H	5.87766	-3.99696	0.556668
H	4.21889	-3.57261	1.12246
