44
  This energy is -3.2349 and Call times are: 14125
C	-2.44014	2.46003	-0.346524
C	-1.04709	1.97956	-0.487072
O	-0.203087	2.64781	-1.06811
H	-2.53815	3.45162	-0.839488
H	-2.70206	2.56515	0.727334
H	-3.14146	1.74755	-0.829715
N	-0.774606	0.786524	0.0465685
C	0.534247	0.185978	-0.00888841
C	0.371138	-1.3069	0.200758
O	-0.686289	-1.77045	0.623603
H	-1.47787	0.238787	0.491929
H	0.948572	0.335942	-0.997787
C	1.46959	0.774993	1.07061
H	1.04117	0.61999	2.0838
H	2.47829	0.314894	1.03063
H	1.57991	1.86912	0.906701
N	1.41456	-2.09988	-0.113026
C	1.34704	-3.53428	0.042261
H	2.25927	-1.70629	-0.460575
H	2.30447	-4.00876	-0.266686
H	0.527919	-3.95893	-0.582197
H	1.14776	-3.80573	1.10423
C	6.008	-1.67703	3.02656
C	5.81172	-1.56915	1.56333
O	5.34312	-2.49669	0.917894
H	5.67734	-2.68186	3.36839
H	5.40825	-0.903699	3.55104
H	7.08127	-1.54651	3.27953
N	6.17811	-0.4159	0.999296
C	6.04834	-0.160582	-0.413078
C	6.99949	0.964295	-0.772514
O	7.51738	1.65379	0.103967
H	6.58566	0.321433	1.53144
H	6.3593	-1.04167	-0.959945
C	4.59999	0.22961	-0.78341
H	4.284	1.13346	-0.220093
H	4.49648	0.426752	-1.87024
H	3.91302	-0.602072	-0.514089
N	7.26904	1.16184	-2.07801
C	8.17187	2.20144	-2.51428
H	6.84549	0.588689	-2.77179
H	8.26122	2.20491	-3.623
H	9.18682	2.04753	-2.08135
H	7.80578	3.20205	-2.1888
