44
  This energy is -3.6984 and Call times are: 33022
C	-0.617918	-0.0887669	3.42585
C	-0.673802	-0.695967	2.077
O	-1.0381	-1.85301	1.91878
H	-0.938839	-0.83963	4.18022
H	-1.29765	0.787543	3.47937
H	0.41902	0.233417	3.65802
N	-0.30164	0.084242	1.05958
C	-0.302469	-0.363945	-0.310071
C	0.632206	0.5356	-1.09521
O	1.03263	1.59567	-0.617977
H	0.0209261	1.01585	1.20445
H	0.0967617	-1.36942	-0.351514
C	-1.72229	-0.314233	-0.917323
H	-2.12907	0.718551	-0.87257
H	-1.72658	-0.658825	-1.97184
H	-2.39751	-0.976294	-0.332603
N	1.02031	0.11975	-2.31686
C	1.91799	0.904279	-3.13225
H	0.690945	-0.744556	-2.68255
H	2.1156	0.395065	-4.10122
H	2.89099	1.05584	-2.61116
H	1.48077	1.90654	-3.34554
C	8.15927	0.256155	-2.5484
C	6.81324	0.515848	-1.98986
O	6.01543	1.23786	-2.57183
H	8.27255	0.809344	-3.50601
H	8.28994	-0.829187	-2.74277
H	8.94109	0.601147	-1.83939
N	6.5305	-0.0733638	-0.82571
C	5.26313	0.0833385	-0.157836
C	5.4628	-0.257018	1.30624
O	6.48227	-0.83074	1.68486
H	7.1994	-0.63586	-0.347068
H	4.96072	1.12124	-0.215986
C	4.1849	-0.835427	-0.7746
H	4.49868	-1.89937	-0.713867
H	3.20773	-0.717186	-0.262798
H	4.04889	-0.576855	-1.84735
N	4.49689	0.110912	2.17091
C	4.60558	-0.160329	3.5854
H	3.68267	0.580677	1.84596
H	3.71118	0.21748	4.12812
H	5.50874	0.333342	4.01184
H	4.69117	-1.25565	3.77015
