44
  This energy is -2.5642 and Call times are: 27139
C	1.32532	1.01207	-3.05702
C	0.803653	-0.031561	-2.14603
O	0.612295	-1.17469	-2.53736
H	1.48011	0.574042	-4.06698
H	2.29571	1.39844	-2.68034
H	0.599961	1.8491	-3.13561
N	0.552996	0.34822	-0.890922
C	0.0430726	-0.553019	0.111363
C	-0.598422	0.280026	1.20396
O	-0.40247	1.49223	1.26714
H	0.685496	1.28949	-0.591949
H	-0.73044	-1.1687	-0.329869
C	1.16842	-1.4304	0.70374
H	1.96056	-0.795556	1.15495
H	0.779227	-2.12564	1.47572
H	1.63102	-2.03475	-0.10676
N	-1.40215	-0.352206	2.08162
C	-2.06545	0.361011	3.14818
H	-1.55379	-1.33253	2.00947
H	-2.67944	-0.333295	3.76316
H	-2.7355	1.14991	2.73597
H	-1.32062	0.853985	3.81404
C	7.3385	-2.17761	-2.41873
C	6.7381	-0.886249	-2.01487
O	6.60072	0.0261467	-2.81808
H	7.61298	-2.13437	-3.49514
H	6.61072	-3.00218	-2.26632
H	8.25348	-2.37761	-1.82226
N	6.36689	-0.778742	-0.736977
C	5.76797	0.414626	-0.194757
C	5.95882	0.389654	1.3093
O	6.30871	-0.640872	1.88151
H	6.51078	-1.5189	-0.0855161
H	6.29516	1.27866	-0.578925
C	4.26373	0.494993	-0.538153
H	3.72608	-0.393274	-0.143143
H	3.79947	1.41276	-0.122289
H	4.13735	0.511424	-1.64265
N	5.75285	1.53745	1.98468
C	5.92204	1.61207	3.41716
H	5.47703	2.36257	1.50267
H	5.70491	2.63881	3.78582
H	6.96642	1.35041	3.70358
H	5.23475	0.902061	3.93165
