44
  This energy is 0.3376 and Call times are: 3477
C	2.00856	-2.82324	0.34809
C	1.78376	-1.36424	0.457575
O	2.61018	-0.634966	0.988311
H	2.98572	-3.08011	0.811802
H	2.02599	-3.1286	-0.719277
H	1.20347	-3.37543	0.877111
N	0.637231	-0.901452	-0.0460836
C	0.27641	0.493419	-0.0149198
C	-1.22886	0.588875	-0.170748
O	-1.88511	-0.382019	-0.542954
H	-0.0409957	-1.50965	-0.449865
H	0.533324	0.901749	0.954273
C	0.97837	1.28136	-1.14342
H	0.713129	0.859382	-2.13624
H	0.702874	2.3558	-1.12225
H	2.08036	1.20261	-1.01866
N	-1.81557	1.76327	0.133516
C	-3.2446	1.94403	0.0269176
H	-1.26806	2.53504	0.439852
H	-3.53308	2.97784	0.318941
H	-3.78169	1.22929	0.691693
H	-3.58634	1.76664	-1.01851
C	11.9943	-2.31064	-2.58235
C	12.5524	-1.2944	-1.66207
O	13.7565	-1.08582	-1.60524
H	12.8239	-2.79358	-3.14301
H	11.302	-1.83189	-3.30654
H	11.448	-3.08835	-2.0081
N	11.6736	-0.633688	-0.904813
C	12.0637	0.384098	0.0379266
C	10.9459	0.533186	1.05169
O	9.83843	0.0415245	0.843119
H	10.6979	-0.833194	-0.939343
H	12.947	0.0521692	0.568632
C	12.3248	1.73375	-0.667338
H	11.4167	2.07097	-1.21133
H	12.6255	2.51965	0.0556392
H	13.1447	1.61088	-1.40814
N	11.2192	1.20109	2.18977
C	10.2209	1.38274	3.21763
H	12.1237	1.58542	2.34306
H	10.6376	1.95855	4.07322
H	9.86505	0.397937	3.59811
H	9.34102	1.93668	2.81747
