44
  This energy is -1.3365 and Call times are: 25840
C	-1.11097	-3.11784	1.08211
C	-1.19821	-1.64029	1.06116
O	-2.12717	-1.0538	1.59927
H	-1.98634	-3.52971	1.6298
H	-0.181256	-3.43891	1.59725
H	-1.11545	-3.51637	0.0457286
N	-0.217707	-0.997358	0.422708
C	-0.163919	0.438885	0.317171
C	0.727311	0.786548	-0.859297
O	1.45157	-0.0644064	-1.37229
H	0.518103	-1.48772	-0.0367062
H	-1.1563	0.813143	0.0999531
C	0.390087	1.07757	1.61034
H	1.40798	0.690899	1.83054
H	0.432712	2.18342	1.53256
H	-0.270887	0.814484	2.46476
N	0.677669	2.0484	-1.32968
C	1.48165	2.46794	-2.45386
H	0.0798382	2.7206	-0.905431
H	1.30139	3.54033	-2.6878
H	1.23651	1.86584	-3.35864
H	2.56553	2.33443	-2.23354
C	4.94358	0.481944	-1.77579
C	5.7332	-0.192914	-0.721146
O	5.20471	-0.960915	0.070919
H	3.87878	0.173887	-1.69119
H	5.32195	0.195221	-2.77951
H	5.00939	1.58401	-1.65724
N	7.03759	0.0892138	-0.684909
C	7.93575	-0.488843	0.282563
C	9.1569	0.405081	0.377021
O	9.36928	1.27071	-0.469978
H	7.4509	0.738937	-1.31734
H	7.45419	-0.49143	1.25219
C	8.35475	-1.9195	-0.123348
H	8.84783	-1.91325	-1.11881
H	9.04622	-2.36763	0.619504
H	7.45129	-2.56404	-0.190233
N	9.98064	0.228967	1.42889
C	11.1613	1.04136	1.60836
H	9.78772	-0.472122	2.10748
H	11.7079	0.742521	2.52985
H	10.8879	2.11778	1.6966
H	11.8506	0.930291	0.740153
