44
  This energy is -4.7377 and Call times are: 16951
C	0.662887	-0.473187	3.38568
C	0.373501	-0.994396	2.03076
O	0.420181	-2.19304	1.79082
H	0.911864	-1.32123	4.05998
H	-0.22489	0.0578835	3.78896
H	1.52633	0.22412	3.35131
N	0.0688035	-0.0878556	1.09925
C	-0.237167	-0.440534	-0.264139
C	-0.0172565	0.78891	-1.12399
O	0.111087	1.89937	-0.6119
H	0.0625659	0.888121	1.30016
H	0.457697	-1.20194	-0.59504
C	-1.69491	-0.932965	-0.404178
H	-2.40504	-0.149657	-0.063216
H	-1.93382	-1.20551	-1.45271
H	-1.8434	-1.83308	0.231343
N	0.0532824	0.614037	-2.45832
C	0.272208	1.72464	-3.35544
H	-0.0458881	-0.293503	-2.853
H	0.297084	1.37772	-4.41197
H	1.24007	2.2278	-3.12889
H	-0.541293	2.4789	-3.25304
C	5.95019	-1.79061	-2.79588
C	4.88784	-1.28541	-1.89733
O	3.70476	-1.4269	-2.17448
H	5.48321	-2.26819	-3.68454
H	6.57149	-2.54424	-2.26783
H	6.59496	-0.952773	-3.13536
N	5.2952	-0.669539	-0.785074
C	4.38071	-0.12501	0.186538
C	5.12863	0.91387	0.999301
O	6.35514	0.985969	0.951219
H	6.26199	-0.534818	-0.584847
H	3.57586	0.380156	-0.332215
C	3.82508	-1.22733	1.11567
H	4.65348	-1.74395	1.64575
H	3.12047	-0.811522	1.86494
H	3.28052	-1.98265	0.508146
N	4.40027	1.76142	1.7524
C	5.02491	2.79073	2.55023
H	3.40833	1.69156	1.77239
H	4.25899	3.38249	3.09834
H	5.61019	3.4862	1.90601
H	5.72102	2.34219	3.2955
