44
  This energy is -4.2164 and Call times are: 30207
C	-2.46761	1.65646	-1.81471
C	-1.18116	0.929052	-1.73033
O	-0.574118	0.598326	-2.7396
H	-2.73266	1.81117	-2.8832
H	-2.38067	2.64623	-1.3191
H	-3.27279	1.06825	-1.32621
N	-0.734232	0.655143	-0.502487
C	0.501105	-0.0457844	-0.258621
C	0.437955	-0.628434	1.13987
O	-0.424906	-0.26158	1.9353
H	-1.25239	0.904249	0.311392
H	0.581112	-0.870594	-0.9553
C	1.7179	0.89769	-0.386631
H	1.63223	1.74305	0.329017
H	2.67077	0.361179	-0.199618
H	1.75221	1.3188	-1.41504
N	1.34351	-1.5718	1.46549
C	1.35301	-2.19182	2.76997
H	2.02932	-1.86036	0.805464
H	2.17295	-2.93981	2.84389
H	0.386646	-2.71065	2.96541
H	1.50218	-1.42799	3.56714
C	5.2299	-1.29875	3.22877
C	5.42272	-0.175708	2.28389
O	5.54997	0.973159	2.68439
H	5.22037	-0.906184	4.2688
H	6.05938	-2.02997	3.12828
H	4.26328	-1.80678	3.0275
N	5.44276	-0.489238	0.986329
C	5.62191	0.493348	-0.0525447
C	5.08405	-0.0909679	-1.34426
O	4.83682	-1.29193	-1.43595
H	5.30885	-1.42506	0.671286
H	5.02964	1.36804	0.18453
C	7.1109	0.870389	-0.219457
H	7.71567	-0.0293736	-0.461944
H	7.25242	1.6269	-1.01849
H	7.49325	1.29607	0.733826
N	4.86904	0.75481	-2.37111
C	4.3475	0.290936	-3.63563
H	5.06865	1.72441	-2.27488
H	4.24307	1.13573	-4.35163
H	3.34645	-0.178671	-3.49924
H	5.0267	-0.468643	-4.08608
