44
  This energy is -4.1668 and Call times are: 1078
C	1.73814	-3.01628	0.0838506
C	0.759149	-2.06197	0.651362
O	0.064257	-2.36469	1.61156
H	1.69921	-3.9674	0.658068
H	2.76418	-2.59739	0.151571
H	1.49494	-3.22776	-0.978729
N	0.678662	-0.870161	0.0551461
C	-0.225725	0.163115	0.492472
C	-0.43253	1.12148	-0.664246
O	0.308926	1.09269	-1.64468
H	1.22946	-0.646032	-0.744434
H	-1.18415	-0.283445	0.725038
C	0.335521	0.920863	1.71637
H	1.31909	1.37715	1.47448
H	-0.358425	1.7171	2.05582
H	0.48364	0.207641	2.55633
N	-1.46556	1.98321	-0.585022
C	-1.74721	2.92457	-1.64364
H	-2.05852	1.98614	0.213494
H	-2.63415	3.54653	-1.39114
H	-1.95413	2.3907	-2.59937
H	-0.878676	3.60267	-1.80802
C	5.81596	2.27444	-2.61787
C	5.84052	1.93687	-1.17681
O	6.21012	2.75162	-0.342499
H	6.17602	3.31696	-2.75707
H	4.78071	2.19625	-3.01152
H	6.47913	1.5866	-3.18357
N	5.44577	0.704175	-0.849705
C	5.41418	0.228651	0.510334
C	5.43512	-1.28711	0.474534
O	5.22018	-1.89417	-0.572895
H	5.17463	0.040019	-1.54131
H	6.31118	0.558087	1.01919
C	4.15225	0.725199	1.25066
H	3.23391	0.386012	0.725575
H	4.12482	0.360999	2.29823
H	4.14817	1.83686	1.26898
N	5.71798	-1.93561	1.62146
C	5.77191	-3.37776	1.68055
H	5.89606	-1.42627	2.45698
H	6.0172	-3.72025	2.71001
H	6.54933	-3.77063	0.985926
H	4.79216	-3.82006	1.38792
