44
  This energy is -4.6185 and Call times are: 30916
C	2.74261	-1.58681	1.4444
C	2.0889	-0.396475	0.855347
O	2.63788	0.696688	0.865558
H	3.732	-1.29505	1.85894
H	2.8941	-2.36436	0.666406
H	2.11764	-2.00078	2.26354
N	0.878262	-0.586109	0.325476
C	0.117164	0.474709	-0.284625
C	-1.34042	0.056835	-0.293401
O	-1.66161	-1.10849	-0.0682868
H	0.429309	-1.47538	0.349344
H	0.200655	1.36425	0.326786
C	0.598149	0.755057	-1.72587
H	0.511754	-0.159777	-2.35015
H	0.0143298	1.57145	-2.19855
H	1.66743	1.05901	-1.70587
N	-2.26245	1.00976	-0.533803
C	-3.67477	0.707672	-0.550173
H	-1.9829	1.94849	-0.706645
H	-4.26999	1.62198	-0.766997
H	-4.00128	0.302343	0.434886
H	-3.90485	-0.0537518	-1.33022
C	6.09057	-3.40059	0.736457
C	6.32644	-1.98198	1.08736
O	6.69979	-1.66102	2.20722
H	6.2988	-4.03781	1.62328
H	6.76347	-3.70674	-0.0919791
H	5.03417	-3.54814	0.427935
N	6.10384	-1.08734	0.12173
C	6.2893	0.329237	0.310753
C	5.47857	1.05066	-0.748261
O	5.02483	0.442087	-1.71552
H	5.77186	-1.35887	-0.777715
H	5.89155	0.610244	1.27766
C	7.77944	0.721453	0.197851
H	8.18443	0.431127	-0.795029
H	7.92585	1.81153	0.343038
H	8.36261	0.185502	0.978117
N	5.25872	2.3691	-0.576826
C	4.48788	3.13647	-1.52716
H	5.62831	2.84212	0.216201
H	4.42125	4.2009	-1.21128
H	3.45374	2.73094	-1.61291
H	4.95823	3.09893	-2.53639
