44
  This energy is -1.338 and Call times are: 3393
C	0.594284	1.96414	-2.81338
C	0.976329	1.45537	-1.47682
O	2.0712	1.70788	-0.993102
H	1.43557	2.55574	-3.23543
H	-0.299692	2.6177	-2.73276
H	0.372281	1.11725	-3.49633
N	0.0674231	0.709796	-0.844066
C	0.292551	0.144357	0.462236
C	-0.665315	-1.01786	0.638234
O	-1.61209	-1.1741	-0.13056
H	-0.809711	0.486947	-1.26109
H	1.29983	-0.250014	0.506109
C	0.0668812	1.19202	1.57516
H	-0.967233	1.59499	1.5268
H	0.239535	0.76001	2.5823
H	0.773673	2.03863	1.43431
N	-0.426572	-1.87719	1.64846
C	-1.27794	-3.01954	1.88591
H	0.3489	-1.7376	2.25541
H	-0.918013	-3.60291	2.76191
H	-1.28968	-3.69214	0.99781
H	-2.32451	-2.69476	2.08689
C	5.63007	2.04458	-2.81371
C	5.71479	1.85104	-1.34859
O	5.88686	2.79862	-0.594285
H	5.75182	3.1242	-3.04921
H	4.64164	1.70438	-3.18801
H	6.43445	1.47278	-3.32258
N	5.59949	0.59586	-0.908598
C	5.66078	0.248683	0.488735
C	6.01699	-1.22184	0.588256
O	5.95184	-1.95257	-0.398468
H	5.48875	-0.170935	-1.53525
H	6.45768	0.812573	0.95677
C	4.31316	0.51785	1.19484
H	3.49777	-0.0616818	0.71173
H	4.35688	0.251763	2.27097
H	4.06299	1.59813	1.11383
N	6.42525	-1.68648	1.78552
C	6.79642	-3.06974	1.97263
H	6.47812	-1.07775	2.5703
H	7.10147	-3.25602	3.02596
H	7.64818	-3.34135	1.30782
H	5.94171	-3.74221	1.73089
