44
  This energy is -3.3133 and Call times are: 25153
C	1.48204	-1.06024	2.96742
C	0.830068	-1.33547	1.66727
O	0.753719	-2.47403	1.22641
H	1.85236	-2.01418	3.40183
H	0.754674	-0.603423	3.67103
H	2.3418	-0.371841	2.82645
N	0.343119	-0.278756	1.0126
C	-0.318591	-0.386494	-0.263076
C	-0.264552	0.973104	-0.932261
O	0.045947	1.97647	-0.292978
H	0.437376	0.647172	1.36857
H	0.229499	-1.0818	-0.886145
C	-1.78646	-0.839824	-0.0988349
H	-2.34562	-0.124634	0.541443
H	-2.2989	-0.923959	-1.07919
H	-1.81241	-1.83634	0.393539
N	-0.546422	1.03354	-2.24866
C	-0.508817	2.28263	-2.9729
H	-0.788564	0.209332	-2.74994
H	-0.772356	2.12538	-4.04204
H	0.508749	2.7338	-2.92546
H	-1.23024	3.01137	-2.53739
C	6.96689	-0.900181	-3.02721
C	6.06666	-0.0461124	-2.22015
O	5.53496	0.944805	-2.70169
H	7.04818	-0.481102	-4.05368
H	6.56024	-1.93137	-3.09125
H	7.97832	-0.929761	-2.56995
N	5.87866	-0.415679	-0.951122
C	5.03097	0.313573	-0.0420342
C	5.44597	-0.0454429	1.37151
O	6.17861	-1.00935	1.5859
H	6.34044	-1.20851	-0.562383
H	5.20191	1.37423	-0.175689
C	3.54126	-0.0319052	-0.262309
H	3.36958	-1.12086	-0.125077
H	2.88572	0.52799	0.435951
H	3.25002	0.234678	-1.30166
N	5.00159	0.740293	2.37209
C	5.35474	0.482891	3.74875
H	4.41543	1.5199	2.17749
H	4.89063	1.23742	4.42146
H	6.45968	0.5242	3.88523
H	5.00575	-0.52778	4.0617
