44
  This energy is -0.574 and Call times are: 24150
C	-0.121284	-0.555883	-3.43546
C	-0.731171	-0.600364	-2.08741
O	-1.90657	-0.902988	-1.93458
H	-0.888371	-0.822598	-4.19461
H	0.716316	-1.28184	-3.50056
H	0.257563	0.465419	-3.65078
N	0.0679339	-0.288417	-1.06443
C	-0.380159	-0.287024	0.305259
C	0.569145	0.583747	1.10514
O	1.64983	0.932997	0.633999
H	1.01594	-0.0152722	-1.20446
H	-1.36215	0.166196	0.353748
C	-0.408891	-1.71719	0.889146
H	0.599963	-2.17939	0.837211
H	-0.753612	-1.71978	1.94363
H	-1.10687	-2.34528	0.29378
N	0.1748	0.974076	2.33321
C	1.00721	1.81375	3.16279
H	-0.706465	0.686822	2.69389
H	0.509264	2.02317	4.13513
H	1.2123	2.78534	2.65763
H	1.98382	1.31861	3.36838
C	4.25505	1.19801	-1.51993
C	5.31405	1.28158	-0.489032
O	5.39908	2.25012	0.25338
H	3.62809	2.11506	-1.4776
H	3.61033	0.313109	-1.33524
H	4.7094	1.11957	-2.53006
N	6.16171	0.252152	-0.424866
C	7.24341	0.188392	0.525233
C	8.26984	-0.794978	-0.00266469
O	7.99289	-1.55717	-0.926896
H	6.09972	-0.517658	-1.05454
H	7.71807	1.15965	0.583709
C	6.74413	-0.260543	1.91674
H	6.25715	-1.25698	1.85296
H	7.57447	-0.310563	2.65079
H	5.99203	0.467317	2.29184
N	9.49341	-0.784787	0.561921
C	10.5384	-1.67706	0.116909
H	9.7002	-0.155547	1.3039
H	11.4688	-1.51745	0.705268
H	10.7703	-1.5048	-0.959099
H	10.2255	-2.73956	0.236861
