44
  This energy is -3.4335 and Call times are: 32627
C	-0.632055	-3.34518	-0.73242
C	0.174617	-2.11196	-0.872616
O	1.24265	-2.11912	-1.46906
H	-0.104188	-4.18784	-1.22955
H	-1.62433	-3.20983	-1.2119
H	-0.771225	-3.59164	0.341279
N	-0.325657	-1.00905	-0.310753
C	0.342599	0.266708	-0.36274
C	-0.198109	1.12225	0.766388
O	-1.22042	0.797201	1.36726
H	-1.18266	-1.02246	0.197482
H	1.40006	0.117504	-0.185034
C	0.110111	0.968611	-1.71935
H	-0.975786	1.1195	-1.89874
H	0.623411	1.95116	-1.76284
H	0.509472	0.331325	-2.53821
N	0.492717	2.23124	1.09637
C	0.0605282	3.10042	2.16591
H	1.32161	2.4734	0.602882
H	0.758851	3.95841	2.2819
H	0.0228431	2.54618	3.13165
H	-0.9576	3.50244	1.95861
C	6.09265	-1.94549	-2.7467
C	6.38402	-0.893265	-1.74714
O	7.49611	-0.390453	-1.66386
H	7.01178	-2.15799	-3.33484
H	5.29389	-1.6051	-3.43875
H	5.76804	-2.87754	-2.23791
N	5.37421	-0.536706	-0.949948
C	5.50288	0.472612	0.0706134
C	4.39476	0.25578	1.08268
O	3.44634	-0.483986	0.827541
H	4.48092	-0.974406	-1.00825
H	6.44711	0.336957	0.582574
C	5.40503	1.89357	-0.528063
H	4.43544	2.02906	-1.05309
H	5.50387	2.67319	0.255016
H	6.22137	2.0394	-1.26865
N	4.50143	0.883301	2.27046
C	3.50064	0.727143	3.30013
H	5.28013	1.47214	2.46053
H	3.76644	1.32365	4.20056
H	3.41069	-0.341588	3.60173
H	2.5047	1.06788	2.93517
