44
  This energy is -2.9006 and Call times are: 33782
C	-2.99306	1.6627	0.634973
C	-1.57064	1.38288	0.93437
O	-0.9581	2.03938	1.76521
H	-3.33939	2.51412	1.26026
H	-3.61477	0.771904	0.864701
H	-3.11335	1.93087	-0.435801
N	-1.00455	0.388124	0.247079
C	0.370797	-0.00274134	0.427304
C	0.808536	-0.753268	-0.815408
O	-0.0187944	-1.15257	-1.63267
H	-1.50597	-0.120192	-0.447989
H	0.982058	0.887298	0.506446
C	0.542589	-0.89649	1.67583
H	-0.0863864	-1.80831	1.5916
H	1.60044	-1.19915	1.81766
H	0.217452	-0.335687	2.57912
N	2.13009	-0.943942	-0.997464
C	2.64083	-1.63725	-2.15706
H	2.78418	-0.606978	-0.328251
H	3.75122	-1.69377	-2.12401
H	2.34445	-1.10957	-3.09245
H	2.23808	-2.67494	-2.20362
C	6.64335	-3.2998	-0.567692
C	6.65293	-1.86583	-0.934906
O	6.17987	-1.4813	-1.99549
H	6.1688	-3.88508	-1.38507
H	6.06301	-3.45157	0.366647
H	7.68184	-3.66434	-0.420773
N	7.20719	-1.03139	-0.0523707
C	7.29089	0.391121	-0.267517
C	8.39194	0.933042	0.623128
O	8.85872	0.249352	1.53226
H	7.6153	-1.36043	0.795049
H	7.57832	0.575283	-1.29491
C	5.95172	1.08913	0.0588296
H	5.65953	0.897565	1.11337
H	6.0126	2.18455	-0.105891
H	5.15323	0.682554	-0.599398
N	8.84938	2.17438	0.366547
C	9.90406	2.76885	1.15423
H	8.46365	2.70905	-0.37815
H	10.138	3.79314	0.789059
H	10.8321	2.15525	1.09513
H	9.60367	2.83827	2.2248
