44
  This energy is -1.7652 and Call times are: 24572
C	0.965016	2.85662	1.74201
C	0.159324	1.62169	1.61153
O	-0.528151	1.21415	2.5377
H	0.826199	3.27981	2.76059
H	0.637519	3.60799	0.993015
H	2.04132	2.62931	1.59088
N	0.233242	0.986482	0.439607
C	-0.492548	-0.226986	0.161124
C	0.197724	-0.92842	-0.992458
O	1.03191	-0.339672	-1.67755
H	0.819571	1.31268	-0.297107
H	-0.434107	-0.877891	1.02425
C	-1.96498	0.0688969	-0.201524
H	-2.02122	0.737427	-1.08697
H	-2.52678	-0.863296	-0.416405
H	-2.4591	0.583764	0.651063
N	-0.120727	-2.21781	-1.22065
C	0.494104	-2.97027	-2.28928
H	-0.792962	-2.67875	-0.650681
H	0.0997616	-4.01	-2.31555
H	1.59863	-3.01773	-2.15139
H	0.289408	-2.49254	-3.2747
C	11.0451	-1.00976	1.1022
C	9.7546	-0.314778	1.30908
O	9.44833	0.138028	2.40346
H	11.6081	-1.03188	2.06053
H	11.6509	-0.473378	0.341848
H	10.8685	-2.05284	0.764975
N	8.95495	-0.219609	0.244247
C	7.66836	0.428125	0.288334
C	6.84656	-0.0883412	-0.876633
O	7.37776	-0.714025	-1.79215
H	9.20314	-0.618147	-0.634674
H	7.16137	0.14181	1.20106
C	7.80862	1.96423	0.199886
H	8.32974	2.2544	-0.737317
H	6.81983	2.46615	0.233708
H	8.41354	2.32994	1.05806
N	5.51941	0.144716	-0.857374
C	4.65525	-0.31942	-1.91756
H	5.10738	0.646737	-0.104091
H	3.60002	-0.0278113	-1.72084
H	4.70174	-1.42913	-2.00488
H	4.96329	0.117031	-2.89521
