44
  This energy is 0.1108 and Call times are: 17663
C	3.07039	1.53112	0.595423
C	2.16688	0.360018	0.653711
O	2.57575	-0.737356	1.00739
H	4.09267	1.22202	0.904052
H	2.71204	2.3254	1.28355
H	3.11288	1.93076	-0.439676
N	0.898194	0.571451	0.295793
C	-0.0990978	-0.468843	0.300754
C	-1.22482	-0.0394614	-0.619903
O	-1.30699	1.12278	-1.01268
H	0.584098	1.46342	-0.0183295
H	0.333596	-1.37303	-0.10826
C	-0.643633	-0.719252	1.72479
H	-1.08619	0.210546	2.14161
H	-1.41165	-1.5198	1.73227
H	0.19082	-1.03197	2.38966
N	-2.11077	-0.979258	-1.00446
C	-3.20866	-0.665805	-1.88909
H	-2.0231	-1.91586	-0.681471
H	-3.82578	-1.57011	-2.08568
H	-2.8303	-0.281021	-2.86378
H	-3.86417	0.115391	-1.44052
C	3.44926	1.9571	2.07337
C	3.18861	0.715596	1.31052
O	4.05008	-0.144288	1.18819
H	4.49097	1.93807	2.4611
H	2.74802	2.0336	2.93083
H	3.32666	2.84339	1.41579
N	1.97484	0.597171	0.767291
C	1.57184	-0.552481	-0.00259364
C	0.397335	-0.143789	-0.870203
O	-0.203627	0.908065	-0.659779
H	1.29142	1.31766	0.849538
H	2.38317	-0.837508	-0.660295
C	1.17123	-1.73051	0.913311
H	0.339127	-1.43442	1.58715
H	0.860519	-2.61744	0.323745
H	2.03968	-2.01958	1.54448
N	0.0557909	-0.961442	-1.88548
C	-1.04129	-0.648587	-2.77133
H	0.558954	-1.80465	-2.0438
H	-1.16543	-1.44343	-3.53948
H	-0.860754	0.318672	-3.29388
H	-1.99418	-0.560241	-2.20091
