44
  This energy is 0.1281 and Call times are: 3153
C	0.867897	2.87068	1.76976
C	-0.0883728	2.07627	0.966238
O	-1.24094	2.45168	0.801454
H	0.357819	3.78083	2.15359
H	1.73043	3.17967	1.14256
H	1.2331	2.273	2.63136
N	0.376685	0.938414	0.445298
C	-0.433005	0.0587793	-0.359359
C	0.206315	-1.31595	-0.33428
O	1.35368	-1.46813	0.0807347
H	1.30928	0.628973	0.610961
H	-1.41397	-0.0263918	0.0906758
C	-0.541452	0.567796	-1.8141
H	0.466735	0.654626	-2.2725
H	-1.16436	-0.107104	-2.43641
H	-1.0102	1.57596	-1.8187
N	-0.534586	-2.35776	-0.760539
C	-0.0138501	-3.70498	-0.761798
H	-1.46356	-2.21508	-1.08594
H	-0.772952	-4.41963	-1.14948
H	0.267888	-4.01825	0.269574
H	0.893854	-3.77494	-1.40395
C	5.82454	-3.00475	1.64547
C	4.9927	-1.8061	1.39547
O	3.88477	-1.68847	1.90059
H	5.27415	-3.70055	2.3154
H	6.7778	-2.71361	2.13471
H	6.04393	-3.52475	0.689229
N	5.51657	-0.877908	0.591491
C	4.82852	0.342643	0.254339
C	5.43694	0.8822	-1.02548
O	6.50424	0.441961	-1.44845
H	6.40798	-0.998678	0.162846
H	3.78875	0.116753	0.0545267
C	4.95308	1.3891	1.38417
H	6.02107	1.61799	1.58701
H	4.42429	2.3301	1.12791
H	4.50487	0.981351	2.31637
N	4.75617	1.83924	-1.68625
C	5.25189	2.40431	-2.91959
H	3.89065	2.17728	-1.33151
H	4.55177	3.17663	-3.30767
H	5.36662	1.61348	-3.6959
H	6.24676	2.88029	-2.76196
