44
  This energy is 0.1013 and Call times are: 18166
C	2.99957	0.655691	1.64279
C	1.86342	1.07423	0.791213
O	1.71727	2.24307	0.461142
H	3.61781	1.54497	1.89345
H	3.63142	-0.0806098	1.10293
H	2.62533	0.201205	2.58424
N	1.01731	0.111967	0.416349
C	-0.134638	0.363244	-0.412327
C	-1.11317	-0.776919	-0.20803
O	-0.762366	-1.81354	0.352495
H	1.13097	-0.831598	0.71585
H	-0.616153	1.27372	-0.0787935
C	0.256824	0.466653	-1.90336
H	0.751133	-0.468807	-2.24202
H	-0.627796	0.660255	-2.54425
H	0.974721	1.30464	-2.03952
N	-2.37692	-0.601357	-0.641756
C	-3.38074	-1.62718	-0.479879
H	-2.64312	0.247499	-1.08652
H	-4.35461	-1.2945	-0.901974
H	-3.52906	-1.86507	0.598386
H	-3.07404	-2.56296	-1.00087
C	5.09353	1.91026	-2.25354
C	4.40046	0.660073	-1.86897
O	4.2484	-0.251228	-2.67078
H	5.40404	1.84525	-3.319
H	5.99665	2.05612	-1.62431
H	4.413	2.7789	-2.12986
N	3.95296	0.592376	-0.612974
C	3.2598	-0.558289	-0.0911306
C	2.46579	-0.11346	1.12168
O	2.67905	0.977571	1.64704
H	4.05736	1.35306	0.0221576
H	2.5557	-0.911608	-0.833755
C	4.24751	-1.67929	0.302442
H	4.96879	-1.31319	1.06392
H	3.71711	-2.56686	0.704509
H	4.82379	-1.99546	-0.594268
N	1.51073	-0.944827	1.58287
C	0.696557	-0.600664	2.72517
H	1.34852	-1.8203	1.13962
H	-0.0290989	-1.41315	2.94998
H	0.125163	0.336139	2.53243
H	1.33168	-0.438529	3.62601
