44
  This energy is -0.1666 and Call times are: 7158
C	-0.129792	1.14745	-3.28522
C	0.562005	0.455058	-2.17471
O	1.6184	-0.134235	-2.35706
H	0.45754	1.01959	-4.22039
H	-0.22009	2.23155	-3.06298
H	-1.14176	0.715489	-3.43448
N	-0.0329513	0.507832	-0.980726
C	0.517961	-0.116754	0.195375
C	-0.609333	-0.312313	1.19046
O	-1.68782	0.258346	1.03869
H	-0.908129	0.96634	-0.851228
H	0.895666	-1.09592	-0.0704068
C	1.63472	0.748449	0.820986
H	1.24394	1.75247	1.09183
H	2.06123	0.270392	1.72671
H	2.45386	0.88528	0.0817733
N	-0.391138	-1.14627	2.22628
C	-1.41014	-1.40321	3.21713
H	0.485928	-1.6042	2.32772
H	-1.03866	-2.11367	3.98816
H	-2.31713	-1.84338	2.74293
H	-1.71049	-0.458804	3.72612
C	13.3081	0.35941	-1.42247
C	12.2692	0.751444	-0.443625
O	12.5063	1.56465	0.438954
H	14.2503	0.904191	-1.19601
H	12.9815	0.618735	-2.45151
H	13.5003	-0.732422	-1.36012
N	11.0767	0.166451	-0.578251
C	9.96608	0.445155	0.296813
C	8.99659	-0.717033	0.203822
O	9.09383	-1.54605	-0.699015
H	10.9046	-0.516181	-1.28347
H	10.3253	0.493019	1.31697
C	9.25739	1.76087	-0.0953164
H	8.89071	1.70855	-1.14266
H	8.40183	1.97858	0.576542
H	9.97844	2.60419	-0.0242641
N	8.04655	-0.816138	1.1544
C	7.08707	-1.89576	1.15412
H	7.98875	-0.139225	1.88081
H	6.38828	-1.80105	2.01433
H	7.60335	-2.88021	1.22872
H	6.48904	-1.8899	0.214169
