44
  This energy is -1.8383 and Call times are: 28838
C	0.171049	0.362817	-3.45908
C	0.217911	-0.465794	-2.23335
O	0.274832	-1.68614	-2.2966
H	0.189697	-0.299968	-4.3514
H	1.04969	1.04061	-3.49648
H	-0.761371	0.965447	-3.47842
N	0.188531	0.191547	-1.07171
C	0.22772	-0.475568	0.205099
C	-0.334619	0.474427	1.24458
O	-0.488956	1.66701	0.988124
H	0.112707	1.18438	-1.03327
H	-0.418604	-1.34333	0.168681
C	1.66934	-0.883342	0.582678
H	2.32982	0.00918641	0.618468
H	1.70313	-1.39741	1.56521
H	2.07028	-1.57821	-0.187091
N	-0.675908	-0.0403818	2.44228
C	-1.23016	0.785572	3.48956
H	-0.550018	-1.00934	2.62803
H	-1.44347	0.179136	4.39729
H	-2.18053	1.26036	3.15397
H	-0.518903	1.59638	3.76863
C	6.16155	-0.0191608	-3.44443
C	6.21209	-0.673081	-2.11739
O	6.49636	-1.85772	-2.00638
H	6.40573	-0.765598	-4.23123
H	6.90091	0.807833	-3.49181
H	5.14433	0.383517	-3.63433
N	5.92646	0.097559	-1.06529
C	5.93418	-0.394608	0.289157
C	5.0897	0.542722	1.13029
O	4.75329	1.64381	0.698696
H	5.66792	1.05405	-1.17122
H	5.46481	-1.36993	0.311803
C	7.3707	-0.466197	0.853446
H	7.84947	0.535927	0.828105
H	7.38031	-0.844911	1.89616
H	7.97938	-1.15494	0.227915
N	4.70775	0.115372	2.34991
C	3.89272	0.934406	3.21656
H	4.98425	-0.781807	2.67832
H	3.68672	0.408779	4.17496
H	2.91866	1.172	2.73075
H	4.40702	1.8954	3.44713
