44
  This energy is -3.2301 and Call times are: 1634
C	-0.899108	-2.26668	-2.48594
C	-1.03174	-0.957048	-1.80883
O	-1.73026	-0.0696877	-2.27911
H	-1.5041	-2.26089	-3.41858
H	-1.26706	-3.07861	-1.82397
H	0.163137	-2.45647	-2.74778
N	-0.346969	-0.804713	-0.672943
C	-0.375326	0.411425	0.0997357
C	0.859151	0.433038	0.979984
O	1.53421	-0.58195	1.14101
H	0.241605	-1.52489	-0.315358
H	-0.314357	1.25733	-0.573168
C	-1.64953	0.495686	0.969463
H	-1.70922	-0.37398	1.65811
H	-1.67466	1.43096	1.56562
H	-2.54668	0.477771	0.313004
N	1.19598	1.604	1.55565
C	2.36151	1.72306	2.40037
H	0.640897	2.41587	1.40737
H	2.46756	2.76326	2.77982
H	3.28491	1.46036	1.83508
H	2.285	1.03689	3.27473
C	6.0677	2.79553	-2.07299
C	6.12687	1.33241	-1.85627
O	6.17127	0.554548	-2.79938
H	6.06548	3.00531	-3.16471
H	6.95194	3.28624	-1.61458
H	5.14079	3.21173	-1.62515
N	6.12272	0.920392	-0.586387
C	6.17657	-0.471274	-0.215991
C	5.64031	-0.598519	1.19662
O	5.493	0.395633	1.90499
H	6.05687	1.56265	0.172627
H	5.52162	-1.03464	-0.868465
C	7.6203	-1.01688	-0.287337
H	8.28963	-0.436231	0.382709
H	7.66537	-2.08825	-0.00289703
H	8.00202	-0.916906	-1.32678
N	5.31389	-1.83113	1.63266
C	4.78467	-2.0479	2.95897
H	5.4337	-2.62219	1.04182
H	4.58059	-3.128	3.12925
H	3.83343	-1.48514	3.09924
H	5.508	-1.70149	3.73226
