44
  This energy is -3.6116 and Call times are: 13028
C	-0.827457	0.178006	3.37783
C	0.165977	0.15141	2.28075
O	1.35349	0.349422	2.49779
H	-0.310281	0.400983	4.33631
H	-1.33087	-0.808048	3.46208
H	-1.58694	0.965373	3.18761
N	-0.308469	-0.0925322	1.05692
C	0.534039	-0.150349	-0.110838
C	-0.340415	0.0795916	-1.32809
O	-1.56555	0.0204374	-1.24218
H	-1.28189	-0.223366	0.888798
H	1.25388	0.657031	-0.0656901
C	1.24979	-1.51514	-0.221037
H	0.508379	-2.34119	-0.266466
H	1.89948	-1.56302	-1.11903
H	1.88613	-1.6721	0.677065
N	0.272754	0.3705	-2.4923
C	-0.478495	0.616619	-3.70112
H	1.26494	0.420813	-2.53982
H	0.20477	0.836549	-4.55084
H	-1.16326	1.48533	-3.56811
H	-1.09557	-0.271692	-3.96814
C	7.69096	-2.76065	-0.582607
C	6.36283	-2.14983	-0.349868
O	5.33748	-2.81027	-0.444621
H	7.56132	-3.83398	-0.841465
H	8.31293	-2.68466	0.33402
H	8.20626	-2.24817	-1.42212
N	6.35338	-0.851125	-0.040617
C	5.13965	-0.117142	0.21426
C	5.43518	1.35637	0.0125879
O	6.59399	1.76048	-0.0628366
H	7.19351	-0.317242	0.00495226
H	4.39396	-0.405961	-0.515536
C	4.62392	-0.363963	1.64961
H	5.39165	-0.0672114	2.3957
H	3.68939	0.199589	1.84918
H	4.41227	-1.44703	1.78493
N	4.38607	2.19439	-0.101717
C	4.57034	3.61209	-0.307557
H	3.45583	1.847	-0.0451138
H	3.58856	4.13065	-0.374305
H	5.13205	3.80241	-1.25069
H	5.14693	4.0598	0.534036
