44
  This energy is -4.4893 and Call times are: 22310
C	1.42381	-2.24345	2.25073
C	0.366704	-1.2822	1.86382
O	-0.632779	-1.13004	2.55257
H	1.13408	-2.74592	3.19912
H	2.38633	-1.71192	2.40518
H	1.54956	-3.01296	1.46017
N	0.566156	-0.606026	0.730071
C	-0.371605	0.363678	0.223014
C	-0.111085	0.531896	-1.26126
O	0.919659	0.0973913	-1.77176
H	1.37071	-0.760109	0.162725
H	-1.3758	-0.0239427	0.338867
C	-0.223046	1.72118	0.94568
H	0.808488	2.1156	0.825349
H	-0.943739	2.47012	0.557794
H	-0.415157	1.58421	2.03218
N	-1.05606	1.15152	-1.99549
C	-0.900441	1.34643	-3.41815
H	-1.88651	1.48972	-1.56514
H	-1.78219	1.87629	-3.84125
H	-0.796308	0.367482	-3.93975
H	0.00954285	1.95156	-3.63477
C	5.30674	-0.518803	-3.41929
C	5.51579	-0.915711	-2.00863
O	6.0177	-1.99404	-1.72265
H	5.66221	-1.33374	-4.08666
H	5.8784	0.405828	-3.64529
H	4.22749	-0.341997	-3.61136
N	5.12278	-0.0391615	-1.0815
C	5.26059	-0.282237	0.332274
C	4.28166	0.620298	1.05779
O	3.73478	1.55338	0.472897
H	4.68856	0.823542	-1.32671
H	4.9809	-1.30686	0.542035
C	6.70115	0.000557924	0.813852
H	6.98503	1.05236	0.596495
H	6.81082	-0.185747	1.90199
H	7.40861	-0.666003	0.274093
N	4.02082	0.347634	2.35147
C	3.09348	1.14516	3.1197
H	4.46811	-0.416224	2.80501
H	3.01615	0.763699	4.1617
H	2.07868	1.11888	2.66065
H	3.42726	2.20734	3.15894
