44
  This energy is 0.2185 and Call times are: 28178
C	-3.05365	-1.66395	0.180719
C	-1.57346	-1.65797	0.16637
O	-0.934624	-2.67763	0.387009
H	-3.41451	-2.6883	0.418064
H	-3.44708	-1.36581	-0.81384
H	-3.43188	-0.961673	0.953182
N	-0.987666	-0.486572	-0.092555
C	0.443204	-0.322044	-0.141225
C	0.750453	1.14823	0.0664325
O	-0.138606	1.99373	-0.0144637
H	-1.51882	0.343194	-0.24189
H	0.888527	-0.870232	0.679294
C	1.0186	-0.79922	-1.49338
H	0.559098	-0.235233	-2.33296
H	2.12017	-0.674086	-1.5342
H	0.785839	-1.87726	-1.63407
N	2.02115	1.48558	0.362287
C	2.40511	2.85949	0.588398
H	2.72486	0.786008	0.430323
H	3.49145	2.93181	0.816209
H	1.83791	3.29001	1.44524
H	2.1936	3.48006	-0.312341
C	9.29613	0.661194	-2.53313
C	8.07816	0.994732	-1.76079
O	7.49119	2.05433	-1.9317
H	9.53546	1.50027	-3.222
H	9.12946	-0.258897	-3.13186
H	10.1542	0.504353	-1.84605
N	7.66962	0.0833169	-0.874914
C	6.50198	0.263802	-0.0497558
C	6.63002	-0.658638	1.14688
O	7.46646	-1.55978	1.15926
H	8.173	-0.763343	-0.724213
H	6.48598	1.28137	0.319541
C	5.20708	-0.0548301	-0.83002
H	5.22715	-1.09926	-1.208
H	4.30606	0.0832628	-0.197659
H	5.12564	0.626766	-1.70463
N	5.8127	-0.439167	2.19561
C	5.87059	-1.25909	3.38328
H	5.14733	0.299634	2.16926
H	5.11903	-0.922051	4.13082
H	6.88011	-1.20224	3.85111
H	5.66461	-2.32547	3.13514
