44
  This energy is -2.8242 and Call times are: 4249
C	-0.125264	-1.78366	-2.98814
C	-0.151078	-1.71776	-1.50957
O	-0.405943	-2.70707	-0.836657
H	-0.369717	-2.81802	-3.31401
H	0.88445	-1.51723	-3.3654
H	-0.875364	-1.08543	-3.41566
N	0.111273	-0.527685	-0.964349
C	0.123742	-0.305921	0.459551
C	-0.0677043	1.17867	0.701553
O	0.0513964	1.98598	-0.218174
H	0.288783	0.277393	-1.52406
H	-0.717592	-0.822755	0.903526
C	1.45163	-0.780254	1.0911
H	2.31266	-0.248508	0.632849
H	1.46454	-0.611108	2.18745
H	1.58063	-1.86892	0.905858
N	-0.392354	1.57193	1.94893
C	-0.605934	2.96365	2.27092
H	-0.491133	0.902675	2.67802
H	-0.86197	3.08358	3.3467
H	-1.43975	3.38402	1.66323
H	0.310424	3.56106	2.05979
C	6.61649	-0.39518	3.32203
C	5.62957	-0.000693298	2.2917
O	4.48581	0.307987	2.59669
H	6.13594	-0.359058	4.32384
H	7.4797	0.303098	3.31217
H	6.97535	-1.42876	3.13261
N	6.05731	-0.00845182	1.02705
C	5.21457	0.351007	-0.0853392
C	5.81645	-0.251886	-1.33973
O	6.96403	-0.693347	-1.33678
H	6.98301	-0.289927	0.78875
H	4.237	-0.0921512	0.0562211
C	5.10297	1.88482	-0.233875
H	6.1077	2.33625	-0.378266
H	4.45465	2.1651	-1.08939
H	4.66185	2.31446	0.691851
N	5.04249	-0.303983	-2.44167
C	5.52628	-0.871297	-3.67872
H	4.11399	0.0520205	-2.42195
H	4.74349	-0.820422	-4.46733
H	5.81146	-1.93884	-3.53633
H	6.42414	-0.319275	-4.03968
