44
  This energy is -6.3946 and Call times are: 7462
C	-0.506203	2.30788	-2.55804
C	0.365451	1.62064	-1.57869
O	1.57721	1.78829	-1.58348
H	0.119246	2.93551	-3.22943
H	-1.23376	2.96029	-2.03093
H	-1.05519	1.56248	-3.17118
N	-0.243483	0.813749	-0.706634
C	0.469482	0.0770394	0.306168
C	-0.40589	-1.08166	0.742495
O	-1.59685	-1.11879	0.439053
H	-1.22815	0.662965	-0.731584
H	1.37048	-0.336872	-0.128511
C	0.809083	0.972322	1.51871
H	-0.117453	1.39581	1.96177
H	1.35822	0.408249	2.3004
H	1.44959	1.81788	1.18567
N	0.173665	-2.07079	1.45083
C	-0.578115	-3.21973	1.89909
H	1.1404	-2.02585	1.68026
H	0.0743028	-3.91972	2.4662
H	-1.01085	-3.7689	1.03168
H	-1.41655	-2.90645	2.56246
C	4.49294	-1.04658	3.31954
C	4.6448	0.00744007	2.29134
O	4.70836	1.1891	2.6014
H	4.44727	-0.574837	4.32514
H	5.35925	-1.74033	3.28709
H	3.55612	-1.61725	3.14738
N	4.70117	-0.405223	1.02292
C	4.84785	0.500902	-0.0880485
C	4.36045	-0.209257	-1.33599
O	4.17472	-1.42471	-1.33555
H	4.619	-1.36841	0.781147
H	4.20912	1.36024	0.0720819
C	6.31874	0.938899	-0.266256
H	6.97129	0.0548179	-0.429652
H	6.43525	1.63678	-1.12075
H	6.66416	1.45673	0.654984
N	4.12013	0.541568	-2.42892
C	3.6426	-0.045716	-3.65906
H	4.26973	1.52461	-2.40714
H	3.50777	0.734072	-4.44073
H	2.66407	-0.553471	-3.49809
H	4.36584	-0.802714	-4.03993
