44
  This energy is -4.4134 and Call times are: 30790
C	-0.775768	2.77535	1.95493
C	-0.174677	1.43409	1.77909
O	0.490394	0.917709	2.66652
H	-0.510307	3.16783	2.96059
H	-1.88137	2.7127	1.87399
H	-0.387877	3.47293	1.183
N	-0.395227	0.834472	0.606841
C	0.123219	-0.471618	0.287195
C	0.141205	-0.609009	-1.22278
O	-0.469015	0.187238	-1.93374
H	-0.914321	1.27787	-0.119021
H	1.14593	-0.53922	0.635848
C	-0.742144	-1.58869	0.91203
H	-1.79082	-1.51594	0.552723
H	-0.345676	-2.59568	0.668002
H	-0.748168	-1.47622	2.01813
N	0.864263	-1.61648	-1.75022
C	0.949765	-1.81845	-3.17784
H	1.35689	-2.24605	-1.15844
H	1.58883	-2.69796	-3.41299
H	1.38834	-0.923431	-3.67567
H	-0.0614577	-1.99378	-3.61127
C	5.55264	-3.0764	-1.42045
C	5.55631	-2.1262	-0.28541
O	5.94946	-2.46541	0.822228
H	5.93791	-4.06086	-1.07654
H	6.2051	-2.7003	-2.23633
H	4.51956	-3.20925	-1.80521
N	5.10489	-0.895948	-0.540496
C	5.04727	0.138771	0.460935
C	4.04293	1.17732	0.000550346
O	3.63395	1.18557	-1.15898
H	4.76008	-0.640342	-1.43978
H	4.67965	-0.286929	1.38598
C	6.43022	0.794333	0.672614
H	6.80465	1.22943	-0.278495
H	6.38948	1.59142	1.44318
H	7.1571	0.023012	1.00854
N	3.60399	2.06895	0.910672
C	2.63873	3.08687	0.566733
H	3.94157	2.04138	1.84582
H	2.40648	3.72282	1.44927
H	1.6905	2.62424	0.208844
H	3.03075	3.74228	-0.244398
