44
  This energy is -3.5876 and Call times are: 33528
C	0.613867	2.13529	-2.68139
C	-0.211535	1.12106	-1.98766
O	-1.31598	0.807706	-2.41014
H	0.0625731	2.51204	-3.5702
H	1.57157	1.68471	-3.01696
H	0.824825	2.98745	-2.00149
N	0.314039	0.581966	-0.885154
C	-0.367902	-0.417466	-0.102262
C	0.237182	-0.413024	1.28809
O	1.29935	0.16541	1.50953
H	1.20236	0.86679	-0.534881
H	-1.41016	-0.14006	-0.00829809
C	-0.230595	-1.81941	-0.736942
H	0.839903	-2.10053	-0.832459
H	-0.754662	-2.59135	-0.13674
H	-0.676473	-1.8091	-1.75539
N	-0.440907	-1.04394	2.26694
C	0.0518932	-1.08195	3.6241
H	-1.30233	-1.50009	2.06918
H	-0.64528	-1.64865	4.27989
H	0.157398	-0.0508963	4.03279
H	1.05064	-1.57382	3.66599
C	3.86079	-2.05071	2.03965
C	5.16763	-1.50603	1.60758
O	6.19236	-1.75313	2.22836
H	4.0028	-2.66128	2.95775
H	3.43224	-2.6943	1.24281
H	3.15617	-1.22245	2.26427
N	5.15759	-0.734806	0.517859
C	6.34932	-0.133098	-0.0248782
C	5.92748	1.04156	-0.885967
O	4.75415	1.18285	-1.22533
H	4.31197	-0.517161	0.0377608
H	6.94972	0.254169	0.788521
C	7.15746	-1.14574	-0.866647
H	6.5383	-1.54152	-1.69978
H	8.07582	-0.685765	-1.28594
H	7.45948	-2.00186	-0.224778
N	6.87756	1.92821	-1.24262
C	6.56715	3.08395	-2.05139
H	7.8201	1.80019	-0.952021
H	7.48099	3.68984	-2.23858
H	5.81653	3.73024	-1.54138
H	6.14457	2.77375	-3.03444
