44
  This energy is -4.3387 and Call times are: 28795
C	-2.3565	0.743978	-2.45347
C	-1.05884	0.175056	-2.02497
O	-0.357335	-0.456665	-2.80299
H	-2.53426	0.490053	-3.52108
H	-2.34464	1.84883	-2.34406
H	-3.18078	0.321048	-1.8414
N	-0.709683	0.385986	-0.753769
C	0.522589	-0.104391	-0.189975
C	0.359342	-0.151458	1.3168
O	-0.579837	0.421837	1.86553
H	-1.30332	0.877259	-0.121961
H	0.688748	-1.11715	-0.53463
C	1.71434	0.803684	-0.567129
H	1.54025	1.84202	-0.212635
H	2.6648	0.428907	-0.134761
H	1.82255	0.830701	-1.67334
N	1.26417	-0.858766	2.02179
C	1.18251	-0.969807	3.45956
H	2.01291	-1.32154	1.5587
H	2.01718	-1.59023	3.85409
H	0.220489	-1.44269	3.76308
H	1.23798	0.0360799	3.93527
C	5.05051	0.0118597	3.46934
C	5.37387	0.679799	2.18852
O	5.61727	1.87782	2.14368
H	5.0692	0.761901	4.28967
H	5.79882	-0.778693	3.68813
H	4.03808	-0.44145	3.41982
N	5.37739	-0.0939534	1.10056
C	5.67346	0.410608	-0.216481
C	5.09342	-0.558711	-1.22802
O	4.72118	-1.6788	-0.883521
H	5.1489	-1.06281	1.14591
H	5.17446	1.36218	-0.349114
C	7.19613	0.557066	-0.433566
H	7.70497	-0.420842	-0.296079
H	7.42764	0.9455	-1.44663
H	7.60911	1.26867	0.314245
N	4.98291	-0.13905	-2.50383
C	4.43155	-0.988551	-3.53365
H	5.28316	0.77351	-2.76135
H	4.42682	-0.464629	-4.51483
H	3.38457	-1.27764	-3.28565
H	5.03199	-1.92127	-3.63701
