44
  This energy is -1.0506 and Call times are: 34085
C	2.0747	-1.44236	-2.39611
C	1.34413	-1.48816	-1.1095
O	1.27858	-2.52003	-0.45571
H	2.49749	-2.44708	-2.61437
H	2.90529	-0.707767	-2.33848
H	1.38506	-1.15634	-3.21802
N	0.764701	-0.351667	-0.715797
C	0.0193615	-0.238967	0.512452
C	-0.899834	0.960875	0.391216
O	-0.74378	1.78388	-0.508864
H	0.800678	0.474675	-1.27149
H	-0.601255	-1.11831	0.629369
C	0.958981	-0.0678148	1.72692
H	1.59466	0.834825	1.60336
H	0.388353	0.0191163	2.67434
H	1.62788	-0.952564	1.80401
N	-1.89899	1.07603	1.28812
C	-2.83071	2.1788	1.24392
H	-2.01302	0.395807	2.00473
H	-3.57646	2.09669	2.06511
H	-3.37795	2.19213	0.273561
H	-2.29566	3.15001	1.3519
C	11.3989	1.15588	1.54489
C	10.4718	0.0657548	1.16612
O	10.7576	-1.10642	1.36817
H	12.3151	0.718206	1.99747
H	10.9172	1.82726	2.28656
H	11.6866	1.74295	0.647378
N	9.32406	0.435623	0.593265
C	8.32165	-0.509287	0.170012
C	7.44698	0.171527	-0.864728
O	7.48999	1.39046	-1.02024
H	9.11555	1.39216	0.407535
H	8.80919	-1.34743	-0.31154
C	7.46138	-0.987942	1.36079
H	6.96322	-0.125509	1.85289
H	6.68861	-1.71574	1.03845
H	8.11389	-1.48377	2.11215
N	6.6442	-0.608353	-1.61529
C	5.78508	-0.0499738	-2.63328
H	6.62897	-1.59348	-1.47916
H	5.20244	-0.851232	-3.13901
H	6.38563	0.486028	-3.40353
H	5.06806	0.676738	-2.18724
