44
  This energy is 0.115 and Call times are: 14616
C	3.44018	-0.455888	-0.288947
C	2.24144	-0.044115	0.475703
O	2.31837	0.256252	1.65907
H	4.32686	-0.439779	0.381417
H	3.61487	0.244324	-1.13275
H	3.30723	-1.48491	-0.684394
N	1.08722	-0.0270056	-0.195
C	-0.163874	0.351612	0.411827
C	-1.28419	-0.22612	-0.431002
O	-1.06102	-0.665064	-1.55766
H	1.03276	-0.301908	-1.15124
H	-0.227651	-0.0962678	1.3954
C	-0.303827	1.88772	0.500701
H	-0.237272	2.34398	-0.509999
H	-1.26598	2.18273	0.967606
H	0.523282	2.2988	1.11961
N	-2.51882	-0.259032	0.108071
C	-3.64498	-0.801777	-0.615367
H	-2.67774	0.0945174	1.02403
H	-4.57249	-0.737684	-0.00473421
H	-3.46808	-1.8712	-0.872827
H	-3.81007	-0.241073	-1.56381
C	4.93129	-0.103586	-1.71075
C	3.58242	0.463075	-1.48571
O	3.2082	1.46228	-2.08407
H	5.471	0.518305	-2.45763
H	4.85067	-1.14106	-2.09801
H	5.50818	-0.107281	-0.762004
N	2.8133	-0.171282	-0.597784
C	1.47726	0.259607	-0.271989
C	1.11622	-0.323974	1.08017
O	1.79382	-1.22051	1.57906
H	3.14033	-0.967254	-0.0953734
H	1.46853	1.33808	-0.17773
C	0.460776	-0.20394	-1.33923
H	0.47284	-1.31075	-1.4338
H	-0.568976	0.126283	-1.09156
H	0.736982	0.229291	-2.32522
N	0.0456594	0.190006	1.71714
C	-0.366537	-0.294448	3.01389
H	-0.485616	0.920087	1.30005
H	-1.26747	0.252287	3.36977
H	0.44678	-0.154426	3.76233
H	-0.610609	-1.38051	2.96838
