44
  This energy is 0.1139 and Call times are: 11163
C	3.08244	0.105419	1.61665
C	2.24797	-0.148358	0.420637
O	2.75616	-0.393135	-0.664869
H	4.15612	0.0383172	1.33634
H	2.86774	-0.651118	2.40047
H	2.8784	1.12064	2.01746
N	0.925896	-0.0884125	0.596408
C	-0.0155405	-0.312334	-0.47148
C	-1.33187	0.326679	-0.0737585
O	-1.5326	0.683102	1.08577
H	0.524555	0.14063	1.47924
H	0.337781	0.189895	-1.36311
C	-0.216261	-1.82104	-0.737263
H	-0.578116	-2.33327	0.179688
H	-0.940454	-1.99704	-1.55906
H	0.755342	-2.27762	-1.02651
N	-2.25588	0.506706	-1.03801
C	-3.53378	1.11768	-0.755397
H	-2.07176	0.218047	-1.97183
H	-4.15445	1.17529	-1.67665
H	-3.39672	2.15022	-0.360016
H	-4.09172	0.527268	0.00702723
C	4.07129	-3.34305	-0.971586
C	4.64688	-1.98097	-1.0398
O	5.67304	-1.75861	-1.66752
H	4.71393	-4.04268	-1.54898
H	3.05048	-3.34931	-1.40831
H	4.02378	-3.68623	0.0833619
N	3.98946	-1.02558	-0.37843
C	4.42538	0.347755	-0.351167
C	3.79559	1.01257	0.857393
O	2.87176	0.47166	1.46219
H	3.17065	-1.22494	0.153306
H	5.49951	0.373397	-0.218238
C	4.01639	1.09344	-1.64105
H	2.91392	1.0646	-1.77465
H	4.35062	2.15115	-1.62345
H	4.48314	0.596034	-2.51905
N	4.29915	2.19877	1.25156
C	3.77119	2.90021	2.39848
H	5.05159	2.61679	0.753248
H	4.31593	3.85654	2.55958
H	3.87177	2.28027	3.3187
H	2.691	3.13183	2.25459
