44
  This energy is -1.3745 and Call times are: 11692
C	-0.325629	-1.00545	-3.31801
C	-0.34269	-1.28724	-1.86491
O	-0.705557	-2.37372	-1.4355
H	-0.684014	-1.90133	-3.8701
H	0.707151	-0.768341	-3.64962
H	-0.99368	-0.14935	-3.54985
N	0.0510058	-0.29456	-1.06369
C	0.0892985	-0.417073	0.371703
C	0.0645561	0.980504	0.959414
O	0.272029	1.96399	0.251219
H	0.316581	0.595671	-1.4241
H	-0.803975	-0.929941	0.705023
C	1.35664	-1.16738	0.838594
H	2.27114	-0.638877	0.494361
H	1.38924	-1.26362	1.94333
H	1.36347	-2.18918	0.400371
N	-0.213228	1.10161	2.27249
C	-0.270239	2.39304	2.9168
H	-0.385294	0.294173	2.82716
H	-0.510416	2.28317	3.99731
H	-1.05258	3.03224	2.44711
H	0.706762	2.92079	2.82661
C	5.01598	0.97628	-2.44054
C	5.33828	0.474741	-1.08563
O	4.46849	0.34692	-0.234975
H	3.92751	1.19368	-2.50241
H	5.27352	0.211275	-3.20295
H	5.58118	1.90928	-2.64792
N	6.6193	0.180654	-0.851358
C	7.08752	-0.31754	0.417263
C	8.57699	-0.0467006	0.503147
O	9.21637	0.273495	-0.497102
H	7.32316	0.316682	-1.54346
H	6.60593	0.23715	1.21254
C	6.81348	-1.83107	0.563015
H	7.30843	-2.397	-0.254826
H	7.17263	-2.21792	1.53879
H	5.71919	-2.01635	0.497191
N	9.16213	-0.148573	1.71279
C	10.573	0.102543	1.89326
H	8.62624	-0.401938	2.51145
H	10.8637	-0.0342097	2.95817
H	10.8285	1.14405	1.59119
H	11.1792	-0.595695	1.2718
