44
  This energy is -2.6868 and Call times are: 29916
C	2.70155	-2.10589	0.626904
C	1.44561	-1.44127	1.04176
O	0.90407	-1.71829	2.10312
H	3.00474	-2.83778	1.40682
H	3.50996	-1.35453	0.505522
H	2.5509	-2.64455	-0.332313
N	0.944853	-0.538437	0.195295
C	-0.26953	0.191259	0.459196
C	-0.804334	0.700351	-0.86521
O	-0.100773	0.688569	-1.87352
H	1.37978	-0.342693	-0.67961
H	-1.00515	-0.487368	0.871989
C	-0.0172949	1.37433	1.42036
H	0.738341	2.06817	0.994069
H	-0.950322	1.93827	1.62582
H	0.375321	0.988287	2.38626
N	-2.07723	1.1416	-0.897267
C	-2.67593	1.63365	-2.11613
H	-2.63271	1.13642	-0.072253
H	-3.72682	1.95149	-1.93762
H	-2.67752	0.842323	-2.90037
H	-2.10709	2.5075	-2.50855
C	6.06782	0.515565	3.44373
C	6.71823	0.02791	2.20665
O	7.87487	-0.370356	2.21488
H	6.78911	0.452496	4.28731
H	5.1812	-0.109063	3.68158
H	5.75209	1.57279	3.3191
N	5.97694	0.0550348	1.09665
C	6.46986	-0.386836	-0.183437
C	5.6092	0.24786	-1.25846
O	4.53947	0.782641	-0.972938
H	5.04547	0.409013	1.09717
H	7.4814	-0.0242232	-0.315217
C	6.42114	-1.92638	-0.304023
H	5.38209	-2.29502	-0.167654
H	6.80012	-2.27004	-1.28843
H	7.05452	-2.37929	0.489606
N	6.07015	0.22192	-2.5245
C	5.32493	0.811621	-3.6122
H	6.94152	-0.209314	-2.73421
H	5.86833	0.686292	-4.57463
H	5.16936	1.90079	-3.43682
H	4.32446	0.331172	-3.70918
