44
  This energy is -1.7532 and Call times are: 3932
C	-0.611643	0.418213	3.40252
C	-0.340365	-0.435599	2.22412
O	-0.125643	-1.63363	2.34701
H	-0.573385	-0.203614	4.32324
H	-1.61993	0.875684	3.31951
H	0.15265	1.22011	3.47839
N	-0.338672	0.175247	1.03701
C	-0.091181	-0.521284	-0.20009
C	0.347422	0.500909	-1.23062
O	0.199695	1.70411	-1.02493
H	-0.486151	1.15713	0.95279
H	0.72743	-1.21489	-0.0556807
C	-1.355	-1.26209	-0.691088
H	-2.19299	-0.547644	-0.837551
H	-1.16791	-1.79961	-1.64337
H	-1.66676	-2.00709	0.0730659
N	0.920501	0.0427276	-2.36095
C	1.3802	0.942186	-3.39334
H	1.03767	-0.934294	-2.50563
H	1.81961	0.37414	-4.24275
H	2.15758	1.63349	-2.99456
H	0.537136	1.55806	-3.78208
C	7.71754	3.12853	-1.31385
C	7.33533	1.86714	-0.640042
O	6.21125	1.70902	-0.184047
H	6.85165	3.8257	-1.30674
H	8.00813	2.92719	-2.36639
H	8.56708	3.60512	-0.780857
N	8.28154	0.928981	-0.55684
C	8.06106	-0.350175	0.0692391
C	9.41316	-0.923336	0.44679
O	10.4492	-0.441619	-0.00757758
H	9.20222	1.08094	-0.906401
H	7.49958	-0.202552	0.983038
C	7.31881	-1.31944	-0.87771
H	7.89727	-1.46809	-1.81441
H	7.14727	-2.3053	-0.398731
H	6.33051	-0.887587	-1.14776
N	9.43454	-1.95824	1.30965
C	10.6759	-2.56127	1.73574
H	8.58577	-2.3293	1.67178
H	10.4842	-3.39756	2.44364
H	11.3222	-1.81105	2.24635
H	11.2379	-2.96334	0.861854
