44
  This energy is -2.1041 and Call times are: 4068
C	0.684895	-3.11594	1.3957
C	1.11935	-1.81112	0.848059
O	2.2905	-1.46159	0.900205
H	1.56352	-3.64528	1.82428
H	0.245997	-3.7418	0.590405
H	-0.0685948	-2.96315	2.19685
N	0.166615	-1.0482	0.307126
C	0.433849	0.246474	-0.26667
C	-0.869386	1.02104	-0.296108
O	-1.94365	0.450999	-0.114876
H	-0.788658	-1.33154	0.296849
H	1.12019	0.781789	0.377109
C	1.00954	0.120772	-1.69492
H	0.303188	-0.429481	-2.3525
H	1.2166	1.11582	-2.13965
H	1.96331	-0.449527	-1.65987
N	-0.801744	2.35062	-0.504991
C	-1.98952	3.17178	-0.537624
H	0.0776516	2.79448	-0.642413
H	-1.72652	4.23652	-0.723139
H	-2.53687	3.10958	0.430764
H	-2.67831	2.83473	-1.3458
C	5.06185	3.28635	0.883816
C	5.85974	2.04781	1.02724
O	6.8567	2.01608	1.73545
H	5.52501	4.09403	1.49127
H	4.02471	3.11694	1.24223
H	5.03769	3.60525	-0.179513
N	5.4334	0.984953	0.340992
C	6.10366	-0.290249	0.378993
C	5.69638	-1.06769	-0.857514
O	4.74234	-0.704147	-1.54269
H	4.63648	1.03154	-0.255394
H	7.17275	-0.127485	0.327896
C	5.73183	-1.08344	1.65167
H	4.6343	-1.24804	1.70122
H	6.2463	-2.0658	1.68421
H	6.03423	-0.502818	2.55032
N	6.42898	-2.15043	-1.1846
C	6.12324	-2.94536	-2.35113
H	7.20164	-2.42429	-0.62137
H	6.83779	-3.79226	-2.4482
H	6.18545	-2.32661	-3.27553
H	5.09233	-3.3623	-2.2835
