44
  This energy is 0.1034 and Call times are: 13720
C	-3.0236	1.60977	-0.626579
C	-2.22721	0.539997	0.0157215
O	-2.72912	-0.216775	0.8354
H	-4.06347	1.57915	-0.234672
H	-3.04952	1.45951	-1.72638
H	-2.58319	2.60354	-0.399859
N	-0.944565	0.457518	-0.345366
C	-0.0433558	-0.530548	0.191641
C	1.37299	-0.0284822	-0.0111866
O	1.60363	0.914458	-0.765839
H	-0.540152	1.09837	-0.992433
H	-0.211832	-0.618132	1.25748
C	-0.227368	-1.89735	-0.504864
H	-0.0544516	-1.8037	-1.59823
H	0.464925	-2.66052	-0.0936762
H	-1.2691	-2.25362	-0.349897
N	2.35696	-0.637396	0.679481
C	3.73446	-0.219941	0.559381
H	2.14912	-1.39404	1.29065
H	4.39204	-0.843739	1.20413
H	3.85053	0.844715	0.866428
H	4.08368	-0.315441	-0.494232
C	-0.485721	-0.384996	0.416805
C	0.912909	-0.757046	0.727633
O	1.17264	-1.54983	1.62236
H	-1.17099	-0.922729	1.10754
H	-0.733726	-0.66793	-0.627831
H	-0.629093	0.708332	0.547279
N	1.85955	-0.177544	-0.014263
C	3.26498	-0.438757	0.168432
C	4.0363	0.719162	-0.434491
O	3.47945	1.52794	-1.1745
H	1.63679	0.488792	-0.720883
H	3.48345	-0.463068	1.2285
C	3.6831	-1.7643	-0.506265
H	3.45694	-1.73616	-1.59354
H	4.76465	-1.96859	-0.367399
H	3.1102	-2.60441	-0.0566524
N	5.33935	0.837667	-0.111972
C	6.1507	1.91514	-0.628644
H	5.76998	0.177075	0.494173
H	7.1938	1.83834	-0.250095
H	5.73706	2.90202	-0.318454
H	6.17871	1.88707	-1.74202
