44
  This energy is -5.2868 and Call times are: 32449
C	0.126848	0.601212	-3.42762
C	0.537885	0.900888	-2.0375
O	1.42615	1.70794	-1.80056
H	0.743507	1.20234	-4.13064
H	-0.942471	0.861376	-3.5749
H	0.278467	-0.476503	-3.64782
N	-0.107427	0.240886	-1.07296
C	0.179863	0.425081	0.327174
C	-0.323561	-0.796757	1.07076
O	-1.08113	-1.59683	0.525042
H	-0.809147	-0.435589	-1.2801
H	1.25286	0.473721	0.462769
C	-0.498877	1.69915	0.877795
H	-1.59948	1.64618	0.736458
H	-0.279612	1.84409	1.95561
H	-0.122569	2.58684	0.324135
N	0.106311	-0.980438	2.33467
C	-0.310399	-2.12135	3.11624
H	0.724845	-0.325473	2.75618
H	0.14843	-2.0929	4.12912
H	-0.00473075	-3.07061	2.61956
H	-1.41824	-2.13413	3.23332
C	5.02761	3.27042	-1.16337
C	5.20118	1.80999	-1.33142
O	5.55246	1.3338	-2.40209
H	5.25582	3.7804	-2.12446
H	5.71885	3.65042	-0.381956
H	3.98063	3.50076	-0.874017
N	4.9484	1.05554	-0.259377
C	5.07289	-0.380174	-0.267019
C	4.24047	-0.9261	0.876784
O	3.81981	-0.180848	1.75966
H	4.63476	1.45299	0.598877
H	4.65657	-0.764545	-1.18952
C	6.54607	-0.817898	-0.108112
H	6.9702	-0.4213	0.838955
H	6.64555	-1.92282	-0.113734
H	7.14542	-0.41069	-0.951383
N	3.96426	-2.24508	0.87491
C	3.16896	-2.85203	1.91668
H	4.30782	-2.83028	0.147767
H	3.05541	-3.94416	1.73891
H	2.1534	-2.39528	1.9522
H	3.64792	-2.70665	2.91199
