44
  This energy is -0.9544 and Call times are: 22560
C	2.51218	1.74802	1.66118
C	1.37918	1.68682	0.710512
O	0.916242	2.70344	0.211864
H	2.81023	2.80868	1.80956
H	3.37984	1.18382	1.25912
H	2.21385	1.31815	2.64055
N	0.897202	0.471584	0.439817
C	-0.202354	0.250563	-0.465144
C	-0.805597	-1.10292	-0.143559
O	-0.207646	-1.90338	0.573069
H	1.26401	-0.34642	0.874852
H	-0.962221	1.00046	-0.285355
C	0.264661	0.287791	-1.93743
H	1.04464	-0.482323	-2.11819
H	-0.579534	0.118111	-2.63695
H	0.705608	1.28387	-2.16001
N	-2.022	-1.38188	-0.652026
C	-2.68011	-2.64056	-0.389716
H	-2.49284	-0.71815	-1.22387
H	-3.66951	-2.6801	-0.896455
H	-2.8407	-2.77951	0.703969
H	-2.06277	-3.49132	-0.758855
C	10.1974	1.72435	1.26675
C	9.22241	0.611683	1.31785
O	9.34433	-0.299616	2.1248
H	10.9826	1.56024	2.03638
H	9.68802	2.68912	1.47312
H	10.6777	1.76685	0.266559
N	8.21995	0.660747	0.437491
C	7.19346	-0.348144	0.364786
C	6.56208	-0.27207	-1.01174
O	6.76158	0.696718	-1.74214
H	8.14784	1.3933	-0.234147
H	7.65171	-1.32407	0.463007
C	6.11885	-0.136805	1.45459
H	5.65127	0.865599	1.35127
H	5.327	-0.912009	1.40157
H	6.59423	-0.193649	2.45804
N	5.79846	-1.30954	-1.4074
C	5.16641	-1.33058	-2.70595
H	5.65488	-2.08756	-0.80466
H	4.58052	-2.2661	-2.84301
H	5.92977	-1.27336	-3.51543
H	4.47561	-0.464123	-2.82097
