44
  This energy is -1.3747 and Call times are: 5942
C	2.97296	-1.58491	-0.880734
C	1.52456	-1.34029	-1.06379
O	0.91854	-1.81303	-2.0155
H	3.34664	-2.21858	-1.71421
H	3.15359	-2.11154	0.0799187
H	3.52721	-0.622756	-0.884374
N	0.93084	-0.577945	-0.142543
C	-0.47217	-0.251373	-0.184268
C	-0.685797	0.993945	0.654055
O	0.189405	1.39435	1.41925
H	1.44147	-0.174689	0.612159
H	-0.747761	-0.0129036	-1.20371
C	-1.33616	-1.41168	0.358248
H	-1.05033	-1.65414	1.40402
H	-2.41704	-1.16363	0.327413
H	-1.16974	-2.3182	-0.263584
N	-1.85395	1.65055	0.51164
C	-2.14132	2.85233	1.25953
H	-2.54671	1.31461	-0.118012
H	-3.15154	3.24193	1.00475
H	-1.39232	3.64512	1.03213
H	-2.10909	2.65085	2.35477
C	7.86639	-2.97098	-1.78552
C	7.30289	-1.87479	-0.965742
O	6.09736	-1.77776	-0.781966
H	7.03894	-3.61129	-2.16128
H	8.55238	-3.59307	-1.17295
H	8.42076	-2.55445	-2.65277
N	8.17873	-1.00798	-0.452019
C	7.78334	0.110287	0.366497
C	8.90302	1.13221	0.331498
O	10.0138	0.832964	-0.102506
H	9.15588	-1.08104	-0.633041
H	6.90445	0.570331	-0.0670751
C	7.50902	-0.32758	1.82257
H	8.41252	-0.799713	2.26405
H	7.20419	0.531024	2.45554
H	6.68778	-1.07696	1.83445
N	8.62791	2.37619	0.770609
C	9.62799	3.41829	0.763907
H	7.72085	2.6006	1.11137
H	9.20929	4.36772	1.16457
H	9.99308	3.60579	-0.271851
H	10.5021	3.1283	1.39087
