44
  This energy is 0.1613 and Call times are: 17482
C	2.56181	-0.883462	2.18695
C	2.07662	-0.456911	0.855087
O	2.8583	-0.148243	-0.0338459
H	3.67311	-0.85627	2.19902
H	2.22535	-1.91929	2.40297
H	2.177	-0.198857	2.97192
N	0.752366	-0.424709	0.688745
C	0.12951	-0.0313108	-0.549849
C	-1.29478	0.388366	-0.242406
O	-1.808	0.12271	0.842887
H	0.125571	-0.650523	1.42974
H	0.648623	0.832192	-0.946027
C	0.13316	-1.18841	-1.57367
H	-0.399619	-2.07284	-1.16373
H	-0.345559	-0.888869	-2.52859
H	1.18206	-1.48735	-1.78951
N	-1.96173	1.07713	-1.18939
C	-3.31785	1.52855	-0.981241
H	-1.5266	1.2885	-2.05842
H	-3.69226	2.07424	-1.87527
H	-3.37379	2.21303	-0.103975
H	-3.99452	0.664675	-0.78882
C	5.5207	-1.26579	2.57686
C	4.64235	-1.44924	1.39956
O	4.46949	-2.55492	0.905495
H	5.94677	-2.24868	2.87394
H	4.93851	-0.854436	3.42813
H	6.35276	-0.573351	2.32958
N	4.06389	-0.34835	0.913985
C	3.18313	-0.366306	-0.226523
C	3.13932	1.03529	-0.803464
O	3.57574	1.99156	-0.165567
H	4.23566	0.550866	1.30749
H	3.59938	-1.02025	-0.982279
C	1.76091	-0.82303	0.168224
H	1.33718	-0.150366	0.944169
H	1.08017	-0.838146	-0.707641
H	1.8068	-1.85051	0.590502
N	2.62774	1.18614	-2.04102
C	2.55608	2.48129	-2.67633
H	2.28622	0.398943	-2.54392
H	2.10311	2.39811	-3.68883
H	3.57311	2.92355	-2.78264
H	1.93636	3.18211	-2.07137
