44
  This energy is -4.003 and Call times are: 25661
C	-0.113186	-1.91013	2.90942
C	-0.342475	-1.73512	1.45752
O	-0.685939	-2.67481	0.75359
H	-0.295854	-2.97158	3.18478
H	-0.807688	-1.26444	3.48697
H	0.934756	-1.64752	3.16592
N	-0.148134	-0.507467	0.970225
C	-0.331433	-0.180807	-0.421365
C	0.448649	1.08727	-0.708941
O	0.877238	1.78353	0.209407
H	0.159856	0.243178	1.54868
H	0.0918464	-0.971923	-1.02721
C	-1.82494	0.0262075	-0.758564
H	-2.25614	0.838032	-0.134768
H	-1.96969	0.277729	-1.82934
H	-2.38553	-0.909303	-0.542452
N	0.670243	1.40575	-1.99947
C	1.41331	2.58783	-2.3692
H	0.321327	0.825664	-2.72816
H	1.48622	2.67645	-3.47558
H	2.44561	2.54949	-1.95189
H	0.915784	3.50384	-1.97603
C	4.99283	3.01396	1.73184
C	4.81825	1.54642	1.64777
O	4.51148	0.888478	2.6324
H	4.80998	3.34631	2.77682
H	4.27022	3.52425	1.06082
H	6.02744	3.29369	1.44155
N	5.01935	0.992994	0.449591
C	4.88691	-0.421878	0.209957
C	5.66516	-0.756266	-1.04772
O	6.05105	0.133609	-1.80339
H	5.29738	1.53595	-0.33834
H	5.34102	-0.961848	1.03111
C	3.40564	-0.82767	0.0417728
H	2.94271	-0.271355	-0.801037
H	3.30003	-1.91651	-0.142741
H	2.84624	-0.576465	0.969196
N	5.93345	-2.05443	-1.2902
C	6.67874	-2.46692	-2.45664
H	5.61869	-2.75918	-0.662919
H	6.79357	-3.57307	-2.47903
H	7.69442	-2.00907	-2.45608
H	6.15745	-2.14951	-3.38867
