44
  This energy is -3.434 and Call times are: 19549
C	-0.63489	-1.67404	-2.98674
C	-0.533393	-0.432924	-2.18641
O	-0.628157	0.66788	-2.71152
H	-0.791863	-1.41024	-4.05522
H	-1.49359	-2.28524	-2.63762
H	0.300469	-2.26553	-2.89625
N	-0.328993	-0.587294	-0.876157
C	-0.208958	0.524751	0.0325643
C	0.513583	0.0367765	1.27315
O	0.660295	-1.16584	1.48297
H	-0.224454	-1.48885	-0.46481
H	0.404936	1.2894	-0.426259
C	-1.59468	1.09205	0.413427
H	-2.22207	0.304794	0.883243
H	-1.50593	1.94856	1.11292
H	-2.1142	1.44498	-0.504008
N	1.00325	0.965945	2.11747
C	1.71583	0.595464	3.31795
H	0.880456	1.93428	1.92645
H	2.03676	1.50022	3.8798
H	2.62248	-0.00187305	3.06812
H	1.06952	-0.0203448	3.98446
C	6.36074	-3.2522	-0.726451
C	6.18608	-1.8299	-1.09761
O	6.63929	-1.38923	-2.14494
H	6.93876	-3.77102	-1.5218
H	5.37109	-3.74468	-0.622163
H	6.91601	-3.33242	0.231769
N	5.51827	-1.06788	-0.228281
C	5.26774	0.333996	-0.449186
C	4.97923	0.973229	0.895201
O	4.73858	0.280315	1.88201
H	5.17925	-1.43199	0.635096
H	6.1641	0.793326	-0.846231
C	4.07398	0.548067	-1.40638
H	3.15628	0.0750151	-0.996298
H	3.87842	1.6264	-1.57878
H	4.29728	0.0742216	-2.38707
N	5.01858	2.31821	0.969168
C	4.76887	3.01438	2.2098
H	5.22216	2.86105	0.16101
H	4.84516	4.11467	2.06556
H	5.50775	2.71064	2.98635
H	3.74927	2.78081	2.59326
