44
  This energy is 0.1773 and Call times are: 9351
C	3.37337	-0.80601	-0.311251
C	2.00227	-1.10333	0.160868
O	1.72725	-2.18334	0.665294
H	4.02352	-1.6896	-0.131136
H	3.78789	0.06363	0.24076
H	3.36376	-0.5826	-1.39888
N	1.09649	-0.136033	-0.00118779
C	-0.278172	-0.275889	0.408157
C	-1.10027	0.735452	-0.36682
O	-0.554987	1.65023	-0.981384
H	1.32612	0.728621	-0.44003
H	-0.628079	-1.26319	0.134517
C	-0.439697	-0.0402152	1.92654
H	-0.0791604	0.973302	2.20387
H	-1.49696	-0.147287	2.24515
H	0.168238	-0.786543	2.48292
N	-2.43883	0.579843	-0.373006
C	-3.30168	1.48701	-1.09323
H	-2.86061	-0.170971	0.1246
H	-4.36788	1.19292	-0.974927
H	-3.05572	1.48379	-2.17984
H	-3.18096	2.52794	-0.714999
C	1.58806	-0.723083	-3.40634
C	0.934393	-0.205062	-2.1834
O	-0.15157	0.355688	-2.23573
H	0.945013	-0.505625	-4.28672
H	1.73057	-1.82143	-3.32798
H	2.57346	-0.232178	-3.551
N	1.59675	-0.379957	-1.03751
C	1.08982	0.0688346	0.234671
C	2.26304	0.188072	1.18787
O	3.35167	-0.311678	0.910439
H	2.49412	-0.812395	-1.01176
H	0.661981	1.05605	0.114511
C	0.0424889	-0.915363	0.801732
H	0.484575	-1.92727	0.923097
H	-0.35003	-0.572758	1.78119
H	-0.811112	-0.994774	0.0937734
N	2.07251	0.876373	2.33065
C	3.13518	1.05226	3.29293
H	1.1862	1.27942	2.53371
H	2.78145	1.6444	4.16557
H	3.99736	1.58714	2.83274
H	3.49816	0.0658791	3.66236
