44
  This energy is -2.3683 and Call times are: 31170
C	1.28146	1.32376	2.95494
C	1.24755	1.22932	1.47807
O	1.90103	1.99256	0.780264
H	1.95406	2.15671	3.25436
H	1.66588	0.37734	3.39007
H	0.263073	1.52469	3.34922
N	0.466297	0.277371	0.962515
C	0.329496	0.0615653	-0.455773
C	-0.966652	-0.689733	-0.689844
O	-1.56186	-1.22273	0.244756
H	-0.0837158	-0.319262	1.54083
H	0.247893	1.02063	-0.951357
C	1.52047	-0.745266	-1.01943
H	1.60165	-1.72828	-0.508341
H	1.41842	-0.913111	-2.11131
H	2.46393	-0.184853	-0.840645
N	-1.44701	-0.730552	-1.94825
C	-2.68035	-1.41249	-2.26452
H	-0.954396	-0.286962	-2.68973
H	-2.905	-1.33513	-3.35116
H	-3.53104	-0.968674	-1.6983
H	-2.61273	-2.49169	-1.99633
C	6.70118	1.60765	-3.05582
C	7.16036	1.24296	-1.69664
O	8.29184	1.51248	-1.31769
H	7.52663	2.11846	-3.59763
H	5.8319	2.29568	-2.99419
H	6.41135	0.69594	-3.6195
N	6.27788	0.605687	-0.923671
C	6.57704	0.186528	0.4223
C	5.60384	-0.915139	0.794371
O	4.60308	-1.12671	0.112053
H	5.36888	0.365976	-1.25411
H	7.57449	-0.2337	0.446472
C	6.45491	1.36184	1.41772
H	5.43063	1.79099	1.38983
H	6.68475	1.04261	2.45504
H	7.17199	2.16259	1.13357
N	5.8888	-1.66048	1.88031
C	5.02651	-2.73894	2.30406
H	6.70723	-1.47825	2.41527
H	5.43027	-3.22975	3.21693
H	4.93686	-3.50815	1.50311
H	4.00481	-2.35842	2.53322
