44
  This energy is 0.1146 and Call times are: 12896
C	2.1395	-2.70826	-0.462624
C	1.6043	-1.3885	-0.866372
O	2.11429	-0.750898	-1.77734
H	3.0166	-2.9589	-1.09802
H	1.36432	-3.49214	-0.59476
H	2.46109	-2.68223	0.599847
N	0.549728	-0.94126	-0.180643
C	-0.0823934	0.324146	-0.45632
C	-0.855143	0.738257	0.780858
O	-1.07484	-0.0670881	1.68362
H	0.161387	-1.45684	0.578503
H	0.68331	1.06938	-0.630659
C	-1.0346	0.224898	-1.66899
H	-1.81844	-0.54099	-1.48702
H	-1.5229	1.19755	-1.88413
H	-0.456665	-0.0803081	-2.56843
N	-1.26847	2.01843	0.860325
C	-2.00057	2.50638	2.0058
H	-1.07463	2.65669	0.122568
H	-2.2522	3.5828	1.8823
H	-1.39738	2.39188	2.93548
H	-2.94926	1.93732	2.1375
C	0.742513	0.491657	-3.374
C	0.319818	0.354057	-1.96205
O	-0.839	0.556033	-1.62613
H	-0.131392	0.793576	-3.99125
H	1.13259	-0.476476	-3.75265
H	1.53124	1.26808	-3.4636
N	1.26919	0.00683838	-1.08998
C	1.01221	-0.166341	0.317426
C	2.33254	-0.0360751	1.0516
O	3.39833	-0.0720267	0.439533
H	2.21574	-0.126494	-1.3714
H	0.366171	0.632818	0.658089
C	0.376578	-1.5443	0.60778
H	1.04167	-2.36181	0.256424
H	0.177247	-1.6809	1.69055
H	-0.589245	-1.62766	0.0633693
N	2.29048	0.141196	2.38682
C	3.49654	0.286802	3.1681
H	1.41788	0.174694	2.86292
H	3.25353	0.420832	4.24524
H	4.0806	1.1724	2.82776
H	4.14348	-0.614205	3.06401
