44
  This energy is -1.9803 and Call times are: 3779
C	-1.89573	-2.9196	0.0910145
C	-0.731798	-2.10966	0.515844
O	0.0150713	-2.4935	1.40542
H	-1.93832	-3.8489	0.699662
H	-1.7992	-3.19569	-0.980097
H	-2.83556	-2.34783	0.241795
N	-0.553973	-0.948592	-0.118706
C	0.532979	-0.0516203	0.182637
C	0.148147	1.32929	-0.311549
O	-0.804748	1.48126	-1.0736
H	-1.18607	-0.633467	-0.821614
H	0.654522	0.00550358	1.2569
C	1.84481	-0.510879	-0.492118
H	1.71635	-0.569027	-1.59404
H	2.68386	0.177475	-0.262038
H	2.11519	-1.52406	-0.122659
N	0.87215	2.37599	0.13146
C	0.571924	3.72885	-0.275735
H	1.63504	2.23313	0.753407
H	1.28002	4.44703	0.193385
H	-0.463166	4.00944	0.0260915
H	0.648969	3.83253	-1.3823
C	4.51084	-0.0262783	-3.17084
C	5.67736	0.124446	-2.27211
O	6.81022	0.237587	-2.71966
H	4.85785	-0.0215036	-4.22698
H	3.80181	0.815072	-3.02176
H	3.99226	-0.986785	-2.96726
N	5.42063	0.123182	-0.961975
C	6.45063	0.261006	0.0364885
C	5.91173	-0.292493	1.34127
O	4.71103	-0.518005	1.48021
H	4.49674	0.00102072	-0.609211
H	7.30194	-0.343153	-0.250462
C	6.86499	1.73845	0.216969
H	5.98914	2.35549	0.510672
H	7.65804	1.84817	0.98496
H	7.25686	2.13247	-0.746016
N	6.79648	-0.545721	2.3257
C	6.37704	-1.08469	3.5984
H	7.76491	-0.363175	2.19136
H	7.24965	-1.2208	4.27463
H	5.88155	-2.07323	3.46234
H	5.65172	-0.400408	4.09523
