44
  This energy is -4.4155 and Call times are: 4165
C	0.083273	0.772482	3.39448
C	0.441964	-0.0910452	2.24693
O	1.22259	-1.02389	2.37695
H	0.628047	0.425799	4.2994
H	-1.00847	0.716512	3.58883
H	0.367642	1.8252	3.18506
N	-0.126404	0.210781	1.07722
C	0.123519	-0.536776	-0.129235
C	-0.23327	0.347947	-1.30788
O	-0.88226	1.37962	-1.14571
H	-0.73815	0.991047	0.977784
H	1.18123	-0.758769	-0.192871
C	-0.711004	-1.83644	-0.168703
H	-1.79553	-1.60505	-0.102547
H	-0.520875	-2.41457	-1.09628
H	-0.441187	-2.4752	0.700393
N	0.204414	-0.0270146	-2.52601
C	-0.0765667	0.758889	-3.70482
H	0.734299	-0.861547	-2.6356
H	0.366161	0.284662	-4.60834
H	0.347465	1.78418	-3.60372
H	-1.17553	0.853658	-3.8613
C	3.35044	-2.17794	-1.17576
C	3.97407	-0.837403	-1.1032
O	3.59105	0.0779856	-1.81864
H	2.54929	-2.16909	-1.94643
H	2.90302	-2.4453	-0.195372
H	4.10948	-2.9387	-1.45511
N	4.96983	-0.693323	-0.225663
C	5.67418	0.550148	-0.0399144
C	7.01316	0.236265	0.598708
O	7.23048	-0.868607	1.09253
H	5.29208	-1.45454	0.330785
H	5.86755	0.993111	-1.00866
C	4.87337	1.52193	0.855328
H	4.67618	1.06405	1.84809
H	5.41277	2.48047	1.0003
H	3.8943	1.74297	0.377086
N	7.95427	1.20068	0.583728
C	9.26275	0.988585	1.15738
H	7.76151	2.08576	0.172976
H	9.89237	1.89899	1.04794
H	9.78066	0.141455	0.652025
H	9.18194	0.746337	2.2418
