44
  This energy is 0.1012 and Call times are: 6852
C	0.205336	-0.153921	-3.47279
C	0.818443	-0.233998	-2.12784
O	1.97702	-0.598396	-1.9815
H	0.949582	-0.471268	-4.23519
H	-0.108036	0.889112	-3.68889
H	-0.677688	-0.824561	-3.53157
N	0.038007	0.105401	-1.0992
C	0.491803	0.0787912	0.268345
C	-0.72995	0.00349205	1.16327
O	-1.8526	0.227387	0.714529
H	-0.913129	0.372668	-1.22899
H	1.07299	-0.820408	0.428781
C	1.32363	1.33528	0.609523
H	0.724586	2.25593	0.443169
H	1.67477	1.31796	1.66175
H	2.21495	1.37948	-0.0536171
N	-0.539919	-0.337151	2.45317
C	-1.64508	-0.445556	3.37678
H	0.375541	-0.521451	2.79552
H	-1.2849	-0.733966	4.38887
H	-2.37208	-1.21566	3.03087
H	-2.18445	0.525692	3.46006
C	1.94988	2.68826	-0.242564
C	2.23104	1.23531	-0.209563
O	1.32333	0.416058	-0.172647
H	0.85024	2.85014	-0.221189
H	2.36108	3.1365	-1.17144
H	2.40368	3.18619	0.640088
N	3.51794	0.880043	-0.216397
C	3.94947	-0.494652	-0.187598
C	5.3806	-0.523349	0.312679
O	6.04692	0.50837	0.370965
H	4.24856	1.55763	-0.217172
H	3.34147	-1.03947	0.523443
C	3.8633	-1.14072	-1.58841
H	4.48766	-0.578902	-2.31549
H	4.1947	-2.19931	-1.56982
H	2.81029	-1.1124	-1.94411
N	5.88091	-1.71054	0.707986
C	7.22973	-1.8327	1.20991
H	5.32349	-2.53286	0.659851
H	7.45438	-2.88782	1.48103
H	7.37041	-1.20036	2.11633
H	7.96634	-1.50357	0.44162
