44
  This energy is -4.3854 and Call times are: 25022
C	-2.11972	-2.54617	-1.07237
C	-0.93889	-1.67231	-1.25466
O	-0.156372	-1.8508	-2.17786
H	-2.13056	-3.32013	-1.87032
H	-3.05254	-1.94771	-1.13953
H	-2.07437	-3.04978	-0.0838017
N	-0.780087	-0.695464	-0.358603
C	0.319262	0.235258	-0.403501
C	0.482563	0.830587	0.981474
O	-0.396154	0.696364	1.83099
H	-1.40848	-0.578435	0.405835
H	1.22781	-0.304432	-0.638775
C	0.0659469	1.35558	-1.43686
H	-0.867213	1.90675	-1.19284
H	0.910569	2.07391	-1.47412
H	-0.0531095	0.906421	-2.44692
N	1.62845	1.48766	1.2483
C	1.87745	2.07735	2.54307
H	2.3305	1.57937	0.549759
H	2.87251	2.574	2.56419
H	1.85736	1.29882	3.33977
H	1.10044	2.83841	2.78437
C	4.57831	3.16249	-0.79516
C	5.01407	2.14465	0.187349
O	5.1239	2.41787	1.37469
H	4.40006	4.12643	-0.270849
H	3.63595	2.84109	-1.28655
H	5.36402	3.31221	-1.56535
N	5.28159	0.929534	-0.296687
C	5.71536	-0.164868	0.534549
C	6.40741	-1.17952	-0.354722
O	6.30081	-1.11934	-1.57818
H	5.21634	0.727301	-1.27023
H	6.44504	0.201131	1.24567
C	4.52354	-0.823547	1.26448
H	3.77661	-1.19729	0.531996
H	4.854	-1.66653	1.90553
H	4.02441	-0.0697253	1.91161
N	7.15504	-2.12789	0.243309
C	7.86021	-3.12883	-0.522867
H	7.23461	-2.1555	1.23434
H	8.41623	-3.81903	0.149237
H	8.58998	-2.65107	-1.21599
H	7.14822	-3.73093	-1.13257
