44
  This energy is 0.1048 and Call times are: 17705
C	1.94342	-1.83402	2.23284
C	1.45882	-0.5492	1.68004
O	1.74076	0.515211	2.21299
H	2.54818	-1.6368	3.14456
H	2.57827	-2.35642	1.48659
H	1.08393	-2.48223	2.50495
N	0.70113	-0.623637	0.583349
C	0.156108	0.539204	-0.0705473
C	-1.02453	0.0912124	-0.909972
O	-1.21035	-1.1007	-1.148
H	0.454366	-1.49863	0.175389
H	-0.21571	1.22376	0.681259
C	1.21161	1.22889	-0.963498
H	1.59139	0.52359	-1.73319
H	0.795325	2.12476	-1.46839
H	2.07169	1.55125	-0.337
N	-1.86653	1.04135	-1.36194
C	-3.02427	0.708092	-2.15866
H	-1.70298	1.99981	-1.15259
H	-3.58934	1.62569	-2.43427
H	-3.70735	0.0317781	-1.59542
H	-2.72	0.18876	-3.09616
C	1.4897	-1.92505	-0.264515
C	0.557694	-1.0762	0.511396
O	0.693172	-0.92735	1.71804
H	2.25185	-2.35529	0.420958
H	2.00457	-1.31876	-1.0392
H	0.935981	-2.75466	-0.75245
N	-0.428893	-0.496618	-0.17642
C	-1.41354	0.357367	0.438397
C	-2.62437	0.403794	-0.473188
O	-2.55629	-0.0069174	-1.63013
H	-0.545783	-0.649039	-1.15419
H	-1.72502	-0.0835903	1.37681
C	-0.861259	1.78302	0.661137
H	-0.542051	2.23214	-0.303495
H	-1.61682	2.44318	1.13453
H	0.025994	1.73521	1.32945
N	-3.7733	0.88839	0.0378057
C	-4.98055	0.9601	-0.751876
H	-3.80999	1.20927	0.978509
H	-5.81582	1.38864	-0.15528
H	-5.28295	-0.0540164	-1.10025
H	-4.82556	1.60153	-1.6495
