44
  This energy is -0.9547 and Call times are: 24318
C	-3.20077	1.30368	0.426133
C	-2.2817	0.212463	0.0314765
O	-2.70557	-0.898094	-0.257474
H	-4.24657	0.926968	0.409913
H	-3.11366	2.15282	-0.283933
H	-2.96085	1.65407	1.4521
N	-0.980224	0.509598	0.0165608
C	0.0356063	-0.446106	-0.346135
C	1.35324	0.0325753	0.231735
O	1.47312	1.17983	0.657489
H	-0.645201	1.40968	0.282176
H	-0.197846	-1.39875	0.112172
C	0.149609	-0.590967	-1.88013
H	0.38851	0.388305	-2.34711
H	0.930786	-1.32621	-2.16289
H	-0.822258	-0.941001	-2.29134
N	2.37168	-0.848615	0.279721
C	3.65957	-0.48608	0.823861
H	2.2527	-1.77459	-0.0632807
H	4.36391	-1.34548	0.773184
H	3.56246	-0.174877	1.88921
H	4.10159	0.363658	0.254878
C	7.43126	-2.42505	2.47864
C	8.13915	-1.83097	1.32228
O	9.23103	-2.25128	0.96503
H	8.04967	-3.24365	2.90681
H	6.45489	-2.8436	2.15564
H	7.2625	-1.65529	3.26091
N	7.52369	-0.818934	0.706353
C	8.08612	-0.139344	-0.433233
C	7.42412	1.22081	-0.538023
O	6.40495	1.47478	0.101219
H	6.64774	-0.466561	1.02491
H	9.14275	0.0215108	-0.26078
C	7.86065	-0.941591	-1.73426
H	6.77566	-1.10536	-1.90774
H	8.29262	-0.42123	-2.6137
H	8.34934	-1.9362	-1.64431
N	8.00479	2.13885	-1.33552
C	7.4525	3.46468	-1.48826
H	8.83319	1.9164	-1.83901
H	8.07142	4.0705	-2.18624
H	7.41524	3.99025	-0.506608
H	6.41557	3.41437	-1.89251
