44
  This energy is -3.0077 and Call times are: 33251
C	-2.59791	-2.16795	0.822795
C	-1.17455	-1.76438	0.871616
O	-0.373129	-2.35663	1.58115
H	-2.75883	-3.03017	1.50583
H	-2.87462	-2.47042	-0.209079
H	-3.24577	-1.32657	1.14731
N	-0.826276	-0.725388	0.109006
C	0.520525	-0.216044	0.0496576
C	0.456962	1.21097	-0.459101
O	-0.569991	1.64974	-0.973566
H	-1.49437	-0.2329	-0.442393
H	0.931407	-0.190286	1.05095
C	1.40559	-1.07343	-0.882365
H	0.980802	-1.09823	-1.90855
H	2.44334	-0.684109	-0.930254
H	1.44307	-2.11657	-0.499505
N	1.55393	1.97859	-0.306099
C	1.58221	3.35302	-0.749194
H	2.3728	1.60732	0.119153
H	2.57185	3.81434	-0.536927
H	0.798478	3.9498	-0.228755
H	1.39351	3.41659	-1.84534
C	4.30722	-3.00182	0.941686
C	4.45649	-1.53291	1.0476
O	3.6868	-0.866138	1.72545
H	3.43098	-3.32633	1.54399
H	5.21661	-3.50768	1.3289
H	4.14406	-3.29475	-0.116861
N	5.4648	-0.988406	0.362622
C	5.7383	0.426516	0.366558
C	6.56228	0.7452	-0.865812
O	7.09068	-0.153109	-1.51824
H	6.06727	-1.53879	-0.209243
H	4.80312	0.965891	0.285487
C	6.50356	0.847956	1.64088
H	7.46211	0.292216	1.72123
H	6.71566	1.93688	1.64723
H	5.88996	0.608169	2.53651
N	6.67279	2.03891	-1.22651
C	7.42732	2.43657	-2.39215
H	6.23185	2.75061	-0.689571
H	7.40072	3.54122	-2.51979
H	7.00704	1.96737	-3.31109
H	8.49133	2.11988	-2.29849
