44
  This energy is 0.1003 and Call times are: 9661
C	-0.529808	-2.58859	2.26818
C	-1.02061	-1.47123	1.43043
O	-2.21771	-1.25163	1.30698
H	-1.39763	-3.1283	2.70573
H	0.103853	-2.19903	3.09251
H	0.0612137	-3.29833	1.6518
N	-0.0895189	-0.732704	0.822152
C	-0.41106	0.387935	-0.0249653
C	0.779547	0.646296	-0.927706
O	1.86997	0.128631	-0.69356
H	0.881498	-0.939616	0.907294
H	-1.25045	0.123078	-0.655315
C	-0.729831	1.64952	0.808043
H	0.133155	1.918	1.45402
H	-0.978	2.51427	0.158893
H	-1.60295	1.44691	1.46589
N	0.590569	1.44107	-1.99945
C	1.66308	1.73398	-2.92146
H	-0.301143	1.8448	-2.17575
H	1.31006	2.40571	-3.73472
H	2.05042	0.797309	-3.38391
H	2.50809	2.23431	-2.39533
C	-0.275748	0.841456	-0.149691
C	0.813528	-0.153489	-0.0281698
O	0.573452	-1.32717	0.219473
H	-1.25256	0.339536	0.0228423
H	-0.275314	1.28689	-1.16675
H	-0.146257	1.64509	0.605527
N	2.05625	0.304159	-0.197175
C	3.21949	-0.542033	-0.109592
C	4.41913	0.342472	0.169232
O	4.34609	1.56223	0.0325434
H	2.2407	1.26809	-0.369661
H	3.10346	-1.21371	0.731512
C	3.43723	-1.33599	-1.41701
H	3.55521	-0.643855	-2.27791
H	4.33202	-1.9887	-1.35296
H	2.55113	-1.97902	-1.61061
N	5.55155	-0.254515	0.590229
C	6.74068	0.507945	0.891567
H	5.58852	-1.24218	0.7015
H	7.56508	-0.16267	1.22002
H	6.54087	1.24219	1.70533
H	7.08384	1.072	-0.00579488
