44
  This energy is -1.3217 and Call times are: 17202
C	-0.418418	-2.99053	1.7343
C	-0.100257	-1.54556	1.68923
O	0.0576018	-0.900283	2.71646
H	-0.481958	-3.31973	2.79423
H	0.376951	-3.57348	1.22403
H	-1.39326	-3.18355	1.23895
N	-0.00369041	-0.997178	0.475842
C	0.300274	0.396376	0.26983
C	-0.173382	0.776088	-1.11967
O	-0.475568	-0.0893588	-1.93913
H	-0.163209	-1.52708	-0.352827
H	-0.261127	0.987955	0.981825
C	1.81499	0.668028	0.407485
H	2.38793	0.0590284	-0.323937
H	2.05254	1.74014	0.2496
H	2.14973	0.384687	1.42916
N	-0.270002	2.08842	-1.41025
C	-0.723081	2.54461	-2.70362
H	-0.0276123	2.77352	-0.731198
H	-0.731875	3.65602	-2.74769
H	-1.75441	2.17748	-2.91057
H	-0.0538183	2.16693	-3.51024
C	4.90375	-3.35485	-0.260407
C	4.85274	-2.04333	0.42406
O	4.0979	-1.85103	1.36732
H	4.17706	-4.04714	0.217644
H	5.92198	-3.78992	-0.178253
H	4.63736	-3.23808	-1.33202
N	5.6654	-1.09558	-0.0489394
C	5.72953	0.230382	0.511904
C	6.31727	1.15261	-0.53848
O	6.87278	0.696093	-1.53589
H	6.25456	-1.25572	-0.836454
H	4.72426	0.571733	0.723961
C	6.59744	0.259235	1.7898
H	7.62786	-0.0921837	1.56877
H	6.64884	1.2787	2.22434
H	6.15702	-0.42116	2.55088
N	6.18797	2.48031	-0.347496
C	6.70566	3.43469	-1.30004
H	5.72883	2.82999	0.462535
H	6.50215	4.47539	-0.964223
H	6.23253	3.28967	-2.29821
H	7.80673	3.31356	-1.419
