44
  This energy is -5.0256 and Call times are: 5192
C	1.13557	-2.42089	2.23067
C	1.02228	-1.0146	1.78265
O	1.42728	-0.0942112	2.47931
H	1.61202	-2.44925	3.23469
H	1.76155	-2.99975	1.5194
H	0.128471	-2.88373	2.29756
N	0.453536	-0.815782	0.591276
C	0.273189	0.495021	0.020227
C	-0.822383	0.401633	-1.02392
O	-1.20871	-0.691389	-1.43366
H	0.101242	-1.57185	0.0461323
H	-0.0664427	1.1721	0.793716
C	1.57864	1.01228	-0.624263
H	1.92457	0.314955	-1.41684
H	1.44336	2.02143	-1.06481
H	2.37349	1.07503	0.150601
N	-1.36589	1.55339	-1.46443
C	-2.42264	1.56226	-2.449
H	-1.0445	2.42752	-1.11536
H	-2.73419	2.6043	-2.68211
H	-3.31249	1.00571	-2.07528
H	-2.08405	1.07787	-3.3934
C	4.99061	2.8799	1.95553
C	5.01839	2.19665	0.642671
O	4.99081	2.83251	-0.402036
H	4.93748	3.97889	1.79658
H	5.9115	2.6439	2.52919
H	4.10087	2.55732	2.53626
N	5.06858	0.862806	0.66929
C	5.10117	0.0578443	-0.525617
C	4.63594	-1.3382	-0.159751
O	4.55483	-1.68555	1.01694
H	5.06119	0.355208	1.52674
H	4.3969	0.462185	-1.24157
C	6.52269	0.00318375	-1.12843
H	7.24273	-0.411482	-0.391059
H	6.55134	-0.615702	-2.04872
H	6.85235	1.03201	-1.39108
N	4.29699	-2.16792	-1.16607
C	3.83167	-3.51171	-0.913255
H	4.36269	-1.86579	-2.11139
H	3.60541	-4.03565	-1.868
H	2.90585	-3.49684	-0.293687
H	4.60418	-4.09866	-0.365632
