44
  This energy is 0.1279 and Call times are: 11320
C	2.31743	-2.59905	0.0246444
C	1.69738	-1.41401	-0.609732
O	2.16808	-0.92152	-1.6258
H	3.2123	-2.90298	-0.56075
H	1.59686	-3.44358	0.0440095
H	2.6315	-2.35767	1.06197
N	0.612095	-0.919811	-0.00949691
C	-0.101639	0.228932	-0.507294
C	-0.906158	0.810297	0.639005
O	-1.07599	0.171052	1.67552
H	0.255367	-1.31233	0.834073
H	0.613514	0.978824	-0.820809
C	-1.03932	-0.153641	-1.67413
H	-1.77124	-0.923596	-1.34919
H	-1.59033	0.728585	-2.05993
H	-0.438051	-0.579292	-2.50686
N	-1.40426	2.05307	0.485996
C	-2.17271	2.69276	1.52833
H	-1.24988	2.55692	-0.357529
H	-2.49493	3.70926	1.21185
H	-1.56767	2.79071	2.45869
H	-3.08198	2.09572	1.76907
C	-1.76218	-1.55237	-0.58251
C	-0.583878	-0.783999	-1.04339
O	-0.408806	-0.545899	-2.23046
H	-2.38018	-1.83915	-1.46098
H	-2.37804	-0.933518	0.10346
H	-1.4362	-2.47411	-0.0561117
N	0.266441	-0.378218	-0.0975207
C	1.45745	0.378714	-0.389706
C	2.41185	0.214425	0.777072
O	2.0236	-0.25385	1.84563
H	0.127941	-0.603545	0.863198
H	1.93454	-0.0405117	-1.26647
C	1.1347	1.87416	-0.605566
H	0.64476	2.30086	0.295544
H	2.04953	2.4599	-0.830905
H	0.433917	1.98091	-1.4621
N	3.69587	0.57837	0.590382
C	4.67883	0.446985	1.64048
H	3.99211	0.948574	-0.283931
H	5.67466	0.800744	1.29346
H	4.77561	-0.616771	1.95718
H	4.38448	1.04714	2.53174
