44
  This energy is -3.4928 and Call times are: 5499
C	-0.353296	-1.95887	2.8573
C	0.228294	-1.69895	1.52111
O	1.11032	-2.41359	1.06525
H	0.141861	-2.84683	3.30697
H	-1.44144	-2.1609	2.76819
H	-0.193356	-1.08343	3.52136
N	-0.258229	-0.648043	0.856832
C	0.206329	-0.268205	-0.453411
C	-0.148728	1.19012	-0.668979
O	-0.942747	1.76061	0.0766139
H	-0.956269	-0.0563028	1.25119
H	1.28534	-0.351753	-0.482063
C	-0.438739	-1.14029	-1.55362
H	-1.54571	-1.05272	-1.52092
H	-0.0831093	-0.850591	-2.56376
H	-0.172115	-2.20622	-1.38376
N	0.452238	1.83579	-1.68777
C	0.18519	3.22848	-1.96216
H	1.09726	1.3586	-2.27554
H	0.773655	3.57627	-2.83965
H	0.456164	3.86058	-1.08565
H	-0.895942	3.38585	-2.18025
C	5.64485	2.79705	-2.05171
C	5.15415	1.92067	-0.964345
O	4.18493	2.23494	-0.287334
H	5.00955	3.70781	-2.10436
H	5.59196	2.26528	-3.02498
H	6.69413	3.10172	-1.85385
N	5.82883	0.785594	-0.767439
C	5.47229	-0.168874	0.251726
C	6.69238	-1.02254	0.537878
O	7.65927	-1.01176	-0.221616
H	6.63443	0.554653	-1.30653
H	5.22289	0.36365	1.16073
C	4.29415	-1.06049	-0.200064
H	4.55318	-1.6048	-1.1332
H	4.01693	-1.79648	0.582396
H	3.40706	-0.423207	-0.407681
N	6.68342	-1.76977	1.6593
C	7.80545	-2.60472	2.01994
H	5.89443	-1.75939	2.26479
H	7.6059	-3.14119	2.97369
H	8.72633	-1.99108	2.14904
H	8.00326	-3.3615	1.22664
