44
  This energy is -3.2853 and Call times are: 22728
C	0.594673	0.936038	-3.30096
C	0.454217	-0.0912492	-2.24448
O	0.454787	-1.28368	-2.5176
H	0.683572	0.436073	-4.28989
H	1.5056	1.54551	-3.12325
H	-0.296498	1.59834	-3.31188
N	0.322765	0.35806	-0.994192
C	0.177078	-0.518723	0.140204
C	-0.453395	0.277253	1.26633
O	-0.514471	1.50407	1.21139
H	0.294559	1.33252	-0.787864
H	-0.504637	-1.31888	-0.118799
C	1.54127	-1.08732	0.590513
H	2.23838	-0.263735	0.85482
H	1.43273	-1.76298	1.46372
H	1.99325	-1.66718	-0.243533
N	-0.959219	-0.409067	2.30993
C	-1.58903	0.263107	3.42246
H	-0.906451	-1.40201	2.3325
H	-1.93862	-0.472815	4.17972
H	-2.46749	0.855174	3.07749
H	-0.874362	0.961133	3.9156
C	4.71046	-0.962982	-3.34109
C	4.91483	-1.27019	-1.90754
O	5.01806	-2.42472	-1.51651
H	4.66905	-1.91242	-3.9179
H	5.55081	-0.346393	-3.72379
H	3.75548	-0.414446	-3.48274
N	4.97258	-0.224631	-1.07939
C	5.16739	-0.363005	0.341785
C	4.67049	0.906339	1.00594
O	4.43985	1.91473	0.341262
H	4.85796	0.709672	-1.40631
H	4.5589	-1.18271	0.702182
C	6.65573	-0.594901	0.685581
H	7.27715	0.247563	0.313828
H	6.80928	-0.702029	1.77907
H	7.00792	-1.52694	0.192214
N	4.4726	0.878298	2.33862
C	3.98989	2.03564	3.05537
H	4.65824	0.0504952	2.85777
H	3.89438	1.8141	4.14121
H	2.99118	2.34683	2.672
H	4.68953	2.89392	2.93277
