44
  This energy is -8.6727 and Call times are: 20817
C	-0.394919	-0.782215	-3.37021
C	-0.306684	0.195977	-2.26271
O	-0.27059	1.39883	-2.48255
H	-0.411732	-0.238695	-4.33983
H	-1.32503	-1.38157	-3.27806
H	0.484423	-1.46002	-3.35333
N	-0.263497	-0.308956	-1.02758
C	-0.177478	0.515456	0.151308
C	0.366121	-0.339787	1.27927
O	0.411055	-1.56405	1.17438
H	-0.264224	-1.29173	-0.862975
H	0.532221	1.31308	-0.0281368
C	-1.55869	1.08967	0.538151
H	-2.28446	0.268709	0.720868
H	-1.49606	1.72509	1.4454
H	-1.94651	1.71315	-0.296723
N	0.81431	0.291519	2.38226
C	1.3601	-0.439462	3.50206
H	0.77603	1.28339	2.4451
H	1.67171	0.256606	4.31178
H	2.24947	-1.03254	3.18819
H	0.604017	-1.14449	3.91734
C	5.22806	2.68765	1.93403
C	4.17502	1.9554	1.19503
O	3.00524	2.31004	1.24349
H	4.76708	3.53429	2.48769
H	5.98299	3.08982	1.22609
H	5.72628	2.01182	2.66065
N	4.57453	0.895956	0.487686
C	3.66754	0.083764	-0.283373
C	4.32412	-1.26478	-0.506005
O	5.52259	-1.42492	-0.282758
H	5.52595	0.599857	0.47962
H	2.7658	-0.0805294	0.292771
C	3.33632	0.743907	-1.64044
H	4.26371	0.911613	-2.2286
H	2.63804	0.121234	-2.23664
H	2.85697	1.73138	-1.46363
N	3.54385	-2.27699	-0.933334
C	4.07884	-3.59908	-1.16145
H	2.57477	-2.12915	-1.10147
H	3.28139	-4.29098	-1.51158
H	4.5155	-4.01336	-0.223925
H	4.88192	-3.57039	-1.93309
