44
  This energy is -1.7968 and Call times are: 14041
C	2.24658	-0.465914	2.61953
C	1.31424	-0.989238	1.59577
O	1.21492	-2.19025	1.38555
H	2.78245	-1.31507	3.09664
H	1.68513	0.0889396	3.40038
H	2.99124	0.210316	2.14927
N	0.603442	-0.082016	0.921918
C	-0.344568	-0.436523	-0.103962
C	-0.558778	0.781455	-0.98139
O	-0.174053	1.89198	-0.620071
H	0.714648	0.895171	1.08215
H	0.0813083	-1.21654	-0.722244
C	-1.68812	-0.894924	0.505838
H	-2.12188	-0.0925785	1.14004
H	-2.42035	-1.16879	-0.281319
H	-1.51745	-1.7869	1.14724
N	-1.16242	0.5959	-2.17185
C	-1.39803	1.69484	-3.07903
H	-1.46005	-0.311669	-2.44928
H	-1.90652	1.34027	-4.00259
H	-0.436677	2.17626	-3.37105
H	-2.04037	2.46901	-2.60022
C	8.12069	-3.24236	-0.597723
C	8.30084	-1.7738	-0.643248
O	9.36846	-1.27748	-0.975432
H	9.07069	-3.73827	-0.893409
H	7.31968	-3.55154	-1.30172
H	7.85261	-3.56351	0.430841
N	7.24317	-1.03564	-0.298511
C	7.26381	0.405319	-0.293613
C	6.14524	0.884219	0.611205
O	5.26396	0.112011	0.983866
H	6.38792	-1.45205	-0.00172715
H	8.19968	0.742363	0.133718
C	7.0764	0.975399	-1.71734
H	6.11566	0.627104	-2.15298
H	7.09194	2.08469	-1.71723
H	7.90134	0.616334	-2.37056
N	6.1679	2.17288	1.00471
C	5.15116	2.71498	1.87566
H	6.89347	2.78014	0.698102
H	5.34347	3.79081	2.08267
H	5.13362	2.16892	2.84661
H	4.14371	2.62224	1.40915
