44
  This energy is -3.0108 and Call times are: 31909
C	0.451852	-3.11403	-1.49157
C	-0.0166546	-1.71026	-1.52546
O	-0.421871	-1.20353	-2.56253
H	0.368879	-3.55359	-2.5093
H	-0.171796	-3.70868	-0.791378
H	1.51306	-3.15576	-1.16748
N	0.0354367	-1.03972	-0.372194
C	-0.385562	0.332778	-0.24635
C	0.274046	0.910895	0.990555
O	0.809793	0.176656	1.81863
H	0.394873	-1.45469	0.459395
H	-0.0265871	0.890779	-1.10183
C	-1.92229	0.441248	-0.128835
H	-2.28721	-0.132883	0.749414
H	-2.2499	1.49674	-0.0319365
H	-2.39358	0.0133598	-1.0404
N	0.26883	2.25089	1.13334
C	0.883001	2.89178	2.27274
H	-0.163615	2.82838	0.448702
H	0.772299	3.99676	2.20937
H	1.96963	2.6506	2.3207
H	0.410385	2.54574	3.2204
C	4.96943	3.30649	-0.854451
C	4.6496	2.05805	-0.126227
O	3.74492	2.01961	0.696315
H	4.28351	4.11402	-0.517884
H	4.83903	3.15632	-1.94682
H	6.01592	3.61382	-0.646221
N	5.40266	0.993969	-0.414309
C	5.21274	-0.290425	0.211064
C	6.50156	-1.07556	0.0635915
O	7.37716	-0.705729	-0.716394
H	6.15556	1.04559	-1.06501
H	5.03604	-0.143943	1.26908
C	4.04245	-1.06382	-0.436527
H	4.2267	-1.21175	-1.52202
H	3.89335	-2.0532	0.042719
H	3.10453	-0.477706	-0.322831
N	6.65654	-2.17251	0.830847
C	7.85521	-2.97584	0.767369
H	5.93944	-2.45137	1.46111
H	7.79114	-3.83416	1.47195
H	8.74989	-2.36842	1.0354
H	8.00564	-3.37683	-0.261103
