44
  This energy is -0.9291 and Call times are: 7541
C	0.48338	3.40881	-0.521981
C	0.879106	2.11502	0.0786006
O	1.93773	1.99408	0.679592
H	1.2796	4.16092	-0.331647
H	-0.464884	3.76687	-0.0687559
H	0.349454	3.29686	-1.61856
N	0.0242445	1.10178	-0.079297
C	0.269174	-0.216903	0.447868
C	-0.588981	-1.19613	-0.329261
O	-1.50227	-0.797492	-1.04956
H	-0.821453	1.20544	-0.596004
H	1.30541	-0.478205	0.274659
C	-0.0692035	-0.292579	1.95349
H	-1.13281	-0.0232695	2.12763
H	0.118383	-1.30656	2.36266
H	0.565188	0.43018	2.51144
N	-0.298969	-2.50734	-0.216981
C	-1.05406	-3.51191	-0.928932
H	0.448562	-2.80947	0.365384
H	-0.66415	-4.52924	-0.704786
H	-0.989131	-3.34614	-2.02873
H	-2.12867	-3.47605	-0.637224
C	3.61671	-1.73757	2.08331
C	4.91771	-1.08387	1.81634
O	5.74312	-0.930853	2.70616
H	3.56125	-2.02039	3.157
H	3.51489	-2.65392	1.46463
H	2.78357	-1.04105	1.85162
N	5.12864	-0.672357	0.563931
C	6.34516	-0.0200273	0.149953
C	6.05088	0.750624	-1.12234
O	5.01613	0.548051	-1.75487
H	4.43663	-0.776638	-0.145416
H	6.63619	0.695776	0.90824
C	7.47579	-1.04336	-0.0982372
H	7.1736	-1.77655	-0.876201
H	8.414	-0.544433	-0.417
H	7.681	-1.60208	0.840839
N	6.95028	1.6736	-1.51629
C	6.74917	2.46403	-2.70833
H	7.77808	1.82783	-0.986961
H	7.59906	3.16461	-2.86365
H	5.81217	3.06164	-2.63001
H	6.66661	1.8085	-3.60535
