44
  This energy is -2.4414 and Call times are: 28432
C	-1.2504	-3.19406	-0.600526
C	-1.23567	-1.73448	-0.846756
O	-1.90345	-1.23746	-1.74316
H	-1.92439	-3.6839	-1.3365
H	-1.62272	-3.40547	0.423927
H	-0.228159	-3.61207	-0.715566
N	-0.455163	-1.00577	-0.0454161
C	-0.335975	0.425752	-0.161069
C	0.961827	0.840498	0.504463
O	1.573	0.0596159	1.23146
H	0.106463	-1.42581	0.662454
H	-0.267328	0.689609	-1.2088
C	-1.52907	1.1453	0.506667
H	-1.59693	0.871838	1.58125
H	-1.44056	2.24772	0.419323
H	-2.47372	0.832129	0.010966
N	1.42553	2.08031	0.251791
C	2.65897	2.55847	0.831597
H	0.920113	2.69485	-0.344966
H	2.86852	3.60109	0.505598
H	3.51424	1.91557	0.52104
H	2.60204	2.54362	1.94412
C	6.39278	3.23383	-1.14764
C	6.71242	2.08481	-0.270832
O	7.71632	2.08263	0.428228
H	7.18604	4.0059	-1.04511
H	5.4184	3.67873	-0.855276
H	6.34573	2.90538	-2.20728
N	5.85283	1.06359	-0.294614
C	6.02764	-0.123954	0.502895
C	5.21553	-1.23566	-0.132585
O	4.37172	-0.985766	-0.991292
H	5.05396	1.06492	-0.890207
H	7.069	-0.418382	0.472038
C	5.56716	0.104167	1.95996
H	4.49861	0.406729	1.98786
H	5.70052	-0.808208	2.57686
H	6.16882	0.921577	2.41381
N	5.46896	-2.49899	0.262072
C	4.75377	-3.62286	-0.296141
H	6.16069	-2.6813	0.953088
H	5.10364	-4.57626	0.157599
H	4.91076	-3.68058	-1.39762
H	3.66003	-3.52549	-0.107917
