44
  This energy is -5.1468 and Call times are: 5058
C	-0.406237	-3.34844	0.865472
C	0.150012	-2.28687	-0.00335811
O	0.961488	-2.54811	-0.880715
H	0.0357286	-4.32723	0.578259
H	-1.50868	-3.40278	0.745068
H	-0.160555	-3.14118	1.92831
N	-0.278109	-1.04416	0.230616
C	0.171228	0.0937475	-0.531017
C	-0.081243	1.3382	0.297733
O	-0.806438	1.29633	1.28979
H	-0.917296	-0.840186	0.967345
H	1.23959	0.0133303	-0.686638
C	-0.571695	0.195315	-1.88189
H	-1.66749	0.277003	-1.71854
H	-0.228025	1.07033	-2.47097
H	-0.379684	-0.722704	-2.47899
N	0.533124	2.47639	-0.0805171
C	0.361617	3.70787	0.654485
H	1.12179	2.48823	-0.88212
H	0.945918	4.53019	0.185825
H	0.706691	3.5885	1.70706
H	-0.711262	4.00737	0.674748
C	9.01423	0.169341	1.32898
C	7.57849	-0.175128	1.43479
O	7.14375	-0.784056	2.40262
H	9.55077	-0.213689	2.22412
H	9.14056	1.2713	1.27852
H	9.45338	-0.294725	0.420829
N	6.80016	0.209115	0.42043
C	5.38363	-0.0528002	0.379389
C	4.93567	0.0330005	-1.06671
O	5.66578	0.529291	-1.92255
H	7.17137	0.678998	-0.376027
H	5.20281	-1.06431	0.720297
C	4.59873	0.96242	1.23984
H	4.78705	1.9991	0.887782
H	3.50768	0.763554	1.2106
H	4.93692	0.890449	2.29652
N	3.72544	-0.471908	-1.37722
C	3.22007	-0.44537	-2.73002
H	3.15244	-0.875832	-0.671707
H	2.20875	-0.905669	-2.78111
H	3.89637	-1.00853	-3.41319
H	3.14778	0.60224	-3.10213
