44
  This energy is -2.0627 and Call times are: 31609
C	-0.347398	3.14079	1.46317
C	-0.259439	2.2602	0.276571
O	-0.457311	2.69479	-0.849695
H	-0.611688	4.17039	1.13769
H	0.629046	3.17028	1.99091
H	-1.13129	2.77091	2.15718
N	0.0389211	0.979856	0.509087
C	0.160147	0.00208032	-0.542619
C	-0.0186079	-1.37115	0.0750566
O	0.0256797	-1.52252	1.29447
H	0.169207	0.631776	1.43364
H	-0.642173	0.149586	-1.25438
C	1.53484	0.0953444	-1.24164
H	2.35563	-0.0557825	-0.508444
H	1.63149	-0.656051	-2.0521
H	1.65397	1.10623	-1.68892
N	-0.247857	-2.40591	-0.757246
C	-0.442105	-3.74765	-0.259073
H	-0.287188	-2.26181	-1.74057
H	-0.614971	-4.45739	-1.0979
H	-1.32213	-3.78998	0.42284
H	0.452611	-4.0889	0.310324
C	8.44372	-2.29446	-1.43149
C	7.10406	-1.67703	-1.30785
O	6.20247	-1.96125	-2.08429
H	8.44822	-2.99187	-2.29721
H	8.68914	-2.86363	-0.510272
H	9.21266	-1.51077	-1.5973
N	6.94509	-0.799153	-0.314658
C	5.70038	-0.116508	-0.0665966
C	6.00539	1.12928	0.74225
O	7.10047	1.27596	1.2818
H	7.69564	-0.554241	0.293305
H	5.27831	0.200217	-1.01191
C	4.70752	-1.01812	0.700503
H	5.14399	-1.34175	1.66946
H	3.74798	-0.495643	0.893043
H	4.49321	-1.92767	0.098056
N	5.04464	2.07046	0.826776
C	5.24914	3.29479	1.56527
H	4.16766	1.93635	0.377166
H	4.34331	3.93859	1.51787
H	6.10832	3.8673	1.14661
H	5.46851	3.07632	2.63547
