44
  This energy is -2.7593 and Call times are: 22225
C	0.471838	-1.70857	-2.99738
C	0.386047	-1.67112	-1.52007
O	0.403337	-2.7004	-0.859171
H	0.5405	-2.76565	-3.33462
H	1.37476	-1.16203	-3.34213
H	-0.433046	-1.24648	-3.44527
N	0.284057	-0.462399	-0.962445
C	0.192279	-0.263964	0.461994
C	-0.419568	1.10224	0.703614
O	-0.508248	1.92157	-0.208889
H	0.241683	0.366874	-1.51331
H	-0.480087	-1.00368	0.877701
C	1.58153	-0.350036	1.13258
H	2.26895	0.409746	0.703275
H	1.5145	-0.197846	2.22945
H	2.01952	-1.35501	0.947271
N	-0.878078	1.37169	1.94182
C	-1.48707	2.64156	2.26235
H	-0.803651	0.692874	2.66494
H	-1.79731	2.67054	3.33013
H	-2.38815	2.81572	1.63072
H	-0.772333	3.47692	2.08201
C	7.41063	0.0401872	-3.42282
C	7.61072	-0.678769	-2.14444
O	7.42473	-1.885	-2.06127
H	7.08252	-0.681194	-4.20245
H	8.36079	0.513549	-3.74831
H	6.63034	0.821312	-3.30472
N	7.99525	0.0611639	-1.10185
C	8.23055	-0.494709	0.206768
C	8.13167	0.632311	1.21637
O	8.13969	1.80624	0.850776
H	8.11524	1.04765	-1.17528
H	7.44774	-1.2078	0.432099
C	9.62051	-1.16392	0.292029
H	10.4212	-0.42971	0.0596453
H	9.8049	-1.59313	1.29829
H	9.6806	-1.98686	-0.453161
N	8.01349	0.298253	2.51653
C	7.90146	1.30333	3.54778
H	8.00176	-0.657473	2.79164
H	7.81527	0.82989	4.55061
H	7.00122	1.93826	3.38142
H	8.79645	1.96678	3.54892
