44
  This energy is -0.9721 and Call times are: 20237
C	2.11758	-2.56528	-1.0302
C	0.981656	-1.64416	-1.25913
O	0.433974	-1.57435	-2.35076
H	2.34129	-3.11348	-1.9711
H	1.86064	-3.30019	-0.238546
H	3.01883	-1.99318	-0.724592
N	0.601589	-0.900946	-0.21723
C	-0.487306	0.0406497	-0.284548
C	-0.309043	1.04038	0.841507
O	0.482037	0.82155	1.75701
H	1.07455	-0.945821	0.658689
H	-0.425763	0.583521	-1.2192
C	-1.85347	-0.668974	-0.153655
H	-1.91293	-1.22545	0.805989
H	-2.69413	0.0531146	-0.205229
H	-1.97132	-1.39941	-0.983551
N	-1.0296	2.17786	0.787438
C	-0.917039	3.19292	1.8088
H	-1.65915	2.33963	0.0346206
H	-1.59033	4.05013	1.58719
H	0.127853	3.57464	1.86986
H	-1.19236	2.77939	2.80598
C	5.96384	-2.40607	-2.2942
C	6.68113	-1.15713	-1.95235
O	7.37837	-0.582199	-2.77685
H	6.18272	-2.67821	-3.34961
H	4.86886	-2.26189	-2.17996
H	6.29845	-3.233	-1.63301
N	6.52689	-0.707145	-0.704919
C	7.16043	0.494376	-0.223473
C	7.20751	0.421771	1.29038
O	6.53858	-0.409862	1.90092
H	5.97955	-1.20026	-0.0339531
H	8.18111	0.522408	-0.583343
C	6.3883	1.75555	-0.671112
H	5.34144	1.72318	-0.300784
H	6.8735	2.68252	-0.302237
H	6.35991	1.79645	-1.78182
N	8.02132	1.28283	1.93248
C	8.14032	1.27953	3.37193
H	8.55998	1.94358	1.42015
H	8.856	2.06141	3.70914
H	8.50514	0.290969	3.73372
H	7.15316	1.4787	3.8484
