44
  This energy is -3.628 and Call times are: 1463
C	-0.00446272	-1.30209	3.22965
C	-0.664246	-0.588811	2.11291
O	-1.8496	-0.290947	2.16503
H	-0.747642	-1.49189	4.03434
H	0.822111	-0.685964	3.64194
H	0.399898	-2.27434	2.87726
N	0.102005	-0.300419	1.05837
C	-0.396112	0.39028	-0.104232
C	0.538222	0.0903962	-1.26023
O	1.64147	-0.414935	-1.06196
H	1.05917	-0.574194	1.01566
H	-1.37113	-0.00594757	-0.358035
C	-0.471382	1.9146	0.136364
H	0.530441	2.31766	0.39716
H	-0.85468	2.4495	-0.756801
H	-1.15788	2.12096	0.986237
N	0.105841	0.376976	-2.50398
C	0.921744	0.11506	-3.66669
H	-0.793004	0.779011	-2.64426
H	0.392085	0.420897	-4.59576
H	1.16228	-0.9702	-3.74147
H	1.88128	0.678152	-3.60848
C	4.864	-2.78577	-2.04798
C	4.70421	-2.16257	-0.71483
O	4.55642	-2.84571	0.289147
H	4.81732	-3.89164	-1.94443
H	5.84568	-2.50694	-2.48545
H	4.04979	-2.45359	-2.72596
N	4.72508	-0.828196	-0.677663
C	4.58244	-0.0779765	0.544488
C	4.13503	1.32444	0.180776
O	4.19925	1.72341	-0.980486
H	4.81696	-0.282331	-1.50623
H	3.80105	-0.527414	1.14408
C	5.91174	-0.0245588	1.33012
H	6.71129	0.436457	0.711818
H	5.80543	0.552233	2.27181
H	6.22929	-1.05801	1.58952
N	3.64805	2.10111	1.16852
C	3.18712	3.44618	0.914538
H	3.59755	1.75754	2.10053
H	2.82596	3.92188	1.8529
H	2.35037	3.44243	0.178953
H	4.00982	4.07162	0.498407
