44
  This energy is -2.3669 and Call times are: 26988
C	-1.02484	-1.31494	3.05725
C	-0.135984	-0.457096	2.24162
O	0.669643	0.298978	2.7668
H	-0.823312	-1.13261	4.13521
H	-0.835123	-2.38556	2.83228
H	-2.08815	-1.07572	2.84493
N	-0.270456	-0.554026	0.916903
C	0.522995	0.215648	-0.00768553
C	-0.215505	0.259297	-1.3313
O	-1.15825	-0.499024	-1.55042
H	-0.950613	-1.15228	0.501678
H	0.602881	1.23148	0.358071
C	1.92359	-0.407302	-0.20106
H	1.83788	-1.44961	-0.575712
H	2.53724	0.182933	-0.912279
H	2.45378	-0.434643	0.775822
N	0.185128	1.16928	-2.24092
C	-0.466064	1.29212	-3.52429
H	0.945465	1.77883	-2.04199
H	0.00874632	2.09444	-4.131
H	-1.54421	1.54165	-3.39551
H	-0.398409	0.336211	-4.09249
C	5.76808	2.41254	-1.98973
C	5.84572	1.04401	-1.43088
O	4.94577	0.23522	-1.61098
H	4.81075	2.52974	-2.54256
H	6.61141	2.5881	-2.6903
H	5.80502	3.16272	-1.17192
N	6.94005	0.753559	-0.723453
C	7.15979	-0.535373	-0.117488
C	8.17745	-0.360739	0.992965
O	8.84352	0.66921	1.07893
H	7.65277	1.43033	-0.559303
H	6.23576	-0.874302	0.333469
C	7.67247	-1.56286	-1.15119
H	8.62017	-1.21167	-1.61234
H	7.84258	-2.55648	-0.687988
H	6.91864	-1.68086	-1.95987
N	8.30556	-1.36134	1.88649
C	9.24039	-1.27888	2.98442
H	7.75237	-2.18379	1.80396
H	9.19888	-2.20019	3.60628
H	9.00576	-0.405751	3.63545
H	10.2813	-1.15768	2.60617
