44
  This energy is -7.0522 and Call times are: 26084
C	1.34213	3.1295	0.72874
C	0.757775	1.8348	1.14525
O	0.7131	1.51099	2.32409
H	1.69859	3.67775	1.62775
H	0.5769	3.74599	0.211845
H	2.20191	2.95982	0.0468799
N	0.294871	1.05144	0.1683
C	-0.301847	-0.236768	0.415833
C	-0.226316	-1.0397	-0.868235
O	0.0435331	-0.493444	-1.93623
H	0.363457	1.31378	-0.79056
H	0.282373	-0.757234	1.16408
C	-1.77213	-0.0977498	0.869783
H	-2.36843	0.437218	0.10014
H	-2.2346	-1.08779	1.0614
H	-1.81394	0.493304	1.81056
N	-0.443091	-2.36738	-0.78894
C	-0.380301	-3.21436	-1.95721
H	-0.653039	-2.79178	0.0857232
H	-0.589166	-4.27298	-1.68712
H	0.629773	-3.16467	-2.42467
H	-1.12862	-2.89209	-2.71704
C	4.33612	1.43734	3.16973
C	4.75644	1.44721	1.75042
O	5.29722	2.42765	1.25768
H	4.58775	2.41556	3.63411
H	4.86585	0.631486	3.72
H	3.24	1.27593	3.24331
N	4.50686	0.338179	1.05034
C	4.85703	0.196357	-0.340384
C	3.99777	-0.906712	-0.927035
O	3.36755	-1.6686	-0.19615
H	4.03944	-0.443079	1.45541
H	4.61359	1.11446	-0.859912
C	6.35344	-0.148061	-0.511368
H	6.59983	-1.09009	0.0234044
H	6.62651	-0.257827	-1.58102
H	6.9721	0.667044	-0.0766205
N	3.93576	-1.0036	-2.26971
C	3.13408	-2.01509	-2.91808
H	4.44744	-0.373097	-2.84405
H	3.21558	-1.93212	-4.0243
H	2.06161	-1.90655	-2.63655
H	3.46856	-3.03431	-2.61725
