44
  This energy is -7.437 and Call times are: 8673
C	-0.681344	0.824417	3.31395
C	-0.324514	-0.155461	2.26337
O	-0.00774381	-1.30199	2.54907
H	-0.598827	0.340106	4.31119
H	-1.72467	1.17618	3.17053
H	0.0094959	1.69297	3.27794
N	-0.363485	0.285083	1.0037
C	-0.0434092	-0.549713	-0.126566
C	0.315445	0.356388	-1.28822
O	0.0615152	1.55882	-1.24927
H	-0.594883	1.2295	0.785836
H	0.830848	-1.14269	0.110345
C	-1.23282	-1.45849	-0.509377
H	-2.12817	-0.846935	-0.751151
H	-0.989719	-2.10273	-1.37923
H	-1.48662	-2.1164	0.35021
N	0.938014	-0.200111	-2.34592
C	1.32858	0.586477	-3.49262
H	1.1412	-1.17369	-2.35541
H	1.8246	-0.0517147	-4.25677
H	2.03867	1.39121	-3.19361
H	0.43928	1.06719	-3.96085
C	5.2672	0.7234	-3.26609
C	5.26873	1.01139	-1.8141
O	5.98471	1.88434	-1.34313
H	5.98853	1.39889	-3.77526
H	4.25487	0.894311	-3.68894
H	5.57056	-0.329139	-3.44797
N	4.45658	0.266108	-1.06088
C	4.34733	0.428021	0.36694
C	3.7816	-0.856979	0.939617
O	3.27165	-1.70136	0.205579
H	3.89981	-0.461591	-1.45254
H	5.33765	0.56528	0.782282
C	3.43269	1.61924	0.729611
H	2.41776	1.47546	0.301381
H	3.34648	1.74686	1.82827
H	3.85737	2.55419	0.303394
N	3.87919	-1.04442	2.27054
C	3.37924	-2.24256	2.90354
H	4.3017	-0.352491	2.84668
H	3.55097	-2.20795	4.00198
H	3.89133	-3.14464	2.49701
H	2.28572	-2.35553	2.72293
