44
  This energy is 0.1004 and Call times are: 10427
C	-3.1592	1.46478	0.00302635
C	-2.26775	0.292785	0.154537
O	-2.6983	-0.782886	0.547033
H	-4.19225	1.18132	0.300197
H	-3.16959	1.80338	-1.05436
H	-2.81328	2.29555	0.653488
N	-0.982513	0.481571	-0.153494
C	0.00584919	-0.562812	-0.0574087
C	1.36971	0.0934493	0.0344357
O	1.51279	1.28558	-0.230503
H	-0.638504	1.37041	-0.444295
H	-0.15518	-1.11642	0.85892
C	-0.0495077	-1.50399	-1.28144
H	0.115416	-0.932662	-2.21979
H	0.710122	-2.30942	-1.21062
H	-1.05385	-1.9775	-1.33817
N	2.40507	-0.670106	0.435719
C	3.738	-0.128819	0.564122
H	2.26758	-1.63103	0.652436
H	4.44982	-0.913023	0.904096
H	3.75428	0.703882	1.30411
H	4.09598	0.270162	-0.412526
C	5.17344	-0.351848	1.13442
C	3.72782	-0.143399	1.37507
O	3.27004	-0.135908	2.50948
H	5.69141	-0.491937	2.10804
H	5.60705	0.531771	0.620585
H	5.33111	-1.2564	0.51002
N	2.96506	0.0273677	0.292763
C	1.54175	0.24126	0.365429
C	0.946441	-0.123758	-0.98053
O	1.66633	-0.277545	-1.96539
H	3.34543	-0.00987821	-0.627491
H	1.12225	-0.430357	1.10368
C	1.21064	1.71004	0.712064
H	1.64307	2.39633	-0.0469681
H	0.115531	1.8782	0.768966
H	1.65323	1.96533	1.69953
N	-0.388771	-0.292921	-1.04831
C	-1.04305	-0.652721	-2.28469
H	-0.953363	-0.170966	-0.238623
H	-2.14173	-0.743043	-2.13639
H	-0.659151	-1.62775	-2.66307
H	-0.856975	0.118552	-3.0668
