44
  This energy is -4.6762 and Call times are: 22924
C	0.892301	-0.854917	-3.25562
C	0.260243	0.0575125	-2.27624
O	-0.15447	1.15799	-2.61308
H	0.910194	-0.366579	-4.25415
H	0.312977	-1.79937	-3.32783
H	1.93462	-1.08354	-2.94862
N	0.17762	-0.386282	-1.01982
C	-0.410976	0.386227	0.0448891
C	0.116086	-0.155045	1.3596
O	0.697334	-1.23756	1.4059
H	0.545423	-1.27282	-0.752031
H	-0.0824902	1.41406	-0.0430163
C	-1.95337	0.301009	0.0154039
H	-2.28687	-0.754853	0.105124
H	-2.40984	0.894834	0.833809
H	-2.32688	0.69936	-0.953076
N	-0.0570785	0.601333	2.46138
C	0.421893	0.172987	3.75493
H	-0.523671	1.47769	2.40209
H	0.181995	0.930209	4.53359
H	1.52626	0.0271098	3.73639
H	-0.0490876	-0.79308	4.04831
C	7.13035	-0.00112207	-2.89826
C	5.82316	0.042458	-2.20504
O	4.7869	0.249322	-2.82138
H	6.97676	0.183289	-3.98373
H	7.60037	-0.998342	-2.76616
H	7.80512	0.781878	-2.49262
N	5.84581	-0.149207	-0.884007
C	4.6555	-0.135857	-0.071727
C	5.0717	0.138761	1.36026
O	6.25065	0.0551333	1.69925
H	6.69958	-0.287817	-0.389241
H	4.02018	0.680197	-0.39188
C	3.90121	-1.48155	-0.156982
H	4.55611	-2.3166	0.171536
H	2.98406	-1.47467	0.467178
H	3.60286	-1.67164	-1.21102
N	4.10943	0.496387	2.23327
C	4.4132	0.788797	3.61472
H	3.16221	0.565439	1.93792
H	3.48951	1.06133	4.17129
H	5.13009	1.63847	3.688
H	4.87398	-0.0955251	4.11155
