44
  This energy is 0.1264 and Call times are: 18079
C	-2.89563	1.89148	0.40466
C	-2.17399	0.713924	-0.128058
O	-2.77291	-0.19775	-0.681804
H	-3.98457	1.77122	0.215952
H	-2.54358	2.81611	-0.0992631
H	-2.72814	1.98047	1.49872
N	-0.849119	0.70603	0.0363417
C	-0.0102704	-0.369865	-0.427997
C	1.28833	-0.31859	0.353188
O	1.58166	0.671455	1.02072
H	-0.376148	1.44098	0.514969
H	-0.491826	-1.31328	-0.204049
C	0.27504	-0.247641	-1.94153
H	0.768461	0.721612	-2.1678
H	0.920568	-1.07458	-2.30242
H	-0.684166	-0.285366	-2.50246
N	2.0902	-1.40055	0.304557
C	3.34077	-1.44727	1.02571
H	1.83181	-2.19472	-0.235587
H	3.85558	-2.41885	0.857631
H	3.16814	-1.32677	2.11975
H	4.0184	-0.628788	0.690906
C	6.69134	1.66223	-0.644206
C	5.92239	0.559171	-0.0251956
O	6.48824	-0.373449	0.528453
H	7.77856	1.47034	-0.513861
H	6.43582	2.6269	-0.157449
H	6.465	1.72478	-1.72947
N	4.59273	0.641192	-0.11271
C	3.71007	-0.354458	0.440846
C	2.37363	-0.236909	-0.265786
O	2.11071	0.747793	-0.953583
H	4.14444	1.39119	-0.591748
H	4.11007	-1.33742	0.226676
C	3.52556	-0.159139	1.96233
H	3.1157	0.850517	2.1785
H	2.8466	-0.924207	2.39183
H	4.51177	-0.246379	2.46823
N	1.50236	-1.2558	-0.12882
C	0.210489	-1.2373	-0.774495
H	1.73654	-2.04719	0.426242
H	-0.360027	-2.16271	-0.539191
H	0.325025	-1.16788	-1.88053
H	-0.386813	-0.36084	-0.43357
