44
  This energy is -4.7903 and Call times are: 28983
C	0.890029	-3.35621	-0.264256
C	-0.0223686	-2.28362	0.192115
O	-1.10428	-2.54659	0.698871
H	0.420077	-4.34501	-0.0711615
H	1.85158	-3.30132	0.288226
H	1.0835	-3.25672	-1.35312
N	0.400077	-1.02984	0.0133958
C	-0.375291	0.119693	0.406101
C	0.126352	1.31229	-0.384664
O	1.19105	1.25749	-0.99724
H	1.27078	-0.82809	-0.42719
H	-1.41014	-0.044053	0.133417
C	-0.246214	0.394404	1.92102
H	0.81675	0.561271	2.19739
H	-0.842123	1.2788	2.22684
H	-0.615787	-0.487007	2.48907
N	-0.645264	2.41688	-0.406909
C	-0.254736	3.59672	-1.14287
H	-1.50691	2.43908	0.0893907
H	-1.0193	4.39758	-1.03646
H	-0.139641	3.36378	-2.22626
H	0.718552	3.98909	-0.768796
C	4.12015	2.21649	-2.57005
C	4.5107	1.93118	-1.17102
O	4.82315	2.83248	-0.405166
H	4.1755	3.31201	-2.7507
H	3.08017	1.87401	-2.75435
H	4.80864	1.70116	-3.27244
N	4.50662	0.647511	-0.804229
C	4.86223	0.212673	0.522906
C	5.25131	-1.25081	0.44506
O	4.99208	-1.91784	-0.554798
H	4.27826	-0.0799929	-1.44573
H	5.73137	0.76696	0.853712
C	3.68763	0.398378	1.50929
H	2.79748	-0.17105	1.16652
H	3.95808	0.0646806	2.53217
H	3.41141	1.47431	1.55639
N	5.90619	-1.78033	1.49708
C	6.32696	-3.162	1.50764
H	6.11303	-1.22231	2.29399
H	6.84715	-3.4074	2.45971
H	7.02524	-3.3665	0.663943
H	5.44988	-3.84081	1.40216
