44
  This energy is 0.1373 and Call times are: 8286
C	-1.71676	0.827759	2.91439
C	-0.807695	1.17012	1.79743
O	-0.420695	2.31785	1.6259
H	-1.94906	1.74752	3.49399
H	-1.23304	0.0904497	3.58909
H	-2.66379	0.402303	2.52062
N	-0.446604	0.16436	0.997163
C	0.432667	0.340176	-0.131021
C	0.212257	-0.82247	-1.07913
O	-0.406136	-1.82123	-0.715936
H	-0.791856	-0.760878	1.1301
H	0.15743	1.2475	-0.653593
C	1.91207	0.391736	0.311495
H	2.19086	-0.54032	0.847841
H	2.59184	0.527191	-0.554729
H	2.06015	1.24682	1.00652
N	0.697783	-0.708836	-2.33107
C	0.525734	-1.76002	-3.30656
H	1.18921	0.110347	-2.60796
H	0.996437	-1.47919	-4.27446
H	-0.556182	-1.9556	-3.4867
H	0.993171	-2.70668	-2.95088
C	1.9541	-0.793397	0.98021
C	3.1434	0.0875318	1.00749
O	3.11162	1.17608	1.56476
H	1.11592	-0.295516	1.51446
H	2.17984	-1.75661	1.48428
H	1.64627	-0.988675	-0.0686231
N	4.23489	-0.370458	0.390023
C	5.46903	0.371353	0.331374
C	6.27921	-0.163509	-0.833429
O	5.97707	-1.22566	-1.37415
H	4.23936	-1.24618	-0.0853922
H	5.24545	1.4107	0.126817
C	6.27135	0.233128	1.6445
H	6.49841	-0.83442	1.85162
H	7.22215	0.803217	1.60282
H	5.66658	0.627267	2.49011
N	7.32076	0.576204	-1.26238
C	8.14196	0.152728	-2.37255
H	7.54485	1.43642	-0.81623
H	8.94713	0.893966	-2.57133
H	7.52861	0.045304	-3.29641
H	8.61694	-0.83172	-2.15707
