44
  This energy is 0.1281 and Call times are: 27415
C	-3.00871	1.48788	0.927373
C	-2.08365	0.33272	0.894425
O	-2.31898	-0.684482	1.53193
H	-3.86682	1.25234	1.59373
H	-3.39323	1.69928	-0.0925648
H	-2.4859	2.38601	1.31849
N	-0.989719	0.470327	0.141605
C	0.00321008	-0.565683	0.00892611
C	1.29413	0.0825158	-0.452163
O	1.30005	1.23343	-0.884814
H	-0.794752	1.31493	-0.349887
H	0.184988	-1.00545	0.981365
C	-0.44112	-1.64424	-1.00419
H	-0.627381	-1.18952	-2.00051
H	0.321062	-2.44358	-1.10867
H	-1.3883	-2.1106	-0.655615
N	2.42755	-0.639086	-0.348988
C	3.70562	-0.100407	-0.752175
H	2.40309	-1.56618	0.010357
H	4.515	-0.846365	-0.591884
H	3.94992	0.813666	-0.163934
H	3.69267	0.176633	-1.83118
C	5.46495	1.38521	0.710193
C	4.55532	0.224487	0.581771
O	4.97399	-0.920926	0.677931
H	6.5008	1.0223	0.886797
H	5.15587	2.02056	1.56671
H	5.44955	1.98867	-0.221769
N	3.26966	0.501215	0.351865
C	2.2645	-0.520816	0.203783
C	1.0901	0.0849913	-0.539875
O	0.995846	1.30283	-0.680642
H	2.94599	1.43774	0.246572
H	2.66336	-1.32074	-0.407044
C	1.80338	-1.05936	1.57654
H	1.39538	-0.235997	2.20083
H	1.02952	-1.8466	1.46619
H	2.67292	-1.49936	2.11174
N	0.173843	-0.758517	-1.05462
C	-0.971732	-0.273483	-1.7885
H	0.27161	-1.74119	-0.936166
H	-1.60811	-1.12002	-2.12856
H	-0.648428	0.303997	-2.68474
H	-1.59183	0.397319	-1.15079
