44
  This energy is -7.8619 and Call times are: 19051
C	0.951171	1.12204	3.15633
C	0.898446	0.0794487	2.10684
O	1.51754	-0.96899	2.22511
H	1.6125	0.779341	3.98159
H	-0.0651658	1.3068	3.56345
H	1.35866	2.06635	2.73778
N	0.149119	0.353016	1.03631
C	-0.00114279	-0.561774	-0.0670482
C	-0.449529	0.236088	-1.27602
O	-0.861618	1.38783	-1.15149
H	-0.327095	1.22284	0.938498
H	0.963466	-0.995435	-0.298438
C	-1.03367	-1.6654	0.253892
H	-2.0219	-1.21697	0.491452
H	-1.15172	-2.37162	-0.593517
H	-0.694256	-2.24181	1.14197
N	-0.358259	-0.354691	-2.48376
C	-0.750713	0.331888	-3.69239
H	-0.0154958	-1.28487	-2.56451
H	-0.603043	-0.320679	-4.58098
H	-0.146086	1.25709	-3.83265
H	-1.82463	0.62484	-3.64699
C	6.10209	-0.618606	-3.26138
C	5.1853	-0.852624	-2.12298
O	4.18548	-1.54627	-2.24826
H	5.71668	-1.14999	-4.15857
H	7.11517	-1.00509	-3.02241
H	6.16442	0.467062	-3.48584
N	5.50948	-0.263376	-0.969696
C	4.7168	-0.397274	0.226362
C	5.05367	0.76426	1.14102
O	6.04329	1.46314	0.931121
H	6.31099	0.323016	-0.888063
H	3.66926	-0.317094	-0.034966
C	5.0005	-1.73677	0.942174
H	6.07617	-1.81598	1.20823
H	4.39169	-1.8432	1.86347
H	4.75084	-2.57954	0.261332
N	4.22026	1.01105	2.17084
C	4.45391	2.1029	3.08706
H	3.42076	0.438464	2.31973
H	3.66015	2.13981	3.86541
H	4.45888	3.07631	2.54513
H	5.43833	1.98569	3.59534
