44
  This energy is -3.6885 and Call times are: 5288
C	-1.81047	-2.93745	-0.46877
C	-0.546803	-2.21713	-0.193988
O	0.470942	-2.82095	0.116006
H	-1.64694	-4.02918	-0.337503
H	-2.14078	-2.74639	-1.51146
H	-2.60158	-2.60523	0.236012
N	-0.587849	-0.88678	-0.298091
C	0.560288	-0.0484703	-0.0617698
C	0.0608125	1.3497	0.246266
O	-1.10583	1.66467	0.0191903
H	-1.43037	-0.404563	-0.522937
H	1.08596	-0.410107	0.812851
C	1.49771	-0.0192535	-1.28957
H	0.955024	0.351593	-2.18516
H	2.38289	0.62521	-1.11096
H	1.85575	-1.04945	-1.50554
N	0.93308	2.21847	0.794334
C	0.54412	3.56775	1.1325
H	1.87095	1.94235	0.977076
H	1.40097	4.12609	1.56988
H	-0.286565	3.56277	1.87492
H	0.194641	4.11471	0.227029
C	4.62588	-1.18498	-0.0459046
C	5.65612	-0.224196	0.40874
O	5.35378	0.766793	1.05914
H	3.62539	-0.838237	0.292684
H	4.8228	-2.1893	0.384659
H	4.62704	-1.25161	-1.15428
N	6.91644	-0.499219	0.064742
C	8.02825	0.340313	0.433391
C	9.17061	0.0454885	-0.519139
O	9.14555	-0.94875	-1.24211
H	7.14652	-1.29427	-0.490144
H	7.74645	1.37684	0.298238
C	8.47087	0.0798461	1.89057
H	8.75861	-0.984588	2.02583
H	9.32668	0.724737	2.17776
H	7.62496	0.298308	2.57822
N	10.1946	0.920668	-0.556989
C	11.3204	0.728741	-1.44134
H	10.193	1.72304	0.0307461
H	12.0577	1.55329	-1.32402
H	10.9859	0.706182	-2.50383
H	11.8339	-0.234955	-1.2205
