44
  This energy is -3.6165 and Call times are: 25515
C	-2.04141	-2.81177	-0.229639
C	-1.12536	-1.81585	-0.829803
O	-0.722091	-1.93865	-1.97819
H	-2.25158	-3.61188	-0.972276
H	-2.99842	-2.32731	0.0571513
H	-1.57499	-3.26858	0.66854
N	-0.767177	-0.793603	-0.0493634
C	0.117447	0.254688	-0.491353
C	0.705768	0.917479	0.739023
O	0.224459	0.715998	1.85239
H	-1.07935	-0.720219	0.894088
H	0.933679	-0.185824	-1.04973
C	-0.631665	1.29811	-1.34997
H	-1.46876	1.74752	-0.774292
H	0.0465714	2.10664	-1.6921
H	-1.05888	0.799861	-2.2474
N	1.78106	1.71142	0.567538
C	2.41588	2.37499	1.68238
H	2.16018	1.85622	-0.340501
H	3.28107	2.98296	1.33731
H	2.78455	1.63041	2.42462
H	1.6964	3.05056	2.19921
C	5.25759	2.66769	-2.23629
C	5.34775	1.22019	-1.93996
O	5.31293	0.387781	-2.83571
H	5.15503	2.81222	-3.33377
H	6.17571	3.18707	-1.8897
H	4.37167	3.10737	-1.73155
N	5.46168	0.884362	-0.652866
C	5.55987	-0.482689	-0.207492
C	5.15451	-0.52715	1.25297
O	5.06392	0.506958	1.91194
H	5.45959	1.57042	0.0698071
H	4.85313	-1.08553	-0.763526
C	6.99553	-1.02783	-0.3772
H	7.71804	-0.406663	0.19398
H	7.07466	-2.08029	-0.0353618
H	7.28093	-0.98882	-1.45106
N	4.87866	-1.73251	1.78871
C	4.47323	-1.87145	3.16802
H	4.95087	-2.55697	1.2371
H	4.29398	-2.94004	3.41948
H	3.5341	-1.30381	3.36057
H	5.26071	-1.47783	3.85075
