44
  This energy is -3.405 and Call times are: 1728
C	-2.31331	2.13106	-1.49443
C	-1.80716	0.776966	-1.17592
O	-2.45665	-0.222239	-1.45207
H	-3.30944	2.04588	-1.98056
H	-1.61715	2.64602	-2.18942
H	-2.41703	2.72948	-0.564871
N	-0.618099	0.715214	-0.572036
C	0.0057027	-0.529363	-0.199574
C	1.02624	-0.233592	0.882215
O	1.38199	0.920716	1.1121
H	-0.112013	1.5376	-0.326088
H	-0.743553	-1.18512	0.225481
C	0.693777	-1.1982	-1.41049
H	1.46134	-0.522473	-1.84449
H	1.175	-2.15684	-1.12726
H	-0.0641545	-1.40862	-2.19624
N	1.50667	-1.27494	1.58988
C	2.47275	-1.08849	2.64729
H	1.20101	-2.20081	1.39351
H	2.7452	-2.06381	3.10749
H	2.06047	-0.427964	3.44414
H	3.40101	-0.615407	2.25269
C	5.67986	1.55214	3.08005
C	5.4004	1.60133	1.62723
O	5.08936	2.64926	1.07805
H	5.55072	2.56767	3.5135
H	6.7229	1.21555	3.25781
H	4.97622	0.85502	3.5819
N	5.50154	0.446817	0.964485
C	5.26054	0.334936	-0.451929
C	4.95048	-1.11735	-0.758494
O	5.17963	-1.99729	0.0691653
H	5.72729	-0.405645	1.42847
H	4.38549	0.919077	-0.707179
C	6.48602	0.800588	-1.26953
H	7.38205	0.199672	-1.00469
H	6.30381	0.715904	-2.36059
H	6.7035	1.86543	-1.03512
N	4.39833	-1.39956	-1.95494
C	4.05799	-2.75225	-2.32989
H	4.21398	-0.672659	-2.60828
H	3.61728	-2.77826	-3.35084
H	3.31758	-3.18294	-1.61747
H	4.96304	-3.40187	-2.32193
