44
  This energy is -1.7137 and Call times are: 12386
C	-3.409	-0.347848	-0.619545
C	-2.26718	-0.147216	0.300885
O	-2.44562	0.111981	1.48303
H	-4.36004	-0.217256	-0.0588909
H	-3.38111	-1.37262	-1.04604
H	-3.37222	0.39606	-1.44307
N	-1.04856	-0.259124	-0.232781
C	0.159401	-0.09156	0.535066
C	1.28354	0.232292	-0.429646
O	1.14098	0.0661387	-1.63956
H	-0.916373	-0.441831	-1.20339
H	0.0402818	0.756141	1.19785
C	0.498255	-1.36838	1.33633
H	0.619109	-2.23617	0.653365
H	1.42774	-1.24276	1.92883
H	-0.333406	-1.59548	2.03841
N	2.42675	0.725801	0.0856433
C	3.54691	1.07415	-0.757017
H	2.52006	0.859744	1.06676
H	4.39292	1.46034	-0.146793
H	3.25675	1.86035	-1.49114
H	3.90227	0.184709	-1.32605
C	6.93169	3.44085	-0.48892
C	6.837	2.04774	-0.98035
O	6.40892	1.79936	-2.09907
H	6.56054	4.13367	-1.27512
H	7.98759	3.69361	-0.256541
H	6.31207	3.56784	0.423708
N	7.2363	1.09298	-0.136931
C	7.20448	-0.308497	-0.471114
C	7.21313	-1.09666	0.824248
O	7.4943	-0.551506	1.88989
H	7.55576	1.30617	0.78254
H	6.27593	-0.527168	-0.983012
C	8.41616	-0.706453	-1.34323
H	9.36706	-0.480143	-0.815321
H	8.39471	-1.78492	-1.60251
H	8.39898	-0.121348	-2.28848
N	6.88181	-2.40151	0.764248
C	6.85115	-3.22853	1.948
H	6.65045	-2.82258	-0.106618
H	6.55796	-4.27058	1.6922
H	6.11891	-2.82981	2.68697
H	7.85293	-3.25551	2.4347
