44
  This energy is -1.0701 and Call times are: 31128
C	1.16935	-3.27576	0.167686
C	0.784028	-1.99699	0.80601
O	0.727882	-1.88932	2.02328
H	1.36725	-4.0346	0.955634
H	2.08948	-3.13879	-0.438471
H	0.348258	-3.64074	-0.484654
N	0.499946	-0.985168	-0.0173282
C	0.109966	0.319831	0.453545
C	-0.617788	1.02407	-0.675021
O	-0.568052	0.588187	-1.82366
H	0.521101	-1.09372	-1.00763
H	-0.587752	0.20413	1.27322
C	1.33719	1.14903	0.893403
H	2.05119	1.26519	0.0502998
H	1.04049	2.1544	1.25668
H	1.86224	0.621927	1.71962
N	-1.33272	2.12418	-0.367385
C	-2.06797	2.85352	-1.37419
H	-1.36633	2.45702	0.569269
H	-2.58923	3.72729	-0.924689
H	-2.83111	2.19919	-1.85451
H	-1.38216	3.22536	-2.16954
C	5.86423	-3.34811	0.807364
C	5.23357	-2.03179	1.05385
O	4.36708	-1.89527	1.90652
H	5.41776	-4.10297	1.49053
H	6.95634	-3.29105	0.999395
H	5.68989	-3.66564	-0.242266
N	5.65868	-1.01913	0.294792
C	5.14099	0.320239	0.41695
C	5.43213	1.05224	-0.878674
O	6.22495	0.590338	-1.69716
H	6.3444	-1.1493	-0.416392
H	4.06569	0.272588	0.533364
C	5.78682	1.06669	1.60558
H	6.88999	1.11314	1.48324
H	5.39034	2.09827	1.70262
H	5.56728	0.519858	2.5484
N	4.77642	2.20762	-1.10482
C	4.98049	2.96771	-2.31594
H	4.13344	2.56124	-0.433434
H	4.35311	3.88622	-2.31418
H	4.71107	2.36098	-3.21066
H	6.04769	3.27213	-2.41383
