44
  This energy is 0.0379 and Call times are: 30740
C	2.46145	2.27665	0.940362
C	1.52251	1.17418	1.24723
O	1.5403	0.61211	2.33362
H	3.11873	2.4546	1.8191
H	1.89876	3.20767	0.718106
H	3.09325	2.00959	0.0671823
N	0.671701	0.832466	0.276803
C	-0.301328	-0.220154	0.42523
C	-0.707835	-0.677861	-0.962032
O	-0.422207	-0.00905293	-1.95347
H	0.686607	1.27847	-0.614147
H	0.16283	-1.06033	0.925962
C	-1.54099	0.266148	1.20873
H	-2.01429	1.12853	0.692599
H	-2.29217	-0.541929	1.32498
H	-1.22969	0.599757	2.22261
N	-1.36932	-1.84736	-1.06559
C	-1.78615	-2.36888	-2.34639
H	-1.58486	-2.3775	-0.252125
H	-2.3162	-3.33888	-2.22238
H	-0.905776	-2.5328	-3.0092
H	-2.47404	-1.65598	-2.85606
C	6.55012	-3.16676	1.44837
C	5.88244	-1.8889	1.11299
O	4.68965	-1.72297	1.32795
H	5.80499	-3.86708	1.88449
H	7.35755	-2.99327	2.19052
H	6.98154	-3.62495	0.533555
N	6.65033	-0.944866	0.563884
C	6.14522	0.350115	0.183469
C	7.09663	0.939091	-0.839843
O	8.21035	0.449371	-1.01767
H	7.61434	-1.10255	0.366983
H	5.18257	0.22537	-0.295926
C	6.03002	1.28983	1.40444
H	7.01923	1.41504	1.89423
H	5.64124	2.28779	1.11512
H	5.33132	0.846586	2.14708
N	6.66797	1.99744	-1.55549
C	7.50011	2.61715	-2.56033
H	5.76065	2.37479	-1.40183
H	6.97102	3.47181	-3.03663
H	7.76818	1.88398	-3.35521
H	8.44482	2.99735	-2.1085
