44
  This energy is -1.3494 and Call times are: 20153
C	-2.96475	-0.929855	-1.57218
C	-1.58643	-1.2199	-1.11688
O	-1.11619	-2.34606	-1.20131
H	-3.42804	-1.86362	-1.95859
H	-2.94796	-0.173911	-2.38526
H	-3.57519	-0.549085	-0.726417
N	-0.900713	-0.192501	-0.610296
C	0.450881	-0.317604	-0.126179
C	0.716492	0.838773	0.818003
O	-0.0446479	1.80352	0.860064
H	-1.30509	0.713737	-0.520024
H	0.537097	-1.23405	0.443709
C	1.46866	-0.299018	-1.28846
H	1.377	0.642214	-1.87138
H	2.51038	-0.395305	-0.919237
H	1.26266	-1.15017	-1.97348
N	1.7982	0.757162	1.61754
C	2.1243	1.80477	2.55687
H	2.39797	-0.035035	1.57364
H	3.04989	1.55363	3.1203
H	1.29652	1.94795	3.28867
H	2.28761	2.77104	2.02693
C	8.27432	-2.9408	-1.48786
C	7.41621	-1.73471	-1.47384
O	6.73684	-1.43046	-2.4446
H	8.17898	-3.44797	-2.47251
H	7.95836	-3.64441	-0.689155
H	9.3363	-2.65694	-1.33112
N	7.43421	-1.00711	-0.354633
C	6.65297	0.19259	-0.189629
C	7.2844	1.01084	0.919875
O	8.12385	0.51344	1.66804
H	8.01413	-1.24946	0.4186
H	6.70718	0.775787	-1.10013
C	5.18489	-0.136119	0.162226
H	5.13302	-0.735029	1.09643
H	4.58048	0.78539	0.289834
H	4.7341	-0.736656	-0.657705
N	6.90826	2.29948	1.03788
C	7.46445	3.1587	2.05698
H	6.23279	2.68546	0.418205
H	7.0278	4.17965	1.99184
H	8.56933	3.24199	1.94057
H	7.254	2.75138	3.07235
