44
  This energy is -2.9535 and Call times are: 32769
C	-0.786616	-3.09014	-1.39944
C	0.139382	-2.18245	-0.685404
O	1.19138	-2.59367	-0.215618
H	-0.361827	-4.11745	-1.40581
H	-0.922255	-2.75087	-2.44792
H	-1.77189	-3.11179	-0.887863
N	-0.242167	-0.907246	-0.582291
C	0.551531	0.0947338	0.0832221
C	-0.367493	1.23834	0.466365
O	-1.49755	1.32348	-0.010653
H	-1.11509	-0.590651	-0.943824
H	0.953517	-0.324465	0.99687
C	1.688	0.609026	-0.828404
H	1.2721	1.03779	-1.76505
H	2.3012	1.38057	-0.319018
H	2.35342	-0.238321	-1.10293
N	0.0917807	2.13708	1.3593
C	-0.716826	3.25263	1.79277
H	1.00649	2.04687	1.73929
H	-0.162636	3.8783	2.5267
H	-1.65465	2.89393	2.27554
H	-0.998025	3.89431	0.926545
C	9.73153	0.84559	1.76293
C	8.26899	0.919803	1.54685
O	7.53707	1.47146	2.35706
H	9.98644	1.34239	2.72421
H	10.2667	1.36205	0.938528
H	10.0585	-0.214576	1.80848
N	7.80459	0.350376	0.432192
C	6.40638	0.341103	0.0832852
C	6.18019	-0.786733	-0.904674
O	7.12989	-1.33599	-1.45985
H	8.40759	-0.121386	-0.205592
H	5.82398	0.123714	0.969645
C	5.97294	1.68728	-0.538855
H	6.57288	1.90748	-1.44754
H	4.89682	1.68364	-0.808551
H	6.14474	2.50534	0.194226
N	4.90945	-1.17407	-1.13096
C	4.59822	-2.24725	-2.04617
H	4.1551	-0.721882	-0.666517
H	3.49974	-2.41456	-2.09702
H	5.08241	-3.1957	-1.71869
H	4.96443	-2.00857	-3.07091
