44
  This energy is -4.3949 and Call times are: 25704
C	-2.95304	-1.23432	-1.3719
C	-1.8364	-1.3105	-0.403138
O	-1.83239	-2.1429	0.493301
H	-3.70742	-2.01259	-1.12478
H	-2.57851	-1.41118	-2.40208
H	-3.43662	-0.236062	-1.32103
N	-0.851445	-0.423485	-0.562588
C	0.30197	-0.372773	0.299904
C	0.914668	1.00887	0.177777
O	0.58456	1.7645	-0.734292
H	-0.880372	0.268451	-1.27905
H	-0.0198425	-0.500394	1.32568
C	1.34014	-1.45026	-0.0852345
H	1.6676	-1.31677	-1.13836
H	2.22949	-1.41412	0.576978
H	0.878704	-2.45757	0.00721238
N	1.81089	1.38014	1.11316
C	2.43755	2.68117	1.08495
H	2.05955	0.757039	1.84743
H	3.14438	2.79574	1.93614
H	1.67196	3.48759	1.15416
H	3.00455	2.82387	0.136616
C	6.36152	-2.70902	2.06908
C	6.25956	-1.25356	1.81915
O	6.40329	-0.444544	2.72542
H	6.56792	-2.88291	3.14752
H	7.18969	-3.14293	1.47019
H	5.40854	-3.21138	1.79998
N	5.99886	-0.884437	0.562911
C	5.87076	0.494431	0.163986
C	5.08682	0.533192	-1.13339
O	4.90127	-0.49187	-1.78657
H	5.855	-1.55409	-0.160829
H	5.29542	1.02512	0.91194
C	7.25405	1.15436	-0.0312267
H	7.84185	0.607021	-0.798707
H	7.1591	2.21619	-0.33828
H	7.81879	1.1185	0.925816
N	4.58744	1.72143	-1.52672
C	3.81804	1.85274	-2.74203
H	4.74238	2.53817	-0.980687
H	3.49792	2.90728	-2.89278
H	2.90725	1.21238	-2.70153
H	4.4212	1.53971	-3.62485
