44
  This energy is -5.0952 and Call times are: 16357
C	2.45519	2.18394	-1.15265
C	1.58804	1.65056	-0.0780514
O	1.7254	2.01079	1.08292
H	3.18365	2.90065	-0.715011
H	1.84185	2.71348	-1.91174
H	3.01322	1.35699	-1.6402
N	0.664365	0.760556	-0.448303
C	-0.253026	0.153004	0.482343
C	-0.768713	-1.12919	-0.141587
O	-0.599188	-1.35876	-1.33758
H	0.5816	0.453329	-1.3926
H	0.284615	-0.112816	1.38365
C	-1.43196	1.09716	0.80761
H	-1.9809	1.36837	-0.119336
H	-2.1402	0.632535	1.52406
H	-1.0409	2.03305	1.26296
N	-1.39506	-2.00881	0.664604
C	-1.90899	-3.26145	0.161654
H	-1.51609	-1.80793	1.63116
H	-2.39072	-3.84467	0.977151
H	-1.08794	-3.87728	-0.271792
H	-2.66559	-3.08377	-0.636568
C	4.44152	-3.29974	-0.642279
C	4.36957	-2.06448	0.170231
O	3.57463	-1.96054	1.09422
H	3.68902	-4.0285	-0.270111
H	5.45179	-3.75306	-0.560611
H	4.22435	-3.07092	-1.7069
N	5.20962	-1.08316	-0.166937
C	5.25835	0.177705	0.529253
C	5.89942	1.19532	-0.394179
O	6.49572	0.836483	-1.40783
H	5.83231	-1.16904	-0.940121
H	4.24713	0.507602	0.730911
C	6.06825	0.0654736	1.8402
H	7.10492	-0.273822	1.6297
H	6.10765	1.03453	2.37887
H	5.58911	-0.6838	2.5074
N	5.77151	2.49802	-0.0738453
C	6.33847	3.53846	-0.899818
H	5.2791	2.76858	0.746864
H	6.1278	4.54177	-0.468258
H	5.90952	3.50184	-1.92739
H	7.44284	3.41696	-0.982166
