44
  This energy is -4.1703 and Call times are: 31222
C	0.511393	-3.44271	0.111043
C	0.305504	-2.13536	0.774094
O	0.139803	-2.05873	1.98371
H	0.477975	-4.25071	0.873858
H	1.5007	-3.46467	-0.392554
H	-0.288391	-3.62229	-0.637984
N	0.30587	-1.06155	-0.0191846
C	0.118356	0.27789	0.478389
C	-0.339155	1.14486	-0.678452
O	-0.248457	0.745252	-1.83773
H	0.412812	-1.13976	-1.0068
H	-0.672781	0.27118	1.21739
C	1.42436	0.842049	1.08104
H	2.23401	0.846867	0.320405
H	1.28349	1.87322	1.46526
H	1.7496	0.197515	1.92658
N	-0.864702	2.35083	-0.386155
C	-1.33794	3.23989	-1.42143
H	-0.936104	2.65319	0.558679
H	-1.73197	4.18213	-0.980788
H	-2.15375	2.75976	-2.00895
H	-0.513178	3.49935	-2.12402
C	3.65631	-2.47337	-2.1123
C	4.12769	-2.00859	-0.788295
O	4.0369	-2.72166	0.201545
H	3.24046	-3.49972	-2.01458
H	4.50062	-2.49487	-2.83307
H	2.86165	-1.79847	-2.49435
N	4.64488	-0.77869	-0.741189
C	5.14585	-0.187429	0.473833
C	5.15786	1.31755	0.289121
O	5.02538	1.81489	-0.827542
H	4.68664	-0.196561	-1.54885
H	4.46317	-0.414092	1.28294
C	6.56837	-0.69391	0.80095
H	7.26596	-0.460319	-0.0314746
H	6.95709	-0.240746	1.736
H	6.54628	-1.79767	0.93272
N	5.29615	2.08145	1.39064
C	5.3069	3.52371	1.31353
H	5.39486	1.66019	2.2862
H	5.43219	3.97064	2.32437
H	4.35281	3.90105	0.879289
H	6.14346	3.87659	0.667908
