44
  This energy is -3.7521 and Call times are: 11650
C	-1.78809	2.89674	0.733339
C	-1.70913	1.43308	0.526738
O	-2.66723	0.708859	0.759215
H	-2.79945	3.16013	1.11234
H	-1.61405	3.42841	-0.225748
H	-1.03	3.21979	1.47757
N	-0.542601	0.958885	0.0832191
C	-0.312149	-0.441684	-0.166028
C	1.18528	-0.679049	-0.141539
O	1.97214	0.264674	-0.187005
H	0.239608	1.55567	-0.0746815
H	-0.749896	-1.01893	0.638484
C	-0.896344	-0.873951	-1.52947
H	-0.445576	-0.279301	-2.35246
H	-0.720792	-1.95187	-1.72451
H	-1.99348	-0.693934	-1.53503
N	1.6148	-1.95282	-0.0465275
C	3.02225	-2.27451	-0.00455309
H	0.962249	-2.7022	-0.0036852
H	3.17221	-3.37397	0.0725504
H	3.50955	-1.79191	0.873441
H	3.53542	-1.9143	-0.925467
C	7.4566	-3.04811	-1.50423
C	6.79244	-2.24462	-0.453281
O	6.01425	-2.75828	0.33859
H	7.1209	-4.10499	-1.42567
H	8.55877	-3.01064	-1.37519
H	7.18902	-2.65979	-2.50949
N	7.08657	-0.942619	-0.427593
C	6.52052	-0.0322703	0.535566
C	6.63902	1.37175	-0.0247174
O	7.36329	1.60397	-0.990812
H	7.69967	-0.530668	-1.09643
H	5.46684	-0.252533	0.650965
C	7.2503	-0.125466	1.89418
H	8.33112	0.100423	1.772
H	6.81687	0.574082	2.63819
H	7.15713	-1.15895	2.2934
N	5.90833	2.34167	0.559541
C	5.94782	3.70595	0.0869488
H	5.32275	2.13232	1.33575
H	5.28052	4.35317	0.697743
H	5.61592	3.76363	-0.975012
H	6.98302	4.11319	0.147736
