44
  This energy is 0.1105 and Call times are: 33951
C	3.47782	0.00184023	-0.175822
C	2.20974	0.308982	0.523351
O	2.20617	0.719836	1.6756
H	4.33158	0.199508	0.508199
H	3.58308	0.642698	-1.0764
H	3.49934	-1.06638	-0.478109
N	1.08657	0.106963	-0.169501
C	-0.223664	0.360285	0.374508
C	-1.22658	-0.438924	-0.434607
O	-0.908863	-0.939895	-1.5116
H	1.10146	-0.255716	-1.0975
H	-0.258054	-0.00401342	1.39342
C	-0.574417	1.86397	0.319622
H	-0.537527	2.23454	-0.72701
H	-1.58258	2.06259	0.737866
H	0.168232	2.43848	0.915073
N	-2.46223	-0.59522	0.0799279
C	-3.47961	-1.35024	-0.613642
H	-2.69778	-0.188078	0.956274
H	-4.42673	-1.36199	-0.0304734
H	-3.15032	-2.40325	-0.768536
H	-3.68835	-0.903295	-1.61256
C	5.10818	-0.90562	1.00675
C	4.15683	0.049743	0.395677
O	4.50496	1.18263	0.092586
H	6.09871	-0.414348	1.12241
H	5.22369	-1.79876	0.357301
H	4.74444	-1.22108	2.00731
N	2.91209	-0.393378	0.204296
C	1.87456	0.418446	-0.379925
C	0.537737	-0.17233	0.0239525
O	0.46992	-1.29925	0.511063
H	2.63326	-1.30878	0.482215
H	1.93237	1.41629	0.0360556
C	1.99332	0.460581	-1.91981
H	1.93429	-0.564794	-2.34317
H	1.19605	1.08496	-2.37289
H	2.97725	0.894186	-2.20268
N	-0.560421	0.589019	-0.150399
C	-1.87459	0.114868	0.216092
H	-0.483975	1.50114	-0.539537
H	-2.64637	0.884512	-0.00584448
H	-1.9178	-0.121248	1.30404
H	-2.13003	-0.810945	-0.348534
