25
  This energy is -0.00844556 and Call times are: 1411
C	-0.385365	1.98559	0.28603
O	-0.320784	0.734787	0.12363
O	-0.991191	2.80989	-0.543266
H	0.0701161	2.46632	1.15067
H	-1.43204	2.34938	-1.3486
C	-2.18519	0.285168	-2.67089
O	-2.11549	1.51646	-2.47872
O	-1.54222	-0.669981	-2.00655
H	-2.82046	-0.133733	-3.45088
H	-0.917463	-0.377678	-1.28194
C	1.43867	0.242586	2.9122
O	1.1835	1.44719	2.95514
O	1.0595	-0.589966	1.90533
H	2.00095	-0.295456	3.67796
H	0.517428	-0.127375	1.16623
C	1.35319	-2.86306	-0.424783
O	0.775587	-1.88586	-0.914521
O	1.74951	-2.97221	0.861849
H	1.61345	-3.76286	-0.986358
H	1.53228	-2.14911	1.3928
C	3.83584	0.304184	-0.0206112
O	4.0345	-0.556052	0.822194
O	2.72928	0.287404	-0.762745
H	4.57204	1.09373	-0.166677
H	2.17828	-0.451963	-0.531413
