25
  This energy is 0.000274609 and Call times are: 519
C	-0.444973	0.3174	1.96828
O	-0.281936	0.252343	0.717588
O	-0.112257	1.3566	2.70557
H	-0.886079	-0.509364	2.52331
H	0.288942	2.13911	2.17481
C	0.923586	3.33722	-0.00198036
O	0.813549	3.27418	1.2397
O	0.746332	2.35142	-0.875976
H	1.1922	4.26701	-0.502744
H	0.516203	1.4513	-0.504996
C	-1.5483	-2.82325	0.49149
O	-1.72389	-2.5383	1.67724
O	-0.948927	-2.0067	-0.416637
H	-1.85264	-3.76631	0.0331825
H	-0.65512	-1.10178	-0.0307602
C	1.11158	-1.10003	-2.78621
O	1.184	-0.265864	-1.87664
O	0.288364	-2.17078	-2.80038
H	1.71551	-1.06556	-3.69551
H	-0.266154	-2.22919	-1.9663
C	7.48698	-0.443654	0.0366859
O	6.51404	-0.213713	-0.663537
O	8.17093	0.551662	0.599777
H	7.79851	-1.4743	0.202289
H	7.79158	1.3933	0.372807
