25
  This energy is 0.000777745 and Call times are: 2261
C	-1.84738	0.797916	-0.351257
O	-0.725508	0.221381	-0.287624
O	-2.17449	1.68256	-1.2703
H	-2.63217	0.586299	0.373656
H	-1.43611	1.86667	-1.96014
C	0.83886	1.40671	-3.05083
O	-0.259225	1.9956	-2.97815
O	1.36999	0.582162	-2.15355
H	1.49432	1.5297	-3.9126
H	0.846365	0.423986	-1.31592
C	-1.53664	-1.53689	2.42616
O	-2.5896	-0.962961	2.1435
O	-0.372841	-1.39583	1.73596
H	-1.41622	-2.22448	3.26566
H	-0.442647	-0.764577	0.92926
C	2.81427	-0.869789	1.23773
O	2.18112	-0.140181	0.466255
O	2.26886	-1.75468	2.10023
H	3.90388	-0.880905	1.31109
H	1.26643	-1.75025	2.05894
C	6.94272	0.173287	0.405217
O	6.25974	0.632707	-0.496043
O	7.88315	-0.735831	0.15103
H	6.78064	0.511044	1.42813
H	7.91604	-0.93769	-0.777381
