25
  This energy is -0.0064674 and Call times are: 2708
C	-0.943175	0.487669	-1.74513
O	-0.516493	0.2095	-0.589443
O	-1.84147	-0.223704	-2.39417
H	-0.580617	1.36128	-2.28505
H	-2.19105	-1.03749	-1.87403
C	-2.39567	-2.48958	0.229827
O	-2.6864	-2.19214	-0.946975
O	-1.43698	-1.9563	0.980568
H	-2.94008	-3.26203	0.772383
H	-0.868999	-1.24963	0.55769
C	1.54854	2.82454	-0.483256
O	0.94452	2.99197	-1.54399
O	1.35263	1.77302	0.357348
H	2.31299	3.50132	-0.0964592
H	0.632608	1.11464	0.0376213
C	2.11549	-0.766303	2.26851
O	1.22755	-1.12822	1.48814
O	2.63832	0.477374	2.33431
H	2.58596	-1.42208	3.00428
H	2.22924	1.09306	1.65595
C	4.6353	-0.334868	-0.303902
O	3.90457	0.566272	-0.683081
O	5.23108	-0.272937	0.886359
H	4.80136	-1.19865	-0.946567
H	4.99954	0.530415	1.3389
