25
  This energy is -0.00250054 and Call times are: 2452
C	0.801118	1.63535	-0.925587
O	0.154503	0.713794	-0.353164
O	0.560663	2.05927	-2.14899
H	1.61888	2.14796	-0.420938
H	-0.22138	1.58292	-2.61427
C	-2.22366	-0.01893	-2.65425
O	-1.47094	0.831213	-3.17244
O	-2.05844	-0.634698	-1.48779
H	-3.13721	-0.347017	-3.14944
H	-1.23284	-0.411063	-0.968958
C	1.94558	0.899841	2.45245
O	2.38545	1.83456	1.781
O	0.972361	0.044413	2.038
H	2.28838	0.649398	3.45834
H	0.611915	0.24953	1.09879
C	-0.504983	-2.80853	1.4373
O	-0.566664	-2.12238	0.410756
O	0.0438935	-2.41604	2.60738
H	-0.892719	-3.82653	1.51524
H	0.419423	-1.48726	2.55316
C	4.9446	-0.369741	0.258923
O	3.77706	-0.0649663	0.0752315
O	5.9288	0.352562	-0.275066
H	5.18325	-1.24203	0.866265
H	5.57981	1.08012	-0.777699
