25
  This energy is 0.000415634 and Call times are: 2289
C	0.307043	1.95512	0.506076
O	0.271253	0.756716	0.109089
O	1.20973	2.43349	1.33707
H	-0.430278	2.68284	0.170003
H	1.91142	1.74665	1.63852
C	3.05032	-0.54913	1.54403
O	2.95015	0.624873	1.95579
O	2.17261	-1.21933	0.804076
H	3.92301	-1.15995	1.7737
H	1.32698	-0.743673	0.560192
C	-2.43764	1.23119	-1.77527
O	-2.18154	2.36562	-1.36844
O	-1.72702	0.117481	-1.45069
H	-3.26695	0.989	-2.44283
H	-0.928912	0.300316	-0.831247
C	-1.17408	-2.93955	-0.435062
O	-0.423014	-2.18578	0.194328
O	-2.03685	-2.55489	-1.4005
H	-1.22653	-4.01911	-0.278483
H	-2.01472	-1.56312	-1.55049
C	8.47762	0.0686562	0.150405
O	9.24976	0.943876	0.50759
O	8.90107	-0.948289	-0.599282
H	7.43112	0.120681	0.448467
H	9.83015	-0.868121	-0.78409
