25
  This energy is -0.00123473 and Call times are: 2508
C	0.106078	0.56258	-1.9609
O	0.198884	0.142627	-0.773435
O	0.902796	1.46726	-2.49102
H	-0.662469	0.185339	-2.6341
H	1.63507	1.80804	-1.85649
C	2.96422	1.75798	0.33611
O	2.73723	2.18204	-0.81563
O	2.20156	0.942503	1.05752
H	3.86539	2.04135	0.879263
H	1.33952	0.644554	0.646507
C	-2.39492	-1.93044	-1.0711
O	-2.26418	-1.48533	-2.2125
O	-1.62007	-1.57357	-0.0114107
H	-3.15025	-2.66244	-0.778353
H	-0.887317	-0.892944	-0.243633
C	-0.891387	-0.574319	3.01401
O	-0.253444	0.122933	2.21698
O	-1.71015	-1.59459	2.67774
H	-0.865477	-0.441468	4.09771
H	-1.7594	-1.72472	1.68414
C	6.08759	0.0485513	0.366773
O	6.18823	1.08079	-0.276766
O	6.7098	-1.06218	-0.02646
H	5.48216	0.0365739	1.27232
H	7.19944	-0.910011	-0.827008
