25
  This energy is -2.4245e-05 and Call times are: 687
C	1.64544	0.919718	0.787094
O	0.741899	0.246762	0.216316
O	2.49377	0.426117	1.66513
H	1.77772	1.97989	0.575672
H	2.37422	-0.577319	1.84901
C	1.33233	-2.87604	1.39404
O	2.13	-2.11411	1.97803
O	0.34234	-2.5305	0.576965
H	1.38648	-3.95759	1.51546
H	0.20261	-1.55228	0.420853
C	-0.397196	2.84743	-1.53098
O	0.594601	3.30843	-0.963671
O	-0.842345	1.56989	-1.3881
H	-1.03475	3.41302	-2.21339
H	-0.265046	0.996867	-0.761606
C	-2.9565	-0.863814	-0.849474
O	-1.97011	-1.0473	-0.127145
O	-3.10079	0.148258	-1.73225
H	-3.83753	-1.50917	-0.854951
H	-2.30715	0.762035	-1.73286
C	14.6109	0.188247	-0.412534
O	15.6835	-0.297618	-0.0913259
O	13.5649	0.133808	0.411217
H	14.5089	0.671378	-1.38356
H	13.7934	-0.313016	1.21863
