25
  This energy is -0.00257825 and Call times are: 2564
C	0.471296	-0.673301	1.87014
O	0.154082	-0.100691	0.790075
O	1.53592	-0.370994	2.58387
H	-0.139882	-1.47374	2.28477
H	2.10004	0.394795	2.19614
C	2.53503	2.29775	0.53295
O	2.82023	1.61335	1.537
O	1.575	2.06072	-0.355442
H	3.08706	3.20454	0.287149
H	1.02658	1.23471	-0.222187
C	-2.57685	-1.96139	0.349755
O	-2.17037	-2.32393	1.45491
O	-1.96417	-1.02911	-0.428813
H	-3.47617	-2.34883	-0.133095
H	-1.1174	-0.628792	-0.00827581
C	-0.650906	0.292041	-3.11443
O	0.15699	0.425744	-2.18825
O	-1.87567	-0.267442	-3.00798
H	-0.462314	0.615523	-4.14036
H	-2.06373	-0.584811	-2.07497
C	5.43796	0.0175269	0.43918
O	4.47849	-0.210658	-0.279939
O	6.65336	0.185788	-0.080443
H	5.29775	0.0840968	1.51743
H	6.63084	0.101918	-1.02714
