25
  This energy is -0.00228418 and Call times are: 1084
C	0.319432	0.00994236	2.01761
O	-0.045405	0.0413035	0.808907
O	0.296386	1.04966	2.8255
H	0.683351	-0.909929	2.4732
H	-0.0621366	1.91047	2.39485
C	-1.16222	3.22516	0.487484
O	-0.692353	3.12288	1.63928
O	-1.11238	2.31977	-0.484563
H	-1.68535	4.12481	0.164381
H	-0.631443	1.46545	-0.285435
C	0.629846	-3.18231	0.292767
O	0.837939	-3.04588	1.49946
O	0.239902	-2.17983	-0.540095
H	0.736454	-4.12489	-0.247806
H	0.11653	-1.27492	-0.0710174
C	0.254554	-0.246521	-3.17539
O	0.226618	0.475065	-2.17193
O	0.238951	-1.59711	-3.16698
H	0.296676	0.132508	-4.19876
H	0.214614	-1.96657	-2.23451
C	3.46957	-0.336365	0.302773
O	3.82351	0.717114	0.807446
O	3.21745	-0.41467	-1.0033
H	3.35897	-1.2215	0.928076
H	3.3533	0.426535	-1.42484
