25
  This energy is -0.00531666 and Call times are: 1225
C	0.306183	2.01663	0.110978
O	-0.0158529	0.808364	-0.0662896
O	0.755669	2.81042	-0.838814
H	0.225161	2.48391	1.09142
H	0.815372	2.36888	-1.76427
C	0.402234	0.446121	-3.41017
O	0.786193	1.59823	-3.12194
O	0.0353557	-0.513673	-2.56679
H	0.332787	0.111928	-4.44502
H	0.086286	-0.303971	-1.58994
C	-0.853452	0.334559	3.12557
O	-0.596871	1.53887	3.08278
O	-0.761839	-0.511009	2.06382
H	-1.18272	-0.193414	4.02272
H	-0.464936	-0.0539804	1.19372
C	0.0928929	-3.17227	0.369782
O	0.397641	-2.17862	-0.299687
O	-0.523428	-3.14553	1.57138
H	0.291609	-4.20077	0.0608522
H	-0.70267	-2.2081	1.8807
C	3.86047	0.0419046	0.272115
O	2.92463	0.742182	0.623695
O	3.76141	-0.736144	-0.805077
H	4.78624	0.0540628	0.846135
H	2.90454	-0.64885	-1.20749
