25
  This energy is -0.00287411 and Call times are: 488
C	0.75363	-0.546454	-1.81833
O	0.412942	-0.0852323	-0.693046
O	0.689001	0.129874	-2.94644
H	1.13387	-1.56196	-1.91997
H	0.344314	1.09181	-2.84226
C	-0.390014	3.11865	-1.45326
O	-0.122152	2.54907	-2.53107
O	-0.48799	2.55975	-0.251126
H	-0.578171	4.19102	-1.40802
H	-0.350684	1.57026	-0.197617
C	1.14747	-2.90311	0.929944
O	1.52543	-3.13897	-0.218769
O	0.562471	-1.74024	1.32517
H	1.23732	-3.60241	1.76358
H	0.467151	-1.04725	0.573645
C	-1.6384	0.222946	2.73397
O	-1.45633	0.620326	1.57754
O	-0.999711	-0.817359	3.31212
H	-2.34848	0.674772	3.42995
H	-0.35196	-1.25624	2.68411
C	4.70157	0.384618	-0.18664
O	3.52533	0.174996	-0.436235
O	5.40151	-0.468516	0.560198
H	5.1832	1.27933	-0.579358
H	4.86038	-1.20053	0.834263
