25
  This energy is -0.000142263 and Call times are: 995
C	0.317757	1.46137	-1.39151
O	0.03944	0.470311	-0.659811
O	1.1144	1.40838	-2.43878
H	-0.101484	2.44625	-1.19047
H	1.49453	0.47408	-2.63262
C	1.6463	-2.05673	-2.24713
O	1.9392	-1.0062	-2.85413
O	0.959487	-2.16596	-1.11424
H	1.9507	-3.03375	-2.62156
H	0.654665	-1.31579	-0.684009
C	-1.93189	2.23953	1.36448
O	-1.63346	3.05303	0.488592
O	-1.48678	0.954708	1.40674
H	-2.58768	2.45754	2.20974
H	-0.873625	0.70192	0.622998
C	-0.166662	-1.75895	2.66214
O	0.399614	-1.51907	1.58967
O	-1.18085	-1.03848	3.18822
H	0.0938886	-2.59349	3.31665
H	-1.4268	-0.257421	2.60853
C	6.89413	0.315984	-0.285655
O	7.6324	0.780205	0.568306
O	6.6209	-0.987886	-0.313597
H	6.45446	0.975942	-1.03255
H	7.06848	-1.44225	0.391383
