25
  This energy is 1.8834e-05 and Call times are: 827
C	-1.67492	1.03666	0.541157
O	-0.558392	0.483296	0.33574
O	-2.37663	0.900763	1.64722
H	-2.13252	1.67931	-0.209694
H	-1.93309	0.306156	2.35764
C	0.0220583	-1.06304	3.29538
O	-1.11565	-0.555386	3.37133
O	0.806712	-1.12113	2.22392
H	0.494864	-1.53106	4.15842
H	0.446236	-0.732983	1.37527
C	-0.22888	1.78189	-2.71699
O	-1.25905	2.31369	-2.2999
O	0.508087	0.876488	-2.01854
H	0.210508	1.9754	-3.69757
H	0.136569	0.671762	-1.08357
C	2.15099	-1.88565	-1.42346
O	1.35249	-1.70841	-0.496435
O	2.32982	-1.05146	-2.47062
H	2.81219	-2.75128	-1.50241
H	1.72091	-0.255388	-2.42481
C	12.5196	0.396807	-0.00830064
O	11.5389	0.389196	-0.73494
O	12.8483	-0.681048	0.702834
H	13.132	1.29525	0.0586616
H	12.2314	-1.38806	0.549724
