25
  This energy is -0.00195182 and Call times are: 1142
C	1.5659	0.957095	-0.897113
O	0.703386	0.349596	-0.202803
O	2.05299	2.14417	-0.600734
H	1.96855	0.51666	-1.80819
H	1.68113	2.5478	0.267476
C	0.312246	2.44343	2.43356
O	1.09035	3.00807	1.63757
O	-0.355279	1.31058	2.23823
H	0.103152	2.86172	3.4178
H	-0.240998	0.86318	1.35077
C	0.600024	-2.28716	-2.24018
O	1.50162	-1.59993	-2.72273
O	-0.128926	-1.94285	-1.14438
H	0.280973	-3.25233	-2.63855
H	0.1449	-1.04465	-0.729217
C	-2.78048	-1.4138	0.691932
O	-2.05898	-0.412533	0.764684
O	-2.4889	-2.5383	0.00279319
H	-3.75143	-1.50353	1.1838
H	-1.606	-2.47129	-0.46899
C	4.774	0.214614	0.392306
O	5.70597	0.696055	-0.231744
O	4.09885	-0.828376	-0.0892113
H	4.49213	0.643247	1.35331
H	4.44922	-1.09859	-0.930638
