20
	Energy: -476166.8054861
C         -0.86726       -1.84878        0.21401
O         -0.42032       -0.70242       -0.07086
O         -2.14000       -2.11764        0.41915
H         -0.20231       -2.70634        0.30675
H         -2.76402       -1.30845        0.31523
C         -3.26326        1.12661       -0.31556
O         -3.60112       -0.01628        0.05527
O         -2.02665        1.59478       -0.45230
H         -4.00396        1.88303       -0.57366
H         -1.27757        0.97476       -0.21721
C          2.74645       -1.73340       -0.22154
O          2.12260       -2.78106       -0.04478
O          2.17614       -0.50079       -0.29970
H          3.83080       -1.67390       -0.33418
H          1.15346       -0.51020       -0.20941
C          1.70329        2.66936        0.34000
O          0.61613        2.09095        0.44915
O          2.86600        2.08517       -0.02227
H          1.84919        3.73522        0.52813
H          2.75684        1.10142       -0.18632
