15
	Energy: -357125.6828757
C          0.16642        1.07129       -0.00188
O          0.09669       -0.19375       -0.00332
O         -0.87613        1.87597       -0.00108
H          1.13572        1.56847       -0.00101
H         -1.79285        1.41417       -0.00120
C         -3.21364       -0.69226        0.00262
O         -3.12615        0.55442        0.00131
O         -2.19052       -1.54397       -0.00046
H         -4.17636       -1.20145        0.00660
H         -1.27769       -1.09627       -0.00417
C          3.47320       -0.38550        0.00171
O          3.22417        0.82778        0.00287
O          2.55438       -1.37349       -0.00127
H          4.48426       -0.79690        0.00299
H          1.61142       -1.02496       -0.00244
