20
  This energy is -0.00295325 and Call times are: 16285
C	-2.48692	1.74527	-1.75984
O	-2.88904	0.677466	-1.33165
O	-1.4537	2.43064	-1.16087
H	-2.90496	2.24716	-2.64543
H	-1.24041	3.27158	-1.61466
C	2.35721	-2.03486	0.49885
O	3.23327	-2.8792	0.360358
O	1.22578	-2.0151	-0.269523
H	2.4035	-1.22836	1.2445
H	0.61551	-1.27486	-0.0379552
C	-0.18271	0.979775	1.40033
O	0.862223	0.846916	2.00906
O	-0.527759	0.102095	0.383873
H	-0.922541	1.76754	1.58299
H	-1.38528	0.28571	-0.0496193
C	7.03699	-0.0650619	0.418197
O	8.17149	0.0574579	-0.0097496
O	5.93384	0.0133905	-0.402158
H	6.79739	-0.245675	1.47691
H	5.09039	-0.10406	0.0809463
