20
  This energy is 0.00124322 and Call times are: 22126
C	2.35972	-0.920082	2.43166
O	2.76264	-0.019321	1.71646
O	1.01755	-1.13036	2.65627
H	3.0189	-1.63157	2.95145
H	0.844769	-1.88883	3.2508
C	-1.47126	0.0405349	-2.78921
O	-1.81139	-0.180714	-3.9446
O	-0.176786	-0.0859497	-2.36584
H	-2.16904	0.356522	-2.00065
H	-0.0616207	0.12718	-1.40911
C	-0.937005	0.899021	1.12607
O	-2.04125	0.972112	0.62072
O	0.163792	0.519953	0.373005
H	-0.709228	1.1143	2.17634
H	1.01037	0.488748	0.862184
C	9.12314	-0.0107654	0.361361
O	9.09399	1.15672	0.0129608
O	8.51031	-1.00626	-0.3663
H	9.63144	-0.366747	1.27011
H	8.61752	-1.89288	0.034979
