20
  This energy is -0.00059243 and Call times are: 6265
C	-2.76592	-2.13618	0.337966
O	-3.09806	-0.980193	0.141432
O	-1.55734	-2.63332	-0.0959047
H	-3.38935	-2.87126	0.868915
H	-1.42854	-3.57637	0.133585
C	2.25215	2.03647	0.852367
O	2.98802	2.78001	1.48893
O	0.949354	1.81259	1.20378
H	2.57119	1.49038	-0.0468406
H	0.486958	1.1902	0.593167
C	0.304812	-0.509428	-1.61302
O	1.47044	-0.223688	-1.8124
O	-0.383479	0.0299898	-0.536988
H	-0.292149	-1.18887	-2.23212
H	-1.31547	-0.255778	-0.455187
C	6.29594	-0.134259	-0.352238
O	6.82743	-0.716732	0.577007
O	5.2681	0.76192	-0.161283
H	6.58392	-0.26953	-1.40565
H	4.94113	1.15097	-0.998146
