20
  This energy is -0.00115603 and Call times are: 13408
C	0.818552	-3.25072	-1.04431
O	1.80728	-2.55845	-0.875719
O	-0.360852	-3.0165	-0.373331
H	0.780471	-4.10752	-1.73378
H	-1.06685	-3.65221	-0.610053
C	-0.658359	3.07533	-0.234112
O	-0.880677	4.20335	-0.655696
O	0.171124	2.19895	-0.878167
H	-1.10124	2.67355	0.688381
H	0.249011	1.33086	-0.415146
C	-0.300993	-0.502612	1.61587
O	-1.00897	0.369038	2.08394
O	0.399589	-0.290906	0.438194
H	-0.151137	-1.49583	2.05446
H	0.942811	-1.04664	0.136942
C	6.06285	0.0805135	-0.20579
O	6.33341	0.0975322	0.982383
O	4.78682	-0.164813	-0.66147
H	6.79899	0.256086	-1.00465
H	4.7208	-0.146944	-1.63816
