20
  This energy is 0.00134414 and Call times are: 15037
C	-0.224888	-0.542087	-3.4617
O	0.85558	-0.88154	-3.01159
O	-1.36481	-0.522164	-2.68952
H	-0.383132	-0.227508	-4.50425
H	-2.15617	-0.228417	-3.18555
C	0.676776	1.49057	2.69557
O	1.04137	2.31136	3.528
O	1.25586	1.38746	1.46069
H	-0.138584	0.77328	2.86658
H	0.852691	0.679351	0.903853
C	-0.935845	-1.3945	0.365833
O	-1.35832	-1.1972	1.48952
O	0.107381	-0.635901	-0.142866
H	-1.31698	-2.15412	-0.326261
H	0.380937	-0.864526	-1.05384
C	9.10219	0.00815376	0.136627
O	8.51833	0.890392	0.741614
O	8.46469	-0.790726	-0.786118
H	10.1694	-0.224353	0.270801
H	9.05954	-1.4545	-1.19129
