20
  This energy is -0.00559402 and Call times are: 6907
C	-1.26007	-2.24918	2.38353
O	-1.69892	-1.12253	2.53622
O	-0.834945	-2.70804	1.15683
H	-1.16614	-2.98571	3.1957
H	-0.508463	-3.63058	1.18715
C	1.89764	2.18569	-1.25204
O	2.79561	2.9962	-1.44255
O	1.40102	1.91649	-0.00633412
H	1.418	1.61042	-2.05676
H	0.680993	1.24159	-0.0160449
C	-1.05596	-0.576102	-1.22773
O	-0.526586	-0.244114	-2.27159
O	-0.659949	-0.0165175	-0.0224909
H	-1.86034	-1.31496	-1.1363
H	-1.14061	-0.343108	0.764451
C	4.63829	0.19708	-0.164963
O	4.31703	-0.660322	-0.969266
O	3.95278	0.386911	1.01407
H	5.48761	0.8824	-0.305977
H	4.32474	1.11024	1.55909
