20
  This energy is 0.00094001 and Call times are: 17604
C	-0.530256	3.31477	-1.02904
O	-0.75171	3.16043	0.159391
O	0.345918	2.50806	-1.72013
H	-1.00102	4.09667	-1.6438
H	0.422401	2.75043	-2.66565
C	-0.685649	-2.99921	0.693202
O	-1.2602	-4.06774	0.859684
O	-1.32073	-1.79439	0.819553
H	0.378672	-2.91644	0.430644
H	-0.724436	-1.0253	0.655365
C	1.70782	0.19175	0.0291809
O	2.14735	-0.939847	-0.0507339
O	0.377262	0.414695	0.349303
H	2.2888	1.10644	-0.135435
H	0.112552	1.35552	0.391141
C	8.15486	-0.0056939	0.395571
O	8.26221	-1.14288	-0.0293116
O	7.6174	1.01027	-0.362739
H	8.47135	0.304795	1.40271
H	7.59536	1.8677	0.109414
