20
  This energy is -0.00017659 and Call times are: 7600
C	0.337043	2.56209	2.37695
O	-0.0889826	1.5313	2.86809
O	1.11924	2.56308	1.24371
H	0.138865	3.56396	2.78671
H	1.38688	3.463	0.966023
C	-1.39488	-1.84188	-2.14656
O	-2.19873	-2.35199	-2.91674
O	-1.77542	-1.23189	-0.982945
H	-0.309607	-1.83003	-2.32154
H	-1.01356	-0.870006	-0.470453
C	1.68561	-0.336098	-0.00295076
O	1.88553	-0.905044	-1.05956
O	0.398405	-0.19012	0.491365
H	2.4632	0.0983921	0.635696
H	0.333219	0.28013	1.34669
C	18.0455	-0.395657	0.00778247
O	17.0864	0.342565	-0.135234
O	19.3307	0.0874517	0.111236
H	17.9718	-1.49206	0.0658741
H	19.9967	-0.621588	0.222317
