20
  This energy is 0.00118505 and Call times are: 21510
C	1.73133	-2.10226	2.21603
O	2.23428	-0.9945	2.14424
O	0.395098	-2.31626	1.96156
H	2.28859	-3.01218	2.48514
H	0.134195	-3.25498	2.05819
C	-0.719294	1.44978	-2.70678
O	-0.739898	1.82596	-3.87196
O	0.432278	1.06231	-2.07857
H	-1.61463	1.39147	-2.07153
H	0.286503	0.786668	-1.1422
C	-1.2541	0.306105	1.13481
O	-2.19753	0.674829	0.460961
O	0.0257903	0.268899	0.602777
H	-1.31496	-0.0187285	2.17983
H	0.721599	-0.0404931	1.21686
C	9.07425	-0.150897	0.287246
O	9.02646	1.05437	0.461327
O	8.33158	-0.778661	-0.687654
H	9.70234	-0.831614	0.881404
H	8.47238	-1.74732	-0.70961
