20
  This energy is 0.000370869 and Call times are: 15289
C	0.520346	3.4424	-0.454866
O	1.19212	2.99152	0.456541
O	0.0991608	2.66173	-1.50806
H	0.196764	4.49235	-0.516584
H	-0.431233	3.15956	-2.16338
C	-1.24238	-2.64517	1.18554
O	-1.91308	-3.45022	1.81927
O	-0.920021	-1.40908	1.67448
H	-0.845506	-2.84381	0.179752
H	-0.375185	-0.876528	1.04713
C	0.989081	-0.414156	-1.3433
O	0.633475	-1.53506	-1.65509
O	0.638305	0.125109	-0.115004
H	1.59317	0.252268	-1.96959
H	0.968066	1.03124	0.049763
C	11.5012	-0.196363	-0.229425
O	11.299	-0.506856	0.931589
O	12.5339	0.638418	-0.593605
H	10.8891	-0.548103	-1.07353
H	12.5727	0.798171	-1.55879
