20
  This energy is 0.00131792 and Call times are: 16581
C	0.273041	-0.274617	3.48967
O	0.239572	0.886263	3.12024
O	-0.300448	-1.29108	2.75893
H	0.754718	-0.60776	4.42129
H	-0.194717	-2.16913	3.17899
C	0.929854	0.312169	-2.99731
O	1.59762	0.428982	-4.01712
O	1.34221	0.79936	-1.78755
H	-0.0481819	-0.188858	-2.96588
H	0.69549	0.62748	-1.06213
C	-1.67962	-0.364499	0.0167644
O	-1.92443	-0.746046	-1.11221
O	-0.501452	0.310633	0.297262
H	-2.33215	-0.507766	0.885653
H	-0.389418	0.579316	1.23119
C	7.28072	-0.246209	0.202648
O	7.3805	0.863254	0.696997
O	6.3898	-0.51705	-0.811738
H	7.88139	-1.11327	0.516208
H	6.42153	-1.44967	-1.10808
