20
  This energy is 0.000577538 and Call times are: 12394
C	-0.495649	2.02993	-2.82161
O	-1.50825	1.91505	-2.15327
O	0.760818	1.90417	-2.27248
H	-0.494695	2.24018	-3.90175
H	1.47738	2.02125	-2.92932
C	0.0361812	-2.61861	1.75712
O	-0.0573561	-3.77472	2.14984
O	-0.771007	-2.10576	0.7792
H	0.768912	-1.90049	2.15206
H	-0.573975	-1.16094	0.572986
C	0.798357	1.25148	0.866425
O	1.44457	0.6731	1.71964
O	-0.213773	0.598695	0.17938
H	0.942066	2.29605	0.567262
H	-0.679428	1.14165	-0.487952
C	5.57921	-0.239481	-0.350296
O	6.76091	-0.154598	-0.0645897
O	4.59989	0.371106	0.400819
H	5.19674	-0.800222	-1.21643
H	3.6987	0.215542	0.051149
