20
  This energy is -0.00503065 and Call times are: 17379
C	1.7638	0.300108	3.02105
O	1.6815	1.36179	2.42834
O	0.831346	-0.700431	2.86132
H	2.57411	0.0509829	3.72266
H	1.0276	-1.49399	3.40015
C	-0.469872	-0.407478	-3.09178
O	-0.315549	-0.603296	-4.2907
O	0.48056	0.197819	-2.31641
H	-1.37565	-0.697956	-2.54065
H	0.20923	0.284342	-1.37147
C	-1.52449	-0.0266884	0.793401
O	-2.27966	-0.547847	-0.00547244
O	-0.285389	0.448671	0.391866
H	-1.73467	0.113962	1.85986
H	0.254176	0.851831	1.1013
C	3.52344	0.31963	0.0429293
O	4.60162	0.748986	0.414989
O	3.36694	-0.972333	-0.406968
H	2.59727	0.91379	0.0333643
H	2.44638	-1.17489	-0.671822
