20
  This energy is 7.5207e-05 and Call times are: 8272
C	-0.878298	3.34253	-0.6196
O	-0.990246	3.04751	0.557548
O	0.00199952	2.69263	-1.45553
H	-1.4588	4.13844	-1.10994
H	-0.0176845	3.03692	-2.37187
C	-0.382242	-3.10378	0.407864
O	-0.853011	-4.23073	0.496926
O	-1.10071	-1.97984	0.710286
H	0.647298	-2.89982	0.0807342
H	-0.583873	-1.14783	0.589173
C	1.68345	0.339279	-0.0718409
O	2.20544	-0.73434	-0.306268
O	0.36925	0.408514	0.364804
H	2.17322	1.31421	-0.176349
H	0.0333481	1.31265	0.528135
C	16.6529	0.351292	0.232987
O	15.4789	0.043164	0.342062
O	17.5336	-0.382962	-0.529522
H	17.1053	1.22603	0.724044
H	18.4412	-0.0159637	-0.52305
