20
  This energy is 0.000366478 and Call times are: 547
C	0.706564	-3.36526	-0.709639
O	1.63372	-2.80854	-0.147773
O	-0.597246	-2.95031	-0.554828
H	0.825798	-4.23174	-1.3774
H	-1.23288	-3.49177	-1.06609
C	-0.0805089	3.1266	-0.404761
O	0.0399255	4.25946	-0.853868
O	0.806088	2.1243	-0.688043
H	-0.902553	2.82018	0.257749
H	0.57403	1.26984	-0.252062
C	-0.980888	-0.402094	1.35294
O	-1.68828	0.573042	1.52261
O	0.149714	-0.327549	0.553723
H	-1.15522	-1.39106	1.79208
H	0.65762	-1.15987	0.474692
C	4.22554	-0.418262	-0.00180581
O	4.55438	-0.135114	1.13703
O	4.14951	0.529566	-0.997754
H	3.96522	-1.43596	-0.329567
H	3.87253	0.155891	-1.85929
