20
  This energy is -0.000104753 and Call times are: 9322
C	-1.77964	2.70818	1.35146
O	-1.1979	3.00658	0.322978
O	-2.17782	1.41722	1.61786
H	-2.03368	3.42893	2.14323
H	-2.63266	1.32888	2.48036
C	2.44447	-1.90934	-0.57002
O	3.54824	-2.43965	-0.575992
O	2.27433	-0.565748	-0.378377
H	1.50489	-2.46096	-0.716539
H	1.32693	-0.290162	-0.400771
C	-1.41953	-0.719746	-0.648972
O	-1.1282	-1.89037	-0.806655
O	-0.435176	0.233827	-0.438473
H	-2.43912	-0.317662	-0.656449
H	-0.761732	1.14857	-0.321941
C	19.9014	-0.307218	0.215997
O	19.8103	0.700823	0.894821
O	20.5498	-0.314342	-0.99875
H	19.4822	-1.28215	0.507032
H	20.5428	-1.19359	-1.42943
