20
  This energy is -0.00567271 and Call times are: 16707
C	2.78208	-1.93143	0.925975
O	2.81638	-1.6078	-0.248474
O	2.11296	-1.18558	1.87047
H	3.27272	-2.83032	1.32868
H	2.17226	-1.56766	2.76997
C	-2.87177	0.650299	-1.12958
O	-3.99799	0.565912	-1.60296
O	-1.87672	-0.237318	-1.43438
H	-2.56607	1.43805	-0.426328
H	-1.02688	-0.0364337	-0.974546
C	0.636455	1.42105	0.727871
O	-0.331675	2.13462	0.911256
O	0.560689	0.327487	-0.121209
H	1.61957	1.56147	1.19161
H	1.38719	-0.188604	-0.207889
C	5.90695	0.376987	-0.033207
O	6.89665	0.559785	0.654056
O	5.5893	-0.862344	-0.542348
H	5.19305	1.16975	-0.30297
H	4.76749	-0.856637	-1.07453
