20
  This energy is 0.00279226 and Call times are: 6780
C	-1.10539	0.277225	3.321
O	-1.29184	1.30092	2.68655
O	-1.04137	-0.957285	2.71441
H	-0.974164	0.248286	4.41318
H	-0.887103	-1.68646	3.34931
C	1.94773	0.229348	-2.46975
O	2.91499	0.436875	-3.19149
O	1.68832	0.976262	-1.35363
H	1.21204	-0.56647	-2.65415
H	0.873571	0.687457	-0.877397
C	-1.37955	-0.90928	-0.473613
O	-1.03434	-1.49053	-1.48508
O	-0.641518	0.156236	0.0188757
H	-2.26521	-1.15531	0.123352
H	-0.993812	0.562525	0.836059
C	8.01603	0.0331133	0.381507
O	7.51727	0.900499	-0.314291
O	8.98085	-0.824124	-0.0984082
H	7.74556	-0.139244	1.43414
H	9.28765	-1.46715	0.573163
