20
  This energy is 0.000242965 and Call times are: 18338
C	-1.2363	-0.0284126	-3.28611
O	-1.24062	1.09003	-2.80205
O	-0.35497	-1.00137	-2.87056
H	-1.92232	-0.354348	-4.08239
H	-0.468774	-1.84816	-3.34866
C	-0.0526871	-0.0783006	3.1523
O	-0.405435	-0.148175	4.32288
O	-0.854611	0.436929	2.1713
H	0.928269	-0.419824	2.79222
H	-0.429761	0.425413	1.28058
C	1.63427	-0.101084	-0.522679
O	2.24074	-0.531285	0.440237
O	0.351533	0.406714	-0.383822
H	2.01955	-0.0718628	-1.54835
H	-0.0584977	0.730174	-1.211
C	14.4001	0.096586	0.105137
O	13.7656	0.0915493	1.14564
O	13.813	-0.17534	-1.11036
H	15.4771	0.314442	0.0449578
H	14.4454	-0.134664	-1.85675
