20
  This energy is 0.000191517 and Call times are: 18590
C	-0.303137	-3.10262	-1.61544
O	-1.37857	-2.54444	-1.48463
O	0.880805	-2.40246	-1.67965
H	-0.184264	-4.19389	-1.69238
H	1.66191	-2.98325	-1.7853
C	0.0301548	2.07982	2.37052
O	-0.0168927	2.60841	3.47412
O	-0.687576	0.957428	2.06068
H	0.646504	2.45729	1.54215
H	-0.544245	0.652129	1.13317
C	0.578627	0.778855	-1.41874
O	1.15815	1.76879	-1.01345
O	-0.282785	0.0733622	-0.592421
H	0.672702	0.362805	-2.42837
H	-0.704137	-0.708332	-1.00277
C	17.1615	-0.300013	-0.183293
O	16.3974	0.396365	0.462062
O	18.5156	-0.0537785	-0.226167
H	16.8442	-1.17021	-0.777446
H	19.0021	-0.694686	-0.78395
