20
  This energy is -0.00723424 and Call times are: 1692
C	2.71542	1.0752	1.9489
O	2.90932	-0.021499	1.45402
O	1.86853	1.99679	1.37487
H	3.19006	1.4202	2.87982
H	1.8122	2.83145	1.88357
C	-2.69911	-1.46869	-0.709676
O	-3.73344	-2.12213	-0.657019
O	-1.61979	-1.73332	0.087777
H	-2.54988	-0.622035	-1.39485
H	-0.862817	-1.12065	-0.0723801
C	0.435333	1.01239	-1.31902
O	-0.588922	1.13816	-1.96336
O	0.552788	0.0167369	-0.361189
H	1.3267	1.64156	-1.42348
H	1.41121	-0.00925004	0.107222
C	5.70542	-0.250977	0.326173
O	5.67919	0.885741	0.764843
O	5.42685	-0.532135	-0.992699
H	5.94908	-1.13646	0.932346
H	5.48691	-1.48718	-1.1998
