20
  This energy is 0.000279362 and Call times are: 9742
C	-1.20864	-3.2939	-0.131253
O	-0.3067	-3.10215	-0.928108
O	-1.32956	-2.5587	1.02674
H	-1.99125	-4.05617	-0.263027
H	-2.10098	-2.8242	1.56805
C	0.284019	3.05007	-0.749891
O	0.14462	4.15622	-1.25643
O	0.0417341	1.89103	-1.4346
H	0.612353	2.89426	0.287649
H	0.199297	1.08231	-0.891316
C	0.910498	-0.299862	1.42665
O	1.08947	0.799528	1.91594
O	0.487775	-0.430934	0.112618
H	1.05735	-1.25289	1.94767
H	0.370382	-1.3519	-0.195607
C	15.1647	-0.0456746	0.417395
O	14.6035	1.02662	0.274403
O	15.473	-0.857611	-0.65116
H	15.4692	-0.45282	1.39331
H	15.9219	-1.68559	-0.383761
