20
  This energy is -0.00403292 and Call times are: 19682
C	1.42437	-0.114676	-3.20715
O	0.387895	-0.752254	-3.14045
O	1.68201	0.950892	-2.37393
H	2.23078	-0.329	-3.92456
H	2.55266	1.36546	-2.54331
C	-0.646624	-0.896115	2.95377
O	-0.682875	-1.49399	4.02185
O	-0.433684	-1.53147	1.76135
H	-0.780589	0.191139	2.86157
H	-0.432455	-0.914736	0.990853
C	-0.628369	1.5814	-0.242077
O	-0.807627	2.01781	0.879304
O	-0.426071	0.225742	-0.451459
H	-0.609033	2.18429	-1.15719
H	-0.290593	-0.0343092	-1.38473
C	7.1803	-0.0580421	0.180254
O	7.24126	1.00655	-0.409814
O	6.03859	-0.827821	0.183221
H	8.01513	-0.490711	0.751883
H	6.13767	-1.65471	0.698053
