20
  This energy is -0.00037081 and Call times are: 3435
C	1.43623	0.849992	3.0891
O	1.62836	-0.317626	2.79756
O	1.23208	1.8184	2.13172
H	1.40922	1.22732	4.12245
H	1.09155	2.70875	2.514
C	-2.15706	-1.07974	-2.03155
O	-3.1734	-1.54079	-2.53557
O	-1.7422	-1.41571	-0.772219
H	-1.49713	-0.363696	-2.5418
H	-0.906376	-0.962283	-0.507979
C	1.26394	0.750047	-0.891147
O	0.78498	0.960604	-1.98949
O	0.649317	-0.121148	-0.00468314
H	2.18467	1.20444	-0.507633
H	1.10495	-0.229061	0.854223
C	4.71584	-0.129854	-0.126682
O	5.04031	0.766906	-0.885486
O	5.52977	-0.54663	0.902825
H	3.7628	-0.675728	-0.194852
H	5.13787	-1.27406	1.42806
