20
  This energy is -0.00592744 and Call times are: 18002
C	3.08541	-1.35894	0.980476
O	2.27449	-2.22063	0.688691
O	3.02632	-0.089759	0.449662
H	3.92046	-1.51473	1.67999
H	3.74227	0.493338	0.775253
C	-2.96785	1.0313	0.272371
O	-4.06822	1.35222	0.703397
O	-2.22579	0.024053	0.825281
H	-2.48622	1.51946	-0.586866
H	-1.36296	-0.11528	0.366891
C	0.582095	0.414536	-1.5632
O	-0.176045	1.28136	-1.95554
O	0.248025	-0.381914	-0.478473
H	1.55884	0.184869	-2.00424
H	0.917475	-1.05197	-0.233863
C	6.45512	0.199082	-0.148046
O	6.06928	-0.869424	0.293162
O	7.78107	0.568759	-0.112308
H	5.79203	0.948897	-0.605193
H	7.9411	1.45243	-0.50233
