20
  This energy is -0.00157905 and Call times are: 15667
C	-3.28975	0.354812	-1.17449
O	-2.51365	1.10047	-1.74624
O	-2.88108	-0.833402	-0.611276
H	-4.36472	0.560063	-1.05943
H	-3.61328	-1.32598	-0.187168
C	2.57309	0.577361	1.72968
O	3.36768	1.03138	2.54335
O	1.57548	1.33127	1.17533
H	2.59234	-0.464041	1.378
H	1.01827	0.824349	0.537705
C	0.253316	-1.44757	-0.891418
O	1.17805	-2.00064	-0.326558
O	-0.0275381	-0.111291	-0.650513
H	-0.419981	-1.92431	-1.613
H	-0.788362	0.249179	-1.14869
C	9.26753	-0.418378	0.0663036
O	9.72753	-0.285172	-1.05436
O	8.95606	0.661592	0.861742
H	9.06401	-1.39371	0.533424
H	8.59594	0.401215	1.73417
