20
  This energy is -0.000468173 and Call times are: 11402
C	3.38512	0.930573	0.053034
O	2.96407	0.661069	1.16449
O	2.83408	0.391485	-1.08794
H	4.22621	1.6149	-0.134527
H	3.27523	0.698725	-1.90622
C	-3.13169	0.322181	0.186078
O	-4.26419	0.772066	0.30702
O	-2.05088	0.868133	0.822228
H	-2.88804	-0.549887	-0.437379
H	-1.20789	0.394138	0.625471
C	0.35412	-1.57727	-0.584009
O	-0.685066	-1.96133	-1.08669
O	0.368701	-0.480315	0.263948
H	1.33726	-2.03546	-0.741467
H	1.24808	-0.243721	0.621277
C	16.0255	-0.0747087	-0.417442
O	14.8553	-0.229232	-0.114022
O	16.9812	0.274886	0.51022
H	16.4153	-0.198188	-1.43907
H	17.8755	0.363172	0.121535
