20
  This energy is 0.000102125 and Call times are: 7642
C	2.90358	0.516489	-1.90532
O	1.92605	1.04837	-2.40209
O	2.99772	0.278237	-0.552381
H	3.7807	0.185717	-2.48167
H	3.83871	-0.15441	-0.2991
C	-2.68729	-1.35812	0.938024
O	-3.65262	-2.1026	1.05409
O	-2.06628	-1.13942	-0.260896
H	-2.24092	-0.807028	1.77804
H	-1.30514	-0.514908	-0.192426
C	0.443076	1.1924	1.15591
O	-0.197613	0.911257	2.15118
O	0.116158	0.64582	-0.0757312
H	1.3021	1.87265	1.13086
H	0.685498	0.928335	-0.819376
C	20.116	-0.0319699	-0.423334
O	20.3517	-1.14555	0.0121349
O	19.863	1.03842	0.405106
H	20.0849	0.212933	-1.4957
H	19.691	1.86799	-0.0856452
