20
  This energy is -0.00155526 and Call times are: 16791
C	-2.72816	1.9318	-1.07381
O	-1.66088	2.47064	-1.31004
O	-2.84877	0.564282	-0.966935
H	-3.67185	2.47864	-0.927739
H	-3.7646	0.27621	-0.77492
C	2.29103	-1.03279	1.90537
O	3.04624	-1.20333	2.85413
O	1.71707	0.177776	1.62969
H	2.01187	-1.82902	1.20064
H	1.13427	0.155619	0.833529
C	-0.111682	-1.06177	-1.34701
O	0.461625	-2.07405	-0.991069
O	0.0443952	0.124955	-0.647091
H	-0.777682	-0.986652	-2.21424
H	-0.454008	0.886654	-1.00539
C	5.83606	-0.353077	-0.227461
O	5.41936	0.569835	-0.905574
O	6.38532	-0.154154	1.01946
H	5.81124	-1.40657	-0.544387
H	6.6759	-0.986552	1.44524
