20
  This energy is 0.000160666 and Call times are: 8566
C	-0.668753	-0.330189	-3.43097
O	-0.545919	0.835041	-3.09572
O	-0.0611066	-1.35667	-2.7431
H	-1.2641	-0.659715	-4.29577
H	-0.249424	-2.23719	-3.12759
C	-0.57859	0.411499	3.07275
O	-1.12392	0.577694	4.15653
O	-1.10145	0.892843	1.90407
H	0.368067	-0.132969	2.9464
H	-0.546751	0.678317	1.11647
C	1.65066	-0.438959	-0.192057
O	2.00265	-0.80892	0.912173
O	0.478077	0.282214	-0.357924
H	2.19646	-0.627958	-1.12355
H	0.274775	0.537351	-1.28017
C	18.2911	-0.132392	-0.0998389
O	18.3471	0.258435	1.05314
O	17.1228	-0.0971557	-0.827733
H	19.1517	-0.540141	-0.651289
H	17.2298	-0.443112	-1.73739
