20
  This energy is -0.00192721 and Call times are: 5317
C	1.75791	-2.88283	0.962744
O	2.48876	-2.04016	0.471824
O	0.577644	-2.55111	1.58966
H	1.97132	-3.96226	0.949297
H	0.0969269	-3.33116	1.93468
C	-1.57767	1.97977	-1.88079
O	-2.14498	2.49773	-2.83444
O	-0.532044	1.11062	-2.0296
H	-1.85642	2.1663	-0.833851
H	-0.181282	0.778707	-1.16889
C	-0.0985697	0.582941	1.61392
O	-1.03075	1.36462	1.60386
O	0.478602	0.152359	0.428997
H	0.35867	0.159173	2.51538
H	1.2218	-0.475112	0.533452
C	5.41726	-0.380088	0.149241
O	4.64876	0.0871457	0.971643
O	5.75731	0.296692	-1.00072
H	5.89847	-1.36457	0.249881
H	6.38299	-0.201562	-1.56541
