20
  This energy is -0.00123138 and Call times are: 19820
C	-2.09764	2.63226	-0.999472
O	-2.23328	1.64398	-1.69958
O	-1.66525	2.55002	0.30527
H	-2.30432	3.65795	-1.34028
H	-1.60448	3.42393	0.742529
C	2.55221	-1.85148	0.064299
O	3.65098	-2.35012	-0.144605
O	1.85384	-1.17847	-0.900182
H	2.03741	-1.9009	1.0344
H	0.98586	-0.835658	-0.579055
C	-1.01429	-0.420105	1.32249
O	-0.292335	-1.03894	2.08138
O	-0.632354	-0.190659	0.00946549
H	-1.99234	-0.000720721	1.58484
H	-1.27505	0.315104	-0.527296
C	6.54334	0.370229	-0.200526
O	6.74409	0.64341	0.97008
O	6.52898	-0.929219	-0.655825
H	6.35932	1.12216	-0.982599
H	6.35561	-0.99441	-1.61723
