20
  This energy is 0.000253802 and Call times are: 16144
C	-0.659428	1.16164	3.24708
O	-0.121104	2.00845	2.55544
O	-1.42428	0.153087	2.70497
H	-0.584066	1.12781	4.34439
H	-1.7923	-0.45178	3.38121
C	1.62333	-1.27891	-2.38225
O	2.48944	-1.80953	-3.06626
O	1.91757	-0.472413	-1.31741
H	0.546038	-1.40329	-2.56263
H	1.11324	-0.119843	-0.867109
C	-1.63465	0.194974	-0.494115
O	-1.75546	-0.536767	-1.45851
O	-0.37866	0.540882	-0.0193668
H	-2.46444	0.634514	0.0711746
H	-0.37798	1.13296	0.75936
C	7.26626	0.293004	-0.154099
O	7.9069	-0.740425	-0.0713668
O	5.94127	0.363115	0.214083
H	7.68076	1.2433	-0.522909
H	5.55862	1.25612	0.0927328
