20
  This energy is 0.000761154 and Call times are: 2968
C	0.183805	-2.25389	2.68588
O	0.808198	-1.22956	2.90065
O	-0.892271	-2.28764	1.8274
H	0.419183	-3.22382	3.1493
H	-1.29392	-3.17756	1.75439
C	0.839921	1.45231	-2.67044
O	1.41971	1.79191	-3.69421
O	1.49721	0.927825	-1.59165
H	-0.247144	1.53853	-2.53107
H	0.893274	0.703891	-0.843888
C	-1.58435	0.512092	0.426454
O	-2.04118	0.987671	-0.595905
O	-0.223192	0.280997	0.554561
H	-2.17186	0.230976	1.30799
H	0.0537103	-0.103244	1.41051
C	7.63838	0.400214	-0.128539
O	6.70465	-0.247301	-0.569135
O	8.6355	-0.17567	0.626553
H	7.76571	1.48104	-0.291321
H	9.3178	0.466542	0.910539
