20
  This energy is 0.00169018 and Call times are: 12862
C	0.856272	3.21444	1.12337
O	-0.326693	3.12385	0.84475
O	1.60061	2.12415	1.5149
H	1.42401	4.15642	1.08776
H	2.53424	2.34869	1.70595
C	-0.556634	-2.34087	-2.03873
O	-0.680078	-3.01333	-3.05466
O	-0.752489	-0.98724	-2.0236
H	-0.280737	-2.76205	-1.06146
H	-0.61629	-0.588056	-1.13134
C	-0.0100612	-0.647118	1.59229
O	0.132567	-1.84565	1.43979
O	-0.362878	0.166326	0.526277
H	0.11917	-0.112823	2.54051
H	-0.45521	1.11606	0.741818
C	9.0636	0.417116	0.049603
O	9.24389	0.182664	-1.13267
O	8.72314	-0.57024	0.946982
H	9.15485	1.4184	0.496814
H	8.61113	-0.233813	1.8596
