20
  This energy is 0.000407264 and Call times are: 7978
C	-3.46	0.402387	0.440782
O	-2.91263	1.44263	0.119018
O	-2.94452	-0.829321	0.104254
H	-4.39611	0.355156	1.01731
H	-3.49123	-1.57332	0.430105
C	3.06731	-0.0042975	0.733149
O	4.13777	0.0853432	1.32107
O	1.9839	0.766124	1.05499
H	2.88613	-0.704007	-0.0951932
H	1.19594	0.577771	0.491371
C	-0.195035	-0.733123	-1.54232
O	0.837755	-1.34983	-1.72428
O	-0.27872	0.233279	-0.55155
H	-1.12006	-0.870645	-2.1139
H	-1.14708	0.677635	-0.477606
C	15.3101	0.411052	0.106891
O	14.6589	-0.150298	0.970668
O	15.8537	-0.271588	-0.958268
H	15.5177	1.49167	0.100875
H	16.3497	0.309629	-1.57041
