20
  This energy is -0.00366933 and Call times are: 22168
C	1.13795	-3.16881	0.995747
O	0.968117	-3.09804	-0.20899
O	1.42436	-2.05975	1.75997
H	1.07885	-4.1062	1.56909
H	1.53444	-2.26949	2.70996
C	-2.04968	2.26914	-0.77185
O	-3.07008	2.90754	-0.997235
O	-1.97434	0.914948	-0.94905
H	-1.11593	2.72393	-0.411514
H	-1.08669	0.545827	-0.725759
C	1.56543	0.697691	0.130011
O	1.36316	1.89198	0.243339
O	0.562716	-0.152695	-0.310398
H	2.51362	0.195264	0.353196
H	0.815312	-1.09584	-0.37081
C	6.56832	0.00809837	-0.35602
O	5.77676	0.0790928	0.567903
O	7.92704	-0.0774816	-0.149566
H	6.2742	0.00606376	-1.41639
H	8.43696	-0.12806	-0.98385
