20
  This energy is -0.00461881 and Call times are: 17833
C	-0.936669	0.825006	3.28174
O	-1.89319	0.776736	2.5281
O	0.212333	0.101827	3.05179
H	-0.906099	1.43831	4.19489
H	0.894268	0.240449	3.74052
C	0.84267	0.442392	-3.00668
O	1.15248	0.939785	-4.08194
O	0.00477933	1.06406	-2.12216
H	1.20703	-0.536129	-2.66272
H	-0.148937	0.537522	-1.30171
C	0.17633	-1.6674	0.378084
O	0.903246	-2.10669	-0.492952
O	-0.440475	-0.434225	0.231823
H	-0.0546985	-2.17529	1.32146
H	-1.00653	-0.161843	0.981731
C	3.68319	0.28936	-0.299735
O	2.6086	0.599025	0.184647
O	4.38981	-0.810778	0.132064
H	4.17504	0.849717	-1.10905
H	5.23384	-0.934415	-0.348488
