20
  This energy is -0.00184506 and Call times are: 14235
C	1.87626	2.43465	1.69704
O	2.44932	1.36002	1.65225
O	0.953345	2.81105	0.746975
H	2.04161	3.18515	2.48464
H	0.576071	3.69918	0.91282
C	-2.01191	-2.39469	-0.404447
O	-2.82573	-3.2921	-0.225761
O	-1.0887	-2.03931	0.540163
H	-1.9533	-1.80332	-1.32933
H	-0.503505	-1.30016	0.248223
C	0.41489	0.63277	-1.54329
O	-0.45132	0.218412	-2.29033
O	0.590866	0.0779677	-0.284798
H	1.11099	1.44681	-1.77583
H	1.31064	0.47397	0.246313
C	5.43055	0.187807	0.0934136
O	6.30397	0.976484	0.410226
O	5.71982	-1.04285	-0.452363
H	4.35444	0.384448	0.212675
H	4.91859	-1.56734	-0.656186
