20
  This energy is 0.00173635 and Call times are: 13709
C	-0.745212	-2.6406	2.19081
O	0.0520227	-1.85421	2.6717
O	-1.65498	-2.26278	1.22871
H	-0.808196	-3.70141	2.47653
H	-2.22974	-2.99983	0.937161
C	1.54791	1.61807	-2.22075
O	2.34063	1.96693	-3.08647
O	1.89537	0.775474	-1.20085
H	0.499783	1.94815	-2.18846
H	1.14816	0.588637	-0.583761
C	-1.47553	0.812908	0.34096
O	-1.64985	1.54957	-0.611423
O	-0.237669	0.23207	0.570937
H	-2.2405	0.545296	1.07886
H	-0.190165	-0.345089	1.35935
C	6.90643	-0.338985	-0.238379
O	7.12905	0.573402	-1.01506
O	6.97845	-0.171131	1.12643
H	6.63348	-1.35791	-0.55175
H	6.77445	-0.990192	1.62255
