20
  This energy is -0.0017717 and Call times are: 4298
C	-2.08895	2.54126	-1.22721
O	-1.1588	2.98399	-0.57602
O	-2.01283	1.33236	-1.88207
H	-3.05332	3.05738	-1.34778
H	-2.83517	1.10706	-2.36331
C	1.14526	-2.13164	2.02248
O	1.33132	-2.84932	2.9971
O	0.594455	-0.883576	2.12173
H	1.4019	-2.42488	0.994512
H	0.509421	-0.429361	1.24968
C	0.768925	-0.220641	-1.52129
O	1.24481	-1.33902	-1.46782
O	0.344399	0.425142	-0.370075
H	0.633107	0.363099	-2.43895
H	-0.0244403	1.32054	-0.508588
C	5.67866	-0.258971	0.314169
O	6.87549	-0.0819676	0.460856
O	4.97373	0.326402	-0.713683
H	5.06658	-0.889571	0.976442
H	4.02273	0.0937566	-0.704656
