20
  This energy is -0.00838152 and Call times are: 13576
C	2.76829	-0.72361	-2.03489
O	2.74045	0.446124	-1.69402
O	2.18425	-1.71825	-1.28278
H	3.25276	-1.08246	-2.95545
H	2.28647	-2.60694	-1.68075
C	-2.91305	0.938813	0.76071
O	-4.06864	1.34198	0.720322
O	-1.96893	1.31739	-0.153734
H	-2.53826	0.245276	1.52694
H	-1.08599	0.908861	0.0122381
C	0.727341	-0.70614	1.38802
O	-0.203252	-0.959479	2.12958
O	0.562686	0.151503	0.311035
H	1.74146	-1.10941	1.48919
H	1.36458	0.296767	-0.230112
C	5.8759	0.326814	-0.153179
O	5.29738	-0.683002	-0.514883
O	7.02565	0.279431	0.603062
H	5.53821	1.34616	-0.393599
H	7.37743	1.16749	0.818007
