20
  This energy is 0.00225991 and Call times are: 22084
C	1.47891	-2.66215	-1.74745
O	1.42828	-1.64422	-2.41565
O	1.51765	-2.63206	-0.371344
H	1.49782	-3.67585	-2.17519
H	1.55668	-3.5249	0.0285367
C	-2.26738	1.95335	0.994643
O	-3.34088	2.50936	1.18967
O	-1.97615	1.30406	-0.173475
H	-1.45353	1.92806	1.73328
H	-1.07247	0.907369	-0.178975
C	1.4238	0.303977	0.913588
O	1.03788	0.911351	1.89453
O	0.608526	0.162494	-0.199007
H	2.40657	-0.170655	0.81267
H	1.00156	-0.340683	-0.940158
C	6.9133	0.384648	0.158172
O	8.12706	0.316753	0.0720825
O	6.09439	-0.656227	-0.218713
H	6.374	1.26584	0.537066
H	5.1438	-0.458095	-0.0932628
