20
  This energy is 0.000529602 and Call times are: 6570
C	-1.01947	-2.04393	2.66661
O	0.127404	-1.65326	2.79809
O	-1.95278	-1.3396	1.93933
H	-1.40413	-2.97553	3.10829
H	-2.82969	-1.77468	1.92154
C	1.30565	0.779178	-2.76298
O	1.86825	0.747766	-3.85021
O	1.58577	-0.111231	-1.76318
H	0.535147	1.51756	-2.49902
H	1.05089	0.0434305	-0.948308
C	-0.858282	1.36161	0.603025
O	-1.00921	2.08478	-0.363582
O	0.0580173	0.321355	0.574175
H	-1.40366	1.4527	1.54936
H	0.111752	-0.207188	1.39559
C	6.95873	0.280973	-0.208164
O	6.35191	-0.775588	-0.234516
O	8.18249	0.405843	0.410603
H	6.59059	1.21089	-0.667115
H	8.54911	1.31174	0.351068
