20
  This energy is -0.00100675 and Call times are: 3906
C	1.57466	-3.05783	-0.705627
O	2.36366	-2.21044	-0.325286
O	0.244914	-3.03101	-0.34909
H	1.84859	-3.90308	-1.3548
H	-0.266632	-3.7745	-0.728759
C	-1.07968	2.92249	-0.48914
O	-1.37521	4.00045	-0.989388
O	0.0152387	2.20357	-0.883104
H	-1.66227	2.44428	0.311155
H	0.119696	1.35718	-0.386383
C	-0.600116	-0.559454	1.51034
O	-1.53508	0.176704	1.76332
O	0.322548	-0.22312	0.5315
H	-0.400247	-1.51688	2.005
H	1.04012	-0.874124	0.39641
C	5.82105	0.372525	-0.0984446
O	6.78718	0.253695	-0.831731
O	5.48377	-0.588888	0.827837
H	5.14544	1.24103	-0.110595
H	4.68516	-0.356877	1.34456
