20
  This energy is 0.000289056 and Call times are: 16959
C	2.20297	2.21804	-1.59845
O	2.62994	1.84143	-0.520909
O	1.3234	1.46219	-2.34083
H	2.47648	3.1763	-2.06519
H	1.06791	1.89186	-3.18268
C	-2.31334	-0.961823	1.91553
O	-3.23478	-1.0029	2.72103
O	-1.33791	-0.00403612	1.96107
H	-2.19145	-1.68318	1.09494
H	-0.665447	-0.104468	1.24572
C	0.471458	-1.32021	-0.994502
O	-0.452297	-2.10842	-0.920338
O	0.591765	-0.281072	-0.0844031
H	1.26451	-1.34826	-1.75052
H	1.3648	0.302668	-0.220907
C	9.31531	-0.0170835	-0.382214
O	9.21798	1.13851	-0.00753898
O	9.92931	-0.984051	0.382015
H	8.92913	-0.383842	-1.34516
H	9.93238	-1.86409	-0.0470854
