20
  This energy is -9.8969e-05 and Call times are: 9280
C	-3.17267	0.908966	1.19822
O	-2.39832	0.642791	2.10087
O	-2.73885	1.36634	-0.0259804
H	-4.26562	0.809683	1.27895
H	-3.47286	1.53774	-0.650841
C	2.33956	-1.88036	-0.967794
O	3.01445	-2.85009	-1.28986
O	1.35127	-1.95174	-0.0248705
H	2.46795	-0.879338	-1.40372
H	0.898123	-1.08784	0.124651
C	0.443577	1.63081	-0.31299
O	1.34419	1.55534	-1.12741
O	0.0456482	0.516265	0.40951
H	-0.118532	2.54186	-0.0777945
H	-0.685255	0.670457	1.04115
C	21.8765	-0.157973	0.225536
O	22.8066	-0.930965	0.375613
O	21.9845	0.973536	-0.551698
H	20.8871	-0.292225	0.688244
H	21.1579	1.49755	-0.579063
