20
  This energy is 0.00272845 and Call times are: 22378
C	2.39264	-0.180806	-2.56328
O	2.54447	-1.05605	-1.72893
O	1.16544	0.396131	-2.80245
H	3.20602	0.218714	-3.18754
H	1.19657	1.08341	-3.49906
C	-1.26324	0.787584	2.78026
O	-1.45858	1.25616	3.89465
O	-0.0152468	0.455001	2.32993
H	-2.06507	0.595676	2.05307
H	-0.0210308	0.0895272	1.41318
C	-1.22284	-0.71432	-0.974003
O	-2.26923	-0.378286	-0.45224
O	-0.0201611	-0.59058	-0.295162
H	-1.12705	-1.1288	-1.98411
H	0.769134	-0.885377	-0.792231
C	7.19094	0.368685	-0.0900322
O	6.7259	0.489799	1.02993
O	7.05343	-0.792668	-0.816959
H	7.75096	1.16038	-0.610122
H	7.47783	-0.743499	-1.69791
