20
  This energy is -0.00167532 and Call times are: 6654
C	2.14011	-1.81779	2.10792
O	1.34523	-2.53672	1.5278
O	2.54379	-0.607334	1.59032
H	2.59715	-2.06646	3.07756
H	3.184	-0.141056	2.16592
C	-2.57563	1.57814	-0.906388
O	-3.66825	2.13017	-0.938053
O	-2.31829	0.500512	-0.104266
H	-1.71622	1.8972	-1.51317
H	-1.39319	0.167769	-0.190872
C	1.20259	0.170663	-1.21611
O	0.841493	1.12688	-1.87591
O	0.328751	-0.458982	-0.342884
H	2.20577	-0.270078	-1.24209
H	0.705468	-1.21829	0.145479
C	5.11177	-0.321281	-0.204541
O	6.09191	-0.793771	0.34439
O	4.78873	1.01332	-0.101855
H	4.41138	-0.906882	-0.818899
H	3.97599	1.24786	-0.594868
