20
  This energy is -0.00631863 and Call times are: 6349
C	-2.29453	2.13213	-1.58648
O	-1.16413	2.58757	-1.58999
O	-2.53684	0.778003	-1.52578
H	-3.2043	2.74962	-1.6306
H	-3.49155	0.56097	-1.53081
C	1.76363	-1.20082	2.3224
O	2.29145	-1.42662	3.40407
O	1.3515	0.049458	1.95111
H	1.57726	-1.97479	1.56425
H	0.945875	0.0702773	1.05163
C	0.0898617	-1.05275	-1.3557
O	0.499639	-2.10511	-0.903259
O	0.186441	0.119964	-0.622222
H	-0.374936	-0.928729	-2.34052
H	-0.168572	0.91676	-1.065
C	4.4924	0.0771358	0.407434
O	5.30477	-0.746088	0.0232334
O	3.51389	0.580107	-0.420581
H	4.46853	0.483979	1.42959
H	2.93509	1.23182	0.0253482
