20
  This energy is -2.1082e-05 and Call times are: 5761
C	2.03576	-1.92076	2.11995
O	2.68787	-1.24448	1.34364
O	0.769351	-1.55737	2.52023
H	2.39324	-2.86314	2.56157
H	0.368881	-2.19635	3.14467
C	-1.65239	0.764603	-2.57506
O	-2.19511	0.752479	-3.67272
O	-0.489854	0.0901005	-2.32115
H	-2.048	1.31258	-1.708
H	-0.177423	0.197111	-1.39112
C	-0.323021	1.16368	1.22302
O	-1.34734	1.71322	0.864041
O	0.412552	0.388037	0.339911
H	0.103147	1.22169	2.23114
H	1.22099	-0.0147912	0.715583
C	10.7647	-0.300976	-0.140894
O	11.467	0.61249	0.25605
O	9.38999	-0.242822	-0.0867082
H	11.1581	-1.23504	-0.569433
H	8.96012	-1.04819	-0.44054
