20
  This energy is -6.0662e-05 and Call times are: 8398
C	1.15543	-0.224439	3.30793
O	0.49258	0.780596	3.11878
O	0.983522	-1.36557	2.55671
H	1.93481	-0.308359	4.08023
H	1.58524	-2.09091	2.82208
C	-0.0381532	0.833836	-3.04125
O	0.242734	1.30021	-4.13814
O	0.356494	1.41895	-1.86958
H	-0.625381	-0.0854188	-2.90449
H	0.0527239	0.925284	-1.0708
C	-1.25207	-1.14643	0.268861
O	-1.53594	-1.55982	-0.839569
O	-0.506282	0.0121369	0.424079
H	-1.54176	-1.62305	1.21237
H	-0.326161	0.268651	1.35075
C	18.0386	-0.332086	0.0430706
O	18.5967	-0.195567	1.11782
O	18.296	0.498072	-1.02494
H	17.2941	-1.11501	-0.165918
H	17.7743	0.268124	-1.82091
