20
  This energy is -0.0137379 and Call times are: 11738
C	-0.655807	3.36841	-0.74266
O	0.346895	2.96016	-1.30227
O	-1.68408	2.52755	-0.37979
H	-0.825843	4.42402	-0.482515
H	-2.42244	2.99619	0.0604414
C	1.25259	-2.48384	1.48575
O	1.87653	-3.20488	2.25411
O	1.67761	-1.22927	1.1447
H	0.307163	-2.77898	1.00865
H	1.06803	-0.773312	0.516582
C	-1.20747	-0.563522	-1.08569
O	-1.46836	-1.68792	-0.701312
O	-0.0619111	0.0861951	-0.651958
H	-1.82019	0.0231167	-1.77975
H	0.0664293	0.986353	-1.01281
C	5.33444	-0.0345345	0.35261
O	5.92419	0.745972	-0.3742
O	4.14522	-0.621844	-0.0173631
H	5.69214	-0.333778	1.34931
H	3.78891	-1.22502	0.666619
