20
  This energy is -0.000593333 and Call times are: 9784
C	1.99662	2.88227	-0.183962
O	1.34217	2.84012	0.84325
O	2.36322	1.74267	-0.864398
H	2.3461	3.81573	-0.650243
H	2.88575	1.93149	-1.67056
C	-2.55962	-1.81696	-0.304853
O	-3.68053	-2.23931	-0.559301
O	-2.31936	-0.506328	0.00406259
H	-1.65908	-2.44751	-0.302642
H	-1.36688	-0.321216	0.184427
C	1.32882	-0.996349	0.442489
O	0.977821	-2.12526	0.155355
O	0.405473	0.035131	0.520258
H	2.35957	-0.692759	0.658512
H	0.777645	0.90821	0.757307
C	13.3313	-0.130841	-0.231488
O	12.3847	-0.819212	-0.571071
O	13.2155	0.84865	0.729365
H	14.3429	-0.228351	-0.653662
H	14.0575	1.31905	0.897708
