20
  This energy is -0.00575535 and Call times are: 4472
C	2.55069	0.116527	-2.41002
O	2.82923	0.759822	-1.41311
O	1.68439	-0.953096	-2.37135
H	2.95819	0.328466	-3.40999
H	1.55673	-1.37211	-3.24698
C	-2.57516	0.890577	1.58787
O	-3.57334	1.48532	1.97452
O	-1.52443	1.52842	0.987862
H	-2.4384	-0.195598	1.68831
H	-0.795176	0.9141	0.733257
C	0.444856	-1.57701	0.519054
O	-0.551036	-2.01589	1.06281
O	0.568508	-0.221886	0.252739
H	1.30442	-2.17714	0.199233
H	1.4024	0.0402976	-0.18642
C	5.86689	0.384179	-0.0710175
O	5.59462	-0.0772406	-1.16564
O	5.62873	-0.309417	1.09443
H	6.31826	1.37618	0.081
H	5.89825	0.186004	1.89476
