20
  This energy is -0.0123999 and Call times are: 16186
C	-1.47933	-2.09681	2.39641
O	-0.415906	-1.63982	2.77791
O	-2.2621	-1.44888	1.46714
H	-1.90069	-3.04873	2.75308
H	-3.08623	-1.93434	1.25799
C	1.85088	0.850766	-2.40756
O	2.64576	0.850942	-3.33908
O	1.94732	-0.0206649	-1.3577
H	1.00017	1.5433	-2.33502
H	1.23405	0.103502	-0.686986
C	-1.048	1.30998	0.374073
O	-1.01688	2.02202	-0.611885
O	-0.0916716	0.324846	0.567788
H	-1.79763	1.37023	1.17139
H	-0.195443	-0.198728	1.38759
C	4.85787	-0.346191	-0.242626
O	4.96072	-0.744048	0.904709
O	4.88799	0.994079	-0.557011
H	4.73425	-1.00882	-1.11242
H	4.79417	1.16269	-1.51689
