20
  This energy is 0.00202699 and Call times are: 6055
C	0.765514	3.27319	1.0139
O	-0.415071	3.13924	0.742757
O	1.54229	2.21842	1.43834
H	1.30553	4.22953	0.945241
H	2.46952	2.47609	1.61846
C	-0.493886	-2.42197	-1.95858
O	-0.600488	-3.13087	-2.95139
O	-0.728967	-1.07482	-1.98726
H	-0.203206	-2.80253	-0.969013
H	-0.602006	-0.64265	-1.10912
C	0.0130819	-0.594273	1.61274
O	0.190077	-1.79255	1.49921
O	-0.366128	0.173011	0.521852
H	0.129302	-0.0254797	2.54239
H	-0.485444	1.12626	0.706381
C	7.60138	0.2655	-0.265617
O	7.2003	-0.852708	-0.537631
O	8.52224	0.488833	0.733489
H	7.27035	1.17827	-0.783472
H	8.74962	1.43543	0.837724
