20
  This energy is -0.00595878 and Call times are: 16623
C	-1.90805	-1.99589	2.16877
O	-1.82764	-0.842818	2.55503
O	-1.79963	-2.33003	0.837354
H	-2.07117	-2.8558	2.83575
H	-1.8843	-3.29229	0.677694
C	2.53998	1.46108	-1.16606
O	3.67743	1.87146	-1.35934
O	2.06584	1.16675	0.0827263
H	1.80925	1.29542	-1.97052
H	1.13192	0.847743	0.0750961
C	-1.2837	0.145682	-1.13364
O	-0.739534	0.443041	-2.18032
O	-0.607039	0.25024	0.0720765
H	-2.31353	-0.217584	-1.03989
H	-1.12295	-0.0101577	0.861382
C	5.60247	0.0697364	-0.419072
O	4.78324	-0.811334	-0.224585
O	6.31556	0.644729	0.609013
H	5.84088	0.476442	-1.41338
H	6.93577	1.33735	0.302049
