20
  This energy is -0.00776652 and Call times are: 6391
C	1.14567	3.25931	0.626184
O	0.95401	3.05851	-0.560486
O	0.469089	2.56454	1.60373
H	1.86196	3.99874	1.01489
H	0.726702	2.83255	2.50949
C	0.137463	-3.06846	-0.715248
O	0.523403	-4.19524	-0.999842
O	0.807899	-1.94093	-1.10268
H	-0.771293	-2.86751	-0.13014
H	0.372494	-1.10956	-0.797295
C	-1.59877	0.372011	0.509697
O	-2.09331	-0.704483	0.78661
O	-0.429265	0.445463	-0.231529
H	-2.00588	1.34651	0.802801
H	-0.10492	1.3517	-0.406197
C	4.18212	0.100693	-0.156008
O	4.11793	0.614104	0.947412
O	3.14522	-0.638736	-0.679621
H	5.05658	0.180382	-0.819229
H	3.33959	-0.98839	-1.57325
