20
  This energy is 0.000201448 and Call times are: 4256
C	0.581038	-2.92763	-1.84909
O	-0.553076	-2.88055	-1.40546
O	1.31271	-1.79009	-2.10742
H	1.11118	-3.86429	-2.07831
H	2.20538	-1.98295	-2.46032
C	-0.203496	1.8815	2.52279
O	-0.171779	2.33354	3.66043
O	-0.452908	0.562242	2.26155
H	-0.0361176	2.49002	1.62264
H	-0.445677	0.352231	1.29725
C	-0.184419	0.959152	-1.41431
O	0.0233667	2.09921	-1.04393
O	-0.432366	-0.0504453	-0.496817
H	-0.196449	0.628433	-2.45919
H	-0.5884	-0.934739	-0.884952
C	7.62452	0.217544	-0.239319
O	6.96346	-0.344622	0.616384
O	8.99385	0.0892886	-0.306801
H	7.19513	0.864798	-1.0188
H	9.38839	0.597262	-1.04498
