20
  This energy is 0.000568857 and Call times are: 7348
C	0.957954	-3.02173	-1.50972
O	-0.176471	-3.06752	-1.06675
O	1.54306	-1.83791	-1.89997
H	1.60318	-3.90429	-1.63498
H	2.45556	-1.95585	-2.2347
C	-0.457301	2.11423	2.29495
O	-0.491273	2.69242	3.3739
O	-0.537193	0.753086	2.18635
H	-0.360709	2.6332	1.33063
H	-0.496279	0.437938	1.25198
C	-0.292473	0.762247	-1.51251
O	-0.232227	1.95389	-1.27491
O	-0.418799	-0.160189	-0.485035
H	-0.254903	0.316594	-2.51315
H	-0.459662	-1.09525	-0.769559
C	10.5105	-0.151744	-0.271408
O	11.5991	-0.392365	-0.763775
O	10.3819	0.493951	0.937973
H	9.55243	-0.423365	-0.739605
H	9.44856	0.617924	1.20656
