20
  This energy is -0.000217117 and Call times are: 19010
C	1.4396	-0.893158	-3.07532
O	0.260052	-1.19349	-3.01442
O	1.96901	0.143069	-2.3391
H	2.17233	-1.41255	-3.71113
H	2.92834	0.267072	-2.49048
C	-0.98407	-0.320929	2.97901
O	-1.23146	-0.754102	4.09738
O	-0.925154	-1.12543	1.87439
H	-0.79	0.740393	2.76806
H	-0.716127	-0.629502	1.04711
C	-0.128126	1.6557	-0.443286
O	-0.21071	2.2531	0.613302
O	-0.325049	0.284354	-0.499798
H	0.0992091	2.11637	-1.41148
H	-0.239167	-0.110829	-1.39054
C	12.4599	-0.361497	0.214998
O	13.2363	-0.390302	-0.723968
O	11.6061	0.698145	0.425262
H	12.3734	-1.16333	0.963654
H	11.042	0.581941	1.21709
