20
  This energy is -0.0112362 and Call times are: 17520
C	1.38786	-1.22097	-2.98511
O	0.255053	-1.63148	-2.80214
O	1.82781	-0.0286922	-2.45503
H	2.14517	-1.75538	-3.57822
H	2.75825	0.170708	-2.6855
C	-0.800091	0.0628945	3.04989
O	-0.943229	-0.207237	4.23568
O	-0.700299	-0.899018	2.08259
H	-0.740027	1.09058	2.6641
H	-0.588869	-0.52425	1.17641
C	-0.339157	1.53878	-0.686573
O	-0.440747	2.28722	0.267161
O	-0.378728	0.163325	-0.515947
H	-0.212072	1.85808	-1.72734
H	-0.289482	-0.359512	-1.33792
C	3.90744	0.319827	-0.202783
O	4.19347	-0.502147	-1.05589
O	4.20696	0.127309	1.12736
H	3.39465	1.27012	-0.41467
H	3.91725	0.870716	1.69484
