20
  This energy is 0.00104917 and Call times are: 16453
C	-0.766574	-2.15906	2.66057
O	-1.18998	-2.57255	1.59521
O	0.327582	-1.32673	2.73886
H	-1.21161	-2.40868	3.63553
H	0.551326	-1.07671	3.65865
C	-0.393118	2.3235	-2.09589
O	-0.838625	3.26263	-2.74328
O	-1.1981	1.38543	-1.51029
H	0.680599	2.15467	-1.93097
H	-0.691286	0.692063	-1.02407
C	1.62805	-0.544442	-0.0854955
O	2.22411	0.351232	-0.653448
O	0.243028	-0.603636	-0.113457
H	2.10031	-1.35663	0.47896
H	-0.149914	-1.35783	0.370035
C	7.18891	0.0920471	-0.144116
O	6.49362	-0.0870761	-1.12887
O	6.68737	-0.0138567	1.1339
H	8.25798	0.349216	-0.187125
H	7.36138	0.156672	1.82327
