20
  This energy is -0.000969802 and Call times are: 22546
C	-1.09408	1.89063	-2.74888
O	-0.248461	2.47569	-2.09475
O	-1.17278	0.516246	-2.77974
H	-1.85497	2.39788	-3.36097
H	-1.90065	0.188725	-3.34678
C	0.12834	-1.04883	2.97143
O	-0.080825	-1.2408	4.16263
O	-0.111892	0.154101	2.36634
H	0.522981	-1.81813	2.29245
H	0.106788	0.151916	1.40395
C	1.00367	-0.997069	-0.976098
O	1.17133	-2.00606	-0.317372
O	0.508891	0.158173	-0.390285
H	1.21557	-0.90141	-2.04719
H	0.406916	0.919632	-0.995885
C	6.07359	0.377783	-0.0873953
O	4.87579	0.500902	-0.275481
O	6.62986	-0.811364	0.328002
H	6.80303	1.1893	-0.229762
H	7.60154	-0.76024	0.436816
