20
  This energy is -0.000467 and Call times are: 9868
C	-1.64373	3.02848	0.673975
O	-2.42405	2.10467	0.52264
O	-0.352528	2.83078	1.10962
H	-1.89591	4.0819	0.480007
H	0.156583	3.66381	1.18364
C	1.25477	-2.3378	-1.70474
O	1.64479	-3.04713	-2.6236
O	0.168406	-1.51477	-1.82015
H	1.73855	-2.30131	-0.718229
H	-0.0204657	-1.0078	-0.994716
C	0.43224	-0.231088	1.64743
O	1.37325	-1.0015	1.61499
O	-0.380011	-0.0566738	0.5373
H	0.143489	0.374709	2.51399
H	-1.11165	0.581994	0.654683
C	9.04493	-0.226164	-0.263342
O	9.25377	-0.661786	0.855526
O	8.16055	0.803882	-0.49343
H	9.53439	-0.609112	-1.17146
H	8.09617	1.04685	-1.4397
