20
  This energy is -0.00329376 and Call times are: 13660
C	0.683426	1.22554	-3.21851
O	0.462198	0.0270827	-3.21938
O	0.168304	2.06325	-2.25468
H	1.30203	1.73523	-3.97247
H	0.430194	2.99795	-2.38248
C	0.551173	-1.30415	2.81803
O	1.08377	-1.81205	3.79678
O	1.02701	-1.47855	1.54757
H	-0.345705	-0.670945	2.87485
H	0.490192	-1.00691	0.86683
C	-1.60755	0.608088	-0.0165918
O	-1.92291	0.680178	1.1562
O	-0.501684	-0.130358	-0.409429
H	-2.13816	1.09503	-0.842808
H	-0.32402	-0.13169	-1.37141
C	4.33878	-0.13196	0.39916
O	3.32479	-0.417125	-0.213825
O	5.40531	0.496286	-0.204063
H	4.48983	-0.34659	1.46781
H	6.14843	0.66148	0.411648
