20
  This energy is -0.000583831 and Call times are: 10730
C	2.09087	1.99625	-1.99274
O	2.47401	0.840692	-1.93683
O	0.767619	2.3367	-1.82194
H	2.75449	2.85364	-2.18089
H	0.609597	3.30029	-1.89354
C	-1.05756	-1.47063	2.58162
O	-1.20124	-1.88702	3.72422
O	0.170015	-1.17993	2.05297
H	-1.89345	-1.29623	1.8892
H	0.12174	-0.855116	1.12228
C	-1.19156	-0.131781	-1.2317
O	-2.21408	-0.427004	-0.642299
O	0.0430496	-0.246852	-0.611165
H	-1.14267	0.237356	-2.26254
H	0.809537	0.0125871	-1.16085
C	5.59461	0.416926	0.0814518
O	5.63598	0.306721	-1.13156
O	5.57366	-0.679109	0.914722
H	5.57079	1.38247	0.608763
H	5.54034	-0.436673	1.86273
