20
  This energy is -0.010395 and Call times are: 11842
C	-0.638902	3.44596	-0.212025
O	-0.820272	2.87766	-1.27475
O	-0.756819	2.79392	0.995041
H	-0.370141	4.50938	-0.123625
H	-0.582718	3.37712	1.76196
C	1.62359	-2.6971	-0.18846
O	2.50306	-3.53328	-0.352487
O	1.57395	-1.53126	-0.902084
H	0.80665	-2.80958	0.538537
H	0.806606	-0.961332	-0.656336
C	-1.50003	-0.317378	0.776817
O	-1.33828	-1.38522	1.33686
O	-0.618446	0.109288	-0.204676
H	-2.31824	0.383042	0.979899
H	-0.826905	0.979571	-0.599799
C	3.73765	0.0856537	-0.39269
O	2.92918	0.955007	-0.117291
O	4.0545	-0.923643	0.488783
H	4.27591	0.0304652	-1.35089
H	4.71817	-1.5481	0.130724
