20
  This energy is 0.00070382 and Call times are: 17646
C	1.54907	-3.09602	0.585546
O	2.04151	-2.50622	-0.360436
O	0.921766	-2.43106	1.6153
H	1.56135	-4.19047	0.699253
H	0.575461	-3.03476	2.30393
C	-2.00199	2.08337	-1.26392
O	-2.89298	2.6156	-1.91389
O	-1.32389	0.981835	-1.70855
H	-1.67341	2.44072	-0.277566
H	-0.635852	0.670373	-1.07324
C	0.830702	0.758339	1.29966
O	0.154058	1.73175	1.573
O	0.647311	0.0802974	0.104173
H	1.61594	0.337434	1.93804
H	1.23555	-0.689614	-0.0306693
C	9.78132	-0.0508352	0.404749
O	9.48782	1.09318	0.104196
O	10.3789	-0.911056	-0.489115
H	9.59882	-0.489932	1.39712
H	10.5555	-1.79523	-0.107441
