20
  This energy is 0.00096336 and Call times are: 14472
C	-0.0805998	-0.897981	3.39337
O	-1.19029	-0.645896	2.95716
O	0.938606	-1.3467	2.58346
H	0.200606	-0.791773	4.45193
H	1.7716	-1.50695	3.07238
C	0.125273	1.87298	-2.5342
O	0.197081	2.84096	-3.28082
O	-0.441955	1.94231	-1.29148
H	0.506248	0.875281	-2.795
H	-0.42473	1.08024	-0.811316
C	0.168584	-1.63083	-0.51597
O	0.641534	-1.55395	-1.63423
O	-0.395943	-0.520459	0.0930788
H	0.141166	-2.5401	0.0954001
H	-0.751033	-0.675518	0.99132
C	4.11374	-0.172999	0.378313
O	5.31843	0.00960519	0.353302
O	3.30154	0.161465	-0.682133
H	3.57801	-0.612549	1.23312
H	2.35799	-0.0425994	-0.518835
