20
  This energy is -0.0153635 and Call times are: 21252
C	0.832668	-3.41018	0.0717215
O	0.322962	-3.0385	1.11446
O	0.579704	-2.78536	-1.12898
H	1.52656	-4.26104	-0.00221862
H	1.05851	-3.19325	-1.87929
C	0.327058	3.10681	0.432062
O	0.757449	4.21741	0.716497
O	0.693009	1.97876	1.11359
H	-0.382944	2.92203	-0.386672
H	0.261744	1.16176	0.766391
C	-1.40731	-0.27558	-0.947515
O	-1.64708	0.799164	-1.46474
O	-0.534598	-0.366909	0.126072
H	-1.83473	-1.23497	-1.26086
H	-0.402118	-1.27021	0.477456
C	3.14107	0.353427	-0.174125
O	3.8804	-0.136172	-1.01014
O	2.94588	-0.22741	1.059
H	2.57478	1.28453	-0.326654
H	2.32636	0.277579	1.62449
