20
  This energy is -0.00874154 and Call times are: 4570
C	2.94537	1.91014	-0.0625955
O	2.04076	2.43801	-0.685713
O	2.70603	1.0425	0.97951
H	4.01272	2.07618	-0.272611
H	3.52784	0.697326	1.38458
C	-2.15573	-2.095	-0.953809
O	-2.76982	-2.95292	-1.57545
O	-1.32592	-1.19552	-1.56477
H	-2.21735	-1.97458	0.137186
H	-0.903771	-0.568125	-0.930581
C	-0.393713	0.50233	1.59591
O	-1.15652	-0.350587	2.00912
O	-0.110109	0.604467	0.242503
H	0.122629	1.24129	2.2193
H	0.513272	1.31895	0.00193259
C	6.47674	0.246243	-0.345418
O	5.37706	-0.262423	-0.214296
O	7.50999	-0.0111567	0.52763
H	6.73722	0.942598	-1.15668
H	8.33237	0.46733	0.296673
