20
  This energy is 0.000285241 and Call times are: 19220
C	2.10975	2.5276	-1.21983
O	2.60817	1.42056	-1.32598
O	0.745915	2.71616	-1.19789
H	2.69301	3.45675	-1.13376
H	0.492638	3.65765	-1.10813
C	-1.23289	-2.05147	2.05362
O	-1.48553	-2.70419	3.05846
O	0.0156762	-1.5588	1.79045
H	-1.97937	-1.80748	1.28434
H	0.060384	-1.05466	0.943182
C	-0.987826	0.0271368	-1.40632
O	-2.04248	-0.465646	-1.05283
O	0.154329	-0.11157	-0.632492
H	-0.838625	0.60304	-2.32684
H	0.955542	0.317192	-0.994695
C	14.2396	0.155364	0.202598
O	13.8351	-0.774765	0.878248
O	13.6236	0.528484	-0.971022
H	15.1154	0.767886	0.464511
H	14.0589	1.29088	-1.40442
