20
  This energy is 3.636e-06 and Call times are: 18884
C	-0.802196	-3.31666	-0.827062
O	-0.929875	-3.09535	0.36456
O	-0.916852	-2.32144	-1.77177
H	-0.588215	-4.31133	-1.24631
H	-0.790067	-2.64744	-2.68623
C	1.75822	2.44281	0.94194
O	2.6814	3.15291	1.32019
O	1.66848	1.11711	1.26652
H	0.930589	2.80515	0.315595
H	0.868384	0.680849	0.887639
C	-1.50082	0.599396	-0.585247
O	-1.30028	1.78035	-0.797905
O	-0.617981	-0.142373	0.184773
H	-2.3571	0.0279652	-0.961485
H	-0.859416	-1.083	0.302662
C	18.88	0.287275	0.256075
O	18.6396	0.865282	-0.78958
O	18.5763	-1.04279	0.442595
H	19.3515	0.766684	1.1271
H	18.8267	-1.37006	1.33075
