20
  This energy is -0.0013871 and Call times are: 2346
C	-0.376467	3.44316	-0.575073
O	-1.42872	2.90941	-0.269922
O	0.841508	2.93746	-0.178996
H	-0.306798	4.35837	-1.18208
H	1.59783	3.47097	-0.498285
C	0.0196624	-3.09115	-0.624749
O	-0.053295	-4.18141	-1.17755
O	-0.73603	-2.01824	-1.01035
H	0.691419	-2.88235	0.220068
H	-0.564469	-1.21135	-0.468575
C	0.680965	0.24764	1.5586
O	1.28793	-0.779305	1.79748
O	-0.250995	0.298349	0.533199
H	0.801879	1.19189	2.10179
H	-0.689892	1.16443	0.413826
C	4.2154	0.311804	-0.288152
O	3.82109	0.822023	0.745987
O	4.51797	-1.02885	-0.372771
H	4.36198	0.865445	-1.22778
H	4.8219	-1.29552	-1.26446
