20
  This energy is -0.00165066 and Call times are: 20828
C	0.292415	-3.47597	-0.399911
O	-0.799288	-3.06234	-0.749673
O	1.41633	-2.68069	-0.42046
H	0.474123	-4.50112	-0.0436093
H	2.21964	-3.14795	-0.112312
C	-0.722204	2.74092	1.38265
O	-1.09842	3.59918	2.17094
O	-1.27645	1.49134	1.33507
H	0.0847263	2.89846	0.652845
H	-0.866595	0.913841	0.647655
C	0.918923	0.326451	-1.41537
O	1.31951	1.4657	-1.26793
O	-0.108608	-0.171316	-0.628623
H	1.30919	-0.388748	-2.14849
H	-0.364882	-1.09636	-0.817283
C	7.78376	-0.154675	0.0963891
O	6.98416	-0.782429	0.768556
O	7.38864	0.839722	-0.770283
H	8.87097	-0.322819	0.121307
H	8.13954	1.25521	-1.24159
