20
  This energy is -0.0107921 and Call times are: 10478
C	3.38538	0.177996	-0.913946
O	2.87876	-0.884938	-1.22818
O	2.64355	1.33045	-0.781286
H	4.45914	0.309365	-0.712187
H	3.18488	2.10484	-0.524599
C	-2.5294	-0.668418	1.76104
O	-3.27423	-1.03994	2.65925
O	-1.32537	-1.26629	1.50855
H	-2.7612	0.168623	1.0871
H	-0.841293	-0.854343	0.753573
C	-0.497106	0.978916	-1.32245
O	-1.58353	1.4158	-0.992448
O	0.0701322	-0.0929417	-0.650196
H	0.115292	1.36782	-2.14404
H	0.944787	-0.376382	-0.984279
C	7.50466	0.182949	0.371388
O	6.54681	0.372046	-0.358015
O	8.61947	-0.506737	-0.0500342
H	7.56328	0.53914	1.41091
H	9.30712	-0.579845	0.643076
