20
  This energy is 0.0011648 and Call times are: 16833
C	1.67235	-1.51886	2.68777
O	1.29628	-2.33137	1.86095
O	1.94256	-0.210021	2.3561
H	1.82654	-1.75354	3.75175
H	2.23489	0.324848	3.1223
C	-2.41517	1.08858	-1.7111
O	-3.53006	1.40447	-2.10707
O	-2.20311	0.0198873	-0.884164
H	-1.49808	1.63048	-1.98286
H	-1.25181	-0.106249	-0.653629
C	1.46637	0.522228	-0.728896
O	1.13932	1.43857	-1.45927
O	0.517513	-0.349061	-0.215983
H	2.4934	0.301513	-0.41617
H	0.871469	-1.05502	0.361351
C	7.57754	-0.350001	-0.0922081
O	8.58473	-0.726999	0.481115
O	7.32866	0.982833	-0.332373
H	6.79278	-1.0271	-0.461791
H	6.48241	1.13422	-0.800948
