20
  This energy is 0.000911187 and Call times are: 18170
C	0.502356	3.04836	1.6682
O	0.711268	2.08863	2.38967
O	0.640335	2.97806	0.299962
H	0.191095	4.03695	2.03798
H	0.439509	3.82545	-0.147476
C	-1.51412	-2.57969	-0.999273
O	-2.35884	-3.43878	-1.2183
O	-1.50747	-1.82832	0.143657
H	-0.696842	-2.3404	-1.69452
H	-0.764585	-1.17929	0.173898
C	1.50773	0.101308	-0.818992
O	1.3859	-0.631224	-1.78265
O	0.614583	0.0350383	0.239525
H	2.29645	0.852018	-0.693912
H	0.790153	0.661097	0.970412
C	10.013	-0.117592	0.130106
O	10.7834	-0.970002	0.536565
O	10.443	0.968192	-0.59946
H	8.927	-0.138785	0.3061
H	9.71301	1.56765	-0.85705
