20
  This energy is 0.0014662 and Call times are: 20240
C	-0.406335	3.4396	0.576056
O	0.566878	3.20057	-0.11746
O	-1.49461	2.5973	0.623718
H	-0.500698	4.33174	1.2133
H	-2.19921	2.91838	1.22292
C	1.06201	-2.9384	0.428778
O	1.62828	-3.93475	0.860282
O	1.57849	-1.67959	0.568503
H	0.100022	-2.96883	-0.102478
H	1.00663	-0.981768	0.168431
C	-1.2398	-0.0343936	-1.18995
O	-1.58337	-1.20017	-1.24481
O	-0.0523059	0.326564	-0.571779
H	-1.80499	0.809133	-1.60264
H	0.142697	1.28517	-0.575377
C	8.71206	0.197153	-0.24231
O	8.27807	-0.92358	-0.0401855
O	9.91742	0.618261	0.273309
H	8.19024	0.957491	-0.842718
H	10.1356	1.54068	0.0280335
