20
  This energy is 0.00240816 and Call times are: 11926
C	-0.338191	3.39331	0.835989
O	-1.13145	2.68968	1.43674
O	0.868184	2.91039	0.380446
H	-0.511362	4.45591	0.608405
H	1.3999	3.5892	-0.0833444
C	-0.545829	-2.71595	-1.50718
O	-0.97479	-3.57634	-2.26566
O	-1.30413	-1.65587	-1.09232
H	0.474667	-2.7208	-1.09836
H	-0.818657	-1.04961	-0.4834
C	1.39173	-0.193578	0.989889
O	1.95182	-1.1784	0.546597
O	0.0772043	0.0877446	0.650117
H	1.84538	0.536834	1.66959
H	-0.290984	0.899448	1.05329
C	7.16657	0.298222	0.192521
O	6.38592	-0.563925	-0.171538
O	8.52071	0.202835	-0.0382873
H	6.86541	1.21152	0.727392
H	9.02171	0.968362	0.310385
