20
  This energy is 0.00344025 and Call times are: 13877
C	0.779938	2.96342	-1.71395
O	0.477435	2.05869	-2.47237
O	0.318865	3.01544	-0.417507
H	1.43527	3.8027	-1.99155
H	0.644512	3.79848	0.0717798
C	0.448204	-2.83514	1.30652
O	0.940491	-3.88075	1.7114
O	0.916733	-2.18064	0.200623
H	-0.403611	-2.33723	1.79135
H	0.416424	-1.35356	0.00145793
C	-1.56221	0.565014	0.441057
O	-1.87718	-0.114083	1.40007
O	-0.507566	0.190353	-0.377431
H	-2.05462	1.4967	0.139774
H	-0.326085	0.796106	-1.12382
C	6.50023	0.381835	0.157288
O	5.92671	-0.43552	0.856038
O	7.28985	0.00783773	-0.906997
H	6.43971	1.46976	0.311108
H	7.6853	0.771419	-1.37516
