20
  This energy is -0.00315726 and Call times are: 15835
C	-0.18467	-3.35151	-1.03009
O	-0.0774125	-2.58546	-1.97185
O	0.289763	-3.03885	0.224198
H	-0.660546	-4.34149	-1.09633
H	0.132816	-3.74945	0.879196
C	-0.996447	2.90396	0.721128
O	-1.68497	3.89514	0.92865
O	-1.33436	1.95306	-0.202177
H	-0.0573645	2.69465	1.253
H	-0.679948	1.21609	-0.253652
C	1.64801	-0.1446	0.466265
O	1.82917	0.769084	1.24886
O	0.531853	-0.163047	-0.356174
H	2.31476	-1.00482	0.336739
H	0.468734	-0.935754	-0.952756
C	5.10151	-0.32707	0.271133
O	5.25452	-0.804097	-0.839848
O	4.96268	1.02809	0.471996
H	5.0614	-0.924352	1.19447
H	4.8476	1.26384	1.41528
