20
  This energy is -0.00365634 and Call times are: 10166
C	-1.46752	2.19312	-2.31612
O	-2.08355	1.14607	-2.21904
O	-0.700405	2.68817	-1.28532
H	-1.46907	2.8239	-3.2178
H	-0.264836	3.53639	-1.50759
C	1.81726	-2.34362	1.07281
O	2.61205	-3.27086	1.1629
O	1.07889	-2.11394	-0.055445
H	1.63026	-1.62327	1.88194
H	0.484097	-1.33061	0.0260275
C	-0.638946	0.85705	1.34591
O	0.0736347	0.54128	2.28004
O	-0.626236	0.128316	0.166357
H	-1.33009	1.70769	1.34008
H	-1.23111	0.454865	-0.529679
C	4.8037	0.0663025	-0.289592
O	5.12431	0.70968	0.694542
O	3.65292	-0.688978	-0.326132
H	5.39306	0.031988	-1.21823
H	3.52648	-1.15	-1.18058
