20
  This energy is 0.00114984 and Call times are: 20198
C	0.573667	-1.07293	-3.29356
O	1.49034	-1.36818	-2.54671
O	-0.713883	-0.899243	-2.83736
H	0.690358	-0.921779	-4.37728
H	-1.34254	-0.664609	-3.55034
C	0.109965	1.87585	2.53279
O	0.318507	2.80653	3.30085
O	0.959289	1.56334	1.50717
H	-0.768249	1.21799	2.60014
H	0.654961	0.788322	0.977304
C	-1.0863	-1.29228	0.322861
O	-1.7511	-0.908762	1.26681
O	0.0961069	-0.653263	-0.0179391
H	-1.34036	-2.14005	-0.323693
H	0.563726	-1.03	-0.790189
C	7.28989	-0.24625	-0.289472
O	7.18176	0.856247	-0.797465
O	6.84163	-0.51085	0.98533
H	7.74611	-1.11142	-0.793705
H	6.99583	-1.43822	1.25884
