20
  This energy is 0.000155033 and Call times are: 8230
C	-2.1927	-2.10086	-1.76246
O	-2.04617	-2.45466	-0.605486
O	-2.02707	-0.790787	-2.15279
H	-2.46494	-2.78269	-2.58216
H	-2.17711	-0.656617	-3.11096
C	2.71587	1.04219	1.21812
O	3.89207	1.17311	1.53272
O	2.14205	-0.181399	1.00724
H	2.02664	1.88734	1.07941
H	1.18824	-0.122444	0.760689
C	-1.19403	1.21978	0.20174
O	-0.563066	2.23729	0.417723
O	-0.588751	-0.0239395	0.298515
H	-2.25315	1.18253	-0.0778269
H	-1.17242	-0.785447	0.107703
C	14.88	0.338151	0.183708
O	14.3722	0.740508	-0.848505
O	14.8114	-0.983071	0.565469
H	15.4276	0.981487	0.888758
H	15.264	-1.15815	1.41584
