20
  This energy is -0.000279517 and Call times are: 6738
C	2.72973	0.933475	-2.00124
O	2.50806	-0.263739	-2.05398
O	1.74227	1.84752	-1.70881
H	3.71867	1.38217	-2.17897
H	2.06756	2.77096	-1.70176
C	-1.55267	-1.02626	2.54596
O	-1.84275	-1.43112	3.66467
O	-0.355362	-1.3092	1.94822
H	-2.22196	-0.407106	1.93174
H	-0.270635	-0.912812	1.04837
C	-1.14586	0.574266	-1.1452
O	-2.16402	0.74923	-0.502681
O	-0.101425	-0.177043	-0.628236
H	-0.957948	0.972481	-2.1489
H	0.676747	-0.264505	-1.21455
C	5.92442	0.188046	-0.0637966
O	6.75126	1.08242	-0.0228288
O	6.27218	-1.13621	0.082725
H	4.84782	0.355181	-0.218392
H	5.50382	-1.7405	0.0274115
