20
  This energy is 0.000557235 and Call times are: 19388
C	2.87648	1.84457	-0.806977
O	2.87199	0.744985	-1.33246
O	1.71266	2.49449	-0.461722
H	3.79229	2.40515	-0.566229
H	1.87183	3.36791	-0.0489377
C	-1.83123	-2.04363	1.55438
O	-2.26465	-2.86763	2.34983
O	-0.509517	-1.97897	1.20826
H	-2.45981	-1.29263	1.05493
H	-0.316226	-1.26304	0.557027
C	-0.976863	0.874466	-1.11144
O	-2.11634	0.707721	-0.719185
O	0.0553387	0.0692446	-0.654564
H	-0.663712	1.64012	-1.83047
H	0.937315	0.275705	-1.02397
C	13.3185	0.321136	0.210799
O	13.2006	-0.662695	0.920309
O	13.9414	0.267156	-1.01605
H	12.9455	1.32037	0.481462
H	13.9614	1.13341	-1.47192
