20
  This energy is -0.0053309 and Call times are: 13072
C	1.38967	3.08068	-0.951865
O	1.14291	3.03555	0.240743
O	1.65302	1.94669	-1.68725
H	1.42346	4.01264	-1.536
H	1.83335	2.13736	-2.6305
C	-2.22887	-2.12992	0.664473
O	-3.29851	-2.70196	0.832378
O	-2.08103	-0.780731	0.834024
H	-1.30479	-2.64535	0.366189
H	-1.16038	-0.469314	0.662429
C	1.52441	-0.79352	-0.027464
O	1.2561	-1.97457	-0.142472
O	0.551162	0.121953	0.343016
H	2.51359	-0.352749	-0.196411
H	0.857323	1.0486	0.410513
C	6.25471	-0.125697	0.3233
O	5.49688	0.188506	-0.577928
O	7.62273	-0.0422578	0.190514
H	5.92049	-0.496664	1.30391
H	8.10196	-0.327738	0.995155
