20
  This energy is 0.00136193 and Call times are: 21636
C	-2.99004	0.355212	1.80591
O	-3.06033	-0.526445	0.967466
O	-1.79234	0.733351	2.37035
H	-3.85963	0.916655	2.17941
H	-1.89073	1.45275	3.02716
C	2.08459	0.417369	-2.32942
O	2.65219	0.786636	-3.34974
O	0.723269	0.320352	-2.23832
H	2.614	0.134908	-1.40828
H	0.417458	0.00874854	-1.35322
C	0.770629	-0.853252	1.27764
O	1.96094	-0.72335	1.0623
O	-0.163283	-0.569061	0.29295
H	0.334885	-1.19131	2.22481
H	-1.0963	-0.702183	0.555127
C	5.66756	-0.306565	-0.24173
O	5.18098	0.505532	-1.00919
O	5.61588	-0.143309	1.12456
H	6.18131	-1.22434	-0.565233
H	6.04764	-0.874188	1.61242
