20
  This energy is 0.000204906 and Call times are: 14995
C	-2.24468	-1.12759	2.45311
O	-2.79924	-0.473673	1.58703
O	-1.07845	-1.81914	2.21281
H	-2.61858	-1.22206	3.48373
H	-0.749798	-2.29786	3.00111
C	1.99877	1.94506	-1.47227
O	2.7089	2.89566	-1.77502
O	0.847106	2.08768	-0.74823
H	2.22274	0.906024	-1.753
H	0.385768	1.2306	-0.585121
C	0.0640063	-1.53556	-0.769556
O	1.10255	-1.52082	-1.40303
O	-0.480818	-0.360936	-0.273589
H	-0.519344	-2.43378	-0.536767
H	-1.31676	-0.468524	0.223004
C	6.45008	0.126888	-0.20481
O	7.36908	0.786287	-0.658557
O	6.64341	-0.815824	0.78007
H	5.40478	0.223774	-0.534756
H	5.81518	-1.26584	1.04489
