20
  This energy is 0.000451534 and Call times are: 8146
C	-0.661186	-3.09638	1.51759
O	-0.827643	-2.16317	2.28352
O	-0.786792	-2.95401	0.153761
H	-0.40091	-4.11559	1.84064
H	-0.624686	-3.78785	-0.333099
C	1.64457	2.54718	-0.867869
O	2.53159	3.3733	-1.04189
O	1.59393	1.74321	0.23756
H	0.82106	2.3818	-1.57713
H	0.820084	1.1307	0.233528
C	-1.50559	0.0120605	-0.829038
O	-1.34199	0.783002	-1.75584
O	-0.617084	-0.0162738	0.235063
H	-2.33079	-0.704187	-0.743419
H	-0.827677	-0.667219	0.93427
C	15.2017	-0.0973086	0.282805
O	14.294	0.414344	0.914777
O	15.1364	-0.268667	-1.08191
H	16.1359	-0.460789	0.736855
H	15.9378	-0.692565	-1.45168
