20
  This energy is -0.00178526 and Call times are: 3323
C	1.87505	-2.16914	-2.02652
O	1.45356	-2.72274	-1.02597
O	1.24119	-1.07979	-2.58115
H	2.78143	-2.48378	-2.56541
H	1.69378	-0.741721	-3.38082
C	-0.612588	2.05206	2.3151
O	-0.517462	2.81588	3.26752
O	0.201038	0.963504	2.16034
H	-1.35198	2.17359	1.51067
H	0.00120857	0.4459	1.34414
C	-1.38264	-0.108337	-1.0153
O	-2.03432	0.886064	-0.75727
O	-0.361264	-0.524571	-0.175
H	-1.52793	-0.746237	-1.89465
H	0.10822	-1.33351	-0.461653
C	6.28287	0.409936	-0.0746726
O	7.33035	-0.187552	-0.250869
O	5.12496	-0.237743	0.29387
H	6.17081	1.49833	-0.191909
H	4.36479	0.370365	0.398561
