20
  This energy is -0.00675201 and Call times are: 16495
C	-2.89781	-1.62489	-1.13589
O	-2.0191	-1.60655	-1.98015
O	-2.6183	-1.57121	0.211352
H	-3.97141	-1.68477	-1.36977
H	-3.42285	-1.59437	0.768816
C	2.04564	2.35254	0.476258
O	2.60161	3.44341	0.498209
O	1.20295	1.97597	-0.533182
H	2.1741	1.58963	1.2573
H	0.833793	1.06915	-0.40896
C	0.498615	-1.35574	0.931461
O	1.26393	-0.897713	1.75886
O	0.138481	-0.618427	-0.186232
H	0.0374765	-2.34879	0.981274
H	-0.480829	-1.06625	-0.796871
C	5.41114	0.151559	-0.396732
O	5.88638	-0.969571	-0.44627
O	4.9615	0.70347	0.781949
H	5.301	0.809845	-1.27162
H	4.60651	1.60879	0.667972
