20
  This energy is -0.013456 and Call times are: 12342
C	0.715264	1.99449	-2.79968
O	0.260488	0.907904	-3.11234
O	0.436982	2.58146	-1.58556
H	1.37555	2.59172	-3.4464
H	0.871205	3.45193	-1.47451
C	0.452178	-2.16114	2.25187
O	0.932001	-3.02205	2.97863
O	0.805184	-2.0271	0.937212
H	-0.295669	-1.42936	2.5892
H	0.332259	-1.28856	0.48453
C	-1.45245	0.852483	0.343391
O	-1.67481	0.623973	1.51746
O	-0.541679	0.0863554	-0.368019
H	-1.92516	1.6478	-0.244243
H	-0.427028	0.341989	-1.30529
C	3.49681	-0.0584732	0.298287
O	3.38206	1.14723	0.162809
O	2.74845	-0.951069	-0.43608
H	4.1945	-0.53222	1.00518
H	2.94848	-1.88479	-0.219824
