20
  This energy is -0.000201412 and Call times are: 9448
C	-2.51107	2.38335	0.584774
O	-1.88764	2.11343	1.59656
O	-1.95926	2.25411	-0.670168
H	-3.54962	2.74712	0.583414
H	-2.57724	2.50704	-1.38623
C	1.36368	-2.83821	-0.175619
O	1.58444	-4.04242	-0.148595
O	0.452628	-2.23811	0.649463
H	1.87293	-2.14261	-0.857805
H	0.388283	-1.26344	0.508444
C	1.05364	1.15819	-0.709015
O	1.82852	0.501864	-1.37901
O	0.258854	0.552797	0.252431
H	0.910513	2.24168	-0.791822
H	-0.333368	1.15796	0.742348
C	17.4806	0.215851	0.178554
O	18.2787	1.04935	-0.213315
O	17.6929	-1.13445	0.012154
H	16.538	0.462592	0.690036
H	16.9677	-1.68211	0.376524
