20
  This energy is -0.00506733 and Call times are: 5845
C	1.72606	2.95101	0.800032
O	1.1518	3.02955	-0.272019
O	1.29384	2.10987	1.80091
H	2.62314	3.53334	1.05898
H	1.85294	2.1535	2.60347
C	-0.519478	-2.83886	-1.27159
O	-0.401339	-3.90085	-1.86975
O	0.149314	-1.70552	-1.64461
H	-1.16615	-2.70563	-0.392589
H	-0.0501922	-0.931919	-1.06516
C	-1.29534	0.366249	1.06875
O	-1.82557	-0.705985	1.2907
O	-0.413141	0.515302	0.00946785
H	-1.45203	1.27974	1.65379
H	-0.0353012	1.41181	-0.0928649
C	6.3271	-0.410861	0.104641
O	5.71339	0.131378	1.00719
O	6.78906	0.288032	-0.988159
H	6.56226	-1.48562	0.0825625
H	7.26331	-0.278665	-1.63046
