20
  This energy is -0.00493726 and Call times are: 14868
C	1.5835	-1.10248	-2.9334
O	0.554071	-1.71454	-2.70779
O	1.78436	0.182193	-2.48027
H	2.42751	-1.51322	-3.50773
H	2.65644	0.54525	-2.73771
C	-0.779956	0.0873737	3.0545
O	-0.860825	-0.134261	4.25612
O	-0.49908	-0.892526	2.14246
H	-0.924474	1.08213	2.60937
H	-0.468243	-0.557963	1.21449
C	-0.637773	1.39923	-0.767892
O	-0.878679	2.16899	0.142891
O	-0.406242	0.055183	-0.517913
H	-0.58147	1.67452	-1.8273
H	-0.220893	-0.488271	-1.30992
C	5.28027	0.187846	0.311324
O	4.55057	-0.672112	-0.150474
O	6.55042	0.406343	-0.173486
H	4.99533	0.853205	1.14019
H	7.01814	1.12809	0.294413
