20
  This energy is 0.00188441 and Call times are: 21678
C	-0.306193	-1.41855	3.19715
O	-1.24739	-1.7005	2.47611
O	0.938374	-1.11785	2.69049
H	-0.365373	-1.37979	4.29529
H	1.59417	-0.91177	3.38767
C	-0.376644	2.09835	-2.324
O	-0.687111	3.08256	-2.98317
O	-1.14151	1.63405	-1.28945
H	0.533687	1.50904	-2.50448
H	-0.759484	0.833533	-0.856712
C	1.1401	-1.18134	-0.508797
O	1.72185	-0.666434	-1.44503
O	-0.0554855	-0.656875	-0.04181
H	1.48353	-2.06858	0.0354002
H	-0.451662	-1.13567	0.713682
C	7.13737	-0.285961	0.172463
O	6.42869	0.563055	-0.339574
O	8.51179	-0.214112	0.129128
H	6.75034	-1.16806	0.704453
H	8.94725	-0.965031	0.582008
