20
  This energy is -0.00456095 and Call times are: 14953
C	-2.22253	2.32822	1.4027
O	-1.55046	1.76519	2.24921
O	-1.78461	2.48448	0.106597
H	-3.21918	2.7535	1.59434
H	-2.42986	2.95525	-0.459652
C	1.07274	-2.78929	-1.00747
O	1.18063	-3.9731	-1.30164
O	0.289142	-2.35617	0.026586
H	1.59058	-1.98082	-1.543
H	0.306031	-1.37575	0.138538
C	1.0996	1.22248	-0.50068
O	1.75481	0.705281	-1.38572
O	0.32857	0.450115	0.354612
H	1.05307	2.29858	-0.297867
H	-0.164172	0.950898	1.03534
C	4.78499	0.303184	-0.274485
O	4.16338	0.518087	0.75151
O	5.6605	-0.753204	-0.391048
H	4.70397	0.921451	-1.18117
H	6.08648	-0.799935	-1.27137
