20
  This energy is 0.000152489 and Call times are: 18422
C	1.70101	2.10859	2.23343
O	2.37446	1.83428	1.25544
O	0.324516	2.10624	2.19712
H	2.12395	2.37724	3.21315
H	-0.079895	2.34606	3.05592
C	-0.932814	-2.68856	-1.35919
O	-1.10019	-3.86754	-1.64481
O	0.225403	-2.22405	-0.799137
H	-1.69051	-1.90975	-1.52627
H	0.207966	-1.25227	-0.627793
C	-0.945587	1.28908	-0.631178
O	-1.91463	0.746999	-1.12836
O	0.185298	0.557302	-0.302309
H	-0.869821	2.35842	-0.402987
H	0.914881	1.0759	0.0923226
C	13.5209	0.276073	0.162381
O	13.6643	-0.597008	1.00048
O	14.1934	0.253671	-1.03897
H	12.8547	1.14285	0.288002
H	13.9785	1.01901	-1.61052
