20
  This energy is 0.000147545 and Call times are: 8314
C	-2.75027	1.89285	-1.08671
O	-1.71758	2.53999	-1.08496
O	-2.75435	0.523176	-1.22829
H	-3.75156	2.33603	-0.977538
H	-3.65552	0.140824	-1.21093
C	2.13562	-1.19038	1.992
O	2.78573	-1.47333	2.99043
O	1.48775	0.00586147	1.84997
H	2.01754	-1.86577	1.13264
H	1.008	0.0847555	0.99111
C	0.148386	-0.809275	-1.50908
O	0.767569	-1.82532	-1.25541
O	0.108861	0.241388	-0.605139
H	-0.414281	-0.628164	-2.43206
H	-0.412578	1.0173	-0.893293
C	18.3692	-0.399282	-0.0629934
O	18.0153	-0.0980535	1.06362
O	19.0545	0.478347	-0.873131
H	18.1769	-1.37959	-0.524387
H	19.2721	0.0982478	-1.74879
