20
  This energy is -0.00731248 and Call times are: 21425
C	1.41586	1.66946	2.74518
O	1.2643	0.479126	2.95817
O	1.57934	2.16933	1.47259
H	1.43526	2.43583	3.53462
H	1.68987	3.14202	1.45638
C	-2.24158	-1.25093	-1.83205
O	-3.31368	-1.61021	-2.30226
O	-2.03338	-1.12469	-0.486087
H	-1.3631	-1.00142	-2.44409
H	-1.11914	-0.826735	-0.263786
C	1.48851	-0.0297613	-0.858903
O	1.17058	-0.182774	-2.0232
O	0.580879	-0.269863	0.161449
H	2.47576	0.297444	-0.513116
H	0.923779	-0.120804	1.06542
C	5.26204	-0.24556	0.22699
O	4.90161	0.648951	0.972098
O	4.82913	-0.329301	-1.07748
H	5.95166	-1.05006	0.523817
H	5.2016	-1.09919	-1.55407
