20
  This energy is 0.00020942 and Call times are: 18632
C	-2.31894	1.51659	-2.15645
O	-2.31026	0.303146	-2.26927
O	-1.94689	2.14485	-0.989
H	-2.61876	2.20487	-2.96099
H	-2.00409	3.12058	-1.04623
C	2.73244	-1.25448	0.951827
O	3.88823	-1.65522	1.00775
O	2.01461	-1.23778	-0.212362
H	2.17758	-0.877508	1.8228
H	1.09925	-0.887715	-0.0957558
C	-1.02814	0.173087	1.36646
O	-0.282388	0.103838	2.32518
O	-0.607435	-0.23507	0.109892
H	-2.05815	0.546651	1.39511
H	-1.27343	-0.143383	-0.600748
C	19.6924	0.0199595	0.161487
O	18.9889	0.698326	0.889591
O	19.188	-0.633481	-0.940616
H	20.7718	-0.128143	0.316371
H	19.8696	-1.13864	-1.42936
