20
  This energy is -0.000130149 and Call times are: 7894
C	2.74271	-1.96442	0.972825
O	2.25389	-2.34368	-0.0771571
O	2.64379	-0.657589	1.39528
H	3.29565	-2.61897	1.66329
H	3.08381	-0.500767	2.25574
C	-3.01132	0.890949	-0.28997
O	-4.23154	0.960256	-0.213608
O	-2.33911	-0.300158	-0.272546
H	-2.35744	1.77028	-0.378175
H	-1.36068	-0.191591	-0.342616
C	1.00454	1.27209	-0.57179
O	0.287039	2.25457	-0.575806
O	0.463645	-0.000595522	-0.470473
H	2.09804	1.29016	-0.644086
H	1.11542	-0.730071	-0.475312
C	15.2295	0.198586	-0.260536
O	15.0866	0.711873	0.835528
O	16.1291	-0.820825	-0.478606
H	14.664	0.49766	-1.15589
H	16.1339	-1.13303	-1.40657
