20
  This energy is 0.00311447 and Call times are: 7264
C	-2.48537	-2.4558	-0.346056
O	-2.92277	-1.4213	0.126963
O	-1.37613	-2.47499	-1.16171
H	-2.92862	-3.44702	-0.167387
H	-1.14218	-3.37572	-1.46592
C	2.25728	1.71076	1.38705
O	3.06997	2.16408	2.18304
O	1.08188	1.13409	1.78303
H	2.40023	1.72773	0.297171
H	0.533652	0.81747	1.02592
C	-0.0324302	0.390796	-1.67347
O	1.03968	0.924689	-1.88707
O	-0.494748	0.22194	-0.377198
H	-0.709995	0.00705474	-2.44479
H	-1.3658	-0.216753	-0.301151
C	6.75601	0.212694	-0.275171
O	6.44033	0.604846	0.834698
O	7.73163	-0.740598	-0.463503
H	6.29901	0.577813	-1.20724
H	7.87712	-0.955851	-1.40749
