20
  This energy is -0.00383447 and Call times are: 6433
C	-1.78288	2.8576	-0.991612
O	-0.618272	3.1077	-0.733961
O	-2.1869	1.61015	-1.41199
H	-2.59927	3.59124	-0.913011
H	-3.14991	1.55817	-1.58088
C	1.26463	-2.13826	1.9428
O	1.60373	-2.77645	2.93138
O	1.05735	-0.786619	1.97461
H	1.09919	-2.59123	0.954868
H	0.788706	-0.417208	1.09974
C	0.158568	-0.566473	-1.615
O	0.374994	-1.75856	-1.50462
O	0.285535	0.281187	-0.525086
H	-0.144147	-0.0641403	-2.54091
H	0.0919037	1.22269	-0.706874
C	4.1736	0.271912	0.235155
O	5.24731	0.810548	0.029554
O	3.87751	-0.979585	-0.256935
H	3.3611	0.728087	0.820519
H	2.97948	-1.28296	-0.0117634
