20
  This energy is -0.00406926 and Call times are: 14388
C	2.23953	-0.331652	-2.68372
O	2.6033	-0.953478	-1.70074
O	0.912594	-0.050724	-2.92121
H	2.92487	0.0531833	-3.45386
H	0.771971	0.454764	-3.74783
C	-1.23918	1.16195	2.65711
O	-1.4609	1.82916	3.65972
O	0.023297	0.962133	2.17016
H	-2.02684	0.67108	2.06786
H	0.0387508	0.402931	1.35709
C	-1.11211	-1.12174	-0.677627
O	-2.17391	-0.866704	-0.141317
O	0.0787736	-0.636164	-0.159378
H	-0.992729	-1.73109	-1.58081
H	0.882088	-0.89162	-0.655763
C	5.76958	-0.210902	0.163801
O	5.44765	0.100586	-0.969593
O	6.99799	0.118713	0.691466
H	5.12069	-0.772019	0.853005
H	7.11522	-0.197236	1.61073
