20
  This energy is -0.00403841 and Call times are: 22672
C	-2.50207	-0.903801	2.29141
O	-2.94995	-0.702554	1.176
O	-1.20054	-1.3045	2.49516
H	-3.08571	-0.785747	3.2168
H	-0.983086	-1.42677	3.44193
C	1.87447	1.87905	-1.70336
O	2.43722	2.84997	-2.19345
O	0.578076	1.92113	-1.26922
H	2.357	0.900134	-1.57122
H	0.267157	1.06033	-0.899936
C	0.543913	-1.6209	-0.176339
O	1.68041	-1.52137	-0.598895
O	-0.321696	-0.538178	-0.207815
H	0.108284	-2.53102	0.251681
H	-1.21465	-0.710194	0.152754
C	5.19461	0.0197631	-0.125539
O	5.24031	-0.828709	0.748103
O	6.31434	0.709085	-0.534339
H	4.27325	0.305226	-0.655175
H	6.12507	1.35799	-1.24265
