20
  This energy is 0.000253159 and Call times are: 8608
C	-3.31286	0.691045	-0.935537
O	-3.21064	-0.377297	-0.358096
O	-2.4235	1.72175	-0.728767
H	-4.10878	0.923023	-1.65914
H	-2.63139	2.5171	-1.26056
C	2.9185	-1.17757	-0.204012
O	3.93627	-1.74352	-0.582694
O	1.66685	-1.59214	-0.567894
H	2.92236	-0.296892	0.453992
H	0.949106	-1.03512	-0.18243
C	-0.0659166	1.06938	1.344
O	1.09692	1.32971	1.58923
O	-0.395896	-0.00254893	0.528745
H	-0.929924	1.62722	1.72294
H	-1.35452	-0.136384	0.386988
C	19.9644	0.12894	-0.369929
O	18.8076	0.512212	-0.358455
O	20.511	-0.576908	0.678429
H	20.6615	0.308914	-1.2021
H	21.4482	-0.817416	0.52856
