20
  This energy is 0.000927831 and Call times are: 3948
C	1.34806	3.04964	1.10009
O	1.40853	2.18398	1.95578
O	1.32389	2.74898	-0.243447
H	1.30817	4.12713	1.31995
H	1.27431	3.54497	-0.811384
C	-2.15285	-2.25969	-0.452726
O	-3.1878	-2.91405	-0.468934
O	-1.85815	-1.3729	0.546106
H	-1.3793	-2.3274	-1.23093
H	-0.988873	-0.923401	0.418342
C	1.39834	-0.383577	-0.922911
O	1.01494	-1.19847	-1.74085
O	0.628063	-0.0784886	0.188912
H	2.34483	0.166419	-0.977356
H	1.01533	0.587294	0.79201
C	7.86774	0.278631	-0.319083
O	7.43931	-0.779604	-0.745503
O	8.33667	0.411673	0.968734
H	7.91723	1.20377	-0.912855
H	8.64821	1.31795	1.16928
