20
  This energy is -0.00386738 and Call times are: 17436
C	2.83472	-0.578463	-1.98935
O	2.74046	-1.38132	-1.07733
O	1.73448	0.0559514	-2.52137
H	3.78807	-0.294371	-2.45982
H	1.96356	0.672354	-3.24675
C	-1.72441	1.12457	2.38907
O	-2.09905	1.70609	3.39954
O	-0.44441	0.667906	2.23433
H	-2.37709	0.921311	1.5281
H	-0.296964	0.220689	1.36699
C	-1.05849	-0.716409	-1.14918
O	-2.15583	-0.263418	-0.883192
O	-0.010753	-0.612545	-0.246951
H	-0.797346	-1.22781	-2.08275
H	0.834247	-1.00484	-0.545368
C	5.74227	-0.303667	-0.260836
O	6.20027	0.746092	-0.677356
O	4.93258	-0.357625	0.851622
H	5.93088	-1.2825	-0.726904
H	4.64068	-1.26705	1.06691
