20
  This energy is -0.000334967 and Call times are: 18380
C	1.45744	-3.19256	-0.105979
O	2.28406	-2.31451	0.0700483
O	0.142253	-3.04522	0.274335
H	1.68338	-4.16201	-0.575039
H	-0.404078	-3.83156	0.0698953
C	-1.00846	2.79802	-1.04881
O	-1.28892	3.76097	-1.75141
O	0.0502289	1.97453	-1.31702
H	-1.57692	2.51492	-0.151441
H	0.146596	1.2443	-0.660128
C	-0.563755	-0.216809	1.60917
O	-1.46704	0.588931	1.73147
O	0.334003	-0.121327	0.556806
H	-0.375456	-1.05952	2.2842
H	1.02675	-0.811788	0.538404
C	11.9119	0.375395	-0.198566
O	12.9372	0.303128	0.456177
O	10.9766	-0.635161	-0.205992
H	11.647	1.2371	-0.829611
H	10.206	-0.437252	-0.776701
