20
  This energy is -0.000565674 and Call times are: 11528
C	3.47335	0.292113	0.422272
O	3.18158	-0.267351	-0.620375
O	2.62481	1.18796	1.03343
H	4.42168	0.134725	0.957819
H	2.99277	1.55696	1.86232
C	-2.86819	-1.30545	0.123376
O	-3.81018	-2.06201	0.322972
O	-1.5948	-1.75614	-0.0916903
H	-2.96313	-0.210453	0.0999748
H	-0.946941	-1.02597	-0.237137
C	-0.16654	1.64285	-0.477058
O	-1.33674	1.90656	-0.274158
O	0.268862	0.326761	-0.5072
H	0.625196	2.38116	-0.648348
H	1.22519	0.209854	-0.676729
C	9.56698	-0.386324	-0.116402
O	9.86049	-0.46768	1.06363
O	9.68956	0.790548	-0.820684
H	9.18548	-1.22885	-0.712655
H	9.41693	0.704593	-1.75711
