20
  This energy is 0.000189255 and Call times are: 11276
C	-2.39808	2.51236	-0.514841
O	-1.54161	2.84986	0.283785
O	-2.15493	1.57719	-1.49586
H	-3.42158	2.91645	-0.523379
H	-2.93521	1.40724	-2.06233
C	1.40064	-2.48305	1.34854
O	1.67172	-3.43263	2.07269
O	0.687109	-1.40211	1.78824
H	1.70387	-2.41763	0.293866
H	0.550392	-0.719932	1.08826
C	0.805851	0.346904	-1.47801
O	1.42637	-0.666948	-1.73714
O	0.287987	0.556509	-0.20898
H	0.601931	1.15895	-2.18533
H	-0.195858	1.39866	-0.0921409
C	18.5287	-0.302647	-0.191273
O	17.397	-0.743288	-0.0893196
O	18.8691	0.950644	0.266375
H	19.3629	-0.855545	-0.648846
H	19.8119	1.16821	0.116306
