20
  This energy is -0.0127507 and Call times are: 12094
C	-3.39228	0.341803	0.83868
O	-3.05901	1.10388	-0.0520527
O	-2.74182	-0.851234	1.06146
H	-4.22587	0.534854	1.53062
H	-3.11959	-1.35751	1.8095
C	3.10073	0.57449	0.0366471
O	4.21247	1.02312	0.286333
O	1.96333	1.32749	0.137609
H	2.92228	-0.460954	-0.286744
H	1.14665	0.825444	-0.0969197
C	-0.280756	-1.43071	-0.910222
O	0.801775	-1.98378	-0.95854
O	-0.381441	-0.101191	-0.529693
H	-1.24055	-1.90237	-1.1503
H	-1.29058	0.259825	-0.519598
C	7.78991	0.397075	-0.121398
O	8.80676	-0.0431478	0.386022
O	6.63877	-0.352053	-0.220111
H	7.70235	1.41195	-0.537654
H	5.90445	0.13227	-0.650005
