20
  This energy is -5.0553e-05 and Call times are: 17688
C	-2.43495	-2.28694	-1.08107
O	-2.63743	-1.16306	-1.50666
O	-1.17304	-2.72629	-0.74847
H	-3.22625	-3.03607	-0.927574
H	-1.16457	-3.64902	-0.421219
C	1.35505	2.20607	1.80084
O	1.59896	3.01995	2.6827
O	0.0802823	1.9171	1.39789
H	2.13086	1.64323	1.26242
H	0.0470919	1.24205	0.678705
C	1.15483	-0.557348	-1.14455
O	2.22978	-0.208752	-0.693919
O	-0.0263068	-0.0165161	-0.659808
H	1.01553	-1.29797	-1.94038
H	-0.841543	-0.355661	-1.08093
C	7.64023	0.33008	-0.2145
O	8.13533	0.789689	0.799836
O	7.66214	-1.01838	-0.492444
H	7.14148	0.939056	-0.983465
H	7.2269	-1.23982	-1.34105
