20
  This energy is 0.000301914 and Call times are: 15583
C	2.16206	2.22542	1.64342
O	1.59014	2.7488	0.70309
O	1.62329	1.156	2.32324
H	3.14029	2.55383	2.02567
H	2.19455	0.841653	3.05362
C	-0.959534	-2.1215	-2.12708
O	-1.01144	-2.91504	-3.05829
O	-0.133559	-1.03126	-2.13413
H	-1.56556	-2.21541	-1.21467
H	-0.205739	-0.487734	-1.31352
C	-1.20936	0.14451	1.21278
O	-1.89143	-0.855367	1.08988
O	-0.330751	0.530953	0.212142
H	-1.21809	0.810073	2.08355
H	0.176052	1.34695	0.397282
C	13.1193	0.131821	0.134948
O	13.2538	-1.00572	0.55109
O	14.0903	0.754633	-0.616984
H	12.2282	0.750543	0.31904
H	13.8434	1.66482	-0.880045
