20
  This energy is -0.00358848 and Call times are: 3654
C	2.41135	-2.55034	-0.0947012
O	2.54154	-1.82932	0.879165
O	1.19592	-2.72454	-0.717978
H	3.23655	-3.11525	-0.553857
H	1.24437	-3.33088	-1.48519
C	-1.27402	2.84786	-0.460977
O	-1.47122	4.01022	-0.792038
O	-0.0278398	2.3681	-0.164726
H	-2.07261	2.09733	-0.374093
H	-0.0317375	1.41327	0.0848811
C	-1.22599	-1.06261	0.567505
O	-2.27116	-0.510236	0.28014
O	-0.0273392	-0.36586	0.549282
H	-1.12834	-2.11548	0.856003
H	0.761251	-0.890324	0.794299
C	6.11197	0.259856	0.324369
O	7.16227	-0.291381	0.604093
O	5.44056	0.000930747	-0.849616
H	5.61615	0.998813	0.971683
H	4.61303	0.516792	-0.937255
