20
  This energy is 0.00258462 and Call times are: 20366
C	1.08421	-2.3623	-2.36047
O	1.61776	-1.27766	-2.51579
O	0.612345	-2.77599	-1.1348
H	0.934758	-3.09334	-3.16927
H	0.209402	-3.66788	-1.16268
C	-1.71605	2.34576	1.22412
O	-2.54385	3.23032	1.40268
O	-1.23425	2.02785	-0.0159203
H	-1.29294	1.73712	2.03597
H	-0.573864	1.29469	0.00350149
C	0.993984	-0.655454	1.23961
O	0.486431	-0.273479	2.27719
O	0.656005	-0.0719928	0.0280401
H	1.73381	-1.46009	1.15895
H	1.11348	-0.442876	-0.75307
C	6.47669	0.0642232	-0.268028
O	7.10471	1.10812	-0.234544
O	6.84967	-1.0372	0.469422
H	5.57374	-0.0885999	-0.878125
H	6.25156	-1.80177	0.341814
