20
  This energy is -0.00325394 and Call times are: 2681
C	-1.52309	-2.94945	1.14401
O	-0.414088	-3.15322	0.681575
O	-1.87754	-1.73367	1.68467
H	-2.32422	-3.70338	1.1704
H	-2.7986	-1.71793	2.01632
C	0.86666	2.25575	-2.02643
O	1.01791	2.94516	-3.02713
O	0.687455	0.901037	-2.08599
H	0.861829	2.66128	-1.00463
H	0.580193	0.486982	-1.19657
C	0.41865	0.502094	1.58962
O	0.586225	1.70376	1.50018
O	0.377084	-0.294439	0.455439
H	0.289512	-0.0478918	2.52884
H	0.238493	-1.2482	0.623056
C	4.44671	-0.391056	-0.159322
O	5.57079	0.0214183	0.0677517
O	3.32492	0.365243	0.0969184
H	4.23186	-1.38456	-0.580868
H	2.49305	-0.0958046	-0.135542
