20
  This energy is -0.000621829 and Call times are: 15625
C	-1.84939	-1.75571	-2.41351
O	-0.846814	-2.35905	-2.07282
O	-2.47625	-0.85263	-1.58432
H	-2.33366	-1.87609	-3.39428
H	-3.26804	-0.44628	-1.99242
C	2.19888	1.93225	1.17356
O	3.12237	2.72636	1.30053
O	2.12571	1.04871	0.131975
H	1.35777	1.8613	1.87788
H	1.32336	0.475201	0.168709
C	-1.07098	-0.444891	1.26859
O	-0.883591	0.38619	2.13709
O	-0.169297	-0.597025	0.226298
H	-1.92898	-1.12532	1.22223
H	-0.401068	-1.28896	-0.425219
C	11.4345	-0.395079	-0.152367
O	12.5623	0.0666233	-0.143035
O	10.3444	0.329456	0.275384
H	11.1911	-1.41159	-0.496434
H	9.50505	-0.170339	0.210171
