20
  This energy is -0.00333362 and Call times are: 17772
C	-0.564881	2.90518	-1.88909
O	-1.60358	2.39563	-1.50607
O	0.623026	2.74056	-1.21244
H	-0.484845	3.52973	-2.79155
H	1.37153	3.20744	-1.63714
C	0.350158	-3.07276	0.617628
O	0.440612	-4.29027	0.522539
O	-0.427676	-2.32451	-0.222614
H	0.880388	-2.48195	1.37814
H	-0.396836	-1.3593	-0.0190369
C	0.43785	0.893283	1.40164
O	1.08544	0.114028	2.07505
O	-0.344918	0.441238	0.350216
H	0.407621	1.97898	1.54875
H	-0.830316	1.13814	-0.135254
C	4.17639	0.129444	-0.364172
O	3.15368	0.778665	-0.230683
O	4.57074	-0.811633	0.560455
H	4.86234	0.23495	-1.21813
H	5.41113	-1.25298	0.320552
