20
  This energy is -0.00665433 and Call times are: 13793
C	3.28436	-0.259761	1.21379
O	3.24836	-0.164068	-0.00061931
O	2.28871	0.249727	2.01701
H	4.09912	-0.751843	1.766
H	2.45296	0.0982011	2.97025
C	-2.77279	-0.935089	-1.17607
O	-3.70511	-1.60347	-1.60459
O	-1.46636	-1.30958	-1.33064
H	-2.90343	0.0134506	-0.635906
H	-0.831645	-0.667693	-0.93172
C	-0.123466	1.65655	0.441436
O	-1.31925	1.87036	0.508272
O	0.35956	0.520517	-0.189975
H	0.656872	2.30701	0.852849
H	1.33372	0.431339	-0.195524
C	6.63929	-0.250899	-0.302843
O	6.86223	-0.971387	0.654468
O	6.90313	1.10034	-0.277891
H	6.21582	-0.608297	-1.25355
H	6.67328	1.54919	-1.11712
