20
  This energy is -0.00478307 and Call times are: 21594
C	1.71016	-1.99306	-2.33042
O	2.4208	-1.12183	-1.86011
O	0.628525	-2.50218	-1.6471
H	1.86601	-2.44179	-3.32303
H	0.152303	-3.19499	-2.14892
C	-1.68298	2.42739	1.1051
O	-2.33	3.46196	1.20814
O	-0.706652	2.2606	0.161779
H	-1.82903	1.55254	1.75462
H	-0.275844	1.37375	0.205628
C	0.118211	-1.19075	1.23386
O	-0.768361	-0.911607	2.01881
O	0.532063	-0.276459	0.277112
H	0.654739	-2.14599	1.20299
H	1.24983	-0.587004	-0.310544
C	5.53649	0.251814	0.300575
O	6.62162	-0.115509	0.716287
O	5.05042	-0.145775	-0.924874
H	4.86166	0.920472	0.855918
H	4.16775	0.227994	-1.12439
