20
  This energy is -0.000341509 and Call times are: 11486
C	2.31094	1.1781	2.36631
O	1.47426	0.445462	2.86477
O	2.66675	1.0849	1.03937
H	2.84611	1.96372	2.92066
H	3.34985	1.73705	0.781147
C	-2.64657	-0.105807	-1.71184
O	-3.7402	0.138262	-2.20577
O	-2.32094	0.250031	-0.431901
H	-1.84045	-0.626333	-2.24831
H	-1.4047	-0.0158156	-0.179219
C	1.09924	-1.1673	-0.619144
O	0.682214	-1.42456	-1.73269
O	0.301533	-0.504629	0.30123
H	2.09863	-1.41987	-0.246689
H	0.719478	-0.340325	1.17031
C	11.4671	-0.131317	-0.228897
O	11.3493	1.07654	-0.117248
O	12.5232	-0.817384	0.327878
H	10.7545	-0.768901	-0.773529
H	12.4851	-1.78053	0.156121
