20
  This energy is -0.000111278 and Call times are: 15079
C	-3.41467	-0.32875	-0.748167
O	-2.71836	-1.03862	-1.45278
O	-3.01744	0.0677147	0.509249
H	-4.40305	0.051241	-1.04753
H	-3.67843	0.634664	0.956761
C	2.95567	1.07996	-0.208806
O	3.96452	1.69625	-0.528152
O	1.94427	0.815782	-1.09094
H	2.77725	0.689835	0.803389
H	1.20034	0.310557	-0.684309
C	-0.124159	-0.98728	1.40147
O	0.841365	-0.686714	2.07787
O	-0.192157	-0.628743	0.0637912
H	-0.996662	-1.54456	1.76129
H	-1.00478	-0.912495	-0.40107
C	10.2756	-0.415189	-0.0866904
O	10.3435	-0.323343	1.12666
O	10.2857	0.692015	-0.905268
H	10.2018	-1.37162	-0.625836
H	10.2251	0.464119	-1.85553
