20
  This energy is -0.000861576 and Call times are: 2388
C	0.331502	-2.40044	-2.54083
O	1.35895	-1.76833	-2.3675
O	-0.595083	-2.57865	-1.53796
H	0.0577669	-2.87572	-3.49481
H	-1.36861	-3.10681	-1.82308
C	-0.551041	2.80798	1.32571
O	-0.830547	3.9844	1.51935
O	0.0177636	2.36839	0.162045
H	-0.731016	2.01185	2.06216
H	0.183161	1.39543	0.157418
C	0.148799	-1.17395	1.24658
O	-0.354096	-0.652469	2.22394
O	0.493679	-0.4168	0.13737
H	0.370184	-2.24272	1.14644
H	0.891927	-0.919982	-0.600991
C	4.30164	-0.300784	0.0316578
O	5.21029	-0.788478	-0.617767
O	4.35654	0.98854	0.511969
H	3.37482	-0.836134	0.287194
H	3.5558	1.24239	1.01495
