20
  This energy is 0.00198354 and Call times are: 13751
C	-2.24741	-1.74092	2.06062
O	-2.712	-0.688555	1.65822
O	-1.27588	-2.42471	1.36447
H	-2.55635	-2.22904	2.99721
H	-0.999805	-3.25239	1.80869
C	2.25361	2.05633	-0.799162
O	3.12565	2.91574	-0.776146
O	1.21487	2.03757	0.0905398
H	2.23015	1.23436	-1.52881
H	0.594914	1.28391	-0.0566324
C	-0.320792	-1.01281	-1.35114
O	0.647856	-0.878698	-2.07489
O	-0.565332	-0.117923	-0.320632
H	-1.06329	-1.81473	-1.43434
H	-1.36635	-0.303994	0.209194
C	9.31981	0.0542917	-0.0361077
O	8.80462	0.879575	-0.770094
O	8.57154	-0.826531	0.71243
H	10.4069	-0.0586434	0.0916207
H	9.1212	-1.42965	1.25347
