20
  This energy is -0.000682851 and Call times are: 19430
C	-0.858575	-3.11411	-1.37585
O	-1.23989	-2.1848	-2.06594
O	0.228753	-3.00449	-0.538133
H	-1.33921	-4.10389	-1.36066
H	0.416651	-3.83056	-0.0473128
C	-0.322229	2.65583	1.66992
O	-0.746425	3.54718	2.39458
O	-1.14529	1.86853	0.912546
H	0.745106	2.4137	1.56631
H	-0.654649	1.19621	0.382184
C	1.63212	-0.121687	-0.525018
O	2.2459	0.644635	0.193394
O	0.249374	-0.0616447	-0.608542
H	2.08571	-0.900028	-1.1493
H	-0.158765	-0.715832	-1.21057
C	11.1666	0.279412	-0.218972
O	11.227	-0.726314	-0.904619
O	11.7813	0.36406	1.01029
H	10.6265	1.19138	-0.514733
H	11.6466	1.23094	1.44499
