20
  This energy is -0.00654406 and Call times are: 21382
C	-0.521155	-1.24519	-3.24125
O	0.640209	-1.35262	-2.88779
O	-1.56002	-1.21187	-2.33807
H	-0.837228	-1.16679	-4.29237
H	-2.4355	-1.12251	-2.76718
C	0.742158	2.06998	2.2606
O	1.0714	3.07879	2.87173
O	1.19115	1.79456	0.998277
H	0.0646371	1.30656	2.66892
H	0.837668	0.945536	0.640174
C	-0.675204	-1.39771	0.738083
O	-0.996255	-1.03367	1.85365
O	0.18323	-0.633504	-0.0375727
H	-1.0143	-2.32109	0.254687
H	0.385806	-1.00387	-0.920047
C	3.67942	-0.24881	0.322561
O	3.66441	-0.950509	-0.673751
O	4.03761	1.07993	0.275475
H	3.41351	-0.606868	1.32854
H	4.00294	1.51539	1.15171
