20
  This energy is 0.000384349 and Call times are: 18086
C	-0.114797	3.37736	-0.952914
O	-1.18442	2.98402	-0.521133
O	1.08005	2.80516	-0.577434
H	-0.0101257	4.20808	-1.66696
H	1.85462	3.22494	-1.00454
C	-0.297174	-3.12929	-0.255198
O	-0.505833	-4.26256	-0.669626
O	-0.982333	-2.03901	-0.716438
H	0.450657	-2.89243	0.515004
H	-0.701346	-1.19668	-0.285678
C	0.812933	0.354233	1.47239
O	1.34357	-0.692788	1.79217
O	-0.183962	0.378702	0.508974
H	1.05574	1.33742	1.89152
H	-0.552918	1.26392	0.316028
C	6.77031	0.318588	0.223577
O	5.62095	0.204988	0.612561
O	7.29339	-0.493097	-0.758068
H	7.47864	1.06475	0.613984
H	8.2272	-0.285625	-0.966772
