20
  This energy is 0.000255474 and Call times are: 12617
C	1.32741	0.0369926	-3.25029
O	1.76022	0.947575	-2.56564
O	0.880622	-1.14322	-2.69934
H	1.25631	0.0755498	-4.34773
H	0.562299	-1.78087	-3.37066
C	-1.94082	0.711489	2.38179
O	-2.84906	1.1678	3.06476
O	-1.41628	1.38219	1.31132
H	-1.47336	-0.266007	2.56767
H	-0.691181	0.885154	0.86274
C	1.03485	-1.27787	0.500387
O	0.481259	-1.7626	1.46923
O	0.659452	-0.033248	0.0181543
H	1.8469	-1.75102	-0.0635327
H	1.15897	0.27674	-0.763743
C	4.58681	-0.0301905	0.0940961
O	5.17766	-0.679108	0.939704
O	5.24963	0.626636	-0.918482
H	3.49302	0.0866159	0.0645746
H	4.6453	1.10563	-1.52177
