20
  This energy is 0.000104735 and Call times are: 18674
C	-2.12308	-2.38282	-1.46372
O	-1.93184	-1.42601	-2.19392
O	-1.21067	-2.76534	-0.50599
H	-3.02365	-3.01394	-1.50351
H	-1.49937	-3.54977	0.00383616
C	0.845861	2.57046	1.61962
O	0.839028	3.59537	2.28976
O	-0.175422	2.23785	0.772717
H	1.66434	1.83682	1.64028
H	-0.0238212	1.38315	0.303104
C	1.40954	-0.925607	-0.332717
O	2.24296	-0.512312	0.451306
O	0.247569	-0.209093	-0.575588
H	1.48682	-1.86033	-0.89983
H	-0.364541	-0.617296	-1.22031
C	20.9387	-0.105689	-0.317912
O	20.967	1.11237	-0.290053
O	21.6614	-0.874052	0.567211
H	20.3453	-0.688746	-1.03819
H	21.5403	-1.83513	0.424814
