20
  This energy is 0.000465121 and Call times are: 18212
C	-0.378496	0.552514	3.44663
O	-1.42499	0.697899	2.83921
O	0.627586	-0.265926	2.984
H	-0.148488	1.05205	4.39977
H	1.40715	-0.28369	3.5761
C	0.48496	0.678456	-3.04145
O	0.710129	1.25497	-4.0981
O	-0.141303	1.28797	-1.98922
H	0.763523	-0.367446	-2.84894
H	-0.250676	0.693563	-1.209
C	0.0101043	-1.70846	0.187943
O	0.552441	-2.12686	-0.817494
O	-0.457668	-0.404712	0.251117
H	-0.156516	-2.28947	1.10225
H	-0.879388	-0.155746	1.09796
C	11.9247	-0.149109	0.132003
O	11.6869	0.87276	-0.488057
O	13.2075	-0.620772	0.299392
H	11.1514	-0.77369	0.604039
H	13.2441	-1.45012	0.818484
