20
  This energy is -0.00680786 and Call times are: 4742
C	0.493922	2.33378	-2.57629
O	1.33238	2.43352	-1.6975
O	-0.158915	1.14881	-2.83264
H	0.189623	3.16478	-3.23033
H	-0.803951	1.2198	-3.56578
C	-1.02593	-1.1597	2.74745
O	-1.56633	-1.30318	3.83692
O	-0.578199	0.0535163	2.30188
H	-0.855615	-1.98439	2.04073
H	-0.165904	0.00701089	1.40641
C	0.672449	-1.28663	-0.920146
O	0.232435	-2.29748	-0.405696
O	0.602322	-0.0679667	-0.262487
H	1.14605	-1.23686	-1.90732
H	0.980888	0.689916	-0.751642
C	3.79787	-0.390901	0.131366
O	3.67189	-0.394482	-1.08081
O	4.20083	0.730697	0.821086
H	3.60485	-1.26579	0.770284
H	4.25708	0.584207	1.78751
