20
  This energy is 0.000245238 and Call times are: 18296
C	-1.09333	2.78307	1.84036
O	-1.69955	2.65807	0.790544
O	-0.518667	1.71044	2.4848
H	-0.953719	3.74467	2.35683
H	-0.0659936	1.96267	3.3155
C	1.64951	-1.64324	-2.12715
O	2.43304	-1.97876	-3.0064
O	1.10759	-0.388984	-2.06343
H	1.31731	-2.31355	-1.32161
H	0.494727	-0.272327	-1.2987
C	-0.870135	-1.10382	0.989295
O	-0.319591	-2.17474	0.815714
O	-0.64732	-0.0434722	0.124093
H	-1.56441	-0.87743	1.80662
H	-1.1319	0.77812	0.341205
C	11.7938	0.204774	-0.21172
O	11.3662	-0.915012	0.00837227
O	13.0458	0.603245	0.200579
H	11.2294	0.981918	-0.74869
H	13.2522	1.52785	-0.0466024
