20
  This energy is 0.000480839 and Call times are: 3010
C	0.423919	2.98453	1.80018
O	1.44362	2.31794	1.76689
O	-0.536734	2.9005	0.817252
H	0.184396	3.69874	2.60234
H	-1.29896	3.49375	0.977443
C	-0.601691	-3.05283	-0.5139
O	-0.889786	-4.23536	-0.378996
O	0.00805632	-2.32661	0.471853
H	-0.80585	-2.47859	-1.42885
H	0.175178	-1.38912	0.212603
C	0.107291	0.799653	-1.51766
O	-0.430237	0.0431651	-2.30435
O	0.489306	0.360045	-0.259343
H	0.333858	1.85423	-1.71217
H	0.913895	1.03665	0.305374
C	10.0025	-0.134761	-0.0175441
O	9.30853	-1.13606	0.0146009
O	9.46089	1.13103	0.00439527
H	11.1017	-0.152105	-0.0659924
H	10.1391	1.83648	-0.0265955
