20
  This energy is -0.00259966 and Call times are: 13282
C	3.03935	0.00478651	-1.75787
O	2.86712	-1.03059	-1.13855
O	1.98768	0.779749	-2.19317
H	4.03049	0.404986	-2.01939
H	2.27836	1.58044	-2.67588
C	-1.98896	0.386997	2.41665
O	-2.47979	0.648042	3.50776
O	-0.690347	-0.0172112	2.27133
H	-2.54329	0.454111	1.46966
H	-0.443282	-0.189808	1.33155
C	-0.916667	-0.333638	-1.41516
O	-2.04524	0.0322482	-1.14584
O	0.0282551	-0.51211	-0.416241
H	-0.54824	-0.549204	-2.42465
H	0.908053	-0.807737	-0.725321
C	7.87898	-0.330206	0.238344
O	7.05921	0.550194	0.433573
O	8.94589	-0.159351	-0.615228
H	7.84082	-1.32037	0.716916
H	9.51937	-0.950883	-0.671829
