20
  This energy is 0.000381617 and Call times are: 5023
C	-2.39872	-0.14127	2.56007
O	-1.8861	-1.22655	2.34882
O	-1.74648	1.04057	2.28821
H	-3.40815	-0.011173	2.97846
H	-2.2811	1.83055	2.50892
C	1.19318	-0.194976	-2.91277
O	1.33467	-0.344683	-4.11989
O	0.251665	-0.876635	-2.1918
H	1.80381	0.492668	-2.31041
H	0.261409	-0.648058	-1.23176
C	1.1832	0.70215	1.03019
O	1.972	1.23805	0.27474
O	0.269493	-0.227932	0.55833
H	1.11627	0.889638	2.10799
H	-0.324901	-0.606759	1.23668
C	11.7779	-0.118713	0.342123
O	11.75	-1.06327	-0.427472
O	12.438	1.05129	0.0397662
H	11.288	-0.116226	1.32749
H	12.3742	1.71998	0.752086
