20
  This energy is 0.000961945 and Call times are: 13156
C	0.0827847	-3.44246	-0.685879
O	-0.794099	-2.86965	-1.30894
O	1.22158	-2.79419	-0.26284
H	0.043881	-4.50731	-0.411135
H	1.83534	-3.38083	0.224769
C	-0.873155	2.69086	1.39384
O	-1.40272	3.52389	2.11854
O	-1.49548	1.52777	1.03212
H	0.137221	2.80422	0.975679
H	-0.940829	0.960226	0.445371
C	1.353	0.32097	-1.01026
O	1.78812	1.38613	-0.615041
O	0.0849612	-0.105948	-0.646427
H	1.89123	-0.376697	-1.66208
H	-0.181094	-0.97394	-1.01081
C	10.1727	-0.40218	0.0503343
O	11.1508	-0.262077	0.763666
O	9.67709	0.625381	-0.720751
H	9.60937	-1.34318	-0.0396459
H	8.88911	0.365972	-1.24075
