20
  This energy is 0.00201736 and Call times are: 3696
C	-3.10568	0.930793	1.34766
O	-3.10791	-0.215713	0.934422
O	-1.953	1.552	1.77368
H	-4.00622	1.55949	1.41597
H	-2.10482	2.47023	2.07767
C	2.22405	-0.471267	-2.18573
O	2.8506	-0.52108	-3.23669
O	0.861368	-0.578242	-2.1353
H	2.69715	-0.337721	-1.20241
H	0.503869	-0.519525	-1.21728
C	0.699612	-0.235387	1.55222
O	1.89919	-0.155204	1.36602
O	-0.173005	-0.409221	0.488794
H	0.208867	-0.181132	2.53075
H	-1.11883	-0.463131	0.732681
C	8.48631	-0.145617	0.10024
O	8.3372	-0.364533	-1.08933
O	7.51207	0.463466	0.859152
H	9.39433	-0.409678	0.66299
H	7.77224	0.573364	1.79662
