20
  This energy is -0.000983113 and Call times are: 9826
C	-3.16995	-0.950772	1.17271
O	-2.63029	-0.142384	1.90791
O	-2.87917	-1.02467	-0.171187
H	-3.9226	-1.67921	1.51005
H	-3.38918	-1.72067	-0.633864
C	3.13768	-0.0272885	-0.316468
O	4.32823	-0.298983	-0.22514
O	2.25403	-0.237726	0.706167
H	2.68077	0.404557	-1.21831
H	1.33186	0.0317515	0.480289
C	-0.660295	1.05629	-1.18428
O	0.225865	1.19099	-2.00687
O	-0.390094	0.528544	0.0691311
H	-1.7114	1.32456	-1.34082
H	-1.16286	0.457177	0.664704
C	11.0676	-0.359283	-0.152743
O	11.7739	-0.023727	0.781973
O	9.96719	0.373723	-0.537395
H	11.2422	-1.25972	-0.760694
H	9.4972	-0.0170534	-1.30225
