20
  This energy is -0.0021829 and Call times are: 1956
C	-1.34612	0.598727	3.18705
O	-1.81605	-0.399082	2.66861
O	-0.0909676	1.06633	2.86767
H	-1.87199	1.20309	3.94145
H	0.151926	1.87521	3.36296
C	0.237705	0.079747	-3.14373
O	0.0481601	0.296369	-4.33399
O	-0.785144	-0.0129814	-2.24036
H	1.23535	-0.05748	-2.70278
H	-0.472668	-0.190835	-1.32126
C	1.45719	-0.646313	0.642762
O	2.2665	-0.540993	-0.259465
O	0.0987686	-0.519999	0.395167
H	1.70544	-0.842019	1.69222
H	-0.477031	-0.61951	1.17972
C	5.99167	0.414489	-0.0168781
O	6.19123	0.0674648	1.13421
O	5.55395	-0.466393	-0.980472
H	6.14036	1.44189	-0.381895
H	5.43809	-0.0458724	-1.85702
