20
  This energy is -0.000431755 and Call times are: 22420
C	-2.24887	-1.58188	2.18358
O	-1.90103	-2.31227	1.27211
O	-1.45836	-0.548567	2.6346
H	-3.20631	-1.68066	2.71694
H	-1.86754	-0.0486489	3.3703
C	0.991025	1.6335	-2.50908
O	1.04321	2.28207	-3.54648
O	0.00740716	0.715259	-2.26366
H	1.7221	1.73187	-1.69395
H	0.10173	0.274804	-1.38553
C	1.3233	-0.203899	1.07776
O	2.13413	0.635426	0.733992
O	0.266802	-0.550421	0.249329
H	1.34277	-0.745902	2.0302
H	-0.334705	-1.23361	0.607682
C	8.22934	-0.103725	-0.410939
O	9.17754	0.624378	-0.174242
O	7.31186	-0.447001	0.556771
H	8.02555	-0.543109	-1.39903
H	6.6063	-1.03696	0.221003
