20
  This energy is 0.000171979 and Call times are: 7810
C	0.00122535	3.40049	-0.874352
O	-1.12248	2.98064	-0.659251
O	1.11592	2.83468	-0.296964
H	0.221271	4.25198	-1.53576
H	1.94841	3.27675	-0.561811
C	-0.185969	-3.12485	-0.382903
O	-0.292708	-4.24901	-0.856667
O	-0.793698	-2.03181	-0.936815
H	0.401065	-2.89905	0.518747
H	-0.6135	-1.1979	-0.440678
C	0.518245	0.324619	1.60633
O	0.999661	-0.723412	1.99358
O	-0.282432	0.361926	0.474925
H	0.660462	1.29911	2.0874
H	-0.625573	1.24696	0.238411
C	19.5411	-0.072418	0.387296
O	19.9451	-1.14684	-0.0221903
O	19.6406	1.07928	-0.360872
H	19.0702	0.070719	1.37152
H	19.2746	1.8638	0.0964822
