20
  This energy is 0.00140349 and Call times are: 21762
C	2.0766	-2.18976	-1.79457
O	2.01363	-2.4797	-0.612533
O	1.06145	-1.51713	-2.43731
H	2.93285	-2.43451	-2.44097
H	1.25185	-1.35369	-3.38369
C	-0.807862	2.47422	1.78087
O	-0.790034	3.50084	2.44818
O	0.257967	1.61936	1.71667
H	-1.67246	2.15406	1.18209
H	0.0903811	0.837153	1.13866
C	-1.43456	-0.751111	-0.576315
O	-2.30281	0.0886863	-0.43152
O	-0.210523	-0.62298	0.0623442
H	-1.52523	-1.65085	-1.19562
H	0.426086	-1.34499	-0.112026
C	8.73203	-0.337301	0.249197
O	8.62175	0.643204	0.964525
O	9.02345	-0.234146	-1.09263
H	8.61109	-1.37181	0.604249
H	9.08087	-1.10406	-1.53824
