20
  This energy is -0.00809238 and Call times are: 20450
C	-1.62735	2.09943	-2.29607
O	-2.40533	1.36661	-1.71043
O	-0.424532	2.47942	-1.74388
H	-1.8126	2.51464	-3.29816
H	0.0943228	3.06859	-2.32892
C	1.42237	-2.58735	1.10834
O	1.92418	-3.69868	1.22105
O	0.393618	-2.32828	0.244939
H	1.75148	-1.7111	1.68491
H	0.0981069	-1.38694	0.26892
C	0.168998	1.2569	1.16013
O	1.07835	0.891833	1.88117
O	-0.45892	0.365053	0.30404
H	-0.228204	2.27741	1.11465
H	-1.17866	0.746592	-0.237599
C	4.23502	-0.355102	-0.164847
O	5.22669	-0.100661	-0.825985
O	3.83532	0.437247	0.888002
H	3.58346	-1.22312	-0.346295
H	3.02274	0.109381	1.32484
