20
  This energy is 0.000702475 and Call times are: 13240
C	2.08012	1.97506	-2.02485
O	2.445	0.812944	-1.98491
O	0.76678	2.3362	-1.82293
H	2.75374	2.82261	-2.22184
H	0.623378	3.30275	-1.88473
C	-1.02559	-1.47073	2.59442
O	-1.15133	-1.89258	3.73714
O	0.194876	-1.19677	2.04098
H	-1.87332	-1.2777	1.92161
H	0.131806	-0.864765	1.11371
C	-1.22011	-0.103477	-1.20619
O	-2.23436	-0.385779	-0.596516
O	0.0256081	-0.243296	-0.613566
H	-1.18749	0.271925	-2.23541
H	0.784188	0.00719825	-1.17817
C	10.5013	-0.0397157	-0.133573
O	10.133	-1.1589	0.177912
O	9.67679	1.05776	-0.0252107
H	11.5053	0.189422	-0.521414
H	10.1084	1.8886	-0.311642
