20
  This energy is -0.000272822 and Call times are: 19946
C	-0.446317	0.840761	3.3796
O	-0.804674	1.73372	2.63164
O	-0.440233	-0.480154	2.99074
H	-0.102512	1.00666	4.41168
H	-0.128134	-1.08365	3.69571
C	1.41243	-0.17928	-2.81404
O	2.20797	-0.0872556	-3.74044
O	1.3393	0.748453	-1.81161
H	0.695891	-1.00636	-2.70877
H	0.649143	0.535537	-1.13902
C	-1.39802	-0.999598	-0.0247188
O	-1.2287	-1.74453	-0.971557
O	-0.632443	0.147228	0.121041
H	-2.13613	-1.15024	0.771391
H	-0.837924	0.685623	0.911534
C	5.34654	-0.370272	0.201324
O	6.53911	-0.277823	-0.032085
O	4.45114	0.607885	-0.169523
H	4.88777	-1.22623	0.718785
H	3.52927	0.396676	0.0837498
