20
  This energy is -0.00139857 and Call times are: 16327
C	-0.129158	1.25166	3.27787
O	0.912521	1.5407	2.7152
O	-1.29349	1.01255	2.58273
H	-0.230553	1.15778	4.36958
H	-2.04773	0.792056	3.16677
C	0.663219	-1.99286	-2.35256
O	1.04424	-2.95248	-3.01099
O	1.28014	-1.60205	-1.19603
H	-0.198212	-1.36907	-2.63075
H	0.857112	-0.812716	-0.781282
C	-1.02817	1.23757	-0.604606
O	-1.47931	0.786101	-1.64034
O	0.075355	0.656226	0.00106315
H	-1.42727	2.10694	-0.0696222
H	0.368313	1.08588	0.829644
C	4.63428	-0.216141	-0.00467538
O	5.51485	-1.03072	-0.219862
O	4.9066	1.11836	0.197866
H	3.56449	-0.468908	0.0460147
H	4.10139	1.65161	0.358738
