20
  This energy is 0.00168413 and Call times are: 10520
C	-0.0479405	-3.0329	1.76834
O	0.37671	-2.11218	2.4445
O	-0.917899	-2.8297	0.720506
H	0.220306	-4.08761	1.93125
H	-1.17264	-3.66075	0.269881
C	1.14739	2.33869	-1.77762
O	1.86696	3.04749	-2.47
O	1.64288	1.51156	-0.807442
H	0.0528133	2.30598	-1.8746
H	0.93885	1.00565	-0.335824
C	-1.69195	0.236058	0.189343
O	-1.99739	1.00974	-0.698465
O	-0.364636	0.0564418	0.547874
H	-2.39877	-0.368955	0.768693
H	-0.213281	-0.584578	1.27117
C	9.34218	-0.369609	-0.137734
O	8.43041	0.43639	-0.203329
O	10.5952	-0.0206099	0.314014
H	9.2477	-1.42691	-0.427714
H	11.2242	-0.770942	0.311031
