20
  This energy is 0.00134289 and Call times are: 10394
C	0.960675	1.02173	3.21885
O	1.83811	1.21098	2.39451
O	-0.3718	0.98728	2.87331
H	1.15072	0.864626	4.29128
H	-0.960198	0.826622	3.63919
C	-0.306779	-1.89038	-2.50565
O	-0.265499	-2.84244	-3.2747
O	0.654389	-1.66697	-1.55847
H	-1.11102	-1.14089	-2.50967
H	0.481382	-0.86047	-1.01657
C	-0.962993	1.40146	-0.250646
O	-1.74224	1.08775	-1.13068
O	0.167535	0.638939	0.000421273
H	-1.06854	2.27541	0.40231
H	0.736325	0.966524	0.725774
C	7.31766	-0.188869	-0.209549
O	6.2971	-0.762963	-0.547371
O	7.30591	0.856195	0.686984
H	8.31955	-0.448888	-0.583067
H	8.1986	1.21807	0.862368
