20
  This energy is -0.00559526 and Call times are: 2874
C	1.50667	-2.7067	1.65274
O	1.99142	-1.6382	1.98225
O	0.213575	-2.81145	1.19121
H	2.04783	-3.66397	1.69366
H	-0.037196	-3.73046	0.965046
C	-0.43132	2.21992	-2.19814
O	-0.324814	2.93501	-3.18652
O	0.647653	1.64066	-1.5889
H	-1.39272	1.98405	-1.71998
H	0.4003	1.09394	-0.80536
C	-1.38304	-0.0362736	1.01988
O	-2.24964	0.535835	0.386018
O	-0.0497012	0.0710257	0.654826
H	-1.55761	-0.664416	1.90093
H	0.576679	-0.422412	1.22152
C	5.02148	0.235224	0.14768
O	5.44367	-0.90487	0.0629039
O	3.73052	0.564422	-0.20034
H	5.62183	1.08637	0.502692
H	3.53409	1.51601	-0.0798868
