20
  This energy is 0.00047812 and Call times are: 16665
C	-1.94762	-1.53932	2.48295
O	-2.49338	-1.55572	1.3934
O	-0.577965	-1.48441	2.61369
H	-2.48941	-1.56636	3.44037
H	-0.284138	-1.4774	3.54761
C	1.06666	2.289	-1.88908
O	1.25494	3.36152	-2.44927
O	-0.148078	1.93208	-1.37148
H	1.84894	1.52831	-1.75503
H	-0.140947	1.0386	-0.952363
C	1.03432	-1.36396	-0.155102
O	2.05245	-0.924536	-0.655494
O	-0.138213	-0.623967	-0.166956
H	0.942918	-2.34124	0.332607
H	-0.906022	-1.05625	0.257982
C	7.90575	0.0159396	-0.124919
O	7.74299	0.960722	0.627505
O	6.88789	-0.860198	-0.428933
H	8.86119	-0.2169	-0.618708
H	7.16579	-1.56828	-1.04538
