20
  This energy is -3.2555e-05 and Call times are: 10436
C	0.0352885	1.52141	-3.16415
O	-0.668376	2.12308	-2.37162
O	1.09974	0.748823	-2.75657
H	-0.11388	1.54123	-4.25423
H	1.57216	0.326526	-3.50296
C	-0.989476	-1.85875	2.34774
O	-1.60787	-2.66611	3.02989
O	-1.58801	-1.10467	1.37614
H	0.0884903	-1.67199	2.45582
H	-0.958477	-0.501052	0.91423
C	1.54214	0.634208	0.416957
O	1.94563	-0.0929416	1.30495
O	0.20625	0.625853	0.045615
H	2.16166	1.33601	-0.153093
H	-0.0275025	1.24272	-0.676748
C	8.82379	0.342898	-0.238964
O	8.6012	-0.623247	-0.947668
O	9.23751	0.211104	1.06776
H	8.71631	1.38587	-0.572969
H	9.37669	1.0723	1.51227
