20
  This energy is 5.7349e-05 and Call times are: 10688
C	-1.71541	-3.0634	0.0270512
O	-0.847757	-3.01383	0.881428
O	-2.33114	-1.93046	-0.456067
H	-2.07718	-3.99887	-0.425642
H	-3.00661	-2.12488	-1.13764
C	2.24427	2.09643	-0.717027
O	3.23295	2.65139	-1.17974
O	2.20175	0.751225	-0.473072
H	1.31532	2.62534	-0.46037
H	1.33759	0.454289	-0.100134
C	-1.27515	0.819135	0.810726
O	-1.10385	1.99458	0.547896
O	-0.269281	-0.110059	0.593032
H	-2.19614	0.394053	1.22589
H	-0.495858	-1.03085	0.833407
C	5.73003	0.337248	-0.117654
O	5.03466	0.706236	0.812703
O	5.68315	-0.952056	-0.59887
H	6.44311	0.988045	-0.645742
H	6.29657	-1.10225	-1.34704
