20
  This energy is -0.00467309 and Call times are: 6223
C	3.31889	1.10509	-0.302544
O	3.00681	0.896444	0.856901
O	2.70787	0.456157	-1.35212
H	4.10097	1.81624	-0.608359
H	3.06188	0.72491	-2.2245
C	-3.11913	0.173209	0.432338
O	-4.26185	0.571813	0.619107
O	-2.02289	0.819265	0.934099
H	-2.8778	-0.728499	-0.148394
H	-1.17306	0.376177	0.698547
C	0.395043	-1.5955	-0.502588
O	-0.658126	-2.06838	-0.886393
O	0.416153	-0.440046	0.263605
H	1.38663	-2.01274	-0.712227
H	1.30686	-0.132915	0.526827
C	7.51087	0.335956	-0.235229
O	6.63405	-0.240302	-0.855197
O	7.96444	-0.118713	0.982807
H	8.00852	1.25255	-0.586089
H	8.66955	0.445108	1.36166
