20
  This energy is 9.2e-05 and Call times are: 8818
C	0.0957972	-0.869137	3.40047
O	-0.691822	0.0338345	3.1779
O	0.436159	-1.79551	2.44024
H	0.595355	-1.02197	4.36898
H	1.07848	-2.46038	2.76268
C	0.709378	1.5592	-2.64794
O	1.19815	2.32602	-3.4681
O	0.574469	1.88349	-1.326
H	0.340669	0.554693	-2.90012
H	0.163077	1.16241	-0.792307
C	-0.969332	-1.35937	-0.408363
O	-0.791973	-1.51831	-1.60141
O	-0.600588	-0.175327	0.211817
H	-1.41643	-2.09858	0.266154
H	-0.780767	-0.136499	1.17254
C	25.1245	0.313119	0.227227
O	25.3741	0.785091	-0.868293
O	25.4073	-0.997678	0.540123
H	24.6602	0.880578	1.04778
H	25.1515	-1.23493	1.45496
