20
  This energy is 0.00102601 and Call times are: 2040
C	0.901419	-1.63762	-2.97211
O	1.66082	-1.89684	-2.05486
O	-0.407478	-1.26894	-2.75547
H	1.18781	-1.67421	-4.03397
H	-0.895962	-1.09178	-3.58529
C	-0.0253964	2.23801	2.22184
O	0.182534	3.25511	2.87134
O	0.916907	1.6842	1.39949
H	-0.976924	1.68782	2.24306
H	0.599817	0.867494	0.945105
C	-1.26844	-1.11222	0.329062
O	-2.00933	-0.519661	1.09066
O	0.0184644	-0.653891	0.0916337
H	-1.52835	-2.02398	-0.220881
H	0.54209	-1.19314	-0.534466
C	7.96454	0.244091	0.225669
O	6.87002	0.776075	0.290922
O	8.16979	-0.921956	-0.477379
H	8.86844	0.639817	0.712785
H	9.09812	-1.23092	-0.440574
