20
  This energy is 6.4729e-05 and Call times are: 9364
C	-2.47702	-0.394694	-2.45691
O	-2.9204	-0.530558	-1.32988
O	-1.3615	0.369757	-2.71633
H	-2.91936	-0.861215	-3.35
H	-1.12316	0.386409	-3.66582
C	2.24263	-0.82107	2.0597
O	3.04814	-1.44852	2.73573
O	1.06555	-1.3648	1.62412
H	2.39391	0.222148	1.74765
H	0.523879	-0.734912	1.09133
C	-0.0204602	1.71356	-0.132543
O	1.05204	2.0712	0.316828
O	-0.492341	0.429864	0.0955453
H	-0.691196	2.33759	-0.734191
H	-1.36295	0.230759	-0.303667
C	22.2289	0.0955502	-0.344938
O	23.0306	-0.168189	0.534224
O	20.8693	0.0540061	-0.130844
H	22.5138	0.384622	-1.36776
H	20.3506	0.289841	-0.927062
