20
  This energy is -0.000387354 and Call times are: 19472
C	1.47493	0.788029	-3.08729
O	2.06968	1.29224	-2.15066
O	0.736461	-0.365844	-2.94833
H	1.47475	1.20123	-4.10718
H	0.315651	-0.652178	-3.78471
C	-1.84905	0.327484	2.53371
O	-2.6621	0.735503	3.35349
O	-1.12526	1.16814	1.73351
H	-1.63268	-0.738087	2.37151
H	-0.51232	0.689277	1.12604
C	0.680288	-1.57832	0.0193114
O	-0.0229026	-2.20867	0.786301
O	0.631623	-0.192953	-0.011524
H	1.38951	-2.01805	-0.691273
H	1.23145	0.229018	-0.658917
C	8.89916	-0.0152176	0.139948
O	9.19056	-1.15307	-0.185038
O	9.78989	1.02858	0.0252132
H	7.91815	0.274121	0.545913
H	9.41662	1.88288	0.324284
