20
  This energy is -0.000632585 and Call times are: 21122
C	-2.04648	-2.84825	0.164874
O	-0.88054	-3.10399	0.4107
O	-2.5822	-1.59849	0.382049
H	-2.76103	-3.57824	-0.244317
H	-3.52879	-1.5419	0.138426
C	1.96373	2.1302	-1.24577
O	2.68361	2.7657	-2.0057
O	1.78177	0.77949	-1.36144
H	1.40735	2.58506	-0.413835
H	1.17425	0.412322	-0.675776
C	-0.519563	0.567603	1.53693
O	-0.271332	1.75855	1.52672
O	0.0420257	-0.281886	0.59589
H	-1.17981	0.06773	2.25491
H	-0.213752	-1.22228	0.680753
C	9.33265	-0.231775	-0.330415
O	9.03278	-1.02531	0.544586
O	9.21671	1.12895	-0.154216
H	9.71513	-0.525557	-1.31951
H	9.49403	1.64033	-0.941746
