20
  This energy is -0.0111891 and Call times are: 2629
C	2.47841	-0.868899	2.3303
O	1.36328	-0.86988	2.82198
O	2.6851	-1.08874	0.986792
H	3.40121	-0.695781	2.90422
H	3.63122	-1.05855	0.7367
C	-1.99943	1.83617	-1.60521
O	-2.63134	2.79079	-2.0399
O	-1.52771	1.78832	-0.322206
H	-1.75904	0.944615	-2.2018
H	-1.03891	0.954619	-0.122122
C	0.0157329	-1.55772	-0.726301
O	-0.457064	-1.38703	-1.83419
O	-0.124482	-0.594014	0.260698
H	0.573654	-2.44631	-0.409404
H	0.287466	-0.816694	1.11958
C	5.29264	0.408809	0.0429
O	5.47656	-0.015824	1.17033
O	5.43814	-0.387597	-1.07094
H	4.9998	1.44554	-0.181447
H	5.25813	0.0894179	-1.9068
