20
  This energy is -0.00529829 and Call times are: 15877
C	-2.78837	1.25405	1.72631
O	-1.9126	0.871052	2.48234
O	-2.51288	1.68894	0.449184
H	-3.85598	1.286	1.99109
H	-3.31433	1.96535	-0.040595
C	1.89159	-2.1231	-1.36392
O	2.37693	-3.15833	-1.80244
O	1.07462	-2.09992	-0.267141
H	2.06838	-1.13343	-1.80875
H	0.763989	-1.19185	-0.037059
C	0.583961	1.5729	-0.37316
O	1.31852	1.41113	-1.32937
O	0.177604	0.495419	0.39916
H	0.187028	2.53862	-0.0398134
H	-0.411905	0.719737	1.14691
C	4.60167	-0.118829	-0.354543
O	4.50627	1.09502	-0.406739
O	4.10851	-0.845891	0.705764
H	5.08066	-0.730131	-1.13414
H	4.25759	-1.8088	0.609896
