20
  This energy is -4.8978e-05 and Call times are: 11444
C	-2.9348	-1.26595	1.4533
O	-2.35682	-2.10136	0.780049
O	-2.26949	-0.214242	2.04265
H	-4.01805	-1.277	1.64663
H	-2.86292	0.374917	2.55189
C	1.85779	1.3201	-2.17988
O	2.28693	1.85013	-3.19697
O	0.790815	0.464319	-2.18971
H	2.28806	1.48424	-1.18163
H	0.565195	0.119298	-1.29301
C	0.88377	-0.125639	1.46882
O	1.81474	0.646285	1.33644
O	0.134883	-0.527903	0.373412
H	0.556789	-0.561205	2.41995
H	-0.593325	-1.14946	0.57427
C	14.0989	-0.055253	-0.371316
O	14.4015	1.0602	0.0152387
O	13.2638	-0.877725	0.351288
H	14.4586	-0.496129	-1.31322
H	13.1109	-1.74199	-0.0826357
