20
  This energy is 0.000825723 and Call times are: 3365
C	0.669654	-2.72847	-2.1059
O	1.35988	-2.74154	-1.10158
O	-0.563907	-2.11739	-2.13718
H	0.964328	-3.19432	-3.0583
H	-1.00204	-2.18749	-3.00995
C	0.306311	2.87512	1.25927
O	0.668154	4.01709	1.51335
O	1.15823	1.92557	0.765825
H	-0.723248	2.51791	1.4041
H	0.718481	1.05539	0.612763
C	-1.44021	-0.713563	0.609
O	-2.08607	0.219568	1.04743
O	-0.0913787	-0.569559	0.321813
H	-1.83763	-1.71456	0.405638
H	0.346701	-1.37193	-0.0264079
C	7.83546	-0.332177	-0.0129435
O	8.19941	-0.230741	1.14572
O	8.27243	0.529082	-0.994455
H	7.13924	-1.10533	-0.371298
H	7.89635	0.32562	-1.87523
