20
  This energy is -0.000587931 and Call times are: 18254
C	2.74972	1.21068	-1.81688
O	2.91896	0.0664012	-1.43319
O	1.49336	1.72981	-2.03629
H	3.56901	1.91716	-2.01828
H	1.51319	2.65971	-2.34205
C	-1.78545	-0.679888	2.50915
O	-2.2241	-0.791444	3.64701
O	-0.4455	-0.665301	2.23489
H	-2.42345	-0.582849	1.61914
H	-0.250151	-0.569541	1.27224
C	-0.922159	-0.287065	-1.42179
O	-2.07721	-0.3147	-1.04076
O	0.125063	-0.389292	-0.51877
H	-0.605438	-0.183567	-2.46595
H	1.01902	-0.357639	-0.914756
C	10.4527	-0.236566	0.246271
O	9.58282	0.20637	0.975855
O	10.4943	0.0509265	-1.09972
H	11.2663	-0.892551	0.590715
H	11.2484	-0.374179	-1.55722
