20
  This energy is 0.00255051 and Call times are: 4897
C	-3.03699	1.3356	-1.1492
O	-2.14503	2.16592	-1.13419
O	-2.78014	-0.0108242	-1.28046
H	-4.10574	1.5824	-1.06101
H	-3.59323	-0.556225	-1.27605
C	2.28411	-0.757968	2.03819
O	2.95713	-0.909093	3.05001
O	1.42512	0.294001	1.87575
H	2.31157	-1.44703	1.18203
H	0.955238	0.277449	1.00801
C	0.326479	-0.77296	-1.50007
O	1.12125	-1.65292	-1.22787
O	0.0726969	0.255097	-0.60494
H	-0.242885	-0.705035	-2.43415
H	-0.580188	0.917528	-0.908082
C	7.99739	0.0936881	0.117447
O	7.42856	-0.299144	1.12112
O	7.36041	0.170953	-1.1009
H	9.04953	0.415282	0.0953187
H	7.94207	0.50366	-1.81475
