20
  This energy is 0.00039519 and Call times are: 7516
C	1.94835	2.66048	-1.20563
O	0.779418	2.97382	-1.06192
O	2.53184	1.65545	-0.467043
H	2.62841	3.1428	-1.92382
H	3.47469	1.51592	-0.691053
C	-1.91284	-2.50594	-0.0849743
O	-2.62533	-3.43174	-0.45216
O	-1.78072	-1.34919	-0.802857
H	-1.32405	-2.52395	0.843235
H	-1.1726	-0.698762	-0.377221
C	0.570315	0.198798	1.60919
O	0.36381	-0.873717	2.14506
O	-0.0397362	0.519484	0.406041
H	1.22712	0.983357	2.00208
H	0.184609	1.40234	0.0493948
C	18.2288	0.152811	0.357555
O	19.1526	-0.5642	0.700733
O	17.9065	0.34589	-0.967163
H	17.5827	0.69903	1.06119
H	17.1429	0.946204	-1.0901
