20
  This energy is -0.00187833 and Call times are: 5065
C	2.55956	2.00546	1.32459
O	1.88268	1.48762	2.19574
O	2.69835	1.44293	0.0754431
H	3.10927	2.94971	1.45549
H	3.27087	1.97014	-0.518589
C	-2.8736	-0.77559	-1.04249
O	-4.0506	-0.750403	-1.37956
O	-2.37317	0.0282885	-0.0554485
H	-2.12527	-1.43913	-1.49887
H	-1.40839	-0.108605	0.100988
C	1.07832	-1.28991	-0.357216
O	0.507049	-1.9433	-1.20976
O	0.389337	-0.354105	0.399172
H	2.14341	-1.36915	-0.111057
H	0.929186	0.123751	1.06037
C	10.2575	0.228628	-0.0202712
O	9.53374	0.797105	0.778635
O	9.87085	-0.925257	-0.664567
H	11.2643	0.579332	-0.292785
H	10.5544	-1.26771	-1.2762
