20
  This energy is -1.7762e-05 and Call times are: 9196
C	-2.50897	0.990056	-2.24781
O	-1.43816	1.51884	-2.4907
O	-2.5952	-0.225744	-1.60713
H	-3.48302	1.42786	-2.51329
H	-3.51869	-0.525275	-1.48051
C	1.86823	0.103395	2.53869
O	2.40853	0.419407	3.5912
O	1.31907	1.02299	1.688
H	1.77864	-0.935332	2.18999
H	0.921963	0.613898	0.882418
C	0.222182	-1.51458	-0.781633
O	0.745604	-2.22209	0.0583345
O	0.177156	-0.138064	-0.621181
H	-0.244744	-1.87384	-1.70587
H	-0.262691	0.350011	-1.34595
C	26.4607	0.414879	0.0684078
O	27.0826	-0.169072	0.93875
O	25.7403	-0.258843	-0.892414
H	26.42	1.5105	-0.0257045
H	25.2934	0.340919	-1.5242
