20
  This energy is 0.000863946 and Call times are: 19598
C	3.23845	-1.33581	0.23627
O	3.04945	-0.771539	-0.82727
O	2.54545	-0.996885	1.37686
H	3.96502	-2.1501	0.377521
H	2.80293	-1.5348	2.15336
C	-3.06444	0.145815	-0.730663
O	-4.19415	-0.111413	-1.1271
O	-1.94321	-0.382725	-1.30893
H	-2.85563	0.816436	0.115054
H	-1.10835	-0.0807422	-0.877831
C	0.389842	1.34578	0.995564
O	-0.68191	1.74226	1.41299
O	0.45305	0.473864	-0.0806889
H	1.36751	1.62269	1.40639
H	1.3561	0.208529	-0.347287
C	10.6525	-0.172677	0.172921
O	11.1609	0.513972	1.04199
O	11.1999	-0.282225	-1.08581
H	9.72926	-0.75478	0.313357
H	10.6829	-0.867177	-1.67675
