20
  This energy is -9.9586e-05 and Call times are: 8650
C	-2.80369	-1.71472	1.23567
O	-3.08417	-0.595277	0.843973
O	-1.72908	-2.41602	0.7362
H	-3.37243	-2.25437	2.00782
H	-1.62752	-3.29993	1.14485
C	2.50405	1.91716	0.0133414
O	3.39131	2.69325	0.345013
O	1.2721	1.91008	0.607611
H	2.61933	1.16704	-0.782022
H	0.66632	1.22813	0.230774
C	-0.0230242	-0.859776	-1.48813
O	1.10561	-0.746667	-1.92798
O	-0.469802	-0.0405369	-0.462552
H	-0.766374	-1.58467	-1.83919
H	-1.39001	-0.202682	-0.172894
C	17.3121	-0.171375	-0.0249124
O	17.7199	-0.0822363	-1.16989
O	18.0635	0.240605	1.05288
H	16.3268	-0.580718	0.244726
H	17.6072	0.107819	1.90886
