20
  This energy is -0.0128545 and Call times are: 4430
C	2.89127	-1.64147	-1.12868
O	1.90876	-2.36159	-1.16545
O	2.79635	-0.270484	-1.21497
H	3.92129	-2.0147	-1.02533
H	3.66691	0.175415	-1.17134
C	-2.23511	0.949071	2.01232
O	-2.91327	1.14276	3.0134
O	-1.50013	-0.190008	1.83012
H	-2.15898	1.66594	1.18234
H	-1.00808	-0.19848	0.974641
C	-0.19348	0.85754	-1.47697
O	-0.887683	1.81456	-1.19013
O	-0.0853739	-0.223648	-0.615633
H	0.389327	0.755874	-2.39963
H	0.494083	-0.947073	-0.928453
C	6.34545	-0.0776809	0.391538
O	7.26001	-0.339161	-0.370336
O	5.12533	0.37444	-0.0589931
H	6.41138	-0.177418	1.48543
H	4.48952	0.542442	0.666353
