20
  This energy is -0.00707953 and Call times are: 21206
C	2.28089	-0.280554	2.65455
O	1.14313	-0.0826461	3.04388
O	2.54512	-0.890409	1.44859
H	3.18065	0.0045428	3.22028
H	3.50333	-0.981859	1.26951
C	-1.77646	1.39092	-2.20351
O	-2.31596	2.20931	-2.93751
O	-1.38017	1.6931	-0.929716
H	-1.56613	0.353784	-2.5013
H	-0.962011	0.929534	-0.464812
C	-0.0524985	-1.70006	-0.247583
O	-0.450947	-1.83403	-1.38924
O	-0.179436	-0.485905	0.409892
H	0.424311	-2.48573	0.349634
H	0.168436	-0.470697	1.32407
C	5.44867	-0.322241	-0.121716
O	5.79655	-0.031161	1.00943
O	4.43137	0.343879	-0.767821
H	5.90698	-1.12704	-0.715982
H	4.26332	0.000859233	-1.66932
