20
  This energy is -0.000117914 and Call times are: 5467
C	1.05542	1.47781	-3.00499
O	0.767965	0.301924	-3.14609
O	0.498831	2.25228	-2.01178
H	1.7709	2.01506	-3.64558
H	0.824076	3.17572	-2.02107
C	0.205336	-1.59883	2.71063
O	0.612615	-2.23107	3.67705
O	0.789577	-1.68276	1.47672
H	-0.655681	-0.916455	2.75039
H	0.347634	-1.11453	0.801576
C	-1.56173	0.710962	-0.0990348
O	-1.98294	0.692016	1.04215
O	-0.466899	-0.0577813	-0.463658
H	-1.98276	1.30779	-0.916238
H	-0.198645	0.020482	-1.40115
C	4.58075	0.206115	0.243282
O	5.21261	-0.640231	-0.364746
O	3.22201	0.360375	0.0817013
H	5.03023	0.908539	0.961245
H	2.85154	1.0788	0.634172
