20
  This energy is -5.4863e-05 and Call times are: 8986
C	-2.56062	0.717444	-2.29266
O	-1.90728	-0.257196	-2.622
O	-2.68166	1.10579	-0.977135
H	-3.10133	1.36134	-3.00255
H	-3.23598	1.90502	-0.865051
C	2.88392	0.0260169	1.27603
O	4.06752	0.23852	1.50732
O	2.37397	0.00542607	0.00700136
H	2.13671	-0.164542	2.05957
H	1.40472	-0.179072	-0.0159325
C	-1.08663	-0.723409	1.11811
O	-0.506679	-0.67758	2.18659
O	-0.401354	-0.519933	-0.0699769
H	-2.15723	-0.920283	0.990241
H	-0.948258	-0.575281	-0.879176
C	25.0367	-0.241084	0.322002
O	25.8209	0.687645	0.234232
O	23.9562	-0.36771	-0.522157
H	25.12	-1.04528	1.06847
H	23.4156	-1.16176	-0.332912
