20
  This energy is 0.00176901 and Call times are: 14578
C	1.93274	-2.64954	-1.25391
O	2.22266	-1.58385	-1.76917
O	1.3899	-2.72708	0.00917671
H	2.07584	-3.62539	-1.7419
H	1.20915	-3.64726	0.290592
C	-2.36747	2.0765	0.170663
O	-3.39188	2.71429	-0.037633
O	-1.64655	1.49274	-0.83452
H	-1.94301	1.91947	1.17253
H	-0.847206	1.01472	-0.508067
C	0.920654	0.0995276	1.44802
O	0.190574	0.66465	2.2403
O	0.643463	0.119337	0.0895854
H	1.82762	-0.456085	1.71257
H	1.28457	-0.361097	-0.471785
C	5.47987	-0.391879	-0.111762
O	6.66771	-0.461236	0.151823
O	4.77939	0.790339	-0.0236972
H	4.87305	-1.25026	-0.437117
H	3.83565	0.693196	-0.265604
