20
  This energy is -0.00283644 and Call times are: 22041
C	-1.18322	-3.09422	1.16344
O	-0.153928	-3.20686	0.52071
O	-1.50275	-1.93513	1.83463
H	-1.93418	-3.89238	1.26298
H	-2.35888	-1.9914	2.30631
C	0.427271	2.41895	-1.97789
O	0.384998	3.17478	-2.94044
O	0.30367	1.06233	-2.10121
H	0.566684	2.76132	-0.942561
H	0.358849	0.590092	-1.23635
C	0.64309	0.42833	1.53533
O	0.738538	1.64074	1.50318
O	0.458078	-0.299565	0.369779
H	0.690917	-0.183603	2.44337
H	0.392218	-1.26799	0.491386
C	4.2082	-0.0561637	-0.286963
O	3.28473	-0.771951	-0.633501
O	4.13817	0.733761	0.83873
H	5.1613	0.0214517	-0.831466
H	4.95387	1.25339	0.991155
