20
  This energy is -0.0026178 and Call times are: 17876
C	1.95475	2.68602	-1.13668
O	2.61477	1.86027	-0.53025
O	0.789797	2.35316	-1.79101
H	2.22509	3.74989	-1.21412
H	0.368892	3.11858	-2.23324
C	-1.77043	-1.70793	1.97344
O	-2.40993	-2.10233	2.94043
O	-0.687874	-0.880701	2.09452
H	-2.00824	-1.98145	0.935556
H	-0.278841	-0.651592	1.22606
C	-0.0522339	-0.731512	-1.55448
O	-1.02456	-1.46191	-1.51991
O	0.489743	-0.216594	-0.386717
H	0.469901	-0.420277	-2.46652
H	1.2698	0.360593	-0.51056
C	5.27912	-0.34504	0.246986
O	4.39112	-0.462671	-0.579368
O	6.11947	0.745597	0.266731
H	5.48476	-1.08475	1.03531
H	6.78275	0.702823	0.985649
