20
  This energy is -0.00925012 and Call times are: 2261
C	1.99031	0.767834	-2.78871
O	2.28929	1.43302	-1.81229
O	1.4077	-0.47473	-2.67617
H	2.15577	1.09392	-3.82659
H	1.22435	-0.889789	-3.54376
C	-2.38603	0.226245	2.04978
O	-3.40759	0.562293	2.63549
O	-1.62914	1.10611	1.326
H	-1.99292	-0.800405	2.05477
H	-0.837422	0.685077	0.913752
C	0.87291	-1.44262	0.333371
O	0.113846	-2.11487	1.00568
O	0.63941	-0.0896982	0.139358
H	1.77472	-1.81787	-0.163834
H	1.30154	0.37041	-0.414588
C	4.63211	0.17133	0.387435
O	3.68936	-0.599679	0.432326
O	5.36899	0.35889	-0.760561
H	4.97202	0.774395	1.24281
H	6.09387	1.0071	-0.64662
