20
  This energy is -0.00348238 and Call times are: 9910
C	-1.60567	-2.10417	2.30697
O	-1.74879	-2.48568	1.1584
O	-0.521507	-1.35016	2.69703
H	-2.31551	-2.32357	3.1187
H	-0.541163	-1.11762	3.64789
C	0.349516	2.34817	-2.07602
O	0.161201	3.31696	-2.80098
O	-0.645361	1.46761	-1.75084
H	1.32373	2.10475	-1.62856
H	-0.337844	0.739956	-1.15926
C	1.54955	-0.656367	0.349786
O	2.33627	0.196422	-0.0161401
O	0.223999	-0.618934	-0.055288
H	1.79463	-1.50026	1.00482
H	-0.335314	-1.34461	0.287548
C	6.39295	0.2936	-0.00288003
O	6.95451	0.397682	1.07372
O	6.77784	-0.637946	-0.941045
H	5.5453	0.921893	-0.315358
H	6.23615	-0.604564	-1.75595
