20
  This energy is -0.00265563 and Call times are: 14620
C	-1.76071	1.31854	2.73663
O	-1.43829	0.156572	2.913
O	-1.05376	2.15462	1.9016
H	-2.62796	1.79402	3.21903
H	-1.4296	3.05768	1.85898
C	0.476053	-1.51917	-2.72239
O	0.323862	-2.14151	-3.76599
O	-0.351603	-1.67548	-1.64468
H	1.28216	-0.788901	-2.56284
H	-0.0995633	-1.10564	-0.879315
C	1.45799	0.79339	0.446159
O	2.11323	0.834936	-0.57806
O	0.359926	-0.0466322	0.551897
H	1.65759	1.38599	1.34631
H	-0.106372	-0.0138558	1.41123
C	5.71559	0.053337	-0.378996
O	5.07205	0.722185	0.410779
O	6.80895	-0.687236	0.0111237
H	5.4853	-0.0172706	-1.45272
H	7.22501	-1.17247	-0.730526
