20
  This energy is 0.00388401 and Call times are: 11696
C	2.78154	-1.10977	1.83282
O	2.75069	-1.58359	0.710421
O	2.19353	0.0987474	2.13249
H	3.27205	-1.59532	2.68988
H	2.2989	0.351261	3.07256
C	-2.91846	-0.0151104	-1.19509
O	-4.07408	-0.305935	-1.47713
O	-1.9689	-0.959229	-0.916045
H	-2.54797	1.01858	-1.14227
H	-1.08672	-0.568798	-0.707857
C	0.719139	1.52555	-0.331354
O	-0.215902	2.25658	-0.598529
O	0.56061	0.14816	-0.316349
H	1.7329	1.86297	-0.0869492
H	1.36577	-0.359772	-0.0912097
C	6.78213	0.0604432	0.0471687
O	6.94676	-0.300717	-1.10509
O	7.83302	0.204987	0.92513
H	5.79901	0.298541	0.480394
H	7.54909	0.501064	1.81413
