20
  This energy is -0.0137261 and Call times are: 22294
C	-2.67256	-2.17055	0.688452
O	-1.61044	-2.60219	1.10177
O	-2.90077	-0.822159	0.527712
H	-3.52695	-2.80668	0.412301
H	-3.79773	-0.625139	0.188249
C	2.45644	1.2241	-1.55351
O	3.33225	1.45468	-2.37775
O	1.9607	-0.0323741	-1.33807
H	1.99767	1.99835	-0.922138
H	1.26057	-0.0565062	-0.642907
C	-0.41951	1.06218	1.28454
O	0.106525	2.12027	0.995037
O	-0.0464253	-0.112452	0.649239
H	-1.20362	0.934126	2.03957
H	-0.522346	-0.913945	0.946017
C	5.06185	-0.242961	-0.0843299
O	5.34197	-0.441988	1.08493
O	5.78313	0.627161	-0.870906
H	4.22451	-0.7308	-0.605655
H	5.44232	0.684871	-1.78694
