20
  This energy is -0.000423774 and Call times are: 5803
C	0.597749	2.25064	2.62776
O	1.61783	1.96438	2.02549
O	-0.64241	2.19731	2.03175
H	0.576745	2.57084	3.68035
H	-1.36768	2.45437	2.63714
C	-0.245779	-2.76942	-1.48856
O	-0.26054	-3.96353	-1.75961
O	0.572379	-2.24283	-0.527199
H	-0.881772	-2.02523	-1.98882
H	0.469141	-1.26657	-0.425733
C	-0.625864	1.22964	-1.02496
O	-1.29596	0.634743	-1.84786
O	0.283202	0.551915	-0.226931
H	-0.669153	2.3088	-0.838347
H	0.777447	1.11088	0.405721
C	8.19292	0.36033	0.088145
O	9.24948	0.690001	-0.421983
O	7.85663	-0.960454	0.284383
H	7.42857	1.07402	0.43066
H	6.97893	-1.07212	0.703638
