20
  This energy is 0.000293225 and Call times are: 12946
C	2.04053	1.0663	-2.65086
O	2.15578	1.77581	-1.6667
O	1.65893	-0.253612	-2.55978
H	2.22728	1.40984	-3.67946
H	1.6092	-0.697062	-3.43126
C	-2.53567	-0.15294	1.86893
O	-3.63833	0.0161954	2.37401
O	-1.87914	0.834295	1.18685
H	-1.98381	-1.10241	1.91928
H	-1.00178	0.544944	0.83965
C	1.06688	-1.28072	0.419257
O	0.378571	-2.06368	1.04638
O	0.633491	0.0156304	0.18643
H	2.05148	-1.50749	-0.00551947
H	1.25185	0.574137	-0.326088
C	12.4514	-0.238599	-0.0451584
O	12.1136	0.741086	0.596231
O	13.7457	-0.41713	-0.479777
H	11.7663	-1.05171	-0.328662
H	13.868	-1.24875	-0.98184
