20
  This energy is -0.00161374 and Call times are: 3822
C	1.88216	2.92811	-0.459788
O	1.14703	2.70001	-1.40466
O	1.59906	2.48066	0.811315
H	2.81894	3.50042	-0.536173
H	2.27872	2.73952	1.46679
C	-0.763573	-3.0539	-0.191157
O	-0.7601	-4.25649	-0.422132
O	-0.142503	-2.1463	-1.00444
H	-1.26065	-2.60432	0.680254
H	-0.234303	-1.21685	-0.685507
C	-1.1034	0.774255	1.06644
O	-1.6105	-0.133039	1.69871
O	-0.397378	0.518244	-0.0991264
H	-1.1496	1.83486	1.33897
H	-0.0248752	1.30778	-0.540535
C	9.99453	-0.187235	-0.32801
O	9.84234	0.980258	-0.642724
O	9.57172	-0.677826	0.887152
H	10.4737	-0.938641	-0.973537
H	9.761	-1.63181	0.99985
