20
  This energy is 5.1903e-05 and Call times are: 11108
C	-1.83899	-2.90822	0.698699
O	-2.22485	-1.95207	1.34842
O	-1.21633	-2.76016	-0.520497
H	-1.95131	-3.9542	1.02152
H	-0.962467	-3.61479	-0.925176
C	2.24123	2.19662	0.312552
O	3.20982	2.84598	0.68634
O	1.49757	1.42722	1.16455
H	1.88917	2.17588	-0.728697
H	0.750573	0.965418	0.714253
C	-0.834922	0.276324	-1.47676
O	-0.0939948	0.994666	-2.12104
O	-0.642915	0.0986073	-0.115099
H	-1.68815	-0.277181	-1.88533
H	-1.28632	-0.495668	0.320606
C	18.6553	-0.161594	0.390358
O	17.8054	-0.696751	-0.299897
O	19.5304	0.771201	-0.119755
H	18.7967	-0.371563	1.46125
H	20.1558	1.11406	0.551005
