20
  This energy is -0.00604527 and Call times are: 4855
C	-1.53311	2.78596	-1.48856
O	-1.6135	2.81087	-0.272762
O	-0.515182	2.12647	-2.14046
H	-2.2521	3.2782	-2.16062
H	-0.580779	2.19269	-3.11509
C	0.256651	-2.88001	1.25921
O	0.0267497	-4.0104	1.67021
O	-0.686538	-1.88941	1.26279
H	1.23027	-2.56669	0.85615
H	-0.349749	-1.03526	0.900815
C	1.57828	0.645559	-0.21576
O	2.31706	-0.31951	-0.161659
O	0.266819	0.560297	0.226243
H	1.85861	1.63289	-0.600306
H	-0.253009	1.38497	0.144652
C	5.47426	0.358919	-0.0266437
O	6.50334	0.556031	-0.649056
O	5.21552	-0.841299	0.596734
H	4.67592	1.10713	0.0905772
H	4.35148	-0.853304	1.05705
