20
  This energy is -9.5822e-05 and Call times are: 20744
C	3.11532	-1.61259	0.148867
O	3.08622	-0.603019	0.830895
O	1.97754	-2.33203	-0.140887
H	4.03465	-2.03117	-0.287616
H	2.15472	-3.11758	-0.697765
C	-2.20791	2.02575	-0.983554
O	-2.82127	2.89912	-1.58406
O	-0.850204	2.05889	-0.820954
H	-2.68989	1.14895	-0.528054
H	-0.503623	1.28553	-0.315164
C	-0.728069	-1.12072	1.08082
O	-1.92177	-1.02708	0.865399
O	0.152991	-0.152288	0.624271
H	-0.249298	-1.93927	1.63041
H	1.09315	-0.310018	0.843804
C	7.28486	0.166059	0.231521
O	7.18244	0.650967	-0.881861
O	8.27657	-0.73534	0.547833
H	6.60783	0.400319	1.06678
H	8.23372	-1.0385	1.47781
