20
  This energy is -0.00152232 and Call times are: 19724
C	-1.23257	3.28537	0.122041
O	-0.485058	3.03903	1.05252
O	-1.14184	2.6253	-1.083
H	-2.03072	4.04193	0.160697
H	-1.80665	2.92845	-1.73472
C	0.16492	-3.09273	0.594764
O	-0.0554166	-4.22786	0.997865
O	-0.201896	-1.97791	1.29728
H	0.671061	-2.87354	-0.356208
H	0.0446232	-1.13738	0.842569
C	1.14719	0.384425	-1.22083
O	1.41669	-0.682854	-1.73888
O	0.497412	0.434608	0.0030273
H	1.37835	1.36762	-1.64648
H	0.32169	1.33492	0.342933
C	4.55347	-0.378368	-0.125925
O	5.75769	-0.399631	-0.312046
O	3.91412	0.722914	0.397987
H	3.88283	-1.22015	-0.355185
H	2.94792	0.594573	0.49061
