20
  This energy is -0.000556015 and Call times are: 20408
C	-2.37004	-1.44762	-2.14828
O	-1.62619	-0.679862	-2.73351
O	-1.98749	-2.10255	-0.999027
H	-3.39317	-1.6815	-2.47907
H	-2.68802	-2.68556	-0.641332
C	1.27694	2.12359	1.95083
O	1.47707	3.10497	2.65538
O	0.491357	2.16845	0.832011
H	1.70652	1.13227	2.15411
H	0.427334	1.29822	0.370887
C	0.974398	-1.41579	0.0186945
O	1.64396	-1.31691	1.02963
O	0.299459	-0.318879	-0.494926
H	0.841796	-2.33602	-0.561725
H	-0.213227	-0.491465	-1.30999
C	4.60921	-0.263047	0.27367
O	4.25911	0.862827	0.582035
O	5.46286	-0.500138	-0.780433
H	4.28121	-1.1725	0.799239
H	5.65468	-1.45159	-0.909071
