20
  This energy is 0.00082663 and Call times are: 15163
C	2.97383	-1.77832	-0.567176
O	3.0225	-1.11283	0.452629
O	1.78332	-2.23966	-1.08285
H	3.85884	-2.06434	-1.15528
H	1.89964	-2.75919	-1.90453
C	-2.03117	2.41161	-0.0661678
O	-2.56842	3.49371	-0.266173
O	-0.676198	2.27483	0.0612445
H	-2.58509	1.46663	0.0273076
H	-0.396211	1.34178	0.219533
C	-0.822543	-1.39245	0.582041
O	-2.0035	-1.13133	0.450683
O	0.136557	-0.393512	0.512652
H	-0.414708	-2.39413	0.759806
H	1.0596	-0.695648	0.629617
C	10.1888	-0.272017	0.314016
O	9.85352	0.769965	0.849821
O	10.2294	-0.409695	-1.05546
H	10.4832	-1.17772	0.865339
H	10.5168	-1.30116	-1.34063
