20
  This energy is -0.00966379 and Call times are: 6864
C	0.828516	-0.759714	-3.32629
O	-0.209791	-0.127049	-3.24324
O	1.81584	-0.672896	-2.3704
H	1.06525	-1.44309	-4.15566
H	2.59075	-1.2369	-2.57042
C	-1.35463	-0.320808	2.82983
O	-1.99913	-0.729714	3.78743
O	-1.71565	-0.577708	1.53578
H	-0.440062	0.281586	2.926
H	-1.09709	-0.180858	0.877054
C	1.14529	1.27891	0.0833625
O	1.35105	1.43259	1.27254
O	0.0501809	0.552373	-0.358717
H	1.77278	1.67865	-0.721472
H	-0.0355306	0.481007	-1.33059
C	4.18244	-0.252207	-0.126648
O	5.17207	-0.616773	-0.737362
O	4.22109	0.789889	0.77258
H	3.18958	-0.713706	-0.236837
H	3.35181	0.969208	1.18588
