20
  This energy is -0.00123877 and Call times are: 16369
C	2.31652	0.682807	2.54858
O	2.28308	-0.501171	2.26167
O	1.97319	1.6638	1.64534
H	2.61794	1.0662	3.53503
H	2.04819	2.56675	2.01636
C	-2.74206	-0.815968	-1.32712
O	-3.90437	-1.15064	-1.51841
O	-2.04069	-1.19377	-0.215252
H	-2.16775	-0.189743	-2.02467
H	-1.11724	-0.845665	-0.205348
C	1.05061	0.583266	-1.22893
O	0.317402	0.845412	-2.16369
O	0.60434	-0.200474	-0.175768
H	2.08787	0.922491	-1.12736
H	1.26178	-0.359186	0.531023
C	5.15922	0.254361	-0.240449
O	5.60963	0.953148	0.65066
O	5.4522	-1.0877	-0.335822
H	4.49167	0.625684	-1.03253
H	5.01983	-1.51884	-1.10119
