20
  This energy is -0.0029567 and Call times are: 20954
C	-2.32128	1.30738	-2.28697
O	-2.76589	1.26455	-1.15307
O	-0.971246	1.40581	-2.53953
H	-2.94608	1.27195	-3.19211
H	-0.763119	1.43008	-3.49593
C	1.47995	-2.15196	1.7677
O	1.83603	-3.1957	2.30003
O	0.191601	-1.9341	1.36322
H	2.15733	-1.30876	1.57083
H	0.0615031	-1.04617	0.952525
C	0.885358	1.47139	0.0736773
O	1.98679	1.14951	0.477823
O	-0.191498	0.604881	0.183738
H	0.642261	2.43144	-0.39588
H	-1.03763	0.947799	-0.167594
C	5.87784	0.209167	0.244016
O	6.36054	-0.89187	0.0440954
O	4.65855	0.578586	-0.278421
H	6.3632	0.990827	0.84762
H	4.39973	1.4907	-0.034161
