20
  This energy is 0.000201846 and Call times are: 18506
C	0.974359	2.57005	-2.18478
O	-0.0112457	1.97489	-2.58428
O	1.29238	2.64221	-0.846968
H	1.68399	3.09246	-2.84388
H	2.11056	3.15226	-0.676598
C	-0.191029	-2.9087	1.2037
O	-0.0514602	-4.10642	1.41716
O	-0.113509	-2.37072	-0.0514744
H	-0.388556	-2.17004	1.99359
H	-0.247773	-1.39301	-0.0607076
C	-0.731032	1.09754	1.10238
O	-0.775409	0.492759	2.15707
O	-0.494392	0.428906	-0.0890379
H	-0.866573	2.17937	0.990227
H	-0.475987	0.995507	-0.88628
C	13.4502	0.209008	0.338193
O	14.6186	0.536374	0.224654
O	12.8516	-0.676786	-0.52964
H	12.7825	0.584284	1.12827
H	11.9113	-0.844473	-0.314732
