20
  This energy is -0.000209436 and Call times are: 19556
C	-3.05266	-1.61593	-0.630748
O	-2.95593	-0.562034	-1.23505
O	-1.94802	-2.34714	-0.254997
H	-4.01183	-2.06841	-0.337212
H	-2.17984	-3.16983	0.222545
C	2.04624	1.96614	1.37591
O	2.57122	2.79989	2.10311
O	0.717452	2.00276	1.05358
H	2.59128	1.12515	0.923991
H	0.444579	1.2638	0.459019
C	0.867571	-1.04031	-1.05799
O	2.02548	-0.954971	-0.694598
O	-0.07502	-0.110186	-0.646949
H	0.469338	-1.82209	-1.71489
H	-0.979866	-0.257784	-0.988181
C	8.83166	-0.281726	0.170634
O	9.54964	0.0990503	1.0788
O	8.96828	0.189622	-1.11593
H	8.0263	-1.02123	0.29483
H	8.32314	-0.20574	-1.73729
