20
  This energy is -0.00826741 and Call times are: 13618
C	3.10135	1.59528	0.405556
O	2.67654	1.14103	1.45361
O	2.75095	1.06541	-0.81613
H	3.78899	2.4521	0.342875
H	3.16862	1.53274	-1.56829
C	-3.13436	-0.345632	-0.0476763
O	-4.34173	-0.150946	0.014848
O	-2.2364	0.347389	0.716715
H	-2.67244	-1.0861	-0.716187
H	-1.30142	0.077073	0.553099
C	0.716228	-1.40856	-0.676201
O	-0.183907	-1.94799	-1.29171
O	0.444244	-0.417377	0.254471
H	1.78203	-1.63848	-0.78797
H	1.229	-0.0405586	0.700713
C	6.38284	0.297858	0.279365
O	5.75666	0.522553	-0.741741
O	7.26851	-0.751899	0.377667
H	6.29831	0.901408	1.1956
H	7.69713	-0.808059	1.25615
