20
  This energy is 0.00138982 and Call times are: 16749
C	-1.05573	-3.33139	0.33922
O	-1.98972	-2.56739	0.168287
O	0.211501	-3.05115	-0.120835
H	-1.13968	-4.29399	0.865773
H	0.857982	-3.75564	0.0897942
C	0.715801	2.9496	0.856387
O	0.913201	3.9753	1.49557
O	-0.221403	2.023	1.2224
H	1.26858	2.68736	-0.0569812
H	-0.261982	1.25219	0.607406
C	0.504527	-0.235415	-1.62613
O	1.29708	0.663169	-1.83706
O	-0.34442	-0.189581	-0.530797
H	0.385421	-1.12956	-2.2487
H	-0.947295	-0.954698	-0.440764
C	8.14355	0.0263742	-0.398986
O	7.67182	1.11819	-0.133177
O	8.14751	-1.00887	0.508931
H	8.59928	-0.22488	-1.36856
H	8.55887	-1.82412	0.155719
