20
  This energy is -0.00202619 and Call times are: 10562
C	2.47431	-1.77161	-1.75128
O	2.70835	-0.576439	-1.70626
O	1.72027	-2.40556	-0.789198
H	2.83718	-2.43768	-2.54853
H	1.61649	-3.36458	-0.956855
C	-2.61684	1.69873	0.460869
O	-3.66099	2.31908	0.304407
O	-1.64814	1.63306	-0.502574
H	-2.37009	1.14684	1.37908
H	-0.86674	1.09661	-0.227518
C	0.611208	-0.489517	1.53005
O	-0.324014	-0.349988	2.29555
O	0.593096	0.0974144	0.273969
H	1.51943	-1.06486	1.74314
H	1.38705	-0.0683033	-0.272971
C	7.41833	0.243227	-0.347844
O	7.76493	-0.872927	-0.693267
O	7.0612	0.528482	0.951062
H	7.36089	1.1055	-1.02908
H	6.8062	1.46502	1.07941
