20
  This energy is -0.00040975 and Call times are: 9490
C	3.10244	-1.64367	0.031657
O	3.133	-0.614706	-0.620678
O	2.21216	-1.82728	1.06595
H	3.76994	-2.50074	-0.143819
H	2.30424	-2.70125	1.49757
C	-2.86426	0.835279	-1.02189
O	-3.90295	0.936146	-1.6626
O	-1.6655	0.531155	-1.60618
H	-2.8057	0.978805	0.0664748
H	-0.921749	0.486023	-0.959015
C	0.222918	0.63375	1.58206
O	-0.899555	0.896404	1.97086
O	0.470769	0.397256	0.238487
H	1.11011	0.560378	2.22143
H	1.40185	0.193879	0.0178152
C	15.7631	-0.31514	-0.277846
O	14.6377	-0.469635	0.163665
O	16.5719	0.722354	0.12901
H	16.2243	-0.977369	-1.02592
H	17.4466	0.718854	-0.310775
