20
  This energy is -0.000739488 and Call times are: 2917
C	1.91297	2.92652	0.322193
O	2.38885	2.15227	-0.489784
O	0.56724	2.94464	0.613331
H	2.50397	3.66544	0.883994
H	0.331229	3.61828	1.28349
C	-0.923057	-2.97047	0.519792
O	-1.02731	-4.11391	0.945529
O	0.274475	-2.31187	0.464511
H	-1.77347	-2.38055	0.149166
H	0.195797	-1.3992	0.0972634
C	-1.18249	0.777805	-0.975188
O	-2.17501	0.0819116	-0.871575
O	0.0601743	0.303449	-0.583617
H	-1.16838	1.80058	-1.36892
H	0.80059	0.931514	-0.703156
C	5.28222	-0.408552	0.0825525
O	5.40171	-0.273199	-1.12271
O	4.94193	0.641417	0.905861
H	5.4325	-1.36248	0.610128
H	4.88299	0.383166	1.84843
