20
  This energy is -0.00262572 and Call times are: 2216
C	0.617307	3.29839	-1.03314
O	1.64173	2.64426	-0.944139
O	-0.6043	2.71337	-1.28114
H	0.577554	4.3928	-0.925498
H	-1.33584	3.36257	-1.32576
C	-0.326413	-2.44264	1.96796
O	-0.38794	-3.1526	2.96382
O	0.484164	-1.3432	1.89664
H	-0.910838	-2.62526	1.0549
H	0.423184	-0.874973	1.02999
C	-0.534992	-0.479879	-1.56133
O	-1.20534	-1.4761	-1.36575
O	0.315638	0.00631836	-0.58021
H	-0.53406	0.107241	-2.48685
H	0.81483	0.811095	-0.82539
C	4.18309	-0.343532	-0.24938
O	3.64056	0.554881	-0.868865
O	4.7084	-0.150383	1.00872
H	4.29941	-1.36867	-0.632083
H	5.11204	-0.960618	1.38181
