20
  This energy is 0.00294541 and Call times are: 20912
C	-0.610517	-1.79698	2.95397
O	-0.0301304	-0.746444	3.16555
O	-1.42192	-1.97553	1.85587
H	-0.539608	-2.679	3.60813
H	-1.82046	-2.86901	1.81761
C	1.56546	1.01647	-2.54205
O	2.40658	1.19387	-3.41419
O	1.89574	0.675454	-1.25927
H	0.483865	1.1148	-2.71248
H	1.10829	0.568203	-0.674081
C	-1.62207	0.560299	-0.0959594
O	-1.77575	0.863648	-1.26406
O	-0.351995	0.363686	0.424433
H	-2.43102	0.41798	0.629741
H	-0.324603	0.122597	1.37211
C	7.44378	-0.0428131	0.345297
O	6.34324	0.295941	0.744426
O	7.71373	-0.218105	-0.993534
H	8.30285	-0.235036	1.00556
H	8.63868	-0.490508	-1.16345
