20
  This energy is -0.00750589 and Call times are: 16411
C	2.13707	-1.67665	-2.22477
O	1.05183	-2.22281	-2.12874
O	2.30049	-0.329355	-1.99202
H	3.06468	-2.20052	-2.50045
H	3.22628	-0.0321904	-2.10691
C	-1.43672	0.698898	2.71906
O	-1.79579	0.720993	3.88959
O	-1.01238	-0.444979	2.10069
H	-1.42439	1.58667	2.07076
H	-0.757054	-0.301627	1.15821
C	-0.373842	1.22434	-1.14695
O	-0.770321	2.16167	-0.480396
O	-0.276705	-0.0452537	-0.598079
H	-0.0675661	1.28328	-2.19767
H	0.0513539	-0.736734	-1.20734
C	4.73321	0.228582	0.316892
O	5.62891	0.905385	-0.157333
O	4.42305	-1.0204	-0.172925
H	4.10486	0.548391	1.16176
H	3.68232	-1.44475	0.306497
