20
  This energy is 0.000656619 and Call times are: 19304
C	2.15601	-1.40023	2.39139
O	0.992703	-1.41681	2.75426
O	2.50643	-1.4013	1.05975
H	3.01313	-1.38328	3.0813
H	3.47545	-1.38667	0.920536
C	-1.72382	2.19969	-1.46141
O	-2.26146	3.25077	-1.7866
O	-1.40506	1.9065	-0.163975
H	-1.45367	1.40924	-2.17609
H	-0.977497	1.02282	-0.0623962
C	0.0344624	-1.4101	-0.982182
O	-0.3004	-1.02569	-2.0868
O	-0.178148	-0.620935	0.137895
H	0.514929	-2.37177	-0.768556
H	0.12278	-1.01058	0.983227
C	13.5889	-0.100532	0.397554
O	13.917	1.07295	0.421286
O	13.6183	-0.844465	-0.760794
H	13.2468	-0.659364	1.28162
H	13.328	-1.76988	-0.626994
