20
  This energy is 0.00257068 and Call times are: 15961
C	-3.03219	-1.73051	0.372783
O	-2.06556	-2.45602	0.529373
O	-2.97553	-0.375585	0.611592
H	-4.01679	-2.08593	0.0334488
H	-3.82711	0.0771572	0.443001
C	2.57105	1.13362	-1.43197
O	3.42869	1.42288	-2.2568
O	1.83099	-0.0139691	-1.51099
H	2.32417	1.7642	-0.56594
H	1.18163	-0.105374	-0.773431
C	-0.11074	0.704303	1.56395
O	0.612347	1.68145	1.51485
O	-0.03322	-0.284618	0.595147
H	-0.860883	0.51394	2.34006
H	-0.652185	-1.03257	0.715221
C	7.78749	-0.147176	0.276006
O	6.93683	-1.01397	0.174606
O	7.71271	1.0359	-0.424568
H	8.67348	-0.230569	0.923287
H	8.46546	1.63495	-0.24257
