20
  This energy is 8.4937e-05 and Call times are: 12820
C	-3.39671	0.0266687	-0.888511
O	-3.06044	1.05263	-0.323212
O	-2.50262	-0.743986	-1.59757
H	-4.424	-0.367744	-0.883078
H	-2.91551	-1.53702	-1.99658
C	2.55643	-0.425875	1.797
O	3.31756	-0.703659	2.7152
O	1.26813	-0.0170409	2.00684
H	2.83935	-0.480365	0.73608
H	0.78165	0.169633	1.16867
C	0.510404	0.352283	-1.60301
O	1.66787	-0.019693	-1.64767
O	-0.134698	0.518138	-0.386912
H	-0.111328	0.58317	-2.47561
H	-1.06325	0.819946	-0.447525
C	7.03297	0.405743	0.106631
O	6.0578	0.0560332	-0.535234
O	8.082	-0.447754	0.365783
H	7.15997	1.41431	0.528014
H	8.79355	-0.0285413	0.891668
