20
  This energy is -0.00441162 and Call times are: 12299
C	1.27754	2.70844	-1.83304
O	1.96287	1.70771	-1.95184
O	-0.0666657	2.64348	-1.54156
H	1.66364	3.73271	-1.94576
H	-0.485754	3.52596	-1.47671
C	-0.375229	-1.98224	2.42402
O	-0.294032	-2.54502	3.50857
O	0.673109	-1.30294	1.86684
H	-1.28764	-1.97418	1.81081
H	0.45247	-0.904543	0.991272
C	-1.22029	-0.324407	-1.16615
O	-2.0653	-0.957219	-0.561503
O	0.0513874	-0.156245	-0.639733
H	-1.36914	0.154479	-2.14073
H	0.664467	0.366328	-1.19473
C	4.4212	0.134008	0.291209
O	4.491	1.01683	-0.546048
O	5.15754	-1.02548	0.194007
H	3.77664	0.183342	1.18172
H	4.99837	-1.64166	0.938044
