20
  This energy is -0.00450036 and Call times are: 14277
C	-1.50239	-1.52551	-2.7827
O	-2.32386	-1.04437	-2.02182
O	-0.215744	-1.04277	-2.86966
H	-1.71099	-2.37157	-3.4547
H	0.329899	-1.52729	-3.52244
C	1.13116	0.288032	2.92975
O	1.47875	0.0740739	4.0843
O	0.0801953	-0.363164	2.34468
H	1.62813	1.01402	2.27055
H	-0.0763675	-0.0818295	1.41174
C	0.441975	1.39787	-0.897146
O	1.3482	1.90049	-0.259797
O	-0.375495	0.433427	-0.327805
H	0.190427	1.64289	-1.93541
H	-1.07724	0.085642	-0.913953
C	3.97985	0.0964712	0.405965
O	4.60419	0.899864	-0.264853
O	3.20254	-0.885793	-0.16589
H	3.9813	0.0842715	1.50631
H	2.76107	-1.45626	0.496134
