20
  This energy is 4.017e-05 and Call times are: 21038
C	-0.642344	3.156	-1.39817
O	-1.45165	2.31916	-1.75869
O	0.0305176	3.05409	-0.201115
H	-0.382091	4.04978	-1.98496
H	0.647421	3.79839	-0.0460048
C	1.15051	-2.92787	0.223214
O	1.73227	-3.98407	0.00973792
O	0.657193	-2.14284	-0.782405
H	0.976146	-2.5234	1.23047
H	0.214984	-1.32502	-0.451276
C	-0.67197	0.441222	1.51922
O	-0.189009	-0.34594	2.31119
O	-0.609284	0.202826	0.154746
H	-1.18105	1.37372	1.78861
H	-1.02364	0.889118	-0.405864
C	9.30128	0.179185	-0.372341
O	10.5178	0.116085	-0.335895
O	8.51432	-0.278032	0.660966
H	8.73428	0.598628	-1.21702
H	7.55707	-0.16194	0.491304
