20
  This energy is 6.4865e-05 and Call times are: 8902
C	0.165684	3.00905	-1.80165
O	-0.705256	3.02984	-0.949438
O	1.28058	2.20894	-1.68806
H	0.139718	3.61542	-2.71956
H	1.89233	2.29752	-2.44734
C	-0.959975	-2.90163	0.777762
O	-1.52396	-3.98831	0.802884
O	-1.55055	-1.77731	0.269806
H	0.058675	-2.73718	1.15708
H	-0.970122	-0.980708	0.32035
C	1.37267	0.396716	0.955329
O	1.77711	-0.671567	1.374
O	0.10383	0.509258	0.40766
H	1.94084	1.33391	0.966928
H	-0.136164	1.40538	0.0972698
C	28.7472	0.182215	0.151136
O	29.6578	0.551273	0.87224
O	28.9562	-0.663569	-0.915198
H	27.698	0.485604	0.284815
H	28.1333	-0.872998	-1.4026
