20
  This energy is -0.00549478 and Call times are: 16538
C	-1.45922	-1.15588	2.97698
O	-0.597547	-1.91161	2.5627
O	-1.45101	0.190481	2.68833
H	-2.30379	-1.47518	3.606
H	-2.2045	0.670763	3.08857
C	0.465045	0.327165	-3.10203
O	0.377653	0.247274	-4.32087
O	0.0933616	-0.692026	-2.26897
H	0.845597	1.21513	-2.57738
H	0.223558	-0.476715	-1.31465
C	0.973626	1.15222	0.82384
O	1.26547	1.97357	-0.0248607
O	0.460062	-0.0851039	0.466274
H	1.08088	1.29784	1.90485
H	0.254385	-0.680928	1.21438
C	4.61747	0.337261	-0.244814
O	3.73075	0.29658	0.590249
O	5.6331	-0.591951	-0.278429
H	4.68458	1.10454	-1.03075
H	6.27186	-0.432478	-1.0031
