20
  This energy is -0.000405294 and Call times are: 15457
C	1.9968	1.45155	2.49672
O	2.46295	1.61302	1.38233
O	0.647258	1.27554	2.70609
H	2.60025	1.43234	3.41671
H	0.420252	1.15803	3.65121
C	-1.02404	-2.18063	-2.03521
O	-1.1714	-3.20783	-2.68539
O	0.19416	-1.77773	-1.56134
H	-1.84892	-1.50064	-1.77877
H	0.150479	-0.930667	-1.05677
C	-1.14003	1.28555	0.0442018
O	-2.15538	0.814851	-0.432876
O	0.0800613	0.645851	-0.113039
H	-1.08708	2.21725	0.619032
H	0.841652	1.09652	0.303915
C	8.19733	-0.147445	-0.0296505
O	7.62822	-0.860365	0.778495
O	7.56078	0.901134	-0.655232
H	9.24941	-0.275181	-0.325806
H	8.14263	1.38376	-1.27743
