20
  This energy is 0.000790591 and Call times are: 12010
C	-0.888054	3.34346	-0.600367
O	-1.01625	2.64757	-1.59261
O	-0.970177	2.82412	0.672275
H	-0.699046	4.42706	-0.631882
H	-0.847281	3.50103	1.3689
C	1.81915	-2.57337	0.119941
O	2.7593	-3.35516	0.0529344
O	1.69136	-1.50193	-0.72065
H	1.00524	-2.66377	0.853388
H	0.881745	-0.966479	-0.542212
C	-1.48058	-0.338487	0.804715
O	-1.24661	-1.32175	1.48187
O	-0.622663	0.0394648	-0.216897
H	-2.35007	0.317705	0.92595
H	-0.890401	0.84202	-0.708011
C	11.2667	0.28592	0.307063
O	11.5874	-0.794363	0.771148
O	10.7939	0.417488	-0.979473
H	11.3251	1.23366	0.863195
H	10.5769	1.34321	-1.21308
