20
  This energy is -0.000107519 and Call times are: 10646
C	1.10466	2.58468	2.10403
O	2.03024	1.99299	1.57636
O	-0.145255	2.64723	1.52969
H	1.18322	3.11123	3.06709
H	-0.78671	3.15553	2.06706
C	-0.812865	-2.91695	-0.881231
O	-1.05986	-4.11623	-0.898326
O	0.124576	-2.37022	-0.04865
H	-1.31753	-2.18372	-1.52641
H	0.208789	-1.39238	-0.152409
C	-0.424063	1.09026	-1.25927
O	-1.22365	0.478119	-1.94193
O	0.372272	0.429851	-0.336085
H	-0.258632	2.17294	-1.301
H	0.985368	1.00202	0.167604
C	7.11969	0.405688	-0.0972487
O	8.26936	0.193435	-0.441421
O	6.33884	-0.568485	0.483552
H	6.61293	1.37506	-0.217325
H	5.43914	-0.253198	0.7066
