20
  This energy is -0.00076052 and Call times are: 13919
C	-0.880971	-1.62156	2.98701
O	-0.60928	-0.446719	3.16354
O	-1.3531	-2.08944	1.78108
H	-0.775502	-2.39792	3.75971
H	-1.52734	-3.05287	1.7878
C	1.85877	1.13719	-2.27984
O	2.82179	1.43599	-2.97474
O	1.94473	1.00244	-0.921404
H	0.852675	0.953349	-2.68301
H	1.08465	0.758953	-0.503064
C	-1.63611	0.137182	-0.508509
O	-1.57348	0.288806	-1.71399
O	-0.512223	0.303172	0.286402
H	-2.54191	-0.132915	0.0463439
H	-0.656294	0.161292	1.24352
C	5.53915	0.251582	-0.33689
O	4.62244	0.483246	0.432011
O	6.51911	-0.671895	-0.0488957
H	5.66339	0.749458	-1.31033
H	7.18884	-0.750991	-0.758697
