20
  This energy is 0.000184852 and Call times are: 8776
C	3.45925	0.108147	-0.59132
O	2.89539	-0.704117	-1.30373
O	2.80962	1.21149	-0.0846797
H	4.51647	0.0341554	-0.29514
H	3.38863	1.77355	0.469793
C	-2.73214	-0.965834	1.24437
O	-3.58744	-1.54906	1.8985
O	-1.56529	-1.56546	0.857327
H	-2.82682	0.0787569	0.915075
H	-0.978674	-0.966774	0.336297
C	-0.28449	1.44049	-0.893485
O	-1.35579	1.84969	-0.487331
O	0.122938	0.140881	-0.633522
H	0.433719	2.02726	-1.47758
H	0.997713	-0.100651	-0.998763
C	23.2733	-0.404189	-0.0326804
O	24.478	-0.408233	-0.217118
O	22.5768	0.755836	0.222959
H	22.647	-1.30872	-0.0534824
H	21.6179	0.604624	0.349899
