20
  This energy is 0.00169541 and Call times are: 15499
C	2.70627	-1.90299	1.17581
O	1.91289	-2.57458	0.539595
O	2.85185	-0.549879	0.966141
H	3.36396	-2.30943	1.95886
H	3.52518	-0.143972	1.54964
C	-2.87604	1.29334	-0.0399012
O	-4.01547	1.64003	0.244831
O	-2.34088	0.106821	0.380424
H	-2.19189	1.89892	-0.651285
H	-1.41415	-0.0295962	0.0696188
C	0.923095	0.678787	-1.28117
O	0.328591	1.69567	-1.58548
O	0.313453	-0.292908	-0.502259
H	1.9507	0.437445	-1.57624
H	0.866558	-1.07592	-0.3075
C	9.66013	0.325604	-0.269968
O	10.5269	-0.396172	-0.731505
O	9.01227	0.0284752	0.908191
H	9.32441	1.26036	-0.743702
H	8.34187	0.698348	1.15403
