20
  This energy is 0.000629038 and Call times are: 15373
C	2.26648	2.5822	0.723286
O	2.04158	2.48779	-0.470762
O	1.35637	2.17493	1.67297
H	3.19798	2.99297	1.14099
H	1.67415	2.31168	2.58889
C	-1.00337	-2.88419	-0.78777
O	-1.06029	-4.06854	-1.09379
O	0.0490201	-2.08336	-1.13711
H	-1.7845	-2.36749	-0.212078
H	-0.0508922	-1.15471	-0.818293
C	-1.35511	0.934929	0.4938
O	-2.22274	0.117411	0.73664
O	-0.225933	0.57762	-0.227202
H	-1.37497	1.98588	0.804277
H	0.417824	1.29929	-0.374635
C	11.347	0.280593	0.19423
O	10.6118	-0.480177	-0.410829
O	12.7172	0.146528	0.170387
H	10.9889	1.12558	0.801435
H	13.1763	0.828698	0.701885
