20
  This energy is 0.000337072 and Call times are: 5635
C	-0.687809	-2.70505	2.13013
O	-0.738238	-3.02053	0.954044
O	0.0861112	-1.65574	2.57293
H	-1.24485	-3.21994	2.92731
H	0.0269014	-1.52024	3.54078
C	-0.565002	2.48017	-1.86426
O	-1.10463	3.37794	-2.49859
O	-1.18218	1.28696	-1.60687
H	0.45107	2.55443	-1.45116
H	-0.619125	0.6664	-1.08542
C	1.69376	-0.104959	0.272782
O	2.12353	0.993469	-0.0252814
O	0.420663	-0.496732	-0.112304
H	2.24082	-0.860807	0.847858
H	0.159582	-1.39579	0.171408
C	8.95161	0.00937571	-0.396758
O	8.36413	1.06418	-0.230929
O	9.03425	-0.944701	0.592675
H	9.45832	-0.269447	-1.33292
H	9.53619	-1.73846	0.315889
