20
  This energy is -0.00185228 and Call times are: 11570
C	0.207899	-2.05447	-2.83967
O	-0.825334	-2.23115	-2.21801
O	0.889407	-0.858625	-2.8001
H	0.679199	-2.81914	-3.47533
H	1.70069	-0.863883	-3.34819
C	0.27785	0.861995	3.02087
O	0.521205	0.887258	4.22075
O	-0.0262679	-0.293781	2.3556
H	0.282628	1.75613	2.38129
H	-0.19755	-0.151399	1.39413
C	-0.432287	1.38206	-0.925907
O	-0.150604	2.32966	-0.216827
O	-0.516459	0.10232	-0.398889
H	-0.638278	1.43878	-2.00092
H	-0.748371	-0.597024	-1.0424
C	7.67022	0.183323	0.376765
O	7.49104	1.09114	-0.416337
O	7.62681	-1.13924	-0.00404564
H	7.8785	0.336054	1.44644
H	7.78906	-1.75549	0.739267
