20
  This energy is -0.000353646 and Call times are: 8188
C	3.17367	-0.15297	-1.49406
O	3.22959	-0.263077	-0.281627
O	2.05433	-0.514307	-2.21
H	3.99589	0.237107	-2.1127
H	2.15481	-0.369959	-3.17315
C	-2.51401	1.27093	1.41788
O	-3.30976	2.04859	1.92936
O	-1.16118	1.46839	1.4599
H	-2.81451	0.356704	0.886419
H	-0.653289	0.75551	1.00398
C	-0.378403	-1.6186	-0.437283
O	-1.59324	-1.67273	-0.400732
O	0.302665	-0.566201	0.155313
H	0.271094	-2.35886	-0.91838
H	1.27693	-0.605559	0.0763974
C	13.0158	0.242087	0.274464
O	13.8097	-0.0828712	-0.591211
O	11.7005	-0.164913	0.250154
H	13.2736	0.876908	1.13553
H	11.1828	0.173121	1.00928
