20
  This energy is 0.00312057 and Call times are: 505
C	-0.463185	-1.94503	-2.88619
O	0.489137	-2.32116	-2.22525
O	-1.52951	-1.28242	-2.32053
H	-0.554417	-2.09809	-3.97208
H	-2.2188	-1.04238	-2.97311
C	1.14367	2.29571	1.83512
O	1.74793	3.27182	2.26133
O	1.63612	1.50449	0.833937
H	0.163798	1.97415	2.21593
H	1.03424	0.75766	0.601546
C	-1.28149	-0.782231	0.836755
O	-1.60019	-0.00141269	1.71359
O	-0.0806608	-0.635992	0.159123
H	-1.8805	-1.63917	0.507917
H	0.0921919	-1.30949	-0.528983
C	5.18183	-0.378711	0.0632877
O	3.98374	-0.546576	0.210373
O	5.71478	0.852426	-0.247091
H	5.92983	-1.17959	0.16329
H	6.68983	0.834772	-0.334114
