20
  This energy is -0.000196967 and Call times are: 11234
C	1.48406	-0.645847	-3.1158
O	2.31159	-0.494181	-2.23408
O	0.208189	-1.09154	-2.85203
H	1.67832	-0.444332	-4.18003
H	-0.344186	-1.16451	-3.65711
C	-1.13942	1.68308	2.41141
O	-1.49709	2.59528	3.14593
O	-0.0993499	1.81056	1.53226
H	-1.61788	0.693445	2.395
H	0.0676554	0.989269	1.0111
C	-0.408321	-1.65164	0.244155
O	-1.30703	-1.62998	1.06387
O	0.386058	-0.53495	0.033155
H	-0.146587	-2.51282	-0.381268
H	1.0833	-0.643726	-0.644332
C	16.2539	-0.101849	0.385691
O	16.4953	-1.15559	-0.176942
O	16.4597	1.11588	-0.223258
H	15.8577	-0.0305386	1.40985
H	16.2214	1.87354	0.349248
