20
  This energy is 0.00147754 and Call times are: 17960
C	-1.23716	-1.11048	-3.09258
O	-2.13026	-0.865561	-2.30034
O	-0.00711622	-0.495786	-3.02043
H	-1.33176	-1.8301	-3.91969
H	0.608623	-0.791645	-3.72181
C	0.995247	-0.162845	2.98812
O	1.32479	-0.556585	4.09985
O	0.0398717	-0.791485	2.23781
H	1.43379	0.720281	2.50198
H	-0.114452	-0.355149	1.36613
C	0.320245	1.57921	-0.598165
O	1.14587	2.03854	0.16828
O	-0.408367	0.44863	-0.261304
H	0.0789304	1.99069	-1.58495
H	-1.04901	0.150965	-0.938017
C	6.61775	0.168032	0.0783611
O	7.36837	0.617083	0.926986
O	7.0516	-0.70749	-0.891849
H	5.54786	0.416902	0.0127247
H	6.3383	-0.9828	-1.50342
