20
  This energy is -0.00733998 and Call times are: 21468
C	-1.75249	1.70513	-2.51975
O	-1.6666	0.51069	-2.74599
O	-1.71551	2.21115	-1.23965
H	-1.865	2.47066	-3.30218
H	-1.79544	3.18659	-1.21287
C	2.44819	-1.31135	1.4942
O	3.56679	-1.70018	1.80583
O	2.05036	-1.1811	0.192027
H	1.67516	-1.03626	2.22586
H	1.12217	-0.857705	0.103111
C	-1.34828	0.0135229	1.06594
O	-0.869042	-0.146845	2.17261
O	-0.605438	-0.253541	-0.0739845
H	-2.36579	0.368057	0.865282
H	-1.07168	-0.0960675	-0.919438
C	6.93074	0.309915	0.288961
O	8.05429	0.142162	-0.152332
O	5.85511	-0.42935	-0.149889
H	6.68024	1.05204	1.06188
H	5.01755	-0.184259	0.293979
