20
  This energy is -0.000452169 and Call times are: 8062
C	1.8956	-0.117073	2.9531
O	1.99821	0.954701	2.38212
O	0.782746	-0.915951	2.81375
H	2.66732	-0.533941	3.61761
H	0.841611	-1.74523	3.3309
C	-0.649971	-0.234822	-3.07706
O	-0.579294	-0.427542	-4.28431
O	0.42641	0.157931	-2.33003
H	-1.57442	-0.359363	-2.4953
H	0.210844	0.272015	-1.37372
C	-1.47167	0.247116	0.852874
O	-2.3412	-0.0999824	0.0760107
O	-0.179389	0.485476	0.41042
H	-1.61249	0.399633	1.92907
H	0.452789	0.760334	1.10452
C	11.1498	0.40603	0.114693
O	10.0207	0.0926558	0.449874
O	11.9999	-0.480229	-0.508116
H	11.5822	1.40491	0.276415
H	12.8723	-0.088374	-0.717708
