20
  This energy is 0.000921978 and Call times are: 22504
C	-0.252143	2.54145	-2.4094
O	-0.982948	2.73824	-1.45419
O	0.903283	1.79969	-2.30522
H	-0.446157	2.93095	-3.42013
H	1.38727	1.72682	-3.15319
C	-0.693144	-2.67145	1.52604
O	-1.19516	-3.73293	1.87362
O	-1.40629	-1.6936	0.88876
H	0.362599	-2.41511	1.69417
H	-0.862904	-0.898257	0.673855
C	1.48219	0.613855	0.616902
O	1.99534	-0.331249	1.18571
O	0.140808	0.587629	0.266789
H	2.00094	1.53764	0.336188
H	-0.185426	1.39061	-0.186815
C	8.28678	-0.286393	-0.127386
O	7.84112	-0.696803	0.930062
O	7.85801	0.893817	-0.69248
H	9.05605	-0.811465	-0.713406
H	8.30435	1.09474	-1.54043
