20
  This energy is -0.00013005 and Call times are: 17127
C	-3.08081	1.67392	0.185576
O	-2.66197	1.35679	1.28523
O	-2.23923	1.89103	-0.882454
H	-4.14728	1.81236	-0.0476308
H	-2.71721	2.13897	-1.70017
C	2.01617	-2.41995	-0.157606
O	2.51106	-3.53815	-0.222977
O	0.821025	-2.17897	0.462441
H	2.48429	-1.52262	-0.586836
H	0.55572	-1.22885	0.432019
C	0.874463	1.45813	-0.25186
O	1.91915	1.10702	-0.767073
O	0.0508086	0.538424	0.379248
H	0.494991	2.48622	-0.234122
H	-0.767712	0.910414	0.764759
C	9.25623	-0.19923	-0.341162
O	9.75658	-0.74083	0.629177
O	8.36938	0.846914	-0.218023
H	9.46406	-0.4917	-1.38144
H	8.05079	1.18027	-1.08172
