20
  This energy is 0.00204419 and Call times are: 21340
C	-1.40714	-2.77871	-1.62067
O	-1.68147	-2.75017	-0.433583
O	-1.12027	-1.63531	-2.3323
H	-1.36495	-3.70191	-2.21802
H	-0.91899	-1.81275	-3.27389
C	2.09602	1.67644	1.65594
O	3.0816	2.03546	2.28786
O	1.6421	0.386231	1.67038
H	1.49712	2.35244	1.02912
H	0.838908	0.253974	1.11233
C	-1.19405	1.07193	-0.616029
O	-0.687433	2.17542	-0.540352
O	-0.65639	-0.00399894	0.0738075
H	-2.08328	0.826101	-1.20774
H	-1.12923	-0.851942	-0.0461374
C	5.96076	-0.1191	0.403254
O	4.81156	0.280825	0.335019
O	6.79714	-0.129893	-0.690558
H	6.42357	-0.49965	1.32624
H	7.68901	-0.477653	-0.485064
