20
  This energy is -0.0195411 and Call times are: 21972
C	1.88196	-2.66676	-1.29398
O	1.10132	-3.02981	-0.431404
O	1.65544	-1.54487	-2.05956
H	2.81868	-3.19224	-1.53345
H	2.36729	-1.37752	-2.7106
C	-0.796325	2.3564	1.93885
O	-0.81343	3.18512	2.84024
O	-0.206952	1.1299	2.07757
H	-1.24816	2.52437	0.950827
H	-0.276132	0.574875	1.26444
C	-1.04567	0.0362355	-1.36365
O	-1.52972	1.15232	-1.35244
O	-0.397414	-0.466791	-0.245927
H	-1.07043	-0.652768	-2.21567
H	-0.0397623	-1.37181	-0.345899
C	3.54539	0.326708	0.116347
O	3.91966	-0.00204831	-0.995896
O	2.51427	-0.319072	0.761194
H	3.98885	1.15222	0.693208
H	2.32501	0.0541316	1.64635
