20
  This energy is -7.4224e-05 and Call times are: 5551
C	0.380584	-2.64904	-2.27278
O	0.989081	-1.65225	-2.62118
O	0.09799	-2.90798	-0.950223
H	0.0100158	-3.41583	-2.96965
H	-0.395639	-3.7438	-0.822442
C	-1.20643	2.62312	1.26874
O	-1.88942	3.61271	1.50069
O	-0.994362	2.15571	0.000886321
H	-0.709924	2.03102	2.05071
H	-0.423014	1.35133	-0.022801
C	1.12734	-0.675292	1.10786
O	0.860114	-0.156734	2.17547
O	0.638782	-0.148844	-0.0781956
H	1.75059	-1.56766	0.979298
H	0.904804	-0.63085	-0.88682
C	4.7663	-0.242008	-0.259433
O	3.99393	0.542438	0.263381
O	6.11394	-0.239156	0.0232686
H	4.46218	-1.00726	-0.989363
H	6.60858	-0.924494	-0.470946
