20
  This energy is -0.00869114 and Call times are: 14430
C	-1.86844	2.75556	-1.11517
O	-1.81042	1.87001	-1.95044
O	-1.75379	2.49779	0.232601
H	-2.01468	3.81879	-1.3582
H	-1.81975	3.30541	0.782147
C	2.51085	-1.86045	0.424594
O	3.64007	-2.33416	0.418626
O	2.04276	-1.06062	-0.581421
H	1.78333	-2.03495	1.2301
H	1.11522	-0.757792	-0.433102
C	-1.28651	-0.58542	0.977979
O	-0.748422	-1.30438	1.79874
O	-0.61178	-0.186037	-0.165611
H	-2.30905	-0.19816	1.05364
H	-1.12238	0.390817	-0.768522
C	5.40871	0.163301	-0.0266774
O	5.91338	0.64785	0.971199
O	6.08463	-0.729891	-0.827552
H	4.38846	0.39148	-0.370102
H	5.55379	-1.03384	-1.59203
