20
  This energy is -0.000195457 and Call times are: 19178
C	0.28284	-1.68326	3.06829
O	-0.515965	-0.764255	3.11905
O	0.570002	-2.33801	1.89147
H	0.83494	-2.06441	3.94054
H	1.22919	-3.05312	2.00414
C	0.562409	2.17636	-2.21202
O	1.00521	3.12918	-2.84103
O	0.500376	2.16107	-0.845708
H	0.180537	1.26069	-2.68561
H	0.119072	1.32463	-0.486548
C	-0.990125	-1.22902	-0.680746
O	-0.878639	-1.0849	-1.88361
O	-0.588	-0.230616	0.193348
H	-1.39933	-2.11841	-0.187971
H	-0.715064	-0.433559	1.14184
C	12.0335	-0.0296745	0.422477
O	11.7201	-1.13875	0.0262924
O	12.2131	1.03019	-0.438044
H	12.1977	0.219089	1.48175
H	12.4629	1.85722	0.0226845
