20
  This energy is 0.000326074 and Call times are: 20786
C	0.709939	-3.42465	-0.30906
O	1.49061	-2.73366	-0.94019
O	0.0513354	-2.95284	0.804357
H	0.466371	-4.46628	-0.56713
H	-0.542469	-3.61913	1.20691
C	-1.22798	2.81517	-0.716099
O	-1.84173	3.7313	-1.24863
O	-0.727224	1.75617	-1.42226
H	-1.02839	2.76487	0.36381
H	-0.257925	1.10067	-0.85297
C	0.705143	0.0925666	1.56476
O	0.211683	1.08418	2.06803
O	0.616778	-0.128091	0.198718
H	1.2436	-0.690002	2.11152
H	1.04211	-0.950464	-0.117143
C	9.17733	-0.263105	-0.0845664
O	10.1649	-0.757605	-0.599805
O	9.23243	0.924394	0.610328
H	8.17361	-0.712092	-0.1276
H	8.36278	1.19777	0.96752
