20
  This energy is 0.00286108 and Call times are: 14784
C	2.20128	1.04862	-2.52637
O	2.22636	1.78768	-1.55766
O	1.84746	-0.278226	-2.42453
H	2.45399	1.36884	-3.54838
H	1.87276	-0.746555	-3.28397
C	-2.66082	-0.170856	1.68426
O	-3.80136	-0.0181071	2.10308
O	-1.98131	0.814886	1.02285
H	-2.09035	-1.10318	1.80219
H	-1.0739	0.540186	0.748655
C	1.06535	-1.23918	0.532667
O	0.353007	-2.02317	1.13101
O	0.617574	0.0380067	0.231234
H	2.08376	-1.45054	0.187059
H	1.25745	0.598939	-0.251341
C	6.57988	-0.0525216	-0.0351359
O	6.74346	0.922671	0.677245
O	7.63813	-0.75951	-0.560838
H	5.59202	-0.447409	-0.316361
H	7.35412	-1.51671	-1.11274
