20
  This energy is -0.00407971 and Call times are: 10323
C	0.00777477	3.46852	0.545057
O	1.13367	3.00233	0.52879
O	-1.03826	2.87659	-0.126878
H	-0.268177	4.38556	1.0871
H	-1.88182	3.36262	-0.0230354
C	0.0139583	-3.07627	0.694482
O	0.0125673	-4.15117	1.28113
O	0.581224	-1.94965	1.22347
H	-0.435617	-2.92512	-0.297287
H	0.501999	-1.16391	0.631561
C	-0.2816	0.179096	-1.68609
O	-0.744867	-0.889586	-2.03736
O	0.358044	0.306888	-0.462532
H	-0.319979	1.10525	-2.27094
H	0.698847	1.20209	-0.263959
C	4.29987	-0.0340008	0.423479
O	3.18897	0.358857	0.112347
O	5.2768	-0.282067	-0.514676
H	4.61536	-0.221858	1.46082
H	6.11649	-0.592004	-0.117857
