20
  This energy is 8.4628e-05 and Call times are: 3738
C	-2.16717	0.303726	2.74571
O	-1.05629	-0.0738291	3.07532
O	-2.37663	1.05793	1.61285
H	-3.08368	0.0803239	3.3123
H	-3.31868	1.28699	1.47616
C	1.53351	-1.3804	-2.38511
O	1.94666	-2.18409	-3.21153
O	1.12936	-1.75409	-1.13294
H	1.45245	-0.300744	-2.57573
H	0.823543	-0.993338	-0.583613
C	0.266222	1.69584	-0.0867266
O	0.653667	1.89019	-1.22348
O	0.249577	0.416548	0.447784
H	-0.0919955	2.47278	0.598349
H	-0.0773435	0.355438	1.36776
C	10.018	0.2464	0.345623
O	11.125	-0.247789	0.220992
O	8.99344	-0.0241749	-0.533717
H	9.7435	0.938992	1.1555
H	8.16349	0.443429	-0.307589
