20
  This energy is 0.000876579 and Call times are: 5677
C	0.51069	-0.171517	3.46952
O	0.414916	0.977344	3.07432
O	-0.0759068	-1.22472	2.80413
H	1.06324	-0.464197	4.37503
H	0.0859757	-2.08738	3.23797
C	0.720083	0.259775	-3.0594
O	1.31517	0.369684	-4.12399
O	1.19484	0.792096	-1.89229
H	-0.236794	-0.270404	-2.95047
H	0.603197	0.61986	-1.12137
C	-1.66201	-0.41599	0.137604
O	-1.96784	-0.835359	-0.96271
O	-0.490756	0.302808	0.322144
H	-2.25096	-0.555937	1.0513
H	-0.32646	0.600004	1.23956
C	10.7835	0.251864	0.331778
O	11.5193	0.617837	-0.568236
O	9.89777	-0.790488	0.173667
H	10.7616	0.712195	1.33104
H	9.37353	-0.971001	0.980627
