20
  This energy is -0.00015825 and Call times are: 22252
C	-1.29665	1.51222	-2.89131
O	-1.8962	1.85114	-1.88587
O	0.0173308	1.10204	-2.85553
H	-1.74251	1.50379	-3.89732
H	0.365554	0.860818	-3.73823
C	0.296075	-2.11525	2.32034
O	0.15819	-3.08676	3.05296
O	-0.743603	-1.56782	1.62013
H	1.2568	-1.60437	2.16354
H	-0.474258	-0.790311	1.07519
C	1.33953	1.07502	0.0652914
O	2.16967	0.493981	0.738602
O	0.0171839	0.658058	0.0545506
H	1.54072	1.94461	-0.570813
H	-0.579194	1.18419	-0.515087
C	7.24364	-0.159832	0.391203
O	6.41346	0.72833	0.476114
O	7.84856	-0.483277	-0.802754
H	7.57742	-0.770433	1.24365
H	8.49276	-1.21564	-0.717625
