20
  This energy is -0.000132184 and Call times are: 7684
C	2.85425	-1.36197	1.52516
O	3.00887	-0.192249	1.22005
O	1.6104	-1.89014	1.78965
H	3.67795	-2.08611	1.61481
H	1.64132	-2.84105	2.02077
C	-1.94488	0.881568	-2.32082
O	-2.45875	1.08329	-3.41389
O	-0.589598	0.838922	-2.14112
H	-2.52182	0.719033	-1.39924
H	-0.330206	0.667782	-1.2044
C	-0.820246	0.180605	1.49961
O	-1.9982	0.243598	1.20203
O	0.164111	0.347234	0.537408
H	-0.434303	-0.00519144	2.50848
H	1.08257	0.280405	0.867477
C	18.4168	0.0619001	0.0539271
O	17.8593	0.732259	0.905429
O	17.7143	-0.704503	-0.8489
H	19.5093	0.0100515	-0.0672781
H	18.2948	-1.1876	-1.47198
