20
  This energy is 0.0035516 and Call times are: 20534
C	-1.77433	-3.01721	0.275604
O	-0.585969	-3.15908	0.50563
O	-2.41845	-1.81601	0.471271
H	-2.42581	-3.81995	-0.101373
H	-3.37017	-1.85238	0.244314
C	1.73968	2.2658	-1.33625
O	2.38569	2.94352	-2.12552
O	1.68015	0.901522	-1.41428
H	1.15792	2.69035	-0.505657
H	1.12023	0.499158	-0.708152
C	-0.543717	0.559084	1.53168
O	-0.405673	1.76698	1.48668
O	0.0775229	-0.260766	0.601916
H	-1.14345	0.0206851	2.27447
H	-0.0897147	-1.21791	0.71535
C	6.42128	0.238498	0.142787
O	6.1888	0.622213	-0.990333
O	5.7064	-0.781208	0.730336
H	7.20727	0.663838	0.784827
H	6.00476	-0.980233	1.64137
