20
  This energy is -0.00148778 and Call times are: 14044
C	1.69836	-2.73706	1.39708
O	1.77894	-2.71686	0.181209
O	1.50812	-1.59095	2.1362
H	1.76898	-3.65429	2.00091
H	1.46313	-1.76148	3.09926
C	-2.36385	1.62314	-1.31283
O	-3.4441	1.95878	-1.78185
O	-1.89465	0.340604	-1.38929
H	-1.6849	2.31581	-0.795335
H	-1.01034	0.227839	-0.965843
C	1.25742	1.09833	0.408458
O	0.725212	2.19233	0.405894
O	0.636127	0.00615179	-0.177809
H	2.2341	0.873821	0.85228
H	1.13742	-0.83243	-0.128206
C	6.02301	0.331601	-0.144222
O	6.53595	-0.66165	-0.629596
O	4.93403	0.25596	0.695105
H	6.3769	1.35696	-0.329415
H	4.63141	1.13333	1.00696
