20
  This energy is -0.00650352 and Call times are: 2124
C	-0.0666031	-0.836179	-3.40942
O	-0.971288	-0.0792509	-3.10308
O	1.1187	-0.879502	-2.70996
H	-0.114883	-1.53851	-4.25519
H	1.75052	-1.53465	-3.07075
C	-0.68925	-0.166946	3.07294
O	-1.13899	-0.498168	4.16271
O	-1.36972	-0.368497	1.90365
H	0.289614	0.315802	2.94123
H	-0.87708	-0.0478907	1.11085
C	1.28173	1.1252	-0.213006
O	1.77534	1.24441	0.892534
O	0.0330599	0.544036	-0.373154
H	1.74941	1.44847	-1.15005
H	-0.284134	0.49011	-1.29698
C	5.161	0.377608	0.19074
O	4.18099	0.252958	-0.522902
O	6.13408	-0.593232	0.272335
H	5.35219	1.25916	0.820992
H	6.86	-0.354881	0.884579
