20
  This energy is 0.00279185 and Call times are: 16917
C	0.272597	-2.93543	1.90703
O	0.307401	-1.93227	2.59819
O	-0.364586	-2.96049	0.686603
H	0.737748	-3.89156	2.19051
H	-0.309972	-3.83307	0.245898
C	0.932703	2.52931	-1.63664
O	1.60143	3.38472	-2.20289
O	1.37942	1.85737	-0.532176
H	-0.0735921	2.23046	-1.96318
H	0.726983	1.20028	-0.190739
C	-1.69844	-0.180488	-0.192354
O	-1.97117	0.48666	-1.17247
O	-0.480397	-0.0283472	0.452468
H	-2.35427	-0.933285	0.259823
H	-0.347928	-0.605953	1.2308
C	7.84397	-0.340443	-0.0712004
O	8.52339	0.631232	-0.353113
O	6.54867	-0.220534	0.380341
H	8.1975	-1.37949	-0.150608
H	6.1282	-1.08497	0.566261
