20
  This energy is -0.00112381 and Call times are: 4032
C	2.14273	-1.2276	-2.4959
O	0.97663	-1.22554	-2.85009
O	2.61908	-0.35409	-1.54399
H	2.90393	-1.91368	-2.89686
H	3.57374	-0.472413	-1.3617
C	-1.97929	-0.0617276	2.45449
O	-2.68434	-0.418104	3.39016
O	-1.74056	-0.857446	1.36787
H	-1.48251	0.917829	2.40712
H	-1.1542	-0.430284	0.698739
C	0.420854	1.63495	-0.322641
O	0.128284	2.23585	0.693924
O	-0.0607165	0.355351	-0.55349
H	1.06329	2.02318	-1.12129
H	0.226153	-0.050217	-1.39622
C	7.67392	-0.0921467	0.413908
O	8.29861	-1.00373	-0.099931
O	7.19939	0.972851	-0.318668
H	7.43793	-0.0395043	1.48742
H	6.71723	1.62675	0.227724
