20
  This energy is -5.2749e-05 and Call times are: 4981
C	2.39139	2.39701	0.929188
O	2.16067	1.60485	1.82613
O	2.21982	2.06965	-0.397261
H	2.75019	3.4239	1.09554
H	2.44417	2.805	-1.0035
C	-2.83649	-1.34278	-0.3117
O	-4.03795	-1.57769	-0.281916
O	-2.21137	-0.582128	0.637791
H	-2.16346	-1.71868	-1.09547
H	-1.24267	-0.483944	0.476577
C	1.13682	-0.902455	-0.920586
O	0.460444	-1.55647	-1.69187
O	0.562639	-0.292774	0.184479
H	2.21599	-0.735612	-1.01458
H	1.18227	0.212014	0.748587
C	10.517	0.0805062	0.0113533
O	10.3985	-1.04149	-0.449446
O	9.42806	0.836473	0.383944
H	11.485	0.579828	0.167776
H	9.67679	1.71532	0.736602
