20
  This energy is 0.000695883 and Call times are: 7390
C	0.878801	3.31758	0.741071
O	0.549567	3.17758	-0.423939
O	0.416168	2.48608	1.73639
H	1.56135	4.10493	1.09479
H	0.765363	2.71924	2.62087
C	0.353896	-2.9776	-0.977014
O	0.811439	-4.03169	-1.40025
O	0.846048	-1.75794	-1.35266
H	-0.482864	-2.92068	-0.266267
H	0.372956	-1.00368	-0.926871
C	-1.54453	0.153791	0.738275
O	-1.88359	-0.987933	0.986449
O	-0.500215	0.408905	-0.13745
H	-2.00612	1.05395	1.16009
H	-0.297481	1.35571	-0.276873
C	13.0663	0.193921	0.0933064
O	13.3635	-0.835918	-0.486671
O	11.757	0.544374	0.336179
H	13.8026	0.921179	0.467242
H	11.6722	1.39685	0.810204
