20
  This energy is -0.00650287 and Call times are: 10208
C	-0.772945	-3.29545	-0.932917
O	-1.76066	-2.67104	-0.586835
O	0.340647	-2.67324	-1.45141
H	-0.684304	-4.39009	-0.863494
H	1.05454	-3.30146	-1.68443
C	0.73305	2.41599	1.88986
O	1.01507	3.10991	2.85862
O	-0.0464382	1.29634	1.98826
H	1.07805	2.63028	0.868279
H	-0.184018	0.845095	1.12138
C	0.135429	0.521338	-1.63222
O	0.810794	1.53185	-1.57894
O	-0.444971	-0.00478992	-0.488149
H	-0.0736832	-0.0493931	-2.54426
H	-0.970291	-0.81844	-0.625924
C	4.54182	0.238084	0.0834504
O	4.96142	-0.824495	-0.340947
O	3.19494	0.490959	0.217756
H	5.18849	1.07361	0.391077
H	3.00823	1.38504	0.570415
