20
  This energy is 0.00016567 and Call times are: 15541
C	-0.726073	-3.25041	1.11152
O	-1.63655	-2.47235	1.33714
O	0.162797	-3.05553	0.0780751
H	-0.536569	-4.15983	1.70139
H	0.83923	-3.7609	0.0189341
C	1.0046	2.98656	0.1309
O	1.4722	4.05673	0.499235
O	0.367817	2.12853	0.984828
H	1.05545	2.62652	-0.906573
H	0.0465341	1.3088	0.538918
C	-0.333128	-0.39395	-1.63954
O	0.251265	0.454755	-2.28628
O	-0.554344	-0.223186	-0.281429
H	-0.725558	-1.33441	-2.04305
H	-1.03166	-0.956154	0.156629
C	11.7758	-0.334674	0.193809
O	12.172	-0.360583	-0.958412
O	10.9244	0.645675	0.652165
H	12.0573	-1.07723	0.955603
H	10.6921	0.537519	1.59711
