20
  This energy is -0.00687917 and Call times are: 17337
C	-1.47781	2.1374	-2.36123
O	-1.39835	2.65266	-1.25967
O	-0.610247	1.14948	-2.77041
H	-2.23452	2.40989	-3.11226
H	-0.795362	0.831348	-3.67767
C	0.179052	-2.15113	2.29924
O	-0.0881518	-2.98632	3.15401
O	-0.671038	-1.12897	1.97761
H	1.11499	-2.15037	1.72254
H	-0.314617	-0.539082	1.2712
C	1.58498	0.299992	-0.593373
O	2.24262	-0.650014	-0.212465
O	0.338978	0.565068	-0.0458632
H	1.89366	1.00919	-1.36993
H	-0.117381	1.34863	-0.41293
C	5.22378	-0.00316422	0.197324
O	5.08282	0.690128	-0.795007
O	6.42414	-0.603564	0.505068
H	4.42083	-0.207323	0.921547
H	6.3871	-1.12883	1.33049
