20
  This energy is 0.00451842 and Call times are: 1650
C	0.153981	0.599288	3.45614
O	0.962004	1.26861	2.83619
O	-1.0148	0.149258	2.88388
H	0.283347	0.300684	4.50734
H	-1.56443	-0.375144	3.50155
C	0.715976	-1.29477	-2.78512
O	1.20648	-1.97871	-3.67461
O	1.41135	-0.937879	-1.66262
H	-0.314424	-0.912453	-2.81123
H	0.880658	-0.386308	-1.03959
C	-1.40878	0.965872	-0.191518
O	-1.90898	0.580232	-1.23131
O	-0.099796	0.640023	0.129316
H	-1.91557	1.57994	0.561734
H	0.218085	0.993216	0.984404
C	4.8593	0.226947	0.321885
O	4.46043	1.03368	-0.499897
O	4.75415	-1.13157	0.12331
H	5.32962	0.506159	1.27674
H	5.11646	-1.65477	0.867354
