20
  This energy is -0.0068491 and Call times are: 14178
C	1.08526	2.17414	2.53439
O	1.61364	1.07853	2.60993
O	0.619784	2.68051	1.3415
H	0.935854	2.84327	3.39512
H	0.22051	3.56961	1.43467
C	-1.72132	-2.23984	-1.40217
O	-2.55217	-3.10482	-1.64929
O	-1.24286	-2.01779	-0.140161
H	-1.29258	-1.57406	-2.16472
H	-0.579313	-1.2882	-0.102375
C	1.00142	0.741903	-1.18364
O	0.496174	0.440931	-2.24864
O	0.656404	0.0709387	-0.0203111
H	1.74433	1.53491	-1.04043
H	1.11249	0.380268	0.78794
C	4.72878	-0.318975	-0.249323
O	3.84718	0.258191	-0.86162
O	5.13531	0.0863098	1.0023
H	5.26793	-1.19777	-0.633942
H	5.85086	-0.471722	1.36998
