20
  This energy is 0.00474384 and Call times are: 20072
C	3.08549	1.28758	1.07223
O	2.24797	1.30147	1.95744
O	3.03638	0.384878	0.0335776
H	3.93861	1.981	1.0246
H	3.77423	0.493164	-0.600813
C	-2.93563	0.00157275	-1.15239
O	-4.01499	0.33463	-1.62528
O	-2.19785	0.826772	-0.348877
H	-2.47103	-0.97871	-1.33063
H	-1.35291	0.415947	-0.0466989
C	0.541382	-1.62716	0.116262
O	-0.210369	-2.25536	-0.605075
O	0.224864	-0.339101	0.520344
H	1.4988	-1.99566	0.502062
H	0.887477	0.0889097	1.09889
C	8.19711	-0.131662	0.0289493
O	8.82318	-1.05445	-0.462732
O	8.7995	1.05625	0.378342
H	7.11639	-0.164377	0.233578
H	8.17248	1.70354	0.761053
