20
  This energy is -0.000518472 and Call times are: 21846
C	0.921862	-2.27483	2.5106
O	-0.286655	-2.13674	2.43536
O	1.75039	-2.06305	1.43136
H	1.44852	-2.57499	3.429
H	2.69511	-2.21188	1.64104
C	-0.793797	2.75687	-1.30976
O	-1.05229	3.9383	-1.50203
O	-1.02583	2.13796	-0.112257
H	-0.357627	2.09839	-2.07444
H	-0.765578	1.18597	-0.113621
C	0.255621	-1.14792	-1.25347
O	0.409181	-0.479411	-2.25826
O	-0.282089	-0.58805	-0.104572
H	0.513551	-2.2088	-1.15699
H	-0.368712	-1.19986	0.653818
C	8.61698	-0.41811	0.0733927
O	7.45683	-0.166964	-0.202691
O	9.58825	0.557415	0.106097
H	8.98481	-1.42637	0.316324
H	10.4717	0.20799	0.342807
