20
  This energy is -8.9362e-05 and Call times are: 7852
C	2.85756	1.89979	0.743583
O	3.12548	0.893221	0.110906
O	1.62492	2.50806	0.66191
H	3.5623	2.40251	1.42294
H	1.55542	3.30582	1.22524
C	-2.20792	-2.22695	0.334248
O	-2.89104	-3.15541	0.747621
O	-0.86661	-2.13145	0.584589
H	-2.60893	-1.39874	-0.267281
H	-0.456165	-1.32791	0.18474
C	-0.469787	1.04893	-1.27801
O	-1.65962	0.842618	-1.42571
O	0.318294	0.167184	-0.554121
H	0.075233	1.91002	-1.68146
H	1.26272	0.413374	-0.487603
C	17.201	0.0167628	-0.145056
O	17.4274	1.10372	0.35748
O	18.1436	-0.986713	-0.171785
H	16.2427	-0.254646	-0.612936
H	17.8202	-1.80195	-0.607017
