20
  This energy is 0.000426974 and Call times are: 10982
C	3.13275	1.49244	-0.535054
O	2.9052	1.31081	0.648362
O	2.56035	0.71533	-1.51716
H	3.80236	2.2777	-0.917025
H	2.8354	0.977592	-2.41947
C	-3.0917	-0.194004	0.591343
O	-4.26575	0.0684974	0.819939
O	-2.06422	0.610593	1.001
H	-2.76518	-1.0892	0.0430977
H	-1.17697	0.264759	0.74175
C	0.570972	-1.55898	-0.444771
O	-0.430317	-2.18014	-0.747559
O	0.480906	-0.369405	0.261878
H	1.5966	-1.86008	-0.687098
H	1.33665	0.0606027	0.461272
C	16.8865	0.400499	0.084849
O	17.6857	0.0822314	0.948062
O	16.5087	-0.465633	-0.916748
H	16.4049	1.38838	0.0296034
H	15.8612	-0.0721923	-1.53687
