20
  This energy is -0.00344957 and Call times are: 16875
C	-1.4096	-0.957237	3.06994
O	-0.232035	-1.26068	2.98925
O	-1.94274	0.0975043	2.36329
H	-2.13748	-1.48809	3.70183
H	-2.89983	0.221757	2.528
C	0.950135	-0.256949	-2.99619
O	1.1835	-0.665546	-4.12675
O	0.899967	-1.08612	-1.90951
H	0.762766	0.80005	-2.75909
H	0.70204	-0.608312	-1.06895
C	0.139798	1.64469	0.479296
O	0.213302	2.26563	-0.564313
O	0.331661	0.271656	0.502509
H	-0.0750424	2.08411	1.46013
H	0.253883	-0.143335	1.38495
C	5.80279	-0.0794974	-0.404482
O	6.50032	0.855869	-0.0526515
O	4.89551	-0.674292	0.443542
H	5.83483	-0.523509	-1.41083
H	4.40747	-1.41168	0.0232083
