20
  This energy is -0.00254573 and Call times are: 13492
C	-2.20098	-1.60314	2.21663
O	-2.79101	-1.00468	1.33404
O	-0.921317	-2.08204	2.04577
H	-2.62922	-1.81021	3.20892
H	-0.576824	-2.5407	2.83921
C	1.75039	2.31802	-1.22834
O	2.31273	3.38597	-1.43533
O	0.540641	2.23354	-0.595674
H	2.16445	1.34523	-1.52969
H	0.217693	1.30548	-0.50387
C	0.375675	-1.46292	-0.820356
O	1.44129	-1.2465	-1.36599
O	-0.392387	-0.419924	-0.325588
H	-0.0655502	-2.455	-0.67069
H	-1.23318	-0.687753	0.0966658
C	5.02489	-0.419866	-0.0598641
O	6.17061	-0.00470385	-0.0737073
O	3.94651	0.416502	0.123589
H	4.75497	-1.47868	-0.190069
H	3.08994	-0.0575747	0.111201
