20
  This energy is 0.00268541 and Call times are: 19988
C	0.938405	-0.032322	3.38322
O	0.352296	-1.05016	3.05808
O	1.64598	0.72504	2.47668
H	0.954378	0.364601	4.40943
H	2.06336	1.51276	2.88151
C	-1.82799	0.447651	-2.53061
O	-2.75298	0.737869	-3.27877
O	-2.02497	0.0452397	-1.23826
H	-0.770671	0.48493	-2.82937
H	-1.18266	-0.153293	-0.76378
C	1.58958	-0.378434	-0.533192
O	1.6228	-0.00998836	-1.69217
O	0.380776	-0.523775	0.130312
H	2.46763	-0.621386	0.0761362
H	0.450493	-0.824253	1.05866
C	7.30245	0.40062	0.141378
O	7.49987	0.4614	-1.0597
O	7.12189	-0.799068	0.792695
H	7.25183	1.28103	0.799575
H	6.9736	-0.692104	1.75456
