20
  This energy is 0.000303297 and Call times are: 13450
C	-2.23584	-2.47532	-1.09616
O	-1.4855	-2.10702	-1.98306
O	-1.88917	-2.39689	0.234153
H	-3.23719	-2.895	-1.27531
H	-2.59059	-2.72894	0.831103
C	1.13653	2.89175	0.540372
O	1.28108	4.10551	0.614203
O	0.400833	2.29674	-0.44736
H	1.58059	2.18279	1.25364
H	0.378647	1.31295	-0.371924
C	1.00674	-1.14167	0.798332
O	1.62789	-0.488157	1.61514
O	0.328926	-0.520346	-0.239498
H	0.922603	-2.23447	0.798176
H	-0.142506	-1.12441	-0.84763
C	5.25505	0.0361138	-0.41971
O	4.05239	0.0822454	-0.228061
O	6.15477	-0.107768	0.612695
H	5.72025	0.103922	-1.41464
H	7.08488	-0.128859	0.307633
