20
  This energy is 4.1233e-05 and Call times are: 7558
C	1.17187	1.9362	2.68433
O	0.0109981	2.18505	2.40919
O	1.74043	0.711278	2.41533
H	1.85576	2.65344	3.16262
H	2.67823	0.657397	2.69146
C	-0.696426	-0.762564	-2.97983
O	-0.828432	-0.755301	-4.19725
O	-0.719268	0.381209	-2.23006
H	-0.549722	-1.67884	-2.39035
H	-0.600175	0.211923	-1.26508
C	-0.210578	-1.39285	0.984828
O	-0.210461	-2.32614	0.204408
O	-0.376921	-0.0920164	0.534579
H	-0.08537	-1.47914	2.07026
H	-0.363593	0.593496	1.23234
C	19.884	-0.0523144	0.0684643
O	20.4554	-0.708801	0.921543
O	20.572	0.674466	-0.877343
H	18.7894	0.0170698	-0.0206147
H	19.9812	1.15074	-1.49606
