20
  This energy is -0.00714009 and Call times are: 17295
C	-3.09448	-0.0417807	1.65839
O	-2.70041	1.09194	1.44715
O	-2.71907	-1.10524	0.868329
H	-3.7718	-0.311704	2.48258
H	-3.11323	-1.95331	1.15817
C	3.13098	0.1134	-0.360569
O	4.3383	0.162977	-0.16186
O	2.22121	0.680398	0.48898
H	2.6785	-0.385594	-1.22938
H	1.28796	0.556336	0.192899
C	-0.713143	-0.364576	-1.52078
O	0.196624	-0.820595	-2.18746
O	-0.454563	0.329105	-0.348387
H	-1.77807	-0.45056	-1.76539
H	-1.2464	0.65939	0.121589
C	7.42525	-0.377876	0.179202
O	8.13851	-0.592735	-0.785342
O	7.01212	0.892183	0.51437
H	7.05502	-1.16352	0.85492
H	6.44443	0.910369	1.31187
