20
  This energy is -0.0012078 and Call times are: 13198
C	-0.938002	-3.3753	-0.235218
O	-1.85157	-2.66952	0.155326
O	0.0803694	-2.88433	-1.02131
H	-0.846917	-4.4463	0.000523517
H	0.742221	-3.56608	-1.25745
C	1.04866	2.6657	1.3192
O	1.4899	3.49844	2.10113
O	0.287833	1.60431	1.72603
H	1.22378	2.69849	0.234385
H	0.00743337	1.02257	0.979717
C	-0.129143	0.243006	-1.69662
O	0.552947	1.22508	-1.92105
O	-0.518704	-0.0692598	-0.403065
H	-0.488327	-0.461492	-2.45554
H	-1.06517	-0.87613	-0.31763
C	7.97758	-0.0472546	-0.35887
O	8.462	-1.13785	-0.111527
O	8.18813	1.04666	0.4505
H	7.3415	0.156865	-1.23331
H	7.73707	1.85302	0.126557
