20
  This energy is 0.00149512 and Call times are: 10604
C	-3.25073	0.69835	-1.1282
O	-2.48308	0.471473	-2.04715
O	-3.05237	0.184448	0.133792
H	-4.15278	1.32149	-1.22267
H	-3.74912	0.451108	0.767846
C	3.00062	0.536998	0.808588
O	4.07984	1.06441	1.04669
O	2.14109	1.01562	-0.141693
H	2.63295	-0.35704	1.33212
H	1.31359	0.482969	-0.216244
C	-0.411524	-1.60461	0.458411
O	0.439652	-1.92296	1.26726
O	-0.232799	-0.501127	-0.361923
H	-1.36034	-2.13056	0.302178
H	-0.968506	-0.320737	-0.980926
C	9.63713	-0.0370843	-0.255853
O	9.33297	-1.17013	0.074225
O	8.93991	1.06505	0.186034
H	10.479	0.201889	-0.922976
H	9.2985	1.90737	-0.161124
