20
  This energy is 4.7249e-05 and Call times are: 18716
C	-0.709924	-0.233164	3.43066
O	0.404239	0.213596	3.22021
O	-1.73436	-0.101321	2.52004
H	-0.991384	-0.770974	4.34851
H	-2.57055	-0.50901	2.82528
C	1.09852	-0.852921	-2.83049
O	1.60836	-1.46554	-3.76019
O	1.50212	-1.01379	-1.53352
H	0.281227	-0.128487	-2.95615
H	0.996081	-0.451322	-0.899822
C	-0.941663	1.42589	-0.185401
O	-1.20075	1.47298	-1.37315
O	0.0580063	0.590753	0.289754
H	-1.44632	2.00933	0.593191
H	0.196636	0.618493	1.25773
C	23.1572	0.419936	0.029498
O	22.2625	0.141883	0.808879
O	23.78	-0.537161	-0.740033
H	23.5398	1.43994	-0.125946
H	24.4782	-0.166699	-1.31792
