20
  This energy is -0.00932769 and Call times are: 13961
C	-0.175309	-3.11643	-1.60776
O	-0.9707	-3.0269	-0.688754
O	0.280168	-2.01084	-2.29061
H	0.241656	-4.06936	-1.96691
H	0.913924	-2.2365	-3.00197
C	0.886674	2.15741	2.12257
O	1.4194	2.7374	3.06033
O	0.624423	0.815097	2.14045
H	0.576385	2.65965	1.19519
H	0.192467	0.495726	1.31254
C	-0.882228	0.788916	-1.24641
O	-0.594781	1.96546	-1.13147
O	-0.610584	-0.110333	-0.22655
H	-1.36155	0.340241	-2.12404
H	-0.876185	-1.03448	-0.406506
C	3.31711	0.294885	-0.245125
O	3.21144	-0.760781	-0.844831
O	3.93328	0.379162	0.983413
H	2.93735	1.25572	-0.623917
H	3.94336	1.2897	1.34317
