20
  This energy is -0.000645665 and Call times are: 21720
C	2.88046	-1.89893	0.651764
O	2.14146	-2.44345	-0.149871
O	2.90225	-0.53175	0.81428
H	3.58222	-2.43998	1.30423
H	3.54461	-0.238671	1.49257
C	-2.97997	0.994443	0.277102
O	-4.14178	1.1489	0.631953
O	-2.33575	-0.208603	0.369606
H	-2.36073	1.80035	-0.141973
H	-1.40484	-0.173365	0.0437173
C	0.841664	1.07704	-1.04205
O	0.154997	2.08096	-1.06893
O	0.331457	-0.118326	-0.558969
H	1.88259	1.01642	-1.37981
H	0.954607	-0.87224	-0.575338
C	6.62671	-0.31144	-0.0938484
O	6.00745	0.73195	-0.208319
O	7.95303	-0.337559	0.275299
H	6.19036	-1.30588	-0.271598
H	8.31682	-1.24513	0.326012
