20
  This energy is -0.00570625 and Call times are: 5509
C	-1.92962	1.87273	-2.25771
O	-2.60203	1.40311	-1.35628
O	-0.588265	2.14351	-2.10433
H	-2.32604	2.11748	-3.25463
H	-0.180069	2.51744	-2.91188
C	1.36247	-2.53374	1.29219
O	1.74669	-3.67202	1.52937
O	0.17763	-2.27338	0.660321
H	1.93018	-1.63226	1.56352
H	0.00793663	-1.3084	0.541832
C	0.612645	1.40616	0.775655
O	1.63333	1.0364	1.3248
O	-0.31715	0.486983	0.313966
H	0.33613	2.45171	0.597726
H	-1.10678	0.874723	-0.113947
C	4.61245	0.0474693	0.378234
O	5.19978	1.09174	0.155127
O	4.63277	-1.00634	-0.507846
H	4.02524	-0.143002	1.28917
H	4.11722	-1.7776	-0.194832
