20
  This energy is -0.000330231 and Call times are: 5191
C	-0.0748873	1.66796	-3.08871
O	0.463564	2.33157	-2.21984
O	-0.10382	0.291972	-3.04513
H	-0.575974	2.10006	-3.96797
H	-0.570124	-0.103919	-3.80961
C	-0.92624	-0.862675	2.88856
O	-1.5461	-0.993441	3.93653
O	-0.96124	0.288939	2.15136
H	-0.294814	-1.65077	2.45408
H	-0.410298	0.240208	1.33398
C	1.31195	-1.00307	-0.476354
O	1.25524	-1.96167	0.27061
O	0.611385	0.159383	-0.192659
H	1.89339	-0.961044	-1.4045
H	0.716186	0.877565	-0.848556
C	11.9767	-0.0506274	-0.189786
O	11.1463	-0.517772	-0.949648
O	11.6289	0.504882	1.0212
H	13.0569	-0.0312839	-0.399054
H	12.4004	0.838672	1.52315
