20
  This energy is -0.00460078 and Call times are: 22588
C	-2.85275	0.514284	-1.98119
O	-1.85036	0.990697	-2.48465
O	-2.79795	-0.551974	-1.11161
H	-3.8707	0.885912	-2.17248
H	-3.68052	-0.825724	-0.787999
C	2.22447	0.611533	2.15027
O	2.90552	1.13158	3.02508
O	1.5209	1.34258	1.23296
H	2.12056	-0.475997	2.02759
H	1.02184	0.780677	0.593247
C	0.155894	-1.63762	-0.49815
O	0.824844	-2.16298	0.371672
O	0.0863708	-0.256734	-0.602444
H	-0.431797	-2.17441	-1.25166
H	-0.474811	0.0766374	-1.33108
C	4.76692	0.397737	0.145606
O	3.90153	0.272019	-0.703248
O	5.62231	-0.629757	0.4752
H	4.93878	1.3247	0.713157
H	6.26383	-0.382917	1.17243
