20
  This energy is -0.00308781 and Call times are: 16045
C	0.213516	-2.93117	-1.92105
O	1.23025	-2.72442	-1.28172
O	-1.01438	-2.45895	-1.51442
H	0.186163	-3.5021	-2.86138
H	-1.73836	-2.70247	-2.12691
C	0.327274	3.04712	0.744237
O	0.581306	4.24479	0.719367
O	1.05718	2.12512	0.0456254
H	-0.500309	2.61376	1.32379
H	0.729847	1.20204	0.167281
C	-0.968935	-0.755828	1.20173
O	-1.52988	0.162545	1.76919
O	0.126935	-0.521329	0.385247
H	-1.25723	-1.81084	1.27333
H	0.51356	-1.31851	-0.0294662
C	3.7776	0.305521	-0.100421
O	3.61787	0.372658	1.10591
O	3.12374	-0.627658	-0.873542
H	4.44504	0.971031	-0.668339
H	3.35044	-0.561793	-1.82374
