20
  This energy is 0.00170799 and Call times are: 5887
C	-0.754454	-2.05948	2.74174
O	-1.68501	-1.97499	1.95933
O	0.552778	-1.88921	2.34397
H	-0.873062	-2.27501	3.8143
H	1.19093	-1.9857	3.08021
C	0.153828	2.62718	-1.73787
O	0.0681451	3.7815	-2.13758
O	-0.744727	2.08284	-0.861973
H	0.951539	1.93583	-2.04489
H	-0.541564	1.14407	-0.635102
C	0.936058	-1.21984	-0.768138
O	1.65801	-0.615999	-1.53901
O	-0.171013	-0.604565	-0.20388
H	1.07875	-2.26055	-0.455325
H	-0.693162	-1.16607	0.403611
C	7.78609	0.0342615	0.0894139
O	8.0614	0.984879	-0.621768
O	8.72836	-0.899428	0.458761
H	6.78037	-0.159182	0.491922
H	8.36228	-1.60493	1.03048
