20
  This energy is -0.000729735 and Call times are: 19052
C	1.85057	-2.44328	1.71278
O	2.3014	-1.32331	1.87914
O	0.522769	-2.6607	1.41995
H	2.4519	-3.36238	1.78028
H	0.306243	-3.60961	1.31374
C	-0.81527	1.95922	-2.33297
O	-0.866153	2.57433	-3.39061
O	0.359818	1.50117	-1.80357
H	-1.69981	1.72433	-1.72388
H	0.237335	1.02522	-0.947709
C	-1.254	-0.00297909	1.17548
O	-2.22083	0.456339	0.597238
O	0.0202043	0.13477	0.646328
H	-1.28819	-0.546151	2.12684
H	0.7363	-0.265557	1.17917
C	10.6866	-0.0615536	-0.16498
O	10.3915	-1.09586	0.408061
O	9.83982	1.02379	-0.196681
H	11.6369	0.0945237	-0.697544
H	10.2105	1.78213	-0.692813
