20
  This energy is -0.00702087 and Call times are: 4074
C	2.85127	-2.04787	0.0655254
O	1.84962	-2.6631	-0.256104
O	2.97755	-0.693523	-0.148636
H	3.72666	-2.51009	0.54609
H	3.83531	-0.336992	0.160774
C	-2.62881	1.39857	1.03888
O	-3.56983	1.77482	1.72626
O	-2.03692	0.176893	1.20644
H	-2.18297	2.00331	0.236334
H	-1.29305	0.0194805	0.577234
C	0.429886	0.696673	-1.51133
O	-0.183669	1.74637	-1.55354
O	0.0959654	-0.283267	-0.58895
H	1.26823	0.430144	-2.16511
H	0.642878	-1.09342	-0.627886
C	6.29967	-0.0934356	-0.362803
O	5.65835	0.801023	0.160553
O	7.43663	-0.612389	0.215186
H	6.03306	-0.557052	-1.32451
H	7.84494	-1.32418	-0.318894
