20
  This energy is 0.000397647 and Call times are: 8524
C	-3.30661	-0.881642	-0.785404
O	-2.54531	-1.82978	-0.86722
O	-3.05473	0.188628	0.0435424
H	-4.24437	-0.797566	-1.355
H	-3.75307	0.873748	0.00439794
C	2.98032	0.916555	-0.472813
O	4.03216	1.28791	-0.97809
O	2.07656	0.138078	-1.14222
H	2.67446	1.17376	0.551329
H	1.27947	-0.0782843	-0.601976
C	-0.310396	-0.00158021	1.69054
O	0.573132	0.685285	2.1677
O	-0.210864	-0.485604	0.395015
H	-1.23056	-0.294233	2.20914
H	-0.967572	-1.02847	0.0955896
C	16.0742	-0.11268	-0.402853
O	15.0331	-0.658949	-0.0819075
O	16.7771	0.689931	0.46766
H	16.5363	-0.20989	-1.39677
H	17.5924	1.05985	0.0712969
