20
  This energy is 0.00042892 and Call times are: 15247
C	0.483647	2.2299	-2.6686
O	0.777734	1.08517	-2.96586
O	-0.438291	2.51629	-1.68673
H	0.919599	3.11907	-3.14842
H	-0.57209	3.47763	-1.55815
C	0.71075	-1.73295	2.53725
O	1.28859	-2.25759	3.48087
O	1.35915	-1.36055	1.39191
H	-0.367366	-1.51809	2.52881
H	0.758085	-0.952067	0.724172
C	-1.7016	-0.0495637	-0.237387
O	-2.15154	-0.42645	0.828257
O	-0.352492	-0.187674	-0.526156
H	-2.2866	0.41503	-1.0394
H	-0.0804642	0.142831	-1.40578
C	10.1369	-0.349235	-0.0491082
O	9.01508	-0.642237	-0.424559
O	10.4453	0.907569	0.421449
H	10.9866	-1.04849	-0.0524234
H	11.3836	0.995754	0.686515
