20
  This energy is -0.00680134 and Call times are: 12575
C	-2.48765	1.98988	-1.47641
O	-1.36534	2.35288	-1.78285
O	-2.76354	0.688324	-1.12157
H	-3.36324	2.65609	-1.45623
H	-3.7067	0.544987	-0.901327
C	2.15374	-0.908687	2.11698
O	2.88227	-0.982636	3.09848
O	1.72213	0.285653	1.60888
H	1.78741	-1.78607	1.5651
H	1.14256	0.180707	0.816982
C	-0.228613	-1.27489	-1.12989
O	0.224749	-2.26066	-0.57959
O	0.0599352	-0.00350116	-0.657805
H	-0.879581	-1.28885	-2.01155
H	-0.347555	0.728863	-1.16235
C	5.24379	0.22948	0.0307306
O	5.28441	-0.185868	-1.11429
O	6.22727	-0.061991	0.949362
H	4.43407	0.861749	0.425065
H	6.06061	0.339564	1.82662
