20
  This energy is 6.1683e-05 and Call times are: 17478
C	-1.84231	-2.7236	-1.23112
O	-0.964647	-3.07182	-0.460605
O	-2.41477	-1.47276	-1.16992
H	-2.2477	-3.36449	-2.02852
H	-3.10476	-1.33557	-1.85088
C	2.32297	2.12527	0.18147
O	3.32932	2.79078	-0.0281194
O	2.22643	0.806516	-0.168466
H	1.41975	2.52551	0.663729
H	1.35441	0.408339	0.0661938
C	-1.23122	0.438384	1.11632
O	-1.01336	1.60735	1.37352
O	-0.267589	-0.342964	0.497074
H	-2.16498	-0.0917266	1.33626
H	-0.530205	-1.27025	0.329304
C	5.65761	-0.131864	0.323031
O	5.16777	-0.606348	-0.687002
O	6.78175	0.662531	0.286662
H	5.25371	-0.292462	1.33396
H	7.0595	0.97087	1.17344
