20
  This energy is -0.00215955 and Call times are: 7034
C	-0.728192	-2.50294	2.35219
O	-1.2414	-2.72514	1.26938
O	0.416983	-1.74864	2.47735
H	-1.12584	-2.87755	3.30742
H	0.712332	-1.65524	3.40614
C	-0.381984	2.63613	-1.68844
O	-0.809454	3.68515	-2.15363
O	-1.20407	1.66042	-1.19542
H	0.687767	2.39022	-1.62735
H	-0.71073	0.875739	-0.856443
C	1.58369	-0.605654	-0.281734
O	2.19618	0.33597	-0.748945
O	0.19858	-0.590283	-0.220099
H	2.04031	-1.51794	0.118923
H	-0.208283	-1.38944	0.170771
C	6.29065	0.216097	-0.354365
O	5.50353	-0.656048	-0.678472
O	6.72321	0.364476	0.944461
H	6.71753	0.948223	-1.05627
H	7.35281	1.10621	1.0542
