20
  This energy is -0.00256752 and Call times are: 137
C	-0.704841	3.38573	0.606459
O	0.492792	3.16811	0.546842
O	-1.62496	2.59355	-0.0430795
H	-1.14919	4.21781	1.17313
H	-2.54796	2.88925	0.0956282
C	0.685768	-3.01128	0.638616
O	0.931022	-4.06855	1.20572
O	1.02057	-1.79609	1.16976
H	0.180801	-2.94771	-0.335825
H	0.757329	-1.03841	0.594733
C	-0.37049	0.133941	-1.67304
O	-0.609832	-1.00459	-2.02877
O	0.269293	0.380623	-0.467888
H	-0.623185	1.03741	-2.23977
H	0.420339	1.3254	-0.264046
C	4.10615	-0.0809786	-0.0947397
O	3.45465	-0.420883	-1.06698
O	3.51679	0.449518	1.031
H	5.20141	-0.165812	-0.0306639
H	4.16428	0.675542	1.72977
