20
  This energy is -0.00358801 and Call times are: 267
C	-0.588529	0.829029	-0.352468
O	0.180385	-0.127257	-0.0370651
O	-1.67628	1.16178	0.311231
H	-0.371832	1.44377	-1.22532
H	-1.88622	0.587055	1.1354
C	-1.32108	-1.33206	2.70171
O	-2.06996	-0.386592	2.3744
O	-0.215211	-1.70601	2.06186
H	-1.52388	-1.95102	3.57457
H	-0.000466033	-1.14511	1.2415
C	2.16512	0.589479	-2.67993
O	1.25357	1.42644	-2.73132
O	2.28861	-0.377593	-1.74725
H	2.98542	0.541565	-3.39847
H	1.54603	-0.358955	-1.06985
C	5.16498	-0.328495	-0.206385
O	4.95223	0.772669	-0.688016
O	6.00921	-0.473498	0.814282
H	4.65847	-1.20146	-0.616384
H	6.37778	0.364732	1.06983
