20
  This energy is -0.00649479 and Call times are: 2716
C	-0.63536	0.842743	0.209742
O	0.0693383	-0.144485	-0.156278
O	-0.671765	1.31925	1.43695
H	-1.26906	1.36212	-0.508171
H	-0.0764244	0.834972	2.11863
C	1.59613	-0.98674	2.7014
O	0.892489	-0.0129169	3.04553
O	1.66344	-1.50367	1.47648
H	2.23744	-1.51147	3.40816
H	1.07426	-1.0332	0.7944
C	-1.10358	0.180903	-3.31159
O	-1.65989	1.0836	-2.67149
O	-0.227026	-0.711662	-2.80628
H	-1.26488	0.00491841	-4.37672
H	-0.0576974	-0.574661	-1.82485
C	4.19513	0.343178	0.0294371
O	3.03489	0.722171	0.030595
O	4.48734	-0.954308	-0.0521557
H	4.99959	1.07471	0.0958842
H	3.69476	-1.4767	-0.104203
