20
  This energy is -0.00492114 and Call times are: 1386
C	-0.64951	0.0619701	-0.855679
O	0.0912211	-0.135519	0.153036
O	-0.872663	1.24115	-1.39804
H	-1.1554	-0.77344	-1.33827
H	-0.39849	2.03292	-0.948703
C	1.13762	2.96792	0.846246
O	0.401208	3.1447	-0.147894
O	1.3904	1.798	1.42899
H	1.65271	3.79381	1.33482
H	0.922198	1.00754	0.993484
C	-0.56555	-3.44926	-0.00639015
O	-1.20403	-2.95361	-0.944865
O	0.208807	-2.76542	0.861426
H	-0.559258	-4.51572	0.226242
H	0.223134	-1.77817	0.672284
C	3.75138	-0.141467	-0.403498
O	2.93878	-0.908909	0.0869158
O	4.10731	0.972467	0.235234
H	4.18967	-0.370902	-1.37405
H	3.65053	1.04661	1.06568
