20
  This energy is -0.00138102 and Call times are: 7343
C	-0.0654502	0.886025	0.607096
O	0.0708564	-0.0858379	-0.194211
O	-0.674734	0.812448	1.77233
H	0.334016	1.86741	0.354036
H	-1.05306	-0.109702	2.01758
C	-1.44788	-2.55985	1.47298
O	-1.57554	-1.5895	2.25014
O	-0.843546	-2.53259	0.287134
H	-1.83835	-3.54702	1.7162
H	-0.468502	-1.62235	0.0331627
C	1.72425	1.92142	-2.35634
O	1.44147	2.6525	-1.39737
O	1.41359	0.612692	-2.46162
H	2.26702	2.2629	-3.23968
H	0.912163	0.268416	-1.66119
C	4.17451	0.263158	0.292644
O	3.42962	-0.409093	-0.402341
O	5.49684	0.180462	0.150858
H	3.75235	0.937725	1.03659
H	5.72554	-0.442562	-0.529817
