20
  This energy is -0.000566369 and Call times are: 8310
C	0.976772	-0.304596	0.33321
O	-0.139522	0.172582	-0.0292554
O	1.28586	-1.58446	0.304236
H	1.76304	0.353963	0.700383
H	0.54974	-2.21081	-0.0413664
C	-1.78811	-2.58754	-0.962367
O	-0.682042	-3.04122	-0.598137
O	-2.14569	-1.3053	-0.948817
H	-2.58061	-3.23456	-1.33578
H	-1.42448	-0.676827	-0.604446
C	0.94251	3.28793	0.720028
O	1.89652	2.54649	0.992404
O	-0.248797	2.88399	0.232192
H	0.961411	4.37186	0.847465
H	-0.296714	1.88808	0.103669
C	4.6706	-0.372566	0.224032
O	5.22221	0.440932	0.947735
O	4.50183	-0.124516	-1.07424
H	4.31283	-1.31127	0.645386
H	4.85924	0.725591	-1.30523
