20
  This energy is -0.000106293 and Call times are: 10027
C	-0.424136	-0.829756	0.538056
O	-0.0434796	0.180255	-0.125398
O	0.386483	-1.68172	1.13091
H	-1.48604	-1.04504	0.650928
H	1.38869	-1.48454	1.02922
C	3.28605	-0.0507185	0.134853
O	2.8928	-1.04397	0.783455
O	2.50594	0.834316	-0.48187
H	4.34443	0.178244	0.0185893
H	1.51109	0.645675	-0.390259
C	-3.26655	0.988934	-0.754269
O	-3.32564	-0.0407476	-0.0684631
O	-2.13201	1.61016	-1.13803
H	-4.14405	1.51756	-1.13115
H	-1.30492	1.14562	-0.80523
C	8.76278	-0.354484	0.247486
O	9.54157	0.365083	0.852049
O	8.40017	-0.0668859	-1.00204
H	8.36049	-1.24121	0.735948
H	8.82397	0.729385	-1.30224
