20
  This energy is -0.00220301 and Call times are: 8479
C	-0.575591	0.900373	0.126149
O	0.033251	-0.181576	-0.126615
O	-0.339054	1.66236	1.17393
H	-1.35533	1.26177	-0.543281
H	0.395076	1.32814	1.80874
C	2.16202	-0.381643	2.44926
O	1.54937	0.68194	2.68447
O	1.95626	-1.18384	1.40699
H	2.9467	-0.751334	3.10784
H	1.22809	-0.863408	0.773896
C	-1.8151	-0.572968	-2.93162
O	-2.21784	0.486057	-2.43129
O	-0.844708	-1.3602	-2.42271
H	-2.20928	-0.994152	-3.85829
H	-0.461224	-0.997553	-1.5671
C	4.95261	-0.399252	0.151816
O	4.83162	-0.375441	-1.06251
O	4.64993	0.66994	0.887158
H	5.31206	-1.30514	0.638497
H	4.35075	1.38505	0.3368
