20
  This energy is -0.00198544 and Call times are: 7932
C	-0.99554	-0.202674	-0.354561
O	0.185237	0.122094	-0.0297814
O	-1.70267	-1.13952	0.242677
H	-1.49776	0.302666	-1.17866
H	-1.23578	-1.61945	1.0207
C	0.780786	-1.95095	2.53043
O	-0.38262	-2.26024	2.19474
O	1.53331	-1.01485	1.9563
H	1.29216	-2.44503	3.35535
H	1.08108	-0.535983	1.18177
C	0.225488	2.45035	-2.48237
O	-0.894135	1.92649	-2.56035
O	1.18326	2.12205	-1.5906
H	0.567093	3.25163	-3.14022
H	0.89738	1.38511	-0.969435
C	4.11369	-0.423668	0.161422
O	4.1611	0.416043	1.04597
O	4.03133	-0.0607141	-1.11803
H	4.13908	-1.48106	0.422175
H	4.01794	0.886272	-1.20058
