20
  This energy is -5.5855e-05 and Call times are: 13882
C	-0.993947	0.105046	-0.398653
O	0.127868	-0.102811	0.152271
O	-1.197	0.962414	-1.37748
H	-1.87721	-0.441815	-0.0707534
H	-0.368751	1.4808	-1.69199
C	2.11325	2.00059	-1.5332
O	0.998365	2.19486	-2.06345
O	2.36548	1.14832	-0.542133
H	3.00471	2.53716	-1.85494
H	1.55046	0.632426	-0.220732
C	-1.29207	-2.39758	2.19075
O	-2.21964	-1.98733	1.47985
O	-0.0102882	-1.98198	2.12247
H	-1.41248	-3.15604	2.96647
H	0.132294	-1.28173	1.41538
C	5.85284	0.343203	-0.154992
O	5.40129	0.55988	0.958088
O	5.58926	-0.800568	-0.785727
H	6.47803	1.09394	-0.636911
H	5.03556	-1.3605	-0.253112
