20
  This energy is -0.00498169 and Call times are: 5357
C	0.505706	-0.209727	0.926373
O	-0.063248	0.159515	-0.143741
O	0.562682	-1.45557	1.34953
H	0.993735	0.521219	1.57002
H	0.105372	-2.14984	0.747457
C	-1.20258	-2.74937	-1.34671
O	-0.638957	-3.09544	-0.286313
O	-1.28734	-1.50518	-1.81252
H	-1.68981	-3.47071	-2.00122
H	-0.840509	-0.809185	-1.22121
C	0.804939	3.36528	0.494158
O	1.26183	2.71734	1.44573
O	0.116583	2.84992	-0.545519
H	0.911328	4.44666	0.390268
H	0.00214522	1.85343	-0.477941
C	4.256	-0.432003	-0.131062
O	5.41227	-0.0439254	-0.178347
O	3.28083	0.381632	0.272125
H	4.02006	-1.45495	-0.421936
H	3.62615	1.23909	0.494146
