20
  This energy is -0.00102574 and Call times are: 5483
C	-0.502454	0.212257	0.927565
O	0.111972	-0.153523	-0.11832
O	-1.00656	1.41444	1.11476
H	-0.645945	-0.484217	1.75283
H	-0.875588	2.07578	0.340729
C	0.006025	2.62858	-1.97722
O	-0.595165	2.97313	-0.937155
O	0.533145	1.42848	-2.2098
H	0.151896	3.31367	-2.81118
H	0.411994	0.766993	-1.44727
C	0.553877	-3.2317	1.21102
O	-0.0681711	-2.59904	2.07523
O	0.945183	-2.74584	0.0146994
H	0.860012	-4.27324	1.32493
H	0.676892	-1.78637	-0.11978
C	3.52496	-0.227206	-0.280122
O	3.95186	-0.925695	0.625226
O	3.8726	1.05585	-0.37188
H	2.85246	-0.658714	-1.02056
H	4.46006	1.29831	0.335142
