20
  This energy is -0.00115418 and Call times are: 7153
C	-0.404157	0.917791	0.390137
O	-0.020812	-0.22278	-0.00651672
O	0.197422	2.05148	0.0947105
H	-1.28756	1.01235	1.02052
H	1.03032	1.96987	-0.499638
C	2.67981	0.561246	-1.82277
O	2.28899	1.67796	-1.42019
O	2.10685	-0.608726	-1.54876
H	3.55844	0.453588	-2.45723
H	1.28283	-0.539014	-0.957296
C	-2.60006	-1.66721	1.63626
O	-2.72189	-0.454687	1.85764
O	-1.62734	-2.23355	0.892327
H	-3.2804	-2.4262	2.02687
H	-0.983713	-1.55811	0.517926
C	5.81853	0.387248	-0.151154
O	4.99836	-0.331315	0.397276
O	7.09181	0.00910548	-0.257421
H	5.50484	1.34796	-0.557765
H	7.22486	-0.845161	0.137929
