20
  This energy is 7.397e-06 and Call times are: 7722
C	0.00098827	1.00798	0.37666
O	-0.0782582	-0.207727	0.0288435
O	0.737561	1.91243	-0.234766
H	-0.562643	1.37215	1.23481
H	1.2709	1.5763	-1.04483
C	1.95771	-0.289123	-2.62729
O	2.02605	0.906064	-2.26851
O	1.23053	-1.23724	-2.04036
H	2.51227	-0.664631	-3.48611
H	0.701203	-0.915133	-1.23428
C	-2.2323	-0.799633	2.56801
O	-1.95672	0.404408	2.65969
O	-1.74716	-1.64518	1.63524
H	-2.91193	-1.31937	3.24585
H	-1.11678	-1.19446	0.994835
C	5.41139	0.0523367	-0.227997
O	5.52535	0.846984	0.691426
O	6.36607	-0.843646	-0.475626
H	4.51894	0.076955	-0.852196
H	7.08309	-0.753087	0.142
