20
  This energy is 3.7482e-05 and Call times are: 14420
C	0.655897	0.526661	-0.671056
O	-0.0797577	-0.0116749	0.208828
O	0.767405	0.101217	-1.91242
H	1.25375	1.40378	-0.426188
H	0.206199	-0.724664	-2.15033
C	-1.45142	-2.53901	-1.50522
O	-0.718212	-1.99685	-2.35982
O	-1.59411	-2.14679	-0.241101
H	-2.05756	-3.41324	-1.73852
H	-1.03923	-1.33138	0.00570504
C	0.915777	2.30252	2.46515
O	1.51788	2.59554	1.42319
O	0.059115	1.27039	2.61072
H	1.0143	2.85874	3.39919
H	-0.0526267	0.738082	1.76525
C	7.2825	-0.121639	0.211277
O	7.45045	0.0822316	-0.980369
O	6.07744	0.0178294	0.762537
H	8.12787	-0.420833	0.829777
H	5.43641	0.281123	0.111738
