20
  This energy is -0.0014395 and Call times are: 13194
C	0.789466	-0.584142	-0.439786
O	-0.158512	0.00687091	0.157904
O	1.4446	-0.0906711	-1.47018
H	1.11699	-1.56975	-0.111099
H	1.14162	0.838208	-1.78486
C	-0.370109	2.86862	-1.56618
O	0.561412	2.27001	-2.14566
O	-1.06114	2.40964	-0.525018
H	-0.703783	3.85611	-1.88184
H	-0.771086	1.48822	-0.207911
C	-0.46144	-2.61077	2.27776
O	0.462779	-2.92499	1.51542
O	-1.16151	-1.45855	2.22638
H	-0.818232	-3.24476	3.09155
H	-0.855148	-0.852364	1.48521
C	4.98959	0.0532607	-0.185647
O	5.74715	0.972152	-0.453085
O	5.39412	-0.962961	0.575381
H	3.97188	0.0653102	-0.57401
H	6.29857	-0.845346	0.843551
