20
  This energy is -0.00277233 and Call times are: 8872
C	-1.01776	-0.349222	0.010091
O	0.1577	0.112336	0.112331
O	-1.47293	-1.00613	-1.03667
H	-1.73317	-0.215953	0.820743
H	-0.803807	-1.13599	-1.80416
C	1.50652	-0.809036	-2.80976
O	0.342241	-1.25527	-2.89467
O	2.00925	-0.138679	-1.77531
H	2.2326	-0.939692	-3.61091
H	1.35291	-0.00142891	-1.01105
C	-0.574246	1.31028	3.18915
O	-1.61664	0.762168	2.80568
O	0.575881	1.38334	2.48756
H	-0.469703	1.80451	4.15677
H	0.510547	0.935819	1.58972
C	4.61488	0.328363	-0.301117
O	5.66542	-0.251302	-0.525074
O	3.85234	-0.0203541	0.734468
H	4.29839	1.13949	-0.955798
H	4.24631	-0.737879	1.21791
