20
  This energy is -0.000109451 and Call times are: 7848
C	-0.135186	0.581761	-0.895081
O	-0.047254	-0.0166932	0.218163
O	0.452559	0.183949	-2.00446
H	-0.727709	1.49147	-0.984927
H	1.01207	-0.673147	-1.92722
C	1.92602	-2.60757	-0.556671
O	1.83044	-2.00287	-1.6462
O	1.35331	-2.24285	0.588394
H	2.51117	-3.52044	-0.454707
H	0.799685	-1.39258	0.523295
C	-2.04373	2.31588	1.63619
O	-1.94083	2.66369	0.451916
O	-1.46175	1.23037	2.18694
H	-2.62864	2.86077	2.37948
H	-0.914987	0.706902	1.52536
C	5.66095	0.277568	0.117223
O	5.41661	-0.358035	-0.895742
O	6.81957	0.120747	0.756386
H	4.92288	0.980406	0.501896
H	7.36572	-0.519423	0.314033
