20
  This energy is -0.00106408 and Call times are: 5914
C	-0.755243	0.576787	-0.504793
O	0.0856812	-0.204348	0.0317391
O	-0.820043	1.87256	-0.278513
H	-1.49299	0.191505	-1.20765
H	-0.127262	2.24259	0.382371
C	1.84129	1.90192	1.95223
O	1.00272	2.65748	1.41575
O	1.94323	0.589125	1.75637
H	2.58697	2.27527	2.65273
H	1.25875	0.21205	1.10598
C	-1.24872	-2.81152	-1.6593
O	-1.91873	-1.83018	-2.00878
O	-0.219234	-2.78655	-0.787588
H	-1.42132	-3.8251	-2.02586
H	-0.0356893	-1.86436	-0.431871
C	4.80726	0.394927	-0.202904
O	5.16207	0.536233	0.956377
O	4.72471	-0.818876	-0.746396
H	4.55561	1.27155	-0.798646
H	4.97152	-1.48815	-0.117957
