20
  This energy is -5.0411e-05 and Call times are: 14630
C	-1.0225	0.209261	0.261911
O	0.20992	0.077714	-0.000825267
O	-1.94426	-0.690052	-0.0137951
H	-1.38739	1.11272	0.749102
H	-1.60732	-1.54434	-0.47238
C	0.280264	-2.94601	-1.43574
O	-0.932282	-2.79824	-1.17161
O	1.24539	-2.06588	-1.17865
H	0.658472	-3.84622	-1.91812
H	0.921235	-1.21426	-0.72767
C	0.82695	3.11896	1.34369
O	-0.395131	2.9595	1.46681
O	1.6796	2.23524	0.784762
H	1.35907	4.01039	1.68088
H	1.21783	1.40192	0.463828
C	9.08337	0.336751	0.109724
O	9.56035	-0.42649	-0.714744
O	7.85659	0.139021	0.590806
H	9.66805	1.18851	0.455194
H	7.46314	-0.635815	0.205322
