20
  This energy is 0.00128677 and Call times are: 7301
C	0.318156	-0.97866	-0.314471
O	0.0376308	0.220119	-0.0154308
O	-0.31508	-2.0329	0.156713
H	1.13166	-1.197	-1.00531
H	-1.08338	-1.83447	0.807844
C	-2.52886	-0.188264	2.09482
O	-2.23664	-1.36472	1.79079
O	-1.91721	0.905932	1.64671
H	-3.34274	0.0435999	2.78037
H	-1.15191	0.719872	1.00373
C	2.52138	1.31106	-2.03495
O	2.55463	0.0765351	-2.12938
O	1.65793	2.01525	-1.27407
H	3.20107	1.97841	-2.56801
H	1.01763	1.42668	-0.769837
C	6.7098	-0.317895	-0.0933122
O	5.68173	-0.463546	-0.734909
O	6.83668	0.68938	0.769714
H	7.53185	-1.01977	-0.228673
H	6.04856	1.22074	0.787339
