20
  This energy is 0.00038923 and Call times are: 8914
C	0.898778	0.591601	0.009805
O	-0.203669	-0.02479	-0.0895042
O	1.86726	0.259499	0.838164
H	1.10057	1.4613	-0.614409
H	1.68413	-0.559641	1.42902
C	0.17172	-2.45905	2.17771
O	1.25247	-1.83748	2.26428
O	-0.834486	-2.15977	1.35907
H	-0.0403885	-3.33266	2.79248
H	-0.664395	-1.34731	0.771974
C	-1.20157	2.13562	-2.49251
O	-0.0666382	2.51642	-2.17473
O	-1.85077	1.07936	-1.96032
H	-1.8136	2.62295	-3.25371
H	-1.31106	0.608977	-1.25456
C	5.70465	0.295664	0.159713
O	5.08297	-0.262532	1.0495
O	5.46057	0.0160223	-1.12003
H	6.46711	1.0303	0.415984
H	4.77549	-0.638426	-1.19834
