20
  This energy is -0.00387618 and Call times are: 12693
C	0.225702	-0.967142	-0.414229
O	0.0106141	0.129864	0.182015
O	-0.118708	-1.21916	-1.66014
H	0.727439	-1.78451	0.102394
H	-0.59139	-0.452999	-2.15329
C	-1.52156	1.91091	-2.20276
O	-1.3037	0.821186	-2.77453
O	-1.19457	2.20985	-0.947415
H	-2.01783	2.73739	-2.70948
H	-0.729035	1.45588	-0.448901
C	1.48196	-1.09132	2.97154
O	1.54822	-2.01394	2.14786
O	0.929725	0.11933	2.74856
H	1.87115	-1.15797	3.98918
H	0.561688	0.211208	1.81756
C	3.92534	0.351502	0.257827
O	2.94695	0.5997	-0.428419
O	4.50955	-0.844827	0.202967
H	4.3243	1.11729	0.921987
H	4.06075	-1.41223	-0.413809
