20
  This energy is 0.000529918 and Call times are: 6113
C	-0.822434	-0.368196	0.588154
O	0.12731	0.17763	-0.0484407
O	-1.20148	-1.62001	0.434186
H	-1.39061	0.201158	1.32282
H	-0.6699	-2.16269	-0.256143
C	1.18576	-2.34149	-1.98248
O	0.24417	-2.863	-1.34743
O	1.60218	-1.08278	-1.86243
H	1.76457	-2.90101	-2.716
H	1.07939	-0.535527	-1.18352
C	-0.426993	3.07801	1.60024
O	-1.27258	2.29165	2.04821
O	0.492614	2.7854	0.657335
H	-0.331145	4.11542	1.92594
H	0.429258	1.83463	0.336916
C	6.93771	0.114594	-0.0318727
O	6.30928	0.38069	-1.04383
O	6.33618	-0.450868	1.01404
H	8.00194	0.342398	0.0154375
H	5.41304	-0.593062	0.836909
