20
  This energy is -0.00578389 and Call times are: 5744
C	0.643147	-0.779654	-0.369313
O	-0.136398	0.0637424	0.165648
O	1.2355	-0.614251	-1.53386
H	0.86606	-1.71927	0.13483
H	1.03044	0.269386	-2.01425
C	-0.146804	2.51897	-2.11
O	0.617633	1.67452	-2.62421
O	-0.768377	2.39484	-0.939348
H	-0.37397	3.464	-2.60135
H	-0.574705	1.52098	-0.4571
C	-0.551446	-1.99356	2.8176
O	0.224103	-2.59853	2.06487
O	-1.08491	-0.777458	2.5791
H	-0.895455	-2.38612	3.77627
H	-0.785856	-0.389119	1.70137
C	4.39747	-0.0193127	0.217674
O	3.4546	-0.303781	0.938691
O	4.20388	0.303011	-1.06066
H	5.40778	-0.0294304	0.624961
H	3.27963	0.271615	-1.28098
