20
  This energy is -0.00921263 and Call times are: 12942
C	-0.394705	0.394748	0.919931
O	0.171913	0.00282579	-0.143334
O	-1.5902	0.00798665	1.31442
H	0.106355	1.09982	1.58215
H	-2.06792	-0.657035	0.695415
C	-2.12423	-2.07797	-1.41017
O	-2.66932	-1.67867	-0.358835
O	-0.921513	-1.71394	-1.84967
H	-2.61234	-2.78623	-2.07817
H	-0.441439	-1.0522	-1.24523
C	2.86213	1.92182	0.576248
O	2.0759	2.11298	1.514
O	2.63983	1.11125	-0.479176
H	3.8413	2.39807	0.499345
H	1.74388	0.65728	-0.43647
C	5.71226	0.00343852	0.189129
O	4.8964	-0.612483	0.85607
O	5.3579	0.577575	-0.95992
H	6.74103	0.0838917	0.538232
H	4.43671	0.429172	-1.14199
