20
  This energy is -0.000533312 and Call times are: 10069
C	0.595894	-0.738506	-0.507355
O	-0.131653	0.0416518	0.17618
O	1.19024	-0.407791	-1.63509
H	0.767985	-1.76169	-0.17539
H	1.03294	0.555269	-1.95354
C	-0.0154661	2.84889	-1.64392
O	0.697051	2.06495	-2.30696
O	-0.636615	2.55932	-0.502639
H	-0.191426	3.87543	-1.96229
H	-0.490113	1.60618	-0.180514
C	-0.647983	-2.41567	2.4417
O	0.0878839	-2.92361	1.58464
O	-1.11299	-1.14925	2.42357
H	-1.00839	-2.94798	3.32389
H	-0.797255	-0.632571	1.62107
C	6.62341	-0.324857	-0.26272
O	5.79645	0.175443	0.482686
O	7.88978	0.0894659	-0.25053
H	6.32154	-1.1187	-0.944925
H	8.0126	0.782426	0.388608
