20
  This energy is -0.00224003 and Call times are: 5312
C	-0.673213	-0.777125	-0.317413
O	0.158835	0.0580561	0.146655
O	-1.48678	-0.538454	-1.32517
H	-0.753705	-1.77264	0.117571
H	-1.41582	0.397598	-1.74039
C	-0.367242	2.71032	-1.82707
O	-1.18419	1.87488	-2.27035
O	0.47131	2.51537	-0.811677
H	-0.273591	3.70699	-2.25601
H	0.406178	1.59211	-0.390888
C	1.1743	-2.21627	2.43442
O	0.293537	-2.79344	1.78235
O	1.59682	-0.951126	2.23131
H	1.71642	-2.67748	3.262
H	1.11489	-0.499168	1.4736
C	4.02889	-0.352865	0.283533
O	4.51443	-0.590683	-0.810762
O	3.48988	0.837357	0.544976
H	4.03694	-1.12296	1.05398
H	3.5507	1.40958	-0.211755
