20
  This energy is -6.091e-06 and Call times are: 11757
C	0.261564	-0.892497	0.541224
O	-0.0928998	0.203236	0.0130991
O	0.825414	-1.88751	-0.111799
H	0.107822	-1.06479	1.60584
H	0.973943	-1.73171	-1.11544
C	0.795642	-0.262498	-3.18071
O	1.13665	-1.33823	-2.6437
O	0.221847	0.767782	-2.56307
H	0.948155	-0.0759484	-4.24281
H	0.0668931	0.621875	-1.56888
C	-1.1967	1.29994	3.01585
O	-0.758556	0.162343	3.23489
O	-1.20603	1.91801	1.81657
H	-1.63232	1.94036	3.785
H	-0.810142	1.35174	1.08633
C	9.36094	0.340424	-0.293491
O	9.72831	-0.734337	-0.740393
O	8.84624	0.427793	0.932464
H	9.45544	1.23725	-0.904615
H	8.82279	-0.425542	1.35085
