20
  This energy is -0.00091291 and Call times are: 10238
C	-1.00728	0.102986	-0.364232
O	0.215929	0.0438161	-0.0395148
O	-1.99117	-0.423576	0.335133
H	-1.30968	0.61534	-1.2768
H	-1.71346	-0.907392	1.19678
C	0.0756571	-1.67773	2.82814
O	-1.12599	-1.61201	2.4911
O	1.10205	-1.16401	2.15375
H	0.39058	-2.18273	3.74024
H	0.837744	-0.685725	1.29637
C	1.04226	1.79721	-2.81087
O	-0.190711	1.68982	-2.85909
O	1.83407	1.30082	-1.83774
H	1.63565	2.31597	-3.56603
H	1.31501	0.816417	-1.12599
C	6.02837	-0.0397235	-0.143739
O	5.61083	-1.06408	0.372163
O	5.25258	1.0394	-0.239465
H	7.04658	-0.00870822	-0.529737
H	4.39477	0.873356	0.135184
