20
  This energy is 0.000563924 and Call times are: 8100
C	-0.415842	-0.375709	0.91859
O	0.0383053	-0.0427807	-0.216355
O	-0.332385	0.367236	2.00279
H	-0.917167	-1.33381	1.05066
H	0.138278	1.27186	1.88543
C	1.33585	2.97494	0.429058
O	0.884257	2.62919	1.54189
O	1.27699	2.25821	-0.691224
H	1.83475	3.93192	0.282713
H	0.815802	1.35841	-0.584624
C	-1.05743	-2.96538	-1.51841
O	-1.38462	-3.00728	-0.324571
O	-0.405102	-1.94688	-2.11631
H	-1.2653	-3.76443	-2.23242
H	-0.199335	-1.19408	-1.4826
C	6.92117	-0.0190927	-0.167297
O	6.07788	-0.356476	-0.982659
O	6.56844	0.352762	1.06267
H	7.97334	-0.0224711	-0.449504
H	5.62506	0.308759	1.17165
