20
  This energy is -0.00196505 and Call times are: 1597
C	-0.0790071	-0.0336466	-1.07262
O	0.0494247	0.127079	0.177524
O	-0.422521	-1.16755	-1.64767
H	0.0972097	0.797267	-1.75472
H	-0.590812	-1.95472	-1.01074
C	-0.697365	-2.92383	1.33557
O	-0.816779	-3.06511	0.0995912
O	-0.350989	-1.80051	1.96036
H	-0.875305	-3.74509	2.02839
H	-0.17834	-1.01549	1.33775
C	0.880079	3.36766	-0.318743
O	0.680986	2.91361	-1.45376
O	0.773871	2.67229	0.832582
H	1.16928	4.40155	-0.121471
H	0.508126	1.71436	0.682956
C	5.35976	0.0407001	0.38258
O	5.61827	-1.12145	0.113564
O	5.77178	1.03046	-0.40871
H	4.78585	0.269887	1.27969
H	6.25849	0.689643	-1.15083
