20
  This energy is 1.6494e-05 and Call times are: 9943
C	-0.126869	1.04826	0.207213
O	0.104043	-0.151632	-0.12763
O	-0.974677	1.41044	1.14767
H	0.38994	1.86738	-0.291465
H	-1.46478	0.64353	1.62231
C	-1.91699	-1.83615	1.94231
O	-2.13445	-0.646611	2.25787
O	-1.07309	-2.24905	0.999156
H	-2.42338	-2.66422	2.43626
H	-0.585216	-1.49647	0.520282
C	2.32689	0.916072	-2.44205
O	1.90157	1.95031	-1.9096
O	1.94853	-0.339901	-2.12624
H	3.06983	0.907222	-3.24172
H	1.26335	-0.364285	-1.391
C	8.69886	-0.080529	0.195813
O	9.41572	0.636797	0.875038
O	9.1166	-0.539935	-0.983151
H	7.70693	-0.347321	0.558584
H	9.99516	-0.231091	-1.17427
