20
  This energy is -0.00211904 and Call times are: 8016
C	-0.268437	-0.42797	-0.950091
O	0.0196313	0.188979	0.118357
O	-0.156447	-1.73	-1.11316
H	-0.637683	0.117777	-1.81759
H	0.190329	-2.25072	-0.299381
C	1.01841	-2.31605	2.10181
O	0.731984	-2.90801	1.03907
O	0.923788	-1.00491	2.31189
H	1.38385	-2.85048	2.97757
H	0.584649	-0.479453	1.51027
C	-0.861299	3.11644	-1.32786
O	-1.0516	2.26038	-2.20251
O	-0.399884	2.87513	-0.0831787
H	-1.04994	4.18198	-1.47116
H	-0.216527	1.90012	0.0792637
C	4.14116	-0.0357311	-0.0992097
O	3.42416	-0.315729	-1.04648
O	3.61411	0.327253	1.06954
H	5.22363	-0.0835157	-0.211844
H	2.66439	0.326079	1.02704
