20
  This energy is -0.00104615 and Call times are: 694
C	-0.410021	0.887429	-0.449713
O	0.0503589	-0.215967	-0.0304788
O	-0.498097	1.98301	0.275791
H	-0.768219	0.97994	-1.47434
H	-0.161668	1.90321	1.24227
C	0.856532	0.540273	3.12943
O	0.396796	1.62012	2.69995
O	0.962858	-0.590836	2.43554
H	1.22219	0.43598	4.14999
H	0.628654	-0.523238	1.47771
C	-0.513491	-1.60884	-3.06026
O	-0.895691	-0.436209	-3.17391
O	0.00728927	-2.15796	-1.94329
H	-0.557023	-2.3417	-3.86805
H	0.0603778	-1.50582	-1.18005
C	3.98725	0.187262	0.296921
O	4.20043	-1.00231	0.12583
O	2.9998	0.802221	-0.352911
H	4.61182	0.751196	0.988723
H	2.53852	0.194586	-0.920166
