20
  This energy is -0.00450413 and Call times are: 6656
C	0.146356	-0.883611	0.596407
O	-0.0520979	0.217686	0.00230995
O	0.448309	-2.01382	-0.00847487
H	0.0722745	-0.944039	1.68158
H	0.520441	-1.96402	-1.03119
C	0.407104	-0.644635	-3.19962
O	0.596986	-1.72312	-2.59739
O	0.0983313	0.519373	-2.63223
H	0.482863	-0.569835	-4.2835
H	0.0207803	0.479796	-1.61925
C	-0.625008	1.72467	2.97525
O	-0.383784	0.543509	3.25938
O	-0.641975	2.24269	1.72957
H	-0.855076	2.49184	3.71688
H	-0.433171	1.55859	1.02313
C	4.01531	-0.295552	-0.13772
O	2.92364	-0.507333	-0.640912
O	4.18737	0.713279	0.715611
H	4.85733	-0.939081	-0.389858
H	3.37476	1.18965	0.844135
