20
  This energy is -0.000288612 and Call times are: 15007
C	0.687346	-0.399652	-0.725068
O	-0.0744757	0.185261	0.101186
O	0.718227	-1.70194	-0.918717
H	1.37979	0.176615	-1.33758
H	0.0677348	-2.25118	-0.345272
C	-1.74984	-2.39329	1.42445
O	-0.98933	-2.95389	0.606394
O	-1.81452	-1.08386	1.65554
H	-2.44989	-2.95738	2.03915
H	-1.17115	-0.531113	1.09496
C	1.2205	3.17321	-0.811399
O	1.81941	2.34184	-1.50724
O	0.265944	2.8901	0.0991135
H	1.40312	4.2483	-0.859544
H	0.0752181	1.90534	0.166343
C	4.34919	-0.297114	0.23357
O	3.94235	0.848282	0.344669
O	5.42048	-0.569834	-0.510384
H	3.82987	-1.10431	0.748781
H	5.77227	0.222841	-0.899853
