20
  This energy is -0.00130904 and Call times are: 7196
C	0.715752	-0.768421	0.234774
O	-0.147909	0.0746951	-0.1505
O	1.38895	-0.684157	1.36354
H	0.947727	-1.63765	-0.379516
H	1.17486	0.132223	1.94777
C	-0.119135	2.27769	2.36998
O	0.731806	1.43752	2.73313
O	-0.820932	2.23554	1.23954
H	-0.363611	3.14826	2.97699
H	-0.613384	1.43233	0.651768
C	-0.668206	-1.73389	-2.96047
O	0.196243	-2.36205	-2.3342
O	-1.24298	-0.580999	-2.55942
H	-1.06802	-2.05076	-3.92547
H	-0.894369	-0.263176	-1.67167
C	4.51692	-0.245009	-0.33495
O	5.64095	-0.619491	-0.041513
O	3.95262	0.77976	0.302958
H	3.97018	-0.755014	-1.12721
H	4.53768	1.12871	0.966067
