20
  This energy is -0.000453874 and Call times are: 12135
C	0.608667	-0.50067	-0.732628
O	-0.109519	-0.0205615	0.194138
O	0.988181	0.165359	-1.80351
H	0.958095	-1.53112	-0.679609
H	0.663021	1.13734	-1.85969
C	-0.620411	3.10476	-0.891305
O	0.0864377	2.61401	-1.79762
O	-1.02965	2.47095	0.20551
H	-0.972137	4.13477	-0.929987
H	-0.715861	1.50595	0.26881
C	0.0265866	-2.97351	1.83706
O	0.692761	-3.15169	0.80821
O	-0.597251	-1.82656	2.1772
H	-0.132088	-3.74078	2.59707
H	-0.469035	-1.09934	1.49503
C	6.56904	0.319431	0.314541
O	5.45813	0.388124	-0.186406
O	7.43275	-0.619132	-0.07096
H	6.85629	1.03386	1.08512
H	7.05341	-1.171	-0.745728
