20
  This energy is 0.000229206 and Call times are: 6942
C	-0.0867279	0.042148	1.07172
O	0.113452	-0.0859951	-0.172743
O	-1.01645	0.808976	1.60278
H	0.529802	-0.501531	1.78659
H	-1.60165	1.32378	0.934837
C	-2.23558	1.92818	-1.45023
O	-2.41724	2.04471	-0.219258
O	-1.30942	1.1689	-2.03153
H	-2.848	2.46236	-2.17529
H	-0.721821	0.65755	-1.37812
C	2.64109	-2.24478	0.450411
O	2.21601	-1.92255	1.56824
O	2.16047	-1.79851	-0.728661
H	3.46826	-2.9395	0.293456
H	1.39595	-1.15542	-0.616403
C	8.1826	-0.429969	0.0841615
O	8.41571	0.199709	1.10345
O	8.28277	0.149205	-1.11168
H	7.88955	-1.47683	0.154259
H	8.54528	1.05887	-1.02579
