20
  This energy is -0.00068475 and Call times are: 14294
C	-0.519819	-0.0943278	-0.937433
O	0.0290354	-0.086404	0.204446
O	-0.301273	0.802773	-1.87651
H	-1.22731	-0.879337	-1.20192
H	0.364949	1.54514	-1.6343
C	1.96502	2.6377	0.00941192
O	1.41228	2.61583	-1.11124
O	1.77401	1.75611	0.988443
H	2.67759	3.41407	0.28442
H	1.11267	1.01853	0.759713
C	-1.6531	-2.89923	1.03874
O	-2.01465	-2.64452	-0.118188
O	-0.774337	-2.17463	1.76199
H	-2.01328	-3.75557	1.61183
H	-0.424128	-1.37739	1.25958
C	4.38658	-0.356273	-0.256798
O	5.07857	0.451216	-0.855886
O	4.04111	-0.147082	1.01301
H	4.0484	-1.25742	-0.76697
H	4.40255	0.672676	1.33102
