20
  This energy is -0.00043262 and Call times are: 2130
C	0.444753	-0.455455	-0.867551
O	-0.129767	0.166197	0.07514
O	1.21919	-1.50806	-0.704163
H	0.315959	-0.130398	-1.89929
H	1.34444	-1.82031	0.265603
C	0.873692	-1.57785	2.75062
O	1.43498	-2.17749	1.80868
O	0.0859984	-0.510986	2.6343
H	0.990441	-1.89554	3.78578
H	-0.0414524	-0.191399	1.67757
C	-1.49527	2.30542	-2.1602
O	-0.825231	1.51831	-2.84253
O	-1.61731	2.26937	-0.817008
H	-2.07239	3.13163	-2.57948
H	-1.0958	1.51722	-0.401134
C	4.91375	0.0650226	-0.394741
O	4.9029	1.06693	0.302297
O	4.33953	-1.06201	0.0242833
H	5.39853	0.0938816	-1.36986
H	3.95711	-0.946121	0.886898
