20
  This energy is -0.000968633 and Call times are: 563
C	0.974872	-0.0778581	0.448834
O	-0.210027	-0.0774289	0.000276992
O	1.94722	0.681686	-0.0116533
H	1.25103	-0.736328	1.27156
H	1.69384	1.30525	-0.786636
C	-0.0182543	2.22257	-2.42461
O	1.14635	2.20707	-1.97147
O	-1.03072	1.47322	-1.99381
H	-0.308317	2.87945	-3.24344
H	-0.788982	0.84911	-1.22846
C	-1.0722	-2.44166	2.25963
O	0.127819	-2.22137	2.47294
O	-1.82328	-1.83834	1.31505
H	-1.66589	-3.16301	2.82416
H	-1.30292	-1.16689	0.777448
C	5.32832	-0.440625	0.103859
O	4.76932	-0.246304	-0.963636
O	5.78049	0.580156	0.831229
H	5.45834	-1.46022	0.464738
H	5.60101	1.40818	0.400027
