20
  This energy is -0.00126552 and Call times are: 5830
C	-0.0902427	0.742257	-0.773822
O	-0.0767365	-0.195098	0.078453
O	0.675462	1.81231	-0.718176
H	-0.766401	0.699957	-1.62691
H	1.31567	1.85843	0.0828512
C	2.27205	0.863367	2.21613
O	2.24345	1.78023	1.36736
O	1.51728	-0.233145	2.20262
H	2.94659	0.89131	3.07073
H	0.876772	-0.286543	1.41484
C	-2.48417	-1.81602	-1.65778
O	-2.27221	-0.779214	-2.30134
O	-1.8591	-2.17045	-0.515837
H	-3.21505	-2.57227	-1.95001
H	-1.17841	-1.49207	-0.220696
C	5.33469	-0.121052	0.281195
O	4.47591	-0.982183	0.17755
O	5.23312	1.02582	-0.389535
H	6.19305	-0.293257	0.929471
H	4.43988	1.04203	-0.91326
