20
  This energy is -0.00448764 and Call times are: 9606
C	0.818093	-0.201115	0.669452
O	-0.210237	0.0748987	-0.0172378
O	1.92634	-0.716689	0.179145
H	0.828771	-0.0147635	1.74271
H	1.92352	-0.894274	-0.83184
C	0.758625	-0.836961	-3.08915
O	1.76321	-1.10561	-2.39597
O	-0.381607	-0.31844	-2.63837
H	0.736893	-1.01395	-4.16354
H	-0.390308	-0.14226	-1.63708
C	-1.77956	1.18077	2.76698
O	-0.661377	0.817057	3.15615
O	-2.22216	1.12433	1.49369
H	-2.54531	1.59541	3.42515
H	-1.53735	0.745951	0.862405
C	5.57637	0.108379	-0.342947
O	5.77626	0.786982	0.651705
O	4.63126	-0.830908	-0.347519
H	6.17791	0.273455	-1.23603
H	4.18624	-0.866768	0.491795
