20
  This energy is 0.000760435 and Call times are: 12177
C	0.181818	-0.16426	-1.04778
O	0.0801217	-0.0255456	0.207448
O	-0.739047	0.200509	-1.91575
H	1.07594	-0.611159	-1.48087
H	-1.58412	0.623064	-1.51458
C	-2.9338	1.40356	0.491629
O	-2.81771	1.25656	-0.744001
O	-2.03292	1.04895	1.40534
H	-3.82027	1.85316	0.936769
H	-1.19341	0.625791	1.01821
C	3.138	-1.41178	0.614055
O	2.94901	-1.41332	-0.610014
O	2.27408	-0.944786	1.53921
H	4.04296	-1.79603	1.08828
H	1.42903	-0.58331	1.13193
C	8.72528	0.138981	-0.283934
O	8.93572	0.476322	0.870062
O	7.63643	-0.560667	-0.600844
H	9.4362	0.413545	-1.06234
H	7.10693	-0.729756	0.170395
