20
  This energy is -0.00312473 and Call times are: 5525
C	-0.0463205	-1.07259	0.0727214
O	0.0802805	0.173827	-0.115956
O	-0.70702	-1.61196	1.07621
H	0.40652	-1.78211	-0.618838
H	-1.13696	-0.949108	1.7315
C	-1.62789	1.43058	2.47433
O	-1.74035	0.197869	2.64651
O	-0.969611	2.02021	1.47873
H	-2.07973	2.15024	3.15554
H	-0.53673	1.37197	0.82596
C	1.90335	-0.427124	-2.90036
O	1.61346	-1.54887	-2.46252
O	1.54232	0.747896	-2.34417
H	2.49494	-0.26285	-3.80287
H	0.99507	0.628878	-1.5093
C	3.98706	-0.398719	0.197945
O	4.59233	-0.255412	-0.852247
O	3.17555	0.555803	0.651644
H	4.11257	-1.31751	0.769597
H	3.16064	1.29757	0.0572208
