20
  This energy is -3.9412e-05 and Call times are: 6816
C	0.956948	0.207607	-0.446138
O	-0.178569	-0.134979	-0.000688007
O	1.63837	1.25361	-0.0266548
H	1.43873	-0.375471	-1.23013
H	1.19057	1.80729	0.712625
C	-0.746424	2.22725	2.30241
O	0.372105	2.55211	1.84939
O	-1.47169	1.1826	1.90883
H	-1.23655	2.7988	3.08932
H	-1.03835	0.62963	1.17388
C	-0.221163	-2.7702	-2.11998
O	0.855933	-2.20085	-2.34306
O	-1.14128	-2.37823	-1.21438
H	-0.550845	-3.67012	-2.64243
H	-0.865261	-1.54996	-0.715951
C	8.8549	0.343349	0.151254
O	9.49518	-0.460039	-0.50783
O	7.55126	0.165614	0.362084
H	9.35591	1.21477	0.571149
H	7.24614	-0.630225	-0.0590074
