20
  This energy is -0.00203079 and Call times are: 2053
C	-0.25429	-0.824388	-0.643125
O	0.0825806	0.0600208	0.19921
O	-0.78785	-0.569232	-1.81983
H	-0.109816	-1.88059	-0.418863
H	-0.92623	0.424172	-2.03808
C	-0.742753	2.87861	-1.4074
O	-1.07171	1.99281	-2.22533
O	-0.203646	2.66892	-0.208404
H	-0.877462	3.93795	-1.62137
H	-0.0659075	1.68757	0.0189506
C	1.13306	-2.35397	2.32212
O	0.717008	-2.96453	1.32805
O	1.14064	-1.01303	2.47102
H	1.54777	-2.84401	3.20494
H	0.763854	-0.532865	1.67219
C	4.44509	-0.0529549	-0.289565
O	4.81674	0.267572	0.827988
O	3.14933	-0.211825	-0.556549
H	5.18181	-0.210554	-1.07641
H	2.62185	-0.0436638	0.216279
