20
  This energy is -0.00544652 and Call times are: 12984
C	1.07216	0.068746	0.0603122
O	-0.178569	0.0138978	-0.134263
O	1.65295	-0.0942889	1.23101
H	1.74986	0.261619	-0.770502
H	1.02028	-0.277101	2.01837
C	-1.31969	-0.612256	2.94999
O	-0.0835973	-0.552102	3.12413
O	-1.95046	-0.45214	1.78866
H	-2.00749	-0.80911	3.77115
H	-1.33262	-0.266759	1.00278
C	0.30153	0.617563	-3.42709
O	1.43864	0.612825	-2.93616
O	-0.846218	0.41906	-2.74618
H	0.0991805	0.786357	-4.48636
H	-0.691873	0.260401	-1.76554
C	4.89684	-0.0770587	0.434924
O	6.06685	0.233855	0.279343
O	4.07044	-0.16091	-0.606971
H	4.52544	-0.288047	1.43705
H	4.52408	0.0478795	-1.41592
