20
  This energy is -0.00194744 and Call times are: 7974
C	-0.891722	0.300271	-0.522071
O	0.116816	-0.172643	0.0815789
O	-1.10291	1.58349	-0.72983
H	-1.66092	-0.365216	-0.912199
H	-0.381622	2.2164	-0.365405
C	1.81739	2.60782	0.845738
O	0.814711	3.05706	0.250179
O	2.07164	1.32236	1.0806
H	2.59567	3.26198	1.2362
H	1.36095	0.687223	0.726725
C	-1.06895	-3.30605	-0.380309
O	-1.91124	-2.56694	-0.90788
O	0.0600696	-2.89403	0.232808
H	-1.14945	-4.39429	-0.353019
H	0.162439	-1.89399	0.223764
C	5.03049	0.112763	0.405328
O	4.1614	-0.0574152	-0.434614
O	6.31741	-0.0343556	0.0927431
H	4.74963	0.387907	1.42126
H	6.41791	-0.274092	-0.821699
