20
  This energy is 0.000104634 and Call times are: 1260
C	0.590206	0.886461	-0.15406
O	-0.205709	-0.0880753	-0.00577063
O	1.88545	0.83394	0.0783444
H	0.219338	1.85212	-0.495671
H	2.24194	-0.0733297	0.399921
C	1.86472	-2.50492	1.033
O	2.63502	-1.53217	0.883813
O	0.551751	-2.49844	0.813283
H	2.22355	-3.47667	1.36923
H	0.188041	-1.60291	0.497912
C	-2.7842	1.85829	-1.0061
O	-1.79157	2.59757	-1.05318
O	-2.77866	0.562926	-0.628786
H	-3.79315	2.18044	-1.27018
H	-1.86119	0.236572	-0.379018
C	6.73948	-0.128529	0.404295
O	5.85589	0.229372	-0.357909
O	8.01556	-0.116152	0.0208847
H	6.48067	-0.461481	1.40872
H	8.09672	0.194963	-0.873764
