20
  This energy is -0.0107276 and Call times are: 4700
C	-0.315095	-0.998033	0.250069
O	0.139918	0.167378	0.0501434
O	-1.3041	-1.5397	-0.430289
H	0.112452	-1.62914	1.0283
H	-1.71132	-0.950754	-1.16578
C	-1.78926	1.22707	-2.47219
O	-2.22737	0.076134	-2.25942
O	-0.795632	1.81598	-1.81031
H	-2.20464	1.86611	-3.25014
H	-0.387838	1.242	-1.07685
C	2.39214	-0.279904	2.53309
O	1.7523	-1.33954	2.49025
O	2.19002	0.789691	1.73592
H	3.20654	-0.0913815	3.23502
H	1.44441	0.645878	1.07711
C	4.7691	-0.198514	-0.306456
O	4.70132	-0.829955	0.735886
O	4.09747	0.942564	-0.455995
H	5.38579	-0.573031	-1.12263
H	3.60352	1.14951	0.329476
