20
  This energy is -0.00381071 and Call times are: 5651
C	-0.173113	0.272642	-1.02644
O	-0.0240135	0.0615388	0.213876
O	0.242001	-0.539284	-1.97664
H	-0.673809	1.17548	-1.37417
H	0.714154	-1.39248	-1.65607
C	1.56897	-2.88282	0.215794
O	1.41562	-2.65713	-1.0038
O	1.16925	-2.09234	1.20955
H	2.06341	-3.78368	0.576487
H	0.70357	-1.24238	0.902259
C	-1.59486	2.97584	0.904465
O	-1.58947	2.90338	-0.331976
O	-1.07132	2.05934	1.74488
H	-2.03282	3.80633	1.46122
H	-0.659682	1.28058	1.26039
C	3.59864	0.236242	0.243133
O	3.11809	-0.221071	-0.78143
O	4.87799	0.02351	0.548984
H	2.9737	0.824564	0.913973
H	5.30258	-0.50202	-0.119832
