20
  This energy is -0.00507733 and Call times are: 2383
C	-1.04002	0.201391	0.188933
O	0.195301	0.0859316	-0.0676747
O	-1.81368	-0.785193	0.592073
H	-1.53597	1.16542	0.0820709
H	-1.35269	-1.69646	0.695606
C	0.720174	-3.15974	0.562361
O	-0.498018	-3.02825	0.808502
O	1.53947	-2.19436	0.15128
H	1.22883	-4.11674	0.669815
H	1.09145	-1.28825	0.0419452
C	0.345857	3.37282	-0.849557
O	-0.835437	3.17542	-0.533896
O	1.31989	2.43927	-0.860852
H	0.736426	4.3438	-1.15963
H	0.98995	1.53239	-0.579165
C	4.642	0.336602	0.184046
O	4.91489	0.15225	-0.991257
O	3.72171	-0.409175	0.794285
H	5.1572	1.11973	0.739024
H	3.35463	-1.05001	0.195658
