20
  This energy is -0.00028662 and Call times are: 14798
C	0.158751	-0.103753	1.05921
O	0.0878161	-0.0304372	-0.203639
O	-0.783601	0.303248	1.88428
H	1.04227	-0.525867	1.53664
H	-1.61943	0.70154	1.44113
C	-2.92553	1.36238	-0.63567
O	-2.83743	1.28477	0.608549
O	-2.00018	0.967148	-1.50729
H	-3.80518	1.77775	-1.12537
H	-1.16638	0.574435	-1.07805
C	3.15224	-1.43741	-0.46309
O	2.93335	-1.37571	0.754425
O	2.31229	-1.0178	-1.43199
H	4.06766	-1.8465	-0.894545
H	1.4583	-0.63509	-1.06474
C	8.23204	-0.177208	0.382265
O	8.65582	-1.02933	-0.381996
O	8.28983	1.11469	0.0610439
H	7.80213	-0.477495	1.3371
H	8.68625	1.23279	-0.794924
