20
  This energy is -0.00229876 and Call times are: 12261
C	0.981171	-0.414632	0.152557
O	-0.135076	0.173993	0.0398453
O	1.24674	-1.6098	-0.332687
H	1.8051	0.0653646	0.679315
H	0.47495	-2.06774	-0.830953
C	-1.91529	-2.07017	-1.6926
O	-0.808407	-2.63721	-1.56957
O	-2.22993	-0.866758	-1.21827
H	-2.74537	-2.53709	-2.22089
H	-1.47302	-0.406197	-0.719593
C	1.08229	2.82292	1.75414
O	2.02363	2.01975	1.70053
O	-0.143492	2.6292	1.22472
H	1.1425	3.79563	2.24578
H	-0.229862	1.73986	0.764002
C	5.30281	0.0428816	0.403444
O	4.08539	0.0321436	0.490314
O	5.90164	-0.0642041	-0.782074
H	5.90521	0.141145	1.30576
H	5.25993	-0.142904	-1.47906
