20
  This energy is -0.000449638 and Call times are: 7595
C	-0.769267	-0.604622	0.447829
O	0.204742	0.0868275	0.0254614
O	-1.8981	-0.781576	-0.207032
H	-0.710659	-1.10434	1.41405
H	-1.95996	-0.314016	-1.11873
C	-0.947007	1.1477	-2.9334
O	-1.89913	0.463966	-2.5
O	0.209296	1.35624	-2.30756
H	-0.991113	1.64829	-3.89962
H	0.27909	0.900236	-1.40153
C	1.94129	-0.631501	2.83723
O	0.859037	-1.2181	2.97398
O	2.29631	0.118995	1.77371
H	2.74303	-0.657977	3.5775
H	1.57657	0.162385	1.07318
C	5.55474	-0.0274974	-0.0819965
O	5.80004	0.439057	1.01889
O	6.5399	-0.394331	-0.900781
H	4.51864	-0.144746	-0.397363
H	7.38795	-0.237674	-0.500726
