20
  This energy is -0.000662964 and Call times are: 11147
C	0.428604	-0.8807	-0.445595
O	-0.0485037	0.216589	-0.0290434
O	0.481211	-1.98875	0.264255
H	0.833337	-0.956644	-1.45414
H	0.100873	-1.92457	1.2155
C	-1.00044	-0.591376	3.07705
O	-0.52346	-1.66494	2.65065
O	-1.07266	0.551696	2.39855
H	-1.41241	-0.503563	4.08139
H	-0.694923	0.499584	1.45606
C	0.656568	1.65951	-3.00536
O	1.04141	0.487984	-3.12148
O	0.0860294	2.19085	-1.90421
H	0.738536	2.40594	-3.79759
H	-0.00328859	1.52591	-1.15552
C	4.23414	-0.0308573	-0.266332
O	4.08553	0.770597	0.642171
O	5.37538	-0.705796	-0.398788
H	3.42412	-0.195221	-0.975953
H	5.99131	-0.4658	0.284449
