20
  This energy is 0.000117521 and Call times are: 12051
C	-0.315724	-0.830221	0.607405
O	-0.0256758	0.105932	-0.195515
O	0.247981	-1.0048	1.78477
H	-1.07824	-1.56277	0.345358
H	0.96704	-0.31763	2.03851
C	2.34367	1.75007	1.50444
O	2.04682	0.818656	2.28305
O	1.80389	1.96468	0.306622
H	3.10055	2.4915	1.75648
H	1.09288	1.28696	0.0442285
C	-2.31673	-1.06099	-2.39256
O	-2.37731	-1.83661	-1.42881
O	-1.49396	0.00384859	-2.49024
H	-2.93515	-1.15591	-3.28701
H	-0.910505	0.117683	-1.67951
C	10.9212	0.0196444	-0.395479
O	11.6613	-0.227547	0.543135
O	9.6151	0.200123	-0.203311
H	11.3344	0.0932467	-1.40078
H	9.39284	0.108098	0.716422
