20
  This energy is -0.00181364 and Call times are: 6197
C	-0.345575	0.979031	0.282783
O	0.141906	-0.166477	0.0474854
O	-1.28055	1.55557	-0.443751
H	0.00421447	1.56096	1.13468
H	-1.61536	1.01246	-1.24785
C	-1.55822	-1.08017	-2.68776
O	-2.02591	0.052477	-2.44231
O	-0.613241	-1.70072	-1.98482
H	-1.90265	-1.67399	-3.53326
H	-0.2721	-1.16923	-1.18805
C	2.15968	0.131873	2.74511
O	1.51065	1.18638	2.71601
O	2.0447	-0.882994	1.86353
H	2.91138	-0.0966662	3.50288
H	1.35824	-0.701441	1.15186
C	4.51476	0.445477	-0.00473507
O	5.56355	0.175532	0.558247
O	3.7542	-0.516924	-0.52517
H	4.19819	1.48497	-0.0818726
H	4.148	-1.37105	-0.3867
