20
  This energy is -0.000473668 and Call times are: 11105
C	-0.979318	-0.303621	0.326559
O	0.200774	-0.0693978	-0.0705736
O	-1.84499	0.623372	0.681134
H	-1.3435	-1.32809	0.394086
H	-1.50868	1.59121	0.619299
C	0.31614	3.27313	0.0744302
O	-0.843939	3.02358	0.466612
O	1.22463	2.37139	-0.291232
H	0.690693	4.29292	-0.00213154
H	0.902403	1.40904	-0.229937
C	0.73648	-3.38667	-0.453119
O	-0.428697	-3.29859	-0.0424238
O	1.56723	-2.34816	-0.680529
H	1.22911	-4.33376	-0.680789
H	1.14077	-1.46027	-0.479474
C	4.64321	0.0356138	-0.277791
O	5.5339	-0.655192	-0.74603
O	4.77499	0.592715	0.925448
H	3.73106	0.197681	-0.850888
H	5.6149	0.369826	1.31101
