20
  This energy is 0.000162848 and Call times are: 14117
C	-0.856493	-0.651313	-0.0100568
O	0.191259	0.0549897	-0.102483
O	-1.74973	-0.538789	0.951132
H	-1.07186	-1.41561	-0.755846
H	-1.55346	0.180056	1.65709
C	-0.0842408	2.03476	2.58293
O	-1.1115	1.32717	2.65992
O	0.845554	1.9557	1.6335
H	0.140141	2.80528	3.31918
H	0.662225	1.24377	0.931172
C	1.05431	-1.58537	-2.93126
O	-0.0163947	-2.09962	-2.58023
O	1.69314	-0.58817	-2.28485
H	1.6099	-1.88889	-3.82046
H	1.20446	-0.286422	-1.45975
C	6.55927	0.0935438	-0.2606
O	6.47056	0.841086	0.700182
O	5.66089	-0.870491	-0.45826
H	7.38239	0.216929	-0.963426
H	5.00186	-0.864057	0.226872
