20
  This energy is -4.8039e-05 and Call times are: 14546
C	-0.790606	-0.665474	0.299961
O	0.178032	0.117505	0.0678517
O	-1.66131	-1.06364	-0.604339
H	-0.950578	-1.05991	1.30274
H	-1.51616	-0.696313	-1.55178
C	-0.205142	0.722334	-3.20235
O	-1.15691	-0.0488638	-2.95485
O	0.696334	1.1529	-2.32249
H	-0.0314507	1.11972	-4.20136
H	0.559036	0.79758	-1.37984
C	1.12097	-0.07889	3.30975
O	0.117872	-0.800657	3.22666
O	1.67401	0.613424	2.29229
H	1.67904	0.0794642	4.2344
H	1.18094	0.487269	1.42534
C	7.00401	0.182724	0.403903
O	8.10643	-0.340487	0.376904
O	6.22203	0.17877	-0.674987
H	6.65682	0.657767	1.32069
H	6.64731	-0.266858	-1.3991
