20
  This energy is -0.00235307 and Call times are: 6071
C	-0.650019	-0.228212	0.82661
O	0.0472037	0.146246	-0.162759
O	-0.466458	-1.3537	1.48541
H	-1.46731	0.393631	1.19004
H	0.302566	-1.94435	1.14871
C	2.22022	-2.38295	-0.459374
O	1.52056	-2.73793	0.51343
O	2.07089	-1.25833	-1.15588
H	3.04301	-2.99307	-0.829369
H	1.30903	-0.667819	-0.832497
C	-1.79811	2.97033	-0.401513
O	-2.28467	2.35321	0.555824
O	-0.756026	2.55633	-1.15187
H	-2.16672	3.93676	-0.75027
H	-0.393944	1.66702	-0.854113
C	4.63744	0.120928	-0.435561
O	3.97262	0.911779	0.214334
O	5.16492	-0.959021	0.139751
H	4.80057	0.301145	-1.49745
H	4.9448	-0.99125	1.06403
