20
  This energy is -0.000868079 and Call times are: 6404
C	-0.0283498	-0.0487903	1.07457
O	-0.0092264	0.134135	-0.178968
O	0.0522931	-1.22674	1.65798
H	-0.116088	0.79929	1.75265
H	0.135875	-2.03042	1.02494
C	0.285453	-2.99961	-1.31899
O	0.262284	-3.16177	-0.0800221
O	0.204743	-1.83149	-1.95237
H	0.377599	-3.83848	-2.00741
H	0.11784	-1.02911	-1.33403
C	-0.29067	3.47045	0.297915
O	-0.282224	2.98644	1.43797
O	-0.203687	2.76894	-0.851294
H	-0.371087	4.53973	0.093794
H	-0.128257	1.77866	-0.695379
C	4.08318	0.391123	0.0758257
O	5.10609	0.54111	-0.572982
O	3.70695	-0.820501	0.483178
H	3.47204	1.25812	0.323894
H	4.32862	-1.48101	0.198521
