20
  This energy is -0.0038297 and Call times are: 6029
C	0.306513	-0.491003	0.907114
O	-0.0403511	-0.0248845	-0.218768
O	0.40551	0.220659	2.01082
H	0.548053	-1.54789	1.01381
H	0.178664	1.21741	1.91771
C	-0.550996	3.20244	0.509539
O	-0.204453	2.72622	1.6118
O	-0.662645	2.52417	-0.630492
H	-0.79967	4.25607	0.390612
H	-0.436365	1.53626	-0.549638
C	0.28146	-3.09688	-1.59605
O	0.578957	-3.25087	-0.403639
O	-0.0844869	-1.93076	-2.16755
H	0.28278	-3.90446	-2.33043
H	-0.0952028	-1.16643	-1.5146
C	4.21854	0.327571	0.225115
O	3.10443	0.113314	0.675274
O	4.67648	-0.365177	-0.816953
H	4.84432	1.0938	0.681192
H	4.03069	-0.99688	-1.11306
