20
  This energy is -0.000323493 and Call times are: 4472
C	-0.995864	0.342187	-0.221479
O	0.218739	0.0365055	-0.0304555
O	-2.01972	-0.341543	0.246118
H	-1.25548	1.22345	-0.806894
H	-1.78237	-1.17296	0.799335
C	-0.0614761	-2.73254	1.82984
O	-1.25413	-2.41765	1.62914
O	1.00363	-2.07502	1.37662
H	0.211384	-3.60815	2.41718
H	0.77906	-1.25165	0.824045
C	1.18588	2.7295	-1.83324
O	-0.0520569	2.76733	-1.84538
O	1.93465	1.79142	-1.21703
H	1.81986	3.46621	-2.33005
H	1.37758	1.09743	-0.749381
C	4.87381	0.417167	0.125651
O	5.09497	0.335816	-1.07196
O	5.00934	-0.646499	0.916703
H	4.5623	1.37037	0.551174
H	5.2847	-1.40674	0.416712
