20
  This energy is -0.00307973 and Call times are: 11799
C	0.546997	0.0892654	0.922342
O	0.0135226	0.000998489	-0.223434
O	-0.113469	0.0241175	2.05987
H	1.6231	0.228865	1.01847
H	-1.12799	-0.108062	1.97675
C	-3.2156	-0.406936	0.559622
O	-2.67295	-0.315147	1.68166
O	-2.59074	-0.344743	-0.614208
H	-4.28949	-0.551388	0.449976
H	-1.58552	-0.210113	-0.542764
C	3.04894	0.360756	-1.67065
O	3.26997	0.410343	-0.452972
O	1.83698	0.19711	-2.24051
H	3.82655	0.445787	-2.43195
H	1.0987	0.115506	-1.56306
C	7.47597	-0.0604557	-0.354855
O	7.87573	0.80544	0.406859
O	6.34258	-0.715511	-0.106173
H	8.05304	-0.299372	-1.24739
H	5.94444	-0.408028	0.700494
