20
  This energy is -0.00108051 and Call times are: 520
C	-0.323655	0.402036	-0.944195
O	0.0563785	-0.185386	0.112072
O	-0.551978	1.69571	-1.0375
H	-0.484442	-0.164341	-1.86076
H	-0.401773	2.23576	-0.177609
C	0.253185	2.36295	2.27404
O	-0.124168	2.92555	1.22382
O	0.493724	1.06136	2.41615
H	0.422128	2.91835	3.19551
H	0.344156	0.516819	1.57069
C	0.0768478	-3.14071	-1.53209
O	-0.283917	-2.30995	-2.37693
O	0.382636	-2.8681	-0.246581
H	0.189244	-4.20651	-1.73929
H	0.28841	-1.89204	-0.0250312
C	4.25052	-0.315315	0.208693
O	3.11104	-0.693171	-0.0117149
O	4.64505	0.904903	-0.153156
H	4.95165	-0.983952	0.706749
H	3.93654	1.37803	-0.574994
