20
  This energy is -0.00624429 and Call times are: 3022
C	0.267936	-1.02311	0.198347
O	-0.112252	0.138463	-0.135403
O	1.05519	-1.28537	1.22102
H	-0.0554633	-1.89267	-0.372626
H	1.36326	-0.470563	1.764
C	1.37982	2.0351	2.18479
O	1.74726	0.882409	2.49808
O	0.588661	2.34813	1.16094
H	1.69209	2.91206	2.75008
H	0.280974	1.54799	0.614304
C	-1.87347	-1.17117	-2.70845
O	-1.35016	-2.14667	-2.15293
O	-1.73524	0.115207	-2.3257
H	-2.51717	-1.24686	-3.58676
H	-1.14649	0.217233	-1.51724
C	4.24103	0.16693	-0.34609
O	3.05124	0.0786716	-0.603778
O	4.70917	-0.205921	0.84443
H	4.92661	0.554929	-1.09852
H	4.00592	-0.522997	1.40002
