20
  This energy is -0.00130813 and Call times are: 3930
C	0.915305	-0.452851	0.339166
O	-0.198988	-0.0356416	-0.0961262
O	1.84985	0.317391	0.856626
H	1.15752	-1.5143	0.30195
H	1.62801	1.31885	0.89545
C	0.0410402	3.25588	0.46519
O	1.13635	2.82718	0.88753
O	-0.930549	2.51747	-0.0667457
H	-0.2152	4.31379	0.501088
H	-0.71895	1.52411	-0.113196
C	-1.07337	-3.20029	-0.907361
O	0.0610248	-3.2994	-0.420126
O	-1.76338	-2.05065	-1.05761
H	-1.65111	-4.04977	-1.27624
H	-1.25595	-1.24864	-0.726043
C	5.39817	0.356659	-0.198147
O	4.36265	0.0277371	-0.75429
O	5.83736	-0.306994	0.870588
H	5.9686	1.20221	-0.580721
H	5.24592	-1.01688	1.09429
