20
  This energy is -0.00392521 and Call times are: 8713
C	0.316516	-0.755581	0.697714
O	-0.0821169	0.0396719	-0.204425
O	0.78554	-0.379764	1.86955
H	0.286283	-1.83218	0.534134
H	0.816234	0.633498	2.03077
C	0.405223	3.0158	1.24884
O	0.796872	2.21695	2.12652
O	-0.0732286	2.68328	0.0518864
H	0.425742	4.09391	1.40173
H	-0.104225	1.68153	-0.119132
C	-0.81848	-2.58746	-2.20281
O	-0.373363	-3.09392	-1.16385
O	-0.956838	-1.26517	-2.43249
H	-1.15455	-3.16744	-3.06431
H	-0.654926	-0.70373	-1.65514
C	3.86708	0.2711	0.279268
O	3.14125	-0.44927	-0.38709
O	5.19167	0.212275	0.146935
H	3.42587	0.96931	0.989579
H	5.43797	-0.43598	-0.503354
