20
  This energy is 0.000195403 and Call times are: 1176
C	-0.823789	-0.388908	-0.572724
O	0.190968	-0.0495724	0.105738
O	-1.77755	0.436207	-0.952131
H	-0.95535	-1.42432	-0.884739
H	-1.65965	1.41377	-0.662115
C	-0.336846	3.22954	0.524832
O	-1.33292	2.87664	-0.142376
O	0.648751	2.43275	0.932149
H	-0.191166	4.26216	0.838832
H	0.539379	1.46122	0.653068
C	1.30791	-3.24112	0.0419163
O	0.244977	-3.26405	-0.593468
O	1.85439	-2.14861	0.614758
H	1.93194	-4.1205	0.211568
H	1.30118	-1.32088	0.475243
C	7.25521	-0.182772	0.385023
O	6.79728	-1.01791	-0.378278
O	7.26464	1.10825	0.0553513
H	7.66032	-0.497649	1.34598
H	6.88299	1.24017	-0.8053
