20
  This energy is -0.0053422 and Call times are: 6900
C	0.814451	0.468689	-0.524299
O	-0.0582596	-0.126259	0.175418
O	0.556031	1.13696	-1.62931
H	1.86242	0.451519	-0.227305
H	-0.429727	1.15786	-1.91476
C	-2.86031	0.520404	-1.53841
O	-1.98584	1.09943	-2.21803
O	-2.64663	-0.16735	-0.418794
H	-3.9118	0.534047	-1.82176
H	-1.6724	-0.197225	-0.12948
C	2.344	-1.11556	2.34061
O	2.94458	-0.460867	1.47761
O	1.01569	-1.35119	2.36133
H	2.83371	-1.58332	3.19668
H	0.53615	-0.931924	1.58357
C	6.00553	0.0114385	0.22361
O	6.70341	0.985627	0.455375
O	6.42302	-0.942811	-0.607429
H	5.03092	-0.0776365	0.702054
H	7.28534	-0.738085	-0.95132
