20
  This energy is -0.00252036 and Call times are: 2467
C	1.05116	0.162483	-0.162936
O	-0.155281	-0.0741124	0.143185
O	1.44509	0.650821	-1.32085
H	1.84894	-0.0371126	0.551516
H	0.69839	0.84195	-1.99874
C	-1.75934	0.859431	-2.64291
O	-0.563715	1.08422	-2.92893
O	-2.20371	0.365464	-1.48934
H	-2.56652	1.05904	-3.34628
H	-1.47118	0.169125	-0.812166
C	0.825259	-1.15824	3.19291
O	1.87381	-0.83331	2.6193
O	-0.413815	-1.07599	2.66537
H	0.787974	-1.55498	4.20913
H	-0.411913	-0.713094	1.72785
C	4.6387	0.212545	-0.303785
O	4.56458	-1.00262	-0.391301
O	5.42345	0.782624	0.609828
H	4.0564	0.83669	-0.980599
H	5.87074	0.124136	1.12954
