20
  This energy is -6.3856e-05 and Call times are: 10716
C	1.05274	-0.22049	-0.031731
O	-0.181795	0.0140304	0.129848
O	1.67767	-0.163654	-1.1896
H	1.67693	-0.49099	0.819121
H	1.09562	0.0913715	-1.99571
C	-1.15119	0.735303	-2.99215
O	0.0676407	0.497991	-3.13359
O	-1.82495	0.688228	-1.84497
H	-1.78503	1.01135	-3.83367
H	-1.25791	0.432723	-1.04068
C	0.131769	-0.587689	3.44304
O	1.26915	-0.752917	2.98138
O	-0.960277	-0.242402	2.72989
H	-0.11687	-0.705773	4.49932
H	-0.762398	-0.126058	1.75114
C	6.01326	0.0459569	0.232502
O	6.89212	0.791873	0.633748
O	6.23814	-0.786411	-0.783423
H	5.03477	0.0618945	0.711062
H	7.12855	-0.69577	-1.10396
