20
  This energy is -0.0114912 and Call times are: 12471
C	-0.860442	-0.139541	0.630919
O	0.198313	-0.0828024	-0.0626307
O	-1.81554	0.766969	0.609971
H	-1.03258	-0.978786	1.3038
H	-1.66022	1.56037	-0.0225062
C	-0.238258	2.78314	-1.73672
O	-1.27553	2.71231	-1.04325
O	0.75286	1.89445	-1.74708
H	-0.0564183	3.61423	-2.41669
H	0.610277	1.10629	-1.12085
C	1.23422	-3.01403	1.26869
O	0.137015	-2.79439	1.79969
O	1.83794	-2.21923	0.360841
H	1.84565	-3.89288	1.48144
H	1.29759	-1.39971	0.143923
C	4.15625	0.327818	-0.18058
O	3.47986	0.724189	0.754926
O	4.09636	-0.944129	-0.573108
H	4.81569	1.02255	-0.699422
H	3.48466	-1.4352	-0.0360376
