20
  This energy is 0.000197935 and Call times are: 11841
C	-0.833015	0.516948	0.443555
O	0.222594	-0.0235238	-0.00228182
O	-2.04788	0.250195	0.0106849
H	-0.777002	1.2583	1.23979
H	-2.10816	-0.448114	-0.739226
C	-1.00327	-2.08555	-2.33727
O	-2.03394	-1.54039	-1.88739
O	0.242608	-1.84673	-1.93359
H	-1.04605	-2.83149	-3.12964
H	0.313422	-1.15343	-1.1933
C	2.07556	1.79362	2.16616
O	0.905217	2.13466	2.38539
O	2.46799	0.887257	1.24699
H	2.93553	2.19734	2.7037
H	1.69625	0.496748	0.734585
C	9.1568	-0.4418	0.0855877
O	8.41536	0.0993112	0.890102
O	9.70394	0.253637	-0.910668
H	9.37278	-1.50497	0.184255
H	9.43169	1.16387	-0.876933
