20
  This energy is -0.000945517 and Call times are: 1302
C	0.211029	-0.00974929	1.05511
O	-0.0222744	0.12756	-0.18259
O	0.178107	-1.15893	1.69755
H	0.460051	0.856431	1.66704
H	-0.0552603	-1.97958	1.12685
C	-0.655221	-3.02642	-1.10919
O	-0.424823	-3.14302	0.113586
O	-0.63594	-1.88828	-1.79945
H	-0.90053	-3.8849	-1.73286
H	-0.409394	-1.06861	-1.24221
C	0.512158	3.45666	0.080245
O	0.683032	3.01637	1.22524
O	0.18404	2.71972	-1.00124
H	0.61033	4.51098	-0.184819
H	0.0863815	1.74211	-0.788186
C	4.60693	-0.293529	0.286886
O	3.94097	-0.116848	-0.720624
O	5.76582	0.341732	0.456939
H	4.24879	-0.978317	1.05468
H	5.95513	0.904243	-0.285706
