20
  This energy is 0.000432524 and Call times are: 13447
C	0.541263	-0.911534	0.184471
O	-0.0634817	0.197292	0.0845742
O	0.566702	-1.83473	-0.754402
H	1.09041	-1.15842	1.09233
H	0.051781	-1.60841	-1.61305
C	-1.38115	-0.0210036	-2.9851
O	-0.781234	-1.1111	-2.86829
O	-1.43648	0.939119	-2.06461
H	-1.92964	0.239875	-3.88911
H	-0.932469	0.722958	-1.20848
C	0.968351	1.04636	3.19134
O	1.44379	-0.0804985	2.99587
O	0.208913	1.73835	2.31683
H	1.1147	1.61486	4.11161
H	0.05631	1.23938	1.45754
C	5.43132	0.26335	-0.021408
O	6.01896	0.193016	-1.08889
O	5.88273	-0.390142	1.04849
H	4.52804	0.867329	0.0561247
H	6.67376	-0.874454	0.839934
