20
  This energy is -0.000831353 and Call times are: 8629
C	0.878822	0.534925	-0.315303
O	-0.216821	0.0163053	0.0531925
O	2.00631	-0.12941	-0.463118
H	0.936263	1.60029	-0.535353
H	1.95929	-1.13409	-0.25808
C	0.650275	-3.19225	0.453365
O	1.72322	-2.66348	0.0913305
O	-0.510758	-2.56219	0.618345
H	0.578432	-4.25681	0.671693
H	-0.47383	-1.56544	0.421304
C	-1.72577	3.03506	-0.165432
O	-0.549771	3.24353	-0.493507
O	-2.23865	1.83969	0.1929
H	-2.49196	3.81169	-0.129505
H	-1.5553	1.10271	0.16942
C	5.32034	0.363074	-0.243792
O	5.21141	-0.643432	-0.925607
O	5.09447	0.323839	1.06882
H	5.60539	1.30308	-0.714783
H	4.85542	-0.553983	1.34461
