20
  This energy is 9.975e-06 and Call times are: 6858
C	0.755706	0.190321	-0.742009
O	-0.172701	0.0856987	0.11374
O	1.61293	-0.766033	-1.03352
H	0.889366	1.1178	-1.29756
H	1.49237	-1.64318	-0.514179
C	0.262657	-3.04738	1.20969
O	1.17467	-2.92569	0.363935
O	-0.623576	-2.11002	1.53851
H	0.115407	-3.97068	1.76822
H	-0.510257	-1.23568	1.03215
C	-1.14745	3.25583	-0.547877
O	-0.179409	3.05893	-1.295
O	-1.65938	2.36125	0.322768
H	-1.70401	4.19412	-0.511199
H	-1.16662	1.48505	0.311848
C	6.67142	-0.376103	-0.186817
O	5.51179	-0.516043	0.167384
O	7.30134	0.784931	-0.0115461
H	7.19599	-1.21031	-0.651177
H	6.72877	1.42106	0.402312
