20
  This energy is -0.00130114 and Call times are: 9817
C	-0.00734849	0.647639	-0.859302
O	0.122658	-0.0817214	0.168474
O	-1.10874	0.737827	-1.57569
H	0.824283	1.25833	-1.20884
H	-1.89678	0.165478	-1.25157
C	-2.9051	-1.49282	0.388258
O	-3.01478	-0.769652	-0.625089
O	-1.81396	-1.61759	1.14061
H	-3.73023	-2.10426	0.750767
H	-1.0262	-1.05733	0.825575
C	3.31537	0.976125	0.522245
O	2.89466	1.56687	-0.48179
O	2.60734	0.10794	1.27411
H	4.32601	1.09564	0.916994
H	1.67018	-0.0230807	0.934664
C	7.31224	0.0746452	-0.438709
O	8.38625	0.538489	-0.0906548
O	6.53467	-0.568928	0.431183
H	6.98701	0.188758	-1.47211
H	6.93876	-0.594446	1.29132
