20
  This energy is -0.00209004 and Call times are: 11252
C	0.150739	-1.05845	0.12188
O	0.0235381	0.175164	-0.137369
O	-0.182032	-1.61847	1.26646
H	0.559033	-1.738	-0.62527
H	-0.568148	-0.984006	1.97498
C	-1.28238	1.33869	2.71704
O	-1.14736	0.119568	2.95656
O	-0.958693	1.94844	1.57878
H	-1.6936	2.02764	3.45349
H	-0.571667	1.32901	0.871508
C	1.2889	-0.33879	-3.23129
O	1.29083	-1.4566	-2.69784
O	0.862198	0.803619	-2.65406
H	1.63947	-0.151563	-4.24792
H	0.532383	0.662877	-1.71488
C	4.10599	-0.0423254	-0.441713
O	5.29085	-0.204591	-0.197644
O	3.24049	0.227148	0.534911
H	3.75356	-0.118915	-1.46964
H	3.68129	0.264884	1.37637
