20
  This energy is -0.00433731 and Call times are: 3469
C	-0.573373	-0.885046	0.214074
O	0.128646	0.104689	-0.150324
O	-1.16187	-0.990654	1.3875
H	-0.726431	-1.72799	-0.458798
H	-1.02241	-0.19949	2.02644
C	-0.0290615	2.08027	2.54764
O	-0.716208	1.09464	2.8915
O	0.585155	2.22981	1.37608
H	0.127632	2.93127	3.20899
H	0.456229	1.44949	0.737181
C	0.673418	-1.3759	-3.14176
O	-0.0409819	-2.17294	-2.51852
O	1.11024	-0.187031	-2.67686
H	1.03539	-1.55163	-4.15645
H	0.792368	0.00346444	-1.74235
C	3.4585	0.270581	0.359309
O	3.44764	-0.912118	0.660797
O	3.30882	0.651198	-0.908856
H	3.59209	1.02217	1.13647
H	3.20235	-0.102938	-1.47782
