20
  This energy is -0.000115907 and Call times are: 9901
C	-0.0091854	1.06984	0.115075
O	-0.10596	-0.17725	-0.0863805
O	0.94859	1.6402	0.816341
H	-0.747689	1.75315	-0.302577
H	1.64844	1.00222	1.21235
C	2.5666	-1.3413	1.55959
O	2.64499	-0.108711	1.75049
O	1.61788	-1.96169	0.861557
H	3.3009	-2.03452	1.96748
H	0.917414	-1.33859	0.468106
C	-2.91078	0.328791	-1.90696
O	-2.55758	1.46005	-1.54702
O	-2.27462	-0.822608	-1.60706
H	-3.79373	0.135376	-2.51892
H	-1.45539	-0.676479	-1.043
C	7.18749	0.21934	0.396828
O	6.23605	0.490436	-0.318055
O	8.12311	-0.637287	-0.0109974
H	7.27147	0.683485	1.37878
H	7.92554	-0.964502	-0.881441
