20
  This energy is -0.00262676 and Call times are: 10926
C	0.369959	-0.366503	0.941645
O	-0.0446001	0.181912	-0.122578
O	0.38719	-1.66623	1.15337
H	0.746659	0.241977	1.76297
H	0.0342152	-2.24579	0.383204
C	-0.94606	-2.47436	-1.94972
O	-0.535778	-2.99825	-0.891856
O	-0.984572	-1.16886	-2.20736
H	-1.32057	-3.07154	-2.77992
H	-0.640439	-0.585713	-1.44892
C	0.665121	3.22801	1.16398
O	0.99091	2.42567	2.04951
O	0.143724	2.90021	-0.0364649
H	0.766223	4.31064	1.25972
H	0.0384077	1.90743	-0.154529
C	4.17063	-0.322722	0.317375
O	5.29204	0.152062	0.234946
O	3.18849	0.109936	-0.472389
H	3.97187	-1.10872	1.04498
H	3.49976	0.793206	-1.05551
