20
  This energy is -0.000952863 and Call times are: 13236
C	-0.469514	-0.711083	0.65712
O	0.13301	0.179582	-0.0128575
O	-1.24914	-1.63628	0.136913
H	-0.362666	-0.750453	1.74052
H	-1.35383	-1.60554	-0.88374
C	-0.821342	-0.556861	-3.13595
O	-1.41043	-1.42674	-2.45908
O	-0.0272033	0.397242	-2.65509
H	-0.916	-0.509605	-4.21989
H	0.0800558	0.377726	-1.64424
C	1.46338	1.42926	2.83425
O	0.770157	0.470905	3.20178
O	1.61735	1.84072	1.55858
H	2.0376	2.05901	3.51629
H	1.09931	1.27873	0.905538
C	4.21456	0.101674	-0.216416
O	5.06119	-0.364189	-0.962058
O	4.46643	0.265017	1.08181
H	3.24282	0.386624	-0.617954
H	5.34707	-0.0233182	1.2942
