20
  This energy is -0.000254503 and Call times are: 9166
C	-0.180635	1.02051	0.289524
O	-0.0910228	-0.202381	-0.0293827
O	0.831009	1.86357	0.30501
H	-1.14196	1.44467	0.577036
H	1.73992	1.47074	0.0344725
C	3.17075	-0.485743	-0.72752
O	3.06448	0.717626	-0.407399
O	2.17939	-1.37379	-0.755641
H	4.12492	-0.920801	-1.02145
H	1.27523	-0.995299	-0.485555
C	-3.40851	-0.589752	0.501504
O	-3.18382	0.602006	0.753084
O	-2.48836	-1.49339	0.105117
H	-4.39604	-1.04906	0.574433
H	-1.56678	-1.09911	0.0285101
C	7.55645	0.282232	-0.245598
O	7.61752	0.515625	0.950892
O	6.79733	-0.710652	-0.707597
H	8.12931	0.893083	-0.942302
H	6.35565	-1.15836	0.00532244
