20
  This energy is -0.000453776 and Call times are: 8184
C	0.886118	0.476147	-0.382058
O	-0.0866033	-0.188584	0.0839201
O	0.805133	1.72124	-0.803498
H	1.87483	0.0249032	-0.456654
H	-0.123623	2.153	-0.735462
C	-2.58184	2.03524	-0.103799
O	-1.61175	2.67523	-0.563366
O	-2.54835	0.777446	0.330981
H	-3.57406	2.47628	-0.0194743
H	-1.63327	0.339386	0.264274
C	1.94755	-2.85013	0.548687
O	2.67706	-1.97367	0.065261
O	0.631016	-2.71595	0.811558
H	2.29707	-3.84781	0.820652
H	0.279266	-1.80539	0.571145
C	5.48154	0.451611	0.0380186
O	4.88676	-0.118656	0.938479
O	6.09553	-0.243031	-0.919062
H	5.50996	1.54041	0.0177651
H	5.99094	-1.17744	-0.77861
