20
  This energy is -0.00217137 and Call times are: 10364
C	-0.431979	0.197815	-0.965481
O	0.166206	0.0496082	0.141497
O	-1.50826	-0.469453	-1.32713
H	-0.064235	0.916146	-1.69726
H	-1.86073	-1.14767	-0.641979
C	-1.70355	-2.30406	1.61495
O	-2.27946	-2.14679	0.51702
O	-0.614524	-1.65568	2.02216
H	-2.06378	-3.01528	2.35693
H	-0.255181	-0.984006	1.34878
C	2.42231	2.40377	-0.756028
O	1.64648	2.32444	-1.71824
O	2.33718	1.68116	0.38017
H	3.27764	3.08102	-0.721106
H	1.55728	1.0468	0.377782
C	5.28158	-0.023753	0.452588
O	5.5203	1.10436	0.0523741
O	5.10578	-1.0276	-0.405838
H	5.21176	-0.21059	1.52353
H	5.19365	-0.724771	-1.30269
