20
  This energy is -8.3057e-05 and Call times are: 215
C	0.170248	-0.557331	0.904592
O	-0.0914027	0.183921	-0.0890246
O	0.810483	-1.70582	0.830535
H	-0.137331	-0.261889	1.90701
H	1.10392	-1.99013	-0.111112
C	1.24251	-1.56547	-2.61234
O	1.4898	-2.28557	-1.6213
O	0.597952	-0.400965	-2.58645
H	1.54868	-1.84705	-3.61887
H	0.299636	-0.112155	-1.65838
C	-1.6033	2.40828	1.96134
O	-1.21481	1.5005	2.70906
O	-1.43239	2.44798	0.623592
H	-2.13759	3.29399	2.30997
H	-0.94215	1.64376	0.272099
C	3.99339	0.170928	0.105769
O	3.96419	-1.03794	-0.0602903
O	5.13293	0.848839	-0.026127
H	3.07709	0.700194	0.364604
H	5.84887	0.265773	-0.252472
