20
  This energy is -0.00227183 and Call times are: 832
C	0.197772	-0.0376523	1.05705
O	0.0642448	-0.0707539	-0.202418
O	-0.561172	0.668313	1.86948
H	0.981415	-0.618333	1.54228
H	-1.30221	1.21747	1.41901
C	-2.5415	1.97957	-0.664032
O	-2.39362	2.00248	0.576724
O	-1.7992	1.28471	-1.5233
H	-3.32384	2.55161	-1.16086
H	-1.05967	0.740097	-1.08718
C	2.67069	-2.21391	-0.428076
O	2.5536	-1.98295	0.783127
O	1.89642	-1.69373	-1.40289
H	3.42884	-2.87735	-0.848258
H	1.18709	-1.07716	-1.04603
C	5.13065	0.13933	-0.223406
O	5.50911	-0.962934	-0.586138
O	5.78206	0.802646	0.731158
H	4.25057	0.584544	-0.685935
H	6.52594	0.300368	1.04443
