20
  This energy is -0.00188489 and Call times are: 5872
C	0.782585	-0.038334	-0.73755
O	-0.175321	-0.107155	0.0888084
O	1.59911	0.988899	-0.849377
H	0.97962	-0.863619	-1.42079
H	1.41964	1.77001	-0.208051
C	0.0772417	2.83329	1.66894
O	1.01599	2.88526	0.845584
O	-0.773045	1.81966	1.8164
H	-0.127288	3.64936	2.36054
H	-0.606	1.04217	1.1829
C	-0.963234	-3.18431	-1.07219
O	0.0155885	-2.83239	-1.74459
O	-1.54765	-2.45524	-0.0989112
H	-1.47082	-4.14272	-1.19592
H	-1.10121	-1.56508	0.0387559
C	5.06844	0.0539292	-0.128777
O	5.38926	-1.12089	-0.0471691
O	5.94458	1.01951	0.146045
H	4.05441	0.314534	-0.429691
H	6.78573	0.652261	0.393781
