20
  This energy is 0.000109375 and Call times are: 10490
C	0.281438	-0.97925	-0.346051
O	0.0445017	0.219147	-0.0100511
O	-0.378339	-2.02535	0.106497
H	1.07678	-1.20428	-1.05564
H	-1.12976	-1.82055	0.775122
C	-2.5013	-0.16524	2.12957
O	-2.25203	-1.34157	1.789
O	-1.86144	0.920828	1.70151
H	-3.29666	0.0734572	2.83423
H	-1.1125	0.728268	1.04142
C	2.53111	1.28561	-2.0391
O	2.52291	0.0537442	-2.16756
O	1.70267	1.99571	-1.2455
H	3.22384	1.9454	-2.56475
H	1.05142	1.41419	-0.74715
C	8.556	0.328139	0.196289
O	9.70189	0.283102	0.614279
O	8.13757	-0.526485	-0.736476
H	7.86889	1.07568	0.590961
H	8.83596	-1.1201	-0.988786
