20
  This energy is -0.00012088 and Call times are: 9292
C	0.995732	0.391148	0.115811
O	-0.135454	-0.174133	0.0379068
O	1.26845	1.58454	-0.369848
H	1.82746	-0.109182	0.610412
H	0.488981	2.06213	-0.836727
C	-1.93261	2.12441	-1.60337
O	-0.809396	2.66595	-1.51972
O	-2.25371	0.921995	-1.13083
H	-2.77339	2.61584	-2.09091
H	-1.48711	0.438907	-0.669669
C	1.0842	-2.85619	1.69821
O	2.03928	-2.07177	1.61721
O	-0.154118	-2.63531	1.21021
H	1.14086	-3.83238	2.18333
H	-0.237621	-1.74205	0.756605
C	7.99339	0.174141	0.100416
O	8.51583	0.72564	-0.854933
O	8.61028	-0.82455	0.730951
H	7.01203	0.502963	0.440277
H	9.45365	-1.00665	0.331773
