20
  This energy is -0.0025724 and Call times are: 13405
C	0.0672813	0.315754	-1.02648
O	-0.0155431	-0.17509	0.138596
O	0.112249	1.60501	-1.29145
H	0.106722	-0.338029	-1.89697
H	0.0761862	2.227	-0.475684
C	-0.0646441	2.58235	2.03621
O	0.0143861	3.04926	0.879651
O	-0.11503	1.29003	2.35173
H	-0.0999674	3.22486	2.91487
H	-0.0837187	0.665457	1.55008
C	0.000825447	-3.29431	-1.16825
O	0.0778313	-2.53957	-2.14728
O	-0.0717559	-2.90062	0.120206
H	-0.0171362	-4.38321	-1.24209
H	-0.0572288	-1.90045	0.220615
C	4.04796	0.243411	-0.352984
O	4.78095	-0.69727	-0.0928982
O	2.94891	0.46903	0.365837
H	4.29615	0.904983	-1.1821
H	2.85527	-0.180907	1.05329
