20
  This energy is -0.00210667 and Call times are: 6155
C	-0.229701	-0.845052	0.625312
O	0.134183	0.176729	-0.0294733
O	-1.24814	-1.6148	0.301765
H	0.309395	-1.14292	1.52385
H	-1.76033	-1.34033	-0.544381
C	-2.09523	0.213606	-2.52651
O	-2.4419	-0.789715	-1.86694
O	-1.0768	1.02076	-2.23754
H	-2.62268	0.519197	-3.42903
H	-0.565125	0.75951	-1.39871
C	2.64474	0.702155	2.17476
O	2.06689	-0.312533	2.58777
O	2.30201	1.40589	1.07583
H	3.51255	1.14745	2.66476
H	1.50421	1.01917	0.601916
C	4.85912	-0.426588	0.0625596
O	5.52878	-0.0131989	0.995539
O	4.6099	0.348259	-0.992437
H	4.46144	-1.44028	0.0939795
H	5.015	1.20195	-0.888091
