20
  This energy is -0.000295733 and Call times are: 5399
C	-0.647619	-0.440821	-0.737669
O	0.165062	-0.0372137	0.146549
O	-1.54202	0.321189	-1.33248
H	-0.639775	-1.48223	-1.05727
H	-1.55454	1.30401	-1.0366
C	-0.650217	3.20034	0.39232
O	-1.4464	2.78438	-0.476556
O	0.267075	2.46862	1.02109
H	-0.644602	4.23987	0.717063
H	0.285042	1.49236	0.737698
C	1.46777	-3.14961	0.377966
O	0.578505	-3.24065	-0.479348
O	1.80112	-2.02463	1.04405
H	2.09215	-3.9869	0.695139
H	1.2421	-1.23433	0.772829
C	4.83047	-0.0867242	-0.42567
O	5.14015	-0.97725	0.34948
O	4.1803	0.994129	0.00392526
H	5.08905	-0.177812	-1.47997
H	4.01995	0.942539	0.939554
