20
  This energy is -0.00326437 and Call times are: 436
C	-0.407536	-0.185145	-0.978532
O	-0.0282793	-0.0287862	0.220178
O	0.231039	0.28423	-2.03036
H	-1.31892	-0.739711	-1.19892
H	1.0912	0.807329	-1.83005
C	2.78217	1.74511	-0.181743
O	2.39177	1.58351	-1.3579
O	2.17014	1.29224	0.91029
H	3.69385	2.29325	0.0516741
H	1.31471	0.775743	0.722741
C	-2.70995	-1.78186	1.30323
O	-2.81807	-1.76633	0.0694843
O	-1.71501	-1.20588	2.00943
H	-3.42252	-2.2734	1.96815
H	-1.04142	-0.744169	1.42313
C	6.57209	0.237983	-0.103215
O	5.58719	0.620722	-0.714177
O	6.48773	-0.775397	0.757866
H	7.52994	0.731123	-0.264591
H	5.59888	-1.10995	0.800173
