20
  This energy is -0.000462725 and Call times are: 14588
C	-0.283557	0.149166	1.02725
O	-0.0733644	-0.0373508	-0.208157
O	0.66253	0.313456	1.92855
H	-1.3019	0.183113	1.41268
H	1.62468	0.283295	1.57218
C	3.27065	0.0337989	-0.347254
O	3.04493	0.214122	0.868642
O	2.34916	-0.138916	-1.29236
H	4.28367	0.00258147	-0.745924
H	1.39255	-0.114471	-0.948849
C	-3.40653	-0.203046	-0.756012
O	-3.29428	-0.011078	0.462435
O	-2.38363	-0.314155	-1.62876
H	-4.36519	-0.305499	-1.26785
H	-1.48563	-0.223805	-1.18594
C	7.10062	0.164329	0.13867
O	7.10275	-1.05349	0.0568274
O	8.1907	0.868767	-0.162983
H	6.19699	0.679724	0.461989
H	8.90103	0.295363	-0.428349
