20
  This energy is -0.00277846 and Call times are: 1344
C	-1.07395	0.0423303	-0.0523457
O	0.189674	-0.0235344	-0.116518
O	-1.75789	0.184596	1.06408
H	-1.6744	-0.0185609	-0.959248
H	-1.19832	0.243354	1.9226
C	1.04988	0.260483	3.10625
O	-0.197592	0.320943	3.15118
O	1.78256	0.115112	2.00432
H	1.66176	0.324915	4.0049
H	1.23724	0.0521156	1.14853
C	0.00799713	-0.34144	-3.47859
O	-1.1691	-0.249284	-3.1044
O	1.0901	-0.314813	-2.67316
H	0.305038	-0.456691	-4.52261
H	0.847972	-0.20927	-1.70317
C	5.56793	-0.256894	-0.0660956
O	5.55888	0.738402	-0.772562
O	4.5704	-0.497388	0.783966
H	6.40125	-0.95541	-0.132242
H	3.91437	0.189131	0.738237
