20
  This energy is -0.00100204 and Call times are: 5270
C	0.6043	-0.594815	-0.6625
O	-0.166286	-0.00194756	0.149839
O	1.51024	0.00646203	-1.40557
H	0.546983	-1.67571	-0.78546
H	1.57022	1.02511	-1.29428
C	0.79049	3.18597	-0.208729
O	1.54087	2.58514	-1.00735
O	-0.139161	2.62216	0.559422
H	0.84101	4.26539	-0.0730136
H	-0.209115	1.61337	0.453759
C	-1.57546	-2.9616	0.981897
O	-0.71568	-3.24582	0.13687
O	-1.84783	-1.72029	1.43504
H	-2.22039	-3.69952	1.46255
H	-1.26845	-1.01735	1.00979
C	4.77274	0.312647	-0.0298979
O	5.83388	0.700048	-0.492174
O	4.66228	-0.909317	0.48983
H	3.9073	0.974122	-0.0429785
H	5.48906	-1.3755	0.436171
