20
  This energy is -0.00456115 and Call times are: 2674
C	0.825408	-0.194374	-0.662427
O	-0.128327	-0.0821193	0.163998
O	1.17123	0.731446	-1.53288
H	1.42641	-1.10259	-0.688315
H	0.609493	1.59035	-1.51357
C	-1.28769	2.97682	-0.547077
O	-0.345009	2.84789	-1.35738
O	-1.67441	2.06974	0.347268
H	-1.89295	3.88138	-0.507789
H	-1.12644	1.21343	0.333631
C	0.543032	-3.17078	1.36693
O	1.38181	-2.98868	0.473989
O	-0.410373	-2.29077	1.73701
H	0.481982	-4.08207	1.96469
H	-0.379438	-1.43949	1.20313
C	6.09453	0.304953	-0.322191
O	5.85946	0.822669	0.757858
O	6.05875	-1.01944	-0.464427
H	6.33608	0.933648	-1.1784
H	5.83644	-1.44184	0.357724
