20
  This energy is 5.3181e-05 and Call times are: 4616
C	-0.757845	-0.112569	-0.755572
O	0.197571	-0.0732085	0.0755853
O	-1.83465	0.642899	-0.690844
H	-0.726757	-0.804271	-1.59659
H	-1.87028	1.29763	0.0988956
C	-0.839581	2.30449	2.19165
O	-1.77427	2.25032	1.36382
O	0.264462	1.56103	2.16825
H	-0.856266	2.99475	3.0339
H	0.307675	0.906312	1.39159
C	1.80635	-2.4961	-1.6504
O	0.753608	-2.30713	-2.27497
O	2.1787	-1.84589	-0.528373
H	2.56393	-3.22449	-1.94541
H	1.49957	-1.16682	-0.231231
C	5.09083	0.0273695	-0.330759
O	4.59798	-0.261076	0.747987
O	6.4032	0.225808	-0.448332
H	4.44965	0.123311	-1.2062
H	6.83884	0.110532	0.388745
