20
  This energy is -0.00103625 and Call times are: 3875
C	-0.498326	-0.94977	-0.0865929
O	0.124081	0.153609	-0.105427
O	-1.11765	-1.43911	0.967637
H	-0.549499	-1.56748	-0.982445
H	-1.07407	-0.861831	1.81527
C	-0.311221	1.23348	3.03324
O	-0.918441	0.141165	3.03455
O	0.329653	1.76609	1.99507
H	-0.256733	1.86252	3.92063
H	0.295571	1.19993	1.15126
C	0.910555	-0.339093	-3.35755
O	0.248835	-1.33565	-3.03651
O	1.22046	0.690814	-2.54293
H	1.32408	-0.181614	-4.35539
H	0.852427	0.57426	-1.61469
C	3.61389	0.000217341	0.439054
O	3.68462	1.1103	-0.0634375
O	3.23545	-1.0521	-0.285463
H	3.86316	-0.130274	1.49145
H	3.04936	-0.796038	-1.18189
