20
  This energy is -0.000542091 and Call times are: 13152
C	0.724311	0.795725	-0.00919663
O	-0.0594916	-0.196459	-0.0892817
O	0.544511	1.82585	0.791394
H	1.62033	0.839805	-0.627211
H	-0.29762	1.7906	1.37723
C	-2.41373	0.614489	2.14829
O	-1.63101	1.58665	2.21231
O	-2.27474	-0.4453	1.35474
H	-3.31015	0.556065	2.76404
H	-1.44526	-0.418193	0.767424
C	1.93821	-1.59252	-2.43402
O	2.49268	-0.524876	-2.13946
O	0.78568	-2.04928	-1.90167
H	2.32935	-2.29543	-3.17187
H	0.400346	-1.42203	-1.21704
C	4.85581	0.308835	0.329252
O	5.26491	0.792269	-0.714164
O	4.58905	-0.99369	0.417473
H	4.70758	0.950357	1.19711
H	4.7621	-1.43091	-0.408766
