20
  This energy is -0.000140311 and Call times are: 14378
C	-0.862373	0.641361	0.0534612
O	0.159799	-0.104522	0.116818
O	-1.46025	0.994263	-1.06566
H	-1.30956	1.03967	0.963462
H	-1.0445	0.621909	-1.92713
C	0.71657	-0.771079	-3.11622
O	-0.290054	-0.0317263	-3.16019
O	1.35457	-1.1518	-2.0116
H	1.17024	-1.17957	-4.01813
H	0.952624	-0.785047	-1.15274
C	0.1488	0.157265	3.48861
O	-0.816231	0.837453	3.11427
O	0.989762	-0.520509	2.68005
H	0.430488	0.0289837	4.53536
H	0.755327	-0.421433	1.70749
C	4.96929	0.423025	-0.160767
O	5.82908	0.30995	0.698166
O	4.23868	-0.626604	-0.534925
H	4.79838	1.39322	-0.625758
H	4.49188	-1.40458	-0.0507644
