20
  This energy is -0.0014952 and Call times are: 981
C	0.0518565	0.846382	0.662449
O	-0.105616	-0.19182	-0.0464448
O	0.983673	1.75451	0.458889
H	-0.607076	1.03982	1.5081
H	1.60783	1.57892	-0.336868
C	2.33995	0.150791	-2.30668
O	2.48247	1.16827	-1.59513
O	1.41655	-0.793223	-2.13828
H	2.98882	-0.0517053	-3.15761
H	0.795387	-0.630418	-1.35001
C	-2.72416	-1.11875	1.88271
O	-2.3313	-0.0511136	2.37249
O	-2.18468	-1.73345	0.809648
H	-3.56736	-1.69117	2.27366
H	-1.40418	-1.22885	0.426459
C	5.7036	0.119713	-0.38724
O	6.17322	0.690102	0.584308
O	4.70193	-0.748042	-0.248804
H	6.10872	0.323193	-1.37779
H	4.44855	-0.829045	0.663894
