20
  This energy is -8.3226e-05 and Call times are: 11673
C	0.687234	-0.733025	0.385063
O	-0.0425784	0.143644	-0.166314
O	0.42138	-1.30566	1.54085
H	1.60664	-1.06473	-0.0959858
H	-0.443958	-0.998283	1.99948
C	-2.53876	0.438889	2.04474
O	-1.80555	-0.422828	2.5755
O	-2.31022	1.04548	0.881977
H	-3.46269	0.775507	2.51289
H	-1.45318	0.750588	0.421306
C	2.11945	0.319717	-2.76097
O	2.6073	-0.525304	-1.99808
O	0.969763	0.993741	-2.55054
H	2.57564	0.617892	-3.70674
H	0.525278	0.739996	-1.68527
C	5.57172	0.319831	-0.313533
O	5.88225	-0.794735	-0.702257
O	5.0814	0.501223	0.912108
H	5.69731	1.17478	-0.976857
H	5.02566	-0.324707	1.37956
