20
  This energy is -0.00193813 and Call times are: 13363
C	0.575616	-0.0727523	-0.906236
O	-0.169126	0.104008	0.103371
O	1.57592	-0.928001	-0.954884
H	0.411859	0.501344	-1.81746
H	1.73554	-1.47294	-0.0997818
C	1.1236	-2.07476	2.29167
O	1.85013	-2.23419	1.28738
O	0.105149	-1.22287	2.38779
H	1.27376	-2.64568	3.20689
H	-0.0588941	-0.675392	1.54693
C	-1.926	2.44214	-1.5949
O	-1.05857	2.05685	-2.39062
O	-2.08779	1.99071	-0.33379
H	-2.67004	3.20494	-1.83164
H	-1.41555	1.28548	-0.086018
C	4.75772	0.00554673	-0.425242
O	4.48553	1.12144	-0.012345
O	4.58431	-1.06685	0.346391
H	5.1466	-0.113575	-1.43583
H	4.2411	-0.818914	1.19758
