20
  This energy is -0.00309109 and Call times are: 12429
C	0.640322	-0.0880104	0.860309
O	-0.049565	0.121194	-0.181555
O	0.448314	-1.08959	1.69361
H	1.45826	0.58229	1.12185
H	-0.3205	-1.72568	1.45289
C	-2.22245	-2.42345	-0.0805429
O	-1.53341	-2.61307	0.944703
O	-2.06727	-1.42629	-0.948753
H	-3.03966	-3.08872	-0.35569
H	-1.31037	-0.788201	-0.717133
C	1.81481	2.85665	-0.873644
O	2.293	2.40368	0.17527
O	0.773226	2.33035	-1.55074
H	2.19147	3.74978	-1.37557
H	0.403926	1.5047	-1.11192
C	4.96169	0.346766	-0.169416
O	5.98395	0.129019	-0.79979
O	4.64483	-0.395164	0.891083
H	4.30204	1.15682	-0.478242
H	5.30454	-1.06179	1.04656
