20
  This energy is -0.00209491 and Call times are: 8394
C	-0.239715	0.568346	0.881708
O	0.126285	-0.164022	-0.0851791
O	-1.13482	1.53019	0.791958
H	0.190231	0.426224	1.87251
H	-1.54467	1.66923	-0.138812
C	-1.73484	1.04098	-2.59337
O	-2.08211	1.75594	-1.62895
O	-0.834772	0.0610461	-2.55097
H	-2.16042	1.16967	-3.58757
H	-0.419985	-0.0822475	-1.63384
C	2.24212	-1.82387	1.96562
O	1.69873	-0.977183	2.68806
O	2.00255	-2.00025	0.649621
H	2.98986	-2.53484	2.32185
H	1.31648	-1.35845	0.291785
C	4.5228	0.179027	0.409547
O	3.84969	0.701705	-0.464245
O	5.37162	-0.805719	0.117496
H	4.42762	0.522303	1.43902
H	5.35332	-1.00317	-0.812266
