20
  This energy is -0.000658016 and Call times are: 6446
C	-0.768369	-0.617078	-0.432104
O	0.181	0.125162	-0.0409911
O	-1.65116	-1.18176	0.365537
H	-0.899908	-0.828424	-1.49265
H	-1.5336	-0.986297	1.36634
C	-0.291352	0.143614	3.27313
O	-1.22051	-0.588444	2.86985
O	0.623732	0.732674	2.50643
H	-0.15182	0.366519	4.32999
H	0.51821	0.542163	1.51331
C	1.19116	0.529994	-3.24307
O	0.199682	-0.208927	-3.31402
O	1.71185	1.03467	-2.10529
H	1.7642	0.860711	-4.11126
H	1.20426	0.747071	-1.28658
C	4.7921	0.401429	-0.211024
O	4.02378	-0.404998	-0.710173
O	5.54162	0.0677528	0.838926
H	4.8649	1.40459	-0.62945
H	5.37816	-0.832018	1.09868
