20
  This energy is -0.000483993 and Call times are: 5105
C	-0.10819	0.686083	0.821872
O	0.0691226	-0.203467	-0.0626902
O	-0.604151	1.8833	0.587104
H	0.153988	0.488473	1.86059
H	-0.854088	2.07613	-0.389616
C	-1.02465	1.35061	-2.81865
O	-1.19026	2.21729	-1.93361
O	-0.525986	0.130876	-2.6295
H	-1.28708	1.53387	-3.85965
H	-0.271652	-0.0687334	-1.66556
C	1.28556	-2.30756	2.28905
O	1.00431	-1.27083	2.90562
O	1.12095	-2.49957	0.963761
H	1.70614	-3.19791	2.76008
H	0.734247	-1.69506	0.501304
C	4.7312	-0.116852	0.0784375
O	4.60461	0.553772	-0.933506
O	3.67202	-0.432687	0.822691
H	5.72148	-0.460292	0.37526
H	2.8764	-0.0700747	0.449508
