20
  This energy is 0.000501708 and Call times are: 3067
C	0.182594	0.116655	-1.05401
O	0.0401266	0.0818759	0.204433
O	-0.335498	-0.761057	-1.88805
H	0.765921	0.910221	-1.51954
H	-0.887066	-1.51134	-1.45621
C	-1.86021	-2.64582	0.598454
O	-1.70705	-2.59753	-0.640931
O	-1.35501	-1.78458	1.47894
H	-2.44484	-3.43099	1.07577
H	-0.803629	-1.0394	1.06133
C	1.91142	2.88346	0.499364
O	1.87129	2.65518	-0.717329
O	1.31752	2.13972	1.45566
H	2.44267	3.72889	0.940403
H	0.819124	1.35191	1.07936
C	5.6448	-0.274966	-0.325644
O	6.05917	0.785181	-0.766291
O	5.67661	-0.527483	0.982308
H	5.24484	-1.02201	-1.01024
H	6.04819	0.206134	1.45929
