20
  This energy is 5.8915e-05 and Call times are: 6984
C	-0.881642	-0.232938	0.57126
O	0.156507	-0.0798799	-0.138678
O	-1.43136	0.71403	1.30303
H	-1.38564	-1.19804	0.607317
H	-0.96195	1.62639	1.27323
C	0.895855	3.13653	0.422493
O	-0.127577	2.96692	1.11941
O	1.48715	2.21083	-0.329601
H	1.4062	4.09743	0.374057
H	1.03181	1.30214	-0.303954
C	-0.0337021	-3.30976	-1.1232
O	-0.997111	-3.15308	-0.360727
O	0.866079	-2.3602	-1.45347
H	0.19775	-4.25279	-1.62182
H	0.678837	-1.47828	-1.00871
C	5.91393	0.323647	-0.138404
O	5.9418	-0.632158	-0.896989
O	6.66979	0.34419	0.958763
H	5.26357	1.16849	-0.361957
H	7.18466	-0.451848	1.02951
