20
  This energy is -0.00203141 and Call times are: 10322
C	0.475677	0.68375	0.681254
O	-0.0031567	-0.0799706	-0.209049
O	0.0211143	0.768971	1.91435
H	1.32186	1.33089	0.453389
H	-0.775869	0.161344	2.13626
C	-2.48042	-1.59576	1.45599
O	-1.99715	-0.834236	2.32108
O	-2.05683	-1.71398	0.19949
H	-3.32303	-2.251	1.67233
H	-1.26976	-1.11325	-0.0315061
C	2.29304	1.04903	-2.42049
O	2.53152	1.66521	-1.37287
O	1.31425	0.135283	-2.58605
H	2.86036	1.18045	-3.34373
H	0.773224	-0.00785038	-1.75091
C	5.33797	0.384372	-0.0369665
O	5.16225	0.0524632	1.12439
O	4.85372	-0.352232	-1.03618
H	5.89698	1.29296	-0.257615
H	4.39018	-1.11207	-0.702186
