20
  This energy is -0.00058912 and Call times are: 12387
C	0.415573	0.562112	0.818058
O	-0.0503201	-0.204083	-0.0769722
O	0.497779	1.87207	0.70999
H	0.784065	0.150416	1.75691
H	0.151649	2.26694	-0.172
C	-0.886967	1.97912	-2.4729
O	-0.421644	2.71974	-1.58025
O	-0.98778	0.653222	-2.40949
H	-1.26289	2.3785	-3.4138
H	-0.643977	0.25182	-1.54094
C	0.541934	-2.88317	1.90023
O	0.926695	-1.90926	2.56168
O	0.00938334	-2.82756	0.661821
H	0.592597	-3.91454	2.25407
H	-0.0504924	-1.88842	0.308174
C	3.84201	0.272433	-0.333694
O	3.79666	0.839461	0.74622
O	3.49665	-1.00975	-0.444347
H	4.16858	0.821754	-1.21591
H	3.23377	-1.36296	0.398217
