20
  This energy is -0.00182696 and Call times are: 14243
C	-0.799933	-0.524636	0.492701
O	0.147337	0.167861	0.0148742
O	-1.38423	-1.52383	-0.135493
H	-1.18791	-0.31276	1.48835
H	-1.02313	-1.7295	-1.07408
C	0.58031	-1.25111	-2.98611
O	-0.355337	-1.92217	-2.50019
O	1.19863	-0.23341	-2.39099
H	0.980382	-1.45579	-3.97816
H	0.84561	-0.0191989	-1.46191
C	0.237267	2.01079	2.84915
O	-0.666062	1.18436	3.03643
O	0.99043	2.10844	1.73399
H	0.529048	2.76633	3.58094
H	0.74464	1.42399	1.0399
C	4.04919	0.0301912	-0.449897
O	4.66216	0.900382	0.14746
O	3.33394	-0.876807	0.214393
H	4.08814	-0.00419438	-1.53802
H	3.38811	-0.729441	1.15201
