20
  This energy is -0.00346411 and Call times are: 8810
C	-0.72142	-0.686902	0.406951
O	0.15926	0.14997	0.0474539
O	-1.49149	-1.36181	-0.421252
H	-0.885529	-0.892396	1.4641
H	-1.34175	-1.17359	-1.41915
C	-0.122926	0.0440841	-3.28661
O	-0.989057	-0.776179	-2.91398
O	0.675117	0.749524	-2.48807
H	0.0542478	0.254911	-4.34031
H	0.532005	0.573022	-1.49707
C	0.950093	0.717559	3.28629
O	0.0443196	-0.126376	3.3239
O	1.4698	1.25906	2.1651
H	1.43722	1.12412	4.17449
H	1.04038	0.903345	1.32861
C	4.07505	0.26573	0.345707
O	5.12398	0.624421	-0.165047
O	3.42294	-0.80074	-0.115725
H	3.66864	0.82447	1.18794
H	3.88735	-1.19016	-0.848157
