20
  This energy is -0.00201608 and Call times are: 6530
C	-0.357578	0.340876	-0.955945
O	0.0297312	-0.177263	0.133419
O	-0.308736	1.62838	-1.22864
H	-0.76543	-0.285632	-1.74833
H	0.0751788	2.22468	-0.486568
C	1.08027	2.51105	1.82935
O	0.690983	3.00543	0.749584
O	1.04836	1.21937	2.14991
H	1.49429	3.12569	2.62742
H	0.666115	0.620483	1.42264
C	-0.827018	-3.2415	-1.0129
O	-1.11285	-2.46612	-1.93548
O	-0.291386	-2.88417	0.172759
H	-0.980325	-4.32126	-1.05893
H	-0.138108	-1.89326	0.2452
C	4.34532	-0.0808924	0.421992
O	5.06097	-0.590538	-0.4253
O	3.26992	0.623158	0.0708034
H	4.58959	-0.203732	1.47648
H	3.17696	0.649198	-0.874954
