20
  This energy is -0.0027728 and Call times are: 5441
C	-0.227919	-0.53959	0.902655
O	-0.00321045	-0.00492358	-0.223768
O	0.0518747	0.0182023	2.0624
H	-0.682749	-1.52773	0.961258
H	0.480089	0.949862	2.01466
C	1.35591	2.92059	0.67121
O	1.12964	2.37704	1.77358
O	1.09304	2.39566	-0.523585
H	1.80564	3.90986	0.59905
H	0.672003	1.47093	-0.487207
C	-1.29092	-2.71989	-1.77566
O	-1.3834	-2.97179	-0.566499
O	-0.777649	-1.58901	-2.30294
H	-1.62138	-3.3993	-2.5635
H	-0.464013	-0.942083	-1.60025
C	4.45609	0.183469	0.326334
O	3.68194	0.986964	-0.168505
O	4.48926	-1.07948	-0.0972016
H	5.12671	0.503657	1.12287
H	3.85525	-1.21994	-0.791519
