20
  This energy is -0.00123733 and Call times are: 4353
C	-0.905162	-0.574001	0.0953597
O	0.151345	0.0837178	-0.142101
O	-1.38596	-0.804071	1.29965
H	-1.48622	-0.995501	-0.724055
H	-0.843733	-0.409144	2.07661
C	1.14161	0.917409	2.94516
O	0.0986009	0.263685	3.16113
O	1.66584	1.17298	1.74847
H	1.72881	1.34799	3.75504
H	1.13799	0.782708	0.972085
C	-0.287093	-0.399265	-3.46055
O	-1.24469	-0.975502	-2.92667
O	0.691065	0.262672	-2.80832
H	-0.126275	-0.36308	-4.53959
H	0.570068	0.246922	-1.81044
C	4.17254	0.445475	-0.0450505
O	3.52184	-0.0184922	-0.96761
O	4.59067	-0.333099	0.952196
H	4.41339	1.50785	-0.0380964
H	4.31142	-1.23204	0.819141
