20
  This energy is -0.000124777 and Call times are: 11589
C	1.02995	-0.12392	0.285914
O	-0.210845	-0.0657672	0.0364146
O	1.95145	0.573479	-0.345663
H	1.40297	-0.783036	1.06895
H	1.60689	1.19728	-1.08444
C	-0.301039	2.18033	-2.44426
O	0.919728	2.10832	-2.18656
O	-1.2664	1.49483	-1.83569
H	-0.687205	2.83869	-3.22115
H	-0.934922	0.870971	-1.1045
C	-0.81152	-2.3419	2.46459
O	0.416958	-2.18436	2.47406
O	-1.67523	-1.71376	1.64008
H	-1.34097	-3.02025	3.13617
H	-1.21616	-1.08075	1.00825
C	6.6448	0.331903	-0.305896
O	7.22171	0.579119	0.740932
O	5.97572	-0.809902	-0.461216
H	6.67806	1.05348	-1.12133
H	6.02937	-1.3427	0.324295
