20
  This energy is 0.000242763 and Call times are: 14336
C	0.732657	0.581912	0.53149
O	-0.142689	-0.172091	0.011453
O	1.34185	1.56395	-0.100106
H	1.03114	0.442983	1.56992
H	1.0649	1.70101	-1.07896
C	-0.334318	1.05263	-3.09824
O	0.529378	1.78528	-2.56992
O	-0.973642	0.0489318	-2.50153
H	-0.644943	1.18413	-4.13378
H	-0.703571	-0.0975064	-1.53235
C	-0.442131	-1.84897	2.9331
O	0.412761	-0.979906	3.15209
O	-1.08285	-2.03941	1.7611
H	-0.7778	-2.57098	3.67977
H	-0.794254	-1.38783	1.05201
C	5.10944	0.231082	-0.379658
O	4.4297	0.598331	0.565255
O	6.00108	-0.748751	-0.23672
H	4.98482	0.710439	-1.34991
H	6.005	-1.07462	0.65635
