20
  This energy is -0.00197822 and Call times are: 10153
C	0.885734	0.0494116	-0.609034
O	-0.223616	0.00998501	0.00168424
O	2.06212	-0.0588077	-0.0269387
H	0.913789	0.180219	-1.69016
H	2.04314	-0.183002	0.991811
C	0.760808	-0.414965	3.17299
O	1.84601	-0.371098	2.5547
O	-0.449456	-0.308069	2.6289
H	0.718938	-0.550083	4.25285
H	-0.441379	-0.180912	1.6202
C	-1.85885	0.414552	-2.93088
O	-0.658063	0.413809	-3.2345
O	-2.35084	0.279504	-1.68186
H	-2.66737	0.526883	-3.65556
H	-1.62845	0.173818	-0.990752
C	5.29174	0.0601338	-0.327255
O	5.72164	1.11529	0.110481
O	5.72738	-1.10399	0.1529
H	4.54374	0.0716504	-1.11913
H	6.37459	-0.967105	0.835662
