20
  This energy is 0.00011865 and Call times are: 5186
C	-0.0827055	0.665958	-0.841159
O	0.019893	-0.0147419	0.222472
O	-0.152333	0.152345	-2.05185
H	-0.119448	1.75379	-0.796303
H	-0.118959	-0.872376	-2.10152
C	0.0403009	-3.14231	-0.971151
O	-0.0580108	-2.45504	-2.01032
O	0.115893	-2.66859	0.270649
H	0.073199	-4.23047	-1.002
H	0.0874514	-1.65403	0.330373
C	0.0441791	2.83176	2.04852
O	-0.0553037	3.20949	0.873152
O	0.122593	1.54741	2.45432
H	0.0800646	3.51063	2.90254
H	0.0919209	0.897038	1.68835
C	6.60139	-0.235659	0.33113
O	7.39103	0.149687	-0.51608
O	5.30257	0.0436619	0.228325
H	6.96374	-0.814173	1.18009
H	5.12706	0.551531	-0.555921
