20
  This energy is -0.00256966 and Call times are: 13279
C	-0.612044	0.404104	0.787396
O	0.0592857	0.0175382	-0.215138
O	-0.579416	-0.168528	1.97291
H	-1.27406	1.26547	0.706735
H	0.0429452	-0.980532	2.05628
C	1.7173	-2.6029	1.04626
O	1.04573	-2.20945	2.02404
O	1.71509	-2.05866	-0.168647
H	2.38628	-3.45955	1.11507
H	1.09866	-1.25561	-0.262659
C	-1.26769	2.51262	-2.07291
O	-1.7781	2.64536	-0.95222
O	-0.379171	1.55872	-2.42071
H	-1.48531	3.16638	-2.91951
H	-0.158323	0.939753	-1.65995
C	4.60368	-0.373297	-0.257633
O	5.70454	0.146732	-0.171288
O	3.55064	0.154793	0.365057
H	4.4821	-1.27903	-0.850571
H	3.79842	0.938399	0.842908
