20
  This energy is -2.3268e-05 and Call times are: 11063
C	0.0863623	0.979222	0.437672
O	-0.0198498	-0.219227	0.0406458
O	0.214218	2.02041	-0.358574
H	0.0756516	1.20859	1.50257
H	0.22439	1.81163	-1.36353
C	0.11359	0.151455	-3.28375
O	0.219935	1.32742	-2.87429
O	-0.0150683	-0.930186	-2.51845
H	0.118054	-0.0906682	-4.34558
H	-0.0224586	-0.734352	-1.5208
C	-0.228706	-1.26941	3.24862
O	-0.109128	-0.0389613	3.32458
O	-0.261954	-1.9838	2.10455
H	-0.322222	-1.92421	4.11694
H	-0.177859	-1.4069	1.28555
C	6.007	-0.207817	-0.353978
O	5.41758	-0.42226	0.693112
O	7.09319	0.563625	-0.378067
H	5.63998	-0.652582	-1.2782
H	7.30005	0.883448	0.492965
