20
  This energy is 8.3828e-05 and Call times are: 11547
C	0.166975	0.468892	-0.954018
O	0.00225821	0.0275941	0.222127
O	0.0137372	-0.247945	-2.04813
H	0.455104	1.50684	-1.11645
H	-0.258446	-1.2269	-1.90251
C	-0.848555	-3.15745	-0.359638
O	-0.679139	-2.70604	-1.51263
O	-0.703293	-2.47306	0.772925
H	-1.14122	-4.19166	-0.183921
H	-0.430008	-1.50288	0.639561
C	0.776613	3.07059	1.47838
O	0.85978	3.20385	0.249808
O	0.444486	1.93218	2.12187
H	0.966857	3.87625	2.18986
H	0.262876	1.17031	1.49161
C	8.55491	-0.129316	-0.409836
O	8.72491	1.07688	-0.332544
O	8.79059	-0.918485	0.637629
H	8.20667	-0.564144	-1.34597
H	9.08774	-0.409995	1.3839
