20
  This energy is -0.00114912 and Call times are: 2190
C	-1.07136	-0.0587538	-0.0813522
O	0.187164	0.0870931	-0.0865509
O	-1.73075	-0.819728	0.767498
H	-1.68832	0.463138	-0.811917
H	-1.15563	-1.31403	1.45926
C	1.10883	-1.86834	2.46955
O	-0.133632	-2.00264	2.45836
O	1.81739	-1.11402	1.63221
H	1.73636	-2.38063	3.19748
H	1.25703	-0.62296	0.940421
C	-0.0623641	2.19528	-2.71921
O	-1.22836	1.86104	-2.46859
O	1.03295	1.77643	-2.05196
H	0.212528	2.87949	-3.52406
H	0.81129	1.14359	-1.30293
C	4.96282	-0.120766	-0.00508
O	5.20992	0.706538	0.857647
O	5.92417	-0.574341	-0.808557
H	3.94478	-0.491547	-0.118366
H	6.75828	-0.168576	-0.600227
