20
  This energy is -0.000137381 and Call times are: 9124
C	-0.766394	-0.687043	0.31385
O	0.0804962	0.121732	-0.16973
O	-0.735713	-1.15125	1.54592
H	-1.59277	-1.04829	-0.297165
H	0.0400546	-0.814414	2.12761
C	2.13011	0.597492	2.43403
O	1.28721	-0.202513	2.89379
O	2.14098	1.09083	1.19763
H	2.95799	0.969826	3.03577
H	1.37843	0.760225	0.612034
C	-1.56822	0.091487	-3.12243
O	-2.21487	-0.669735	-2.39
O	-0.453013	0.761743	-2.76545
H	-1.83526	0.307973	-4.15844
H	-0.181478	0.582276	-1.81429
C	6.97735	-0.251757	0.36929
O	7.27909	0.919966	0.529941
O	6.47997	-0.67345	-0.792736
H	7.1167	-0.959469	1.18564
H	6.4122	0.0446943	-1.41197
