20
  This energy is 0.000190286 and Call times are: 13672
C	0.458104	-0.968025	0.104683
O	-0.0807243	0.151409	-0.143755
O	0.775813	-1.39191	1.31042
H	0.691384	-1.65779	-0.705585
H	0.558133	-0.747171	2.0789
C	-0.374878	1.46008	2.92344
O	0.159033	0.35305	3.14993
O	-0.710994	1.93097	1.72449
H	-0.617505	2.15653	3.72482
H	-0.495941	1.30112	0.955892
C	-0.0888017	-0.578969	-3.44589
O	0.420874	-1.56877	-2.90312
O	-0.527939	0.525208	-2.80689
H	-0.241704	-0.489679	-4.52299
H	-0.400325	0.472505	-1.81111
C	6.16817	0.035486	0.134189
O	6.49431	0.926098	-0.634079
O	7.04001	-0.905338	0.495126
H	5.15293	0.0106672	0.528368
H	7.88285	-0.762665	0.0791405
