20
  This energy is -0.000258282 and Call times are: 13630
C	0.889499	-0.0347917	0.604542
O	-0.165153	-0.119563	-0.09239
O	1.54547	1.08429	0.832062
H	1.31678	-0.924498	1.06561
H	1.148	1.92687	0.401108
C	-0.629488	3.0653	-1.01318
O	0.411623	3.13001	-0.324876
O	-1.32367	1.95921	-1.27178
H	-1.06936	3.94787	-1.47546
H	-0.935886	1.11814	-0.852332
C	-0.28134	-3.45097	0.478435
O	0.725939	-3.06011	1.08398
O	-1.11588	-2.67038	-0.238916
H	-0.611072	-4.49134	0.458365
H	-0.837676	-1.70433	-0.239131
C	4.79849	0.187873	0.400927
O	4.92161	-1.02644	0.410123
O	4.41253	0.824602	-0.704117
H	5.00674	0.75611	1.30671
H	4.26592	0.210164	-1.41457
