20
  This energy is -0.00104883 and Call times are: 7111
C	0.604309	-0.197773	-0.868093
O	-0.0634247	0.154029	0.14953
O	0.617694	-1.41658	-1.36684
H	1.22305	0.526288	-1.39689
H	0.0362409	-2.10397	-0.873847
C	-1.5743	-2.7111	0.995175
O	-0.907042	-3.04124	-0.00863534
O	-1.61716	-1.49515	1.53537
H	-2.20041	-3.42406	1.52977
H	-1.04138	-0.807573	1.05639
C	1.11347	3.30926	-0.162023
O	1.63447	2.6826	-1.09472
O	0.266206	2.79231	0.75191
H	1.28628	4.3704	0.026667
H	0.0871585	1.8142	0.60391
C	4.14875	-0.413775	0.107951
O	3.72943	-0.0290759	-0.971849
O	4.95961	0.353216	0.835789
H	3.85612	-1.3951	0.47954
H	5.13156	1.1775	0.39447
