20
  This energy is -0.00223836 and Call times are: 7764
C	0.482438	0.185168	0.943852
O	-0.195964	-0.0198865	-0.106345
O	1.79788	0.155472	0.999982
H	-0.0169233	0.404721	1.88681
H	2.27506	-0.0501984	0.114752
C	2.20667	-0.577636	-2.36977
O	2.85988	-0.375461	-1.32367
O	0.879633	-0.560219	-2.47395
H	2.69386	-0.793317	-3.31964
H	0.3973	-0.361019	-1.60138
C	-3.05316	0.452809	1.64026
O	-2.14561	0.602749	2.46968
O	-2.88011	0.163598	0.333821
H	-4.11441	0.54002	1.88034
H	-1.91077	0.0769096	0.0817972
C	5.96852	-0.289476	-0.261458
O	6.93861	-0.808813	0.266748
O	5.68241	0.994127	-0.046938
H	5.33047	-0.882971	-0.915185
H	6.31793	1.38864	0.539788
