20
  This energy is 3.5648e-05 and Call times are: 13110
C	-0.76851	0.661488	0.36016
O	0.0914861	-0.0956519	-0.180521
O	-0.873306	0.864735	1.65713
H	-1.48961	1.20044	-0.253255
H	-0.196411	0.360469	2.24122
C	1.77045	-1.22949	2.4845
O	0.91357	-0.480637	3.00106
O	1.91266	-1.46691	1.18234
H	2.49985	-1.77003	3.08609
H	1.2442	-0.974822	0.595216
C	-1.1532	0.660804	-3.23276
O	-1.84959	1.30591	-2.43718
O	-0.130971	-0.153247	-2.89699
H	-1.29309	0.680586	-4.31513
H	0.0226533	-0.192194	-1.90425
C	6.28205	0.0716034	0.16102
O	7.04022	0.998251	0.398284
O	6.70663	-1.00212	-0.504077
H	5.24721	0.124227	0.497241
H	7.62462	-0.915315	-0.735454
