20
  This energy is -0.000638058 and Call times are: 9564
C	0.918101	0.502085	-0.25078
O	-0.212502	-0.0368892	-0.0599059
O	1.9513	0.374188	0.55579
H	1.09037	1.12168	-1.13008
H	1.79624	-0.20897	1.38616
C	0.292524	-1.6766	2.81466
O	1.40048	-1.13511	2.61192
O	-0.778513	-1.57424	2.0307
H	0.108887	-2.30209	3.68711
H	-0.636293	-0.995359	1.20706
C	-1.36103	1.3444	-2.92531
O	-0.185469	1.72466	-2.83856
O	-1.99482	0.550538	-2.03736
H	-2.0269	1.61551	-3.74666
H	-1.40577	0.283499	-1.26771
C	5.41692	-0.189662	0.369119
O	6.54095	0.240465	0.572424
O	4.85262	-0.0785458	-0.83285
H	4.87018	-0.669418	1.18005
H	5.43768	0.357917	-1.44193
