20
  This energy is -0.000969898 and Call times are: 3616
C	0.217453	0.237846	-1.02666
O	-0.0252248	0.081455	0.206967
O	0.265999	-0.740151	-1.90734
H	0.40433	1.23306	-1.42836
H	0.0901494	-1.68072	-1.53579
C	-0.447169	-3.23378	0.401992
O	-0.203517	-3.06135	-0.811586
O	-0.504203	-2.27854	1.32744
H	-0.640399	-4.22275	0.815173
H	-0.327633	-1.34322	0.970054
C	0.262972	3.41599	0.692162
O	0.465148	3.2528	-0.518853
O	-0.00898631	2.43679	1.57961
H	0.283093	4.39009	1.18433
H	-0.0343701	1.52589	1.15504
C	3.67804	0.060673	-0.390884
O	3.528	-1.06231	0.0631937
O	4.42714	0.958706	0.247781
H	3.19368	0.330415	-1.32862
H	4.78698	0.591444	1.04741
