20
  This energy is -0.000771601 and Call times are: 6572
C	0.900769	-0.514789	0.285478
O	-0.203568	0.0659969	0.0656612
O	1.8664	-0.641759	-0.60101
H	1.10681	-0.952984	1.26132
H	1.67926	-0.230491	-1.52268
C	0.158837	1.03313	-3.1187
O	1.24152	0.454219	-2.88518
O	-0.844651	1.18352	-2.25696
H	-0.0575184	1.47943	-4.0883
H	-0.670579	0.776118	-1.34185
C	-1.18913	-0.597314	3.23209
O	-0.0535664	-1.08403	3.14456
O	-1.84303	0.047568	2.2437
H	-1.79792	-0.637622	4.13722
H	-1.30638	0.100926	1.39528
C	5.44846	0.106495	0.364234
O	5.23977	-1.09273	0.274287
O	4.96677	0.951465	-0.546543
H	6.03508	0.48888	1.19872
H	4.47697	0.485146	-1.21469
