20
  This energy is 0.00033216 and Call times are: 2341
C	-0.284556	-0.687144	-0.777657
O	0.104154	0.192424	0.0472395
O	-0.929589	-1.78674	-0.447139
H	-0.0927931	-0.564678	-1.843
H	-1.11431	-1.90831	0.555226
C	-0.950082	-1.08901	2.9547
O	-1.3239	-1.9478	2.12729
O	-0.294821	0.0338501	2.66833
H	-1.13974	-1.19719	4.02168
H	-0.103586	0.161845	1.678
C	1.3984	2.01122	-2.49334
O	0.910141	1.01056	-3.0359
O	1.38718	2.26779	-1.1688
H	1.9017	2.81173	-3.03864
H	0.929234	1.54663	-0.638834
C	6.12166	0.0256588	0.394904
O	5.8991	1.1238	-0.0891866
O	5.7264	-1.08491	-0.226319
H	6.64929	-0.0458761	1.34527
H	5.28102	-0.876827	-1.04003
