20
  This energy is -0.0045661 and Call times are: 3109
C	-0.850989	-0.564561	0.339083
O	0.156905	0.14927	0.0566221
O	-1.47094	-1.35165	-0.515658
H	-1.26533	-0.556667	1.34655
H	-1.08535	-1.36453	-1.46686
C	0.622158	-0.580468	-3.17724
O	-0.373125	-1.27613	-2.88171
O	1.27856	0.229677	-2.34959
H	1.04886	-0.583036	-4.17925
H	0.901958	0.252434	-1.40547
C	0.246672	1.29158	3.23855
O	-0.713945	0.510302	3.20876
O	1.0496	1.58557	2.19489
H	0.555306	1.83922	4.13092
H	0.789768	1.0952	1.35663
C	3.81689	0.199198	-0.364044
O	3.17589	-0.769151	0.0117481
O	4.9249	0.571931	0.275397
H	3.47833	0.764029	-1.23183
H	5.10227	-0.00581285	1.00924
