20
  This energy is 7.017e-05 and Call times are: 9040
C	0.019548	1.07488	-0.0462313
O	-0.0769459	-0.187453	-0.0951173
O	0.676121	1.73751	0.883426
H	-0.458145	1.6926	-0.805811
H	1.12937	1.1616	1.60212
C	1.68843	-1.10904	2.59579
O	1.77097	0.137509	2.62997
O	1.03564	-1.82068	1.67947
H	2.16527	-1.73801	3.34621
H	0.579851	-1.25909	0.964923
C	-1.9423	0.0583278	-2.9054
O	-1.67691	1.22823	-2.59724
O	-1.54579	-1.03908	-2.22802
H	-2.5384	-0.218789	-3.77681
H	-0.993533	-0.815465	-1.41829
C	6.80732	0.3382	-0.0754998
O	6.9391	-0.391933	-1.04469
O	7.4828	0.105141	1.04919
H	6.12976	1.18934	-0.131917
H	8.03342	-0.664629	0.959481
