20
  This energy is -0.00290542 and Call times are: 7068
C	0.0878725	-0.771614	-0.744836
O	-0.0716402	0.050365	0.206004
O	0.627183	-0.471228	-1.90816
H	-0.228683	-1.80812	-0.634463
H	0.928441	0.503772	-2.01886
C	1.19415	2.85912	-1.10376
O	1.34132	2.03551	-2.03213
O	0.653684	2.60258	0.0854757
H	1.51067	3.89679	-1.19965
H	0.348458	1.64001	0.203813
C	-1.45585	-2.39164	2.09233
O	-1.17577	-2.94066	1.018
O	-1.23382	-1.09457	2.39015
H	-1.92267	-2.90768	2.93332
H	-0.803598	-0.591922	1.63325
C	3.79123	0.0183261	-0.402268
O	3.24195	-0.744967	0.375844
O	4.88251	0.691376	-0.0394726
H	3.38383	0.149841	-1.40398
H	5.12667	0.482475	0.855249
