20
  This energy is -0.0012024 and Call times are: 12900
C	-0.463046	0.894324	0.379029
O	0.0102951	-0.14436	-0.170766
O	-0.128516	1.32167	1.57898
H	-1.19974	1.50487	-0.141774
H	0.565854	0.751424	2.07528
C	2.12167	-1.25473	2.17786
O	1.64221	-0.228582	2.70608
O	1.81294	-1.72552	0.971526
H	2.8622	-1.87092	2.68584
H	1.12287	-1.16961	0.473063
C	-1.89512	0.428065	-2.9056
O	-2.16449	1.35632	-2.13111
O	-1.02126	-0.569682	-2.65814
H	-2.34451	0.313113	-3.8937
H	-0.590073	-0.49089	-1.75342
C	5.83093	-0.379186	-0.0928838
O	4.62361	-0.557986	-0.0787381
O	6.3433	0.827095	0.147704
H	6.49574	-1.21578	-0.304649
H	5.65394	1.45973	0.316054
