20
  This energy is 0.00027098 and Call times are: 7385
C	0.35444	-1.00529	-0.147156
O	-0.0986162	0.141963	0.142225
O	0.879864	-1.32821	-1.3108
H	0.327094	-1.80868	0.588063
H	0.909467	-0.575666	-2.00825
C	0.445595	1.82471	-2.70014
O	0.885511	0.686343	-2.96931
O	-0.0950073	2.19598	-1.54164
H	0.471452	2.63761	-3.42447
H	-0.132425	1.45636	-0.84504
C	-0.902174	-0.950619	3.24032
O	-0.398871	-1.93274	2.678
O	-1.06894	0.268437	2.68673
H	-1.27367	-0.964013	4.26663
H	-0.735425	0.312108	1.73936
C	6.57068	-0.100776	-0.349739
O	6.83838	0.978492	0.153556
O	5.57688	-0.84773	0.129785
H	7.15134	-0.45607	-1.20021
H	5.15764	-0.419291	0.867659
