20
  This energy is -0.00368934 and Call times are: 10448
C	-0.299161	0.511906	0.897967
O	-0.0670814	-0.130147	-0.169318
O	0.610114	1.17386	1.58314
H	-1.3063	0.544688	1.31188
H	1.5614	1.1478	1.19841
C	3.21526	0.388291	-0.574605
O	2.96883	1.0144	0.478544
O	2.33142	-0.295433	-1.29816
H	4.21662	0.351722	-1.00129
H	1.38649	-0.278941	-0.923271
C	-3.32643	-1.01358	-0.353278
O	-3.24179	-0.324254	0.672264
O	-2.30433	-1.31483	-1.18088
H	-4.25647	-1.46218	-0.707216
H	-1.43238	-0.914691	-0.880495
C	7.18058	-0.296772	0.197331
O	6.33249	-0.841069	-0.491342
O	7.21684	1.03043	0.310197
H	7.91531	-0.903826	0.724938
H	6.52223	1.43215	-0.199623
