20
  This energy is -0.00148405 and Call times are: 10658
C	1.04005	-0.152275	-0.230229
O	-0.183366	-0.0886348	0.0928846
O	1.69019	0.790998	-0.879821
H	1.63189	-1.02971	0.0277756
H	1.13871	1.62112	-1.12557
C	-1.05052	2.91066	-1.11506
O	0.156662	2.82979	-1.42818
O	-1.74869	1.98405	-0.462265
H	-1.65189	3.78421	-1.36281
H	-1.21217	1.15582	-0.217505
C	0.0314869	-3.14255	1.52992
O	1.16758	-2.91774	1.0908
O	-1.02627	-2.31126	1.4276
H	-0.244169	-4.05679	2.05876
H	-0.802944	-1.45856	0.944204
C	5.01154	-0.393694	0.0774216
O	4.95027	-0.120955	-1.11071
O	4.49113	0.424459	0.991376
H	5.49726	-1.31639	0.392735
H	4.101	1.18719	0.579295
