20
  This energy is -0.00014675 and Call times are: 15049
C	1.01089	-0.246524	0.274267
O	-0.194278	-0.0785783	-0.0786664
O	1.80612	0.715346	0.694788
H	1.45966	-1.23868	0.243294
H	1.38951	1.65291	0.727162
C	-0.584743	3.21434	0.38077
O	0.603248	3.03082	0.722626
O	-1.42367	2.27563	-0.0519283
H	-1.04659	4.20017	0.411659
H	-1.01928	1.34363	-0.0912616
C	-0.467638	-3.38427	-0.738429
O	0.696595	-3.2347	-0.343139
O	-1.38557	-2.40293	-0.859838
H	-0.887287	-4.34634	-1.0381
H	-1.02775	-1.50291	-0.590451
C	5.0133	-0.291511	-0.196375
O	5.10516	-0.465021	1.0083
O	5.71025	0.670012	-0.80073
H	4.35397	-0.930417	-0.782706
H	6.24103	1.14804	-0.173405
