20
  This energy is -0.00262335 and Call times are: 737
C	0.308018	0.383331	0.957117
O	-0.0194578	-0.182507	-0.128138
O	0.214191	1.67764	1.18159
H	0.698354	-0.204033	1.7874
H	-0.153567	2.23721	0.403606
C	-1.06742	2.41582	-1.96043
O	-0.736944	2.95766	-0.883831
O	-0.988384	1.11524	-2.23325
H	-1.46337	2.99097	-2.79622
H	-0.621599	0.552515	-1.47001
C	0.867885	-3.18067	1.16075
O	1.09432	-2.36639	2.06614
O	0.373496	-2.8793	-0.0579029
H	1.04722	-4.25357	1.25144
H	0.19762	-1.89607	-0.171797
C	3.93398	0.4511	-0.0330679
O	3.05709	-0.00597807	-0.748565
O	4.67185	-0.349382	0.735235
H	4.11431	1.52539	-0.0234422
H	4.40888	-1.25673	0.62872
