20
  This energy is 8.8511e-05 and Call times are: 9859
C	-0.123321	-0.689828	-0.81659
O	-0.0125251	0.214055	0.0642678
O	0.140715	-1.96425	-0.615179
H	-0.456944	-0.438953	-1.82281
H	0.454988	-2.20793	0.331123
C	1.03498	-1.54345	2.71393
O	0.922608	-2.42172	1.83195
O	0.782357	-0.245925	2.55646
H	1.36281	-1.78183	3.72479
H	0.473896	0.00641258	1.62111
C	-1.0428	2.53003	-2.17457
O	-1.05166	1.45986	-2.79805
O	-0.688573	2.67998	-0.88136
H	-1.32647	3.48898	-2.61212
H	-0.421585	1.81198	-0.450146
C	8.92008	-0.0712342	0.237326
O	9.63267	0.782889	0.739796
O	9.28384	-0.685663	-0.887692
H	7.97664	-0.333143	0.714853
H	10.1237	-0.361736	-1.19342
