20
  This energy is -0.00211529 and Call times are: 11421
C	0.195088	-0.972795	0.416533
O	-0.0647359	0.113289	-0.181883
O	0.624653	-1.05595	1.6587
H	0.0679791	-1.92627	-0.0947944
H	0.746052	-0.161188	2.14686
C	0.624658	2.37641	2.18663
O	0.878727	1.29572	2.7606
O	0.19163	2.50946	0.934843
H	0.742945	3.33591	2.68811
H	0.0716947	1.62873	0.441243
C	-0.932341	-1.61606	-2.95573
O	-0.606154	-2.48107	-2.13146
O	-0.923418	-0.284479	-2.73854
H	-1.26975	-1.84091	-3.96919
H	-0.616488	-0.045678	-1.81149
C	3.83391	-0.372953	-0.197635
O	5.05419	-0.359347	-0.174483
O	3.13196	0.633994	0.320861
H	3.31425	-1.21815	-0.647405
H	3.70906	1.3	0.677477
