20
  This energy is -0.00254375 and Call times are: 13531
C	0.781061	0.137423	-0.727288
O	-0.118578	-0.149092	0.117548
O	1.07987	1.36064	-1.11312
H	1.37173	-0.652047	-1.19051
H	0.527565	2.10969	-0.680072
C	-1.2944	2.88259	0.913283
O	-0.404926	3.14678	0.0760771
O	-1.63238	1.66469	1.33123
H	-1.88852	3.66274	1.3871
H	-1.09345	0.915172	0.905221
C	0.600472	-3.43612	-0.223082
O	1.3837	-2.85878	-0.98944
O	-0.320785	-2.83218	0.555956
H	0.569074	-4.51923	-0.0912708
H	-0.315976	-1.83183	0.456281
C	4.46813	-0.155008	-0.425084
O	3.63799	-0.653091	0.318266
O	5.34177	0.740757	0.0330369
H	4.494	-0.446855	-1.4743
H	5.20663	0.901194	0.960277
