20
  This energy is -0.00226815 and Call times are: 3264
C	-0.823173	-0.279782	-0.634033
O	0.152183	-0.0721124	0.147468
O	-1.42819	0.655251	-1.33695
H	-1.21972	-1.28619	-0.762976
H	-1.05919	1.60603	-1.22081
C	0.587416	3.23179	-0.17137
O	-0.37579	3.00912	-0.935911
O	1.22752	2.32135	0.55909
H	0.996215	4.2323	-0.0373088
H	0.867004	1.37653	0.45395
C	0.255148	-3.36685	0.903591
O	-0.675945	-3.25583	0.0943891
O	1.02802	-2.35575	1.3516
H	0.558738	-4.3145	1.35224
H	0.772001	-1.46807	0.955204
C	4.05158	0.373967	0.0645987
O	5.23283	0.622198	-0.116565
O	3.61174	-0.883823	0.0595928
H	3.35028	1.19057	0.232094
H	4.32616	-1.49114	-0.0970765
