20
  This energy is -0.00190138 and Call times are: 2425
C	0.12179	-0.707016	0.801988
O	-0.125224	0.166537	-0.0817982
O	1.12672	-1.55668	0.750844
H	-0.515706	-0.795424	1.68092
H	1.73204	-1.47854	-0.0744542
C	2.34209	-0.372733	-2.27916
O	2.56929	-1.23032	-1.39894
O	1.33982	0.503394	-2.27146
H	2.9744	-0.27089	-3.16003
H	0.731968	0.43166	-1.45962
C	-2.80182	1.21833	1.69786
O	-2.31861	0.294949	2.36714
O	-2.32154	1.66562	0.519033
H	-3.68753	1.78311	1.99455
H	-1.50382	1.16372	0.218883
C	5.44158	-0.196709	0.316643
O	6.62811	-0.443924	0.460888
O	5.02408	0.575408	-0.685876
H	4.71704	-0.612483	1.01585
H	5.75749	0.867919	-1.21533
