20
  This energy is -0.00357522 and Call times are: 8142
C	-0.70473	0.278781	0.763889
O	0.207564	-0.0725086	-0.0420304
O	-1.89966	0.697498	0.401618
H	-0.530716	0.247439	1.83882
H	-2.0708	0.728907	-0.609994
C	-1.29166	0.372382	-3.00197
O	-2.17917	0.717769	-2.19271
O	-0.0715813	-0.0542781	-2.68328
H	-1.45456	0.394515	-4.07858
H	0.109255	-0.0854569	-1.68326
C	2.25953	-0.738847	2.56239
O	1.20599	-0.345001	3.08104
O	2.48384	-0.856261	1.23715
H	3.14023	-1.04034	3.13246
H	1.6889	-0.585244	0.684646
C	5.37174	0.0955275	0.114939
O	6.04546	-0.256039	1.07008
O	5.90451	0.167391	-1.10429
H	4.32357	0.353086	0.262222
H	6.8213	-0.0836069	-1.08792
