20
  This energy is -0.000386327 and Call times are: 5956
C	0.27991	-0.901028	0.517387
O	-0.0829447	0.206826	0.021214
O	0.734191	-1.91933	-0.183404
H	0.22905	-1.06459	1.59321
H	0.785446	-1.7719	-1.19793
C	0.455428	-0.301435	-3.24355
O	0.80661	-1.38874	-2.73729
O	-0.0109548	0.752424	-2.57716
H	0.505888	-0.123572	-4.31683
H	-0.0691702	0.615113	-1.57145
C	-0.829785	1.35374	3.11386
O	-0.417	0.199998	3.29429
O	-0.937101	1.96895	1.91788
H	-1.1588	2.01286	3.91934
H	-0.64067	1.3856	1.15468
C	4.05077	-0.0502274	0.0046135
O	3.47925	-0.89002	0.681298
O	3.35962	0.882759	-0.649109
H	5.13782	-0.0647476	-0.0647944
H	2.42641	0.778021	-0.500987
