20
  This energy is 8.1439e-05 and Call times are: 9082
C	-0.280221	0.382263	0.966044
O	0.0136146	0.0440277	-0.21905
O	-0.160383	-0.402015	2.01722
H	-0.661332	1.38135	1.17416
H	0.19888	-1.34486	1.8285
C	1.06229	-3.10565	0.212995
O	0.764871	-2.75595	1.37537
O	0.956051	-2.35015	-0.87794
H	1.44869	-4.09969	-0.00767231
H	0.597379	-1.4152	-0.702107
C	-0.893175	3.10884	-1.32461
O	-1.08601	3.14269	-0.10161
O	-0.421401	2.04931	-2.01395
H	-1.08783	3.94992	-1.99259
H	-0.232181	1.25728	-1.42442
C	9.36591	-0.252281	-0.0905612
O	9.5946	0.62934	0.721989
O	8.14867	-0.39769	-0.612753
H	10.1666	-0.926949	-0.391281
H	7.55115	0.254364	-0.26408
