20
  This energy is 3.3272e-05 and Call times are: 11715
C	0.433836	-0.964737	0.19738
O	-0.175537	0.10941	-0.0855748
O	1.62466	-1.02178	0.756935
H	-0.0228059	-1.92956	-0.0201591
H	2.06063	-0.116168	0.965345
C	2.0074	2.42406	0.95557
O	2.59522	1.3547	1.22539
O	0.807311	2.53075	0.389362
H	2.45084	3.39489	1.1723
H	0.368469	1.63892	0.175434
C	-2.77299	-1.67924	-1.30688
O	-1.95502	-2.52743	-0.92535
O	-2.60941	-0.342333	-1.22761
H	-3.73578	-1.92551	-1.75842
H	-1.72986	-0.083915	-0.814967
C	7.02719	-0.251732	0.0581348
O	7.02178	0.758063	0.743756
O	8.05177	-0.520077	-0.750409
H	6.18454	-0.940283	0.108734
H	8.71313	0.160616	-0.695347
