20
  This energy is -0.00083228 and Call times are: 387
C	0.390227	0.945983	-0.332759
O	-0.0799629	-0.199242	-0.0633674
O	0.709923	1.852	0.567991
H	0.557345	1.24214	-1.3677
H	0.555649	1.57934	1.54548
C	-0.196625	-0.116807	3.28124
O	0.26385	1.00974	2.99713
O	-0.535547	-1.06183	2.40702
H	-0.36383	-0.426813	4.31181
H	-0.389994	-0.800016	1.43544
C	-0.210932	-0.927928	-3.36329
O	0.245837	0.222113	-3.31006
O	-0.563392	-1.68049	-2.30038
H	-0.381926	-1.46983	-4.29527
H	-0.416962	-1.20726	-1.42559
C	3.89206	0.127267	0.189284
O	3.65497	0.728936	-0.845884
O	3.0446	-0.79078	0.652432
H	4.80686	0.344143	0.739574
H	2.293	-0.877977	0.0768727
