20
  This energy is 1.1947e-05 and Call times are: 14756
C	-0.667582	-0.836798	-0.109513
O	0.159372	0.0936659	0.12623
O	-1.49147	-0.860215	-1.13668
H	-0.734313	-1.69519	0.557907
H	-1.43351	-0.0546651	-1.77021
C	-0.409709	2.17396	-2.43411
O	-1.2214	1.24849	-2.6498
O	0.438776	2.24184	-1.41056
H	-0.329785	3.03508	-3.09609
H	0.386542	1.45011	-0.774835
C	1.21635	-1.53905	2.89294
O	0.336522	-2.26613	2.41198
O	1.62409	-0.359464	2.3804
H	1.76971	-1.77787	3.80302
H	1.13156	-0.111908	1.53971
C	10.7866	-0.313673	0.158816
O	9.74417	-0.797394	-0.252509
O	10.9905	1.00235	0.114234
H	11.5578	-0.966105	0.566583
H	10.2404	1.44811	-0.263062
