20
  This energy is -0.000343142 and Call times are: 9334
C	0.0459654	-0.90366	-0.582388
O	0.0487021	0.0956505	0.196433
O	-0.470369	-0.903934	-1.79392
H	0.491008	-1.84695	-0.26796
H	-0.890897	-0.0179816	-2.09704
C	-1.49844	2.4105	-1.66223
O	-1.49466	1.41393	-2.41635
O	-0.991937	2.45713	-0.431999
H	-1.93575	3.36046	-1.96632
H	-0.57621	1.58303	-0.120821
C	1.65703	-1.73147	2.54431
O	1.50467	-2.50527	1.58929
O	1.24838	-0.446237	2.58372
H	2.14878	-2.01031	3.47808
H	0.7908	-0.159518	1.73575
C	6.21498	0.341185	0.286538
O	7.30533	-0.172079	0.480196
O	5.41444	-0.105504	-0.680475
H	5.89403	1.17348	0.911819
H	5.81743	-0.830472	-1.14501
