20
  This energy is -0.000865595 and Call times are: 8545
C	-1.02896	0.0366054	0.312702
O	0.147237	0.0598727	-0.157618
O	-1.37427	-0.571088	1.4289
H	-1.84031	0.541424	-0.210376
H	-0.614454	-1.04835	1.92743
C	1.82883	-1.71598	2.1283
O	0.662228	-1.73095	2.57628
O	2.22368	-1.11846	1.00614
H	2.64957	-2.21255	2.64397
H	1.47742	-0.645832	0.502736
C	-0.928996	1.9151	-2.77247
O	-1.94001	1.7203	-2.08403
O	0.309658	1.4603	-2.49096
H	-0.929338	2.48793	-3.70165
H	0.341962	0.927809	-1.63886
C	5.45886	-0.366765	0.0649136
O	5.12968	-0.226727	-1.10206
O	5.06288	0.503476	0.993026
H	6.08323	-1.21289	0.349439
H	4.52675	1.18769	0.608063
