20
  This energy is -0.000375443 and Call times are: 173
C	-0.607634	0.746614	0.480873
O	0.0504603	-0.217803	-0.0110651
O	-0.453729	2.00807	0.13524
H	-1.36255	0.564075	1.24476
H	0.255621	2.18732	-0.584709
C	2.03423	1.3586	-2.19886
O	1.3777	2.29813	-1.70075
O	1.9152	0.0715717	-1.88014
H	2.7882	1.52713	-2.96648
H	1.21748	-0.116153	-1.16484
C	-1.63728	-2.38386	1.96311
O	-2.10192	-1.27054	2.24364
O	-0.666797	-2.62155	1.05645
H	-1.96891	-3.31398	2.42829
H	-0.340281	-1.78205	0.610047
C	5.15483	-0.058117	0.0646822
O	5.58099	0.94417	0.615681
O	5.96839	-0.848789	-0.634221
H	4.0976	-0.307837	0.145976
H	6.85806	-0.513948	-0.621896
