20
  This energy is -0.000124921 and Call times are: 14159
C	-0.0569146	-0.922747	-0.550625
O	-0.0977761	0.19733	0.0400927
O	0.905674	-1.80936	-0.403095
H	-0.852598	-1.21213	-1.2361
H	1.65852	-1.54348	0.242017
C	2.71155	0.109875	1.85857
O	2.73701	-0.989795	1.26532
O	1.76307	1.03636	1.73942
H	3.49817	0.409017	2.54985
H	1.01436	0.784067	1.0995
C	-3.0251	0.907727	-1.49735
O	-2.7136	-0.217057	-1.91195
O	-2.3113	1.64475	-0.621196
H	-3.92999	1.43692	-1.80169
H	-1.4702	1.18262	-0.321824
C	6.10165	-0.406194	-0.0090521
O	5.09981	-0.365326	-0.705064
O	6.49941	0.665821	0.67512
H	6.67599	-1.3298	0.0525982
H	5.90956	1.3972	0.530415
