20
  This energy is 0.000158232 and Call times are: 13924
C	0.257801	-0.0568674	1.04317
O	-0.0430542	0.136241	-0.172312
O	0.368769	-1.24282	1.60496
H	0.445916	0.788517	1.70398
H	0.193498	-2.0441	0.987822
C	-0.397808	-2.99885	-1.29133
O	-0.102579	-3.17072	-0.089178
O	-0.523364	-1.82213	-1.90105
H	-0.583527	-3.83544	-1.96345
H	-0.355374	-1.02164	-1.29713
C	0.166639	3.47835	0.300904
O	0.431634	2.98416	1.40526
O	-0.133978	2.78377	-0.816031
H	0.146858	4.55223	0.106241
H	-0.123685	1.78948	-0.667901
C	7.06339	0.121441	0.01902
O	7.80598	0.969551	0.487064
O	7.55375	-1.01416	-0.476427
H	5.98818	0.296062	0.00681688
H	8.50131	-1.03407	-0.402109
