20
  This energy is -0.00238944 and Call times are: 11294
C	-0.845889	0.562546	0.354828
O	0.218687	-0.0403444	0.0255987
O	-2.00816	0.405198	-0.244162
H	-0.843946	1.26802	1.18491
H	-2.01744	-0.258748	-1.02693
C	-0.828543	-1.91655	-2.5415
O	-1.86867	-1.31104	-2.20481
O	0.366293	-1.78834	-1.96868
H	-0.818246	-2.62775	-3.36625
H	0.38691	-1.12984	-1.19431
C	1.89066	1.55005	2.498
O	0.728689	1.97122	2.57868
O	2.33671	0.650399	1.59687
H	2.69787	1.86716	3.16083
H	1.6143	0.338812	0.971015
C	5.21446	0.228867	-0.0687132
O	5.18943	-0.888382	-0.559548
O	6.29242	0.661542	0.584211
H	4.34536	0.878376	-0.166223
H	6.97186	-0.00333527	0.59295
