20
  This energy is 0.000506095 and Call times are: 9250
C	-0.470469	-0.0476065	0.966583
O	0.171715	-0.070084	-0.125335
O	-1.55998	0.661733	1.1769
H	-0.132811	-0.641241	1.8153
H	-1.88427	1.22308	0.381059
C	-1.63599	2.01508	-2.02036
O	-2.25557	2.02732	-0.93507
O	-0.531916	1.31738	-2.27807
H	-1.96574	2.60014	-2.87773
H	-0.20028	0.760697	-1.4946
C	2.38855	-2.24317	1.21666
O	1.57481	-2.01946	2.12321
O	2.3495	-1.70664	-0.0206694
H	3.24418	-2.91278	1.3216
H	1.57053	-1.08405	-0.14805
C	6.87901	-0.0384089	0.394244
O	6.6189	-0.946617	-0.378601
O	7.72974	0.927079	0.0483994
H	6.40984	-0.0181242	1.37719
H	8.06242	0.785531	-0.830842
