20
  This energy is -0.00192853 and Call times are: 11210
C	0.493046	-0.907808	0.301131
O	0.0115632	0.181978	-0.129835
O	-0.0778264	-1.66649	1.21378
H	1.44229	-1.27947	-0.0829656
H	-0.973091	-1.32261	1.57968
C	-2.83078	0.410223	1.62396
O	-2.33982	-0.661252	2.0396
O	-2.29032	1.20952	0.706779
H	-3.78112	0.790235	1.99622
H	-1.40108	0.879503	0.340641
C	2.66961	0.54878	-2.18844
O	2.87654	-0.515355	-1.58939
O	1.59688	1.3487	-2.01598
H	3.34647	0.964646	-2.93705
H	0.953766	0.991222	-1.33096
C	5.83668	0.430542	-0.0411222
O	6.43726	-0.324672	-0.788616
O	4.89392	-0.0312628	0.779521
H	6.07498	1.49351	-0.0459378
H	4.78973	-0.970945	0.679922
