20
  This energy is -0.00106261 and Call times are: 5228
C	0.14584	-0.881353	-0.599865
O	0.0837302	0.127889	0.163525
O	-0.774379	-1.20545	-1.4845
H	1.00203	-1.55335	-0.554218
H	-1.5838	-0.576089	-1.5334
C	-2.83625	1.48947	-0.745668
O	-2.75975	0.487886	-1.4892
O	-1.93425	1.85479	0.162704
H	-3.68435	2.17161	-0.784768
H	-1.13007	1.23549	0.2216
C	3.06737	-0.707032	1.51941
O	2.84791	-1.58269	0.671401
O	2.25481	0.333002	1.79949
H	3.96072	-0.680245	2.14607
H	1.42165	0.335538	1.23692
C	6.13737	0.30458	0.334026
O	5.77801	0.806386	-0.718988
O	6.37565	-1.00372	0.418286
H	6.2643	0.934309	1.21382
H	6.22621	-1.42913	-0.418653
