20
  This energy is -0.000535044 and Call times are: 12219
C	-0.957476	-0.0318375	-0.490017
O	0.220926	-0.0262495	-0.0246895
O	-2.04086	0.20809	0.219302
H	-1.13131	-0.244833	-1.54413
H	-1.88438	0.410273	1.21342
C	-0.32242	0.718039	3.19364
O	-1.47816	0.705666	2.71828
O	0.799431	0.479924	2.51766
H	-0.134797	0.934205	4.24444
H	0.654833	0.274784	1.53241
C	1.44018	-0.779392	-3.08799
O	0.212952	-0.714167	-3.24205
O	2.0949	-0.583117	-1.92473
H	2.14101	-1.00755	-3.89314
H	1.47462	-0.370544	-1.16268
C	6.89818	-0.0363029	-0.214183
O	7.01474	0.399504	0.919959
O	5.69893	-0.349927	-0.703015
H	7.78508	-0.169839	-0.832472
H	5.01816	-0.18473	-0.0603339
