20
  This energy is 0.000105494 and Call times are: 1845
C	-0.254477	0.74162	0.736975
O	0.0695934	-0.209998	-0.0341241
O	-0.611119	1.94257	0.330844
H	-0.251612	0.59939	1.81702
H	-0.616709	2.08346	-0.685893
C	-0.263826	1.21202	-3.04635
O	-0.577985	2.14035	-2.27086
O	0.104657	-0.0144241	-2.6827
H	-0.267255	1.33982	-4.12792
H	0.11707	-0.163091	-1.67699
C	0.583057	-2.21184	2.64292
O	0.228681	-1.12599	3.12188
O	0.71815	-2.48085	1.32772
H	0.830024	-3.0883	3.24486
H	0.497032	-1.69096	0.746498
C	4.00047	0.206439	-0.0591472
O	4.75133	0.358883	-1.00928
O	4.38159	-0.502496	1.00277
H	3.00817	0.655404	-0.0808243
H	5.26515	-0.834193	0.888397
