20
  This energy is -0.00513709 and Call times are: 7637
C	0.338359	-0.743983	0.699923
O	0.0287811	0.0885006	-0.203583
O	-0.232731	-0.805609	1.88503
H	1.12544	-1.47678	0.525981
H	-0.975851	-0.118348	2.05555
C	-2.41753	1.8254	1.28153
O	-2.09733	0.998677	2.16237
O	-1.86834	1.92666	0.0730924
H	-3.20572	2.55986	1.44109
H	-1.12829	1.25247	-0.104385
C	2.37187	-1.24658	-2.24444
O	2.44569	-1.90889	-1.20042
O	1.52052	-0.22318	-2.46402
H	3.00053	-1.42193	-3.11939
H	0.926933	-0.0373836	-1.67423
C	4.1855	0.430366	0.0861001
O	4.78809	0.308284	-0.968303
O	3.92769	-0.630803	0.849628
H	3.85539	1.41823	0.405266
H	4.27041	-1.42391	0.453012
