20
  This energy is -8.1457e-05 and Call times are: 12009
C	0.99982	-0.236009	-0.320233
O	-0.177025	0.133469	-0.0309026
O	1.65073	-1.20215	0.294034
H	1.54691	0.252218	-1.12588
H	1.14085	-1.66712	1.05394
C	-0.93831	-1.93371	2.48982
O	0.224146	-2.28339	2.19268
O	-1.63366	-0.963693	1.90013
H	-1.4977	-2.41679	3.28972
H	-1.13578	-0.494169	1.14822
C	-0.0528247	2.46458	-2.47797
O	1.04755	1.89784	-2.52331
O	-1.04896	2.17289	-1.616
H	-0.343249	3.279	-3.1442
H	-0.810658	1.42485	-0.988063
C	8.36275	-0.0751248	-0.0943614
O	8.89898	-1.03519	0.435289
O	9.05037	1.03989	-0.338135
H	7.31044	-0.131772	-0.370297
H	9.9514	0.951622	-0.0480617
