20
  This energy is 4.6632e-05 and Call times are: 13068
C	0.0323869	-0.524435	0.939047
O	-0.0844855	0.00232325	-0.207277
O	0.794945	-0.0517049	1.90313
H	-0.518234	-1.43137	1.18606
H	1.31624	0.803259	1.67746
C	1.94289	2.65354	0.0528137
O	2.04827	2.11896	1.17753
O	1.18835	2.21167	-0.950986
H	2.4841	3.56278	-0.20503
H	0.670634	1.36278	-0.738698
C	-2.25059	-2.43243	-1.11146
O	-1.93833	-2.70296	0.0561742
O	-1.79322	-1.37961	-1.82051
H	-2.9444	-3.0285	-1.70713
H	-1.15067	-0.810456	-1.29721
C	8.46347	0.0244851	-0.303125
O	8.17141	0.541379	0.763324
O	9.66042	-0.532187	-0.484612
H	7.73671	0.0188776	-1.11461
H	10.1911	-0.456291	0.300508
