20
  This energy is -0.00387667 and Call times are: 8058
C	-0.950737	0.202662	-0.461429
O	0.149728	-0.157882	0.0525507
O	-1.40353	1.43935	-0.463563
H	-1.59737	-0.528559	-0.945079
H	-0.798866	2.13385	-0.0100313
C	1.33319	2.74376	1.23014
O	0.243173	3.08121	0.720395
O	1.8297	1.5089	1.25836
H	1.99087	3.46566	1.71227
H	1.23626	0.812625	0.814808
C	-0.451572	-3.35088	-0.885977
O	-1.43525	-2.71233	-1.28436
O	0.603663	-2.83166	-0.224723
H	-0.328051	-4.42593	-1.02917
H	0.518637	-1.84083	-0.0775239
C	4.4305	0.112899	0.405291
O	3.56141	-0.0572479	-0.434668
O	5.7174	-0.0346208	0.092823
H	4.14963	0.388346	1.42114
H	5.81789	-0.274591	-0.821558
