20
  This energy is 0.0005413 and Call times are: 12642
C	-0.565075	0.64611	0.648939
O	0.0654506	-0.0386681	-0.210542
O	-0.636669	0.351893	1.93063
H	-1.09823	1.54778	0.349837
H	-0.135913	-0.496248	2.21965
C	1.3147	-2.50905	1.67186
O	0.685388	-1.82309	2.50571
O	1.41301	-2.2528	0.369222
H	1.85564	-3.40971	1.95874
H	0.91709	-1.41646	0.0720712
C	-0.861699	2.13444	-2.63038
O	-1.37082	2.57898	-1.59248
O	-0.108694	1.0183	-2.71744
H	-0.968663	2.60673	-3.60864
H	0.00805427	0.560116	-1.83026
C	4.78878	0.217791	-0.0846099
O	4.06998	0.143849	-1.06831
O	4.40667	-0.307702	1.07873
H	5.75298	0.719143	-0.159922
H	3.54963	-0.711868	1.00186
