20
  This energy is -0.00190539 and Call times are: 12563
C	0.624759	0.390409	0.784313
O	-0.0539918	-0.181021	-0.120096
O	0.530228	1.667	1.09384
H	1.34744	-0.176338	1.3702
H	-0.149455	2.20704	0.546099
C	-1.91589	2.35025	-1.27459
O	-1.23596	2.8982	-0.380545
O	-1.85317	1.06704	-1.62334
H	-2.64496	2.90444	-1.86403
H	-1.17985	0.524056	-1.089
C	1.47968	-3.11417	0.574268
O	1.97783	-2.30068	1.3643
O	0.532304	-2.83392	-0.344598
H	1.75831	-4.16879	0.534005
H	0.254463	-1.86786	-0.331667
C	4.26778	0.339129	0.270646
O	5.36134	-0.106749	0.579064
O	3.59327	-0.165781	-0.761637
H	3.83969	1.15882	0.84644
H	4.08089	-0.871528	-1.17142
