20
  This energy is -0.00195231 and Call times are: 9478
C	-0.308186	-0.64886	0.801182
O	0.0295651	0.212275	-0.0645903
O	-0.306872	-1.95024	0.599096
H	-0.628051	-0.334236	1.79387
H	-0.00585536	-2.25387	-0.334086
C	0.822013	-1.72492	-2.67728
O	0.482848	-2.56041	-1.81195
O	0.8345	-0.403093	-2.51975
H	1.14824	-2.02659	-3.67161
H	0.534261	-0.0918269	-1.5996
C	-0.588213	2.69103	2.15166
O	-0.849497	1.6461	2.76315
O	-0.154201	2.76434	0.876266
H	-0.682406	3.68775	2.5866
H	-0.0572906	1.86003	0.447919
C	3.59601	0.248973	-0.319592
O	4.63181	-0.26194	-0.714391
O	3.17247	0.0522103	0.928372
H	3.01238	0.872418	-0.995904
H	3.77432	-0.508331	1.40519
