20
  This energy is -0.0030683 and Call times are: 7553
C	0.623489	0.792114	-0.376438
O	-0.0169125	-0.167057	0.148029
O	0.183064	1.52327	-1.37936
H	1.60976	1.06432	-0.00241147
H	-0.746104	1.2727	-1.73642
C	-2.83276	-0.175099	-1.66244
O	-2.18586	0.766324	-2.1695
O	-2.42834	-0.941454	-0.651822
H	-3.82151	-0.45413	-2.02388
H	-1.50713	-0.703649	-0.293301
C	2.52586	-0.686517	2.31645
O	2.89374	0.268469	1.61879
O	1.35226	-1.34049	2.19264
H	3.12322	-1.11252	3.12465
H	0.778823	-0.970017	1.4547
C	6.24398	-0.00129616	0.0928393
O	5.85581	1.07869	-0.322783
O	5.39768	-1.02096	0.232742
H	7.29403	-0.13166	0.351875
H	4.5189	-0.76916	-0.0282758
