20
  This energy is -4.0943e-05 and Call times are: 11967
C	-0.466637	-0.898948	-0.363362
O	0.144787	0.164383	-0.0460628
O	-1.30827	-1.53839	0.422252
H	-0.314777	-1.34875	-1.34385
H	-1.45668	-1.11966	1.34761
C	-0.986809	0.698681	3.05891
O	-1.57948	-0.351337	2.73016
O	-0.127777	1.37702	2.3012
H	-1.13352	1.16097	4.03404
H	0.0290275	0.968182	1.38361
C	1.64454	0.213113	-3.0769
O	0.926694	-0.796077	-3.09415
O	1.76337	1.07198	-2.04318
H	2.27271	0.524677	-3.91346
H	1.19527	0.810928	-1.25593
C	11.1835	-0.324999	0.140438
O	11.75	0.73851	-0.0540093
O	9.87149	-0.443886	-0.0593648
H	11.758	-1.18561	0.481042
H	9.49843	0.379436	-0.353887
