20
  This energy is -0.00167883 and Call times are: 1751
C	-0.107397	-0.480552	0.956779
O	0.00718903	-0.029812	-0.221735
O	-0.0374066	0.254975	2.04697
H	-0.276449	-1.54353	1.12483
H	0.121089	1.25783	1.89599
C	0.477114	3.23638	0.342191
O	0.364421	2.77411	1.49782
O	0.415794	2.53311	-0.786458
H	0.641497	4.29755	0.160503
H	0.262752	1.53763	-0.647498
C	-0.425516	-3.14632	-1.4618
O	-0.493702	-3.28153	-0.232521
O	-0.220659	-1.98162	-2.11133
H	-0.525759	-3.97172	-2.16902
H	-0.124301	-1.2011	-1.48511
C	3.83449	-0.0215436	-0.305601
O	3.2391	1.04348	-0.337578
O	3.48392	-0.971664	0.560358
H	4.66133	-0.19594	-0.993078
H	2.75188	-0.687334	1.09613
