44
  This energy is -5.4163 and Call times are: 73092
C	-1.47835	-2.35426	-2.09395
C	-0.30098	-1.60224	-1.60465
O	0.833985	-1.92021	-1.93201
H	-1.13652	-3.19271	-2.73896
H	-2.13738	-1.68822	-2.68961
H	-2.05003	-2.76977	-1.23743
N	-0.550293	-0.57151	-0.793596
C	0.494123	0.228033	-0.203267
C	-0.0179386	0.776166	1.11541
O	-1.19916	0.651562	1.43306
H	-1.47696	-0.350188	-0.503468
H	1.34529	-0.403542	0.0186786
C	0.905913	1.38049	-1.14535
H	0.0354331	2.03477	-1.36492
H	1.71914	1.99521	-0.707969
H	1.26976	0.95645	-2.10668
N	0.867832	1.39271	1.92244
C	0.473095	1.94087	3.19911
H	1.82027	1.48018	1.64991
H	1.3429	2.40594	3.71328
H	0.0615706	1.14295	3.85884
H	-0.313208	2.71889	3.06662
C	7.5984	1.64464	2.23711
C	7.01275	0.410965	1.66595
O	7.46341	-0.691569	1.94476
H	8.45762	1.37555	2.88916
H	6.84053	2.18221	2.84489
H	7.9588	2.30924	1.42379
N	5.97845	0.573415	0.837566
C	5.33132	-0.528985	0.170866
C	4.7546	-0.0185312	-1.13619
O	4.73678	1.18448	-1.38949
H	5.64901	1.4796	0.58827
H	6.07031	-1.28146	-0.0746756
C	4.21786	-1.13172	1.05526
H	3.45397	-0.362798	1.29872
H	3.72122	-1.99033	0.558611
H	4.66134	-1.49144	2.00934
N	4.27412	-0.929197	-2.00558
C	3.71116	-0.53726	-3.27666
H	4.30098	-1.89848	-1.78456
H	3.3719	-1.4291	-3.84828
H	4.46632	0.0056973	-3.89003
H	2.83725	0.137555	-3.12817
