44
  This energy is 0.103 and Call times are: 77734
C	1.17911	-2.6384	-1.93939
C	1.02563	-1.94104	-0.642751
O	1.32629	-2.48771	0.40947
H	1.56762	-3.66458	-1.7608
H	1.89595	-2.09026	-2.58624
H	0.197621	-2.71022	-2.4538
N	0.543453	-0.697046	-0.691394
C	0.298192	0.0921261	0.489968
C	-0.830642	1.05926	0.186762
O	-1.25774	1.18952	-0.958811
H	0.264794	-0.280454	-1.55201
H	-0.0385342	-0.556324	1.28919
C	1.56942	0.859599	0.914472
H	1.90924	1.53284	0.09881
H	1.3973	1.46024	1.83105
H	2.38435	0.132618	1.1236
N	-1.34853	1.75827	1.21594
C	-2.42869	2.69775	1.02407
H	-0.992434	1.63619	2.13646
H	-2.71439	3.171	1.98928
H	-3.32533	2.18534	0.606036
H	-2.1285	3.50219	0.314207
C	0.660612	0.13923	1.12841
C	1.72036	-0.434796	0.268998
O	1.53487	-1.46717	-0.360457
H	-0.236348	-0.516559	1.09298
H	0.380665	1.15091	0.766622
H	1.01471	0.20734	2.17867
N	2.87568	0.232833	0.225544
C	4.0139	-0.224608	-0.531922
C	5.27054	0.284543	0.148663
O	5.20312	1.0958	1.07008
H	3.02553	1.04951	0.775497
H	4.04881	-1.30661	-0.50595
C	3.94531	0.280186	-1.98991
H	3.92011	1.39043	-2.01752
H	4.80919	-0.0769058	-2.58716
H	3.01416	-0.0978218	-2.46573
N	6.45395	-0.190203	-0.287435
C	7.70217	0.232862	0.303436
H	6.48799	-0.849243	-1.03147
H	8.56204	-0.269533	-0.192006
H	7.72782	-0.0176125	1.38874
H	7.8325	1.33445	0.200199
