44
  This energy is -5.3795 and Call times are: 81987
C	1.73892	-2.60182	-1.52294
C	1.55847	-1.6178	-0.431949
O	2.22114	-1.68189	0.594295
H	2.5127	-3.34245	-1.22528
H	2.07036	-2.08877	-2.45013
H	0.78543	-3.13675	-1.71739
N	0.639263	-0.670698	-0.633045
C	0.320612	0.330419	0.354268
C	-1.12503	0.74604	0.156926
O	-1.76051	0.368052	-0.825418
H	0.0791029	-0.655924	-1.45637
H	0.399027	-0.10495	1.34267
C	1.25758	1.55126	0.224355
H	1.16971	2.00464	-0.785975
H	1.03128	2.32328	0.988095
H	2.31046	1.22237	0.36437
N	-1.68346	1.53276	1.0978
C	-3.05513	1.97394	0.997435
H	-1.15447	1.82496	1.88765
H	-3.32783	2.61142	1.86719
H	-3.74747	1.10143	0.971659
H	-3.21057	2.56562	0.0663651
C	3.6091	0.394993	2.79132
C	4.94193	0.309341	2.15305
O	5.95773	0.606801	2.76631
H	3.72366	0.768016	3.83227
H	3.13299	-0.607652	2.8192
H	2.95922	1.09702	2.22749
N	4.9667	-0.104459	0.883981
C	6.18368	-0.197632	0.116628
C	5.83758	0.00874204	-1.34597
O	4.66583	0.0499321	-1.71613
H	4.12793	-0.30379	0.385386
H	6.85102	0.604409	0.406464
C	6.86302	-1.56903	0.324018
H	6.1827	-2.39176	0.0169187
H	7.80845	-1.64794	-0.250845
H	7.10005	-1.70186	1.40222
N	6.85703	0.15256	-2.21548
C	6.62412	0.358776	-3.62594
H	7.79842	0.120429	-1.89639
H	7.58745	0.454343	-4.17376
H	6.03147	1.287	-3.79459
H	6.05713	-0.496431	-4.05985
