44
  This energy is 0.1012 and Call times are: 77155
C	1.58223	2.49162	1.84419
C	1.4094	1.07687	1.44451
O	2.23017	0.225732	1.75805
H	2.53085	2.59911	2.41379
H	0.737473	2.81307	2.48902
H	1.62787	3.14066	0.944332
N	0.31916	0.791327	0.72882
C	0.0362975	-0.531805	0.230954
C	-0.78247	-0.394354	-1.0388
O	-1.23015	0.697366	-1.38441
H	-0.318686	1.50219	0.446522
H	0.965692	-1.01939	-0.0357236
C	-0.730035	-1.36456	1.2819
H	-1.68853	-0.870083	1.54803
H	-0.941629	-2.39005	0.915691
H	-0.115699	-1.44536	2.20517
N	-0.990923	-1.50581	-1.77177
C	-1.75346	-1.47067	-2.99794
H	-0.617145	-2.37933	-1.47798
H	-1.8123	-2.48364	-3.45362
H	-1.28062	-0.78178	-3.73492
H	-2.79043	-1.11165	-2.80577
C	5.07933	-2.01056	1.07565
C	4.52745	-0.70548	0.647455
O	5.1724	0.326369	0.772885
H	6.09219	-1.85715	1.50743
H	5.15946	-2.69609	0.205954
H	4.42512	-2.46796	1.84757
N	3.29881	-0.723208	0.125428
C	2.61241	0.472279	-0.296733
C	1.12059	0.236812	-0.153223
O	0.681684	-0.882026	0.10615
H	2.77032	-1.56535	0.0675635
H	2.87539	1.28786	0.365306
C	2.9668	0.82508	-1.75796
H	2.68754	-0.00703226	-2.43887
H	2.45524	1.75155	-2.09035
H	4.06397	0.985252	-1.84108
N	0.302344	1.29578	-0.311564
C	-1.13108	1.1686	-0.187919
H	0.676484	2.19404	-0.517057
H	-1.62857	2.14982	-0.352088
H	-1.40672	0.801416	0.827208
H	-1.52746	0.444729	-0.936272
