44
  This energy is -2.667 and Call times are: 82806
C	0.672674	-3.30985	-0.83968
C	0.102321	-1.97823	-1.14403
O	-0.283162	-1.69715	-2.27044
H	0.688635	-3.92318	-1.76675
H	0.0524762	-3.82671	-0.0774725
H	1.71116	-3.2039	-0.460981
N	0.0375579	-1.11416	-0.12837
C	-0.452792	0.23317	-0.279437
C	0.230166	1.10417	0.758098
O	0.920011	0.604215	1.64459
H	0.393047	-1.34356	0.773222
H	-0.168544	0.609579	-1.25419
C	-1.98647	0.28489	-0.10506
H	-2.27782	-0.0913037	0.898745
H	-2.37786	1.31494	-0.232842
H	-2.46488	-0.365715	-0.869379
N	0.0592127	2.43767	0.665447
C	0.674938	3.34576	1.60483
H	-0.499259	2.82374	-0.0612808
H	0.415557	4.39952	1.36085
H	1.78408	3.24328	1.58082
H	0.330772	3.13096	2.6424
C	5.60087	3.41779	-0.64909
C	4.93674	2.21489	-0.0985261
O	3.95026	2.30886	0.618725
H	5.07217	4.32675	-0.288368
H	5.56755	3.39923	-1.75873
H	6.65804	3.45936	-0.311858
N	5.47443	1.03769	-0.426364
C	4.96563	-0.217748	0.0671576
C	6.11621	-1.20492	0.123856
O	7.20789	-0.928736	-0.369766
H	6.30176	0.979188	-0.977686
H	4.60522	-0.0839506	1.0795
C	3.83806	-0.752096	-0.842953
H	4.21009	-0.899523	-1.87925
H	3.4285	-1.71155	-0.465826
H	3.01046	-0.0102587	-0.875932
N	5.8988	-2.38389	0.739306
C	6.93619	-3.38312	0.846716
H	5.00996	-2.58753	1.13626
H	6.5628	-4.28121	1.38639
H	7.81377	-2.98007	1.40232
H	7.28297	-3.69985	-0.163517
