44
  This energy is -5.2451 and Call times are: 75104
C	0.939601	-1.84136	-2.79986
C	0.48749	-0.587282	-2.15642
O	0.48757	0.472957	-2.76658
H	1.26236	-1.6242	-3.84128
H	0.1096	-2.57831	-2.82714
H	1.79699	-2.27113	-2.24015
N	0.0874536	-0.682713	-0.886281
C	-0.339116	0.457649	-0.114158
C	-0.0394693	0.178623	1.34663
O	0.328355	-0.936142	1.71231
H	0.13181	-1.54524	-0.390353
H	0.243824	1.32318	-0.403407
C	-1.8463	0.727823	-0.315731
H	-2.44543	-0.155992	-0.00921661
H	-2.18403	1.61196	0.262851
H	-2.04361	0.921512	-1.39272
N	-0.183	1.19515	2.21961
C	0.0847346	1.02493	3.6287
H	-0.477655	2.0911	1.90412
H	-0.0905397	1.97503	4.17988
H	1.14204	0.71442	3.79291
H	-0.576788	0.240499	4.06252
C	3.94784	-2.94697	1.58792
C	4.42568	-2.20143	0.401753
O	4.84291	-2.78681	-0.588032
H	4.05919	-4.03791	1.40542
H	2.87705	-2.72148	1.77586
H	4.5462	-2.66913	2.48114
N	4.37622	-0.869494	0.4784
C	4.84589	-0.00852759	-0.578337
C	5.30726	1.2958	0.0441159
O	5.09364	1.53769	1.23052
H	4.07233	-0.407041	1.30644
H	5.70733	-0.462171	-1.05242
C	3.73105	0.250828	-1.61521
H	2.85114	0.725856	-1.13132
H	4.08449	0.90132	-2.44133
H	3.40337	-0.717848	-2.05182
N	5.96286	2.16838	-0.746323
C	6.4442	3.43262	-0.240165
H	6.12983	1.95308	-1.7028
H	6.95663	4.008	-1.0424
H	7.16676	3.27282	0.592685
H	5.60026	4.0475	0.148194
