44
  This energy is 0.1446 and Call times are: 78162
C	-0.222376	2.69599	-2.18972
C	0.544175	1.62274	-1.51765
O	1.677	1.33349	-1.87746
H	0.387549	3.12038	-3.01662
H	-0.461642	3.50495	-1.46787
H	-1.16451	2.28672	-2.61158
N	-0.0691067	0.997019	-0.51031
C	0.532362	-0.0964553	0.211569
C	-0.579221	-0.989712	0.729286
O	-1.75566	-0.641225	0.650131
H	-1.0067	1.21602	-0.25569
H	1.13073	-0.688208	-0.469912
C	1.39771	0.423687	1.38027
H	0.782082	1.02203	2.08527
H	1.87746	-0.408258	1.93546
H	2.19949	1.08127	0.978926
N	-0.229693	-2.17473	1.26742
C	-1.21925	-3.09293	1.78111
H	0.727153	-2.44093	1.31894
H	-0.734204	-4.01057	2.18098
H	-1.93021	-3.39394	0.977868
H	-1.80571	-2.62003	2.60182
C	0.344602	-0.409446	0.0730326
C	1.61779	0.0324728	0.685282
O	1.62863	0.717378	1.69879
H	-0.506432	-0.00722089	0.664481
H	0.28677	-1.51822	0.0683561
H	0.269137	-0.0311664	-0.968256
N	2.73782	-0.354994	0.0706322
C	4.05083	0.032223	0.522993
C	4.97515	0.0638719	-0.679583
O	4.60562	-0.368843	-1.76949
H	2.71203	-0.87795	-0.776545
H	4.00855	1.03727	0.923878
C	4.58061	-0.953536	1.58735
H	4.63414	-1.98297	1.17329
H	5.5852	-0.65842	1.95373
H	3.88466	-0.966346	2.45442
N	6.20465	0.588692	-0.509553
C	7.15075	0.665875	-1.59818
H	6.48403	0.937523	0.378896
H	8.10368	1.12858	-1.25899
H	6.74044	1.27994	-2.43237
H	7.37612	-0.350104	-1.99585
