44
  This energy is -2.4016 and Call times are: 74831
C	1.94734	2.83731	-0.519847
C	0.692662	2.17814	-0.0927323
O	-0.176935	2.7983	0.503606
H	1.93244	3.90056	-0.195584
H	2.04204	2.80007	-1.62546
H	2.82151	2.33267	-0.056975
N	0.571168	0.882763	-0.39209
C	-0.572963	0.095736	-0.00464968
C	-0.123605	-1.34419	0.157346
O	1.00142	-1.69598	-0.192339
H	1.3051	0.381731	-0.841735
H	-0.928337	0.433319	0.960948
C	-1.69546	0.197136	-1.06056
H	-1.33454	-0.158971	-2.04898
H	-2.58735	-0.393526	-0.766997
H	-2.00302	1.26022	-1.16831
N	-0.996313	-2.2139	0.703249
C	-0.654891	-3.60325	0.901585
H	-1.90062	-1.90956	0.983749
H	-1.5036	-4.1548	1.36278
H	0.230281	-3.69843	1.57142
H	-0.406805	-4.08953	-0.0695591
C	5.4491	3.30053	1.02887
C	5.88377	2.28688	0.0415755
O	6.19816	2.60602	-1.09672
H	5.45309	4.30418	0.550837
H	6.1428	3.31256	1.89569
H	4.42075	3.07465	1.38176
N	5.90898	1.0204	0.463196
C	6.26854	-0.0811768	-0.394595
C	5.54991	-1.32153	0.102068
O	4.94326	-1.31213	1.17145
H	5.61102	0.771443	1.38031
H	5.91369	0.11705	-1.39829
C	7.79676	-0.304336	-0.394671
H	8.15979	-0.518155	0.633208
H	8.08761	-1.14112	-1.0623
H	8.30238	0.618473	-0.753982
N	5.59516	-2.42292	-0.673107
C	4.93626	-3.64816	-0.284767
H	6.08764	-2.40989	-1.53703
H	5.08908	-4.43755	-1.05337
H	3.84094	-3.4839	-0.164073
H	5.33847	-4.02038	0.685193
