44
  This energy is 0.1559 and Call times are: 76565
C	1.90412	-2.62908	1.25496
C	1.72776	-1.20488	0.892063
O	2.54189	-0.358758	1.2351
H	2.83023	-2.74211	1.85947
H	1.99532	-3.24909	0.33844
H	1.03837	-2.98124	1.85459
N	0.639575	-0.904444	0.179345
C	0.309811	0.443481	-0.211698
C	-1.19863	0.543429	-0.33892
O	-1.90354	-0.462287	-0.28108
H	-0.0350284	-1.59781	-0.0573339
H	0.613475	1.12703	0.571364
C	0.991519	0.812839	-1.5474
H	0.672182	0.118335	-2.35345
H	0.756493	1.85319	-1.85227
H	2.09407	0.725054	-1.4333
N	-1.732	1.76938	-0.507961
C	-3.15789	1.96267	-0.633066
H	-1.14566	2.57167	-0.548175
H	-3.39858	3.04062	-0.764601
H	-3.6855	1.5942	0.276407
H	-3.55453	1.40484	-1.51207
C	2.21549	-1.64341	2.15404
C	2.50314	-0.633979	1.11026
O	1.59933	-0.0610531	0.517563
H	1.11501	-1.76516	2.25388
H	2.63062	-1.31404	3.1297
H	2.66126	-2.62114	1.87401
N	3.79157	-0.392369	0.857379
C	4.22782	0.53123	-0.160072
C	5.58224	0.0720873	-0.666342
O	6.19189	-0.833727	-0.101068
H	4.51575	-0.896405	1.3193
H	3.54078	0.492285	-0.996181
C	4.31775	1.9675	0.400534
H	5.03044	2.01013	1.2516
H	4.63933	2.69037	-0.377004
H	3.31744	2.2796	0.77244
N	6.08304	0.685618	-1.75666
C	7.36235	0.312121	-2.31347
H	5.57309	1.41367	-2.2027
H	7.5983	0.931343	-3.20685
H	7.3596	-0.758938	-2.62023
H	8.17399	0.454391	-1.5637
