44
  This energy is -0.1777 and Call times are: 82369
C	1.34919	2.41935	2.10692
C	0.348137	1.37446	1.79509
O	-0.411072	0.948596	2.65454
H	1.2776	2.68694	3.18356
H	1.15722	3.32731	1.49742
H	2.37281	2.04334	1.89738
N	0.326683	0.92995	0.536387
C	-0.561926	-0.11489	0.0922667
C	0.101785	-0.841126	-1.06256
O	1.13366	-0.406254	-1.57033
H	0.97842	1.25701	-0.141951
H	-0.695686	-0.833611	0.891128
C	-1.92352	0.467933	-0.345469
H	-1.78792	1.19749	-1.17214
H	-2.62146	-0.328164	-0.676574
H	-2.38731	1.00151	0.512752
N	-0.475023	-1.97742	-1.5009
C	0.0881727	-2.73917	-2.59119
H	-1.30748	-2.31564	-1.07464
H	-0.530095	-3.63932	-2.80263
H	1.12158	-3.07402	-2.34377
H	0.137695	-2.1221	-3.51743
C	6.67057	-2.81259	-1.77779
C	5.64184	-1.82653	-1.37711
O	4.56314	-1.76844	-1.95108
H	6.29241	-3.40982	-2.63579
H	6.89322	-3.49801	-0.933176
H	7.60132	-2.29097	-2.0855
N	5.96009	-1.01428	-0.366488
C	5.07965	0.024258	0.107661
C	5.93108	1.13751	0.688459
O	7.14105	0.987537	0.84719
H	6.85768	-1.04639	0.0638157
H	4.53339	0.439519	-0.73006
C	4.1041	-0.52309	1.17253
H	4.66385	-0.939695	2.03692
H	3.41165	0.263869	1.53547
H	3.49706	-1.34171	0.7279
N	5.31515	2.29132	1.01307
C	6.04498	3.40797	1.56679
H	4.33597	2.39517	0.873491
H	5.36279	4.26355	1.76638
H	6.8369	3.74845	0.86094
H	6.53643	3.12035	2.52433
