44
  This energy is 0.1012 and Call times are: 80672
C	2.74128	1.57671	-1.45329
C	1.95401	1.15786	-0.271805
O	2.41232	1.24846	0.858751
H	3.74007	1.93441	-1.12112
H	2.22291	2.40167	-1.98572
H	2.87856	0.719155	-2.14528
N	0.731049	0.67964	-0.512734
C	-0.1366	0.192813	0.530695
C	-1.04658	-0.864433	-0.0657354
O	-1.07931	-1.05498	-1.27996
H	0.387547	0.573837	-1.44154
H	0.4598	-0.289038	1.29539
C	-0.968754	1.3435	1.13788
H	-1.58873	1.83137	0.355792
H	-1.63083	0.983736	1.95197
H	-0.282404	2.10907	1.56117
N	-1.8054	-1.58673	0.781907
C	-2.69745	-2.61824	0.306082
H	-1.7621	-1.42075	1.76152
H	-3.23298	-3.09742	1.1551
H	-2.13051	-3.40646	-0.240323
H	-3.45497	-2.19204	-0.39081
C	7.06453	-1.60785	1.37293
C	5.77339	-1.62493	0.649169
O	5.37599	-2.63628	0.0873363
H	7.5483	-2.60486	1.2846
H	6.89799	-1.38313	2.44741
H	7.73842	-0.841403	0.935317
N	5.08009	-0.484007	0.64532
C	3.82745	-0.333795	-0.0524577
C	3.68259	1.12134	-0.456417
O	4.46799	1.97136	-0.0413059
H	5.43593	0.342351	1.07236
H	3.85291	-0.920189	-0.962466
C	2.6437	-0.768664	0.839093
H	2.61087	-0.160261	1.76797
H	1.67462	-0.670757	0.308219
H	2.77471	-1.83405	1.12912
N	2.67213	1.44164	-1.28851
C	2.45929	2.79985	-1.73139
H	2.04937	0.739262	-1.617
H	1.58014	2.85894	-2.41025
H	3.3519	3.17848	-2.28017
H	2.2773	3.47271	-0.862313
