44
  This energy is 0.1195 and Call times are: 82020
C	-1.90207	2.84083	0.651531
C	-0.889861	2.10286	-0.137121
O	-0.481309	2.53568	-1.20584
H	-2.19063	3.76523	0.105551
H	-1.48493	3.12325	1.64096
H	-2.80605	2.21263	0.797392
N	-0.458014	0.950839	0.381272
C	0.493292	0.100481	-0.289898
C	0.236346	-1.33062	0.143096
O	-0.547431	-1.5811	1.0567
H	-0.830152	0.591464	1.23229
H	0.324551	0.14943	-1.35843
C	1.94122	0.517173	0.0493728
H	2.11801	0.457008	1.14444
H	2.68322	-0.12139	-0.472357
H	2.10427	1.57	-0.268935
N	0.889479	-2.30944	-0.513676
C	0.704003	-3.7012	-0.174883
H	1.51657	-2.08728	-1.25291
H	1.32709	-4.35131	-0.827838
H	-0.36263	-3.99735	-0.300857
H	0.991728	-3.8895	0.884786
C	2.14441	0.258749	2.29276
C	2.69093	0.377414	0.922208
O	1.95547	0.551709	-0.0396334
H	1.03604	0.335413	2.2541
H	2.53895	1.07473	2.93405
H	2.42164	-0.722896	2.7316
N	4.01708	0.281508	0.801757
C	4.69138	0.334313	-0.471458
C	5.97176	-0.472112	-0.362385
O	6.35952	-0.894097	0.725397
H	4.59903	0.0986934	1.58901
H	4.07357	-0.141397	-1.22288
C	5.00278	1.79337	-0.870732
H	5.64528	2.27858	-0.105349
H	5.50967	1.84825	-1.85591
H	4.05232	2.36661	-0.93679
N	6.65751	-0.713105	-1.49714
C	7.88389	-1.47609	-1.49164
H	6.32568	-0.366825	-2.36838
H	8.2964	-1.56492	-2.52081
H	7.70635	-2.50215	-1.09547
H	8.64934	-0.985177	-0.848037
