44
  This energy is -4.3656 and Call times are: 77572
C	1.7353	-2.94977	0.6327
C	1.46004	-1.51856	0.891591
O	1.93071	-0.949798	1.86698
H	2.37886	-3.35274	1.44468
H	2.26323	-3.06868	-0.336776
H	0.785137	-3.52398	0.60881
N	0.675595	-0.895954	0.00876233
C	0.283786	0.484353	0.149472
C	-1.06496	0.663921	-0.521486
O	-1.55546	-0.236204	-1.20038
H	0.266755	-1.38274	-0.757892
H	0.154614	0.713727	1.19987
C	1.33335	1.42317	-0.48478
H	1.45856	1.19524	-1.56478
H	1.04988	2.48954	-0.370722
H	2.31399	1.26901	0.0161507
N	-1.70319	1.83661	-0.338476
C	-2.99353	2.09584	-0.933467
H	-1.29215	2.55137	0.217604
H	-3.35242	3.11415	-0.666131
H	-3.7458	1.35468	-0.578435
H	-2.93588	2.02443	-2.04375
C	8.40847	2.87618	-1.94856
C	7.63606	1.78061	-1.32064
O	6.41333	1.80367	-1.29226
H	7.70621	3.64929	-2.32933
H	9.00682	2.4846	-2.7979
H	9.08646	3.34254	-1.20297
N	8.34605	0.780922	-0.792506
C	7.73737	-0.333676	-0.110055
C	8.7224	-0.852313	0.920632
O	9.87994	-0.438823	0.949429
H	9.34184	0.79628	-0.787173
H	6.86142	0.01054	0.425511
C	7.3584	-1.45072	-1.10697
H	8.25837	-1.81151	-1.64911
H	6.87618	-2.30879	-0.595404
H	6.64326	-1.04666	-1.8564
N	8.27972	-1.77065	1.80194
C	9.14382	-2.31748	2.82198
H	7.33856	-2.08994	1.76539
H	8.59561	-3.05627	3.44719
H	9.52563	-1.5098	3.48769
H	10.0202	-2.82885	2.362
