44
  This energy is -3.8506 and Call times are: 75076
C	1.87932	2.70563	-1.12268
C	1.0207	1.52467	-1.3661
O	0.554056	1.29892	-2.47411
H	1.97816	3.28822	-2.06433
H	2.88895	2.38311	-0.79197
H	1.4255	3.35482	-0.344416
N	0.788246	0.733434	-0.316199
C	-0.0622363	-0.428544	-0.387235
C	-0.666866	-0.656754	0.985317
O	-0.279094	-0.0140347	1.9591
H	1.14159	0.952718	0.58875
H	-0.878807	-0.232308	-1.07085
C	0.736776	-1.67017	-0.840195
H	1.5682	-1.87817	-0.133432
H	0.090023	-2.56854	-0.912156
H	1.17669	-1.47772	-1.84308
N	-1.64407	-1.57848	1.09271
C	-2.28216	-1.85975	2.35759
H	-1.94718	-2.08551	0.292645
H	-3.05924	-2.6468	2.23962
H	-2.76967	-0.943995	2.7638
H	-1.53516	-2.21345	3.1046
C	6.27038	0.917072	-3.25557
C	6.53164	0.909904	-1.79857
O	7.59843	1.30039	-1.34483
H	7.16939	1.29669	-3.78804
H	5.40952	1.57905	-3.48675
H	6.05066	-0.112087	-3.61
N	5.54609	0.455229	-1.02116
C	5.66795	0.347506	0.411355
C	4.76991	-0.78236	0.878801
O	3.97755	-1.31788	0.106089
H	4.69891	0.102534	-1.40814
H	6.68545	0.0763824	0.663927
C	5.2738	1.67264	1.09977
H	4.22653	1.9458	0.849442
H	5.37671	1.60685	2.20231
H	5.93866	2.48665	0.736871
N	4.88009	-1.17856	2.16212
C	4.07052	-2.2496	2.6947
H	5.5299	-0.735819	2.77105
H	4.30833	-2.4266	3.76678
H	4.25249	-3.19536	2.13459
H	2.98744	-2.00221	2.61181
