44
  This energy is -5.5116 and Call times are: 82437
C	1.0265	-3.30737	0.346827
C	0.453984	-2.05641	0.89316
O	-0.0735901	-2.03073	1.99653
H	0.869373	-4.13212	1.07551
H	2.11608	-3.18514	0.171844
H	0.526262	-3.57185	-0.608634
N	0.545433	-0.973613	0.117559
C	-0.003233	0.305315	0.494212
C	-0.367052	1.05566	-0.773136
O	-0.0316499	0.62851	-1.87621
H	0.941165	-1.01949	-0.795216
H	-0.918617	0.151091	1.05181
C	1.01069	1.11573	1.33113
H	1.94597	1.28328	0.755614
H	0.594855	2.09694	1.63906
H	1.26854	0.544211	2.24941
N	-1.07421	2.1955	-0.643773
C	-1.47037	2.97394	-1.7941
H	-1.33991	2.52292	0.256929
H	-2.04399	3.87409	-1.48119
H	-2.11151	2.36924	-2.47569
H	-0.576615	3.30958	-2.36829
C	3.42625	0.777378	-3.12348
C	4.1325	-0.137186	-2.19831
O	4.34496	-1.30336	-2.50051
H	3.14559	0.222745	-4.04515
H	4.08663	1.62553	-3.40148
H	2.50394	1.1688	-2.64473
N	4.51591	0.38104	-1.0292
C	5.17495	-0.395991	-0.00917402
C	4.83764	0.210989	1.33967
O	4.25172	1.2892	1.41628
H	4.2996	1.32094	-0.780877
H	4.7799	-1.40421	-0.0170681
C	6.70358	-0.411561	-0.228914
H	7.11086	0.621794	-0.210389
H	7.22121	-1.01817	0.542192
H	6.92668	-0.852357	-1.22504
N	5.19514	-0.47695	2.44191
C	4.91098	0.019601	3.76813
H	5.66491	-1.34966	2.35963
H	5.28295	-0.688373	4.5412
H	3.81395	0.150671	3.91177
H	5.40092	1.00671	3.9316
