44
  This energy is -4.8377 and Call times are: 80430
C	0.919561	0.00728746	3.35664
C	0.344896	-0.655428	2.16429
O	0.113106	-1.85653	2.15775
H	1.09263	-0.751195	4.15076
H	0.218395	0.777224	3.74175
H	1.88816	0.485413	3.09915
N	0.100728	0.126926	1.1104
C	-0.417345	-0.38067	-0.135598
C	0.0745171	0.518865	-1.25384
O	0.650445	1.57614	-1.00444
H	0.332859	1.0954	1.11661
H	-0.0123527	-1.36886	-0.314761
C	-1.96103	-0.423673	-0.114579
H	-2.37721	0.591615	0.0586852
H	-2.37168	-0.82577	-1.06337
H	-2.29857	-1.08113	0.716181
N	-0.135478	0.112461	-2.52142
C	0.302406	0.900166	-3.65012
H	-0.599675	-0.748092	-2.70319
H	0.0379338	0.397744	-4.6066
H	1.40685	1.04432	-3.62367
H	-0.177376	1.90555	-3.63759
C	5.42803	3.11871	-0.876638
C	5.90972	1.763	-1.22474
O	5.75782	1.30668	-2.34951
H	4.93404	3.57191	-1.76345
H	6.28077	3.76149	-0.572639
H	4.69342	3.06219	-0.0458344
N	6.50964	1.07757	-0.248695
C	6.99241	-0.269641	-0.423396
C	6.9421	-0.968335	0.922289
O	6.69549	-0.339432	1.9496
H	6.58934	1.44652	0.67292
H	6.32661	-0.804138	-1.08946
C	8.43265	-0.271616	-0.981019
H	9.1181	0.267524	-0.292883
H	8.81069	-1.30336	-1.13303
H	8.44709	0.251597	-1.96203
N	7.16817	-2.29662	0.945996
C	7.13547	-3.04704	2.17968
H	7.36201	-2.78881	0.10383
H	7.34553	-4.12296	1.99122
H	6.13506	-2.96473	2.66309
H	7.89733	-2.66089	2.89494
