44
  This energy is 0.1077 and Call times are: 83270
C	0.925019	2.26365	2.47647
C	0.707181	0.883402	1.98801
O	1.09906	-0.0833867	2.62688
H	1.48084	2.22932	3.43863
H	-0.0494893	2.76922	2.64224
H	1.52009	2.84144	1.73813
N	0.0677579	0.760341	0.822515
C	-0.179647	-0.515564	0.198481
C	-0.240182	-0.304116	-1.30258
O	-0.252696	0.82931	-1.77892
H	-0.2089	1.55798	0.294222
H	0.653428	-1.17812	0.397564
C	-1.49835	-1.13429	0.711762
H	-2.35476	-0.459712	0.498344
H	-1.69307	-2.12345	0.248983
H	-1.43452	-1.27269	1.81318
N	-0.270841	-1.39907	-2.08754
C	-0.323409	-1.2958	-3.52724
H	-0.255861	-2.30781	-1.68376
H	-0.341898	-2.30548	-3.99352
H	0.565648	-0.747199	-3.9144
H	-1.23639	-0.744163	-3.84866
C	2.05065	2.14671	2.63493
C	1.86869	0.876779	1.89647
O	1.23464	-0.0511238	2.37958
H	1.55333	2.06966	3.62619
H	1.59609	2.98693	2.06912
H	3.13169	2.34773	2.78992
N	2.4332	0.806484	0.688675
C	2.37913	-0.378465	-0.130792
C	3.61453	-0.40156	-1.01104
O	4.36614	0.569852	-1.06707
H	2.9808	1.55515	0.326065
H	2.4194	-1.25437	0.504647
C	1.0987	-0.394177	-0.994205
H	1.06209	0.498863	-1.65389
H	1.03858	-1.30843	-1.61954
H	0.207602	-0.368764	-0.329642
N	3.85836	-1.52321	-1.71705
C	5.01277	-1.6389	-2.57735
H	3.24082	-2.30034	-1.65548
H	5.03747	-2.63565	-3.07042
H	5.95269	-1.51391	-1.99235
H	4.99257	-0.85597	-3.36965
