44
  This energy is -0.3526 and Call times are: 74761
C	-0.952884	-0.567135	-3.29895
C	-0.201669	-0.935328	-2.07778
O	0.337693	-2.02815	-1.97179
H	-0.935634	-1.41994	-4.0119
H	-0.486158	0.31601	-3.78368
H	-2.008	-0.333701	-3.04337
N	-0.151662	-0.0151751	-1.11176
C	0.505217	-0.243712	0.151111
C	-0.184368	0.604286	1.20322
O	-1.02254	1.44533	0.884096
H	-0.630217	0.854153	-1.19615
H	0.377632	-1.28015	0.43773
C	2.00525	0.11376	0.0653793
H	2.13662	1.17972	-0.218349
H	2.52512	-0.0710304	1.02772
H	2.48783	-0.51307	-0.715998
N	0.149138	0.395097	2.49203
C	-0.458789	1.15074	3.56236
H	0.826538	-0.292768	2.73087
H	-0.0534213	0.832395	4.54804
H	-1.56259	0.999754	3.57206
H	-0.260405	2.23976	3.4366
C	10.0868	-2.3025	1.49842
C	8.9315	-1.378	1.53963
O	8.15737	-1.37411	2.4868
H	10.0827	-2.93648	2.41161
H	11.036	-1.72752	1.46443
H	10.0202	-2.95868	0.605086
N	8.78697	-0.561754	0.493096
C	7.68783	0.363067	0.370032
C	7.41581	0.580621	-1.10653
O	8.18447	0.141683	-1.95988
H	9.40181	-0.605076	-0.28918
H	6.79826	-0.0800834	0.800041
C	8.01454	1.70371	1.06371
H	8.92101	2.16389	0.615843
H	7.1705	2.4195	0.987874
H	8.21786	1.51941	2.14122
N	6.30265	1.26126	-1.44361
C	5.95887	1.51205	-2.82386
H	5.69076	1.60507	-0.739001
H	5.00857	2.08581	-2.89445
H	5.83147	0.553547	-3.37731
H	6.76081	2.09809	-3.32843
