44
  This energy is 0.1882 and Call times are: 82180
C	-3.47054	0.107732	0.237568
C	-2.13977	-0.275551	0.760344
O	-2.00421	-0.691247	1.90281
H	-4.23266	-0.0327734	1.03463
H	-3.73811	-0.528993	-0.631758
H	-3.46728	1.17399	-0.0725588
N	-1.11066	-0.139353	-0.079148
C	0.249643	-0.430789	0.299288
C	1.16939	0.445375	-0.530141
O	0.730025	1.11176	-1.46534
H	-1.23098	0.239007	-0.992511
H	0.39714	-0.161179	1.33765
C	0.576773	-1.9235	0.0756168
H	0.435763	-2.19809	-0.991509
H	1.61721	-2.16345	0.376333
H	-0.113447	-2.54593	0.685967
N	2.47535	0.470889	-0.198698
C	3.42453	1.27955	-0.927603
H	2.8113	-0.0720233	0.563833
H	4.44627	1.16534	-0.503057
H	3.14282	2.35633	-0.878163
H	3.4547	0.979481	-2.00007
C	0.983906	-2.06256	-1.99827
C	1.29656	-0.748763	-1.39219
O	0.722265	0.268528	-1.75512
H	0.209389	-1.92933	-2.78454
H	0.595084	-2.75795	-1.22496
H	1.89497	-2.49695	-2.46123
N	2.23242	-0.742056	-0.440085
C	2.67446	0.465458	0.211891
C	4.11338	0.267033	0.649726
O	4.64664	-0.83852	0.578351
H	2.72009	-1.57185	-0.184195
H	2.66363	1.28071	-0.50076
C	1.77957	0.795952	1.42647
H	1.79864	-0.0356175	2.16279
H	2.1013	1.73121	1.92877
H	0.730211	0.929095	1.08374
N	4.78153	1.3437	1.10839
C	6.15614	1.25195	1.54221
H	4.33434	2.2308	1.15483
H	6.52776	2.24318	1.88366
H	6.80815	0.901003	0.709736
H	6.25484	0.530746	2.38557
