44
  This energy is 0.1289 and Call times are: 76151
C	0.89811	3.09189	1.32149
C	1.20588	1.8624	0.556771
O	2.2323	1.76688	-0.101824
H	1.71005	3.83488	1.16466
H	0.82683	2.8608	2.40512
H	-0.0613285	3.52914	0.973094
N	0.305856	0.878845	0.627155
C	0.445295	-0.360462	-0.0961945
C	-0.943403	-0.901599	-0.379469
O	-1.93616	-0.387332	0.13208
H	-0.544338	0.987059	1.13443
H	0.916553	-0.165452	-1.05145
C	1.26981	-1.38335	0.715667
H	0.781258	-1.59172	1.69134
H	1.39601	-2.33709	0.163419
H	2.27915	-0.963131	0.918188
N	-1.04589	-1.95463	-1.21412
C	-2.32661	-2.53376	-1.54664
H	-0.231508	-2.3545	-1.6215
H	-2.20159	-3.38913	-2.24659
H	-2.98563	-1.77755	-2.03154
H	-2.84098	-2.90286	-0.629953
C	0.634571	-1.50098	1.81063
C	1.13083	-0.505173	0.834288
O	0.357883	0.137489	0.137187
H	-0.475156	-1.54346	1.76008
H	0.93668	-1.21195	2.83919
H	1.0438	-2.50577	1.57398
N	2.45541	-0.355333	0.760631
C	3.08893	0.543833	-0.171415
C	4.46335	-0.00757018	-0.500781
O	4.92574	-0.96061	0.123414
H	3.0733	-0.915001	1.30546
H	2.51979	0.562854	-1.09247
C	3.20376	1.96437	0.423683
H	3.79649	1.94701	1.36305
H	3.67743	2.66938	-0.289839
H	2.18703	2.3447	0.664435
N	5.14858	0.57837	-1.50235
C	6.46164	0.118318	-1.89019
H	4.75611	1.34575	-1.9985
H	6.85897	0.72728	-2.73193
H	6.42457	-0.946736	-2.2151
H	7.17285	0.194123	-1.03604
