44
  This energy is -1.9805 and Call times are: 82089
C	1.64947	-2.99042	-0.670306
C	1.29339	-1.59417	-1.00918
O	1.86914	-0.993986	-1.90622
H	2.4796	-3.3278	-1.32829
H	0.774878	-3.65671	-0.824904
H	1.98059	-3.05492	0.38766
N	0.320477	-1.03719	-0.284198
C	-0.106592	0.327529	-0.4678
C	-0.636425	0.839789	0.858255
O	-0.80147	0.0763015	1.80776
H	-0.110626	-1.52468	0.469705
H	0.748866	0.937261	-0.730574
C	-1.19528	0.422838	-1.55909
H	-2.07743	-0.194168	-1.28496
H	-1.52254	1.47054	-1.71956
H	-0.788137	0.035363	-2.51849
N	-0.908855	2.15592	0.956333
C	-1.41151	2.73461	2.18052
H	-0.764962	2.75854	0.178377
H	-1.57251	3.82872	2.0612
H	-0.690849	2.57538	3.01512
H	-2.38093	2.26659	2.46745
C	4.23588	2.75189	-1.54797
C	5.40333	2.05216	-0.966084
O	6.53798	2.48582	-1.11079
H	4.5848	3.65045	-2.10179
H	3.54183	3.0729	-0.742993
H	3.69984	2.08134	-2.25231
N	5.14567	0.933076	-0.28517
C	6.18158	0.120154	0.301858
C	5.68916	-1.31411	0.346246
O	4.52106	-1.58756	0.0770532
H	4.22101	0.57067	-0.210793
H	7.05658	0.141205	-0.335757
C	6.53392	0.615867	1.72149
H	5.639	0.584506	2.37891
H	7.34016	0.00649606	2.17884
H	6.88417	1.6697	1.66584
N	6.57774	-2.27019	0.681441
C	6.20143	-3.66324	0.744554
H	7.51955	-2.02984	0.89191
H	7.07067	-4.29254	1.0372
H	5.83137	-4.01538	-0.245563
H	5.38933	-3.81756	1.49143
