44
  This energy is -1.7246 and Call times are: 83369
C	1.47284	1.64724	2.68887
C	0.704786	0.520432	2.11308
O	0.474479	-0.487892	2.76626
H	1.77697	1.39185	3.72721
H	0.847189	2.56416	2.7129
H	2.38438	1.83773	2.08398
N	0.286749	0.669208	0.853917
C	-0.434477	-0.357693	0.144082
C	-0.137827	-0.206942	-1.33606
O	0.472579	0.772786	-1.75945
H	0.517196	1.47873	0.321531
H	-0.0661358	-1.3291	0.449586
C	-1.9525	-0.247188	0.406086
H	-2.33284	0.745315	0.0831159
H	-2.51762	-1.04102	-0.124001
H	-2.14541	-0.352404	1.49607
N	-0.558975	-1.18575	-2.16104
C	-0.317363	-1.13108	-3.584
H	-1.04772	-1.97271	-1.79923
H	-0.739764	-2.02742	-4.08934
H	0.775791	-1.09204	-3.79558
H	-0.78753	-0.22388	-4.02794
C	3.65083	-1.94963	-1.92166
C	3.92199	-1.04795	-0.779468
O	3.00899	-0.555315	-0.131274
H	2.55205	-2.05199	-2.05599
H	4.08428	-2.95334	-1.72816
H	4.08916	-1.53104	-2.8521
N	5.20622	-0.806907	-0.505528
C	5.62622	0.0830962	0.548059
C	6.97019	0.671728	0.162282
O	7.58779	0.24623	-0.811999
H	5.93742	-1.18265	-1.06769
H	4.92411	0.90408	0.62325
C	5.72965	-0.666101	1.89463
H	6.45768	-1.50193	1.82105
H	6.03886	0.0115046	2.71668
H	4.73696	-1.09518	2.15307
N	7.45269	1.67729	0.918619
C	8.72086	2.30296	0.624562
H	6.93649	2.01071	1.70057
H	8.94211	3.10786	1.35969
H	8.71003	2.75259	-0.39475
H	9.54622	1.5557	0.663506
