44
  This energy is -5.1419 and Call times are: 82061
C	-1.61044	-2.87134	-1.12897
C	-0.611394	-2.1867	-0.27791
O	-0.0366039	-2.77913	0.624891
H	-1.7234	-3.92363	-0.788675
H	-1.27642	-2.86995	-2.18783
H	-2.59357	-2.36097	-1.05105
N	-0.381162	-0.90028	-0.550864
C	0.53119	-0.0901895	0.217204
C	0.0582323	1.34964	0.148217
O	-0.847509	1.67912	-0.61519
H	-0.886798	-0.420939	-1.2625
H	0.490654	-0.393612	1.25592
C	1.97114	-0.213811	-0.327308
H	2.0153	0.10735	-1.38982
H	2.68551	0.394575	0.264365
H	2.29344	-1.27669	-0.274639
N	0.659493	2.2447	0.956538
C	0.272319	3.63618	0.963925
H	1.38769	1.95827	1.57034
H	0.882749	4.21035	1.69531
H	-0.801075	3.74374	1.24237
H	0.414591	4.08911	-0.0439229
C	4.31215	-1.84108	2.76515
C	4.6744	-0.563251	2.11164
O	4.45864	0.51018	2.65717
H	3.83461	-1.6293	3.74645
H	5.2211	-2.45619	2.93308
H	3.59602	-2.40549	2.13136
N	5.24098	-0.652947	0.906097
C	5.60925	0.50378	0.128333
C	5.53593	0.129353	-1.34
O	5.36609	-1.03867	-1.68437
H	5.37277	-1.53224	0.4574
H	4.88639	1.29231	0.296631
C	7.03051	0.984868	0.494137
H	7.77386	0.179764	0.311694
H	7.32038	1.88344	-0.0881564
H	7.06292	1.24579	1.57451
N	5.65481	1.12091	-2.24482
C	5.59211	0.860565	-3.66414
H	5.78763	2.06037	-1.94676
H	5.71015	1.80333	-4.24249
H	4.61377	0.402434	-3.9366
H	6.39995	0.157367	-3.97083
