44
  This energy is -4.8253 and Call times are: 81460
C	0.349188	3.25798	1.17317
C	-0.112973	2.27883	0.163802
O	-0.864468	2.61089	-0.74251
H	-0.105376	4.24945	0.958146
H	1.4547	3.35368	1.13539
H	0.0409245	2.93416	2.18964
N	0.33267	1.02805	0.302795
C	-0.0635038	-0.0442234	-0.575748
C	0.000634134	-1.34347	0.204899
O	0.500069	-1.37948	1.32783
H	0.911149	0.764114	1.06932
H	-1.09387	0.101584	-0.875292
C	0.856373	-0.110877	-1.81455
H	1.91212	-0.270998	-1.50828
H	0.553035	-0.923842	-2.50563
H	0.799683	0.852963	-2.36604
N	-0.515064	-2.44625	-0.372977
C	-0.503701	-3.72606	0.296467
H	-0.918638	-2.39641	-1.28056
H	-0.973202	-4.50744	-0.340894
H	-1.06643	-3.67215	1.25652
H	0.540222	-4.04064	0.52539
C	6.37408	2.458	-2.07793
C	5.75426	1.13171	-1.85902
O	5.3326	0.467658	-2.79585
H	6.35488	2.69774	-3.16329
H	7.42852	2.44972	-1.73031
H	5.80964	3.23977	-1.52719
N	5.68257	0.711701	-0.593775
C	5.06813	-0.537621	-0.219337
C	4.5259	-0.394281	1.19028
O	4.79005	0.596338	1.86895
H	5.99303	1.28141	0.161808
H	4.22518	-0.730622	-0.87112
C	6.08598	-1.69686	-0.292686
H	6.94588	-1.50431	0.383736
H	5.62142	-2.66657	-0.0199905
H	6.47544	-1.77815	-1.33098
N	3.74241	-1.38382	1.66246
C	3.17679	-1.33169	2.99045
H	3.53658	-2.17554	1.09687
H	2.56284	-2.237	3.19222
H	2.52643	-0.434425	3.10543
H	3.98174	-1.27534	3.75858
