44
  This energy is 0.1068 and Call times are: 79846
C	2.93873	0.895295	-1.63554
C	2.20566	0.414182	-0.44295
O	2.79993	-0.0435436	0.523353
H	4.02947	0.745736	-1.48129
H	2.7432	1.97661	-1.79452
H	2.62166	0.326388	-2.53493
N	0.874566	0.507051	-0.487106
C	0.0234535	0.0406511	0.579026
C	-1.30877	-0.365389	-0.0225362
O	-1.57078	-0.117394	-1.19793
H	0.403222	0.844005	-1.29715
H	0.460167	-0.845119	1.02324
C	-0.176542	1.13921	1.64599
H	-0.634262	2.04432	1.1929
H	-0.81891	0.787625	2.47922
H	0.811794	1.42641	2.06677
N	-2.18349	-1.01116	0.77362
C	-3.47364	-1.44106	0.286905
H	-1.95182	-1.20648	1.72085
H	-4.04656	-1.95333	1.091
H	-3.35597	-2.14915	-0.565168
H	-4.07007	-0.569669	-0.0682056
C	2.62842	-0.129981	2.49636
C	3.1634	-0.536154	1.17728
O	2.67154	-1.46675	0.554002
H	1.78469	-0.79915	2.77237
H	2.25843	0.915978	2.45368
H	3.41948	-0.210695	3.27147
N	4.20267	0.164258	0.717144
C	4.8584	-0.139779	-0.530308
C	6.30699	0.297777	-0.422132
O	6.69522	0.958351	0.539445
H	4.61794	0.89266	1.25458
H	4.85582	-1.2118	-0.683238
C	4.16278	0.576995	-1.70827
H	4.17449	1.67746	-1.55698
H	4.65	0.339824	-2.6762
H	3.10217	0.247748	-1.76346
N	7.14682	-0.0705169	-1.40959
C	8.54395	0.295266	-1.38934
H	6.81497	-0.608437	-2.17744
H	9.06726	-0.100962	-2.28732
H	9.04434	-0.115245	-0.48249
H	8.66003	1.40319	-1.37599
