44
  This energy is 0.1819 and Call times are: 73395
C	-1.56458	2.27967	-2.11373
C	-1.36111	1.66322	-0.783421
O	-1.84375	2.15995	0.22491
H	-2.17117	3.20447	-2.0011
H	-2.10277	1.5762	-2.78323
H	-0.585854	2.54479	-2.56639
N	-0.6268	0.548695	-0.751861
C	-0.306379	-0.140902	0.473025
C	1.01868	-0.854388	0.281421
O	1.54403	-0.91984	-0.828282
H	-0.206506	0.179179	-1.57568
H	-0.170746	0.583896	1.26606
C	-1.41553	-1.14927	0.844821
H	-1.54781	-1.89935	0.0361738
H	-1.18708	-1.67677	1.79354
H	-2.37745	-0.606308	0.972275
N	1.59692	-1.40197	1.36854
C	2.86079	-2.09596	1.28373
H	1.15854	-1.3351	2.25872
H	3.16984	-2.47374	2.28322
H	3.6576	-1.41594	0.904351
H	2.7871	-2.9632	0.588302
C	6.71705	3.22148	-0.0152812
C	6.05313	2.08179	-0.68721
O	5.55436	2.20474	-1.7974
H	6.65087	4.12056	-0.665755
H	7.78704	2.98774	0.16699
H	6.21668	3.43989	0.951674
N	6.03037	0.928238	-0.0155123
C	5.38335	-0.256941	-0.520747
C	4.92303	-1.08586	0.663555
O	5.26508	-0.79362	1.8078
H	6.40456	0.854546	0.904493
H	4.49962	0.0284069	-1.07772
C	6.34504	-1.07318	-1.41189
H	7.24697	-1.37516	-0.837973
H	5.85421	-1.98117	-1.81828
H	6.67523	-0.444456	-2.26747
N	4.1237	-2.14187	0.414715
C	3.63181	-2.98501	1.4793
H	3.85438	-2.36005	-0.517456
H	2.99097	-3.79819	1.07274
H	3.02768	-2.39144	2.20316
H	4.4779	-3.4499	2.03532
