44
  This energy is -0.7039 and Call times are: 74106
C	-0.945191	-0.0249487	-3.34943
C	-0.965426	-0.59932	-1.98531
O	-1.74929	-1.48904	-1.68468
H	-1.72915	-0.515694	-3.96624
H	0.0444041	-0.197096	-3.82252
H	-1.15044	1.0656	-3.30855
N	-0.0894602	-0.0921147	-1.11479
C	-0.018961	-0.51889	0.260513
C	0.495868	0.642171	1.09024
O	0.926543	1.65962	0.550768
H	0.514269	0.660119	-1.36282
H	-1.01584	-0.750999	0.614065
C	0.908117	-1.74493	0.410864
H	1.9336	-1.50412	0.0580988
H	0.959825	-2.09165	1.46331
H	0.516638	-2.5795	-0.210893
N	0.454943	0.518789	2.43155
C	0.918101	1.57409	3.30219
H	0.0991621	-0.310501	2.84961
H	0.801899	1.28288	4.36939
H	0.337867	2.50928	3.12892
H	1.99365	1.79526	3.114
C	4.87262	-3.12694	-0.0457146
C	5.88995	-2.18084	0.465259
O	6.55735	-2.44334	1.45626
H	4.84071	-4.02255	0.61211
H	5.13162	-3.44736	-1.07673
H	3.87114	-2.64726	-0.04852
N	6.03071	-1.03841	-0.211078
C	6.94911	-0.0018111	0.189599
C	6.3953	1.32926	-0.282763
O	5.42216	1.376	-1.03277
H	5.45161	-0.821327	-0.991703
H	6.9974	0.0343221	1.2708
C	8.35228	-0.246972	-0.407279
H	8.30498	-0.273621	-1.51683
H	9.0721	0.537046	-0.0947256
H	8.73448	-1.2298	-0.054705
N	7.00203	2.44988	0.15552
C	6.5416	3.76152	-0.23664
H	7.78559	2.39188	0.765224
H	7.16947	4.55374	0.227475
H	5.48593	3.91898	0.0828033
H	6.58871	3.87999	-1.34339
