44
  This energy is -1.2504 and Call times are: 82304
C	1.84029	1.32936	2.63796
C	0.941512	0.303577	2.06254
O	0.704062	-0.737037	2.66016
H	2.22452	0.972782	3.61831
H	1.28706	2.27946	2.79284
H	2.70024	1.50909	1.95879
N	0.415202	0.57904	0.866925
C	-0.442933	-0.339619	0.161071
C	-0.281014	-0.0901128	-1.32657
O	0.353983	0.879402	-1.7371
H	0.650278	1.41222	0.374563
H	-0.11712	-1.35388	0.355373
C	-1.91664	-0.153789	0.584028
H	-2.25455	0.883625	0.37517
H	-2.58574	-0.864949	0.0576458
H	-2.01011	-0.333389	1.67735
N	-0.848965	-0.970869	-2.17376
C	-0.743014	-0.817996	-3.6061
H	-1.35537	-1.75146	-1.8226
H	-1.27536	-1.64222	-4.13
H	0.324492	-0.831992	-3.9247
H	-1.18791	0.149975	-3.93205
C	5.05108	3.37404	0.8536
C	5.39584	2.26045	-0.0586693
O	5.81338	2.47388	-1.1885
H	5.21948	4.3414	0.33235
H	5.69102	3.33814	1.76021
H	3.98356	3.30772	1.15205
N	5.22324	1.02612	0.419886
C	5.47449	-0.157521	-0.363969
C	4.56573	-1.2618	0.142301
O	3.90816	-1.11439	1.17069
H	4.84379	0.868271	1.32706
H	5.20613	0.0335445	-1.39552
C	6.95511	-0.58428	-0.259685
H	7.22808	-0.790602	0.79718
H	7.16436	-1.48663	-0.870009
H	7.60194	0.241744	-0.627967
N	4.50161	-2.39855	-0.578597
C	3.65997	-3.50164	-0.177322
H	5.03803	-2.49756	-1.41018
H	3.74481	-4.34382	-0.89897
H	2.59271	-3.18514	-0.131969
H	3.95308	-3.87303	0.831293
