44
  This energy is -3.1372 and Call times are: 83327
C	1.00993	-1.76964	-2.82155
C	0.118452	-0.806046	-2.13751
O	-0.65886	-0.104115	-2.76956
H	0.846722	-1.70554	-3.91933
H	0.786152	-2.80367	-2.48472
H	2.07192	-1.53113	-2.6016
N	0.215231	-0.749257	-0.807173
C	-0.555743	0.169056	-0.00663555
C	0.238296	0.485674	1.24668
O	1.26304	-0.137559	1.51723
H	0.8817	-1.29765	-0.310226
H	-0.683522	1.09671	-0.550481
C	-1.92806	-0.436953	0.360451
H	-1.79749	-1.3832	0.92755
H	-2.53673	0.266076	0.965254
H	-2.48837	-0.668095	-0.571738
N	-0.215601	1.475	2.04119
C	0.47708	1.85021	3.25181
H	-1.0444	1.97061	1.80344
H	-0.0518523	2.683	3.76553
H	1.51556	2.18272	3.02318
H	0.53757	0.987117	3.95363
C	4.85522	1.3621	-3.10254
C	4.50322	0.591048	-1.88898
O	3.34374	0.284634	-1.64788
H	3.9292	1.59205	-3.67303
H	5.53718	0.769577	-3.748
H	5.34943	2.31556	-2.82016
N	5.51452	0.257305	-1.08382
C	5.32398	-0.455152	0.154988
C	6.44118	-0.0623055	1.1032
O	7.39411	0.607992	0.710356
H	6.4478	0.549226	-1.27254
H	4.39154	-0.141621	0.607618
C	5.32534	-1.9815	-0.0805753
H	6.28585	-2.30517	-0.535219
H	5.1656	-2.54098	0.863876
H	4.50502	-2.24511	-0.783373
N	6.34444	-0.466598	2.38508
C	7.35696	-0.135648	3.3605
H	5.56378	-1.0048	2.68504
H	7.09687	-0.557987	4.3561
H	7.45671	0.969195	3.46371
H	8.34684	-0.544492	3.05372
