44
  This energy is -2.2926 and Call times are: 81061
C	2.07294	2.25644	-1.65047
C	1.05733	1.93004	-0.624251
O	0.75072	2.73737	0.242129
H	2.46576	3.27993	-1.46597
H	1.61844	2.22305	-2.66292
H	2.91459	1.53388	-1.59934
N	0.505967	0.716506	-0.699897
C	-0.46506	0.239217	0.252921
C	-0.347429	-1.27124	0.331841
O	0.356337	-1.89055	-0.4637
H	0.795555	0.0554459	-1.3862
H	-0.227073	0.632952	1.23321
C	-1.89449	0.650001	-0.16329
H	-2.143	0.237497	-1.16435
H	-2.65006	0.300227	0.569715
H	-1.95519	1.75868	-0.222391
N	-1.03263	-1.90172	1.30602
C	-0.977219	-3.33657	1.46201
H	-1.59351	-1.38305	1.94279
H	-1.60722	-3.66367	2.31836
H	0.0689359	-3.67126	1.6486
H	-1.34388	-3.84643	0.541825
C	4.90639	-3.05455	-1.49315
C	4.50468	-1.7377	-0.949382
O	3.37754	-1.29672	-1.12686
H	4.05404	-3.49579	-2.0541
H	5.18624	-3.74076	-0.666383
H	5.76831	-2.93679	-2.18329
N	5.43582	-1.06919	-0.26494
C	5.20743	0.242734	0.287553
C	6.5371	0.971157	0.341762
O	7.5892	0.379762	0.107116
H	6.3613	-1.42292	-0.163865
H	4.56002	0.802117	-0.376201
C	4.58471	0.14678	1.69761
H	5.25338	-0.417952	2.38172
H	4.39123	1.15063	2.12816
H	3.61672	-0.396745	1.6351
N	6.51903	2.28372	0.646495
C	7.73483	3.06037	0.716047
H	5.65749	2.74571	0.829182
H	7.51157	4.1176	0.979991
H	8.26524	3.04825	-0.263644
H	8.42348	2.64431	1.48663
