44
  This energy is -4.7246 and Call times are: 79775
C	0.512195	0.289045	3.43028
C	-0.0542013	0.774478	2.15173
O	-0.874478	1.68163	2.12668
H	0.0600971	0.857783	4.27172
H	1.61198	0.440837	3.44378
H	0.286522	-0.790023	3.56361
N	0.377423	0.168287	1.0433
C	-0.113768	0.50129	-0.270628
C	-0.00775607	-0.735559	-1.14271
O	0.585871	-1.73665	-0.746306
H	1.01463	-0.596087	1.08293
H	-1.1631	0.760471	-0.204633
C	0.694376	1.66636	-0.882809
H	1.7693	1.39701	-0.96048
H	0.316853	1.94136	-1.88898
H	0.60904	2.55813	-0.224167
N	-0.592664	-0.697067	-2.35614
C	-0.548435	-1.82853	-3.25282
H	-1.07197	0.120528	-2.65761
H	-1.08622	-1.60126	-4.19958
H	-1.02512	-2.71988	-2.78427
H	0.505044	-2.09148	-3.50218
C	6.76962	2.87401	1.17859
C	6.04911	2.12022	0.127972
O	5.61461	2.68128	-0.868444
H	6.80625	3.94944	0.899359
H	7.80773	2.49324	1.27904
H	6.24333	2.77299	2.15116
N	5.90259	0.809155	0.332971
C	5.18741	-0.0486536	-0.578747
C	4.60702	-1.20371	0.215346
O	4.91707	-1.37747	1.39237
H	6.22594	0.373955	1.16838
H	4.35654	0.498388	-1.00656
C	6.12168	-0.572	-1.69162
H	6.96854	-1.14226	-1.25382
H	5.57952	-1.22265	-2.40803
H	6.54101	0.290393	-2.25445
N	3.73844	-2.02039	-0.412829
C	3.13113	-3.14247	0.26414
H	3.49675	-1.86121	-1.36431
H	2.44719	-3.69134	-0.420116
H	2.54295	-2.79802	1.14544
H	3.91021	-3.85231	0.625109
