44
  This energy is -0.5534 and Call times are: 74733
C	-3.01407	1.40149	-1.03144
C	-2.23217	0.32827	-0.377248
O	-2.7821	-0.54538	0.27905
H	-4.09281	1.26223	-0.801648
H	-2.87297	1.36129	-2.13199
H	-2.69148	2.39462	-0.653649
N	-0.908237	0.373127	-0.543251
C	-0.0120445	-0.576876	0.0673985
C	1.32354	0.107707	0.288987
O	1.54667	1.22085	-0.183071
H	-0.471845	1.11373	-1.04617
H	-0.396603	-0.856379	1.04034
C	0.160826	-1.82504	-0.825597
H	0.565255	-1.54008	-1.82022
H	0.837853	-2.57021	-0.359897
H	-0.82994	-2.30527	-0.980887
N	2.24551	-0.543598	1.02507
C	3.54283	0.031922	1.29324
H	2.04499	-1.44178	1.40207
H	4.15734	-0.655983	1.91484
H	3.43886	0.998119	1.83815
H	4.0896	0.228734	0.342739
C	7.14902	-1.32442	1.49352
C	8.60179	-1.34632	1.21042
O	9.35374	-2.09637	1.8174
H	6.92217	-2.04867	2.30583
H	6.57788	-1.61193	0.585843
H	6.83798	-0.309564	1.8197
N	9.03524	-0.507242	0.266782
C	10.4269	-0.383806	-0.0890148
C	10.6628	1.02749	-0.593141
O	9.71949	1.78884	-0.798451
H	8.41711	0.126278	-0.189759
H	11.0352	-0.515722	0.797087
C	10.8136	-1.4167	-1.17012
H	10.1971	-1.27503	-2.08327
H	11.8863	-1.341	-1.44265
H	10.6253	-2.44169	-0.782479
N	11.9377	1.41358	-0.797319
C	12.2593	2.73971	-1.27076
H	12.6878	0.784683	-0.621638
H	13.3597	2.86402	-1.37489
H	11.885	3.51194	-0.560209
H	11.7895	2.92734	-2.26338
