44
  This energy is -0.2489 and Call times are: 74952
C	0.901243	-2.26506	-2.48394
C	0.395533	-0.944807	-2.04538
O	0.27644	-0.0183443	-2.83525
H	1.14085	-2.22472	-3.56876
H	0.129974	-3.04567	-2.31504
H	1.82224	-2.52799	-1.92204
N	0.0839753	-0.828279	-0.752423
C	-0.379593	0.40596	-0.169056
C	0.031054	0.422437	1.2913
O	0.505175	-0.579388	1.82354
H	0.225036	-1.57923	-0.11364
H	0.116242	1.23819	-0.652969
C	-1.91266	0.537398	-0.301956
H	-2.42213	-0.310589	0.203411
H	-2.28029	1.49016	0.131197
H	-2.191	0.514963	-1.37823
N	-0.135092	1.57201	1.97462
C	0.232249	1.68354	3.36703
H	-0.516531	2.37323	1.52561
H	0.0195238	2.70626	3.74915
H	1.31839	1.47694	3.50447
H	-0.338971	0.952649	3.98399
C	4.28823	-3.41669	-0.0328159
C	4.64221	-2.16454	0.67286
O	4.64309	-2.10507	1.89469
H	4.03238	-4.19942	0.713991
H	5.14708	-3.76844	-0.642232
H	3.41099	-3.24917	-0.692712
N	4.95381	-1.11809	-0.0954094
C	5.2777	0.178604	0.445182
C	4.88573	1.22864	-0.577241
O	4.53789	0.904624	-1.71114
H	4.90885	-1.17048	-1.08893
H	4.68256	0.354472	1.33259
C	6.78334	0.278729	0.774237
H	7.39411	0.108811	-0.137971
H	7.04287	1.26783	1.20417
H	7.04927	-0.503832	1.51802
N	4.9253	2.51998	-0.193984
C	4.56446	3.58788	-1.09706
H	5.20545	2.76221	0.72901
H	4.66139	4.57623	-0.596048
H	3.51148	3.4716	-1.44203
H	5.2243	3.58337	-1.99469
