44
  This energy is -1.2209 and Call times are: 73035
C	-1.94451	-2.49954	-1.44356
C	-1.75127	-1.39021	-0.48273
O	-2.69575	-0.91182	0.13007
H	-3.02441	-2.75891	-1.49276
H	-1.37469	-3.39403	-1.11502
H	-1.60188	-2.19408	-2.45469
N	-0.5007	-0.948511	-0.329948
C	-0.161919	0.152827	0.536563
C	1.07621	0.82959	-0.0207277
O	1.7066	0.324694	-0.947772
H	0.251546	-1.32059	-0.866182
H	-0.963218	0.880997	0.518701
C	0.0919509	-0.337803	1.97881
H	0.920947	-1.07698	1.99913
H	0.34019	0.502771	2.65876
H	-0.824354	-0.836617	2.36341
N	1.45008	2.00113	0.530412
C	2.61178	2.72028	0.0619514
H	0.924889	2.3959	1.27701
H	2.75267	3.65959	0.640804
H	2.502	2.98518	-1.01464
H	3.52979	2.09889	0.172703
C	6.02166	-0.0211269	-3.44096
C	5.3045	-0.476551	-2.22876
O	4.26768	-1.12048	-2.31112
H	5.45838	-0.34311	-4.34367
H	7.03832	-0.466182	-3.474
H	6.10289	1.08633	-3.44411
N	5.84989	-0.143962	-1.05645
C	5.24548	-0.478566	0.208965
C	5.65706	0.572679	1.2224
O	6.51319	1.41127	0.947606
H	6.6722	0.415557	-1.00536
H	4.16785	-0.430546	0.11393
C	5.68586	-1.88311	0.676476
H	6.79051	-1.92978	0.784278
H	5.21624	-2.15805	1.64311
H	5.38149	-2.63517	-0.0838535
N	5.04593	0.556536	2.42335
C	5.3686	1.52127	3.4487
H	4.35273	-0.127293	2.62566
H	4.75973	1.34271	4.36229
H	5.16785	2.55702	3.09065
H	6.44548	1.45459	3.72624
