44
  This energy is -3.0991 and Call times are: 72855
C	3.14751	1.41554	-0.449586
C	2.23563	0.443585	0.194562
O	2.66895	-0.476104	0.874867
H	4.19967	1.14112	-0.218215
H	2.95005	2.43832	-0.0652947
H	3.00622	1.40102	-1.55091
N	0.929611	0.628433	-0.0116288
C	-0.0772845	-0.259538	0.513947
C	-1.27412	-0.221688	-0.41756
O	-1.3382	0.602789	-1.32742
H	0.594168	1.35752	-0.601362
H	0.303023	-1.27343	0.50946
C	-0.489629	0.157886	1.94257
H	-0.889677	1.19422	1.94599
H	-1.25448	-0.526398	2.36362
H	0.403054	0.130643	2.60493
N	-2.2527	-1.12585	-0.215332
C	-3.42706	-1.16926	-1.05507
H	-2.18098	-1.78766	0.523547
H	-4.11375	-1.98134	-0.729173
H	-3.1442	-1.35445	-2.11666
H	-3.97949	-0.202928	-1.00852
C	5.30767	0.867521	2.88521
C	6.34056	1.13023	1.85795
O	6.8931	2.21881	1.77978
H	5.1498	1.78638	3.49071
H	5.63595	0.0465689	3.55679
H	4.34863	0.587291	2.40066
N	6.62635	0.120975	1.03205
C	7.57777	0.238598	-0.0447598
C	7.16895	-0.723372	-1.14433
O	6.27482	-1.54699	-0.960249
H	6.13885	-0.746038	1.082
H	7.52915	1.23887	-0.456732
C	9.00797	-0.0761011	0.445887
H	9.06086	-1.10595	0.858985
H	9.75172	0.0245349	-0.370952
H	9.28295	0.634745	1.25547
N	7.81358	-0.634555	-2.3244
C	7.4887	-1.50466	-3.43055
H	8.53149	0.0410608	-2.45561
H	8.12782	-1.27591	-4.3117
H	6.4226	-1.37933	-3.72889
H	7.64576	-2.57151	-3.15072
