44
  This energy is -0.8952 and Call times are: 80627
C	2.57846	-0.0777711	2.33627
C	1.81897	-0.672187	1.21333
O	2.24183	-1.64857	0.609776
H	3.52475	-0.643314	2.47978
H	1.98274	-0.130755	3.27171
H	2.82352	0.98222	2.11388
N	0.661457	-0.0839938	0.902585
C	-0.167637	-0.52179	-0.192631
C	-0.943017	0.676351	-0.707215
O	-0.93027	1.74393	-0.0974333
H	0.350344	0.734821	1.37652
H	0.463044	-0.869412	-1.00135
C	-1.1339	-1.63872	0.259088
H	-1.78833	-1.27927	1.08162
H	-1.76821	-1.994	-0.578737
H	-0.545014	-2.50194	0.639107
N	-1.63403	0.528088	-1.85462
C	-2.39685	1.61472	-2.42341
H	-1.62889	-0.342247	-2.33583
H	-2.8929	1.2956	-3.36645
H	-1.73542	2.4818	-2.65137
H	-3.18282	1.95767	-1.71223
C	7.23662	-2.92162	1.61352
C	7.42936	-1.49545	1.26706
O	8.26835	-0.812976	1.83866
H	7.93491	-3.19808	2.43316
H	7.44697	-3.56165	0.73099
H	6.19447	-3.09487	1.95555
N	6.64066	-1.00602	0.307471
C	6.68126	0.373765	-0.108577
C	5.3043	0.75458	-0.618995
O	4.43436	-0.0990594	-0.780909
H	5.93447	-1.56318	-0.119986
H	6.89159	0.999634	0.749719
C	7.74452	0.587377	-1.20817
H	7.52331	-0.0466577	-2.0931
H	7.79511	1.6486	-1.52718
H	8.74271	0.294894	-0.815233
N	5.07137	2.05642	-0.877798
C	3.78941	2.51333	-1.36152
H	5.78654	2.73295	-0.736695
H	3.79636	3.6152	-1.51339
H	2.98359	2.26501	-0.633334
H	3.53947	2.02698	-2.33216
