44
  This energy is -2.0309 and Call times are: 81698
C	2.22256	-0.814095	-2.5515
C	1.24683	0.0993036	-1.91526
O	1.10473	1.24835	-2.3101
H	2.75303	-0.275072	-3.36632
H	1.69898	-1.6928	-2.98334
H	2.96789	-1.15876	-1.80399
N	0.542973	-0.400307	-0.896757
C	-0.412698	0.379998	-0.150851
C	-0.481315	-0.177351	1.25848
O	0.082404	-1.23122	1.54709
H	0.699048	-1.32466	-0.560477
H	-0.0601719	1.40123	-0.0770509
C	-1.80412	0.334375	-0.819515
H	-2.17085	-0.71211	-0.885921
H	-2.54559	0.942739	-0.262169
H	-1.72846	0.739464	-1.85224
N	-1.17197	0.527079	2.17652
C	-1.28733	0.0775097	3.54428
H	-1.61788	1.37969	1.92495
H	-1.89321	0.792441	4.14345
H	-0.281398	-0.00990722	4.01516
H	-1.77771	-0.921803	3.58952
C	5.3485	-3.2992	-1.09775
C	4.92604	-2.20584	-0.193739
O	3.96039	-2.33379	0.546229
H	4.65588	-4.16085	-0.980701
H	6.3781	-3.62877	-0.844642
H	5.31956	-2.95569	-2.15333
N	5.65211	-1.0863	-0.236728
C	5.33825	0.0787604	0.552367
C	5.83319	1.30312	-0.194329
O	6.53469	1.18809	-1.19751
H	6.41049	-0.982303	-0.873829
H	4.26304	0.169358	0.6436
C	5.99487	-0.00667442	1.94764
H	7.0988	-0.0890215	1.85485
H	5.74926	0.878236	2.56984
H	5.6243	-0.914049	2.4727
N	5.4694	2.51219	0.276662
C	5.88823	3.73315	-0.37141
H	4.89799	2.5849	1.08739
H	5.48707	4.62092	0.16541
H	5.52254	3.76489	-1.42334
H	6.99969	3.80703	-0.389928
