44
  This energy is 0.1106 and Call times are: 78326
C	-1.95642	-2.14594	1.91834
C	-0.926448	-1.09128	1.78423
O	-0.51926	-0.476412	2.76022
H	-2.25815	-2.23115	2.98491
H	-1.55036	-3.12257	1.58062
H	-2.84989	-1.88764	1.31166
N	-0.47722	-0.854071	0.549604
C	0.493156	0.170744	0.255181
C	0.259216	0.649573	-1.16522
O	-0.525454	0.0614312	-1.90691
H	-0.848	-1.33445	-0.240092
H	0.330012	1.01637	0.911639
C	1.93134	-0.369105	0.414658
H	2.10257	-1.23	-0.266212
H	2.68776	0.414497	0.204129
H	2.07747	-0.721164	1.45919
N	0.933681	1.74152	-1.57604
C	0.771062	2.27332	-2.90905
H	1.56115	2.20625	-0.960096
H	1.40959	3.17243	-3.05437
H	-0.28933	2.56367	-3.08945
H	1.05571	1.51374	-3.67269
C	-0.483715	-1.09235	1.5208
C	0.279042	-0.637469	0.336557
O	-0.188659	-0.726878	-0.790241
H	-1.46148	-1.50611	1.19119
H	-0.667504	-0.24	2.20817
H	0.0793612	-1.88489	2.05737
N	1.49276	-0.132868	0.57033
C	2.37014	0.311256	-0.483958
C	3.8016	0.141293	-0.0110919
O	4.04825	-0.153418	1.15682
H	1.87615	-0.104412	1.48906
H	2.23876	-0.325424	-1.34998
C	2.09187	1.78596	-0.848734
H	2.23675	2.44085	0.0368002
H	2.75175	2.13565	-1.66898
H	1.03675	1.8882	-1.18432
N	4.78417	0.316322	-0.916587
C	6.17601	0.169863	-0.559514
H	4.56465	0.550484	-1.85789
H	6.82948	0.353037	-1.4408
H	6.3783	-0.858243	-0.180885
H	6.45482	0.89342	0.240406
