44
  This energy is 0.1069 and Call times are: 80858
C	3.31954	-1.00257	-0.296994
C	2.08825	-0.392444	-0.84728
O	2.10171	0.210589	-1.91151
H	4.16992	-0.795824	-0.982552
H	3.19292	-2.10158	-0.202728
H	3.54831	-0.570187	0.699902
N	0.978175	-0.536724	-0.119751
C	-0.287186	0.0378334	-0.503554
C	-1.08365	0.313261	0.757929
O	-0.696231	-0.0983695	1.8498
H	0.99158	-0.995	0.764371
H	-0.114405	0.989646	-0.990206
C	-1.06495	-0.914794	-1.43781
H	-1.25167	-1.88769	-0.935161
H	-2.03506	-0.477762	-1.75151
H	-0.460045	-1.10863	-2.35042
N	-2.21926	1.02862	0.636723
C	-3.03961	1.34447	1.78278
H	-2.51424	1.35657	-0.254627
H	-3.9288	1.93919	1.47801
H	-2.46115	1.93618	2.52879
H	-3.39433	0.413226	2.28088
C	5.90453	-0.0955496	-1.22949
C	4.52993	-0.636926	-1.13704
O	4.1414	-1.51133	-1.8992
H	6.43962	-0.593042	-2.06737
H	6.45624	-0.288827	-0.28556
H	5.87312	0.997649	-1.42185
N	3.75041	-0.117833	-0.185584
C	2.3761	-0.512301	-0.000617255
C	1.62241	0.663063	0.592716
O	2.22172	1.66298	0.983494
H	4.06773	0.622189	0.400536
H	1.93285	-0.725926	-0.965248
C	2.27551	-1.74359	0.926234
H	2.72065	-1.52154	1.9195
H	1.22314	-2.06556	1.06539
H	2.84067	-2.58883	0.47623
N	0.279893	0.572185	0.666145
C	-0.521574	1.64331	1.21068
H	-0.187432	-0.243287	0.341047
H	-1.60167	1.37887	1.18425
H	-0.375633	2.57984	0.625114
H	-0.236556	1.84918	2.26781
