44
  This energy is -2.8246 and Call times are: 74224
C	0.963736	-0.458692	-3.31263
C	0.38876	0.364008	-2.22464
O	0.184791	1.56062	-2.37607
H	1.16489	0.187449	-4.19463
H	0.250109	-1.2567	-3.60702
H	1.91749	-0.920197	-2.98027
N	0.112529	-0.270863	-1.08315
C	-0.410183	0.403741	0.0788507
C	0.0457837	-0.354681	1.3111
O	0.600332	-1.44726	1.20881
H	0.322225	-1.2368	-0.961255
H	0.0151737	1.39793	0.136229
C	-1.95204	0.476496	0.0275188
H	-2.38928	-0.543566	-0.020714
H	-2.36586	1.00598	0.910088
H	-2.26318	1.02862	-0.886103
N	-0.171592	0.215823	2.51248
C	0.232867	-0.42923	3.73987
H	-0.618106	1.10229	2.57477
H	-0.0326009	0.197598	4.61955
H	1.33393	-0.599046	3.75001
H	-0.269868	-1.41744	3.84872
C	8.72212	-1.49887	-1.80288
C	7.80373	-1.44363	-0.643278
O	7.69414	-2.39078	0.123078
H	9.22057	-2.49219	-1.82963
H	9.49806	-0.709663	-1.71445
H	8.1554	-1.35565	-2.74701
N	7.11033	-0.313276	-0.488729
C	6.14633	-0.126663	0.566936
C	5.0966	0.85482	0.0808016
O	5.24728	1.46645	-0.975093
H	7.1799	0.43338	-1.14411
H	5.64396	-1.0659	0.762076
C	6.82736	0.399872	1.8492
H	7.33398	1.36866	1.65213
H	6.09766	0.534522	2.67377
H	7.59697	-0.330261	2.18229
N	3.99705	1.02219	0.841719
C	2.94247	1.93089	0.456622
H	3.8912	0.515311	1.6908
H	2.12546	1.92768	1.21142
H	2.51121	1.6375	-0.52787
H	3.33278	2.97044	0.366527
