44
  This energy is -3.4726 and Call times are: 82340
C	-0.296991	-1.86886	2.92093
C	-0.146901	-1.76127	1.45225
O	0.125431	-2.73972	0.770433
H	-0.10816	-2.91887	3.23349
H	-1.32691	-1.58389	3.22227
H	0.433744	-1.20547	3.4299
N	-0.32225	-0.547273	0.925142
C	-0.166732	-0.277248	-0.482502
C	0.266996	1.16776	-0.641818
O	0.268811	1.9344	0.319423
H	-0.503174	0.247255	1.49773
H	0.626764	-0.897876	-0.879762
C	-1.4866	-0.533356	-1.24249
H	-2.29843	0.110723	-0.842326
H	-1.376	-0.342264	-2.32959
H	-1.78906	-1.59453	-1.10542
N	0.655324	1.57258	-1.86712
C	1.08969	2.92795	-2.11301
H	0.650917	0.936561	-2.63167
H	1.36796	3.06404	-3.18131
H	1.97621	3.17624	-1.48555
H	0.278958	3.6513	-1.86676
C	5.81705	0.614084	-3.39375
C	5.48529	1.06091	-2.02209
O	5.40042	2.24978	-1.74679
H	5.97391	1.50354	-4.04191
H	4.98537	0.00792868	-3.81044
H	6.74734	0.00782831	-3.38421
N	5.28945	0.10013	-1.11604
C	5.00199	0.379609	0.268812
C	5.52515	-0.774686	1.10276
O	5.9342	-1.80343	0.567908
H	5.40229	-0.862336	-1.34579
H	5.54118	1.26795	0.573345
C	3.48481	0.564151	0.490986
H	2.93216	-0.350822	0.188582
H	3.25187	0.79358	1.55099
H	3.1223	1.40866	-0.134897
N	5.53177	-0.625847	2.4421
C	6.01642	-1.66861	3.31613
H	5.20056	0.215528	2.85618
H	5.94027	-1.3562	4.38095
H	7.08305	-1.90235	3.0949
H	5.42328	-2.60193	3.18107
