44
  This energy is -2.7053 and Call times are: 80957
C	0.919561	-2.69354	-2.00298
C	0.344896	-1.34168	-1.82034
O	0.113106	-0.617631	-2.77869
H	1.09263	-2.87583	-3.08589
H	0.218395	-3.46285	-1.61661
H	1.88816	-2.77339	-1.46583
N	0.100728	-0.965558	-0.562842
C	-0.417345	0.336451	-0.223825
C	0.0745171	0.693996	1.16606
O	0.650445	-0.138547	1.86384
H	0.332859	-1.55013	0.209336
H	-0.0123527	1.07138	-0.908292
C	-1.96103	0.345347	-0.270856
H	-2.37721	-0.401074	0.438853
H	-2.37168	1.34611	-0.025183
H	-2.29857	0.073242	-1.29475
N	-0.135478	1.95274	1.59907
C	0.302406	2.38559	2.90562
H	-0.599675	2.61337	1.01842
H	0.0379338	3.45255	3.07552
H	1.40685	2.27812	3.00528
H	-0.177376	1.77387	3.70358
C	4.13642	-3.106	1.53856
C	4.91061	-1.88937	1.20451
O	5.97544	-1.64562	1.75509
H	4.67107	-3.67598	2.32922
H	4.02997	-3.7504	0.640695
H	3.12951	-2.82752	1.91493
N	4.38153	-1.08449	0.280034
C	4.99656	0.156972	-0.118789
C	3.90122	1.10231	-0.575036
O	2.74611	0.705881	-0.717405
H	3.49405	-1.27549	-0.129538
H	5.47655	0.609839	0.739779
C	6.01984	-0.0734538	-1.25238
H	5.52582	-0.52834	-2.13729
H	6.5104	0.873097	-1.55883
H	6.80747	-0.774219	-0.898954
N	4.23988	2.38567	-0.808081
C	3.26362	3.35857	-1.24001
H	5.17892	2.68853	-0.683388
H	3.7365	4.35594	-1.37735
H	2.4484	3.45791	-0.487119
H	2.80444	3.05178	-2.20757
