44
  This energy is -0.0374 and Call times are: 77990
C	-1.39278	-2.91261	-1.29982
C	-0.32488	-1.88883	-1.24877
O	0.73786	-2.05308	-1.83188
H	-1.04351	-3.77785	-1.90418
H	-2.30544	-2.49048	-1.77056
H	-1.63482	-3.26456	-0.274814
N	-0.588288	-0.791606	-0.535272
C	0.368096	0.272468	-0.357408
C	0.0846371	0.945836	0.972171
O	-0.927765	0.671737	1.61375
H	-1.4421	-0.690515	-0.0326202
H	1.36418	-0.148409	-0.299952
C	0.277664	1.29422	-1.512
H	-0.741055	1.73408	-1.56473
H	1.01865	2.11122	-1.39377
H	0.4807	0.777994	-2.47565
N	0.983511	1.843	1.42289
C	0.800762	2.52979	2.68031
H	1.79868	2.04851	0.891543
H	1.64647	3.22558	2.87492
H	0.745683	1.80123	3.52141
H	-0.144207	3.11979	2.67221
C	4.81514	-3.46039	0.261127
C	4.34751	-2.14779	0.760708
O	3.53992	-2.07011	1.67623
H	4.30874	-4.27105	0.828801
H	5.91246	-3.55454	0.401734
H	4.57007	-3.5691	-0.816462
N	4.85246	-1.06908	0.157556
C	4.46094	0.274464	0.504194
C	4.61799	1.14564	-0.727857
O	5.17174	0.714684	-1.73748
H	5.47777	-1.1491	-0.613443
H	3.41211	0.282671	0.773492
C	5.32241	0.817994	1.66509
H	6.39751	0.819649	1.38544
H	5.02141	1.84679	1.95055
H	5.19813	0.16073	2.55329
N	4.1229	2.3979	-0.675428
C	4.22113	3.29731	-1.8013
H	3.67455	2.72726	0.148939
H	3.75553	4.27881	-1.56236
H	3.70326	2.87105	-2.6909
H	5.28734	3.47171	-2.0732
