44
  This energy is 0.1336 and Call times are: 83140
C	3.18283	0.536688	-1.30163
C	2.2443	-0.176077	-0.405933
O	2.57815	-1.19898	0.175982
H	4.14674	-0.0159464	-1.33838
H	3.37098	1.56246	-0.920668
H	2.7627	0.595009	-2.32787
N	1.02735	0.357311	-0.275884
C	-0.00776312	-0.245459	0.526463
C	-1.35017	0.139945	-0.0659656
O	-1.42589	0.979712	-0.960824
H	0.75714	1.16764	-0.787954
H	0.0745471	-1.32344	0.464702
C	0.0901617	0.221895	1.99521
H	-0.0047871	1.3268	2.06013
H	-0.693079	-0.246071	2.62614
H	1.08329	-0.0635958	2.40575
N	-2.44699	-0.475839	0.417571
C	-3.76639	-0.177584	-0.0888048
H	-2.36517	-1.1556	1.13889
H	-4.53567	-0.786525	0.435235
H	-3.82778	-0.398189	-1.17914
H	-4.01028	0.89925	0.059811
C	4.94438	2.50902	2.37068
C	5.3692	1.25955	1.70021
O	6.47994	0.784312	1.89211
H	5.77659	2.88777	3.003
H	4.06178	2.31601	3.01604
H	4.68756	3.28073	1.61465
N	4.47892	0.692406	0.882817
C	4.76263	-0.502286	0.12732
C	3.92524	-0.472158	-1.13737
O	3.05123	0.378325	-1.29387
H	3.59389	1.11317	0.705209
H	5.80265	-0.495709	-0.174213
C	4.44693	-1.76691	0.955762
H	3.37759	-1.77937	1.25642
H	4.67432	-2.69353	0.389912
H	5.06502	-1.76391	1.88005
N	4.18089	-1.40182	-2.07885
C	3.43869	-1.44764	-3.31708
H	4.89484	-2.07923	-1.93582
H	3.79684	-2.28198	-3.95961
H	3.5575	-0.494582	-3.88174
H	2.35279	-1.59854	-3.1191
