44
  This energy is -3.9698 and Call times are: 83397
C	1.47081	-1.13538	-2.94284
C	0.646609	-1.3475	-1.73171
O	-0.0164831	-2.36532	-1.58758
H	1.35008	-2.00403	-3.62603
H	2.54187	-1.0425	-2.66544
H	1.14482	-0.214665	-3.47114
N	0.669267	-0.372314	-0.820185
C	-0.113999	-0.415718	0.389431
C	-0.422614	1.01047	0.804502
O	0.114099	1.96114	0.238917
H	1.18174	0.468325	-0.970405
H	-1.05884	-0.904053	0.185864
C	0.646297	-1.15412	1.5128
H	1.61088	-0.647419	1.7293
H	0.0479209	-1.20634	2.4454
H	0.868558	-2.19284	1.18416
N	-1.30778	1.19315	1.80407
C	-1.66751	2.51454	2.2631
H	-1.73474	0.411592	2.24672
H	-2.40859	2.45524	3.09045
H	-2.11439	3.11012	1.43433
H	-0.769695	3.05949	2.63471
C	3.96571	2.90856	-1.41551
C	5.00697	1.86214	-1.30617
O	5.89888	1.7673	-2.13798
H	4.14483	3.51049	-2.33281
H	4.00361	3.57993	-0.532012
H	2.96013	2.44227	-1.48233
N	4.9128	1.03827	-0.25986
C	5.82673	-0.0553262	-0.0423212
C	5.09179	-1.14132	0.7206
O	3.97234	-0.936549	1.18602
H	4.15769	1.10232	0.386333
H	6.11783	-0.473097	-0.998017
C	7.06996	0.413018	0.745254
H	6.77272	0.832042	1.7302
H	7.78786	-0.417008	0.907143
H	7.58754	1.21303	0.172162
N	5.70592	-2.33275	0.859619
C	5.08128	-3.42736	1.56519
H	6.60998	-2.48067	0.472479
H	5.74387	-4.32077	1.57081
H	4.11818	-3.70836	1.08067
H	4.86665	-3.14311	2.62078
