44
  This energy is 0.1018 and Call times are: 74293
C	3.28235	0.312445	-1.11411
C	1.96142	0.88718	-0.773579
O	1.79904	2.09701	-0.693835
H	4.01772	1.13548	-1.24724
H	3.21573	-0.266326	-2.05927
H	3.63214	-0.353318	-0.297103
N	0.972582	0.0161124	-0.559522
C	-0.356981	0.422419	-0.177766
C	-0.977232	-0.695874	0.638485
O	-0.422327	-1.78896	0.733095
H	1.13004	-0.966876	-0.587941
H	-0.29427	1.29303	0.463125
C	-1.21944	0.727017	-1.42221
H	-1.2928	-0.168981	-2.07477
H	-2.24138	1.05432	-1.1411
H	-0.742553	1.54257	-2.00856
N	-2.14703	-0.443162	1.25794
C	-2.80894	-1.44475	2.06098
H	-2.57864	0.448775	1.1729
H	-3.75608	-1.04525	2.4859
H	-2.15542	-1.76744	2.90364
H	-3.05082	-2.3431	1.44811
C	6.54569	-1.85443	2.71316
C	5.86074	-1.745	1.40548
O	5.57325	-2.74108	0.756185
H	6.73693	-2.92599	2.93907
H	5.90911	-1.42601	3.51564
H	7.51572	-1.31477	2.68339
N	5.58204	-0.509574	0.983073
C	4.95707	-0.241354	-0.288157
C	5.41296	1.1265	-0.760093
O	6.05327	1.86792	-0.0171244
H	5.85899	0.293017	1.50365
H	5.30234	-0.965229	-1.01576
C	3.41809	-0.287145	-0.166897
H	3.06254	0.462576	0.571711
H	2.92537	-0.0958525	-1.14217
H	3.10768	-1.29435	0.18738
N	5.09827	1.49058	-2.01883
C	5.49443	2.77117	-2.55671
H	4.58309	0.875345	-2.60633
H	5.14218	2.88305	-3.60583
H	6.60363	2.87536	-2.54645
H	5.06406	3.60176	-1.95169
