44
  This energy is -2.584 and Call times are: 82857
C	1.06983	-1.54822	2.92766
C	0.504205	-1.59475	1.56053
O	0.384507	-2.65415	0.96074
H	1.34904	-2.57649	3.24481
H	0.319064	-1.14418	3.63889
H	1.97702	-0.908063	2.94488
N	0.140008	-0.425525	1.02887
C	-0.386173	-0.305699	-0.308047
C	-0.0321274	1.07259	-0.833914
O	0.454448	1.92384	-0.0920787
H	0.281558	0.432911	1.51355
H	0.0997696	-1.03031	-0.949479
C	-1.9166	-0.512835	-0.319204
H	-2.41645	0.23695	0.330417
H	-2.3319	-0.436731	-1.345
H	-2.15291	-1.52455	0.076963
N	-0.262252	1.32238	-2.13801
C	0.0479675	2.60352	-2.72846
H	-0.65276	0.619552	-2.72334
H	-0.213008	2.61176	-3.80969
H	1.13436	2.82938	-2.62842
H	-0.521691	3.41715	-2.22385
C	5.09323	-1.66194	3.04709
C	5.8561	-0.875267	2.05194
O	6.94437	-0.389808	2.32839
H	5.6596	-1.69279	4.00319
H	4.94628	-2.70041	2.68277
H	4.1043	-1.19127	3.23026
N	5.29027	-0.728209	0.851693
C	5.89143	0.0461807	-0.20542
C	4.78043	0.591149	-1.08307
O	3.61904	0.215884	-0.934535
H	4.38541	-1.09469	0.654768
H	6.40929	0.89492	0.223633
C	6.86432	-0.81778	-1.03747
H	6.33131	-1.68283	-1.4865
H	7.34418	-0.22929	-1.84613
H	7.66423	-1.21241	-0.373584
N	5.11273	1.50205	-2.01894
C	4.12182	2.08029	-2.89639
H	6.0572	1.7963	-2.12125
H	4.59145	2.80751	-3.59484
H	3.34004	2.61371	-2.30855
H	3.62053	1.28864	-3.49899
