44
  This energy is 0.1465 and Call times are: 76009
C	-0.250056	3.24543	1.23182
C	0.541612	2.0967	0.737021
O	1.72884	2.21544	0.467227
H	0.399853	4.14611	1.2794
H	-0.641754	3.0308	2.2483
H	-1.09806	3.45008	0.544724
N	-0.11117	0.939856	0.602952
C	0.513819	-0.254819	0.0923638
C	-0.554319	-1.09756	-0.578768
O	-1.74402	-0.804259	-0.477235
H	-1.08725	0.868921	0.787651
H	1.23554	0.016601	-0.667953
C	1.19604	-1.04895	1.22778
H	0.454108	-1.33674	2.00286
H	1.69282	-1.96404	0.845235
H	1.96815	-0.410285	1.70975
N	-0.150328	-2.16711	-1.29214
C	-1.09486	-3.0241	-1.97008
H	0.816989	-2.38597	-1.36609
H	-0.568079	-3.84718	-2.50138
H	-1.68424	-2.44518	-2.71758
H	-1.80799	-3.47573	-1.24302
C	0.794602	-0.409446	0.0730326
C	2.06779	0.0324728	0.685282
O	2.07863	0.717378	1.69879
H	-0.0564318	-0.00722089	0.664481
H	0.73677	-1.51822	0.0683561
H	0.719137	-0.0311664	-0.968256
N	3.18782	-0.354994	0.0706322
C	4.50083	0.032223	0.522993
C	5.42515	0.0638719	-0.679583
O	5.05562	-0.368843	-1.76949
H	3.16203	-0.87795	-0.776545
H	4.45855	1.03727	0.923878
C	5.03061	-0.953536	1.58735
H	5.08414	-1.98297	1.17329
H	6.0352	-0.65842	1.95373
H	4.33466	-0.966346	2.45442
N	6.65465	0.588692	-0.509553
C	7.60075	0.665875	-1.59818
H	6.93403	0.937523	0.378896
H	8.55368	1.12858	-1.25899
H	7.19044	1.27994	-2.43237
H	7.82612	-0.350104	-1.99585
