44
  This energy is -1.9077 and Call times are: 74984
C	-1.9715	2.81849	-0.531018
C	-0.839107	1.93424	-0.887289
O	-0.244042	2.0641	-1.94816
H	-2.15278	3.53558	-1.36096
H	-1.73589	3.38904	0.391862
H	-2.89058	2.21676	-0.368836
N	-0.513225	0.997894	0.00682006
C	0.53765	0.0365688	-0.216954
C	0.199428	-1.22293	0.55818
O	-0.736134	-1.23941	1.35578
H	-1.03321	0.878241	0.847749
H	0.562458	-0.227669	-1.26681
C	1.90422	0.598434	0.232524
H	1.88254	0.859831	1.31199
H	2.72371	-0.127223	0.0525502
H	2.12744	1.52389	-0.34198
N	0.953613	-2.31689	0.333497
C	0.702738	-3.56217	1.02089
H	1.70375	-2.28521	-0.318706
H	1.42856	-4.3416	0.700105
H	-0.326004	-3.93052	0.803449
H	0.795789	-3.42845	2.12298
C	4.92547	-0.0376699	3.35508
C	5.73492	-0.536721	2.22067
O	6.68956	-1.27965	2.40271
H	5.34527	-0.430337	4.30662
H	3.87473	-0.382598	3.25644
H	4.94891	1.07217	3.38289
N	5.36567	-0.129967	1.00388
C	6.08132	-0.496818	-0.19271
C	5.89313	0.608986	-1.21416
O	5.09317	1.52112	-1.01469
H	4.61144	0.507549	0.875138
H	7.13986	-0.555394	0.027937
C	5.56922	-1.84263	-0.751095
H	4.48561	-1.77984	-0.987504
H	6.12191	-2.14288	-1.66483
H	5.70949	-2.63537	0.0158591
N	6.63773	0.557124	-2.33616
C	6.5307	1.56845	-3.3618
H	7.2826	-0.186621	-2.47777
H	7.22382	1.34958	-4.20377
H	6.78418	2.57266	-2.9512
H	5.49272	1.61195	-3.76412
