44
  This energy is -5.4599 and Call times are: 82575
C	0.960916	-2.08922	2.61237
C	0.274516	-1.84524	1.32378
O	-0.136499	-2.77257	0.640009
H	1.02921	-3.18442	2.79055
H	0.390313	-1.62473	3.44388
H	1.98671	-1.66479	2.58591
N	0.135626	-0.568889	0.957711
C	-0.472172	-0.175844	-0.289148
C	0.133162	1.14893	-0.713514
O	0.866223	1.77867	0.046599
H	0.511759	0.173165	1.5052
H	-0.224207	-0.902997	-1.05229
C	-2.00407	-0.0481916	-0.140068
H	-2.25908	0.705327	0.635315
H	-2.48522	0.240511	-1.09698
H	-2.42461	-1.02691	0.17869
N	-0.155154	1.60064	-1.94999
C	0.379742	2.84858	-2.44264
H	-0.746978	1.07497	-2.55205
H	0.0277718	3.04536	-3.47928
H	1.49355	2.82302	-2.44962
H	0.0579327	3.69673	-1.79595
C	3.89713	1.6577	3.03356
C	4.60254	0.694533	2.15842
O	5.68313	0.220313	2.48068
H	4.51117	1.84775	3.94058
H	2.91497	1.24381	3.34471
H	3.74053	2.61775	2.49797
N	3.99653	0.381396	1.01078
C	4.57947	-0.507926	0.0372076
C	4.0631	-0.112655	-1.33345
O	3.16138	0.71469	-1.45222
H	3.13664	0.80693	0.743615
H	5.65388	-0.373085	0.0283605
C	4.22064	-1.97761	0.347883
H	3.11877	-2.11874	0.346677
H	4.67516	-2.67341	-0.386819
H	4.60113	-2.24253	1.35852
N	4.63313	-0.693243	-2.40769
C	4.21092	-0.375185	-3.75185
H	5.36425	-1.35737	-2.29161
H	4.79948	-0.955104	-4.49652
H	4.35234	0.709847	-3.96159
H	3.13239	-0.616285	-3.89249
