44
  This energy is -4.6564 and Call times are: 74050
C	2.14473	-2.30744	-1.47938
C	1.63951	-1.5664	-0.301772
O	1.97436	-1.87706	0.833032
H	2.80827	-3.13143	-1.13788
H	2.7252	-1.6284	-2.1387
H	1.29732	-2.74177	-2.05065
N	0.805758	-0.553842	-0.550683
C	0.198421	0.232471	0.494024
C	-1.13229	0.751336	-0.0173898
O	-1.44769	0.619739	-1.19846
H	0.51036	-0.338988	-1.47721
H	-0.00910241	-0.403849	1.3453
C	1.11502	1.40546	0.905362
H	1.31965	2.06443	0.0347777
H	0.664559	2.01037	1.7188
H	2.08566	1.00276	1.26874
N	-1.95232	1.34991	0.868778
C	-3.24098	1.86973	0.474668
H	-1.68131	1.44338	1.82109
H	-3.76487	2.32333	1.34473
H	-3.88312	1.05743	0.0634608
H	-3.12608	2.65048	-0.311696
C	5.39802	2.15102	-2.58308
C	5.06611	1.14613	-1.5481
O	3.90476	0.907672	-1.24673
H	4.45932	2.60476	-2.96885
H	5.93688	1.66893	-3.42568
H	6.0325	2.95228	-2.14894
N	6.09779	0.526429	-0.970164
C	5.93508	-0.444258	0.0833297
C	7.17619	-0.40866	0.955088
O	8.16526	0.2385	0.616525
H	7.03878	0.760739	-1.19707
H	5.09574	-0.15912	0.705286
C	5.72224	-1.8591	-0.498182
H	6.58784	-2.15633	-1.12781
H	5.58184	-2.61342	0.302947
H	4.81346	-1.85967	-1.13885
N	7.14895	-1.10201	2.11031
C	8.2814	-1.12229	3.0066
H	6.33803	-1.61631	2.3691
H	8.06392	-1.74679	3.90099
H	8.52871	-0.0917964	3.35041
H	9.17903	-1.54072	2.49639
