44
  This energy is -1.7345 and Call times are: 76805
C	1.29935	1.16901	3.00962
C	0.475021	0.221032	2.2267
O	0.0283555	-0.798318	2.73446
H	1.4243	0.779989	4.04351
H	0.801911	2.16052	3.05639
H	2.30129	1.27995	2.54388
N	0.254053	0.541271	0.949591
C	-0.493083	-0.302912	0.0508673
C	0.0179611	-0.0637324	-1.35739
O	0.803138	0.852003	-1.59538
H	0.658464	1.35381	0.539585
H	-0.300002	-1.34076	0.292161
C	-2.00485	0.00097289	0.137193
H	-2.2046	1.06292	-0.120514
H	-2.59239	-0.652193	-0.540079
H	-2.35534	-0.173124	1.17796
N	-0.412602	-0.893362	-2.32814
C	0.0240633	-0.746086	-3.69701
H	-1.04469	-1.6311	-2.11534
H	-0.440089	-1.52306	-4.34361
H	1.13137	-0.845966	-3.76897
H	-0.258745	0.255622	-4.09418
C	5.90935	-2.63488	-2.19063
C	4.99916	-1.81425	-1.3604
O	3.78449	-1.92384	-1.45514
H	5.30773	-3.28739	-2.86007
H	6.54612	-3.27381	-1.54331
H	6.55497	-1.97969	-2.81271
N	5.57729	-0.957459	-0.51538
C	4.82336	-0.0620314	0.326258
C	5.66945	1.17082	0.582735
O	6.84961	1.20722	0.239804
H	6.56678	-0.850489	-0.478986
H	3.93457	0.260777	-0.201437
C	4.44412	-0.745217	1.65843
H	5.356	-1.06716	2.20513
H	3.85139	-0.0705222	2.30956
H	3.83217	-1.64899	1.4462
N	5.07879	2.21952	1.18885
C	5.80347	3.43712	1.46895
H	4.12174	2.1727	1.45521
H	5.14489	4.18028	1.97017
H	6.18952	3.88996	0.527042
H	6.6726	3.23282	2.13529
