44
  This energy is -2.9424 and Call times are: 74163
C	-0.187253	-2.54442	2.36718
C	-0.0256168	-2.06935	0.974587
O	0.333869	-2.82785	0.0847263
H	0.0807532	-3.62198	2.42109
H	-1.24084	-2.41934	2.69436
H	0.480696	-1.97358	3.04621
N	-0.290316	-0.779688	0.753022
C	-0.137155	-0.162151	-0.540712
C	0.181501	1.30595	-0.3293
O	0.108304	1.81159	0.78904
H	-0.542411	-0.165418	1.49531
H	0.709067	-0.605763	-1.05037
C	-1.42141	-0.321558	-1.38363
H	-2.28782	0.142647	-0.866066
H	-1.3112	0.137786	-2.38732
H	-1.63969	-1.40341	-1.51889
N	0.553322	2.0264	-1.40574
C	0.881015	3.42912	-1.30003
H	0.610694	1.59862	-2.30173
H	1.16249	3.84315	-2.2933
H	1.73586	3.58124	-0.601909
H	0.0115086	4.00775	-0.91237
C	4.07645	-0.340719	-2.88039
C	4.26447	0.117722	-1.48553
O	3.45926	0.868251	-0.951908
H	3.15147	0.1154	-3.29537
H	3.97646	-1.44611	-2.90973
H	4.94104	-0.0312706	-3.50473
N	5.35287	-0.330115	-0.855267
C	5.6935	0.0623888	0.489527
C	7.20233	-0.00289849	0.633475
O	7.89828	-0.500396	-0.24962
H	6.02033	-0.907738	-1.31647
H	5.39876	1.09249	0.646491
C	5.01054	-0.859825	1.52313
H	5.32077	-1.91534	1.36919
H	5.25395	-0.559311	2.56283
H	3.90765	-0.80223	1.39415
N	7.74621	0.50961	1.75488
C	9.17336	0.496935	1.97685
H	7.16705	0.911655	2.4563
H	9.42337	0.963773	2.95501
H	9.70075	1.06148	1.17409
H	9.56187	-0.547191	1.97693
