44
  This energy is -2.6483 and Call times are: 73688
C	-0.647418	3.38323	0.49729
C	-1.04508	1.95845	0.552228
O	-2.05701	1.606	1.14231
H	-1.38303	3.99208	1.06656
H	-0.628141	3.73485	-0.555674
H	0.35751	3.51779	0.950175
N	-0.241437	1.09357	-0.0710848
C	-0.47361	-0.329332	-0.0686128
C	0.86699	-1.02753	-0.198463
O	1.88797	-0.389307	-0.447438
H	0.600498	1.39087	-0.512246
H	-0.897939	-0.62039	0.884205
C	-1.41101	-0.737373	-1.22621
H	-0.971262	-0.448445	-2.20456
H	-1.60861	-1.82892	-1.22676
H	-2.38282	-0.208574	-1.11529
N	0.895852	-2.36336	-0.0230846
C	2.12686	-3.11233	-0.122243
H	0.0599902	-2.86179	0.181787
H	1.94362	-4.19521	0.053872
H	2.86587	-2.75489	0.631008
H	2.57922	-2.99296	-1.13331
C	3.76694	3.0015	-0.520608
C	4.77099	1.98588	-0.909902
O	5.30698	2.01452	-2.00913
H	3.61166	3.70714	-1.36549
H	4.1223	3.57179	0.363265
H	2.80021	2.51115	-0.279635
N	5.04998	1.04844	-0.0011932
C	5.97332	-0.0304121	-0.25038
C	5.55069	-1.21888	0.592539
O	4.6723	-1.10558	1.44536
H	4.57539	1.01448	0.873717
H	5.90144	-0.329487	-1.28865
C	7.41906	0.390332	0.0931674
H	7.49564	0.687199	1.1609
H	8.14135	-0.427311	-0.107549
H	7.70419	1.26624	-0.529597
N	6.16522	-2.39653	0.3656
C	5.82513	-3.5834	1.11516
H	6.87071	-2.46945	-0.331567
H	6.43956	-4.4486	0.781773
H	4.75053	-3.84199	0.975009
H	6.00308	-3.42538	2.20351
