44
  This energy is -3.0421 and Call times are: 81926
C	2.01591	2.83682	-0.0355394
C	0.86573	2.0491	-0.533267
O	0.0284792	2.54886	-1.27195
H	1.94551	3.87576	-0.424802
H	2.96845	2.38591	-0.384946
H	2.00701	2.86758	1.07445
N	0.797979	0.778153	-0.13018
C	-0.284886	-0.100477	-0.496204
C	-0.453717	-1.12808	0.60701
O	0.369193	-1.21696	1.5162
H	1.46479	0.39733	0.504012
H	-1.20436	0.468997	-0.550051
C	0.00103422	-0.796184	-1.84508
H	0.938682	-1.38906	-1.78716
H	-0.831754	-1.46494	-2.14468
H	0.128899	-0.025071	-2.6359
N	-1.53726	-1.9277	0.556224
C	-1.7841	-2.9312	1.5653
H	-2.1941	-1.83798	-0.185114
H	-2.72405	-3.48474	1.34778
H	-1.87863	-2.46175	2.57125
H	-0.946124	-3.66432	1.60382
C	5.98817	3.41925	-0.119275
C	5.63012	2.13701	-0.766434
O	5.21859	2.10233	-1.91789
H	5.80122	4.25387	-0.829424
H	7.06253	3.41962	0.160919
H	5.36932	3.57518	0.789448
N	5.7796	1.03635	-0.0257657
C	5.4322	-0.27905	-0.502839
C	5.04353	-1.12838	0.692628
O	5.21564	-0.718535	1.83898
H	6.07678	1.08459	0.923556
H	4.56282	-0.208239	-1.14453
C	6.61449	-0.920791	-1.26154
H	7.50345	-1.00331	-0.600492
H	6.35483	-1.92845	-1.64588
H	6.88696	-0.27848	-2.12729
N	4.49857	-2.33683	0.450387
C	4.09272	-3.21218	1.5252
H	4.36347	-2.64934	-0.484044
H	3.66767	-4.15806	1.12284
H	3.31902	-2.72234	2.15981
H	4.96158	-3.46628	2.17454
