44
  This energy is 0.1031 and Call times are: 78230
C	-0.630311	1.65212	2.99765
C	0.136947	1.47337	1.74445
O	0.93523	2.319	1.3649
H	-0.362477	2.62881	3.45615
H	-0.387076	0.839866	3.71446
H	-1.71996	1.64222	2.78395
N	-0.0943312	0.349337	1.06222
C	0.544	0.0544378	-0.196405
C	-0.386126	-0.832936	-1.002
O	-1.3985	-1.31038	-0.493226
H	-0.777122	-0.310446	1.3628
H	0.676242	0.973358	-0.753835
C	1.903	-0.645141	0.0248076
H	1.76666	-1.59322	0.587475
H	2.41082	-0.865018	-0.936599
H	2.5645	0.0188437	0.623057
N	-0.0659973	-1.06849	-2.28966
C	-0.894244	-1.89626	-3.13523
H	0.755129	-0.669994	-2.68466
H	-0.463442	-1.96857	-4.15817
H	-1.92091	-1.47127	-3.21656
H	-0.978707	-2.92522	-2.71659
C	-0.260675	-0.756573	-1.24519
C	0.86996	-1.00386	-0.322328
O	0.760217	-1.7752	0.620753
H	-1.1413	-1.34881	-0.914104
H	0.0125383	-1.06465	-2.2763
H	-0.529811	0.320747	-1.24057
N	2.00027	-0.340808	-0.577559
C	3.17192	-0.444923	0.256076
C	3.94368	0.857045	0.151985
O	3.63111	1.70992	-0.676636
H	2.0614	0.314693	-1.32485
H	2.86662	-0.557237	1.28893
C	4.05531	-1.63436	-0.179936
H	4.37747	-1.51436	-1.23628
H	4.95374	-1.73355	0.463107
H	3.46782	-2.57528	-0.103349
N	4.97198	1.0441	1.00264
C	5.76029	2.25418	0.981093
H	5.20714	0.344169	1.66888
H	6.55767	2.21792	1.75575
H	5.11959	3.14391	1.17901
H	6.24332	2.39095	-0.013449
