44
  This energy is -4.1473 and Call times are: 75254
C	-0.00833522	-3.44881	0.467265
C	0.344	-2.24	-0.311052
O	1.11752	-2.29931	-1.25687
H	0.542238	-4.32316	0.0570684
H	-1.0988	-3.64527	0.396345
H	0.274209	-3.31381	1.53265
N	-0.224537	-1.09665	0.0786803
C	0.053847	0.168976	-0.553192
C	-0.134628	1.2646	0.479104
O	-0.625646	1.01623	1.57862
H	-0.820228	-1.05719	0.875839
H	1.0911	0.192934	-0.863291
C	-0.878486	0.398565	-1.76286
H	-1.94238	0.384586	-1.44354
H	-0.664678	1.36361	-2.26634
H	-0.72937	-0.419043	-2.50152
N	0.26212	2.5095	0.149189
C	0.127173	3.61461	1.06935
H	0.660987	2.69006	-0.74377
H	0.509931	4.55449	0.613989
H	0.700556	3.41939	2.00444
H	-0.94122	3.76817	1.34521
C	4.49472	2.76804	-2.00533
C	4.1699	1.4115	-1.50989
O	3.09382	0.886721	-1.76102
H	3.6291	3.16715	-2.57739
H	5.3803	2.7294	-2.67391
H	4.70531	3.4468	-1.1521
N	5.10946	0.805395	-0.780341
C	4.92256	-0.498231	-0.193673
C	5.7723	-0.578718	1.06053
O	6.5848	0.30431	1.32851
H	5.96417	1.26178	-0.550029
H	3.88885	-0.608685	0.109414
C	5.31747	-1.61232	-1.1877
H	6.38086	-1.50566	-1.49082
H	5.16492	-2.62124	-0.752582
H	4.68858	-1.52922	-2.10089
N	5.59675	-1.64365	1.86746
C	6.35667	-1.80255	3.08542
H	4.93159	-2.34579	1.63587
H	6.06808	-2.74025	3.60951
H	6.17705	-0.946131	3.77503
H	7.4479	-1.84538	2.86511
