44
  This energy is -0.88 and Call times are: 79907
C	2.26747	1.91066	-1.82226
C	1.22498	1.76684	-0.781263
O	0.989229	2.67147	0.00770733
H	2.74884	2.90798	-1.72468
H	1.81377	1.82788	-2.83223
H	3.04187	1.12432	-1.69955
N	0.568676	0.60453	-0.755241
C	-0.442592	0.300589	0.226347
C	-0.459066	-1.20143	0.438976
O	0.188766	-1.94813	-0.292098
H	0.800048	-0.13754	-1.37787
H	-0.172655	0.757082	1.17048
C	-1.82931	0.796926	-0.238314
H	-2.11135	0.320897	-1.20158
H	-2.61426	0.581124	0.51521
H	-1.79168	1.89706	-0.395302
N	-1.19921	-1.68059	1.4581
C	-1.27113	-3.0953	1.74025
H	-1.71329	-1.06035	2.04127
H	-1.92924	-3.28872	2.61585
H	-0.25901	-3.50279	1.96575
H	-1.67961	-3.6504	0.864943
C	4.52803	-1.21555	-3.00288
C	5.00972	-1.41187	-1.61703
O	4.85782	-2.4794	-1.03934
H	4.03404	-2.14697	-3.35542
H	5.38077	-0.98436	-3.67529
H	3.79342	-0.383581	-3.03842
N	5.60964	-0.366125	-1.04353
C	6.09241	-0.391043	0.31473
C	6.0421	1.02354	0.860608
O	5.79549	1.97516	0.122146
H	5.68934	0.50913	-1.51197
H	5.42661	-0.994033	0.919486
C	7.53265	-0.945041	0.378248
H	8.2181	-0.320624	-0.233558
H	7.91069	-0.982231	1.42047
H	7.54709	-1.97781	-0.0334761
N	6.26817	1.19373	2.17816
C	6.23547	2.50271	2.78781
H	6.46201	0.411044	2.76031
H	6.44553	2.43417	3.87795
H	5.23506	2.97408	2.65264
H	6.99733	3.17098	2.32507
