44
  This energy is -3.5184 and Call times are: 73167
C	1.55228	3.11271	-0.119025
C	1.26938	1.8222	0.548579
O	1.90819	1.46275	1.52793
H	2.39579	3.61762	0.40005
H	0.658517	3.77002	-0.0756811
H	1.83378	2.94137	-1.17944
N	0.28949	1.08395	0.022102
C	-0.072372	-0.21385	0.535261
C	-0.63817	-1.0339	-0.60883
O	-0.876059	-0.515352	-1.69797
H	-0.194001	1.37118	-0.79985
H	0.818239	-0.720462	0.885673
C	-1.10734	-0.0876268	1.67463
H	-2.02539	0.422637	1.31291
H	-1.38369	-1.07943	2.08753
H	-0.674913	0.52279	2.49727
N	-0.860021	-2.34475	-0.388663
C	-1.39149	-3.2051	-1.41994
H	-0.657408	-2.74706	0.498001
H	-1.50175	-4.24652	-1.04509
H	-0.715272	-3.22103	-2.30524
H	-2.39105	-2.84532	-1.75545
C	3.40911	-2.34973	1.15904
C	4.01024	-1.54004	0.0754335
O	3.74792	-1.75981	-1.099
H	2.75316	-3.12935	0.714327
H	2.79927	-1.70442	1.82568
H	4.20553	-2.84605	1.75273
N	4.84642	-0.570274	0.453244
C	5.5412	0.272357	-0.487932
C	6.8443	0.717952	0.148428
O	7.07451	0.493971	1.33525
H	5.08172	-0.430085	1.41076
H	5.79325	-0.306756	-1.36755
C	4.68064	1.49558	-0.873145
H	4.43062	2.09582	0.0275475
H	5.19908	2.14496	-1.60802
H	3.72896	1.14572	-1.32948
N	7.73622	1.35642	-0.634412
C	9.00549	1.81247	-0.117536
H	7.53367	1.52487	-1.59341
H	9.59783	2.31308	-0.914877
H	9.60009	0.956148	0.275451
H	8.85342	2.53778	0.714292
