44
  This energy is -6.4005 and Call times are: 77506
C	-2.30026	1.89388	-1.79853
C	-1.15677	1.77314	-0.866329
O	-0.499085	2.75199	-0.541171
H	-2.40391	2.95384	-2.11731
H	-3.23832	1.57617	-1.29669
H	-2.12999	1.26351	-2.6967
N	-0.889631	0.547086	-0.41048
C	0.217344	0.264989	0.469059
C	0.660909	-1.16552	0.227279
O	-0.00282108	-1.91937	-0.481865
H	-1.40852	-0.246083	-0.716267
H	1.04987	0.90847	0.213195
C	-0.187053	0.464178	1.94623
H	-1.03424	-0.203354	2.21214
H	0.660816	0.263411	2.63277
H	-0.515553	1.51552	2.09823
N	1.80664	-1.57169	0.808955
C	2.31021	-2.9137	0.631186
H	2.33203	-0.945963	1.37598
H	3.26283	-3.05328	1.1882
H	2.50062	-3.12222	-0.44656
H	1.57361	-3.66235	1.00278
C	3.12428	2.77638	-0.941359
C	3.88042	1.54487	-1.26199
O	3.84212	1.0518	-2.38084
H	2.56013	3.10565	-1.8409
H	3.82151	3.58555	-0.638287
H	2.40534	2.58056	-0.118041
N	4.59487	1.0115	-0.268274
C	5.34781	-0.209116	-0.415656
C	5.42355	-0.884808	0.940543
O	5.03772	-0.306561	1.95468
H	4.58347	1.40143	0.648068
H	4.81631	-0.878642	-1.08038
C	6.76528	0.0789937	-0.956981
H	7.31473	0.75742	-0.270041
H	7.35031	-0.854335	-1.08797
H	6.68545	0.580542	-1.94613
N	5.9186	-2.13727	0.988343
C	6.02385	-2.86144	2.2336
H	6.22193	-2.59016	0.156504
H	6.45418	-3.87318	2.06499
H	5.02118	-2.98108	2.70436
H	6.67925	-2.31653	2.951
