44
  This energy is -7.5091 and Call times are: 78412
C	-0.250056	-1.24666	-3.23975
C	0.541612	-0.849202	-2.05382
O	1.72884	-1.12942	-1.96237
H	0.399853	-1.8119	-3.9426
H	-0.641754	-0.346112	-3.75777
H	-1.09806	-1.89511	-2.934
N	-0.11117	-0.177558	-1.10243
C	0.513819	0.23877	0.128268
C	-0.554319	0.300759	1.20381
O	-1.74402	0.180797	0.91755
H	-1.08725	0.00737281	-1.17276
H	1.23554	-0.508773	0.433114
C	1.19604	1.61442	-0.0372662
H	0.454108	2.38388	-0.339763
H	1.69282	1.93969	0.899713
H	1.96815	1.54759	-0.834591
N	-0.150328	0.482538	2.47651
C	-1.09486	0.548958	3.56722
H	0.816989	0.573401	2.68891
H	-0.568079	0.702021	4.53485
H	-1.68424	-0.394116	3.63439
H	-1.80799	1.39191	3.41883
C	5.37298	3.40149	0.518776
C	4.84065	2.27093	-0.274717
O	4.07916	2.45947	-1.21333
H	4.95601	4.35428	0.126128
H	6.48011	3.43507	0.442096
H	5.07957	3.29287	1.58423
N	5.23532	1.04979	0.0932965
C	4.76852	-0.150247	-0.555213
C	4.79808	-1.27808	0.459026
O	5.32677	-1.12293	1.55817
H	5.82306	0.90964	0.884987
H	3.73747	-0.0150728	-0.857337
C	5.64955	-0.496252	-1.77559
H	6.70553	-0.64539	-1.4646
H	5.29196	-1.41072	-2.29174
H	5.61929	0.346135	-2.50071
N	4.21902	-2.44489	0.113685
C	4.19361	-3.57237	1.01608
H	3.79271	-2.54997	-0.778667
H	3.67296	-4.43765	0.549775
H	3.66088	-3.30922	1.95855
H	5.22891	-3.88715	1.28107
