44
  This energy is -1.4546 and Call times are: 74705
C	-3.04625	1.14419	1.23445
C	-2.21718	0.536803	0.169146
O	-2.72911	0.0242033	-0.816542
H	-4.12097	1.02572	0.975949
H	-2.81634	2.22637	1.32813
H	-2.8523	0.639964	2.20462
N	-0.894986	0.580129	0.348841
C	0.0388975	-0.00677186	-0.579582
C	1.28014	-0.413893	0.191854
O	1.43013	-0.0795476	1.36549
H	-0.494747	0.964347	1.17592
H	-0.391493	-0.908402	-0.997264
C	0.401607	0.990388	-1.70179
H	0.852875	1.91119	-1.27457
H	1.10944	0.545479	-2.43087
H	-0.52257	1.28057	-2.24772
N	2.20074	-1.15787	-0.452372
C	3.41099	-1.59664	0.202586
H	2.0597	-1.42199	-1.40075
H	4.03904	-2.19637	-0.492465
H	3.17127	-2.22615	1.09001
H	4.00861	-0.723081	0.550275
C	11.4571	-0.322718	2.85976
C	11.2248	-0.517015	1.41082
O	12.1284	-0.872963	0.666995
H	12.5242	-0.530858	3.09179
H	10.8197	-1.01747	3.44609
H	11.2244	0.724193	3.14763
N	9.98643	-0.280926	0.971445
C	9.61779	-0.385376	-0.418431
C	8.46856	0.570889	-0.676109
O	7.90554	1.14416	0.254523
H	9.27165	0.0477678	1.58211
H	10.449	-0.0639533	-1.03359
C	9.20874	-1.83169	-0.773515
H	8.34927	-2.15821	-0.150026
H	8.93592	-1.92808	-1.8444
H	10.0619	-2.51494	-0.569633
N	8.09762	0.77221	-1.95591
C	7.01802	1.66869	-2.29789
H	8.56793	0.3024	-2.69561
H	6.86582	1.69884	-3.39933
H	7.23953	2.70242	-1.94629
H	6.06682	1.33831	-1.82121
