44
  This energy is -1.1751 and Call times are: 73594
C	-0.837248	-3.18642	1.12181
C	-1.19677	-1.87233	0.542951
O	-2.30444	-1.67359	0.0634059
H	-1.69817	-3.88189	1.01691
H	-0.593564	-3.07616	2.1994
H	0.0371623	-3.61378	0.587149
N	-0.250273	-0.931284	0.573858
C	-0.436891	0.382733	0.0107476
C	0.918064	0.90684	-0.426244
O	1.95042	0.308979	-0.128724
H	0.660107	-1.12068	0.930516
H	-1.05464	0.307178	-0.875432
C	-1.08062	1.33762	1.03984
H	-0.442098	1.4237	1.94478
H	-1.24223	2.34898	0.613741
H	-2.06722	0.930321	1.3514
N	0.944782	2.04009	-1.15498
C	2.18754	2.61071	-1.61987
H	0.0986926	2.50735	-1.38923
H	2.00028	3.54025	-2.20135
H	2.72956	1.89074	-2.27496
H	2.85044	2.86204	-0.760487
C	6.94839	0.201383	-3.34257
C	7.13642	0.533243	-1.9123
O	8.16419	1.06504	-1.51569
H	7.85848	0.493681	-3.91015
H	6.07659	0.753613	-3.75215
H	6.78441	-0.890172	-3.46378
N	6.13043	0.218734	-1.09288
C	6.18424	0.440691	0.330638
C	5.30576	-0.596445	1.00458
O	4.57318	-1.32807	0.341448
H	5.31714	-0.251025	-1.42414
H	7.19704	0.281062	0.679035
C	5.70799	1.86646	0.685077
H	4.6653	2.02718	0.3372
H	5.75788	2.05438	1.77719
H	6.36003	2.60864	0.174834
N	5.36592	-0.689294	2.34763
C	4.57033	-1.65042	3.07526
H	5.96782	-0.0913722	2.86656
H	4.76045	-1.57126	4.16834
H	4.81453	-2.68807	2.75132
H	3.48445	-1.47893	2.89472
