44
  This energy is -2.1522 and Call times are: 77600
C	0.57693	-1.09193	-3.25385
C	-0.315446	-0.577226	-2.19089
O	-1.44548	-0.185516	-2.44776
H	0.0545716	-1.0311	-4.2333
H	0.840619	-2.15146	-3.05238
H	1.50442	-0.483277	-3.30283
N	0.182692	-0.564781	-0.952305
C	-0.550105	-0.0531502	0.178978
C	0.449952	0.467066	1.19427
O	1.65417	0.262298	1.05409
H	1.1188	-0.848647	-0.765248
H	-1.15508	0.787283	-0.137739
C	-1.43577	-1.15238	0.805491
H	-0.81446	-2.01029	1.14015
H	-2.01567	-0.767193	1.66913
H	-2.15435	-1.52386	0.0426022
N	-0.0291456	1.16437	2.2432
C	0.847665	1.70293	3.25678
H	-1.00638	1.32326	2.33724
H	0.264412	2.24339	4.03456
H	1.57674	2.4154	2.80722
H	1.4226	0.887673	3.75271
C	7.65606	0.016687	-3.26465
C	7.14275	0.709457	-2.06142
O	7.2	1.92712	-1.95935
H	8.0769	0.766882	-3.96888
H	6.83342	-0.530206	-3.77151
H	8.45636	-0.699256	-2.98179
N	6.62289	-0.0656876	-1.10681
C	6.12282	0.45937	0.139301
C	6.28136	-0.612053	1.2016
O	6.61383	-1.75605	0.897565
H	6.62057	-1.0584	-1.18667
H	6.72972	1.30422	0.440166
C	4.64156	0.876218	0.00751303
H	4.01692	0.00741395	-0.290883
H	4.2488	1.29501	0.956655
H	4.54819	1.65497	-0.780623
N	6.05351	-0.261057	2.48258
C	6.18511	-1.21198	3.56174
H	5.78933	0.67054	2.70932
H	5.9566	-0.732075	4.53884
H	7.22219	-1.61688	3.6042
H	5.48603	-2.0676	3.41912
