44
  This energy is -1.0406 and Call times are: 80144
C	1.10398	3.01442	-1.34432
C	0.256362	2.23505	-0.41412
O	-0.366784	2.78317	0.484583
H	1.06701	4.08906	-1.06209
H	0.732795	2.90314	-2.38479
H	2.15621	2.66408	-1.288
N	0.216198	0.915361	-0.612056
C	-0.529789	0.0206829	0.237423
C	0.155932	-1.33244	0.217215
O	1.07086	-1.56311	-0.57108
H	0.761184	0.479077	-1.32235
H	-0.495616	0.384431	1.25681
C	-1.99189	-0.105994	-0.243658
H	-2.02785	-0.489129	-1.28575
H	-2.58036	-0.781495	0.410504
H	-2.47152	0.897038	-0.228273
N	-0.268257	-2.26158	1.0963
C	0.328332	-3.57571	1.15397
H	-1.00715	-2.05488	1.72905
H	-0.157292	-4.19387	1.9409
H	1.4156	-3.50362	1.38619
H	0.217923	-4.10068	0.177569
C	6.14281	-3.06403	1.35484
C	5.12955	-2.14715	0.785802
O	4.01877	-2.5496	0.468606
H	5.72121	-4.09143	1.40552
H	6.42089	-2.73873	2.37934
H	7.04895	-3.07868	0.713153
N	5.49813	-0.872297	0.639886
C	4.63667	0.128238	0.0607659
C	5.50955	1.18341	-0.59214
O	6.7281	1.1822	-0.428364
H	6.4195	-0.568225	0.864544
H	4.03858	-0.324143	-0.72042
C	3.73011	0.765363	1.13662
H	4.34323	1.23877	1.93286
H	3.0523	1.52768	0.700771
H	3.10624	-0.0260813	1.60645
N	4.90232	2.10981	-1.35965
C	5.6522	3.14943	-2.02526
H	3.91571	2.09195	-1.48353
H	4.97446	3.81174	-2.60771
H	6.39835	2.70865	-2.72543
H	6.20131	3.77404	-1.28398
