44
  This energy is -3.0203 and Call times are: 74002
C	1.71254	2.72358	-1.3274
C	0.461426	2.03347	-0.940628
O	-0.608318	2.62646	-0.92034
H	1.48985	3.78941	-1.55168
H	2.14731	2.24918	-2.2322
H	2.44774	2.67723	-0.496479
N	0.571136	0.742742	-0.617558
C	-0.550148	-0.0506388	-0.179575
C	-0.0283383	-1.14254	0.735319
O	1.1794	-1.33736	0.85828
H	1.45514	0.284397	-0.599346
H	-1.21882	0.568295	0.405598
C	-1.2959	-0.664462	-1.38469
H	-0.613045	-1.30794	-1.9794
H	-2.1697	-1.26642	-1.06119
H	-1.66193	0.152252	-2.0445
N	-0.933451	-1.87917	1.40924
C	-0.530092	-2.93643	2.30684
H	-1.90626	-1.70387	1.29981
H	-1.41881	-3.42376	2.765
H	0.109825	-2.53403	3.12529
H	0.0540106	-3.71307	1.76205
C	5.69056	3.47856	-0.0206059
C	5.92768	2.18618	0.661076
O	6.45904	2.13931	1.76192
H	6.07873	4.30497	0.613606
H	4.603	3.63123	-0.183865
H	6.21717	3.49791	-0.99804
N	5.53362	1.09005	0.00869149
C	5.73585	-0.240879	0.524725
C	5.8553	-1.19124	-0.651763
O	5.615	-0.810449	-1.79586
H	5.13979	1.14163	-0.904595
H	6.67404	-0.276057	1.06434
C	4.56693	-0.6601	1.44293
H	3.60556	-0.634333	0.886914
H	4.71766	-1.67784	1.85766
H	4.49328	0.0536482	2.29233
N	6.24042	-2.45713	-0.396382
C	6.38676	-3.43052	-1.45339
H	6.43437	-2.74543	0.535465
H	6.71114	-4.41181	-1.04219
H	7.14615	-3.09324	-2.19557
H	5.4212	-3.57671	-1.98954
