44
  This energy is -5.2248 and Call times are: 79997
C	1.22311	0.720172	-3.17774
C	0.108343	0.479893	-2.23397
O	-1.05024	0.711973	-2.55059
H	0.817959	1.13209	-4.1275
H	1.75208	-0.231426	-3.39545
H	1.93942	1.45059	-2.7459
N	0.440665	0.00321646	-1.03201
C	-0.528894	-0.240204	0.00686572
C	0.162508	-0.0753632	1.34714
O	1.38317	0.0558214	1.41418
H	1.39178	-0.142	-0.774793
H	-1.3079	0.509928	-0.0486514
C	-1.13091	-1.65668	-0.121268
H	-0.3334	-2.42704	-0.0538062
H	-1.88906	-1.85122	0.664794
H	-1.62464	-1.75732	-1.11246
N	-0.608841	-0.0698694	2.45214
C	-0.0398315	0.0869148	3.77041
H	-1.59515	-0.173226	2.37739
H	-0.835579	0.0655588	4.54729
H	0.502887	1.05656	3.85118
H	0.683375	-0.732525	3.98635
C	6.32055	-3.16992	-0.21537
C	5.2534	-2.24787	0.234267
O	4.20557	-2.67226	0.701549
H	5.98533	-4.21953	-0.0677078
H	7.2456	-3.00165	0.375152
H	6.53582	-3.00965	-1.29289
N	5.5004	-0.942931	0.0981915
C	4.54158	0.0742578	0.4511
C	4.79223	1.28562	-0.427164
O	5.78751	1.34691	-1.14644
H	6.3413	-0.613705	-0.321748
H	3.54365	-0.283433	0.230136
C	4.66307	0.45296	1.94344
H	5.68353	0.829903	2.16839
H	3.92068	1.22548	2.23084
H	4.48376	-0.450022	2.56698
N	3.88368	2.28034	-0.394547
C	4.03551	3.46947	-1.20021
H	3.08264	2.21073	0.190745
H	3.18628	4.1683	-1.03384
H	4.06795	3.20885	-2.28294
H	4.98136	3.99955	-0.944233
