44
  This energy is -3.1853 and Call times are: 73824
C	0.196787	1.35339	-3.20036
C	-0.139042	0.25276	-2.26924
O	-0.778661	-0.720345	-2.64389
H	-0.232248	1.13124	-4.20159
H	1.29864	1.45158	-3.29528
H	-0.228956	2.31024	-2.83123
N	0.291008	0.386637	-1.01246
C	0.0054658	-0.580627	0.0178002
C	-0.0193322	0.142169	1.35141
O	0.343322	1.31367	1.43965
H	0.775217	1.20364	-0.712602
H	-0.982499	-0.993493	-0.143749
C	1.06616	-1.70313	0.0299307
H	2.07858	-1.28123	0.206141
H	0.849693	-2.46163	0.809894
H	1.07224	-2.21301	-0.958163
N	-0.45916	-0.542456	2.42559
C	-0.523217	0.0646559	3.73459
H	-0.752254	-1.48834	2.33355
H	-0.911157	-0.658857	4.4851
H	-1.19615	0.952521	3.72327
H	0.48715	0.401406	4.06155
C	4.87987	3.07684	-1.62464
C	4.69622	1.60802	-1.62364
O	4.23502	1.02709	-2.59639
H	4.5254	3.49063	-2.59365
H	5.95384	3.32831	-1.49781
H	4.29311	3.53641	-0.801487
N	5.0576	0.965519	-0.510541
C	4.89873	-0.457693	-0.343865
C	4.71373	-0.743023	1.13462
O	4.87903	0.141697	1.97227
H	5.3932	1.45693	0.288048
H	3.99638	-0.778059	-0.849588
C	6.12606	-1.21782	-0.8926
H	7.05059	-0.897145	-0.366812
H	6.00973	-2.3155	-0.782639
H	6.24684	-0.98797	-1.97376
N	4.35553	-1.99251	1.49026
C	4.15133	-2.35557	2.87325
H	4.22248	-2.6938	0.797757
H	3.86118	-3.42585	2.96016
H	3.34437	-1.73575	3.32703
H	5.08267	-2.19554	3.46328
