44
  This energy is -1.0841 and Call times are: 73974
C	0.816845	-2.81505	1.87641
C	1.12138	-1.46426	1.35319
O	2.06522	-0.816404	1.78431
H	1.54607	-3.0726	2.67502
H	0.89415	-3.5669	1.06309
H	-0.207597	-2.8377	2.30431
N	0.312553	-1.00201	0.396894
C	0.456181	0.311506	-0.179826
C	-0.912107	0.778421	-0.639536
O	-1.87168	0.00970094	-0.64258
H	-0.476022	-1.52436	0.0851726
H	0.792978	1.00189	0.583434
C	1.44674	0.288566	-1.36452
H	1.09628	-0.411647	-2.1525
H	1.5765	1.29686	-1.8084
H	2.43882	-0.0636297	-1.00663
N	-1.03532	2.06131	-1.03329
C	-2.2998	2.59625	-1.48173
H	-0.248322	2.66921	-1.0199
H	-2.19637	3.66772	-1.76187
H	-3.06718	2.51666	-0.677947
H	-2.6709	2.03562	-2.37005
C	7.47284	3.40313	0.626463
C	6.70734	2.13891	0.709629
O	5.71406	2.04575	1.41754
H	7.0056	4.15996	1.29337
H	7.46443	3.78779	-0.415031
H	8.52189	3.2373	0.950596
N	7.16259	1.12017	-0.0233733
C	6.54934	-0.184584	-0.0131481
C	7.62078	-1.21323	-0.322099
O	8.74149	-0.864683	-0.688494
H	7.99597	1.19911	-0.562918
H	6.17621	-0.396137	0.981158
C	5.40658	-0.265196	-1.04894
H	5.79084	-0.0586081	-2.07056
H	4.91726	-1.26069	-1.04106
H	4.63811	0.501432	-0.807978
N	7.30088	-2.51368	-0.172065
C	8.25738	-3.56289	-0.437486
H	6.39012	-2.77595	0.129289
H	7.80489	-4.56267	-0.256056
H	9.14941	-3.45711	0.221581
H	8.60311	-3.52109	-1.49572
