44
  This energy is 0.115 and Call times are: 76290
C	1.17911	2.14855	2.47106
C	1.02563	1.7527	1.053
O	1.32629	2.51693	0.146374
H	1.56762	3.18891	2.52199
H	1.89595	1.47183	2.98187
H	0.197621	2.10575	2.98869
N	0.543453	0.528349	0.827494
C	0.298192	0.0176304	-0.498241
C	-0.830642	-0.992468	-0.41464
O	-1.25774	-1.37092	0.674434
H	0.264794	-0.0669322	1.57573
H	-0.0385342	0.825648	-1.1357
C	1.56942	-0.637992	-1.0808
H	1.90924	-1.4738	-0.432746
H	1.3973	-1.02288	-2.10684
H	2.38435	0.117161	-1.12532
N	-1.34853	-1.44861	-1.57211
C	-2.42869	-2.4073	-1.59106
H	-0.992434	-1.12752	-2.44342
H	-2.71439	-2.65723	-2.6366
H	-3.32533	-1.9991	-1.07079
H	-2.1285	-3.3479	-1.07502
C	2.76793	-0.0858785	-0.571233
C	4.10835	-0.713627	-0.590295
O	4.24301	-1.9126	-0.79215
H	1.99463	-0.865834	-0.743047
H	2.69185	0.678413	-1.37299
H	2.58333	0.392362	0.413794
N	5.14661	0.0974011	-0.374326
C	6.50792	-0.374264	-0.320289
C	7.29318	0.550728	0.590388
O	6.79772	1.59735	1.00369
H	5.01824	1.06383	-0.170886
H	6.5269	-1.36011	0.127332
C	7.13662	-0.407623	-1.73056
H	7.12696	0.605552	-2.186
H	8.1804	-0.782247	-1.704
H	6.54129	-1.08417	-2.38186
N	8.54236	0.178742	0.932711
C	9.36266	0.992567	1.79929
H	8.92446	-0.673722	0.591566
H	10.3548	0.516888	1.9623
H	8.87221	1.12871	2.79036
H	9.5258	2.00043	1.35349
