44
  This energy is 0.1024 and Call times are: 80986
C	3.37406	0.0529797	0.851821
C	2.16223	-0.647975	0.370922
O	2.22976	-1.76939	-0.113095
H	4.26412	-0.58946	0.675891
H	3.28994	0.260509	1.93929
H	3.50659	1.00887	0.302463
N	1.0075	0.0106799	0.494036
C	-0.24937	-0.52369	0.0322044
C	-1.1512	0.639425	-0.335781
O	-0.830109	1.7952	-0.0659728
H	0.97397	0.939272	0.852448
H	-0.0827743	-1.10039	-0.869066
C	-0.910229	-1.39812	1.12027
H	-1.09099	-0.804187	2.04147
H	-1.87219	-1.8267	0.771742
H	-0.229451	-2.23814	1.37959
N	-2.30515	0.35876	-0.972705
C	-3.22379	1.40124	-1.36705
H	-2.54571	-0.582345	-1.18607
H	-4.11288	0.969594	-1.87736
H	-2.73094	2.11539	-2.06588
H	-3.5734	1.97411	-0.477812
C	5.91935	-1.71061	1.11258
C	4.57372	-1.67755	0.496689
O	4.10292	-2.66591	-0.0491106
H	6.36534	-2.71842	0.966787
H	5.84725	-1.50354	2.20101
H	6.57731	-0.954011	0.635366
N	3.91564	-0.518283	0.570396
C	2.61531	-0.319619	-0.0197042
C	2.4802	1.14692	-0.383836
O	3.32096	1.96647	-0.0189288
H	4.32873	0.289104	0.981906
H	2.54977	-0.88767	-0.939294
C	1.49585	-0.74023	0.957618
H	1.55621	-0.150369	1.89702
H	0.490077	-0.605013	0.509681
H	1.61917	-1.81453	1.21647
N	1.41513	1.51172	-1.12448
C	1.20633	2.88405	-1.5236
H	0.747706	0.833503	-1.41369
H	0.277001	2.98105	-2.12707
H	2.06196	3.24936	-2.13658
H	1.11508	3.54362	-0.630422
