44
  This energy is 0.1257 and Call times are: 76179
C	-2.4808	-2.37226	-0.575065
C	-1.95539	-0.99065	-0.654027
O	-2.51727	-0.137232	-1.32662
H	-3.38953	-2.45647	-1.20989
H	-2.75047	-2.61983	0.473138
H	-1.71906	-3.09284	-0.940598
N	-0.844823	-0.737377	0.0423047
C	-0.191362	0.547689	0.0298612
C	1.28881	0.328069	0.279679
O	1.71442	-0.776766	0.61121
H	-0.376059	-1.45296	0.552276
H	-0.290412	0.989303	-0.953905
C	-0.789338	1.48111	1.10521
H	-0.678519	1.0333	2.11577
H	-0.303899	2.47851	1.09643
H	-1.87447	1.62126	0.907231
N	2.11345	1.38139	0.116858
C	3.53776	1.26587	0.327012
H	1.75087	2.26643	-0.155768
H	4.04264	2.23983	0.143396
H	3.97633	0.508338	-0.36225
H	3.75639	0.948967	1.37244
C	-1.1894	-1.53911	1.40113
C	-0.404294	-0.334151	1.05064
O	-0.887617	0.785673	1.14448
H	-2.21092	-1.23328	1.71547
H	-0.703256	-2.0824	2.23854
H	-1.27046	-2.2122	0.521669
N	0.845441	-0.541898	0.629463
C	1.7168	0.528128	0.211926
C	2.68973	-0.0262762	-0.811599
O	2.75468	-1.23472	-1.02877
H	1.21112	-1.46169	0.519369
H	1.13117	1.29383	-0.281392
C	2.4786	1.12144	1.41728
H	3.08779	0.338617	1.91739
H	3.14258	1.95553	1.11079
H	1.74686	1.51383	2.15683
N	3.46791	0.851908	-1.47436
C	4.41939	0.417115	-2.47025
H	3.39803	1.82627	-1.28777
H	4.96235	1.28683	-2.90157
H	3.90308	-0.11968	-3.29884
H	5.16744	-0.276644	-2.02274
