44
  This energy is -5.3651 and Call times are: 234472
C	2.08972	-1.12113	-2.54732
C	1.64454	-0.0857057	-1.58771
O	2.3096	0.921739	-1.3898
H	3.06633	-0.820499	-2.9852
H	1.34705	-1.22924	-3.36554
H	2.21294	-2.09549	-2.02912
N	0.489924	-0.316816	-0.958563
C	-0.0509962	0.577662	0.03435
C	-0.88643	-0.239273	1.00194
O	-1.14261	-1.41956	0.771679
H	-0.0196191	-1.16077	-1.09988
H	0.761292	1.01637	0.600346
C	-0.908907	1.6798	-0.624839
H	-1.74855	1.23064	-1.19694
H	-1.31977	2.38312	0.128182
H	-0.279303	2.25969	-1.33453
N	-1.32611	0.37255	2.11925
C	-2.12301	-0.32663	3.1002
H	-1.10507	1.32704	2.29004
H	-2.38552	0.346594	3.94583
H	-1.5657	-1.20083	3.50819
H	-3.0677	-0.70175	2.64413
C	10.182	0.986823	-0.191537
C	8.73777	1.28973	-0.0749722
O	8.34757	2.4146	0.2058
H	10.7688	1.90507	0.0283909
H	10.4197	0.64644	-1.22128
H	10.4669	0.19594	0.534008
N	7.89903	0.273478	-0.289781
C	6.46815	0.40331	-0.170313
C	5.90213	-0.947298	0.225982
O	6.61215	-1.95107	0.230073
H	8.23298	-0.645879	-0.477176
H	6.23787	1.09667	0.628966
C	5.84481	0.882748	-1.49953
H	6.07186	0.16636	-2.31763
H	4.74486	0.999923	-1.41636
H	6.27932	1.86873	-1.77408
N	4.60268	-1.00153	0.578827
C	3.97841	-2.24197	0.976027
H	4.04531	-0.177889	0.573221
H	2.9073	-2.08	1.22848
H	4.48824	-2.6698	1.86951
H	4.0356	-2.99166	0.153939
