44
  This energy is -9.4981 and Call times are: 234591
C	-1.18555	3.1722	-0.802664
C	-0.2507	2.27191	-0.0908652
O	0.741726	2.70915	0.475102
H	-0.814036	4.21761	-0.732156
H	-2.19451	3.11757	-0.342493
H	-1.2519	2.88587	-1.87351
N	-0.551767	0.971333	-0.106322
C	0.284473	-0.0311006	0.505551
C	0.0925605	-1.3326	-0.249972
O	-0.79019	-1.44395	-1.09854
H	-1.34105	0.626015	-0.605976
H	1.32315	0.255044	0.396497
C	-0.073483	-0.212869	1.99688
H	-1.13613	-0.516682	2.10875
H	0.572832	-0.972303	2.48274
H	0.0666286	0.753684	2.52838
N	0.926758	-2.35123	0.0373224
C	0.823269	-3.62553	-0.63471
H	1.6375	-2.2407	0.724132
H	1.59694	-4.33156	-0.2603
H	0.963036	-3.50277	-1.73319
H	-0.179174	-4.08022	-0.462931
C	6.74226	-2.87284	-0.295224
C	5.5176	-2.16722	0.144623
O	4.53829	-2.78497	0.539256
H	6.58312	-3.97009	-0.214077
H	7.60101	-2.58576	0.347322
H	6.97086	-2.62007	-1.35207
N	5.54632	-0.833897	0.0827939
C	4.41623	-0.011275	0.435963
C	4.49437	1.27128	-0.370576
O	5.49335	1.53666	-1.03639
H	6.33597	-0.346846	-0.279277
H	3.50268	-0.517266	0.149564
C	4.41161	0.299816	1.94872
H	5.34396	0.828293	2.24112
H	3.53858	0.921141	2.23558
H	4.36204	-0.653275	2.51925
N	3.43053	2.09774	-0.335549
C	3.41217	3.33799	-1.07556
H	2.62968	1.86384	0.205742
H	2.45123	3.87565	-0.918188
H	3.53189	3.14625	-2.16652
H	4.24395	4.00312	-0.748625
