44
  This energy is -8.4476 and Call times are: 240503
C	-3.21785	-0.689988	1.13228
C	-1.82477	-0.243224	1.35784
O	-1.49143	0.283138	2.41057
H	-3.83053	-0.448691	2.02798
H	-3.24529	-1.78695	0.962992
H	-3.6488	-0.16931	0.251222
N	-0.967052	-0.4451	0.354874
C	0.411163	-0.0254705	0.409598
C	0.876145	0.257051	-1.00657
O	0.172923	-0.0380284	-1.971
H	-1.26272	-0.837575	-0.511388
H	0.480257	0.902747	0.963015
C	1.29322	-1.11219	1.06248
H	1.23093	-2.06159	0.48908
H	2.35455	-0.795256	1.12303
H	0.92993	-1.30838	2.09489
N	2.07726	0.847365	-1.16426
C	2.59988	1.15969	-2.47404
H	2.63002	1.08232	-0.371592
H	3.59911	1.64173	-2.39405
H	1.91728	1.85551	-3.01362
H	2.70453	0.234824	-3.08626
C	3.65018	-2.56624	-1.51255
C	4.88698	-2.02302	-0.907256
O	5.82903	-2.75232	-0.629622
H	3.75055	-3.6674	-1.62756
H	3.48312	-2.11418	-2.51279
H	2.77815	-2.35113	-0.859585
N	4.90991	-0.706969	-0.683914
C	6.02627	-0.0398667	-0.0616003
C	5.50116	1.18534	0.662753
O	4.33678	1.55232	0.516953
H	4.11963	-0.132659	-0.87751
H	6.46239	-0.693089	0.683869
C	7.08328	0.364095	-1.11269
H	6.63905	1.04268	-1.87178
H	7.95437	0.866368	-0.644233
H	7.44762	-0.546981	-1.63569
N	6.35221	1.84552	1.47263
C	5.94002	3.01896	2.207
H	7.28943	1.53093	1.58091
H	6.78117	3.41728	2.81613
H	5.09518	2.77707	2.89185
H	5.60134	3.81973	1.51042
