44
  This energy is -1.2548 and Call times are: 241001
C	0.959071	0.441095	3.31637
C	0.140045	-0.215927	2.27298
O	-0.527319	-1.20976	2.52464
H	0.858345	-0.120788	4.27032
H	0.61212	1.48377	3.47508
H	2.02787	0.449183	3.01521
N	0.17582	0.333743	1.05685
C	-0.534044	-0.21751	-0.0704309
C	0.225263	0.147646	-1.33204
O	1.16462	0.940061	-1.29465
H	0.755837	1.11842	0.857534
H	-0.537073	-1.2979	0.00292921
C	-1.97868	0.325195	-0.131687
H	-1.97598	1.43274	-0.217575
H	-2.54004	-0.102527	-0.987516
H	-2.5129	0.0532321	0.804789
N	-0.16194	-0.432761	-2.48497
C	0.50493	-0.150323	-3.73464
H	-0.921622	-1.07453	-2.4945
H	0.0408502	-0.724531	-4.56659
H	1.58253	-0.427137	-3.67613
H	0.439987	0.934822	-3.97833
C	4.28296	-2.85575	1.61104
C	5.14887	-1.65683	1.5482
O	5.76449	-1.26839	2.53133
H	4.3001	-3.26748	2.64353
H	4.65251	-3.63197	0.908426
H	3.23795	-2.58722	1.34855
N	5.2139	-1.03286	0.36972
C	5.98014	0.171072	0.164814
C	5.32071	0.968312	-0.944752
O	4.40761	0.484369	-1.61089
H	4.67494	-1.33727	-0.41048
H	5.94257	0.775537	1.0625
C	7.44269	-0.161737	-0.203173
H	7.48233	-0.772985	-1.12991
H	8.04648	0.757182	-0.349946
H	7.90283	-0.751963	0.619168
N	5.76598	2.22116	-1.16411
C	5.1952	3.0566	-2.19485
H	6.503	2.59675	-0.612025
H	5.69553	4.04976	-2.21802
H	4.10757	3.21625	-2.01357
H	5.31226	2.58137	-3.19565
