44
  This energy is -7.0369 and Call times are: 240559
C	1.85708	2.61694	-1.34743
C	0.860887	1.52871	-1.46786
O	0.160977	1.41876	-2.46508
H	1.81733	3.25366	-2.25787
H	2.87822	2.19199	-1.25039
H	1.63236	3.24495	-0.459627
N	0.772829	0.687767	-0.434685
C	-0.178825	-0.394213	-0.387417
C	-0.512113	-0.667761	1.06711
O	0.122572	-0.127531	1.97101
H	1.32063	0.814515	0.387337
H	-1.09484	-0.0858681	-0.875762
C	0.393054	-1.66168	-1.05951
H	1.32713	-1.98452	-0.552243
H	-0.335633	-2.49788	-1.04185
H	0.637141	-1.43609	-2.12059
N	-1.52888	-1.51304	1.32733
C	-1.9215	-1.82917	2.68088
H	-2.0333	-1.93723	0.582546
H	-2.77619	-2.541	2.68635
H	-2.22946	-0.907567	3.22593
H	-1.07516	-2.29289	3.23749
C	3.76447	-0.250662	-3.35645
C	4.59374	-0.642685	-2.19465
O	5.33363	-1.61556	-2.24454
H	3.93157	-0.970843	-4.18668
H	4.04531	0.766696	-3.70121
H	2.68891	-0.263479	-3.08062
N	4.4843	0.11874	-1.10349
C	5.19506	-0.161895	0.119061
C	4.37505	0.37532	1.27689
O	3.38619	1.07777	1.07582
H	3.84715	0.88318	-1.06439
H	5.27282	-1.23413	0.248981
C	6.59748	0.484776	0.102762
H	6.51784	1.58598	-0.0199284
H	7.16008	0.264294	1.03302
H	7.1769	0.0830101	-0.757002
N	4.7652	0.0477523	2.52448
C	4.0433	0.508305	3.68763
H	5.56562	-0.525069	2.66692
H	4.51944	0.132862	4.62014
H	2.98898	0.149014	3.66328
H	4.02784	1.62163	3.7253
