44
  This energy is -6.8119 and Call times are: 238524
C	-1.19191	-0.825401	3.16398
C	-0.884568	-1.16756	1.75699
O	-0.914744	-2.32636	1.36626
H	-1.41284	-1.75714	3.72871
H	-2.07809	-0.158138	3.21076
H	-0.322511	-0.318387	3.6332
N	-0.574462	-0.148244	0.9525
C	-0.210312	-0.328059	-0.430837
C	0.716205	0.805939	-0.827284
O	0.902701	1.7595	-0.0738592
H	-0.514151	0.785	1.29497
H	0.345944	-1.2511	-0.536728
C	-1.46334	-0.344274	-1.33355
H	-2.02869	0.606702	-1.23324
H	-1.19711	-0.495986	-2.39968
H	-2.13055	-1.17679	-1.02035
N	1.32863	0.723403	-2.02484
C	2.23185	1.75254	-2.48446
H	1.1683	-0.0579789	-2.61882
H	2.63334	1.50249	-3.49119
H	3.08999	1.86406	-1.78271
H	1.709	2.73416	-2.54918
C	5.32738	-0.234142	-3.31699
C	4.56024	-0.730051	-2.15221
O	3.72575	-1.61608	-2.27461
H	4.99753	-0.774261	-4.23095
H	6.41246	-0.413924	-3.16522
H	5.14916	0.852802	-3.45791
N	4.82961	-0.157257	-0.976737
C	4.13473	-0.503455	0.238105
C	4.13297	0.712738	1.14499
O	4.80282	1.70586	0.867991
H	5.48229	0.591076	-0.90017
H	3.10252	-0.734151	0.00587477
C	4.81271	-1.70085	0.9394
H	5.86865	-1.46088	1.18732
H	4.27878	-1.98592	1.86901
H	4.80978	-2.57691	0.254664
N	3.36758	0.6653	2.25311
C	3.29864	1.77725	3.17234
H	2.82939	-0.145488	2.45818
H	2.6166	1.54521	4.01981
H	2.91984	2.68971	2.65734
H	4.30682	2.00799	3.58644
