44
  This energy is -0.3952 and Call times are: 234253
C	1.96368	-2.87323	0.0344915
C	1.33909	-1.71343	0.709692
O	1.32692	-1.62224	1.92951
H	2.35851	-3.57539	0.800626
H	2.80262	-2.53504	-0.609369
H	1.2122	-3.40467	-0.586745
N	0.795414	-0.787159	-0.0832856
C	0.11402	0.37601	0.42789
C	-0.932748	0.795102	-0.587094
O	-0.974143	0.275079	-1.70046
H	0.777103	-0.895564	-1.07312
H	-0.407826	0.112497	1.33941
C	1.10878	1.52859	0.687219
H	1.63678	1.8064	-0.249837
H	0.598214	2.4254	1.09413
H	1.87008	1.19693	1.42667
N	-1.81393	1.74636	-0.220136
C	-2.84865	2.20488	-1.11752
H	-1.76703	2.1524	0.68651
H	-3.47122	2.98853	-0.632221
H	-3.51422	1.36171	-1.41309
H	-2.40343	2.63439	-2.04404
C	10.35	3.06187	0.123679
C	10.3139	1.61197	-0.172366
O	11.2192	1.06945	-0.790826
H	11.2733	3.50264	-0.311225
H	10.3549	3.22831	1.22141
H	9.46665	3.56564	-0.322437
N	9.24632	0.942592	0.268865
C	9.0491	-0.463863	0.0207869
C	7.55661	-0.734507	-0.00706108
O	6.75272	0.134137	0.325995
H	8.49808	1.4058	0.735151
H	9.44029	-0.712261	-0.957934
C	9.73399	-1.31762	1.11041
H	9.32554	-1.07066	2.11352
H	9.60108	-2.40285	0.922982
H	10.8238	-1.09743	1.11808
N	7.14948	-1.95224	-0.416204
C	5.7488	-2.29882	-0.480571
H	7.81478	-2.64061	-0.685639
H	5.61821	-3.3431	-0.840661
H	5.20725	-1.61785	-1.17648
H	5.27596	-2.21257	0.524479
