44
  This energy is -4.9931 and Call times are: 240093
C	1.51761	1.64798	2.6634
C	0.342434	1.01988	2.01873
O	-0.679462	0.791094	2.65102
H	1.29495	1.82751	3.73768
H	1.74751	2.61915	2.17686
H	2.39992	0.978143	2.58634
N	0.465485	0.720491	0.723503
C	-0.576248	0.0674346	-0.0294049
C	0.0745897	-0.730271	-1.14369
O	1.27475	-0.613392	-1.38381
H	1.31802	0.87537	0.232523
H	-1.09292	-0.636007	0.611575
C	-1.56726	1.09985	-0.610128
H	-1.03949	1.81536	-1.27612
H	-2.38197	0.608448	-1.18048
H	-2.02547	1.67728	0.222327
N	-0.706745	-1.57183	-1.84889
C	-0.174067	-2.37582	-2.92409
H	-1.67482	-1.65573	-1.63708
H	-0.972576	-3.0018	-3.37989
H	0.629164	-3.05072	-2.54912
H	0.261831	-1.72916	-3.71968
C	5.51639	-0.342015	3.42478
C	5.96578	-0.468331	2.02006
O	7.13338	-0.711987	1.74847
H	6.38605	-0.483197	4.10272
H	4.7532	-1.11533	3.65343
H	5.08467	0.666076	3.59926
N	5.03201	-0.30001	1.08084
C	5.32534	-0.350485	-0.329825
C	4.32434	0.530839	-1.0529
O	3.35829	1.00534	-0.458524
H	4.0942	-0.0616548	1.31652
H	6.30884	0.0672986	-0.505351
C	5.25071	-1.80012	-0.857313
H	4.23877	-2.22557	-0.686984
H	5.4882	-1.85401	-1.93954
H	5.98584	-2.42858	-0.308719
N	4.53875	0.778178	-2.36014
C	3.64262	1.61009	-3.12894
H	5.32828	0.388634	-2.82271
H	3.98955	1.69293	-4.18251
H	3.5896	2.6352	-2.69579
H	2.61388	1.18251	-3.13092
