44
  This energy is -4.3413 and Call times are: 239127
C	-0.789357	-3.36268	0.426628
C	-0.565355	-1.99912	0.95737
O	-0.866652	-1.71001	2.10717
H	-1.25926	-3.99081	1.21436
H	0.177239	-3.82153	0.130167
H	-1.4655	-3.32449	-0.453407
N	-0.0240305	-1.11598	0.115109
C	0.214117	0.26009	0.473266
C	0.138484	1.09741	-0.789562
O	0.0700465	0.564427	-1.89544
H	0.17799	-1.35513	-0.830334
H	-0.574879	0.59922	1.13289
C	1.59298	0.423458	1.1495
H	2.40356	0.0855277	0.469208
H	1.78231	1.47645	1.44256
H	1.62856	-0.204062	2.06673
N	0.14064	2.43797	-0.652005
C	0.0661546	3.31542	-1.79686
H	0.192456	2.85066	0.251359
H	0.0804365	4.38077	-1.47741
H	-0.871636	3.13406	-2.37039
H	0.928175	3.14277	-2.48115
C	4.33501	-1.14757	-3.1408
C	4.99245	-1.33962	-1.82853
O	5.34678	-2.44907	-1.45439
H	4.22924	-2.13208	-3.64618
H	4.94738	-0.478705	-3.7814
H	3.32624	-0.704559	-3.00223
N	5.17032	-0.243249	-1.08777
C	5.75629	-0.277136	0.229057
C	5.191	0.881862	1.02827
O	4.50562	1.74629	0.485389
H	4.83961	0.64682	-1.38822
H	5.45792	-1.18994	0.729439
C	7.29571	-0.180917	0.150519
H	7.60251	0.760378	-0.353352
H	7.75959	-0.219914	1.15741
H	7.68684	-1.03433	-0.445334
N	5.46047	0.921668	2.34805
C	4.96054	1.98351	3.18991
H	6.01347	0.21089	2.77002
H	5.28947	1.83873	4.24257
H	3.84685	2.00843	3.17102
H	5.33399	2.97256	2.83854
