44
  This energy is -3.1949 and Call times are: 238084
C	-2.61477	-1.66154	1.58586
C	-1.5951	-0.58996	1.52979
O	-1.60478	0.335488	2.32971
H	-3.32498	-1.44974	2.41448
H	-2.12908	-2.64268	1.77079
H	-3.17928	-1.70299	0.630504
N	-0.678486	-0.692907	0.564603
C	0.351055	0.294745	0.356875
C	0.724265	0.28686	-1.11357
O	0.294589	-0.583975	-1.86772
H	-0.708021	-1.43015	-0.104321
H	-0.0449234	1.27673	0.583906
C	1.58824	-0.00570754	1.23114
H	2.00116	-1.00868	0.991203
H	2.38273	0.75556	1.09052
H	1.29012	-0.00275501	2.30234
N	1.53214	1.26923	-1.5589
C	1.93629	1.34614	-2.94343
H	1.86634	1.9673	-0.934344
H	2.59925	2.22335	-3.11143
H	1.04711	1.44664	-3.60716
H	2.48874	0.426345	-3.2433
C	4.89427	2.37	2.41799
C	5.53543	1.10408	1.99665
O	6.30357	0.506335	2.73764
H	5.24401	2.63679	3.43894
H	3.79035	2.25255	2.43551
H	5.16766	3.18851	1.71915
N	5.22994	0.662217	0.774433
C	5.80757	-0.531402	0.2086
C	5.8417	-0.371209	-1.29963
O	5.27399	0.572842	-1.84568
H	4.63489	1.18111	0.167371
H	6.83206	-0.627065	0.54608
C	4.98889	-1.78048	0.602069
H	3.94045	-1.68748	0.246875
H	5.4315	-2.7077	0.183877
H	4.97071	-1.87334	1.70994
N	6.52069	-1.29253	-2.01107
C	6.61246	-1.21889	-3.45062
H	6.97703	-2.04697	-1.55101
H	7.21235	-2.06602	-3.85029
H	7.09788	-0.266639	-3.76506
H	5.59903	-1.25841	-3.91163
