44
  This energy is -2.5765 and Call times are: 237099
C	2.26222	-1.64177	2.07356
C	1.33402	-1.61406	0.92081
O	1.30001	-2.5323	0.113292
H	2.86874	-2.57262	2.03443
H	1.6909	-1.62484	3.02542
H	2.94454	-0.766467	2.0366
N	0.548924	-0.539263	0.816772
C	-0.374574	-0.349453	-0.273954
C	-0.548765	1.14172	-0.492154
O	-0.0827005	1.95354	0.304998
H	0.617052	0.218812	1.45907
H	0.0533508	-0.760207	-1.17993
C	-1.73444	-1.01435	0.0324966
H	-2.17883	-0.585863	0.956055
H	-2.44978	-0.887076	-0.805727
H	-1.58179	-2.10346	0.19645
N	-1.22187	1.53858	-1.59009
C	-1.43232	2.93711	-1.88334
H	-1.58801	0.866893	-2.22559
H	-2.0061	3.05874	-2.82843
H	-0.458088	3.46611	-1.99425
H	-2.00107	3.42972	-1.06175
C	5.92361	-1.80868	2.90733
C	5.80191	-0.532461	2.16732
O	5.78639	0.540647	2.75436
H	5.97259	-1.59774	3.99772
H	6.84893	-2.34114	2.60236
H	5.04257	-2.45368	2.7053
N	5.70904	-0.623434	0.838603
C	5.54242	0.527763	-0.0131828
C	4.79159	0.091098	-1.25703
O	4.58023	-1.09949	-1.47961
H	5.68189	-1.50617	0.378284
H	4.92786	1.26124	0.493714
C	6.91039	1.13628	-0.392137
H	7.53725	0.38739	-0.92153
H	6.79499	2.03172	-1.03664
H	7.44548	1.44131	0.533591
N	4.36132	1.05262	-2.09748
C	3.63353	0.732362	-3.30327
H	4.53839	2.01075	-1.89825
H	3.3672	1.65808	-3.85946
H	2.69312	0.186215	-3.0611
H	4.24611	0.0852879	-3.97198
