44
  This energy is 0.1008 and Call times are: 240472
C	-3.43757	-0.389763	0.379276
C	-2.17595	-0.604093	-0.364699
O	-2.12013	-1.38526	-1.30442
H	-4.23099	-1.04086	-0.0478521
H	-3.75734	0.66999	0.293161
H	-3.29882	-0.647918	1.45035
N	-1.11699	0.0959967	0.0486473
C	0.188606	-0.0373484	-0.548185
C	1.22736	0.283799	0.509838
O	0.894775	0.749584	1.59802
H	-1.16796	0.697289	0.840933
H	0.340962	-1.06673	-0.847836
C	0.340229	0.907649	-1.7603
H	0.194446	1.96471	-1.45143
H	1.3365	0.804307	-2.23704
H	-0.434789	0.659786	-2.5181
N	2.51815	0.0324047	0.215434
C	3.57549	0.300778	1.16211
H	2.76726	-0.34843	-0.668864
H	4.56512	0.0270146	0.734412
H	3.42356	-0.285461	2.09726
H	3.59668	1.38151	1.43175
C	3.48114	-1.70681	-2.7774
C	3.39772	-0.620523	-1.77531
O	2.60323	0.300566	-1.90488
H	2.75361	-1.50942	-3.59446
H	3.23644	-2.68186	-2.30609
H	4.50318	-1.75137	-3.20928
N	4.23283	-0.705409	-0.737147
C	4.29868	0.297876	0.296119
C	5.70649	0.302894	0.861477
O	6.51385	-0.570078	0.548762
H	4.90211	-1.43954	-0.666613
H	4.12315	1.27292	-0.14102
C	3.26868	0.0105933	1.41048
H	3.45482	-0.985149	1.86644
H	3.3	0.783825	2.20525
H	2.24662	0.00377695	0.972668
N	6.03731	1.29896	1.70671
C	7.35557	1.38876	2.29006
H	5.37163	1.9985	1.94459
H	7.43114	2.27619	2.95639
H	8.13129	1.47999	1.49557
H	7.5823	0.478495	2.89102
