44
  This energy is 0.1242 and Call times are: 238552
C	-3.15229	1.13053	0.947453
C	-2.09354	0.919523	-0.0652966
O	-2.3164	1.08129	-1.25717
H	-4.09692	1.41826	0.436798
H	-2.8586	1.94332	1.6445
H	-3.32447	0.195731	1.52155
N	-0.897837	0.544776	0.395407
C	0.218725	0.260173	-0.471108
C	1.1073	-0.756318	0.220796
O	0.911782	-1.06875	1.39377
H	-0.743008	0.377502	1.3649
H	-0.144371	-0.196705	-1.38328
C	1.01265	1.54634	-0.788422
H	1.39433	2.00973	0.14626
H	1.86694	1.34263	-1.46608
H	0.340823	2.27873	-1.28703
N	2.10633	-1.30539	-0.497869
C	2.99925	-2.2856	0.0748965
H	2.24619	-1.04292	-1.44688
H	3.75231	-2.61658	-0.673822
H	2.4315	-3.17999	0.419873
H	3.53952	-1.86039	0.951512
C	6.83393	-2.39825	-0.437363
C	6.01967	-1.5065	0.418753
O	6.03187	-1.61439	1.6372
H	7.38353	-3.12141	0.203594
H	7.5687	-1.8035	-1.01971
H	6.179	-2.9618	-1.13489
N	5.27971	-0.591576	-0.21193
C	4.40349	0.318285	0.483019
C	3.26111	0.678664	-0.44793
O	3.28326	0.344222	-1.63088
H	5.24885	-0.542864	-1.20618
H	3.97428	-0.184234	1.34085
C	5.16398	1.58817	0.923794
H	5.59559	2.10979	0.0430692
H	4.50335	2.29056	1.47219
H	6.00006	1.29989	1.59774
N	2.22521	1.36704	0.070768
C	1.09103	1.74926	-0.737762
H	2.22348	1.62513	1.03122
H	0.34523	2.30766	-0.130138
H	0.591985	0.849332	-1.16481
H	1.41239	2.39966	-1.58325
