44
  This energy is -3.9246 and Call times are: 242454
C	0.796131	-0.965944	3.24743
C	0.0743552	-1.16059	1.96982
O	-0.515428	-2.20483	1.72872
H	0.708331	-1.88751	3.86297
H	0.356737	-0.115174	3.80945
H	1.87074	-0.764667	3.05305
N	0.108125	-0.141577	1.10793
C	-0.510814	-0.198285	-0.192941
C	0.26067	0.717824	-1.12413
O	1.12771	1.47309	-0.688792
H	0.626685	0.68639	1.3014
H	-0.425235	-1.20378	-0.58573
C	-1.99291	0.229479	-0.117843
H	-2.08065	1.2648	0.275145
H	-2.48438	0.176759	-1.11092
H	-2.53623	-0.449573	0.575011
N	-0.0335751	0.665412	-2.43817
C	0.652416	1.49623	-3.40011
H	-0.735455	0.0448966	-2.77193
H	0.269328	1.30714	-4.4271
H	1.74668	1.28704	-3.3902
H	0.504998	2.57491	-3.16377
C	3.55672	1.68573	3.01934
C	4.14703	1.55248	1.66844
O	4.76126	2.47583	1.15215
H	3.75764	2.70739	3.40881
H	4.00874	0.942686	3.70949
H	2.45848	1.52786	2.97431
N	3.96837	0.379835	1.05576
C	4.44691	0.114826	-0.278156
C	3.53371	-0.917686	-0.911842
O	2.67999	-1.49793	-0.243868
H	3.43104	-0.34804	1.47209
H	4.37233	1.01827	-0.870486
C	5.90425	-0.395672	-0.250192
H	5.97944	-1.32831	0.348627
H	6.28889	-0.590188	-1.27232
H	6.55309	0.37232	0.22472
N	3.68823	-1.16568	-2.22738
C	2.86108	-2.12787	-2.91745
H	4.3818	-0.683157	-2.75198
H	3.14159	-2.18862	-3.9921
H	1.78652	-1.8411	-2.85141
H	2.97653	-3.14023	-2.46697
