44
  This energy is -4.768 and Call times are: 239058
C	-1.75165	1.4618	2.62822
C	-0.859258	0.416436	2.07869
O	-0.258486	-0.354003	2.81483
H	-1.73963	1.40844	3.73857
H	-2.79128	1.30345	2.27206
H	-1.40231	2.46762	2.31298
N	-0.750078	0.368329	0.74897
C	0.112974	-0.565567	0.069604
C	0.547017	0.0599512	-1.2426
O	0.0372592	1.10552	-1.64092
H	-1.21348	1.02851	0.164772
H	1.00532	-0.723592	0.66237
C	-0.613529	-1.90481	-0.183092
H	-1.52335	-1.74468	-0.800043
H	0.0451095	-2.63719	-0.693325
H	-0.929038	-2.3405	0.790037
N	1.51185	-0.566153	-1.94482
C	1.99276	-0.0421018	-3.20192
H	1.91512	-1.40902	-1.60421
H	2.78539	-0.698382	-3.62412
H	2.41873	0.978217	-3.0649
H	1.16309	0.0267217	-3.94222
C	7.52289	-1.80619	-2.49332
C	7.51023	-1.10856	-1.18783
O	8.44786	-1.20706	-0.408364
H	8.46342	-2.39126	-2.58799
H	7.47347	-1.06871	-3.32182
H	6.65913	-2.50038	-2.56462
N	6.42674	-0.377379	-0.91617
C	6.25057	0.323988	0.331068
C	4.7629	0.425728	0.61046
O	3.93839	0.0998989	-0.241435
H	5.65387	-0.339919	-1.54317
H	6.69033	-0.25646	1.13251
C	6.88708	1.72974	0.268183
H	6.4289	2.32927	-0.547094
H	6.7702	2.27463	1.22733
H	7.97389	1.6313	0.0548972
N	4.38372	0.875728	1.82279
C	2.99	1.00098	2.1806
H	5.06559	1.13065	2.50038
H	2.88356	1.38708	3.21831
H	2.47862	0.0129983	2.1201
H	2.46841	1.70254	1.49002
