44
  This energy is -2.0389 and Call times are: 239747
C	0.548359	-1.99589	2.79793
C	-0.294044	-1.08223	1.99374
O	-1.47647	-0.914036	2.25831
H	-0.0710145	-2.45916	3.59645
H	1.38083	-1.43291	3.26994
H	0.964111	-2.79936	2.15397
N	0.30699	-0.463501	0.974763
C	-0.392061	0.421731	0.0768477
C	0.303819	0.374994	-1.27042
O	1.37974	-0.204945	-1.40374
H	1.25994	-0.64198	0.746948
H	-1.40173	0.0584406	-0.0688298
C	-0.409815	1.8646	0.627352
H	0.625761	2.24157	0.767031
H	-0.957262	2.5532	-0.0484109
H	-0.916502	1.87358	1.61707
N	-0.303227	0.982138	-2.30912
C	0.28138	0.984851	-3.62988
H	-1.17552	1.44272	-2.18248
H	-0.368282	1.53421	-4.34637
H	0.412755	-0.0565399	-4.0034
H	1.28154	1.47539	-3.61601
C	4.42444	0.0342534	1.17571
C	5.71259	-0.651193	0.926744
O	5.94978	-1.74872	1.41211
H	3.79747	-0.593987	1.84509
H	3.8832	0.191021	0.219031
H	4.60128	1.01518	1.66517
N	6.58829	-0.00593321	0.152681
C	7.89973	-0.526124	-0.144144
C	8.82921	0.647186	-0.39106
O	8.38843	1.79125	-0.483386
H	6.39697	0.904962	-0.201608
H	8.27628	-1.05973	0.719624
C	7.85896	-1.45368	-1.37833
H	7.48267	-0.903868	-2.26724
H	8.86033	-1.87162	-1.60879
H	7.16683	-2.30059	-1.17822
N	10.1477	0.389105	-0.495877
C	11.1083	1.44302	-0.725328
H	10.4858	-0.542635	-0.41429
H	12.1396	1.02991	-0.78092
H	11.0746	2.19154	0.0992045
H	10.8904	1.97223	-1.68114
