44
  This energy is -1.7385 and Call times are: 236644
C	-0.948349	-3.34474	0.161379
C	-1.0069	-2.00204	-0.458996
O	-1.54504	-1.8289	-1.54382
H	-1.43248	-4.08295	-0.514299
H	-1.48519	-3.34102	1.13325
H	0.108173	-3.64538	0.324073
N	-0.442129	-1.00598	0.227508
C	-0.38202	0.347105	-0.266557
C	0.8468	1.01223	0.324339
O	1.49903	0.458992	1.20765
H	0.0280023	-1.16983	1.09006
H	-0.253729	0.329467	-1.34167
C	-1.65748	1.1305	0.11387
H	-1.7839	1.1579	1.21719
H	-1.6294	2.16982	-0.272836
H	-2.54461	0.621499	-0.322342
N	1.1975	2.22018	-0.159309
C	2.35491	2.92663	0.338189
H	0.659604	2.64998	-0.876953
H	2.47594	3.90076	-0.184917
H	3.27985	2.3262	0.179281
H	2.25523	3.1247	1.42996
C	5.40272	-1.82386	2.96379
C	5.97246	-0.775574	2.08763
O	6.7968	0.023393	2.51017
H	5.83016	-1.72136	3.98489
H	5.6534	-2.83073	2.56866
H	4.29929	-1.71461	3.02349
N	5.5357	-0.754497	0.826212
C	5.96551	0.232691	-0.132579
C	4.8483	0.432009	-1.1394
O	3.86878	-0.311064	-1.14854
H	4.83406	-1.38563	0.508069
H	6.11734	1.17859	0.372248
C	7.26121	-0.215984	-0.843273
H	7.10299	-1.1811	-1.37011
H	7.61001	0.542068	-1.57417
H	8.06258	-0.363431	-0.086696
N	4.96685	1.45292	-2.01101
C	3.95093	1.72298	-3.00153
H	5.76487	2.04586	-1.98541
H	4.23103	2.60226	-3.62253
H	2.97273	1.93642	-2.51281
H	3.8161	0.846171	-3.67545
