44
  This energy is -2.5508 and Call times are: 241097
C	1.51761	2.28478	-2.14227
C	0.342434	1.77709	-1.39906
O	-0.679462	2.44214	-1.29987
H	1.29495	3.30232	-2.53076
H	1.74751	1.61574	-2.998
H	2.39992	2.34174	-1.47043
N	0.465485	0.566684	-0.849372
C	-0.576248	-0.0421633	-0.0602853
C	0.0745897	-0.976632	0.942078
O	1.27475	-1.23513	0.875008
H	1.31802	0.0547683	-0.904068
H	-1.09292	0.7253	0.502461
C	-1.56726	-0.815638	-0.957428
H	-1.03949	-1.61001	-1.52705
H	-2.38197	-1.27751	-0.36291
H	-2.02547	-0.113854	-1.68811
N	-0.706745	-1.50143	1.90651
C	-0.174067	-2.39634	2.9073
H	-1.67482	-1.27721	1.94685
H	-0.972576	-2.71931	3.61107
H	0.629164	-1.89528	3.49469
H	0.261831	-3.30413	2.4308
C	4.84341	-2.62974	-2.23356
C	5.217	-2.10023	-0.902689
O	5.38359	-2.84705	0.0517337
H	4.74023	-3.73499	-2.17335
H	5.62887	-2.38214	-2.9782
H	3.87487	-2.19565	-2.56
N	5.35671	-0.775823	-0.808776
C	5.67506	-0.110062	0.42976
C	5.0838	1.28625	0.381734
O	4.60205	1.73074	-0.658485
H	5.17776	-0.177576	-1.58462
H	5.19921	-0.633826	1.24943
C	7.20317	-0.0439575	0.643645
H	7.69068	0.502452	-0.191706
H	7.46076	0.454186	1.60073
H	7.6154	-1.07635	0.667521
N	5.0996	2.01136	1.5175
C	4.5546	3.34797	1.56861
H	5.49006	1.63301	2.35025
H	4.66133	3.77744	2.5891
H	3.47273	3.34146	1.30252
H	5.08284	4.01559	0.85001
