44
  This energy is -4.1602 and Call times are: 237742
C	1.91757	2.15651	1.94553
C	0.633757	1.50439	1.60245
O	-0.332323	1.57651	2.34937
H	1.82343	2.65517	2.93464
H	2.17538	2.91966	1.18141
H	2.72851	1.39989	2.00027
N	0.59628	0.840013	0.445047
C	-0.568598	0.118969	-0.00407829
C	-0.105481	-1.02698	-0.883788
O	1.06877	-1.11456	-1.23761
H	1.40306	0.755847	-0.132783
H	-1.07238	-0.314075	0.851084
C	-1.52558	1.04739	-0.78348
H	-1.01239	1.48366	-1.66685
H	-2.43307	0.507122	-1.12274
H	-1.84532	1.88278	-0.122997
N	-1.02294	-1.94269	-1.25224
C	-0.673396	-3.07067	-2.08391
H	-1.96737	-1.85703	-0.952578
H	-1.56409	-3.70864	-2.27597
H	0.10572	-3.69589	-1.5906
H	-0.270441	-2.72655	-3.06388
C	5.67021	2.65194	-2.2467
C	5.22795	1.95045	-1.02054
O	4.49472	2.49705	-0.208126
H	5.24896	3.6807	-2.25348
H	5.31176	2.11087	-3.14754
H	6.77845	2.71725	-2.27157
N	5.67414	0.702838	-0.85693
C	5.36475	-0.0909059	0.306169
C	6.50504	-1.06615	0.530239
O	7.3955	-1.19713	-0.307396
H	6.30338	0.286037	-1.50669
H	5.31557	0.553077	1.17536
C	4.03262	-0.849386	0.118042
H	4.08618	-1.5181	-0.767396
H	3.77636	-1.45344	1.01245
H	3.21393	-0.116538	-0.0523043
N	6.50803	-1.7715	1.67849
C	7.55544	-2.71896	1.98086
H	5.78104	-1.64874	2.34593
H	7.38013	-3.19662	2.96997
H	8.54752	-2.21262	2.00711
H	7.59676	-3.51942	1.2071
