44
  This energy is -2.1772 and Call times are: 235449
C	0.764882	-1.12942	-3.20188
C	0.0528174	-0.219798	-2.27631
O	-0.539673	0.767283	-2.68987
H	0.667827	-0.745935	-4.24082
H	0.324713	-2.14751	-3.15201
H	1.84197	-1.1792	-2.93635
N	0.0983216	-0.537165	-0.980319
C	-0.510094	0.274451	0.0442148
C	0.273199	0.0801777	1.32884
O	1.14002	-0.787741	1.41279
H	0.619007	-1.32123	-0.65475
H	-0.425823	1.31859	-0.230202
C	-1.99081	-0.113913	0.248882
H	-2.07711	-1.18229	0.540698
H	-2.47428	0.513322	1.02564
H	-2.5429	0.0285112	-0.705718
N	-0.0104094	0.895675	2.36352
C	0.687262	0.788574	3.62366
H	-0.712308	1.59467	2.27512
H	0.311824	1.54592	4.34664
H	1.78045	0.950628	3.4824
H	0.54278	-0.222681	4.06822
C	3.67606	1.56591	0.718664
C	4.74535	1.16698	-0.224013
O	4.60038	1.28607	-1.43282
H	2.80031	1.9387	0.144257
H	4.03783	2.37482	1.38764
H	3.36022	0.694425	1.33009
N	5.86116	0.673928	0.318436
C	6.9716	0.203373	-0.471539
C	7.69095	-0.873908	0.318124
O	7.40314	-1.0914	1.49352
H	5.94835	0.544984	1.30212
H	6.5962	-0.256794	-1.37705
C	7.93615	1.36056	-0.81183
H	8.32974	1.82617	0.116794
H	8.78822	1.01359	-1.43161
H	7.38655	2.14065	-1.38255
N	8.64451	-1.58332	-0.31707
C	9.3783	-2.63207	0.352143
H	8.86045	-1.39546	-1.26952
H	10.1172	-3.09665	-0.337352
H	8.68627	-3.42764	0.711921
H	9.92687	-2.22732	1.23327
