44
  This energy is 0.1339 and Call times are: 235618
C	-0.996263	-1.73126	2.85007
C	-1.28355	-0.866409	1.6836
O	-2.43325	-0.622588	1.34427
H	-1.95403	-2.08651	3.28865
H	-0.437669	-1.16045	3.62136
H	-0.396752	-2.61143	2.53546
N	-0.225561	-0.377603	1.03237
C	-0.345268	0.443607	-0.146552
C	0.893785	0.23433	-0.996556
O	1.85364	-0.401332	-0.564906
H	0.704232	-0.618224	1.29591
H	-1.1957	0.111125	-0.728657
C	-0.497063	1.93324	0.231843
H	0.380123	2.27763	0.820044
H	-0.604042	2.57444	-0.667014
H	-1.40545	2.06158	0.8601
N	0.897489	0.761231	-2.23687
C	2.03043	0.608484	-3.11965
H	0.109797	1.26888	-2.5699
H	1.84089	1.11159	-4.09339
H	2.23312	-0.46937	-3.31567
H	2.94496	1.05486	-2.66629
C	5.41575	-1.51147	-1.15178
C	4.08372	-0.907148	-1.37899
O	3.69813	-0.630465	-2.50646
H	5.93784	-1.62678	-2.12645
H	5.30716	-2.51148	-0.681734
H	6.02519	-0.857716	-0.492792
N	3.34038	-0.683579	-0.292783
C	2.04076	-0.0621059	-0.350301
C	1.80472	0.662931	0.961256
O	2.57523	0.518206	1.9084
H	3.68445	-0.876385	0.621709
H	2.0355	0.682864	-1.13618
C	0.936498	-1.11403	-0.593847
H	0.93459	-1.87261	0.217693
H	-0.0675317	-0.646235	-0.65397
H	1.13383	-1.63752	-1.55476
N	0.730347	1.4722	1.0438
C	0.428494	2.20714	2.25
H	0.120727	1.5796	0.2654
H	-0.493429	2.81562	2.11945
H	1.26663	2.89267	2.51238
H	0.271176	1.51101	3.10545
