44
  This energy is -1.0419 and Call times are: 242359
C	2.17222	-1.83583	-2.00596
C	1.32831	-1.68193	-0.799614
O	1.07566	-2.63672	-0.0778446
H	2.47549	-2.90042	-2.10867
H	3.08451	-1.20923	-1.9173
H	1.60403	-1.53507	-2.91138
N	0.864433	-0.454683	-0.552502
C	-0.00404208	-0.157321	0.559203
C	-0.871604	1.02739	0.177948
O	-0.652906	1.66264	-0.851783
H	1.045	0.304129	-1.17175
H	-0.664129	-0.998242	0.731739
C	0.814902	0.157987	1.83009
H	1.48458	1.02723	1.65692
H	0.15732	0.375078	2.69668
H	1.44804	-0.71956	2.08581
N	-1.88875	1.3483	1.00163
C	-2.77052	2.45648	0.717689
H	-2.05238	0.819893	1.82812
H	-3.54231	2.55849	1.51214
H	-3.28869	2.30635	-0.257112
H	-2.19746	3.41016	0.660762
C	8.2716	-3.19422	-0.168666
C	8.03862	-1.84465	-0.73041
O	8.65862	-1.45043	-1.70846
H	9.06335	-3.7057	-0.75805
H	7.34002	-3.79611	-0.219888
H	8.60375	-3.11673	0.888095
N	7.12471	-1.09378	-0.111248
C	6.8194	0.256104	-0.515159
C	6.34742	1.02034	0.707442
O	6.12235	0.437477	1.76637
H	6.65772	-1.41316	0.708368
H	7.7237	0.736913	-0.86687
C	5.7352	0.271032	-1.61495
H	4.80376	-0.212732	-1.25104
H	5.50127	1.30415	-1.94429
H	6.0989	-0.300571	-2.49661
N	6.19397	2.35404	0.590403
C	5.75419	3.16474	1.70195
H	6.38496	2.80829	-0.273458
H	5.6903	4.2353	1.40688
H	6.46418	3.07843	2.55619
H	4.74919	2.83727	2.05391
