44
  This energy is -4.1232 and Call times are: 239377
C	1.11512	2.03475	-2.59403
C	0.33067	1.8101	-1.359
O	-0.162856	2.74513	-0.743724
H	1.16628	3.12536	-2.80337
H	0.62982	1.52622	-3.45347
H	2.14699	1.64418	-2.46833
N	0.198728	0.542236	-0.962147
C	-0.499615	0.169842	0.242926
C	0.10627	-1.12091	0.761026
O	0.918328	-1.75084	0.0861465
H	0.640728	-0.204493	-1.45092
H	-0.337584	0.928353	0.998596
C	-2.00932	-0.0110758	-0.0278327
H	-2.17657	-0.796538	-0.795368
H	-2.56027	-0.284409	0.895348
H	-2.42992	0.943184	-0.413613
N	-0.271275	-1.54208	1.98418
C	0.256504	-2.75614	2.56184
H	-0.926407	-1.01664	2.51689
H	-0.17512	-2.93101	3.57196
H	1.36461	-2.695	2.66
H	0.0146848	-3.63418	1.92019
C	5.96314	-3.39856	-0.547044
C	6.23257	-2.14138	0.186483
O	6.86607	-2.14241	1.23295
H	6.40051	-4.25244	0.0145961
H	6.42361	-3.35881	-1.55657
H	4.8685	-3.55664	-0.64624
N	5.74648	-1.02226	-0.355427
C	5.89051	0.271714	0.263809
C	4.71336	1.13118	-0.157147
O	3.93474	0.749495	-1.0288
H	5.19774	-1.04239	-1.18629
H	5.84019	0.160414	1.33977
C	7.2217	0.936366	-0.150231
H	7.26929	1.06038	-1.25314
H	7.35075	1.92745	0.331029
H	8.06865	0.286446	0.160582
N	4.55111	2.31647	0.463149
C	3.45659	3.19903	0.132577
H	5.18918	2.60621	1.16884
H	3.4956	4.12269	0.751097
H	2.47866	2.69694	0.313817
H	3.49968	3.49363	-0.940969
