44
  This energy is -2.966 and Call times are: 238200
C	-0.226987	2.15487	2.72354
C	-0.825882	1.43944	1.57436
O	-2.03826	1.39761	1.41688
H	-1.03756	2.58207	3.35311
H	0.422009	2.98089	2.36404
H	0.374675	1.45364	3.33947
N	0.0264386	0.848921	0.733398
C	-0.40765	0.0797521	-0.406122
C	0.645347	-0.97357	-0.694675
O	1.72804	-0.957845	-0.112226
H	1.00873	0.857102	0.897417
H	-1.32449	-0.440235	-0.157833
C	-0.616649	0.988057	-1.6376
H	0.326398	1.51369	-1.89915
H	-0.964327	0.409528	-2.51791
H	-1.38526	1.75593	-1.40105
N	0.346315	-1.92473	-1.60126
C	1.28396	-2.971	-1.93643
H	-0.536542	-1.92319	-2.05912
H	0.853345	-3.655	-2.70059
H	1.54157	-3.57144	-1.034
H	2.22633	-2.53853	-2.34391
C	4.02701	0.0263861	3.34146
C	4.57628	0.691966	2.13877
O	4.72796	1.9052	2.10037
H	3.79076	0.793801	4.1103
H	4.77118	-0.683782	3.75933
H	3.0967	-0.522459	3.08383
N	4.88938	-0.101866	1.11204
C	5.39338	0.403702	-0.140538
C	4.98102	-0.557993	-1.23903
O	4.47242	-1.64388	-0.967213
H	4.72194	-1.08311	1.14326
H	4.92677	1.35715	-0.354614
C	6.93024	0.550299	-0.097978
H	7.4099	-0.429611	0.111172
H	7.3291	0.951889	-1.052
H	7.2095	1.2521	0.718005
N	5.18474	-0.174534	-2.51475
C	4.81899	-1.02138	-3.62617
H	5.5938	0.709605	-2.71485
H	5.06549	-0.52971	-4.59299
H	3.72626	-1.23818	-3.61183
H	5.36414	-1.99171	-3.57702
