44
  This energy is -3.6165 and Call times are: 237909
C	-2.26272	-0.38668	-2.61596
C	-0.969748	-0.679138	-1.9573
O	-0.243108	-1.5771	-2.35988
H	-2.41761	-1.1003	-3.4542
H	-2.2611	0.647465	-3.02005
H	-3.09578	-0.498459	-1.89029
N	-0.650947	0.0851174	-0.910089
C	0.55331	-0.106921	-0.141033
C	0.290229	0.366965	1.27593
O	-0.744898	0.967971	1.55703
H	-1.27161	0.785337	-0.569009
H	0.780083	-1.16459	-0.0905652
C	1.73424	0.67114	-0.761727
H	1.50634	1.75756	-0.804044
H	2.67061	0.520199	-0.186439
H	1.90361	0.313582	-1.80087
N	1.22466	0.097815	2.20889
C	1.0584	0.504908	3.58469
H	2.05385	-0.393197	1.96306
H	1.93319	0.191474	4.19601
H	0.14247	0.0456687	4.02224
H	0.958048	1.61205	3.6576
C	4.15312	-1.84369	-2.17395
C	5.40069	-1.11521	-1.85136
O	6.37986	-1.18255	-2.58149
H	4.29616	-2.41831	-3.1148
H	3.31681	-1.12698	-2.31418
H	3.90045	-2.5508	-1.35589
N	5.39244	-0.392187	-0.72906
C	6.5451	0.336454	-0.261084
C	6.46661	0.425086	1.25138
O	5.45465	0.0680187	1.8515
H	4.60154	-0.380028	-0.123922
H	7.44211	-0.218734	-0.505551
C	6.5955	1.74863	-0.884355
H	5.68024	2.32232	-0.625078
H	7.48611	2.31474	-0.542512
H	6.64456	1.65955	-1.9916
N	7.54457	0.898922	1.90674
C	7.56363	1.01419	3.34637
H	8.35569	1.17904	1.40404
H	8.53723	1.42359	3.69526
H	7.41149	0.0183303	3.82219
H	6.75208	1.69201	3.69719
