44
  This energy is 0.1632 and Call times are: 234992
C	0.0667968	-1.45836	3.15934
C	-0.587704	-1.19924	1.85718
O	-1.58055	-1.82502	1.51213
H	-0.474924	-2.27322	3.68699
H	0.0420454	-0.544048	3.78876
H	1.12087	-1.77044	3.00245
N	-0.0341863	-0.255446	1.09216
C	-0.532343	0.0786362	-0.218864
C	0.62895	0.591271	-1.04962
O	1.7211	0.818682	-0.532693
H	0.797886	0.216709	1.36892
H	-0.901856	-0.818419	-0.699887
C	-1.64687	1.14412	-0.130542
H	-1.26541	2.06844	0.353353
H	-2.04831	1.39974	-1.13256
H	-2.48261	0.750582	0.488346
N	0.420365	0.777993	-2.36782
C	1.46824	1.2578	-3.23842
H	-0.469054	0.584526	-2.76854
H	1.10105	1.34502	-4.28474
H	2.33696	0.560295	-3.22886
H	1.82618	2.25958	-2.90757
C	1.76623	1.09287	-1.18692
C	2.63834	0.0616866	-0.58091
O	2.16933	-0.95916	-0.0968488
H	0.704635	0.775701	-1.09598
H	2.01282	1.2189	-2.26212
H	1.89792	2.06228	-0.661584
N	3.9497	0.311849	-0.59283
C	4.91957	-0.576738	-0.00264969
C	6.10942	0.251491	0.444437
O	6.20344	1.43749	0.134172
H	4.31305	1.166	-0.953736
H	4.49378	-1.03346	0.882064
C	5.36179	-1.65926	-1.01153
H	5.80831	-1.19153	-1.9148
H	6.09825	-2.3581	-0.564582
H	4.47411	-2.24776	-1.33097
N	7.04768	-0.357003	1.19638
C	8.21212	0.352692	1.67237
H	6.95202	-1.31631	1.44061
H	8.86397	-0.319308	2.27299
H	7.9127	1.21421	2.31222
H	8.80804	0.747861	0.818048
