44
  This energy is 0.1214 and Call times are: 237654
C	-1.84369	-1.82316	-2.32155
C	-1.74561	-0.96837	-1.11703
O	-2.74229	-0.472615	-0.609811
H	-2.90707	-1.89029	-2.6387
H	-1.47035	-2.84451	-2.09745
H	-1.24834	-1.38585	-3.15065
N	-0.519466	-0.772567	-0.626525
C	-0.260226	0.0693981	0.514723
C	1.14162	0.633019	0.377976
O	1.90249	0.223538	-0.496741
H	0.286279	-1.14939	-1.07446
H	-0.946936	0.906627	0.504317
C	-0.397523	-0.727324	1.83064
H	0.314146	-1.58015	1.84634
H	-0.21386	-0.0866698	2.7174
H	-1.42846	-1.13705	1.90573
N	1.51422	1.59871	1.24091
C	2.82697	2.19835	1.18348
H	0.883154	1.91985	1.93926
H	2.94109	2.97155	1.97491
H	2.99484	2.68218	0.194036
H	3.61793	1.4275	1.32946
C	6.64813	-0.959959	-1.13159
C	5.20437	-0.715048	-1.34778
O	4.72614	-0.702194	-2.47363
H	7.14898	-1.09522	-2.11481
H	6.79385	-1.87821	-0.52469
H	7.10901	-0.0950419	-0.609498
N	4.46699	-0.509584	-0.253965
C	3.0565	-0.215852	-0.306901
C	2.70173	0.620969	0.907775
O	3.51666	0.796318	1.81157
H	4.87788	-0.482445	0.652835
H	2.84932	0.384574	-1.18393
C	2.22281	-1.51571	-0.331182
H	2.42711	-2.12709	0.573533
H	1.13549	-1.30295	-0.385922
H	2.50463	-2.11583	-1.2238
N	1.47069	1.16735	0.952751
C	1.04604	1.98323	2.06638
H	0.826592	1.01751	0.20994
H	0.00298517	2.33976	1.9175
H	1.70801	2.87256	2.17668
H	1.0862	1.40301	3.01658
