44
  This energy is -3.5287 and Call times are: 240321
C	-1.36432	-1.47773	2.84036
C	-0.351326	-0.631513	2.17035
O	0.421725	0.0620771	2.81668
H	-1.28673	-1.34166	3.94097
H	-1.19094	-2.54713	2.59735
H	-2.38433	-1.18517	2.51313
N	-0.33503	-0.669481	0.835936
C	0.564332	0.13101	0.0428901
C	-0.0994598	0.404634	-1.29355
O	-1.14205	-0.166443	-1.60754
H	-0.997553	-1.20758	0.322732
H	0.715657	1.08648	0.529522
C	1.91339	-0.59275	-0.160688
H	1.75981	-1.5683	-0.66937
H	2.61959	0.0194411	-0.758208
H	2.37734	-0.789884	0.830395
N	0.489507	1.29772	-2.11302
C	-0.0726862	1.626	-3.40235
H	1.33058	1.75263	-1.83966
H	0.556432	2.3796	-3.92534
H	-1.09889	2.04454	-3.28833
H	-0.139498	0.7182	-4.04467
C	4.17084	-0.256492	3.22656
C	4.8592	0.495818	2.15356
O	5.0675	1.69687	2.25603
H	3.898	0.441556	4.04763
H	4.8404	-1.04395	3.63194
H	3.24527	-0.725927	2.83155
N	5.23143	-0.206752	1.08107
C	5.87233	0.394022	-0.0621133
C	5.52226	-0.429124	-1.28745
O	4.94277	-1.50787	-1.17696
H	5.01842	-1.17576	0.994399
H	5.47057	1.38783	-0.21558
C	7.40346	0.452773	0.131391
H	7.81749	-0.567533	0.278362
H	7.90724	0.925963	-0.736256
H	7.63604	1.05319	1.03789
N	5.86123	0.0687985	-2.49293
C	5.56384	-0.641454	-3.71492
H	6.32606	0.945267	-2.56233
H	5.92127	-0.0692937	-4.5993
H	4.46601	-0.799538	-3.82012
H	6.05838	-1.63972	-3.71965
