44
  This energy is -4.2908 and Call times are: 236746
C	-0.974823	-0.843274	3.23285
C	-0.744254	0.148004	2.15798
O	-1.14412	1.29936	2.2623
H	-1.54711	-0.364823	4.05713
H	-0.00491372	-1.20687	3.63261
H	-1.55882	-1.70297	2.84174
N	-0.0843632	-0.286309	1.08173
C	0.17779	0.549399	-0.063441
C	0.263652	-0.340809	-1.28888
O	0.280878	-1.56519	-1.17791
H	0.198913	-1.23704	0.993821
H	-0.656537	1.22348	-0.212243
C	1.48933	1.34362	0.121842
H	2.3472	0.652328	0.26401
H	1.69512	2.00138	-0.747366
H	1.40687	1.98192	1.02855
N	0.311314	0.258463	-2.49496
C	0.388485	-0.507478	-3.71708
H	0.292179	1.25035	-2.56472
H	0.418196	0.165821	-4.60196
H	-0.495441	-1.17832	-3.81666
H	1.30517	-1.14051	-3.72698
C	4.06825	-3.19424	0.0184559
C	5.03355	-2.18899	0.517275
O	5.69761	-2.39409	1.52394
H	4.0677	-4.07264	0.699824
H	4.3568	-3.52952	-0.99991
H	3.046	-2.76155	-0.0108603
N	5.13179	-1.05958	-0.187817
C	5.99577	0.0285594	0.196969
C	5.3886	1.31968	-0.318726
O	4.42549	1.30159	-1.08279
H	4.55492	-0.890186	-0.981781
H	6.02642	0.0954742	1.27734
C	7.41732	-0.167262	-0.374061
H	7.38763	-0.225411	-1.48302
H	8.09581	0.657147	-0.0731907
H	7.83889	-1.12173	0.0101466
N	5.93686	2.47832	0.0971675
C	5.42268	3.75647	-0.336575
H	6.71319	2.47271	0.718735
H	6.00671	4.58884	0.114323
H	4.35631	3.87342	-0.0357885
H	5.4806	3.84766	-1.44539
