44
  This energy is -4.0266 and Call times are: 241861
C	2.13741	1.33269	-2.40169
C	1.80105	0.323054	-1.37279
O	2.46771	-0.694292	-1.24248
H	3.02261	0.987857	-2.97908
H	2.37827	2.30388	-1.92052
H	1.28379	1.46752	-3.099
N	0.738843	0.586214	-0.608033
C	0.263095	-0.32091	0.406536
C	-1.23152	-0.113338	0.563387
O	-1.79896	0.824554	0.00653419
H	0.181855	1.39895	-0.753245
H	0.414008	-1.34022	0.0735647
C	0.987462	-0.0766975	1.74851
H	0.824231	0.965784	2.09582
H	0.639765	-0.77828	2.53426
H	2.08029	-0.226316	1.60822
N	-1.90886	-0.995539	1.32428
C	-3.33445	-0.881336	1.52637
H	-1.43291	-1.75032	1.76342
H	-3.70568	-1.7003	2.18113
H	-3.87483	-0.938022	0.553719
H	-3.58679	0.0923895	2.00525
C	5.34198	-2.4467	-2.47281
C	5.49571	-2.02548	-1.0621
O	5.49433	-2.84428	-0.153261
H	5.2188	-3.55073	-2.51512
H	6.24235	-2.16288	-3.05722
H	4.44536	-1.96768	-2.91966
N	5.63169	-0.715148	-0.845452
C	5.74762	-0.150008	0.475809
C	5.18699	1.2592	0.438347
O	4.88862	1.7901	-0.629748
H	5.58978	-0.0573699	-1.59206
H	5.13731	-0.721786	1.16371
C	7.21989	-0.13482	0.942117
H	7.84453	0.460425	0.242444
H	7.32073	0.285352	1.96379
H	7.61175	-1.17532	0.954282
N	5.02217	1.89801	1.61341
C	4.49012	3.23932	1.67647
H	5.26553	1.45043	2.46754
H	4.431	3.58979	2.73046
H	3.46719	3.27719	1.23664
H	5.13688	3.94586	1.10757
