44
  This energy is -3.6991 and Call times are: 237226
C	0.864495	2.13666	2.60769
C	0.124501	0.974886	2.06562
O	-0.453573	0.19117	2.80591
H	0.800732	2.1274	3.71752
H	0.421888	3.08234	2.23016
H	1.9326	2.08344	2.30865
N	0.128684	0.835618	0.73785
C	-0.510944	-0.268315	0.0664585
C	0.231149	-0.526746	-1.23126
O	1.09396	0.253439	-1.62948
H	0.637986	1.45865	0.151074
H	-0.416932	-1.15926	0.674739
C	-1.9978	0.0424518	-0.212673
H	-2.09442	0.95036	-0.845449
H	-2.50492	-0.805492	-0.717006
H	-2.51929	0.236026	0.750096
N	-0.0841515	-1.6409	-1.92066
C	0.57323	-1.97229	-3.16332
H	-0.782162	-2.26218	-1.58027
H	0.175935	-2.92558	-3.57637
H	1.67051	-2.0877	-3.00861
H	0.413694	-1.16915	-3.91874
C	4.84341	0.0896194	3.44909
C	5.217	0.728117	2.16695
O	5.38359	1.93735	2.08687
H	4.74023	0.871613	4.23248
H	5.62887	-0.630356	3.76124
H	3.87487	-0.443123	3.34337
N	5.35671	-0.0852035	1.11748
C	5.67506	0.393624	-0.204615
C	5.0838	-0.573414	-1.21299
O	4.60205	-1.64494	-0.850426
H	5.17776	-1.06229	1.18916
H	5.19921	1.35369	-0.361023
C	7.20317	0.508905	-0.396518
H	7.69068	-0.477947	-0.246527
H	7.46076	0.889814	-1.40601
H	7.6154	1.21524	0.356807
N	5.0996	-0.21074	-2.51077
C	4.5546	-1.0641	-3.54079
H	5.49006	0.662086	-2.78425
H	4.66133	-0.590145	-4.54139
H	3.47273	-1.25802	-3.35846
H	5.08284	-2.04479	-3.55897
