44
  This energy is -3.1978 and Call times are: 235814
C	0.328914	1.60145	-3.07244
C	0.544453	1.53144	-1.60964
O	1.2938	2.31422	-1.04205
H	0.947782	2.4221	-3.49602
H	-0.739779	1.80701	-3.2924
H	0.626715	0.643889	-3.54939
N	-0.118155	0.573413	-0.957328
C	0.0224753	0.353366	0.460545
C	-0.239731	-1.11459	0.739664
O	-0.674774	-1.85505	-0.140209
H	-0.692756	-0.0820571	-1.43905
H	1.04395	0.560177	0.754561
C	-0.960246	1.23985	1.25656
H	-2.00892	1.02061	0.96288
H	-0.85208	1.08974	2.35031
H	-0.755277	2.30914	1.03083
N	0.0289504	-1.57333	1.97797
C	-0.183962	-2.95677	2.33426
H	0.384348	-0.959811	2.67536
H	0.0960316	-3.13711	3.39554
H	0.43075	-3.62716	1.69085
H	-1.25407	-3.23668	2.20133
C	4.54182	-1.48668	-3.07723
C	5.02414	-0.355814	-2.25281
O	5.62731	0.582109	-2.7557
H	4.83547	-1.32047	-4.13647
H	3.43546	-1.55887	-3.01808
H	4.99351	-2.43766	-2.72409
N	4.76608	-0.422623	-0.944636
C	5.20924	0.580781	-0.00903874
C	5.39973	-0.0831931	1.34167
O	5.02781	-1.23936	1.53314
H	4.30998	-1.21217	-0.544071
H	6.17458	0.959062	-0.321523
C	4.18391	1.73124	0.0929204
H	3.19615	1.34524	0.423633
H	4.52027	2.51705	0.799945
H	4.05443	2.19724	-0.908287
N	5.99572	0.635671	2.31329
C	6.22419	0.0850805	3.6289
H	6.29346	1.56827	2.13809
H	6.72564	0.829989	4.28532
H	6.87049	-0.820447	3.56892
H	5.26073	-0.209322	4.10452
