44
  This energy is -3.0177 and Call times are: 236124
C	-0.454081	1.3783	3.16335
C	-0.978678	0.785304	1.91263
O	-2.14908	0.44266	1.81684
H	-1.26781	1.41983	3.91966
H	-0.0868144	2.40877	2.97367
H	0.375968	0.757842	3.56228
N	-0.107578	0.647188	0.910392
C	-0.459129	0.0475856	-0.352718
C	0.788531	-0.585536	-0.939283
O	1.8911	-0.393504	-0.430191
H	0.8516	0.892993	1.01728
H	-1.17522	-0.746997	-0.183962
C	-1.03816	1.10169	-1.32165
H	-0.299939	1.91166	-1.50338
H	-1.32561	0.649743	-2.29306
H	-1.94557	1.55741	-0.868579
N	0.640741	-1.36752	-2.02679
C	1.77049	-2.0162	-2.65055
H	-0.260028	-1.51428	-2.42195
H	1.44431	-2.61464	-3.52959
H	2.27817	-2.69858	-1.93091
H	2.51498	-1.26277	-2.99582
C	7.41156	-2.99504	-1.77049
C	7.93652	-1.6295	-1.54495
O	8.92543	-1.2251	-2.14071
H	8.05789	-3.51999	-2.50706
H	6.37707	-2.94608	-2.17073
H	7.41285	-3.56751	-0.818995
N	7.27502	-0.877736	-0.661968
C	7.69065	0.455926	-0.305381
C	7.23413	0.729658	1.11526
O	6.48284	-0.0508145	1.69676
H	6.49607	-1.23519	-0.154705
H	8.77231	0.506779	-0.312053
C	7.09349	1.49802	-1.27631
H	5.98361	1.45345	-1.26199
H	7.41741	2.52768	-1.02056
H	7.43432	1.27355	-2.31061
N	7.68781	1.84893	1.71311
C	7.31142	2.18926	3.0654
H	8.29828	2.46611	1.22784
H	7.7868	3.14533	3.37714
H	7.63074	1.39152	3.77457
H	6.20636	2.30333	3.14893
