44
  This energy is -2.1151 and Call times are: 241552
C	1.69735	0.946582	2.88716
C	0.933136	1.26673	1.66052
O	0.506924	2.39509	1.45669
H	1.77209	1.85659	3.52133
H	2.72108	0.607744	2.62275
H	1.18129	0.14913	3.46235
N	0.738345	0.261801	0.803459
C	-0.0226526	0.408705	-0.412214
C	-0.636524	-0.936528	-0.751424
O	-0.316942	-1.94897	-0.131307
H	1.05617	-0.660783	1.00269
H	-0.837437	1.1014	-0.242112
C	0.874631	0.901493	-1.56862
H	1.70462	0.185898	-1.75051
H	0.297375	1.03183	-2.50687
H	1.31941	1.88323	-1.2953
N	-1.54518	-0.976297	-1.74581
C	-2.18632	-2.21067	-2.13496
H	-1.79386	-0.145847	-2.23323
H	-2.90079	-2.03662	-2.96951
H	-2.74807	-2.64858	-1.27825
H	-1.4306	-2.95746	-2.47011
C	10.5279	-2.131	-0.361057
C	9.78149	-1.08173	0.3691
O	10.1019	-0.749022	1.50181
H	11.3432	-2.52005	0.286847
H	10.9742	-1.7096	-1.28626
H	9.84916	-2.96879	-0.626672
N	8.7501	-0.530204	-0.274657
C	7.90314	0.47247	0.321884
C	6.52554	0.361106	-0.303728
O	6.3322	-0.366691	-1.27565
H	8.47636	-0.840383	-1.18059
H	7.79489	0.26557	1.37928
C	8.48432	1.8866	0.103464
H	8.58571	2.10338	-0.981325
H	7.84832	2.66647	0.570201
H	9.49557	1.94268	0.562336
N	5.52799	1.07917	0.248799
C	4.18287	1.03232	-0.275257
H	5.70305	1.65923	1.03744
H	3.50779	1.69065	0.314749
H	3.78189	-0.00640127	-0.235743
H	4.16258	1.37005	-1.3367
