44
  This energy is 1.4954 and Call times are: 238692
C	1.40084	-2.54103	1.92185
C	1.494	-1.25615	1.19278
O	2.47517	-0.53428	1.30517
H	2.31341	-2.67864	2.54165
H	1.32391	-3.38402	1.20338
H	0.511549	-2.54007	2.58687
N	0.454905	-0.936925	0.417699
C	0.381423	0.299928	-0.319428
C	-1.08139	0.668652	-0.479988
O	-1.9685	-0.121343	-0.162713
H	-0.354334	-1.51534	0.368378
H	0.851255	1.08746	0.256486
C	1.05937	0.160451	-1.70007
H	0.570941	-0.640233	-2.29536
H	1.0216	1.1103	-2.2718
H	2.12665	-0.117444	-1.55846
N	-1.36799	1.88995	-0.972252
C	-2.73135	2.33045	-1.15491
H	-0.636533	2.5168	-1.21945
H	-2.75906	3.36222	-1.56954
H	-3.2783	2.328	-0.184282
H	-3.27174	1.65543	-1.85738
C	8.29495	-2.68346	-1.41584
C	8.43115	-1.61618	-0.399214
O	7.50364	-1.32844	0.34465
H	7.26739	-3.10523	-1.37016
H	9.02587	-3.49556	-1.21843
H	8.46847	-2.26904	-2.43133
N	9.61121	-0.994035	-0.346369
C	9.88057	0.0936899	0.560743
C	10.9309	0.987527	-0.0712297
O	11.5174	0.643056	-1.09546
H	10.343	-1.21155	-0.985894
H	8.9832	0.687282	0.683182
C	10.3705	-0.435381	1.92651
H	11.297	-1.03565	1.80274
H	10.5681	0.392092	2.63838
H	9.5896	-1.09322	2.36677
N	11.1876	2.16855	0.52483
C	12.1669	3.08697	-0.00775642
H	10.6999	2.43156	1.35065
H	12.2327	4.00097	0.622743
H	11.8946	3.39448	-1.0434
H	13.1738	2.61145	-0.0423201
