44
  This energy is -1.5004 and Call times are: 241173
C	-0.992668	2.49117	-2.21842
C	-0.341406	1.19583	-1.91993
O	-0.0166299	0.429238	-2.81618
H	-1.12394	2.59155	-3.31777
H	-0.362486	3.32938	-1.85372
H	-1.98954	2.53946	-1.73159
N	-0.135287	0.918463	-0.630367
C	0.448689	-0.321049	-0.181878
C	-0.0864791	-0.621308	1.20556
O	-0.748518	0.213294	1.81945
H	-0.442267	1.53423	0.0896713
H	0.126076	-1.12407	-0.832809
C	1.99016	-0.228329	-0.159304
H	2.32194	0.588511	0.516514
H	2.45216	-1.18117	0.171116
H	2.35913	-0.00014301	-1.18309
N	0.183034	-1.83259	1.73109
C	-0.289383	-2.20951	3.04293
H	0.716857	-2.4961	1.21741
H	0.0349055	-3.24302	3.29575
H	-1.40202	-2.17096	3.08579
H	0.110184	-1.51682	3.8186
C	4.23602	0.772071	2.61417
C	5.51467	0.235638	2.09603
O	6.44427	-0.0218852	2.84832
H	4.30865	0.893655	3.7168
H	3.40582	0.0717793	2.38373
H	4.02269	1.76122	2.15684
N	5.59075	0.054906	0.775453
C	6.7839	-0.419262	0.119636
C	6.80293	0.140533	-1.29027
O	5.82458	0.728031	-1.74787
H	4.84009	0.30769	0.171741
H	7.65329	-0.0285644	0.633578
C	6.82068	-1.96296	0.0898568
H	5.93435	-2.36398	-0.446479
H	7.74138	-2.3405	-0.400335
H	6.79792	-2.35077	1.13169
N	7.92872	-0.0227641	-2.01272
C	8.04096	0.481118	-3.36168
H	8.7114	-0.497318	-1.62377
H	9.04204	0.247727	-3.78664
H	7.90098	1.58625	-3.38108
H	7.26582	0.0233757	-4.01801
