44
  This energy is -5.2133 and Call times are: 238379
C	1.42529	1.7366	2.65809
C	0.852732	1.68248	1.29413
O	0.574619	2.70523	0.68334
H	1.51751	2.79792	2.97587
H	2.43241	1.26934	2.66919
H	0.762932	1.20381	3.37258
N	0.659045	0.465853	0.779667
C	0.070222	0.251772	-0.5188
C	-0.635365	-1.09115	-0.502582
O	-0.500739	-1.86189	0.445862
H	0.852234	-0.357871	1.30505
H	-0.682238	1.00935	-0.699118
C	1.14735	0.284177	-1.62514
H	1.91384	-0.49976	-1.44637
H	0.704617	0.134337	-2.63116
H	1.65598	1.27286	-1.6133
N	-1.41622	-1.39998	-1.55658
C	-2.1311	-2.65308	-1.62625
H	-1.51594	-0.761631	-2.31265
H	-2.71725	-2.71955	-2.56924
H	-2.83502	-2.75192	-0.768341
H	-1.42264	-3.51219	-1.59225
C	4.98513	3.1051	1.54591
C	5.13886	2.2136	0.374261
O	5.39453	2.66344	-0.734201
H	5.11984	4.16072	1.22439
H	5.74954	2.863	2.31391
H	3.97146	2.98953	1.9843
N	4.98121	0.906907	0.598061
C	5.05824	-0.0797789	-0.450305
C	4.18349	-1.25568	-0.0583092
O	3.69262	-1.32802	1.06664
H	4.73291	0.5595	1.49779
H	4.64975	0.33603	-1.36292
C	6.5164	-0.539022	-0.669628
H	6.93247	-0.975319	0.263418
H	6.59075	-1.28868	-1.48388
H	7.13973	0.338741	-0.947717
N	3.96046	-2.20612	-0.987241
C	3.13658	-3.35879	-0.706618
H	4.36297	-2.12799	-1.8933
H	3.07438	-4.02369	-1.59616
H	2.10371	-3.04547	-0.430376
H	3.55769	-3.94585	0.141423
