44
  This energy is -3.743 and Call times are: 236515
C	2.32521	-1.37351	-2.19535
C	1.72153	-0.220544	-1.4901
O	2.26122	0.877238	-1.49423
H	3.28363	-1.05785	-2.6619
H	1.64085	-1.73671	-2.99064
H	2.52851	-2.19686	-1.47851
N	0.569173	-0.449793	-0.856136
C	-0.115753	0.561988	-0.0908014
C	-0.903916	-0.127791	1.00672
O	-1.01712	-1.35192	1.02662
H	0.163075	-1.35871	-0.827542
H	0.61407	1.20175	0.389508
C	-1.05533	1.39337	-0.991497
H	-1.81085	0.738969	-1.47625
H	-1.57814	2.18486	-0.416403
H	-0.458396	1.88255	-1.79195
N	-1.46355	0.647455	1.95637
C	-2.22706	0.0793309	3.04286
H	-1.35746	1.63582	1.92559
H	-2.60394	0.8784	3.71864
H	-1.59832	-0.618593	3.64191
H	-3.1008	-0.491367	2.65296
C	5.11076	2.70664	-2.18754
C	5.33619	1.27408	-1.8907
O	5.50721	0.460908	-2.78843
H	5.11196	2.85813	-3.28885
H	5.9188	3.32213	-1.73922
H	4.12988	3.0319	-1.78113
N	5.339	0.928519	-0.60114
C	5.50279	-0.433618	-0.158072
C	4.78294	-0.589376	1.16825
O	4.3346	0.390477	1.76035
H	5.15762	1.59496	0.116366
H	5.02378	-1.09932	-0.865189
C	6.99827	-0.788724	-0.00747154
H	7.48776	-0.112819	0.725738
H	7.13795	-1.83936	0.319896
H	7.50659	-0.659989	-0.987973
N	4.64784	-1.83524	1.66382
C	3.97274	-2.08124	2.91677
H	5.01372	-2.61597	1.16818
H	3.96488	-3.16827	3.15245
H	2.91812	-1.72488	2.8713
H	4.48261	-1.54533	3.74982
