44
  This energy is -2.9728 and Call times are: 237061
C	1.47518	-0.510573	3.1106
C	1.09015	-0.975008	1.75886
O	1.52299	-2.0244	1.30296
H	2.18348	-1.23924	3.56142
H	0.577235	-0.433914	3.75912
H	1.97121	0.480935	3.04771
N	0.255013	-0.188055	1.0765
C	-0.175559	-0.485161	-0.266969
C	-0.477398	0.826066	-0.967776
O	-0.498924	1.88422	-0.342022
H	-0.0564159	0.683281	1.44481
H	0.635501	-0.959429	-0.805376
C	-1.4241	-1.39417	-0.257827
H	-2.25979	-0.903609	0.285326
H	-1.7572	-1.64145	-1.28662
H	-1.18248	-2.34431	0.266773
N	-0.710767	0.786733	-2.29443
C	-1.00118	1.98504	-3.0467
H	-0.68492	-0.0784987	-2.7841
H	-1.16288	1.74556	-4.12081
H	-0.158087	2.70955	-2.97223
H	-1.9187	2.4817	-2.65601
C	3.74231	-0.735051	-2.70894
C	3.9592	-0.211654	-1.3414
O	3.0845	0.41187	-0.756144
H	2.72519	-0.449025	-3.05464
H	3.82497	-1.84225	-2.71253
H	4.49265	-0.306297	-3.40624
N	5.15227	-0.456464	-0.79456
C	5.52624	0.0254833	0.511743
C	7.03158	0.212692	0.533736
O	7.72985	-0.189403	-0.394942
H	5.86849	-0.92998	-1.29921
H	5.07789	0.997439	0.675757
C	5.08775	-0.965806	1.61188
H	5.55578	-1.96019	1.45003
H	5.35775	-0.599371	2.62349
H	3.98393	-1.0936	1.57197
N	7.56818	0.839805	1.59901
C	8.99053	1.06776	1.70456
H	6.98647	1.16165	2.33867
H	9.23469	1.5975	2.65166
H	9.35326	1.68758	0.852777
H	9.54557	0.101922	1.68966
