44
  This energy is -3.0548 and Call times are: 240292
C	-2.02929	1.8204	2.16352
C	-0.91219	0.885102	1.90189
O	-0.131222	0.568074	2.78845
H	-1.99197	2.14939	3.22477
H	-3.00132	1.31722	1.97723
H	-1.94327	2.71227	1.50758
N	-0.809438	0.417198	0.65574
C	0.250191	-0.466909	0.238485
C	0.50118	-0.23946	-1.24031
O	-0.255899	0.463676	-1.90675
H	-1.42833	0.716371	-0.064912
H	1.16049	-0.206423	0.763971
C	-0.125096	-1.94141	0.503497
H	-1.05311	-2.21215	-0.0437966
H	0.688522	-2.63131	0.199197
H	-0.31203	-2.08289	1.59041
N	1.583	-0.826961	-1.78852
C	1.90512	-0.662787	-3.1869
H	2.1861	-1.38895	-1.23219
H	2.83071	-1.22276	-3.44563
H	2.06686	0.412601	-3.42909
H	1.07596	-1.04016	-3.82818
C	3.51425	0.489341	2.27754
C	4.47033	0.989382	1.26412
O	4.36727	2.11569	0.798038
H	2.75347	1.27343	2.48316
H	4.04755	0.249724	3.22142
H	3.00012	-0.420628	1.90244
N	5.4371	0.146542	0.89349
C	6.41533	0.474506	-0.113517
C	6.85913	-0.814408	-0.779333
O	6.51869	-1.90616	-0.327786
H	5.48361	-0.781568	1.25169
H	5.95148	1.08817	-0.875674
C	7.62431	1.20633	0.509409
H	8.10691	0.572948	1.28398
H	8.37831	1.47657	-0.258044
H	7.27501	2.1422	0.997746
N	7.62816	-0.716186	-1.88159
C	8.09364	-1.88842	-2.58542
H	7.88989	0.176121	-2.23423
H	8.71096	-1.59997	-3.46459
H	7.23327	-2.49753	-2.94599
H	8.71334	-2.52834	-1.91639
