44
  This energy is -3.8231 and Call times are: 235166
C	0.555714	3.37386	0.648819
C	-0.115222	2.08537	0.933071
O	-0.773253	1.92557	1.95183
H	0.364878	4.07988	1.48607
H	0.157883	3.81359	-0.289852
H	1.65118	3.22127	0.550035
N	0.0417086	1.12114	0.0231172
C	-0.514762	-0.199469	0.180848
C	0.37193	-1.17856	-0.565278
O	1.27352	-0.778521	-1.29932
H	0.614045	1.25309	-0.781177
H	-0.489819	-0.474917	1.22781
C	-1.96021	-0.257284	-0.360068
H	-1.98495	0.0149916	-1.43677
H	-2.40464	-1.26551	-0.231702
H	-2.58917	0.472713	0.194781
N	0.139726	-2.49392	-0.386533
C	0.936061	-3.49921	-1.05094
H	-0.591764	-2.79826	0.214607
H	0.590393	-4.51997	-0.775668
H	2.00848	-3.40326	-0.764609
H	0.863074	-3.39055	-2.15728
C	3.77121	-0.445789	-3.22554
C	4.4257	-0.953145	-1.9986
O	4.60465	-2.15084	-1.82563
H	3.4917	-1.30407	-3.87445
H	4.46603	0.215873	-3.78427
H	2.8527	0.120389	-2.96313
N	4.8013	-0.036247	-1.10383
C	5.41127	-0.379187	0.15668
C	5.0659	0.705252	1.15982
O	4.51565	1.74413	0.799741
H	4.61193	0.931929	-1.24033
H	4.98227	-1.30424	0.521175
C	6.94286	-0.513283	0.0100557
H	7.38471	0.438772	-0.35381
H	7.42272	-0.790721	0.970931
H	7.17219	-1.30665	-0.734471
N	5.37585	0.483086	2.45233
C	5.0803	1.45563	3.47847
H	5.8172	-0.365434	2.72492
H	5.41112	1.08872	4.47505
H	3.98555	1.65723	3.52495
H	5.60004	2.41848	3.26887
