44
  This energy is -3.595 and Call times are: 235932
C	1.5013	-3.09412	-0.534079
C	1.05016	-2.00078	0.355993
O	1.03221	-2.14043	1.57114
H	1.77181	-3.9801	0.0805254
H	2.39238	-2.77297	-1.11337
H	0.687704	-3.37761	-1.23465
N	0.667193	-0.869565	-0.240725
C	0.163105	0.266653	0.48966
C	-0.790788	1.02466	-0.414257
O	-0.892965	0.736427	-1.60514
H	0.648646	-0.785314	-1.23291
H	-0.407598	-0.0810098	1.34175
C	1.31779	1.18371	0.948952
H	1.89717	1.54912	0.0744051
H	0.943537	2.05507	1.52445
H	2.00741	0.60613	1.60253
N	-1.52229	2.01306	0.13711
C	-2.46018	2.78529	-0.644045
H	-1.42872	2.22884	1.10342
H	-2.96365	3.54923	-0.0114805
H	-3.24175	2.12487	-1.08479
H	-1.93962	3.30854	-1.47853
C	5.0948	-2.4425	-2.47869
C	5.16801	-2.02712	-1.0598
O	5.0592	-2.84308	-0.154937
H	4.91849	-3.53883	-2.5318
H	6.04827	-2.20635	-2.99626
H	4.25843	-1.91893	-2.98803
N	5.35512	-0.725094	-0.831505
C	5.40451	-0.164205	0.495717
C	4.92109	1.27184	0.42061
O	4.72802	1.81538	-0.665205
H	5.40088	-0.0674149	-1.57798
H	4.71773	-0.702631	1.13685
C	6.83823	-0.223739	1.06681
H	7.54134	0.337366	0.415007
H	6.88672	0.192593	2.09386
H	7.17428	-1.28295	1.10522
N	4.70514	1.92045	1.58194
C	4.23948	3.28741	1.60903
H	4.8631	1.46255	2.45054
H	4.12271	3.64241	2.65668
H	3.25415	3.37692	1.09679
H	4.96092	3.95878	1.08947
