44
  This energy is -1.4914 and Call times are: 242387
C	-2.05371	-0.0109975	2.80977
C	-1.06532	0.63976	1.92054
O	-0.79688	1.82776	2.03462
H	-2.46659	0.743356	3.5143
H	-1.56809	-0.820585	3.39414
H	-2.8861	-0.436316	2.21033
N	-0.494583	-0.138141	0.99777
C	0.453652	0.361325	0.0334337
C	0.355309	-0.495906	-1.21438
O	-0.314913	-1.52668	-1.21912
H	-0.753597	-1.09381	0.890616
H	0.180249	1.37104	-0.246502
C	1.88909	0.3269	0.602277
H	2.17391	-0.710348	0.879817
H	2.62687	0.721979	-0.125813
H	1.93569	0.954333	1.51907
N	1.01943	-0.0817956	-2.31142
C	0.979829	-0.829887	-3.54631
H	1.55312	0.757106	-2.28935
H	1.58803	-0.327209	-4.3303
H	-0.0666324	-0.919109	-3.91811
H	1.38166	-1.85804	-3.39607
C	8.73045	-2.00492	-1.76583
C	7.36474	-1.66801	-1.30486
O	6.38239	-2.22416	-1.77612
H	8.66894	-2.77764	-2.56268
H	9.33111	-2.40552	-0.922346
H	9.22868	-1.10229	-2.17825
N	7.27216	-0.731281	-0.358103
C	6.00948	-0.266889	0.160103
C	6.18542	1.16862	0.618272
O	7.30167	1.68175	0.667253
H	8.07814	-0.258449	-0.0135983
H	5.2759	-0.263645	-0.636435
C	5.53363	-1.15452	1.33097
H	6.28103	-1.14979	2.15281
H	4.55557	-0.815464	1.72966
H	5.41934	-2.20162	0.974804
N	5.07776	1.85655	0.958657
C	5.14695	3.22968	1.40125
H	4.1829	1.42551	0.908572
H	4.13152	3.61948	1.63403
H	5.59747	3.87446	0.612211
H	5.77452	3.31613	2.31767
