44
  This energy is -2.9609 and Call times are: 238056
C	-2.33043	2.11323	1.48863
C	-0.990743	1.4865	1.42878
O	-0.0760829	1.87871	2.1401
H	-2.31542	2.94208	2.22935
H	-3.08916	1.36541	1.80144
H	-2.6052	2.52466	0.494486
N	-0.843486	0.482489	0.561226
C	0.411833	-0.197148	0.359166
C	0.444784	-0.715877	-1.0661
O	-0.558365	-0.67189	-1.77566
H	-1.58596	0.201558	-0.0401653
H	1.22307	0.512605	0.462953
C	0.577581	-1.35958	1.36242
H	-0.248695	-2.09339	1.24917
H	1.54654	-1.88213	1.2261
H	0.542426	-0.957864	2.39864
N	1.61014	-1.21506	-1.52304
C	1.73792	-1.72641	-2.8678
H	2.41206	-1.23844	-0.935287
H	2.77217	-2.09139	-3.05312
H	1.50784	-0.931532	-3.61379
H	1.03218	-2.57196	-3.0355
C	5.50245	-1.26011	3.24085
C	4.87001	-0.649078	2.05013
O	3.65347	-0.567636	1.95116
H	4.71073	-1.60799	3.93943
H	6.13868	-0.513926	3.76158
H	6.12389	-2.12987	2.94017
N	5.6973	-0.200734	1.10304
C	5.22999	0.379214	-0.131393
C	6.27557	0.122477	-1.20023
O	7.37552	-0.341855	-0.906588
H	6.68413	-0.311135	1.17952
H	4.3221	-0.123291	-0.440983
C	4.98184	1.89497	0.0303317
H	5.91552	2.41247	0.337713
H	4.60848	2.3506	-0.909623
H	4.21944	2.05954	0.822794
N	5.95069	0.413158	-2.47537
C	6.87953	0.197015	-3.56013
H	5.05426	0.784355	-2.69377
H	6.42701	0.496849	-4.53098
H	7.16567	-0.87785	-3.62394
H	7.80825	0.792989	-3.40701
