44
  This energy is -3.4918 and Call times are: 242695
C	0.0710442	2.86983	-1.96766
C	0.386035	1.4427	-1.73271
O	0.795537	0.727683	-2.63685
H	0.251455	3.11456	-3.03698
H	0.719672	3.51373	-1.33725
H	-0.994329	3.07111	-1.72775
N	0.196157	0.989632	-0.491316
C	0.417736	-0.385593	-0.119536
C	-0.505498	-0.717352	1.03767
O	-1.1495	0.164721	1.6024
H	-0.176577	1.57355	0.224206
H	0.142105	-1.02807	-0.94651
C	1.89141	-0.61864	0.279495
H	2.17164	0.0326455	1.13468
H	2.07791	-1.67696	0.554614
H	2.54919	-0.362001	-0.57946
N	-0.59771	-2.00811	1.41379
C	-1.45492	-2.4192	2.50116
H	-0.0718985	-2.70813	0.94201
H	-1.39288	-3.51883	2.65671
H	-2.51575	-2.15491	2.28652
H	-1.15805	-1.91358	3.44844
C	4.47701	2.93094	1.60487
C	5.02628	2.2049	0.437691
O	5.17796	2.76244	-0.640529
H	4.24076	3.97624	1.30926
H	5.22118	2.94988	2.42864
H	3.5467	2.43856	1.95866
N	5.33938	0.921509	0.630729
C	5.84338	0.0739475	-0.42102
C	5.43102	-1.35388	-0.116344
O	4.92242	-1.64554	0.96438
H	5.17194	0.470727	1.50286
H	5.37677	0.351505	-1.35796
C	7.38024	0.182535	-0.528308
H	7.8599	-0.112215	0.42934
H	7.7791	-0.454958	-1.3438
H	7.6595	1.23704	-0.743651
N	5.63474	-2.28115	-1.07273
C	5.26899	-3.66433	-0.874656
H	6.0438	-2.02516	-1.94234
H	5.51549	-4.26911	-1.77505
H	4.17626	-3.75743	-0.678335
H	5.81414	-4.09414	-0.00332332
