44
  This energy is -4.7033 and Call times are: 237686
C	0.653759	-3.32236	-0.804478
C	0.689449	-1.87525	-1.1139
O	1.33768	-1.44566	-2.05817
H	1.29355	-3.86915	-1.53083
H	-0.385691	-3.7048	-0.882131
H	1.03858	-3.50399	0.221202
N	-0.0175221	-1.07866	-0.308903
C	-0.0457913	0.355106	-0.457468
C	-0.293298	0.967351	0.908347
O	-0.592633	0.261931	1.86985
H	-0.507082	-1.4387	0.480127
H	0.924502	0.698583	-0.793897
C	-1.14701	0.785166	-1.45125
H	-2.14392	0.442147	-1.1012
H	-1.16976	1.88615	-1.58481
H	-0.950099	0.319213	-2.44144
N	-0.164783	2.30353	1.0272
C	-0.375616	2.97392	2.28907
H	0.0821132	2.85706	0.238708
H	-0.222966	4.07049	2.18214
H	0.334862	2.59459	3.05888
H	-1.41166	2.79837	2.65913
C	4.64654	0.417604	-3.41832
C	4.27196	0.65925	-2.00677
O	3.43206	1.4974	-1.70933
H	4.07107	1.10652	-4.07412
H	4.41138	-0.629548	-3.70278
H	5.73128	0.605266	-3.56388
N	4.90005	-0.0817527	-1.09091
C	4.67339	0.0690899	0.324871
C	5.94196	-0.334293	1.05259
O	6.87344	-0.862894	0.448732
H	5.61089	-0.731153	-1.34555
H	4.49139	1.11292	0.548286
C	3.48356	-0.799469	0.788725
H	3.67435	-1.87161	0.569293
H	3.29018	-0.681427	1.87463
H	2.56806	-0.492267	0.237529
N	6.01049	-0.0845696	2.37507
C	7.18006	-0.428526	3.14965
H	5.24818	0.347627	2.84535
H	7.0433	-0.143425	4.21607
H	8.07963	0.0995799	2.75829
H	7.37496	-1.52436	3.10169
