44
  This energy is -0.9909 and Call times are: 239211
C	0.72006	3.39116	-0.306956
C	0.421277	2.19071	0.505938
O	0.552896	2.20095	1.72207
H	1.07113	4.20833	0.360027
H	-0.193336	3.72959	-0.839797
H	1.51646	3.16391	-1.04668
N	0.00737142	1.11057	-0.160662
C	-0.280429	-0.144506	0.487803
C	-0.0229857	-1.26075	-0.506823
O	0.204934	-1.01084	-1.6889
H	-0.0556103	1.10516	-1.15458
H	0.404696	-0.284788	1.31458
C	-1.74269	-0.187072	0.982994
H	-2.44618	-0.0537465	0.133664
H	-1.9727	-1.14311	1.49642
H	-1.91052	0.64313	1.70337
N	-0.0453385	-2.52674	-0.045538
C	0.193883	-3.65323	-0.917313
H	-0.22747	-2.70877	0.91507
H	0.133265	-4.60863	-0.350958
H	1.20486	-3.58382	-1.38033
H	-0.559965	-3.68289	-1.73705
C	5.97651	1.02614	-3.25609
C	5.52123	0.0138382	-2.27674
O	4.97284	-1.01727	-2.64073
H	5.71905	0.685865	-4.28263
H	7.07673	1.15816	-3.18659
H	5.4749	1.99787	-3.06323
N	5.7407	0.292518	-0.989672
C	5.31603	-0.575083	0.0805981
C	5.06067	0.278601	1.30843
O	5.37712	1.46656	1.32644
H	6.15137	1.1546	-0.706795
H	4.37669	-1.04151	-0.189029
C	6.38683	-1.64711	0.379616
H	7.34774	-1.16922	0.666508
H	6.06564	-2.33001	1.19264
H	6.56329	-2.25461	-0.534787
N	4.47013	-0.309758	2.36726
C	4.18267	0.42485	3.57717
H	4.21768	-1.27107	2.33227
H	3.69619	-0.233151	4.33057
H	3.49982	1.27926	3.36507
H	5.11933	0.833421	4.02087
