44
  This energy is -2.847 and Call times are: 238426
C	1.37843	2.65568	1.77764
C	1.04468	1.97041	0.508715
O	1.15321	2.54241	-0.567134
H	1.69614	3.69842	1.55941
H	2.2088	2.127	2.29118
H	0.489954	2.68257	2.44321
N	0.621616	0.708168	0.609369
C	0.219075	-0.073926	-0.532931
C	-0.811126	-1.08798	-0.0725608
O	-1.04445	-1.25005	1.12369
H	0.499438	0.26957	1.49513
H	-0.264327	0.571718	-1.25549
C	1.43281	-0.785893	-1.16948
H	1.92278	-1.45641	-0.431666
H	1.13799	-1.38036	-2.05842
H	2.17706	-0.0251992	-1.49164
N	-1.4615	-1.79257	-1.01944
C	-2.4625	-2.77561	-0.676181
H	-1.26191	-1.64444	-1.9824
H	-2.88172	-3.24652	-1.59254
H	-3.29856	-2.30392	-0.110691
H	-2.02382	-3.57732	-0.0390343
C	3.99089	-3.00451	0.978118
C	4.69138	-1.73629	1.2816
O	4.80845	-1.33743	2.43209
H	3.61876	-3.45406	1.9243
H	4.68689	-3.71884	0.490204
H	3.12712	-2.81345	0.306955
N	5.17864	-1.06276	0.236935
C	5.84687	0.207813	0.369839
C	5.6331	0.990989	-0.911765
O	5.12451	0.459748	-1.89707
H	5.03968	-1.37964	-0.696948
H	5.38721	0.770943	1.17247
C	7.3549	0.0124541	0.639889
H	7.82904	-0.556104	-0.188347
H	7.87815	0.98343	0.75794
H	7.48736	-0.569725	1.5779
N	6.01185	2.2842	-0.924834
C	5.84243	3.10964	-2.09791
H	6.41781	2.69746	-0.11645
H	6.21412	4.14104	-1.91006
H	4.76714	3.17112	-2.38297
H	6.40476	2.68589	-2.96126
