44
  This energy is -0.5576 and Call times are: 235901
C	0.510729	0.174464	3.43823
C	0.922544	-0.242976	2.07907
O	2.04555	-0.677424	1.86339
H	1.36336	0.0381387	4.13845
H	-0.342788	-0.444381	3.78648
H	0.214655	1.24471	3.43659
N	0.00658865	-0.115753	1.11615
C	0.27335	-0.43993	-0.263089
C	-0.614736	0.429103	-1.13351
O	-1.50414	1.11737	-0.636566
H	-0.889702	0.277827	1.29952
H	1.3002	-0.188051	-0.497092
C	0.00603653	-1.93564	-0.539917
H	-1.05007	-2.19221	-0.310023
H	0.221088	-2.20078	-1.59537
H	0.660882	-2.55256	0.113489
N	-0.38659	0.42354	-2.46165
C	-1.17762	1.22307	-3.36785
H	0.340355	-0.136767	-2.84464
H	-0.836095	1.08226	-4.41702
H	-1.09276	2.30452	-3.11382
H	-2.25282	0.937638	-3.30761
C	6.47835	-3.3193	0.568783
C	6.50656	-2.08545	-0.248512
O	7.26687	-1.97388	-1.2003
H	7.23379	-4.03556	0.178734
H	5.47464	-3.79095	0.515222
H	6.71961	-3.08317	1.62666
N	5.66466	-1.11454	0.113341
C	5.6072	0.159787	-0.558471
C	5.14659	1.2021	0.44302
O	4.73869	0.870543	1.5545
H	5.08092	-1.20432	0.915243
H	6.60273	0.439258	-0.880093
C	4.64396	0.104739	-1.76445
H	3.62014	-0.171644	-1.43362
H	4.60158	1.07615	-2.29839
H	4.99596	-0.669917	-2.48023
N	5.20966	2.49619	0.0723748
C	4.79805	3.55789	0.960935
H	5.54644	2.74504	-0.829692
H	4.92555	4.54981	0.474047
H	5.40481	3.54552	1.89526
H	3.72677	3.44085	1.24344
