44
  This energy is -3.378 and Call times are: 238345
C	-0.497486	-2.29149	2.57183
C	-0.883365	-1.67582	1.28218
O	-1.74254	-2.17983	0.572104
H	-1.0849	-3.22289	2.72451
H	-0.708643	-1.59229	3.40806
H	0.583565	-2.54524	2.56646
N	-0.243361	-0.553656	0.945241
C	-0.47941	0.13662	-0.298287
C	0.794423	0.864505	-0.684404
O	1.73977	0.937931	0.0983124
H	0.482502	-0.177917	1.51428
H	-0.684977	-0.58843	-1.0759
C	-1.65213	1.13238	-0.162552
H	-1.43718	1.88278	0.627843
H	-1.85277	1.6602	-1.11737
H	-2.57168	0.578994	0.128231
N	0.851756	1.4158	-1.91274
C	2.02512	2.12332	-2.36971
H	0.0782139	1.34235	-2.53347
H	1.87756	2.50216	-3.40505
H	2.91472	1.45259	-2.36541
H	2.24394	2.99124	-1.70641
C	3.38751	-1.92777	1.35281
C	4.50004	-1.72395	0.397887
O	4.94276	-2.65148	-0.265515
H	3.09017	-2.99894	1.34709
H	2.51279	-1.31041	1.05872
H	3.70804	-1.64927	2.37886
N	4.98535	-0.483462	0.308135
C	6.09534	-0.139025	-0.544997
C	6.8173	1.04376	0.0725567
O	6.33792	1.64238	1.03358
H	4.64183	0.252465	0.884556
H	6.79468	-0.965337	-0.572377
C	5.6096	0.206797	-1.96967
H	4.90022	1.06127	-1.94325
H	6.45636	0.460343	-2.63992
H	5.07743	-0.670063	-2.39892
N	7.99966	1.40429	-0.464154
C	8.76098	2.51392	0.060505
H	8.37326	0.905138	-1.23897
H	9.70292	2.65159	-0.514847
H	9.02514	2.33892	1.12862
H	8.17221	3.4578	0.000668249
