44
  This energy is -3.0261 and Call times are: 238496
C	0.864495	0.814412	3.2714
C	0.124501	-0.0033953	2.28411
O	-0.453573	-1.0286	2.61756
H	0.800732	0.33087	4.2704
H	0.421888	1.83067	3.33513
H	1.9326	0.894352	2.97838
N	0.128684	0.439238	1.02457
C	-0.510944	-0.270933	-0.0548217
C	0.231149	0.0511464	-1.33822
O	1.09396	0.926703	-1.36405
H	0.637986	1.25351	0.761057
H	-0.416932	-1.33653	0.113421
C	-1.9978	0.129421	-0.174018
H	-2.09442	1.22083	-0.357135
H	-2.50492	-0.420937	-0.992838
H	-2.51929	-0.10786	0.778922
N	-0.0841515	-0.660548	-2.43827
C	0.57323	-0.427971	-3.70316
H	-0.782162	-1.36774	-2.39667
H	0.175935	-1.11262	-4.48458
H	1.67051	-0.598513	-3.61275
H	0.413694	0.621266	-4.04197
C	5.06314	3.07008	1.55693
C	5.33257	2.09632	0.475106
O	5.96607	2.41628	-0.52125
H	5.50051	4.05453	1.28229
H	5.52361	2.72452	2.5063
H	3.9685	3.19041	1.69959
N	4.84648	0.865272	0.650108
C	4.99051	-0.178372	-0.334076
C	3.81336	-1.12525	-0.195127
O	3.03474	-1.02742	0.751387
H	4.29774	0.631193	1.44757
H	4.94019	0.255597	-1.32491
C	6.3217	-0.937599	-0.142332
H	6.36929	-1.39189	0.870289
H	6.45075	-1.73483	-0.902784
H	7.16865	-0.223868	-0.240252
N	3.65111	-2.06507	-1.14719
C	2.55659	-3.00639	-1.10137
H	4.28918	-2.12591	-1.90762
H	2.5956	-3.69756	-1.972
H	1.57866	-2.47295	-1.12094
H	2.59968	-3.61419	-0.168704
