44
  This energy is -2.8588 and Call times are: 241608
C	-3.2768	-1.08719	-0.43961
C	-1.81967	-1.21545	-0.666452
O	-1.34315	-2.22593	-1.16473
H	-3.78335	-2.02029	-0.769186
H	-3.68124	-0.23344	-1.02294
H	-3.48352	-0.928082	0.639762
N	-1.06778	-0.176021	-0.296823
C	0.36908	-0.170409	-0.414987
C	0.928956	0.735762	0.665266
O	0.184638	1.44025	1.34453
H	-1.46578	0.622879	0.145015
H	0.746854	-1.16773	-0.227184
C	0.805754	0.319779	-1.81294
H	0.427342	1.34698	-2.0019
H	1.90974	0.315479	-1.92116
H	0.378206	-0.353229	-2.58793
N	2.26309	0.731777	0.855278
C	2.88543	1.55735	1.86389
H	2.84857	0.151879	0.298498
H	3.98833	1.41302	1.86468
H	2.4976	1.30016	2.87618
H	2.67273	2.63469	1.67616
C	8.38461	2.55784	2.22589
C	8.60551	1.81369	0.965494
O	9.3442	2.25041	0.0937042
H	8.96162	3.50764	2.19759
H	8.72836	1.95416	3.092
H	7.30661	2.79571	2.34593
N	7.95622	0.65398	0.839435
C	8.03721	-0.161368	-0.346821
C	6.74277	-0.942413	-0.473192
O	5.91694	-0.944411	0.437692
H	7.3265	0.331524	1.54039
H	8.1134	0.479576	-1.21631
C	9.24439	-1.12197	-0.27466
H	9.16136	-1.78688	0.611363
H	9.3257	-1.74559	-1.18845
H	10.1797	-0.529092	-0.174458
N	6.53157	-1.62172	-1.61772
C	5.32626	-2.38875	-1.83005
H	7.20968	-1.60471	-2.34501
H	5.33981	-2.87348	-2.83109
H	4.42766	-1.73282	-1.77042
H	5.22508	-3.18405	-1.05649
