44
  This energy is -0.9076 and Call times are: 236180
C	2.76812	-0.0961943	-2.10736
C	2.14549	-0.198167	-0.768298
O	2.77179	-0.62971	0.189786
H	3.81162	-0.476287	-2.05711
H	2.78699	0.962609	-2.44101
H	2.19895	-0.704759	-2.84138
N	0.875431	0.201989	-0.672354
C	0.122312	0.122787	0.55447
C	-1.3436	-0.041168	0.199822
O	-1.72754	0.0776547	-0.962151
H	0.366221	0.512518	-1.46994
H	0.42275	-0.762112	1.10157
C	0.33319	1.38851	1.41396
H	0.0152641	2.2956	0.857054
H	-0.230637	1.33355	2.36769
H	1.41369	1.49275	1.6548
N	-2.20043	-0.328381	1.19951
C	-3.61287	-0.507522	0.956391
H	-1.87026	-0.424695	2.13266
H	-4.14886	-0.737616	1.90349
H	-3.78546	-1.34606	0.243409
H	-4.05636	0.415495	0.517638
C	6.38087	3.19652	1.37647
C	6.54345	2.27112	0.232631
O	6.61483	2.68933	-0.914724
H	6.32461	4.24066	0.99904
H	7.24736	3.10954	2.06523
H	5.44574	2.96283	1.92783
N	6.60416	0.970075	0.525844
C	6.71798	-0.0533252	-0.483241
C	6.07123	-1.31768	0.0503329
O	5.71445	-1.39539	1.22438
H	6.50348	0.642336	1.46089
H	6.16114	0.247788	-1.36181
C	8.19766	-0.311999	-0.842218
H	8.76707	-0.631123	0.0566546
H	8.29788	-1.0883	-1.62824
H	8.65277	0.628397	-1.22284
N	5.89677	-2.34122	-0.808698
C	5.28521	-3.58168	-0.392265
H	6.18824	-2.25798	-1.7559
H	5.23088	-4.29792	-1.24155
H	4.25127	-3.40345	-0.0174432
H	5.8731	-4.05388	0.427825
