44
  This energy is -2.9248 and Call times are: 242807
C	-2.36312	-1.77025	1.84243
C	-1.94767	-1.01552	0.638718
O	-2.64485	-0.99301	-0.366196
H	-3.33454	-2.27294	1.64364
H	-2.4852	-1.08016	2.70361
H	-1.60387	-2.5413	2.09163
N	-0.780548	-0.371841	0.715345
C	-0.223548	0.369266	-0.388771
C	1.28763	0.35104	-0.256251
O	1.82558	-0.0869755	0.75887
H	-0.204908	-0.433176	1.52574
H	-0.472062	-0.131063	-1.31643
C	-0.748708	1.82162	-0.399223
H	-0.484848	2.33864	0.547933
H	-0.337817	2.3987	-1.25284
H	-1.85694	1.81051	-0.488882
N	2.01173	0.822313	-1.29047
C	3.45559	0.839568	-1.25664
H	1.55852	1.16881	-2.1051
H	3.86602	1.26332	-2.19961
H	3.8579	-0.191835	-1.13163
H	3.82144	1.45834	-0.405514
C	9.43333	-1.4472	-2.33821
C	8.08346	-1.06236	-1.86823
O	7.11292	-1.12584	-2.61014
H	9.37704	-1.75441	-3.40513
H	9.8189	-2.29864	-1.73893
H	10.1296	-0.586832	-2.24826
N	7.992	-0.645306	-0.603284
C	6.75376	-0.197054	-0.0164321
C	7.08219	0.812119	1.06767
O	8.24388	0.995836	1.42604
H	8.7977	-0.5602	-0.0240875
H	6.16743	0.316439	-0.768205
C	5.96023	-1.38443	0.571529
H	6.55724	-1.90515	1.35029
H	4.99822	-1.054	1.0141
H	5.73788	-2.11387	-0.237669
N	6.05931	1.50005	1.61217
C	6.27624	2.48489	2.64619
H	5.12659	1.34042	1.30617
H	5.31256	2.94089	2.96338
H	6.94494	3.29755	2.28055
H	6.75451	2.01941	3.53823
