44
  This energy is -3.8829 and Call times are: 235842
C	0.810313	-3.12865	1.29136
C	0.75527	-1.65269	1.38956
O	0.983408	-1.07963	2.44595
H	1.05884	-3.55404	2.28794
H	1.59198	-3.43498	0.564788
H	-0.173523	-3.52746	0.965617
N	0.4434	-0.994705	0.27055
C	0.309305	0.43987	0.219816
C	-0.681168	0.783843	-0.876633
O	-1.09051	-0.0804471	-1.64939
H	0.220271	-1.47725	-0.571609
H	-0.108585	0.792864	1.15437
C	1.67292	1.11216	-0.0518882
H	2.09714	0.758294	-1.01566
H	1.58533	2.21764	-0.0795044
H	2.38409	0.840265	0.758456
N	-1.09795	2.06238	-0.96419
C	-2.04354	2.48182	-1.97221
H	-0.758563	2.74663	-0.327259
H	-2.26055	3.56883	-1.87982
H	-3.00184	1.92308	-1.86856
H	-1.64076	2.29001	-2.99305
C	5.2035	0.713658	3.40071
C	5.82085	0.886211	2.06645
O	6.63155	1.77744	1.85455
H	5.58493	1.5011	4.08649
H	5.46375	-0.282234	3.8169
H	4.0994	0.805926	3.32632
N	5.44202	0.0229289	1.12114
C	5.92286	0.0907631	-0.236344
C	4.85416	-0.485405	-1.14601
O	3.87012	-1.05574	-0.679014
H	4.75049	-0.671619	1.29791
H	6.0592	1.12809	-0.515599
C	7.24585	-0.690573	-0.392693
H	7.10395	-1.75714	-0.116403
H	7.63357	-0.634331	-1.43049
H	8.01082	-0.256887	0.287807
N	5.02038	-0.341067	-2.4755
C	4.0527	-0.852126	-3.41815
H	5.82116	0.127039	-2.83426
H	4.36778	-0.634093	-4.46238
H	3.05507	-0.386038	-3.24855
H	3.94157	-1.95518	-3.3083
