44
  This energy is -3.9462 and Call times are: 240354
C	-0.611351	-2.84037	1.91604
C	-0.484532	-2.14997	0.612815
O	-0.452055	-2.77865	-0.436049
H	-0.646781	-3.93872	1.7479
H	-1.54514	-2.52474	2.42707
H	0.260972	-2.60353	2.56106
N	-0.406504	-0.817772	0.652106
C	-0.237206	-0.0102619	-0.530191
C	0.496113	1.2579	-0.135784
O	0.693106	1.52952	1.04706
H	-0.39309	-0.322751	1.51619
H	0.389994	-0.538971	-1.2371
C	-1.60286	0.329536	-1.1664
H	-2.24275	0.881197	-0.445119
H	-1.48519	0.939459	-2.08546
H	-2.12513	-0.613254	-1.43977
N	0.927238	2.06444	-1.12556
C	1.63911	3.28974	-0.846187
H	0.761944	1.82568	-2.07674
H	1.90892	3.81187	-1.79054
H	2.57643	3.07951	-0.28183
H	1.01305	3.97675	-0.231998
C	5.42524	3.45708	-0.400912
C	5.18047	2.0854	-0.900643
O	4.55795	1.89039	-1.93546
H	4.95169	4.18919	-1.09056
H	6.51608	3.65911	-0.356167
H	4.98495	3.57992	0.611079
N	5.67196	1.08804	-0.161659
C	5.47777	-0.300817	-0.496197
C	5.49782	-1.1045	0.790371
O	5.82133	-0.581158	1.85487
H	6.14114	1.2611	0.69961
H	4.49844	-0.427672	-0.940538
C	6.57818	-0.79507	-1.46059
H	7.58238	-0.674909	-1.00102
H	6.43183	-1.85944	-1.73666
H	6.5501	-0.187787	-2.39159
N	5.14162	-2.40239	0.72247
C	5.12544	-3.24418	1.89605
H	4.87903	-2.80692	-0.147286
H	4.80511	-4.27687	1.63491
H	4.42065	-2.841	2.65894
H	6.13878	-3.29693	2.35594
