44
  This energy is 0.1518 and Call times are: 240764
C	-2.6361	-1.52244	-1.68697
C	-2.06346	-0.407683	-0.899213
O	-2.66567	0.648883	-0.76718
H	-3.61924	-1.2115	-2.10247
H	-2.78476	-2.41192	-1.03932
H	-1.9583	-1.78567	-2.52625
N	-0.865103	-0.622426	-0.351315
C	-0.161604	0.382232	0.406518
C	1.32684	0.124541	0.266215
O	1.74055	-0.902699	-0.267955
H	-0.369192	-1.47289	-0.501799
H	-0.361843	1.35707	-0.0203516
C	-0.579744	0.345583	1.89281
H	-0.364802	-0.650991	2.33403
H	-0.0551724	1.12371	2.4843
H	-1.6737	0.528616	1.97091
N	2.1711	1.06258	0.738798
C	3.6039	0.906466	0.644495
H	1.81737	1.88906	1.16411
H	4.12507	1.78312	1.08843
H	3.91962	0.813087	-0.419871
H	3.93586	-0.00957038	1.1847
C	4.26971	1.17409	-3.27626
C	4.69699	0.214696	-2.23311
O	5.28493	-0.817544	-2.52506
H	4.55414	0.780229	-4.27618
H	4.76721	2.15452	-3.12137
H	3.16806	1.30953	-3.24346
N	4.40329	0.53954	-0.971924
C	4.71628	-0.313607	0.147331
C	3.69659	-0.0533991	1.24007
O	2.90181	0.880406	1.15041
H	3.88813	1.3634	-0.753455
H	4.61099	-1.34889	-0.152224
C	6.14585	-0.0423134	0.664989
H	6.25132	1.01705	0.98229
H	6.40385	-0.702747	1.51809
H	6.87453	-0.23138	-0.153318
N	3.69068	-0.884796	2.30062
C	2.7528	-0.718324	3.38637
H	4.33886	-1.63723	2.35332
H	2.90679	-1.50016	4.16242
H	1.70499	-0.794301	3.01543
H	2.87822	0.280077	3.8645
