44
  This energy is 0.161 and Call times are: 240820
C	-3.30529	-1.05405	-0.27696
C	-1.88933	-1.07804	-0.707783
O	-1.48006	-1.92446	-1.4904
H	-3.8493	-1.89691	-0.756051
H	-3.78204	-0.0988905	-0.582117
H	-3.37162	-1.16422	0.826016
N	-1.09695	-0.133772	-0.195072
C	0.312786	-0.0544621	-0.48649
C	1.00622	0.584513	0.701958
O	0.354886	1.08221	1.61835
H	-1.43544	0.523298	0.472421
H	0.712338	-1.05525	-0.593309
C	0.5657	0.769297	-1.76817
H	0.165344	1.79934	-1.65517
H	1.64661	0.826043	-2.01093
H	0.0425653	0.287834	-2.62308
N	2.35371	0.577578	0.717632
C	3.09994	1.15744	1.80991
H	2.86319	0.166477	-0.0310377
H	4.1939	1.05219	1.63843
H	2.8457	0.653551	2.7705
H	2.86405	2.24111	1.91553
C	6.86055	1.20622	0.163025
C	5.84557	0.259091	-0.350694
O	6.09509	-0.491447	-1.28388
H	7.79172	1.10735	-0.436154
H	7.09121	0.980881	1.22546
H	6.48815	2.24897	0.0789529
N	4.65695	0.275756	0.257002
C	3.5559	-0.557228	-0.158198
C	2.26412	0.155411	0.195356
O	2.27471	1.17299	0.885383
H	4.4557	0.921	0.988449
H	3.57853	-0.668633	-1.23509
C	3.61851	-1.93815	0.53055
H	3.5847	-1.82501	1.63513
H	2.7837	-2.59378	0.208451
H	4.57534	-2.43805	0.264226
N	1.11423	-0.361978	-0.280119
C	-0.163254	0.251006	-1.34026e-05
H	1.12625	-1.18372	-0.840184
H	-0.987764	-0.321888	-0.478774
H	-0.191182	1.29528	-0.3873
H	-0.350787	0.284758	1.09764
