44
  This energy is -0.7283 and Call times are: 242331
C	-2.2429	-1.94808	1.81303
C	-1.03649	-1.79416	0.969203
O	-0.250223	-2.71839	0.814333
H	-2.26195	-2.97304	2.24312
H	-3.15832	-1.7972	1.20313
H	-2.22612	-1.21041	2.64288
N	-0.860533	-0.600622	0.397462
C	0.287512	-0.286042	-0.415921
C	0.550754	1.20402	-0.306436
O	-0.253455	1.94611	0.254152
H	-1.48773	0.154423	0.565978
H	1.15642	-0.797036	-0.0203101
C	0.047174	-0.686718	-1.88797
H	-0.837885	-0.154754	-2.29751
H	0.929345	-0.462246	-2.52194
H	-0.151184	-1.7794	-1.94321
N	1.69593	1.67725	-0.8362
C	2.03405	3.08014	-0.774936
H	2.33615	1.06059	-1.28221
H	3.01429	3.27017	-1.26506
H	2.09906	3.42265	0.283239
H	1.25968	3.69391	-1.28951
C	9.68372	-1.68327	-1.44119
C	8.23561	-1.51989	-1.18149
O	7.40447	-2.17308	-1.79708
H	9.82985	-2.43569	-2.2464
H	10.1999	-2.03453	-0.523098
H	10.1254	-0.717922	-1.76696
N	7.89702	-0.626628	-0.248836
C	6.52675	-0.326299	0.0838713
C	6.46309	1.10678	0.577636
O	7.4917	1.7444	0.794654
H	8.58305	-0.0731399	0.214713
H	5.9204	-0.386271	-0.811323
C	5.99607	-1.29501	1.16332
H	6.61139	-1.22622	2.08565
H	4.9375	-1.08282	1.41814
H	6.05947	-2.33811	0.783484
N	5.24416	1.65193	0.759425
C	5.08528	3.01112	1.22152
H	4.42345	1.12152	0.574544
H	4.00787	3.27392	1.30729
H	5.56493	3.72527	0.513562
H	5.55955	3.14454	2.22072
