44
  This energy is 0.1184 and Call times are: 237517
C	2.98046	1.68067	-0.636325
C	1.70711	1.51929	0.101021
O	1.47049	2.17454	1.10654
H	3.61245	2.43381	-0.11743
H	2.78175	2.03003	-1.67131
H	3.52761	0.715	-0.67102
N	0.845832	0.625489	-0.390604
C	-0.415321	0.326954	0.241005
C	-0.783489	-1.10659	-0.0920794
O	-0.138663	-1.74611	-0.920893
H	1.06992	0.0703612	-1.18652
H	-0.300018	0.388944	1.31594
C	-1.51721	1.29525	-0.242207
H	-1.64319	1.22439	-1.34363
H	-2.49004	1.08445	0.247366
H	-1.223	2.33869	0.00481776
N	-1.83174	-1.65001	0.557458
C	-2.25212	-3.00949	0.309915
H	-2.33864	-1.11809	1.22766
H	-3.13017	-3.27067	0.940811
H	-1.42901	-3.72357	0.541978
H	-2.53546	-3.14484	-0.758982
C	4.7738	-0.76944	3.36735
C	5.60902	-0.666996	2.14954
O	6.82564	-0.781752	2.20488
H	5.4295	-0.936124	4.24946
H	4.06883	-1.62247	3.27727
H	4.20033	0.169424	3.51816
N	4.96215	-0.442451	1.00344
C	5.64171	-0.276124	-0.257148
C	4.79039	0.617768	-1.13907
O	3.64987	0.931413	-0.803582
H	3.97527	-0.310568	0.98035
H	6.58177	0.235189	-0.0914625
C	5.88045	-1.64092	-0.93948
H	4.91558	-2.16125	-1.11923
H	6.41538	-1.52736	-1.90461
H	6.49864	-2.28126	-0.27304
N	5.33239	1.05801	-2.29165
C	4.59939	1.91734	-3.19189
H	6.25821	0.796764	-2.54399
H	5.21533	2.17031	-4.08288
H	4.31286	2.86617	-2.68307
H	3.66688	1.41733	-3.54052
