44
  This energy is -3.2484 and Call times are: 237798
C	-0.686565	-0.279231	3.40049
C	-0.510357	-0.868138	2.05391
O	-0.43996	-2.07926	1.89697
H	-0.71747	-1.09378	4.15642
H	-1.63818	0.290834	3.44735
H	0.161585	0.397689	3.6361
N	-0.43173	-0.00816779	1.03575
C	-0.217375	-0.428438	-0.326593
C	0.502805	0.68844	-1.05836
O	0.65618	1.78934	-0.532798
H	-0.449618	0.976503	1.18398
H	0.434798	-1.29286	-0.335352
C	-1.55793	-0.754368	-1.0208
H	-2.22328	0.135209	-1.02143
H	-1.40525	-1.0925	-2.06621
H	-2.07118	-1.5685	-0.463924
N	0.971657	0.425763	-2.29416
C	1.6746	1.42531	-3.0642
H	0.841411	-0.472337	-2.70101
H	1.98012	1.01713	-4.05277
H	2.59	1.76332	-2.52654
H	1.02727	2.31538	-3.23703
C	8.24695	-2.74649	-1.29997
C	7.7393	-1.9473	-0.162101
O	7.75304	-2.38978	0.978267
H	8.5879	-3.73763	-0.929518
H	9.10355	-2.22806	-1.77977
H	7.4417	-2.90037	-2.04895
N	7.26992	-0.731841	-0.45317
C	6.70364	0.14529	0.541073
C	5.68433	1.03806	-0.141239
O	5.58012	1.05304	-1.36624
H	7.22759	-0.401608	-1.39179
H	6.17341	-0.445092	1.27791
C	7.80191	0.995389	1.21663
H	8.33919	1.60917	0.462539
H	7.38021	1.66504	1.99397
H	8.54081	0.321392	1.70251
N	4.89791	1.80174	0.642565
C	3.89587	2.6784	0.0826166
H	4.99434	1.77287	1.63198
H	3.35356	3.22094	0.88809
H	3.15278	2.09744	-0.510327
H	4.36453	3.4303	-0.592766
