44
  This energy is -0.7026 and Call times are: 235220
C	-0.304105	-1.16389	-3.26582
C	0.507752	-0.789372	-2.08609
O	1.69934	-1.05944	-2.02613
H	0.336827	-1.70368	-3.99637
H	-0.715288	-0.254234	-3.75182
H	-1.13917	-1.82898	-2.96018
N	-0.132008	-0.149765	-1.10426
C	0.513945	0.240698	0.124093
C	-0.532452	0.263287	1.22232
O	-1.72652	0.138407	0.95715
H	-1.11111	0.0267064	-1.14989
H	1.24917	-0.506972	0.394405
C	1.17891	1.62729	-0.0188384
H	0.423313	2.3966	-0.285813
H	1.69156	1.93308	0.916148
H	1.93512	1.58947	-0.83313
N	-0.104247	0.415879	2.49093
C	-1.0268	0.443795	3.60192
H	0.866276	0.511276	2.68601
H	-0.481817	0.576962	4.56238
H	-1.60527	-0.50684	3.65609
H	-1.75117	1.28282	3.49032
C	5.00782	-2.38963	-2.53029
C	4.6943	-1.95301	-1.15108
O	3.98119	-2.62689	-0.420483
H	4.49084	-3.35176	-2.73741
H	6.10217	-2.53762	-2.64541
H	4.65891	-1.62965	-3.26089
N	5.22826	-0.793629	-0.759794
C	4.97903	-0.217699	0.538184
C	5.09438	1.29011	0.416654
O	5.51857	1.80821	-0.614532
H	5.77323	-0.236397	-1.37976
H	3.96275	-0.440293	0.838596
C	5.98238	-0.755121	1.58208
H	7.0246	-0.517783	1.27963
H	5.79214	-0.329622	2.5887
H	5.88589	-1.86084	1.64853
N	4.70854	2.03382	1.47213
C	4.77731	3.4763	1.44596
H	4.36412	1.59659	2.29632
H	4.41568	3.90475	2.40664
H	4.14889	3.8846	0.621543
H	5.82532	3.81694	1.28235
