44
  This energy is -3.9007 and Call times are: 238317
C	0.864495	3.25368	0.882563
C	0.124501	1.99305	1.11576
O	-0.453573	1.78479	2.17352
H	0.800732	3.89053	1.79154
H	0.421888	3.80444	0.0261162
H	1.9326	3.03672	0.669993
N	0.128684	1.10875	0.115574
C	-0.510944	-0.179871	0.209896
C	0.231149	-1.14375	-0.696632
O	1.09396	-0.739747	-1.47384
H	0.637986	1.27532	-0.723909
H	-0.416932	-0.552088	1.22244
C	-1.9978	-0.088917	-0.197802
H	-2.09442	0.282888	-1.24014
H	-2.50492	-1.07212	-0.116095
H	-2.51929	0.627682	0.473675
N	-0.0841515	-2.45115	-0.61104
C	0.57323	-3.44246	-1.43039
H	-0.782162	-2.75935	0.0268182
H	0.175935	-4.45843	-1.21318
H	1.67051	-3.4466	-1.23741
H	0.413694	-3.22717	-2.51175
C	6.43039	-1.8332	-2.93522
C	7.00145	-0.703998	-2.16714
O	7.90795	-0.0216442	-2.62437
H	6.9645	-1.92451	-3.90591
H	5.35258	-1.65495	-3.13346
H	6.55007	-2.78071	-2.36868
N	6.47532	-0.480639	-0.960626
C	6.95506	0.554258	-0.0789278
C	6.69659	0.115469	1.35014
O	6.01793	-0.881351	1.5899
H	5.76576	-1.07016	-0.585323
H	8.02678	0.655266	-0.196509
C	6.24946	1.89709	-0.369062
H	5.15088	1.79672	-0.23832
H	6.62023	2.70531	0.294143
H	6.44564	2.1947	-1.42229
N	7.243	0.850708	2.3385
C	7.05582	0.506455	3.72869
H	7.79249	1.65156	2.12458
H	7.58305	1.23101	4.38769
H	7.45485	-0.51245	3.9382
H	5.97368	0.514571	3.99337
