44
  This energy is -4.0029 and Call times are: 241636
C	-1.11051	-1.36657	-3.00199
C	-1.05722	-0.268568	-2.01068
O	-1.49755	0.84233	-2.27227
H	-1.57184	-0.991318	-3.94127
H	-1.72331	-2.2058	-2.61095
H	-0.0854568	-1.73043	-3.22549
N	-0.504671	-0.560478	-0.83091
C	-0.342954	0.414941	0.21836
C	0.863338	0.0201296	1.04935
O	1.41611	-1.06515	0.881056
H	-0.113699	-1.45789	-0.647426
H	-0.129243	1.38098	-0.221788
C	-1.60773	0.490049	1.1015
H	-1.8214	-0.498185	1.56169
H	-1.50094	1.24755	1.90481
H	-2.47913	0.772637	0.471302
N	1.3069	0.902524	1.96622
C	2.45152	0.615982	2.79923
H	0.848945	1.77731	2.08494
H	2.65888	1.46439	3.48802
H	3.35779	0.441753	2.17506
H	2.27322	-0.297491	3.41154
C	8.4305	-0.68297	2.23324
C	7.04279	-0.263574	1.93403
O	6.20746	-0.160106	2.82169
H	8.52771	-0.880198	3.32296
H	9.14273	0.119724	1.94835
H	8.67815	-1.61131	1.67653
N	6.7622	-0.0109931	0.653464
C	5.4456	0.364881	0.201975
C	5.28516	-0.104869	-1.23161
O	6.24435	-0.548326	-1.86011
H	7.4419	-0.139234	-0.0630684
H	4.70289	-0.152842	0.796091
C	5.24541	1.89335	0.296553
H	6.00054	2.42462	-0.321159
H	4.23049	2.19396	-0.0352595
H	5.3752	2.21582	1.35273
N	4.05762	-0.0255064	-1.78193
C	3.80827	-0.454145	-3.1385
H	3.29304	0.332356	-1.25618
H	2.73837	-0.309626	-3.40622
H	4.05771	-1.53298	-3.26167
H	4.43108	0.128233	-3.85549
