44
  This energy is -3.039 and Call times are: 237714
C	0.831174	0.911539	3.25437
C	0.234002	-0.024457	2.27537
O	-0.0965292	-1.15609	2.60183
H	0.920347	0.404773	4.23982
H	0.186815	1.80849	3.36852
H	1.84239	1.2235	2.9179
N	0.0826032	0.435086	1.03108
C	-0.443938	-0.372448	-0.0409334
C	0.149284	0.127188	-1.34478
O	0.804516	1.16693	-1.38101
H	0.394157	1.34455	0.770934
H	-0.118009	-1.39676	0.0901606
C	-1.98589	-0.295957	-0.0831426
H	-2.32056	0.753327	-0.228181
H	-2.40422	-0.924573	-0.895768
H	-2.39794	-0.658824	0.883752
N	-0.0613871	-0.612246	-2.45152
C	0.469036	-0.218482	-3.73596
H	-0.59069	-1.45273	-2.4015
H	0.188192	-0.955639	-4.52015
H	1.5806	-0.152972	-3.69853
H	0.0742749	0.779443	-4.03504
C	7.55072	-2.02191	2.33716
C	7.47616	-1.37339	1.00862
O	8.44072	-1.35866	0.2564
H	8.5733	-2.43054	2.48952
H	6.81833	-2.85413	2.39842
H	7.33667	-1.28178	3.13683
N	6.30858	-0.811361	0.687276
C	6.09629	-0.106079	-0.552105
C	5.03069	0.948452	-0.319685
O	4.3931	0.978591	0.731163
H	5.54527	-0.795828	1.32678
H	7.00654	0.410795	-0.829427
C	5.66213	-1.07696	-1.67199
H	4.72263	-1.59972	-1.3925
H	5.50893	-0.54796	-2.6349
H	6.45308	-1.84444	-1.81938
N	4.81808	1.84907	-1.29933
C	3.82834	2.89242	-1.16514
H	5.34681	1.81098	-2.1408
H	3.80433	3.53114	-2.07547
H	4.05719	3.54048	-0.288257
H	2.81438	2.45554	-1.01627
