44
  This energy is -1.6143 and Call times are: 236391
C	0.214728	0.141085	3.47083
C	0.735218	-0.273993	2.14873
O	1.86507	-0.726778	2.02699
H	1.00123	-0.0152983	4.24079
H	-0.676127	-0.46495	3.73887
H	-0.061774	1.21641	3.45283
N	-0.0918283	-0.12373	1.11153
C	0.2875	-0.442845	-0.242293
C	-0.507105	0.447943	-1.17859
O	-1.42423	1.14837	-0.754321
H	-0.993755	0.284398	1.22028
H	1.33488	-0.207593	-0.384698
C	0.0195906	-1.93158	-0.553948
H	-1.05665	-2.17098	-0.4182
H	0.320449	-2.19304	-1.58915
H	0.604913	-2.56463	0.148191
N	-0.165215	0.447709	-2.4821
C	-0.861242	1.26754	-3.44626
H	0.582419	-0.122699	-2.80575
H	-0.432817	1.12809	-4.46323
H	-0.780177	2.34549	-3.1766
H	-1.94234	1.00082	-3.48142
C	4.7948	-3.35459	0.925442
C	4.86801	-1.91311	1.25395
O	4.7592	-1.52042	2.40737
H	4.61849	-3.93509	1.85699
H	5.74827	-3.69153	0.467057
H	3.95843	-3.54431	0.220064
N	5.05512	-1.07941	0.228124
C	5.10451	0.352909	0.384907
C	4.62109	0.986945	-0.905783
O	4.42802	0.30351	-1.90945
H	5.10088	-1.41089	-0.709898
H	4.41773	0.650496	1.16747
C	6.53823	0.822636	0.715125
H	7.24134	0.526785	-0.092434
H	6.58672	1.92239	0.851911
H	6.87428	0.340144	1.65885
N	4.40514	2.31712	-0.906417
C	3.93948	3.00675	-2.08699
H	4.5631	2.85259	-0.0833717
H	3.82271	4.09461	-1.88661
H	2.95415	2.60302	-2.41472
H	4.66092	2.8801	-2.92642
