44
  This energy is 0.0704 and Call times are: 238748
C	-1.35495	3.20475	0.0800017
C	-0.213705	2.26911	0.195306
O	0.937849	2.67861	0.246701
H	-0.971989	4.24746	0.0356305
H	-2.02269	3.10435	0.961351
H	-1.93078	2.99372	-0.845723
N	-0.514098	0.968949	0.236813
C	0.490569	-0.0628408	0.304741
C	-0.0673079	-1.31032	-0.354137
O	-1.2503	-1.37338	-0.683191
H	-1.45353	0.649178	0.152719
H	1.35715	0.244134	-0.267484
C	0.884189	-0.354008	1.7695
H	-0.00248675	-0.679123	2.35443
H	1.6672	-1.13708	1.83439
H	1.28225	0.574478	2.23406
N	0.780239	-2.33542	-0.570615
C	0.340492	-3.56047	-1.19676
H	1.73488	-2.26407	-0.301108
H	1.18333	-4.28072	-1.28668
H	-0.0585143	-3.35875	-2.21724
H	-0.468008	-4.03949	-0.598418
C	11.6446	0.80474	-0.528142
C	10.44	-0.00869097	-0.808163
O	10.4008	-0.7745	-1.76127
H	12.414	0.600805	-1.30418
H	12.0602	0.542892	0.467571
H	11.3901	1.88541	-0.549681
N	9.41241	0.144434	0.0303172
C	8.1581	-0.546328	-0.137348
C	7.06117	0.312595	0.463118
O	7.33486	1.3147	1.12083
H	9.4444	0.801915	0.777681
H	7.94532	-0.649016	-1.19414
C	8.19566	-1.93152	0.544625
H	8.40348	-1.82604	1.63078
H	7.24027	-2.47907	0.410728
H	9.01058	-2.53992	0.0950889
N	5.78471	-0.0584139	0.241735
C	4.67466	0.700587	0.768892
H	5.58309	-0.8701	-0.296402
H	3.70694	0.235479	0.478325
H	4.69259	1.74444	0.37988
H	4.72226	0.745763	1.88102
