44
  This energy is -1.6073 and Call times are: 239183
C	1.34528	-0.357821	3.18981
C	1.07345	0.438334	1.97186
O	1.27154	1.64522	1.94726
H	1.711	0.315872	3.99496
H	2.12205	-1.12324	2.98122
H	0.416229	-0.858764	3.5348
N	0.60316	-0.231976	0.917401
C	0.251174	0.411911	-0.323597
C	-0.84011	-0.406149	-0.987999
O	-1.15704	-1.50931	-0.547196
H	0.408405	-1.20747	0.965779
H	-0.161915	1.39064	-0.113628
C	1.48003	0.530451	-1.25155
H	1.89785	-0.474132	-1.47579
H	1.22497	1.03706	-2.20487
H	2.26865	1.12603	-0.741939
N	-1.44958	0.123547	-2.06689
C	-2.50299	-0.579621	-2.7612
H	-1.18214	1.0193	-2.40626
H	-2.87622	0.0201117	-3.62041
H	-3.35846	-0.780973	-2.07644
H	-2.13403	-1.55658	-3.14922
C	5.09762	-0.522135	2.60133
C	6.23994	-0.947463	1.76147
O	6.92513	-1.91365	2.06707
H	5.02223	-1.19199	3.48534
H	4.15258	-0.584091	2.02183
H	5.24807	0.520565	2.95235
N	6.47459	-0.220526	0.666531
C	7.57583	-0.485428	-0.225469
C	7.9793	0.822293	-0.880177
O	7.29319	1.83329	-0.742959
H	5.9333	0.587682	0.452855
H	8.42498	-0.834012	0.349026
C	7.18112	-1.52729	-1.29504
H	6.31666	-1.16557	-1.89162
H	8.02505	-1.75013	-1.97961
H	6.88202	-2.47329	-0.793086
N	9.11506	0.834175	-1.60539
C	9.58112	2.03413	-2.26042
H	9.65897	0.00713761	-1.7015
H	10.5311	1.84082	-2.8058
H	9.76277	2.8428	-1.51588
H	8.82528	2.40161	-2.99173
