44
  This energy is -0.9175 and Call times are: 241323
C	-0.439108	-1.52881	3.09558
C	-0.405146	-1.56728	1.61622
O	-0.424646	-2.62962	1.01003
H	-0.463739	-2.56807	3.48955
H	-1.34588	-0.990926	3.44371
H	0.466218	-1.01787	3.48599
N	-0.350322	-0.387884	0.993005
C	-0.268834	-0.265592	-0.441207
C	0.462806	1.02332	-0.765188
O	0.72629	1.83705	0.118068
H	-0.293732	0.466805	1.50111
H	0.324105	-1.08111	-0.836151
C	-1.67696	-0.263069	-1.07557
H	-2.28212	0.579669	-0.678575
H	-1.62718	-0.183332	-2.18087
H	-2.19682	-1.21186	-0.818891
N	0.817337	1.23563	-2.04786
C	1.52138	2.4311	-2.44954
H	0.598977	0.563637	-2.74774
H	1.72312	2.41991	-3.54334
H	2.4952	2.51197	-1.91437
H	0.920913	3.33915	-2.21283
C	8.1599	1.25579	2.66017
C	7.70664	1.29898	1.25168
O	7.93178	2.27089	0.543781
H	8.67681	2.20802	2.90902
H	8.86755	0.413245	2.8088
H	7.28963	1.13139	3.33857
N	7.04423	0.227987	0.808318
C	6.50377	0.140979	-0.52543
C	5.29222	-0.77126	-0.486243
O	5.0241	-1.41914	0.523743
H	6.833	-0.538228	1.40845
H	6.16059	1.11984	-0.836362
C	7.55883	-0.402218	-1.51388
H	7.9035	-1.4109	-1.20114
H	7.15909	-0.460844	-2.54698
H	8.43951	0.276522	-1.52026
N	4.52263	-0.836452	-1.59055
C	3.34654	-1.67319	-1.64395
H	4.75346	-0.301613	-2.39661
H	2.84914	-1.58964	-2.63534
H	2.6153	-1.37352	-0.858611
H	3.61587	-2.741	-1.47547
