44
  This energy is 0.1338 and Call times are: 235392
C	3.19988	-1.12091	0.78551
C	2.26872	-0.0876311	0.279135
O	2.6425	1.06084	0.0849396
H	4.20021	-0.66481	0.95037
H	3.29741	-1.94355	0.0462584
H	2.82904	-1.53147	1.74832
N	1.01289	-0.480113	0.0527987
C	-0.0173787	0.421183	-0.39972
C	-1.35155	-0.0924182	0.107978
O	-1.43973	-1.19701	0.640715
H	0.713641	-1.40835	0.254522
H	0.142056	1.39679	0.0423224
C	-0.0261382	0.519832	-1.94096
H	-0.20018	-0.479065	-2.39478
H	-0.806092	1.22156	-2.3012
H	0.962325	0.889983	-2.29065
N	-2.42632	0.707122	-0.0391186
C	-3.7359	0.304965	0.418531
H	-2.33433	1.5992	-0.469005
H	-4.48684	1.09797	0.207692
H	-3.72684	0.113783	1.51609
H	-4.06063	-0.630393	-0.0921511
C	6.28354	3.14065	1.24672
C	6.32671	2.10421	0.19074
O	6.75335	2.35721	-0.927463
H	6.66545	4.10022	0.835356
H	6.91981	2.83907	2.10518
H	5.23956	3.28904	1.5948
N	5.87552	0.893898	0.528317
C	5.81451	-0.204607	-0.403412
C	4.6809	-1.12029	0.0185238
O	4.10529	-0.956214	1.09251
H	5.49332	0.714156	1.43025
H	5.57278	0.17529	-1.38823
C	7.1516	-0.976931	-0.434053
H	7.39482	-1.37587	0.573786
H	7.12196	-1.8169	-1.158
H	7.96788	-0.285587	-0.737487
N	4.32678	-2.10766	-0.827474
C	3.25582	-3.02444	-0.51326
H	4.80164	-2.22198	-1.6938
H	3.11695	-3.76288	-1.33341
H	2.29733	-2.47469	-0.370641
H	3.47768	-3.58093	0.426017
