44
  This energy is 1.9244 and Call times are: 239775
C	2.40878	0.493698	2.46307
C	1.93442	-0.141014	1.21277
O	2.69744	-0.771515	0.493955
H	3.49834	0.306261	2.57969
H	1.87475	0.0643777	3.33671
H	2.23468	1.58978	2.42577
N	0.641286	0.0167259	0.920712
C	0.0431019	-0.505775	-0.282503
C	-1.12684	0.385468	-0.654617
O	-1.52129	1.26052	0.113766
H	0.0417607	0.567169	1.49469
H	0.760869	-0.450378	-1.09144
C	-0.429354	-1.96165	-0.0764457
H	-1.17362	-2.01746	0.74635
H	-0.879301	-2.37996	-1.00007
H	0.441519	-2.59406	0.202821
N	-1.70677	0.18743	-1.85482
C	-2.82268	0.990848	-2.29691
H	-1.37087	-0.522859	-2.46452
H	-3.15806	0.674938	-3.30931
H	-2.53836	2.06714	-2.3419
H	-3.68211	0.889853	-1.59525
C	8.07162	-2.40295	-2.03789
C	8.09642	-1.5658	-0.817343
O	7.11799	-1.48086	-0.0880428
H	7.06837	-2.8703	-2.14239
H	8.83614	-3.205	-1.96743
H	8.27244	-1.77883	-2.93412
N	9.23553	-0.916408	-0.566164
C	9.39746	-0.0305498	0.559708
C	10.4264	1.02114	0.189891
O	11.0821	0.923976	-0.845651
H	10.0096	-0.963176	-1.19102
H	8.46316	0.483986	0.746672
C	9.84701	-0.810102	1.81488
H	10.8108	-1.32959	1.62701
H	9.96181	-0.141061	2.69222
H	9.08316	-1.5793	2.0623
N	10.5861	2.06238	1.03033
C	11.5379	3.11423	0.758322
H	10.0435	2.12566	1.86134
H	11.5204	3.87888	1.56593
H	11.3011	3.61824	-0.206671
H	12.5703	2.70162	0.688105
