44
  This energy is -4.1536 and Call times are: 236997
C	2.28478	1.67565	2.02106
C	1.0392	0.899342	1.82864
O	0.426249	0.439497	2.78218
H	2.52292	1.72502	3.10583
H	2.15576	2.7083	1.63409
H	3.12752	1.18476	1.49012
N	0.632848	0.732238	0.567953
C	-0.536577	-0.035714	0.219736
C	-0.328818	-0.610407	-1.16883
O	0.626152	-0.259558	-1.85923
H	1.16454	1.07766	-0.20007
H	-0.632495	-0.870186	0.903173
C	-1.80553	0.843815	0.257451
H	-1.71198	1.69413	-0.451241
H	-2.71469	0.260687	0.00463186
H	-1.93328	1.26006	1.28057
N	-1.22051	-1.5199	-1.60898
C	-1.10083	-2.12525	-2.91489
H	-1.98439	-1.79418	-1.03423
H	-1.92895	-2.84657	-3.09137
H	-0.134363	-2.67174	-3.00742
H	-1.13604	-1.34861	-3.71285
C	3.61022	-1.504	-2.64488
C	4.15752	-1.52167	-1.26963
O	3.8712	-2.41616	-0.485842
H	2.93884	-2.37904	-2.78425
H	4.43507	-1.56228	-3.3858
H	3.02766	-0.573714	-2.81297
N	4.96959	-0.5142	-0.941097
C	5.54502	-0.371786	0.373115
C	5.77909	1.10506	0.62946
O	5.64171	1.93019	-0.271649
H	5.1607	0.228332	-1.57669
H	4.83517	-0.719139	1.11344
C	6.87028	-1.15716	0.483173
H	7.60253	-0.79403	-0.269149
H	7.3162	-1.06671	1.49485
H	6.67647	-2.23379	0.284065
N	6.13245	1.47496	1.87618
C	6.37077	2.85861	2.21515
H	6.23466	0.793219	2.59302
H	6.65007	2.9584	3.28719
H	5.45791	3.47063	2.03239
H	7.19713	3.27806	1.59681
