44
  This energy is -3.4172 and Call times are: 237290
C	-0.00209072	-2.23727	-2.66595
C	0.276409	-1.8935	-1.25337
O	0.568731	-2.75689	-0.437577
H	0.0850879	-3.33737	-2.8003
H	0.729049	-1.73465	-3.33345
H	-1.03077	-1.92208	-2.94086
N	0.187885	-0.601618	-0.928436
C	0.388618	-0.118817	0.415129
C	-0.432492	1.14463	0.591327
O	-0.983757	1.67669	-0.370304
H	-0.091128	0.0843223	-1.5944
H	0.00976437	-0.850369	1.11793
C	1.88311	0.165081	0.681821
H	2.26959	0.923306	-0.0321607
H	2.05244	0.52428	1.71759
H	2.46566	-0.771237	0.539359
N	-0.540063	1.65207	1.8351
C	-1.30535	2.84804	2.09996
H	-0.0901821	1.20509	2.60118
H	-1.27289	3.10414	3.1819
H	-2.37037	2.70618	1.80519
H	-0.899371	3.71028	1.52301
C	4.19239	1.08231	-2.99333
C	5.03118	0.146769	-2.21079
O	5.43398	-0.900745	-2.69749
H	4.01376	0.657165	-4.00486
H	4.70738	2.06011	-3.10027
H	3.21461	1.23294	-2.48903
N	5.31512	0.510303	-0.957952
C	6.08406	-0.315438	-0.0604884
C	5.64103	-0.0117367	1.35834
O	4.88603	0.929486	1.59452
H	4.94597	1.34655	-0.56263
H	5.85933	-1.35718	-0.252579
C	7.59639	-0.0485078	-0.224381
H	7.82899	1.01779	-0.0171361
H	8.19998	-0.688301	0.451536
H	7.89669	-0.269693	-1.27187
N	6.09727	-0.813217	2.34093
C	5.72492	-0.604467	3.72077
H	6.70412	-1.57227	2.12965
H	6.20138	-1.36639	4.37627
H	4.62009	-0.677068	3.84476
H	6.04544	0.405108	4.06597
