44
  This energy is -1.4573 and Call times are: 239719
C	3.05166	0.123183	-1.6688
C	1.72473	-0.484799	-1.42231
O	1.26629	-1.33136	-2.17701
H	3.48242	-0.300976	-2.60176
H	3.7369	-0.0979611	-0.823651
H	2.95283	1.22297	-1.78624
N	1.06723	-0.0567118	-0.342114
C	-0.25196	-0.523417	0.00499327
C	-0.958546	0.580705	0.768672
O	-0.348214	1.58316	1.13514
H	1.4356	0.662569	0.239958
H	-0.817584	-0.701964	-0.900998
C	-0.175754	-1.80864	0.858003
H	0.395426	-1.62324	1.79257
H	-1.18552	-2.18573	1.1201
H	0.352033	-2.60027	0.28258
N	-2.27323	0.424568	1.02015
C	-3.03004	1.42532	1.73564
H	-2.75067	-0.391625	0.712005
H	-4.09255	1.11373	1.84146
H	-3.00258	2.39927	1.19532
H	-2.60774	1.58364	2.75433
C	8.54731	-1.09448	-3.07708
C	9.11775	-1.3498	-1.73522
O	9.16289	-2.4808	-1.27133
H	8.19037	-2.05289	-3.51286
H	9.32084	-0.661674	-3.74572
H	7.68998	-0.392834	-3.00125
N	9.57144	-0.284436	-1.07072
C	10.1147	-0.368523	0.262094
C	9.86755	0.956684	0.958039
O	9.4401	1.92582	0.333721
H	9.49044	0.635093	-1.44457
H	9.58095	-1.12926	0.818027
C	11.6256	-0.686158	0.223024
H	12.1749	0.099502	-0.338196
H	12.0527	-0.767192	1.24356
H	11.7834	-1.65594	-0.297519
N	10.1249	1.02678	2.27897
C	9.9148	2.2447	3.02642
H	10.4665	0.230788	2.76766
H	10.1834	2.10091	4.09619
H	8.84745	2.55953	2.97237
H	10.5396	3.07065	2.61578
