44
  This energy is -2.2095 and Call times are: 241425
C	1.83269	-0.871261	-2.82751
C	0.621177	-0.322385	-2.17782
O	-0.236129	0.260767	-2.82695
H	1.8018	-0.642702	-3.91503
H	1.87359	-1.97259	-2.69277
H	2.74355	-0.41139	-2.38939
N	0.524147	-0.498389	-0.857973
C	-0.575118	0.0166654	-0.0802228
C	-0.0750424	0.282722	1.32715
O	1.04138	-0.0923033	1.68023
H	1.24969	-0.939185	-0.337244
H	-0.892249	0.965521	-0.494628
C	-1.75109	-0.984224	-0.0568437
H	-1.42899	-1.95441	0.377926
H	-2.60911	-0.59317	0.527453
H	-2.09555	-1.17011	-1.09758
N	-0.892996	0.948633	2.16592
C	-0.5004	1.25195	3.52241
H	-1.79107	1.24758	1.86068
H	-1.30819	1.804	4.05149
H	0.419334	1.88062	3.53387
H	-0.286164	0.316408	4.08811
C	4.95905	-0.0579064	3.35023
C	5.63311	-0.65505	2.1754
O	6.37407	-1.62114	2.29402
H	5.25945	-0.611086	4.26652
H	3.85689	-0.125814	3.23455
H	5.25405	1.00695	3.46039
N	5.38798	-0.0810165	0.995242
C	6.00425	-0.522731	-0.230994
C	6.10423	0.667978	-1.16576
O	5.55071	1.73132	-0.892582
H	4.81483	0.729998	0.920328
H	7.01358	-0.855774	-0.0237571
C	5.18325	-1.65627	-0.883915
H	4.15082	-1.31183	-1.10636
H	5.65492	-2.01454	-1.82183
H	5.1164	-2.51377	-0.179242
N	6.82513	0.518064	-2.29441
C	6.98062	1.59783	-3.24103
H	7.26906	-0.34872	-2.49612
H	7.60764	1.27839	-4.10245
H	7.4686	2.4757	-2.75885
H	5.98944	1.92471	-3.63072
