44
  This energy is -1.1457 and Call times are: 239915
C	-1.41936	-1.4644	2.82022
C	-0.388334	-0.628519	2.16491
O	0.38269	0.0568229	2.82236
H	-1.35585	-1.32949	3.92187
H	-1.25366	-2.53547	2.57918
H	-2.43159	-1.16119	2.47882
N	-0.353667	-0.666236	0.830836
C	0.564999	0.125143	0.0508803
C	-0.0770627	0.406048	-1.29463
O	-1.12099	-0.154099	-1.62352
H	-1.01444	-1.19728	0.308121
H	0.719352	1.07884	0.54003
C	1.90922	-0.612491	-0.134042
H	1.75272	-1.58624	-0.645281
H	2.63006	-0.00746207	-0.721294
H	2.35712	-0.814731	0.863376
N	0.532586	1.29324	-2.10534
C	-0.00798889	1.62773	-3.40229
H	1.37439	1.73933	-1.81997
H	0.636192	2.37494	-3.91603
H	-1.03131	2.05684	-3.30251
H	-0.0751567	0.720873	-4.0459
C	9.29783	2.55574	-1.17784
C	8.46237	1.35246	-1.39058
O	8.14225	0.994962	-2.51581
H	9.52759	3.02179	-2.16063
H	10.2507	2.27704	-0.680716
H	8.75473	3.2924	-0.548996
N	8.08304	0.691931	-0.294133
C	7.23325	-0.47188	-0.338412
C	6.45042	-0.535584	0.959544
O	6.71575	0.219687	1.89275
H	8.31742	1.0185	0.61706
H	6.51638	-0.36037	-1.14233
C	8.06757	-1.75718	-0.531188
H	8.79597	-1.87756	0.298867
H	7.4235	-2.65897	-0.580767
H	8.63806	-1.68511	-1.48287
N	5.45491	-1.43978	1.04559
C	4.65233	-1.5691	2.23945
H	5.25255	-2.03942	0.278408
H	3.88665	-2.36614	2.11416
H	4.1284	-0.612324	2.46607
H	5.28973	-1.8295	3.11527
