44
  This energy is -3.3552 and Call times are: 242863
C	0.173649	-2.93174	1.86747
C	-0.348948	-1.56747	1.62909
O	-1.28952	-1.12793	2.27603
H	-0.426802	-3.4209	2.665
H	1.23374	-2.88383	2.19405
H	0.0999221	-3.53732	0.939616
N	0.259311	-0.85705	0.676359
C	-0.163626	0.469145	0.301005
C	0.197343	0.685926	-1.15648
O	0.89729	-0.125454	-1.75935
H	0.99711	-1.24351	0.130309
H	-1.24157	0.536005	0.379737
C	0.51156	1.53597	1.19052
H	1.6172	1.47472	1.10201
H	0.183361	2.5606	0.920439
H	0.240019	1.35311	2.25315
N	-0.282757	1.78994	-1.76202
C	0.00378607	2.07686	-3.1483
H	-0.850843	2.43269	-1.25881
H	-0.480257	3.02819	-3.46119
H	-0.373257	1.25937	-3.80466
H	1.10178	2.17175	-3.31122
C	9.6207	1.35331	1.52478
C	8.56198	1.37389	0.490449
O	8.38332	2.35862	-0.212979
H	10.1465	2.33278	1.53171
H	10.3566	0.551953	1.30327
H	9.17398	1.17816	2.52619
N	7.82287	0.268032	0.375676
C	6.72832	0.153512	-0.555671
C	5.72104	-0.82612	0.0164054
O	5.98652	-1.49047	1.01634
H	7.9535	-0.5103	0.983124
H	6.23214	1.11202	-0.643377
C	7.2267	-0.326669	-1.93635
H	7.72651	-1.31487	-1.84859
H	6.39515	-0.405546	-2.6663
H	7.96844	0.400984	-2.3322
N	4.52987	-0.932387	-0.604756
C	3.50707	-1.83442	-0.12895
H	4.332	-0.383478	-1.41013
H	2.60167	-1.77698	-0.772524
H	3.21214	-1.57853	0.914513
H	3.87603	-2.88559	-0.135481
