44
  This energy is -1.7605 and Call times are: 242835
C	-3.40372	-0.623365	0.3725
C	-2.25703	-0.051445	-0.368546
O	-2.38743	0.369907	-1.50954
H	-4.30646	-0.604327	-0.276031
H	-3.60512	-0.0259117	1.28641
H	-3.18869	-1.67463	0.658313
N	-1.08761	-0.0262547	0.275038
C	0.126765	0.46046	-0.330729
C	1.29713	-0.262412	0.309007
O	1.13235	-0.978518	1.29478
H	-0.988207	-0.4104	1.1885
H	0.127398	0.206781	-1.38348
C	0.264306	1.98705	-0.141441
H	0.274315	2.24686	0.938577
H	1.18864	2.37608	-0.615556
H	-0.606683	2.49494	-0.610247
N	2.51364	-0.0967845	-0.246592
C	3.68501	-0.749397	0.290226
H	2.62636	0.483368	-1.04646
H	4.5879	-0.488558	-0.30473
H	3.56097	-1.85644	0.271855
H	3.8588	-0.438956	1.34596
C	10.6375	1.1923	2.38424
C	10.1689	0.150778	1.44256
O	10.8692	-0.813105	1.16511
H	11.6637	0.940178	2.72976
H	9.96386	1.24268	3.26535
H	10.661	2.18142	1.88009
N	8.95296	0.326793	0.92015
C	8.37837	-0.57891	-0.0432283
C	7.418	0.206355	-0.916509
O	7.11765	1.3656	-0.637871
H	8.41154	1.13742	1.12411
H	9.16154	-0.959913	-0.686735
C	7.64346	-1.74028	0.661316
H	6.83304	-1.35052	1.3135
H	7.20845	-2.45211	-0.0698326
H	8.36354	-2.29601	1.30084
N	6.91762	-0.409128	-2.00592
C	6.00095	0.261044	-2.89853
H	7.17563	-1.3461	-2.21709
H	5.70379	-0.41054	-3.73394
H	6.47132	1.17307	-3.33241
H	5.08007	0.572999	-2.35465
