44
  This energy is -3.4312 and Call times are: 238919
C	-0.113272	-2.63871	2.2665
C	0.26929	-2.05911	0.959274
O	1.0307	-2.64789	0.204285
H	0.404918	-3.61286	2.40214
H	-1.21011	-2.80678	2.30435
H	0.184433	-1.95563	3.08983
N	-0.258504	-0.869865	0.660114
C	0.0534724	-0.160634	-0.555708
C	-0.0893442	1.32549	-0.286301
O	-0.576617	1.73056	0.767359
H	-0.844358	-0.384286	1.30265
H	1.0877	-0.342607	-0.820077
C	-0.883544	-0.595294	-1.70388
H	-1.94399	-0.399079	-1.43743
H	-0.644347	-0.0663291	-2.64914
H	-0.768178	-1.68737	-1.87827
N	0.343394	2.17761	-1.23638
C	0.253218	3.60903	-1.06579
H	0.738547	1.83089	-2.0806
H	0.660967	4.13757	-1.95552
H	0.829739	3.93491	-0.169857
H	-0.806835	3.9223	-0.926912
C	4.51762	3.00061	-1.39197
C	4.36226	1.87075	-0.448343
O	3.52532	1.9012	0.443294
H	3.79592	3.80323	-1.12591
H	4.3134	2.66324	-2.42986
H	5.54819	3.40985	-1.33256
N	5.18183	0.831973	-0.62625
C	5.1791	-0.321842	0.238191
C	6.57455	-0.917054	0.236972
O	7.42987	-0.515377	-0.549661
H	5.88547	0.839294	-1.33101
H	4.96308	-0.00821786	1.25189
C	4.14489	-1.36541	-0.237863
H	4.37221	-1.69531	-1.27398
H	4.12341	-2.25263	0.427648
H	3.13245	-0.905746	-0.236611
N	6.84016	-1.8899	1.13086
C	8.14165	-2.51158	1.20711
H	6.1363	-2.19872	1.76197
H	8.16097	-3.28704	2.0043
H	8.92596	-1.7541	1.43594
H	8.40264	-2.99712	0.238979
