44
  This energy is -1.787 and Call times are: 234556
C	-0.171378	2.21542	-2.67866
C	-0.315995	1.89571	-1.2406
O	-0.479505	2.77812	-0.409312
H	-0.219656	3.31748	-2.81657
H	-0.991721	1.74424	-3.25984
H	0.806523	1.84857	-3.05578
N	-0.255499	0.603406	-0.910967
C	-0.336746	0.140555	0.452018
C	0.437174	-1.16007	0.556776
O	0.858369	-1.72519	-0.450673
H	-0.0810092	-0.100041	-1.59404
H	0.148283	0.857797	1.10236
C	-1.80678	-0.0683431	0.877007
H	-2.30182	-0.811934	0.216674
H	-1.88327	-0.411468	1.92912
H	-2.35577	0.894183	0.784838
N	0.650513	-1.66325	1.78857
C	1.38152	-2.89314	1.98652
H	0.305426	-1.18944	2.592
H	1.45074	-3.13962	3.06896
H	2.41522	-2.80541	1.58026
H	0.876535	-3.73869	1.46577
C	5.60031	2.9134	-1.90324
C	5.4956	2.20457	-0.607962
O	5.54636	2.81261	0.452283
H	5.73984	4.00043	-1.71682
H	4.67301	2.76653	-2.49593
H	6.47058	2.53284	-2.47845
N	5.34679	0.879145	-0.667118
C	5.27393	0.048277	0.508851
C	5.80943	-1.3254	0.151338
O	6.05657	-1.6207	-1.01632
H	5.34833	0.393834	-1.53679
H	5.92027	0.456933	1.27557
C	3.8212	-0.0538556	1.02304
H	3.15969	-0.482848	0.240481
H	3.75395	-0.679797	1.93639
H	3.44727	0.963518	1.27095
N	6.01006	-2.19951	1.15716
C	6.5221	-3.52788	0.913344
H	5.80806	-1.94084	2.09597
H	6.61709	-4.09377	1.86622
H	7.52608	-3.47975	0.432743
H	5.84183	-4.09314	0.235946
