44
  This energy is -0.1963 and Call times are: 234347
C	-1.32012	-2.85416	-1.49123
C	-0.186755	-1.95943	-1.16553
O	0.969698	-2.30407	-1.36613
H	-0.92725	-3.81203	-1.89622
H	-1.9732	-2.38202	-2.25498
H	-1.91437	-3.06709	-0.577651
N	-0.499792	-0.77077	-0.644485
C	0.495198	0.189768	-0.237151
C	-0.0870928	1.02635	0.886514
O	-1.2763	0.938293	1.18611
H	-1.44382	-0.520803	-0.449064
H	1.35466	-0.333853	0.162566
C	0.911594	1.08888	-1.42183
H	0.0320719	1.63432	-1.82552
H	1.68749	1.8237	-1.12428
H	1.32737	0.454967	-2.23524
N	0.745857	1.85708	1.54387
C	0.282481	2.68786	2.63072
H	1.7058	1.91143	1.28965
H	1.11611	3.29896	3.04164
H	-0.132378	2.06228	3.45402
H	-0.520235	3.37789	2.28338
C	8.69359	-0.641268	-2.53791
C	7.48621	-0.987196	-1.75451
O	6.72852	-1.87588	-2.11861
H	8.74175	-1.28591	-3.44232
H	9.6063	-0.808656	-1.92825
H	8.65169	0.42177	-2.85613
N	7.27667	-0.278022	-0.642952
C	6.1227	-0.469766	0.19975
C	5.81456	0.847337	0.886671
O	6.59414	1.79503	0.810164
H	7.88036	0.469651	-0.381405
H	5.26805	-0.719929	-0.416368
C	6.3803	-1.57792	1.2442
H	7.25053	-1.31681	1.8834
H	5.49413	-1.74463	1.89029
H	6.61149	-2.53044	0.719241
N	4.65768	0.939687	1.57158
C	4.27749	2.15527	2.25274
H	4.03784	0.163374	1.61865
H	3.29378	2.03224	2.75714
H	4.19838	3.00114	1.53195
H	5.035	2.42767	3.02288
