44
  This energy is -4.4222 and Call times are: 241030
C	-1.51083	2.06066	2.36299
C	-1.09923	1.75336	0.974726
O	-1.50862	2.41629	0.0316784
H	-2.21367	2.92197	2.35558
H	-0.623548	2.32612	2.97537
H	-2.02179	1.18377	2.81364
N	-0.26723	0.721223	0.817108
C	0.187109	0.274925	-0.47632
C	0.477765	-1.21147	-0.388546
O	0.47339	-1.79108	0.695771
H	0.0248911	0.165769	1.59041
H	-0.608492	0.405892	-1.19916
C	1.44984	1.04862	-0.914664
H	2.26973	0.906033	-0.178808
H	1.80146	0.723722	-1.91533
H	1.21609	2.13454	-0.964394
N	0.730566	-1.86809	-1.53788
C	1.01235	-3.28462	-1.55291
H	0.725588	-1.38268	-2.40588
H	1.19313	-3.63862	-2.59177
H	0.156745	-3.8598	-1.13056
H	1.91612	-3.51209	-0.942502
C	6.69499	2.70049	-1.90292
C	6.52963	1.24689	-1.67742
O	6.75026	0.438884	-2.56898
H	7.01092	2.87546	-2.95431
H	7.47163	3.10751	-1.22181
H	5.73393	3.22724	-1.72409
N	6.12825	0.877231	-0.458969
C	5.88203	-0.497612	-0.101566
C	4.82956	-0.521134	0.990831
O	4.46097	0.519147	1.53274
H	5.91324	1.54914	0.243999
H	5.47164	-1.02088	-0.956195
C	7.17911	-1.18289	0.381358
H	7.59484	-0.65269	1.26459
H	7.00546	-2.24596	0.646403
H	7.93753	-1.14692	-0.430948
N	4.31242	-1.71695	1.3352
C	3.302	-1.83659	2.36034
H	4.62039	-2.54718	0.882479
H	3.00509	-2.89971	2.49771
H	2.39401	-1.25165	2.08706
H	3.68182	-1.44985	3.33364
