44
  This energy is -4.7525 and Call times are: 234798
C	0.796131	-3.12096	-1.31852
C	0.0743552	-1.82967	-1.37094
O	-0.515428	-1.47477	-2.38218
H	0.708331	-3.63101	-2.3024
H	0.356737	-3.77346	-0.534985
H	1.87074	-2.94998	-1.09701
N	0.108125	-1.08553	-0.263013
C	-0.510814	0.21365	-0.175775
C	0.26067	1.03802	0.837527
O	1.12771	0.521971	1.54013
H	0.626685	-1.36922	0.538537
H	-0.425235	0.715032	-1.13177
C	-1.99291	0.0917914	0.241085
H	-2.08065	-0.413082	1.2267
H	-2.48438	1.08462	0.29831
H	-2.53623	-0.52187	-0.510299
N	-0.0335751	2.34981	0.930488
C	0.652416	3.21417	1.86242
H	-0.735455	2.75003	0.350608
H	0.269328	4.25576	1.78784
H	1.74668	3.22741	1.65341
H	0.504998	2.86019	2.90841
C	4.4168	-0.585677	-3.38077
C	4.46967	-1.0332	-1.97078
O	4.0053	-2.11285	-1.6315
H	3.89977	-1.35714	-3.99182
H	5.4446	-0.443589	-3.77598
H	3.85584	0.369511	-3.4583
N	5.04516	-0.196745	-1.10385
C	5.13281	-0.474179	0.308204
C	5.15434	0.849137	1.04978
O	5.26565	1.91101	0.440072
H	5.38186	0.696403	-1.38806
H	4.24395	-1.00624	0.623565
C	6.3995	-1.2966	0.631271
H	7.31223	-0.746569	0.317514
H	6.4712	-1.52854	1.71367
H	6.36616	-2.25691	0.0717853
N	5.03895	0.815667	2.39201
C	5.04377	2.02516	3.1815
H	4.94568	-0.0530015	2.86719
H	4.93806	1.78907	4.26331
H	4.20182	2.69155	2.88432
H	5.99553	2.58565	3.0361
