44
  This energy is -1.1628 and Call times are: 242629
C	0.101326	-1.84176	-2.95133
C	-0.21023	-1.70474	-1.51074
O	-0.866513	-2.55248	-0.921627
H	-0.360647	-2.77531	-3.33984
H	1.20008	-1.89487	-3.10189
H	-0.307454	-0.976876	-3.51521
N	0.260474	-0.613214	-0.902974
C	0.0030371	-0.319876	0.484916
C	0.0246258	1.18671	0.661819
O	0.395955	1.92268	-0.250419
H	0.758231	0.0880566	-1.40529
H	-0.991705	-0.660805	0.743541
C	1.05778	-0.987062	1.39466
H	2.07748	-0.629667	1.13674
H	0.862448	-0.780078	2.46682
H	1.02962	-2.0882	1.24279
N	-0.384153	1.68314	1.84608
C	-0.403186	3.10417	2.10397
H	-0.684915	1.07193	2.57067
H	-0.770655	3.31221	3.133
H	-1.07155	3.62564	1.38104
H	0.618843	3.53579	2.00246
C	4.34699	-2.38528	2.17379
C	5.4731	-1.77568	1.43121
O	6.63116	-2.09269	1.66533
H	4.74668	-3.10253	2.92323
H	3.67852	-2.93085	1.47506
H	3.767	-1.59945	2.70214
N	5.15182	-0.869591	0.504837
C	6.13977	-0.159488	-0.268636
C	5.56124	1.19006	-0.65022
O	4.3771	1.44875	-0.443867
H	4.20727	-0.592111	0.354172
H	7.01066	0.0255207	0.347758
C	6.52997	-0.958042	-1.53169
H	5.63869	-1.139	-2.16959
H	7.30031	-0.428086	-2.12856
H	6.94338	-1.94481	-1.22884
N	6.39195	2.0902	-1.21208
C	5.93193	3.40234	-1.60302
H	7.34786	1.86392	-1.36732
H	6.76296	3.99481	-2.04529
H	5.5353	3.95798	-0.722548
H	5.11635	3.32416	-2.35792
