44
  This energy is -3.8111 and Call times are: 240531
C	0.97458	-3.06985	1.31867
C	-0.0129306	-2.19327	0.649659
O	-1.02719	-2.65323	0.143571
H	0.634983	-4.12609	1.24865
H	1.06853	-2.79282	2.38973
H	1.96489	-2.97729	0.824893
N	0.268621	-0.88838	0.630764
C	-0.574599	0.0830605	-0.0202682
C	0.297729	1.23871	-0.473124
O	1.47398	1.31468	-0.123284
H	1.11812	-0.533968	1.01104
H	-1.01005	-0.359384	-0.907541
C	-1.68096	0.581698	0.935018
H	-1.23467	1.04518	1.84059
H	-2.34537	1.31995	0.440993
H	-2.30189	-0.281599	1.25984
N	-0.260712	2.16698	-1.27467
C	0.493598	3.29912	-1.75991
H	-1.21284	2.08614	-1.55033
H	-0.140638	3.94739	-2.40389
H	1.36961	2.95984	-2.35888
H	0.872776	3.91204	-0.910384
C	3.25164	-1.07397	-2.56052
C	4.08821	-0.0419946	-1.90757
O	4.37715	0.997042	-2.48492
H	2.98984	-0.738701	-3.58761
H	2.31576	-1.22922	-1.98365
H	3.80836	-2.03251	-2.62636
N	4.50414	-0.312185	-0.668061
C	5.35977	0.575393	0.0793804
C	6.18112	-0.259891	1.04336
O	5.93867	-1.45422	1.20619
H	4.29476	-1.18007	-0.226714
H	6.05176	1.0594	-0.598488
C	4.52844	1.62683	0.846603
H	3.82576	1.13107	1.54982
H	5.17659	2.32487	1.41508
H	3.92955	2.22094	0.122242
N	7.18458	0.352025	1.70263
C	8.02301	-0.363702	2.63587
H	7.36799	1.3182	1.55453
H	8.78979	0.312435	3.07419
H	8.54722	-1.20515	2.1275
H	7.41355	-0.788025	3.46632
