44
  This energy is -9.481 and Call times are: 242572
C	0.00942085	-3.45964	-0.378751
C	0.707878	-2.16185	-0.240825
O	1.91351	-2.11003	-0.0404139
H	0.74219	-4.28624	-0.25356
H	-0.454297	-3.53971	-1.38438
H	-0.776952	-3.55561	0.399388
N	-0.048664	-1.06676	-0.344801
C	0.480431	0.265431	-0.19028
C	-0.629548	1.15744	0.333004
O	-1.78791	0.750088	0.396156
H	-1.03528	-1.12582	-0.467168
H	1.26432	0.254051	0.556722
C	1.02006	0.803946	-1.53343
H	0.213688	0.825739	-2.29718
H	1.44283	1.82373	-1.42469
H	1.82551	0.131505	-1.90143
N	-0.297018	2.40131	0.730791
C	-1.28523	3.31906	1.24786
H	0.646316	2.71144	0.675924
H	-0.815734	4.28983	1.52063
H	-1.77428	2.89874	2.1564
H	-2.07674	3.5133	0.488318
C	5.64705	3.02748	1.64318
C	4.88447	2.15389	0.723139
O	3.77435	2.47384	0.321044
H	5.04302	3.93105	1.8768
H	6.59931	3.34464	1.16846
H	5.86721	2.4881	2.58852
N	5.47349	1.01026	0.366021
C	4.83827	0.0383997	-0.488695
C	5.3843	-1.33191	-0.134205
O	6.33787	-1.45076	0.632789
H	6.36002	0.744705	0.734007
H	3.77481	0.0244464	-0.285019
C	5.10052	0.357389	-1.97689
H	6.19101	0.361433	-2.18866
H	4.60498	-0.375964	-2.64559
H	4.69985	1.36765	-2.21181
N	4.78223	-2.40582	-0.682156
C	5.22922	-3.74967	-0.398527
H	4.00942	-2.2897	-1.29726
H	4.60743	-4.49408	-0.943001
H	5.15878	-3.96503	0.692316
H	6.29053	-3.88469	-0.709238
