44
  This energy is 0.1003 and Call times are: 239348
C	1.02843	-1.37507	-3.02724
C	0.798017	-1.46231	-1.56764
O	0.85622	-2.53393	-0.980557
H	1.22519	-2.3926	-3.42948
H	1.9066	-0.729257	-3.23813
H	0.132223	-0.956324	-3.53178
N	0.524296	-0.31595	-0.940494
C	0.234872	-0.247404	0.470213
C	-0.676671	0.941596	0.708801
O	-0.90881	1.74759	-0.1902
H	0.439998	0.542276	-1.4387
H	-0.309083	-1.13552	0.766847
C	1.53391	-0.107643	1.29375
H	2.08706	0.808933	0.997188
H	1.32533	-0.0677823	2.38253
H	2.18897	-0.984417	1.09751
N	-1.22446	1.07381	1.93292
C	-2.10873	2.17069	2.25088
H	-1.02797	0.4092	2.64619
H	-2.45488	2.10368	3.30583
H	-3.00342	2.15905	1.58705
H	-1.58949	3.14672	2.11336
C	0.0281093	-2.20967	-1.05823
C	0.476868	-1.02797	-0.287941
O	-0.328737	-0.258106	0.216759
H	-1.08301	-2.22796	-1.08865
H	0.389778	-3.14149	-0.57485
H	0.415263	-2.15844	-2.09773
N	1.7964	-0.855154	-0.18137
C	2.3839	0.271105	0.500496
C	3.73317	0.555674	-0.132014
O	4.2221	-0.22186	-0.94938
H	2.43933	-1.46765	-0.632302
H	1.76416	1.14548	0.345533
C	2.54344	-0.0191766	2.00898
H	3.18778	-0.909871	2.16879
H	2.98204	0.845771	2.54751
H	1.54494	-0.232397	2.44929
N	4.36585	1.68971	0.228113
C	5.65131	2.04656	-0.32545
H	3.9524	2.30839	0.887932
H	6.00571	3.01354	0.0947795
H	5.58744	2.1482	-1.43309
H	6.40991	1.26428	-0.0937341
