44
  This energy is -5.8925 and Call times are: 241989
C	0.834759	-3.3756	0.145539
C	0.100799	-2.23939	-0.455684
O	-0.48602	-2.35826	-1.52242
H	0.758133	-4.25865	-0.525453
H	0.396801	-3.63496	1.13229
H	1.90624	-3.11393	0.274188
N	0.120338	-1.09232	0.227129
C	-0.51175	0.111972	-0.251095
C	0.24527	1.29952	0.312992
O	1.11284	1.14385	1.17019
H	0.636568	-0.999667	1.07376
H	-0.425025	0.156884	-1.32956
C	-1.99519	0.163234	0.17553
H	-2.08423	0.127822	1.28226
H	-2.49664	1.0793	-0.19849
H	-2.52776	-0.719176	-0.241692
N	-0.0623041	2.5214	-0.164961
C	0.609353	3.70928	0.308338
H	-0.764373	2.62682	-0.861422
H	0.216627	4.61424	-0.205499
H	1.70473	3.64436	0.115458
H	0.458791	3.83539	1.40495
C	4.27045	3.28292	1.12117
C	5.04867	2.04352	0.898926
O	6.26435	2.02661	1.03402
H	4.9642	4.10903	1.3897
H	3.54714	3.13705	1.9508
H	3.72135	3.56091	0.196888
N	4.35225	0.960987	0.544641
C	4.9741	-0.306464	0.252371
C	4.09777	-1.04525	-0.741511
O	2.98012	-0.622738	-1.03143
H	3.36785	1.00048	0.398827
H	5.9298	-0.133472	-0.226516
C	5.15623	-1.14131	1.53888
H	4.17493	-1.32802	2.02491
H	5.64671	-2.11389	1.32899
H	5.79398	-0.578058	2.25467
N	4.59217	-2.16948	-1.2962
C	3.83253	-2.93595	-2.25622
H	5.50026	-2.49331	-1.05211
H	4.40989	-3.82399	-2.59574
H	3.58715	-2.31542	-3.14842
H	2.8759	-3.28979	-1.80812
