44
  This energy is -1.0684 and Call times are: 241496
C	0.834759	3.25933	0.890306
C	0.100799	1.99393	1.11659
O	-0.48602	1.78199	2.1688
H	0.758133	3.89583	1.79853
H	0.396801	3.80711	0.0295703
H	1.90624	3.04933	0.68802
N	0.120338	1.10957	0.116631
C	-0.51175	-0.18318	0.205016
C	0.24527	-1.14228	-0.694206
O	1.11284	-0.732732	-1.46317
H	0.636568	1.27939	-0.717957
H	-0.425025	-0.554683	1.21847
C	-1.99519	-0.101963	-0.216932
H	-2.08423	0.269108	-1.2602
H	-2.49664	-1.08844	-0.139938
H	-2.52776	0.611282	0.449403
N	-0.0623041	-2.4517	-0.611439
C	0.609353	-3.43878	-1.42429
H	-0.764373	-2.76439	0.0197459
H	0.216627	-4.4573	-1.21075
H	1.70473	-3.43574	-1.2208
H	0.458791	-3.22463	-2.50716
C	7.05974	-0.00604846	-3.15941
C	7.13715	0.139249	-1.68834
O	8.21556	0.188357	-1.11299
H	8.08806	-0.0729695	-3.57648
H	6.54795	0.873047	-3.60439
H	6.50382	-0.930198	-3.42393
N	5.97392	0.210041	-1.03697
C	5.88768	0.30939	0.398737
C	4.5808	-0.322947	0.838954
O	3.73377	-0.658173	0.0132025
H	5.10417	0.12748	-1.51506
H	6.69017	-0.264334	0.845359
C	5.95676	1.78329	0.854896
H	5.12749	2.37002	0.405331
H	5.90529	1.87216	1.95942
H	6.91755	2.22798	0.515103
N	4.39	-0.509114	2.15992
C	3.17964	-1.10848	2.67174
H	5.08872	-0.235113	2.81244
H	3.21282	-1.1755	3.78153
H	3.04671	-2.13613	2.26241
H	2.28932	-0.504131	2.38324
