44
  This energy is -3.355 and Call times are: 240264
C	-2.14736	-1.31213	-2.40413
C	-0.809438	-1.17987	-1.78476
O	0.109268	-1.92459	-2.09748
H	-2.13683	-2.15943	-3.12375
H	-2.4106	-0.381192	-2.94892
H	-2.91199	-1.51254	-1.62421
N	-0.669647	-0.212912	-0.874917
C	0.559615	0.0106281	-0.155539
C	0.215315	0.61356	1.19334
O	-0.930831	0.980581	1.44506
H	-1.43784	0.358771	-0.601185
H	1.04287	-0.940484	0.0301539
C	1.49779	0.949797	-0.944865
H	1.00646	1.92942	-1.12648
H	2.45355	1.11865	-0.407715
H	1.72995	0.4923	-1.93135
N	1.20566	0.722309	2.10077
C	0.970894	1.27854	3.41289
H	2.12575	0.41603	1.88006
H	1.90809	1.28212	4.01195
H	0.206567	0.681775	3.96148
H	0.600246	2.32626	3.33509
C	5.73513	-0.144196	3.46564
C	5.88886	0.56165	2.17362
O	6.14453	1.75719	2.13196
H	5.86984	0.580115	4.29816
H	6.49954	-0.944133	3.55802
H	4.72146	-0.591585	3.53903
N	5.73121	-0.175905	1.07201
C	5.80824	0.378547	-0.256595
C	4.93349	-0.459186	-1.17016
O	4.44262	-1.51573	-0.777134
H	5.48291	-1.13908	1.12201
H	5.39975	1.38139	-0.249404
C	7.2664	0.391368	-0.765361
H	7.68247	-0.638496	-0.782916
H	7.34075	0.82882	-1.78204
H	7.88973	1.00345	-0.0774945
N	4.71046	0.00101725	-2.41695
C	3.88658	-0.725559	-3.35475
H	5.11297	0.860089	-2.71536
H	3.82438	-0.184789	-4.32477
H	2.85371	-0.849892	-2.95598
H	4.30769	-1.73934	-3.54463
