44
  This energy is -4.8736 and Call times are: 237578
C	-1.8783	-2.91042	-0.337763
C	-0.70455	-2.16917	0.17603
O	0.0382842	-2.66201	1.01371
H	-1.93819	-3.89903	0.167164
H	-1.78048	-3.07111	-1.432
H	-2.81012	-2.34349	-0.129462
N	-0.510537	-0.945894	-0.322299
C	0.563426	-0.0873377	0.111342
C	0.118286	1.35233	-0.0640733
O	-0.923325	1.62138	-0.659362
H	-1.14712	-0.542441	-0.973344
H	0.741172	-0.243538	1.16805
C	1.84907	-0.359285	-0.700086
H	1.67011	-0.188976	-1.78314
H	2.68731	0.286	-0.366199
H	2.15184	-1.4204	-0.563265
N	0.899085	2.3167	0.461626
C	0.553101	3.71448	0.349005
H	1.73606	2.0791	0.943379
H	1.31925	4.35044	0.844785
H	-0.432405	3.91504	0.82841
H	0.484594	4.01748	-0.720876
C	5.11706	2.63459	-2.24963
C	5.68644	1.32895	-1.8468
O	6.3022	0.634082	-2.6433
H	5.33366	2.81359	-3.32523
H	5.57167	3.4515	-1.65069
H	4.01679	2.63486	-2.09974
N	5.48738	0.960431	-0.579147
C	5.94394	-0.301342	-0.0518563
C	5.01154	-0.708942	1.07334
O	4.16189	0.0702815	1.50067
H	4.94898	1.518	0.0462286
H	5.86972	-1.05843	-0.822529
C	7.39643	-0.191635	0.461437
H	7.47108	0.57753	1.25947
H	7.76431	-1.16038	0.85732
H	8.05961	0.115415	-0.376572
N	5.14456	-1.95206	1.5763
C	4.29808	-2.4298	2.64466
H	5.83519	-2.56958	1.21466
H	4.5624	-3.475	2.91838
H	3.22746	-2.40814	2.33709
H	4.41004	-1.79093	3.55045
