44
  This energy is -1.6802 and Call times are: 239027
C	-0.742839	-2.46892	2.3378
C	-0.733226	-1.94596	0.953039
O	-0.998715	-2.66795	0.00190147
H	-0.998125	-3.55077	2.32008
H	-1.50081	-1.93071	2.94489
H	0.258487	-2.34353	2.80118
N	-0.4191	-0.656541	0.807805
C	-0.326359	-0.0157076	-0.48033
C	0.674756	1.11911	-0.373064
O	1.12438	1.46117	0.718976
H	-0.165463	-0.0918709	1.58799
H	0.0626373	-0.721751	-1.20339
C	-1.70363	0.518054	-0.931413
H	-2.09835	1.25035	-0.195227
H	-1.64812	1.00152	-1.92826
H	-2.42216	-0.328101	-0.995345
N	1.05533	1.72712	-1.51391
C	2.00764	2.81306	-1.51036
H	0.683564	1.43352	-2.38836
H	2.19069	3.17897	-2.54469
H	2.97977	2.48156	-1.0787
H	1.63067	3.66442	-0.898624
C	4.58498	-2.82393	1.90444
C	4.17376	-1.58837	1.20057
O	2.99302	-1.33148	1.01013
H	3.6805	-3.41127	2.17426
H	5.13834	-2.5694	2.83275
H	5.23171	-3.44195	1.24651
N	5.15705	-0.784024	0.790004
C	4.91534	0.431951	0.0541127
C	6.12099	0.699073	-0.827143
O	7.14682	0.0314546	-0.710236
H	6.11463	-1.02681	0.916255
H	4.06327	0.290803	-0.599094
C	4.67207	1.61799	1.01296
H	5.55021	1.76986	1.67618
H	4.47101	2.55739	0.458323
H	3.79032	1.39728	1.65337
N	6.02106	1.68364	-1.74183
C	7.11511	2.00599	-2.62802
H	5.18138	2.21016	-1.82419
H	6.83831	2.84301	-3.30625
H	7.38763	1.12444	-3.25243
H	8.01582	2.30884	-2.04651
