44
  This energy is -5.4448 and Call times are: 241784
C	-0.0109782	-3.46246	0.351996
C	-0.140151	-2.23524	-0.465547
O	-0.171635	-2.28892	-1.68724
H	0.062715	-4.34521	-0.319731
H	-0.90012	-3.58189	1.00614
H	0.904319	-3.4103	0.978575
N	-0.216743	-1.08216	0.202968
C	-0.302108	0.197789	-0.455065
C	0.320608	1.23986	0.454813
O	0.638075	0.959226	1.60901
H	-0.148549	-1.05113	1.19607
H	0.284858	0.171664	-1.36469
C	-1.77036	0.560295	-0.7682
H	-2.37065	0.59757	0.165771
H	-1.84831	1.53746	-1.28743
H	-2.20816	-0.219794	-1.42861
N	0.518404	2.47331	-0.0506529
C	1.10995	3.52798	0.739232
H	0.258762	2.68014	-0.988139
H	1.18883	4.46604	0.146739
H	2.13179	3.23981	1.07697
H	0.493048	3.73502	1.64351
C	8.74813	0.569357	1.37035
C	7.30437	0.270204	1.5016
O	6.82614	-0.0852102	2.56995
H	9.24898	0.398487	2.348
H	8.89385	1.6289	1.07222
H	9.20901	-0.0952622	0.609463
N	6.56699	0.407923	0.397207
C	5.1565	0.112034	0.358091
C	4.80173	-0.314719	-1.05385
O	5.61666	-0.206239	-1.96809
H	6.97788	0.658478	-0.474714
H	4.94932	-0.727149	1.01037
C	4.32281	1.34263	0.777425
H	4.52711	2.20069	0.10212
H	3.23549	1.12332	0.764711
H	4.60463	1.64211	1.81049
N	3.57069	-0.821389	-1.26323
C	3.14604	-1.259	-2.57256
H	2.92659	-0.905102	-0.510098
H	2.10299	-1.64394	-2.53944
H	3.80801	-2.07239	-2.94869
H	3.1862	-0.416755	-3.30068
