44
  This energy is -0.6036 and Call times are: 238608
C	1.79036	-2.79878	1.03639
C	0.573969	-1.95527	1.03931
O	-0.471505	-2.3538	1.53385
H	1.56085	-3.77595	1.51426
H	2.60236	-2.30142	1.60738
H	2.12852	-2.97907	-0.00583862
N	0.685835	-0.750585	0.474859
C	-0.421853	0.165485	0.363495
C	-0.196052	1.03421	-0.859568
O	0.87313	1.00257	-1.46584
H	1.53219	-0.456417	0.0400919
H	-1.33348	-0.394829	0.197319
C	-0.545953	1.03787	1.63187
H	0.385113	1.62088	1.79694
H	-1.40378	1.73792	1.56415
H	-0.702674	0.380983	2.51521
N	-1.2087	1.82945	-1.25726
C	-1.08736	2.68672	-2.41335
H	-2.06775	1.83822	-0.756229
H	-2.02566	3.26116	-2.57719
H	-0.880251	2.08548	-3.32817
H	-0.251445	3.41095	-2.27965
C	6.987	2.43459	-2.08032
C	6.85229	1.33748	-1.09577
O	5.78214	1.1034	-0.551334
H	6.00986	2.95374	-2.18772
H	7.28807	2.02729	-3.06836
H	7.74707	3.16702	-1.73549
N	7.95564	0.630548	-0.840311
C	7.99136	-0.439515	0.125215
C	9.40156	-0.531878	0.676928
O	10.3176	0.117475	0.175993
H	8.82896	0.859261	-1.26086
H	7.33658	-0.19608	0.952633
C	7.57357	-1.77902	-0.520081
H	8.25142	-2.03445	-1.36229
H	7.58369	-2.60833	0.216581
H	6.54179	-1.6858	-0.923916
N	9.60735	-1.34087	1.73485
C	10.9148	-1.48812	2.33078
H	8.8528	-1.8551	2.12892
H	10.8787	-2.19581	3.18816
H	11.2901	-0.506914	2.7018
H	11.6451	-1.87745	1.58499
