44
  This energy is -3.0622 and Call times are: 239414
C	0.862252	0.835272	3.26673
C	0.13741	-0.000643938	2.28337
O	-0.412933	-1.04005	2.61976
H	0.81624	0.350126	4.26593
H	0.394711	1.84012	3.33326
H	1.92635	0.941971	2.96772
N	0.123419	0.442157	1.02397
C	-0.504303	-0.283629	-0.0520275
C	0.222255	0.0571312	-1.33949
O	1.06272	0.954016	-1.36991
H	0.610686	1.26896	0.757832
H	-0.382702	-1.34656	0.115362
C	-2.00137	0.0793988	-0.162735
H	-2.1263	1.16808	-0.344976
H	-2.49915	-0.48335	-0.978854
H	-2.51138	-0.171015	0.793053
N	-0.0813236	-0.662057	-2.43796
C	0.562895	-0.412893	-3.70645
H	-0.761168	-1.38651	-2.39264
H	0.178467	-1.10715	-4.48584
H	1.66459	-0.55593	-3.62228
H	0.375239	0.632075	-4.04404
C	2.7552	-2.37124	-0.118329
C	3.60698	-1.40928	0.6167
O	3.35089	-1.08911	1.76923
H	1.91204	-2.68779	0.533387
H	3.34651	-3.26727	-0.401582
H	2.34323	-1.89602	-1.03349
N	4.65587	-0.917669	-0.0470385
C	5.55085	0.0597757	0.520552
C	6.12514	0.889431	-0.612337
O	5.9366	0.570637	-1.78474
H	4.82789	-1.15659	-0.998448
H	4.98913	0.730351	1.15885
C	6.68248	-0.625435	1.31751
H	7.26565	-1.3055	0.660646
H	7.37049	0.11713	1.77112
H	6.23883	-1.23323	2.1361
N	6.83734	1.98583	-0.285696
C	7.41755	2.8391	-1.29637
H	6.97563	2.22978	0.668473
H	7.96385	3.68754	-0.828454
H	6.62591	3.25565	-1.96049
H	8.13381	2.26725	-1.92969
