44
  This energy is -3.2372 and Call times are: 241673
C	0.541331	2.45125	2.4106
C	-0.032457	1.15923	1.97175
O	-0.512706	0.373727	2.7772
H	0.464302	2.53053	3.51679
H	-0.0163485	3.29375	1.95023
H	1.61114	2.51346	2.1195
N	0.00794886	0.906442	0.661468
C	-0.472185	-0.326517	0.0888914
C	0.31491	-0.597048	-1.17951
O	1.07324	0.252357	-1.64336
H	0.439024	1.53761	0.0229801
H	-0.270363	-1.1408	0.773613
C	-1.98304	-0.240068	-0.219456
H	-2.18934	0.588481	-0.930079
H	-2.36766	-1.18821	-0.647963
H	-2.53842	-0.033707	0.721461
N	0.157856	-1.7989	-1.7685
C	0.869804	-2.14784	-2.97579
H	-0.457171	-2.47472	-1.37596
H	0.606626	-3.17757	-3.30385
H	1.97054	-2.10362	-2.80937
H	0.616542	-1.44174	-3.79946
C	6.27315	-1.28972	3.18993
C	6.08981	-1.45678	1.73061
O	6.29919	-2.53158	1.18527
H	6.62413	-2.24919	3.62822
H	5.31096	-1.00752	3.66669
H	7.03063	-0.503535	3.39292
N	5.68977	-0.37684	1.05527
C	5.50955	-0.372739	-0.375132
C	5.75918	1.0362	-0.879266
O	5.89692	1.97128	-0.0929147
H	5.56294	0.501667	1.50693
H	6.25308	-1.01481	-0.830698
C	4.08655	-0.838949	-0.753234
H	3.32362	-0.17431	-0.294721
H	3.93979	-0.853382	-1.85268
H	3.9232	-1.86894	-0.367512
N	5.83194	1.21959	-2.21234
C	6.07189	2.52416	-2.7839
H	5.72199	0.449951	-2.83254
H	6.09734	2.46831	-3.89451
H	7.04585	2.93441	-2.43122
H	5.26908	3.23716	-2.48679
