44
  This energy is -2.7637 and Call times are: 238888
C	0.000684835	-0.684574	3.41234
C	-0.180415	-1.0933	2.00121
O	-0.296872	-2.27148	1.69341
H	0.02428	-1.59007	4.05685
H	-0.841313	-0.0362946	3.73408
H	0.957477	-0.1337	3.53141
N	-0.206126	-0.110966	1.09747
C	-0.33225	-0.355061	-0.31783
C	0.356007	0.777428	-1.05629
O	0.75183	1.77342	-0.453765
H	-0.069007	0.840176	1.35899
H	0.190021	-1.26938	-0.570574
C	-1.81736	-0.447614	-0.731508
H	-2.35119	0.494098	-0.482025
H	-1.92757	-0.649175	-1.81675
H	-2.30284	-1.27756	-0.173079
N	0.522782	0.645947	-2.38705
C	1.17165	1.66988	-3.17236
H	0.199422	-0.169141	-2.85624
H	1.21267	1.37638	-4.24445
H	2.21341	1.83792	-2.8149
H	0.61982	2.63446	-3.09355
C	6.69017	2.2086	-2.55518
C	5.73349	1.30857	-1.87263
O	4.54966	1.29248	-2.18036
H	6.14775	2.81426	-3.31334
H	7.47699	1.61448	-3.06575
H	7.163	2.89314	-1.8197
N	6.23462	0.528091	-0.912371
C	5.42022	-0.368454	-0.130386
C	6.07175	-0.534727	1.22955
O	7.19558	-0.0866444	1.44847
H	7.19254	0.581999	-0.645262
H	4.44801	0.0805186	0.0304432
C	5.27553	-1.73649	-0.832381
H	6.27193	-2.2023	-0.988129
H	4.63913	-2.43114	-0.246741
H	4.80395	-1.58973	-1.82858
N	5.37215	-1.18041	2.18331
C	5.90894	-1.38129	3.50908
H	4.46259	-1.53227	1.98841
H	5.18357	-1.93185	4.1478
H	6.13205	-0.403738	3.99478
H	6.85446	-1.96886	3.46544
