44
  This energy is 0.7743 and Call times are: 238636
C	2.26401	1.36083	2.26608
C	1.77952	1.1316	0.886269
O	2.24577	1.75167	-0.059526
H	3.04677	2.15014	2.25412
H	2.70135	0.427205	2.67818
H	1.42703	1.69456	2.91506
N	0.814289	0.220958	0.739831
C	0.211921	-0.0803989	-0.534883
C	-1.20982	-0.548308	-0.287362
O	-1.60896	-0.773967	0.853463
H	0.416393	-0.246058	1.52433
H	0.155194	0.825033	-1.12616
C	1.0168	-1.16593	-1.28256
H	1.06634	-2.09851	-0.680994
H	0.570831	-1.39687	-2.27165
H	2.05584	-0.805244	-1.44578
N	-2.01434	-0.697506	-1.35812
C	-3.38441	-1.1332	-1.21932
H	-1.67451	-0.506098	-2.27297
H	-3.88036	-1.19393	-2.21309
H	-3.96008	-0.422417	-0.583191
H	-3.43063	-2.13883	-0.742132
C	10.2735	2.12071	-2.75861
C	9.5486	1.27272	-1.78566
O	8.32777	1.2959	-1.71194
H	9.54138	2.73089	-3.33098
H	10.845	1.48613	-3.46812
H	10.9714	2.80168	-2.22734
N	10.2988	0.493691	-1.00287
C	9.74003	-0.354233	0.0205503
C	10.7755	-0.517104	1.11725
O	11.9249	-0.108258	0.963915
H	11.2935	0.516151	-1.04661
H	8.87956	0.135188	0.459492
C	9.34365	-1.73002	-0.558537
H	10.2282	-2.2371	-0.999587
H	8.89934	-2.38721	0.216835
H	8.59126	-1.586	-1.36446
N	10.3867	-1.11525	2.26051
C	11.3016	-1.30898	3.36128
H	9.45134	-1.43574	2.36742
H	10.7935	-1.81768	4.21001
H	11.6936	-0.330842	3.72295
H	12.1688	-1.93339	3.04639
