44
  This energy is -2.0404 and Call times are: 235249
C	1.65976	-2.8273	1.16802
C	1.41933	-1.36672	1.16201
O	1.90111	-0.642359	2.02201
H	2.29076	-3.09205	2.04416
H	2.18741	-3.13211	0.239895
H	0.695728	-3.37352	1.24129
N	0.653141	-0.895463	0.175475
C	0.295273	0.496484	0.0615761
C	-1.04665	0.583904	-0.640682
O	-1.55733	-0.412173	-1.14935
H	0.234593	-1.50295	-0.493589
H	0.168764	0.915022	1.05226
C	1.36964	1.27983	-0.724136
H	1.49231	0.857453	-1.74423
H	1.11237	2.3557	-0.806726
H	2.34469	1.19543	-0.1964
N	-1.65613	1.78524	-0.677275
C	-2.9379	1.96333	-1.31878
H	-1.22911	2.57876	-0.256492
H	-3.27221	3.02146	-1.24249
H	-3.70935	1.31676	-0.841215
H	-2.8788	1.69099	-2.39743
C	5.49198	-3.35149	0.931974
C	5.64571	-1.91431	1.2514
O	5.64433	-1.51954	2.40923
H	5.3688	-3.92632	1.87551
H	6.39235	-3.72359	0.399396
H	4.59536	-3.50836	0.295953
N	5.78169	-1.08674	0.212643
C	5.89762	0.34244	0.36281
C	5.33699	0.996273	-0.886095
O	5.03862	0.322156	-1.87009
H	5.73978	-1.41829	-0.725533
H	5.28731	0.664622	1.19728
C	7.36989	0.757065	0.576726
H	7.99453	0.436039	-0.283972
H	7.47073	1.85399	0.707535
H	7.76175	0.260772	1.49132
N	5.17217	2.33367	-0.871491
C	4.64012	3.04221	-2.01213
H	5.41553	2.86153	-0.0645068
H	4.581	4.13341	-1.80471
H	3.61719	2.67656	-2.25949
H	5.28688	2.88962	-2.90632
