44
  This energy is -2.2967 and Call times are: 242919
C	2.46999	-2.38175	-0.582315
C	1.19708	-1.71202	-0.932024
O	0.650565	-1.9134	-2.00775
H	2.79278	-3.02318	-1.43099
H	2.33314	-3.01799	0.317251
H	3.25831	-1.62539	-0.383419
N	0.690455	-0.884469	-0.0150338
C	-0.518495	-0.128486	-0.228317
C	-0.431576	1.14419	0.592839
O	0.474008	1.30684	1.40842
H	1.16798	-0.699426	0.839128
H	-0.578593	0.162911	-1.26952
C	-1.76178	-0.950349	0.176677
H	-1.70567	-1.24057	1.2475
H	-2.69998	-0.384194	0.00412511
H	-1.80073	-1.8806	-0.431153
N	-1.37385	2.08569	0.388577
C	-1.36894	3.3312	1.11992
H	-2.09633	1.9376	-0.278624
H	-2.22334	3.9725	0.810166
H	-0.424368	3.89205	0.934145
H	-1.44967	3.14419	2.21521
C	5.08087	3.1612	1.12906
C	5.91712	1.9422	1.20569
O	6.91302	1.90132	1.91487
H	5.52306	3.9511	1.77434
H	4.05168	2.94214	1.48334
H	5.04043	3.53239	0.0832827
N	5.52446	0.905424	0.461851
C	6.25943	-0.333291	0.39886
C	6.0074	-0.964345	-0.957541
O	5.15638	-0.505666	-1.7172
H	4.73474	0.967738	-0.141729
H	7.31969	-0.123326	0.464951
C	5.82533	-1.2905	1.53048
H	4.73978	-1.51458	1.45687
H	6.39391	-2.24254	1.50113
H	6.01137	-0.805041	2.51336
N	6.75318	-2.03394	-1.29784
C	6.58761	-2.69688	-2.57034
H	7.43971	-2.38807	-0.671469
H	7.29175	-3.55301	-2.66232
H	6.7831	-1.99062	-3.40955
H	5.54865	-3.08384	-2.67971
