44
  This energy is -1.0649 and Call times are: 241455
C	0.367406	-3.10107	-1.53657
C	0.22476	-1.62869	-1.59044
O	0.408205	-1.01263	-2.63122
H	0.665119	-3.47816	-2.5391
H	-0.597542	-3.56877	-1.2487
H	1.14897	-3.38312	-0.799899
N	-0.10943	-1.02268	-0.44876
C	-0.243011	0.408265	-0.334275
C	0.0793154	0.800514	1.09534
O	0.229111	-0.0557905	1.96483
H	-0.21532	-1.53344	0.399638
H	0.488394	0.887558	-0.972989
C	-1.67067	0.86099	-0.711213
H	-2.42063	0.377687	-0.0493964
H	-1.78227	1.96238	-0.640392
H	-1.88775	0.556547	-1.75837
N	0.202453	2.11391	1.37075
C	0.513091	2.58129	2.70163
H	0.0817099	2.79167	0.653015
H	0.572146	3.69179	2.72465
H	1.49087	2.17116	3.0437
H	-0.269541	2.25652	3.42492
C	3.15812	1.54259	-2.51807
C	3.7856	0.349366	-1.90679
O	3.54658	-0.775399	-2.32415
H	2.48025	1.22142	-3.33856
H	3.93787	2.21248	-2.93756
H	2.56606	2.09516	-1.75833
N	4.61498	0.572879	-0.884765
C	5.26684	-0.490186	-0.161209
C	5.51467	-0.0139137	1.2577
O	5.32385	1.15975	1.57044
H	4.76779	1.49085	-0.530036
H	4.60212	-1.3431	-0.103703
C	6.59679	-0.884863	-0.839966
H	7.28315	-0.0128144	-0.889724
H	7.10155	-1.71202	-0.300009
H	6.39226	-1.22249	-1.87944
N	5.94072	-0.922744	2.15688
C	6.19773	-0.562721	3.53184
H	6.08547	-1.86862	1.88588
H	6.53971	-1.44752	4.11271
H	5.27529	-0.163271	4.01228
H	6.98591	0.222341	3.59185
