44
  This energy is -6.4604 and Call times are: 237770
C	0.37715	-3.4598	-0.0155082
C	0.931904	-2.08818	-0.0609698
O	2.13331	-1.88725	0.0514937
H	1.20396	-4.18524	0.145729
H	-0.129583	-3.69963	-0.973864
H	-0.349173	-3.55135	0.819456
N	0.0525083	-1.09759	-0.22757
C	0.436287	0.291955	-0.248777
C	-0.736221	1.11417	0.251965
O	-1.83618	0.59618	0.434945
H	-0.92647	-1.27385	-0.276551
H	1.25663	0.44655	0.440979
C	0.836805	0.731989	-1.67398
H	-0.007941	0.583445	-2.37993
H	1.14767	1.79649	-1.70088
H	1.6911	0.11179	-2.02308
N	-0.524068	2.42267	0.494565
C	-1.579	3.28251	0.978278
H	0.373948	2.82278	0.344394
H	-1.2072	4.32173	1.11612
H	-1.96668	2.91635	1.9565
H	-2.42815	3.30641	0.257509
C	8.39322	2.33917	-1.57044
C	7.06054	1.82424	-1.18321
O	6.05333	2.50351	-1.32658
H	8.28778	3.37512	-1.95971
H	8.83458	1.70025	-2.36399
H	9.06879	2.35342	-0.689262
N	7.02615	0.591065	-0.672831
C	5.80945	-0.0291737	-0.210773
C	6.16766	-1.01419	0.886037
O	7.34145	-1.29182	1.12446
H	7.85937	0.0661437	-0.524329
H	5.16894	0.724877	0.229437
C	5.08277	-0.748389	-1.36832
H	5.7356	-1.52925	-1.81341
H	4.13726	-1.2183	-1.02814
H	4.83746	-0.0100764	-2.16271
N	5.15686	-1.56214	1.58892
C	5.40175	-2.50541	2.65497
H	4.21378	-1.32196	1.38401
H	4.44423	-2.84114	3.11069
H	6.02646	-2.0427	3.45304
H	5.94066	-3.40157	2.27076
