44
  This energy is 0.3279 and Call times are: 238776
C	-1.60222	-0.0768385	3.08863
C	-0.572742	0.45485	2.16743
O	0.067547	1.45936	2.44563
H	-1.66956	0.58026	3.98282
H	-1.33004	-1.10229	3.4159
H	-2.59141	-0.100253	2.58459
N	-0.390199	-0.218542	1.02919
C	0.544894	0.200836	0.015143
C	0.0336584	-0.282896	-1.3288
O	-0.922447	-1.05274	-1.39893
H	-0.947664	-1.01091	0.798438
H	0.571847	1.2828	-0.0204222
C	1.95359	-0.367085	0.294925
H	1.92844	-1.47737	0.321044
H	2.68583	-0.0398726	-0.471416
H	2.30429	-0.00666522	1.28662
N	0.658518	0.167668	-2.4345
C	0.238491	-0.233959	-3.75679
H	1.42774	0.793344	-2.35768
H	0.87591	0.242889	-4.53367
H	-0.819341	0.0637263	-3.94023
H	0.311199	-1.33951	-3.87343
C	11.8558	-0.022882	3.03357
C	10.6353	0.200686	2.22642
O	9.54833	0.379071	2.75856
H	11.5893	-0.0130279	4.1128
H	12.596	0.781385	2.8388
H	12.3051	-1.00704	2.78333
N	10.791	0.193425	0.900499
C	9.68981	0.354178	-0.016026
C	10.0332	-0.376075	-1.3007
O	11.1611	-0.829418	-1.48525
H	11.675	0.00615494	0.481617
H	8.80828	-0.119005	0.398244
C	9.4204	1.84854	-0.298048
H	10.3211	2.332	-0.732861
H	8.56574	1.98598	-0.991716
H	9.1791	2.36454	0.656863
N	9.05845	-0.514667	-2.22085
C	9.29099	-1.19956	-3.47106
H	8.15097	-0.144615	-2.0517
H	8.36814	-1.20891	-4.09193
H	9.60187	-2.25391	-3.28942
H	10.0986	-0.696468	-4.05054
