44
  This energy is -4.9636 and Call times are: 240045
C	1.17146	0.804156	3.17706
C	0.336434	-0.00681296	2.26262
O	-0.216132	-1.02785	2.64805
H	1.19713	0.320054	4.17749
H	0.744685	1.82376	3.28204
H	2.20826	0.876103	2.78595
N	0.226888	0.437125	1.00831
C	-0.515937	-0.266893	-0.00713851
C	0.106038	0.0507828	-1.35391
O	0.969546	0.919631	-1.4596
H	0.715834	1.24769	0.698828
H	-0.415039	-1.33336	0.15126
C	-2.00425	0.145138	0.012659
H	-2.10892	1.23746	-0.160298
H	-2.58964	-0.400382	-0.755617
H	-2.43667	-0.0891031	1.0099
N	-0.315809	-0.657259	-2.42009
C	0.222846	-0.428443	-3.74057
H	-1.01245	-1.35905	-2.31397
H	-0.250783	-1.10915	-4.48188
H	1.3224	-0.607609	-3.75271
H	0.0407123	0.622365	-4.06271
C	3.59918	-2.02892	2.66312
C	4.30514	-0.85183	2.10882
O	4.75967	0.0163672	2.84097
H	3.56149	-1.94643	3.7711
H	4.13691	-2.96118	2.39023
H	2.56138	-2.0726	2.27051
N	4.41173	-0.79558	0.779211
C	5.03357	0.30859	0.0916919
C	4.39621	0.431291	-1.27955
O	3.62757	-0.433078	-1.69639
H	4.00081	-1.4893	0.194615
H	4.82502	1.22615	0.627607
C	6.55715	0.0908393	-0.0368878
H	6.77164	-0.844941	-0.595773
H	7.04946	0.940826	-0.552321
H	7.00124	-0.00415267	0.978048
N	4.69673	1.52078	-2.01352
C	4.13365	1.7257	-3.32771
H	5.31758	2.21134	-1.6575
H	4.50148	2.67817	-3.76901
H	3.02159	1.76983	-3.27605
H	4.41469	0.891244	-4.01024
