44
  This energy is -3.1108 and Call times are: 240792
C	1.45074	-2.68577	-1.67173
C	0.690495	-1.41573	-1.65879
O	0.460406	-0.80517	-2.69353
H	1.74988	-2.92416	-2.71555
H	0.821344	-3.51256	-1.28054
H	2.36501	-2.59085	-1.04867
N	0.279159	-0.982447	-0.464874
C	-0.433885	0.257985	-0.28751
C	-0.129282	0.784065	1.10246
O	0.479682	0.0938578	1.91762
H	0.509476	-1.46933	0.372839
H	-0.0634767	0.98753	-0.996871
C	-1.95382	0.051169	-0.467146
H	-2.33621	-0.689351	0.267321
H	-2.51273	1.00176	-0.346678
H	-2.15261	-0.341578	-1.48821
N	-0.541779	2.03121	1.40329
C	-0.292164	2.61793	2.6993
H	-1.02949	2.57587	0.72908
H	-0.708088	3.64824	2.75125
H	0.802033	2.67106	2.90224
H	-0.763341	2.0084	3.50403
C	3.75461	0.382961	-3.26407
C	4.73074	-0.131693	-2.27743
O	5.58595	-0.945378	-2.59829
H	3.94	-0.0976471	-4.24921
H	3.86502	1.48226	-3.37404
H	2.71986	0.146384	-2.93787
N	4.62045	0.338397	-1.03275
C	5.4703	-0.100606	0.0459428
C	4.69464	0.0316258	1.34303
O	3.60692	0.604176	1.3708
H	3.8934	0.969376	-0.77754
H	5.70159	-1.15023	-0.086016
C	6.76682	0.736692	0.102592
H	6.53047	1.81228	0.248519
H	7.4359	0.399243	0.920503
H	7.31408	0.631319	-0.859564
N	5.2366	-0.506488	2.45331
C	4.56845	-0.434469	3.73181
H	6.11574	-0.969424	2.41013
H	5.17303	-0.934595	4.52022
H	3.57353	-0.933569	3.68371
H	4.40839	0.626253	4.03246
