44
  This energy is -3.0258 and Call times are: 242274
C	0.840692	2.82895	1.84472
C	0.442878	1.40638	1.7489
O	0.476765	0.672369	2.7269
H	1.16075	3.05149	2.88583
H	-0.0167885	3.48449	1.58446
H	1.68692	3.03686	1.15641
N	0.0525342	0.979066	0.545811
C	-0.322737	-0.388652	0.286817
C	-0.0189189	-0.695172	-1.16759
O	0.310256	0.199324	-1.94427
H	0.0693495	1.5781	-0.249642
H	0.289491	-1.04741	0.890012
C	-1.82063	-0.615976	0.586636
H	-2.44955	0.0521604	-0.0395362
H	-2.11878	-1.66877	0.404311
H	-2.02148	-0.378028	1.65406
N	-0.115014	-1.97783	-1.56956
C	0.160497	-2.3652	-2.93346
H	-0.378829	-2.68821	-0.925487
H	0.0268823	-3.46152	-3.06554
H	1.20694	-2.10356	-3.21234
H	-0.525711	-1.84084	-3.63724
C	5.81369	3.36064	0.744978
C	5.03758	2.10505	0.855917
O	4.13292	1.99002	1.67125
H	5.44389	4.08886	1.49916
H	5.69053	3.79844	-0.267891
H	6.89	3.16315	0.933722
N	5.38234	1.11886	0.0246789
C	4.74796	-0.175656	0.0432107
C	5.75424	-1.20249	-0.441121
O	6.83088	-0.851846	-0.920293
H	6.14779	1.21335	-0.605409
H	4.49031	-0.432636	1.06311
C	3.48973	-0.186302	-0.852328
H	3.7551	0.0669627	-1.90089
H	2.98444	-1.17369	-0.835567
H	2.77086	0.577983	-0.484316
N	5.42766	-2.50415	-0.318547
C	6.32453	-3.55208	-0.74708
H	4.55357	-2.76833	0.0754638
H	5.87618	-4.55321	-0.562793
H	7.28998	-3.4933	-0.194138
H	6.54398	-3.46093	-1.83551
