44
  This energy is -0.4323 and Call times are: 242415
C	2.13168	1.83789	2.04714
C	1.61689	0.553892	1.52038
O	2.1967	-0.499869	1.74357
H	3.07088	1.65286	2.61242
H	1.38633	2.29802	2.7294
H	2.34722	2.53578	1.21073
N	0.497853	0.616014	0.794927
C	-0.099643	-0.543186	0.180261
C	-0.844438	-0.089336	-1.06105
O	-1.00273	1.1066	-1.29852
H	0.0599764	1.48615	0.587594
H	0.68219	-1.21962	-0.141932
C	-1.06054	-1.25304	1.15904
H	-1.86884	-0.562683	1.48168
H	-1.51645	-2.15521	0.702122
H	-0.495832	-1.56931	2.06316
N	-1.31463	-1.04114	-1.89112
C	-2.03089	-0.703954	-3.0992
H	-1.17309	-2.00353	-1.68412
H	-2.33475	-1.62372	-3.64593
H	-1.39349	-0.0889618	-3.77506
H	-2.94806	-0.117825	-2.86176
C	6.5861	-0.0604048	-3.45511
C	7.39088	-0.293084	-2.23473
O	8.44223	-0.916876	-2.27918
H	7.08628	-0.543378	-4.32253
H	6.49641	1.02851	-3.65254
H	5.57296	-0.498725	-3.33471
N	6.90441	0.210621	-1.09806
C	7.55256	0.0292084	0.176907
C	6.48813	0.061288	1.25743
O	5.33136	0.382905	0.992577
H	6.02685	0.680748	-1.07101
H	8.0135	-0.950201	0.207164
C	8.60625	1.13145	0.421928
H	8.13208	2.13584	0.401463
H	9.12213	0.994834	1.39441
H	9.37051	1.09441	-0.384837
N	6.85568	-0.282198	2.50761
C	5.90998	-0.286324	3.5993
H	7.79547	-0.543475	2.70155
H	6.40383	-0.597177	4.54625
H	5.07374	-0.992696	3.39188
H	5.47571	0.728931	3.74697
