44
  This energy is -1.6769 and Call times are: 238231
C	-1.4287	-1.7156	2.66987
C	-0.402638	-0.813888	2.09956
O	0.351481	-0.176284	2.82148
H	-1.37895	-1.67323	3.77965
H	-1.24525	-2.76025	2.34154
H	-2.44139	-1.3981	2.34317
N	-0.353099	-0.73853	0.767551
C	0.562589	0.127866	0.0679553
C	-0.0688877	0.512701	-1.25669
O	-1.10117	-0.0314736	-1.64396
H	-1.00062	-1.2323	0.194168
H	0.698138	1.03888	0.637433
C	1.91905	-0.573716	-0.162369
H	1.78187	-1.50287	-0.755568
H	2.6375	0.0881472	-0.687995
H	2.35901	-0.853391	0.819753
N	0.536804	1.47307	-1.98254
C	0.00551673	1.90854	-3.25309
H	1.36909	1.9046	-1.65064
H	0.644526	2.70485	-3.69442
H	-1.0248	2.31415	-3.12975
H	-0.0418655	1.05837	-3.97149
C	5.5448	-2.19392	2.70119
C	5.61801	-0.829554	2.13172
O	5.5092	0.15985	2.84281
H	5.36849	-2.12568	3.79668
H	6.49827	-2.7344	2.52361
H	4.70843	-2.75794	2.23704
N	5.80512	-0.746382	0.81245
C	5.85451	0.510814	0.108481
C	5.37109	0.277644	-1.3105
O	5.17802	-0.861534	-1.73086
H	5.85088	-1.56089	0.241192
H	5.16773	1.20747	0.572843
C	7.28823	1.08498	0.104609
H	7.99134	0.37523	-0.381115
H	7.33672	2.0598	-0.422552
H	7.62428	1.24008	1.15311
N	5.15514	1.36028	-2.08334
C	4.68948	1.2363	-3.44494
H	5.3131	2.27412	-1.72412
H	4.57271	2.23837	-3.91341
H	3.70415	0.717317	-3.47736
H	5.41092	0.64581	-4.05485
