44
  This energy is 2.1125 and Call times are: 239887
C	1.00851	2.82092	-1.77144
C	1.21072	1.80455	-0.714439
O	2.28248	1.6993	-0.134224
H	1.95138	3.39148	-1.91755
H	0.203857	3.52628	-1.47522
H	0.73445	2.3286	-2.72832
N	0.166834	1.01926	-0.438776
C	0.224292	-0.0431438	0.53414
C	-0.765361	-1.1164	0.121505
O	-1.56061	-0.920735	-0.795559
H	-0.686094	1.08993	-0.948076
H	1.2105	-0.490066	0.517226
C	-0.107036	0.48444	1.94733
H	-1.12286	0.933577	1.96779
H	-0.0525737	-0.321452	2.70766
H	0.624811	1.27408	2.2252
N	-0.732995	-2.28669	0.788892
C	-1.63309	-3.36812	0.462518
H	-0.0795918	-2.4277	1.52527
H	-1.45038	-4.24461	1.12253
H	-1.49292	-3.69029	-0.594759
H	-2.69299	-3.04894	0.58854
C	7.97521	3.31417	-0.280777
C	7.71162	1.85888	-0.342516
O	6.57103	1.42529	-0.428982
H	7.0093	3.86385	-0.307798
H	8.59202	3.62853	-1.14881
H	8.50646	3.56722	0.660926
N	8.78009	1.05976	-0.296301
C	8.68043	-0.378496	-0.303465
C	9.87807	-0.939309	0.439986
O	10.8063	-0.208674	0.780958
H	9.69935	1.42629	-0.184626
H	7.79361	-0.677838	0.241104
C	8.63748	-0.921341	-1.7487
H	9.55195	-0.623423	-2.30462
H	8.54681	-2.02676	-1.7676
H	7.75797	-0.491683	-2.27613
N	9.88046	-2.25806	0.717295
C	10.975	-2.87953	1.42575
H	9.11841	-2.83226	0.436827
H	10.7908	-3.96862	1.55678
H	11.1009	-2.42165	2.43361
H	11.9295	-2.75002	0.86602
