44
  This energy is -4.1373 and Call times are: 241707
C	1.72214	0.958749	-2.8684
C	0.533056	0.998775	-1.98771
O	-0.35676	1.8198	-2.16251
H	1.64342	1.76599	-3.62869
H	1.78032	-0.0204188	-3.38858
H	2.64557	1.11567	-2.27195
N	0.493116	0.0978785	-1.00324
C	-0.578111	0.040722	-0.040037
C	-0.0225404	-0.527983	1.25204
O	1.11158	-1.00083	1.29573
H	1.24441	-0.537354	-0.848649
H	-0.922335	1.04542	0.171447
C	-1.74139	-0.832132	-0.559804
H	-1.39112	-1.86579	-0.766921
H	-2.57836	-0.872747	0.167077
H	-2.12702	-0.401847	-1.5098
N	-0.811771	-0.487031	2.34359
C	-0.366101	-0.999627	3.61826
H	-1.72493	-0.0967961	2.28949
H	-1.1569	-0.874996	4.39048
H	0.546581	-0.460396	3.96107
H	-0.118499	-2.0831	3.54136
C	7.87467	-0.954617	-2.70225
C	6.68297	-0.288758	-2.12985
O	5.96997	0.431365	-2.81503
H	7.97653	-0.669319	-3.77187
H	7.76697	-2.05751	-2.63316
H	8.7888	-0.637812	-2.1572
N	6.4389	-0.517364	-0.837354
C	5.34164	0.0941563	-0.129798
C	5.73325	0.22257	1.33025
O	6.75614	-0.309596	1.75709
H	7.05152	-1.07313	-0.282666
H	5.18459	1.09551	-0.510914
C	4.05495	-0.747908	-0.273262
H	4.21234	-1.77206	0.127213
H	3.19934	-0.280302	0.255699
H	3.79173	-0.835355	-1.35002
N	4.92653	0.944433	2.13283
C	5.22142	1.12607	3.53505
H	4.10539	1.37088	1.76821
H	4.44048	1.74952	4.02361
H	6.20598	1.63049	3.66725
H	5.26395	0.143428	4.05826
