44
  This energy is 0.142 and Call times are: 242513
C	0.282852	-2.30172	2.59514
C	0.655861	-1.03106	1.93376
O	1.32622	-0.188351	2.51417
H	0.687331	-2.30936	3.63062
H	0.707387	-3.16262	2.03713
H	-0.822353	-2.39956	2.64033
N	0.219815	-0.862636	0.683213
C	0.465793	0.33909	-0.0743557
C	-0.671032	0.515806	-1.06327
O	-1.50322	-0.373476	-1.23168
H	-0.35937	-1.53995	0.238619
H	0.448409	1.19182	0.592856
C	1.81914	0.257671	-0.813994
H	1.8336	-0.610872	-1.50642
H	2.02649	1.18279	-1.38991
H	2.63544	0.120455	-0.0715876
N	-0.737185	1.68023	-1.73837
C	-1.78685	1.94028	-2.69585
H	-0.0569618	2.38945	-1.58549
H	-1.66839	2.95122	-3.14438
H	-2.78643	1.88892	-2.20648
H	-1.76532	1.1875	-3.51683
C	1.72771	-0.337545	1.77885
C	2.5398	-0.509971	0.553312
O	2.14248	-1.19651	-0.377934
H	0.787826	-0.923303	1.68207
H	1.47083	0.733335	1.9202
H	2.2892	-0.702804	2.6645
N	3.71708	0.119126	0.52812
C	4.63635	0.0117397	-0.577308
C	6.04336	0.201218	-0.0425237
O	6.23285	0.566485	1.11609
H	4.04482	0.64103	1.31046
H	4.58079	-0.986881	-0.992389
C	4.32217	1.06675	-1.66059
H	4.38935	2.09184	-1.23784
H	5.01454	0.985307	-2.52344
H	3.28523	0.914069	-2.03177
N	7.06945	-0.052861	-0.878343
C	8.44276	0.0945497	-0.455923
H	6.89618	-0.351457	-1.81102
H	9.13883	-0.161076	-1.28501
H	8.66281	-0.576409	0.405864
H	8.64584	1.14279	-0.137958
