44
  This energy is -2.4241 and Call times are: 234430
C	1.38302	2.74808	1.62726
C	1.45279	1.35356	1.13576
O	2.50883	0.736168	1.13102
H	2.39764	3.07898	1.93861
H	0.700332	2.81237	2.50051
H	1.01728	3.41975	0.822161
N	0.308814	0.819336	0.701827
C	0.226771	-0.511989	0.154649
C	-0.921882	-0.546327	-0.83579
O	-1.69832	0.402062	-0.932871
H	-0.534597	1.34824	0.673779
H	1.13386	-0.728521	-0.395746
C	0.0093673	-1.5554	1.27235
H	-0.926581	-1.33983	1.83053
H	-0.0416322	-2.58599	0.865138
H	0.857598	-1.50699	1.98965
N	-1.05159	-1.64519	-1.60502
C	-2.11109	-1.76508	-2.57933
H	-0.411049	-2.4006	-1.51482
H	-2.04814	-2.74019	-3.11077
H	-2.04398	-0.949137	-3.33498
H	-3.10787	-1.69793	-2.08633
C	9.41454	-2.42021	-0.652184
C	8.48171	-1.35831	-1.0919
O	8.52812	-0.905287	-2.22725
H	10.1039	-2.67229	-1.48708
H	8.84907	-3.33165	-0.36538
H	10.0132	-2.06884	0.214548
N	7.60049	-0.929708	-0.185175
C	6.65775	0.128029	-0.451605
C	6.34592	0.824991	0.85934
O	6.73945	0.361695	1.92807
H	7.60192	-1.27931	0.747366
H	7.11692	0.859681	-1.10465
C	5.36647	-0.431215	-1.08806
H	4.88937	-1.17411	-0.413871
H	4.63808	0.37525	-1.31074
H	5.61957	-0.943659	-2.04183
N	5.63342	1.96758	0.805997
C	5.29361	2.70301	2.00176
H	5.32732	2.32894	-0.0685301
H	4.70613	3.61335	1.74995
H	6.21442	3.01891	2.54359
H	4.68624	2.07314	2.69133
