44
  This energy is 0.1009 and Call times are: 242601
C	1.90715	2.59598	-1.3177
C	1.67059	1.16006	-1.04692
O	2.35407	0.294986	-1.57694
H	2.74074	2.69997	-2.04585
H	2.18185	3.12218	-0.379406
H	0.99442	3.05975	-1.74773
N	0.67783	0.871115	-0.202347
C	0.30037	-0.481091	0.125713
C	-1.1762	-0.488729	0.473896
O	-1.79778	0.563957	0.605069
H	0.103886	1.58457	0.189357
H	0.429337	-1.1096	-0.746622
C	1.13816	-1.01643	1.30756
H	0.998	-0.378055	2.20582
H	0.866491	-2.0617	1.5608
H	2.21553	-0.994292	1.03345
N	-1.77701	-1.68559	0.624181
C	-3.18011	-1.79141	0.950196
H	-1.25835	-2.52645	0.510029
H	-3.48583	-2.85785	1.03056
H	-3.80357	-1.30635	0.164524
H	-3.3969	-1.29018	1.92123
C	8.06287	-0.848502	-1.03454
C	6.84075	-0.0183886	-1.12663
O	6.82029	1.00614	-1.79471
H	8.8747	-0.374004	-1.62752
H	7.8676	-1.86341	-1.44022
H	8.39112	-0.930268	0.0231211
N	5.77778	-0.449294	-0.443396
C	4.53111	0.273612	-0.401149
C	3.8471	-0.0396842	0.916252
O	4.28164	-0.918641	1.65809
H	5.82218	-1.26325	0.128766
H	4.73429	1.33718	-0.414184
C	3.62505	-0.119252	-1.58857
H	3.40769	-1.20849	-1.56967
H	2.66766	0.440862	-1.57497
H	4.14883	0.111384	-2.54188
N	2.75792	0.683556	1.24278
C	2.04474	0.459945	2.47872
H	2.4238	1.39331	0.631479
H	1.1794	1.15353	2.56446
H	2.71418	0.624946	3.35388
H	1.66276	-0.585402	2.52851
