44
  This energy is -0.1399 and Call times are: 239831
C	-0.149094	-3.16617	-1.43731
C	-0.692201	-1.80623	-1.22109
O	-1.61269	-1.3765	-1.9026
H	-0.69234	-3.64917	-2.27842
H	-0.282596	-3.78144	-0.52278
H	0.930532	-3.11117	-1.69122
N	-0.122097	-1.08672	-0.251729
C	-0.513055	0.268232	0.0479578
C	0.690998	0.992345	0.620209
O	1.71594	0.378292	0.910281
H	0.653357	-1.43502	0.267143
H	-0.786315	0.772628	-0.87049
C	-1.68762	0.294614	1.05043
H	-1.40424	-0.213483	1.99677
H	-2.00701	1.33213	1.27861
H	-2.55474	-0.247679	0.614124
N	0.596645	2.32603	0.788783
C	1.69347	3.10003	1.32178
H	-0.239487	2.80585	0.544396
H	1.42148	4.1768	1.38351
H	2.59436	3.00273	0.67356
H	1.96353	2.74727	2.34343
C	4.40568	0.112758	-1.48772
C	5.32551	-0.332546	-0.416846
O	4.90234	-0.862358	0.601306
H	3.3578	-0.100846	-1.18415
H	4.62456	-0.430852	-2.43077
H	4.51535	1.20476	-1.65678
N	6.62696	-0.121221	-0.626526
C	7.63924	-0.460856	0.342231
C	8.80934	0.48656	0.155607
O	8.85592	1.24748	-0.809038
H	6.95293	0.348236	-1.44213
H	7.24854	-0.298489	1.33903
C	8.09645	-1.92617	0.171788
H	8.50708	-2.09064	-0.847219
H	8.86592	-2.20403	0.920949
H	7.2228	-2.60103	0.304593
N	9.78392	0.467447	1.08612
C	10.9333	1.33732	0.994827
H	9.72651	-0.152366	1.86175
H	11.6207	1.17224	1.85365
H	10.6184	2.406	0.998376
H	11.4968	1.14658	0.052869
