44
  This energy is -2.1613 and Call times are: 239859
C	0.529116	0.0704479	3.43915
C	0.384856	-0.655835	2.15742
O	0.66438	-1.84337	2.06784
H	0.923729	-0.623988	4.2124
H	-0.456656	0.457231	3.77291
H	1.23767	0.917327	3.32148
N	-0.0606034	0.0554617	1.11915
C	-0.211815	-0.501852	-0.201874
C	-0.0304032	0.616603	-1.21069
O	0.0394476	1.78865	-0.845791
H	-0.244972	1.03101	1.19771
H	0.575166	-1.22482	-0.376813
C	-1.5989	-1.16055	-0.367303
H	-2.40656	-0.4168	-0.198298
H	-1.72237	-1.60559	-1.37587
H	-1.71276	-1.97045	0.385988
N	0.059036	0.276783	-2.51167
C	0.237926	1.2726	-3.54246
H	0.00441837	-0.677282	-2.78707
H	0.288869	0.795235	-4.54583
H	1.18036	1.84352	-3.37772
H	-0.608958	1.99643	-3.54091
C	10.2222	0.809714	-1.42073
C	8.79242	0.442377	-1.52953
O	8.20096	0.510313	-2.59816
H	10.5924	1.14329	-2.41449
H	10.8185	-0.0668459	-1.09083
H	10.3501	1.63856	-0.692894
N	8.19577	0.0402511	-0.404942
C	6.79824	-0.30871	-0.34415
C	6.30036	-0.024189	1.06039
O	7.08568	0.270783	1.95926
H	8.67971	0.0293083	0.465425
H	6.24115	0.328912	-1.01921
C	6.58472	-1.79549	-0.703525
H	7.14762	-2.45042	-0.00476876
H	5.51114	-2.07308	-0.673794
H	6.96342	-1.98248	-1.7321
N	4.97291	-0.0985644	1.28028
C	4.40687	0.1611	2.58348
H	4.35294	-0.334734	0.539372
H	3.30037	0.049865	2.56091
H	4.64829	1.19622	2.91742
H	4.81555	-0.549247	3.33816
