44
  This energy is -4.6898 and Call times are: 237853
C	-1.67337	-1.64476	2.57047
C	-0.582142	-0.778368	2.07073
O	0.13348	-0.153662	2.84147
H	-1.7059	-1.59109	3.68039
H	-1.49559	-2.69777	2.26665
H	-2.64923	-1.30311	2.16541
N	-0.430605	-0.719649	0.745603
C	0.559308	0.113017	0.108973
C	0.0402817	0.500004	-1.26304
O	-0.975078	-0.0197893	-1.72192
H	-1.04704	-1.20184	0.129671
H	0.677584	1.02639	0.67853
C	1.90872	-0.62842	-0.0119006
H	1.79008	-1.56015	-0.605065
H	2.68315	0.00725288	-0.488025
H	2.26556	-0.908913	1.00315
N	0.725845	1.43488	-1.95009
C	0.304062	1.87033	-3.26107
H	1.5428	1.84698	-1.56043
H	0.996805	2.64355	-3.66038
H	-0.720643	2.30567	-3.21952
H	0.286583	1.01363	-3.97304
C	4.07095	0.860118	3.07753
C	4.37187	1.15021	1.65751
O	3.85623	2.09862	1.08214
H	3.3369	1.60388	3.45678
H	4.99709	0.926592	3.68629
H	3.63597	-0.156773	3.17651
N	5.22684	0.323332	1.05114
C	5.584	0.451783	-0.339722
C	5.93929	-0.926028	-0.866008
O	6.05208	-1.88238	-0.101568
H	5.60674	-0.468314	1.52106
H	4.72396	0.798738	-0.898812
C	6.77244	1.42209	-0.516793
H	7.65824	1.06109	0.0480666
H	7.04807	1.54018	-1.58478
H	6.49281	2.42154	-0.117736
N	6.11662	-1.06113	-2.19504
C	6.45139	-2.33522	-2.7873
H	6.01706	-0.276488	-2.79795
H	6.55478	-2.24093	-3.89077
H	5.65904	-3.08847	-2.57264
H	7.4131	-2.71914	-2.37637
