44
  This energy is 0.1009 and Call times are: 238580
C	-2.27168	-1.90711	-1.82073
C	-1.49815	-1.62459	-0.590704
O	-1.73513	-2.21302	0.45524
H	-3.04444	-2.67532	-1.60032
H	-1.59906	-2.29181	-2.61592
H	-2.7746	-0.983456	-2.17714
N	-0.540914	-0.69938	-0.691028
C	0.266202	-0.286103	0.429832
C	0.693721	1.1513	0.200364
O	0.488164	1.70498	-0.878012
H	-0.387179	-0.199756	-1.53874
H	-0.336129	-0.30377	1.32956
C	1.50134	-1.19987	0.586957
H	2.12517	-1.17392	-0.331851
H	2.12356	-0.900382	1.4551
H	1.16486	-2.24767	0.745842
N	1.29532	1.79508	1.22
C	1.73169	3.16633	1.09577
H	1.44926	1.33163	2.08636
H	2.20223	3.51644	2.04088
H	0.869675	3.83349	0.865325
H	2.47685	3.26876	0.273947
C	4.45659	2.82724	-0.731074
C	4.80738	1.40422	-0.938718
O	4.09715	0.668671	-1.61025
H	3.49811	3.04858	-1.24894
H	5.2502	3.48189	-1.14863
H	4.33643	3.03754	0.352626
N	5.9296	0.978257	-0.354273
C	6.37879	-0.389606	-0.429944
C	7.18265	-0.69331	0.820318
O	7.4929	0.202941	1.60274
H	6.47563	1.5786	0.223044
H	5.51937	-1.0484	-0.428817
C	7.23589	-0.619695	-1.69394
H	8.12333	0.0485025	-1.69042
H	7.57633	-1.67265	-1.77084
H	6.63016	-0.383784	-2.59604
N	7.53319	-1.97546	1.0422
C	8.29373	-2.3602	2.20828
H	7.26938	-2.68728	0.399719
H	8.48166	-3.45651	2.2111
H	7.74364	-2.09652	3.14057
H	9.27644	-1.83575	2.22724
