44
  This energy is -1.5973 and Call times are: 242751
C	-2.04689	2.80929	-0.17546
C	-1.17119	1.87959	0.572831
O	-0.783261	2.14597	1.70197
H	-2.23624	3.71348	0.442978
H	-3.01728	2.3206	-0.404075
H	-1.55652	3.11805	-1.12272
N	-0.833616	0.749378	-0.052507
C	0.0465041	-0.23261	0.530287
C	0.761168	-0.95503	-0.596177
O	0.427974	-0.781667	-1.76692
H	-1.1239	0.565408	-0.987256
H	0.801719	0.270489	1.1212
C	-0.743702	-1.2343	1.4006
H	-1.51157	-1.75833	0.792473
H	-0.0752982	-1.98732	1.86612
H	-1.26486	-0.682828	2.21339
N	1.77332	-1.7813	-0.26624
C	2.51485	-2.50699	-1.27106
H	2.03096	-1.90545	0.686272
H	3.30599	-3.13192	-0.801175
H	3.00172	-1.80332	-1.98456
H	1.83895	-3.17523	-1.85224
C	5.94535	-1.69451	-2.51705
C	6.84381	-1.66873	-1.34093
O	7.1662	-2.7003	-0.767917
H	5.64629	-2.74426	-2.72783
H	6.46766	-1.28409	-3.40671
H	5.03301	-1.09464	-2.31488
N	7.27276	-0.467052	-0.948045
C	8.11704	-0.27792	0.205201
C	7.84065	1.10167	0.772583
O	7.13818	1.90476	0.161611
H	6.96886	0.366974	-1.3996
H	7.84861	-0.99957	0.966639
C	9.60771	-0.419072	-0.173261
H	9.8862	0.328027	-0.946781
H	10.2675	-0.289272	0.708999
H	9.78523	-1.43309	-0.593483
N	8.38419	1.40678	1.96735
C	8.17154	2.6935	2.58808
H	8.94639	0.742283	2.44845
H	8.69993	2.75091	3.56518
H	7.08582	2.86917	2.76593
H	8.55134	3.51243	1.9352
