44
  This energy is -1.3113 and Call times are: 236039
C	-0.987547	0.0264703	-3.33717
C	-0.690781	-0.681448	-2.0715
O	-0.987492	-1.85848	-1.91997
H	-1.50173	-0.669294	-4.03532
H	-0.045951	0.378124	-3.80885
H	-1.65059	0.895823	-3.14302
N	-0.0899264	0.0342548	-1.11802
C	0.223591	-0.504318	0.182054
C	0.21055	0.636313	1.18223
O	0.123554	1.80341	0.805366
H	0.108321	1.00243	-1.24134
H	-0.551661	-1.20059	0.476716
C	1.60205	-1.20074	0.172926
H	2.39915	-0.484215	-0.119083
H	1.84884	-1.6317	1.16484
H	1.59108	-2.02657	-0.571537
N	0.288864	0.321867	2.49029
C	0.277991	1.34024	3.51448
H	0.354533	-0.628481	2.77594
H	0.350455	0.882038	4.52544
H	-0.662345	1.93582	3.46622
H	1.13606	2.0386	3.3835
C	5.8562	1.49534	-3.13227
C	5.45648	0.374307	-2.25211
O	4.74971	-0.534367	-2.66586
H	5.40373	1.35233	-4.13759
H	6.9612	1.5249	-3.23639
H	5.4989	2.45868	-2.71111
N	5.90651	0.416525	-0.99589
C	5.56682	-0.579876	-0.0108243
C	5.60313	0.0755461	1.3569
O	6.04409	1.21457	1.49793
H	6.44707	1.18366	-0.662504
H	4.55198	-0.917779	-0.179751
C	6.5502	-1.76941	-0.0675045
H	7.59019	-1.42486	0.11619
H	6.29098	-2.54986	0.676964
H	6.51273	-2.22865	-1.07945
N	5.12881	-0.631156	2.4017
C	5.11799	-0.0871948	3.73967
H	4.7723	-1.54977	2.26708
H	4.68975	-0.819942	4.45865
H	4.50582	0.842776	3.78065
H	6.15168	0.165125	4.06977
