44
  This energy is -1.6077 and Call times are: 236863
C	2.32298	-2.55059	-0.45931
C	0.984378	-1.95399	-0.667541
O	0.199317	-2.42756	-1.47737
H	2.44872	-3.4183	-1.14278
H	2.42695	-2.90091	0.589119
H	3.11372	-1.80256	-0.679012
N	0.691543	-0.880907	0.0707844
C	-0.554441	-0.165834	-0.0506796
C	-0.307878	1.28199	0.32955
O	0.76339	1.63001	0.822478
H	1.35644	-0.482607	0.696198
H	-0.873747	-0.177729	-1.08535
C	-1.63797	-0.787238	0.857651
H	-1.31537	-0.765694	1.92043
H	-2.60602	-0.253964	0.762682
H	-1.7962	-1.84869	0.566743
N	-1.29846	2.16625	0.0996401
C	-1.15242	3.56614	0.423953
H	-2.1566	1.86636	-0.303756
H	-2.07467	4.12922	0.160142
H	-0.297807	4.01172	-0.13495
H	-0.959583	3.69923	1.5131
C	6.2602	1.41998	-3.07246
C	6.22347	0.274873	-2.13515
O	6.48509	-0.859447	-2.51103
H	6.53	1.05534	-4.0874
H	7.0194	2.16008	-2.74289
H	5.26404	1.90839	-3.11912
N	5.88965	0.551922	-0.87254
C	5.76959	-0.463203	0.144151
C	4.75467	0.0101254	1.16761
O	4.31619	1.15834	1.1353
H	5.63957	1.47389	-0.590943
H	5.37992	-1.37022	-0.300932
C	7.13277	-0.732983	0.81809
H	7.52799	0.194815	1.28396
H	7.05629	-1.52268	1.59336
H	7.86182	-1.07044	0.049363
N	4.34941	-0.873241	2.10112
C	3.38246	-0.514262	3.11222
H	4.71252	-1.79907	2.10855
H	3.17953	-1.37584	3.78582
H	2.42128	-0.20206	2.64326
H	3.7565	0.333792	3.73032
