44
  This energy is -4.6152 and Call times are: 237546
C	0.871401	1.21003	-3.1447
C	0.883176	1.29391	-1.66688
O	1.61432	2.0822	-1.08342
H	1.60911	1.93093	-3.55938
H	-0.136888	1.4635	-3.53439
H	1.14716	0.185391	-3.47206
N	0.060027	0.466278	-1.01893
C	-0.00900132	0.401572	0.419682
C	-0.430649	-1.00242	0.810301
O	-0.806193	-1.80682	-0.0403554
H	-0.499137	-0.198277	-1.50634
H	0.978058	0.568557	0.832551
C	-1.00965	1.44065	0.971282
H	-2.02467	1.2633	0.556179
H	-1.06153	1.4102	2.07894
H	-0.685729	2.45978	0.666667
N	-0.36971	-1.33331	2.11522
C	-0.74575	-2.64813	2.58
H	-0.0593276	-0.670087	2.78818
H	-0.626228	-2.72434	3.68323
H	-0.110332	-3.42965	2.10383
H	-1.80855	-2.86558	2.32641
C	4.53389	3.09949	1.52239
C	4.53201	2.22193	0.330314
O	4.60511	2.68748	-0.798549
H	4.59057	4.16096	1.19694
H	5.41179	2.87269	2.16317
H	3.6016	2.95228	2.1074
N	4.44448	0.909619	0.55961
C	4.38797	-0.0662065	-0.500166
C	3.61385	-1.26907	0.00524696
O	3.30089	-1.36396	1.19047
H	4.34438	0.54832	1.48227
H	3.83531	0.345284	-1.33555
C	5.80774	-0.482928	-0.942683
H	6.37152	-0.914847	-0.0884883
H	5.77776	-1.22375	-1.76779
H	6.3585	0.414023	-1.30113
N	3.27794	-2.21797	-0.890723
C	2.53663	-3.39531	-0.502799
H	3.53656	-2.12149	-1.84617
H	2.3581	-4.05462	-1.38068
H	1.54956	-3.11306	-0.0700013
H	3.09649	-3.97712	0.264796
