44
  This energy is -2.139 and Call times are: 241524
C	1.29889	-1.49365	-2.86261
C	0.266815	-1.37561	-1.80809
O	-0.797415	-1.97259	-1.8943
H	0.923528	-2.15786	-3.6712
H	2.22848	-1.93063	-2.44111
H	1.52235	-0.494654	-3.29291
N	0.563746	-0.586745	-0.772761
C	-0.356255	-0.338989	0.309262
C	-0.0577171	1.03513	0.878667
O	0.940661	1.65985	0.525567
H	1.41747	-0.0751698	-0.736636
H	-1.36666	-0.314516	-0.0794703
C	-0.223457	-1.41957	1.40468
H	0.810192	-1.43793	1.81122
H	-0.93639	-1.24766	2.23697
H	-0.4384	-2.41745	0.963805
N	-0.927685	1.54372	1.77339
C	-0.728891	2.84642	2.36469
H	-1.732	1.02493	2.04358
H	-1.55115	3.08573	3.07451
H	-0.704203	3.63514	1.57818
H	0.235987	2.88272	2.92041
C	5.5182	-2.64096	0.896788
C	6.72189	-1.80356	1.09945
O	7.38604	-1.88707	2.12333
H	5.3592	-3.27863	1.79342
H	5.65202	-3.29511	0.00970206
H	4.62489	-1.99785	0.750198
N	7.03242	-0.961655	0.110936
C	8.1494	-0.052829	0.181222
C	7.82574	1.16105	-0.66926
O	6.83581	1.17336	-1.39836
H	6.45883	-0.875822	-0.698681
H	8.2671	0.290282	1.20154
C	9.44498	-0.731609	-0.314746
H	9.32833	-1.0744	-1.36495
H	10.3151	-0.0463431	-0.252525
H	9.65797	-1.62158	0.316855
N	8.65485	2.22031	-0.588278
C	8.42389	3.42145	-1.35645
H	9.44849	2.19306	0.0104441
H	9.21423	4.17699	-1.15212
H	7.43652	3.86868	-1.09882
H	8.42698	3.19684	-2.44764
