44
  This energy is -1.7533 and Call times are: 235046
C	0.865996	0.833758	3.26613
C	0.138957	-0.000848083	2.28328
O	-0.413064	-1.03924	2.62007
H	0.819772	0.348718	4.26537
H	0.400344	1.83946	3.33295
H	1.93008	0.938499	2.9664
N	0.124923	0.441951	1.02387
C	-0.504858	-0.282705	-0.0516794
C	0.221451	0.0566954	-1.33964
O	1.06354	0.952036	-1.37065
H	0.613526	1.26786	0.75739
H	-0.385092	-1.34585	0.115652
C	-2.00133	0.0830657	-0.16138
H	-2.12439	1.17197	-0.343561
H	-2.50069	-0.478786	-0.977149
H	-2.51115	-0.166392	0.794758
N	-0.0841901	-0.661958	-2.43789
C	0.559625	-0.414003	-3.70682
H	-0.765331	-1.38516	-2.39209
H	0.173396	-1.10757	-4.48593
H	1.66111	-0.559058	-3.62339
H	0.373657	0.631301	-4.04431
C	4.96706	1.94506	2.86682
C	5.53644	1.68882	1.52469
O	6.1522	2.55715	0.921993
H	5.18366	2.99432	3.16346
H	5.42167	1.2596	3.61262
H	3.86679	1.79605	2.85054
N	5.33738	0.469588	1.01849
C	5.79394	0.0848037	-0.293776
C	4.86154	-0.98852	-0.823093
O	4.01189	-1.49926	-0.0958032
H	4.79898	-0.213514	1.50362
H	5.71972	0.934339	-0.96116
C	7.24643	-0.437463	-0.241401
H	7.32108	-1.31553	0.434971
H	7.61431	-0.72399	-1.24792
H	7.90961	0.361531	0.156279
N	4.99456	-1.35118	-2.11414
C	4.14808	-2.36028	-2.70689
H	5.68519	-0.923593	-2.68796
H	4.4124	-2.51694	-3.77592
H	3.07746	-2.05698	-2.65141
H	4.26004	-3.33105	-2.17191
