44
  This energy is -2.2342 and Call times are: 241201
C	0.280654	-2.35205	2.54986
C	0.482608	-1.91815	1.14911
O	1.18359	-2.56299	0.381516
H	0.860838	-3.2824	2.73345
H	-0.794671	-2.5565	2.73592
H	0.633378	-1.56472	3.249
N	-0.136751	-0.794256	0.780831
C	-0.00127236	-0.223567	-0.536181
C	-0.189947	1.27748	-0.422921
O	-0.575662	1.78622	0.627847
H	-0.670854	-0.258444	1.42852
H	1.00459	-0.395818	-0.898401
C	-1.03793	-0.827764	-1.50856
H	-2.07031	-0.642144	-1.14281
H	-0.934764	-0.406462	-2.52953
H	-0.886289	-1.92759	-1.56975
N	0.087899	2.02626	-1.50835
C	-0.056843	3.46326	-1.49255
H	0.402798	1.59682	-2.34828
H	0.21986	3.89725	-2.47861
H	0.599323	3.91558	-0.714005
H	-1.10932	3.74983	-1.26602
C	10.0219	-0.414063	-0.481727
C	8.73377	0.248766	-0.786023
O	8.6898	1.26498	-1.46557
H	10.8511	0.16585	-0.942092
H	10.0298	-1.44383	-0.896771
H	10.18	-0.457166	0.61655
N	7.63849	-0.321363	-0.278374
C	6.31833	0.231309	-0.452362
C	5.47423	-0.175549	0.740756
O	5.89201	-0.993422	1.55822
H	7.69416	-1.12521	0.306932
H	6.38048	1.3124	-0.44989
C	5.6784	-0.271363	-1.76501
H	5.60476	-1.37979	-1.76359
H	4.66701	0.158066	-1.91731
H	6.31687	0.0307262	-2.62375
N	4.26137	0.396753	0.872902
C	3.39042	0.075368	1.9794
H	3.94242	1.05944	0.203432
H	2.4398	0.648855	1.91106
H	3.87991	0.322599	2.94922
H	3.14503	-1.01133	1.98369
