44
  This energy is 0.1151 and Call times are: 242303
C	2.13741	2.73645	0.236591
C	1.80105	1.38511	-0.265279
O	2.46771	0.850991	-1.14089
H	3.02261	3.12287	-0.313852
H	2.37827	2.6935	1.31959
H	1.28379	3.42808	0.0751211
N	0.738843	0.794324	0.287054
C	0.263095	-0.502103	-0.127073
C	-1.23152	-0.560593	0.126437
O	-1.79896	0.33052	0.755439
H	0.181855	1.25856	0.969782
H	0.414008	-0.614079	-1.19352
C	0.987462	-1.62759	0.643515
H	0.824231	-1.51925	1.73697
H	0.639765	-2.63125	0.323661
H	2.08029	-1.56057	0.449669
N	-1.90886	-1.61525	-0.36846
C	-3.33445	-1.75315	-0.181727
H	-1.43291	-2.32418	-0.878327
H	-3.70568	-2.68511	-0.662204
H	-3.87483	-0.888305	-0.6304
H	-3.58679	-1.79298	0.902654
C	3.70539	1.32037	0.890378
C	4.89442	0.483969	1.16929
O	5.10007	0.0283612	2.28578
H	3.1162	1.44441	1.8249
H	3.06602	0.8333	0.124404
H	4.01869	2.32198	0.527474
N	5.7183	0.262467	0.142379
C	6.9378	-0.49602	0.269164
C	7.92147	0.0132203	-0.76748
O	7.566	0.807062	-1.63648
H	5.559	0.673983	-0.750445
H	7.37267	-0.312906	1.24383
C	6.67271	-2.00431	0.0691163
H	6.23634	-2.19389	-0.934719
H	7.60175	-2.60058	0.178061
H	5.94436	-2.35344	0.833287
N	9.19238	-0.428777	-0.693702
C	10.1994	0.00525612	-1.63376
H	9.46195	-1.06779	0.0190864
H	11.1797	-0.46881	-1.40676
H	10.3266	1.11125	-1.59038
H	9.90989	-0.268417	-2.67416
