44
  This energy is -8.9141 and Call times are: 55322
C	-2.04434	-2.72831	-0.699783
C	-0.728751	-2.04984	-0.706941
O	0.296982	-2.66058	-0.973918
H	-1.90442	-3.80352	-0.945185
H	-2.71487	-2.27107	-1.45745
H	-2.51153	-2.64673	0.304293
N	-0.73019	-0.749134	-0.406029
C	0.476497	0.0361906	-0.330325
C	0.247137	1.16134	0.661128
O	-0.873557	1.38039	1.11695
H	-1.56813	-0.275166	-0.150919
H	1.27874	-0.578219	0.0589478
C	0.85297	0.604131	-1.71631
H	0.0346279	1.24306	-2.11144
H	1.78809	1.19933	-1.67387
H	1.00826	-0.236372	-2.4275
N	1.31344	1.90009	1.02621
C	1.19236	2.9881	1.96842
H	2.21301	1.70501	0.649663
H	2.17917	3.47212	2.13916
H	0.808916	2.61917	2.94727
H	0.484096	3.75975	1.58888
C	5.19328	-1.581	3.10051
C	5.81636	-1.2819	1.79151
O	6.97523	-1.59476	1.55584
H	5.93865	-2.08113	3.75636
H	4.32317	-2.25716	2.9646
H	4.85835	-0.641446	3.5885
N	5.04731	-0.656355	0.897285
C	5.52627	-0.26079	-0.403747
C	4.7417	0.960242	-0.845458
O	3.76235	1.3438	-0.208696
H	4.11889	-0.371665	1.11829
H	6.56551	0.0337924	-0.32745
C	5.36214	-1.40823	-1.42438
H	4.29478	-1.70369	-1.51082
H	5.74013	-1.12074	-2.42688
H	5.93801	-2.29365	-1.07689
N	5.16233	1.60788	-1.94983
C	4.4817	2.78272	-2.44246
H	5.9593	1.28478	-2.44935
H	4.97883	3.16984	-3.3591
H	4.48531	3.58977	-1.67439
H	3.42151	2.54749	-2.69108
