44
  This energy is -6.3442 and Call times are: 51718
C	-1.98766	2.83952	-0.314661
C	-0.948591	2.04655	0.380091
O	-0.261161	2.53979	1.26359
H	-1.98977	3.87556	0.0884542
H	-2.98825	2.38757	-0.149423
H	-1.77505	2.87817	-1.40388
N	-0.808181	0.778406	-0.0129287
C	0.188891	-0.104434	0.53934
C	0.557288	-1.12441	-0.521548
O	-0.0846591	-1.20558	-1.56703
H	-1.34724	0.40311	-0.761548
H	1.08293	0.463258	0.765274
C	-0.340018	-0.809293	1.80767
H	-1.25118	-1.40033	1.57423
H	0.423466	-1.48141	2.25025
H	-0.610814	-0.0436364	2.56714
N	1.61293	-1.926	-0.278447
C	2.04073	-2.92267	-1.23229
H	2.12246	-1.84255	0.571544
H	2.92464	-3.47916	-0.849883
H	2.31849	-2.44621	-2.20034
H	1.22396	-3.65423	-1.42939
C	2.86732	2.78106	-0.202188
C	3.83478	1.83146	-0.796693
O	4.04708	1.81518	-2.0013
H	2.4123	3.39533	-1.00934
H	3.38298	3.4543	0.514463
H	2.06218	2.22717	0.325103
N	4.45103	1.00385	0.0504663
C	5.38617	-0.00390849	-0.383681
C	5.34142	-1.14992	0.609408
O	4.71933	-1.04484	1.66472
H	4.23741	1.00138	1.0232
H	5.06987	-0.395405	-1.34248
C	6.81515	0.574096	-0.479453
H	7.14415	0.966331	0.506426
H	7.5422	-0.188635	-0.826109
H	6.82252	1.41619	-1.20551
N	5.99817	-2.28188	0.287934
C	6.00694	-3.42675	1.16849
H	6.4925	-2.34938	-0.57239
H	6.60023	-4.25773	0.727234
H	4.96995	-3.79286	1.34708
H	6.45383	-3.16132	2.15387
