44
  This energy is -2.5296 and Call times are: 56733
C	1.17772	-3.2664	0.237223
C	0.138053	-2.23653	0.459936
O	-0.992827	-2.54417	0.810479
H	0.742886	-4.27295	0.420684
H	2.02741	-3.10947	0.93446
H	1.54522	-3.21907	-0.809581
N	0.504665	-0.969213	0.255301
C	-0.407603	0.139036	0.389875
C	0.0528819	1.24623	-0.53944
O	1.13592	1.174	-1.11695
H	1.41723	-0.737664	-0.0694684
H	-1.39317	-0.167786	0.062547
C	-0.453772	0.641474	1.84955
H	0.555081	0.96624	2.18239
H	-1.16319	1.48587	1.96894
H	-0.785484	-0.18719	2.5126
N	-0.76933	2.29985	-0.712313
C	-0.417826	3.39829	-1.58183
H	-1.64347	2.3384	-0.239587
H	-1.22277	4.16589	-1.59079
H	-0.264054	3.03952	-2.62534
H	0.525502	3.88311	-1.24092
C	3.52673	-0.892208	2.38418
C	4.70452	-1.19593	1.54055
O	5.36976	-2.20628	1.72236
H	3.40693	-1.69034	3.1487
H	2.60927	-0.851636	1.76018
H	3.66617	0.0813159	2.89981
N	4.99349	-0.310596	0.583952
C	6.1335	-0.44724	-0.287972
C	6.57372	0.941256	-0.712063
O	5.88727	1.92705	-0.449978
H	4.46691	0.527639	0.474703
H	6.95327	-0.891366	0.262797
C	5.78338	-1.30523	-1.5235
H	4.94942	-0.8445	-2.0947
H	6.65697	-1.42938	-2.19577
H	5.45639	-2.31398	-1.18907
N	7.74193	1.05166	-1.37472
C	8.24412	2.33298	-1.81311
H	8.28539	0.242945	-1.57397
H	9.21733	2.21505	-2.33865
H	8.39527	3.01378	-0.944236
H	7.52493	2.81899	-2.51147
