44
  This energy is -4.3539 and Call times are: 59738
C	-0.468354	3.13773	1.43108
C	-0.850774	1.71984	1.2454
O	-1.67975	1.18762	1.97063
H	-1.02737	3.55883	2.29482
H	-0.717699	3.72362	0.52152
H	0.620405	3.21694	1.6346
N	-0.24214	1.06608	0.253162
C	-0.478142	-0.329128	-0.0230101
C	0.777788	-0.906585	-0.6481
O	1.70576	-0.175061	-0.987875
H	0.460423	1.50133	-0.302561
H	-0.64544	-0.854454	0.909018
C	-1.68539	-0.507639	-0.969545
H	-1.50978	0.0223326	-1.92993
H	-1.8859	-1.5784	-1.17879
H	-2.5913	-0.0708935	-0.49529
N	0.839272	-2.24335	-0.807204
C	1.99677	-2.88301	-1.3879
H	0.0800245	-2.81909	-0.522356
H	1.85568	-3.98541	-1.43294
H	2.90781	-2.67073	-0.782736
H	2.17468	-2.50954	-2.42231
C	6.76193	-1.62263	-2.65334
C	6.01567	-1.63605	-1.37503
O	5.53397	-2.67044	-0.93411
H	6.76893	-2.64693	-3.08531
H	7.80967	-1.29792	-2.48142
H	6.27464	-0.932164	-3.37368
N	5.90024	-0.465794	-0.742922
C	5.16641	-0.312503	0.488556
C	4.63699	1.10789	0.549998
O	4.99432	1.9493	-0.272222
H	6.26258	0.37504	-1.1348
H	4.31041	-0.975679	0.479224
C	6.06706	-0.607886	1.7079
H	6.93983	0.0791919	1.72374
H	5.50982	-0.506733	2.66172
H	6.44949	-1.64961	1.63791
N	3.75987	1.40648	1.52853
C	3.19854	2.73055	1.66233
H	3.47961	0.711121	2.18199
H	2.49905	2.77573	2.52599
H	2.63809	3.01439	0.742211
H	4.00314	3.48422	1.82274
