44
  This energy is -2.305 and Call times are: 60943
C	-0.906603	-2.93356	1.6386
C	-0.706673	-2.13722	0.406926
O	-0.7383	-2.66144	-0.697883
H	-1.05597	-4.00084	1.36571
H	-1.8032	-2.57364	2.1857
H	-0.0153056	-2.85204	2.29589
N	-0.490405	-0.830398	0.573743
C	-0.236208	0.0657527	-0.526646
C	0.6246	1.20683	-0.0182017
O	0.847073	1.34082	1.18357
H	-0.426782	-0.425372	1.48136
H	0.333563	-0.454312	-1.2866
C	-1.55812	0.605395	-1.11535
H	-2.13814	1.1481	-0.338769
H	-1.37623	1.28585	-1.97233
H	-2.17532	-0.247208	-1.47379
N	1.13882	2.05621	-0.929328
C	1.974	3.16822	-0.53932
H	0.950952	1.92904	-1.89763
H	2.29809	3.74842	-1.43125
H	2.88351	2.80823	-0.00595503
H	1.42199	3.85382	0.143593
C	7.67157	2.71494	-1.55777
C	7.12201	2.03901	-0.361006
O	7.3064	2.48972	0.761167
H	8.24327	3.61439	-1.24152
H	6.84726	3.03138	-2.23092
H	8.35311	2.03	-2.10497
N	6.42449	0.921604	-0.578391
C	5.86469	0.130416	0.488942
C	5.79337	-1.3112	0.0217889
O	6.02282	-1.60569	-1.14968
H	6.31767	0.544945	-1.49413
H	6.53019	0.1603	1.34266
C	4.46099	0.643522	0.878279
H	3.77498	0.603172	0.00546111
H	4.02501	0.0510663	1.7086
H	4.53605	1.70237	1.20924
N	5.47943	-2.24998	0.936191
C	5.39344	-3.64835	0.584991
H	5.30116	-1.99272	1.88018
H	5.12394	-4.26109	1.47334
H	6.3684	-4.01463	0.189311
H	4.61972	-3.80956	-0.200192
