44
  This energy is 0.3374 and Call times are: 56488
C	-1.63455	2.08112	2.2605
C	-1.24908	0.739504	1.76794
O	-1.44011	-0.261966	2.44394
H	-2.07067	1.98721	3.27876
H	-2.3913	2.53367	1.58577
H	-0.74287	2.74102	2.31095
N	-0.685857	0.6906	0.558491
C	-0.218949	-0.536851	-0.0364225
C	0.926212	-0.202538	-0.97365
O	1.19758	0.965596	-1.24484
H	-0.499581	1.51873	0.0375534
H	0.176245	-1.18172	0.738558
C	-1.35671	-1.24605	-0.803094
H	-1.75538	-0.588893	-1.60512
H	-1.01327	-2.19952	-1.25416
H	-2.18696	-1.47394	-0.099468
N	1.6342	-1.22808	-1.48653
C	2.74478	-1.00633	-2.38298
H	1.40209	-2.16629	-1.25213
H	3.19753	-1.97326	-2.6949
H	3.53288	-0.393838	-1.88798
H	2.40993	-0.464664	-3.29711
C	9.94399	1.8949	0.996308
C	8.67665	1.18581	1.28299
O	8.31244	0.980108	2.43254
H	10.4453	2.15295	1.9544
H	9.74039	2.8303	0.433898
H	10.6196	1.24537	0.400753
N	7.96664	0.788052	0.224659
C	6.73443	0.0491456	0.343955
C	6.58037	-0.81641	-0.892432
O	7.3394	-0.686256	-1.85089
H	8.29635	0.926683	-0.704819
H	6.79734	-0.615049	1.1969
C	5.52995	1.00481	0.489419
H	5.45874	1.67935	-0.390336
H	4.57667	0.447662	0.596029
H	5.66786	1.63375	1.39593
N	5.59183	-1.73227	-0.895319
C	5.37252	-2.6042	-2.02572
H	4.9904	-1.82547	-0.108769
H	4.51436	-3.28592	-1.83588
H	6.27612	-3.22506	-2.22401
H	5.15315	-2.01106	-2.9429
