44
  This energy is -5.4549 and Call times are: 58302
C	0.601981	2.09902	-2.71006
C	0.453824	1.85626	-1.25738
O	0.770683	2.70735	-0.437833
H	1.0364	3.10958	-2.87113
H	-0.38854	2.04992	-3.20925
H	1.27919	1.34125	-3.15757
N	-0.0377898	0.667116	-0.901536
C	-0.199382	0.269056	0.474689
C	-0.0775276	-1.24137	0.547606
O	-0.0387204	-1.92025	-0.47676
H	-0.252756	-0.0306907	-1.57883
H	0.607191	0.686583	1.06439
C	-1.56707	0.729153	1.02512
H	-2.39513	0.29262	0.426959
H	-1.69781	0.440689	2.08824
H	-1.63732	1.8366	0.954603
N	-0.0054587	-1.80459	1.76974
C	0.117473	-3.23393	1.93728
H	-0.0343326	-1.23838	2.58684
H	0.162201	-3.50102	3.01611
H	1.04378	-3.6089	1.4447
H	-0.752795	-3.75937	1.48156
C	4.56027	3.47495	-0.0387202
C	5.29331	2.20733	-0.255387
O	6.36728	2.18926	-0.840772
H	5.13206	4.31237	-0.494374
H	4.44394	3.66876	1.04832
H	3.55807	3.42351	-0.51415
N	4.71722	1.10016	0.218636
C	5.2887	-0.212284	0.0470369
C	4.15692	-1.2224	0.0297341
O	3.00854	-0.886416	0.312651
H	3.82325	1.12569	0.656845
H	5.78199	-0.264037	-0.915569
C	6.28389	-0.533569	1.18353
H	5.77587	-0.490942	2.17051
H	6.74117	-1.53604	1.05516
H	7.099	0.222694	1.18228
N	4.45602	-2.49074	-0.313575
C	3.44324	-3.51934	-0.362941
H	5.39035	-2.74252	-0.543188
H	3.88651	-4.49347	-0.665939
H	2.64814	-3.25281	-1.09647
H	2.96387	-3.64715	0.634563
