44
  This energy is -2.0522 and Call times are: 61107
C	-1.25552	-3.17355	-0.681862
C	-1.17666	-1.95549	0.15555
O	-1.97288	-1.75866	1.06312
H	-2.11776	-3.79201	-0.350321
H	-0.324702	-3.76992	-0.578555
H	-1.40052	-2.89665	-1.74741
N	-0.198275	-1.09585	-0.137977
C	-0.0206746	0.153081	0.560011
C	0.627917	1.1394	-0.392913
O	1.05702	0.771114	-1.48468
H	0.416821	-1.25026	-0.905884
H	-0.990424	0.553565	0.828023
C	0.853135	-0.0379704	1.81906
H	1.85184	-0.438888	1.54358
H	0.985796	0.914007	2.37283
H	0.36325	-0.769461	2.49824
N	0.706904	2.42669	-0.00220472
C	1.3026	3.43722	-0.844921
H	0.350402	2.70625	0.883134
H	1.27251	4.43173	-0.347669
H	0.756777	3.51287	-1.81323
H	2.36555	3.18773	-1.06637
C	6.10662	0.199386	3.45075
C	6.58279	-0.183043	2.10235
O	7.73932	-0.53521	1.91575
H	6.94819	0.122211	4.17301
H	5.29084	-0.480153	3.77551
H	5.73472	1.24566	3.44276
N	5.68562	-0.118624	1.11578
C	6.01099	-0.418355	-0.256393
C	5.08599	0.387657	-1.14875
O	4.13681	1.00881	-0.67448
H	4.75892	0.209128	1.27598
H	7.02292	-0.0927946	-0.462883
C	5.85896	-1.92846	-0.542234
H	4.81831	-2.26079	-0.340622
H	6.12006	-2.17407	-1.59201
H	6.53901	-2.499	0.127362
N	5.34868	0.402788	-2.4704
C	4.52638	1.14654	-3.39605
H	6.12372	-0.102753	-2.83486
H	4.9045	1.03398	-4.43604
H	4.52679	2.23046	-3.13838
H	3.47321	0.784619	-3.36458
