44
  This energy is 0.1028 and Call times are: 53981
C	-2.94281	-0.501332	-1.7892
C	-1.73049	-1.00676	-1.10658
O	-1.5842	-2.19932	-0.876754
H	-3.62464	-1.35247	-2.00494
H	-2.66669	-0.0105896	-2.74611
H	-3.47206	0.22734	-1.13957
N	-0.820376	-0.0935826	-0.759911
C	0.390142	-0.427328	-0.0515186
C	0.803523	0.77761	0.772373
O	0.236014	1.85956	0.634431
H	-0.972339	0.878044	-0.917122
H	0.188285	-1.23651	0.639217
C	1.51374	-0.822223	-1.0348
H	1.72848	0.0114371	-1.73689
H	2.44705	-1.09482	-0.500818
H	1.18633	-1.70079	-1.63252
N	1.80378	0.614399	1.66056
C	2.26133	1.70307	2.4922
H	2.248	-0.269739	1.76075
H	3.08955	1.36987	3.15571
H	1.4322	2.08451	3.13121
H	2.63119	2.54722	1.86631
C	2.47327	2.04375	2.53594
C	3.34524	1.80131	1.36459
O	3.9319	2.72099	0.811029
H	2.45718	3.13191	2.76287
H	2.86124	1.49767	3.42139
H	1.43782	1.70666	2.31848
N	3.44875	0.535271	0.953728
C	4.22548	0.149033	-0.197825
C	3.60342	-1.10148	-0.790136
O	2.70934	-1.70177	-0.196858
H	2.93282	-0.196801	1.38931
H	4.1627	0.927088	-0.948366
C	5.69736	-0.110557	0.191322
H	5.76307	-0.915984	0.953566
H	6.30885	-0.395299	-0.689311
H	6.12981	0.815252	0.629722
N	4.05997	-1.52031	-1.98686
C	3.52424	-2.69709	-2.63057
H	4.78113	-1.019	-2.45343
H	4.02881	-2.87618	-3.60554
H	2.43218	-2.57979	-2.81747
H	3.67013	-3.59655	-1.98961
