44
  This energy is -0.8333 and Call times are: 61914
C	-1.00534	-2.18314	2.51712
C	-0.531572	-0.860171	2.05188
O	-0.534421	0.110764	2.79598
H	-1.34539	-2.10122	3.57236
H	-0.181848	-2.92578	2.46154
H	-1.85571	-2.52691	1.89119
N	-0.109096	-0.792189	0.787258
C	0.340588	0.4352	0.179095
C	0.0655576	0.353396	-1.31061
O	-0.304337	-0.699899	-1.82584
H	-0.151199	-1.58167	0.181605
H	-0.240669	1.26123	0.569543
C	1.84592	0.661086	0.440203
H	2.44354	-0.180966	0.0305168
H	2.2012	1.61	-0.011315
H	2.02499	0.709718	1.53652
N	0.233124	1.47417	-2.03986
C	-0.0100843	1.49311	-3.46347
H	0.529048	2.31789	-1.60437
H	0.182795	2.50548	-3.88195
H	-1.06663	1.21772	-3.68514
H	0.653032	0.765645	-3.98522
C	10.0501	1.34801	0.61048
C	8.57531	1.373	0.735453
O	8.01786	2.14867	1.49966
H	10.4902	2.09628	1.30488
H	10.3505	1.60109	-0.428007
H	10.4393	0.341675	0.872829
N	7.90056	0.507454	-0.0247554
C	6.46476	0.384312	0.0184813
C	6.10081	-1.04055	-0.354188
O	6.95238	-1.81611	-0.784345
H	8.37043	-0.145741	-0.611619
H	6.12238	0.550033	1.03235
C	5.79584	1.38484	-0.94937
H	6.13872	1.20841	-1.99117
H	4.68965	1.3094	-0.915058
H	6.08238	2.42023	-0.662685
N	4.81908	-1.42227	-0.188403
C	4.38111	-2.76028	-0.510982
H	4.14531	-0.781682	0.164804
H	3.29435	-2.8786	-0.305561
H	4.93628	-3.5122	0.0953893
H	4.56106	-2.98397	-1.58742
