44
  This energy is 1.443 and Call times are: 61348
C	-0.287014	1.49484	3.12982
C	0.13237	0.37921	2.25197
O	0.852417	-0.51771	2.66847
H	0.16532	1.36019	4.13637
H	-1.39258	1.50711	3.23137
H	0.0560297	2.46322	2.70831
N	-0.315347	0.412829	0.994669
C	0.0422916	-0.579267	0.0116137
C	-0.00116748	0.0738669	-1.35699
O	-0.459701	1.20563	-1.50044
H	-0.867167	1.17095	0.659096
H	1.06194	-0.90093	0.183292
C	-0.922342	-1.78409	0.0674928
H	-1.9672	-1.4562	-0.119022
H	-0.649129	-2.56124	-0.675416
H	-0.879996	-2.24147	1.08009
N	0.486651	-0.626517	-2.39984
C	0.49201	-0.0840461	-3.73845
H	0.857292	-1.53923	-2.26326
H	0.933411	-0.810809	-4.45553
H	1.08954	0.855409	-3.77915
H	-0.544761	0.151549	-4.07123
C	6.71953	1.17641	3.25877
C	6.14728	0.77279	1.95463
O	4.94159	0.623828	1.8113
H	5.89996	1.28303	4.00227
H	7.24519	2.14952	3.16132
H	7.43311	0.405446	3.61861
N	7.01596	0.581704	0.959009
C	6.61401	0.145816	-0.355142
C	7.76697	-0.623935	-0.971367
O	8.8706	-0.645628	-0.429842
H	7.99788	0.667052	1.10184
H	5.78039	-0.53941	-0.264784
C	6.23123	1.35029	-1.24282
H	7.08944	2.04828	-1.34446
H	5.90663	1.02674	-2.253
H	5.3912	1.90334	-0.768669
N	7.53333	-1.28486	-2.12228
C	8.56852	-2.04875	-2.77881
H	6.63264	-1.25881	-2.54317
H	8.18061	-2.51792	-3.70975
H	8.94486	-2.85634	-2.10989
H	9.42907	-1.39443	-3.04798
