44
  This energy is -1.8914 and Call times are: 60730
C	-2.3808	2.31765	-1.03584
C	-1.6091	1.06875	-1.22525
O	-1.90905	0.265485	-2.09772
H	-3.21447	2.34928	-1.77061
H	-1.72635	3.20002	-1.19667
H	-2.80437	2.35392	-0.00999388
N	-0.581449	0.874518	-0.395443
C	0.235746	-0.312757	-0.429046
C	0.777293	-0.553879	0.967429
O	0.633966	0.287481	1.85246
H	-0.374802	1.51791	0.336137
H	-0.381627	-1.16417	-0.687067
C	1.39345	-0.157243	-1.43939
H	2.03322	0.709756	-1.16912
H	2.02188	-1.07023	-1.48463
H	0.97406	0.0262506	-2.4527
N	1.40924	-1.72116	1.2001
C	1.95266	-2.04059	2.49965
H	1.51178	-2.39121	0.472373
H	2.43248	-3.04402	2.48944
H	1.14906	-2.04422	3.27134
H	2.71763	-1.28897	2.80137
C	5.06379	0.540503	-3.27824
C	5.98571	-0.0534295	-2.28403
O	6.80701	-0.899841	-2.60879
H	5.25111	0.0812162	-4.27314
H	5.23258	1.63551	-3.35039
H	4.00999	0.347591	-2.98606
N	5.86584	0.383598	-1.02823
C	6.66304	-0.131132	0.0571658
C	5.86039	0.00123734	1.33772
O	4.80267	0.627815	1.35609
H	5.16503	1.04304	-0.771613
H	6.84442	-1.18675	-0.102174
C	7.99825	0.636322	0.173243
H	7.81275	1.71769	0.347237
H	8.62713	0.240194	0.996718
H	8.56519	0.532306	-0.777592
N	6.34434	-0.597566	2.44372
C	5.64649	-0.530262	3.70651
H	7.19979	-1.10354	2.40815
H	6.20354	-1.08456	4.49371
H	4.62926	-0.97588	3.61737
H	5.53224	0.52764	4.03656
