44
  This energy is -1.0285 and Call times are: 54714
C	3.05638	-0.988642	1.33932
C	1.9564	-0.0101335	1.18535
O	1.87607	0.971319	1.9111
H	3.71028	-0.676519	2.18246
H	3.66333	-1.03142	0.410601
H	2.64433	-1.99633	1.55812
N	1.0685	-0.262301	0.220767
C	-0.0797962	0.575001	-0.0219104
C	-1.17896	-0.288809	-0.611162
O	-0.953194	-1.44737	-0.955356
H	1.1243	-1.08685	-0.334999
H	-0.444805	0.962788	0.920969
C	0.273789	1.7314	-0.982613
H	0.638336	1.33404	-1.95382
H	-0.598693	2.39133	-1.16647
H	1.08541	2.34545	-0.534758
N	-2.40509	0.256765	-0.73361
C	-3.51421	-0.491051	-1.27841
H	-2.56926	1.19445	-0.445756
H	-4.43654	0.130405	-1.29635
H	-3.71515	-1.39885	-0.66457
H	-3.29272	-0.820301	-2.31941
C	7.58721	-0.748155	3.39785
C	7.87813	-1.07462	1.98366
O	8.60966	-2.00921	1.68733
H	8.13767	-1.45296	4.05823
H	6.49917	-0.844601	3.59686
H	7.91416	0.288154	3.62642
N	7.30299	-0.29581	1.06439
C	7.52537	-0.462761	-0.350261
C	7.35961	0.889392	-1.01793
O	6.92377	1.85254	-0.390158
H	6.74285	0.486321	1.32201
H	8.54695	-0.781338	-0.51613
C	6.5351	-1.48652	-0.947356
H	5.48711	-1.15493	-0.786733
H	6.70523	-1.63421	-2.03353
H	6.66868	-2.46612	-0.438556
N	7.71417	0.994535	-2.31378
C	7.59664	2.24288	-3.03072
H	8.06867	0.205031	-2.80376
H	7.93822	2.12584	-4.08279
H	8.21538	3.03326	-2.54724
H	6.53859	2.5915	-3.04211
