44
  This energy is -7.1603 and Call times are: 61942
C	-1.82825	2.43118	1.69102
C	-0.611735	1.60804	1.50754
O	0.41558	1.85016	2.12593
H	-1.61648	3.24175	2.42178
H	-2.65893	1.80518	2.0794
H	-2.13041	2.8881	0.725087
N	-0.702677	0.600692	0.636124
C	0.409229	-0.260673	0.319461
C	0.226796	-0.766273	-1.09922
O	-0.820837	-0.563836	-1.71011
H	-1.53317	0.44136	0.110043
H	1.32542	0.316179	0.341003
C	0.490418	-1.44323	1.30951
H	-0.445138	-2.04149	1.28013
H	1.35086	-2.10625	1.08462
H	0.615788	-1.04965	2.34185
N	1.25347	-1.43343	-1.66212
C	1.17312	-1.94688	-3.00975
H	2.09471	-1.58378	-1.15341
H	2.11716	-2.46371	-3.29061
H	0.997057	-1.11992	-3.7353
H	0.333895	-2.67347	-3.10414
C	4.89354	3.39404	0.532548
C	5.74469	2.18534	0.608387
O	6.93296	2.26444	0.887977
H	5.51248	4.29295	0.74407
H	4.07732	3.33502	1.28291
H	4.45534	3.49036	-0.483211
N	5.14471	1.02011	0.354137
C	5.85097	-0.236755	0.347338
C	5.1397	-1.1738	-0.610585
O	4.05136	-0.871106	-1.09597
H	4.18607	0.975831	0.0878768
H	6.85176	-0.0820741	-0.0362163
C	5.90267	-0.848205	1.76462
H	4.87616	-1.01687	2.15436
H	6.45597	-1.80959	1.77508
H	6.42017	-0.1422	2.45025
N	5.74706	-2.33818	-0.912824
C	5.14828	-3.29006	-1.81922
H	6.62944	-2.5636	-0.513242
H	5.80063	-4.18297	-1.93912
H	4.9927	-2.83237	-2.82301
H	4.15802	-3.62789	-1.4366
