44
  This energy is -3.0803 and Call times are: 61163
C	-3.01318	-1.57316	0.747401
C	-1.53368	-1.53959	0.714258
O	-0.868087	-2.37857	1.30546
H	-3.34718	-2.42638	1.37696
H	-3.41608	-1.70442	-0.278844
H	-3.40772	-0.63026	1.1814
N	-0.978139	-0.54987	0.0112611
C	0.448333	-0.360981	-0.0785114
C	0.717243	1.1167	-0.292273
O	-0.203943	1.89743	-0.523778
H	-1.53289	0.149272	-0.43069
H	0.905459	-0.63915	0.862918
C	1.04319	-1.19259	-1.23601
H	0.58212	-0.900233	-2.20347
H	2.14301	-1.06644	-1.3068
H	0.827593	-2.26955	-1.06274
N	1.99469	1.538	-0.210591
C	2.34577	2.92694	-0.39432
H	2.72592	0.89192	-0.0183585
H	3.44346	3.0724	-0.288711
H	1.83335	3.56493	0.361769
H	2.04103	3.27882	-1.40647
C	6.96247	1.83689	2.86897
C	6.21874	1.62844	1.6062
O	5.24454	2.31274	1.325
H	6.4787	2.65197	3.44988
H	8.0125	2.12485	2.65161
H	6.95249	0.907635	3.47681
N	6.66883	0.659701	0.805363
C	6.02441	0.310447	-0.436127
C	6.29115	-1.15752	-0.710878
O	7.08946	-1.7919	-0.0238818
H	7.43826	0.0840422	1.06699
H	4.95345	0.429048	-0.328421
C	6.55198	1.18301	-1.59611
H	7.649	1.05366	-1.71381
H	6.05342	0.933128	-2.55502
H	6.35324	2.25338	-1.36996
N	5.61748	-1.73645	-1.7243
C	5.8022	-3.12998	-2.05616
H	4.97262	-1.20779	-2.26629
H	5.16012	-3.41752	-2.91772
H	5.53729	-3.77851	-1.18984
H	6.86378	-3.33219	-2.32689
