44
  This energy is -5.4746 and Call times are: 52822
C	2.43046	-1.57539	1.92969
C	1.09413	-0.960534	1.76435
O	0.237698	-1.06479	2.63156
H	2.47043	-2.11099	2.90305
H	3.21652	-0.791347	1.91839
H	2.62136	-2.30175	1.11174
N	0.883213	-0.296502	0.625509
C	-0.380208	0.318359	0.302594
C	-0.525282	0.336252	-1.20743
O	0.416855	0.0269023	-1.93434
H	1.57626	-0.255125	-0.088523
H	-1.18466	-0.290021	0.696747
C	-0.457167	1.75232	0.870987
H	0.361655	2.37976	0.458812
H	-1.4308	2.2315	0.640879
H	-0.340681	1.71577	1.97618
N	-1.72076	0.693563	-1.71655
C	-1.95388	0.734275	-3.14139
H	-2.47231	0.936548	-1.11223
H	-2.9975	1.05077	-3.36024
H	-1.78975	-0.26996	-3.59509
H	-1.25892	1.45296	-3.63299
C	3.19094	-1.87119	-2.27053
C	4.41573	-1.62911	-1.47526
O	5.28329	-2.48538	-1.37252
H	3.22348	-2.89971	-2.69118
H	3.12712	-1.14298	-3.10621
H	2.29134	-1.77454	-1.62675
N	4.51289	-0.436387	-0.883354
C	5.6251	-0.0703546	-0.0421923
C	5.13492	0.941585	0.976272
O	4.01184	1.4336	0.884993
H	3.77971	0.23502	-0.942669
H	5.96105	-0.942177	0.505245
C	6.77967	0.520833	-0.880478
H	6.43835	1.42143	-1.43408
H	7.64749	0.79382	-0.245753
H	7.11705	-0.233806	-1.62414
N	5.96926	1.27099	1.98195
C	5.58718	2.22092	3.00068
H	6.87257	0.859165	2.04122
H	6.40804	2.3575	3.73876
H	4.68101	1.86953	3.54535
H	5.35483	3.21157	2.54706
