44
  This energy is 0.113 and Call times are: 58818
C	3.16969	1.07971	0.948658
C	1.81013	1.33368	0.421187
O	1.38343	2.47296	0.293189
H	3.65549	2.04909	1.19397
H	3.78308	0.552699	0.187893
H	3.11356	0.462554	1.8701
N	1.08749	0.257908	0.100436
C	-0.267524	0.343621	-0.384486
C	-0.994866	-0.925648	0.0173633
O	-0.383115	-1.87522	0.502947
H	1.43336	-0.664184	0.248718
H	-0.769372	1.17075	0.10196
C	-0.294339	0.520513	-1.91851
H	0.211131	-0.333047	-2.41848
H	-1.33187	0.601687	-2.30252
H	0.250335	1.45103	-2.19022
N	-2.32878	-0.967786	-0.16952
C	-3.10575	-2.13168	0.188037
H	-2.80671	-0.187921	-0.55999
H	-4.18223	-1.9717	-0.0418137
H	-3.0084	-2.34979	1.27626
H	-2.75577	-3.02637	-0.376039
C	8.07484	-1.18036	-1.36742
C	6.60494	-1.00805	-1.39702
O	5.95641	-1.27474	-2.39937
H	8.42162	-1.54745	-2.3578
H	8.35773	-1.92123	-0.590355
H	8.56956	-0.210191	-1.15042
N	6.03873	-0.547897	-0.278965
C	4.62485	-0.288077	-0.169475
C	4.42463	0.817079	0.850384
O	5.36152	1.21489	1.54008
H	6.58464	-0.296525	0.51517
H	4.25437	0.0780909	-1.11884
C	3.86116	-1.56156	0.255104
H	4.23366	-1.93161	1.23405
H	2.7697	-1.37793	0.329454
H	4.02841	-2.35913	-0.501357
N	3.19093	1.34734	0.96369
C	2.90697	2.40691	1.90329
H	2.44653	1.01506	0.394016
H	1.83754	2.70732	1.84585
H	3.53447	3.30187	1.68749
H	3.12316	2.07677	2.94512
