44
  This energy is -3.8978 and Call times are: 62093
C	1.48981	-2.15105	-2.29481
C	0.497816	-1.11274	-1.93563
O	-0.144939	-0.52684	-2.79586
H	1.52966	-2.25392	-3.40102
H	1.19884	-3.12736	-1.85334
H	2.49625	-1.86327	-1.92418
N	0.351477	-0.85696	-0.6335
C	-0.543656	0.156088	-0.132471
C	0.0120367	0.669948	1.18233
O	0.964588	0.112566	1.72426
H	0.911257	-1.31316	0.0523531
H	-0.561683	0.990055	-0.822982
C	-1.96545	-0.413347	0.0662103
H	-1.94909	-1.26219	0.782612
H	-2.66741	0.360676	0.438602
H	-2.34896	-0.790692	-0.906871
N	-0.569562	1.75806	1.72435
C	-0.105215	2.32165	2.97052
H	-1.33661	2.19769	1.26891
H	-0.710975	3.21187	3.24943
H	0.96059	2.63522	2.88681
H	-0.181489	1.5738	3.79273
C	2.70921	2.49844	-0.393333
C	3.54972	1.62035	0.451452
O	3.64895	1.80736	1.65627
H	2.25394	3.29081	0.239696
H	1.89802	1.90874	-0.869751
H	3.32806	2.97864	-1.18042
N	4.1858	0.627065	-0.17399
C	5.07305	-0.282921	0.506658
C	6.11085	-0.765327	-0.489244
O	6.00244	-0.50742	-1.68651
H	4.12759	0.512489	-1.16158
H	5.59962	0.249579	1.28882
C	4.29186	-1.47768	1.09619
H	3.75998	-2.03056	0.292781
H	4.96213	-2.17853	1.63479
H	3.5329	-1.10065	1.81602
N	7.15261	-1.47486	-0.012463
C	8.19182	-1.97065	-0.884473
H	7.22511	-1.66996	0.960036
H	8.9591	-2.52889	-0.304063
H	8.69575	-1.12918	-1.41293
H	7.76632	-2.65565	-1.65315
