44
  This energy is -1.9057 and Call times are: 57529
C	-1.59061	-0.906656	2.95984
C	-0.379943	-0.544118	2.18912
O	0.676821	-0.292698	2.75166
H	-1.35533	-0.882718	4.04609
H	-1.92583	-1.92941	2.68719
H	-2.40696	-0.182875	2.75293
N	-0.511036	-0.506639	0.861045
C	0.566124	-0.128817	-0.019601
C	-0.037486	0.483331	-1.26959
O	-1.24972	0.439144	-1.47021
H	-1.38818	-0.673841	0.42
H	1.16562	0.636596	0.457238
C	1.43723	-1.35159	-0.381889
H	0.824817	-2.13279	-0.880601
H	2.27833	-1.07113	-1.04854
H	1.86205	-1.78809	0.548345
N	0.79989	1.0803	-2.14049
C	0.315574	1.69489	-3.35453
H	1.77723	1.10956	-1.95878
H	1.15666	2.13152	-3.9369
H	-0.408632	2.50867	-3.12096
H	-0.202582	0.944975	-3.99507
C	6.5154	0.774074	-3.38277
C	7.11173	0.547562	-2.04702
O	8.32227	0.445861	-1.90322
H	7.32391	0.807734	-4.14503
H	5.96654	1.73909	-3.39818
H	5.81755	-0.0519266	-3.63535
N	6.25899	0.459955	-1.02352
C	6.68602	0.198644	0.328485
C	5.55952	-0.516451	1.05044
O	4.45097	-0.630636	0.531023
H	5.27374	0.503886	-1.16212
H	7.53556	-0.472625	0.311344
C	7.04803	1.51186	1.05626
H	6.17371	2.1966	1.08336
H	7.39161	1.32279	2.09391
H	7.8687	2.02206	0.506222
N	5.82218	-1.02508	2.2704
C	4.81371	-1.72662	3.03
H	6.72645	-0.926199	2.67239
H	5.22337	-2.06842	4.00601
H	4.45053	-2.61902	2.47052
H	3.93996	-1.06465	3.22875
