44
  This energy is -2.7951 and Call times are: 51481
C	1.06067	-0.539633	3.27054
C	1.22722	-0.680653	1.80647
O	2.276	-1.08626	1.32486
H	2.00518	-0.833901	3.77767
H	0.2409	-1.19782	3.62762
H	0.827239	0.514703	3.52934
N	0.177941	-0.340491	1.05434
C	0.203418	-0.383006	-0.386525
C	-0.762985	0.663863	-0.907758
O	-1.52279	1.25567	-0.143446
H	-0.654755	0.0267966	1.4588
H	1.19213	-0.111001	-0.734505
C	-0.186167	-1.78501	-0.904058
H	-1.20462	-2.06015	-0.556086
H	-0.156847	-1.83449	-2.01186
H	0.529581	-2.53592	-0.503822
N	-0.749964	0.923662	-2.23001
C	-1.63021	1.90768	-2.81572
H	-0.125131	0.43743	-2.83187
H	-1.4684	1.9759	-3.91408
H	-1.44681	2.91276	-2.37136
H	-2.69609	1.63922	-2.63413
C	3.00202	1.03243	-2.44815
C	3.98036	0.0652706	-1.9017
O	4.11187	-1.04763	-2.39217
H	2.45927	0.565139	-3.29839
H	3.52508	1.94174	-2.8119
H	2.26729	1.31698	-1.66567
N	4.69867	0.475643	-0.853835
C	5.65893	-0.367899	-0.186827
C	5.74691	0.0702509	1.26295
O	5.19209	1.09889	1.64477
H	4.55135	1.36953	-0.440178
H	5.30198	-1.39023	-0.193738
C	7.04265	-0.272792	-0.866165
H	7.41402	0.774045	-0.849965
H	7.78741	-0.928435	-0.370201
H	6.95282	-0.59044	-1.92794
N	6.44458	-0.710853	2.11098
C	6.57826	-0.376856	3.50981
H	6.88308	-1.54151	1.78418
H	7.18737	-1.1416	4.04026
H	5.57837	-0.324592	3.99845
H	7.07432	0.613178	3.63187
