44
  This energy is -4.4852 and Call times are: 59682
C	-1.34842	2.32895	2.20691
C	-0.431996	1.20974	1.89277
O	0.4441	0.870071	2.67603
H	-1.07914	2.75737	3.19677
H	-2.39689	1.96571	2.24574
H	-1.26091	3.12317	1.43577
N	-0.616311	0.603812	0.717503
C	0.223335	-0.472486	0.253677
C	0.235906	-0.442608	-1.26306
O	-0.525754	0.295688	-1.88476
H	-1.30734	0.91819	0.0728974
H	1.23918	-0.302618	0.588083
C	-0.294142	-1.83516	0.764144
H	-1.33252	-2.01463	0.412569
H	0.351935	-2.67075	0.42517
H	-0.302311	-1.83149	1.87602
N	1.11389	-1.24466	-1.89701
C	1.20156	-1.27955	-3.33828
H	1.72491	-1.83197	-1.37662
H	1.98239	-2.00009	-3.66745
H	1.46113	-0.273499	-3.74047
H	0.228481	-1.58893	-3.78388
C	4.54621	-2.66095	-1.39868
C	4.63728	-1.49014	-0.497537
O	3.63948	-1.0179	0.0295316
H	3.48233	-2.969	-1.49424
H	5.13016	-3.50936	-0.984029
H	4.9367	-2.40055	-2.40505
N	5.85795	-0.986829	-0.3
C	6.10018	0.176768	0.516041
C	7.34187	0.87254	-0.00900793
O	8.04635	0.342011	-0.86572
H	6.65522	-1.35684	-0.76832
H	5.27324	0.86747	0.407734
C	6.28603	-0.21746	1.99769
H	7.14088	-0.917816	2.11071
H	6.45948	0.671276	2.63846
H	5.36869	-0.731964	2.3584
N	7.63527	2.08925	0.490525
C	8.79371	2.82919	0.0470115
H	7.05093	2.50395	1.1802
H	8.86227	3.80588	0.574838
H	8.73851	3.02584	-1.04823
H	9.72725	2.25543	0.248117
