44
  This energy is -5.2016 and Call times are: 56603
C	1.7319	-2.67276	1.40341
C	0.903935	-2.07496	0.331848
O	0.727438	-2.65576	-0.730195
H	2.12983	-3.65142	1.05734
H	1.11891	-2.836	2.31464
H	2.58433	-2.00392	1.64652
N	0.371041	-0.878659	0.591208
C	-0.422034	-0.152308	-0.369004
C	-0.264093	1.33017	-0.0881884
O	0.312107	1.72134	0.925073
H	0.557337	-0.400172	1.44456
H	-0.0347968	-0.335262	-1.36359
C	-1.90786	-0.564602	-0.28202
H	-2.30851	-0.367311	0.73513
H	-2.52675	-0.0223071	-1.02594
H	-1.9987	-1.65441	-0.483039
N	-0.768804	2.1947	-0.990342
C	-0.661101	3.62374	-0.810271
H	-1.22804	1.8591	-1.80615
H	-1.13643	4.16393	-1.6585
H	0.407716	3.93293	-0.752738
H	-1.16321	3.94005	0.132585
C	8.6833	-1.02031	-1.11989
C	7.49953	-0.134282	-1.18912
O	7.50571	0.877813	-1.87617
H	9.49678	-0.596121	-1.74772
H	8.42692	-2.03183	-1.49915
H	9.0419	-1.09862	-0.0718666
N	6.44036	-0.501251	-0.463935
C	5.23142	0.281316	-0.396037
C	4.57701	0.0250631	0.94845
O	4.99355	-0.860199	1.6931
H	6.46492	-1.30593	0.122366
H	5.48425	1.33349	-0.436415
C	4.26922	-0.0889811	-1.54595
H	4.00122	-1.16601	-1.49875
H	3.34042	0.516603	-1.51274
H	4.77173	0.0989875	-2.51986
N	3.53465	0.805537	1.29539
C	2.85269	0.638781	2.55764
H	3.21463	1.51935	0.681281
H	2.02448	1.37455	2.65739
H	3.5576	0.787234	3.40755
H	2.42343	-0.385953	2.64012
