44
  This energy is -2.167 and Call times are: 58330
C	1.03527	-3.08372	-1.23758
C	1.19678	-1.92012	-0.336973
O	2.00852	-1.93575	0.578041
H	1.72706	-3.89354	-0.919007
H	1.27636	-2.79541	-2.28233
H	-0.00749205	-3.46252	-1.19013
N	0.411424	-0.868168	-0.579874
C	0.423187	0.320139	0.236427
C	-0.954659	0.951775	0.172151
O	-1.79956	0.540659	-0.620843
H	-0.273139	-0.886051	-1.30301
H	0.603345	0.0433262	1.26771
C	1.4983	1.31504	-0.253
H	1.30791	1.60749	-1.30764
H	1.52669	2.2283	0.376029
H	2.4972	0.828999	-0.204866
N	-1.21684	1.96772	1.01782
C	-2.50213	2.62651	1.03244
H	-0.521736	2.28365	1.65506
H	-2.52111	3.43471	1.79642
H	-3.313	1.90039	1.27018
H	-2.72365	3.07812	0.0383975
C	4.38365	-1.4745	-2.98423
C	4.74949	-1.5496	-1.55186
O	4.5528	-2.56636	-0.900772
H	3.92269	-2.43672	-3.2965
H	5.28856	-1.29254	-3.6013
H	3.65257	-0.65529	-3.15001
N	5.29748	-0.453981	-1.02109
C	5.66628	-0.360582	0.369527
C	5.56769	1.09422	0.788325
O	5.3808	1.97832	-0.0454351
H	5.41363	0.379671	-1.55344
H	4.95413	-0.916959	0.966108
C	7.09761	-0.893928	0.597714
H	7.82987	-0.31661	-0.00605739
H	7.38821	-0.840197	1.66691
H	7.14847	-1.95737	0.277027
N	5.68358	1.37624	2.10097
C	5.59751	2.73132	2.59345
H	5.83042	0.646891	2.76094
H	5.71682	2.75627	3.69906
H	4.61062	3.18041	2.33723
H	6.39349	3.36552	2.14029
