44
  This energy is -3.621 and Call times are: 54237
C	1.04466	2.8908	-1.63238
C	0.478849	1.52297	-1.63828
O	-0.0266682	1.05142	-2.64749
H	0.904981	3.35038	-2.63495
H	2.1301	2.85496	-1.40155
H	0.526364	3.51606	-0.875078
N	0.551039	0.845933	-0.489891
C	0.00558138	-0.478867	-0.32883
C	-0.386073	-0.655444	1.12616
O	-0.0712923	0.182327	1.96923
H	0.928619	1.25836	0.334249
H	-0.897944	-0.567376	-0.919118
C	1.03321	-1.55321	-0.74718
H	1.95622	-1.46956	-0.134731
H	0.620209	-2.57724	-0.640844
H	1.31132	-1.39982	-1.81277
N	-1.09445	-1.75393	1.45413
C	-1.5162	-2.00362	2.81279
H	-1.34324	-2.41842	0.757261
H	-2.08657	-2.95627	2.87873
H	-2.16872	-1.17836	3.17945
H	-0.635256	-2.07449	3.49107
C	3.34094	1.32738	2.62578
C	4.56573	1.2657	1.79677
O	5.43329	2.12364	1.88443
H	3.37348	2.23853	3.26186
H	3.27712	0.433542	3.28131
H	2.44134	1.37434	1.97648
N	4.66289	0.231922	0.95758
C	5.7751	0.0593819	0.0566016
C	5.28492	-0.704419	-1.15909
O	4.16184	-1.20447	-1.17799
H	3.92971	-0.436138	0.868126
H	6.11105	1.03008	-0.286194
C	6.92967	-0.701339	0.744737
H	6.58835	-1.70146	1.08723
H	7.79749	-0.828399	0.06558
H	7.26705	-0.12827	1.63586
N	6.11926	-0.805122	-2.21253
C	5.73718	-1.50837	-3.41487
H	7.02257	-0.39033	-2.18
H	6.55804	-1.47967	-4.16494
H	4.83101	-1.04603	-3.86917
H	5.50483	-2.57441	-3.18969
