44
  This energy is -4.3771 and Call times are: 58217
C	1.97296	2.79321	-0.646591
C	1.19054	1.93442	0.270714
O	1.24077	2.09222	1.48273
H	2.56647	3.52102	-0.0516697
H	1.29167	3.35203	-1.3221
H	2.66717	2.17333	-1.25232
N	0.439031	0.988793	-0.297959
C	-0.343868	0.049332	0.465613
C	-0.469312	-1.22861	-0.342279
O	-0.09093	-1.2744	-1.51123
H	0.440251	0.846178	-1.28362
H	0.183959	-0.196707	1.37857
C	-1.74004	0.626627	0.786027
H	-2.28607	0.869379	-0.150437
H	-2.34755	-0.0818948	1.38557
H	-1.62373	1.56529	1.37061
N	-0.99984	-2.30568	0.269671
C	-1.15358	-3.56645	-0.41808
H	-1.29647	-2.2503	1.21731
H	-1.60781	-4.32794	0.253513
H	-0.165645	-3.94847	-0.763501
H	-1.80989	-3.44978	-1.31071
C	8.18966	-0.769046	-2.59359
C	7.08786	0.0303322	-2.01205
O	6.69361	1.05355	-2.55427
H	8.552	-0.274927	-3.52118
H	7.83054	-1.78879	-2.84637
H	9.03133	-0.841848	-1.87292
N	6.55984	-0.426392	-0.874073
C	5.51093	0.2653	-0.167035
C	5.63825	-0.0639594	1.30841
O	6.41926	-0.93129	1.69502
H	6.91889	-1.23857	-0.423178
H	5.65325	1.33358	-0.272589
C	4.12115	-0.150854	-0.696733
H	3.97049	-1.24515	-0.579
H	3.30551	0.385274	-0.169659
H	4.05333	0.0920487	-1.77966
N	4.87375	0.632192	2.17266
C	4.93116	0.391805	3.59571
H	4.25076	1.33296	1.84117
H	4.22894	1.06371	4.1367
H	5.95953	0.574051	3.98367
H	4.65654	-0.662687	3.82761
