44
  This energy is -1.6887 and Call times are: 62223
C	-1.7968	-0.921399	2.83464
C	-0.728351	-0.14743	2.16343
O	-0.142636	0.756928	2.74264
H	-1.945	-0.527065	3.86344
H	-1.51134	-1.99249	2.89798
H	-2.74958	-0.82562	2.27238
N	-0.448769	-0.490693	0.903917
C	0.535487	0.198227	0.106929
C	0.130064	0.0814336	-1.35031
O	-0.792285	-0.65714	-1.69016
H	-0.962304	-1.20189	0.432379
H	0.527347	1.25094	0.360637
C	1.94168	-0.401135	0.32746
H	1.95321	-1.4786	0.0573138
H	2.71065	0.129813	-0.270286
H	2.21425	-0.312027	1.40176
N	0.80984	0.819854	-2.24957
C	0.491131	0.777887	-3.6577
H	1.55035	1.41472	-1.95486
H	1.16106	1.45435	-4.23287
H	-0.562115	1.09675	-3.83171
H	0.609409	-0.255478	-4.05684
C	9.36897	2.31923	-0.623474
C	8.42205	1.63678	0.286888
O	8.50346	1.76939	1.50023
H	10.1023	2.89981	-0.0226483
H	8.82164	3.01544	-1.29314
H	9.91709	1.57222	-1.23554
N	7.48823	0.876415	-0.289484
C	6.52392	0.116622	0.46642
C	6.13205	-1.09861	-0.352865
O	6.49319	-1.21267	-1.5226
H	7.46011	0.745715	-1.27639
H	6.98712	-0.24363	1.37653
C	5.28092	0.972857	0.793593
H	4.79927	1.33396	-0.140035
H	4.53697	0.403224	1.38737
H	5.59239	1.86042	1.38651
N	5.38549	-2.04483	0.249901
C	4.96948	-3.23838	-0.449059
H	5.10646	-1.93664	1.19833
H	4.36411	-3.89282	0.216119
H	5.85473	-3.81731	-0.799018
H	4.35337	-2.97762	-1.33987
