44
  This energy is -2.1954 and Call times are: 58994
C	0.774268	0.751553	-3.30883
C	0.754169	-0.172619	-2.1527
O	1.02182	-1.35881	-2.2858
H	1.03885	0.184545	-4.22773
H	1.53014	1.54883	-3.14837
H	-0.226108	1.21332	-3.44706
N	0.428247	0.3601	-0.972714
C	0.324417	-0.420887	0.234696
C	-0.686037	0.249617	1.14627
O	-1.13392	1.36302	0.878967
H	0.173074	1.31901	-0.88757
H	-0.0615415	-1.40327	-0.00737583
C	1.69505	-0.535512	0.937167
H	2.08656	0.471555	1.19518
H	1.63107	-1.14623	1.86099
H	2.42061	-1.02168	0.249017
N	-1.07676	-0.421649	2.24752
C	-2.03844	0.134746	3.17045
H	-0.706229	-1.32325	2.44474
H	-2.2291	-0.568285	4.01105
H	-3.0058	0.336155	2.65574
H	-1.66625	1.09551	3.59417
C	5.35781	-2.59121	2.27071
C	6.23516	-1.72947	1.44682
O	7.44903	-1.73322	1.59825
H	5.97921	-3.16502	2.99214
H	4.80626	-3.30546	1.62388
H	4.6325	-1.96917	2.83646
N	5.62854	-0.956973	0.542581
C	6.34473	-0.0342774	-0.302558
C	5.41322	1.11268	-0.646581
O	4.21942	1.06313	-0.356589
H	4.63637	-0.934742	0.459185
H	7.17864	0.381743	0.248933
C	6.84006	-0.733588	-1.58741
H	5.98399	-1.1514	-2.15891
H	7.40504	-0.0369285	-2.24009
H	7.51355	-1.57417	-1.3114
N	5.94338	2.18329	-1.27006
C	5.13509	3.32434	-1.6318
H	6.91236	2.20669	-1.49279
H	5.75304	4.10041	-2.13487
H	4.66995	3.77883	-0.727158
H	4.31747	3.02268	-2.3258
