44
  This energy is 0.141 and Call times are: 59859
C	3.11047	1.13975	1.06706
C	2.23124	0.500351	0.0624399
O	2.62051	0.292129	-1.0784
H	4.08959	1.37987	0.598492
H	3.28008	0.450766	1.92103
H	2.64887	2.07963	1.43671
N	1.00368	0.171625	0.471605
C	0.0207732	-0.417906	-0.402985
C	-1.35553	-0.0189152	0.0951492
O	-1.49332	0.551531	1.17558
H	0.687567	0.384708	1.39168
H	0.135453	-0.00646944	-1.39807
C	0.160865	-1.95566	-0.433307
H	0.0328153	-2.37918	0.585649
H	-0.581554	-2.42039	-1.11402
H	1.178	-2.22449	-0.79318
N	-2.41211	-0.304512	-0.691046
C	-3.75926	0.0421197	-0.30217
H	-2.28019	-0.76285	-1.56374
H	-4.48736	-0.275324	-1.08084
H	-3.85605	1.14286	-0.159781
H	-4.03188	-0.45531	0.656674
C	1.37942	0.620587	1.41054
C	2.75477	1.03652	1.05474
O	3.10623	2.2047	1.14544
H	0.795739	1.51282	1.72533
H	1.40441	-0.106705	2.24909
H	0.881102	0.156276	0.533519
N	3.57586	0.0722271	0.632438
C	4.9301	0.329263	0.209935
C	5.31419	-0.723076	-0.813113
O	4.58514	-1.68991	-1.02622
H	3.26311	-0.867187	0.524969
H	4.97333	1.29137	-0.285149
C	5.89903	0.294803	1.41211
H	5.86283	-0.695566	1.91401
H	6.94307	0.505009	1.10177
H	5.59424	1.0674	2.15139
N	6.4728	-0.55325	-1.48004
C	6.91758	-1.50021	-2.47584
H	7.04728	0.2376	-1.2967
H	7.89154	-1.18504	-2.91094
H	6.17414	-1.57992	-3.30181
H	7.0448	-2.51191	-2.02705
