44
  This energy is -1.4553 and Call times are: 59654
C	2.30424	1.19254	-2.3197
C	1.46314	1.36102	-1.11334
O	1.60429	2.32437	-0.372769
H	3.02687	2.03488	-2.38418
H	1.67033	1.1923	-3.23124
H	2.86901	0.23817	-2.26221
N	0.555332	0.409076	-0.885157
C	-0.306341	0.412718	0.270726
C	-0.655501	-1.02532	0.60491
O	-0.354827	-1.94033	-0.159334
H	0.480126	-0.39005	-1.47474
H	0.233257	0.818725	1.11726
C	-1.58729	1.23238	0.0013487
H	-2.14669	0.809922	-0.860422
H	-2.25266	1.25432	0.888663
H	-1.30744	2.27901	-0.248849
N	-1.29565	-1.25938	1.76743
C	-1.6635	-2.59626	2.17194
H	-1.52685	-0.506423	2.37461
H	-2.18064	-2.58091	3.1566
H	-0.760189	-3.24237	2.26053
H	-2.34704	-3.05918	1.42386
C	5.07414	-0.14409	2.89535
C	5.59783	-0.743564	1.64734
O	5.4551	-1.93486	1.40889
H	4.59224	-0.935889	3.5091
H	4.32012	0.63566	2.65831
H	5.90288	0.308804	3.47943
N	6.22873	0.0837891	0.810774
C	6.82943	-0.360823	-0.422121
C	7.99205	0.56019	-0.74089
O	8.17843	1.58719	-0.091097
H	6.37283	1.04274	1.03771
H	7.23444	-1.35554	-0.283794
C	5.79934	-0.350687	-1.5728
H	5.39132	0.671701	-1.72207
H	6.24621	-0.704241	-2.52455
H	4.95389	-1.02508	-1.31446
N	8.81108	0.206661	-1.75095
C	9.94654	1.01823	-2.12278
H	8.64639	-0.630172	-2.26248
H	10.4957	0.559652	-2.97449
H	10.6518	1.12276	-1.26666
H	9.61792	2.03866	-2.4259
