44
  This energy is -0.3657 and Call times are: 61858
C	3.44529	-0.0880785	0.484676
C	2.08341	0.332565	0.884022
O	1.87121	0.832369	1.98019
H	4.15118	0.111922	1.3199
H	3.77528	0.48206	-0.409075
H	3.45844	-1.17452	0.255417
N	1.11411	0.133567	-0.0122203
C	-0.26769	0.451824	0.248336
C	-1.13206	-0.484271	-0.575162
O	-0.632278	-1.21844	-1.42541
H	1.29547	-0.311902	-0.884307
H	-0.487838	0.260457	1.29119
C	-0.571551	1.92351	-0.1081
H	-0.355865	2.11769	-1.18039
H	-1.62914	2.18476	0.101126
H	0.0777783	2.59011	0.500477
N	-2.4579	-0.485562	-0.333965
C	-3.35826	-1.34684	-1.06453
H	-2.84317	0.112633	0.360875
H	-4.40633	-1.20172	-0.721449
H	-3.08571	-2.4168	-0.915572
H	-3.31285	-1.12774	-2.15589
C	6.13739	-0.443368	-2.2562
C	7.38859	0.219802	-1.82509
O	8.01672	0.942513	-2.58637
H	5.92967	-0.181941	-3.31656
H	5.28744	-0.101886	-1.62872
H	6.23974	-1.54581	-2.1713
N	7.7851	-0.0178679	-0.572619
C	9.00412	0.521858	-0.0237457
C	9.5058	-0.43285	1.04322
O	8.81193	-1.37433	1.42252
H	7.28504	-0.641018	0.021919
H	9.75795	0.562956	-0.800064
C	8.76571	1.92561	0.574497
H	8.00006	1.88221	1.3782
H	9.69995	2.35775	0.987987
H	8.39149	2.60526	-0.221974
N	10.7358	-0.215035	1.54883
C	11.2989	-1.07455	2.56388
H	11.2839	0.549609	1.22633
H	12.3177	-0.731154	2.84906
H	11.3732	-2.12283	2.19393
H	10.6605	-1.07508	3.47689
