44
  This energy is -3.98 and Call times are: 56054
C	-0.849053	0.097971	3.37375
C	0.149519	0.0518583	2.28202
O	1.33863	0.234279	2.50371
H	-0.335196	0.329568	4.33197
H	-1.35908	-0.883764	3.46761
H	-1.60257	0.887779	3.17003
N	-0.321109	-0.195271	1.05735
C	0.522406	-0.228385	-0.111383
C	-0.314488	0.176252	-1.31031
O	-1.53359	0.303188	-1.21341
H	-1.29655	-0.301031	0.886486
H	1.30983	0.507273	-0.00458156
C	1.12149	-1.63656	-0.319654
H	0.314133	-2.39007	-0.439812
H	1.784	-1.67151	-1.20869
H	1.72313	-1.91513	0.57297
N	0.327	0.397663	-2.47457
C	-0.385881	0.791717	-3.66734
H	1.3144	0.29384	-2.5323
H	0.316688	0.925617	-4.51922
H	-0.924959	1.75283	-3.50326
H	-1.13666	0.018678	-3.94997
C	4.84376	2.3178	-2.56428
C	5.41649	1.89839	-1.26534
O	6.30541	2.54407	-0.727448
H	5.35941	3.23896	-2.91275
H	3.76014	2.53268	-2.45322
H	4.98612	1.51803	-3.32136
N	4.91195	0.786384	-0.725645
C	5.39678	0.229987	0.512869
C	5.17224	-1.26998	0.477499
O	4.51053	-1.78671	-0.42074
H	4.21717	0.249182	-1.19527
H	6.46465	0.394683	0.584658
C	4.66946	0.858013	1.72193
H	3.575	0.680221	1.65416
H	5.0437	0.447807	2.68224
H	4.84094	1.95662	1.72322
N	5.72946	-2.0089	1.45705
C	5.57427	-3.44418	1.50252
H	6.26491	-1.57316	2.17294
H	6.10584	-3.86954	2.38214
H	5.98961	-3.91354	0.58139
H	4.49763	-3.721	1.57566
