44
  This energy is 1.5717 and Call times are: 60135
C	2.53757	-1.03754	2.14405
C	1.99516	-0.793923	0.788473
O	2.71648	-0.834665	-0.198671
H	3.63097	-1.22574	2.07379
H	2.04861	-1.92494	2.59812
H	2.36637	-0.150548	2.78983
N	0.689084	-0.528408	0.710766
C	0.0259855	-0.228018	-0.533672
C	-1.15821	0.671505	-0.233503
O	-1.50782	0.886665	0.925457
H	0.123039	-0.458332	1.52719
H	0.700255	0.328758	-1.17242
C	-0.441071	-1.52167	-1.23622
H	-1.14107	-2.08797	-0.585572
H	-0.940933	-1.30447	-2.20239
H	0.440658	-2.16804	-1.43897
N	-1.80155	1.22792	-1.27875
C	-2.93585	2.10192	-1.08989
H	-1.50131	1.04521	-2.2091
H	-3.32555	2.45764	-2.06908
H	-2.64975	2.9911	-0.482618
H	-3.75744	1.57016	-0.557564
C	7.84504	1.54254	-2.87774
C	7.85553	0.428325	-1.90328
O	6.98362	-0.429625	-1.91334
H	6.95429	1.44647	-3.53591
H	8.76054	1.51088	-3.50512
H	7.79534	2.51588	-2.34557
N	8.85972	0.418747	-1.02356
C	8.98094	-0.576675	0.0122922
C	9.71505	0.0472169	1.18422
O	10.2367	1.15595	1.0825
H	9.53914	1.1466	-1.00177
H	7.99321	-0.852316	0.360186
C	9.74003	-1.81918	-0.502695
H	10.7573	-1.53864	-0.84994
H	9.82782	-2.59869	0.281636
H	9.18918	-2.25453	-1.36488
N	9.76517	-0.652563	2.33479
C	10.437	-0.136611	3.50465
H	9.3336	-1.54627	2.39899
H	10.3678	-0.858302	4.34822
H	9.97862	0.825864	3.82837
H	11.5142	0.049199	3.28938
