44
  This energy is -1.5761 and Call times are: 57944
C	-0.849405	1.02498	-3.21568
C	-0.668596	1.2858	-1.76985
O	-0.69642	2.42449	-1.32373
H	-0.981963	1.99112	-3.74942
H	-1.74944	0.396351	-3.38154
H	0.043388	0.50744	-3.62576
N	-0.473675	0.217051	-0.993861
C	-0.239693	0.314748	0.425388
C	0.604033	-0.872957	0.848513
O	0.82971	-1.79533	0.0674779
H	-0.412749	-0.700063	-1.37734
H	0.335297	1.20882	0.631929
C	-1.57322	0.336518	1.20416
H	-2.15876	-0.585347	1.00084
H	-1.40677	0.425486	2.29728
H	-2.17756	1.20903	0.872741
N	1.09965	-0.873118	2.10167
C	1.9177	-1.95832	2.59085
H	0.909531	-0.11586	2.71769
H	2.22786	-1.77366	3.64295
H	2.8356	-2.06938	1.96923
H	1.35732	-2.92049	2.55403
C	7.14366	2.41404	-2.23097
C	6.94441	1.89873	-0.857683
O	7.49222	2.42453	0.101404
H	7.84159	3.27883	-2.20109
H	6.1751	2.74848	-2.6585
H	7.57921	1.62291	-2.87711
N	6.14318	0.838225	-0.732198
C	5.88713	0.198468	0.534177
C	5.58324	-1.26459	0.272086
O	5.42349	-1.67907	-0.874384
H	5.73703	0.396204	-1.52688
H	6.78251	0.238096	1.14191
C	4.70625	0.87432	1.26493
H	3.78487	0.824624	0.646354
H	4.50809	0.399525	2.24769
H	4.94728	1.94572	1.43914
N	5.50435	-2.08725	1.33652
C	5.22481	-3.49606	1.18395
H	5.64065	-1.73408	2.25618
H	5.20123	-4.00183	2.17434
H	6.00602	-3.98605	0.558731
H	4.23914	-3.64975	0.687984
