44
  This energy is -0.9402 and Call times are: 58246
C	-0.600014	3.40584	-0.391038
C	-0.33599	2.05743	-0.941688
O	-0.45373	1.82781	-2.13744
H	-0.913858	4.08378	-1.21431
H	0.319115	3.81369	0.0797072
H	-1.41224	3.35829	0.364685
N	0.031115	1.11984	-0.0650228
C	0.28037	-0.248703	-0.443862
C	-0.0283174	-1.13346	0.74923
O	-0.260053	-0.643995	1.85306
H	0.0828923	1.31188	0.91084
H	-0.400228	-0.529135	-1.23807
C	1.7455	-0.438434	-0.894006
H	2.44395	-0.160897	-0.0759719
H	1.94635	-1.48517	-1.20146
H	1.95125	0.224278	-1.76282
N	-0.0467793	-2.4663	0.55114
C	-0.336275	-3.38634	1.62627
H	0.139219	-2.84333	-0.35015
H	-0.304083	-4.43743	1.26378
H	-1.34912	-3.19182	2.04768
H	0.406915	-3.276	2.44884
C	4.59419	-2.82977	0.286182
C	5.72818	-1.98624	0.726281
O	6.30354	-2.20089	1.78425
H	4.39207	-3.60479	1.05712
H	4.84063	-3.33235	-0.672685
H	3.68355	-2.20818	0.154125
N	6.07798	-0.98927	-0.0898581
C	7.13345	-0.0581711	0.222532
C	6.82013	1.259	-0.461903
O	5.89874	1.34451	-1.2715
H	5.57377	-0.801938	-0.928035
H	7.14241	0.126834	1.28945
C	8.50249	-0.599032	-0.244847
H	8.49718	-0.779035	-1.34103
H	9.32524	0.102716	0.00242379
H	8.70733	-1.56697	0.262577
N	7.58015	2.32535	-0.143633
C	7.35251	3.6209	-0.740196
H	8.31853	2.23743	0.516769
H	8.07966	4.36675	-0.350063
H	6.32351	3.98261	-0.512999
H	7.46346	3.56873	-1.84749
