44
  This energy is 0.1489 and Call times are: 56969
C	3.34741	-0.891282	0.336388
C	1.90934	-1.09584	0.621461
O	1.5099	-2.11976	1.15853
H	3.91811	-1.78668	0.665681
H	3.72392	-0.00302398	0.885914
H	3.50461	-0.74563	-0.753183
N	1.08633	-0.108985	0.259331
C	-0.343156	-0.181279	0.432268
C	-0.993337	0.667032	-0.644388
O	-0.316	1.3964	-1.36616
H	1.42157	0.700637	-0.21395
H	-0.670242	-1.20227	0.279861
C	-0.754944	0.315585	1.83541
H	-0.42888	1.36646	1.98832
H	-1.85213	0.251842	1.98588
H	-0.261366	-0.31442	2.6073
N	-2.3312	0.58385	-0.783067
C	-3.03646	1.34985	-1.78408
H	-2.86169	-0.0150522	-0.192336
H	-4.12862	1.14389	-1.73965
H	-2.67238	1.09167	-2.8049
H	-2.87863	2.44145	-1.6271
C	9.07531	1.02295	0.0927691
C	7.93869	0.235974	0.621822
O	8.10843	-0.630959	1.46801
H	10.017	0.674477	0.569907
H	8.93404	2.10029	0.321079
H	9.15713	0.885814	-1.00613
N	6.73408	0.524838	0.123956
C	5.5394	-0.184389	0.509041
C	4.56804	-0.141941	-0.655528
O	4.79123	0.565089	-1.63634
H	6.61746	1.205	-0.594126
H	5.78326	-1.22417	0.68795
C	4.90426	0.447154	1.76721
H	4.64425	1.51096	1.58078
H	3.99117	-0.0985138	2.08191
H	5.63539	0.412429	2.60422
N	3.46372	-0.910269	-0.576972
C	2.48564	-0.938875	-1.63938
H	3.30255	-1.47879	0.222958
H	1.65163	-1.63043	-1.3876
H	2.95033	-1.28241	-2.59192
H	2.06017	0.0766117	-1.80939
