44
  This energy is -2.6238 and Call times are: 61063
C	0.984378	-3.01241	-1.43842
C	0.406555	-2.22761	-0.324265
O	-0.155248	-2.77772	0.612841
H	0.796746	-4.09386	-1.26194
H	2.08001	-2.84282	-1.49812
H	0.512055	-2.71786	-2.39928
N	0.532415	-0.900954	-0.405037
C	-0.0159685	-0.00308854	0.580697
C	-0.332723	1.3136	-0.103072
O	0.0332842	1.52799	-1.2571
H	0.956259	-0.465743	-1.19422
H	-0.94985	-0.406884	0.951434
C	0.978558	0.215314	1.74193
H	1.93301	0.639417	1.36352
H	0.562337	0.894001	2.51437
H	1.20205	-0.762174	2.22247
N	-1.03301	2.22854	0.595867
C	-1.38552	3.50782	0.0254613
H	-1.32391	2.03518	1.52703
H	-1.96035	4.11903	0.755684
H	-2.01044	3.37229	-0.886883
H	-0.471049	4.07471	-0.263554
C	7.42368	2.5751	-1.77765
C	6.68922	1.29142	-1.71525
O	6.20301	0.790835	-2.71995
H	7.41813	2.95094	-2.82387
H	8.47564	2.43028	-1.45338
H	6.93551	3.3275	-1.12293
N	6.58941	0.722708	-0.511505
C	5.86833	-0.50506	-0.285281
C	5.35137	-0.494049	1.14097
O	5.70807	0.375702	1.93344
H	6.95511	1.16277	0.303644
H	5.00678	-0.53924	-0.940403
C	6.77776	-1.73065	-0.522149
H	7.65633	-1.70153	0.157044
H	6.23024	-2.68245	-0.36458
H	7.15082	-1.71388	-1.56947
N	4.48589	-1.46264	1.49984
C	3.93688	-1.52937	2.83413
H	4.20591	-2.15529	0.843394
H	3.24583	-2.39544	2.93218
H	3.37031	-0.600192	3.07266
H	4.7492	-1.64159	3.58824
