44
  This energy is 0.143 and Call times are: 53414
C	0.0218251	-1.24208	3.25107
C	0.397378	-0.227002	2.24126
O	0.887401	0.843897	2.57211
H	0.242429	-0.848534	4.26711
H	0.604488	-2.17375	3.09222
H	-1.06307	-1.46837	3.18108
N	0.169436	-0.546672	0.965236
C	0.442353	0.354733	-0.126343
C	-0.519097	0.034974	-1.25547
O	-1.2347	-0.963784	-1.20947
H	-0.267822	-1.40556	0.714274
H	0.241439	1.37056	0.190461
C	1.90435	0.215644	-0.60432
H	2.108	-0.823744	-0.939338
H	2.13087	0.914446	-1.43552
H	2.59004	0.446407	0.240029
N	-0.56371	0.886726	-2.29881
C	-1.45177	0.667033	-3.41651
H	0.020055	1.69171	-2.31608
H	-1.34134	1.47635	-4.17152
H	-2.51275	0.646761	-3.07711
H	-1.22865	-0.306329	-3.9104
C	5.01853	-1.2852	-3.22318
C	4.63029	-0.217765	-2.27397
O	4.31358	0.895903	-2.66875
H	4.98092	-0.886134	-4.26009
H	4.31773	-2.14259	-3.14244
H	6.05167	-1.63102	-3.00847
N	4.64903	-0.539966	-0.978508
C	4.33806	0.404325	0.0656027
C	5.0985	-0.0029925	1.31356
O	5.69552	-1.0766	1.36495
H	4.94851	-1.43837	-0.670217
H	4.69352	1.38569	-0.222821
C	2.81933	0.438662	0.344
H	2.45608	-0.565516	0.650136
H	2.56554	1.17215	1.13654
H	2.28249	0.731209	-0.584743
N	5.10093	0.855418	2.35237
C	5.80201	0.555592	3.57906
H	4.61546	1.72119	2.2904
H	5.68521	1.38454	4.31148
H	6.88938	0.410376	3.38459
H	5.40602	-0.37817	4.03996
