44
  This energy is 0.3716 and Call times are: 62167
C	-0.467814	-3.44151	0.223247
C	-0.924795	-2.08624	-0.158255
O	-1.9172	-1.9257	-0.855222
H	-1.143	-4.19843	-0.231817
H	-0.491198	-3.5566	1.32731
H	0.565617	-3.61452	-0.144423
N	-0.196127	-1.06429	0.29676
C	-0.490857	0.309621	-0.025838
C	0.808127	1.09259	0.00817868
O	1.84114	0.580494	0.435216
H	0.632502	-1.21254	0.828986
H	-0.87435	0.364779	-1.03704
C	-1.50808	0.904703	0.972353
H	-1.11071	0.857974	2.00867
H	-1.75375	1.95811	0.726403
H	-2.44778	0.31141	0.93626
N	0.787211	2.35884	-0.452458
C	1.97632	3.17863	-0.464285
H	-0.057376	2.75439	-0.797838
H	1.75513	4.18636	-0.87996
H	2.77103	2.70893	-1.08807
H	2.37692	3.30496	0.567562
C	7.29528	3.33685	-0.95815
C	7.59231	1.89984	-1.15292
O	8.08823	1.49139	-2.1939
H	7.57494	3.89745	-1.8765
H	7.87888	3.73564	-0.10193
H	6.21122	3.48082	-0.765376
N	7.28778	1.08799	-0.137755
C	7.47869	-0.339871	-0.195424
C	6.45156	-0.99139	0.71128
O	5.75359	-0.312581	1.46212
H	6.8468	1.42964	0.687273
H	7.28497	-0.685758	-1.20312
C	8.90897	-0.723403	0.243237
H	9.10457	-0.378032	1.28079
H	9.07284	-1.81923	0.189919
H	9.64395	-0.229235	-0.429034
N	6.32934	-2.33227	0.655523
C	5.37486	-3.03912	1.47742
H	6.90015	-2.86401	0.038672
H	5.42627	-4.13377	1.28682
H	4.33802	-2.69392	1.26045
H	5.5789	-2.86122	2.5581
