44
  This energy is -5.2263 and Call times are: 51220
C	1.80643	2.22885	-1.97021
C	1.05295	0.968239	-1.78507
O	0.714249	0.28675	-2.74281
H	1.96143	2.40796	-3.05639
H	2.7965	2.15955	-1.47253
H	1.2371	3.08122	-1.5431
N	0.767718	0.626748	-0.526341
C	0.00394529	-0.548913	-0.190139
C	-0.718698	-0.285512	1.11752
O	-0.471391	0.718603	1.78258
H	1.01454	1.21264	0.240259
H	-0.751264	-0.713255	-0.948613
C	0.92122	-1.78485	-0.0624725
H	1.68962	-1.62088	0.722841
H	0.343127	-2.69934	0.182556
H	1.44574	-1.95392	-1.02821
N	-1.64131	-1.18415	1.51409
C	-2.38309	-1.01435	2.74173
H	-1.83046	-1.98835	0.960414
H	-3.09308	-1.85729	2.892
H	-2.96573	-0.0649473	2.72049
H	-1.6933	-0.976599	3.61574
C	6.32177	2.91339	1.57361
C	5.33752	2.15132	0.772562
O	4.22242	2.60029	0.545845
H	5.86406	3.87131	1.90337
H	7.22165	3.13658	0.962759
H	6.61933	2.32985	2.47027
N	5.73523	0.95954	0.321042
C	4.87492	0.0843118	-0.435521
C	5.31157	-1.34576	-0.179004
O	6.34989	-1.58691	0.433741
H	6.63162	0.589851	0.548351
H	3.85905	0.1813	-0.0732664
C	4.9455	0.409778	-1.94361
H	5.98562	0.300197	-2.31804
H	4.27685	-0.248303	-2.53551
H	4.6294	1.46323	-2.10689
N	4.51834	-2.33365	-0.638204
C	4.85005	-3.72486	-0.436514
H	3.68004	-2.11869	-1.12822
H	4.07471	-4.38327	-0.886603
H	4.92002	-3.95836	0.650621
H	5.83118	-3.96699	-0.905456
