44
  This energy is -1.1321 and Call times are: 57837
C	1.51488	1.05048	-2.952
C	0.422074	1.10966	-1.9553
O	-0.409967	2.00602	-1.9807
H	1.43082	1.91872	-3.64119
H	1.44291	0.113726	-3.54366
H	2.5005	1.09056	-2.44207
N	0.402012	0.139517	-1.03835
C	-0.574005	0.0867892	0.0214524
C	0.0531873	-0.621806	1.20723
O	1.14371	-1.17996	1.10263
H	1.10995	-0.560223	-1.00582
H	-0.813029	1.09459	0.337424
C	-1.84902	-0.653133	-0.439081
H	-1.60596	-1.69052	-0.753387
H	-2.61371	-0.688288	0.363753
H	-2.2865	-0.121772	-1.31236
N	-0.622831	-0.608163	2.37293
C	-0.101722	-1.25141	3.55651
H	-1.50191	-0.147808	2.43905
H	-0.802749	-1.12931	4.41142
H	0.880518	-0.810491	3.84299
H	0.0477584	-2.34091	3.37824
C	4.16572	-3.16844	-1.29284
C	4.26	-2.21688	-0.16288
O	3.83397	-2.50727	0.946438
H	3.65895	-4.09663	-0.950047
H	5.18079	-3.42793	-1.66034
H	3.57595	-2.72188	-2.12098
N	4.82849	-1.03786	-0.425764
C	4.95266	0.00640057	0.560472
C	4.95094	1.34097	-0.160977
O	5.01918	1.39396	-1.38745
H	5.13344	-0.800546	-1.34367
H	4.08609	-0.01047	1.20963
C	6.24885	-0.162835	1.38296
H	7.13877	-0.135036	0.718656
H	6.34909	0.627309	2.15507
H	6.23196	-1.14931	1.89572
N	4.86373	2.45712	0.589098
C	4.84957	3.77128	-0.0100454
H	4.80522	2.39384	1.57988
H	4.77262	4.559	0.771499
H	3.98288	3.8782	-0.701925
H	5.78161	3.94685	-0.594532
