44
  This energy is 0.1434 and Call times are: 54056
C	1.92734	-1.78149	-2.28568
C	1.71011	-1.18787	-0.947187
O	2.45259	-1.44917	-0.0107775
H	2.80802	-2.45891	-2.2485
H	2.11989	-0.982376	-3.03207
H	1.03587	-2.36761	-2.59363
N	0.66727	-0.363157	-0.825898
C	0.303219	0.256817	0.423766
C	-1.19382	0.502318	0.41152
O	-1.85092	0.336042	-0.614294
H	0.0479565	-0.192287	-1.5869
H	0.511126	-0.428171	1.23629
C	1.06787	1.58352	0.624803
H	0.84668	2.29052	-0.203002
H	0.806533	2.06369	1.59003
H	2.16117	1.38097	0.622456
N	-1.77191	0.898515	1.56255
C	-3.19151	1.15089	1.64769
H	-1.22428	1.02366	2.38323
H	-3.47382	1.4666	2.6762
H	-3.76958	0.233545	1.39159
H	-3.49069	1.9566	0.938839
C	1.95549	0.497819	0.0177983
C	3.25033	0.371314	-0.688287
O	3.29965	0.266215	-1.90604
H	1.12779	0.460274	-0.723378
H	1.90842	1.46535	0.560405
H	1.82993	-0.336885	0.739306
N	4.34557	0.376525	0.0751303
C	5.67358	0.218765	-0.46343
C	6.54298	-0.422114	0.601935
O	6.12945	-0.563498	1.75116
H	4.28715	0.421626	1.06831
H	5.63936	-0.462359	-1.30457
C	6.26	1.58129	-0.893404
H	6.30512	2.27695	-0.0284961
H	7.27698	1.47146	-1.3226
H	5.60359	2.03553	-1.66744
N	7.77362	-0.834872	0.239766
C	8.66939	-1.46072	1.18427
H	8.08891	-0.715555	-0.695876
H	9.63191	-1.72854	0.695332
H	8.21625	-2.39034	1.5987
H	8.88677	-0.774037	2.03418
