44
  This energy is -3.2329 and Call times are: 58881
C	2.16826	2.56627	0.908618
C	1.67572	1.55616	-0.0548249
O	2.05242	1.55494	-1.21866
H	2.86554	3.25941	0.389738
H	2.70899	2.06925	1.74127
H	1.31786	3.1516	1.31765
N	0.805479	0.66053	0.417304
C	0.205708	-0.356702	-0.409782
C	-1.15407	-0.697107	0.170473
O	-1.49958	-0.257268	1.26541
H	0.47708	0.699441	1.35672
H	0.0419124	0.0414616	-1.4034
C	1.09873	-1.61527	-0.471113
H	1.25841	-2.03024	0.546894
H	0.654356	-2.40071	-1.1162
H	2.091	-1.34108	-0.891297
N	-1.96539	-1.48748	-0.559658
C	-3.27977	-1.8601	-0.0908978
H	-1.66974	-1.83028	-1.44518
H	-3.79138	-2.51256	-0.832361
H	-3.90925	-0.955625	0.0732896
H	-3.21092	-2.4126	0.874062
C	5.92423	1.06197	-3.31353
C	6.10834	0.0256344	-2.27273
O	6.27922	-1.14822	-2.57152
H	5.95321	0.584092	-4.31684
H	6.73694	1.81585	-3.25092
H	4.94286	1.565	-3.1833
N	6.07455	0.444593	-1.00556
C	6.19556	-0.452111	0.116862
C	5.44329	0.151627	1.28783
O	5.00596	1.29933	1.23106
H	5.8937	1.39697	-0.777222
H	5.71616	-1.39272	-0.124068
C	7.67835	-0.678584	0.484698
H	8.1679	0.284792	0.742164
H	7.78533	-1.37823	1.33885
H	8.21097	-1.11335	-0.389159
N	5.26723	-0.616608	2.38091
C	4.5591	-0.128944	3.54147
H	5.62485	-1.54425	2.40647
H	4.51976	-0.908115	4.3343
H	3.51467	0.152653	3.27472
H	5.06345	0.772053	3.95978
