44
  This energy is -4.6892 and Call times are: 56786
C	0.0899602	-1.93414	2.892
C	-0.101087	-1.78083	1.43216
O	-0.177446	-2.75624	0.697884
H	0.160471	-3.01515	3.14167
H	-0.770465	-1.49439	3.43884
H	1.02672	-1.42995	3.21039
N	-0.181454	-0.530059	0.972292
C	-0.324032	-0.220798	-0.428633
C	0.306133	1.13614	-0.679967
O	0.67408	1.84283	0.256474
H	-0.076506	0.254253	1.57703
H	0.228537	-0.946219	-1.01264
C	-1.81179	-0.212016	-0.843032
H	-2.37703	0.539445	-0.251551
H	-1.93405	0.0112581	-1.92272
H	-2.25441	-1.21222	-0.642943
N	0.453376	1.52967	-1.96039
C	1.04754	2.80256	-2.29639
H	0.153267	0.942248	-2.70466
H	1.08017	2.94241	-3.39939
H	2.0884	2.86594	-1.90414
H	0.460285	3.63949	-1.85387
C	8.48538	1.75801	0.636952
C	7.06159	1.45715	0.908015
O	6.50028	1.89528	1.90269
H	8.89111	2.38611	1.45959
H	8.58397	2.31191	-0.320246
H	9.07152	0.816535	0.581063
N	6.43711	0.687083	0.0139243
C	5.0641	0.273399	0.163192
C	4.89286	-1.06019	-0.539511
O	5.78983	-1.52122	-1.24279
H	6.91852	0.304367	-0.769417
H	4.85098	0.114573	1.21294
C	4.103	1.32606	-0.43132
H	4.31432	1.48165	-1.51075
H	3.04209	1.02554	-0.31016
H	4.25128	2.29565	0.0923666
N	3.73124	-1.71848	-0.357049
C	3.48065	-2.99667	-0.981249
H	3.01893	-1.33127	0.218935
H	2.47089	-3.37583	-0.709448
H	4.23638	-3.74772	-0.65558
H	3.53594	-2.90994	-2.09056
