44
  This energy is -3.7902 and Call times are: 54602
C	2.48768	2.32756	-0.71174
C	1.37598	1.82308	0.125378
O	1.14723	2.30009	1.22835
H	3.02176	3.13507	-0.165312
H	2.09314	2.73861	-1.6647
H	3.20383	1.50782	-0.931387
N	0.649966	0.827841	-0.389183
C	-0.436678	0.204219	0.324162
C	-0.557444	-1.2294	-0.157187
O	0.0878406	-1.62487	-1.12617
H	0.873929	0.42255	-1.27091
H	-0.19845	0.170995	1.37999
C	-1.75929	0.966871	0.0911425
H	-2.00958	0.992135	-0.990872
H	-2.60101	0.504491	0.64633
H	-1.64529	2.01536	0.443302
N	-1.38695	-2.04828	0.51912
C	-1.56194	-3.43025	0.137369
H	-1.89751	-1.71108	1.30314
H	-2.2835	-3.93717	0.815315
H	-0.59233	-3.97687	0.185621
H	-1.94844	-3.50419	-0.904884
C	2.91384	-0.989669	2.10834
C	4.20305	-0.306264	1.85925
O	4.70758	0.420832	2.70376
H	2.53833	-0.709373	3.11644
H	3.05057	-2.09081	2.06912
H	2.16501	-0.683051	1.34787
N	4.7722	-0.527246	0.671977
C	6.00536	0.101044	0.268096
C	5.99792	0.229265	-1.24355
O	5.12527	-0.314842	-1.91745
H	4.32915	-1.08912	-0.020745
H	6.04626	1.10307	0.676616
C	7.22406	-0.724523	0.735493
H	7.18807	-1.74929	0.30817
H	8.17995	-0.243917	0.442575
H	7.20472	-0.812165	1.84377
N	6.97297	0.964392	-1.81352
C	7.04354	1.14691	-3.24456
H	7.6679	1.40035	-1.2513
H	7.91481	1.78222	-3.5175
H	6.11863	1.63879	-3.62387
H	7.14937	0.165575	-3.76122
