44
  This energy is -6.1273 and Call times are: 60107
C	0.341407	2.11729	2.74102
C	0.033192	0.798625	2.14331
O	-0.0902864	-0.199016	2.84036
H	0.443738	2.00643	3.84244
H	-0.47773	2.8355	2.52669
H	1.29476	2.51064	2.32933
N	-0.0975909	0.76507	0.815097
C	-0.354569	-0.452014	0.0862435
C	0.238266	-0.305786	-1.30254
O	0.671495	0.777125	-1.69155
H	0.0462428	1.57767	0.25755
H	0.157975	-1.27363	0.570893
C	-1.87057	-0.734312	0.000879017
H	-2.39544	0.103517	-0.505666
H	-2.08078	-1.67619	-0.546105
H	-2.28456	-0.829643	1.02844
N	0.278801	-1.40305	-2.08381
C	0.829965	-1.36092	-3.41821
H	-0.0728775	-2.27134	-1.74992
H	0.773226	-2.36237	-3.89894
H	1.89794	-1.04463	-3.39225
H	0.270345	-0.635372	-4.05189
C	9.51535	-2.58855	0.226509
C	8.26593	-2.0006	-0.306785
O	7.66546	-2.52468	-1.23479
H	9.76856	-3.50198	-0.35434
H	9.38271	-2.86629	1.29329
H	10.3498	-1.86168	0.134994
N	7.84188	-0.877605	0.277562
C	6.66646	-0.165973	-0.158933
C	6.85401	1.30329	0.169184
O	7.79991	1.67875	0.85911
H	8.36345	-0.440681	1.00482
H	6.57862	-0.247483	-1.23516
C	5.39962	-0.717474	0.531146
H	5.48478	-0.624419	1.63484
H	4.48608	-0.186859	0.192906
H	5.28674	-1.7956	0.28366
N	5.95478	2.17486	-0.328585
C	6.05536	3.59297	-0.0736055
H	5.19848	1.85246	-0.888166
H	5.22367	4.14145	-0.568289
H	7.01954	3.9944	-0.461545
H	6.0104	3.79983	1.02016
