44
  This energy is -2.5987 and Call times are: 60056
C	-0.777068	-2.37847	-2.41903
C	-1.00247	-1.73338	-1.10595
O	-2.00131	-1.97823	-0.443545
H	-1.63427	-3.04699	-2.6518
H	0.153721	-2.98323	-2.39357
H	-0.695583	-1.6083	-3.21482
N	-0.0629526	-0.878098	-0.695859
C	-0.163178	-0.141328	0.539327
C	0.598163	1.16075	0.376498
O	1.29915	1.36084	-0.613601
H	0.724326	-0.658157	-1.26479
H	-1.20022	0.111939	0.721066
C	0.40903	-0.959437	1.71768
H	1.47589	-1.2105	1.53655
H	0.324976	-0.408431	2.67677
H	-0.157825	-1.91123	1.81314
N	0.47009	2.08567	1.34817
C	1.15254	3.35663	1.27665
H	-0.104932	1.90713	2.13971
H	0.920113	3.97856	2.16906
H	0.84106	3.91905	0.366737
H	2.25571	3.20833	1.23005
C	5.06441	3.47157	-0.238384
C	5.13464	2.12225	-0.842995
O	5.09642	1.96941	-2.05609
H	4.96074	4.23022	-1.04433
H	5.99075	3.68208	0.336345
H	4.18614	3.54286	0.437371
N	5.23842	1.09652	0.00524548
C	5.27357	-0.277133	-0.431083
C	4.69415	-1.13953	0.674417
O	4.44619	-0.663059	1.7804
H	5.22707	1.23399	0.991567
H	4.63561	-0.392882	-1.2984
C	6.71787	-0.715099	-0.758821
H	7.37042	-0.606499	0.133611
H	6.75649	-1.76688	-1.10923
H	7.12448	-0.0654976	-1.56444
N	4.45583	-2.43632	0.395954
C	3.90053	-3.33188	1.38377
H	4.65921	-2.80256	-0.506032
H	3.77874	-4.35442	0.963291
H	2.90257	-2.9716	1.72373
H	4.56631	-3.39591	2.27471
