44
  This energy is -3.5568 and Call times are: 58415
C	-0.392419	3.27893	1.09878
C	-0.708519	1.8345	1.16845
O	-1.34611	1.37046	2.10362
H	-0.802292	3.78839	1.99785
H	-0.849632	3.72743	0.191835
H	0.707478	3.42905	1.0708
N	-0.259259	1.07954	0.16318
C	-0.450817	-0.348522	0.113005
C	0.697574	-0.952447	-0.673142
O	1.49274	-0.235525	-1.27767
H	0.293435	1.46504	-0.570157
H	-0.401309	-0.751084	1.11706
C	-1.80248	-0.70103	-0.545763
H	-1.8496	-0.297314	-1.57961
H	-1.96796	-1.79744	-0.57779
H	-2.62769	-0.242271	0.0415336
N	0.815879	-2.29484	-0.675726
C	1.88051	-2.95846	-1.39152
H	0.165099	-2.85794	-0.177253
H	1.80676	-4.06184	-1.27179
H	2.87448	-2.6302	-1.01004
H	1.83184	-2.7195	-2.47857
C	3.86572	-2.47327	2.36503
C	3.96	-1.05337	1.95742
O	3.53397	-0.159125	2.67522
H	3.35895	-2.5391	3.3523
H	4.88079	-2.91467	2.45196
H	3.27595	-3.04709	1.61939
N	4.52849	-0.81223	0.773761
C	4.65266	0.514292	0.222875
C	4.65094	0.400263	-1.28993
O	4.71918	-0.697819	-1.8388
H	4.83344	-1.55338	0.182529
H	3.78609	1.10005	0.503187
C	5.94885	1.19612	0.713021
H	6.83877	0.600987	0.416551
H	6.04909	2.22345	0.306745
H	5.93196	1.26168	1.82287
N	4.56373	1.54052	-2.00282
C	4.54957	1.52982	-3.44707
H	4.50522	2.41923	-1.54073
H	4.47262	2.56478	-3.84728
H	3.68288	0.941805	-3.82703
H	5.48161	1.06786	-3.84587
