44
  This energy is -2.9008 and Call times are: 56941
C	-1.0725	1.48134	-2.96109
C	-0.444566	1.55012	-1.6224
O	0.145033	2.55541	-1.25069
H	-0.891238	2.43592	-3.50128
H	-2.16751	1.32643	-2.86268
H	-0.632649	0.64736	-3.5477
N	-0.557658	0.461941	-0.857244
C	0.0374331	0.362775	0.45218
C	0.344165	-1.09811	0.722908
O	-0.0617872	-1.97767	-0.0342463
H	-1.00528	-0.363353	-1.1895
H	0.979575	0.8966	0.457753
C	-0.910743	0.926333	1.5332
H	-1.87348	0.37211	1.53498
H	-0.458205	0.868325	2.54432
H	-1.12781	1.99389	1.31059
N	1.08062	-1.39082	1.81285
C	1.42683	-2.75248	2.14781
H	1.40351	-0.665093	2.41129
H	2.0355	-2.786	3.0782
H	2.01589	-3.22137	1.32657
H	0.509046	-3.36366	2.30679
C	5.95662	-1.24172	-3.22576
C	6.43279	-0.466487	-2.0581
O	7.58932	-0.0741986	-1.98772
H	6.79819	-1.38837	-3.93718
H	5.14084	-0.693512	-3.7422
H	5.58472	-2.23578	-2.89924
N	5.53562	-0.227121	-1.09884
C	5.86099	0.476598	0.116673
C	4.93599	-0.0190592	1.21224
O	3.98681	-0.755217	0.94988
H	4.60892	-0.58811	-1.15152
H	6.87292	0.22947	0.412571
C	5.70896	2.00197	-0.0713854
H	4.66831	2.25703	-0.3647
H	5.97006	2.55587	0.853571
H	6.38901	2.34126	-0.883025
N	5.19868	0.369385	2.47562
C	4.37638	-0.0568268	3.58392
H	5.97372	0.961959	2.66864
H	4.7545	0.367373	4.54011
H	4.37679	-1.16771	3.6689
H	3.32321	0.278278	3.44363
