44
  This energy is -2.3228 and Call times are: 58729
C	-1.87701	0.608244	-2.86698
C	-1.07663	1.07076	-1.71086
O	-0.704804	2.23282	-1.6227
H	-2.03091	1.45577	-3.56975
H	-2.86726	0.241007	-2.52452
H	-1.34426	-0.207781	-3.39931
N	-0.787566	0.153975	-0.784392
C	0.0187105	0.443009	0.375322
C	0.721053	-0.835022	0.793541
O	0.430186	-1.91177	0.276123
H	-1.06249	-0.797362	-0.890424
H	0.78523	1.15964	0.107896
C	-0.850899	0.985874	1.53045
H	-1.63078	0.246677	1.81226
H	-0.239612	1.2253	2.42461
H	-1.36142	1.91654	1.19942
N	1.67487	-0.743021	1.74106
C	2.40055	-1.90508	2.19845
H	1.89907	0.137675	2.14502
H	3.14155	-1.62395	2.9789
H	2.9461	-2.38502	1.35388
H	1.70345	-2.65842	2.63167
C	3.78799	0.666931	-0.835776
C	4.95437	-0.240968	-0.755571
O	4.83647	-1.4421	-0.955066
H	2.87733	0.0749068	-1.07257
H	3.94435	1.42111	-1.63547
H	3.63801	1.18396	0.135441
N	6.12609	0.323412	-0.454023
C	7.34156	-0.43612	-0.298194
C	8.23886	0.302144	0.6772
O	7.95604	1.43632	1.05847
H	6.19869	1.29636	-0.254143
H	7.10812	-1.39737	0.142409
C	8.05423	-0.621372	-1.65578
H	8.30337	0.364396	-2.10326
H	8.98448	-1.21655	-1.55122
H	7.37639	-1.15658	-2.35608
N	9.34507	-0.332559	1.11249
C	10.2553	0.289112	2.04583
H	9.55492	-1.25165	0.795781
H	11.1026	-0.391882	2.2817
H	9.73207	0.539939	2.99692
H	10.6706	1.23171	1.62129
