44
  This energy is -5.0055 and Call times are: 52008
C	-0.0788037	-3.41597	-0.661528
C	-0.00420667	-2.00468	-1.10179
O	0.274958	-1.71597	-2.25726
H	0.167886	-4.08122	-1.51737
H	-1.10385	-3.65241	-0.306396
H	0.64771	-3.60015	0.15783
N	-0.254522	-1.07918	-0.172713
C	-0.178246	0.335607	-0.439398
C	0.187516	1.04143	0.852726
O	0.204121	0.431923	1.9204
H	-0.440162	-1.32878	0.773388
H	0.620035	0.523286	-1.14661
C	-1.52156	0.86731	-0.985338
H	-2.33896	0.684467	-0.255638
H	-1.47142	1.95293	-1.20769
H	-1.77316	0.331311	-1.92648
N	0.499377	2.35062	0.783439
C	0.865286	3.10381	1.9603
H	0.484293	2.82557	-0.0902127
H	1.08593	4.1618	1.69723
H	1.77005	2.66621	2.44111
H	0.0383082	3.09303	2.70671
C	4.67727	-1.03666	-3.31077
C	5.21652	-0.368958	-2.10473
O	6.39335	-0.042509	-2.03472
H	5.49585	-1.17728	-4.0497
H	3.88174	-0.41301	-3.77005
H	4.2597	-2.03031	-3.04362
N	4.35217	-0.150116	-1.11104
C	4.73801	0.450816	0.141382
C	3.80962	-0.0705782	1.22203
O	2.81785	-0.737128	0.932533
H	3.40681	-0.458433	-1.16658
H	5.74101	0.132174	0.396486
C	4.66333	1.9913	0.0603164
H	3.63211	2.31914	-0.191012
H	4.97139	2.46622	1.01429
H	5.34442	2.35003	-0.742035
N	4.11711	0.216184	2.50236
C	3.29517	-0.242182	3.59803
H	4.92605	0.753409	2.71701
H	3.71382	0.095344	4.5717
H	3.23842	-1.35482	3.60777
H	2.25869	0.155554	3.50503
