44
  This energy is -3.7444 and Call times are: 56166
C	-0.520177	3.38959	0.593976
C	-0.917407	2.09548	-0.00487941
O	-2.02645	1.93957	-0.496954
H	-1.36918	4.10365	0.521918
H	0.351268	3.81137	0.0504433
H	-0.256693	3.25136	1.66382
N	-0.00450144	1.12183	0.0267224
C	-0.259547	-0.204418	-0.477831
C	0.602888	-1.18039	0.300135
O	1.47038	-0.777118	1.0725
H	0.879207	1.25145	0.46732
H	-1.29327	-0.465845	-0.288865
C	0.0533546	-0.28986	-1.98781
H	1.11646	-0.0319894	-2.18107
H	-0.152209	-1.30256	-2.39117
H	-0.583315	0.43825	-2.53631
N	0.376713	-2.49649	0.119127
C	1.1443	-3.49888	0.820709
H	-0.332416	-2.80339	-0.50699
H	0.808534	-4.5208	0.537588
H	1.02635	-3.38394	1.92259
H	2.22757	-3.40567	0.577882
C	6.36776	-2.91653	-1.5705
C	5.44907	-2.18139	-0.672327
O	4.41682	-2.69547	-0.264159
H	5.94609	-3.92286	-1.78344
H	7.36001	-3.03755	-1.08723
H	6.48774	-2.36721	-2.52806
N	5.81008	-0.939335	-0.341624
C	4.99831	-0.0852119	0.489078
C	5.27845	1.35493	0.10296
O	6.1969	1.63369	-0.665445
H	6.63278	-0.520007	-0.714684
H	3.95244	-0.276606	0.283807
C	5.3075	-0.314763	1.98472
H	6.37802	-0.108358	2.19789
H	4.67891	0.327242	2.63527
H	5.10299	-1.37675	2.24297
N	4.48176	2.30844	0.62461
C	4.66921	3.70556	0.309835
H	3.74118	2.06294	1.24133
H	3.91525	4.33178	0.835779
H	4.56566	3.87865	-0.785883
H	5.68431	4.04528	0.618586
