44
  This energy is -4.3924 and Call times are: 58491
C	-0.0894249	3.12884	1.52153
C	-0.389086	1.67935	1.50369
O	-0.782426	1.10189	2.5078
H	-0.263925	3.5274	2.54455
H	-0.750978	3.6652	0.809201
H	0.971418	3.30374	1.24384
N	-0.204026	1.04936	0.341257
C	-0.412044	-0.368074	0.179486
C	0.505524	-0.857764	-0.924971
O	1.13413	-0.062278	-1.62051
H	0.155695	1.52475	-0.456537
H	-0.12184	-0.877893	1.0897
C	-1.88604	-0.673473	-0.165912
H	-2.18119	-0.159171	-1.10528
H	-2.06202	-1.76282	-0.279378
H	-2.53975	-0.299429	0.652076
N	0.610207	-2.18895	-1.10667
C	1.4633	-2.74745	-2.12965
H	0.0968115	-2.81691	-0.531198
H	1.41326	-3.85858	-2.12
H	2.52259	-2.4429	-1.96712
H	1.15251	-2.39102	-3.13837
C	8.16297	0.844319	-1.94059
C	6.88316	0.128986	-1.73675
O	6.30684	-0.415295	-2.66843
H	8.44242	0.798021	-3.01559
H	8.96673	0.369499	-1.33954
H	8.05818	1.90873	-1.64206
N	6.40207	0.116537	-0.491445
C	5.14662	-0.502108	-0.145473
C	4.57544	0.22679	1.0562
O	5.24426	1.06106	1.66315
H	6.86181	0.598972	0.248653
H	4.4479	-0.373674	-0.962728
C	5.33925	-2.00126	0.171824
H	6.0479	-2.13315	1.01709
H	4.37754	-2.49207	0.426243
H	5.76546	-2.51302	-0.718561
N	3.31293	-0.0676826	1.42411
C	2.68377	0.579445	2.55175
H	2.78615	-0.742601	0.918081
H	1.64676	0.202775	2.69304
H	2.63815	1.6818	2.39678
H	3.25781	0.385718	3.48667
