44
  This energy is -1.4114 and Call times are: 55672
C	0.998519	-0.988593	-3.18407
C	0.832156	0.0377193	-2.13044
O	1.35104	1.14068	-2.23359
H	1.6458	-0.583787	-3.99218
H	0.0114521	-1.25793	-3.61524
H	1.47726	-1.89697	-2.76129
N	0.0932897	-0.310327	-1.07435
C	-0.122881	0.565555	0.0502189
C	-0.343004	-0.291989	1.28218
O	-0.481258	-1.50986	1.18528
H	-0.288603	-1.22584	-0.985671
H	0.770096	1.15357	0.221859
C	-1.33894	1.486	-0.193158
H	-2.25732	0.883359	-0.358838
H	-1.5074	2.17482	0.659877
H	-1.15933	2.09831	-1.10374
N	-0.372279	0.327859	2.4784
C	-0.570947	-0.407012	3.70587
H	-0.254408	1.31363	2.53696
H	-0.563328	0.279609	4.58092
H	0.235683	-1.1626	3.84625
H	-1.54728	-0.943338	3.68926
C	5.35745	-2.45132	-2.45713
C	5.88337	-1.72846	-1.27729
O	6.85446	-2.14487	-0.660857
H	5.964	-3.36733	-2.62708
H	5.41886	-1.80711	-3.35933
H	4.3009	-2.74669	-2.2853
N	5.24029	-0.610994	-0.930721
C	5.60802	0.176911	0.219292
C	4.36379	0.879899	0.728474
O	3.31882	0.858511	0.0809457
H	4.42651	-0.306827	-1.41766
H	5.95234	-0.480799	1.00764
C	6.7011	1.20587	-0.143574
H	6.34452	1.88754	-0.944956
H	7.00275	1.80942	0.736906
H	7.59902	0.669673	-0.521178
N	4.446	1.51655	1.91335
C	3.31178	2.20839	2.48
H	5.29905	1.5193	2.42459
H	3.57915	2.66725	3.45734
H	2.46392	1.50437	2.64362
H	2.96276	3.01628	1.7969
