44
  This energy is -3.1551 and Call times are: 52225
C	-2.20947	2.67916	-0.230293
C	-0.853037	2.09587	-0.335171
O	0.0652983	2.71785	-0.851125
H	-2.21122	3.69027	-0.692375
H	-2.50526	2.7708	0.83594
H	-2.94358	2.03905	-0.763634
N	-0.696276	0.865553	0.158923
C	0.553676	0.150289	0.091271
C	0.247312	-1.33513	0.056166
O	-0.894781	-1.74736	0.249569
H	-1.46297	0.356027	0.538958
H	1.0572	0.397772	-0.834931
C	1.44986	0.489851	1.30238
H	0.937993	0.226378	2.25244
H	2.42102	-0.0441028	1.25469
H	1.65455	1.58271	1.31251
N	1.26674	-2.17789	-0.2018
C	1.06925	-3.60748	-0.260533
H	2.1831	-1.82516	-0.35971
H	2.02646	-4.12783	-0.484614
H	0.333352	-3.87003	-1.05476
H	0.680553	-3.9908	0.710613
C	4.50242	-0.792048	-3.18881
C	5.38112	-1.03439	-2.02248
O	6.03536	-2.06349	-1.92584
H	4.54992	-1.66729	-3.87258
H	4.83735	0.112366	-3.73891
H	3.45253	-0.65359	-2.85472
N	5.41345	-0.075267	-1.09436
C	6.18769	-0.186359	0.116741
C	5.50069	0.631607	1.19402
O	4.55889	1.37222	0.917964
H	4.84392	0.738481	-1.16721
H	6.18904	-1.2178	0.446509
C	7.63221	0.313488	-0.104129
H	7.63183	1.37478	-0.432298
H	8.24243	0.220157	0.817517
H	8.11281	-0.293969	-0.901847
N	5.95433	0.508916	2.45702
C	5.35912	1.24385	3.54871
H	6.71481	-0.0985121	2.66139
H	5.8712	1.00738	4.5074
H	4.28058	0.985283	3.65441
H	5.43533	2.3411	3.37161
