44
  This energy is -2.8596 and Call times are: 58910
C	0.66544	-2.64516	-2.16172
C	0.241103	-1.25147	-1.89957
O	0.117612	-0.445278	-2.81128
H	0.845951	-2.77542	-3.2509
H	-0.127566	-3.35328	-1.84165
H	1.60427	-2.86905	-1.61257
N	0.00699936	-0.932273	-0.624546
C	-0.370895	0.395433	-0.208671
C	0.12051	0.604092	1.21138
O	0.580679	-0.331865	1.86249
H	0.151437	-1.58817	0.110844
H	0.132043	1.1224	-0.834139
C	-1.90205	0.582537	-0.284788
H	-2.41806	-0.156185	0.36487
H	-2.20448	1.60543	0.0197565
H	-2.2404	0.417373	-1.33101
N	0.0412821	1.84785	1.72404
C	0.489733	2.14269	3.06499
H	-0.330288	2.5931	1.18035
H	0.34196	3.21952	3.30123
H	1.57212	1.90431	3.17849
H	-0.076739	1.53901	3.81053
C	3.35716	2.24608	0.288607
C	4.78979	1.93963	0.0768978
O	5.57146	2.79981	-0.304545
H	3.16766	3.31115	0.0325677
H	3.08272	2.07757	1.35117
H	2.72801	1.60266	-0.361969
N	5.17057	0.683749	0.322144
C	6.52215	0.224121	0.120826
C	6.47458	-1.25694	-0.20438
O	5.42672	-1.89148	-0.0992039
H	4.51477	-0.0152129	0.59275
H	6.94716	0.729349	-0.737507
C	7.38324	0.475034	1.37813
H	6.95348	-0.0516878	2.25672
H	8.42976	0.13801	1.23074
H	7.39737	1.5641	1.60192
N	7.61526	-1.84323	-0.618056
C	7.66458	-3.24684	-0.955151
H	8.45215	-1.31236	-0.700832
H	8.68965	-3.53918	-1.27295
H	6.96082	-3.47574	-1.78798
H	7.37733	-3.87187	-0.0788118
