44
  This energy is 0.114 and Call times are: 60858
C	-1.94697	-0.291684	2.87
C	-1.46575	0.466342	1.69316
O	-2.00232	1.51084	1.35035
H	-2.82159	0.232997	3.3123
H	-1.14499	-0.360901	3.63472
H	-2.25698	-1.31379	2.56622
N	-0.426173	-0.0539459	1.03668
C	0.126402	0.54625	-0.15201
C	0.735379	-0.555391	-0.998821
O	0.848759	-1.69799	-0.559126
H	-0.0260995	-0.926063	1.30355
H	-0.672149	0.993739	-0.730544
C	1.19238	1.60406	0.20851
H	2.01706	1.14331	0.793011
H	1.61552	2.08337	-0.697987
H	0.72646	2.39597	0.834725
N	1.13622	-0.236712	-2.24533
C	1.72212	-1.22056	-3.12564
H	1.03249	0.692304	-2.5848
H	1.98531	-0.764499	-4.10542
H	1.00991	-2.05754	-3.30869
H	2.64836	-1.64728	-2.67717
C	10.3107	1.48173	0.490751
C	9.44516	0.429287	-0.087503
O	9.86814	-0.341619	-0.937919
H	11.3151	1.43262	0.0168823
H	10.4215	1.32778	1.58472
H	9.87259	2.48435	0.301268
N	8.19139	0.375405	0.368051
C	7.21945	-0.565912	-0.129765
C	5.84215	0.0520778	0.0209237
O	5.68663	1.0989	0.646762
H	7.84985	1.03587	1.03061
H	7.38694	-0.726592	-1.18748
C	7.30063	-1.90207	0.640522
H	7.11844	-1.73927	1.7242
H	6.56649	-2.64008	0.257248
H	8.3192	-2.3322	0.522877
N	4.8052	-0.582108	-0.560928
C	3.45905	-0.0656342	-0.475469
H	4.95151	-1.42588	-1.06661
H	2.74857	-0.727948	-1.0175
H	3.39993	0.952826	-0.92327
H	3.13185	0.00492916	0.587123
