44
  This energy is -2.427 and Call times are: 55509
C	1.41816	1.1713	2.95458
C	1.3842	1.06309	1.47868
O	2.09292	1.77013	0.775681
H	2.13852	1.96552	3.24814
H	1.74315	0.208307	3.40154
H	0.412137	1.43756	3.34202
N	0.54261	0.16068	0.969018
C	0.367109	-0.0299054	-0.449233
C	-1.04476	-0.531072	-0.687979
O	-1.76307	-0.862312	0.253311
H	-0.0575789	-0.378773	1.55265
H	0.459929	0.924618	-0.952125
C	1.39973	-1.03625	-1.0026
H	1.29792	-2.0188	-0.494395
H	1.28385	-1.18106	-2.09627
H	2.42551	-0.652929	-0.809793
N	-1.48017	-0.59035	-1.96192
C	-2.81099	-1.04916	-2.28532
H	-0.885721	-0.314138	-2.70986
H	-2.97919	-1.02448	-3.38456
H	-3.57796	-0.403888	-1.79885
H	-2.96356	-2.09411	-1.93044
C	4.91572	-0.112695	-3.4202
C	5.01	-0.75597	-2.09036
O	4.58397	-1.88722	-1.90277
H	4.40895	-0.80442	-4.12769
H	5.93079	0.116918	-3.80707
H	4.32595	0.82559	-3.35046
N	5.57849	-0.0348324	-1.12125
C	5.70266	-0.509069	0.234562
C	5.70094	0.694189	1.15854
O	5.76918	1.83552	0.706412
H	5.88344	0.900005	-1.27918
H	4.83609	-1.1086	0.48407
C	6.99885	-1.32902	0.415702
H	7.88877	-0.711199	0.16999
H	7.09909	-1.71146	1.45214
H	6.98196	-2.1997	-0.275643
N	5.61373	0.464894	2.48362
C	5.59957	1.54816	3.43887
H	5.55522	-0.465459	2.83017
H	5.52262	1.15611	4.47695
H	4.73288	2.22344	3.25414
H	6.53161	2.15341	3.36064
