44
  This energy is -1.8279 and Call times are: 51557
C	1.01765	0.692715	-3.25534
C	0.37781	1.08336	-1.97896
O	0.090301	2.24929	-1.74583
H	1.17863	1.59943	-3.87809
H	0.364749	-0.0132246	-3.81041
H	1.99942	0.212065	-3.05988
N	0.13928	0.0990984	-1.10906
C	-0.438427	0.329456	0.19161
C	0.0615059	-0.753005	1.12964
O	0.693113	-1.71638	0.699871
H	0.416298	-0.839034	-1.29624
H	-0.0853147	1.27807	0.576405
C	-1.98114	0.314305	0.120595
H	-2.34434	-0.662469	-0.264162
H	-2.4379	0.50433	1.11346
H	-2.32422	1.10899	-0.577343
N	-0.20452	-0.613768	2.44336
C	0.236004	-1.59091	3.41151
H	-0.713416	0.174733	2.77255
H	-0.0796937	-1.29832	4.43716
H	1.34626	-1.68293	3.39943
H	-0.195906	-2.59227	3.18377
C	4.07666	-2.65492	0.347742
C	4.37155	-1.20947	0.225693
O	3.47902	-0.395411	0.0330392
H	2.98465	-2.81908	0.219569
H	4.38042	-3.02418	1.3498
H	4.62	-3.22382	-0.435965
N	5.6538	-0.854104	0.334913
C	6.10081	0.509464	0.195555
C	7.52514	0.489281	-0.326403
O	8.15395	-0.564689	-0.400208
H	6.37357	-1.53261	0.45078
H	5.49231	1.01077	-0.546767
C	6.02976	1.25415	1.54672
H	6.66218	0.746255	2.30575
H	6.3583	2.30922	1.44969
H	4.98011	1.2496	1.91352
N	8.06681	1.66176	-0.710997
C	9.41409	1.73926	-1.22577
H	7.54088	2.50346	-0.647643
H	9.67554	2.78837	-1.48698
H	9.52151	1.11305	-2.14098
H	10.1455	1.37336	-0.469313
