44
  This energy is -3.6143 and Call times are: 60249
C	0.766247	-3.39416	-0.0724804
C	0.740714	-2.07809	0.604616
O	0.992921	-1.97478	1.79715
H	1.01897	-4.18353	0.668398
H	1.53279	-3.39649	-0.87569
H	-0.229027	-3.61828	-0.51099
N	0.427599	-1.02584	-0.155064
C	0.320387	0.312404	0.370445
C	-0.676889	1.07612	-0.480278
O	-1.1123	0.595182	-1.52471
H	0.1848	-1.13127	-1.11517
H	-0.078998	0.270347	1.37611
C	1.69314	1.02002	0.36206
H	2.09847	1.0728	-0.670877
H	1.62641	2.04651	0.777251
H	2.40901	0.439625	0.984179
N	-1.07016	2.28938	-0.0451234
C	-2.02002	3.08666	-0.785598
H	-0.709826	2.65996	0.804524
H	-2.215	4.05016	-0.265153
H	-2.98748	2.54488	-0.894064
H	-1.63372	3.31109	-1.80616
C	4.98897	3.37243	-0.81935
C	5.25205	1.96067	-1.17834
O	5.34659	1.61174	-2.34698
H	4.88808	3.97491	-1.74817
H	5.82976	3.77742	-0.217841
H	4.04689	3.44993	-0.236637
N	5.37573	1.10318	-0.162559
C	5.59027	-0.309461	-0.354855
C	4.99621	-1.04399	0.832211
O	4.5962	-0.427854	1.81815
H	5.25554	1.39494	0.782049
H	5.05382	-0.635391	-1.23724
C	7.09604	-0.625574	-0.488918
H	7.64524	-0.300945	0.420501
H	7.27348	-1.70848	-0.651266
H	7.51136	-0.071362	-1.3588
N	4.917	-2.38734	0.760444
C	4.3615	-3.1705	1.83944
H	5.24215	-2.86779	-0.0473433
H	4.38392	-4.25441	1.5907
H	3.30434	-2.87733	2.03376
H	4.94125	-3.01383	2.77779
