44
  This energy is 0.1567 and Call times are: 54573
C	2.28576	-0.189273	-2.61767
C	1.93634	0.117093	-1.21225
O	2.8035	0.336296	-0.377748
H	3.39192	-0.194352	-2.72839
H	1.86038	0.581264	-3.29447
H	1.89166	-1.18803	-2.90099
N	0.634926	0.136875	-0.915081
C	0.141971	0.377361	0.418231
C	-1.18914	-0.335269	0.566058
O	-1.74472	-0.840213	-0.407636
H	-0.057533	-0.0838856	-1.59599
H	0.824114	-0.0612535	1.13582
C	-0.0216936	1.89038	0.681366
H	-0.729534	2.33881	-0.0479513
H	-0.38755	2.08921	1.70954
H	0.962859	2.39262	0.559888
N	-1.73027	-0.399958	1.79854
C	-2.9914	-1.06259	2.03655
H	-1.26375	0.0110517	2.57475
H	-3.26696	-1.00876	3.11283
H	-2.93276	-2.13576	1.74305
H	-3.80417	-0.586016	1.44205
C	3.31898	-1.0315	-1.82063
C	4.65942	-1.27216	-1.24058
O	5.14354	-2.39514	-1.20989
H	2.88966	-1.99692	-2.16633
H	3.39518	-0.341313	-2.68699
H	2.64452	-0.591568	-1.05601
N	5.29762	-0.203595	-0.757614
C	6.59006	-0.286209	-0.124098
C	6.6969	0.844458	0.881758
O	5.84455	1.72939	0.927429
H	4.87341	0.697445	-0.752689
H	6.65898	-1.2158	0.427012
C	7.72361	-0.190581	-1.16868
H	7.65962	0.767594	-1.72712
H	8.72366	-0.266861	-0.694763
H	7.62095	-1.02281	-1.89888
N	7.75014	0.836075	1.72238
C	7.93206	1.86797	2.71649
H	8.42725	0.109343	1.67286
H	8.85524	1.68462	3.30925
H	7.06584	1.89599	3.41661
H	8.0181	2.86823	2.23356
