44
  This energy is -1.5271 and Call times are: 60642
C	0.666204	-0.494164	-3.38004
C	0.511627	-0.994446	-1.99549
O	0.465959	-2.19339	-1.75707
H	0.707228	-1.35696	-4.07989
H	1.60618	0.0893242	-3.47342
H	-0.19669	0.149255	-3.65302
N	0.423986	-0.0696192	-1.03664
C	0.228114	-0.401335	0.352659
C	-0.508092	0.748409	1.01421
O	-0.686784	1.8084	0.417374
H	0.421623	0.903023	-1.25072
H	-0.407057	-1.27537	0.425123
C	1.57994	-0.654499	1.0553
H	2.22787	0.245509	0.990397
H	1.44175	-0.924423	2.12234
H	2.1047	-1.49438	0.549765
N	-0.962422	0.560591	2.26893
C	-1.67883	1.59619	2.97638
H	-0.811688	-0.305511	2.73392
H	-1.96889	1.24969	3.99276
H	-2.60464	1.87995	2.42536
H	-1.04763	2.50793	3.08341
C	4.7349	-3.05882	1.01335
C	4.9365	-1.9982	0.000631665
O	4.63004	-2.17467	-1.17042
H	4.30775	-3.95972	0.521644
H	4.03112	-2.70992	1.79802
H	5.70464	-3.33051	1.48118
N	5.46809	-0.854039	0.437307
C	5.76336	0.253635	-0.437011
C	6.92582	1.02739	0.155905
O	7.34023	0.774069	1.28542
H	5.75023	-0.740088	1.38561
H	6.08565	-0.126249	-1.39849
C	4.53107	1.16985	-0.60213
H	4.20644	1.56824	0.382728
H	4.74153	2.01899	-1.28417
H	3.69055	0.580897	-1.02991
N	7.48745	1.99006	-0.601627
C	8.60186	2.77451	-0.123196
H	7.14085	2.17766	-1.51472
H	8.92136	3.51307	-0.891111
H	9.47039	2.11861	0.114968
H	8.3238	3.32877	0.802341
