44
  This energy is 0.1155 and Call times are: 53268
C	-2.79218	1.73307	1.14583
C	-1.44349	1.69128	0.537191
O	-0.949743	2.68567	0.023554
H	-3.21723	2.75342	1.02717
H	-2.73125	1.49276	2.22809
H	-3.46185	1.00406	0.64265
N	-0.808932	0.517473	0.580594
C	0.49103	0.310336	-0.00741316
C	0.599508	-1.14728	-0.413799
O	-0.259628	-1.96027	-0.0781756
H	-1.24055	-0.293251	0.965686
H	0.573738	0.903713	-0.909463
C	1.6122	0.679687	0.988479
H	1.53411	0.0638327	1.90971
H	2.618	0.537656	0.542702
H	1.50845	1.74818	1.27815
N	1.66195	-1.51135	-1.15857
C	1.8462	-2.87527	-1.59672
H	2.3445	-0.838373	-1.42372
H	2.77733	-2.97301	-2.19728
H	0.987519	-3.2053	-2.22524
H	1.9186	-3.56245	-0.722841
C	1.27326	-1.53342	-1.21892
C	1.97877	-0.383751	-0.609272
O	1.43719	0.708097	-0.504574
H	0.259345	-1.21244	-1.54264
H	1.17104	-2.35546	-0.479632
H	1.83378	-1.90051	-2.10444
N	3.22588	-0.607959	-0.188736
C	4.05342	0.423251	0.386011
C	5.50309	0.0828897	0.0958495
O	5.81	-1.00539	-0.387017
H	3.66755	-1.49117	-0.318034
H	3.8396	1.36612	-0.101741
C	3.81775	0.535275	1.90823
H	4.04708	-0.428697	2.41043
H	4.43911	1.33534	2.36025
H	2.74902	0.776941	2.09733
N	6.4331	1.0164	0.378071
C	7.83697	0.783765	0.130651
H	6.16493	1.8926	0.76462
H	8.44075	1.6693	0.428145
H	8.0174	0.58372	-0.950416
H	8.19742	-0.0971613	0.709601
