44
  This energy is 0.1201 and Call times are: 53450
C	2.8316	1.86492	0.785354
C	2.16881	0.592111	0.422322
O	2.82043	-0.389621	0.0936806
H	3.93248	1.74756	0.684535
H	2.59362	2.1343	1.83585
H	2.49359	2.67871	0.109638
N	0.834735	0.582289	0.472649
C	0.0479484	-0.569039	0.106628
C	-1.29571	-0.0814804	-0.401735
O	-1.61801	1.10031	-0.295871
H	0.316815	1.40132	0.702456
H	0.53304	-1.08804	-0.710657
C	-0.140286	-1.51477	1.31303
H	-0.647387	-0.9858	2.14794
H	-0.732842	-2.41204	1.04044
H	0.855857	-1.85273	1.67335
N	-2.11222	-0.986047	-0.977143
C	-3.40795	-0.613126	-1.49502
H	-1.83214	-1.93693	-1.05739
H	-3.92716	-1.49611	-1.92858
H	-3.30519	0.159038	-2.29156
H	-4.04805	-0.191857	-0.686355
C	-0.0567669	-0.297266	-0.274142
C	1.28007	-0.8591	0.0231282
O	1.40261	-1.95397	0.554785
H	-0.8389	-1.0066	0.0736581
H	-0.172395	-0.142633	-1.36752
H	-0.190431	0.671356	0.252145
N	2.3291	-0.106948	-0.317747
C	3.69073	-0.50011	-0.0532943
C	4.52253	0.757744	0.112476
O	4.05018	1.8635	-0.144203
H	2.21259	0.799954	-0.712474
H	3.73103	-1.03944	0.884854
C	4.24694	-1.36959	-1.20215
H	4.21559	-0.812937	-2.16299
H	5.29019	-1.69026	-1.00386
H	3.61834	-2.28033	-1.31057
N	5.78696	0.617168	0.556849
C	6.65136	1.758	0.750435
H	6.15004	-0.285442	0.76312
H	7.64986	1.43656	1.12046
H	6.21208	2.46198	1.49389
H	6.79307	2.31064	-0.206463
