44
  This energy is -4.5575 and Call times are: 61295
C	0.409253	3.13669	1.45134
C	0.574486	2.19016	0.325317
O	0.935507	2.57583	-0.778011
H	0.642181	4.16633	1.10284
H	1.10115	2.87208	2.27839
H	-0.637026	3.111	1.82247
N	0.306763	0.907995	0.583678
C	0.3805	-0.123015	-0.42138
C	-0.602342	-1.21722	-0.049499
O	-1.17077	-1.2093	1.0407
H	-0.0255506	0.615518	1.47581
H	0.0651238	0.283685	-1.37415
C	1.81232	-0.692929	-0.523078
H	2.13237	-1.11977	0.451299
H	1.88526	-1.47809	-1.30328
H	2.51552	0.126543	-0.788242
N	-0.832462	-2.18604	-0.957492
C	-1.7556	-3.26518	-0.693954
H	-0.36606	-2.17312	-1.83577
H	-1.8073	-3.95921	-1.56164
H	-2.7787	-2.86856	-0.50097
H	-1.43596	-3.84605	0.201349
C	4.67713	-1.64845	3.01118
C	4.54772	-0.469192	2.12588
O	3.79726	0.454756	2.40793
H	3.99928	-1.52854	3.8841
H	5.72147	-1.7396	3.37697
H	4.39608	-2.57182	2.46212
N	5.28824	-0.476933	1.01504
C	5.23772	0.57971	0.0354958
C	5.58067	-0.0133718	-1.3181
O	5.99814	-1.16593	-1.41318
H	5.86354	-1.2548	0.778806
H	4.22621	0.961318	-0.0264604
C	6.22308	1.7132	0.395388
H	7.2623	1.32433	0.448726
H	6.18355	2.53923	-0.34395
H	5.95807	2.12692	1.39286
N	5.40299	0.763928	-2.40449
C	5.69735	0.283106	-3.73428
H	5.06037	1.69255	-2.30778
H	5.48595	1.06909	-4.49241
H	5.07797	-0.611262	-3.97462
H	6.76971	-0.00671015	-3.81904
