44
  This energy is -2.5935 and Call times are: 56815
C	0.034214	0.672646	-3.41454
C	-0.122752	1.09513	-2.00457
O	-0.174436	2.27888	-1.70048
H	0.106439	1.57345	-4.06201
H	-0.842245	0.0702332	-3.73338
H	0.959405	0.07003	-3.53273
N	-0.200991	0.118547	-1.09763
C	-0.312036	0.373664	0.316989
C	0.314256	-0.79232	1.05847
O	0.654497	-1.81033	0.458804
H	-0.116241	-0.839486	-1.3562
H	0.259604	1.25894	0.566278
C	-1.78942	0.548396	0.731761
H	-2.3741	-0.363588	0.485833
H	-1.88726	0.759124	1.81645
H	-2.22955	1.4018	0.171101
N	0.489436	-0.665893	2.38864
C	1.08237	-1.72119	3.17665
H	0.211535	0.167109	2.85549
H	1.14053	-1.42695	4.24775
H	2.11302	-1.94693	2.81876
H	0.478668	-2.65448	3.10149
C	5.21019	-2.97923	-1.70973
C	5.3375	-2.12125	-0.510211
O	5.73162	-2.57639	0.55465
H	5.50218	-4.01987	-1.44962
H	5.87713	-2.60993	-2.51692
H	4.15977	-2.98008	-2.06985
N	4.99825	-0.838648	-0.659262
C	5.02825	0.108383	0.427379
C	3.98374	1.17433	0.154757
O	3.40382	1.22542	-0.928198
H	4.64027	-0.4921	-1.52159
H	4.74637	-0.392146	1.34533
C	6.42847	0.745179	0.565707
H	6.71368	1.26778	-0.372152
H	6.46825	1.46608	1.40787
H	7.17775	-0.0538142	0.75682
N	3.71254	2.05091	1.1417
C	2.72973	3.09617	0.975364
H	4.18923	1.99101	2.01248
H	2.65097	3.71238	1.89804
H	1.72722	2.66165	0.757508
H	3.00717	3.76551	0.129104
