44
  This energy is -2.3828 and Call times are: 58787
C	-0.905442	1.89189	2.77734
C	-0.642939	0.595396	2.11301
O	-0.563536	-0.441392	2.75735
H	-0.985883	1.73269	3.87464
H	-1.85762	2.32609	2.40644
H	-0.073758	2.59988	2.57696
N	-0.497867	0.627058	0.786235
C	-0.196137	-0.546786	0.00546043
C	0.570821	-0.109858	-1.22841
O	0.690771	1.08185	-1.50619
H	-0.524495	1.48453	0.280364
H	0.454518	-1.19777	0.575988
C	-1.48922	-1.28992	-0.395694
H	-2.15239	-0.625822	-0.990002
H	-1.26948	-2.20331	-0.985582
H	-2.03811	-1.5932	0.522505
N	1.11845	-1.07155	-1.99735
C	1.8706	-0.750524	-3.1879
H	1.01407	-2.03017	-1.75401
H	2.23911	-1.67649	-3.68187
H	2.74955	-0.113399	-2.93733
H	1.23654	-0.193498	-3.91512
C	4.54971	-3.00212	-1.67249
C	4.66202	-2.20337	-0.431301
O	4.31589	-2.66065	0.649212
H	4.11028	-3.99457	-1.43207
H	5.55339	-3.153	-2.12261
H	3.89154	-2.48492	-2.40214
N	5.15518	-0.969652	-0.562109
C	5.28437	-0.0585873	0.547768
C	5.17471	1.35689	0.0130069
O	5.16906	1.57426	-1.19713
H	5.3943	-0.596919	-1.45416
H	4.45877	-0.209773	1.23199
C	6.63283	-0.260424	1.27314
H	7.4803	-0.0951051	0.574201
H	6.73835	0.4259	2.13821
H	6.69459	-1.30504	1.64904
N	5.07589	2.35811	0.909562
C	4.96192	3.73661	0.493732
H	5.07808	2.16205	1.88457
H	4.89143	4.40922	1.37683
H	4.05237	3.88403	-0.132575
H	5.84868	4.04009	-0.108516
