44
  This energy is -0.0523 and Call times are: 57080
C	-0.287014	2.87386	1.94196
C	0.13237	1.46732	1.74989
O	0.852417	0.904792	2.56323
H	0.16532	3.26743	2.87811
H	-1.39258	2.93587	2.02333
H	0.0560297	3.49547	1.08814
N	-0.315347	0.859657	0.64868
C	0.0422916	-0.493632	0.303336
C	-0.00116748	-0.623437	-1.20756
O	-0.459701	0.279867	-1.90434
H	-0.867167	1.34348	-0.0245798
H	1.06194	-0.684077	0.614256
C	-0.922342	-1.50428	0.961602
H	-1.9672	-1.31597	0.634733
H	-0.649129	-2.55061	0.714501
H	-0.879996	-1.38594	2.06639
N	0.486651	-1.75545	-1.75218
C	0.49201	-1.9655	-3.18117
H	0.857292	-2.47334	-1.17224
H	0.933411	-2.9553	-3.43152
H	1.08954	-1.176	-3.69198
H	-0.544761	-1.93085	-3.58743
C	4.34085	-3.00108	1.7016
C	4.21364	-1.53007	1.59617
O	3.52995	-0.895499	2.38755
H	3.72748	-3.36251	2.55542
H	5.40073	-3.28201	1.87615
H	3.97929	-3.48423	0.76945
N	4.87973	-0.946917	0.596847
C	4.81897	0.47048	0.340239
C	5.04397	0.692595	-1.14354
O	5.39642	-0.232647	-1.87252
H	5.39909	-1.48139	-0.0638055
H	3.82586	0.833541	0.573801
C	5.88078	1.22704	1.16814
H	6.90059	0.86226	0.921198
H	5.83494	2.32094	0.989781
H	5.70157	1.04376	2.25009
N	4.83565	1.93239	-1.62885
C	5.01934	2.23689	-3.02874
H	4.54671	2.66714	-1.02408
H	4.799	3.30836	-3.23035
H	4.34193	1.61535	-3.65809
H	6.06822	2.02949	-3.34176
