44
  This energy is -6.7562 and Call times are: 55845
C	1.48061	0.352331	3.12991
C	1.00164	-0.476222	2.00065
O	1.28164	-1.66456	1.92407
H	2.10012	-0.27391	3.80808
H	0.618326	0.755907	3.70118
H	2.09953	1.19329	2.75201
N	0.257683	0.144994	1.0825
C	-0.244423	-0.518379	-0.0949447
C	-0.392103	0.516655	-1.19424
O	-0.258656	1.71489	-0.953115
H	0.0724597	1.12201	1.13726
H	0.483017	-1.24601	-0.432607
C	-1.59991	-1.20069	0.19199
H	-2.34951	-0.45302	0.528329
H	-1.99034	-1.72672	-0.703213
H	-1.46974	-1.94819	1.00479
N	-0.664756	0.0738349	-2.43746
C	-0.817215	0.984841	-3.54787
H	-0.7651	-0.899785	-2.61372
H	-1.03798	0.428587	-4.48545
H	0.114707	1.57563	-3.70203
H	-1.65128	1.69881	-3.35886
C	4.24428	-3.11953	1.54251
C	4.3858	-1.64646	1.57713
O	4.46072	-1.04252	2.63828
H	4.20578	-3.50935	2.58289
H	5.11149	-3.57512	1.01988
H	3.30702	-3.40169	1.01811
N	4.42375	-1.02599	0.39562
C	4.51521	0.407228	0.268847
C	3.84736	0.810548	-1.03226
O	3.49342	-0.0384802	-1.84809
H	4.32044	-1.52727	-0.458722
H	3.96084	0.87316	1.07395
C	5.98862	0.869793	0.287296
H	6.55532	0.400248	-0.544827
H	6.07181	1.97284	0.204311
H	6.4595	0.557067	1.2448
N	3.65113	2.12537	-1.25303
C	3.01847	2.60294	-2.46044
H	3.94068	2.7971	-0.579221
H	2.94801	3.71301	-2.4549
H	1.98932	2.18693	-2.55559
H	3.60056	2.29284	-3.3583
