44
  This energy is -3.8563 and Call times are: 59710
C	-1.59742	1.69921	2.58334
C	-0.877846	0.522137	2.04681
O	-0.462447	-0.357835	2.7881
H	-1.65249	1.62253	3.69102
H	-2.62881	1.73656	2.17397
H	-1.05904	2.63233	2.31404
N	-0.710366	0.481672	0.722919
C	0.00689995	-0.577923	0.0585788
C	0.612454	-0.0142539	-1.21309
O	0.317934	1.11335	-1.60485
H	-1.01822	1.22559	0.136674
H	0.825099	-0.904822	0.688117
C	-0.932024	-1.76025	-0.266622
H	-1.76576	-1.42768	-0.921073
H	-0.388565	-2.5884	-0.765966
H	-1.36982	-2.15167	0.677556
N	1.48563	-0.788849	-1.88658
C	2.11636	-0.334468	-3.10392
H	1.71451	-1.69687	-1.55164
H	2.80046	-1.11349	-3.50684
H	2.70924	0.590226	-2.91761
H	1.35153	-0.103602	-3.88037
C	8.882	0.753475	-1.87745
C	7.75824	1.14795	-0.998404
O	7.7078	2.2627	-0.497212
H	9.60093	1.59779	-1.95574
H	8.50554	0.506718	-2.8924
H	9.40782	-0.128152	-1.45399
N	6.81752	0.224458	-0.787255
C	5.68612	0.446	0.0784364
C	5.25513	-0.893438	0.645642
O	5.7387	-1.94161	0.222322
H	6.8934	-0.692168	-1.16922
H	5.99034	1.0665	0.912134
C	4.52265	1.10718	-0.692553
H	4.20319	0.466051	-1.54164
H	3.65047	1.29562	-0.0335396
H	4.86299	2.08189	-1.10541
N	4.3348	-0.888658	1.63001
C	3.86807	-2.11465	2.2344
H	3.95816	-0.030208	1.96209
H	3.11384	-1.90171	3.02372
H	4.71442	-2.67046	2.69921
H	3.39905	-2.77588	1.47024
