44
  This energy is -2.2479 and Call times are: 61774
C	2.57449	0.722413	-2.22773
C	1.6688	1.09479	-1.11769
O	1.85105	2.11446	-0.466957
H	3.38032	1.48324	-2.31525
H	2.01178	0.683292	-3.18407
H	3.03553	-0.268177	-2.02957
N	0.656349	0.259854	-0.872308
C	-0.282532	0.465542	0.202287
C	-0.796827	-0.890629	0.647095
O	-0.534095	-1.90549	0.00464592
H	0.544922	-0.587204	-1.38411
H	0.231798	0.908133	1.04621
C	-1.45228	1.3659	-0.251902
H	-1.98679	0.907216	-1.11094
H	-2.17498	1.54311	0.570794
H	-1.05193	2.34984	-0.580429
N	-1.54008	-0.939898	1.77011
C	-2.06795	-2.18671	2.27311
H	-1.7386	-0.108568	2.2786
H	-2.65129	-2.01926	3.20525
H	-1.24247	-2.89984	2.49961
H	-2.73797	-2.66197	1.52055
C	6.81977	0.760426	-3.39375
C	6.44911	-0.0768373	-2.23067
O	5.57122	-0.924543	-2.31507
H	6.17854	0.489558	-4.26053
H	7.88256	0.589017	-3.66549
H	6.66781	1.83443	-3.15606
N	7.12077	0.148527	-1.0991
C	6.84323	-0.556638	0.127389
C	7.2081	0.350402	1.28744
O	7.80609	1.40757	1.09637
H	7.80429	0.870001	-1.03479
H	5.78044	-0.753397	0.193671
C	7.64366	-1.87553	0.198733
H	8.73448	-1.67338	0.141381
H	7.42804	-2.43452	1.13231
H	7.36656	-2.52011	-0.663864
N	6.84623	-0.0411024	2.52509
C	7.14582	0.759861	3.68909
H	6.35932	-0.897839	2.65923
H	6.76666	0.269017	4.61242
H	6.67223	1.76496	3.60674
H	8.24547	0.903973	3.79463
