44
  This energy is -6.946 and Call times are: 60614
C	1.72387	-2.88028	0.919201
C	0.638732	-2.18848	0.187742
O	-0.0295987	-2.77249	-0.654091
H	1.80002	-3.92884	0.557793
H	1.50572	-2.89032	2.0078
H	2.69268	-2.3676	0.74127
N	0.438629	-0.905306	0.497256
C	-0.551437	-0.0887803	-0.159717
C	-0.0744503	1.351	-0.127037
O	0.908029	1.67402	0.537874
H	1.01769	-0.432528	1.15531
H	-0.62277	-0.381426	-1.19986
C	-1.92438	-0.220259	0.535247
H	-1.85409	0.0898732	1.59963
H	-2.69854	0.393067	0.0302335
H	-2.24999	-1.28304	0.506502
N	-0.759601	2.25339	-0.856615
C	-0.376097	3.64548	-0.891135
H	-1.54949	1.97217	-1.39146
H	-1.06194	4.2262	-1.54658
H	0.661055	3.75759	-1.28232
H	-0.409298	4.08778	0.130829
C	8.08687	0.135283	-2.01162
C	6.74859	0.62506	-1.61128
O	6.30318	1.67759	-2.0474
H	8.55342	0.867543	-2.70587
H	7.99742	-0.843315	-2.52843
H	8.73641	0.023134	-1.11798
N	6.06807	-0.140633	-0.755134
C	4.77165	0.224852	-0.24104
C	4.61364	-0.401018	1.13187
O	5.43433	-1.21484	1.55125
H	6.46084	-0.974182	-0.377271
H	4.72817	1.29922	-0.112713
C	3.64825	-0.253515	-1.18675
H	3.6859	-1.35685	-1.31039
H	2.64574	0.0340273	-0.808823
H	3.78843	0.210617	-2.18738
N	3.5512	-0.0263198	1.87134
C	3.32171	-0.56457	3.19187
H	2.90022	0.636557	1.51652
H	2.39828	-0.133229	3.63735
H	4.17788	-0.331048	3.86546
H	3.20707	-1.67195	3.1505
