44
  This energy is -3.2961 and Call times are: 52784
C	0.0680727	2.94453	1.85413
C	0.12496	2.21206	0.569063
O	0.0657106	2.80377	-0.499948
H	-0.0476441	4.03164	1.65245
H	1.00456	2.78324	2.42835
H	-0.798369	2.59631	2.45506
N	0.240918	0.88436	0.647383
C	0.265548	0.0327019	-0.515644
C	-0.296834	-1.32047	-0.122969
O	-0.524812	-1.59003	1.05477
H	0.246712	0.41358	1.52499
H	-0.387372	0.445468	-1.27456
C	1.70307	-0.115745	-1.06038
H	2.37099	-0.548976	-0.285639
H	1.73336	-0.758121	-1.96424
H	2.09732	0.88732	-1.33383
N	-0.542769	-2.20543	-1.10907
C	-1.08313	-3.5158	-0.831334
H	-0.355629	-1.96754	-2.05641
H	-1.21435	-4.09456	-1.7721
H	-2.07432	-3.43359	-0.32929
H	-0.402372	-4.08744	-0.159816
C	3.37321	-1.80145	2.03202
C	4.3958	-0.751093	1.82658
O	4.65079	0.0640268	2.70235
H	2.92422	-1.68434	3.04224
H	3.83782	-2.80726	1.95964
H	2.5713	-1.70918	1.26946
N	5.01239	-0.74665	0.642437
C	5.99924	0.239771	0.279588
C	5.96246	0.413649	-1.22706
O	5.30016	-0.344846	-1.93257
H	4.76493	-1.39122	-0.0753026
H	5.7317	1.19181	0.720792
C	7.40809	-0.193862	0.74038
H	7.68733	-1.1654	0.279733
H	8.17488	0.563939	0.479048
H	7.4095	-0.322794	1.84479
N	6.67197	1.42954	-1.75674
C	6.69256	1.67588	-3.17979
H	7.19842	2.03519	-1.16928
H	7.33165	2.55466	-3.41758
H	5.66434	1.87762	-3.55841
H	7.09429	0.791876	-3.72595
