44
  This energy is -0.2916 and Call times are: 62392
C	1.51488	0.176546	3.12836
C	0.422074	-0.264532	2.23261
O	-0.409967	-1.0809	2.60365
H	1.43082	-0.35647	4.10033
H	1.44291	1.26944	3.31044
H	2.5005	-0.0581559	2.67388
N	0.402012	0.274082	1.01119
C	-0.574005	-0.0883165	0.0138841
C	0.0531873	0.104966	-1.3539
O	1.14371	0.660002	-1.47394
H	1.10995	0.906448	0.709849
H	-0.813029	-1.13978	0.113474
C	-1.84902	0.772299	0.151427
H	-1.60596	1.85039	0.0388267
H	-2.61371	0.493356	-0.60221
H	-2.2865	0.621187	1.16243
N	-0.622831	-0.359675	-2.42307
C	-0.101722	-0.225777	-3.76348
H	-1.50191	-0.809645	-2.30549
H	-0.802749	-0.669863	-4.50414
H	0.880518	-0.743287	-3.85655
H	0.0477584	0.847597	-4.02168
C	3.67565	-1.85257	-0.359106
C	4.53551	-0.696067	-0.697199
O	4.27641	0.0288649	-1.64786
H	2.84397	-1.91907	-1.09377
H	3.2478	-1.72702	0.657714
H	4.26568	-2.79247	-0.398192
N	5.59765	-0.496993	0.0867797
C	6.54988	0.561025	-0.142169
C	7.89471	0.111979	0.397602
O	7.99423	-0.916272	1.06431
H	5.81811	-1.11975	0.832049
H	6.66479	0.713722	-1.20805
C	6.0989	1.86772	0.546609
H	5.99105	1.71437	1.64155
H	6.81695	2.69377	0.366129
H	5.10928	2.17319	0.142042
N	8.96895	0.874055	0.112535
C	10.2901	0.522841	0.57884
H	8.86911	1.70034	-0.43185
H	11.0387	1.27291	0.240922
H	10.5925	-0.475264	0.186908
H	10.3153	0.478816	1.69175
