44
  This energy is -6.4656 and Call times are: 54085
C	1.70419	-1.72468	-2.49678
C	0.548229	-0.936207	-2.01386
O	-0.281414	-0.4872	-2.79264
H	1.66453	-1.7932	-3.60566
H	1.67234	-2.75001	-2.072
H	2.65415	-1.23158	-2.20095
N	0.469157	-0.745908	-0.694804
C	-0.574277	0.0361476	-0.0798293
C	-0.0254557	0.631487	1.2031
O	1.07025	0.284712	1.64003
H	1.17426	-1.08288	-0.0774364
H	-0.834732	0.860237	-0.732265
C	-1.81542	-0.834476	0.214821
H	-1.55101	-1.67398	0.892576
H	-2.63113	-0.240668	0.675837
H	-2.19525	-1.26612	-0.736893
N	-0.776571	1.55448	1.83551
C	-0.333537	2.1798	3.05979
H	-1.65864	1.82515	1.46433
H	-1.08933	2.90996	3.42431
H	0.627247	2.72055	2.8993
H	-0.171377	1.41634	3.85476
C	4.52921	-3.43774	0.39652
C	3.99766	-2.05672	0.434035
O	2.79913	-1.84278	0.553073
H	3.68588	-4.15806	0.472628
H	5.22211	-3.60436	1.24791
H	5.06785	-3.61464	-0.558276
N	4.89392	-1.07281	0.329065
C	4.52472	0.320651	0.306304
C	5.57013	1.07392	-0.494491
O	6.60808	0.520812	-0.852865
H	5.86175	-1.26327	0.191578
H	3.58013	0.431511	-0.211457
C	4.42694	0.888943	1.73904
H	5.39876	0.785016	2.26706
H	4.1298	1.95769	1.73544
H	3.66198	0.317719	2.30901
N	5.31442	2.36069	-0.802479
C	6.24834	3.15518	-1.56587
H	4.46716	2.78962	-0.507125
H	5.85759	4.18581	-1.71534
H	6.42572	2.69904	-2.56674
H	7.22777	3.22422	-1.03947
