44
  This energy is -5.039 and Call times are: 60886
C	-0.883879	-3.36536	0.07626
C	-1.11622	-1.96621	-0.347481
O	-1.95672	-1.69217	-1.19297
H	-1.55672	-4.03935	-0.497236
H	-1.10032	-3.47815	1.15939
H	0.169501	-3.65539	-0.122146
N	-0.361002	-1.03507	0.239888
C	-0.441852	0.363912	-0.099039
C	0.914131	0.992663	0.16084
O	1.79884	0.365006	0.739672
H	0.347319	-1.27795	0.896514
H	-0.646123	0.463747	-1.15778
C	-1.53474	1.07072	0.73238
H	-1.32003	0.977638	1.81832
H	-1.61626	2.14561	0.470695
H	-2.51684	0.589176	0.532517
N	1.11204	2.25344	-0.271953
C	2.372	2.93142	-0.0744051
H	0.385471	2.74362	-0.741948
H	2.33705	3.9583	-0.500462
H	3.19976	2.3743	-0.57009
H	2.61016	3.00988	1.01107
C	8.85637	1.65561	-1.52165
C	7.46716	1.14447	-1.52223
O	6.67268	1.4716	-2.39297
H	8.99503	2.34334	-2.38401
H	9.57401	0.813531	-1.61451
H	9.05905	2.21187	-0.582197
N	7.13852	0.317929	-0.526637
C	5.81291	-0.226619	-0.369162
C	5.58137	-0.488277	1.10715
O	6.50278	-0.393369	1.91566
H	7.78422	0.0933046	0.197562
H	5.08438	0.509942	-0.684355
C	5.65177	-1.52999	-1.18188
H	6.39202	-2.28962	-0.851677
H	4.63084	-1.95169	-1.07989
H	5.8334	-1.31639	-2.25785
N	4.33379	-0.817922	1.49559
C	4.01761	-1.07954	2.88043
H	3.60046	-0.885758	0.827239
H	2.94092	-1.33338	2.99682
H	4.23698	-0.186162	3.50895
H	4.62266	-1.93107	3.26766
