44
  This energy is 0.3075 and Call times are: 61265
C	-2.80652	0.798322	-1.89706
C	-1.36565	0.483745	-1.77022
O	-0.68064	0.245556	-2.75533
H	-3.09894	0.755066	-2.96874
H	-3.01105	1.81852	-1.50964
H	-3.4109	0.0595763	-1.32955
N	-0.867184	0.47379	-0.531746
C	0.506627	0.143184	-0.245562
C	0.568959	-0.454591	1.1474
O	-0.414262	-0.435736	1.88539
H	-1.44637	0.629435	0.263359
H	0.842692	-0.618016	-0.938574
C	1.40618	1.39516	-0.338268
H	1.06826	2.17233	0.379964
H	2.46875	1.15107	-0.133559
H	1.33881	1.82038	-1.36345
N	1.73288	-1.01037	1.5378
C	1.88442	-1.60847	2.84375
H	2.51616	-1.01968	0.925049
H	2.91314	-2.01059	2.97515
H	1.16119	-2.44508	2.97893
H	1.69657	-0.85696	3.64443
C	7.88683	1.72813	-2.75619
C	6.98072	0.731731	-2.14194
O	6.05726	0.240238	-2.77602
H	7.56368	1.923	-3.80187
H	8.92802	1.34272	-2.7677
H	7.85161	2.68025	-2.18583
N	7.22838	0.408718	-0.870436
C	6.40807	-0.513162	-0.124932
C	6.48476	-0.134666	1.34218
O	7.28796	0.709974	1.73353
H	7.95874	0.847754	-0.354988
H	5.37587	-0.402526	-0.433073
C	6.88284	-1.9678	-0.334392
H	7.93846	-2.08432	-0.00859542
H	6.25052	-2.68849	0.22355
H	6.8258	-2.22035	-1.41573
N	5.63854	-0.74973	2.19167
C	5.63527	-0.449967	3.60457
H	4.99296	-1.42747	1.85555
H	4.86885	-1.05802	4.13383
H	5.40849	0.627111	3.77706
H	6.63008	-0.669788	4.05532
