44
  This energy is -1.1158 and Call times are: 58084
C	2.00311	-2.67974	-0.958772
C	1.77703	-1.23248	-0.745554
O	2.70292	-0.434155	-0.788094
H	3.08675	-2.86117	-1.12812
H	1.43707	-3.02859	-1.84795
H	1.678	-3.25355	-0.0653848
N	0.51848	-0.857545	-0.505009
C	0.148949	0.509713	-0.235544
C	-1.08516	0.501017	0.646754
O	-1.69023	-0.545129	0.873011
H	-0.218075	-1.52399	-0.432901
H	0.941891	0.99049	0.323675
C	-0.129068	1.27495	-1.54793
H	-0.949623	0.7882	-2.11696
H	-0.401166	2.33281	-1.35447
H	0.784814	1.26166	-2.18117
N	-1.48404	1.67461	1.17554
C	-2.64407	1.76261	2.03155
H	-0.979108	2.50979	0.984277
H	-2.80791	2.81094	2.3653
H	-2.51506	1.12334	2.93485
H	-3.55688	1.41916	1.49306
C	7.48077	-3.33409	-0.874897
C	6.62792	-2.13151	-0.742247
O	5.51373	-2.08703	-1.24525
H	6.94826	-4.09664	-1.48383
H	7.69801	-3.76155	0.126521
H	8.4346	-3.07297	-1.37996
N	7.14321	-1.11179	-0.0515681
C	6.45056	0.140065	0.126372
C	7.48754	1.23581	0.286329
O	8.67895	0.961274	0.416226
H	8.0677	-1.1476	0.317058
H	5.88072	0.36316	-0.767012
C	5.52383	0.0872185	1.36072
H	6.10944	-0.131202	2.27909
H	4.97435	1.04068	1.50042
H	4.77836	-0.726603	1.22538
N	7.05573	2.51227	0.271975
C	7.97043	3.62128	0.411922
H	6.08828	2.71461	0.161708
H	7.42359	4.58918	0.374763
H	8.72534	3.61359	-0.407425
H	8.51392	3.56244	1.38264
