44
  This energy is -1.6467 and Call times are: 56860
C	1.5882	2.41944	1.93304
C	1.50534	1.05723	1.35973
O	2.45408	0.287214	1.41788
H	2.60114	2.57573	2.36361
H	0.832857	2.54271	2.73741
H	1.41286	3.17884	1.14206
N	0.348538	0.72616	0.781314
C	0.131578	-0.547719	0.142003
C	-0.897192	-0.356521	-0.956464
O	-1.51164	0.702761	-1.06642
H	-0.400533	1.37811	0.705632
H	1.05082	-0.871781	-0.32982
C	-0.35438	-1.60103	1.16162
H	-1.30297	-1.27392	1.63828
H	-0.511775	-2.58988	0.684195
H	0.410202	-1.71876	1.96031
N	-1.10328	-1.38245	-1.80559
C	-2.05861	-1.2901	-2.88494
H	-0.593502	-2.23021	-1.70307
H	-2.08255	-2.23526	-3.47087
H	-1.79245	-0.456729	-3.57482
H	-3.08178	-1.09691	-2.48878
C	6.48547	0.0642509	-3.46354
C	6.85536	0.534167	-2.10946
O	7.83975	1.23803	-1.93065
H	7.2318	0.437055	-4.19829
H	5.48269	0.45095	-3.74216
H	6.47489	-1.04572	-3.49376
N	6.06104	0.146079	-1.10905
C	6.31614	0.487814	0.26816
C	5.73382	-0.606552	1.14271
O	5.02346	-1.48678	0.660738
H	5.28676	-0.460576	-1.26498
H	7.38515	0.50362	0.440181
C	5.69032	1.85459	0.622465
H	4.59213	1.83562	0.456181
H	5.89168	2.1354	1.67656
H	6.12516	2.63881	-0.0349862
N	6.03051	-0.580931	2.45699
C	5.52606	-1.58411	3.36547
H	6.61033	0.137028	2.82769
H	5.881	-1.39041	4.40168
H	5.87081	-2.59883	3.06088
H	4.41201	-1.58512	3.37067
