44
  This energy is -3.1245 and Call times are: 55753
C	0.942422	3.22221	-0.917544
C	0.871062	2.11427	0.0614971
O	1.51082	2.14823	1.10359
H	1.64563	3.99789	-0.543796
H	-0.0601418	3.68029	-1.05085
H	1.30953	2.84561	-1.89555
N	0.0784806	1.08896	-0.259324
C	-0.0603737	-0.0806456	0.572123
C	-0.39726	-1.25916	-0.321832
O	-0.667776	-1.09167	-1.50947
H	-0.404109	1.0571	-1.12993
H	0.888883	-0.296522	1.0464
C	-1.16216	0.125407	1.6346
H	-2.13839	0.33648	1.14832
H	-1.26924	-0.763116	2.29002
H	-0.898741	0.9975	2.2721
N	-0.38012	-2.48814	0.230762
C	-0.682008	-3.66939	-0.543624
H	-0.154857	-2.60394	1.19249
H	-0.614779	-4.58198	0.0887439
H	0.0331455	-3.77683	-1.39114
H	-1.71127	-3.61017	-0.96582
C	7.83481	-0.211584	2.61679
C	6.4719	0.0324325	2.09326
O	5.51189	0.124793	2.84576
H	7.79225	-0.3018	3.724
H	8.50402	0.633406	2.35053
H	8.24377	-1.15384	2.19493
N	6.35609	0.141637	0.767723
C	5.0891	0.336714	0.108002
C	5.1798	-0.270422	-1.27934
O	6.2558	-0.664033	-1.72542
H	7.14046	0.0233457	0.165536
H	4.31937	-0.202203	0.646253
C	4.73827	1.83819	0.0200984
H	5.5224	2.38977	-0.541112
H	3.75827	2.00074	-0.47356
H	4.68504	2.26332	1.04615
N	4.0419	-0.368375	-1.99462
C	4.03016	-0.937384	-3.32212
H	3.18024	-0.0481272	-1.61507
H	3.00108	-0.929639	-3.74422
H	4.39244	-1.99076	-3.30117
H	4.69346	-0.357688	-4.00412
