44
  This energy is -2.7857 and Call times are: 55981
C	2.03542	1.19333	2.55846
C	0.99147	1.38521	1.52672
O	0.325483	2.41037	1.48308
H	2.06226	2.08354	3.22381
H	3.02964	1.07282	2.07914
H	1.80863	0.294484	3.1698
N	0.82221	0.383681	0.660302
C	-0.183375	0.406239	-0.372582
C	-0.585127	-1.02553	-0.672909
O	0.0408	-1.96902	-0.193585
H	1.3439	-0.461481	0.733809
H	-1.06356	0.917508	-0.0031144
C	0.349738	1.09762	-1.64656
H	1.24651	0.567258	-2.03199
H	-0.419923	1.13365	-2.44459
H	0.645068	2.14122	-1.40153
N	-1.65201	-1.22094	-1.47266
C	-2.11124	-2.54831	-1.8094
H	-2.14819	-0.444894	-1.84766
H	-2.99998	-2.49952	-2.47647
H	-2.39338	-3.11126	-0.890289
H	-1.31094	-3.12019	-2.33248
C	5.93031	-0.435302	3.41944
C	5.99889	0.382476	2.18749
O	6.2299	1.58274	2.23652
H	6.09788	0.217588	4.30347
H	6.71319	-1.22237	3.40038
H	4.93066	-0.910613	3.50807
N	5.79365	-0.260977	1.03587
C	5.7864	0.407389	-0.241543
C	4.87762	-0.36857	-1.1762
O	4.42883	-1.46606	-0.850912
H	5.5662	-1.23035	1.015
H	5.36065	1.39621	-0.124927
C	7.21348	0.497584	-0.825105
H	7.64672	-0.517075	-0.954796
H	7.22306	1.02251	-1.80229
H	7.86284	1.06241	-0.121086
N	4.5771	0.191958	-2.36426
C	3.7157	-0.470027	-3.31608
H	4.94657	1.08258	-2.60789
H	3.58969	0.150638	-4.23048
H	2.70911	-0.652013	-2.87458
H	4.14407	-1.45372	-3.61606
