44
  This energy is -3.0127 and Call times are: 57706
C	-0.626005	-2.98765	-1.67176
C	0.211823	-1.79854	-1.39752
O	1.35591	-1.71854	-1.82305
H	-0.0402095	-3.7199	-2.26886
H	-1.52908	-2.69497	-2.24756
H	-0.934714	-3.46634	-0.718531
N	-0.349258	-0.833285	-0.665503
C	0.355193	0.364229	-0.280445
C	-0.229312	0.856036	1.03029
O	-1.24952	0.350254	1.49405
H	-1.26725	-0.930826	-0.291815
H	1.39557	0.1242	-0.0997907
C	0.231601	1.45155	-1.37026
H	-0.835014	1.70573	-1.54849
H	0.78147	2.37382	-1.0917
H	0.658227	1.06705	-2.32236
N	0.41354	1.8556	1.66563
C	-0.065721	2.38488	2.92115
H	1.23988	2.24926	1.27672
H	0.598485	3.20027	3.28336
H	-0.09629	1.58669	3.69783
H	-1.09512	2.79541	2.80732
C	3.80502	-3.04478	1.13671
C	3.78354	-1.56557	1.08524
O	2.84651	-0.929638	1.54783
H	2.87215	-3.40907	1.6193
H	4.6764	-3.39447	1.7293
H	3.86508	-3.46258	0.109627
N	4.83387	-0.976499	0.508895
C	4.93573	0.452372	0.346086
C	5.78541	0.729352	-0.87984
O	6.3874	-0.18012	-1.44744
H	5.56961	-1.50911	0.100399
H	3.95132	0.861245	0.155353
C	5.56093	1.10703	1.5974
H	6.57513	0.695516	1.7874
H	5.63201	2.20881	1.48994
H	4.927	0.884689	2.48342
N	5.84701	2.00023	-1.32378
C	6.62597	2.35789	-2.48632
H	5.34966	2.72178	-0.853599
H	6.54898	3.4485	-2.69097
H	6.2662	1.80641	-3.38505
H	7.69998	2.10468	-2.33292
