44
  This energy is -2.7566 and Call times are: 56319
C	0.444859	-1.20463	-3.23476
C	-0.0124487	-0.16887	-2.28123
O	-0.339475	0.945395	-2.66578
H	0.443446	-0.783128	-4.26345
H	-0.236774	-2.08052	-3.20434
H	1.47586	-1.52986	-2.98109
N	-0.043378	-0.51989	-0.993515
C	-0.424621	0.392525	0.0556333
C	0.289454	-0.0243246	1.3276
O	0.91074	-1.08389	1.38272
H	0.264825	-1.41747	-0.691487
H	-0.0817492	1.38861	-0.195145
C	-1.95466	0.383338	0.265753
H	-2.30552	-0.636127	0.533379
H	-2.26219	1.09218	1.06167
H	-2.45676	0.683696	-0.679777
N	0.223612	0.810047	2.38378
C	0.876622	0.499658	3.63414
H	-0.280493	1.66486	2.31864
H	0.706143	1.30863	4.37827
H	1.97494	0.385561	3.48594
H	0.484356	-0.453754	4.05637
C	7.63609	-2.649	1.38037
C	7.05862	-1.288	1.45361
O	7.00914	-0.677517	2.51251
H	7.96114	-2.96516	2.39538
H	8.51579	-2.65552	0.703001
H	6.87645	-3.36738	1.00629
N	6.59939	-0.775828	0.309419
C	5.97121	0.519419	0.230188
C	4.98758	0.498197	-0.924628
O	4.95426	-0.450383	-1.70616
H	6.60936	-1.30111	-0.536654
H	5.40291	0.696747	1.13474
C	7.02335	1.63122	0.0249238
H	7.59954	1.45547	-0.908437
H	6.55332	2.63482	-0.0237943
H	7.73706	1.62301	0.877501
N	4.15249	1.54791	-1.05405
C	3.17912	1.61262	-2.11919
H	4.19175	2.30416	-0.409363
H	2.58784	2.55257	-2.05503
H	2.47513	0.751064	-2.06082
H	3.68142	1.58127	-3.11311
