44
  This energy is -2.1461 and Call times are: 58112
C	-1.47293	2.5238	1.89039
C	-0.335542	1.96164	1.12785
O	0.62868	2.65221	0.828194
H	-1.28425	3.6009	2.09073
H	-1.58445	1.9923	2.8588
H	-2.41158	2.42619	1.30516
N	-0.426535	0.673262	0.789953
C	0.580815	-0.0027527	0.0109727
C	-0.0917416	-1.11947	-0.765022
O	-1.26236	-1.42362	-0.543989
H	-1.23615	0.134862	1.00561
H	0.996236	0.68786	-0.712292
C	1.69345	-0.569027	0.920162
H	1.26933	-1.28559	1.65548
H	2.48228	-1.07996	0.330911
H	2.16624	0.26449	1.48413
N	0.636188	-1.7543	-1.70477
C	0.0786702	-2.82584	-2.49671
H	1.58059	-1.49124	-1.87201
H	0.832983	-3.2185	-3.21368
H	-0.80294	-2.46812	-3.07643
H	-0.254753	-3.6647	-1.84381
C	6.12735	1.38813	3.18899
C	6.40478	1.43396	1.73568
O	6.78244	2.46451	1.19554
H	6.30109	2.39459	3.62798
H	6.80184	0.658586	3.68453
H	5.07121	1.09548	3.3679
N	6.21785	0.297955	1.05972
C	6.40512	0.197956	-0.366287
C	5.48755	-0.891474	-0.88858
O	4.87594	-1.62471	-0.113982
H	5.87085	-0.521898	1.50613
H	6.101	1.12681	-0.832517
C	7.87653	-0.123327	-0.708299
H	8.18585	-1.08146	-0.238893
H	8.03648	-0.189211	-1.80402
H	8.53041	0.682854	-0.309735
N	5.36362	-1.01733	-2.22455
C	4.50893	-2.02197	-2.81308
H	5.86343	-0.411998	-2.83516
H	4.54179	-1.96485	-3.92344
H	3.45337	-1.88029	-2.48596
H	4.83193	-3.04258	-2.50458
