44
  This energy is 0.2855 and Call times are: 51851
C	-1.13388	1.73291	-2.79714
C	-0.108729	0.939015	-2.08305
O	0.863963	0.486267	-2.67067
H	-0.861866	1.80139	-3.87287
H	-1.18735	2.75802	-2.37402
H	-2.12701	1.24419	-2.70802
N	-0.309367	0.748172	-0.777027
C	0.578064	-0.0388018	0.0425454
C	-0.23069	-0.631762	1.18091
O	-1.39215	-0.279965	1.3783
H	-1.1269	1.08833	-0.321176
H	0.966042	-0.864002	-0.541534
C	1.73353	0.826012	0.592302
H	1.33644	1.66665	1.20032
H	2.43151	0.228362	1.21372
H	2.30675	1.25602	-0.257911
N	0.366652	-1.55832	1.95596
C	-0.326492	-2.18174	3.05917
H	1.30578	-1.83302	1.77805
H	0.332567	-2.91545	3.57351
H	-1.23455	-2.718	2.69984
H	-0.648584	-1.41765	3.80319
C	7.89853	-1.9552	-2.7185
C	6.95317	-1.04356	-2.0356
O	6.01517	-0.538234	-2.63662
H	7.60847	-2.0517	-3.78733
H	7.87017	-2.95969	-2.24632
H	8.93049	-1.54916	-2.66144
N	7.1853	-0.808163	-0.742121
C	6.37787	0.0899067	0.0453323
C	7.24789	0.665643	1.14677
O	8.37771	0.226023	1.35157
H	7.97662	-1.19451	-0.276931
H	6.05403	0.916235	-0.5751
C	5.16014	-0.645982	0.646048
H	5.49205	-1.48731	1.29107
H	4.523	0.0380409	1.24327
H	4.54215	-1.06581	-0.177461
N	6.74076	1.67578	1.88057
C	7.49773	2.28999	2.94636
H	5.82616	2.02066	1.69718
H	6.90957	3.10098	3.42968
H	8.44347	2.72911	2.55388
H	7.76307	1.53775	3.72409
