44
  This energy is -1.3507 and Call times are: 56705
C	1.1516	-3.26954	-0.310781
C	0.974134	-1.89533	-0.831539
O	1.56132	-1.51843	-1.83631
H	1.87389	-3.81614	-0.955309
H	0.18187	-3.81018	-0.319159
H	1.54786	-3.23766	0.726069
N	0.147232	-1.1029	-0.145487
C	-0.0932603	0.272542	-0.504477
C	-0.44455	1.03647	0.758284
O	-0.645767	0.444578	1.81701
H	-0.291751	-1.41111	0.693662
H	0.818497	0.703419	-0.899033
C	-1.2353	0.381254	-1.53848
H	-2.1736	-0.0511324	-1.13023
H	-1.42079	1.43441	-1.8334
H	-0.960048	-0.191559	-2.45088
N	-0.518408	2.37955	0.676428
C	-0.840973	3.19039	1.82737
H	-0.348261	2.84075	-0.188107
H	-0.852675	4.26939	1.55745
H	-0.0903634	3.03973	2.63679
H	-1.8432	2.91885	2.23105
C	6.91707	-3.41218	0.624265
C	7.5111	-2.08314	0.892448
O	8.21106	-1.88961	1.87683
H	7.20211	-4.113	1.4388
H	7.29271	-3.81148	-0.341241
H	5.80989	-3.33597	0.586832
N	7.23786	-1.12149	0.00758998
C	7.70872	0.233054	0.156099
C	6.7165	1.15614	-0.525802
O	5.80624	0.702415	-1.21664
H	6.63303	-1.28376	-0.766819
H	7.72187	0.49346	1.20712
C	9.1149	0.399058	-0.460609
H	9.0997	0.142152	-1.54126
H	9.49433	1.43448	-0.340347
H	9.82258	-0.291419	0.0480802
N	6.86588	2.48234	-0.33899
C	5.96631	3.43693	-0.943728
H	7.60613	2.83022	0.226768
H	6.25451	4.47614	-0.671294
H	4.92043	3.26224	-0.601828
H	5.98614	3.34699	-2.05398
