44
  This energy is -6.6884 and Call times are: 52516
C	-0.262079	-2.26938	-2.62562
C	-0.800944	-1.60837	-1.41573
O	-1.97176	-1.74435	-1.08847
H	-1.07528	-2.83865	-3.12616
H	0.550557	-2.97296	-2.34752
H	0.132821	-1.50984	-3.3329
N	0.056812	-0.863205	-0.714764
C	-0.330511	-0.124555	0.461219
C	0.575662	1.08646	0.578877
O	1.55709	1.21196	-0.151031
H	0.996427	-0.729066	-1.01642
H	-1.34233	0.24058	0.336568
C	-0.224436	-1.0051	1.72559
H	0.815716	-1.37133	1.85974
H	-0.533283	-0.451819	2.63609
H	-0.889596	-1.8891	1.61403
N	0.26014	2.01618	1.50197
C	1.06098	3.2046	1.68226
H	-0.540264	1.89899	2.08049
H	0.638638	3.84496	2.48774
H	1.09555	3.80131	0.742036
H	2.10608	2.93601	1.95931
C	4.54373	2.78996	-2.07472
C	5.09327	2.06206	-0.908821
O	6.08218	2.47084	-0.316057
H	5.17347	3.68267	-2.2805
H	3.50594	3.12322	-1.86337
H	4.54592	2.13432	-2.97093
N	4.45364	0.946335	-0.550449
C	4.89476	0.108183	0.536505
C	4.45806	-1.3149	0.243749
O	3.70044	-1.56112	-0.692786
H	3.67446	0.604377	-1.06794
H	5.97698	0.112197	0.574218
C	4.30427	0.59032	1.87967
H	3.19402	0.576365	1.8451
H	4.64765	-0.0386956	2.7264
H	4.63025	1.63628	2.06952
N	4.93632	-2.29188	1.03922
C	4.58008	-3.67642	0.833463
H	5.55152	-2.07345	1.78948
H	5.07431	-4.32612	1.58902
H	4.89396	-4.01631	-0.180062
H	3.47799	-3.8155	0.918288
