44
  This energy is -1.787 and Call times are: 58377
C	1.70501	0.85762	-2.91034
C	0.534625	0.953921	-2.0092
O	-0.326055	1.80657	-2.17839
H	1.64348	1.65827	-3.67914
H	1.71605	-0.129135	-3.4192
H	2.64452	0.985792	-2.33243
N	0.478107	0.0669187	-1.013
C	-0.576756	0.0625401	-0.0302497
C	-0.0199282	-0.511908	1.25874
O	1.09581	-1.02765	1.28815
H	1.20716	-0.594982	-0.863877
H	-0.87823	1.08221	0.174756
C	-1.78198	-0.770816	-0.518289
H	-1.47551	-1.8196	-0.718675
H	-2.60648	-0.770501	0.223821
H	-2.1681	-0.3372	-1.46657
N	-0.786939	-0.427633	2.36356
C	-0.338076	-0.941979	3.63641
H	-1.68528	-0.00309289	2.32085
H	-1.10928	-0.7778	4.42096
H	0.600744	-0.434386	3.95616
H	-0.133704	-2.03504	3.56866
C	4.97481	3.38856	0.32327
C	4.70592	1.96398	0.622312
O	3.91416	1.63918	1.4964
H	4.3765	4.02707	1.00897
H	4.68916	3.62022	-0.724339
H	6.0521	3.61383	0.470891
N	5.37306	1.06795	-0.10874
C	5.24922	-0.353923	0.0949366
C	6.55223	-1.00724	-0.32567
O	7.4235	-0.36005	-0.903371
H	6.04477	1.3478	-0.788706
H	5.11459	-0.553158	1.15078
C	4.0686	-0.927106	-0.719203
H	4.21142	-0.732218	-1.80348
H	3.9542	-2.01893	-0.560007
H	3.12693	-0.429125	-0.400426
N	6.71929	-2.31264	-0.0357892
C	7.9286	-3.01737	-0.392312
H	6.00459	-2.81848	0.43582
H	7.87435	-4.08018	-0.0686941
H	8.81453	-2.54789	0.0934736
H	8.08663	-2.99399	-1.49486
