44
  This energy is -2.8314 and Call times are: 59626
C	0.497941	-0.92108	-3.31909
C	0.75286	-0.0367182	-2.15975
O	1.65364	0.790669	-2.18076
H	1.23954	-0.702421	-4.1179
H	-0.522899	-0.744137	-3.71824
H	0.597511	-1.98523	-3.01784
N	-0.0480346	-0.196971	-1.10369
C	0.104187	0.560061	0.113803
C	-0.41067	-0.285017	1.26373
O	-1.00687	-1.33942	1.05278
H	-0.750611	-0.902619	-1.08599
H	1.15674	0.741176	0.292603
C	-0.66906	1.89459	0.0339713
H	-1.75059	1.70901	-0.138933
H	-0.548365	2.49295	0.960207
H	-0.281158	2.49303	-0.819107
N	-0.183075	0.157804	2.51598
C	-0.631126	-0.582289	3.67257
H	0.304734	1.01128	2.66664
H	-0.348375	-0.0553092	4.61042
H	-0.174156	-1.59824	3.69
H	-1.73863	-0.702108	3.65771
C	6.5559	3.33185	0.869242
C	5.67464	2.16695	0.629387
O	4.49476	2.18884	0.951604
H	5.97401	4.13553	1.37059
H	6.94815	3.7198	-0.0942886
H	7.40475	3.04123	1.52351
N	6.23932	1.10494	0.0500361
C	5.52067	-0.117912	-0.208285
C	6.51327	-1.26487	-0.179945
O	7.72267	-1.04993	-0.126482
H	7.21065	1.08709	-0.169179
H	4.80779	-0.288497	0.588787
C	4.80192	-0.0574608	-1.57393
H	5.53402	0.107005	-2.39309
H	4.23359	-0.987931	-1.77825
H	4.08651	0.793725	-1.57476
N	6.02065	-2.51891	-0.206846
C	6.88883	-3.67286	-0.177714
H	5.03888	-2.67276	-0.245966
H	6.29475	-4.61278	-0.206699
H	7.50595	-3.67678	0.74988
H	7.5795	-3.66727	-1.05183
