44
  This energy is -0.2148 and Call times are: 60191
C	-0.958041	1.67636	2.89563
C	-0.00430913	1.42072	1.79282
O	0.944979	2.16553	1.59151
H	-0.662107	2.6057	3.42913
H	-0.947425	0.830358	3.6146
H	-1.98441	1.80514	2.49181
N	-0.241861	0.343722	1.04048
C	0.573048	-0.0110194	-0.0947039
C	-0.296078	-0.764521	-1.08385
O	-1.43351	-1.11916	-0.780204
H	-1.04185	-0.22999	1.19129
H	0.913021	0.891865	-0.586485
C	1.77588	-0.877331	0.338824
H	1.42745	-1.8087	0.833981
H	2.41874	-1.14548	-0.524514
H	2.39337	-0.309161	1.06837
N	0.220553	-1.02037	-2.30191
C	-0.53475	-1.72687	-3.31015
H	1.14127	-0.72181	-2.53042
H	0.0617423	-1.83818	-4.24237
H	-1.47134	-1.17629	-3.55701
H	-0.816237	-2.74296	-2.95034
C	6.34461	-1.48676	-1.90403
C	7.26527	-1.47183	-0.745016
O	7.14652	-2.27712	0.168126
H	5.59164	-2.29264	-1.7646
H	6.91013	-1.68123	-2.83951
H	5.81755	-0.51287	-1.98662
N	8.2184	-0.537055	-0.756235
C	9.16137	-0.37033	0.321528
C	9.58151	1.08689	0.361215
O	9.25653	1.86071	-0.537278
H	8.27697	0.137373	-1.4867
H	8.67166	-0.590571	1.2619
C	10.3914	-1.28332	0.124594
H	10.9002	-1.0506	-0.835062
H	11.1185	-1.17432	0.955216
H	10.0594	-2.34398	0.0905588
N	10.312	1.4985	1.41617
C	10.7526	2.86824	1.54225
H	10.5617	0.858516	2.13531
H	11.3392	3.00822	2.47684
H	9.88006	3.56055	1.56916
H	11.3948	3.15566	0.678504
