44
  This energy is 0.1645 and Call times are: 54925
C	1.04466	-2.03151	2.6257
C	0.478849	-0.768439	2.10069
O	-0.0266682	0.0575853	2.84804
H	0.904981	-2.06632	3.72805
H	2.1301	-2.08799	2.39904
H	0.526364	-2.90153	2.17016
N	0.551039	-0.589745	0.779612
C	0.00558138	0.568914	0.117386
C	-0.386073	0.167415	-1.29221
O	-0.0712923	-0.931742	-1.74441
H	0.928619	-1.2895	0.179912
H	-0.897944	0.879416	0.627153
C	1.03321	1.72142	0.0863573
H	1.95622	1.40681	-0.445724
H	0.620209	2.62407	-0.408787
H	1.31132	1.99328	1.12803
N	-1.09445	1.05274	-2.02052
C	-1.5162	0.755988	-3.36968
H	-1.34324	1.93548	-1.63589
H	-2.08657	1.60852	-3.79991
H	-2.16872	-0.146876	-3.3876
H	-0.635256	0.558269	-4.02236
C	7.21769	-2.71794	0.163355
C	6.95425	-1.26204	0.117473
O	7.84213	-0.450752	0.340824
H	8.28165	-2.89026	0.43566
H	7.02265	-3.17363	-0.830148
H	6.5692	-3.20035	0.924809
N	5.70499	-0.893965	-0.176223
C	5.28605	0.484976	-0.215762
C	3.81034	0.541113	0.131659
O	3.1457	-0.489052	0.225086
H	4.98366	-1.56642	-0.315296
H	5.81805	1.04191	0.545432
C	5.53763	1.09822	-1.61071
H	4.98365	0.533611	-2.3907
H	5.23195	2.16384	-1.64992
H	6.62246	1.03919	-1.84733
N	3.26289	1.75464	0.340598
C	1.86745	1.90586	0.681266
H	3.81776	2.57646	0.264466
H	1.60891	2.97967	0.812956
H	1.6345	1.37039	1.6301
H	1.21914	1.48475	-0.120915
