44
  This energy is -3.3573 and Call times are: 61135
C	-1.02654	-0.793512	-3.22943
C	-0.981527	-1.05941	-1.77396
O	-1.70863	-1.89886	-1.26107
H	-1.79829	-1.44241	-3.69765
H	-0.0413569	-1.01721	-3.68999
H	-1.28899	0.269159	-3.41637
N	-0.11243	-0.335247	-1.06499
C	0.015512	-0.450533	0.366406
C	0.487951	0.88545	0.908167
O	0.849615	1.78117	0.147512
H	0.443573	0.373036	-1.4905
H	-0.958231	-0.64726	0.797399
C	1.01061	-1.57	0.742963
H	2.01246	-1.36329	0.309835
H	1.10737	-1.67797	1.84274
H	0.649005	-2.5368	0.329577
N	0.487508	1.05343	2.24526
C	0.915079	2.2927	2.85154
H	0.187439	0.318454	2.84429
H	0.841606	2.23417	3.95987
H	0.281259	3.1399	2.50254
H	1.97211	2.51825	2.58144
C	6.63691	-2.55675	2.04133
C	6.71241	-1.72171	0.821426
O	7.69692	-1.74858	0.0958736
H	7.57992	-3.13551	2.14918
H	5.78619	-3.26636	1.96731
H	6.50515	-1.9142	2.93734
N	5.65575	-0.946538	0.566543
C	5.6002	-0.0475018	-0.559158
C	4.69648	1.11451	-0.192288
O	4.03004	1.0923	0.840704
H	4.87898	-0.904996	1.18845
H	6.58779	0.357212	-0.74217
C	5.06949	-0.770155	-1.81668
H	4.05204	-1.17642	-1.63288
H	5.03509	-0.0920046	-2.69386
H	5.74158	-1.62133	-2.0619
N	4.65976	2.16753	-1.03241
C	3.83315	3.32094	-0.763063
H	5.20928	2.16888	-1.86133
H	3.94078	4.07896	-1.56994
H	4.12213	3.79424	0.203249
H	2.76012	3.02873	-0.697077
