44
  This energy is -1.4484 and Call times are: 58028
C	-2.38694	2.36224	0.91378
C	-1.91236	1.254	0.0548714
O	-2.66717	0.6898	-0.725096
H	-3.46898	2.53495	0.726053
H	-1.82867	3.29321	0.680591
H	-2.24464	2.1045	1.98449
N	-0.628479	0.911328	0.183671
C	-0.0326652	-0.175474	-0.552825
C	1.10609	-0.739957	0.275513
O	1.48626	-0.168601	1.29568
H	-0.0368389	1.3527	0.852264
H	-0.763033	-0.965162	-0.677671
C	0.483879	0.306539	-1.92617
H	1.24094	1.10938	-1.79831
H	0.932501	-0.524123	-2.50864
H	-0.364629	0.722792	-2.51193
N	1.67447	-1.88793	-0.142985
C	2.76074	-2.50247	0.584024
H	1.35036	-2.33767	-0.96867
H	3.09068	-3.43824	0.0813245
H	2.44529	-2.75489	1.62232
H	3.63248	-1.81159	0.646389
C	6.29737	-0.981092	1.73571
C	7.50525	-1.28515	0.935887
O	7.91025	-2.43281	0.812302
H	5.89607	-1.92354	2.16769
H	5.51845	-0.520326	1.09249
H	6.55155	-0.286001	2.56355
N	8.11825	-0.244168	0.367583
C	9.32863	-0.376878	-0.404387
C	10.1074	0.919985	-0.289575
O	9.60672	1.91058	0.239314
H	7.80014	0.688609	0.511059
H	9.94146	-1.16017	0.0239938
C	9.00863	-0.68723	-1.88308
H	8.38876	0.121223	-2.32602
H	9.93278	-0.80544	-2.48516
H	8.43175	-1.63592	-1.94243
N	11.363	0.940748	-0.778659
C	12.1817	2.12858	-0.709073
H	11.7522	0.128007	-1.19937
H	13.1802	1.9452	-1.16375
H	12.331	2.4413	0.349804
H	11.698	2.97184	-1.25318
