44
  This energy is -0.5834 and Call times are: 58056
C	2.05578	2.72393	0.683117
C	0.949342	1.80567	1.03488
O	0.460459	1.80391	2.15622
H	2.32643	3.3312	1.5741
H	1.74171	3.40598	-0.13475
H	2.94591	2.14428	0.359434
N	0.525306	0.989322	0.0673326
C	-0.51383	0.0108773	0.270803
C	-0.270411	-1.14303	-0.68356
O	0.58426	-1.06272	-1.56379
H	0.960648	0.97398	-0.828273
H	-0.442168	-0.382305	1.27723
C	-1.90843	0.62875	0.0287848
H	-1.98607	1.02282	-1.00694
H	-2.71787	-0.111128	0.195832
H	-2.06163	1.47592	0.732474
N	-1.01618	-2.25411	-0.52434
C	-0.85109	-3.4046	-1.38184
H	-1.69996	-2.30177	0.196247
H	-1.55466	-4.2157	-1.09146
H	0.188019	-3.80044	-1.3123
H	-1.04703	-3.13402	-2.44464
C	5.71049	2.78695	-1.554
C	5.94373	1.32821	-1.46
O	5.31442	0.540605	-2.15286
H	4.9094	2.98352	-2.2993
H	6.63837	3.30269	-1.87925
H	5.391	3.18766	-0.568897
N	6.86851	0.930381	-0.583131
C	7.17591	-0.458514	-0.348535
C	7.66586	-0.599702	1.0803
O	7.90025	0.393079	1.76671
H	7.34337	1.58059	0.00304443
H	6.27003	-1.04498	-0.438345
C	8.24735	-0.961615	-1.34057
H	9.18051	-0.367095	-1.24149
H	8.48265	-2.03357	-1.17914
H	7.8706	-0.841436	-2.37978
N	7.82465	-1.84644	1.56655
C	8.28136	-2.07862	2.91699
H	7.62595	-2.63731	0.997236
H	8.34721	-3.16876	3.12792
H	7.58089	-1.621	3.65266
H	9.28871	-1.62945	3.07393
