44
  This energy is -3.5358 and Call times are: 54867
C	0.0468303	2.44311	-2.47825
C	-0.422377	1.14988	-1.93185
O	-1.35201	0.544732	-2.4476
H	-0.578902	2.7204	-3.35429
H	1.10484	2.35949	-2.80438
H	-0.0406187	3.23826	-1.70808
N	0.220853	0.692112	-0.855245
C	-0.148891	-0.529955	-0.185616
C	0.233628	-0.402299	1.27689
O	0.90856	0.546922	1.6708
H	0.948882	1.21603	-0.4224
H	-1.2243	-0.649521	-0.228512
C	0.557095	-1.74523	-0.825873
H	1.66048	-1.62798	-0.772677
H	0.269806	-2.69392	-0.327901
H	0.268925	-1.81442	-1.89756
N	-0.199332	-1.35835	2.12219
C	0.110754	-1.3175	3.53229
H	-0.747834	-2.1165	1.7854
H	-0.334587	-2.19053	4.05833
H	-0.290232	-0.387123	3.99584
H	1.21301	-1.33594	3.69303
C	5.19328	3.35198	0.936438
C	5.81636	2.00969	0.902187
O	6.97523	1.84056	1.25548
H	5.93865	4.09381	1.29695
H	4.32317	3.35251	1.62612
H	4.85835	3.64447	-0.081083
N	5.04731	1.00939	0.46589
C	5.52627	-0.344181	0.335503
C	4.7417	-1.0187	-0.774024
O	3.76235	-0.470393	-1.27596
H	4.11889	1.16971	0.143108
H	6.56551	-0.327664	0.0316493
C	5.36214	-1.11767	1.66216
H	4.29478	-1.14395	1.96889
H	5.74013	-2.15722	1.57866
H	5.93801	-0.601897	2.46135
N	5.16233	-2.22936	-1.19041
C	4.4817	-2.94466	-2.24458
H	5.9593	-2.6551	-0.774875
H	4.97883	-3.91977	-2.44273
H	4.48531	-2.35141	-3.18762
H	3.42151	-3.14183	-1.96482
