44
  This energy is 0.1004 and Call times are: 58000
C	3.15599	1.33819	-0.601393
C	1.84763	0.825411	-1.06659
O	1.49039	0.963618	-2.22835
H	3.67569	1.83935	-1.44675
H	3.78753	0.500899	-0.236918
H	3.00948	2.07396	0.217306
N	1.09106	0.21347	-0.152539
C	-0.2243	-0.299653	-0.444265
C	-1.0413	-0.260659	0.833443
O	-0.512195	0.00307669	1.9115
H	1.37789	0.144871	0.798716
H	-0.711602	0.352024	-1.15875
C	-0.145003	-1.74132	-0.992484
H	0.34537	-2.41247	-0.255507
H	-1.15055	-2.14266	-1.234
H	0.463921	-1.74721	-1.92282
N	-2.36115	-0.516109	0.739714
C	-3.21928	-0.49622	1.90135
H	-2.77181	-0.72347	-0.142006
H	-4.26921	-0.730725	1.61873
H	-3.20233	0.507279	2.38506
H	-2.88199	-1.24707	2.65208
C	5.28987	1.59817	-0.440673
C	6.17829	0.660715	0.282542
O	5.85913	0.196383	1.36833
H	4.37667	1.78098	0.166373
H	4.99081	1.16489	-1.41821
H	5.80931	2.56515	-0.608567
N	7.33418	0.359187	-0.313593
C	8.32033	-0.504458	0.286558
C	9.68636	-0.092558	-0.229084
O	9.79501	0.723785	-1.14204
H	7.59805	0.777028	-1.17826
H	8.32158	-0.354151	1.35895
C	8.03721	-1.98435	-0.0525511
H	8.04626	-2.14117	-1.15227
H	8.78176	-2.66057	0.415311
H	7.02953	-2.26154	0.32703
N	10.7678	-0.645962	0.354186
C	12.1082	-0.310376	-0.0663192
H	10.6598	-1.30151	1.09423
H	12.8601	-0.868643	0.533943
H	12.2982	0.780085	0.0604592
H	12.2583	-0.564346	-1.14062
