44
  This energy is -1.1369 and Call times are: 60971
C	-0.318492	1.74157	-2.99636
C	-0.805767	0.759683	-2.00157
O	-1.93955	0.304684	-2.06414
H	-1.13102	1.96338	-3.72195
H	0.55233	1.32819	-3.54729
H	-0.0216822	2.68422	-2.48999
N	0.0553636	0.407916	-1.04392
C	-0.288088	-0.504119	0.018522
C	0.551253	-0.153496	1.23266
O	1.46775	0.661981	1.15051
H	0.960938	0.817826	-0.982485
H	-1.32607	-0.36003	0.291419
C	-0.0383836	-1.96728	-0.408148
H	1.02856	-2.1182	-0.67812
H	-0.312126	-2.68009	0.396523
H	-0.656613	-2.1993	-1.30275
N	0.249582	-0.759986	2.39764
C	0.989949	-0.484927	3.60693
H	-0.498212	-1.41391	2.44523
H	0.590424	-1.081	4.45682
H	0.920642	0.594761	3.87292
H	2.06648	-0.739614	3.47523
C	3.45669	-1.09932	-2.04426
C	4.75494	-1.30304	-1.36294
O	5.27291	-2.40976	-1.30558
H	3.08871	-2.07388	-2.43243
H	3.57713	-0.396022	-2.89491
H	2.70989	-0.691627	-1.33071
N	5.3168	-0.220263	-0.820453
C	6.55768	-0.2683	-0.0880159
C	6.54705	0.852374	0.934505
O	5.66427	1.70808	0.921866
H	4.86325	0.666172	-0.839838
H	6.61464	-1.20206	0.457388
C	7.7657	-0.122075	-1.03909
H	7.71327	0.840504	-1.59112
H	8.72756	-0.171386	-0.488702
H	7.7488	-0.947872	-1.78348
N	7.53086	0.868001	1.85531
C	7.5993	1.89259	2.87104
H	8.23399	0.164667	1.85192
H	8.47888	1.73223	3.53275
H	6.68044	1.88313	3.50103
H	7.68901	2.90121	2.40651
