44
  This energy is -2.4317 and Call times are: 52253
C	-1.71508	-2.03313	-2.24446
C	-1.63388	-1.26434	-0.982112
O	-2.63116	-1.04772	-0.30764
H	-2.77237	-2.32107	-2.43178
H	-1.09923	-2.95412	-2.17194
H	-1.35543	-1.41411	-3.09332
N	-0.422669	-0.826045	-0.631063
C	-0.192228	-0.0282275	0.547472
C	1.01786	0.851037	0.294237
O	1.71579	0.689357	-0.704998
H	0.372875	-0.975281	-1.21133
H	-1.03951	0.627096	0.706516
C	0.0388528	-0.924428	1.78386
H	0.914398	-1.58952	1.62539
H	0.203724	-0.32177	2.70046
H	-0.855774	-1.56465	1.94543
N	1.2906	1.81434	1.19629
C	2.41823	2.70256	1.03606
H	0.711863	1.93238	1.99642
H	2.47329	3.42448	1.88047
H	2.33205	3.27945	0.0868254
H	3.37114	2.12626	1.0045
C	5.12617	-2.08058	2.53102
C	5.41898	-1.79689	1.10801
O	5.37502	-2.68141	0.264159
H	4.90127	-3.16265	2.65107
H	4.24656	-1.49143	2.86556
H	6.00395	-1.82395	3.16086
N	5.73192	-0.534468	0.806762
C	6.08321	-0.113955	-0.526774
C	7.01686	1.07674	-0.416705
O	7.21819	1.6211	0.667198
H	5.80356	0.165959	1.51113
H	6.6301	-0.908236	-1.01937
C	4.82283	0.259382	-1.33751
H	4.26706	1.08139	-0.838043
H	5.07904	0.571641	-2.37065
H	4.15057	-0.624188	-1.3984
N	7.61881	1.50558	-1.54355
C	8.52769	2.62809	-1.53481
H	7.44652	1.04965	-2.41045
H	8.91873	2.82545	-2.55725
H	9.39246	2.42806	-0.861425
H	8.01336	3.54747	-1.17238
