44
  This energy is -2.9718 and Call times are: 52307
C	0.0367054	2.93794	1.86543
C	-0.675707	1.80766	1.2282
O	-1.85599	1.5895	1.4643
H	-0.659444	3.47353	2.5469
H	0.398793	3.64714	1.09169
H	0.899417	2.56274	2.45538
N	0.0396892	1.05017	0.393451
C	-0.503438	-0.109893	-0.268231
C	0.631494	-1.08392	-0.522705
O	1.7999	-0.754267	-0.328073
H	1.01015	1.21577	0.242936
H	-1.20776	-0.600616	0.391886
C	-1.18829	0.282325	-1.59578
H	-0.463549	0.776336	-2.2775
H	-1.62267	-0.600527	-2.10804
H	-2.01006	1.00148	-1.38633
N	0.31048	-2.31788	-0.958949
C	1.32304	-3.31349	-1.2229
H	-0.640854	-2.56733	-1.10664
H	0.859877	-4.26226	-1.57293
H	1.91103	-3.52957	-0.301559
H	2.02924	-2.95746	-2.00754
C	3.67021	3.05928	-0.312056
C	4.77524	2.21756	0.199396
O	5.76402	2.71749	0.717847
H	3.92143	4.13069	-0.154544
H	2.72969	2.82716	0.230419
H	3.52404	2.88036	-1.39819
N	4.62951	0.897827	0.0598954
C	5.63853	-0.0468695	0.469763
C	5.5216	-1.27603	-0.411749
O	4.57254	-1.41089	-1.18168
H	3.83756	0.507795	-0.401126
H	6.61864	0.380639	0.298791
C	5.46586	-0.428264	1.95636
H	4.46445	-0.876576	2.13027
H	6.24529	-1.14464	2.28774
H	5.54715	0.487342	2.58197
N	6.49584	-2.203	-0.324519
C	6.47193	-3.40267	-1.12851
H	7.25789	-2.07421	0.30139
H	7.3589	-4.0383	-0.912933
H	6.4781	-3.14869	-2.21329
H	5.55413	-3.99827	-0.918626
