44
  This energy is -7.5803 and Call times are: 60351
C	-1.02043	-3.30151	-0.414065
C	-1.26387	-1.90657	0.0172339
O	-2.38631	-1.52335	0.316708
H	-1.98357	-3.85664	-0.422798
H	-0.322807	-3.80325	0.289012
H	-0.588066	-3.31592	-1.43678
N	-0.198435	-1.10303	0.0564881
C	-0.284368	0.290819	0.414769
C	0.837892	1.03016	-0.289121
O	1.72106	0.415492	-0.884029
H	0.70186	-1.41853	-0.229506
H	-1.2185	0.697143	0.0474376
C	-0.178083	0.474795	1.94451
H	0.784689	0.0675968	2.3204
H	-0.256793	1.54269	2.23421
H	-1.00425	-0.0810698	2.43928
N	0.824056	2.37694	-0.244216
C	1.84777	3.16533	-0.889687
H	0.0988409	2.85654	0.238613
H	1.66087	4.25148	-0.739465
H	1.86847	2.96145	-1.9848
H	2.85222	2.92142	-0.474077
C	8.39802	2.00008	-0.034888
C	6.96332	1.77038	-0.317778
O	6.22689	2.69142	-0.64299
H	8.62693	3.0816	-0.152173
H	9.02551	1.4209	-0.744507
H	8.63695	1.69291	1.00513
N	6.52805	0.514194	-0.19559
C	5.14959	0.142415	-0.396064
C	4.85932	-1.07663	0.459069
O	5.76749	-1.67256	1.0351
H	7.13053	-0.217701	0.109714
H	4.50928	0.942236	-0.045488
C	4.871	-0.161458	-1.88445
H	5.52024	-0.989024	-2.24177
H	3.80956	-0.435549	-2.05394
H	5.09775	0.741697	-2.4921
N	3.57581	-1.4724	0.568478
C	3.20343	-2.61831	1.36498
H	2.85438	-0.974953	0.0982049
H	2.10378	-2.78175	1.32887
H	3.5011	-2.47093	2.42844
H	3.70735	-3.53831	0.989752
