44
  This energy is -3.366 and Call times are: 61237
C	-1.25552	-0.672566	-3.17553
C	-1.17666	-0.94001	-1.72178
O	-1.97288	-1.68825	-1.17172
H	-2.11776	-1.22763	-3.60486
H	-0.324702	-1.01025	-3.67783
H	-1.40052	0.413218	-3.35757
N	-0.198275	-0.321232	-1.05676
C	-0.0206746	-0.44879	0.368285
C	0.627917	0.823675	0.879866
O	1.05702	1.67011	0.0981136
H	0.416821	0.316814	-1.51109
H	-0.990424	-0.53004	0.843276
C	0.853135	-1.67619	0.70766
H	1.85184	-1.5883	0.229225
H	0.985796	-1.79327	1.80275
H	0.36325	-2.59475	0.317009
N	0.706904	0.992303	2.21454
C	1.3026	2.17403	2.79319
H	0.350402	0.29812	2.83105
H	1.27251	2.12591	3.90405
H	0.756777	3.08892	2.46711
H	2.36555	2.2744	2.47505
C	4.90781	-0.268453	-3.43489
C	5.78516	-0.124106	-2.25143
O	6.99903	-0.243179	-2.34506
H	5.52921	-0.503022	-4.32634
H	4.35626	0.677207	-3.62001
H	4.1825	-1.09397	-3.27512
N	5.17854	0.13802	-1.09139
C	5.89473	0.262909	0.153607
C	4.96322	-0.147886	1.27838
O	3.76942	-0.350559	1.06513
H	4.18637	0.191528	-1.02367
H	6.72864	-0.427891	0.156858
C	6.39006	1.71078	0.362287
H	5.53399	2.41868	0.369571
H	6.95504	1.81676	1.31102
H	7.06355	1.99271	-0.476326
N	5.49338	-0.2891	2.50923
C	4.68509	-0.682166	3.63987
H	6.46236	-0.124669	2.66127
H	5.30304	-0.743574	4.56269
H	4.21995	-1.67891	3.46259
H	3.86747	0.0543678	3.81353
