44
  This energy is -2.1801 and Call times are: 61460
C	-0.194197	-1.39902	3.18084
C	-0.305878	-1.49097	1.70767
O	-0.425107	-2.57224	1.14816
H	-0.220303	-2.42181	3.6157
H	-1.04143	-0.811561	3.59294
H	0.763797	-0.913163	3.46241
N	-0.266667	-0.337598	1.03641
C	-0.320508	-0.269428	-0.402687
C	0.425135	0.975371	-0.845456
O	0.804416	1.8079	-0.024024
H	-0.12808	0.531321	1.50293
H	0.199386	-1.12256	-0.820425
C	-1.78254	-0.230048	-0.898813
H	-2.31335	0.650848	-0.478926
H	-1.83754	-0.191453	-2.00607
H	-2.31104	-1.14652	-0.556581
N	0.661046	1.12728	-2.16352
C	1.36809	2.2772	-2.67727
H	0.349937	0.44083	-2.81242
H	1.46184	2.21902	-3.78409
H	2.39175	2.33586	-2.24145
H	0.828865	3.21747	-2.41981
C	6.75714	3.05199	-1.29638
C	5.80464	2.22466	-0.522135
O	4.93411	2.7388	0.166521
H	6.54039	4.12734	-1.11613
H	6.65281	2.84132	-2.38149
H	7.79857	2.83682	-0.976708
N	5.95347	0.90142	-0.618412
C	5.13039	-0.0319703	0.109517
C	5.94296	-1.28994	0.352043
O	7.03573	-1.44787	-0.188895
H	6.69254	0.498446	-1.15061
H	4.88682	0.386451	1.07813
C	3.84293	-0.362216	-0.677019
H	4.09216	-0.801264	-1.66655
H	3.19413	-1.06937	-0.120684
H	3.26823	0.573813	-0.849936
N	5.4277	-2.21644	1.18398
C	6.13179	-3.44259	1.47893
H	4.54389	-2.06888	1.61545
H	5.54529	-4.0733	2.18281
H	7.12081	-3.22555	1.9437
H	6.30895	-4.02788	0.547702
