44
  This energy is 0.131 and Call times are: 52756
C	1.62633	0.937007	2.93083
C	1.60067	0.720652	1.4667
O	2.50833	1.12201	0.751521
H	2.54482	1.50124	3.20268
H	1.63325	-0.0381087	3.46172
H	0.73774	1.5233	3.24666
N	0.539742	0.0717157	0.981211
C	0.352783	-0.175804	-0.426745
C	-1.13762	-0.25015	-0.700087
O	-1.94728	-0.271439	0.224966
H	-0.210694	-0.21277	1.57094
H	0.742938	0.661678	-0.991575
C	1.04762	-1.48747	-0.853336
H	0.64029	-2.34846	-0.281658
H	0.922639	-1.6821	-1.93824
H	2.13575	-1.41358	-0.63685
N	-1.53645	-0.283066	-1.9869
C	-2.93457	-0.348471	-2.3435
H	-0.8666	-0.260864	-2.72167
H	-3.05806	-0.366823	-3.44878
H	-3.48353	0.534947	-1.94414
H	-3.40502	-1.26645	-1.92264
C	9.29584	-0.756384	2.19141
C	8.61785	0.15025	1.23773
O	8.96621	1.31658	1.11637
H	10.0922	-0.196169	2.72792
H	9.75856	-1.60684	1.64794
H	8.56729	-1.14494	2.93391
N	7.6153	-0.375209	0.529794
C	6.83311	0.393729	-0.405872
C	5.44641	-0.21739	-0.477645
O	5.20315	-1.29275	0.0665353
H	7.31669	-1.31502	0.669271
H	6.72143	1.40409	-0.0326071
C	7.49409	0.402023	-1.80168
H	7.59929	-0.633586	-2.18961
H	6.90846	1.00241	-2.52769
H	8.51052	0.846016	-1.72379
N	4.49692	0.463723	-1.14889
C	3.14722	-0.0371561	-1.26548
H	4.71185	1.33424	-1.5791
H	2.51646	0.66537	-1.85356
H	2.68661	-0.16294	-0.258851
H	3.1382	-1.0276	-1.77546
