44
  This energy is 0.101 and Call times are: 56082
C	3.15803	1.32716	0.614944
C	2.09766	0.322276	0.853602
O	2.32047	-0.691541	1.50086
H	4.10362	0.982533	1.08714
H	2.86851	2.30217	1.06024
H	3.32633	1.45435	-0.475281
N	0.900572	0.585617	0.324443
C	-0.217849	-0.317412	0.435046
C	-1.11059	-0.115036	-0.774752
O	-0.91572	0.817204	-1.55236
H	0.745624	1.39519	-0.234526
H	0.142557	-1.33805	0.402858
C	-1.00612	-0.0622767	1.73842
H	-1.38506	0.98157	1.76711
H	-1.86177	-0.760603	1.84196
H	-0.331287	-0.208249	2.61
N	-2.11259	-0.995473	-0.966726
C	-3.00959	-0.885911	-2.09348
H	-2.25188	-1.74568	-0.32887
H	-3.76464	-1.70249	-2.0759
H	-2.44569	-0.950581	-3.05218
H	-3.54733	0.0895964	-2.07438
C	2.8456	2.44872	1.21453
C	3.97885	2.0137	0.367389
O	4.4556	2.75451	-0.481333
H	2.54502	3.47912	0.925075
H	3.14494	2.44865	2.28371
H	1.9792	1.76863	1.07341
N	4.44065	0.77956	0.581939
C	5.51026	0.200489	-0.19212
C	5.31638	-1.30398	-0.21549
O	4.46885	-1.84086	0.49526
H	4.01561	0.173653	1.24833
H	5.44135	0.550523	-1.21454
C	6.88552	0.559893	0.411817
H	6.96069	0.191765	1.45722
H	7.71785	0.131327	-0.18323
H	7.00234	1.66555	0.426315
N	6.09778	-2.0223	-1.04582
C	5.98104	-3.45887	-1.13967
H	6.77511	-1.56955	-1.61617
H	6.70868	-3.86527	-1.8763
H	4.95532	-3.74927	-1.46348
H	6.17892	-3.93468	-0.151952
