44
  This energy is -0.0452 and Call times are: 61802
C	-2.42636	-2.4824	-0.251301
C	-1.07002	-1.95384	-0.519835
O	-0.187076	-2.67348	-0.965866
H	-2.45432	-3.56558	-0.49994
H	-3.17481	-1.95088	-0.875851
H	-2.68191	-2.35327	0.8216
N	-0.871708	-0.662112	-0.246925
C	0.40588	-0.0156046	-0.415322
C	0.494186	1.12436	0.581796
O	-0.488295	1.46454	1.23809
H	-1.58868	-0.099168	0.154215
H	1.19543	-0.716553	-0.174657
C	0.571265	0.512251	-1.85728
H	-0.232415	1.23937	-2.10107
H	1.55678	1.00002	-2.00348
H	0.495251	-0.337645	-2.5702
N	1.68485	1.73906	0.724929
C	1.86534	2.83029	1.65381
H	2.46934	1.4469	0.188001
H	2.91355	3.20136	1.6257
H	1.63738	2.5025	2.69394
H	1.18655	3.67706	1.40211
C	12.0996	-1.44134	0.339681
C	10.6327	-1.54048	0.16742
O	10.0991	-2.60411	-0.116061
H	12.5592	-2.43653	0.154719
H	12.3426	-1.11996	1.3743
H	12.5212	-0.71094	-0.382685
N	9.93789	-0.412987	0.335781
C	8.50876	-0.342708	0.159158
C	8.15468	1.06693	-0.27571
O	8.99872	1.96087	-0.26229
H	10.3905	0.453486	0.526046
H	8.21441	-1.01058	-0.640799
C	7.77265	-0.706854	1.46713
H	8.06632	-0.0154077	2.28548
H	6.67127	-0.669877	1.34021
H	8.05279	-1.73918	1.77072
N	6.89062	1.29694	-0.682237
C	6.46342	2.60568	-1.11912
H	6.22292	0.559921	-0.689965
H	5.39086	2.59134	-1.41346
H	7.06295	2.94221	-1.99582
H	6.59359	3.35402	-0.30414
