44
  This energy is -3.486 and Call times are: 56290
C	1.04633	-3.16586	0.997602
C	0.19132	-1.96734	1.15137
O	-0.762832	-1.96445	1.91687
H	0.658029	-3.97988	1.64758
H	2.08952	-2.93286	1.29796
H	1.03418	-3.51179	-0.0575168
N	0.519532	-0.905375	0.41185
C	-0.242799	0.318278	0.420977
C	-0.0819148	0.985865	-0.931797
O	0.733206	0.563411	-1.74962
H	1.2744	-0.936605	-0.237044
H	-1.29305	0.0839563	0.542182
C	0.236067	1.2582	1.54902
H	1.31083	1.50735	1.41922
H	-0.352447	2.19814	1.57527
H	0.116649	0.746203	2.52879
N	-0.867529	2.04667	-1.20295
C	-0.788777	2.74232	-2.4663
H	-1.524	2.37127	-0.530085
H	-1.51424	3.58492	-2.49717
H	-1.01777	2.05161	-3.30996
H	0.234134	3.15409	-2.62517
C	8.11647	0.723673	-2.39786
C	6.97182	1.11106	-1.54295
O	6.63876	2.28205	-1.42349
H	8.56829	1.63685	-2.84264
H	7.77402	0.0567176	-3.21678
H	8.88627	0.200168	-1.79252
N	6.33566	0.118034	-0.917194
C	5.23099	0.342299	-0.0183207
C	5.21672	-0.779705	1.0027
O	5.95072	-1.75766	0.874039
H	6.64401	-0.825987	-0.992011
H	5.39159	1.26737	0.5212
C	3.8935	0.390071	-0.78908
H	3.72322	-0.562729	-1.33426
H	3.03661	0.576056	-0.109617
H	3.9295	1.21304	-1.53592
N	4.3805	-0.659142	2.05256
C	4.30229	-1.67423	3.07708
H	3.79726	0.141477	2.14151
H	3.55817	-1.39213	3.85421
H	5.29129	-1.81004	3.57177
H	3.99826	-2.65234	2.63889
