44
  This energy is -2.1517 and Call times are: 61746
C	1.63496	1.57259	-2.63942
C	0.892346	0.429686	-2.06198
O	0.462468	-0.469304	-2.77151
H	1.69128	1.45395	-3.74334
H	2.66587	1.60601	-2.22852
H	1.11336	2.52483	-2.40649
N	0.720939	0.44137	-0.738024
C	-0.0174925	-0.579469	-0.0371912
C	-0.615548	0.0419888	1.21088
O	-0.301082	1.17769	1.56159
H	1.04114	1.20067	-0.178733
H	-0.840097	-0.914282	-0.656751
C	0.898516	-1.76609	0.334419
H	1.7367	-1.42497	0.978713
H	0.33856	-2.565	0.862352
H	1.33125	-2.20022	-0.593276
N	-1.50459	-0.690875	1.90983
C	-2.12971	-0.180158	3.10757
H	-1.74949	-1.60629	1.60799
H	-2.82915	-0.930952	3.5369
H	-2.70486	0.747799	2.88536
H	-1.36261	0.0651301	3.87733
C	8.63049	2.31496	-0.775177
C	7.5769	1.78397	0.118775
O	7.449	2.19865	1.2625
H	9.22658	3.07727	-0.228
H	8.17153	2.79023	-1.66749
H	9.30601	1.49544	-1.09943
N	6.78736	0.836268	-0.391993
C	5.74587	0.193284	0.369854
C	5.55112	-1.20621	-0.182461
O	6.10683	-1.556	-1.22195
H	6.92995	0.48001	-1.31102
H	6.06676	0.092093	1.39913
C	4.42842	0.995238	0.28966
H	4.09322	1.0903	-0.765164
H	3.62239	0.51766	0.883605
H	4.59644	2.01823	0.691635
N	4.75801	-2.04707	0.510327
C	4.51847	-3.39986	0.0645149
H	4.32031	-1.74709	1.35146
H	3.84088	-3.93168	0.768267
H	5.47482	-3.96799	0.00206732
H	4.04823	-3.40343	-0.945436
