44
  This energy is -6.4456 and Call times are: 58846
C	0.271836	1.12881	3.28094
C	-0.0236803	0.0731976	2.28621
O	-0.169362	-1.0931	2.62523
H	0.34335	0.671405	4.29166
H	-0.538913	1.88736	3.28632
H	1.23738	1.62175	3.04045
N	-0.117797	0.466369	1.01384
C	-0.358167	-0.451759	-0.0714396
C	0.273265	0.12268	-1.32558
O	0.720318	1.26798	-1.33774
H	0.043822	1.41258	0.748466
H	0.138325	-1.39092	0.138562
C	-1.87207	-0.674429	-0.280643
H	-2.38023	0.287228	-0.506527
H	-2.06989	-1.39026	-1.10464
H	-2.31458	-1.08755	0.652019
N	0.332101	-0.668647	-2.41478
C	0.920065	-0.209713	-3.65166
H	-0.0312669	-1.59391	-2.38432
H	0.873642	-1.00492	-4.42801
H	1.98785	0.0693307	-3.49921
H	0.380346	0.686465	-4.03469
C	7.00274	0.89957	-2.58249
C	6.45358	1.08282	-1.22014
O	6.99068	1.83281	-0.416737
H	7.92276	1.51368	-2.6933
H	6.2602	1.22449	-3.34132
H	7.2604	-0.167351	-2.7509
N	5.35283	0.387185	-0.925466
C	4.72732	0.428266	0.372843
C	4.0252	-0.896954	0.601728
O	3.91463	-1.71648	-0.308136
H	4.95067	-0.250444	-1.57627
H	5.49108	0.524421	1.13445
C	3.72154	1.59675	0.463929
H	2.93183	1.49292	-0.31042
H	3.24338	1.64748	1.46358
H	4.25566	2.55548	0.285379
N	3.53877	-1.14215	1.83432
C	2.86032	-2.3783	2.14708
H	3.64156	-0.468477	2.55866
H	2.53531	-2.39029	3.21078
H	3.53318	-3.24973	1.97637
H	1.95987	-2.50615	1.50366
