44
  This energy is -3.1405 and Call times are: 60914
C	1.48718	0.884843	3.01961
C	0.559395	1.14947	1.89696
O	-0.254265	2.06138	1.94973
H	1.28753	1.6086	3.83948
H	2.53861	1.00381	2.68333
H	1.33703	-0.145556	3.40539
N	0.662193	0.34156	0.839093
C	-0.20032	0.447716	-0.311282
C	-0.324037	-0.928203	-0.938256
O	0.384062	-1.85907	-0.559048
H	1.30163	-0.42189	0.827815
H	-1.19034	0.745632	0.0107986
C	0.364207	1.45938	-1.3326
H	1.37551	1.14861	-1.67129
H	-0.298094	1.56038	-2.21673
H	0.453648	2.45705	-0.849894
N	-1.23946	-1.09081	-1.91375
C	-1.43203	-2.36568	-2.56476
H	-1.80597	-0.326735	-2.20414
H	-2.22894	-2.29619	-3.33762
H	-1.72852	-3.14385	-1.82461
H	-0.491657	-2.70035	-3.05958
C	4.48432	2.64727	-0.442163
C	4.96015	1.45542	0.295568
O	4.51468	1.17489	1.39978
H	3.72869	3.1825	0.172972
H	4.01588	2.34184	-1.40134
H	5.33241	3.33407	-0.647402
N	5.89399	0.71711	-0.308768
C	6.48523	-0.447226	0.302221
C	7.89047	-0.607331	-0.246638
O	8.28229	0.082975	-1.18561
H	6.27624	0.981076	-1.18971
H	6.57225	-0.28536	1.36939
C	5.64378	-1.70953	0.0127589
H	5.56303	-1.88198	-1.08167
H	6.08123	-2.61055	0.489532
H	4.61745	-1.56687	0.416032
N	8.68898	-1.5229	0.336562
C	10.0436	-1.74134	-0.114497
H	8.35539	-2.06906	1.09781
H	10.5368	-2.53352	0.490892
H	10.6433	-0.806743	-0.0239439
H	10.056	-2.05736	-1.18273
