44
  This energy is -6.2814 and Call times are: 61035
C	-2.98381	1.26154	1.27204
C	-1.62521	1.44318	0.713163
O	-1.22791	2.54511	0.360579
H	-3.51137	2.24005	1.2804
H	-2.92165	0.877883	2.31209
H	-3.56168	0.547038	0.648626
N	-0.871527	0.345437	0.616727
C	0.455615	0.356396	0.0535815
C	0.726068	-1.01045	-0.546529
O	-0.0497128	-1.94558	-0.358348
H	-1.2236	-0.551147	0.869797
H	0.495067	1.07677	-0.753964
C	1.50947	0.692735	1.13131
H	1.47656	-0.0520239	1.9549
H	2.53417	0.717871	0.707205
H	1.2873	1.6934	1.56219
N	1.83706	-1.15591	-1.29523
C	2.17366	-2.41832	-1.91104
H	2.4505	-0.386524	-1.43951
H	3.12285	-2.33523	-2.48493
H	1.36856	-2.74135	-2.61015
H	2.29893	-3.21137	-1.1387
C	5.65781	1.30267	3.1896
C	6.53516	0.80446	2.10646
O	7.74903	0.946407	2.15935
H	6.27921	1.7978	3.96714
H	5.10626	0.458435	3.65416
H	4.9325	2.0402	2.78581
N	5.92854	0.201217	1.08153
C	6.64473	-0.297219	-0.0661603
C	5.71322	-0.248816	-1.26262
O	4.51942	0.00921279	-1.1213
H	4.93637	0.129613	1.03334
H	7.47864	0.359717	-0.279819
C	7.14006	-1.7398	0.176418
H	6.28399	-2.41624	0.385257
H	7.70504	-2.12991	-0.694866
H	7.81355	-1.7527	1.06106
N	6.24338	-0.489498	-2.47795
C	5.43509	-0.459767	-3.67459
H	7.21236	-0.692447	-2.57263
H	6.05304	-0.682566	-4.57221
H	4.96995	0.543584	-3.80957
H	4.61747	-1.21418	-3.61548
