44
  This energy is -5.5801 and Call times are: 61529
C	2.18361	-0.126486	-2.70712
C	0.839089	-0.285781	-2.10878
O	-0.150649	-0.446232	-2.80955
H	2.0991	-0.161767	-3.81505
H	2.85163	-0.947308	-2.37134
H	2.62097	0.850309	-2.41101
N	0.77363	-0.241836	-0.776049
C	-0.469116	-0.338728	-0.0516488
C	-0.316487	0.420244	1.25304
O	0.781135	0.843163	1.61093
H	1.58236	-0.0696296	-0.22092
H	-1.25216	0.148931	-0.618808
C	-0.835783	-1.81421	0.219944
H	-0.0376381	-2.31209	0.810804
H	-1.79783	-1.90262	0.76508
H	-0.934518	-2.35203	-0.748223
N	-1.42426	0.618501	1.99437
C	-1.37682	1.3346	3.24782
H	-2.30416	0.27229	1.68618
H	-2.38867	1.39269	3.70608
H	-1.00193	2.37233	3.09338
H	-0.695049	0.824588	3.9663
C	4.04788	0.551186	2.24454
C	4.55698	0.177129	0.905858
O	3.8193	-0.313953	0.062601
H	2.968	0.295759	2.31135
H	4.16994	1.64239	2.40921
H	4.59817	-0.00516877	3.0324
N	5.85309	0.403316	0.679348
C	6.50216	0.0526674	-0.559325
C	7.9629	-0.231276	-0.264028
O	8.44065	0.012254	0.842387
H	6.44977	0.765763	1.38961
H	6.0673	-0.861313	-0.944236
C	6.37034	1.19242	-1.59317
H	6.82569	2.12755	-1.203
H	6.8542	0.928914	-2.55596
H	5.29333	1.38847	-1.78796
N	8.70829	-0.764736	-1.25186
C	10.1063	-1.07377	-1.06127
H	8.30288	-0.958561	-2.13908
H	10.5437	-1.50486	-1.98865
H	10.2366	-1.81143	-0.236554
H	10.6793	-0.155651	-0.796978
