44
  This energy is -7.7623 and Call times are: 60509
C	0.172623	2.53143	-2.38218
C	-0.553343	1.76725	-1.34287
O	-1.62512	2.15886	-0.90204
H	-0.4017	3.45021	-2.6309
H	0.284129	1.91766	-3.30065
H	1.17675	2.82507	-2.00991
N	0.026546	0.641349	-0.920438
C	-0.537803	-0.1862	0.116496
C	0.599029	-0.900929	0.822421
O	1.74472	-0.853641	0.378719
H	0.918819	0.356957	-1.25931
H	-1.02741	0.44328	0.849075
C	-1.53542	-1.20673	-0.473863
H	-1.03112	-1.85967	-1.21777
H	-1.98726	-1.84072	0.316338
H	-2.35426	-0.661738	-0.992347
N	0.307444	-1.57736	1.95089
C	1.32549	-2.28331	2.69346
H	-0.624795	-1.60066	2.29652
H	0.888139	-2.7758	3.58978
H	2.12185	-1.58181	3.03256
H	1.80194	-3.0664	2.06029
C	8.78538	1.06152	1.53932
C	7.36159	0.659183	1.58533
O	6.80028	0.438374	2.64956
H	9.19111	1.09527	2.57377
H	8.88397	2.06825	1.08158
H	9.37152	0.327436	0.94718
N	6.73711	0.551325	0.410265
C	5.3641	0.127845	0.291606
C	5.19286	-0.54994	-1.05482
O	6.08983	-0.516972	-1.8951
H	7.21852	0.694542	-0.449726
H	5.15098	-0.610965	1.05408
C	4.403	1.33008	0.41875
H	4.61432	2.08349	-0.369763
H	3.34209	1.01506	0.342912
H	4.55128	1.81544	1.40808
N	4.03124	-1.19185	-1.28847
C	3.78065	-1.8701	-2.53881
H	3.31893	-1.21101	-0.594699
H	2.77089	-2.33662	-2.53766
H	4.53638	-2.67069	-2.70973
H	3.83594	-1.15541	-3.39163
