44
  This energy is 0.3099 and Call times are: 60674
C	-0.287014	2.94568	-1.8312
C	0.13237	2.19634	-0.625481
O	0.852417	2.70931	0.219981
H	0.16532	3.96094	-1.80848
H	-1.39258	3.04526	-1.8546
H	0.0560297	2.41985	-2.74713
N	-0.315347	0.94302	-0.520105
C	0.0422916	0.0754864	0.574445
C	-0.00116748	-1.35685	0.0763792
O	-0.459701	-1.62435	-1.03263
H	-0.867167	0.52581	-1.23655
H	1.06194	0.281623	0.875191
C	-0.922342	0.264021	1.76574
H	-1.9672	0.0424506	1.46044
H	-0.649129	-0.388559	2.62015
H	-0.879996	1.32092	2.10855
N	0.486651	-2.31601	0.887599
C	0.49201	-3.70632	0.496209
H	0.857292	-2.07951	1.77966
H	0.933411	-4.33879	1.29769
H	1.08954	-3.85048	-0.433012
H	-0.544761	-4.06307	0.298789
C	3.9334	1.22838	-2.23675
C	4.40839	0.95499	-0.861684
O	3.83894	1.43046	0.110977
H	3.05187	1.9043	-2.19322
H	3.63595	0.281405	-2.73425
H	4.7346	1.72031	-2.82764
N	5.48286	0.170498	-0.749961
C	6.087	-0.150218	0.519173
C	7.56456	-0.40561	0.288571
O	8.01971	-0.484565	-0.850861
H	5.95991	-0.175671	-1.55273
H	6.00655	0.704447	1.17925
C	5.41581	-1.38865	1.15244
H	5.50729	-2.26837	0.480291
H	5.86298	-1.63747	2.13664
H	4.33393	-1.18208	1.30478
N	8.35384	-0.533022	1.37338
C	9.77307	-0.772106	1.25169
H	7.96788	-0.461988	2.2872
H	10.2468	-0.846533	2.25531
H	10.2645	0.056952	0.692769
H	9.96599	-1.72138	0.701412
