44
  This energy is -2.8404 and Call times are: 62195
C	2.19095	-1.79283	2.0244
C	1.49291	-0.54364	1.64571
O	1.50683	0.436186	2.37794
H	2.66241	-1.66198	3.02264
H	2.98164	-2.02961	1.28178
H	1.46839	-2.63448	2.07578
N	0.854182	-0.55273	0.473394
C	0.094774	0.573039	-0.0108609
C	-1.01005	0.0475831	-0.90798
O	-1.03956	-1.13472	-1.24415
H	0.817596	-1.3713	-0.09271
H	-0.378723	1.0711	0.826017
C	0.999296	1.55662	-0.785226
H	1.47706	1.04886	-1.65007
H	0.428872	2.43473	-1.15138
H	1.80503	1.92213	-0.111763
N	-1.95523	0.919115	-1.31182
C	-3.04803	0.508629	-2.16239
H	-1.91664	1.8709	-1.02602
H	-3.71869	1.36807	-2.38329
H	-3.65072	-0.288757	-1.67023
H	-2.66479	0.105535	-3.12768
C	4.98539	-2.9118	-0.584281
C	5.07159	-1.44698	-0.389275
O	4.11367	-0.720759	-0.616027
H	3.97248	-3.17327	-0.960437
H	5.15775	-3.43686	0.378708
H	5.74129	-3.24413	-1.32673
N	6.24336	-0.973505	0.0410082
C	6.49306	0.432935	0.236286
C	7.97377	0.684596	0.0223807
O	8.76007	-0.252209	-0.10343
H	7.02633	-1.57262	0.181996
H	5.95774	0.998619	-0.516078
C	6.06738	0.877363	1.6528
H	6.62396	0.304703	2.42502
H	6.2418	1.96141	1.81075
H	4.98237	0.676598	1.78986
N	8.38878	1.96552	-0.0324132
C	9.77831	2.30175	-0.238179
H	7.73696	2.71	0.0674354
H	9.91788	3.40517	-0.253159
H	10.143	1.88919	-1.20673
H	10.4098	1.87929	0.576643
