44
  This energy is 0.1243 and Call times are: 50982
C	2.10606	2.63318	0.862303
C	1.73836	1.48686	0.000964644
O	2.31319	1.28168	-1.05917
H	2.91899	3.21348	0.374173
H	2.46525	2.27111	1.84852
H	1.22881	3.29782	1.0099
N	0.75303	0.703023	0.444909
C	0.255583	-0.424999	-0.302535
C	-1.20093	-0.632505	0.067674
O	-1.71003	-0.00733011	0.995946
H	0.267111	0.90656	1.29009
H	0.290053	-0.195855	-1.36033
C	1.07837	-1.69568	0.00342298
H	1.03469	-1.9372	1.08684
H	0.713832	-2.56818	-0.576569
H	2.14203	-1.5183	-0.267737
N	-1.91151	-1.51592	-0.660804
C	-3.3055	-1.77492	-0.385289
H	-1.48317	-2.00916	-1.41068
H	-3.71225	-2.53104	-1.09244
H	-3.90583	-0.841837	-0.486422
H	-3.43634	-2.15885	0.652314
C	7.75198	-2.06522	-1.44156
C	6.53015	-1.85455	-0.632921
O	5.81629	-2.79337	-0.30823
H	7.85377	-3.14662	-1.67835
H	8.64779	-1.73562	-0.874429
H	7.68535	-1.49407	-2.39152
N	6.25769	-0.594309	-0.286583
C	5.0819	-0.227157	0.462598
C	4.70533	1.1933	0.0856756
O	5.45459	1.88129	-0.604976
H	6.82613	0.16386	-0.593042
H	4.25844	-0.867248	0.171357
C	5.33991	-0.334008	1.98156
H	6.17774	0.330423	2.28259
H	4.43768	-0.0671719	2.56918
H	5.62156	-1.37978	2.2333
N	3.52257	1.66469	0.527116
C	3.07768	3.00265	0.21388
H	2.9281	1.09157	1.08138
H	2.08154	3.20201	0.666868
H	2.99543	3.14123	-0.888532
H	3.79793	3.75778	0.603954
