44
  This energy is 0.1153 and Call times are: 59130
C	1.7319	2.97335	-0.521943
C	0.903935	2.07737	0.316413
O	0.727438	2.3068	1.50495
H	2.12983	3.79995	0.105964
H	1.11891	3.40657	-1.34005
H	2.58433	2.41044	-0.957354
N	0.371041	1.01705	-0.29525
C	-0.422034	0.0325834	0.397869
C	-0.264093	-1.29376	-0.321459
O	0.312107	-1.35745	-1.40573
H	0.557337	0.821447	-1.25384
H	-0.0347968	-0.0963297	1.40089
C	-1.90786	0.451772	0.440696
H	-2.30851	0.573907	-0.588187
H	-2.52675	-0.291472	0.983917
H	-1.9987	1.42845	0.964336
N	-0.768804	-2.39213	0.274246
C	-0.661101	-3.69828	-0.332843
H	-1.22804	-2.32116	1.15353
H	-1.13643	-4.47131	0.310364
H	0.407716	-3.97522	-0.481882
H	-1.16321	-3.71214	-1.32724
C	10.3453	-0.862669	1.21475
C	9.22011	-1.03892	0.269213
O	9.33158	-1.74634	-0.722531
H	11.2241	-1.43828	0.851202
H	10.0618	-1.23684	2.22092
H	10.6223	0.210424	1.28416
N	8.09271	-0.385637	0.559997
C	6.92685	-0.424684	-0.287237
C	6.16379	0.87338	-0.101902
O	6.47611	1.66651	0.784167
H	8.03054	0.218907	1.349
H	7.23935	-0.470084	-1.32305
C	6.03147	-1.6337	0.0617945
H	5.70198	-1.58206	1.12143
H	5.13737	-1.6827	-0.592961
H	6.61268	-2.57194	-0.0732867
N	5.14353	1.12486	-0.9456
C	4.36391	2.33689	-0.848885
H	4.90848	0.472879	-1.65886
H	3.57233	2.3587	-1.63001
H	5.01257	3.23285	-0.982175
H	3.87416	2.41064	0.149038
