44
  This energy is -3.2918 and Call times are: 60028
C	0.444859	-3.44474	-0.220288
C	-0.0124487	-2.15155	-0.77676
O	-0.339475	-2.04791	-1.95095
H	0.443446	-4.21188	-1.02489
H	-0.236774	-3.77441	0.591769
H	1.47586	-3.34588	0.180146
N	-0.043378	-1.11918	0.0691952
C	-0.424621	0.210973	-0.335651
C	0.289454	1.2021	0.563975
O	0.91074	0.82003	1.5538
H	0.264825	-1.20974	1.01189
H	-0.0817492	0.388509	-1.34736
C	-1.95466	0.399051	-0.241518
H	-2.30552	0.227354	0.798412
H	-2.26219	1.41495	-0.563854
H	-2.45676	-0.341596	-0.901582
N	0.223612	2.50682	0.233248
C	0.876622	3.52168	1.02687
H	-0.280493	2.79619	-0.573733
H	0.706143	4.53115	0.591983
H	1.97494	3.33981	1.07055
H	0.484356	3.51807	2.06958
C	4.67713	3.17474	1.30598
C	4.54772	2.16468	0.231654
O	3.79726	2.34301	-0.717781
H	3.99928	4.02909	1.09044
H	5.72147	3.54837	1.3562
H	4.39608	2.73097	2.28432
N	5.28824	1.06149	0.36197
C	5.23772	-0.0287136	-0.580085
C	5.58067	-1.30856	0.158791
O	5.99814	-1.27584	1.3148
H	5.86354	0.912561	1.16116
H	4.22621	-0.132416	-0.952522
C	6.22308	0.203857	-1.74637
H	7.2623	0.299794	-1.36577
H	6.18355	-0.622147	-2.48575
H	5.95807	1.14956	-2.26767
N	5.40299	-2.47412	-0.493835
C	5.69735	-3.74271	0.130841
H	5.06037	-2.48051	-1.42745
H	5.48595	-4.58297	-0.566653
H	5.07797	-3.88285	1.04627
H	6.76971	-3.79496	0.428242
