44
  This energy is -2.0446 and Call times are: 62335
C	-3.05424	-0.697549	-1.51584
C	-2.11792	-0.780039	-0.372306
O	-2.48804	-1.18549	0.720869
H	-4.0631	-1.03137	-1.1893
H	-2.70836	-1.35399	-2.34178
H	-3.12246	0.34933	-1.87982
N	-0.862838	-0.388005	-0.603491
C	0.151042	-0.370307	0.421347
C	1.15229	0.716326	0.0774149
O	1.11047	1.29021	-1.00915
H	-0.58674	-0.0218176	-1.48754
H	-0.302344	-0.103327	1.36781
C	0.854319	-1.74137	0.525368
H	1.32861	-2.01089	-0.442331
H	1.62777	-1.74473	1.32053
H	0.101549	-2.52236	0.76981
N	2.07684	1.03126	1.00588
C	3.06678	2.05614	0.769592
H	2.09214	0.558645	1.88079
H	3.73585	2.16735	1.65118
H	2.57712	3.03783	0.575185
H	3.6928	1.80122	-0.115991
C	6.84684	0.418833	2.91601
C	7.12752	0.724371	1.49509
O	6.33364	1.36034	0.815596
H	5.8532	0.834227	3.19167
H	7.6211	0.877571	3.56627
H	6.83387	-0.679969	3.07582
N	8.28311	0.267561	1.0069
C	8.67573	0.448447	-0.368484
C	9.57975	-0.705927	-0.758033
O	9.99132	-1.49695	0.0884922
H	8.90026	-0.283701	1.56106
H	7.79768	0.397931	-1.00023
C	9.40489	1.79617	-0.561387
H	10.3116	1.84424	0.0786613
H	9.70009	1.95347	-1.61904
H	8.72759	2.6259	-0.262787
N	9.90443	-0.834166	-2.05963
C	10.7548	-1.90507	-2.52459
H	9.55831	-0.18659	-2.73039
H	10.904	-1.83927	-3.62487
H	10.302	-2.89585	-2.29098
H	11.7527	-1.85678	-2.03169
