44
  This energy is 0.1175 and Call times are: 55231
C	-0.868121	-1.16607	-3.16217
C	-0.0110773	-0.366775	-2.25788
O	1.04029	0.120936	-2.64926
H	-0.385648	-1.23302	-4.16148
H	-1.86143	-0.682854	-3.27433
H	-0.999811	-2.19165	-2.75727
N	-0.448794	-0.214975	-1.00579
C	0.296109	0.499793	0.000584725
C	-0.057671	-0.0846614	1.35514
O	-0.974796	-0.895296	1.47119
H	-1.28633	-0.652301	-0.69092
H	1.35512	0.335634	-0.154928
C	-0.0296593	2.00893	-0.039795
H	-1.11427	2.17854	0.130187
H	0.548117	2.57231	0.72132
H	0.2297	2.41367	-1.04243
N	0.672763	0.310142	2.41656
C	0.412502	-0.196599	3.74384
H	1.41351	0.963793	2.30209
H	1.11883	0.247082	4.47968
H	0.528148	-1.30437	3.771
H	-0.626304	0.0499633	4.062
C	4.70292	0.608477	-2.84981
C	3.40276	0.476773	-2.15455
O	2.35998	0.825169	-2.69088
H	4.53961	1.06321	-3.85101
H	5.16987	-0.390324	-2.98057
H	5.38493	1.26151	-2.26544
N	3.43791	-0.0362462	-0.92249
C	2.2598	-0.186051	-0.105081
C	2.67938	-0.0973832	1.35014
O	3.86829	-0.0894255	1.66341
H	4.2989	-0.277165	-0.483716
H	1.58467	0.638578	-0.296946
C	1.56123	-1.5345	-0.385996
H	2.25003	-2.38117	-0.179226
H	0.644895	-1.6557	0.22733
H	1.27014	-1.58068	-1.45813
N	1.70531	-0.0196766	2.27812
C	2.00926	0.07333	3.68706
H	0.749057	-0.0233909	2.0049
H	1.07496	0.128259	4.28815
H	2.61616	0.983362	3.89872
H	2.59092	-0.815398	4.02319
