44
  This energy is -5.4527 and Call times are: 54450
C	-0.415639	-2.45799	-2.42863
C	0.0148603	-1.10771	-2.00136
O	0.677995	-0.391799	-2.73901
H	-0.0272896	-2.66116	-3.45028
H	-1.52414	-2.51832	-2.44694
H	-0.0153374	-3.22529	-1.73285
N	-0.357875	-0.725511	-0.777688
C	0.0214015	0.542642	-0.206289
C	0.0799655	0.383558	1.3013
O	-0.329905	-0.641368	1.84282
H	-0.862674	-1.33538	-0.173444
H	1.01761	0.802168	-0.542202
C	-0.986116	1.64655	-0.595552
H	-2.0064	1.38577	-0.241941
H	-0.69751	2.63079	-0.173045
H	-1.01838	1.74003	-1.70306
N	0.60272	1.39849	2.0173
C	0.704409	1.33434	3.45665
H	0.932904	2.21808	1.56087
H	1.16107	2.26472	3.86048
H	1.33556	0.470539	3.76771
H	-0.302546	1.20951	3.91665
C	7.33619	2.6804	0.604077
C	6.53078	1.83524	-0.305966
O	6.31989	2.173	-1.46262
H	7.655	3.59939	0.0658601
H	8.23947	2.12873	0.939475
H	6.73244	2.9733	1.48882
N	6.05339	0.698736	0.206717
C	5.21766	-0.205721	-0.542993
C	4.31647	-0.936901	0.434146
O	4.48881	-0.834861	1.64724
H	6.19924	0.457291	1.16185
H	4.57907	0.364536	-1.20604
C	6.07315	-1.20991	-1.3461
H	6.72079	-1.80251	-0.665354
H	5.44134	-1.90301	-1.93851
H	6.7303	-0.652505	-2.04881
N	3.32203	-1.68999	-0.0757328
C	2.41132	-2.4175	0.777203
H	3.19593	-1.75691	-1.05996
H	1.66502	-2.9758	0.170102
H	1.86337	-1.72044	1.45184
H	2.9648	-3.14762	1.41102
