44
  This energy is 0.1344 and Call times are: 57367
C	0.324953	-3.44226	-0.397442
C	0.48928	-2.20013	0.390763
O	0.791241	-2.23759	1.57559
H	0.49904	-4.32085	0.261072
H	1.05843	-3.46667	-1.23061
H	-0.704492	-3.50052	-0.809682
N	0.288191	-1.05259	-0.261224
C	0.369444	0.23534	0.381576
C	-0.549578	1.19086	-0.355939
O	-1.07643	0.864444	-1.41782
H	0.00284631	-1.03949	-1.21531
H	0.000874619	0.151986	1.39639
C	1.82014	0.765125	0.374077
H	2.19508	0.860821	-0.667219
H	1.89822	1.75	0.878502
H	2.47611	0.0463941	0.912113
N	-0.770764	2.39896	0.198684
C	-1.63492	3.37176	-0.428283
H	-0.338722	2.64332	1.06048
H	-1.68857	4.30074	0.181094
H	-2.66652	2.96619	-0.540545
H	-1.25658	3.63829	-1.44167
C	1.62721	0.911769	0.490423
C	2.70543	0.302904	-0.320682
O	2.45124	-0.352357	-1.3219
H	0.641929	0.652205	0.0457911
H	1.73568	2.01667	0.503609
H	1.66542	0.524359	1.53039
N	3.95474	0.508008	0.103041
C	5.10567	-0.0563149	-0.556837
C	6.19675	-0.250838	0.479156
O	6.07592	0.205663	1.61437
H	4.14355	1.00918	0.942706
H	4.85102	-1.03474	-0.944716
C	5.59698	0.866005	-1.69402
H	5.86835	1.8666	-1.295
H	6.47447	0.435846	-2.21891
H	4.78003	1.00067	-2.43617
N	7.29134	-0.945637	0.111544
C	8.37855	-1.18571	1.0316
H	7.3691	-1.3107	-0.810278
H	9.18521	-1.7747	0.542082
H	8.02175	-1.75252	1.92194
H	8.81297	-0.223164	1.38647
