44
  This energy is -1.2068 and Call times are: 54742
C	0.495667	0.586414	3.39457
C	-0.244093	0.797726	2.12996
O	-1.32486	1.37059	2.11698
H	-0.0952706	1.00188	4.23959
H	1.47761	1.10306	3.35446
H	0.655944	-0.498724	3.56743
N	0.331584	0.329145	1.02027
C	-0.286715	0.421307	-0.278871
C	0.205855	-0.740755	-1.12062
O	1.11795	-1.46361	-0.724032
H	1.19216	-0.171119	1.05214
H	-1.35876	0.311241	-0.172892
C	0.0551464	1.76538	-0.958456
H	1.15431	1.8741	-1.07697
H	-0.426448	1.85428	-1.95379
H	-0.307377	2.60144	-0.321324
N	-0.396768	-0.953037	-2.30713
C	0.00101345	-2.03806	-3.17355
H	-1.13576	-0.359896	-2.60903
H	-0.612918	-2.046	-4.10105
H	-0.127489	-3.01827	-2.65981
H	1.0722	-1.93766	-3.46273
C	9.8035	-0.57707	-1.66095
C	8.56266	0.200412	-1.44415
O	8.39861	1.29122	-1.97296
H	10.4862	-0.00195004	-2.32349
H	9.56708	-1.54816	-2.14451
H	10.3138	-0.761361	-0.692085
N	7.64739	-0.353215	-0.645295
C	6.40873	0.301672	-0.305578
C	5.97431	-0.18858	1.06282
O	6.55498	-1.12389	1.61028
H	7.81267	-1.22315	-0.189489
H	6.57838	1.3683	-0.227198
C	5.31955	0.00249355	-1.35886
H	5.13764	-1.09094	-1.43212
H	4.36487	0.512445	-1.11582
H	5.66216	0.36249	-2.35353
N	4.94039	0.442139	1.65376
C	4.46064	0.048673	2.95806
H	4.48586	1.19955	1.19681
H	3.60568	0.68732	3.27174
H	5.26831	0.14562	3.71935
H	4.12096	-1.0123	2.94832
