44
  This energy is 0.1207 and Call times are: 53478
C	2.9434	-0.171306	1.84926
C	1.76486	-0.802648	1.21396
O	1.67936	-2.01811	1.10559
H	3.66336	-0.961419	2.15463
H	2.63298	0.399456	2.7496
H	3.44385	0.513215	1.13227
N	0.815356	0.0245481	0.770605
C	-0.369445	-0.438723	0.0922332
C	-0.831663	0.654698	-0.852404
O	-0.319054	1.77184	-0.821572
H	0.918089	1.01343	0.829217
H	-0.120699	-1.30264	-0.511425
C	-1.48349	-0.787277	1.1035
H	-1.74642	0.101477	1.71589
H	-2.39637	-1.15841	0.594156
H	-1.12047	-1.58355	1.78944
N	-1.81274	0.3531	-1.72565
C	-2.31332	1.32802	-2.66646
H	-2.21227	-0.557554	-1.73825
H	-3.11684	0.888771	-3.29784
H	-1.4966	1.68345	-3.33572
H	-2.73084	2.2118	-2.13191
C	1.77601	0.171265	3.12424
C	2.89198	-0.231203	2.23892
O	3.94927	-0.639707	2.699
H	2.08682	0.0509459	4.1848
H	0.88799	-0.467833	2.93527
H	1.51054	1.23467	2.946
N	2.67749	-0.12028	0.925878
C	3.6832	-0.432643	-0.0587735
C	3.42411	0.420129	-1.28646
O	2.39545	1.08639	-1.38482
H	1.82635	0.252533	0.567516
H	4.65729	-0.157054	0.325687
C	3.64995	-1.93274	-0.42463
H	2.65413	-2.21365	-0.828953
H	4.42892	-2.18859	-1.17181
H	3.83396	-2.53772	0.489963
N	4.3625	0.425228	-2.25362
C	4.20512	1.21081	-3.4554
H	5.19012	-0.117196	-2.15412
H	5.08232	1.08204	-4.1271
H	4.10929	2.29281	-3.20763
H	3.28996	0.901342	-4.01025
