44
  This energy is -1.3945 and Call times are: 60815
C	0.034214	0.40015	3.45708
C	-0.122752	-0.432003	2.24298
O	-0.174436	-1.65211	2.31419
H	0.106439	-0.260429	4.34831
H	-0.842245	1.07108	3.57713
H	0.959405	1.01011	3.38596
N	-0.200991	0.221663	1.08153
C	-0.312036	-0.452505	-0.188008
C	0.314256	0.431983	-1.24961
O	0.654497	1.58434	-0.98878
H	-0.116241	1.21292	1.03578
H	0.259604	-1.37164	-0.155592
C	-1.78942	-0.745348	-0.529781
H	-2.3741	0.198198	-0.573539
H	-1.88726	-1.27667	-1.49862
H	-2.22955	-1.38725	0.264326
N	0.489436	-0.0938783	-2.47794
C	1.08237	0.671006	-3.55012
H	0.211535	-1.02954	-2.66867
H	1.14053	0.0642828	-4.48056
H	2.11302	0.995095	-3.27807
H	0.478668	1.58279	-3.76301
C	5.35079	2.43615	2.42375
C	5.53217	1.89036	1.05979
O	6.02199	2.56793	0.166829
H	5.70266	3.49042	2.44726
H	5.94079	1.84398	3.15449
H	4.27746	2.40914	2.70712
N	5.13175	0.631562	0.866204
C	5.20423	-0.0224022	-0.416617
C	4.10056	-1.06132	-0.480917
O	3.44044	-1.34151	0.517799
H	4.69729	0.106402	1.59236
H	5.01138	0.701862	-1.1982
C	6.58423	-0.68507	-0.620849
H	6.77804	-1.43575	0.174741
H	6.6574	-1.1802	-1.61081
H	7.37699	0.0923625	-0.561939
N	3.86836	-1.6542	-1.6686
C	2.83487	-2.65073	-1.82675
H	4.41026	-1.41128	-2.46636
H	2.80009	-3.01812	-2.87606
H	1.83719	-2.22594	-1.57091
H	3.02186	-3.52071	-1.15645
