15
  This energy is -0.00101982 and Call times are: 93
C	-0.272576	0.138455	-0.294997
O	0.166685	1.13224	0.256988
O	0.12118	-1.1313	0.0638169
H	-1.00821	0.166209	-1.11291
H	-0.314899	-1.82966	-0.466023
C	3.39788	-1.43199	0.57019
O	2.82411	-2.44069	0.961209
O	4.43231	-0.859935	1.25838
H	3.13433	-0.904471	-0.357621
H	4.79036	-0.0536364	0.815991
C	4.90604	1.87954	-1.19364
O	3.98211	1.27287	-1.70197
O	5.46366	1.45103	0.00134764
H	5.37009	2.78247	-1.60673
H	6.20145	1.99977	0.33532
