25
  This energy is 0.000457976 and Call times are: 8313
C	0.787199	1.49167	1.15244
O	0.145954	0.650036	0.46287
O	0.922643	2.76197	0.832682
H	1.27785	1.20335	2.08104
H	0.445029	3.03146	-0.0357941
C	-1.1166	2.58155	-2.01962
O	-0.384554	3.31809	-1.32717
O	-1.26916	1.26574	-1.90805
H	-1.72986	2.98451	-2.8252
H	-0.727656	0.803592	-1.2052
C	0.782837	-1.872	2.548
O	1.26602	-0.901028	3.13261
O	0.175019	-1.81531	1.33226
H	0.78867	-2.89151	2.93865
H	0.1372	-0.871115	0.930791
C	-0.496137	-2.61713	-1.7644
O	-0.308984	-1.396	-1.71757
O	-0.466034	-3.45323	-0.704001
H	-0.709482	-3.16713	-2.68349
H	-0.257229	-2.96949	0.149805
C	5.77054	-0.11849	0.0852241
O	6.42206	0.0450059	1.10433
O	6.32763	0.0506199	-1.11335
H	4.72226	-0.405799	0.157748
H	7.24143	0.298991	-1.02939
