25
  This energy is -0.000819939 and Call times are: 9050
C	-0.182303	-1.97207	0.500576
O	-0.242676	-0.757248	0.160567
O	-0.784124	-2.4761	1.55793
H	0.388344	-2.69333	-0.0827948
H	-1.33324	-1.79457	2.09549
C	-2.37905	0.518129	2.46206
O	-2.18453	-0.674818	2.77335
O	-1.76646	1.20991	1.50641
H	-3.11515	1.12933	2.98361
H	-1.05683	0.73474	0.985405
C	1.70613	-1.18058	-2.51095
O	1.56279	-2.32902	-2.08837
O	1.16767	-0.0736102	-1.93185
H	2.28433	-0.919006	-3.39938
H	0.605233	-0.2741	-1.09663
C	1.05307	2.94052	-0.673073
O	0.522717	2.16867	0.133999
O	1.55039	2.58924	-1.87876
H	1.18247	4.01094	-0.499305
H	1.45422	1.60581	-2.05258
C	4.88832	-0.312957	0.297766
O	5.15137	0.823515	0.65697
O	4.26087	-0.5339	-0.856792
H	5.17015	-1.15494	0.928908
H	4.07579	0.284874	-1.30304
