25
  This energy is -0.00169054 and Call times are: 8524
C	0.575266	1.87306	-0.577572
O	0.0696902	0.790538	-0.168202
O	0.0924056	2.58593	-1.57402
H	1.46682	2.29076	-0.111932
H	-0.757062	2.19526	-1.99919
C	-2.69973	0.524417	-2.10392
O	-2.07824	1.53138	-2.50096
O	-2.29839	-0.36334	-1.19954
H	-3.68662	0.27509	-2.49291
H	-1.39126	-0.22689	-0.800411
C	2.37198	0.356884	2.20361
O	2.65521	1.46366	1.74226
O	1.35172	-0.425288	1.75866
H	2.90951	-0.124694	3.02286
H	0.810745	-0.00609433	0.993324
C	-0.163937	-3.11584	0.687981
O	-0.4376	-2.18992	-0.084142
O	0.596435	-3.00753	1.79907
H	-0.510825	-4.14302	0.556435
H	0.937578	-2.07329	1.93103
C	5.43351	-0.325505	0.257118
O	4.45419	-0.712746	-0.359946
O	5.85954	0.931468	0.138652
H	5.96415	-1.01608	0.911512
H	5.30714	1.42054	-0.460888
