25
  This energy is -0.000213201 and Call times are: 375
C	0.479154	1.75122	-0.93623
O	0.18239	0.597056	-0.518031
O	1.61214	2.05322	-1.5357
H	-0.209674	2.58701	-0.821634
H	2.25125	1.25802	-1.65479
C	2.84433	-1.23439	-1.54148
O	3.09033	-0.0464181	-1.83486
O	1.81396	-1.69185	-0.837089
H	3.49808	-2.046	-1.85978
H	1.16839	-1.01411	-0.483929
C	-2.79239	1.54575	0.650183
O	-2.37789	2.56229	0.0908333
O	-2.10445	0.374771	0.729189
H	-3.7605	1.46863	1.14904
H	-1.19006	0.398351	0.262879
C	-0.776032	-2.2767	2.10312
O	0.092074	-1.72639	1.41613
O	-2.05679	-1.86414	2.22085
H	-0.60255	-3.17264	2.70305
H	-2.23402	-1.03281	1.68787
C	6.39524	0.162318	0.124729
O	6.83981	-0.648975	0.92094
O	7.08086	0.487099	-0.970692
H	5.42723	0.625198	0.312911
H	7.90297	0.0111863	-1.00844
