25
  This energy is -0.00342511 and Call times are: 8831
C	0.355935	1.76101	-0.972119
O	0.197924	0.753017	-0.227793
O	-0.284628	2.90157	-0.820333
H	1.05534	1.74171	-1.80676
H	-0.931318	2.91911	-0.0225394
C	-1.96844	1.92365	2.10116
O	-1.81858	2.83296	1.2594
O	-1.495	0.683128	2.03761
H	-2.5377	2.08395	3.0164
H	-0.974457	0.436888	1.21955
C	2.39946	-1.10513	-1.90547
O	2.49577	-0.00376397	-2.44929
O	1.54678	-1.38817	-0.883938
H	2.98732	-1.98237	-2.1828
H	0.979925	-0.586998	-0.582424
C	-0.744945	-3.00339	0.795857
O	-1.06886	-1.81094	0.756553
O	0.383862	-3.52402	0.26751
H	-1.34503	-3.7836	1.26904
H	0.943629	-2.8252	-0.185154
C	5.85294	-0.281676	0.355512
O	6.94227	0.231424	0.155813
O	4.81285	0.00244104	-0.427433
H	5.73105	-0.979352	1.18322
H	5.05928	0.621611	-1.10543
