25
  This energy is -0.00116301 and Call times are: 3286
C	-0.285662	2.02246	0.0302945
O	-0.280165	0.760832	-0.0271975
O	-0.538246	2.80957	-0.994841
H	-0.0766451	2.54548	0.96246
H	-0.749762	2.31075	-1.86744
C	-1.23494	0.192545	-3.22923
O	-1.12377	1.42906	-3.10063
O	-0.907852	-0.74085	-2.34104
H	-1.63512	-0.250854	-4.14064
H	-0.511423	-0.427379	-1.47768
C	0.497591	0.398334	3.19425
O	0.343813	1.61563	3.08212
O	0.374714	-0.491237	2.17237
H	0.752323	-0.106745	4.12809
H	0.124679	-0.060193	1.2747
C	1.17226	-2.96607	0.192023
O	0.855825	-2.00005	-0.511576
O	1.14689	-2.99059	1.54227
H	1.51461	-3.92418	-0.204932
H	0.848235	-2.11399	1.92822
C	3.46249	0.186374	-0.144357
O	3.98968	-0.514343	-0.993389
O	4.02266	0.340613	1.05478
H	2.52376	0.690619	-0.370704
H	4.83318	-0.152515	1.11521
