25
  This energy is -0.000494878 and Call times are: 3640
C	0.229283	0.615356	1.93433
O	0.239185	0.318072	0.706908
O	1.12648	0.200101	2.8043
H	-0.546731	1.25421	2.35366
H	1.86435	-0.389269	2.40036
C	3.10302	-1.47403	0.434233
O	2.95872	-1.20776	1.64507
O	2.24125	-1.23624	-0.549584
H	4.00679	-1.95533	0.0614407
H	1.37028	-0.813106	-0.298222
C	-2.52647	2.05547	0.0386035
O	-2.31326	2.31972	1.22298
O	-1.76003	1.22152	-0.714905
H	-3.35763	2.45977	-0.542578
H	-0.958362	0.825423	-0.210372
C	-1.04959	-1.23096	-2.75531
O	-0.320347	-1.33607	-1.76257
O	-1.94844	-0.244455	-2.96334
H	-1.05028	-1.93581	-3.58953
H	-1.97397	0.40721	-2.20093
C	6.68918	-0.275466	-0.269539
O	5.94957	0.466254	-0.896136
O	6.73587	-0.22493	1.06117
H	7.31745	-0.986071	-0.805284
H	6.13991	0.436017	1.39547
