25
  This energy is 1.4519e-05 and Call times are: 5200
C	-0.147444	1.89991	-0.735859
O	0.111332	0.765039	-0.245803
O	-0.115211	3.02604	-0.05393
H	-0.418571	2.01286	-1.78462
H	0.156019	2.91528	0.930526
C	1.01406	1.55082	2.92519
O	0.650012	2.61326	2.38062
O	0.933631	0.322026	2.42449
H	1.45594	1.54453	3.92124
H	0.520645	0.226846	1.51829
C	-0.420812	-0.840414	-3.11868
O	-0.533374	0.344027	-3.43876
O	-0.160447	-1.27613	-1.85652
H	-0.519053	-1.67778	-3.81237
H	-0.0494435	-0.519888	-1.17103
C	-0.508156	-3.0292	0.879998
O	-0.436407	-1.8363	1.19661
O	-0.415126	-3.51025	-0.37871
H	-0.658289	-3.84215	1.59365
H	-0.29093	-2.77739	-1.05257
C	9.74942	0.130131	-0.256705
O	9.54684	-0.932653	0.30831
O	10.9	0.781196	-0.0900567
H	8.98033	0.549881	-0.904024
H	11.4763	0.304391	0.496725
