25
  This energy is -0.00141629 and Call times are: 459
C	-0.618635	-0.0142812	-1.94678
O	-0.0825496	0.0533582	-0.805256
O	-0.847319	1.02649	-2.72056
H	-0.929627	-0.969222	-2.36814
H	-0.538022	1.92237	-2.32467
C	0.664585	3.3507	-0.566757
O	0.0429057	3.19889	-1.63836
O	0.875003	2.43841	0.376926
H	1.11426	4.30692	-0.300567
H	0.479745	1.5315	0.228258
C	-0.265436	-3.23408	-0.282439
O	-0.668401	-3.11537	-1.44069
O	0.117657	-2.19698	0.510241
H	-0.171096	-4.18696	0.242133
H	0.0552254	-1.27992	0.0528318
C	0.259719	-0.302863	3.17009
O	0.0459771	0.424595	2.19361
O	0.44198	-1.64038	3.12273
H	0.325461	0.0593453	4.1983
H	0.371306	-1.9961	2.18728
C	5.11213	-0.054362	-0.181483
O	4.23681	0.0384346	-1.02707
O	4.81446	0.00637247	1.11591
H	6.14761	-0.188276	-0.492213
H	3.87977	0.124434	1.24312
