25
  This energy is -3.309e-06 and Call times are: 5508
C	1.42863	-0.559338	-1.34872
O	0.42895	-0.251062	-0.641146
O	1.67156	-1.77283	-1.7989
H	2.16784	0.187043	-1.63621
H	0.963183	-2.4692	-1.53766
C	-1.28335	-3.17358	-0.520998
O	-0.220047	-3.40406	-1.13266
O	-1.62854	-2.04751	0.0953505
H	-2.06601	-3.92711	-0.436917
H	-0.960723	-1.30267	0.088342
C	1.31279	2.95423	-0.398278
O	2.15409	2.49314	-1.17135
O	0.315742	2.22931	0.177114
H	1.27204	3.99916	-0.0844266
H	0.309178	1.24043	-0.0988959
C	-1.60677	1.0628	2.549
O	-1.18864	0.104285	1.8896
O	-1.33953	2.36208	2.29431
H	-2.24916	0.965887	3.42689
H	-0.738271	2.47285	1.49881
C	19.0731	-0.122064	0.294003
O	19.4613	-0.141924	-0.863027
O	17.8218	0.230535	0.586253
H	19.7582	-0.395823	1.09554
H	17.3372	0.4429	-0.203582
