25
  This energy is -0.00159594 and Call times are: 7427
C	1.35541	1.10428	1.05655
O	0.486686	0.568874	0.312439
O	2.50497	1.58253	0.627562
H	1.19483	1.2046	2.12908
H	2.64426	1.49914	-0.386652
C	1.85565	0.95088	-2.7645
O	2.69328	1.3756	-1.9424
O	0.708892	0.333646	-2.49794
H	2.0073	1.05849	-3.83821
H	0.493451	0.171575	-1.53454
C	-1.61276	-0.0393923	2.82966
O	-0.708797	0.598809	3.37149
O	-1.63461	-0.377439	1.51211
H	-2.50077	-0.409005	3.34625
H	-0.821583	-0.0401709	0.983578
C	-1.92999	-2.28363	-1.12642
O	-0.874535	-1.64827	-1.22993
O	-2.81565	-2.16723	-0.113268
H	-2.2708	-3.02363	-1.85373
H	-2.51431	-1.50163	0.574305
C	5.6618	-0.110537	0.397618
O	6.86755	0.0594603	0.481603
O	5.03408	0.0306657	-0.769235
H	5.09382	-0.380623	1.28709
H	5.64713	0.266403	-1.45653
