25
  This energy is 0.000314827 and Call times are: 7918
C	-0.378246	1.69658	1.07305
O	0.0191599	0.709791	0.392336
O	0.0832202	2.00699	2.26675
H	-1.14865	2.36798	0.696391
H	0.820278	1.37948	2.61022
C	2.49701	-0.541607	2.33702
O	1.97665	0.396009	2.97574
O	2.08214	-1.05669	1.18391
H	3.3924	-1.04739	2.69742
H	1.25123	-0.667464	0.785285
C	-2.0447	1.34976	-2.14636
O	-2.22563	2.30877	-1.3943
O	-1.19431	0.319294	-1.89013
H	-2.54844	1.21592	-3.10572
H	-0.689621	0.409091	-1.00055
C	-0.181809	-2.77259	-1.57745
O	0.127056	-2.16305	-0.547186
O	-0.793443	-2.22985	-2.65251
H	0.00710117	-3.83633	-1.73716
H	-0.989153	-1.25471	-2.52067
C	7.84448	0.367359	-0.260201
O	7.80313	-0.670692	-0.900927
O	8.03548	0.346294	1.05836
H	7.72379	1.32078	-0.773156
H	8.12459	-0.546432	1.3728
