25
  This energy is -0.00359379 and Call times are: 6782
C	-0.666666	-1.79153	0.720305
O	-0.248491	-0.632534	0.443002
O	0.0181192	-2.68101	1.40888
H	-1.65002	-2.12897	0.395759
H	0.938178	-2.35196	1.72544
C	2.7293	-0.547263	2.05948
O	2.27459	-1.70076	2.20287
O	2.22962	0.425861	1.30421
H	3.63279	-0.223759	2.5757
H	1.40785	0.213489	0.774683
C	-3.01125	0.20371	-1.2249
O	-3.28674	-0.909187	-0.773694
O	-1.82138	0.836923	-1.04069
H	-3.69123	0.809693	-1.82695
H	-1.15308	0.30658	-0.469531
C	0.903826	2.46203	-1.82488
O	1.22318	1.49699	-1.12125
O	-0.359764	2.79596	-2.16582
H	1.61889	3.1646	-2.25826
H	-1.03248	2.15404	-1.78901
C	4.85124	0.279502	-0.256386
O	5.64085	0.877146	0.457136
O	4.78338	-1.05102	-0.231309
H	4.19538	0.841197	-0.920505
H	5.40793	-1.40972	0.389208
