25
  This energy is -4.9102e-05 and Call times are: 4752
C	0.977703	-1.63111	0.745953
O	0.225225	-0.705739	0.330611
O	1.07355	-1.99807	2.00706
H	1.60792	-2.19605	0.0604984
H	0.465647	-1.47231	2.64661
C	-1.39877	0.211893	3.16048
O	-0.557322	-0.648648	3.49108
O	-1.5454	0.775685	1.9656
H	-2.12904	0.596233	3.8721
H	-0.903056	0.498401	1.25053
C	1.16166	-1.0722	-2.84789
O	1.74267	-1.99835	-2.27983
O	0.36727	-0.16192	-2.22257
H	1.21929	-0.874472	-3.92009
H	0.275536	-0.316178	-1.21167
C	-0.800568	2.77074	-1.37504
O	-0.595384	2.12708	-0.339671
O	-0.609565	2.31176	-2.63093
H	-1.16445	3.80033	-1.39167
H	-0.26134	1.37087	-2.63797
C	6.94632	0.373224	0.0457337
O	7.96186	0.573825	-0.600985
O	6.67786	-0.837408	0.533393
H	6.2527	1.19376	0.22549
H	7.36333	-1.45441	0.302703
