25
  This energy is -0.000186476 and Call times are: 4612
C	1.69876	-0.093232	1.13067
O	0.751879	-0.0753939	0.295113
O	2.40057	-1.16602	1.43205
H	1.99753	0.808241	1.66382
H	2.12456	-2.0095	0.915
C	0.798414	-3.24764	-0.897461
O	1.65267	-3.19179	0.0108322
O	-0.0689996	-2.30207	-1.24469
H	0.687119	-4.13513	-1.51987
H	-0.0545168	-1.45484	-0.712902
C	0.130327	3.16985	0.737954
O	1.13401	2.9838	1.4279
O	-0.503511	2.20156	0.0228697
H	-0.367421	4.13472	0.622561
H	-0.0622019	1.27725	0.0937582
C	-2.97996	0.38059	-1.08795
O	-2.08582	-0.38257	-0.705211
O	-2.91195	1.72956	-1.08018
H	-3.94201	0.0450088	-1.48113
H	-2.04025	2.05947	-0.708838
C	5.63413	-0.354987	-0.0950484
O	5.29658	0.222592	0.925861
O	6.68096	0.06851	-0.802374
H	5.07257	-1.2261	-0.430501
H	7.07552	0.832873	-0.397597
