25
  This energy is 0.000395002 and Call times are: 5816
C	-0.618252	0.258818	1.92968
O	-0.0799269	0.158137	0.791646
O	-0.251691	-0.436053	2.98657
H	-1.4412	0.950298	2.10513
H	0.534749	-1.07515	2.81907
C	2.42944	-2.04124	1.38608
O	1.77664	-1.94473	2.44551
O	2.13041	-1.50747	0.205926
H	3.35842	-2.60897	1.34007
H	1.28044	-0.983212	0.146697
C	-2.08115	2.43298	-0.599133
O	-2.40484	2.46933	0.589112
O	-1.13244	1.60521	-1.11435
H	-2.52072	3.06095	-1.37661
H	-0.683651	1.00222	-0.414991
C	0.208168	-0.587389	-3.13374
O	0.397072	-0.970417	-1.97357
O	-0.409727	0.560745	-3.48644
H	0.523758	-1.14348	-4.01912
H	-0.720709	1.0808	-2.6868
C	7.20989	0.071804	0.219997
O	7.06217	-0.601453	-0.787324
O	8.41659	0.513317	0.572777
H	6.34492	0.31366	0.836472
H	9.07582	0.230161	-0.0509359
