25
  This energy is -0.00075188 and Call times are: 2945
C	0.444427	-0.396144	-1.95408
O	0.00307487	-0.1353	-0.799864
O	0.120798	-1.46895	-2.64588
H	1.13844	0.275413	-2.4576
H	-0.545764	-2.09075	-2.17254
C	-2.17265	-2.68162	-0.280256
O	-1.61267	-2.90381	-1.37338
O	-1.88289	-1.72022	0.59085
H	-2.9986	-3.2992	0.0716381
H	-1.12133	-1.11351	0.361189
C	1.71798	2.71248	-0.548217
O	1.95429	2.34826	-1.70127
O	0.94296	2.02497	0.333474
H	2.10568	3.62967	-0.100464
H	0.547413	1.15841	-0.049576
C	0.0886207	0.584094	3.14001
O	-0.114366	-0.21779	2.22122
O	0.544771	1.8464	2.98859
H	-0.0797074	0.358626	4.19526
H	0.719658	2.06957	2.02619
C	5.06309	0.285387	-0.204881
O	6.22145	0.666067	-0.260417
O	4.75019	-0.855668	0.407981
H	4.27744	0.885996	-0.661754
H	5.52772	-1.27495	0.75929
