25
  This energy is 0.00011465 and Call times are: 3668
C	1.34422	0.29009	1.51057
O	0.3974	0.192851	0.680426
O	1.86828	1.43167	1.90603
H	1.79248	-0.594431	1.96096
H	1.43142	2.26287	1.4898
C	-0.36532	3.44215	0.0906297
O	0.631616	3.43682	0.841597
O	-0.939773	2.39368	-0.490577
H	-0.878791	4.36823	-0.16655
H	-0.522846	1.49899	-0.327727
C	0.338944	-3.13811	0.80431
O	1.17137	-2.84393	1.6637
O	-0.323206	-2.23504	0.0318311
H	0.0379986	-4.1594	0.562559
H	-0.0785159	-1.25842	0.232932
C	-1.50513	-0.855672	-2.68535
O	-0.915516	0.0175176	-2.03859
O	-1.66043	-2.14126	-2.30122
H	-1.97391	-0.683869	-3.65667
H	-1.22412	-2.32414	-1.41647
C	8.30574	-0.157613	0.425281
O	8.23736	1.06013	0.378257
O	8.35483	-0.880343	-0.693096
H	8.32681	-0.657809	1.39279
H	8.32882	-0.318893	-1.45983
