25
  This energy is 3.8472e-05 and Call times are: 6614
C	-1.15736	-1.10588	-1.26903
O	-0.548835	-0.288195	-0.52328
O	-2.4022	-1.49317	-1.08303
H	-0.669919	-1.54852	-2.13658
H	-2.86172	-1.06083	-0.272523
C	-2.97065	0.607242	1.6723
O	-3.45824	-0.277613	0.939395
O	-1.70915	1.02568	1.69716
H	-3.58013	1.14317	2.39944
H	-1.06856	0.574631	1.07504
C	2.27436	-0.440082	-2.28979
O	1.49589	-1.12737	-2.95284
O	1.95512	0.17192	-1.11751
H	3.31219	-0.244505	-2.56673
H	0.982788	0.0234503	-0.823174
C	2.23972	1.06844	2.01265
O	1.09566	0.631929	1.84243
O	3.18179	1.18629	1.05191
H	2.62472	1.41283	2.97489
H	2.85272	0.861597	0.161472
C	10.1158	-0.256517	0.36825
O	10.3893	-0.843726	-0.666238
O	9.67673	1.00126	0.341372
H	10.2324	-0.767454	1.32327
H	9.62297	1.32153	-0.552115
