25
  This energy is -0.00629443 and Call times are: 6502
C	-0.953837	-0.105069	1.80334
O	-0.442472	-0.193204	0.651912
O	-2.2448	0.0167021	2.03314
H	-0.334336	-0.127622	2.69882
H	-2.82532	0.0218863	1.18581
C	-3.18404	-0.234655	-1.34048
O	-3.58965	-0.0578062	-0.173404
O	-1.9223	-0.258787	-1.75822
H	-3.87763	-0.393483	-2.16579
H	-1.213	-0.10106	-1.0706
C	2.67528	-0.407264	1.81288
O	1.99615	-0.41577	2.84085
O	2.16748	-0.308712	0.55466
H	3.76475	-0.476224	1.79399
H	1.1428	-0.252099	0.523926
C	1.8214	0.804884	-2.49866
O	0.704656	0.789053	-1.96855
O	2.96809	0.391068	-1.91706
H	2.01039	1.16195	-3.51332
H	2.81875	0.0717502	-0.977735
C	6.2964	0.0161935	-0.37572
O	7.49271	0.0235466	-0.617753
O	5.85645	-0.0350538	0.880992
H	5.58163	0.0519556	-1.19702
H	6.58354	-0.0621407	1.49286
