25
  This energy is -0.0018374 and Call times are: 8100
C	0.208635	-1.695	1.12086
O	0.222014	-0.702004	0.340585
O	0.0121612	-2.93839	0.73405
H	0.365989	-1.57306	2.19163
H	-0.120269	-3.04911	-0.278468
C	-0.140853	-2.17614	-2.68973
O	-0.232681	-3.08152	-1.83549
O	-0.0619247	-0.867623	-2.4692
H	-0.11698	-2.40029	-3.75585
H	-0.0970186	-0.564564	-1.51644
C	0.785458	1.49128	2.78723
O	0.843098	0.406848	3.36921
O	0.5256	1.6408	1.46028
H	0.934896	2.45854	3.27109
H	0.388473	0.753821	0.961707
C	-0.905269	2.80254	-1.23892
O	-0.922489	1.5678	-1.29821
O	-0.350375	3.52916	-0.24467
H	-1.34474	3.45613	-1.9955
H	0.0472716	2.9469	0.469077
C	3.81837	-0.219151	0.395868
O	3.2131	-0.783547	-0.501297
O	4.47831	0.914839	0.163367
H	3.81823	-0.648261	1.39715
H	4.39471	1.17396	-0.747483
