25
  This energy is -0.00249185 and Call times are: 6330
C	0.201013	-0.154042	-2.027
O	-0.0940694	-0.0906468	-0.800645
O	0.085159	-1.24092	-2.76151
H	0.578184	0.71637	-2.56207
H	-0.285466	-2.05431	-2.25552
C	-1.33002	-3.19032	-0.207338
O	-0.923743	-3.18442	-1.38749
O	-1.18385	-2.22814	0.698164
H	-1.87277	-4.0414	0.203148
H	-0.677981	-1.4123	0.416526
C	0.75187	3.12329	-0.53785
O	0.883325	2.90027	-1.74243
O	0.366993	2.19586	0.379997
H	0.931251	4.09227	-0.0678081
H	0.17671	1.2698	-0.0203964
C	0.449115	0.436294	3.13315
O	0.331097	-0.345723	2.18293
O	0.492779	1.78279	3.03586
H	0.533777	0.121801	4.17558
H	0.430709	2.09269	2.08365
C	4.00925	-0.194373	0.0216685
O	4.00572	0.940601	0.470683
O	2.8935	-0.738164	-0.462992
H	4.93538	-0.767949	0.0176995
H	2.1653	-0.130503	-0.39777
