25
  This energy is -0.00189491 and Call times are: 6418
C	-0.232818	1.87008	-0.78834
O	0.0673225	0.770812	-0.243752
O	-0.409652	2.99798	-0.131977
H	-0.364267	1.94794	-1.86668
H	-0.26931	2.92189	0.882668
C	0.433339	1.66523	3.00487
O	0.0444093	2.68133	2.39321
O	0.547605	0.431458	2.52339
H	0.729664	1.7106	4.05252
H	0.277334	0.288696	1.57082
C	0.106841	-0.899147	-3.12884
O	-0.0780665	0.265482	-3.48588
O	0.230182	-1.2978	-1.83402
H	0.191319	-1.74663	-3.81198
H	0.167567	-0.529762	-1.15556
C	-0.319822	-3.05954	0.863458
O	-0.413241	-1.86355	1.16222
O	-0.00352498	-3.53667	-0.359948
H	-0.486112	-3.87897	1.56605
H	0.13968	-2.79932	-1.02507
C	3.97964	0.313849	-0.326838
O	5.02845	-0.310298	-0.341888
O	3.04165	0.0469639	0.581157
H	3.80983	1.0974	-1.06435
H	3.32012	-0.655042	1.15858
