25
  This energy is -0.000157497 and Call times are: 7862
C	-1.06236	0.650552	1.61897
O	-0.368506	0.10634	0.714838
O	-2.18854	0.154549	2.08794
H	-0.755774	1.59013	2.07653
H	-2.46468	-0.739194	1.66373
C	-2.05855	-2.77948	0.164078
O	-2.72569	-2.12347	0.990181
O	-0.973034	-2.38023	-0.491161
H	-2.33063	-3.79982	-0.104808
H	-0.658952	-1.44543	-0.322888
C	1.94122	2.51026	0.734703
O	1.19981	2.83134	1.66489
O	1.75349	1.42218	-0.0599816
H	2.83465	3.06427	0.439918
H	0.928304	0.864135	0.188572
C	1.47218	-0.307336	-2.81902
O	0.499452	-0.569573	-2.10249
O	2.48678	0.520009	-2.48659
H	1.6232	-0.720886	-3.81848
H	2.3603	0.922397	-1.57627
C	5.26139	-0.0386201	-0.327538
O	4.3077	-0.780943	-0.498457
O	5.31344	0.770281	0.730046
H	6.07828	-0.0383878	-1.04824
H	4.53967	0.667436	1.2727
