25
  This energy is -0.000215537 and Call times are: 7342
C	-0.242747	-1.26251	1.58746
O	-0.107869	-0.351656	0.72305
O	0.603633	-1.47993	2.57265
H	-1.09591	-1.93911	1.56541
H	1.39797	-0.829239	2.59752
C	2.67333	1.25167	1.81016
O	2.50845	0.267791	2.56026
O	1.98902	1.54723	0.7095
H	3.44296	1.99673	2.01011
H	1.27195	0.906141	0.434498
C	-2.90403	-1.17132	-0.896725
O	-2.92078	-1.92105	0.0808554
O	-1.91632	-0.274621	-1.16327
H	-3.68065	-1.14188	-1.66357
H	-1.16799	-0.260375	-0.460478
C	0.363538	1.30205	-2.89502
O	0.873855	0.944139	-1.82738
O	-0.924605	1.10445	-3.25006
H	0.905519	1.82614	-3.68517
H	-1.4376	0.611176	-2.54288
C	5.26061	-0.349233	0.283023
O	4.48691	-0.610661	-0.624078
O	5.8279	0.853425	0.368509
H	5.48899	-1.10833	1.03023
H	5.54144	1.41373	-0.344075
