25
  This energy is -0.000206594 and Call times are: 939
C	0.191908	1.90685	0.707095
O	0.0163008	0.801992	0.121002
O	1.06563	2.81608	0.327434
H	-0.390524	2.17752	1.58668
H	1.60108	2.56203	-0.51146
C	2.11661	1.06174	-2.5264
O	2.28763	2.08297	-1.82947
O	1.36979	0.0024667	-2.23096
H	2.59815	0.948506	-3.49734
H	0.90337	0.00803853	-1.34596
C	-2.35814	-0.194073	2.23853
O	-2.1238	0.957811	2.60768
O	-1.72213	-0.81825	1.21063
H	-3.10336	-0.847776	2.6961
H	-1.01822	-0.235279	0.742909
C	-0.0948717	-3.1724	-0.368191
O	0.508151	-2.10742	-0.543053
O	-1.2469	-3.31341	0.322719
H	0.241604	-4.13548	-0.758054
H	-1.56642	-2.44129	0.702057
C	7.89834	0.415321	-0.151369
O	7.23449	-0.455141	-0.691178
O	8.80528	0.104326	0.773976
H	7.74672	1.45746	-0.430061
H	8.8326	-0.834928	0.918307
