25
  This energy is -0.000836006 and Call times are: 8285
C	0.912187	-0.34298	-1.79532
O	0.196789	-0.151024	-0.772376
O	0.958022	-1.47586	-2.46518
H	1.55	0.444965	-2.19344
H	0.343011	-2.2102	-2.09438
C	-1.49459	-3.07816	-0.530251
O	-0.685945	-3.20635	-1.47233
O	-1.58842	-2.05692	0.315526
H	-2.23772	-3.84419	-0.310283
H	-0.930371	-1.31186	0.202916
C	1.22617	2.99454	-0.372529
O	1.76528	2.65919	-1.42843
O	0.434849	2.18341	0.380178
H	1.32336	3.98253	0.0818637
H	0.306647	1.24489	-0.0158828
C	-0.686503	0.665441	3.0487
O	-0.530997	-0.183013	2.16307
O	-0.466439	1.99067	2.90814
H	-1.02394	0.435637	4.06165
H	-0.141676	2.22182	1.98744
C	4.38	-0.0555258	-0.449173
O	5.07054	0.865875	-0.0442565
O	3.64373	-0.776649	0.395459
H	4.36637	-0.28984	-1.51295
H	3.74994	-0.465105	1.28733
