25
  This energy is 0.000200433 and Call times are: 4836
C	-1.93924	0.367469	-0.526506
O	-0.804936	0.0900908	-0.0453904
O	-2.89317	-0.516904	-0.731737
H	-2.19945	1.38761	-0.805393
H	-2.6477	-1.47441	-0.452608
C	-1.11708	-3.21278	0.648271
O	-2.17158	-2.86302	0.0794435
O	-0.019431	-2.48423	0.825682
H	-1.0036	-4.20988	1.07293
H	-0.0236094	-1.55736	0.449248
C	0.278972	3.23837	-0.211266
O	-0.898681	3.33251	-0.560975
O	0.893091	2.07089	0.121206
H	0.966478	4.0826	-0.129648
H	0.279332	1.24951	0.0687618
C	3.18228	-0.261968	0.114675
O	2.08471	-0.802767	-0.0621974
O	3.37877	1.05916	0.315741
H	4.1327	-0.799794	0.127611
H	2.51822	1.57446	0.293451
C	8.47645	-0.232358	0.110496
O	8.48357	0.113311	-1.06008
O	9.49117	0.0755282	0.91738
H	7.63067	-0.798722	0.498552
H	10.1567	0.568358	0.450567
