25
  This energy is -9.6296e-05 and Call times are: 799
C	-2.00615	-0.198002	0.330199
O	-0.760295	0.00362903	0.282906
O	-2.59798	-0.973179	1.21511
H	-2.68153	0.2756	-0.38095
H	-1.95794	-1.40484	1.8926
C	0.340029	-1.71806	2.98709
O	-0.886136	-1.93338	2.89755
O	1.10697	-1.06419	2.12029
H	0.919094	-2.07277	3.83931
H	0.663996	-0.717964	1.29282
C	-0.967036	2.03353	-2.35354
O	-2.14805	1.80424	-2.08771
O	0.0907453	1.51059	-1.67654
H	-0.633401	2.68258	-3.16561
H	-0.177063	0.90063	-0.895295
C	2.95347	0.00127172	-1.21889
O	2.11987	-0.525728	-0.473386
O	2.71564	1.04543	-2.04205
H	3.9931	-0.323669	-1.29829
H	1.76115	1.35092	-1.99495
C	10.1524	0.295452	-0.17288
O	9.87486	-0.861689	-0.444505
O	11.2291	0.583845	0.557204
H	9.51203	1.10028	-0.531874
H	11.6939	-0.20859	0.801723
