25
  This energy is -0.000902914 and Call times are: 5060
C	-1.1031	0.708837	-1.5664
O	-0.575128	0.244046	-0.517463
O	-1.88546	0.0188569	-2.37018
H	-0.935945	1.74062	-1.87241
H	-2.05194	-0.948734	-2.06845
C	-1.8789	-2.88198	-0.392367
O	-2.27807	-2.36765	-1.45726
O	-0.999221	-2.37455	0.465397
H	-2.24313	-3.85311	-0.0581819
H	-0.593709	-1.49065	0.230669
C	0.972829	3.09986	0.232334
O	0.296052	3.40221	-0.751833
O	1.01718	1.8575	0.784826
H	1.61714	3.79533	0.773839
H	0.416421	1.17167	0.312761
C	2.33138	-0.876743	2.00116
O	1.48794	-1.20048	1.15724
O	2.61758	0.389662	2.37361
H	2.95126	-1.58956	2.54923
H	2.06825	1.06213	1.87101
C	5.93984	-0.299814	-0.300335
O	7.08437	0.0447087	-0.547628
O	5.29343	0.193616	0.75522
H	5.44254	-1.01862	-0.950493
H	5.84249	0.806072	1.23189
