25
  This energy is -0.00203913 and Call times are: 8058
C	0.833634	0.307333	-1.83942
O	0.175204	0.0641219	-0.789487
O	1.19136	-0.606362	-2.71773
H	1.15034	1.32012	-2.08463
H	0.876771	-1.55704	-2.48917
C	-0.456498	-3.25127	-1.10042
O	0.275501	-2.9326	-2.05984
O	-0.809967	-2.48847	-0.0707184
H	-0.893279	-4.24668	-1.0243
H	-0.438447	-1.55998	-0.0445293
C	0.161106	3.24695	0.202213
O	0.697016	3.30481	-0.905703
O	-0.265739	2.09809	0.792652
H	-0.0314316	4.11259	0.839106
H	-0.113958	1.2575	0.22301
C	-0.628807	-0.158963	3.12858
O	-0.276009	-0.734116	2.09266
O	-0.85994	1.16662	3.24609
H	-0.795272	-0.665645	4.08162
H	-0.698797	1.65378	2.38394
C	5.07586	-0.271285	0.355874
O	4.04459	0.0412345	-0.217373
O	6.25565	0.174454	-0.074152
H	5.02983	-0.921789	1.22848
H	6.14919	0.728812	-0.83909
