25
  This energy is -2.409e-06 and Call times are: 2317
C	-0.521979	-0.0123542	1.97491
O	-0.112361	-0.153558	0.788602
O	-1.34093	-0.8474	2.5801
H	-0.20818	0.835074	2.58283
H	-1.62125	-1.65262	2.00736
C	-1.47939	-3.12959	-0.0843126
O	-1.90609	-2.85814	1.05678
O	-0.748839	-2.35065	-0.87591
H	-1.68553	-4.09053	-0.554982
H	-0.526449	-1.43698	-0.534494
C	1.71461	2.63425	0.854611
O	1.30007	2.54776	2.01163
O	1.41611	1.75394	-0.138685
H	2.36892	3.42986	0.492761
H	0.809984	0.980986	0.160097
C	0.445477	0.715645	-3.08189
O	-0.177883	0.0769661	-2.22638
O	1.38993	1.64706	-2.82717
H	0.300016	0.597838	-4.15786
H	1.52921	1.78115	-1.84268
C	10.5355	0.399664	0.000803791
O	10.2692	-0.276504	0.981443
O	11.3744	-0.0525954	-0.930476
H	10.0818	1.38346	-0.113087
H	11.6941	-0.919135	-0.705359
