25
  This energy is -0.00223382 and Call times are: 6086
C	-1.54769	-0.583376	1.19884
O	-0.540129	-0.390986	0.462049
O	-2.57283	-1.34124	0.868739
H	-1.6252	-0.118899	2.18089
H	-2.48723	-1.78887	-0.0517409
C	-1.20034	-2.40531	-2.1826
O	-2.19524	-2.46016	-1.43092
O	-0.14314	-1.60877	-2.06031
H	-1.11271	-3.04823	-3.05804
H	-0.144674	-0.966308	-1.29347
C	0.954093	1.62516	2.65671
O	-0.0430115	1.23987	3.26937
O	1.26193	1.26485	1.38152
H	1.70547	2.30263	3.06721
H	0.586156	0.617994	0.958406
C	2.11714	1.63019	-1.75182
O	1.11343	0.909566	-1.71093
O	2.7602	2.13558	-0.676896
H	2.60478	1.94564	-2.67671
H	2.31935	1.86902	0.184024
C	5.17315	-0.436539	-0.00277992
O	3.97247	-0.287838	-0.164182
O	5.97396	0.616291	0.157738
H	5.59337	-1.44151	0.00997752
H	5.47771	1.42652	0.125388
