25
  This energy is -6.363e-06 and Call times are: 883
C	-0.69258	-0.536164	1.84546
O	-0.356869	-0.341259	0.64365
O	-1.92716	-0.442759	2.29414
H	0.0451542	-0.802838	2.60098
H	-2.62067	-0.206191	1.57437
C	-3.3507	0.199751	-0.85028
O	-3.57399	0.0837901	0.37224
O	-2.16538	0.249433	-1.44998
H	-4.16337	0.275182	-1.57229
H	-1.35684	0.207639	-0.86234
C	2.87382	-0.92717	1.22109
O	2.3486	-1.17954	2.30667
O	2.19976	-0.497487	0.120313
H	3.94277	-1.01797	1.01825
H	1.18695	-0.407686	0.26266
C	1.49592	1.36686	-2.47034
O	0.467212	1.24604	-1.79539
O	2.68445	0.788054	-2.19324
H	1.56145	1.96577	-3.38125
H	2.64982	0.243797	-1.35111
C	12.1431	0.110354	0.437843
O	12.4125	-1.06027	0.221455
O	11.77	0.917674	-0.554425
H	12.2087	0.498092	1.45375
H	11.7557	0.451106	-1.38261
