25
  This energy is -0.00266612 and Call times are: 6928
C	-0.622323	0.9618	1.69131
O	-0.204166	0.527435	0.581572
O	0.121973	1.61591	2.55872
H	-1.65629	0.815739	2.00074
H	1.09188	1.76413	2.25492
C	2.98465	1.67461	0.526898
O	2.5104	1.98191	1.63978
O	2.4165	0.920345	-0.408718
H	3.96813	2.02249	0.211991
H	1.51622	0.537771	-0.199063
C	-3.15098	-0.781217	-0.265657
O	-3.40006	-0.200456	0.792027
O	-1.92223	-0.829249	-0.847518
H	-3.88895	-1.32642	-0.857426
H	-1.19738	-0.319263	-0.329229
C	0.716884	-2.14272	-2.25909
O	1.09946	-1.41349	-1.337
O	-0.56911	-2.32136	-2.63154
H	1.38617	-2.73537	-2.88643
H	-1.20266	-1.79589	-2.05788
C	5.92197	-0.329103	0.311364
O	5.97289	0.786174	0.804674
O	5.81365	-0.485814	-1.00743
H	5.96565	-1.20511	0.95744
H	5.78637	0.35676	-1.44687
