25
  This energy is -0.00490053 and Call times are: 4050
C	-0.011966	2.02346	-0.279904
O	-0.139292	0.799179	0.00289305
O	-0.926263	2.73913	-0.901288
H	0.890349	2.57269	-0.0146856
H	-1.7811	2.21994	-1.13516
C	-3.29884	0.154936	-1.04102
O	-3.04634	1.33394	-1.36359
O	-2.45836	-0.733959	-0.520882
H	-4.29453	-0.268963	-1.16882
H	-1.51188	-0.439409	-0.38587
C	2.86633	0.590481	1.43004
O	2.76642	1.79062	1.16983
O	1.91993	-0.34245	1.13908
H	3.72832	0.13701	1.92338
H	1.08455	0.0421645	0.682657
C	0.659647	-3.1262	-0.020709
O	-0.0254632	-2.18951	-0.446901
O	1.7162	-3.00546	0.812074
H	0.485926	-4.17419	-0.274202
H	1.90202	-2.04781	1.04653
C	6.58532	-0.430249	0.0481014
O	5.91281	-0.042946	0.990186
O	6.85244	0.379323	-0.975986
H	6.97075	-1.44914	0.0457443
H	6.45657	1.23349	-0.843843
