25
  This energy is -0.00133611 and Call times are: 8128
C	0.799549	1.87721	-0.0984211
O	0.149337	0.79524	-0.0582186
O	0.861229	2.66563	-1.15143
H	1.36187	2.2297	0.765123
H	0.316643	2.33601	-1.95751
C	-1.35273	0.757079	-3.09629
O	-0.607472	1.75809	-3.07556
O	-1.44334	-0.197093	-2.17519
H	-2.03389	0.572153	-3.9265
H	-0.838068	-0.121985	-1.38221
C	1.02567	0.13007	3.08879
O	1.50606	1.24856	2.89842
O	0.337103	-0.581748	2.15611
H	1.09921	-0.419803	4.02915
H	0.234061	-0.0970452	1.25691
C	-0.503483	-3.14047	0.304352
O	-0.364028	-2.16117	-0.437215
O	-0.369078	-3.12802	1.6483
H	-0.754241	-4.14293	-0.0490829
H	-0.124433	-2.21804	1.9928
C	3.71521	-0.0900915	-0.29247
O	4.68279	0.422326	-0.831928
O	3.71398	-0.329214	1.01838
H	2.84377	-0.354333	-0.890363
H	4.53254	-0.0507182	1.41357
