25
  This energy is -0.00107825 and Call times are: 6997
C	-0.324542	-1.90917	0.650094
O	-0.282145	-0.692115	0.315388
O	-0.362143	-2.33385	1.89608
H	-0.334531	-2.70001	-0.0986697
H	-0.368082	-1.58342	2.59737
C	-0.502677	0.875768	3.31216
O	-0.446298	-0.348318	3.54943
O	-0.359611	1.47377	2.1336
H	-0.685267	1.60098	4.10472
H	-0.167653	0.886705	1.34662
C	-0.220516	-1.36496	-2.9492
O	-0.369639	-2.47709	-2.44034
O	-0.0997652	-0.206143	-2.24688
H	-0.166331	-1.18186	-4.02418
H	-0.155839	-0.329872	-1.2292
C	1.15923	2.66597	-1.3257
O	0.985577	1.98149	-0.310944
O	0.839794	2.2926	-2.58386
H	1.59859	3.6658	-1.31971
H	0.447053	1.36985	-2.61345
C	4.08303	-0.441872	-0.0599441
O	3.13815	-0.0486867	-0.725076
O	4.75118	0.393911	0.734135
H	4.38234	-1.48775	-0.117052
H	4.38532	1.2701	0.687016
