25
  This energy is -0.00152413 and Call times are: 4584
C	-1.47724	0.244917	1.38948
O	-0.466497	0.197153	0.633726
O	-1.50823	-0.233326	2.61608
H	-2.40874	0.701169	1.05735
H	-0.622516	-0.648501	2.92933
C	1.87077	-1.18564	2.66168
O	0.798287	-1.1794	3.30011
O	2.04955	-0.854164	1.38682
H	2.80908	-1.48364	3.12879
H	1.23684	-0.585469	0.869019
C	-2.01244	1.72194	-1.89593
O	-2.84799	1.77012	-0.991741
O	-0.787906	1.1401	-1.78333
H	-2.16	2.13998	-2.89368
H	-0.601355	0.741901	-0.855566
C	1.74536	-0.77259	-2.56232
O	1.45024	-0.99086	-1.38179
O	1.14256	0.132282	-3.36373
H	2.53909	-1.29586	-3.09984
H	0.39969	0.614976	-2.89284
C	5.25632	-0.179088	0.282547
O	4.80258	0.877231	0.692542
O	4.84858	-0.690157	-0.878515
H	6.00274	-0.708809	0.873273
H	4.19931	-0.127833	-1.28598
