25
  This energy is -0.000468439 and Call times are: 5144
C	1.82984	-0.637286	0.64686
O	0.748687	-0.299661	0.0881439
O	2.25129	-1.88027	0.754559
H	2.49554	0.106277	1.0829
H	1.62712	-2.57563	0.328086
C	-0.40603	-3.26684	-1.07376
O	0.628515	-3.51383	-0.420637
O	-1.0283	-2.09719	-1.18234
H	-0.916642	-4.04168	-1.645
H	-0.64145	-1.32781	-0.673208
C	1.20362	2.95003	0.676849
O	2.25316	2.44628	1.08023
O	0.163183	2.24742	0.152908
H	0.987185	4.02001	0.69531
H	0.327692	1.23506	0.106243
C	-2.92364	1.26007	-0.270538
O	-2.21606	0.255442	-0.134758
O	-2.47669	2.53464	-0.28139
H	-4.00788	1.23028	-0.398172
H	-1.48318	2.5853	-0.151185
C	6.643	0.216663	-0.315829
O	7.33283	-0.486839	0.404594
O	5.32496	0.290716	-0.134744
H	7.11125	0.789748	-1.11522
H	5.05243	-0.25689	0.593015
