25
  This energy is -0.000633689 and Call times are: 8257
C	-1.71127	0.120516	1.10901
O	-0.57636	0.133459	0.555064
O	-1.97675	-0.500831	2.23936
H	-2.56001	0.641531	0.668164
H	-1.16911	-0.977423	2.65836
C	1.32597	-1.55389	2.79594
O	0.152292	-1.59203	3.21889
O	1.74464	-1.07684	1.62794
H	2.15704	-1.93434	3.38924
H	1.04627	-0.723175	1.00503
C	-1.60586	1.9981	-2.00956
O	-2.59677	1.96236	-1.27822
O	-0.428809	1.37001	-1.74359
H	-1.55937	2.53756	-2.95764
H	-0.423661	0.857475	-0.853982
C	2.19228	-0.51097	-2.26749
O	1.67798	-0.860787	-1.19907
O	1.75813	0.501733	-3.04874
H	3.06947	-0.98955	-2.7082
H	0.943164	0.946529	-2.66852
C	5.32964	-0.43282	-0.134132
O	6.37845	-0.16661	0.430596
O	4.39165	0.498509	-0.302387
H	5.15983	-1.44324	-0.504166
H	4.67012	1.32927	0.0664769
