25
  This energy is -0.00166933 and Call times are: 1023
C	-1.24623	0.739363	1.43983
O	-0.39342	0.199178	0.680917
O	-2.13885	0.0738829	2.14312
H	-1.29001	1.82102	1.55931
H	-2.08285	-0.946359	2.03843
C	-0.974274	-3.10002	1.19613
O	-1.83944	-2.47646	1.84461
O	-0.0835559	-2.59315	0.3495
H	-0.873109	-4.18201	1.2767
H	-0.114232	-1.60515	0.195439
C	0.943432	3.10747	-0.251121
O	0.122654	3.44197	0.604716
O	1.15516	1.82629	-0.656626
H	1.59496	3.80253	-0.784464
H	0.569775	1.13563	-0.172455
C	1.53057	-0.679688	-2.72103
O	0.69744	-1.00795	-1.86867
O	2.19183	0.497618	-2.75424
H	1.83035	-1.31435	-3.55774
H	1.9203	1.1022	-2.00102
C	5.28018	0.256557	0.247828
O	4.43883	-0.308929	0.927652
O	5.31114	0.0907599	-1.07394
H	6.01319	0.903595	0.728184
H	4.61882	-0.495867	-1.35736
