25
  This energy is -0.00130759 and Call times are: 8859
C	1.50045	0.141204	-1.37898
O	0.462799	0.0721174	-0.662355
O	1.82258	-0.740151	-2.30293
H	2.20797	0.961923	-1.26936
H	1.14405	-1.50342	-2.41245
C	-1.09428	-2.65839	-1.93017
O	-0.000461323	-2.55976	-2.52321
O	-1.51932	-1.93216	-0.901085
H	-1.83801	-3.39718	-2.22764
H	-0.892303	-1.239	-0.544451
C	1.16592	2.86844	1.01104
O	2.05583	2.82415	0.16009
O	0.190365	1.93133	1.15527
H	1.0591	3.66554	1.74946
H	0.245714	1.16621	0.472883
C	-1.74498	-0.225468	2.66699
O	-1.25466	-0.780023	1.67682
O	-1.53908	1.06089	3.0238
H	-2.41012	-0.721196	3.37734
H	-0.918482	1.53131	2.39122
C	4.93639	0.373278	-0.249712
O	4.22962	0.349543	0.745131
O	5.77994	-0.624961	-0.509416
H	4.87589	1.22041	-0.931929
H	5.72973	-1.29388	0.164233
