25
  This energy is -0.0014229 and Call times are: 7834
C	-0.506982	1.97661	0.0940216
O	-0.0949455	0.78573	0.17808
O	-1.25367	2.568	1.0034
H	-0.257233	2.60066	-0.762924
H	-1.47315	1.97984	1.81635
C	-1.2283	-0.142899	3.23434
O	-1.66793	1.00559	3.02089
O	-0.566473	-0.921407	2.38404
H	-1.36091	-0.632605	4.19871
H	-0.414745	-0.561989	1.46284
C	1.5067	0.90157	-2.74346
O	1.10754	2.05844	-2.60079
O	1.27238	-0.108528	-1.86284
H	2.09389	0.553413	-3.59553
H	0.731029	0.176826	-1.03844
C	0.368277	-3.06828	-0.811595
O	-0.197359	-2.22344	-0.108259
O	1.23786	-2.79851	-1.80932
H	0.225823	-4.14579	-0.704728
H	1.37229	-1.81209	-1.9338
C	4.31286	0.443157	-0.0958429
O	4.25121	0.225221	1.10353
O	4.3361	-0.562174	-0.970077
H	4.34922	1.47126	-0.454151
H	4.29901	-1.40016	-0.522657
