25
  This energy is 0.000176375 and Call times are: 5172
C	-1.97722	-0.116413	0.499945
O	-0.722911	-0.104828	0.352857
O	-2.69052	-1.20673	0.691386
H	-2.55624	0.805757	0.477564
H	-2.13756	-2.07157	0.726974
C	0.0730685	-3.3698	0.793187
O	-1.17217	-3.29424	0.832469
O	0.928579	-2.39733	0.494049
H	0.593705	-4.30099	1.01512
H	0.539238	-1.50722	0.255431
C	-0.575576	3.20596	-0.00916378
O	-1.76261	3.00925	0.255961
O	0.361216	2.22606	-0.122805
H	-0.138992	4.19104	-0.185353
H	-0.003791	1.28137	0.0458749
C	2.8059	0.504367	-1.44263
O	1.90962	-0.285755	-1.12517
O	2.78061	1.83875	-1.23482
H	3.73419	0.208203	-1.93589
H	1.92876	2.13418	-0.794743
C	8.05808	0.0993834	-0.398782
O	9.08434	0.730446	-0.202996
O	7.61058	-0.770265	0.506192
H	7.50286	0.249722	-1.3239
H	8.18878	-0.801119	1.26019
