25
  This energy is 0.000282414 and Call times are: 2233
C	0.352858	0.596704	-1.92154
O	0.238942	0.361139	-0.685991
O	-0.0740506	1.69552	-2.50855
H	0.82793	-0.11928	-2.59075
H	-0.507251	2.37363	-1.87019
C	-1.14247	3.23626	0.459835
O	-1.07258	3.34021	-0.782007
O	-0.869285	2.16186	1.19341
H	-1.45431	4.07324	1.08405
H	-0.593196	1.33494	0.702707
C	1.71393	-2.62128	-0.894904
O	1.82807	-2.17559	-2.03786
O	1.09424	-1.97164	0.127173
H	2.09628	-3.59136	-0.571182
H	0.727506	-1.0478	-0.129989
C	-0.936617	-1.52236	2.64836
O	-1.09646	-0.586054	1.85705
O	-0.0441372	-2.52551	2.50149
H	-1.50888	-1.64691	3.57018
H	0.483117	-2.43773	1.65244
C	5.06498	0.432958	-0.00741655
O	6.07944	0.24774	-0.660377
O	4.47307	-0.575482	0.631495
H	4.63987	1.43414	0.0528536
H	4.9474	-1.38778	0.493829
