25
  This energy is -0.00435031 and Call times are: 8664
C	-0.431569	-1.01641	1.71859
O	-0.209049	-0.243086	0.745189
O	0.241485	-0.99526	2.8503
H	-1.21981	-1.76666	1.67412
H	0.973209	-0.275679	2.89239
C	2.22308	1.76909	1.97947
O	1.9961	0.903242	2.84933
O	1.72418	1.82223	0.748471
H	2.89341	2.60642	2.17168
H	1.11161	1.0804	0.474135
C	-2.61544	-1.56949	-1.14266
O	-2.75272	-2.15543	-0.0675473
O	-1.65931	-0.635074	-1.39437
H	-3.24558	-1.73465	-2.01884
H	-1.04867	-0.439675	-0.592465
C	0.777048	0.862596	-2.97671
O	1.11508	0.726348	-1.79537
O	-0.412388	0.489603	-3.49683
H	1.41256	1.30626	-3.74614
H	-1.00695	0.0660478	-2.80858
C	4.81456	0.332389	-0.301808
O	4.61757	0.755814	0.825887
O	4.82465	-0.97769	-0.544922
H	4.98384	1.03427	-1.11754
H	4.6644	-1.47064	0.252009
