25
  This energy is 2.2284e-05 and Call times are: 6586
C	-0.74299	1.41758	1.26938
O	-0.146619	0.649315	0.463671
O	-0.281166	1.7475	2.4577
H	-1.70286	1.86544	1.01592
H	0.631417	1.33457	2.68501
C	2.75075	0.0130185	2.10315
O	2.04705	0.702222	2.86974
O	2.39501	-0.501875	0.930369
H	3.78163	-0.239326	2.3502
H	1.45516	-0.338724	0.628898
C	-2.53003	0.872718	-1.85657
O	-2.90533	1.67138	-0.996733
O	-1.40323	0.115881	-1.7659
H	-3.06075	0.679208	-2.79087
H	-0.865516	0.273522	-0.905597
C	0.466488	-2.56365	-1.84898
O	0.683086	-1.97921	-0.781322
O	-0.369165	-2.13385	-2.81922
H	0.933117	-3.50944	-2.13269
H	-0.819774	-1.27216	-2.57217
C	7.7473	-0.0267891	0.00911615
O	8.158	1.07266	0.34425
O	8.5961	-0.995185	-0.333326
H	6.67486	-0.217113	-0.00980627
H	9.49558	-0.693578	-0.272111
