25
  This energy is -0.000118041 and Call times are: 5993
C	0.844894	-0.556985	-1.77449
O	0.268166	-0.37936	-0.665035
O	1.87948	-1.35207	-1.95258
H	0.505392	-0.0465942	-2.67471
H	2.18555	-1.84244	-1.10356
C	1.93245	-2.53496	1.35266
O	2.49692	-2.57423	0.240149
O	0.961232	-1.71078	1.73286
H	2.20909	-3.21808	2.15531
H	0.654525	-1.03159	1.06544
C	-1.94965	1.77392	-1.91353
O	-1.33609	1.3978	-2.91358
O	-1.68515	1.35811	-0.645528
H	-2.77645	2.48678	-1.93023
H	-0.919574	0.676828	-0.583374
C	-1.07297	1.5874	2.55687
O	-0.217893	0.848185	2.05607
O	-2.09911	2.15873	1.88976
H	-1.09525	1.86745	3.61224
H	-2.08902	1.92535	0.914046
C	5.5907	-0.139965	-0.183033
O	5.62385	-0.125906	1.03701
O	4.49093	0.229449	-0.838426
H	6.47053	-0.458215	-0.740997
H	3.80418	0.481458	-0.231267
