25
  This energy is -0.00696329 and Call times are: 2805
C	1.94512	0.212392	-0.586736
O	0.800767	0.114417	-0.0614796
O	2.65581	1.32077	-0.612664
H	2.42316	-0.643592	-1.06101
H	2.20671	2.12057	-0.150484
C	0.364882	3.20062	1.27001
O	1.44459	3.22752	0.644421
O	-0.523036	2.21177	1.29925
H	0.0414408	4.04163	1.8828
H	-0.319934	1.40238	0.747479
C	0.475229	-3.10938	-0.845818
O	1.62496	-2.8518	-1.20608
O	-0.378485	-2.20757	-0.290305
H	0.00827585	-4.09245	-0.932904
H	0.0235121	-1.2694	-0.179193
C	-3.14678	-0.529621	0.160983
O	-2.2151	0.28034	0.095262
O	-3.02001	-1.87287	0.0974593
H	-4.19487	-0.246104	0.278772
H	-2.06491	-2.15453	-0.0251478
C	5.90234	-0.374088	0.157653
O	6.28501	0.63829	0.721967
O	4.98649	-0.310299	-0.808094
H	6.31488	-1.3397	0.447669
H	4.71526	0.588456	-0.957927
