25
  This energy is -0.00251729 and Call times are: 4556
C	0.0338422	1.07837	1.7346
O	-0.0319251	0.562463	0.583707
O	0.899958	2.00782	2.0813
H	-0.64617	0.773738	2.52893
H	1.52841	2.30214	1.32406
C	2.31189	2.3229	-1.11774
O	2.36562	2.70519	0.0692078
O	1.58713	1.32226	-1.60816
H	2.89384	2.81065	-1.89931
H	1.03373	0.80091	-0.957966
C	-2.5616	-1.45301	1.39157
O	-2.4176	-0.769443	2.40647
O	-1.79752	-1.34016	0.271692
H	-3.31933	-2.2304	1.2751
H	-1.07665	-0.611642	0.3328
C	0.0848976	-2.29125	-2.22522
O	0.654279	-1.35561	-1.65184
O	-1.12369	-2.79297	-1.89056
H	0.501858	-2.82736	-3.08048
H	-1.51867	-2.32309	-1.09697
C	4.41812	0.241836	0.382411
O	5.45554	0.458224	-0.223167
O	3.52242	-0.624474	-0.0895497
H	4.2236	0.763318	1.31885
H	3.81874	-1.0043	-0.909122
