25
  This energy is -0.000314256 and Call times are: 3994
C	0.170494	-1.58781	-1.27384
O	0.234999	-0.632839	-0.449876
O	0.841661	-1.63603	-2.40585
H	-0.463513	-2.45316	-1.08575
H	1.44951	-0.824632	-2.57059
C	2.58098	1.36485	-1.86166
O	2.38107	0.425353	-2.65867
O	1.91209	1.62643	-0.743064
H	3.37206	2.0951	-2.03009
H	1.15097	1.01818	-0.516083
C	-1.93156	-2.02417	1.66774
O	-1.78474	-2.89604	0.809661
O	-1.31995	-0.80923	1.64432
H	-2.57197	-2.12625	2.54609
H	-0.69791	-0.673188	0.838914
C	-1.02683	2.44299	1.78496
O	-0.453848	2.05131	0.761888
O	-1.62794	1.64799	2.69658
H	-1.11408	3.49322	2.07159
H	-1.57154	0.678485	2.44466
C	6.19066	-0.453392	0.00936753
O	6.82659	0.0209677	0.936924
O	5.61371	0.336985	-0.895039
H	6.09448	-1.5349	-0.0788899
H	5.77722	1.2524	-0.697404
