25
  This energy is -2.1026e-05 and Call times are: 4892
C	0.371957	-0.774542	1.85327
O	0.0195464	-0.197417	0.786602
O	0.922589	-0.161103	2.88027
H	0.233252	-1.84649	1.98689
H	1.03678	0.851903	2.7547
C	0.679911	3.05236	1.48691
O	1.08338	2.3848	2.4613
O	0.213564	2.588	0.33193
H	0.677865	4.14188	1.50557
H	0.196968	1.59457	0.215171
C	-1.07837	-3.00816	-0.630561
O	-0.774382	-3.37218	0.506587
O	-0.937002	-1.73792	-1.09661
H	-1.49523	-3.66501	-1.3966
H	-0.557124	-1.08174	-0.404346
C	-0.0545761	0.669303	-3.12373
O	0.33775	0.962257	-1.98855
O	-0.760118	-0.436732	-3.44516
H	0.128713	1.28106	-4.00968
H	-0.927441	-1.02063	-2.64662
C	11.4006	0.228866	-0.336346
O	11.996	0.337027	0.723614
O	10.2879	-0.499441	-0.420843
H	11.784	0.733784	-1.22221
H	10.069	-0.881229	0.421824
