25
  This energy is 1.775e-06 and Call times are: 4864
C	-1.22523	-1.57595	0.43365
O	-0.513705	-0.538391	0.323018
O	-1.0316	-2.51399	1.33744
H	-2.06693	-1.75639	-0.233544
H	-0.246163	-2.33103	1.97352
C	1.61713	-0.857291	2.93939
O	0.922594	-1.89399	2.91215
O	1.63279	0.123833	2.0426
H	2.31318	-0.660195	3.7543
H	1.03792	0.0198262	1.24502
C	-2.24757	0.640677	-2.26881
O	-2.88404	-0.362977	-1.94384
O	-1.10805	1.06214	-1.6568
H	-2.52475	1.30718	-3.08795
H	-0.815159	0.469319	-0.871375
C	1.97877	2.09867	-1.37431
O	1.81974	1.15368	-0.593222
O	1.02143	2.62538	-2.16833
H	2.92693	2.62241	-1.51369
H	0.144529	2.14876	-2.06601
C	10.9421	0.0649548	0.378056
O	9.91843	-0.56824	0.580633
O	11.25	0.487241	-0.847662
H	11.6104	0.286592	1.20929
H	10.5833	0.225513	-1.4728
