25
  This energy is 0.000292063 and Call times are: 4724
C	-0.623256	-1.94496	-0.039352
O	-0.164423	-0.782012	0.139715
O	0.12198	-3.02034	-0.189103
H	-1.69614	-2.12804	-0.0791116
H	1.13243	-2.844	-0.135323
C	3.17205	-1.354	0.307928
O	2.63232	-2.44709	0.0401235
O	2.58592	-0.162725	0.374245
H	4.23805	-1.28345	0.522623
H	1.60703	-0.126119	0.171164
C	-3.18364	0.623394	0.292181
O	-3.44171	-0.579029	0.217356
O	-1.92667	1.14365	0.284467
H	-3.93572	1.41086	0.371652
H	-1.18513	0.436336	0.221603
C	0.545497	3.09075	-0.598617
O	0.948155	1.92237	-0.632325
O	-0.691233	3.48014	-0.220081
H	1.15372	3.95422	-0.876526
H	-1.27168	2.69974	0.0262094
C	8.98569	-0.366857	-0.0360053
O	8.69271	0.502056	-0.841573
O	9.98602	-0.186919	0.825666
H	8.42242	-1.29919	-0.0223944
H	10.3881	0.665841	0.703557
