25
  This energy is -0.000725192 and Call times are: 3808
C	-0.175591	1.3918	-1.4849
O	0.0826962	0.613212	-0.524624
O	-0.422423	2.67827	-1.34963
H	-0.20744	1.02981	-2.5116
H	-0.375845	3.01704	-0.381098
C	0.138715	2.73766	2.11566
O	-0.201031	3.4094	1.12007
O	0.308022	1.42061	2.17728
H	0.336467	3.20791	3.07857
H	0.128288	0.899915	1.34218
C	0.403758	-2.06	-2.49056
O	0.242278	-1.14194	-3.29624
O	0.410377	-1.90671	-1.13884
H	0.558609	-3.10411	-2.76965
H	0.278435	-0.936308	-0.830565
C	-0.370993	-2.47761	1.98304
O	-0.502309	-1.2667	1.7713
O	0.0613336	-3.38585	1.0816
H	-0.594229	-2.95797	2.93811
H	0.258852	-2.96694	0.1916
C	4.03199	-0.277337	-0.166416
O	5.07938	-0.338461	-0.790151
O	3.90927	0.53895	0.879589
H	3.1891	-0.897442	-0.469243
H	4.71643	1.01775	1.03128
