25
  This energy is 0.000591627 and Call times are: 6302
C	0.467423	-1.39932	1.41291
O	0.0166466	-0.602907	0.542516
O	0.0524803	-1.44375	2.66194
H	1.24865	-2.11794	1.16913
H	-0.694931	-0.774486	2.88206
C	-2.44335	0.990096	2.24495
O	-1.87267	0.235314	3.05888
O	-2.08071	1.24177	0.991061
H	-3.34429	1.54049	2.51477
H	-1.24927	0.794535	0.660138
C	2.02464	-1.74583	-1.86076
O	2.26033	-2.50476	-0.919225
O	1.14772	-0.706914	-1.81216
H	2.49478	-1.8192	-2.84343
H	0.673057	-0.606459	-0.907325
C	0.0404964	2.34774	-2.16683
O	-0.216698	1.9791	-1.01516
O	0.637972	1.59224	-3.11374
H	-0.189115	3.34242	-2.55492
H	0.870537	0.677698	-2.77297
C	5.55889	0.0644646	0.397426
O	6.34306	-0.0395314	-0.532119
O	4.24474	-0.0132852	0.191341
H	5.93886	0.222549	1.40606
H	4.05462	-0.151881	-0.729759
