25
  This energy is -0.00293224 and Call times are: 6810
C	0.549605	-0.389864	-1.92842
O	0.378009	-0.104812	-0.710086
O	0.905213	0.481091	-2.84995
H	0.409942	-1.40587	-2.29503
H	1.05045	1.4342	-2.49573
C	1.25433	3.16795	-0.61711
O	1.30685	2.8149	-1.81313
O	0.805788	2.45647	0.412305
H	1.59394	4.15345	-0.299494
H	0.452841	1.54185	0.213024
C	-0.445497	-3.22397	0.130584
O	-0.132505	-3.33086	-1.05628
O	-0.439388	-2.05527	0.826855
H	-0.76594	-4.05633	0.760305
H	-0.13341	-1.24517	0.275283
C	-1.55313	0.322245	2.77355
O	-1.11113	0.84609	1.74467
O	-1.53321	-1.00027	3.04735
H	-2.01815	0.878421	3.59036
H	-1.12223	-1.53184	2.30228
C	3.37221	0.071595	0.351346
O	4.0583	1.04687	0.0907592
O	3.48181	-1.04818	-0.362521
H	2.6629	0.118462	1.17682
H	4.13403	-0.950122	-1.04718
