25
  This energy is 0.00033602 and Call times are: 6446
C	-0.403453	1.71946	-1.02644
O	-0.251582	0.575355	-0.513587
O	0.0398999	2.06171	-2.2183
H	-0.928549	2.51111	-0.493776
H	0.520672	1.30676	-2.72219
C	1.27342	-1.12707	-3.01632
O	1.16059	0.0548416	-3.40132
O	0.989962	-1.61059	-1.81094
H	1.63811	-1.90955	-3.68126
H	0.66635	-0.958712	-1.12454
C	-1.8386	1.38606	2.3039
O	-1.97973	2.3926	1.6075
O	-1.15816	0.272457	1.91972
H	-2.24277	1.27295	3.31181
H	-0.76871	0.330535	0.971529
C	0.980836	-2.19168	2.10788
O	1.14401	-1.62586	1.02086
O	0.0483259	-1.86217	3.02781
H	1.58258	-3.03504	2.4534
H	-0.507044	-1.0793	2.73578
C	5.90041	0.133404	0.430583
O	6.05357	1.04747	-0.363655
O	5.61746	-1.0974	0.00563791
H	5.99636	0.3273	1.49825
H	5.56324	-1.12334	-0.943132
