25
  This energy is -0.0050963 and Call times are: 2054
C	-0.244425	-0.211407	2.01704
O	-0.268723	-0.0720168	0.762037
O	-0.660584	0.699942	2.87172
H	0.132926	-1.12421	2.47592
H	-1.02957	1.55222	2.43303
C	-1.77893	2.94203	0.412246
O	-1.6277	2.75496	1.63699
O	-1.31572	2.18781	-0.579562
H	-2.33958	3.79563	0.0321675
H	-0.769207	1.38919	-0.325902
C	1.05615	-3.07583	0.182514
O	0.904049	-3.07183	1.40516
O	0.742159	-2.03593	-0.636453
H	1.4628	-3.91545	-0.384697
H	0.345324	-1.22622	-0.145542
C	1.14148	0.210376	-2.97681
O	0.721635	0.783038	-1.9648
O	1.3529	-1.11877	-3.09122
H	1.39397	0.722772	-3.90764
H	1.14023	-1.60737	-2.24114
C	3.7353	0.276169	0.308435
O	2.77655	-0.338966	0.746837
O	4.13694	0.103781	-0.950331
H	4.26758	0.973427	0.954364
H	3.5861	-0.529173	-1.39724
