25
  This energy is -0.000245359 and Call times are: 2917
C	-1.59627	-0.792707	-0.998207
O	-0.532501	-0.29041	-0.538705
O	-2.41537	-0.169141	-1.81948
H	-1.90329	-1.80338	-0.732789
H	-2.11293	0.777681	-2.07841
C	-0.423476	2.70663	-2.11775
O	-1.50031	2.16653	-2.44421
O	0.45286	2.27314	-1.21708
H	-0.0933827	3.6392	-2.57468
H	0.223634	1.43041	-0.729154
C	0.240383	-3.0029	1.23868
O	-0.761442	-3.35706	0.615031
O	0.800003	-1.76548	1.1593
H	0.793897	-3.64231	1.92921
H	0.316917	-1.13231	0.511356
C	2.06159	1.06582	2.19602
O	1.19906	1.31947	1.34744
O	2.43454	-0.172821	2.58471
H	2.62812	1.8269	2.7369
H	1.91538	-0.887773	2.10942
C	5.53313	0.308854	0.251624
O	6.73836	0.310568	0.44449
O	4.9843	-0.537329	-0.619165
H	4.90036	1.00726	0.798023
H	5.64818	-1.08587	-1.02183
