25
  This energy is -0.00229968 and Call times are: 1668
C	0.208635	-2.03082	-0.0715526
O	0.222014	-0.769306	-0.130294
O	0.0121612	-2.81858	-1.10841
H	0.365989	-2.55324	0.871045
H	-0.120269	-2.32084	-1.99707
C	-0.140853	-0.210088	-3.45342
O	-0.232681	-1.44321	-3.28359
O	-0.0619247	0.727241	-2.51412
H	-0.11698	0.226414	-4.45157
H	-0.0970186	0.420808	-1.56245
C	0.785458	-0.404121	3.13517
O	0.843098	-1.62495	2.97937
O	0.5256	0.48806	2.1416
H	0.934896	0.102466	4.09072
H	0.388473	0.0553686	1.22068
C	-0.905269	3.0011	0.618484
O	-0.922489	2.03023	-0.146692
O	-0.350375	3.01543	1.84986
H	-1.34474	3.97253	0.38197
H	0.0472716	2.12695	2.09291
C	3.75174	0.437846	-0.0661392
O	3.1676	-0.296139	-0.847059
O	4.57387	-0.0640453	0.854581
H	3.5984	1.51483	-0.123599
H	4.61356	-1.01181	0.791729
