25
  This energy is 0.000276687 and Call times are: 6474
C	-1.51973	1.02246	-0.904364
O	-0.638463	0.249946	-0.433578
O	-1.62299	1.33918	-2.17844
H	-2.26837	1.48259	-0.260949
H	-0.924035	0.890296	-2.78255
C	0.988007	-0.758895	-3.23079
O	0.144395	0.0878128	-3.59032
O	1.30127	-1.10333	-1.98567
H	1.57501	-1.32082	-3.9568
H	0.825587	-0.623137	-1.24814
C	-1.74	0.544669	2.69912
O	-2.5751	1.17812	2.05154
O	-0.653005	-0.0713085	2.16088
H	-1.77579	0.406303	3.78153
H	-0.584639	0.0240199	1.1409
C	2.48319	-0.913941	1.79085
O	2.05374	-0.546332	0.691386
O	1.75769	-0.988094	2.92776
H	3.51473	-1.22444	1.97044
H	0.808996	-0.693202	2.78773
C	7.56317	-0.344322	0.261644
O	7.4733	-0.596816	-0.929138
O	8.02248	0.836444	0.674357
H	7.26426	-1.09336	0.993968
H	8.24493	1.39009	-0.0657611
