25
  This energy is 0.000479786 and Call times are: 3001
C	-1.27151	-0.311605	-1.56814
O	-0.614237	-0.0213472	-0.529486
O	-2.38245	-1.01874	-1.56818
H	-0.945302	0.0198354	-2.55298
H	-2.69352	-1.31544	-0.63534
C	-2.55893	-1.31677	1.92562
O	-3.08819	-1.63543	0.841093
O	-1.38736	-0.713995	2.10214
H	-3.04677	-1.5211	2.87835
H	-0.855905	-0.504581	1.28085
C	1.72424	1.65635	-2.21202
O	0.905726	1.36988	-3.08723
O	1.60938	1.30157	-0.903726
H	2.63823	2.22741	-2.38682
H	0.756762	0.77061	-0.69102
C	2.49177	0.0837893	1.99818
O	1.40242	-0.413082	1.69024
O	3.16593	1.00039	1.27033
H	3.04169	-0.166942	2.90783
H	2.68404	1.23459	0.422075
C	7.90029	0.219493	-0.30856
O	8.05667	0.867454	0.71393
O	8.43496	-0.994603	-0.433537
H	7.31703	0.639515	-1.12715
H	8.9149	-1.23502	0.351087
