25
  This energy is -3.2529e-05 and Call times are: 6698
C	-1.45881	1.2844	-0.628542
O	-0.443009	0.614173	-0.290918
O	-1.80708	2.42927	-0.0787951
H	-2.12314	0.941377	-1.42048
H	-1.16857	2.75541	0.656681
C	0.992343	2.62282	2.03129
O	-0.0807374	3.16658	1.69859
O	1.43255	1.42273	1.66649
H	1.70154	3.1209	2.69187
H	0.836045	0.880915	1.07367
C	-1.03155	-1.80632	-2.50652
O	-1.90294	-0.975126	-2.76692
O	-0.111727	-1.67299	-1.51312
H	-0.898556	-2.74781	-3.04313
H	-0.192887	-0.794775	-0.987504
C	1.66902	-2.49147	1.10254
O	1.17205	-1.37888	1.31123
O	1.52503	-3.21106	-0.0314221
H	2.28997	-3.02756	1.82349
H	0.945388	-2.74206	-0.702723
C	8.18147	-0.133087	0.206178
O	7.73596	-0.983084	-0.548021
O	7.56044	1.03615	0.356933
H	9.09689	-0.333828	0.76153
H	6.77952	1.07633	-0.18375
