25
  This energy is 0.000137397 and Call times are: 403
C	-1.04961	-1.55892	-0.800614
O	-0.55622	-0.535066	-0.249844
O	-1.66612	-2.52471	-0.151478
H	-0.991704	-1.7026	-1.87865
H	-1.73127	-2.37641	0.862796
C	-1.45205	-0.97113	2.98974
O	-1.82321	-1.99084	2.37306
O	-0.720382	0.0328297	2.51665
H	-1.71486	-0.811435	4.03513
H	-0.413894	-0.0365701	1.56688
C	0.542142	0.751057	-3.12274
O	-0.082785	-0.246279	-3.48718
O	0.699643	1.13038	-1.82582
H	1.0436	1.44512	-3.80014
H	0.234136	0.510495	-1.15265
C	2.24834	2.08929	0.887972
O	1.52764	1.12774	1.1785
O	2.33658	2.6583	-0.333853
H	2.90663	2.59507	1.59761
H	1.74937	2.19899	-1.00528
C	8.65874	-0.13405	-0.433236
O	9.31806	-0.858992	0.294458
O	8.01018	0.919337	0.0620089
H	8.60071	-0.351723	-1.49905
H	8.14697	0.990112	1.00012
