25
  This energy is -0.00221786 and Call times are: 3938
C	0.208635	1.23083	1.61691
O	0.222014	0.386403	0.677865
O	0.0121612	0.927356	2.88322
H	0.365989	2.29115	1.42421
H	-0.120269	-0.0755864	3.06086
C	-0.140853	-2.53944	2.34978
O	-0.232681	-1.62703	3.1965
O	-0.0619247	-2.4062	1.02951
H	-0.11698	-3.58834	2.64416
H	-0.0970186	-1.47565	0.663916
C	0.785458	2.68216	-1.6729
O	0.843098	3.3348	-0.629455
O	0.5256	1.34821	-1.73406
H	0.934896	3.10079	-2.67012
H	0.388473	0.909583	-0.815957
C	-0.905269	-1.4221	-2.71418
O	-0.922489	-1.39935	-1.47823
O	-0.350375	-0.478245	-3.50516
H	-1.34474	-2.22037	-3.31614
H	0.0472716	0.272556	-2.97152
C	4.11012	-0.0641219	-0.406909
O	3.2903	0.213414	0.453706
O	5.40606	-0.151726	-0.109587
H	3.77737	-0.24191	-1.42886
H	5.55414	0.02636	0.81244
