25
  This energy is -0.00136815 and Call times are: 7370
C	1.37035	1.51467	-0.0279504
O	0.660336	0.471028	0.0136753
O	2.08376	1.966	0.982783
H	1.43482	2.11723	-0.932901
H	2.03131	1.38545	1.82848
C	1.32449	-0.715333	3.11835
O	1.9198	0.376835	3.01519
O	0.475785	-1.25379	2.24837
H	1.46118	-1.35776	3.98784
H	0.27211	-0.72365	1.42479
C	-0.382056	0.789688	-3.13687
O	0.43574	1.70407	-3.02228
O	-0.718082	-0.0729726	-2.14008
H	-0.933162	0.567611	-4.05284
H	-0.21467	0.0925605	-1.26071
C	-2.64559	-1.78662	-0.132392
O	-1.79863	-1.2047	0.554941
O	-2.72106	-1.74416	-1.48032
H	-3.44213	-2.41019	0.279218
H	-2.00569	-1.16418	-1.87839
C	4.47937	-0.190936	-0.374389
O	5.14743	0.801174	-0.617713
O	4.31302	-0.608773	0.879907
H	4.01458	-0.739883	-1.19252
H	4.77063	-0.0402239	1.48911
