25
  This energy is 1.4944e-05 and Call times are: 5312
C	-1.32294	-0.558449	1.45287
O	-0.538923	-0.369193	0.480995
O	-2.62755	-0.695092	1.33639
H	-0.949972	-0.622952	2.4741
H	-2.97176	-0.648806	0.369765
C	-2.64187	-0.544218	-2.17127
O	-3.3477	-0.632009	-1.14563
O	-1.33909	-0.286767	-2.23117
H	-3.06494	-0.679995	-3.16626
H	-0.867263	-0.126834	-1.36364
C	2.17612	-0.242839	2.41144
O	1.28312	-0.534022	3.20879
O	1.98202	-0.0261726	1.0825
H	3.22739	-0.123376	2.6809
H	1.00681	-0.138594	0.781771
C	2.1713	1.49874	-1.80219
O	0.986696	1.20843	-1.60015
O	3.20091	1.19416	-0.982722
H	2.52496	2.04403	-2.67987
H	2.89548	0.704588	-0.161977
C	17.563	-0.26113	-0.365488
O	17.6204	0.930001	-0.62569
O	17.3364	-0.675579	0.880458
H	17.6987	-0.992333	-1.1615
H	17.2377	0.0637067	1.46994
