25
  This energy is -3.8904e-05 and Call times are: 4808
C	1.19488	1.44121	0.817351
O	0.367254	0.682876	0.238543
O	2.04802	2.22328	0.189058
H	1.24847	1.49267	1.90393
H	1.98243	2.1821	-0.835145
C	0.880609	1.43343	-3.02652
O	1.72634	2.07683	-2.37181
O	0.0331874	0.518721	-2.56581
H	0.761294	1.579	-4.09984
H	0.0838684	0.302917	-1.59027
C	-0.889278	-0.490404	3.09487
O	-0.100548	0.376415	3.47507
O	-1.10143	-0.821379	1.79251
H	-1.50828	-1.09465	3.76103
H	-0.546386	-0.269265	1.12827
C	-1.42446	-2.73456	-0.837706
O	-0.632346	-1.82808	-1.1192
O	-2.06749	-2.87158	0.342184
H	-1.69761	-3.54077	-1.52192
H	-1.81946	-2.14788	0.991279
C	6.99108	0.337357	0.303067
O	7.85709	-0.487649	0.54633
O	6.19499	0.196488	-0.756141
H	6.86871	1.19778	0.959882
H	6.41092	-0.593695	-1.2386
