25
  This energy is 1.0774e-05 and Call times are: 5368
C	1.49751	0.548892	-1.27635
O	0.660663	0.0592707	-0.467021
O	2.74525	0.836094	-0.96831
H	1.22406	0.765705	-2.30804
H	3.00175	0.615241	0.00144222
C	2.54759	-0.405275	2.30989
O	3.2752	0.165044	1.47133
O	1.24664	-0.657934	2.20602
H	2.94657	-0.765384	3.25781
H	0.787876	-0.343976	1.37429
C	-1.80118	-0.0115216	-2.71388
O	-0.831824	0.360286	-3.3773
O	-1.765	-0.280773	-1.38088
H	-2.80269	-0.166138	-3.12023
H	-0.837524	-0.158607	-0.957828
C	-2.66032	-0.175978	1.76079
O	-1.44901	0.063659	1.7002
O	-3.45226	-0.46926	0.706633
H	-3.23672	-0.176716	2.68842
H	-2.94445	-0.459924	-0.158604
C	20.8694	-0.303958	0.0635472
O	20.5044	0.652637	-0.600919
O	22.1192	-0.379088	0.51931
H	20.1646	-1.10436	0.28569
H	22.6226	0.382134	0.252859
