25
  This energy is -8.966e-06 and Call times are: 5284
C	0.0790352	-1.80368	0.955709
O	-0.0990609	-0.759005	0.268694
O	-0.819953	-2.31721	1.76955
H	1.01649	-2.35613	0.909432
H	-1.7074	-1.80083	1.79745
C	-3.32195	0.0148522	0.976976
O	-3.02259	-0.966389	1.6879
O	-2.50888	0.721074	0.197708
H	-4.34146	0.397346	0.935558
H	-1.54469	0.454571	0.187248
C	2.94128	-0.872404	-1.09422
O	2.89217	-1.91554	-0.440408
O	1.93977	0.0462185	-1.15588
H	3.79658	-0.564289	-1.69884
H	1.1089	-0.208312	-0.609084
C	0.501724	2.97902	-1.04036
O	-0.150537	2.2051	-0.330438
O	1.59195	2.64415	-1.76403
H	0.267032	4.03844	-1.16398
H	1.83353	1.6767	-1.65327
C	15.3551	-0.0910165	0.332413
O	15.8705	1.00892	0.452038
O	15.6732	-0.884244	-0.689904
H	14.6273	-0.426676	1.07019
H	16.3164	-0.468371	-1.25308
