25
  This energy is -0.00133124 and Call times are: 5116
C	-1.25287	-0.172359	-1.60421
O	-0.619479	-0.101355	-0.513878
O	-1.8203	-1.26939	-2.06112
H	-1.36969	0.699481	-2.24641
H	-1.72011	-2.08441	-1.44412
C	-1.03321	-3.21846	0.75105
O	-1.55589	-3.21745	-0.38238
O	-0.322901	-2.24359	1.30979
H	-1.12252	-4.07567	1.41786
H	-0.170366	-1.42093	0.761363
C	0.101976	3.13161	-0.890012
O	-0.630985	2.89799	-1.85241
O	0.479149	2.20685	0.0336985
H	0.535049	4.10913	-0.668773
H	0.0854057	1.27279	-0.129435
C	2.48088	0.479801	1.95543
O	1.756	-0.314876	1.34598
O	2.41535	1.82574	1.86289
H	3.2697	0.178604	2.64809
H	1.70532	2.1238	1.21976
C	5.87207	-0.139473	-0.0902301
O	5.14685	-1.04974	0.277546
O	5.40501	1.10432	-0.191937
H	6.91234	-0.347546	-0.337719
H	4.48731	1.14193	0.0533907
