25
  This energy is 0.000451969 and Call times are: 7974
C	0.806973	-0.327942	-1.84774
O	0.291286	-0.299903	-0.695204
O	1.96984	-0.879954	-2.12567
H	0.300118	0.116111	-2.70335
H	2.43602	-1.31057	-1.31806
C	2.52158	-2.09031	1.12353
O	2.99583	-1.98578	-0.0262664
O	1.42958	-1.5004	1.59958
H	2.99634	-2.71454	1.88007
H	0.936573	-0.889144	0.979797
C	-2.41975	1.35457	-1.70865
O	-1.81791	1.13833	-2.76176
O	-1.97818	0.979497	-0.477784
H	-3.37748	1.87456	-1.6423
H	-1.08335	0.476356	-0.493424
C	-1.18805	1.26994	2.68038
O	-0.236312	0.740637	2.09522
O	-2.35926	1.62218	2.10713
H	-1.18922	1.51754	3.74407
H	-2.37382	1.41597	1.12537
C	7.38326	0.270588	-0.179441
O	7.52245	-0.767156	-0.806741
O	8.11751	0.513853	0.905558
H	6.6504	1.00509	-0.511308
H	8.71261	-0.20681	1.07957
