25
  This energy is -0.00156911 and Call times are: 1349
C	0.821804	1.75637	0.642393
O	0.447176	0.591855	0.328389
O	0.874492	2.20966	1.8777
H	1.13387	2.47233	-0.116681
H	0.593838	1.52529	2.59035
C	-0.0766798	-0.826768	3.36164
O	0.2148	0.369046	3.56884
O	-0.287354	-1.41101	2.18633
H	-0.190007	-1.535	4.182
H	-0.224728	-0.831545	1.37324
C	0.878047	1.09681	-2.93863
O	1.30734	2.13794	-2.43885
O	0.35482	0.0603411	-2.22966
H	0.866736	0.887052	-4.01004
H	0.355237	0.210182	-1.21395
C	-1.78152	-2.26362	-1.38235
O	-1.50146	-1.6137	-0.368657
O	-1.25528	-2.06171	-2.60983
H	-2.49846	-3.08727	-1.4006
H	-0.603597	-1.29893	-2.61819
C	4.58584	0.288374	0.0989585
O	4.7845	-0.831373	0.542232
O	3.47928	0.560693	-0.591611
H	5.32204	1.07278	0.270493
H	2.92828	-0.210525	-0.665093
