25
  This energy is 0.000312651 and Call times are: 7630
C	0.271391	1.89202	-0.720743
O	-0.0578469	0.732409	-0.343991
O	0.37289	2.26049	-1.98097
H	0.494919	2.67708	0.000296755
H	0.146019	1.52055	-2.65625
C	-0.71894	-0.809254	-3.28912
O	-0.294131	0.331021	-3.56692
O	-0.771681	-1.3772	-2.08839
H	-1.10594	-1.47544	-4.05973
H	-0.417384	-0.845674	-1.31847
C	0.179738	1.47935	2.89633
O	0.376862	2.56452	2.34716
O	-0.0495524	0.312102	2.2363
H	0.1682	1.32955	3.97775
H	-0.0581499	0.408093	1.21413
C	0.291057	-2.83877	1.43713
O	0.339516	-2.17297	0.396579
O	0.0898423	-2.33885	2.67569
H	0.408327	-3.92397	1.4734
H	-0.00641509	-1.34023	2.66649
C	5.39231	-0.291842	0.344641
O	6.41772	0.335899	0.134243
O	4.30511	-0.0885399	-0.398441
H	5.36703	-1.02604	1.14902
H	4.46679	0.575181	-1.05958
