25
  This energy is 0.000425451 and Call times are: 8157
C	0.863748	0.590637	1.75441
O	0.185302	0.307399	0.727508
O	1.18872	1.81544	2.11287
H	1.22749	-0.188648	2.42268
H	0.830001	2.54704	1.48752
C	-0.590332	3.37813	-0.479355
O	0.164113	3.55571	0.498981
O	-0.919181	2.21913	-1.04119
H	-1.07166	4.21444	-0.985654
H	-0.506982	1.39368	-0.65451
C	0.303501	-2.97711	1.28617
O	0.851853	-2.50686	2.28427
O	-0.179571	-2.23724	0.2518
H	0.143687	-4.04372	1.11634
H	-0.0599889	-1.2249	0.374229
C	-0.664657	-1.30055	-2.84173
O	-0.32807	-0.305831	-2.18933
O	-0.837678	-2.54234	-2.33931
H	-0.862458	-1.28782	-3.91572
H	-0.646918	-2.57913	-1.35501
C	4.98522	-0.262481	-0.0614572
O	4.97975	0.722726	-0.781963
O	5.98789	-0.478139	0.789223
H	4.16075	-0.972441	-0.115454
H	6.63497	0.215974	0.732001
