25
  This energy is -0.000990988 and Call times are: 2536
C	-1.63703	-0.420576	-1.14723
O	-0.686063	0.00420749	-0.432896
O	-2.8963	-0.449783	-0.763032
H	-1.46166	-0.796662	-2.15419
H	-3.05774	-0.079682	0.1814
C	-2.31079	1.10019	2.33236
O	-3.16947	0.574169	1.59491
O	-0.99366	1.1094	2.153
H	-2.59019	1.62884	3.24334
H	-0.641203	0.628612	1.34961
C	1.62408	-0.608236	-2.75716
O	0.570655	-0.878255	-3.33631
O	1.70776	-0.188111	-1.46597
H	2.61323	-0.677007	-3.21422
H	0.797865	-0.098584	-0.998865
C	2.74539	-0.0917893	1.63189
O	1.50954	-0.122399	1.64336
O	3.51575	-0.0615659	0.522812
H	3.3642	-0.086622	2.53177
H	2.96645	-0.0800306	-0.316549
C	6.72964	0.124007	0.435296
O	6.8134	-1.08451	0.286104
O	6.56923	0.929892	-0.61367
H	6.78681	0.547098	1.43751
H	6.5359	0.430304	-1.4218
