25
  This energy is -4.111e-06 and Call times are: 5564
C	1.38868	0.190452	-1.486
O	0.496839	0.243359	-0.593318
O	1.16492	0.385298	-2.76904
H	2.42632	-0.0245423	-1.23452
H	0.187648	0.602823	-2.99841
C	-2.23665	1.1604	-2.37507
O	-1.31115	0.993561	-3.19573
O	-2.2139	0.89534	-1.07264
H	-3.20208	1.56296	-2.68055
H	-1.37139	0.501707	-0.703794
C	2.62119	-0.452586	1.87991
O	3.36032	-0.358667	0.898639
O	1.26899	-0.308096	1.84272
H	2.96724	-0.664689	2.89347
H	0.899766	-0.0964745	0.908378
C	-1.8747	-1.02697	2.37476
O	-1.7392	-0.770441	1.173
O	-0.892495	-0.973779	3.30043
H	-2.81898	-1.33151	2.83119
H	-0.0119577	-0.709251	2.89884
C	14.3255	-0.0943777	-0.302589
O	13.973	0.73814	0.517434
O	15.5468	-0.625051	-0.252072
H	13.6332	-0.406086	-1.08378
H	16.042	-0.264982	0.475165
