25
  This energy is -0.00235571 and Call times are: 2973
C	0.351775	1.60615	1.2122
O	0.291078	0.648229	0.391371
O	1.24297	1.69933	2.17725
H	-0.352036	2.43589	1.1637
H	1.91351	0.921903	2.20854
C	2.98317	-1.21277	1.27277
O	2.90683	-0.277525	2.09579
O	2.1082	-1.51877	0.319951
H	3.82909	-1.89967	1.26917
H	1.28556	-0.952683	0.259773
C	-2.34288	1.90645	-1.21897
O	-2.06437	2.7926	-0.40953
O	-1.67734	0.724926	-1.32737
H	-3.15847	1.96728	-1.94227
H	-0.89329	0.628557	-0.671555
C	-1.25063	-2.50902	-1.53278
O	-0.496215	-2.07891	-0.652864
O	-2.07113	-1.75449	-2.2956
H	-1.34124	-3.56494	-1.79653
H	-2.01373	-0.781088	-2.05943
C	6.18575	0.350755	-0.263925
O	5.59154	-0.672761	-0.562454
O	7.06114	0.361323	0.74061
H	5.99743	1.26491	-0.82568
H	7.12693	-0.498533	1.14073
