25
  This energy is -0.00279165 and Call times are: 8398
C	0.946153	1.59841	0.850146
O	0.445975	0.512362	0.443497
O	0.734213	2.11001	2.04496
H	1.60344	2.18971	0.214128
H	0.126147	1.54053	2.64573
C	-1.20695	-0.580761	3.19312
O	-0.747457	0.545432	3.47315
O	-1.187	-1.18574	2.00962
H	-1.69431	-1.19955	3.94612
H	-0.775677	-0.682561	1.24907
C	1.89084	0.714807	-2.55408
O	2.36341	1.68119	-1.95341
O	0.984375	-0.151928	-2.02702
H	2.14459	0.443794	-3.58082
H	0.724073	0.0590512	-1.05654
C	-1.73605	-1.95364	-1.83795
O	-1.63117	-1.30825	-0.788734
O	-0.849821	-1.93707	-2.85713
H	-2.57116	-2.6203	-2.06359
H	-0.0806652	-1.31888	-2.67591
C	4.68662	0.396863	0.0520321
O	3.985	-0.555025	0.354413
O	5.93484	0.213486	-0.376733
H	4.28675	1.40686	0.134045
H	6.152	-0.711773	-0.399352
