25
  This energy is 2.7029e-05 and Call times are: 3029
C	0.40927	1.98569	-0.249782
O	0.260095	0.731674	-0.234738
O	1.55672	2.59768	-0.0422506
H	-0.430721	2.65131	-0.443547
H	2.34816	1.96461	0.124627
C	3.43678	-0.355001	0.229328
O	3.46993	0.891211	0.290298
O	2.35823	-1.12748	0.145082
H	4.34987	-0.949594	0.241642
H	1.46934	-0.668491	0.148002
C	-3.00708	0.892197	-0.878046
O	-2.65139	2.06915	-0.957424
O	-2.17999	-0.143809	-0.572598
H	-4.02921	0.545369	-1.04236
H	-1.20388	0.135508	-0.419949
C	-1.12422	-2.83525	0.951912
O	-0.210433	-2.00273	0.969083
O	-2.32806	-2.66175	0.364479
H	-1.06085	-3.82081	1.41816
H	-2.41248	-1.75585	-0.0583792
C	7.98665	0.0354411	-0.443818
O	8.73769	-0.744999	0.118899
O	7.03815	0.677937	0.236667
H	8.09404	0.207694	-1.5141
H	7.05764	0.434648	1.15547
