25
  This energy is -0.00476404 and Call times are: 8341
C	-1.17337	-0.0662839	1.67083
O	-0.497217	0.142956	0.62485
O	-0.954205	0.527503	2.82565
H	-2.00342	-0.771391	1.67419
H	-0.180241	1.20263	2.81252
C	1.62401	2.58835	1.62883
O	0.965822	2.2478	2.63316
O	1.61246	2.01741	0.428423
H	2.30684	3.43709	1.65721
H	1.02742	1.21416	0.313017
C	-2.25153	-2.0211	-1.20635
O	-2.85543	-2.01418	-0.132441
O	-1.13175	-1.29331	-1.4654
H	-2.54547	-2.61463	-2.07432
H	-0.824403	-0.710245	-0.678195
C	1.91537	-0.66779	-2.46862
O	1.78324	-0.199405	-1.33216
O	0.946319	-1.28974	-3.17469
H	2.84592	-0.631979	-3.03917
H	0.0856306	-1.34603	-2.66221
C	4.74831	-0.000602135	0.0414379
O	5.22857	1.11428	0.168688
O	5.52844	-1.05522	-0.192434
H	3.66996	-0.133512	0.120154
H	6.44219	-0.796593	-0.23669
