25
  This energy is -0.000578467 and Call times are: 6872
C	0.969703	0.885211	1.56491
O	0.252536	0.467653	0.612882
O	1.60886	2.0366	1.56106
H	1.10141	0.296875	2.47193
H	1.4686	2.59393	0.70977
C	0.349409	3.07853	-1.54616
O	1.11181	3.36489	-0.600327
O	-0.273244	1.92285	-1.75542
H	0.117911	3.80057	-2.32878
H	-0.103924	1.1897	-1.09616
C	-0.52713	-2.381	2.15928
O	0.115617	-1.76921	3.01404
O	-0.779909	-1.9162	0.905983
H	-0.966868	-3.36899	2.30946
H	-0.392981	-0.982856	0.723601
C	-0.956428	-1.93273	-2.35764
O	-0.371775	-0.899873	-2.01155
O	-1.46436	-2.86135	-1.51854
H	-1.13036	-2.2163	-3.39786
H	-1.3026	-2.62677	-0.556559
C	4.4551	-0.0330334	0.452351
O	5.24507	0.798458	0.0347803
O	3.69271	-0.73048	-0.388983
H	4.37344	-0.205864	1.52481
H	3.86613	-0.479677	-1.28943
