25
  This energy is -0.0020168 and Call times are: 8496
C	-1.10944	-1.3499	-1.0582
O	-0.349278	-0.474161	-0.55792
O	-2.06211	-1.09295	-1.93035
H	-1.01395	-2.4006	-0.787858
H	-2.1374	-0.102881	-2.19317
C	-1.32857	2.33073	-2.18922
O	-2.09306	1.41502	-2.55652
O	-0.401084	2.27113	-1.2388
H	-1.36253	3.31848	-2.64814
H	-0.310752	1.40532	-0.745834
C	1.32091	-2.67447	1.30841
O	0.568883	-3.38958	0.644242
O	1.36022	-1.31682	1.23154
H	2.04214	-3.04908	2.03747
H	0.703996	-0.920626	0.548521
C	1.36915	1.78176	2.27143
O	0.521384	1.68096	1.37727
O	2.17236	0.784951	2.70228
H	1.56712	2.70287	2.82379
H	1.99667	-0.07529	2.21678
C	4.32371	-0.087103	-0.349023
O	4.8901	0.988644	-0.457503
O	4.54261	-0.86811	0.708155
H	3.63194	-0.411054	-1.12569
H	5.16451	-0.464786	1.30342
