25
  This energy is -0.00672582 and Call times are: 2861
C	-1.17299	-1.35873	-0.975096
O	-0.509486	-0.401116	-0.487471
O	-2.48836	-1.42233	-0.978858
H	-0.676784	-2.21163	-1.43608
H	-2.95111	-0.608286	-0.556745
C	-2.95478	1.74535	0.46161
O	-3.52214	0.715298	0.0433207
O	-1.65056	1.92769	0.642807
H	-3.5205	2.63708	0.730313
H	-1.0511	1.15269	0.440739
C	2.43551	-1.7639	-1.25159
O	1.6293	-2.54311	-1.76235
O	2.09206	-0.652339	-0.546486
H	3.52009	-1.87738	-1.30496
H	1.07895	-0.499843	-0.479653
C	2.07223	1.48732	1.92416
O	0.899427	1.20592	1.65261
O	3.159	1.01582	1.27531
H	2.36713	2.15912	2.73315
H	2.91052	0.384604	0.53611
C	6.16604	0.277483	0.272034
O	7.37122	0.355042	0.448947
O	5.66398	-0.554774	-0.639453
H	5.49462	0.895979	0.866483
H	6.35824	-1.03003	-1.08208
