25
  This energy is -0.000349156 and Call times are: 8030
C	0.00737705	1.85398	0.857657
O	0.0813998	0.784433	0.190099
O	1.05088	2.52953	1.29237
H	-0.955714	2.29135	1.11715
H	1.95635	2.12076	1.03156
C	3.42709	0.43943	-0.228077
O	3.25661	1.43436	0.506026
O	2.50109	-0.414455	-0.652921
H	4.41434	0.172631	-0.604333
H	1.5634	-0.26043	-0.340146
C	-3.22659	0.443489	-0.0445118
O	-3.09987	1.53456	0.513644
O	-2.19122	-0.357919	-0.413919
H	-4.1863	-0.00690187	-0.305554
H	-1.26661	0.0320027	-0.196729
C	-0.419913	-3.09045	-0.693847
O	0.323796	-2.19328	-0.281097
O	-1.72469	-2.94019	-1.00912
H	-0.101193	-4.12301	-0.851906
H	-2.04187	-2.00053	-0.857385
C	7.36876	0.381073	0.179004
O	7.13854	-0.470433	1.02264
O	7.12541	0.14577	-1.10977
H	7.77765	1.34351	0.484356
H	6.77228	-0.728238	-1.23302
