25
  This energy is 1.982e-05 and Call times are: 743
C	0.838143	1.66397	-0.837612
O	0.413451	0.543928	-0.437377
O	2.0958	2.04791	-0.766021
H	0.165104	2.39696	-1.28023
H	2.7284	1.34679	-0.361979
C	3.27397	-0.994247	0.531624
O	3.58485	0.167901	0.199017
O	2.04936	-1.50165	0.631415
H	4.03166	-1.73552	0.784305
H	1.28525	-0.88582	0.437279
C	-2.74409	1.18975	-1.28995
O	-2.13614	2.17362	-1.71469
O	-2.16468	0.153542	-0.625686
H	-3.81992	1.03729	-1.39668
H	-1.14891	0.24989	-0.511462
C	-1.71497	-2.06914	1.72805
O	-0.638484	-1.49233	1.53611
O	-2.85763	-1.8378	1.04597
H	-1.86661	-2.84288	2.48374
H	-2.74369	-1.11914	0.355225
C	14.4097	0.17689	-0.417557
O	15.4726	-0.332409	-0.100011
O	13.3762	0.175709	0.423399
H	14.3064	0.637097	-1.39951
H	13.6044	-0.256343	1.23889
