25
  This energy is 3.6888e-05 and Call times are: 4780
C	-1.33182	1.02605	1.16033
O	-0.480726	0.544718	0.360948
O	-1.06247	1.94567	2.06364
H	-2.36993	0.697036	1.14423
H	-0.0856596	2.26321	2.06388
C	2.28705	2.35786	1.09541
O	1.40377	2.70454	1.90627
O	2.2203	1.37153	0.206724
H	3.24803	2.86942	1.04794
H	1.37905	0.830352	0.191015
C	-2.67779	-1.49683	-1.09476
O	-3.37842	-0.843759	-0.319752
O	-1.33184	-1.34968	-1.22697
H	-3.05733	-2.27123	-1.7643
H	-0.932454	-0.622518	-0.622124
C	1.81245	-2.22358	-1.40691
O	1.71735	-1.30487	-0.585132
O	0.79116	-2.73642	-2.12689
H	2.74798	-2.7334	-1.64692
H	-0.0814615	-2.29093	-1.91088
C	8.79419	-0.374567	-0.000753292
O	8.45835	0.423379	-0.861149
O	9.81189	-0.10631	0.816467
H	8.2552	-1.31596	0.0990645
H	10.189	0.743757	0.619038
