25
  This energy is -0.00292412 and Call times are: 9078
C	-0.310231	1.59025	-1.24408
O	-0.293247	0.602899	-0.456746
O	-0.858282	1.57352	-2.44141
H	0.140921	2.54158	-0.965505
H	-1.29561	0.678719	-2.69254
C	-2.09729	-1.70014	-2.16816
O	-1.98179	-0.706212	-2.91423
O	-1.51305	-1.89326	-0.989838
H	-2.72776	-2.546	-2.44104
H	-0.896821	-1.17516	-0.665183
C	1.367	2.24747	1.92086
O	1.16103	3.11863	1.07429
O	0.981355	0.948534	1.79948
H	1.8852	2.4181	2.86659
H	0.479472	0.744381	0.927384
C	1.2442	-2.30922	1.82432
O	0.721369	-1.97593	0.75476
O	1.60017	-1.46455	2.81641
H	1.48216	-3.34094	2.09201
H	1.40283	-0.508577	2.58455
C	3.9874	0.399902	0.195394
O	4.88686	-0.408433	0.360784
O	2.89623	0.0722099	-0.495604
H	4.07897	1.39983	0.617847
H	2.94868	-0.825286	-0.804679
