25
  This energy is -0.00177578 and Call times are: 1254
C	0.342523	1.98104	-0.361994
O	0.24559	0.773141	-0.00613938
O	-0.0199139	3.00425	0.383596
H	0.746385	2.25117	-1.33672
H	-0.385598	2.74422	1.30753
C	-0.893381	1.05957	3.17321
O	-0.849996	2.21405	2.70082
O	-0.678459	-0.0821402	2.52715
H	-1.127	0.882848	4.22279
H	-0.476125	-0.0197212	1.54941
C	1.49562	-0.398532	-2.86598
O	1.61044	0.821569	-2.99323
O	0.952386	-1.01229	-1.78021
H	1.81574	-1.12834	-3.61226
H	0.646309	-0.362866	-1.04626
C	-0.97147	-3.04252	-0.089182
O	-1.08491	-1.91255	0.399356
O	-0.157919	-3.37154	-1.11597
H	-1.52593	-3.91658	0.259165
H	0.350992	-2.57863	-1.46079
C	4.06492	0.163711	0.258179
O	3.79957	0.201551	-0.932597
O	5.2326	-0.319806	0.680362
H	3.33829	0.529549	0.982666
H	5.76685	-0.602036	-0.0535972
