25
  This energy is -0.00112898 and Call times are: 1170
C	-0.845498	-1.85878	0.0544308
O	-0.168273	-0.793042	0.0294463
O	-0.810994	-2.78052	-0.885477
H	-1.51586	-2.08172	0.88333
H	-0.165681	-2.57219	-1.65694
C	1.67689	-1.191	-2.78561
O	0.900974	-2.16663	-2.72267
O	1.69202	-0.123308	-1.99384
H	2.4557	-1.13171	-3.54545
H	0.996557	-0.0801672	-1.27601
C	-1.38126	0.305207	2.93402
O	-1.87369	-0.819957	2.83635
O	-0.565439	0.872589	2.00494
H	-1.54494	0.977869	3.77828
H	-0.375052	0.269505	1.19614
C	0.570251	3.14335	-0.0533462
O	0.48495	2.0758	-0.670973
O	0.280327	3.3143	1.25476
H	0.893992	4.08448	-0.503015
H	-0.0331923	2.4635	1.6842
C	4.33173	-0.4505	-0.0422098
O	3.34149	-0.107576	0.583574
O	5.18315	0.456494	-0.519671
H	4.52035	-1.50996	-0.211523
H	4.89798	1.3364	-0.300087
