25
  This energy is -0.00122482 and Call times are: 3584
C	1.62592	-0.304533	-1.19855
O	0.561189	-0.269365	-0.5202
O	2.56721	-1.21394	-1.05302
H	1.8294	0.43915	-1.96777
H	2.36293	-1.92147	-0.337018
C	0.832673	-3.06845	1.37161
O	1.89419	-2.96792	0.722817
O	-0.159411	-2.18573	1.43203
H	0.619829	-3.94591	1.98168
H	-0.0431511	-1.33571	0.917473
C	-0.584331	2.46094	-2.05228
O	0.446373	2.20512	-2.67696
O	-1.04047	1.74254	-0.990897
H	-1.25012	3.29621	-2.27831
H	-0.449302	0.938735	-0.74896
C	-2.18808	1.16685	2.0148
O	-1.22818	0.412259	1.82098
O	-2.68846	2.04119	1.11505
H	-2.74859	1.21337	2.95097
H	-2.17815	2.02458	0.251392
C	5.87633	-0.178307	-0.416396
O	6.96142	0.331025	-0.186263
O	4.91301	-0.173281	0.504202
H	5.69477	-0.641722	-1.38541
H	5.20575	0.26129	1.29744
