25
  This energy is 4.187e-06 and Call times are: 5592
C	-0.186208	1.51385	-1.35885
O	-0.00370609	0.699404	-0.410997
O	-1.01366	2.53703	-1.30731
H	0.350183	1.4119	-2.30122
H	-1.50514	2.63718	-0.410983
C	-1.93842	2.01803	2.03964
O	-2.12488	2.71352	1.02014
O	-1.23636	0.892684	2.12793
H	-2.36492	2.29543	3.00327
H	-0.822549	0.548068	1.28483
C	2.21757	-1.11722	-2.10801
O	1.9903	-0.175901	-2.86978
O	1.62774	-1.28553	-0.893741
H	2.91848	-1.92669	-2.32139
H	0.966906	-0.539719	-0.646401
C	0.0385235	-2.80901	1.52206
O	-0.526957	-1.72961	1.31343
O	1.14432	-3.24795	0.882569
H	-0.298041	-3.54211	2.25827
H	1.46236	-2.59452	0.190852
C	16.844	0.246105	0.163903
O	15.7695	0.815608	0.268262
O	16.9214	-0.966428	-0.383161
H	17.7488	0.735579	0.522324
H	16.0619	-1.27227	-0.650357
