25
  This energy is 9.892e-06 and Call times are: 5620
C	-0.0832424	1.93258	0.656557
O	0.14213	0.750572	0.273017
O	0.153673	2.37401	1.87444
H	-0.497912	2.67643	-0.022351
H	0.558953	1.67254	2.50584
C	1.5801	-0.623607	3.01736
O	1.23629	0.53414	3.33245
O	1.31371	-1.26035	1.88128
H	2.16461	-1.24722	3.69329
H	0.761954	-0.771392	1.20504
C	-0.96066	1.31098	-2.82276
O	-1.01198	2.42758	-2.30449
O	-0.553781	0.182018	-2.18199
H	-1.23806	1.09888	-3.85722
H	-0.272428	0.336813	-1.2068
C	-0.643108	-2.91464	-1.14016
O	-0.416273	-2.18949	-0.164922
O	-0.784968	-2.4887	-2.41408
H	-0.757285	-3.99916	-1.08094
H	-0.69761	-1.49201	-2.48871
C	14.0996	-0.285388	0.0387059
O	13.8563	0.819485	0.496792
O	15.2883	-0.55178	-0.501137
H	13.3357	-1.06129	0.0722057
H	15.8549	0.210695	-0.464109
