25
  This energy is 1.159e-05 and Call times are: 603
C	-1.55492	0.545828	1.20713
O	-0.716522	0.163864	0.343282
O	-2.37254	1.56547	1.04568
H	-1.65179	0.0344063	2.16381
H	-2.28743	2.03428	0.135757
C	-1.37679	2.24047	-2.25273
O	-2.10487	2.60417	-1.30643
O	-0.420966	1.31711	-2.22296
H	-1.47197	2.68018	-3.24521
H	-0.247016	0.871481	-1.34434
C	0.434983	-2.32363	2.24077
O	-0.501074	-1.87826	2.90671
O	0.830277	-1.82598	1.03795
H	1.05683	-3.1693	2.5411
H	0.264981	-1.03394	0.710479
C	2.86141	-0.676579	-1.25028
O	1.91096	0.108078	-1.15364
O	2.99968	-1.8256	-0.553823
H	3.71107	-0.5266	-1.91986
H	2.23543	-1.97563	0.0786351
C	13.3121	-0.121374	-0.244769
O	13.0068	-0.960628	0.587241
O	12.6112	1.00565	-0.363717
H	14.1671	-0.296888	-0.896591
H	11.8972	1.02749	0.263525
