25
  This energy is 1.0863e-05 and Call times are: 5424
C	0.192829	-1.25651	1.59902
O	0.0434057	-0.353369	0.728934
O	1.16256	-1.27367	2.48984
H	-0.496362	-2.09738	1.66322
H	1.80031	-0.470426	2.43447
C	2.52112	1.81726	1.52695
O	2.64503	0.834368	2.28618
O	1.68065	1.94273	0.504722
H	3.13295	2.71072	1.64865
H	1.09032	1.16058	0.303315
C	-2.66857	-1.77066	-0.594133
O	-2.42663	-2.48945	0.376858
O	-1.92456	-0.691596	-0.958477
H	-3.50849	-1.91868	-1.27581
H	-1.12791	-0.507953	-0.337388
C	-0.217938	1.29694	-2.91189
O	0.463137	1.0734	-1.90464
O	-1.46506	0.827039	-3.13165
H	0.117486	1.90877	-3.75206
H	-1.78731	0.249923	-2.37687
C	21.2645	-0.292466	-0.224107
O	21.8562	0.727726	0.0903695
O	19.9806	-0.459275	0.0907687
H	21.7931	-1.07438	-0.768128
H	19.6471	0.296214	0.561734
