25
  This energy is 0.000365264 and Call times are: 3966
C	0.730824	1.89593	0.210251
O	0.223102	0.776039	-0.0780192
O	1.7418	2.43916	-0.435552
H	0.346031	2.49412	1.03504
H	2.09049	1.87777	-1.22184
C	1.97299	-0.105312	-2.84364
O	2.47025	0.961204	-2.42754
O	1.03759	-0.841187	-2.25152
H	2.28685	-0.548804	-3.78822
H	0.701643	-0.521535	-1.36508
C	-2.03396	0.922064	2.37114
O	-1.48581	2.0237	2.43412
O	-1.701	-0.0547359	1.48475
H	-2.85018	0.602276	3.02196
H	-0.942764	0.207185	0.843984
C	-0.897826	-3.0378	0.417558
O	-0.084267	-2.23266	-0.0496301
O	-1.95338	-2.71815	1.19733
H	-0.853864	-4.11622	0.250769
H	-2.00415	-1.73198	1.37481
C	6.56656	0.175434	-0.0379882
O	6.54523	-0.836489	0.644176
O	5.44769	0.654432	-0.580409
H	7.51129	0.691655	-0.204405
H	4.70241	0.108853	-0.355304
