25
  This energy is 8.1741e-05 and Call times are: 5872
C	-1.85264	0.773981	0.376235
O	-0.673234	0.44815	0.0633778
O	-2.15624	1.75826	1.19676
H	-2.71149	0.242018	-0.0306635
H	-1.34305	2.2661	1.56526
C	1.16215	2.80542	1.66406
O	-0.0280688	2.99332	1.98953
O	1.65048	1.79718	0.948466
H	1.94911	3.49842	1.96047
H	1.00188	1.09724	0.64811
C	-1.65413	-2.04133	-1.92518
O	-2.71849	-1.51784	-1.59182
O	-0.427844	-1.63019	-1.50344
H	-1.57311	-2.89798	-2.59722
H	-0.455529	-0.817916	-0.876096
C	2.58662	-1.85742	-0.26085
O	1.99477	-0.950236	0.335068
O	2.0758	-2.58912	-1.2748
H	3.60563	-2.17571	-0.0305229
H	1.13375	-2.32191	-1.49326
C	6.7593	-0.370558	-0.237654
O	5.78496	0.206859	-0.692672
O	7.38354	0.0956704	0.843305
H	7.12149	-1.27687	-0.721523
H	6.96419	0.88767	1.16058
