25
  This energy is -0.00202248 and Call times are: 3724
C	1.98542	0.454346	0.156734
O	0.758161	0.276534	-0.0825809
O	2.95922	0.0684593	-0.641407
H	2.31604	0.954907	1.06574
H	2.64104	-0.38913	-1.50417
C	0.833217	-1.13101	-3.16491
O	2.01962	-0.99819	-2.80067
O	-0.259692	-0.905707	-2.4425
H	0.581086	-1.46507	-4.17102
H	-0.12581	-0.613906	-1.495
C	-0.230037	1.72969	2.75041
O	0.989433	1.90525	2.76025
O	-0.905193	1.06642	1.77321
H	-0.909697	2.08552	3.52726
H	-0.305198	0.722387	1.01442
C	-2.97388	-1.08303	0.437897
O	-1.88442	-1.19366	-0.135893
O	-3.2551	-0.194586	1.41564
H	-3.84607	-1.70181	0.216254
H	-2.46177	0.37524	1.6448
C	6.20197	-0.206625	-0.0679794
O	6.12788	1.00516	-0.194017
O	7.36057	-0.789684	0.237321
H	5.31041	-0.816977	-0.206871
H	8.05088	-0.142502	0.329022
