25
  This energy is -0.00224289 and Call times are: 7890
C	-1.15127	-1.66657	0.264583
O	-0.386711	-0.661336	0.26681
O	-0.739221	-2.91086	0.391828
H	-2.22916	-1.5551	0.155531
H	0.276402	-3.00879	0.509769
C	2.63717	-2.0714	0.86294
O	1.81875	-3.00733	0.753032
O	2.41398	-0.778713	0.647948
H	3.66919	-2.25057	1.16337
H	1.49552	-0.520126	0.347312
C	-2.88156	1.51206	-0.14082
O	-3.46944	0.436697	-0.014227
O	-1.52908	1.65759	-0.12331
H	-3.37963	2.47309	-0.283592
H	-1.01885	0.778196	0.0196795
C	1.43038	2.63258	-1.11005
O	1.48314	1.41804	-0.885318
O	0.342332	3.41314	-0.933204
H	2.27088	3.22119	-1.48398
H	-0.446537	2.8885	-0.603007
C	6.36015	-0.295681	0.148716
O	5.4305	-0.840918	-0.424216
O	6.39282	1.02943	0.284863
H	7.17139	-0.900156	0.552706
H	5.62681	1.42899	-0.111816
