25
  This energy is 0.000380852 and Call times are: 7543
C	0.23088	1.6871	1.1284
O	0.207906	0.714499	0.323055
O	1.28345	2.03581	1.83884
H	-0.647416	2.31233	1.28284
H	2.11319	1.45225	1.67764
C	3.41313	-0.380881	0.442153
O	3.31426	0.535624	1.28364
O	2.43222	-0.931013	-0.266543
H	4.37529	-0.834344	0.205391
H	1.50609	-0.591003	-0.100742
C	-2.97523	1.21401	-0.532611
O	-2.73352	2.17115	0.204602
O	-2.08392	0.233006	-0.838987
H	-3.93492	1.04221	-1.02407
H	-1.16178	0.360034	-0.405814
C	-0.925124	-2.79716	-1.2364
O	-0.106398	-2.15978	-0.564223
O	-2.07346	-2.30046	-1.74535
H	-0.811198	-3.85131	-1.4982
H	-2.20466	-1.33548	-1.50414
C	7.63124	-0.0456549	0.241479
O	7.42838	-0.995925	-0.497187
O	6.78094	0.979498	0.280987
H	8.51751	-0.0367981	0.874846
H	6.05649	0.841116	-0.318849
