25
  This energy is -0.00010582 and Call times are: 5676
C	1.63383	0.0023265	-1.22617
O	0.733453	-0.0543485	-0.342331
O	2.66677	0.817882	-1.18003
H	1.60492	-0.643136	-2.10293
H	2.69701	1.41321	-0.343575
C	1.86986	2.14765	1.9701
O	2.65833	2.20096	1.00401
O	0.725466	1.4747	2.03777
H	2.06906	2.68456	2.89717
H	0.448794	0.965786	1.22213
C	-0.973141	-2.44356	-1.92133
O	0.0378317	-2.32138	-2.6149
O	-1.23658	-1.70892	-0.807067
H	-1.77586	-3.15564	-2.12291
H	-0.501214	-1.03176	-0.572974
C	-2.93472	0.17922	1.25058
O	-1.82835	0.702548	1.07606
O	-3.33938	-0.990739	0.710338
H	-3.72326	0.611133	1.87057
H	-2.63376	-1.39793	0.124775
C	10.5375	-0.374428	-0.174281
O	9.8201	-0.612732	0.783993
O	10.7044	0.875219	-0.605604
H	11.0464	-1.19324	-0.681562
H	10.2054	1.48565	-0.0744737
