25
  This energy is 8.851e-06 and Call times are: 5480
C	-0.00228341	0.963913	1.80104
O	0.155381	0.444027	0.660905
O	0.768648	0.718425	2.84009
H	-0.810325	1.66853	1.99275
H	1.53804	0.0652433	2.64938
C	2.98965	-1.36401	1.09158
O	2.70008	-0.877838	2.20408
O	2.26419	-1.31398	-0.0212047
H	3.92209	-1.90501	0.932534
H	1.37825	-0.85263	0.0344135
C	-2.46427	2.02381	-0.66415
O	-2.39597	2.50351	0.468653
O	-1.62804	1.06546	-1.14682
H	-3.20631	2.3122	-1.41131
H	-0.905406	0.77086	-0.479638
C	-0.721788	-1.72219	-2.59263
O	-0.125897	-1.64034	-1.51254
O	-1.56484	-0.79254	-3.09205
H	-0.633316	-2.56961	-3.27585
H	-1.67146	-0.0107411	-2.47236
C	20.6045	-0.224647	-0.342102
O	20.6152	0.982772	-0.520466
O	21.129	-0.754291	0.762361
H	20.1609	-0.875251	-1.09487
H	21.479	-0.0760846	1.32918
