25
  This energy is -0.00184571 and Call times are: 4375
C	-0.0472078	-0.786053	1.88488
O	0.133617	-0.386946	0.700369
O	-0.237118	-2.04497	2.22148
H	-0.0542751	-0.0875732	2.72049
H	-0.214082	-2.70083	1.43135
C	0.183462	-3.30081	-1.03008
O	-0.0823577	-3.59003	0.154634
O	0.286444	-2.08483	-1.55723
H	0.363933	-4.07307	-1.77739
H	0.116275	-1.30971	-0.948094
C	0.405967	2.81507	1.58748
O	0.322126	2.23411	2.67075
O	0.364453	2.19692	0.376341
H	0.521662	3.89491	1.47516
H	0.266871	1.17651	0.43433
C	-0.571049	1.61029	-2.69992
O	-0.635065	0.547544	-2.07153
O	-0.146332	2.79016	-2.198
H	-0.856198	1.71736	-3.74871
H	0.107519	2.71693	-1.23012
C	4.13283	-0.176448	-0.409567
O	3.1749	-0.696903	0.139342
O	4.8139	0.799139	0.190341
H	4.43321	-0.514151	-1.40075
H	4.44539	0.992515	1.04508
