25
  This energy is -0.0036664 and Call times are: 7275
C	-1.24327	1.25779	1.02232
O	-0.373087	0.621348	0.36446
O	-1.01819	1.8334	2.18518
H	-2.26065	1.3705	0.650293
H	-0.0532535	1.73701	2.52369
C	2.40393	1.05222	2.2592
O	1.45819	1.57759	2.88164
O	2.33149	0.334284	1.14278
H	3.4334	1.14548	2.60405
H	1.41986	0.177739	0.761679
C	-2.47317	-0.120112	-2.11626
O	-3.14699	0.616642	-1.39432
O	-1.19156	-0.493499	-1.85406
H	-2.82872	-0.560029	-3.05012
H	-0.811562	-0.0933309	-0.988278
C	1.36783	-2.4886	-1.46445
O	1.29836	-1.75713	-0.4702
O	0.546317	-2.43156	-2.53509
H	2.11275	-3.2771	-1.59125
H	-0.155482	-1.72194	-2.43253
C	5.83574	-0.234135	0.0461156
O	5.25499	-0.489449	-0.996641
O	5.33115	0.647996	0.907947
H	6.77677	-0.733607	0.273465
H	4.51141	1.00515	0.585088
