25
  This energy is -2.6714e-05 and Call times are: 4948
C	-1.98633	-0.412948	0.238433
O	-0.807214	-0.0637863	-0.0493541
O	-2.9385	0.421653	0.60044
H	-2.29039	-1.45804	0.199742
H	-2.65025	1.40731	0.620244
C	-0.991629	3.31281	0.179007
O	-2.10081	2.8665	0.537314
O	0.103931	2.61391	-0.100958
H	-0.82051	4.38232	0.0594555
H	0.0474199	1.62034	0.00116968
C	0.197458	-3.18043	-0.674811
O	-1.00917	-3.31555	-0.465459
O	0.861574	-1.99458	-0.616642
H	0.873652	-3.99884	-0.929794
H	0.26108	-1.19331	-0.389722
C	3.1835	0.143879	0.230906
O	2.08456	0.662608	0.45816
O	3.37307	-1.07817	-0.312296
H	4.14091	0.622363	0.448053
H	2.50468	-1.54153	-0.506668
C	11.189	0.29295	-0.290139
O	11.8859	0.0905625	0.691334
O	10.0119	-0.316373	-0.426628
H	11.5344	0.979464	-1.06222
H	9.8369	-0.8838	0.31578
