25
  This energy is -0.000302406 and Call times are: 3864
C	0.0351851	1.43979	-1.44867
O	0.183853	0.586104	-0.529885
O	0.169288	2.73911	-1.28129
H	-0.218666	1.13749	-2.46373
H	0.423783	3.01717	-0.325831
C	1.13967	2.5182	2.08564
O	0.879688	3.29259	1.14193
O	0.947009	1.20345	2.1233
H	1.57379	2.88173	3.01666
H	0.531667	0.781885	1.31671
C	-0.481425	-2.00068	-2.52489
O	-0.480767	-1.04482	-3.30229
O	-0.269667	-1.90395	-1.18455
H	-0.65411	-3.03672	-2.82294
H	-0.0918392	-0.946079	-0.860545
C	-0.79452	-2.35311	2.01004
O	-0.612904	-1.14534	1.81848
O	-0.740415	-3.31152	1.05981
H	-1.02394	-2.78878	2.98487
H	-0.544533	-2.9303	0.152683
C	4.24806	-0.405542	-0.0222535
O	5.21592	-0.323374	-0.761368
O	3.88329	0.625562	0.738854
H	3.67708	-1.33254	0.0146203
H	4.4658	1.36532	0.607661
