25
  This energy is 1.912e-05 and Call times are: 5256
C	1.18207	1.62967	-0.346098
O	0.558678	0.588192	0.00284874
O	1.28493	2.71422	0.393768
H	1.68691	1.68869	-1.30933
H	0.820062	2.64721	1.30722
C	-0.417706	1.36807	3.1534
O	0.137031	2.38398	2.68642
O	-0.707399	0.242127	2.50888
H	-0.730481	1.31932	4.1961
H	-0.474425	0.202284	1.5368
C	1.24052	-1.03403	-2.82868
O	1.87976	0.0123941	-2.9486
O	0.457562	-1.34043	-1.7592
H	1.22776	-1.83617	-3.56925
H	0.448131	-0.61684	-1.03089
C	-2.2003	-2.3134	-0.124642
O	-1.82064	-1.24355	0.364932
O	-1.58747	-2.97267	-1.13172
H	-3.08912	-2.85481	0.206437
H	-0.775133	-2.48434	-1.46072
C	14.1435	-0.0196868	0.295509
O	14.239	0.92538	-0.470996
O	13.1137	-0.861234	0.213648
H	14.9094	-0.175729	1.05437
H	12.5251	-0.607915	-0.488642
