25
  This energy is -0.00334209 and Call times are: 8887
C	1.77325	0.751161	0.681327
O	0.773104	0.158565	0.18779
O	2.55579	0.237579	1.60767
H	2.05336	1.75189	0.355362
H	2.29601	-0.712164	1.90006
C	0.92677	-2.87121	1.6992
O	1.83519	-2.17434	2.1962
O	-0.0162643	-2.47615	0.849673
H	0.82659	-3.92969	1.93797
H	-0.0162059	-1.51064	0.587743
C	-0.00784044	2.6928	-1.83257
O	1.04906	3.06376	-1.31937
O	-0.629917	1.51621	-1.55088
H	-0.568287	3.26777	-2.5724
H	-0.131062	0.936624	-0.865792
C	-3.06344	-0.512956	-0.748925
O	-2.10217	-0.758345	-0.0112658
O	-3.0748	0.408044	-1.73687
H	-4.02818	-1.02063	-0.683562
H	-2.20117	0.896662	-1.80481
C	5.44775	0.379106	0.0252654
O	4.46775	0.507212	-0.690958
O	5.69876	-0.778927	0.634746
H	6.12377	1.2215	0.166923
H	5.03203	-1.42313	0.424384
