25
  This energy is -8.312e-06 and Call times are: 5536
C	1.32019	-0.212396	-1.5443
O	0.406244	0.012135	-0.70208
O	1.15666	-0.917279	-2.64458
H	2.32645	0.179434	-1.40254
H	0.202092	-1.2712	-2.78069
C	-2.28417	-1.43203	-2.173
O	-1.29968	-1.68215	-2.89831
O	-2.27604	-0.842336	-0.981662
H	-3.29676	-1.69487	-2.47795
H	-1.38453	-0.582637	-0.609386
C	2.38899	1.78944	1.30391
O	3.11243	1.55864	0.333651
O	1.1063	1.35401	1.42957
H	2.69564	2.36954	2.17654
H	0.771448	0.81152	0.624772
C	-1.50095	-0.0427106	2.82028
O	-1.37137	-0.518589	1.68664
O	-0.717666	0.916879	3.35885
H	-2.27537	-0.350005	3.52638
H	0.0102135	1.2038	2.73079
C	16.4012	0.0920233	0.32861
O	17.5547	0.286407	0.67697
O	16.1254	-0.343778	-0.900017
H	15.5892	0.277237	1.0308
H	16.923	-0.462424	-1.40359
