25
  This energy is -0.0019261 and Call times are: 7247
C	1.95965	0.0380588	-0.575499
O	0.73107	0.163682	-0.311197
O	2.44109	-0.152896	-1.78628
H	2.71305	0.0842445	0.209629
H	1.72738	-0.180169	-2.52443
C	-0.670149	0.0815096	-3.39622
O	0.550804	-0.127352	-3.54956
O	-1.33175	0.175238	-2.24706
H	-1.33637	0.211926	-4.24861
H	-0.803518	0.0480554	-1.40705
C	1.24756	0.528528	2.96205
O	2.39076	0.491864	2.50404
O	0.114963	0.415729	2.21695
H	1.01206	0.654247	4.02072
H	0.289123	0.306186	1.21107
C	-2.82849	-0.685115	1.31868
O	-2.08509	-0.732468	0.332022
O	-2.48044	-0.217788	2.53724
H	-3.86731	-1.02214	1.31694
H	-1.52411	0.0843321	2.56446
C	5.88566	0.343842	-0.272834
O	6.93061	-0.191233	-0.606864
O	5.20831	-0.0894482	0.789697
H	5.50374	1.18473	-0.850551
H	5.65293	-0.824184	1.19744
