25
  This energy is -0.00218031 and Call times are: 5931
C	-0.510974	0.157668	-1.97153
O	-0.0315422	0.0984943	-0.804613
O	-0.546688	1.25214	-2.70303
H	-0.933364	-0.72317	-2.45307
H	-0.133121	2.07591	-2.24987
C	1.16809	3.23856	-0.370581
O	0.588299	3.22411	-1.47579
O	1.19528	2.26664	0.535901
H	1.73588	4.10692	-0.0374172
H	0.68217	1.43416	0.324915
C	-0.712206	-3.14602	-0.452618
O	-1.03243	-2.92139	-1.62096
O	-0.226293	-2.21003	0.40675
H	-0.78351	-4.12357	0.0283726
H	-0.132137	-1.27535	-0.00752012
C	0.0463481	-0.469952	3.16001
O	-0.00896087	0.321142	2.21159
O	0.0367446	-1.81658	3.05554
H	0.10927	-0.164577	4.20668
H	-0.0349985	-2.1187	2.10151
C	3.76994	0.0992477	0.242975
O	3.1852	-0.886737	0.662148
O	3.31235	0.762002	-0.818573
H	4.6757	0.440079	0.74311
H	2.51977	0.357824	-1.15359
