25
  This energy is -0.00411602 and Call times are: 6956
C	1.32271	1.44679	0.574572
O	0.646482	0.456763	0.177556
O	2.13503	1.42132	1.61078
H	1.27044	2.407	0.0632784
H	2.19202	0.509214	2.07961
C	1.68467	-1.99721	2.27225
O	2.23887	-0.944078	2.64862
O	0.7559	-2.12458	1.32978
H	1.93368	-2.9609	2.71577
H	0.448162	-1.2862	0.878977
C	-0.752359	2.14118	-2.33641
O	0.0515905	2.95207	-1.87365
O	-0.953389	0.888903	-1.8444
H	-1.3981	2.33573	-3.19503
H	-0.357841	0.6583	-1.04049
C	-2.6012	-1.7051	-0.731494
O	-1.69581	-1.45375	0.0719301
O	-2.82945	-1.03953	-1.88446
H	-3.33136	-2.50609	-0.597293
H	-2.17737	-0.289255	-2.02036
C	4.78265	-0.297399	0.340921
O	3.76303	-0.445541	-0.313463
O	5.65939	0.65619	0.0286551
H	4.9768	-0.952614	1.18927
H	5.36581	1.15054	-0.728451
