25
  This energy is -0.00226593 and Call times are: 7714
C	0.281972	-0.309438	1.9994
O	0.124325	-0.292333	0.746447
O	-0.543427	-0.895257	2.84188
H	1.13879	0.173957	2.46669
H	-1.34121	-1.36256	2.3945
C	-2.64497	-2.20659	0.353789
O	-2.45912	-2.08985	1.58248
O	-1.98438	-1.59046	-0.621452
H	-3.41519	-2.86634	-0.0448413
H	-1.26884	-0.946508	-0.349173
C	2.89313	1.48279	0.201707
O	2.93388	1.27207	1.41495
O	1.89471	1.0611	-0.620509
H	3.65427	2.03469	-0.35337
H	1.1603	0.526991	-0.141462
C	-0.42877	1.24296	-2.91202
O	-0.915665	0.695142	-1.91642
O	0.853344	1.65111	-3.03039
H	-0.989526	1.46336	-3.82291
H	1.38329	1.47054	-2.19783
C	5.78475	0.0299685	0.452337
O	6.27654	1.01952	-0.066042
O	5.36051	-0.989509	-0.29345
H	5.69224	-0.0190059	1.53666
H	5.50121	-0.814167	-1.21716
