25
  This energy is -0.00403343 and Call times are: 3394
C	0.863748	1.80311	0.419057
O	0.185302	0.780522	0.120609
O	1.18872	2.75154	-0.434824
H	1.22749	1.96236	1.43321
H	0.830001	2.60375	-1.38586
C	-0.590332	1.36672	-3.12628
O	0.164113	2.29248	-2.76344
O	-0.919181	0.279804	-2.43523
H	-1.07166	1.37524	-4.10387
H	-0.506982	0.175204	-1.52971
C	0.303501	-0.469529	3.20889
O	0.851853	0.626789	3.33308
O	-0.179571	-0.961015	2.03595
H	0.143687	-1.17436	4.02725
H	-0.0599889	-0.325037	1.23887
C	-0.664657	-3.10125	-0.386182
O	-0.32807	-2.02357	-0.889871
O	-0.837678	-3.32608	0.934397
H	-0.862458	-4.00842	-0.961204
H	-0.646918	-2.50786	1.48277
C	4.28147	-0.278431	0.221342
O	3.15787	-0.272715	0.698082
O	4.57633	0.477521	-0.835592
H	5.0507	-0.908896	0.665751
H	3.8165	0.973702	-1.11886
