25
  This energy is -0.00295333 and Call times are: 4078
C	0.688047	-1.11046	-1.57046
O	0.178682	-0.569878	-0.549008
O	1.55359	-2.10213	-1.52986
H	0.429038	-0.775882	-2.57403
H	1.78233	-2.42367	-0.581555
C	1.45968	-2.45118	1.96242
O	1.98252	-2.85833	0.904717
O	0.666231	-1.39526	2.11256
H	1.62284	-2.96211	2.91098
H	0.475782	-0.850277	1.29553
C	-1.62966	1.595	-2.32588
O	-1.1184	0.884464	-3.19293
O	-1.41876	1.45219	-0.989535
H	-2.31055	2.42342	-2.53119
H	-0.79118	0.676029	-0.749037
C	-0.704373	2.32163	2.07908
O	-0.0119657	1.3394	1.78891
O	-1.6216	2.8968	1.27144
H	-0.651233	2.84451	3.03642
H	-1.67633	2.43967	0.380024
C	4.41585	-0.202003	-0.405811
O	3.37134	0.402912	-0.224502
O	5.36211	-0.222739	0.5321
H	4.57494	-0.730296	-1.34512
H	5.09264	0.276036	1.29525
