25
  This energy is 0.00024186 and Call times are: 3752
C	-0.245103	-1.4653	1.40203
O	0.0312728	-0.49572	0.64139
O	0.592914	-2.43726	1.69745
H	-1.22366	-1.55217	1.87219
H	1.51904	-2.34198	1.26362
C	3.29258	-1.06879	-0.081818
O	2.90011	-2.03599	0.602547
O	2.55532	-0.0734427	-0.564341
H	4.34064	-0.955191	-0.357646
H	1.57289	-0.104112	-0.378069
C	-2.98136	0.896378	0.957873
O	-3.03058	-0.0511947	1.74382
O	-1.90686	1.19689	0.179521
H	-3.79672	1.60384	0.794414
H	-1.11034	0.562072	0.308638
C	-0.235534	1.9371	-2.52998
O	0.337267	0.993576	-1.97317
O	-1.33544	2.56772	-2.06422
H	0.0876175	2.37397	-3.47733
H	-1.65767	2.172	-1.20041
C	8.2162	-0.309587	-0.235019
O	9.2639	-0.00122236	-0.780035
O	7.86291	0.244824	0.924
H	7.56375	-1.04624	-0.702308
H	8.52048	0.866298	1.2158
