25
  This energy is -2.8e-06 and Call times are: 6530
C	0.150927	2.02783	-0.194984
O	-0.109761	0.79409	-0.124385
O	0.124459	2.72786	-1.3101
H	0.418933	2.59934	0.692551
H	-0.143856	2.18719	-2.14116
C	-0.99954	0.0734566	-3.31445
O	-0.633987	1.26682	-3.30336
O	-0.924595	-0.799752	-2.31496
H	-1.43814	-0.378858	-4.20353
H	-0.514909	-0.478411	-1.46073
C	0.40787	0.648949	3.16576
O	0.523062	1.85084	2.92039
O	0.150327	-0.306792	2.23253
H	0.501207	0.212119	4.16201
H	0.0439486	0.0612506	1.27998
C	0.501626	-3.10243	0.576137
O	0.434641	-2.17865	-0.242718
O	0.402933	-2.96693	1.9164
H	0.651585	-4.14947	0.304177
H	0.278792	-2.00936	2.18888
C	8.26554	0.135152	0.411574
O	7.33158	-0.198666	-0.299812
O	9.51808	0.0818471	-0.0398875
H	8.0716	0.480246	1.42647
H	9.5413	-0.235484	-0.935733
