25
  This energy is -0.00136087 and Call times are: 5844
C	1.70468	-1.05364	-0.395981
O	0.755027	-0.261038	-0.141035
O	2.44478	-0.997269	-1.48378
H	1.97329	-1.8524	0.293942
H	2.19692	-0.232707	-2.12331
C	0.909238	1.89394	-2.75251
O	1.76396	1.00943	-2.96453
O	0.0079628	1.92351	-1.77583
H	0.8272	2.77107	-3.39388
H	-0.00563095	1.14596	-1.14652
C	0.021138	-1.72556	2.76252
O	1.033	-2.32641	2.39764
O	-0.580576	-0.73025	2.05683
H	-0.510622	-1.92464	3.69507
H	-0.106792	-0.501722	1.17512
C	-2.99505	0.930826	0.609837
O	-2.07337	0.808379	-0.204962
O	-2.97451	0.486158	1.88509
H	-3.94598	1.41945	0.386843
H	-2.11375	0.0207795	2.10668
C	5.86871	-0.0504959	-0.131054
O	6.19522	-0.856744	0.725185
O	6.73873	0.851444	-0.583911
H	4.85462	-0.0695829	-0.528519
H	7.58071	0.754938	-0.153176
