25
  This energy is -0.0018007 and Call times are: 3085
C	-1.07453	-1.69184	0.394889
O	-0.27028	-0.751833	0.140695
O	-1.34993	-2.676	-0.435668
H	-1.60017	-1.74229	1.34743
H	-0.839806	-2.63161	-1.32606
C	0.931966	-1.64931	-2.8985
O	0.0518006	-2.4821	-2.59912
O	1.24817	-0.540572	-2.23683
H	1.55288	-1.77191	-3.78555
H	0.71478	-0.333519	-1.41619
C	-0.742106	0.741709	3.08361
O	-1.39851	-0.295379	3.19137
O	-0.0453447	1.10061	1.97168
H	-0.645646	1.49386	3.86911
H	-0.0992727	0.415416	1.20897
C	0.989345	3.00013	-0.478607
O	0.63802	1.91586	-0.957472
O	0.980055	3.31354	0.835205
H	1.35193	3.84126	-1.07339
H	0.636359	2.55817	1.39902
C	3.97604	0.141867	-0.0765941
O	4.53135	-0.243857	-1.09278
O	4.60924	0.119378	1.09561
H	2.95153	0.508274	-0.129942
H	5.49105	-0.221879	0.996988
