25
  This energy is -0.00388876 and Call times are: 5788
C	1.82725	-0.0456259	-0.912112
O	0.671061	0.132491	-0.436144
O	2.079	-0.255084	-2.18765
H	2.70858	-0.0334011	-0.272358
H	1.2458	-0.250211	-2.78827
C	-1.25446	0.116317	-3.22535
O	-0.0897641	-0.144825	-3.59026
O	-1.6984	0.236531	-1.97813
H	-2.05435	0.27688	-3.94771
H	-1.03625	0.0851799	-1.24365
C	1.77184	0.468966	2.69261
O	2.81372	0.38375	2.0405
O	0.52182	0.406501	2.15948
H	1.73233	0.602891	3.77545
H	0.511009	0.291293	1.13932
C	-2.57832	-0.564591	1.80061
O	-2.02328	-0.64229	0.698658
O	-2.00114	-0.114865	2.93596
H	-3.61463	-0.856426	1.98399
H	-1.04294	0.145612	2.7924
C	5.50563	0.00576706	0.382084
O	5.47564	1.0733	-0.20891
O	6.20228	-1.02141	-0.1028
H	4.95642	-0.107149	1.31607
H	6.62967	-0.785041	-0.918422
