25
  This energy is 0.00048939 and Call times are: 8552
C	0.45674	1.69053	1.05184
O	0.144706	0.752758	0.265543
O	1.50573	2.47098	0.894502
H	-0.146008	1.91337	1.93116
H	2.06166	2.26617	0.0554605
C	2.4864	1.05695	-2.16581
O	2.76947	1.89599	-1.28618
O	1.54328	0.121738	-2.11116
H	3.02577	1.02074	-3.11196
H	1.00769	0.0653886	-1.26808
C	-2.54655	-0.123567	2.02716
O	-2.14932	0.885257	2.6124
O	-1.9395	-0.673577	0.941027
H	-3.43203	-0.693859	2.31479
H	-1.10592	-0.162305	0.628197
C	-0.612086	-2.99055	-0.943711
O	0.180222	-2.04322	-0.887189
O	-1.82818	-3.02785	-0.357083
H	-0.414815	-3.91995	-1.48227
H	-2.02371	-2.18788	0.155581
C	6.84814	-0.0140157	-0.376977
O	7.48097	1.02471	-0.27515
O	6.93729	-0.959809	0.557391
H	6.2038	-0.168281	-1.24169
H	7.53112	-0.694936	1.25093
