25
  This energy is -3.1059e-05 and Call times are: 967
C	-0.334408	-1.97526	0.399237
O	-0.217342	-0.72166	0.300113
O	0.184868	-2.69294	1.37367
H	-0.891407	-2.54986	-0.339514
H	0.695843	-2.14406	2.07554
C	1.46239	0.0604765	3.13813
O	1.37615	-1.18416	3.10209
O	1.10161	0.919251	2.18974
H	1.8678	0.577635	4.00739
H	0.735634	0.533102	1.34253
C	-1.9804	-0.559891	-2.52469
O	-2.07519	-1.74654	-2.20705
O	-1.27835	0.371512	-1.82447
H	-2.44846	-0.119362	-3.40724
H	-0.828885	0.00271783	-0.978253
C	0.840657	2.80116	-1.28664
O	1.07394	1.9026	-0.470209
O	-0.148388	2.78344	-2.20636
H	1.41782	3.72553	-1.35845
H	-0.682787	1.93524	-2.16682
C	9.04726	0.372098	-0.253969
O	8.22448	0.298144	0.644559
O	9.971	-0.575336	-0.41078
H	9.02505	1.22249	-0.934451
H	9.87466	-1.25376	0.248185
