25
  This energy is -4.36e-07 and Call times are: 2833
C	0.621279	-1.53019	1.20225
O	0.0754421	-0.619757	0.517985
O	0.64834	-1.55208	2.51869
H	1.11413	-2.37594	0.724775
H	0.168766	-0.760187	2.96356
C	-1.29856	1.3425	2.91573
O	-0.652853	0.451946	3.5055
O	-1.33365	1.57786	1.60788
H	-1.92678	2.04581	3.46174
H	-0.769084	0.99218	1.02559
C	0.889459	-2.01863	-2.39656
O	1.26866	-2.85346	-1.57358
O	0.307724	-0.831025	-2.0774
H	0.978626	-2.13578	-3.4784
H	0.193802	-0.682729	-1.06788
C	-0.214977	2.39523	-2.10364
O	-0.140582	2.0295	-0.925041
O	-0.134022	1.58333	-3.18005
H	-0.35588	3.43313	-2.41291
H	0.00990504	0.625605	-2.91804
C	7.82348	0.231896	-0.277796
O	8.26702	0.152071	0.856531
O	6.65543	-0.326593	-0.592854
H	8.38975	0.765848	-1.03999
H	6.27183	-0.757194	0.162929
