25
  This energy is 1.677e-06 and Call times are: 6642
C	-1.63672	1.20362	-0.212911
O	-0.531096	0.598151	-0.135096
O	-1.96427	2.24517	0.523368
H	-2.40428	0.887812	-0.918091
H	-1.23084	2.54796	1.17558
C	1.14353	2.46916	2.14141
O	-0.00823257	2.9436	2.06256
O	1.59815	1.36153	1.56387
H	1.92054	2.95679	2.72954
H	0.946949	0.83378	1.01777
C	-1.32574	-1.61335	-2.4998
O	-2.28765	-0.843473	-2.50662
O	-0.256424	-1.5031	-1.66608
H	-1.22194	-2.47502	-3.16223
H	-0.306707	-0.698071	-1.03086
C	2.01496	-2.43	0.493615
O	1.4833	-1.39742	0.917272
O	1.72479	-3.03331	-0.679513
H	2.79133	-2.98072	1.02906
H	1.00266	-2.55051	-1.18154
C	12.2342	-0.289721	0.10058
O	11.1843	-0.57604	0.653312
O	12.3151	0.773785	-0.698127
H	13.114	-0.911265	0.262866
H	11.4785	1.22257	-0.749203
