25
  This energy is 0.000155254 and Call times are: 6245
C	0.368376	1.02506	1.72813
O	0.0410693	0.528772	0.61385
O	1.07813	2.12534	1.86914
H	0.0698333	0.555331	2.66428
H	1.34368	2.5723	0.983301
C	1.25729	2.81982	-1.56776
O	1.6142	3.18277	-0.428136
O	0.645655	1.68606	-1.89575
H	1.43034	3.44432	-2.44382
H	0.462929	1.03796	-1.15589
C	-1.58463	-2.03777	1.98644
O	-1.26625	-1.35774	2.96329
O	-1.27437	-1.7289	0.698412
H	-2.15188	-2.96895	2.04286
H	-0.748651	-0.852886	0.596779
C	-0.158688	-2.16732	-2.34226
O	0.351365	-1.13466	-1.89299
O	-1.05177	-2.94434	-1.69182
H	0.0593694	-2.57534	-3.33156
H	-1.25558	-2.59443	-0.773882
C	4.85206	-0.201368	-0.059511
O	4.38654	0.23151	-1.10148
O	4.19368	-0.0608481	1.09041
H	5.8164	-0.707927	-0.0711757
H	3.37156	0.397056	0.955468
