25
  This energy is -2.1755e-05 and Call times are: 2345
C	-0.307982	0.69041	1.89772
O	-0.263655	0.168723	0.748409
O	-1.26782	1.49181	2.3109
H	0.470294	0.497906	2.63488
H	-2.0068	1.65742	1.61702
C	-3.18133	1.2185	-0.620053
O	-3.09198	1.76332	0.499344
O	-2.25811	0.4842	-1.23289
H	-4.08296	1.30728	-1.22553
H	-1.38506	0.364284	-0.759386
C	2.60492	-1.42314	1.34111
O	2.33895	-0.916832	2.43241
O	1.84614	-1.28215	0.220814
H	3.48272	-2.04278	1.14728
H	1.00228	-0.714115	0.359892
C	1.14506	-0.656716	-2.90968
O	0.359156	-0.0123678	-2.20572
O	2.09462	-1.49994	-2.44956
H	1.16142	-0.61566	-4.00091
H	2.10607	-1.5416	-1.4472
C	8.80987	-0.171899	0.405116
O	9.5538	-0.555197	-0.483382
O	7.80461	0.661304	0.139114
H	8.97059	-0.515497	1.4263
H	7.78121	0.878281	-0.78617
