25
  This energy is -0.00047419 and Call times are: 3836
C	0.312512	0.147429	-2.01333
O	-0.0420708	0.000235729	-0.810141
O	0.418817	-0.838291	-2.8801
H	0.555978	1.13075	-2.41329
H	0.17317	-1.76099	-2.50159
C	-0.746614	-3.31244	-0.6785
O	-0.296645	-3.08505	-1.82029
O	-0.808903	-2.46587	0.3445
H	-1.15094	-4.28817	-0.410362
H	-0.440358	-1.54755	0.197314
C	0.221753	3.24796	-0.105347
O	0.442064	3.20907	-1.31695
O	-0.0360364	2.15768	0.666352
H	0.209874	4.16354	0.489316
H	-0.0453488	1.27315	0.145165
C	0.230187	0.0922803	3.18546
O	0.290888	-0.567682	2.14184
O	0.0439802	1.42828	3.2551
H	0.322726	-0.337051	4.18538
H	-0.0294525	1.84511	2.34546
C	4.17951	0.365298	0.14008
O	4.67917	-0.151628	-0.846284
O	3.07852	-0.143858	0.691538
H	4.63969	1.25257	0.573316
H	2.78604	-0.912529	0.214701
