25
  This energy is 0.000131697 and Call times are: 575
C	0.424312	1.26199	1.54926
O	0.109261	0.367994	0.714661
O	-0.432863	1.86858	2.34396
H	1.45687	1.58946	1.66217
H	-1.40251	1.54488	2.24397
C	-3.20255	-0.0287001	1.31641
O	-2.81469	0.910232	2.04156
O	-2.50361	-0.663666	0.380781
H	-4.21255	-0.429759	1.39685
H	-1.56749	-0.349034	0.221108
C	3.23567	-0.0274467	-0.373114
O	3.36517	0.770478	0.556708
O	2.04653	-0.543849	-0.785389
H	4.06188	-0.410935	-0.975074
H	1.24075	-0.217901	-0.23896
C	-0.336144	-1.39887	-2.85286
O	-0.847454	-0.770566	-1.91895
O	0.974625	-1.70583	-2.96275
H	-0.895306	-1.7822	-3.70909
H	1.5095	-1.35002	-2.1921
C	10.7618	-0.291266	-0.0808506
O	11.8527	-0.742995	-0.390254
O	10.6531	0.933178	0.433371
H	9.86816	-0.896787	-0.227223
H	11.5061	1.3465	0.505596
