25
  This energy is -0.000677624 and Call times are: 8002
C	1.97297	0.247234	0.46813
O	0.77462	-0.0724663	0.229807
O	2.51697	0.240253	1.6674
H	2.64456	0.55456	-0.332294
H	1.88351	-0.0651287	2.41603
C	-0.323276	-1.03851	3.28741
O	0.840848	-0.614974	3.44002
O	-1.05665	-0.993108	2.17962
H	-0.868558	-1.51041	4.10436
H	-0.644225	-0.556947	1.37932
C	1.04787	0.480931	-3.04634
O	2.19849	0.651454	-2.64011
O	-0.0106436	0.164676	-2.25248
H	0.744991	0.565983	-4.09184
H	0.230703	0.0638164	-1.25966
C	-3.01788	0.357019	-0.986707
O	-2.21054	0.324424	-0.0510122
O	-2.69842	0.282802	-2.29699
H	-4.09819	0.45203	-0.857722
H	-1.70787	0.209211	-2.43841
C	6.40444	-0.448498	-0.0675954
O	5.34616	-0.0555227	0.396516
O	7.39493	0.405602	-0.322467
H	6.53937	-1.50934	-0.275253
H	7.14255	1.29352	-0.0951139
