25
  This energy is -0.000553503 and Call times are: 4347
C	-0.0833901	-0.565211	1.96124
O	0.0520264	-0.367818	0.721181
O	-0.797929	-1.54102	2.48227
H	0.40117	0.0813996	2.69149
H	-1.2399	-2.15667	1.789
C	-1.63571	-2.99177	-0.603198
O	-1.79024	-3.05159	0.633897
O	-1.05071	-2.0185	-1.29429
H	-1.99206	-3.78492	-1.25996
H	-0.709049	-1.23465	-0.775016
C	2.00347	2.30303	1.13653
O	1.84417	1.89508	2.28815
O	1.44882	1.73225	0.0332273
H	2.6078	3.17213	0.869169
H	0.87911	0.902789	0.237012
C	-0.190645	1.54845	-2.7883
O	-0.649501	0.69279	-2.023
O	0.837195	2.37814	-2.50622
H	-0.571216	1.73401	-3.79501
H	1.19291	2.23366	-1.5793
C	4.98203	0.19333	0.404652
O	5.4261	-0.93992	0.495964
O	4.74717	0.73834	-0.788377
H	4.7759	0.764345	1.30917
H	4.97056	0.13293	-1.48648
