%nprocshared=8
%mem=8GB
%chk=chooh-pair-s-3.chk
#opt b3lyp/6-31g

Title Card Required

0 1
C	1.3703	1.29988	0.00135884
O	1.42864	0.105053	-0.242702
O	0.228744	1.92145	0.333424
H	2.21423	2.00529	-0.0166769
H	-0.488526	1.23437	0.331603
C	-1.37034	-1.29983	-0.00158053
O	-1.42857	-0.105131	0.243067
O	-0.228775	-1.92142	-0.333587
H	-2.21439	-2.00512	0.0158053
H	0.48858	-1.23443	-0.331284
C	4.74132	0.0723579	0.289833
O	4.37201	1.09579	-0.263323
O	4.15788	-1.09513	0.0213603
H	5.55694	0.115268	1.01068
H	3.46592	-0.987304	-0.621554














