15
  This energy is -0.00187563 and Call times are: 93
C	-0.801594	-1.46502	0.88237
O	-1.05406	-0.273167	0.961928
O	0.164157	-1.95458	0.0902659
H	-1.31213	-2.27181	1.42882
H	0.582732	-1.18105	-0.371262
C	0.801444	1.46499	-0.882542
O	1.0543	0.273208	-0.961643
O	-0.164267	1.95456	-0.0903942
H	1.31153	2.27173	-1.42949
H	-0.582511	1.18108	0.371504
C	4.33348	0.106938	-0.408135
O	5.34394	-0.574088	-0.478618
O	3.8315	0.459738	0.774685
H	3.83759	0.429181	-1.32299
H	4.36089	0.112343	1.48379
