35
  This energy is -0.00297657 and Call times are: 265
C	-1.42976	-1.81848	1.12737
O	-1.40985	-0.591912	0.796968
O	-1.30923	-2.26354	2.3515
H	-1.56397	-2.58818	0.36899
H	-1.13988	-1.55027	3.08515
C	-0.791708	0.791937	3.81416
O	-0.931942	-0.415533	4.10385
O	-0.916192	1.32439	2.60187
H	-0.560822	1.53923	4.57187
H	-1.09022	0.649485	1.86717
C	-1.75771	-1.24477	-2.45282
O	-1.8325	-2.35644	-1.93212
O	-1.5224	-0.0888864	-1.76746
H	-1.87015	-1.05261	-3.52169
H	-1.41859	-0.222482	-0.757028
C	-0.572513	2.91439	-3.36409
O	0.597908	2.49824	-3.36676
O	-1.63934	2.29721	-2.85686
H	-0.845231	3.87236	-3.80872
H	-1.4934	1.39454	-2.42042
C	2.3476	0.408201	-1.22761
O	1.3214	0.524401	-0.516581
O	2.479	0.919271	-2.44462
H	3.2293	-0.137741	-0.891484
H	1.69697	1.46846	-2.77524
C	2.59648	-1.21263	2.04715
O	3.52756	-1.23001	1.23357
O	1.40892	-0.593575	1.85775
H	2.63023	-1.70491	3.02186
H	1.35111	-0.121491	0.954418
C	6.74372	0.195453	0.32884
O	5.81008	0.890753	-0.0381209
O	6.96182	-0.997757	-0.222703
H	7.40517	0.555514	1.11595
H	6.31295	-1.18452	-0.891932
