35
  This energy is -0.000457034 and Call times are: 1762
C	1.07059	-2.04617	-1.13536
O	1.10837	-0.778114	-1.06736
O	0.587488	-2.72528	-2.14359
H	1.46687	-2.65067	-0.321023
H	0.167875	-2.1701	-2.91261
C	-0.482976	-0.0142352	-3.94567
O	-0.39456	-1.25864	-4.01782
O	-0.00324128	0.74794	-2.9671
H	-0.969839	0.571062	-4.7243
H	0.419651	0.230423	-2.20625
C	2.48846	-0.772114	1.9664
O	2.43825	-1.96749	1.68163
O	2.00438	0.227937	1.17475
H	2.92473	-0.371693	2.88367
H	1.59245	-0.103605	0.297255
C	1.49085	3.51577	2.35697
O	0.398068	3.1404	2.81304
O	2.36634	2.78053	1.67194
H	1.85252	4.53596	2.49183
H	2.1253	1.81271	1.49351
C	-1.85458	0.71027	1.80026
O	-1.11032	0.653147	0.792805
O	-1.61515	1.45936	2.86849
H	-2.77542	0.131792	1.87664
H	-0.79067	2.0426	2.81792
C	-3.06054	-1.52967	-0.834396
O	-3.68609	-1.35769	0.218328
O	-1.89879	-0.917404	-1.15826
H	-3.38087	-2.20711	-1.62939
H	-1.57739	-0.27477	-0.433046
C	6.50524	0.254215	0.363504
O	7.67282	0.345765	0.01973
O	5.65816	-0.52767	-0.304795
H	6.15315	0.818428	1.22629
H	6.0963	-0.958342	-1.03028
