35
  This energy is 0.000371626 and Call times are: 1678
C	-0.023201	-0.686315	2.48001
O	0.0952774	-1.13277	1.29652
O	-1.07658	-0.851374	3.23781
H	0.791079	-0.127985	2.93915
H	-1.88008	-1.34534	2.80645
C	-2.97448	-2.48046	0.895328
O	-3.00039	-2.12207	2.09218
O	-1.9403	-2.36513	0.0671778
H	-3.83361	-2.95171	0.420256
H	-1.13841	-1.8929	0.466587
C	3.13723	0.165927	0.886327
O	2.86851	0.440269	2.05469
O	2.28634	-0.470379	0.0306169
H	4.0854	0.398899	0.397698
H	1.38518	-0.715683	0.451741
C	2.8018	-0.549774	-3.46212
O	2.27237	0.572062	-3.52744
O	2.97741	-1.2884	-2.36671
H	3.19817	-1.05296	-4.34499
H	2.64436	-0.90835	-1.48851
C	-0.171021	2.12548	-1.62418
O	-0.282963	0.987111	-1.11062
O	0.742161	2.45419	-2.5284
H	-0.830378	2.95148	-1.35697
H	1.34664	1.7029	-2.8328
C	-2.89797	1.83301	0.803021
O	-2.6631	2.88873	0.203497
O	-2.22094	0.674457	0.633356
H	-3.68825	1.71898	1.54867
H	-1.47729	0.751645	-0.0617968
C	7.84552	0.122334	-0.35498
O	7.76952	-1.07177	-0.113884
O	8.6134	0.919139	0.38729
H	7.27886	0.53994	-1.18637
H	9.04815	0.425854	1.07391
