35
  This energy is -0.00200089 and Call times are: 1153
C	1.9041	1.7251	-0.14304
O	1.42616	0.682026	-0.688564
O	2.99062	1.75543	0.584744
H	1.41001	2.6867	-0.272612
H	3.45524	0.843926	0.754961
C	3.59779	-1.61602	0.496181
O	4.09171	-0.547953	0.916714
O	2.51077	-1.72938	-0.261571
H	4.05071	-2.58164	0.715961
H	2.04177	-0.851789	-0.449839
C	-1.17887	2.30205	-1.99151
O	-0.525413	3.19888	-1.46119
O	-0.850999	0.978766	-1.94096
H	-2.09575	2.45878	-2.5632
H	0.00988684	0.78689	-1.41975
C	-3.12247	-1.58248	-2.80794
O	-3.59499	-1.49903	-1.66215
O	-2.10294	-0.882767	-3.30524
H	-3.52911	-2.26963	-3.55107
H	-1.65407	-0.211675	-2.69308
C	-2.20332	-0.631037	1.38998
O	-1.12967	-0.676967	0.743974
O	-3.4074	-0.789226	0.856383
H	-2.22814	-0.450126	2.46473
H	-3.42342	-1.00038	-0.13238
C	0.799213	-0.133806	3.4273
O	-0.335855	-0.125325	3.91788
O	1.0811	-0.345315	2.12146
H	1.71262	0.0336723	4.00279
H	0.24431	-0.508331	1.55983
C	7.14193	0.0370085	0.438965
O	8.13378	-0.65079	0.257448
O	6.49774	0.587447	-0.589408
H	6.78045	0.201874	1.45329
H	6.91895	0.362781	-1.41153
