35
  This energy is -0.00505758 and Call times are: 1611
C	-0.601634	2.10135	1.35809
O	-0.98017	1.36199	0.396795
O	-0.0868937	3.29624	1.22251
H	-0.7035	1.75812	2.3864
H	0.0568434	3.62699	0.250079
C	-0.058065	3.30757	-2.20418
O	0.193269	4.04273	-1.22543
O	-0.59655	2.09271	-2.15123
H	0.140049	3.62747	-3.22608
H	-0.754928	1.74866	-1.21203
C	-1.89412	-1.13792	2.40265
O	-1.55256	-0.255898	3.18873
O	-1.81537	-1.03057	1.04493
H	-2.29905	-2.10792	2.69792
H	-1.44745	-0.130188	0.723151
C	-2.08193	-3.81838	-1.10642
O	-0.877607	-4.0436	-0.901586
O	-2.80181	-2.81049	-0.61421
H	-2.69114	-4.46731	-1.73691
H	-2.32769	-2.14829	-0.0114718
C	1.806	-1.97198	-0.185864
O	0.980367	-1.06373	-0.441931
O	1.51169	-3.26487	-0.148697
H	2.85282	-1.76136	0.0338072
H	0.558677	-3.50363	-0.387969
C	3.22638	1.4036	-0.152896
O	3.91319	0.400126	0.0717083
O	1.90823	1.39266	-0.455817
H	3.61394	2.42475	-0.12845
H	1.52006	0.449026	-0.488838
C	7.10555	-0.00595332	-0.0903552
O	7.36156	0.554553	0.963247
O	8.07834	-0.520712	-0.841489
H	6.07001	-0.0855563	-0.41905
H	8.92743	-0.380641	-0.4375
