35
  This energy is 0.000327646 and Call times are: 1790
C	-0.705725	1.84218	1.65238
O	-1.0395	0.71231	1.17697
O	-1.28821	2.97632	1.3599
H	0.113673	1.91618	2.36562
H	-2.04488	2.93504	0.651789
C	-3.46641	1.69536	-0.954781
O	-3.17795	2.76446	-0.37566
O	-2.93535	0.502308	-0.703253
H	-4.22271	1.65425	-1.7372
H	-2.19846	0.513246	-0.00866887
C	1.35271	-0.922786	2.82381
O	1.46988	0.232316	3.22946
O	0.45765	-1.31665	1.87257
H	1.94964	-1.76646	3.17589
H	-0.13053	-0.555698	1.51959
C	0.676994	-4.43071	0.22158
O	1.50492	-3.91989	-0.550873
O	0.0368864	-3.82526	1.22159
H	0.391473	-5.48093	0.148841
H	0.233872	-2.84345	1.37604
C	1.93232	-0.688282	-1.72548
O	0.827377	-0.498213	-1.16412
O	2.61461	-1.82466	-1.67364
H	2.42857	0.0865468	-2.31012
H	2.16671	-2.58146	-1.17451
C	0.536337	2.65698	-2.24851
O	1.61538	2.3111	-2.74365
O	-0.261686	1.86836	-1.4931
H	0.103722	3.65322	-2.36637
H	0.117511	0.928631	-1.36931
C	8.87715	0.14612	0.0439071
O	8.57355	-0.0701828	-1.11834
O	7.99675	-0.0485134	1.02499
H	9.87917	0.502154	0.28036
H	7.16742	-0.358182	0.678452
