35
  This energy is -0.000437074 and Call times are: 984
C	-1.44125	1.88358	-0.998485
O	-0.720319	0.88061	-1.29571
O	-1.09026	3.13193	-1.17029
H	-2.43431	1.73871	-0.576058
H	-0.132486	3.29411	-1.53367
C	2.07388	2.47992	-2.31318
O	1.28704	3.42976	-2.11258
O	1.78922	1.18771	-2.17972
H	3.09823	2.6453	-2.64369
H	0.856009	1.00111	-1.83351
C	-2.97533	-1.32471	-0.218758
O	-3.54656	-0.244854	-0.076778
O	-1.69315	-1.46373	-0.663523
H	-3.42559	-2.29631	-0.00589953
H	-1.23443	-0.574545	-0.883792
C	0.12392	-4.47361	-0.331703
O	0.402055	-4.13316	0.830112
O	-0.589686	-3.78063	-1.21876
H	0.452115	-5.42701	-0.747754
H	-0.944933	-2.87701	-0.929142
C	0.836746	-1.03788	2.32541
O	0.768119	-0.624504	1.14365
O	0.660524	-2.30108	2.68987
H	1.04865	-0.372842	3.16282
H	0.502772	-2.95602	1.93577
C	1.43235	2.55655	1.95332
O	1.47362	1.99474	3.05413
O	1.19501	1.93977	0.773204
H	1.58273	3.62925	1.81107
H	1.05389	0.933971	0.876461
C	7.41001	0.233302	-0.147321
O	6.47914	0.261432	-0.936299
O	7.30749	-0.431312	1.00302
H	8.33416	0.757696	-0.387456
H	6.45259	-0.839465	1.0826
