35
  This energy is -0.00174533 and Call times are: 640
C	0.410708	2.0947	1.43722
O	0.185898	0.845473	1.49125
O	-0.460713	3.02329	1.73629
H	1.38948	2.46272	1.13364
H	-1.412	2.69643	1.98906
C	-3.08003	0.899611	2.34647
O	-2.7784	2.11156	2.38842
O	-2.25112	-0.102957	2.07002
H	-4.09055	0.553629	2.55864
H	-1.31217	0.188687	1.82739
C	3.23684	0.0371395	0.420429
O	3.28472	1.26281	0.509792
O	2.12169	-0.708888	0.667422
H	4.07852	-0.596325	0.133441
H	1.30807	-0.153533	0.948876
C	1.82848	-4.08528	-0.325163
O	1.49693	-3.68516	-1.45346
O	2.1141	-3.33356	0.737701
H	1.92747	-5.14701	-0.0955783
H	2.05388	-2.32804	0.628671
C	-0.162063	-0.843547	-2.53911
O	-0.349698	-0.666391	-1.31209
O	0.57018	-1.8233	-3.0524
H	-0.595042	-0.187405	-3.29438
H	0.954961	-2.47787	-2.38459
C	-2.29176	2.02773	-1.74332
O	-2.01926	1.71534	-2.90834
O	-1.87687	1.36172	-0.641638
H	-2.90458	2.89038	-1.4716
H	-1.3039	0.547345	-0.866849
C	6.80094	0.342662	-0.162145
O	7.61937	-0.0647653	-0.970828
O	6.70659	-0.208338	1.04741
H	6.14101	1.16581	-0.433486
H	7.33832	-0.911486	1.14877
