35
  This energy is -0.00215159 and Call times are: 607
C	1.21991	-1.79702	1.38007
O	1.38683	-0.717303	0.731702
O	1.59596	-2.98033	0.968416
H	0.741551	-1.78055	2.35808
H	2.01731	-3.02503	0.0217646
C	2.74777	-1.96511	-2.09521
O	2.66546	-2.9819	-1.37346
O	2.40541	-0.728556	-1.74538
H	3.13978	-2.01378	-3.11002
H	1.99821	-0.655603	-0.821028
C	-0.105219	1.15311	3.05198
O	-0.101136	0.0305086	3.55426
O	0.362717	1.43823	1.80262
H	-0.482983	2.05097	3.54514
H	0.735409	0.623329	1.306
C	-0.358119	4.471	0.143135
O	-1.44165	3.97637	-0.209535
O	0.596575	3.8772	0.858879
H	-0.0816467	5.49519	-0.110606
H	0.436178	2.91961	1.1485
C	-2.4231	0.723526	-0.888825
O	-1.1953	0.490744	-0.786362
O	-2.98477	1.90323	-0.659944
H	-3.13886	-0.0462303	-1.17793
H	-2.34757	2.65378	-0.429436
C	-1.47762	-2.72827	-1.66619
O	-2.64948	-2.33851	-1.72914
O	-0.417071	-1.95572	-1.33783
H	-1.16573	-3.75539	-1.86938
H	-0.679781	-0.9881	-1.14574
C	5.2021	0.13803	-0.158125
O	5.16095	-1.06763	0.02755
O	4.14155	0.902863	0.0983535
H	6.11647	0.592504	-0.537699
H	3.41738	0.37901	0.422284
