35
  This energy is 0.000392276 and Call times are: 136
C	0.59952	-2.50245	-0.0191485
O	-0.171407	-1.63169	-0.530495
O	0.231768	-3.40328	0.855134
H	1.6484	-2.5433	-0.308572
H	-0.753556	-3.35722	1.1756
C	-3.00552	-2.32415	1.16919
O	-2.23914	-3.23159	1.55751
O	-2.71452	-1.38564	0.272996
H	-4.02512	-2.23767	1.54174
H	-1.75949	-1.41315	-0.0627549
C	2.25439	-0.245731	-2.3479
O	2.8139	-1.20093	-1.81209
O	0.955105	0.106947	-2.12741
H	2.73025	0.430662	-3.06072
H	0.466918	-0.508026	-1.46932
C	-0.356511	3.24444	-3.07979
O	0.109339	3.7155	-2.029
O	-0.294688	1.9758	-3.48362
H	-0.879907	3.86525	-3.8081
H	0.175244	1.31455	-2.87657
C	0.683046	2.34618	1.10172
O	0.0465504	1.37511	0.628367
O	1.02324	3.42768	0.413115
H	1.01529	2.37343	2.13966
H	0.696601	3.45797	-0.543379
C	0.0314777	-0.339254	3.50527
O	0.640262	0.690052	3.81997
O	-0.481846	-0.596183	2.28057
H	-0.159296	-1.16777	4.19135
H	-0.320651	0.164482	1.61904
C	7.26724	0.227311	-0.326919
O	7.21458	-0.972195	-0.546473
O	6.72309	0.742173	0.77505
H	7.76483	0.883006	-1.04048
H	6.32482	0.0610603	1.30537
