35
  This energy is -0.000265904 and Call times are: 1706
C	2.56544	0.173324	-0.102675
O	1.49569	0.856564	-0.0492877
O	3.3177	0.0467375	-1.1653
H	2.92351	-0.353964	0.780128
H	2.97444	0.507402	-2.02881
C	1.30036	1.84578	-3.2717
O	2.40253	1.25751	-3.24488
O	0.488478	2.0321	-2.23497
H	0.90856	2.28577	-4.18754
H	0.804661	1.59866	-1.37607
C	0.904696	0.0717878	3.13555
O	1.99017	-0.460788	2.91048
O	0.172415	0.748499	2.20444
H	0.400623	0.0654685	4.10402
H	0.613768	0.786268	1.28065
C	-3.22444	1.58346	2.68965
O	-3.52059	0.437535	2.31252
O	-2.00162	2.10731	2.7711
H	-3.98228	2.29853	3.01233
H	-1.22277	1.52104	2.49493
C	-2.0137	-1.76611	0.103701
O	-1.28893	-0.776232	-0.155155
O	-2.94474	-1.7878	1.0483
H	-1.92856	-2.70728	-0.439783
H	-3.08222	-0.919003	1.54707
C	0.363494	-2.31686	-2.62736
O	-0.426613	-3.19343	-2.25794
O	0.439743	-1.06958	-2.1098
H	1.09957	-2.45638	-3.42252
H	-0.240611	-0.910312	-1.36551
C	6.49148	0.119171	0.310412
O	7.14176	1.0703	-0.0924416
O	6.71903	-1.10782	-0.156734
H	5.71692	0.276502	1.06008
H	7.41759	-1.0999	-0.801508
