35
  This energy is -0.0014982 and Call times are: 1907
C	-2.22502	-1.21566	0.439853
O	-1.71414	-0.171879	-0.0735036
O	-2.89409	-1.24372	1.56354
H	-2.13066	-2.17647	-0.0636663
H	-2.96167	-0.347183	2.08057
C	-2.45858	2.06446	2.34418
O	-3.03987	1.03585	2.75117
O	-1.77624	2.17895	1.20842
H	-2.48048	2.99548	2.90861
H	-1.70189	1.31857	0.679474
C	-0.437914	-1.82053	-2.6738
O	-1.06424	-2.68906	-2.06889
O	-0.311441	-0.529249	-2.2522
H	0.0893561	-1.9802	-3.61643
H	-0.799373	-0.332883	-1.37302
C	2.08446	1.68927	-3.59722
O	2.92113	1.1942	-2.82394
O	0.79422	1.36856	-3.69087
H	2.3502	2.46864	-4.31258
H	0.445023	0.649647	-3.06811
C	2.65112	-0.22437	0.325725
O	1.47628	0.208026	0.255482
O	3.5367	-0.153993	-0.65935
H	3.04124	-0.705155	1.22299
H	3.22485	0.322902	-1.4947
C	0.68995	-0.697676	3.38234
O	1.86832	-1.06237	3.29531
O	-0.0056762	-0.0731844	2.40483
H	0.0711449	-0.84428	4.27067
H	0.550553	0.0799256	1.56259
C	6.90348	0.0965253	0.197975
O	7.62064	-0.597784	0.900403
O	7.3083	0.490383	-1.00888
H	5.92196	0.396782	0.562898
H	8.17873	0.158432	-1.19848
