35
  This energy is -0.000345474 and Call times are: 164
C	1.3694	-0.93699	-1.96694
O	0.73901	-1.26234	-0.912998
O	2.672	-0.934794	-2.08658
H	0.824565	-0.64067	-2.86189
H	3.21211	-1.17463	-1.23427
C	3.35008	-1.79837	1.15958
O	3.92141	-1.58127	0.0696234
O	2.03578	-1.83614	1.35916
H	3.91219	-1.99829	2.07059
H	1.48418	-1.61331	0.539622
C	-2.24946	-0.67556	-2.2669
O	-1.47331	-0.47945	-3.20053
O	-1.8615	-0.993846	-0.998311
H	-3.33709	-0.617872	-2.34303
H	-0.846042	-1.06685	-0.883763
C	-4.04631	-0.797387	1.76922
O	-3.79448	0.417329	1.83344
O	-3.53524	-1.67532	0.906447
H	-4.7536	-1.2766	2.44735
H	-2.86599	-1.32932	0.228961
C	-0.986348	2.27557	1.01676
O	-0.46411	1.14475	0.872982
O	-2.2675	2.48078	1.2926
H	-0.412764	3.1976	0.920374
H	-2.82413	1.64795	1.4306
C	2.60008	2.35893	0.27938
O	1.94216	3.39081	0.456821
O	2.10976	1.10065	0.355083
H	3.66503	2.35006	0.0357696
H	1.11538	1.07919	0.5852
C	8.03804	-0.239945	-0.184098
O	8.13774	0.956043	-0.406503
O	7.01921	-0.716926	0.530028
H	8.79091	-0.923803	-0.574274
H	6.44143	-0.0141704	0.805856
