35
  This energy is -0.000715014 and Call times are: 1041
C	1.73618	1.5819	1.05135
O	0.491131	1.34711	0.957761
O	2.35563	2.57042	0.459572
H	2.36943	0.944047	1.66595
H	1.77929	3.16675	-0.163253
C	-0.370286	3.75706	-1.24467
O	0.833649	4.0154	-1.03167
O	-1.07439	2.78532	-0.671425
H	-0.968107	4.34644	-1.93829
H	-0.536487	2.19233	-0.0512807
C	0.641906	-1.35884	2.89772
O	1.79239	-0.925264	2.92834
O	-0.365853	-0.813647	2.15723
H	0.2927	-2.2287	3.4576
H	-0.0832202	0.0123463	1.62109
C	-3.39497	-2.51235	1.51686
O	-2.82319	-3.10183	0.584844
O	-2.8703	-1.58552	2.31814
H	-4.43307	-2.71949	1.77996
H	-1.9053	-1.32142	2.15803
C	-0.237982	-2.18613	-1.53267
O	-0.399276	-1.06281	-0.999474
O	-0.88591	-3.28675	-1.17435
H	0.466599	-2.34673	-2.34888
H	-1.57897	-3.16934	-0.447452
C	1.8308	0.471594	-2.97132
O	1.86793	-0.690262	-3.39303
O	1.03156	0.912011	-1.973
H	2.45057	1.28163	-3.36283
H	0.437909	0.174941	-1.59022
C	5.45191	0.16754	0.340766
O	6.64953	0.198682	0.57428
O	4.99565	-0.320102	-0.812293
H	4.74944	0.542829	1.084
H	5.71326	-0.610678	-1.364
