35
  This energy is -0.0049082 and Call times are: 415
C	2.08024	1.51165	-0.0977496
O	0.934346	1.38227	0.435369
O	2.37536	2.37952	-1.03092
H	2.9079	0.880635	0.222228
H	1.59233	2.96346	-1.37957
C	-0.791199	3.6397	-1.38866
O	0.376398	3.80749	-1.80113
O	-1.16893	2.79435	-0.434016
H	-1.62713	4.21196	-1.78819
H	-0.420809	2.21692	-0.0700626
C	1.90053	-1.12948	2.40157
O	2.94011	-0.800483	1.83273
O	0.680781	-0.568517	2.15936
H	1.83151	-1.90711	3.16484
H	0.701174	0.173885	1.45366
C	-2.34253	-2.04029	3.23858
O	-2.30547	-2.76487	2.23027
O	-1.46775	-1.09258	3.57466
H	-3.1355	-2.12701	3.98251
H	-0.687867	-0.933008	2.94784
C	-1.0151	-2.29155	-0.950393
O	-0.863914	-1.11268	-0.550953
O	-1.45049	-3.29018	-0.193591
H	-0.791537	-2.59191	-1.97422
H	-1.70804	-3.04216	0.752267
C	0.205254	0.019896	-3.51575
O	-0.00305259	-1.17539	-3.75456
O	-0.00495788	0.623516	-2.32375
H	0.590175	0.729823	-4.25153
H	-0.368621	-0.0172644	-1.61709
C	5.86661	-0.392217	-0.184696
O	4.99721	0.463549	-0.224517
O	7.05506	-0.130477	0.358082
H	5.66748	-1.38036	-0.597767
H	7.09128	0.764321	0.677145
