35
  This energy is 0.000882186 and Call times are: 1304
C	-0.838881	-0.125914	-2.4295
O	-0.157872	-0.739326	-1.54974
O	-0.334708	0.492802	-3.46589
H	-1.92505	-0.0959994	-2.35919
H	0.700218	0.511665	-3.53111
C	2.95316	-0.0407541	-2.66064
O	2.23775	0.450416	-3.55982
O	2.51988	-0.698599	-1.58912
H	4.03976	0.0220125	-2.69547
H	1.51144	-0.738788	-1.50548
C	-2.84047	-1.59111	0.235326
O	-3.32186	-1.0264	-0.745445
O	-1.50252	-1.72479	0.465899
H	-3.42541	-2.05028	1.03475
H	-0.914933	-1.3142	-0.266052
C	-0.193892	-2.65836	3.61028
O	-0.290645	-1.47052	3.96066
O	-0.500154	-3.16749	2.41725
H	0.163473	-3.43307	4.2899
H	-0.845175	-2.52818	1.71097
C	-0.0930398	1.51333	2.21045
O	0.277781	0.766219	1.27424
O	-0.499378	1.08319	3.39764
H	-0.112543	2.59913	2.11518
H	-0.456093	0.0828432	3.53881
C	0.928518	3.29648	-0.821036
O	0.545216	3.8915	0.19294
O	1.04362	1.95399	-0.938828
H	1.21819	3.79701	-1.74791
H	0.782004	1.46031	-0.0843941
C	8.32777	-0.233085	0.315483
O	7.99259	0.874753	0.70296
O	8.02249	-0.645309	-0.914309
H	8.88253	-0.891026	0.983363
H	7.54022	0.0248889	-1.38551
