35
  This energy is -0.00159462 and Call times are: 1455
C	-2.13421	-1.43496	-0.0899579
O	-1.67896	-0.265746	-0.289253
O	-2.89056	-1.77903	0.920313
H	-1.91045	-2.23709	-0.791473
H	-3.08303	-1.04056	1.62266
C	-2.82586	1.26474	2.49335
O	-3.34334	0.131078	2.58604
O	-2.06319	1.69629	1.49297
H	-2.98014	2.02828	3.25432
H	-1.86629	0.996161	0.788272
C	-0.0425201	-1.14693	-3.05582
O	-0.636017	-2.17647	-2.73905
O	-0.0703319	0.00995963	-2.33334
H	0.574928	-1.03797	-3.94966
H	-0.646724	-0.0454746	-1.48818
C	2.2186	2.64585	-2.86634
O	3.02849	2.03713	-2.14757
O	0.975515	2.26985	-3.16582
H	2.47177	3.59111	-3.34817
H	0.641859	1.39976	-2.76805
C	2.62345	-0.114697	0.537798
O	1.42427	0.240569	0.448925
O	3.57905	0.251674	-0.306099
H	2.97847	-0.770013	1.33338
H	3.29683	0.893631	-1.03461
C	0.462112	-1.44456	3.17847
O	1.67193	-1.69609	3.13149
O	-0.202346	-0.651634	2.30717
H	-0.213664	-1.84315	3.93874
H	0.406849	-0.262145	1.58648
C	6.93714	-0.21237	0.354422
O	6.62321	0.9389	0.610961
O	6.72283	-0.722387	-0.857794
H	7.39749	-0.82858	1.12583
H	6.31769	-0.078973	-1.42845
