35
  This energy is -0.00527197 and Call times are: 724
C	-0.265736	0.384498	-2.53053
O	-0.828368	-0.116917	-1.50776
O	0.289927	-0.307951	-3.49119
H	-0.22892	1.46484	-2.66133
H	0.302237	-1.33763	-3.36753
C	-0.204159	-3.3871	-2.07067
O	0.235396	-2.85378	-3.11179
O	-0.797011	-2.75745	-1.06036
H	-0.146377	-4.46265	-1.91026
H	-0.829601	-1.75018	-1.1599
C	-1.56718	2.8567	-0.196239
O	-1.0596	3.14411	-1.27897
O	-1.69062	1.58491	0.281736
H	-1.97723	3.58333	0.507982
H	-1.32512	0.868585	-0.352996
C	-2.44193	0.882625	3.66013
O	-1.23537	1.02577	3.9186
O	-3.01923	0.973454	2.4623
H	-3.17645	0.665151	4.43663
H	-2.42146	1.17573	1.66961
C	1.64037	0.473569	2.06635
O	0.838774	-0.0514555	1.25768
O	1.28154	1.09476	3.18211
H	2.71878	0.461035	1.90729
H	0.291063	1.09113	3.38567
C	3.24032	-1.10595	-0.824737
O	3.89468	-0.552497	0.0666749
O	1.89294	-1.22278	-0.842728
H	3.68498	-1.56601	-1.71027
H	1.45082	-0.803574	-0.0235763
C	7.81232	-0.125056	-0.304234
O	7.98469	1.01259	0.102985
O	6.79497	-0.86093	0.141882
H	8.49842	-0.54216	-1.04044
H	6.27971	-0.375849	0.776683
