35
  This energy is -0.0140537 and Call times are: 1181
C	-1.04315	-2.32686	-0.3458
O	-1.2575	-1.17173	0.137678
O	-0.814024	-3.40184	0.363439
H	-1.05083	-2.47977	-1.42383
H	-0.761986	-3.27186	1.3911
C	-0.834724	-1.84933	3.41834
O	-0.743086	-2.98397	2.90284
O	-1.08358	-0.714574	2.77099
H	-0.727935	-1.6979	4.49144
H	-1.14731	-0.814957	1.76529
C	-1.55492	0.257457	-2.85854
O	-1.41124	-0.934042	-3.12729
O	-1.52082	0.770229	-1.59479
H	-1.72584	1.04285	-3.59746
H	-1.37056	0.0645851	-0.867412
C	-1.17863	4.22503	-0.947912
O	0.0480739	4.09159	-1.09102
O	-2.10119	3.26601	-1.02195
H	-1.63364	5.19539	-0.745068
H	-1.78113	2.32322	-1.20981
C	2.20271	1.44315	-0.500284
O	1.18959	0.933606	0.0346156
O	2.20911	2.60515	-1.14004
H	3.17757	0.955591	-0.481642
H	1.33171	3.10779	-1.14292
C	2.82272	-1.77744	1.12959
O	3.72175	-1.14379	0.564474
O	1.53727	-1.37203	1.24215
H	2.96945	-2.7501	1.60492
H	1.37229	-0.462562	0.808716
C	6.60679	0.209943	-0.185371
O	5.72871	0.988066	0.151223
O	6.46306	-1.10136	0.0026266
H	7.51744	0.593007	-0.644385
H	5.62607	-1.29474	0.409855
