35
  This energy is 0.000407786 and Call times are: 928
C	1.0924	-2.27937	0.482882
O	1.00032	-1.35195	-0.380513
O	0.530682	-3.45595	0.37691
H	1.67948	-2.1295	1.38758
H	-0.0664955	-3.60652	-0.457589
C	-1.11001	-2.82667	-2.56508
O	-0.897458	-3.74574	-1.7455
O	-0.565569	-1.61362	-2.53761
H	-1.77802	-2.96054	-3.41462
H	0.0293424	-1.44291	-1.73605
C	2.84353	0.777324	1.40192
O	2.88035	-0.254962	2.06943
O	2.13032	0.921834	0.247981
H	3.37542	1.697	1.65363
H	1.62113	0.0775764	-0.0305012
C	1.45456	4.07417	-1.19333
O	0.498157	4.18554	-0.408487
O	2.28358	3.03618	-1.3012
H	1.7183	4.86455	-1.89725
H	2.12531	2.24596	-0.687122
C	-1.60608	1.86178	1.06732
O	-1.03281	1.06795	0.284158
O	-1.28135	3.13988	1.21076
H	-2.43282	1.55233	1.70698
H	-0.545459	3.47508	0.603635
C	-2.96715	-1.53803	1.11064
O	-3.42938	-0.636727	1.81994
O	-1.94792	-1.39274	0.233439
H	-3.33495	-2.56673	1.11646
H	-1.58649	-0.438393	0.204988
C	7.01972	0.441464	-0.066357
O	7.25929	0.179615	1.10147
O	7.01227	-0.517635	-0.991337
H	6.80986	1.47092	-0.354248
H	7.2103	-1.36275	-0.603611
