35
  This energy is 0.000101406 and Call times are: 1879
C	2.07542	-1.47617	-0.368228
O	1.68547	-0.273922	-0.239521
O	2.46153	-2.0189	-1.49405
H	2.11539	-2.13499	0.497771
H	2.39324	-1.42168	-2.33924
C	1.80926	0.70481	-3.46866
O	2.29246	-0.446218	-3.52537
O	1.41191	1.33214	-2.36538
H	1.68494	1.31791	-4.36003
H	1.47593	0.773234	-1.52331
C	1.07983	-0.598216	3.02182
O	1.55802	-1.68864	2.71386
O	0.840006	0.413371	2.13847
H	0.791471	-0.312312	4.03532
H	1.10456	0.190141	1.17422
C	-1.20216	3.18551	2.92334
O	-2.19047	2.49168	2.63194
O	0.0781401	2.82118	2.85677
H	-1.30271	4.20901	3.28681
H	0.280761	1.88327	2.53138
C	-2.64998	-0.108395	0.388262
O	-1.49764	0.211827	0.0117819
O	-3.2797	0.434762	1.4217
H	-3.23371	-0.878464	-0.116401
H	-2.78656	1.18273	1.89058
C	-1.45704	-1.95752	-2.53932
O	-2.57671	-2.15162	-2.05168
O	-0.559502	-1.05043	-2.09097
H	-1.06276	-2.50736	-3.39708
H	-0.90391	-0.518928	-1.29028
C	8.56766	0.0493066	-0.169908
O	7.85968	1.02144	-0.378485
O	8.09633	-1.00655	0.492316
H	9.59591	0.046129	-0.529619
H	7.19046	-0.8696	0.746118
