35
  This energy is -0.000590424 and Call times are: 1097
C	-0.683168	0.221279	-2.4711
O	0.00100783	-0.474629	-1.65769
O	-0.180884	1.04735	-3.35225
H	-1.76958	0.148632	-2.47534
H	0.849735	1.16277	-3.33867
C	3.09113	0.658625	-2.411
O	2.38535	1.23497	-3.26614
O	2.66098	-0.20598	-1.49663
H	4.16726	0.816256	-2.35656
H	1.65764	-0.34329	-1.4937
C	-2.68743	-1.83781	-0.235581
O	-3.16285	-1.15594	-1.14199
O	-1.35821	-1.89749	0.0656772
H	-3.27141	-2.47349	0.432944
H	-0.770878	-1.32079	-0.544289
C	-0.149567	-3.24204	3.09925
O	-0.377213	-2.14356	3.63272
O	-0.338033	-3.56381	1.81969
H	0.239495	-4.08901	3.66587
H	-0.700597	-2.84421	1.20542
C	-0.360781	1.10108	2.4171
O	0.131394	0.557969	1.39977
O	-0.792135	0.442549	3.48473
H	-0.476606	2.18181	2.50093
H	-0.663313	-0.560135	3.46184
C	0.660493	3.45366	-0.197369
O	0.16574	3.83315	0.870495
O	0.907602	2.16517	-0.526205
H	0.954408	4.12724	-1.00574
H	0.645067	1.51302	0.214058
C	7.45493	0.297481	-0.342374
O	6.32785	-0.083035	-0.0690753
O	8.50927	-0.155468	0.334915
H	7.59907	1.01526	-1.14905
H	8.24013	-0.772092	1.00657
