18
  This energy is -3.0459 and Call times are: 5038
C	-0.226887	-0.596671	-0.9375
C	0.270392	-1.17444	0.193547
C	0.42075	-0.115307	1.13998
C	0.00207927	1.01619	0.503742
O	-0.396937	0.740729	-0.765872
H	-0.498127	-1.02255	-1.91745
H	0.507538	-2.23961	0.346083
H	0.797654	-0.19602	2.17223
H	-0.0599512	2.06399	0.840663
C	3.99509	-0.733109	0.826859
C	5.28684	-0.270085	0.692136
N	5.39979	0.559884	-0.373183
C	4.18275	0.611554	-0.897361
N	3.30011	-0.151134	-0.20972
H	3.53652	-1.41289	1.56248
H	6.13934	-0.520015	1.34453
H	3.8827	1.19224	-1.7845
H	2.28061	-0.275449	-0.425165
