18
  This energy is -3.2815 and Call times are: 50966
C	-0.103182	1.11242	0.195661
C	0.0112812	0.200972	1.2039
C	0.118974	-1.07363	0.568369
C	0.0608139	-0.828565	-0.772128
O	-0.0748079	0.501187	-1.01785
H	-0.209509	2.20956	0.210505
H	0.0190933	0.405682	2.28655
H	0.226886	-2.05366	1.0603
H	0.104331	-1.50491	-1.64156
C	3.90926	-0.0824639	-1.13744
C	5.17671	-0.15745	-0.599767
N	5.14447	-0.0217207	0.748212
C	3.8619	0.136865	1.04566
N	3.07674	0.107665	-0.0571846
H	3.55272	-0.148734	-2.17764
H	6.11386	-0.307057	-1.16033
H	3.44276	0.278322	2.05489
H	2.03271	0.210305	-0.0841951
