18
  This energy is -1.6899 and Call times are: 354
C	-0.416395	-1.04367	0.154164
C	0.609978	-0.548661	0.903763
C	0.845884	0.773939	0.418792
C	-0.0571546	0.970395	-0.584352
O	-0.83613	-0.129382	-0.759569
H	-0.931524	-2.01812	0.172689
H	1.14707	-1.06326	1.71666
H	1.60225	1.48869	0.780918
H	-0.244044	1.83621	-1.24062
C	4.82685	0.341366	0.995487
C	4.59294	-0.954048	0.585202
N	3.96352	-0.980462	-0.614653
C	3.80756	0.293719	-0.94746
N	4.31164	1.12976	-0.0090965
H	5.30744	0.744535	1.90104
H	4.86705	-1.87009	1.13345
H	3.33103	0.670345	-1.86686
H	4.31027	2.17869	-0.0407863
