18
  This energy is -1.0513 and Call times are: 182831
C	-0.776195	0.261062	0.784709
C	0.09452	1.18349	0.283363
C	0.90125	0.48437	-0.665599
C	0.4523	-0.80357	-0.660379
O	-0.57189	-0.957887	0.219526
H	-1.57752	0.345321	1.53706
H	0.161943	2.24932	0.554591
H	1.71852	0.900365	-1.27642
H	0.773462	-1.69207	-1.22841
C	6.4635	-0.0224056	-0.175649
C	5.69638	1.0769	0.147154
N	4.38991	0.740429	0.275365
C	4.3467	-0.562654	0.0330235
N	5.57152	-1.06924	-0.244068
H	7.54496	-0.130244	-0.35552
H	6.06219	2.10679	0.289838
H	3.44444	-1.19512	0.0452043
H	5.79843	-2.06899	-0.4683
