18
  This energy is -0.8597 and Call times are: 110250
C	-0.553537	0.867922	-0.476139
C	0.71506	0.98918	0.00999909
C	1.06239	-0.29829	0.52176
C	-0.0246163	-1.09265	0.303174
O	-1.02083	-0.396792	-0.3054
H	-1.22372	1.59704	-0.960379
H	1.34323	1.89444	0.00838228
H	2.01341	-0.589725	0.995821
H	-0.211522	-2.15492	0.530998
C	5.02099	0.795103	-0.540229
C	4.88212	0.328046	0.749622
N	5.84015	-0.583819	1.04491
C	6.57057	-0.682084	-0.057561
N	6.11701	0.129458	-1.04207
H	4.43692	1.52955	-1.11727
H	4.10782	0.632691	1.47246
H	7.44859	-1.33292	-0.198079
H	6.52292	0.23205	-2.00435
