18
  This energy is -0.4841 and Call times are: 172523
C	-0.303445	0.0275624	1.0925
C	-1.0502	0.61189	0.112049
C	-0.352131	0.366671	-1.1097
C	0.759583	-0.34586	-0.767994
O	0.805387	-0.562007	0.572973
H	-0.450991	-0.03777	2.18301
H	-1.99758	1.16056	0.236669
H	-0.650658	0.687411	-2.1207
H	1.58333	-0.752391	-1.37743
C	6.48045	0.325233	1.02396
C	5.23827	0.680972	0.542706
N	5.00736	0.125657	-0.671713
C	6.10212	-0.571932	-0.942824
N	7.02002	-0.483489	0.0487551
H	7.00126	0.581788	1.96016
H	4.50454	1.32838	1.05
H	6.28405	-1.16578	-1.85303
H	7.96305	-0.943361	0.0705225
