18
  This energy is -0.6921 and Call times are: 176360
C	0.866106	-0.668522	0.298898
C	-0.433965	-1.06857	0.399638
C	-1.21851	0.0310518	-0.064507
C	-0.328604	1.006	-0.407907
O	0.949048	0.59587	-0.192473
H	1.81033	-1.18339	0.541005
H	-0.803424	-2.04052	0.764224
H	-2.3172	0.0812036	-0.131341
H	-0.475999	2.02116	-0.811613
C	6.08293	0.757018	0.687175
C	4.88423	0.137036	0.969808
N	4.50121	-0.6727	-0.0471173
C	5.45866	-0.555502	-0.957162
N	6.43499	0.295237	-0.561424
H	6.69009	1.47035	1.26687
H	4.28888	0.259486	1.88927
H	5.49458	-1.07012	-1.93087
H	7.2961	0.553801	-1.10263
