18
  This energy is -0.854 and Call times are: 100826
C	0.182429	-0.349779	-1.06338
C	1.19608	-0.176872	-0.167288
C	0.577626	0.263921	1.04239
C	-0.759365	0.321465	0.778733
O	-1.01868	-0.0499943	-0.50259
H	0.185049	-0.677427	-2.11594
H	2.27144	-0.343059	-0.340738
H	1.07813	0.507449	1.99333
H	-1.61727	0.607137	1.40932
C	6.29998	-0.792466	0.846818
C	7.23394	0.012116	0.229158
N	6.65401	0.807896	-0.701928
C	5.36517	0.498171	-0.662041
N	5.10102	-0.461688	0.255828
H	6.40034	-1.55169	1.63868
H	8.31585	0.0326741	0.438671
H	4.57147	0.943674	-1.28317
H	4.16182	-0.87514	0.475434
