18
  This energy is -1.0355 and Call times are: 108678
C	0.276586	0.550968	-0.952017
C	-0.996269	0.135451	-0.69209
C	-0.944895	-0.508489	0.581809
C	0.354818	-0.42963	0.987888
O	1.11485	0.214243	0.0633371
H	0.70886	1.0889	-1.81168
H	-1.88246	0.269007	-1.33312
H	-1.78334	-0.973472	1.12486
H	0.858576	-0.787679	1.90073
C	5.10635	-0.271794	-1.02705
C	4.88139	0.992211	-0.52423
N	4.27652	0.935684	0.687151
C	4.1268	-0.358469	0.934896
N	4.61133	-1.12771	-0.0686375
H	5.56825	-0.611459	-1.96769
H	5.1447	1.94396	-1.01382
H	3.6689	-0.79771	1.8358
H	4.61015	-2.17635	-0.108932
