18
  This energy is -1.1312 and Call times are: 206795
C	-0.482227	-0.810766	0.629696
C	0.540509	-1.06888	-0.235038
C	0.872112	0.184793	-0.833763
C	0.0227422	1.09833	-0.282047
O	-0.811296	0.507746	0.613833
H	-1.05351	-1.46979	1.30392
H	1.01392	-2.04425	-0.431573
H	1.65375	0.374697	-1.58681
H	-0.0871453	2.18366	-0.440891
C	5.79146	0.7279	-0.614116
C	5.71352	0.621997	0.758419
N	4.81107	-0.320057	1.12535
C	4.33098	-0.796766	-0.0152204
N	4.89056	-0.197077	-1.09264
H	6.40384	1.37447	-1.26256
H	6.29228	1.20845	1.49051
H	3.56832	-1.58534	-0.118795
H	4.67853	-0.39839	-2.1005
