18
  This energy is -1.4459 and Call times are: 193623
C	-0.318072	0.54349	0.943319
C	0.987015	0.452667	0.557477
C	0.983795	-0.294843	-0.659624
C	-0.322975	-0.594825	-0.910093
O	-1.13188	-0.0906415	0.0586644
H	-0.790995	1.02548	1.81468
H	1.864	0.87018	1.07775
H	1.85779	-0.572137	-1.27064
H	-0.80038	-1.15292	-1.7322
C	4.87323	-0.960496	-0.676149
C	4.64645	0.33267	-1.09738
N	4.62373	1.19115	-0.0490423
C	4.83563	0.433448	1.01848
N	4.99222	-0.871552	0.692836
H	4.95562	-1.90621	-1.23506
H	4.4988	0.661617	-2.13893
H	4.8858	0.782877	2.06233
H	5.17033	-1.66452	1.35672
