18
  This energy is -2.9082 and Call times are: 108132
C	-0.0120813	-0.623092	-0.947634
C	0.1122	-1.18004	0.291211
C	0.0857796	-0.0903415	1.21424
C	-0.0523157	1.03631	0.457957
O	-0.113704	0.729605	-0.864607
H	-0.0414334	-1.07491	-1.95275
H	0.212428	-2.25081	0.530997
H	0.16145	-0.148246	2.31197
H	-0.11843	2.1007	0.737141
C	3.51772	0.914374	-0.288975
C	4.82406	0.962637	0.149538
N	5.30458	-0.281204	0.391332
C	4.30017	-1.09801	0.103915
N	3.20049	-0.425431	-0.31073
H	2.81483	1.71203	-0.577468
H	5.42845	1.87267	0.295785
H	4.31605	-2.19722	0.179413
H	2.28134	-0.84471	-0.594686
