18
  This energy is -1.0653 and Call times are: 68238
C	0.878756	-0.0610371	-0.714467
C	0.880244	0.756916	0.377011
C	-0.380604	0.556529	1.0175
C	-1.04127	-0.366188	0.260874
O	-0.286953	-0.754337	-0.800894
H	1.63547	-0.2383	-1.49627
H	1.68817	1.43351	0.698825
H	-0.744626	1.04687	1.93464
H	-2.03891	-0.82227	0.370244
C	5.73542	1.09338	-0.0053734
C	4.56411	0.666229	-0.594214
N	4.37003	-0.659443	-0.390655
C	5.41695	-1.05321	0.321758
N	6.26911	-0.0330286	0.579923
H	6.21108	2.08609	0.0371594
H	3.85559	1.29084	-1.16229
H	5.60912	-2.07709	0.680877
H	7.16556	-0.0893857	1.12256
