18
  This energy is -0.5359 and Call times are: 158891
C	0.989284	-0.518672	0.196715
C	0.0588782	-1.02249	-0.664033
C	-1.03246	-0.101254	-0.643173
C	-0.672608	0.884192	0.228481
O	0.559145	0.645387	0.750754
H	1.98326	-0.88864	0.497371
H	0.133583	-1.94983	-1.25442
H	-1.97214	-0.172311	-1.21417
H	-1.19712	1.79603	0.558161
C	6.06015	0.249023	1.14956
C	5.23274	-0.611991	0.460222
N	5.56214	-0.659262	-0.853464
C	6.58999	0.169276	-0.978623
N	6.92824	0.741759	0.200972
H	6.0916	0.536394	2.21256
H	4.40399	-1.19994	0.887229
H	7.13242	0.393702	-1.91117
H	7.70397	1.42987	0.362212
