18
  This energy is -1.4257 and Call times are: 184506
C	-0.942116	-0.416532	-0.474679
C	-0.577364	-0.712027	0.805951
C	0.645436	-0.0106143	1.03595
C	0.919974	0.651585	-0.124437
O	-0.0390955	0.415027	-1.05784
H	-1.80923	-0.730276	-1.07877
H	-1.11542	-1.35902	1.51728
H	1.24397	-0.00565297	1.96106
H	1.75426	1.31379	-0.408512
C	4.87482	0.107819	1.13927
C	4.07374	-0.858822	0.569168
N	3.97185	-0.681275	-0.770462
C	4.70692	0.391432	-1.03044
N	5.27229	0.903774	0.0882474
H	5.17999	0.279887	2.18369
H	3.56746	-1.68117	1.10046
H	4.86525	0.844432	-2.02238
H	5.89482	1.74673	0.144274
