18
  This energy is -1.9323 and Call times are: 41571
C	0.367749	-0.18379	1.05706
C	-0.0992876	-1.1882	0.261187
C	-0.462318	-0.571041	-0.974712
C	-0.185076	0.756019	-0.824974
O	0.322541	1.01036	0.409791
H	0.755713	-0.188993	2.08891
H	-0.180052	-2.25652	0.5186
H	-0.880516	-1.06572	-1.86606
H	-0.302232	1.60953	-1.51276
C	3.70256	1.06738	-0.454766
C	3.52836	0.681882	0.857556
N	3.85155	-0.62277	1.0306
C	4.22483	-1.04504	-0.169809
N	4.15254	-0.0631412	-1.09946
H	3.54347	2.03396	-0.958698
H	3.17527	1.32175	1.68263
H	4.56032	-2.06344	-0.423829
H	4.39339	-0.147063	-2.1174
