18
  This energy is -1.0171 and Call times are: 172427
C	0.512254	1.01011	0.0605984
C	-0.745914	0.858265	-0.443714
C	-1.03771	-0.537	-0.353103
C	0.0679065	-1.11461	0.198583
O	1.02437	-0.184509	0.457628
H	1.14529	1.90334	0.189673
H	-1.40264	1.64942	-0.839793
H	-1.96565	-1.04273	-0.664959
H	0.294938	-2.16275	0.453734
C	4.32213	-0.63007	-0.178545
C	5.57369	-1.11587	0.135692
N	6.46937	-0.107875	0.270649
C	5.77611	0.999045	0.041008
N	4.47645	0.737134	-0.234467
H	3.36453	-1.14341	-0.360268
H	5.84644	-2.17563	0.267452
H	6.1708	2.02765	0.0617111
H	3.7288	1.44139	-0.449651
