18
  This energy is -1.1047 and Call times are: 150301
C	-0.615982	0.95159	-0.0379823
C	-0.4273	0.159464	-1.1322
C	0.389733	-0.926484	-0.692549
C	0.628202	-0.702101	0.631519
O	0.0215753	0.440514	1.04799
H	-1.17534	1.89201	0.0961009
H	-0.823701	0.323425	-2.14713
H	0.752758	-1.7719	-1.29883
H	1.20567	-1.27267	1.37733
C	6.1389	0.219626	0.199419
C	5.5981	-0.936344	-0.322516
N	4.2492	-0.845792	-0.416246
C	3.9543	0.361761	0.0457851
N	5.05965	1.04329	0.429605
H	7.18063	0.504893	0.416104
H	6.15706	-1.83408	-0.633136
H	2.94523	0.797332	0.125099
H	5.08893	2.01416	0.826852
