18
  This energy is -1.1459 and Call times are: 143346
C	-0.788327	-0.586115	0.566931
C	-0.776475	-0.505566	-0.794592
C	0.349983	0.306694	-1.12842
C	0.927053	0.650802	0.05857
O	0.244943	0.114216	1.10443
H	-1.46918	-1.10326	1.26282
H	-1.48945	-0.971405	-1.4937
H	0.684039	0.595846	-2.13782
H	1.81356	1.26384	0.289964
C	5.06217	0.0437413	-1.11893
C	4.13961	-0.828591	-0.581278
N	3.96094	-0.596452	0.741862
C	4.76958	0.416043	1.02397
N	5.45535	0.837744	-0.0648226
H	5.45365	0.152072	-2.14292
H	3.59972	-1.62131	-1.12437
H	4.89844	0.887538	2.01155
H	6.15354	1.62043	-0.0994092
