18
  This energy is -1.5486 and Call times are: 130112
C	0.214464	-1.05747	-0.349531
C	-0.293133	-0.102335	-1.18046
C	-0.422042	1.07808	-0.386663
C	0.0181609	0.740084	0.859271
O	0.410739	-0.56039	0.90003
H	0.476576	-2.11394	-0.523943
H	-0.550923	-0.217477	-2.24554
H	-0.799653	2.06013	-0.713907
H	0.100908	1.32605	1.78935
C	3.78	0.0602553	0.92901
C	3.76826	-0.89365	-0.0665157
N	4.73893	-0.656485	-0.981967
C	5.35053	0.44038	-0.555983
N	4.80923	0.910946	0.592561
H	3.14979	0.189608	1.82324
H	3.07678	-1.74876	-0.140632
H	6.20035	0.941423	-1.0469
H	5.11527	1.76172	1.12526
