18
  This energy is -1.6425 and Call times are: 151506
C	0.511614	-0.852644	-0.545573
C	0.765412	-0.566458	0.763647
C	-0.0576909	0.555676	1.08526
C	-0.741815	0.856151	-0.0558217
O	-0.406458	0.00619241	-1.06186
H	0.913616	-1.63071	-1.21509
H	1.46234	-1.09276	1.43551
H	-0.125835	1.07239	2.05606
H	-1.48508	1.63942	-0.27785
C	3.9682	1.04989	0.00438279
C	4.12945	0.208473	-1.07597
N	4.78974	-0.920669	-0.721622
C	5.03718	-0.780279	0.573635
N	4.56169	0.391383	1.0581
H	3.48909	2.03771	0.0949027
H	3.78119	0.395908	-2.10477
H	5.56304	-1.50503	1.21585
H	4.63178	0.733072	2.04785
