18
  This energy is -0.9239 and Call times are: 184088
C	-0.481317	-0.695067	0.756054
C	-1.11734	0.409792	0.271139
C	-0.20314	1.01775	-0.642509
C	0.91083	0.23073	-0.635258
O	0.758376	-0.819863	0.213284
H	-0.798958	-1.4622	1.48122
H	-2.1288	0.761398	0.530783
H	-0.364861	1.93444	-1.23209
H	1.86521	0.309504	-1.18135
C	4.3466	0.836527	0.508317
C	4.71888	0.768792	-0.817565
N	5.47208	-0.331845	-1.05799
C	5.5667	-0.944584	0.114282
N	4.90493	-0.279438	1.09062
H	3.74397	1.57525	1.06028
H	4.4575	1.49437	-1.60501
H	6.10845	-1.88317	0.313744
H	4.83121	-0.560329	2.09905
