18
  This energy is -1.483 and Call times are: 111853
C	0.220898	-0.500777	0.993392
C	0.0337118	0.845482	0.879722
C	-0.217211	1.08981	-0.505001
C	-0.161211	-0.128716	-1.11528
O	0.105387	-1.11148	-0.21521
H	0.439707	-1.13735	1.8664
H	0.0688129	1.59164	1.68973
H	-0.415341	2.06307	-0.982085
H	-0.291536	-0.425338	-2.16898
C	3.76836	-0.395043	0.911077
C	3.61286	0.808276	0.256104
N	4.51283	0.937472	-0.748824
C	5.22394	-0.181441	-0.717399
N	4.81373	-1.01721	0.265866
H	3.22714	-0.837877	1.76227
H	2.86743	1.58555	0.490651
H	6.05646	-0.440054	-1.39138
H	5.21547	-1.9596	0.493366
