18
  This energy is -0.7677 and Call times are: 108838
C	-0.838062	0.212292	0.734155
C	0.171517	1.09946	0.501655
C	1.0181	0.482695	-0.469438
C	0.451116	-0.726921	-0.744634
O	-0.683219	-0.908663	-0.0185029
H	-1.71385	0.259917	1.40198
H	0.306531	2.08893	0.96728
H	1.94	0.898892	-0.906438
H	0.753264	-1.53746	-1.42799
C	6.74846	-0.252024	0.471498
C	5.74703	-1.14549	0.155282
N	4.67316	-0.509177	-0.372369
C	5.00712	0.774167	-0.383451
N	6.24896	0.980777	0.115277
H	7.74787	-0.401261	0.910179
H	5.78012	-2.23786	0.29841
H	4.37992	1.60453	-0.745877
H	6.7381	1.90415	0.212138
