18
  This energy is -0.9219 and Call times are: 99033
C	0.30948	-0.125886	-1.08387
C	1.21384	-0.111894	-0.0629345
C	0.451636	0.0637282	1.13219
C	-0.85121	0.141553	0.736074
O	-0.956516	0.0276626	-0.614094
H	0.438198	-0.236454	-2.17312
H	2.30792	-0.21491	-0.143373
H	0.837255	0.123952	2.16261
H	-1.78302	0.275347	1.30972
C	5.98075	-1.14147	-0.0576755
C	6.61243	-0.100256	-0.704208
N	6.02483	1.08523	-0.411186
C	5.0324	0.780625	0.413992
N	4.96419	-0.549534	0.65815
H	6.17616	-2.2256	-0.0563615
H	7.48163	-0.183187	-1.37686
H	4.32528	1.49286	0.868902
H	4.2693	-1.03704	1.27519
