18
  This energy is -1.6449 and Call times are: 53939
C	0.860512	0.372344	-0.638185
C	0.657558	0.805649	0.63909
C	-0.505159	0.119101	1.10477
C	-0.910083	-0.673138	0.0709579
O	-0.0875254	-0.531102	-1.00153
H	1.63267	0.627019	-1.3826
H	1.26563	1.53552	1.19734
H	-0.977828	0.210829	2.09586
H	-1.75573	-1.37373	-0.0255141
C	4.53222	-0.448704	0.982314
C	5.7753	0.132649	0.848407
N	5.9889	0.541286	-0.425916
C	4.88254	0.214683	-1.08008
N	3.97386	-0.384823	-0.2748
H	4.02244	-0.888676	1.85414
H	6.52187	0.264557	1.64846
H	4.68525	0.39156	-2.14967
H	3.0248	-0.734372	-0.554745
