18
  This energy is -1.7668 and Call times are: 179081
C	0.832829	0.759122	0.128572
C	-0.012778	0.423405	1.14475
C	-0.909572	-0.547162	0.602645
C	-0.532816	-0.718867	-0.696949
O	0.529724	0.0710758	-1.00356
H	1.67911	1.46418	0.0844171
H	-0.00572898	0.819498	2.17293
H	-1.73609	-1.05321	1.12694
H	-0.934336	-1.36425	-1.49539
C	3.93389	-0.871725	-0.700824
C	4.69357	0.219617	-1.06553
N	4.93184	1.0262	-0.0029106
C	4.3223	0.437482	1.01714
N	3.70608	-0.710251	0.647587
H	3.55202	-1.72343	-1.2859
H	5.07401	0.439467	-2.07636
H	4.29564	0.803933	2.056
H	3.15899	-1.35439	1.26972
