18
  This energy is -1.058 and Call times are: 121863
C	0.668972	0.651962	0.643291
C	0.403222	-0.649922	0.951263
C	-0.46268	-1.1267	-0.0797629
C	-0.649631	-0.074079	-0.926764
O	0.0341483	1.02035	-0.50052
H	1.28572	1.412	1.15046
H	0.779233	-1.21756	1.81757
H	-0.891519	-2.1375	-0.171784
H	-1.2377	0.0225718	-1.85417
C	5.61596	-0.0995413	-0.997885
C	4.30922	0.321596	-0.870563
N	3.91788	0.314828	0.426863
C	4.97781	-0.108897	1.10186
N	6.02733	-0.372011	0.287698
H	6.26075	-0.220587	-1.88283
H	3.64178	0.630205	-1.69162
H	5.0398	-0.244723	2.19362
H	6.97405	-0.717706	0.580073
