18
  This energy is -1.587 and Call times are: 157707
C	-1.09748	-0.118884	0.260413
C	-0.343988	-1.15094	-0.21654
C	0.964792	-0.617143	-0.422136
C	0.895546	0.693991	-0.0526702
O	-0.35654	1.01545	0.366804
H	-2.15767	-0.0639628	0.557431
H	-0.676461	-2.18446	-0.404707
H	1.84882	-1.15449	-0.801403
H	1.65639	1.49164	-0.0417182
C	4.60968	0.51982	-1.05201
C	4.86344	-0.813056	-0.806665
N	4.9001	-1.06659	0.524081
C	4.66996	0.104541	1.1021
N	4.48839	1.09272	0.194289
H	4.51015	1.08243	-1.99387
H	5.02073	-1.59632	-1.56602
H	4.62363	0.294728	2.18649
H	4.29253	2.10285	0.40054
