18
  This energy is -1.3644 and Call times are: 133985
C	0.104312	0.347575	1.07457
C	0.250999	-0.959109	0.712038
C	0.0497571	-0.997641	-0.701516
C	-0.202139	0.288898	-1.078
O	-0.17273	1.1238	-0.0060429
H	0.171804	0.846156	2.05545
H	0.478128	-1.81044	1.37366
H	0.0898336	-1.88479	-1.35379
H	-0.414656	0.733866	-2.06394
C	4.80228	1.14577	0.248687
C	3.65665	0.481328	-0.134963
N	3.90131	-0.835567	-0.340955
C	5.19382	-0.987515	-0.0860667
N	5.78167	0.178112	0.273564
H	4.98385	2.20345	0.497463
H	2.65792	0.928559	-0.266819
H	5.76056	-1.93054	-0.14728
H	6.79118	0.318055	0.52369
