18
  This energy is -1.8631 and Call times are: 147258
C	-0.722145	0.714742	-0.504034
C	-0.0215697	-0.226717	-1.19918
C	0.767532	-0.920408	-0.231586
C	0.479506	-0.341616	0.969419
O	-0.428421	0.658816	0.821715
H	-1.45098	1.47392	-0.832229
H	-0.056925	-0.41391	-2.28444
H	1.46564	-1.75238	-0.417486
H	0.848632	-0.547644	1.98753
C	4.16551	-0.748666	-0.89286
C	3.7633	0.567295	-0.980116
N	3.67518	1.13375	0.24784
C	4.02141	0.172854	1.09367
N	4.32617	-0.981504	0.454791
H	4.34286	-1.51052	-1.66853
H	3.53511	1.11817	-1.90711
H	4.06868	0.260672	2.19107
H	4.62744	-1.88226	0.901034
