18
  This energy is -1.4749 and Call times are: 102899
C	-0.740073	0.731276	0.451586
C	-0.165254	0.933673	-0.768657
C	0.693827	-0.186379	-0.98679
C	0.568143	-0.974348	0.11941
O	-0.30357	-0.429186	1.00819
H	-1.46518	1.33032	1.02658
H	-0.329702	1.78618	-1.4471
H	1.32789	-0.374949	-1.86798
H	1.03837	-1.93374	0.390895
C	4.11263	-0.725792	-0.841586
C	4.577	0.561706	-1.00848
N	4.94229	1.10694	0.177182
C	4.70543	0.161281	1.07621
N	4.20459	-0.963038	0.511724
H	3.73582	-1.46531	-1.56592
H	4.65501	1.10698	-1.96318
H	4.88061	0.239379	2.16132
H	3.93725	-1.84705	1.01003
