18
  This energy is -2.0534 and Call times are: 115782
C	-0.470989	0.638734	-0.810302
C	-0.0396536	1.16142	0.373388
C	0.484011	0.0613487	1.11886
C	0.326453	-1.03646	0.324916
O	-0.255203	-0.70226	-0.85703
H	-0.942438	1.10924	-1.68871
H	-0.0856303	2.21586	0.689829
H	0.924777	0.0932814	2.12822
H	0.583631	-2.0966	0.483761
C	3.38093	0.625795	-0.850905
C	3.34494	-0.743285	-0.691316
N	4.05391	-1.12705	0.397998
C	4.52792	-0.000324204	0.912235
N	4.14994	1.08442	0.195267
H	2.92881	1.2842	-1.6096
H	2.82012	-1.46104	-1.34266
H	5.15707	0.0875104	1.81262
H	4.39583	2.08432	0.397752
