18
  This energy is -0.7913 and Call times are: 73107
C	-0.448094	-0.6724	0.795922
C	-1.21324	0.13383	0.00540126
C	-0.301237	0.814394	-0.85785
C	0.940709	0.36397	-0.518645
O	0.869794	-0.544584	0.489578
H	-0.717433	-1.37449	1.60201
H	-2.30986	0.238766	0.0279144
H	-0.550159	1.55191	-1.63772
H	1.94033	0.608822	-0.913683
C	5.87143	0.854163	0.719403
C	4.60642	0.308128	0.667116
N	4.5295	-0.656703	-0.281406
C	5.74218	-0.709025	-0.815526
N	6.5875	0.182521	-0.246166
H	6.29851	1.64672	1.35422
H	3.74784	0.593061	1.29681
H	6.0654	-1.38166	-1.62628
H	7.5962	0.333378	-0.493202
