18
  This energy is -1.2667 and Call times are: 115309
C	0.753808	0.841857	0.0972109
C	0.02641	0.640295	-1.03885
C	-0.798661	-0.496157	-0.778368
C	-0.502617	-0.888741	0.493878
O	0.443519	-0.082781	1.04367
H	1.514	1.59774	0.354125
H	0.066805	1.23249	-1.96717
H	-1.52516	-0.96029	-1.46457
H	-0.890429	-1.71412	1.11323
C	4.68666	1.14089	-0.0357572
C	3.88564	0.460575	-0.928325
N	3.76783	-0.844481	-0.582694
C	4.493	-0.973293	0.5201
N	5.06734	0.195706	0.890468
H	5.00221	2.19557	0.00451004
H	3.39061	0.888017	-1.8155
H	4.63742	-1.9011	1.09678
H	5.68495	0.352222	1.72433
