18
  This energy is -1.4413 and Call times are: 66096
C	0.0772194	0.374808	-1.06769
C	-0.952041	-0.412839	-0.642705
C	-0.70048	-0.673135	0.73899
C	0.460297	-0.0215722	1.03637
O	0.949075	0.623696	-0.0552978
H	0.300632	0.817724	-2.05215
H	-1.80305	-0.774287	-1.24207
H	-1.31766	-1.27653	1.4239
H	1.03373	0.0591694	1.9744
C	3.84483	-0.985834	0.590012
C	4.37033	0.177696	1.11078
N	4.53772	1.11343	0.144912
C	4.11767	0.532608	-0.970808
N	3.68995	-0.733891	-0.754876
H	3.579	-1.94336	1.06543
H	4.63168	0.358757	2.16613
H	4.10148	0.989373	-1.97347
H	3.3123	-1.39748	-1.47479
