18
  This energy is -1.3265 and Call times are: 78363
C	-0.952234	-0.6121	-0.0706051
C	-0.521811	0.189	-1.08714
C	0.692383	0.784888	-0.628049
C	0.896752	0.295323	0.628507
O	-0.0979623	-0.559323	0.985068
H	-1.83807	-1.26146	0.0235364
H	-1.01033	0.344691	-2.06244
H	1.33245	1.49445	-1.17662
H	1.70034	0.475077	1.36143
C	5.29743	-0.946129	0.492436
C	4.37279	-0.935263	-0.530333
N	4.01319	0.331501	-0.850504
C	4.71209	1.10356	-0.0294825
N	5.50147	0.380551	0.799806
H	5.80766	-1.77637	1.00616
H	3.95869	-1.81877	-1.04297
H	4.68388	2.20452	0.00694422
H	6.14611	0.758583	1.53655
