18
  This energy is -2.0206 and Call times are: 26780
C	0.0950231	0.0103762	-1.13016
C	0.247765	-1.12813	-0.39474
C	0.0577154	-0.742248	0.967278
C	-0.194387	0.598003	0.943931
O	-0.175444	1.0742	-0.328819
H	0.153589	0.192866	-2.21576
H	0.471794	-2.13834	-0.773397
H	0.105094	-1.39378	1.85461
H	-0.400256	1.31741	1.75345
C	3.85764	0.515505	-1.04618
C	3.56647	-0.811941	-0.813267
N	3.45189	-1.0615	0.513799
C	3.67114	0.106692	1.10192
N	3.92048	1.08918	0.204073
H	4.01919	1.07389	-1.98194
H	3.43702	-1.59409	-1.579
H	3.66109	0.298676	2.18695
H	4.12307	2.0961	0.419341
