18
  This energy is -0.9904 and Call times are: 19990
C	0.69005	-0.39827	-0.807225
C	0.00458543	-1.21999	0.0385188
C	-0.743804	-0.359534	0.898543
C	-0.449604	0.912044	0.502426
O	0.424548	0.907154	-0.538173
H	1.38893	-0.616067	-1.63147
H	0.0240169	-2.32156	0.0550939
H	-1.42	-0.661308	1.7145
H	-0.792033	1.89149	0.874819
C	6.05856	-0.166602	-0.12274
C	5.27928	0.752961	-0.792262
N	3.9835	0.670041	-0.40421
C	3.95901	-0.297285	0.5026
N	5.1855	-0.83328	0.707608
H	7.13667	-0.386421	-0.176616
H	5.62879	1.47476	-1.54836
H	3.06982	-0.653269	1.04744
H	5.4256	-1.60893	1.37243
