18
  This energy is -2.3332 and Call times are: 12342
C	-0.318351	-0.988613	-0.45574
C	-0.554276	-0.677062	0.851031
C	-0.0146447	0.631152	1.04466
C	0.503404	1.00355	-0.160874
O	0.326742	0.0263673	-1.08873
H	-0.556606	-1.88767	-1.0475
H	-1.0578	-1.30544	1.60316
H	-0.0165821	1.21874	1.97677
H	1.01599	1.92474	-0.483217
C	3.94509	0.291485	1.13934
C	4.65591	0.869068	0.10867
N	4.35835	0.285095	-1.07748
C	3.46633	-0.651207	-0.783778
N	3.18399	-0.687182	0.540072
H	3.92758	0.500656	2.22077
H	5.37813	1.69669	0.19967
H	2.98763	-1.33848	-1.49984
H	2.51311	-1.33682	1.01877
