18
  This energy is -1.1491 and Call times are: 175975
C	-0.839842	-0.269055	0.713216
C	-0.385444	1.00885	0.568807
C	0.659117	0.944898	-0.403263
C	0.750824	-0.366443	-0.767062
O	-0.157176	-1.12208	-0.0950751
H	-1.63253	-0.695613	1.34957
H	-0.749326	1.90648	1.09411
H	1.26615	1.78308	-0.78149
H	1.41154	-0.881985	-1.48324
C	4.26524	0.391094	-0.832025
C	4.46971	0.940305	0.416055
N	5.38811	0.232046	1.11707
C	5.752	-0.752805	0.306963
N	5.10321	-0.700534	-0.880439
H	3.60475	0.689859	-1.6615
H	3.97102	1.83492	0.823272
H	6.48954	-1.53967	0.533029
H	5.21687	-1.36498	-1.68471
