18
  This energy is -1.6516 and Call times are: 48079
C	0.438197	0.559738	0.883786
C	0.75298	0.870458	-0.406462
C	0.0137051	-0.041703	-1.21982
C	-0.687577	-0.829308	-0.354804
O	-0.440323	-0.475971	0.934006
H	0.767663	0.994517	1.84174
H	1.43714	1.66254	-0.750895
H	0.0107128	-0.0974715	-2.32026
H	-1.38674	-1.66371	-0.528559
C	4.64356	0.585275	-1.009
C	5.59504	-0.378549	-0.750398
N	5.48783	-0.843031	0.518174
C	4.4737	-0.169919	1.04456
N	3.93121	0.703588	0.1635
H	4.43008	1.17565	-1.91422
H	6.35696	-0.747112	-1.45644
H	4.0867	-0.277482	2.07067
H	3.1221	1.34816	0.339946
