18
  This energy is -0.9075 and Call times are: 45454
C	0.658447	-0.335165	-0.860531
C	-0.648308	-0.710505	-0.75151
C	-1.13267	-0.0976837	0.4443
C	-0.0791458	0.598045	0.960457
O	1.02285	0.464159	0.176437
H	1.42481	-0.566651	-1.61839
H	-1.21436	-1.35433	-1.44373
H	-2.14894	-0.171897	0.863577
H	0.0132783	1.21924	1.86645
C	5.37926	0.26714	0.989032
C	4.60009	1.11576	0.231491
N	4.08211	0.474103	-0.843908
C	4.53821	-0.767866	-0.753857
N	5.32492	-0.943029	0.33426
H	5.94955	0.433226	1.91679
H	4.40239	2.17953	0.441623
H	4.32705	-1.58905	-1.45763
H	5.80249	-1.83144	0.623928
