18
  This energy is -1.6142 and Call times are: 202993
C	0.299883	0.87966	-0.65013
C	-0.458319	-0.151703	-1.12108
C	-0.62152	-1.05028	-0.0228752
C	0.0513574	-0.488692	1.02222
O	0.620172	0.69032	0.656996
H	0.673772	1.7946	-1.13834
H	-0.862164	-0.268047	-2.13964
H	-1.17706	-2.00183	-0.0206647
H	0.198168	-0.824031	2.06205
C	4.05491	-1.14982	0.054148
C	4.98478	-0.539417	-0.760647
N	5.00381	0.80094	-0.561666
C	4.08922	1.02122	0.373016
N	3.48906	-0.123423	0.776992
H	3.76547	-2.20672	0.166985
H	5.64229	-1.04214	-1.48852
H	3.81893	2.00136	0.797854
H	2.73614	-0.212111	1.5026
