18
  This energy is -1.7917 and Call times are: 26584
C	0.0709952	-0.0765564	-1.12938
C	-0.321756	1.06692	-0.498043
C	-0.285327	0.774202	0.899493
C	0.126471	-0.522306	0.9988
O	0.34866	-1.05739	-0.230561
H	0.192019	-0.316809	-2.19844
H	-0.608371	2.02083	-0.969209
H	-0.53808	1.45604	1.72733
H	0.298183	-1.16984	1.87428
C	4.65686	-0.898908	-0.064966
C	4.04165	-0.415551	1.07039
N	3.23054	0.630261	0.779046
C	3.34213	0.795069	-0.532064
N	4.19062	-0.102528	-1.08702
H	5.36967	-1.72566	-0.213005
H	4.16852	-0.802685	2.09454
H	2.82483	1.55764	-1.13632
H	4.44486	-0.177511	-2.10239
