18
  This energy is -0.7639 and Call times are: 12310
C	-0.874274	-0.720402	0.0553759
C	-1.0212	0.6224	0.244235
C	0.284414	1.18293	0.0983342
C	1.11393	0.13318	-0.166803
O	0.423153	-1.03684	-0.196744
H	-1.60495	-1.54563	0.0742857
H	-1.95529	1.16387	0.464221
H	0.563892	2.24541	0.182707
H	2.19989	0.0878755	-0.3509
C	6.1311	0.95602	-0.269863
C	6.10198	-0.237936	-0.958896
N	5.2643	-1.12349	-0.366793
C	4.7756	-0.481349	0.685562
N	5.26762	0.776069	0.787583
H	6.68666	1.88985	-0.451141
H	6.6704	-0.476255	-1.87265
H	4.05432	-0.884985	1.41431
H	5.03553	1.47981	1.53064
