18
  This energy is -0.8116 and Call times are: 62342
C	0.730112	-0.747771	0.440655
C	-0.364784	-1.13154	-0.276494
C	-1.02651	0.0760168	-0.656043
C	-0.277566	1.0911	-0.137327
O	0.799046	0.606205	0.535574
H	1.52591	-1.33338	0.929543
H	-0.675299	-2.16163	-0.514357
H	-1.95209	0.168332	-1.24669
H	-0.402486	2.18568	-0.176545
C	4.63706	0.165953	-0.0715637
C	5.6239	1.07001	-0.403185
N	6.85635	0.545729	-0.196519
C	6.63493	-0.678914	0.261571
N	5.31268	-0.95557	0.354939
H	3.53846	0.238893	-0.107689
H	5.4687	2.09117	-0.787866
H	7.40487	-1.41487	0.544043
H	4.88388	-1.85336	0.688647
