18
  This energy is -0.9235 and Call times are: 102311
C	0.483016	0.479562	-0.907258
C	0.310811	-0.869117	-0.798699
C	-0.321319	-1.08216	0.464289
C	-0.479598	0.155132	1.01603
O	0.00603459	1.12066	0.192058
H	0.925323	1.09823	-1.70529
H	0.599924	-1.63692	-1.53422
H	-0.619766	-2.04799	0.902705
H	-0.916837	0.477371	1.97532
C	5.0058	-0.722735	0.908314
C	4.05568	-0.0622513	0.158535
N	4.63324	0.687948	-0.81107
C	5.93671	0.493606	-0.663369
N	6.21245	-0.349149	0.36002
H	4.9118	-1.40927	1.76469
H	2.96378	-0.113587	0.299827
H	6.73333	0.943828	-1.27731
H	7.16411	-0.658945	0.675665
