18
  This energy is -1.8753 and Call times are: 205992
C	-0.478174	-0.335186	0.972317
C	0.521488	0.591843	0.931483
C	0.855401	0.746248	-0.448655
C	0.0303119	-0.100056	-1.12937
O	-0.790775	-0.768492	-0.277298
H	-1.04245	-0.765221	1.81607
H	0.977955	1.1145	1.78738
H	1.62224	1.41242	-0.875583
H	-0.0693538	-0.315251	-2.20594
C	4.91499	1.08836	-0.392871
C	5.5938	-0.062915	-0.731873
N	5.07879	-1.1404	-0.0913201
C	4.08426	-0.659389	0.642274
N	3.94513	0.679474	0.495036
H	5.04898	2.13477	-0.710058
H	6.44595	-0.135393	-1.42718
H	3.42586	-1.24351	1.30527
H	3.23395	1.28977	0.967285
