18
  This energy is -1.4437 and Call times are: 185658
C	-0.300405	-0.654136	-0.876507
C	0.838961	-0.872192	-0.159102
C	0.868739	0.142737	0.845463
C	-0.255059	0.891406	0.653254
O	-0.980766	0.41894	-0.39419
H	-0.732849	-1.18435	-1.74087
H	1.58373	-1.66792	-0.321072
H	1.64118	0.290378	1.61723
H	-0.646071	1.77336	1.18665
C	4.39523	0.716155	-0.473885
C	5.62564	1.07524	0.0343541
N	6.29595	-0.00609303	0.501181
C	5.48447	-1.0321	0.283377
N	4.32563	-0.648408	-0.30268
H	3.59107	1.31512	-0.930063
H	6.04171	2.09517	0.0725666
H	5.68922	-2.08553	0.533538
H	3.5264	-1.27166	-0.5748
