18
  This energy is -1.0482 and Call times are: 160763
C	0.738329	0.204554	0.836318
C	-0.565766	-0.115706	1.07536
C	-1.16563	-0.296345	-0.208242
C	-0.175155	-0.0705255	-1.11837
O	0.994377	0.236649	-0.498006
H	1.5731	0.429571	1.52026
H	-1.05611	-0.214798	2.05712
H	-2.21356	-0.56334	-0.419593
H	-0.175042	-0.0968504	-2.22044
C	4.56451	0.747603	0.898791
C	4.28802	-0.603211	0.897158
N	4.56214	-1.15662	-0.309122
C	5.00699	-0.152936	-1.053
N	5.02728	1.01614	-0.370036
H	4.46792	1.51132	1.68679
H	3.89566	-1.18842	1.74477
H	5.33126	-0.218626	-2.10408
H	5.3366	1.94932	-0.737129
