18
  This energy is -0.7177 and Call times are: 134494
C	0.0745299	-1.12341	-0.13706
C	1.10437	-0.377933	0.356973
C	0.634962	0.970868	0.379642
C	-0.640282	0.930551	-0.10254
O	-0.99893	-0.340534	-0.423052
H	-0.0182582	-2.20473	-0.330429
H	2.09518	-0.741387	0.673662
H	1.18946	1.86111	0.717401
H	-1.3862	1.72595	-0.264368
C	6.42706	0.863138	-0.496867
C	5.24767	0.995686	0.204993
N	4.79896	-0.207464	0.638118
C	5.69657	-1.08308	0.206597
N	6.6978	-0.486936	-0.483135
H	7.07136	1.60912	-0.988726
H	4.71248	1.9379	0.406616
H	5.66926	-2.17283	0.367643
H	7.52308	-0.962558	-0.923534
