18
  This energy is -2.3358 and Call times are: 175751
C	0.0820501	1.07873	-0.340608
C	0.335688	0.697091	0.944069
C	0.128727	-0.715697	0.980355
C	-0.233111	-1.07268	-0.285351
O	-0.266723	0.0106857	-1.10523
H	0.114062	2.06609	-0.829832
H	0.638178	1.34541	1.78209
H	0.238848	-1.38055	1.8521
H	-0.489065	-2.05107	-0.724087
C	4.57711	-1.15234	-0.160773
C	5.52502	-0.152927	-0.222296
N	4.97114	1.06109	0.0140909
C	3.68451	0.815764	0.221474
N	3.39678	-0.504028	0.126837
H	4.65631	-2.24264	-0.296768
H	6.59867	-0.286094	-0.433016
H	2.90921	1.56576	0.446528
H	2.45416	-0.94871	0.249236
