18
  This energy is 0.128 and Call times are: 69467
C	-0.803824	-0.611332	-0.516277
C	0.193742	0.0138242	-1.20506
C	0.995444	0.670544	-0.222148
C	0.417016	0.388727	0.980505
O	-0.682973	-0.393046	0.819671
H	-1.64828	-1.23321	-0.855988
H	0.349422	0.0126313	-2.29586
H	1.8963	1.27977	-0.399347
H	0.688047	0.680605	2.00841
C	2.73116	0.10817	-1.15969
C	1.79448	0.297988	-0.165845
N	2.33351	0.0894527	1.05991
C	3.59978	-0.228526	0.827369
N	3.88878	-0.230954	-0.49553
H	2.65831	0.187761	-2.256
H	0.739385	0.581674	-0.311279
H	4.35866	-0.468879	1.58931
H	4.8177	-0.449528	-0.932091
