18
  This energy is -1.0069 and Call times are: 26682
C	-0.564955	-0.536001	-0.824579
C	0.328126	-1.17557	-0.0160414
C	0.824019	-0.181695	0.881968
C	0.190196	0.977479	0.542918
O	-0.6617	0.779504	-0.497318
H	-1.18773	-0.900203	-1.6581
H	0.609475	-2.2404	-0.048721
H	1.5663	-0.32273	1.68398
H	0.257406	1.99616	0.958888
C	6.04546	0.11291	-0.691697
C	4.84546	0.780698	-0.814986
N	3.9761	0.406424	0.15488
C	4.63427	-0.490144	0.8771
N	5.88637	-0.701842	0.406963
H	6.97052	0.158307	-1.28814
H	4.59139	1.52586	-1.58637
H	4.24661	-1.02244	1.76062
H	6.59999	-1.36104	0.80378
