18
  This energy is -0.7528 and Call times are: 32949
C	0.306877	0.974279	0.492958
C	1.21247	0.0175051	0.13961
C	0.453567	-1.04303	-0.443015
C	-0.848791	-0.640707	-0.394269
O	-0.956839	0.588977	0.174251
H	0.433166	1.95935	0.971442
H	2.30527	0.0548192	0.275604
H	0.840967	-1.99147	-0.848567
H	-1.77845	-1.13127	-0.726451
C	5.16024	-0.822545	-0.0575486
C	5.2996	0.151587	0.908262
N	6.3807	0.93122	0.663493
C	6.91001	0.442608	-0.449932
N	6.21051	-0.615594	-0.923745
H	4.41293	-1.62173	-0.185483
H	4.63944	0.305836	1.77731
H	7.80947	0.821726	-0.961277
H	6.42699	-1.17232	-1.78656
