18
  This energy is -1.1877 and Call times are: 112077
C	-1.08293	-0.201744	0.270121
C	-0.367269	0.814686	0.831438
C	0.933964	0.746236	0.246438
C	0.8986	-0.305979	-0.620722
O	-0.325464	-0.896468	-0.619046
H	-2.12483	-0.530462	0.417229
H	-0.720272	1.5399	1.58214
H	1.79045	1.40783	0.453384
H	1.66724	-0.729939	-1.28758
C	4.7662	-0.734476	-0.387838
C	6.02548	-1.07421	0.059321
N	6.72514	0.0252654	0.430978
C	5.90305	1.04322	0.215205
N	4.70931	0.637005	-0.278335
H	3.93427	-1.35105	-0.763689
H	6.44172	-2.09296	0.120431
H	6.12448	2.10651	0.401245
H	3.8955	1.25002	-0.529683
