18
  This energy is -1.6868 and Call times are: 51590
C	0.56234	-0.702025	0.690895
C	-0.154688	0.361099	1.15567
C	-0.708802	0.993723	0.00117128
C	-0.281471	0.261341	-1.06718
O	0.495919	-0.778101	-0.664395
H	1.15603	-1.46879	1.21516
H	-0.28075	0.668938	2.20611
H	-1.34991	1.88958	-0.0214775
H	-0.458781	0.374809	-2.14928
C	3.58044	0.962961	-0.271923
C	4.57833	0.860794	0.674079
N	5.07749	-0.398127	0.72376
C	4.39187	-1.07439	-0.187955
N	3.47717	-0.297936	-0.815671
H	2.95728	1.81528	-0.586187
H	4.94707	1.67291	1.32165
H	4.51916	-2.14034	-0.4365
H	2.81539	-0.599075	-1.57239
