18
  This energy is -0.6953 and Call times are: 80476
C	-0.581521	-0.726221	0.648719
C	-0.838081	0.613367	0.641318
C	0.0862565	1.18338	-0.286479
C	0.826068	0.141793	-0.764138
O	0.431788	-1.0319	-0.203791
H	-1.04332	-1.55597	1.20864
H	-1.60164	1.14662	1.23014
H	0.181859	2.24645	-0.560039
H	1.6504	0.105153	-1.49516
C	6.02246	-0.396638	1.06009
C	6.81235	0.278442	0.153726
N	6.11599	0.585916	-0.967459
C	4.89873	0.10342	-0.757447
N	4.79172	-0.498305	0.450885
H	6.24176	-0.798489	2.06207
H	7.87223	0.549155	0.288702
H	4.04799	0.163192	-1.45522
H	3.93453	-0.955228	0.848
