18
  This energy is -0.5138 and Call times are: 119610
C	0.2891	1.09431	0.0728126
C	0.937517	0.119414	0.772457
C	0.294637	-1.10689	0.421747
C	-0.689884	-0.773115	-0.461252
O	-0.70765	0.567127	-0.685855
H	0.439279	2.18554	0.0288789
H	1.78365	0.250672	1.46595
H	0.543216	-2.11547	0.789253
H	-1.43421	-1.38818	-0.993164
C	7.32842	0.56401	-0.0965778
C	7.08514	-0.76565	-0.368532
N	5.78537	-1.0796	-0.148174
C	5.22445	0.0510032	0.258936
N	6.11344	1.0713	0.306743
H	8.24945	1.1651	-0.159417
H	7.82418	-1.50409	-0.719797
H	4.16643	0.187538	0.534935
H	5.91497	2.06035	0.595947
