18
  This energy is -0.4887 and Call times are: 166569
C	-0.702157	-0.724553	-0.518073
C	-1.12046	0.482528	-0.0402127
C	0.0338281	1.09679	0.534604
C	1.05561	0.210848	0.357262
O	0.624076	-0.907032	-0.283939
H	-1.24321	-1.53267	-1.03717
H	-2.13963	0.898627	-0.0877342
H	0.0875676	2.08384	1.02137
H	2.12064	0.257414	0.637964
C	7.16343	0.644032	0.474135
C	7.22959	-0.681423	0.100053
N	6.04818	-1.10422	-0.411843
C	5.25214	-0.0450792	-0.355542
N	5.87808	1.03408	0.170957
H	7.915	1.31493	0.91977
H	8.1086	-1.34023	0.190346
H	4.20183	-0.00473127	-0.686383
H	5.46327	1.98646	0.319845
