18
  This energy is -0.7533 and Call times are: 104289
C	0.968757	-0.584686	-0.0777968
C	-0.074997	-1.00009	0.695759
C	-1.09699	-0.0152995	0.535038
C	-0.587544	0.914963	-0.322545
O	0.673095	0.583159	-0.706871
H	1.96233	-1.025	-0.262728
H	-0.120657	-1.90883	1.31721
H	-2.09259	-0.0086848	1.0071
H	-1.01598	1.84489	-0.731106
C	5.65213	0.919453	-0.733081
C	4.869	-0.214578	-0.775807
N	5.1944	-1.07101	0.222762
C	6.17567	-0.470576	0.882465
N	6.48811	0.732398	0.345037
H	5.673	1.81642	-1.37226
H	4.07501	-0.430151	-1.50927
H	6.70095	-0.867315	1.76616
H	7.22649	1.39614	0.684886
