18
  This energy is -0.8421 and Call times are: 58903
C	0.280195	0.958011	-0.538615
C	0.649753	0.710049	0.750693
C	0.117805	-0.576659	1.06933
C	-0.529859	-1.0014	-0.0533863
O	-0.440823	-0.0766087	-1.04528
H	0.465213	1.82101	-1.1991
H	1.23794	1.3673	1.41111
H	0.211553	-1.1154	2.02593
H	-1.08499	-1.92872	-0.270518
C	4.32569	-0.0677718	0.038705
C	5.08112	0.745159	-0.779591
N	6.406	0.565093	-0.558708
C	6.47223	-0.356043	0.393
N	5.24442	-0.76953	0.786813
H	3.2357	-0.192402	0.138286
H	4.69393	1.45838	-1.52541
H	7.39414	-0.763817	0.838012
H	5.03267	-1.48784	1.52197
