18
  This energy is -1.4016 and Call times are: 135749
C	-0.251844	-1.07959	-0.239731
C	-1.19828	-0.0978596	-0.210772
C	-0.50393	1.10492	0.12286
C	0.805525	0.752018	0.268326
O	0.977616	-0.578374	0.050489
H	-0.324502	-2.15916	-0.450643
H	-2.27715	-0.209484	-0.404878
H	-0.937401	2.11127	0.238862
H	1.69899	1.34599	0.521629
C	4.20708	-1.15866	0.0734238
C	4.40463	-0.423892	-1.07646
N	4.59779	0.886859	-0.791632
C	4.52038	0.964952	0.529932
N	4.28596	-0.241776	1.09778
H	4.02212	-2.23327	0.230043
H	4.41123	-0.816061	-2.10652
H	4.62783	1.88092	1.13299
H	4.18377	-0.440976	2.12302
