18
  This energy is -1.4516 and Call times are: 38825
C	-0.684465	-0.310356	0.849463
C	-0.689953	-0.940218	-0.360337
C	0.293648	-0.273384	-1.15279
C	0.813371	0.705105	-0.357288
O	0.227606	0.696995	0.869018
H	-1.27321	-0.481673	1.76559
H	-1.32313	-1.78924	-0.664219
H	0.574723	-0.502589	-2.19325
H	1.59321	1.46162	-0.543781
C	4.73979	1.12184	0.262793
C	3.88553	0.277672	0.940112
N	3.8484	-0.947169	0.361409
C	4.67648	-0.863175	-0.670996
N	5.23895	0.364335	-0.773168
H	5.01853	2.17297	0.438811
H	3.29532	0.530455	1.83599
H	4.90766	-1.6705	-1.38445
H	5.92464	0.679045	-1.50258
