18
  This energy is -0.9893 and Call times are: 178825
C	-0.267372	-0.632794	0.902488
C	0.951052	-0.706413	0.293885
C	0.905623	0.227064	-0.786242
C	-0.336551	0.788713	-0.742338
O	-1.06633	0.2753	0.282771
H	-0.683413	-1.16664	1.77264
H	1.79695	-1.35318	0.577152
H	1.7093	0.447953	-1.50695
H	-0.815801	1.5537	-1.37508
C	6.56378	-0.096297	0.494157
C	5.64966	-1.10893	0.293876
N	4.52611	-0.641975	-0.302856
C	4.74238	0.655406	-0.472129
N	5.95697	1.03329	-0.00783518
H	7.56962	-0.0994653	0.943398
H	5.78071	-2.1681	0.56926
H	4.04493	1.37489	-0.930546
H	6.35969	2.00217	-0.0266718
