18
  This energy is -1.2499 and Call times are: 11422
C	-0.753144	-0.7604	0.375454
C	-0.585578	-0.491974	-0.951287
C	0.435607	0.504114	-1.02274
C	0.801925	0.756451	0.26664
O	0.0861315	-0.00697246	1.13372
H	-1.42743	-1.45631	0.901106
H	-1.12679	-0.949509	-1.795
H	0.843577	0.972436	-1.93287
H	1.54852	1.4465	0.692869
C	4.06505	-0.918792	-0.0275062
C	4.12645	0.0631244	0.938524
N	5.09281	0.969394	0.653343
C	5.62888	0.551293	-0.485276
N	5.04365	-0.583434	-0.936382
H	3.41587	-1.80297	-0.129123
H	3.49078	0.133883	1.83617
H	6.45237	1.0384	-1.03192
H	5.2887	-1.10784	-1.81172
