18
  This energy is -0.9424 and Call times are: 123839
C	0.413443	-0.764136	-0.729083
C	-0.811587	-0.90011	-0.144971
C	-0.97333	0.243688	0.695078
C	0.167138	0.977651	0.55015
O	1.02511	0.376996	-0.315937
H	0.956313	-1.40161	-1.44614
H	-1.52932	-1.72329	-0.291008
H	-1.84141	0.483663	1.32986
H	0.484958	1.93166	1.00194
C	4.4724	-0.25195	0.223883
C	5.00721	0.993024	-0.0313778
N	6.34294	0.916197	-0.246876
C	6.63566	-0.371542	-0.125765
N	5.54155	-1.11725	0.15786
H	3.44104	-0.572691	0.440617
H	4.45321	1.94532	-0.063914
H	7.63509	-0.822608	-0.234875
H	5.51313	-2.15655	0.300323
