18
  This energy is -1.5087 and Call times are: 321
C	-0.183624	1.10045	0.204179
C	0.772473	0.668922	-0.66762
C	0.699274	-0.757459	-0.653575
C	-0.295092	-1.07165	0.225567
O	-0.845254	0.0508482	0.758788
H	-0.487539	2.11413	0.512949
H	1.46028	1.2925	-1.26106
H	1.31905	-1.45969	-1.23396
H	-0.700856	-2.04264	0.55388
C	4.3595	0.552261	0.981916
C	5.00171	1.11221	-0.102133
N	5.24477	0.183971	-1.05911
C	4.75521	-0.947537	-0.570594
N	4.21073	-0.777714	0.657533
H	4.00949	0.991441	1.92963
H	5.29403	2.16936	-0.210902
H	4.76896	-1.92949	-1.0704
H	3.76095	-1.51812	1.24979
