18
  This energy is -0.9343 and Call times are: 94917
C	0.87902	0.708564	0.107995
C	0.885455	-0.334696	-0.770608
C	-0.377513	-0.983691	-0.616219
C	-1.04424	-0.279731	0.343099
O	-0.291722	0.757175	0.796482
H	1.6352	1.47793	0.334951
H	1.69806	-0.61874	-1.45842
H	-0.73883	-1.87097	-1.16053
H	-2.04535	-0.413374	0.784873
C	5.98564	-0.927822	0.612798
C	6.66345	-0.251911	-0.379607
N	5.91963	0.768518	-0.871515
C	4.7847	0.725816	-0.18688
N	4.77556	-0.279483	0.720248
H	6.26931	-1.79537	1.22959
H	7.67586	-0.48226	-0.749493
H	3.92716	1.40685	-0.309533
H	3.99532	-0.519332	1.37976
