18
  This energy is -1.4307 and Call times are: 29248
C	0.0237322	0.982771	-0.565685
C	0.20371	-0.219993	-1.18321
C	0.106319	-1.20611	-0.154524
C	-0.124575	-0.518901	1.00081
O	-0.178056	0.81904	0.768289
H	0.0167389	2.01265	-0.958815
H	0.386696	-0.395211	-2.25555
H	0.198781	-2.29792	-0.270704
H	-0.267078	-0.861109	2.039
C	5.12044	0.916035	-0.164114
C	4.06892	0.839082	0.724437
N	3.45219	-0.365238	0.648517
C	4.11857	-1.03287	-0.283588
N	5.13374	-0.30327	-0.803883
H	5.83634	1.7252	-0.379264
H	3.74421	1.63097	1.41894
H	3.90534	-2.05901	-0.623902
H	5.80337	-0.608307	-1.55209
