18
  This energy is -1.1691 and Call times are: 201359
C	0.643477	0.611266	-0.706181
C	0.695107	0.766053	0.647979
C	-0.245951	-0.16512	1.18412
C	-0.789575	-0.806732	0.110254
O	-0.257959	-0.345128	-1.05221
H	1.18988	1.1142	-1.52089
H	1.33199	1.46576	1.21268
H	-0.483778	-0.330928	2.24715
H	-1.55256	-1.59943	0.0415245
C	4.20738	-0.845131	-0.206388
C	4.29746	0.377041	-0.838308
N	5.33169	1.10429	-0.350479
C	5.88113	0.33621	0.580537
N	5.23936	-0.849603	0.705305
H	3.50535	-1.68402	-0.336605
H	3.63473	0.747105	-1.63749
H	6.75494	0.593141	1.20076
H	5.48173	-1.62472	1.36992
