18
  This energy is -1.3754 and Call times are: 88879
C	0.543179	-0.89946	-0.427
C	0.592877	0.33049	-1.01448
C	-0.203653	1.18755	-0.195269
C	-0.669782	0.405684	0.820495
O	-0.223539	-0.871842	0.694781
H	1.00348	-1.86172	-0.705253
H	1.13596	0.606528	-1.9326
H	-0.400934	2.26023	-0.351948
H	-1.31777	0.635943	1.68209
C	4.05194	-1.03649	0.102068
C	4.18778	-0.281548	-1.04369
N	4.87837	0.858438	-0.798695
C	5.16985	0.810895	0.494132
N	4.69335	-0.312086	1.08188
H	3.56062	-2.00563	0.283465
H	3.79986	-0.539003	-2.04273
H	5.72998	1.57178	1.06119
H	4.79343	-0.579904	2.09159
