18
  This energy is -0.9452 and Call times are: 146411
C	0.90405	-0.516628	-0.449656
C	-0.029183	-1.18631	0.28586
C	-0.997277	-0.209617	0.671855
C	-0.570172	0.970681	0.138139
O	0.589516	0.801706	-0.550035
H	1.82503	-0.859554	-0.949098
H	-0.0352451	-2.26032	0.531914
H	-1.90317	-0.375811	1.27669
H	-0.996195	1.98672	0.17577
C	4.38897	-0.670487	0.527037
C	5.5112	-1.10466	-0.146199
N	6.22599	-0.0596097	-0.629379
C	5.54977	1.01878	-0.257308
N	4.43435	0.703193	0.442579
H	3.58799	-1.22339	1.04305
H	5.81792	-2.15324	-0.291951
H	5.82667	2.06375	-0.47082
H	3.73698	1.37664	0.844335
