18
  This energy is -1.1582 and Call times are: 187558
C	0.362978	0.910028	0.571399
C	0.211097	0.911348	-0.784073
C	-0.256027	-0.394292	-1.12644
C	-0.348364	-1.07821	0.0500359
O	0.0258039	-0.296956	1.09725
H	0.69879	1.6937	1.27021
H	0.408234	1.74783	-1.47366
H	-0.49308	-0.771392	-2.13426
H	-0.66251	-2.11121	0.272476
C	4.00355	0.369323	0.667141
C	4.92376	-0.607234	0.984471
N	5.8206	-0.777508	-0.0171235
C	5.45815	0.0901174	-0.952259
N	4.36787	0.805374	-0.587181
H	3.14391	0.771417	1.22649
H	4.95663	-1.192	1.91818
H	5.95608	0.242962	-1.92331
H	3.89094	1.55019	-1.15202
