18
  This energy is -0.8056 and Call times are: 43882
C	0.657968	-0.864929	-0.324619
C	1.03141	0.0101848	0.652669
C	-0.0437117	0.94263	0.774227
C	-0.979237	0.555006	-0.139509
O	-0.567255	-0.54722	-0.819494
H	1.1678	-1.74336	-0.753212
H	1.96983	0.000100349	1.23004
H	-0.104608	1.79925	1.46458
H	-1.96534	0.973984	-0.398967
C	4.90652	-0.329451	0.961426
C	5.52097	-1.15588	0.0445764
N	6.11296	-0.437953	-0.940635
C	5.86671	0.829037	-0.636141
N	5.14257	0.947017	0.501969
H	4.33699	-0.551938	1.87776
H	5.54775	-2.2573	0.0763096
H	6.19321	1.70986	-1.21214
H	4.82201	1.84061	0.94917
