18
  This energy is -1.322 and Call times are: 163356
C	0.449557	-0.880899	0.555262
C	-0.543803	-0.112224	1.087
C	-0.838892	0.880593	0.103459
C	0.00019328	0.630971	-0.942484
O	0.794109	-0.44129	-0.683705
H	0.98822	-1.75686	0.952492
H	-1.02089	-0.232301	2.07293
H	-1.59026	1.68333	0.175197
H	0.128269	1.13642	-1.91376
C	4.61784	0.125682	-1.1559
C	5.62274	0.703087	-0.408959
N	5.53225	0.341801	0.894036
C	4.47524	-0.4567	0.9552
N	3.88943	-0.61845	-0.254866
H	4.37754	0.189528	-2.22909
H	6.41144	1.37389	-0.78688
H	4.08633	-0.949791	1.86065
H	3.04184	-1.19993	-0.466375
