18
  This energy is -1.0495 and Call times are: 92452
C	0.248205	1.08588	0.213695
C	0.477002	0.0923491	1.11974
C	0.040484	-1.1153	0.494323
C	-0.416528	-0.753141	-0.738703
O	-0.297202	0.587501	-0.926991
H	0.427125	2.17267	0.259649
H	0.909753	0.199178	2.12742
H	0.0674943	-2.13097	0.920673
H	-0.84498	-1.34667	-1.56296
C	4.14088	0.460956	0.225575
C	4.41688	-0.840643	-0.136103
N	5.74695	-1.02557	-0.318389
C	6.29401	0.156806	-0.0707379
N	5.36715	1.08638	0.261564
H	3.19033	0.969453	0.452329
H	3.68012	-1.64961	-0.268787
H	7.36836	0.397155	-0.118064
H	5.54819	2.09194	0.501002
