18
  This energy is -1.4894 and Call times are: 59005
C	-0.27184	0.206282	-1.08164
C	-1.00258	-0.632048	-0.29196
C	-0.355474	-0.632801	0.981371
C	0.713575	0.205136	0.857397
O	0.779956	0.726428	-0.395942
H	-0.394604	0.511762	-2.13372
H	-1.9066	-1.19358	-0.577482
H	-0.658017	-1.19503	1.8794
H	1.49119	0.509569	1.57704
C	4.51234	-1.1183	-0.356102
C	5.45619	-0.594625	0.501839
N	5.25917	0.732327	0.693912
C	4.19714	1.03072	-0.0420737
N	3.71025	-0.0513685	-0.694468
H	4.35978	-2.14061	-0.737091
H	6.2758	-1.15049	0.985686
H	3.7342	2.02594	-0.139319
H	2.87995	-0.0733836	-1.33584
