18
  This energy is -0.5367 and Call times are: 117019
C	0.981504	0.535327	-0.190984
C	0.260028	-0.0464279	-1.19169
C	-0.893693	-0.609419	-0.565518
C	-0.775392	-0.322	0.762551
O	0.363926	0.376666	1.0092
H	1.93693	1.08513	-0.202947
H	0.514726	-0.0761251	-2.26329
H	-1.71137	-1.16241	-1.05511
H	-1.42526	-0.555548	1.62184
C	5.16395	0.0749557	0.29809
C	6.15913	0.981677	0.595773
N	7.3527	0.578695	0.0962613
C	7.09894	-0.573644	-0.509003
N	5.79339	-0.920562	-0.415308
H	4.08825	0.0679135	0.53551
H	6.0373	1.91942	1.16202
H	7.83241	-1.20468	-1.0363
H	5.34591	-1.78348	-0.810766
