18
  This energy is -0.9507 and Call times are: 127796
C	-0.32524	1.08625	-0.0260017
C	-1.21696	0.0589773	0.073544
C	-0.436605	-1.13733	0.0757946
C	0.863098	-0.735495	-0.0225739
O	0.949677	0.619319	-0.0857678
H	-0.469461	2.17852	-0.0635731
H	-2.31419	0.135924	0.138837
H	-0.808495	-2.17234	0.14318
H	1.80467	-1.30778	-0.0570139
C	6.07838	-0.904962	0.325476
C	6.31249	-0.0260006	-0.710751
N	5.32355	0.896028	-0.802253
C	4.47914	0.590232	0.173497
N	4.88982	-0.488145	0.882044
H	6.65426	-1.76876	0.693921
H	7.17725	-0.0406124	-1.39399
H	3.5448	1.12285	0.413419
H	4.39675	-0.923727	1.69961
