18
  This energy is -1.2398 and Call times are: 90400
C	-0.0723532	-1.12194	0.149736
C	-0.0221455	-0.247256	1.1951
C	0.0639512	1.05395	0.612368
C	0.0587551	0.859545	-0.737652
O	-0.0240101	-0.463298	-1.03806
H	-0.14233	-2.22168	0.119361
H	-0.0435866	-0.493633	2.26885
H	0.122536	2.01703	1.14447
H	0.108573	1.5703	-1.57884
C	4.73917	-0.555741	-0.980411
C	4.45488	-1.13037	0.240298
N	4.09426	-0.192557	1.14968
C	4.1546	0.959477	0.495617
N	4.53867	0.793546	-0.79223
H	5.0593	-0.996794	-1.93777
H	4.50352	-2.20483	0.481151
H	3.92794	1.9543	0.911773
H	4.6605	1.54884	-1.51053
