18
  This energy is -1.6818 and Call times are: 141658
C	-0.845012	-0.169237	0.73737
C	-0.281466	-1.18743	0.0259818
C	0.732088	-0.586294	-0.781149
C	0.698438	0.746177	-0.491736
O	-0.258801	1.01868	0.433708
H	-1.65879	-0.159801	1.48096
H	-0.552335	-2.25474	0.065627
H	1.40331	-1.09485	-1.49173
H	1.29492	1.59203	-0.871186
C	3.97203	0.675147	0.806543
C	4.0502	-0.701449	0.802579
N	4.73306	-1.14897	-0.279061
C	5.0772	-0.054166	-0.94359
N	4.64161	1.07139	-0.329605
H	3.50294	1.37742	1.51387
H	3.62612	-1.37976	1.5608
H	5.64836	-0.0195962	-1.88529
H	4.78638	2.05795	-0.656727
