18
  This energy is -2.4214 and Call times are: 21924
C	-0.335838	-0.572269	-0.919849
C	0.211478	-1.19068	0.165688
C	0.500482	-0.152235	1.10283
C	0.104259	1.00908	0.507237
O	-0.408893	0.771261	-0.728534
H	-0.708552	-0.970937	-1.87766
H	0.393437	-2.26985	0.293664
H	0.951067	-0.266181	2.10187
H	0.133664	2.0553	0.853366
C	4.54173	-0.531047	1.03828
C	5.7357	-0.358379	0.370626
N	5.55009	0.297095	-0.800874
C	4.24593	0.530177	-0.85976
N	3.59406	0.0501783	0.225712
H	4.30721	-1.01041	2.002
H	6.72775	-0.695016	0.71323
H	3.71577	1.04832	-1.67504
H	2.56314	0.109485	0.412686
