18
  This energy is -0.7723 and Call times are: 112788
C	1.07296	-0.361106	0.0689554
C	0.435439	-0.18911	-1.12451
C	-0.879005	0.268249	-0.803294
C	-0.928683	0.335364	0.558102
O	0.254749	-0.0454505	1.10717
H	2.09437	-0.698371	0.310281
H	0.849278	-0.366511	-2.13017
H	-1.68693	0.515959	-1.51039
H	-1.7362	0.634468	1.24637
C	5.78369	1.11249	-0.0152385
C	5.17326	0.462027	1.03615
N	4.86161	-0.814849	0.706033
C	5.27713	-0.955985	-0.545387
N	5.84023	0.178161	-1.0252
H	6.169	2.13988	-0.11295
H	4.95212	0.89118	2.02699
H	5.19378	-1.86843	-1.15753
H	6.24313	0.318924	-1.9839
