18
  This energy is -1.9983 and Call times are: 135716
C	-0.362197	0.517887	0.941811
C	0.238999	1.1944	-0.0786151
C	0.546841	0.213499	-1.07017
C	0.106586	-0.975834	-0.568143
O	-0.451324	-0.808583	0.659772
H	-0.765829	0.860854	1.90861
H	0.445023	2.27569	-0.128114
H	1.039	0.383056	-2.04132
H	0.131285	-1.99769	-0.980997
C	3.52465	-1.02426	-0.441684
C	4.07828	0.0259969	-1.14281
N	4.39767	1.0511	-0.31597
C	4.04352	0.63835	0.89351
N	3.51204	-0.606874	0.870496
H	3.15119	-2.00639	-0.772606
H	4.25299	0.0624513	-2.23047
H	4.15115	1.20797	1.83062
H	3.15785	-1.15075	1.69512
