18
  This energy is -0.5112 and Call times are: 131023
C	0.436678	-0.774262	0.704438
C	-0.875573	-0.404827	0.747914
C	-1.03994	0.575586	-0.277705
C	0.186382	0.718719	-0.857383
O	1.10012	-0.09807	-0.27005
H	1.01286	-1.49751	1.30459
H	-1.65011	-0.784615	1.43345
H	-1.96725	1.10708	-0.545477
H	0.533865	1.35962	-1.68427
C	6.26367	0.101171	-0.667985
C	5.11998	-0.608375	-0.967448
N	4.2074	-0.507627	0.0293229
C	4.78275	0.261495	0.943678
N	6.02359	0.65429	0.57
H	7.20016	0.246783	-1.22951
H	4.93695	-1.1912	-1.88487
H	4.34004	0.568227	1.90501
H	6.67805	1.26402	1.11878
