18
  This energy is -1.1418 and Call times are: 125031
C	-0.17563	0.562598	0.96904
C	-0.266185	1.16435	-0.251645
C	0.0175824	0.14564	-1.21176
C	0.256493	-0.9887	-0.493036
O	0.142777	-0.752353	0.840463
H	-0.313109	0.955476	1.98982
H	-0.508501	2.21972	-0.455518
H	0.0390271	0.254132	-2.30806
H	0.513849	-2.01326	-0.808162
C	3.97386	-0.498158	-0.289768
C	4.24629	0.235194	0.845627
N	5.53327	0.659552	0.856117
C	6.05726	0.19124	-0.268493
N	5.15702	-0.513498	-0.994101
H	3.0525	-0.993677	-0.634869
H	3.53728	0.465707	1.65742
H	7.09514	0.334928	-0.609634
H	5.3278	-0.98227	-1.91733
