18
  This energy is -0.7719 and Call times are: 13935
C	0.543817	-0.992552	-0.0741924
C	1.10474	0.105907	0.508154
C	0.12734	1.14277	0.40957
C	-0.944577	0.586394	-0.224316
O	-0.707608	-0.71714	-0.527066
H	0.92674	-2.01496	-0.226871
H	2.10631	0.178724	0.961647
H	0.220421	2.17935	0.77143
H	-1.92161	1.00668	-0.514165
C	6.57829	0.882628	0.0182246
C	6.69991	-0.340891	0.642206
N	5.61434	-1.11804	0.409674
C	4.82226	-0.379456	-0.355653
N	5.35886	0.835419	-0.619713
H	7.25076	1.75449	-0.0158622
H	7.55152	-0.676816	1.25602
H	3.83838	-0.67947	-0.750871
H	4.92806	1.59639	-1.19987
