18
  This energy is -1.0398 and Call times are: 176712
C	0.666541	-0.343166	0.851094
C	-0.24484	0.661146	0.996408
C	-0.879988	0.799792	-0.275395
C	-0.300668	-0.132034	-1.08562
O	0.64601	-0.839046	-0.414092
H	1.37961	-0.791856	1.56205
H	-0.449335	1.2457	1.90777
H	-1.67485	1.51322	-0.546167
H	-0.471344	-0.387811	-2.14425
C	4.1744	0.343695	-0.000616988
C	4.71613	-0.714455	0.697948
N	6.04686	-0.823111	0.465846
C	6.3296	0.163879	-0.373517
N	5.23394	0.89602	-0.685096
H	3.14426	0.729871	-0.0572048
H	4.17063	-1.40145	1.36527
H	7.32254	0.395611	-0.79137
H	5.19835	1.72624	-1.32598
