18
  This energy is -0.8536 and Call times are: 146628
C	-0.324239	-0.670709	0.855231
C	0.881368	-0.811626	0.233114
C	0.92201	0.199918	-0.77448
C	-0.262348	0.869679	-0.679141
O	-1.03572	0.351316	0.310917
H	-0.787309	-1.22696	1.68674
H	1.66359	-1.55348	0.4609
H	1.74201	0.398291	-1.48324
H	-0.668869	1.72089	-1.2496
C	6.4446	-0.906208	0.517001
C	7.02821	0.251626	0.0479988
N	6.10237	1.08234	-0.489804
C	4.94877	0.442294	-0.354953
N	5.10224	-0.761227	0.246357
H	6.87517	-1.79347	1.00783
H	8.10074	0.50247	0.0880369
H	3.96161	0.809268	-0.679093
H	4.34327	-1.45225	0.464784
