18
  This energy is -0.9231 and Call times are: 71964
C	0.885441	0.234433	0.668907
C	-0.0623233	1.16501	0.35883
C	-0.998613	0.501209	-0.491376
C	-0.540349	-0.776405	-0.625794
O	0.609316	-0.956942	0.0761237
H	1.79261	0.294513	1.29235
H	-0.0984816	2.21369	0.69508
H	-1.90505	0.93289	-0.945387
H	-0.935934	-1.63994	-1.18533
C	5.60112	-0.999419	-0.543676
C	6.35763	-0.292288	0.366711
N	5.70106	0.813866	0.793156
C	4.54164	0.793042	0.14977
N	4.43329	-0.280508	-0.668363
H	5.80438	-1.93223	-1.0933
H	7.36543	-0.560431	0.723485
H	3.73588	1.53918	0.240659
H	3.61549	-0.51965	-1.28095
