18
  This energy is -0.7581 and Call times are: 35930
C	-1.07906	-0.303743	-0.172512
C	-0.0836128	-1.21768	0.012338
C	1.11359	-0.460332	0.194687
C	0.744044	0.849552	0.105172
O	-0.591535	0.963716	-0.118898
H	-2.16029	-0.426061	-0.349286
H	-0.182465	-2.31507	0.0195572
H	2.12753	-0.853776	0.371399
H	1.32861	1.78101	0.182119
C	6.63292	-0.485339	0.782536
C	5.30386	-0.797415	0.589264
N	4.76292	-0.0416808	-0.397019
C	5.75262	0.736273	-0.814023
N	6.90086	0.506853	-0.133952
H	7.38203	-0.885744	1.484
H	4.72559	-1.55434	1.14381
H	5.69108	1.49137	-1.61419
H	7.8201	0.99231	-0.277483
