18
  This energy is -1.7326 and Call times are: 140535
C	0.736636	0.193008	-0.840545
C	-0.278639	1.05514	-0.546742
C	-0.977746	0.474846	0.555358
C	-0.32797	-0.690668	0.837743
O	0.721567	-0.878701	-0.00494775
H	1.52592	0.227839	-1.60936
H	-0.511852	2.00449	-1.05511
H	-1.86077	0.884817	1.07138
H	-0.511424	-1.46326	1.6024
C	5.29794	-0.319636	1.01531
C	6.19556	-1.05341	0.268984
N	6.57038	-0.379555	-0.84544
C	5.90782	0.76789	-0.790678
N	5.12696	0.852054	0.312392
H	4.78582	-0.540955	1.9652
H	6.57944	-2.05696	0.514666
H	5.95765	1.5817	-1.53193
H	4.50902	1.65658	0.580991
