18
  This energy is -0.757 and Call times are: 47268
C	1.06338	-0.29881	-0.257543
C	0.101694	-0.128156	-1.2096
C	-1.0849	0.240329	-0.505092
C	-0.743575	0.262323	0.815281
O	0.564675	-0.0644227	0.984779
H	2.12595	-0.582211	-0.334254
H	0.216394	-0.24958	-2.29872
H	-2.07314	0.461411	-0.939388
H	-1.33204	0.491634	1.71882
C	5.97118	-1.00714	0.210966
C	4.92282	-0.482664	0.936918
N	4.50545	0.694766	0.411587
C	5.2919	0.899951	-0.636281
N	6.19235	-0.0981185	-0.799451
H	6.55598	-1.93207	0.337653
H	4.46011	-0.932741	1.83033
H	5.25148	1.76457	-1.31821
H	6.92029	-0.166456	-1.55224
