18
  This energy is -1.4086 and Call times are: 17188
C	0.142728	0.454714	-1.02921
C	-0.100404	-0.874745	-0.845357
C	-0.219521	-1.05892	0.566028
C	-0.0386656	0.174251	1.12006
O	0.183739	1.11054	0.160424
H	0.302733	1.04905	-1.94376
H	-0.187163	-1.64814	-1.62538
H	-0.416999	-2.0035	1.09788
H	-0.0444015	0.512329	2.16931
C	3.73518	-0.0887985	-1.02868
C	4.38676	-1.09848	-0.352564
N	4.92789	-0.642577	0.803223
C	4.61321	0.645033	0.843969
N	3.89429	1.0273	-0.237983
H	3.18779	-0.0856305	-1.98466
H	4.47611	-2.14774	-0.678006
H	4.88392	1.35397	1.64294
H	3.52791	1.99039	-0.43666
