18
  This energy is -1.6709 and Call times are: 139828
C	0.63694	0.886839	-0.306961
C	-0.131801	0.196584	-1.19744
C	-0.774705	-0.832357	-0.443738
C	-0.34208	-0.680041	0.840789
O	0.520624	0.365137	0.942563
H	1.30277	1.75596	-0.435625
H	-0.235707	0.392353	-2.27678
H	-1.47619	-1.59298	-0.822513
H	-0.570789	-1.24259	1.76083
C	5.17789	0.860528	0.708369
C	5.95611	0.00570081	-0.0431524
N	5.18922	-0.864714	-0.743706
C	3.93999	-0.55106	-0.427989
N	3.88025	0.48284	0.444404
H	5.4467	1.68344	1.38961
H	7.0572	0.00140709	-0.0924327
H	3.03136	-1.04612	-0.806847
H	3.01103	0.914496	0.843645
