18
  This energy is -1.055 and Call times are: 106903
C	0.579271	-0.13505	0.965716
C	1.18115	-0.16826	-0.257809
C	0.138483	0.0371203	-1.21216
C	-1.00851	0.177706	-0.487578
O	-0.75789	0.0753166	0.844232
H	0.98649	-0.246316	1.98407
H	2.25194	-0.321967	-0.467278
H	0.240124	0.0743133	-2.30869
H	-2.05205	0.352207	-0.79711
C	5.35036	0.965864	0.655433
C	5.49547	0.862812	-0.711852
N	5.24519	-0.399711	-1.13601
C	4.94596	-1.07732	-0.0360381
N	4.99546	-0.298269	1.07041
H	5.47052	1.8208	1.33968
H	5.77627	1.67682	-1.39989
H	4.68301	-2.14614	0.0160286
H	4.80062	-0.599787	2.0565
