18
  This energy is -0.4267 and Call times are: 208903
C	0.286523	0.00415831	-1.0974
C	-0.860751	0.582754	-0.639839
C	-0.867835	0.373118	0.773002
C	0.275735	-0.315076	1.05409
O	0.992761	-0.548976	-0.0764783
H	0.708215	-0.0804595	-2.11242
H	-1.62534	1.1048	-1.2373
H	-1.63901	0.700315	1.48877
H	0.68757	-0.691381	2.00489
C	6.2485	0.364607	-0.911919
C	5.39339	1.12886	-0.146517
N	4.80776	0.384462	0.822719
C	5.2977	-0.836952	0.659227
N	6.17079	-0.900556	-0.373857
H	6.88558	0.6229	-1.77271
H	5.1885	2.20405	-0.276278
H	5.05099	-1.72167	1.26803
H	6.68966	-1.75151	-0.702363
