18
  This energy is -1.0925 and Call times are: 26360
C	-0.315079	-0.641822	0.880449
C	0.904771	-0.768672	0.283584
C	0.927263	0.196491	-0.769066
C	-0.280828	0.827936	-0.722535
O	-1.05217	0.328615	0.278822
H	-0.772431	-1.17533	1.72983
H	1.70816	-1.47141	0.557135
H	1.75155	0.390867	-1.47395
H	-0.706886	1.63735	-1.33781
C	5.19177	1.03055	-0.528861
C	4.40851	0.417231	0.425857
N	4.94928	-0.762008	0.817627
C	6.06377	-0.879804	0.108649
N	6.25454	0.175601	-0.717981
H	5.07208	1.98313	-1.06905
H	3.4629	0.804481	0.839014
H	6.77683	-1.71859	0.155633
H	7.0588	0.315878	-1.37733
