18
  This energy is -1.2261 and Call times are: 163516
C	-0.578538	-0.829805	0.512951
C	-0.221252	0.317906	1.15753
C	0.482727	1.10402	0.194949
C	0.493488	0.367294	-0.952872
O	-0.15017	-0.816639	-0.776754
H	-1.13134	-1.71953	0.856535
H	-0.43227	0.58422	2.20569
H	0.926053	2.10102	0.348402
H	0.920205	0.571366	-1.94862
C	4.09051	-0.401842	-0.753884
C	4.13008	0.846634	-0.170029
N	5.2038	0.969903	0.647545
C	5.82797	-0.197661	0.571181
N	5.19589	-1.0587	-0.26109
H	3.37774	-0.85426	-1.46157
H	3.40311	1.66066	-0.324059
H	6.75179	-0.475372	1.10378
H	5.49155	-2.03975	-0.487783
