18
  This energy is -1.1246 and Call times are: 169449
C	0.395397	0.289113	1.02297
C	-0.853267	0.63605	0.597715
C	-0.980809	0.0992759	-0.719754
C	0.201175	-0.528293	-0.983278
O	1.05335	-0.422313	0.0700896
H	0.926325	0.48526	1.96896
H	-1.60874	1.21217	1.15579
H	-1.85483	0.176465	-1.38626
H	0.554641	-1.07901	-1.87042
C	4.82319	-0.337848	-1.08005
C	5.16114	-0.94278	0.112009
N	4.6145	-0.287435	1.16473
C	3.94	0.720222	0.627795
N	4.03481	0.733184	-0.722921
H	5.07938	-0.585467	-2.12244
H	5.7896	-1.84036	0.231332
H	3.3592	1.47815	1.17775
H	3.59211	1.42694	-1.37406
