18
  This energy is -1.1522 and Call times are: 162650
C	0.916461	-0.485015	0.45963
C	0.961409	0.180582	-0.730048
C	-0.368815	0.641901	-0.970478
C	-1.10921	0.217486	0.0935014
O	-0.340339	-0.472367	0.976646
H	1.69902	-1.00426	1.0369
H	1.84287	0.331553	-1.37373
H	-0.723784	1.22166	-1.83764
H	-2.17753	0.340125	0.336232
C	5.71031	0.480325	-0.88425
C	5.25688	1.11847	0.250787
N	4.58859	0.260745	1.05962
C	4.62729	-0.905078	0.428759
N	5.2925	-0.824682	-0.74794
H	6.28169	0.850173	-1.75044
H	5.39996	2.18242	0.500581
H	4.1846	-1.84968	0.783691
H	5.45838	-1.60735	-1.42704
