18
  This energy is -0.8824 and Call times are: 198957
C	-0.232646	0.940669	0.589422
C	-1.05891	-0.144531	0.589666
C	-0.434394	-1.11165	-0.255778
C	0.718374	-0.53207	-0.698026
O	0.857635	0.72145	-0.191758
H	-0.307086	1.91636	1.0971
H	-2.01252	-0.253094	1.1309
H	-0.80752	-2.11915	-0.500373
H	1.51289	-0.902029	-1.3667
C	5.79819	0.94743	0.000437135
C	4.46141	0.904471	0.335589
N	3.96968	-0.353338	0.223248
C	4.99748	-1.0879	-0.180062
N	6.1228	-0.349603	-0.328992
H	6.51747	1.78138	-0.0260697
H	3.84295	1.75852	0.656445
H	4.98122	-2.17115	-0.381394
H	7.06336	-0.698715	-0.636771
