18
  This energy is -1.16 and Call times are: 166024
C	-0.906401	-0.152932	-0.664417
C	-0.721455	0.982164	0.0688807
C	0.513415	0.801936	0.76367
C	0.97407	-0.427384	0.393613
O	0.119481	-1.02464	-0.47815
H	-1.71534	-0.457695	-1.34851
H	-1.38777	1.85847	0.115822
H	0.994899	1.51072	1.45641
H	1.88333	-0.982917	0.676249
C	5.94831	-0.609541	0.338017
C	5.18641	0.23501	1.11736
N	4.16714	0.771845	0.403635
C	4.29623	0.26227	-0.81386
N	5.35538	-0.576538	-0.90437
H	6.84072	-1.21162	0.571791
H	5.3539	0.466609	2.18186
H	3.64273	0.469703	-1.6765
H	5.66574	-1.10169	-1.75827
