18
  This energy is -0.9566 and Call times are: 160964
C	1.04241	0.335491	0.295328
C	0.495418	-0.83021	0.745117
C	-0.80708	-0.901037	0.163224
C	-0.94104	0.227634	-0.590785
O	0.178993	0.994289	-0.521679
H	2.02371	0.80217	0.48115
H	0.962301	-1.56636	1.41906
H	-1.55086	-1.70302	0.296302
H	-1.77205	0.595764	-1.21461
C	4.93566	0.861171	-0.243429
C	6.16265	0.651674	-0.836517
N	6.77982	-0.434783	-0.3119
C	5.9389	-0.897534	0.603167
N	4.81227	-0.150548	0.682523
H	4.1672	1.63287	-0.409232
H	6.61364	1.265	-1.63357
H	6.09838	-1.78003	1.24348
H	3.9996	-0.311437	1.32668
