18
  This energy is -1.1261 and Call times are: 106679
C	0.795076	-0.677775	0.441448
C	-0.438981	-1.13583	0.0841435
C	-1.14489	-0.00251353	-0.423213
C	-0.279889	1.04804	-0.331159
O	0.909648	0.653772	0.194734
H	1.66805	-1.19177	0.876166
H	-0.814511	-2.16821	0.169313
H	-2.17656	0.0185082	-0.809627
H	-0.389117	2.11095	-0.602377
C	4.10721	-0.469472	-0.960128
C	4.54183	-1.14419	0.161035
N	5.05859	-0.28884	1.07638
C	4.94498	0.911943	0.525163
N	4.37736	0.856072	-0.702954
H	3.64036	-0.826872	-1.89172
H	4.4918	-2.23284	0.325874
H	5.26139	1.86576	0.977225
H	4.18056	1.66785	-1.3382
