18
  This energy is -1.3654 and Call times are: 62863
C	-0.223447	0.654424	-0.899001
C	0.893283	0.820995	-0.133792
C	0.820653	-0.176223	0.886206
C	-0.334047	-0.864149	0.654262
O	-0.984347	-0.370306	-0.432126
H	-0.586149	1.19273	-1.79002
H	1.68841	1.57088	-0.273591
H	1.54828	-0.353251	1.69449
H	-0.797807	-1.71337	1.18247
C	4.92946	-0.326928	-1.12314
C	4.21988	-0.990455	-0.144692
N	4.28265	-0.330235	1.03712
C	5.02834	0.738809	0.792762
N	5.44263	0.786156	-0.495538
H	5.09987	-0.560274	-2.18618
H	3.66375	-1.93374	-0.270316
H	5.30199	1.51907	1.52115
H	6.04079	1.52921	-0.932956
