18
  This energy is -0.8767 and Call times are: 59838
C	-0.0328206	-0.929542	-0.649057
C	-1.15429	-0.222415	-0.328674
C	-0.712452	0.861831	0.489436
C	0.640018	0.721558	0.596767
O	1.07211	-0.367229	-0.0923286
H	0.109864	-1.83802	-1.25698
H	-2.1889	-0.44227	-0.637473
H	-1.33637	1.64978	0.941064
H	1.39748	1.32171	1.12717
C	7.75881	0.498003	-0.126499
C	6.9197	0.60312	0.962528
N	5.7778	-0.100609	0.769255
C	5.90802	-0.640249	-0.435094
N	7.08544	-0.309046	-1.01612
H	8.75428	0.926114	-0.324761
H	7.11776	1.17413	1.88425
H	5.17145	-1.28616	-0.939561
H	7.42136	-0.609751	-1.96375
