18
  This energy is -1.0209 and Call times are: 205864
C	0.0458931	0.881109	-0.7127
C	1.02342	-0.0687355	-0.661643
C	0.613502	-0.99808	0.342549
C	-0.578337	-0.534105	0.816492
O	-0.940118	0.612693	0.183261
H	-0.0635884	1.78486	-1.33438
H	1.9411	-0.110733	-1.27009
H	1.15016	-1.9039	0.667495
H	-1.25818	-0.92344	1.59204
C	5.71891	0.672456	-0.870291
C	4.52519	0.835596	-0.199811
N	4.36074	-0.121722	0.745181
C	5.44831	-0.875888	0.661268
N	6.29793	-0.438105	-0.297944
H	6.1819	1.24883	-1.68697
H	3.77963	1.62691	-0.380998
H	5.67324	-1.76077	1.27822
H	7.22173	-0.863607	-0.556402
