18
  This energy is -0.8986 and Call times are: 181715
C	-0.843942	0.0455517	0.756365
C	-0.338211	1.16211	0.158113
C	0.694161	0.703741	-0.716086
C	0.728162	-0.652459	-0.574873
O	-0.204429	-1.0716	0.320454
H	-1.64798	-0.0854174	1.49907
H	-0.659879	2.204	0.316528
H	1.33207	1.31958	-1.37023
H	1.36056	-1.42121	-1.04853
C	5.91646	0.438353	-1.0097
C	4.59994	0.159886	-0.709092
N	4.47973	-0.335847	0.546419
C	5.71697	-0.364809	1.02288
N	6.61942	0.0919461	0.122575
H	6.38716	0.844949	-1.91891
H	3.73467	0.307792	-1.37563
H	6.01834	-0.711057	2.02464
H	7.65692	0.167754	0.260753
