18
  This energy is -1.3523 and Call times are: 70036
C	0.827189	0.698696	0.337614
C	-0.330537	1.1539	-0.221704
C	-1.10937	-0.00841776	-0.509029
C	-0.358828	-1.07129	-0.0999275
O	0.826968	-0.657872	0.419675
H	1.71619	1.23114	0.713686
H	-0.608222	2.20293	-0.412783
H	-2.11098	-0.0397464	-0.967175
H	-0.553501	-2.15609	-0.123639
C	5.29465	0.465309	1.00639
C	5.90057	0.533205	-0.230294
N	5.16862	-0.114214	-1.16924
C	4.11264	-0.581973	-0.517523
N	4.14236	-0.259011	0.797164
H	5.59199	0.867746	1.98781
H	6.85276	1.03774	-0.461878
H	3.28763	-1.16731	-0.954518
H	3.42441	-0.512147	1.51947
