18
  This energy is -0.7511 and Call times are: 150958
C	0.0943772	-1.11448	0.1882
C	-1.08755	-0.447899	0.326362
C	-0.806857	0.915866	0.00780835
C	0.521818	0.962268	-0.296896
O	1.08799	-0.268763	-0.191921
H	0.355842	-2.17608	0.32925
H	-2.05955	-0.87382	0.622856
H	-1.51795	1.75755	0.00821018
H	1.17384	1.79821	-0.599082
C	4.5801	0.0223246	0.361123
C	5.29177	1.06514	-0.193137
N	6.55818	0.687447	-0.493212
C	6.63188	-0.584841	-0.126504
N	5.46486	-1.03232	0.394456
H	3.5413	-0.0417721	0.722149
H	4.91413	2.08328	-0.381887
H	7.51633	-1.23582	-0.217099
H	5.27096	-1.99857	0.755057
