18
  This energy is -0.586 and Call times are: 202833
C	0.756331	0.136505	-0.834105
C	0.914999	0.704225	0.395892
C	-0.225594	0.308605	1.15921
C	-0.980574	-0.465949	0.328277
O	-0.395939	-0.581689	-0.893123
H	1.38363	0.167544	-1.74008
H	1.75134	1.33802	0.731961
H	-0.449429	0.57467	2.20477
H	-1.9403	-0.985377	0.484379
C	7.84784	0.929891	0.677475
C	6.59737	0.424313	0.391367
N	6.68155	-0.655691	-0.422892
C	7.97931	-0.819494	-0.641098
N	8.72434	0.111517	0.00056932
H	8.16542	1.78559	1.2943
H	5.63593	0.819474	0.757886
H	8.43848	-1.60502	-1.26267
H	9.77037	0.194188	-0.0146727
