18
  This energy is -1.1061 and Call times are: 56693
C	1.0397	0.0769833	0.446651
C	0.100302	1.05221	0.610479
C	-1.06017	0.59851	-0.0877833
C	-0.727482	-0.613914	-0.616668
O	0.551273	-0.94804	-0.300194
H	2.07847	-0.00536678	0.80641
H	0.213229	1.99636	1.16719
H	-2.0259	1.12095	-0.180103
H	-1.3034	-1.32754	-1.22847
C	4.29189	-0.251737	-0.975666
C	4.79687	0.977926	-0.609514
N	5.44501	0.905919	0.578443
C	5.34251	-0.363588	0.947862
N	4.65602	-1.10231	0.0441982
H	3.71831	-0.571065	-1.8603
H	4.70516	1.91578	-1.18123
H	5.75173	-0.805729	1.87051
H	4.44193	-2.12765	0.108263
