18
  This energy is -1.5051 and Call times are: 34637
C	0.104632	-1.12936	-0.00320411
C	-0.0291763	-0.411466	1.1488
C	-0.132139	0.955567	0.747876
C	-0.0521608	0.952375	-0.613728
O	0.0926463	-0.312488	-1.0893
H	0.215157	-2.21158	-0.181573
H	-0.0529845	-0.805086	2.17768
H	-0.25165	1.83259	1.4041
H	-0.0848987	1.77224	-1.34994
C	4.87113	-0.822888	-0.507474
C	4.81352	0.515331	-0.834572
N	3.93159	1.17402	-0.0441078
C	3.44393	0.247959	0.770275
N	3.97902	-0.972652	0.530743
H	5.46406	-1.65159	-0.926077
H	5.39251	1.01736	-1.62677
H	2.69287	0.409319	1.56028
H	3.75667	-1.8634	1.03907
