18
  This energy is -1.1123 and Call times are: 68750
C	-0.162398	0.715522	-0.864902
C	1.02097	0.641188	-0.190746
C	0.837327	-0.358858	0.8124
C	-0.442053	-0.807356	0.662696
O	-1.06726	-0.162148	-0.357028
H	-0.482673	1.34319	-1.71267
H	1.93183	1.23137	-0.380799
H	1.57748	-0.698206	1.55476
H	-1.01785	-1.57116	1.2107
C	4.9889	-1.09801	-0.367297
C	4.60138	-0.537528	0.831387
N	5.01405	0.749902	0.924874
C	5.65513	0.987207	-0.211492
N	5.66747	-0.0958657	-1.02414
H	4.83493	-2.10548	-0.785437
H	4.03143	-1.03903	1.63045
H	6.13443	1.93662	-0.499805
H	6.1097	-0.15998	-1.97365
