18
  This energy is -1.0119 and Call times are: 116858
C	-1.02272	0.391099	0.295773
C	0.115718	0.751337	0.954982
C	1.18178	0.0636102	0.298733
C	0.600685	-0.656177	-0.703569
O	-0.745178	-0.46804	-0.720033
H	-2.07721	0.673067	0.450055
H	0.196652	1.43298	1.81691
H	2.25361	0.106012	0.550678
H	1.02952	-1.33111	-1.46239
C	5.20724	-0.89061	-0.490456
C	6.45568	-0.948745	0.0919379
N	6.8353	0.26648	0.55629
C	5.82622	1.07543	0.263081
N	4.82028	0.42529	-0.36858
H	4.58748	-1.66664	-0.967111
H	7.08929	-1.84577	0.185395
H	5.772	2.15275	0.488207
H	3.91757	0.843883	-0.701963
