18
  This energy is -1.3124 and Call times are: 192395
C	0.0562592	0.847153	-0.752043
C	-0.0525577	-0.458913	-1.12983
C	-0.0949404	-1.21416	0.0817427
C	-0.00828218	-0.30295	1.09296
O	0.0847108	0.960881	0.60194
H	0.121307	1.77596	-1.34224
H	-0.0983822	-0.851138	-2.1585
H	-0.180159	-2.30839	0.179228
H	-0.00220596	-0.424998	2.18855
C	4.11478	0.775396	-0.664358
C	3.7155	-0.503802	-0.339746
N	4.63442	-1.11841	0.444062
C	5.60011	-0.223892	0.60509
N	5.33371	0.934384	-0.0437687
H	3.63382	1.55773	-1.27277
H	2.78084	-0.994274	-0.657058
H	6.52437	-0.365026	1.18823
H	5.94016	1.79044	-0.069244
