18
  This energy is -0.7366 and Call times are: 45518
C	1.05008	-0.177415	-0.390197
C	0.0898962	0.443792	-1.13351
C	-1.07815	0.479572	-0.312233
C	-0.728631	-0.122928	0.860457
O	0.567574	-0.530306	0.830321
H	2.10096	-0.424931	-0.612993
H	0.193733	0.837346	-2.15744
H	-2.06001	0.906383	-0.572786
H	-1.30297	-0.32066	1.78039
C	5.61857	1.04545	0.494325
C	4.88569	0.807811	-0.64916
N	4.83658	-0.516695	-0.931616
C	5.53634	-1.09853	0.0329735
N	6.02864	-0.199137	0.917457
H	5.86897	1.98094	1.01939
H	4.39148	1.56833	-1.27543
H	5.71963	-2.17987	0.139522
H	6.61164	-0.409771	1.76422
