18
  This energy is -1.7138 and Call times are: 73203
C	0.463257	-0.402	0.954039
C	0.544125	-1.06729	-0.233913
C	-0.148752	-0.256546	-1.18404
C	-0.591861	0.832604	-0.492821
O	-0.22707	0.760303	0.814357
H	0.849968	-0.646857	1.95691
H	1.04177	-2.03216	-0.422236
H	-0.295129	-0.467839	-2.2555
H	-1.16922	1.71581	-0.811954
C	3.98333	-0.344595	0.999698
C	4.83297	0.728718	0.834615
N	5.24341	0.833526	-0.452655
C	4.65065	-0.170947	-1.08376
N	3.88007	-0.910524	-0.251401
H	3.46225	-0.732776	1.88927
H	5.15717	1.42936	1.62128
H	4.74633	-0.410712	-2.15501
H	3.31216	-1.75429	-0.509862
