18
  This energy is -1.333 and Call times are: 210870
C	-0.293206	0.932157	-0.575774
C	0.356137	0.987757	0.622407
C	0.548081	-0.368727	1.02642
C	-0.00091013	-1.13351	0.0394586
O	-0.51931	-0.355521	-0.946953
H	-0.644749	1.72662	-1.25438
H	0.668608	1.89317	1.1671
H	1.03896	-0.724158	1.94663
H	-0.0853818	-2.22646	-0.0770037
C	5.10882	-0.897991	-0.64154
C	5.55205	0.407374	-0.66824
N	4.85533	1.17786	0.202072
C	3.98319	0.353622	0.766543
N	4.09611	-0.909365	0.291462
H	5.43162	-1.78989	-1.20176
H	6.36207	0.807039	-1.29989
H	3.23908	0.622578	1.53348
H	3.52167	-1.73916	0.579061
