18
  This energy is -0.8212 and Call times are: 111725
C	-0.910968	0.437944	0.514533
C	0.0900334	1.21721	0.0134201
C	1.04419	0.314796	-0.548133
C	0.542037	-0.936261	-0.340606
O	-0.651409	-0.879862	0.307096
H	-1.84824	0.696387	1.03413
H	0.150445	2.31716	0.0368671
H	1.99149	0.575961	-1.04665
H	0.932384	-1.93344	-0.602359
C	6.13218	0.632707	-0.983516
C	7.13174	0.194321	-0.140998
N	6.62097	-0.509052	0.898659
C	5.30952	-0.507026	0.701864
N	4.96469	0.168478	-0.41991
H	6.16785	1.2225	-1.91325
H	8.21232	0.372948	-0.264672
H	4.55587	-0.984948	1.34826
H	3.99309	0.311354	-0.78983
