18
  This energy is -1.2131 and Call times are: 173924
C	-0.239787	-0.94262	-0.583414
C	0.707017	-0.0506566	-0.993705
C	0.717638	0.987283	-0.0125384
C	-0.223612	0.637963	0.910715
O	-0.818207	-0.537923	0.577905
H	-0.590661	-1.89054	-1.02341
H	1.33495	-0.116961	-1.8967
H	1.35544	1.88574	-0.003546
H	-0.559709	1.13424	1.83592
C	4.37904	-0.255944	-0.966431
C	4.22496	-0.809615	0.286906
N	5.11012	-0.281337	1.16664
C	5.81066	0.596724	0.461745
N	5.40792	0.649027	-0.830022
H	3.84707	-0.43588	-1.91415
H	3.49096	-1.5808	0.572163
H	6.62983	1.22807	0.841987
H	5.80399	1.26214	-1.584
