18
  This energy is -1.0773 and Call times are: 173444
C	0.596268	0.924391	-0.276347
C	-0.675738	0.994363	0.210973
C	-1.08316	-0.356043	0.435772
C	-0.0241512	-1.13202	0.0659794
O	1.01017	-0.3666	-0.371438
H	1.30378	1.70997	-0.58867
H	-1.26774	1.90552	0.393799
H	-2.05385	-0.700079	0.827547
H	0.116479	-2.22539	0.0664413
C	4.18235	0.612241	0.58456
C	5.40375	1.07478	0.142527
N	6.09436	0.0984814	-0.494981
C	5.3044	-0.965679	-0.448618
N	4.13979	-0.706942	0.191963
H	3.36762	1.11181	1.13244
H	5.79904	2.09546	0.27218
H	5.52962	-1.95947	-0.867998
H	3.35412	-1.38254	0.357931
