18
  This energy is -1.5543 and Call times are: 151150
C	0.726691	-0.596315	0.634609
C	0.31421	0.657221	0.979398
C	-0.582823	1.07121	-0.052137
C	-0.639319	0.0341076	-0.93622
O	0.15427	-0.992671	-0.532544
H	1.41552	-1.30105	1.12869
H	0.611779	1.23264	1.87071
H	-1.11904	2.03142	-0.119625
H	-1.19862	-0.0946074	-1.87742
C	3.85189	-0.376813	-0.970915
C	4.49604	0.830243	-0.799971
N	5.01722	0.933715	0.446697
C	4.6976	-0.204819	1.04687
N	3.99467	-1.02842	0.23375
H	3.31973	-0.803966	-1.83572
H	4.59408	1.62832	-1.55384
H	4.95321	-0.48701	2.08092
H	3.62824	-1.98171	0.475027
