18
  This energy is -1.7721 and Call times are: 117755
C	-0.0765074	-0.676711	0.906978
C	0.622586	0.494302	0.926251
C	0.486226	1.05264	-0.381335
C	-0.284157	0.173535	-1.08422
O	-0.636813	-0.88844	-0.312956
H	-0.248977	-1.43812	1.68529
H	1.17852	0.922009	1.77601
H	0.915419	1.99932	-0.746964
H	-0.646357	0.189003	-2.12529
C	4.0073	1.04696	0.367079
C	4.76066	0.794438	-0.759787
N	5.03674	-0.527139	-0.876928
C	4.45687	-1.09233	0.173273
N	3.82327	-0.185156	0.953767
H	3.60262	1.98498	0.779267
H	5.10993	1.54215	-1.49039
H	4.46513	-2.16652	0.418808
H	3.29289	-0.382747	1.83746
