18
  This energy is -0.9724 and Call times are: 201647
C	-0.81772	0.645041	0.449061
C	-0.290833	0.888005	-0.785335
C	0.696484	-0.122648	-0.994865
C	0.685774	-0.89399	0.129986
O	-0.232973	-0.43956	1.0224
H	-1.6024	1.16363	1.02404
H	-0.569484	1.6977	-1.47877
H	1.33554	-0.252352	-1.88306
H	1.27485	-1.78163	0.413423
C	4.28376	0.29638	0.226411
C	5.12003	0.872527	-0.706252
N	6.33998	0.28246	-0.699271
C	6.26084	-0.656178	0.234174
N	5.0411	-0.687797	0.821402
H	3.23818	0.509959	0.499709
H	4.86498	1.70341	-1.38407
H	7.06634	-1.34832	0.527999
H	4.73135	-1.33813	1.58454
