18
  This energy is -0.9012 and Call times are: 693
C	-0.898612	0.118277	0.681842
C	0.0730957	-0.811595	0.908768
C	1.01985	-0.653906	-0.14902
C	0.543109	0.358407	-0.928965
O	-0.627698	0.841666	-0.436338
H	-1.82078	0.361907	1.23457
H	0.11861	-1.5359	1.73787
H	1.94536	-1.23164	-0.303122
H	0.938255	0.821445	-1.84804
C	7.19746	0.773629	-0.835529
C	7.62806	0.763845	0.474294
N	7.08507	-0.27166	1.15943
C	6.32053	-0.901879	0.277994
N	6.35455	-0.310286	-0.939566
H	7.42366	1.45257	-1.67303
H	8.32079	1.48541	0.937234
H	5.71433	-1.80157	0.471165
H	5.83737	-0.61857	-1.79906
