18
  This energy is -0.9781 and Call times are: 23548
C	0.234483	-0.609376	-0.927405
C	0.849514	-0.834151	0.269085
C	0.296719	0.118948	1.17801
C	-0.607318	0.842011	0.456708
O	-0.658304	0.410755	-0.831092
H	0.342705	-1.10001	-1.90864
H	1.61561	-1.59481	0.489503
H	0.548998	0.244186	2.24326
H	-1.26826	1.67752	0.740151
C	6.16675	0.61211	0.275337
C	5.05273	1.07948	-0.389245
N	4.12612	0.101748	-0.537346
C	4.66325	-0.968114	0.0331877
N	5.89321	-0.71163	0.538162
H	7.10357	1.11118	0.570013
H	4.90098	2.10466	-0.764525
H	4.19915	-1.96465	0.109112
H	6.51919	-1.39161	1.0352
