18
  This energy is -0.7829 and Call times are: 25877
C	-0.174858	0.898239	0.670069
C	0.872532	0.829581	-0.200927
C	0.754625	-0.434518	-0.85535
C	-0.354408	-1.02674	-0.326492
O	-0.934508	-0.226892	0.606641
H	-0.485138	1.68242	1.38002
H	1.65016	1.59256	-0.366013
H	1.42265	-0.846506	-1.62872
H	-0.828745	-2.00143	-0.527105
C	6.25614	-0.915175	-0.342086
C	6.19372	-0.368341	0.922121
N	5.33351	0.678146	0.959909
C	4.86408	0.780137	-0.276155
N	5.38994	-0.158077	-1.09884
H	6.83632	-1.76128	-0.743384
H	6.75395	-0.710154	1.80765
H	4.13345	1.52371	-0.633239
H	5.17815	-0.284648	-2.11884
