18
  This energy is -0.5212 and Call times are: 114285
C	0.855232	0.675985	-0.313089
C	-0.372759	1.16197	0.0278441
C	-1.16708	0.0213886	0.356868
C	-0.354367	-1.06089	0.187953
O	0.88436	-0.679623	-0.220948
H	1.7791	1.18418	-0.634745
H	-0.68764	2.21772	0.04583
H	-2.22028	0.0169876	0.68068
H	-0.53572	-2.1397	0.3241
C	5.98448	0.890123	0.715434
C	4.93743	0.851036	-0.180835
N	4.90458	-0.331117	-0.842611
C	5.92737	-1.02278	-0.358729
N	6.60962	-0.329706	0.583493
H	6.31786	1.67353	1.41448
H	4.2051	1.65464	-0.361835
H	6.22176	-2.04127	-0.659124
H	7.45393	-0.658869	1.11269
