18
  This energy is -0.6543 and Call times are: 76571
C	0.42226	0.323109	-1.00185
C	-0.721512	0.856862	-0.484867
C	-0.924504	0.205568	0.770014
C	0.113141	-0.668687	0.909097
O	0.945339	-0.610174	-0.163765
H	0.960337	0.520063	-1.94362
H	-1.35838	1.63151	-0.941399
H	-1.75005	0.374841	1.47989
H	0.368775	-1.37795	1.71337
C	5.913	-0.840619	-0.132251
C	4.54803	-1.0157	-0.046466
N	3.91154	0.171395	0.102506
C	4.87797	1.07947	0.109114
N	6.10298	0.519355	-0.0294781
H	6.73517	-1.56345	-0.255063
H	4.01108	-1.97731	-0.0893954
H	4.74422	2.16834	0.212515
H	7.02233	1.02478	-0.0539755
