18
  This energy is -0.966 and Call times are: 5006
C	-0.697569	-0.698103	0.558972
C	-0.590834	0.62683	0.864804
C	0.372058	1.16167	-0.0445374
C	0.768731	0.116356	-0.825781
O	0.125647	-1.02717	-0.471096
H	-1.31471	-1.5014	0.993836
H	-1.13552	1.17277	1.6518
H	0.722373	2.20473	-0.102765
H	1.49136	0.0572353	-1.65618
C	5.61726	0.899193	0.249153
C	4.87381	0.727384	-0.899281
N	4.15862	-0.422692	-0.850889
C	4.45726	-0.962308	0.323102
N	5.33281	-0.203245	1.02369
H	6.30566	1.7012	0.559697
H	4.84065	1.41266	-1.76192
H	4.06316	-1.91189	0.719597
H	5.721	-0.414317	1.97554
