18
  This energy is -0.8799 and Call times are: 101922
C	1.10321	-0.113615	-0.237515
C	0.507387	1.10562	-0.100272
C	-0.865121	0.839384	0.192064
C	-0.986853	-0.519038	0.207658
O	0.205454	-1.11705	-0.0527175
H	2.14432	-0.397337	-0.463025
H	0.98634	2.09337	-0.195359
H	-1.6619	1.57968	0.368702
H	-1.85546	-1.1732	0.388905
C	6.11807	-0.236095	-0.90207
C	5.80531	1.00822	-0.397101
N	4.94543	0.910327	0.645749
C	4.72558	-0.389782	0.787198
N	5.40993	-1.12316	-0.122423
H	6.77261	-0.542887	-1.73333
H	6.1847	1.97488	-0.766559
H	4.07247	-0.859014	1.54052
H	5.4025	-2.16837	-0.215944
