18
  This energy is -0.7163 and Call times are: 103038
C	0.899317	0.297208	0.623937
C	-0.379609	0.416524	1.08272
C	-1.21923	-0.0517362	0.026368
C	-0.379262	-0.415863	-0.984692
O	0.918243	-0.209505	-0.636974
H	1.86892	0.535027	1.09144
H	-0.699645	0.796196	2.06635
H	-2.31968	-0.107309	0.0281187
H	-0.577905	-0.829583	-1.987
C	6.64725	-0.534721	-0.0493235
C	5.70754	-0.646364	0.953483
N	4.61471	0.108844	0.685334
C	4.87547	0.686798	-0.479396
N	6.08891	0.33063	-0.963442
H	7.64065	-0.994494	-0.173016
H	5.7985	-1.25831	1.86568
H	4.21271	1.3796	-1.02254
H	6.5219	0.652382	-1.86358
