18
  This energy is -0.8666 and Call times are: 121458
C	-0.634285	-0.701362	-0.626239
C	-1.16552	0.359569	0.0465098
C	-0.068819	0.992014	0.707856
C	1.03578	0.261731	0.380865
O	0.708905	-0.77624	-0.433247
H	-1.09966	-1.46722	-1.26822
H	-2.22353	0.666051	0.0742615
H	-0.107458	1.88635	1.35032
H	2.09635	0.375856	0.659086
C	6.03573	1.08863	0.295397
C	6.67439	0.234113	-0.578134
N	6.01064	-0.942684	-0.683499
C	4.96419	-0.818689	0.121606
N	4.9346	0.38822	0.734864
H	6.27879	2.11147	0.624423
H	7.60221	0.445624	-1.13424
H	4.18853	-1.58094	0.29925
H	4.21076	0.726048	1.41544
