18
  This energy is -1.6013 and Call times are: 116954
C	0.46428	-0.258566	-1.00199
C	-0.103207	-1.20049	-0.195079
C	-0.569323	-0.498086	0.957951
C	-0.245526	0.811064	0.753852
O	0.386247	0.975527	-0.438133
H	0.950705	-0.337703	-1.98809
H	-0.185336	-2.28149	-0.392057
H	-1.0847	-0.926199	1.83271
H	-0.407656	1.70926	1.37209
C	4.53469	-1.02057	0.537067
C	4.96754	0.232544	0.915856
N	4.50808	1.18505	0.0684216
C	3.79292	0.525347	-0.832666
N	3.7783	-0.80742	-0.593693
H	4.7057	-2.01574	0.977462
H	5.60313	0.46644	1.78544
H	3.25885	0.969095	-1.68828
H	3.28478	-1.53899	-1.16159
