18
  This energy is -0.9946 and Call times are: 8858
C	-0.741367	0.724076	-0.460966
C	0.280018	0.170674	-1.17573
C	0.98376	-0.673003	-0.263005
C	0.330297	-0.560683	0.928945
O	-0.725813	0.288497	0.826295
H	-1.53566	1.43214	-0.749071
H	0.514361	0.339623	-2.23905
H	1.87223	-1.28825	-0.477943
H	0.515192	-1.02652	1.91081
C	5.84076	-0.212459	-0.889506
C	5.01326	-1.12249	-0.266423
N	4.29455	-0.533773	0.720174
C	4.67473	0.736645	0.70919
N	5.60555	0.980662	-0.243498
H	6.5565	-0.325685	-1.71923
H	4.92194	-2.19331	-0.511081
H	4.30348	1.53062	1.37703
H	6.06124	1.90301	-0.450576
