18
  This energy is -0.8493 and Call times are: 192555
C	0.290118	-1.09518	0.0530291
C	-0.930002	-0.642194	0.461054
C	-0.916599	0.769074	0.241371
C	0.310528	1.05391	-0.281507
O	1.06054	-0.0728697	-0.403417
H	0.72601	-2.10759	0.0365082
H	-1.75654	-1.24171	0.875188
H	-1.73068	1.48132	0.45131
H	0.76507	2.00514	-0.603696
C	5.13218	-1.02375	0.387626
C	4.3584	-0.824594	-0.736096
N	4.03611	0.483608	-0.881874
C	4.60778	1.09371	0.147496
N	5.28044	0.227918	0.942186
H	5.5731	-1.93713	0.817571
H	4.0269	-1.60141	-1.44428
H	4.56555	2.1727	0.367097
H	5.81337	0.464972	1.81457
