18
  This energy is -1.3988 and Call times are: 106390
C	-0.137982	-1.09926	-0.242877
C	0.623367	-0.27084	-1.01388
C	0.55326	1.01412	-0.39414
C	-0.244741	0.857492	0.700864
O	-0.67576	-0.426882	0.808652
H	-0.372895	-2.17242	-0.334555
H	1.17864	-0.537835	-1.92738
H	1.04337	1.94149	-0.731599
H	-0.5772	1.57223	1.47149
C	5.55768	-0.433531	-0.529146
C	4.81331	0.65617	-0.928666
N	3.77562	0.87493	-0.0849542
C	3.87585	-0.0754441	0.834484
N	4.9343	-0.889828	0.610756
H	6.45689	-0.900988	-0.960935
H	5.00642	1.28845	-1.81058
H	3.20088	-0.220926	1.69325
H	5.22473	-1.71216	1.19443
