18
  This energy is -1.6245 and Call times are: 149564
C	0.31309	-0.352063	-1.03171
C	-0.131347	-1.21148	-0.070332
C	-0.423938	-0.404024	1.07095
C	-0.132471	0.87754	0.70624
O	0.318911	0.927817	-0.574673
H	0.650525	-0.524313	-2.06695
H	-0.242038	-2.3044	-0.156237
H	-0.80659	-0.746413	2.04585
H	-0.202147	1.82879	1.25898
C	4.60375	1.00807	0.453734
C	3.46204	0.331172	0.827177
N	3.30061	-0.79668	0.0934183
C	4.33823	-0.819383	-0.73209
N	5.15316	0.247271	-0.553992
H	5.04927	1.94604	0.821509
H	2.7519	0.636395	1.61291
H	4.54974	-1.59376	-1.48696
H	6.03544	0.455117	-1.08281
