18
  This energy is -0.5815 and Call times are: 182067
C	-0.134437	-0.282701	1.09014
C	1.06707	0.114765	0.581444
C	0.83694	0.380307	-0.802986
C	-0.484882	0.121669	-1.01808
O	-1.09351	-0.284329	0.127236
H	-0.433394	-0.586802	2.1067
H	2.01984	0.211279	1.12644
H	1.5758	0.72364	-1.54481
H	-1.10404	0.187044	-1.92781
C	5.32373	0.276863	0.735247
C	6.06386	1.14834	-0.0353855
N	6.99366	0.486007	-0.765656
C	6.83097	-0.791512	-0.449267
N	5.8362	-0.969474	0.45204
H	4.49622	0.449639	1.44158
H	5.94361	2.24316	-0.0775441
H	7.41318	-1.63777	-0.848135
H	5.51627	-1.88285	0.857798
