18
  This energy is -0.8679 and Call times are: 109191
C	-0.123302	1.05526	0.397006
C	1.10067	0.480872	0.21719
C	0.846663	-0.830412	-0.288904
C	-0.510109	-0.941569	-0.373679
O	-1.11839	0.200748	0.0411864
H	-0.416092	2.0518	0.766386
H	2.08378	0.935011	0.420539
H	1.59367	-1.5951	-0.555966
H	-1.15633	-1.76956	-0.708479
C	4.76563	-0.032531	0.829378
C	5.52724	1.05727	0.464083
N	6.39361	0.737564	-0.527735
C	6.17032	-0.54569	-0.776791
N	5.1978	-1.05573	0.0154481
H	3.97313	-0.148483	1.58571
H	5.46712	2.0685	0.898408
H	6.69062	-1.16061	-1.52872
H	4.84097	-2.0426	0.0105874
