18
  This energy is -1.4398 and Call times are: 189961
C	-0.359412	-0.875371	-0.62526
C	0.964385	-0.596041	-0.452311
C	1.01387	0.561102	0.383566
C	-0.284056	0.886735	0.647621
O	-1.13615	0.0200663	0.0394821
H	-0.870797	-1.67197	-1.19021
H	1.82018	-1.14934	-0.871322
H	1.91566	1.08336	0.741497
H	-0.726589	1.70018	1.24572
C	4.70454	-1.03901	-0.544469
C	4.5112	0.207655	-1.10089
N	4.70385	1.18706	-0.184285
C	5.01551	0.550419	0.936506
N	5.02915	-0.793463	0.771024
H	4.63636	-2.04981	-0.977101
H	4.23615	0.417962	-2.1473
H	5.2431	1.01961	1.90722
H	5.24575	-1.51155	1.50499
