18
  This energy is -1.0884 and Call times are: 188900
C	0.280327	0.544383	0.954706
C	1.00679	0.662394	-0.19364
C	0.349019	-0.159909	-1.15866
C	-0.721332	-0.707827	-0.514841
O	-0.778668	-0.288586	0.776655
H	0.411053	0.995311	1.95212
H	1.91477	1.26777	-0.345878
H	0.64561	-0.318855	-2.20789
H	-1.50583	-1.40105	-0.860167
C	5.85211	-0.704273	-0.874706
C	6.63413	0.171203	-0.151423
N	5.90058	0.824925	0.781891
C	4.66819	0.356781	0.638157
N	4.58718	-0.567707	-0.347922
H	6.09802	-1.39187	-1.69949
H	7.71449	0.342867	-0.286296
H	3.78745	0.656571	1.22864
H	3.72506	-1.08239	-0.653032
