18
  This energy is -1.3901 and Call times are: 153873
C	-0.656767	0.150792	0.912315
C	-0.193551	1.19377	0.165324
C	0.585338	0.610365	-0.880183
C	0.529331	-0.737626	-0.679792
O	-0.225011	-1.03615	0.410557
H	-1.2931	0.121691	1.81203
H	-0.381494	2.26636	0.333661
H	1.12137	1.14068	-1.68364
H	0.976744	-1.57848	-1.2348
C	5.38848	-0.0769962	-0.76796
C	4.35343	0.833704	-0.788629
N	3.50557	0.633423	0.249419
C	4.01272	-0.397604	0.911546
N	5.1481	-0.861636	0.337818
H	6.25036	-0.217557	-1.43949
H	4.20322	1.63169	-1.53395
H	3.59292	-0.853163	1.82285
H	5.73371	-1.66589	0.671726
