18
  This energy is -0.8184 and Call times are: 191594
C	0.739772	0.117726	0.851634
C	1.05269	0.436716	-0.437048
C	-0.118451	0.155584	-1.20484
C	-1.04365	-0.310384	-0.317574
O	-0.536552	-0.34017	0.942972
H	1.32929	0.170505	1.78165
H	2.01199	0.830486	-0.809591
H	-0.24772	0.288044	-2.29105
H	-2.08366	-0.648771	-0.455868
C	6.43039	0.898032	0.212509
C	5.08631	0.977082	-0.0847163
N	4.55377	-0.255082	-0.27095
C	5.56364	-1.09534	-0.0899466
N	6.71665	-0.448879	0.203733
H	7.17848	1.67889	0.422639
H	4.49128	1.90111	-0.168121
H	5.51406	-2.19387	-0.160598
H	7.65071	-0.889711	0.389376
