18
  This energy is -0.7462 and Call times are: 90368
C	0.894096	-0.640752	-0.276458
C	1.02224	0.652985	0.136091
C	-0.305193	1.11655	0.387369
C	-1.12733	0.0651732	0.106191
O	-0.411815	-1.01628	-0.300633
H	1.64471	-1.38989	-0.577479
H	1.95769	1.22362	0.251845
H	-0.60358	2.11807	0.736684
H	-2.22371	-0.0389594	0.154799
C	4.98389	0.102573	0.584893
C	5.92561	1.08922	0.382803
N	6.97595	0.622507	-0.33516
C	6.68694	-0.648848	-0.577552
N	5.49625	-1.0104	-0.0435774
H	4.01763	0.113327	1.11382
H	5.86599	2.12948	0.742182
H	7.31205	-1.36011	-1.14109
H	5.04865	-1.95801	-0.0979632
