18
  This energy is -1.8592 and Call times are: 184313
C	-0.718288	0.0590097	-0.875775
C	-0.718176	0.978101	0.132017
C	0.311963	0.56994	1.03331
C	0.850417	-0.562542	0.496727
O	0.233297	-0.88907	-0.669272
H	-1.33702	-0.0302653	-1.78377
H	-1.37738	1.85547	0.230814
H	0.610264	1.06793	1.96986
H	1.66502	-1.21973	0.842797
C	4.08717	0.473419	1.03107
C	5.09274	-0.444436	0.813063
N	5.17748	-0.774055	-0.498684
C	4.2281	-0.0633888	-1.09219
N	3.54281	0.70474	-0.21245
H	3.73228	0.962053	1.95239
H	5.75862	-0.874728	1.57877
H	3.99174	-0.067565	-2.16846
H	2.7482	1.35299	-0.435203
