18
  This energy is -1.273 and Call times are: 109126
C	-0.0577605	-0.536737	0.997486
C	-0.435062	0.765171	0.845649
C	-0.219407	1.07668	-0.531511
C	0.27064	-0.0623644	-1.09967
O	0.375874	-1.05781	-0.180416
H	-0.0499989	-1.19753	1.87984
H	-0.826019	1.4386	1.62523
H	-0.409914	2.03966	-1.03199
H	0.578465	-0.289718	-2.1335
C	3.70442	0.206271	0.592755
C	4.72906	1.09908	0.360076
N	5.72419	0.524418	-0.358244
C	5.31844	-0.720166	-0.570384
N	4.1064	-0.961212	-0.0168186
H	2.74949	0.315455	1.13103
H	4.76812	2.14759	0.697638
H	5.86984	-1.49658	-1.1248
H	3.57427	-1.86522	-0.0463549
