18
  This energy is -1.4035 and Call times are: 117884
C	-0.27035	-0.70319	-0.847841
C	-0.969362	0.440768	-0.596614
C	-0.335564	1.04661	0.530938
C	0.694804	0.21939	0.869204
O	0.749445	-0.85423	0.0377194
H	-0.396666	-1.48328	-1.61645
H	-1.8436	0.819938	-1.14982
H	-0.620692	1.9889	1.02579
H	1.45036	0.282266	1.66948
C	4.73539	-0.609987	0.907437
C	4.76764	-0.969899	-0.42319
N	4.17228	-0.030848	-1.19794
C	3.7722	0.908056	-0.351164
N	4.08834	0.605325	0.930243
H	5.11447	-1.11582	1.80964
H	5.20983	-1.89033	-0.838083
H	3.24324	1.83772	-0.61604
H	3.88019	1.1858	1.77935
