18
  This energy is -0.8753 and Call times are: 133410
C	-0.608017	-0.253193	0.923368
C	0.751863	-0.354342	0.893886
C	1.1452	0.0443964	-0.420044
C	-0.00904141	0.354009	-1.0775
O	-1.08952	0.178008	-0.272137
H	-1.33904	-0.455868	1.72323
H	1.41179	-0.677341	1.71502
H	2.17073	0.0920215	-0.820195
H	-0.19278	0.70614	-2.10584
C	6.20278	0.327886	-0.956158
C	5.0211	0.869832	-0.496737
N	4.60575	0.248866	0.633926
C	5.52627	-0.674798	0.875021
N	6.51009	-0.66727	-0.0553719
H	6.82598	0.571826	-1.83118
H	4.46078	1.69778	-0.960847
H	5.52875	-1.38333	1.71895
H	7.34743	-1.29913	-0.0849074
