18
  This energy is -0.7583 and Call times are: 89231
C	0.308838	0.774064	-0.769315
C	-0.738692	-0.0764073	-0.968703
C	-0.812891	-0.887207	0.204846
C	0.195847	-0.460628	1.01778
O	0.891104	0.553422	0.438698
H	0.734546	1.57047	-1.40159
H	-1.39346	-0.127655	-1.85343
H	-1.53663	-1.69209	0.410922
H	0.518314	-0.792373	2.01838
C	4.60125	0.376491	0.189971
C	5.41765	-0.279984	1.08645
N	6.62075	-0.56661	0.532447
C	6.55098	-0.0897643	-0.703018
N	5.35336	0.488382	-0.958069
H	3.57259	0.759188	0.284572
H	5.16013	-0.551943	2.12306
H	7.34791	-0.137101	-1.46255
H	5.05466	0.936493	-1.85876
