18
  This energy is -1.2602 and Call times are: 113721
C	0.562547	0.860649	0.478776
C	0.295881	0.816076	-0.858115
C	-0.417062	-0.402588	-1.07418
C	-0.52313	-0.995144	0.149745
O	0.0695961	-0.237474	1.10976
H	1.08776	1.60878	1.09497
H	0.573389	1.56613	-1.61608
H	-0.802231	-0.785276	-2.03298
H	-0.989908	-1.94266	0.465305
C	3.92895	-0.61755	0.246542
C	4.19849	0.683176	0.616142
N	5.41246	1.07866	0.161865
C	5.89421	0.0272762	-0.487087
N	5.03708	-1.02077	-0.46455
H	3.05611	-1.26325	0.433004
H	3.53876	1.34336	1.20245
H	6.86935	-0.0292513	-0.997133
H	5.18792	-1.96131	-0.904873
