18
  This energy is -0.8399 and Call times are: 106454
C	1.02688	-0.343212	0.337813
C	0.319409	-0.996756	-0.627968
C	-0.904324	-0.274463	-0.772501
C	-0.836627	0.756702	0.117718
O	0.335928	0.730086	0.804317
H	2.01926	-0.53922	0.776019
H	0.628299	-1.89715	-1.18292
H	-1.73288	-0.50349	-1.4618
H	-1.54695	1.56569	0.354821
C	5.94003	-0.144566	-0.977014
C	5.60656	-1.1142	-0.0551971
N	4.85838	-0.596776	0.949289
C	4.72818	0.688973	0.651758
N	5.36251	1.01107	-0.500398
H	6.52782	-0.193496	-1.90741
H	5.89243	-2.17787	-0.0969084
H	4.17882	1.43919	1.24303
H	5.40609	1.96029	-0.945765
