18
  This energy is -0.5989 and Call times are: 86121
C	0.574257	0.406237	-0.88972
C	1.1904	0.0315956	0.268031
C	0.149904	-0.419158	1.13654
C	-1.01022	-0.280174	0.432854
O	-0.769762	0.222584	-0.806673
H	0.974982	0.813269	-1.83259
H	2.26936	0.0689169	0.488342
H	0.261736	-0.800809	2.16413
H	-2.05724	-0.500322	0.698433
C	7.30501	-0.609573	0.0589012
C	6.95001	0.477246	0.829579
N	5.71894	0.933343	0.493516
C	5.31176	0.132518	-0.481938
N	6.23272	-0.81421	-0.780454
H	8.21447	-1.23112	0.0487007
H	7.56012	0.94045	1.62208
H	4.34808	0.194825	-1.01267
H	6.14639	-1.5617	-1.51193
