18
  This energy is -1.0439 and Call times are: 97317
C	-0.816405	0.787299	0.00670612
C	-0.976412	-0.435842	0.588684
C	0.250811	-1.13444	0.374204
C	1.05242	-0.276532	-0.319905
O	0.416727	0.901844	-0.553005
H	-1.49524	1.65191	-0.0762327
H	-1.86909	-0.808733	1.1161
H	0.498827	-2.15667	0.702265
H	2.08114	-0.38395	-0.701272
C	5.54133	0.832534	-0.705132
C	4.68607	1.0185	0.360279
N	4.37867	-0.161369	0.951822
C	5.0407	-1.07582	0.256034
N	5.75659	-0.52669	-0.753695
H	5.99681	1.5474	-1.40872
H	4.28531	1.98288	0.712732
H	5.03658	-2.16175	0.443022
H	6.36055	-1.03879	-1.44235
