18
  This energy is -1.0946 and Call times are: 211671
C	-0.0173995	-0.982695	0.566047
C	-0.787975	-0.761656	-0.53746
C	-0.491771	0.569931	-0.960848
C	0.433663	1.04506	-0.0786912
O	0.734983	0.110111	0.860508
H	0.0850783	-1.86286	1.22184
H	-1.49413	-1.46568	-1.00628
H	-0.922609	1.10361	-1.8232
H	0.948281	2.01767	-0.0119986
C	5.68028	0.713333	-0.318376
C	5.57186	0.00859688	0.861766
N	4.42605	-0.714222	0.895749
C	3.82591	-0.458874	-0.258921
N	4.54238	0.396452	-1.02617
H	6.46061	1.39518	-0.692145
H	6.29988	0.00873864	1.68932
H	2.86049	-0.871576	-0.593387
H	4.28089	0.750718	-1.97874
