18
  This energy is -0.7116 and Call times are: 102599
C	0.901463	-0.686353	-0.0518068
C	0.337968	-0.135403	-1.16505
C	-0.756568	0.655035	-0.698873
C	-0.765305	0.517332	0.658085
O	0.24041	-0.298435	1.07049
H	1.76386	-1.36155	0.073268
H	0.660697	-0.271922	-2.2097
H	-1.4512	1.25322	-1.31022
H	-1.42585	0.941956	1.43179
C	6.36436	-0.355061	-0.573623
C	5.30681	-1.14097	-0.1673
N	4.36458	-0.402167	0.467431
C	4.8358	0.837359	0.454925
N	6.03879	0.917853	-0.161452
H	7.29455	-0.603248	-1.10905
H	5.2068	-2.22784	-0.320762
H	4.34067	1.72388	0.882899
H	6.61391	1.78476	-0.299132
