18
  This energy is -1.4263 and Call times are: 124448
C	-0.439586	0.40989	-0.96185
C	0.0595658	1.21905	0.0161497
C	0.51432	0.346347	1.05138
C	0.252918	-0.919067	0.614613
O	-0.329594	-0.899038	-0.613105
H	-0.894323	0.639611	-1.93945
H	0.103155	2.32002	0.0092554
H	0.980599	0.636154	2.00673
H	0.430926	-1.90362	1.07744
C	3.8575	0.562422	-0.424814
C	3.907	-0.734405	0.0409482
N	5.15601	-1.05717	0.45605
C	5.87861	0.0352761	0.248595
N	5.14115	1.03974	-0.281297
H	3.02734	1.15948	-0.83457
H	3.06386	-1.44295	0.08491
H	6.95218	0.153997	0.46677
H	5.48224	1.99931	-0.534555
