18
  This energy is -0.9759 and Call times are: 32661
C	-0.196937	-0.991104	-0.515101
C	0.81702	-0.822691	0.381505
C	0.742548	0.539482	0.804656
C	-0.310345	1.08322	0.129278
O	-0.89569	0.162653	-0.681235
H	-0.521139	-1.87049	-1.09547
H	1.54443	-1.58157	0.71177
H	1.40074	1.04674	1.52824
H	-0.738168	2.09917	0.13768
C	4.60822	-0.489984	0.719789
C	5.59136	0.413642	1.06337
N	6.32668	0.770247	-0.0176673
C	5.80171	0.0904354	-1.02806
N	4.76285	-0.68393	-0.634708
H	3.83528	-0.991998	1.32318
H	5.78328	0.814678	2.07193
H	6.13942	0.122528	-2.07646
H	4.18524	-1.31233	-1.24523
