18
  This energy is -1.3301 and Call times are: 153170
C	0.0595154	1.028	-0.47548
C	0.550724	0.769991	0.770522
C	0.292456	-0.613556	1.01386
C	-0.333777	-1.07888	-0.104926
O	-0.484255	-0.0898441	-1.0248
H	0.0359017	1.95282	-1.07498
H	1.04532	1.48248	1.4501
H	0.546989	-1.18706	1.91962
H	-0.716746	-2.07913	-0.365853
C	4.99987	-0.915084	-0.676603
C	3.81519	-0.745337	0.00813396
N	3.80757	0.426765	0.688303
C	4.98305	0.982046	0.42652
N	5.73828	0.211838	-0.392018
H	5.35778	-1.73086	-1.32464
H	2.96582	-1.4476	0.0235725
H	5.3419	1.95146	0.808212
H	6.70259	0.431319	-0.742993
