18
  This energy is -1.439 and Call times are: 191915
C	0.846001	0.410796	-0.63398
C	-0.239558	1.16132	-0.28953
C	-1.07078	0.307961	0.498483
C	-0.419787	-0.888711	0.566014
O	0.752551	-0.843839	-0.120005
H	1.7402	0.650236	-1.23258
H	-0.435338	2.21062	-0.562935
H	-2.03917	0.56406	0.95753
H	-0.682144	-1.83664	1.06386
C	4.20553	0.248403	1.13383
C	4.32304	-1.00413	0.569464
N	4.54498	-0.920017	-0.764769
C	4.56508	0.379748	-1.02713
N	4.36513	1.12612	0.0848666
H	4.02563	0.566642	2.17301
H	4.25165	-1.967	1.1011
H	4.7223	0.839492	-2.01614
H	4.33703	2.17382	0.137857
