18
  This energy is -1.2365 and Call times are: 186970
C	0.873061	0.723956	0.00734836
C	-0.420715	1.13864	0.127979
C	-1.21745	-0.0456381	0.0749761
C	-0.340214	-1.07948	-0.0733638
O	0.94083	-0.627734	-0.116561
H	1.82231	1.28434	-0.00471032
H	-0.778152	2.17458	0.242768
H	-2.31545	-0.110486	0.1405
H	-0.499539	-2.16691	-0.15917
C	4.88196	1.16013	-0.0779625
C	5.18009	0.209837	-1.03148
N	4.83636	-1.03103	-0.608859
C	4.32692	-0.851216	0.602242
N	4.33227	0.452619	0.96772
H	5.01755	2.25333	-0.0698013
H	5.63706	0.397329	-2.01682
H	3.93529	-1.63977	1.26484
H	3.98402	0.849026	1.87483
