18
  This energy is -1.3549 and Call times are: 166633
C	0.297434	-0.322275	-1.04598
C	0.166658	-1.20905	-0.0179182
C	-0.213891	-0.434682	1.12035
C	-0.28207	0.856932	0.687389
O	0.0271265	0.944026	-0.63315
H	0.57357	-0.464697	-2.10367
H	0.322536	-2.29912	-0.0571948
H	-0.411731	-0.804988	2.13909
H	-0.535431	1.79196	1.21349
C	5.30833	0.812291	-0.268114
C	3.93842	0.964471	-0.304805
N	3.30985	-0.176953	0.0674316
C	4.28609	-1.03398	0.334034
N	5.50976	-0.485172	0.146858
H	6.1268	1.51213	-0.500197
H	3.39233	1.87742	-0.593197
H	4.16076	-2.07597	0.669854
H	6.43556	-0.957959	0.290486
