18
  This energy is -1.0707 and Call times are: 206441
C	0.689769	-0.733735	0.521779
C	1.08671	0.00219078	-0.555822
C	-0.0422915	0.79547	-0.924839
C	-1.02949	0.474279	-0.0401634
O	-0.599832	-0.458112	0.850373
H	1.22341	-1.47794	1.13549
H	2.07537	-0.0121414	-1.04207
H	-0.103032	1.51849	-1.75409
H	-2.06675	0.833847	0.0600996
C	4.95231	-0.816257	-0.0155377
C	6.26714	-0.995739	0.358838
N	6.96693	0.160113	0.254868
C	6.08957	1.05326	-0.182344
N	4.86055	0.513598	-0.360869
H	4.10375	-1.51738	-0.0591949
H	6.72338	-1.93854	0.702103
H	6.29397	2.11625	-0.38848
H	4.00144	1.01307	-0.698096
