18
  This energy is -0.7172 and Call times are: 195250
C	1.10752	0.219701	-0.107358
C	0.226921	0.385595	-1.13565
C	-1.05152	0.0120998	-0.61971
C	-0.839304	-0.349059	0.678327
O	0.473585	-0.228404	1.00814
H	2.19575	0.383657	-0.0430817
H	0.454764	0.735841	-2.15522
H	-2.01199	0.0151852	-1.15971
H	-1.52991	-0.704784	1.46049
C	7.55169	1.05466	0.262239
C	6.57876	0.781153	-0.675718
N	6.29669	-0.543761	-0.715078
C	7.09159	-1.09012	0.195
N	7.86775	-0.167755	0.811782
H	8.02569	2.0011	0.567367
H	6.07529	1.51608	-1.32475
H	7.14585	-2.16074	0.450061
H	8.57546	-0.349246	1.56509
