18
  This energy is -1.2858 and Call times are: 40471
C	-0.148193	-1.1196	-0.104605
C	-1.12387	-0.220858	-0.421921
C	-0.567884	1.06852	-0.160196
C	0.698473	0.843877	0.293951
O	0.97161	-0.486828	0.334321
H	-0.127112	-2.22099	-0.146339
H	-2.13379	-0.443538	-0.802148
H	-1.06101	2.04431	-0.297151
H	1.49316	1.53653	0.616382
C	4.13814	-0.457304	-0.658151
C	5.2399	-1.12034	-0.160511
N	6.02977	-0.285226	0.557268
C	5.42033	0.891419	0.505117
N	4.27545	0.839584	-0.21609
H	3.29425	-0.804974	-1.27501
H	5.47903	-2.18634	-0.306525
H	5.76899	1.82399	0.977318
H	3.6177	1.63565	-0.402915
