18
  This energy is -1.1381 and Call times are: 110570
C	-0.824694	-0.409908	-0.662009
C	0.0696494	-1.21838	-0.0241263
C	0.93762	-0.345895	0.700796
C	0.497059	0.918722	0.441908
O	-0.578494	0.898395	-0.388624
H	-1.67139	-0.63975	-1.32948
H	0.11372	-2.31876	-0.0604373
H	1.78846	-0.635304	1.33829
H	0.858053	1.90286	0.783091
C	4.70112	1.01303	0.0144042
C	5.76208	0.69055	-0.805048
N	6.21245	-0.562135	-0.551149
C	5.43383	-1.01507	0.422113
N	4.50673	-0.102496	0.797994
H	4.09102	1.92691	0.0927765
H	6.21067	1.33932	-1.57493
H	5.49912	-2.00761	0.896262
H	3.77858	-0.221968	1.54417
