18
  This energy is -0.9476 and Call times are: 149029
C	-0.733419	-0.607444	-0.616043
C	-1.06387	-0.0718695	0.594054
C	0.104331	0.610808	1.05163
C	1.04553	0.432143	0.0807512
O	0.551083	-0.309523	-0.945147
H	-1.31479	-1.21232	-1.33115
H	-2.03304	-0.149731	1.11246
H	0.220996	1.16749	1.99534
H	2.08959	0.777143	0.00230919
C	5.64099	0.429093	-1.04149
C	4.63305	-0.483444	-0.812371
N	4.51129	-0.755319	0.509661
C	5.44015	-0.0142635	1.09846
N	6.14787	0.717851	0.205857
H	6.02076	0.878445	-1.97283
H	3.99152	-0.95053	-1.5773
H	5.64497	0.0302582	2.18026
H	6.93311	1.3794	0.422685
