18
  This energy is -0.9659 and Call times are: 126076
C	0.115688	0.644841	0.925849
C	-0.314092	-0.648263	0.985388
C	-0.328727	-1.11792	-0.363436
C	0.093402	-0.0703542	-1.12815
O	0.369184	1.01435	-0.357199
H	0.280854	1.39741	1.71427
H	-0.592849	-1.21458	1.88854
H	-0.621087	-2.12077	-0.71401
H	0.238205	0.028734	-2.21648
C	6.00296	0.257961	0.559126
C	5.71324	-0.901907	-0.127831
N	4.46315	-0.861529	-0.649522
C	3.97919	0.318899	-0.287583
N	4.86953	1.03126	0.442772
H	6.90539	0.577144	1.10437
H	6.38381	-1.76715	-0.256384
H	2.9788	0.711935	-0.530435
H	4.72413	1.98999	0.843961
