18
  This energy is -1.3965 and Call times are: 62054
C	-0.233898	-0.714397	0.849311
C	0.89922	0.0444088	0.824208
C	0.835812	0.8019	-0.385049
C	-0.330457	0.439117	-0.992156
O	-0.996463	-0.486052	-0.252218
H	-0.608102	-1.44543	1.58471
H	1.69944	0.0683198	1.58129
H	1.57709	1.52989	-0.751961
H	-0.792888	0.762059	-1.93932
C	5.60028	0.673113	0.539969
C	5.07298	-0.515228	0.999252
N	4.17425	-1.02279	0.121081
C	4.14412	-0.152634	-0.879192
N	4.98642	0.887539	-0.673865
H	6.3441	1.3585	0.97645
H	5.32491	-1.01547	1.94854
H	3.52333	-0.228485	-1.78644
H	5.14219	1.70215	-1.31683
