18
  This energy is -0.6893 and Call times are: 164838
C	0.634517	-0.296985	-0.891958
C	-0.511966	0.430547	-1.02098
C	-1.01843	0.600389	0.303693
C	-0.136725	-0.0383482	1.12527
O	0.878934	-0.592087	0.411954
H	1.35584	-0.663704	-1.6406
H	-0.956432	0.809583	-1.95526
H	-1.93364	1.13729	0.600692
H	-0.12009	-0.168749	2.21979
C	4.64526	-0.355298	-0.589341
C	5.13745	0.930186	-0.509198
N	6.25528	0.978619	0.255399
C	6.4558	-0.272062	0.648099
N	5.51189	-1.11426	0.165058
H	3.76885	-0.769884	-1.11238
H	4.70601	1.82357	-0.989376
H	7.27844	-0.62643	1.28992
H	5.4517	-2.14836	0.33319
