18
  This energy is -1.8147 and Call times are: 172972
C	-1.0329	0.399974	0.244
C	-0.198603	1.02138	-0.63814
C	0.989118	0.228993	-0.677566
C	0.77577	-0.806684	0.183961
O	-0.454009	-0.718116	0.755635
H	-2.04979	0.649774	0.588646
H	-0.399424	1.94509	-1.20429
H	1.89228	0.416184	-1.28036
H	1.41147	-1.65942	0.47375
C	5.07451	-1.15155	-0.0903892
C	6.298	-0.533665	-0.240175
N	6.19281	0.806521	-0.0688629
C	4.90894	1.01924	0.18623
N	4.19289	-0.130049	0.184327
H	4.77869	-2.21057	-0.157606
H	7.25475	-1.03087	-0.468786
H	4.43978	1.99693	0.381784
H	3.16246	-0.224895	0.358868
