18
  This energy is -1.2521 and Call times are: 137918
C	-0.172139	0.339557	-1.0684
C	-1.19842	0.122549	-0.196603
C	-0.590277	-0.288059	1.02883
C	0.753951	-0.285721	0.797698
O	1.02729	0.0950559	-0.477962
H	-0.16397	0.665122	-2.12158
H	-2.27565	0.239853	-0.396421
H	-1.10223	-0.552413	1.96804
H	1.6083	-0.531477	1.44958
C	5.20238	-1.17633	0.0366633
C	6.2655	-0.338133	0.298083
N	5.90782	0.961856	0.161686
C	4.62767	0.930261	-0.183039
N	4.156	-0.335942	-0.271634
H	5.11916	-2.27473	0.0478275
H	7.28421	-0.648107	0.582668
H	3.98787	1.80494	-0.382595
H	3.1793	-0.622822	-0.526598
