18
  This energy is -1.5173 and Call times are: 106165
C	0.0229401	1.13212	-0.0646898
C	-0.933532	0.45988	0.637899
C	-0.629746	-0.927185	0.48336
C	0.485549	-0.980117	-0.300023
O	0.897822	0.268382	-0.643961
H	0.188503	2.20977	-0.227513
H	-1.76917	0.896925	1.20781
H	-1.18301	-1.77941	0.909631
H	1.0738	-1.83243	-0.677873
C	3.6544	-0.118728	0.809911
C	4.0628	1.05126	0.205368
N	5.06203	0.82056	-0.680536
C	5.27272	-0.487581	-0.625793
N	4.44897	-1.09877	0.25822
H	2.88039	-0.316674	1.56837
H	3.65435	2.05774	0.392551
H	6.01781	-1.04966	-1.21158
H	4.42093	-2.12389	0.480923
