18
  This energy is -1.695 and Call times are: 116040
C	-0.363696	-0.666368	-0.842662
C	0.656298	-1.02907	-0.0129455
C	0.818869	0.0543169	0.903544
C	-0.116132	0.983428	0.552976
O	-0.847218	0.559822	-0.511488
H	-0.832461	-1.18507	-1.69499
H	1.23605	-1.96559	-0.0432537
H	1.54973	0.124806	1.72511
H	-0.358696	1.97216	0.975854
C	3.94231	0.948042	-0.526148
C	3.78393	-0.367432	-0.907705
N	4.45128	-1.20175	-0.074008
C	5.02151	-0.406894	0.821346
N	4.74464	0.898587	0.591894
H	3.55382	1.88463	-0.956752
H	3.20007	-0.729474	-1.76962
H	5.65215	-0.728379	1.66584
H	5.0777	1.71713	1.15786
