18
  This energy is -1.4823 and Call times are: 51655
C	0.311461	0.716213	0.822455
C	-0.469806	1.10361	-0.226317
C	-0.641493	-0.0599613	-1.03672
C	0.0500126	-1.05568	-0.411627
O	0.638241	-0.599387	0.725384
H	0.698839	1.27409	1.69077
H	-0.883683	2.10799	-0.41076
H	-1.21495	-0.137109	-1.97442
H	0.198504	-2.1168	-0.670904
C	3.91479	0.20522	-1.14397
C	3.53646	1.00659	-0.087651
N	3.91129	0.463826	1.09616
C	4.51985	-0.669945	0.775468
N	4.54776	-0.871064	-0.563323
H	3.78279	0.320819	-2.23152
H	2.99975	1.96668	-0.158501
H	4.96334	-1.39033	1.48158
H	4.97094	-1.69071	-1.06367
