18
  This energy is -1.2103 and Call times are: 178921
C	0.894949	0.641387	0.272196
C	0.969444	-0.364589	-0.645865
C	-0.340327	-0.930362	-0.713086
C	-1.09958	-0.220177	0.169831
O	-0.361314	0.743716	0.780472
H	1.65448	1.34721	0.646606
H	1.85763	-0.676901	-1.21831
H	-0.669567	-1.76856	-1.34801
H	-2.16247	-0.301572	0.450709
C	4.55953	1.03238	0.164838
C	5.30171	0.652963	-0.933507
N	5.77993	-0.606726	-0.788605
C	5.33612	-1.00726	0.395132
N	4.59534	-0.0546323	1.00941
H	4.02622	1.9678	0.397454
H	5.50068	1.26558	-1.82791
H	5.52405	-1.98834	0.860305
H	4.13582	-0.12978	1.94986
