18
  This energy is -1.4852 and Call times are: 202961
C	1.02961	-0.262538	-0.396715
C	0.822143	0.7704	0.469525
C	-0.581505	0.783331	0.733575
C	-1.10788	-0.242845	0.00538208
O	-0.138203	-0.892338	-0.690964
H	1.94811	-0.64614	-0.870483
H	1.58138	1.4546	0.881258
H	-1.12695	1.47955	1.39074
H	-2.14242	-0.608455	-0.100987
C	4.87031	1.14457	0.264794
C	5.36019	0.525077	-0.865425
N	5.10244	-0.805193	-0.844108
C	4.45511	-1.01019	0.295003
N	4.29031	0.134508	0.99935
H	4.89265	2.19758	0.587589
H	5.895	1.01415	-1.69587
H	4.07928	-1.97874	0.662274
H	3.81187	0.233688	1.92807
