18
  This energy is -1.4443 and Call times are: 212490
C	-0.392715	0.387268	0.99106
C	0.854199	0.692304	0.530046
C	0.978511	0.0295023	-0.729065
C	-0.203412	-0.622051	-0.926324
O	-1.05256	-0.414547	0.1143
H	-0.921066	0.674352	1.91501
H	1.61056	1.32098	1.0268
H	1.85042	0.0421128	-1.40264
H	-0.558796	-1.25719	-1.7543
C	5.33308	0.573249	-0.972386
C	5.79417	-0.650037	-0.534072
N	5.19318	-1.01186	0.625418
C	4.36243	-0.0168172	0.905357
N	4.40991	0.963115	-0.027954
H	5.58807	1.1739	-1.85993
H	6.54971	-1.27804	-1.03369
H	3.69627	0.0451647	1.78092
H	3.85014	1.85075	-0.0314629
