18
  This energy is -0.7339 and Call times are: 49700
C	-0.0943557	0.894406	-0.691039
C	-0.785596	0.800821	0.481054
C	-0.406947	-0.449006	1.05956
C	0.482255	-1.00884	0.189921
O	0.684901	-0.202054	-0.884807
H	-0.0702597	1.67909	-1.46495
H	-1.49133	1.53796	0.896577
H	-0.760731	-0.873573	2.01281
H	1.0332	-1.96317	0.220947
C	4.89416	0.0229741	1.00872
C	4.56897	0.666243	-0.166696
N	5.49088	0.420903	-1.12919
C	6.38459	-0.371555	-0.553076
N	6.06954	-0.6406	0.73609
H	4.38917	-0.00849695	1.98726
H	3.68566	1.30299	-0.337499
H	7.2886	-0.783889	-1.02951
H	6.61645	-1.24041	1.40121
