18
  This energy is -1.6256 and Call times are: 16674
C	0.462634	0.020799	-1.03534
C	0.214342	-1.14342	-0.369517
C	-0.361773	-0.763432	0.881011
C	-0.414678	0.599443	0.868971
O	0.0846723	1.09514	-0.293761
H	0.898983	0.216185	-2.02866
H	0.416597	-2.16709	-0.723477
H	-0.695011	-1.43391	1.68941
H	-0.779935	1.32354	1.61564
C	3.62938	0.946189	-0.405229
C	3.97102	-0.18282	-1.11921
N	4.62329	-1.07683	-0.337029
C	4.68606	-0.504616	0.857649
N	4.10077	0.716415	0.868029
H	3.10177	1.86619	-0.703165
H	3.75855	-0.36833	-2.18471
H	5.14928	-0.93566	1.75979
H	4.02122	1.36458	1.6895
