18
  This energy is -1.1167 and Call times are: 113043
C	0.0130145	0.221374	-1.11231
C	-0.0450918	-1.04976	-0.621173
C	-0.043303	-0.919807	0.801229
C	0.0157379	0.419269	1.05374
O	0.0507666	1.13116	-0.10341
H	0.0330822	0.605829	-2.14528
H	-0.0851896	-1.98509	-1.20224
H	-0.0817381	-1.73435	1.54227
H	0.0382944	0.984543	1.99989
C	3.84652	0.230928	0.0353318
C	4.75152	0.677848	-0.904024
N	5.99855	0.218755	-0.638245
C	5.86768	-0.510202	0.461809
N	4.58907	-0.533951	0.906977
H	2.76278	0.3975	0.141669
H	4.527	1.32333	-1.76877
H	6.6756	-1.0483	0.983308
H	4.23151	-1.03883	1.75462
