18
  This energy is -0.8155 and Call times are: 28831
C	0.880246	0.173439	-0.693892
C	1.0385	-0.0887436	0.635239
C	-0.279668	-0.245202	1.16256
C	-1.12707	-0.0648167	0.10912
O	-0.435813	0.191791	-1.03251
H	1.61434	0.362802	-1.4942
H	1.98821	-0.164377	1.1888
H	-0.555187	-0.466261	2.20626
H	-2.22708	-0.0931502	0.0425279
C	5.91808	0.179502	1.15712
C	4.88802	0.618474	0.352499
N	5.07293	0.231081	-0.932897
C	6.21338	-0.445644	-0.925727
N	6.76175	-0.504889	0.310947
H	6.10423	0.301633	2.236
H	4.01472	1.20777	0.676426
H	6.69237	-0.918785	-1.79804
H	7.65872	-0.981388	0.574892
