18
  This energy is -0.5695 and Call times are: 189188
C	-0.601516	-0.362813	0.890475
C	0.726321	-0.0638098	0.978915
C	1.12161	0.351289	-0.329349
C	0.000437434	0.269304	-1.10176
O	-1.0613	-0.165105	-0.373059
H	-1.32206	-0.720909	1.64403
H	1.36351	-0.12902	1.87548
H	2.12622	0.67191	-0.648805
H	-0.170096	0.488777	-2.16853
C	7.43634	0.166274	-0.257268
C	6.80548	-1.03997	-0.0378649
N	5.49005	-0.861018	0.234416
C	5.30555	0.451253	0.18412
N	6.44906	1.11467	-0.108876
H	8.48305	0.408806	-0.500389
H	7.27591	-2.03618	-0.0711549
H	4.35345	0.979399	0.353794
H	6.56205	2.15357	-0.204739
