18
  This energy is -1.0291 and Call times are: 184184
C	0.137279	-0.717429	0.86767
C	0.93502	-0.747569	-0.238257
C	0.45732	0.291987	-1.09339
C	-0.590167	0.865616	-0.434526
O	-0.799648	0.26165	0.764788
H	0.133922	-1.33081	1.78364
H	1.77554	-1.43308	-0.432391
H	0.853824	0.572734	-2.08235
H	-1.2582	1.69868	-0.708378
C	6.46978	-0.042761	-0.121971
C	5.66478	-0.990215	0.474225
N	4.36251	-0.616879	0.439202
C	4.35963	0.557716	-0.176381
N	5.60608	0.947213	-0.534485
H	7.55978	-0.00422922	-0.276723
H	6.00031	-1.93649	0.929019
H	3.47272	1.17548	-0.390847
H	5.86518	1.83432	-1.03165
