18
  This energy is -1.0487 and Call times are: 6202
C	-0.323312	0.160196	-1.07527
C	0.738006	0.817664	-0.525986
C	0.82811	0.356474	0.82283
C	-0.1861	-0.542108	0.978716
O	-0.899451	-0.674331	-0.170483
H	-0.763588	0.197961	-2.08521
H	1.39184	1.55358	-1.02098
H	1.5657	0.663722	1.58155
H	-0.501007	-1.14604	1.84552
C	5.38521	1.14176	-0.0112538
C	4.41303	0.524182	-0.769276
N	4.35423	-0.802958	-0.50141
C	5.2864	-1.00792	0.419288
N	5.93586	0.133794	0.748336
H	5.71323	2.19217	0.0396979
H	3.75298	1.01243	-1.50466
H	5.53507	-1.97433	0.886664
H	6.71116	0.232371	1.44866
