18
  This energy is -0.9276 and Call times are: 158955
C	-0.671193	-0.462589	0.788614
C	0.640127	-0.171226	1.02509
C	1.14116	0.389663	-0.189194
C	0.0917907	0.391538	-1.06051
O	-1.02303	-0.125453	-0.480071
H	-1.44924	-0.905466	1.43186
H	1.19857	-0.334862	1.96075
H	2.16532	0.74737	-0.382201
H	0.0108915	0.729083	-2.10682
C	5.06782	-0.0294716	1.12866
C	4.91049	1.01878	0.246874
N	5.40897	0.708824	-0.974582
C	5.87378	-0.527021	-0.851019
N	5.6917	-1.01624	0.398423
H	4.78927	-0.139409	2.18879
H	4.44623	1.99319	0.470133
H	6.35687	-1.12063	-1.64379
H	5.97232	-1.96623	0.744862
