18
  This energy is -1.3083 and Call times are: 22700
C	-0.238047	0.216156	1.08766
C	-0.300305	1.17684	0.121443
C	0.0630207	0.528657	-1.09838
C	0.315229	-0.770905	-0.769894
O	0.136277	-0.979502	0.561074
H	-0.433604	0.255902	2.17184
H	-0.574568	2.23571	0.254371
H	0.126468	0.985045	-2.09927
H	0.625205	-1.63304	-1.38299
C	3.90584	0.305721	-0.899871
C	4.73618	1.13527	-0.176323
N	5.39137	0.448168	0.790692
C	4.9691	-0.802888	0.667522
N	4.07239	-0.940271	-0.337777
H	3.23073	0.507158	-1.74674
H	4.87424	2.21726	-0.334718
H	5.2841	-1.6578	1.2873
H	3.59498	-1.827	-0.63281
