18
  This energy is -0.8488 and Call times are: 67292
C	-0.380731	0.462465	0.963105
C	0.240746	-0.751264	0.931414
C	0.568029	-0.987293	-0.438729
C	0.11766	0.103037	-1.12336
O	-0.464495	0.998487	-0.282959
H	-0.803419	1.04584	1.79753
H	0.447921	-1.41388	1.78705
H	1.07941	-1.8693	-0.856634
H	0.150355	0.357999	-2.19536
C	4.74744	0.628209	0.651232
C	4.43058	-0.248032	-0.365106
N	5.54671	-0.799367	-0.90064
C	6.55216	-0.267182	-0.219124
N	6.12204	0.59991	0.727836
H	4.11318	1.24919	1.30364
H	3.41662	-0.492293	-0.721563
H	7.62291	-0.47748	-0.372425
H	6.72148	1.14649	1.39356
