18
  This energy is -1.3636 and Call times are: 76054
C	0.657615	0.464924	0.798617
C	0.689877	-0.867888	0.510615
C	-0.26464	-1.06553	-0.533393
C	-0.795932	0.163959	-0.791208
O	-0.244222	1.1104	0.0130815
H	1.21915	1.06857	1.53043
H	1.32239	-1.63491	0.985697
H	-0.519348	-2.01625	-1.02871
H	-1.56251	0.49261	-1.51203
C	5.10866	0.834032	-0.656313
C	4.78365	-0.446355	-1.05144
N	4.20903	-1.13929	-0.0384417
C	4.17768	-0.292008	0.98124
N	4.70854	0.911305	0.659026
H	5.58063	1.66786	-1.19993
H	4.95348	-0.882565	-2.0493
H	3.77703	-0.501065	1.98623
H	4.79823	1.7444	1.29082
