18
  This energy is -1.3105 and Call times are: 147519
C	0.14603	0.384102	1.05714
C	0.464651	-0.891085	0.692788
C	0.143055	-0.993092	-0.69512
C	-0.343699	0.228765	-1.05638
O	-0.349018	1.08212	0.00133942
H	0.223246	0.909345	2.02327
H	0.884071	-1.68068	1.33678
H	0.263554	-1.8775	-1.34118
H	-0.713952	0.612076	-2.02139
C	5.53294	-0.492611	-0.521591
C	4.54322	-1.1403	0.187006
N	3.62056	-0.262895	0.651081
C	4.0363	0.924597	0.231979
N	5.18524	0.839125	-0.479522
H	6.43014	-0.872463	-1.03566
H	4.47837	-2.22498	0.37171
H	3.5373	1.8893	0.417928
H	5.71099	1.63559	-0.915964
