18
  This energy is -1.4159 and Call times are: 81298
C	0.782764	-0.554907	-0.604781
C	1.01967	0.668972	-0.0512774
C	-0.186372	1.03401	0.621269
C	-1.05381	0.000976592	0.419379
O	-0.478582	-0.978057	-0.327357
H	1.4209	-1.21946	-1.2101
H	1.95035	1.25583	-0.110636
H	-0.376702	1.96017	1.18704
H	-2.09377	-0.155657	0.749844
C	4.93822	-0.0752854	1.15008
C	4.59347	-1.11037	0.306934
N	4.38856	-0.664143	-0.956159
C	4.60537	0.642799	-0.896831
N	4.93973	1.04663	0.351652
H	5.1747	-0.0582336	2.22587
H	4.48891	-2.17116	0.587375
H	4.5331	1.35114	-1.73782
H	5.15845	2.0275	0.65384
