18
  This energy is -1.4742 and Call times are: 81846
C	-0.702501	0.195564	0.868704
C	0.0288797	-0.951005	0.764619
C	0.778964	-0.827883	-0.44465
C	0.439733	0.383056	-0.972781
O	-0.46396	1.02165	-0.183765
H	-1.41911	0.538799	1.63285
H	0.0391458	-1.79846	1.46876
H	1.48643	-1.56089	-0.864514
H	0.766795	0.897604	-1.89122
C	4.60982	-1.14853	-0.14811
C	3.79492	-0.572144	0.803125
N	3.78491	0.777824	0.684814
C	4.59054	1.03793	-0.335935
N	5.11273	-0.0905838	-0.871999
H	4.85914	-2.20157	-0.35426
H	3.21402	-1.10617	1.57268
H	4.83322	2.03695	-0.732542
H	5.7746	-0.148581	-1.6843
