18
  This energy is -1.0248 and Call times are: 6373
C	0.334881	0.567171	0.923349
C	-0.45521	1.13203	-0.0342848
C	-0.657381	0.119751	-1.02147
C	0.0270129	-0.974339	-0.579943
O	0.638983	-0.718924	0.60634
H	0.743777	0.96961	1.86468
H	-0.855494	2.15856	-0.0444887
H	-1.24558	0.205374	-1.94925
H	0.154609	-1.98039	-1.01218
C	5.31376	-0.570237	-0.74194
C	4.00366	-0.205718	-0.969817
N	3.48213	0.438405	0.102384
C	4.46493	0.47335	0.992043
N	5.59018	-0.121838	0.530348
H	6.04454	-1.09935	-1.37403
H	3.42542	-0.39595	-1.88867
H	4.41446	0.922409	1.99704
H	6.49987	-0.222539	1.04376
