18
  This energy is -0.8555 and Call times are: 175847
C	-0.264816	-1.02138	0.416
C	-1.02689	-0.396839	-0.527169
C	-0.378829	0.848194	-0.791798
C	0.722054	0.874567	0.0130215
O	0.807331	-0.259222	0.757508
H	-0.376752	-1.99637	0.918106
H	-1.95253	-0.77496	-0.990104
H	-0.702104	1.62732	-1.5007
H	1.51183	1.63192	0.146924
C	4.52526	-0.0105557	0.479491
C	5.14034	-1.04351	-0.195668
N	6.37832	-0.684904	-0.614365
C	6.53068	0.565756	-0.200528
N	5.44095	1.01777	0.464124
H	3.5338	0.0630661	0.953976
H	4.71301	-2.0411	-0.388178
H	7.42014	1.19705	-0.357234
H	5.31718	1.97014	0.887143
