18
  This energy is -1.5043 and Call times are: 115501
C	-0.142838	0.515475	1.00014
C	-0.770292	-0.653832	0.684867
C	-0.344562	-0.981525	-0.638571
C	0.505467	0.0164595	-1.0152
O	0.640283	0.939218	-0.0265887
H	-0.170226	1.13774	1.9097
H	-1.4634	-1.22801	1.3205
H	-0.641955	-1.86029	-1.23307
H	1.07044	0.182769	-1.94708
C	4.85956	-1.14602	-0.0659888
C	5.6459	-0.0939814	-0.485538
N	5.03519	1.09401	-0.257038
C	3.87439	0.780165	0.302139
N	3.72121	-0.558276	0.438898
H	5.02399	-2.23502	-0.0901733
H	6.64296	-0.170861	-0.94902
H	3.0994	1.49124	0.630772
H	2.89307	-1.05385	0.85102
