18
  This energy is -2.3489 and Call times are: 56181
C	0.609549	0.196024	0.936176
C	0.34124	-1.06462	0.489915
C	-0.438537	-0.902005	-0.695673
C	-0.577901	0.443663	-0.869249
O	0.0558799	1.12947	0.11817
H	1.1755	0.557045	1.8106
H	0.660416	-2.01383	0.949511
H	-0.844158	-1.70006	-1.33807
H	-1.09693	1.03095	-1.64445
C	5.95758	0.440392	-1.06413
C	7.20429	0.293142	-0.493907
N	7.11409	-0.249082	0.744789
C	5.81636	-0.437497	0.942266
N	5.07711	-0.0376315	-0.119435
H	5.64504	0.838248	-2.04269
H	8.16726	0.568432	-0.954089
H	5.35309	-0.864756	1.84619
H	4.03229	-0.0830904	-0.206386
