18
  This energy is -0.3389 and Call times are: 189092
C	-0.852306	0.639408	0.388758
C	-1.02986	-0.65519	-0.00222126
C	0.25503	-1.11653	-0.422156
C	1.10433	-0.0631207	-0.250721
O	0.445	1.01753	0.243728
H	-1.55939	1.38752	0.783225
H	-1.97121	-1.22783	0.0044215
H	0.507977	-2.11798	-0.805839
H	2.18504	0.0430889	-0.440552
C	5.74865	-0.234899	-0.0656241
C	6.78511	-1.13688	-0.181094
N	7.98545	-0.520716	-0.0544765
C	7.69476	0.758644	0.138808
N	6.35921	0.982042	0.14042
H	4.65623	-0.368442	-0.113886
H	6.6883	-2.2212	-0.353497
H	8.42141	1.57406	0.284812
H	5.88012	1.9062	0.27331
