18
  This energy is -0.9409 and Call times are: 119450
C	-0.32994	-1.08511	0.00850314
C	0.832083	-0.670418	0.589971
C	0.896245	0.739889	0.373093
C	-0.232234	1.06251	-0.32176
O	-0.992612	-0.0398985	-0.553107
H	-0.791278	-2.08301	-0.0728101
H	1.57003	-1.29499	1.11858
H	1.69383	1.42618	0.700118
H	-0.604298	2.02692	-0.704838
C	6.30987	0.368819	-0.649006
C	5.80158	0.972137	0.481833
N	4.74937	0.275745	0.976199
C	4.60544	-0.755673	0.155173
N	5.52245	-0.744407	-0.841092
H	7.14822	0.643717	-1.30865
H	6.17523	1.89743	0.949869
H	3.84498	-1.54889	0.23726
H	5.61582	-1.44938	-1.61281
