18
  This energy is -1.0982 and Call times are: 56405
C	1.04756	-0.402397	0.164579
C	0.358727	0.2609	1.13716
C	-0.901227	0.604537	0.558761
C	-0.871105	0.120896	-0.716213
O	0.311568	-0.497038	-0.974001
H	2.05491	-0.850123	0.158085
H	0.703295	0.485647	2.15934
H	-1.72778	1.14869	1.04333
H	-1.61686	0.151307	-1.52749
C	5.28134	0.162445	1.10149
C	5.26062	-1.02412	0.399511
N	4.7555	-0.846589	-0.845416
C	4.46396	0.4452	-0.915487
N	4.76265	1.09695	0.23325
H	5.61728	0.400041	2.12337
H	5.6011	-2.00514	0.769015
H	4.03	0.966036	-1.78419
H	4.62527	2.11935	0.425806
