18
  This energy is -0.8901 and Call times are: 32117
C	1.04416	0.14734	-0.417637
C	-0.057979	0.0686	-1.2173
C	-1.16757	-0.115	-0.336831
C	-0.645527	-0.132248	0.92315
O	0.703854	0.0266489	0.892568
H	2.11158	0.286258	-0.655478
H	-0.086722	0.133315	-2.31688
H	-2.22766	-0.220941	-0.618023
H	-1.12199	-0.248791	1.9104
C	5.66167	0.792894	0.737069
C	4.94354	-0.333804	1.07763
N	4.5631	-1.02275	-0.025605
C	5.04339	-0.326107	-1.0467
N	5.71365	0.777533	-0.638886
H	6.12399	1.57833	1.35585
H	4.69311	-0.661936	2.09962
H	4.93329	-0.579101	-2.11352
H	6.18342	1.48645	-1.25372
