18
  This energy is -1.418 and Call times are: 31957
C	0.254443	-0.998583	0.473805
C	0.142778	0.14861	1.20309
C	-0.18284	1.17697	0.266835
C	-0.241412	0.567411	-0.951927
O	0.0230076	-0.761306	-0.844205
H	0.490634	-2.03361	0.770757
H	0.276313	0.259542	2.29119
H	-0.351964	2.24375	0.484694
H	-0.458285	0.963243	-1.95768
C	4.42025	-0.2219	1.11054
C	3.6556	-1.02714	0.293201
N	3.48056	-0.460692	-0.925406
C	4.13413	0.69158	-0.864294
N	4.71777	0.881763	0.342683
H	4.76233	-0.35181	2.1496
H	3.22708	-2.0067	0.560959
H	4.21744	1.43382	-1.67446
H	5.28822	1.71181	0.6374
