18
  This energy is -1.5736 and Call times are: 96932
C	0.71087	-0.800631	0.374239
C	0.34217	0.265265	1.14125
C	-0.547584	1.03834	0.334514
C	-0.644054	0.376608	-0.85426
O	0.117973	-0.748683	-0.847558
H	1.3794	-1.65276	0.579677
H	0.66443	0.485077	2.17174
H	-1.05234	1.97671	0.61516
H	-1.21353	0.600135	-1.77131
C	4.17813	1.01122	0.601708
C	3.50352	0.729122	-0.567253
N	3.75783	-0.534599	-0.985399
C	4.58705	-1.03458	-0.0792901
N	4.87089	-0.141365	0.89805
H	4.21308	1.92027	1.22295
H	2.83785	1.41479	-1.11643
H	5.01688	-2.04921	-0.0831708
H	5.49901	-0.297157	1.72416
