18
  This energy is -0.6832 and Call times are: 84439
C	0.965594	-0.594142	0.0320036
C	-0.0768434	-0.848595	0.873996
C	-1.09476	0.0931015	0.531707
C	-0.584504	0.839882	-0.489237
O	0.672877	0.433895	-0.807323
H	1.95624	-1.06713	-0.0687812
H	-0.124227	-1.62186	1.65753
H	-2.0883	0.195141	0.997081
H	-1.0102	1.67717	-1.06628
C	6.29889	0.916102	-0.432638
C	4.93154	0.816168	-0.286036
N	4.58332	-0.380578	0.245993
C	5.73029	-1.02064	0.428752
N	6.79386	-0.280752	0.0350604
H	6.93358	1.72716	-0.823646
H	4.19002	1.58614	-0.554619
H	5.84858	-2.03308	0.847323
H	7.8032	-0.564724	0.0779335
