18
  This energy is -1.4711 and Call times are: 61701
C	0.320072	0.309598	-1.04312
C	0.298513	-0.994001	-0.642448
C	-0.152949	-0.979151	0.712571
C	-0.36742	0.332211	1.02031
O	-0.0836006	1.13322	-0.040273
H	0.59906	0.774995	-2.00272
H	0.572994	-1.87743	-1.24104
H	-0.2981	-1.84878	1.37346
H	-0.716598	0.818271	1.94609
C	5.59686	-0.370414	0.211604
C	4.69002	-0.927397	-0.665063
N	3.51962	-0.244313	-0.656871
C	3.69969	0.73272	0.221537
N	4.93615	0.699607	0.772588
H	6.63112	-0.650428	0.46743
H	4.85928	-1.8099	-1.30334
H	2.95916	1.50004	0.499142
H	5.31863	1.36271	1.49041
