18
  This energy is -0.7466 and Call times are: 163837
C	-0.24052	0.989622	0.499198
C	-1.15902	-0.0119492	0.382645
C	-0.490743	-1.07872	-0.292285
C	0.777139	-0.634861	-0.52859
O	0.947492	0.626391	-0.0518954
H	-0.307682	1.99473	0.946961
H	-2.20247	-0.000675248	0.736456
H	-0.913033	-2.059	-0.565816
H	1.63982	-1.11405	-1.01992
C	6.82623	-0.185134	-0.287105
C	6.24429	-0.379716	0.947653
N	4.92612	-0.0662514	0.921436
C	4.6912	0.321322	-0.324847
N	5.80525	0.267452	-1.09269
H	7.86016	-0.331808	-0.637845
H	6.75194	-0.740671	1.85697
H	3.72161	0.654618	-0.728642
H	5.87749	0.52196	-2.1082
