18
  This energy is -1.3677 and Call times are: 74966
C	0.621385	-0.509366	0.800517
C	0.954469	0.707021	0.281065
C	-0.0539785	1.00938	-0.684196
C	-0.914288	-0.0489295	-0.66939
O	-0.51717	-0.985763	0.231526
H	1.10585	-1.13354	1.56925
H	1.82316	1.32897	0.550584
H	-0.122628	1.91237	-1.31188
H	-1.83297	-0.252404	-1.24373
C	4.32996	-1.05839	-0.209674
C	4.08116	0.108994	-0.899924
N	4.79525	1.14087	-0.388233
C	5.48444	0.61562	0.615639
N	5.23846	-0.707673	0.76389
H	3.9379	-2.07983	-0.338091
H	3.39918	0.22519	-1.75798
H	6.18371	1.15501	1.27466
H	5.65957	-1.34505	1.48338
