18
  This energy is -1.1208 and Call times are: 132992
C	0.769628	0.789651	0.265565
C	0.343557	0.586135	-1.01405
C	-0.610272	-0.474755	-0.944492
C	-0.682873	-0.82588	0.371492
O	0.153179	-0.0639682	1.12483
H	1.49751	1.50086	0.689377
H	0.668365	1.12866	-1.91642
H	-1.17204	-0.918321	-1.7822
H	-1.28215	-1.5908	0.892092
C	4.01011	-0.22428	-0.595735
C	4.51657	1.01596	-0.26947
N	5.67685	0.903556	0.421646
C	5.88937	-0.401447	0.523742
N	4.91242	-1.12404	-0.0737649
H	3.10174	-0.520387	-1.14413
H	4.06557	1.98986	-0.520369
H	6.7446	-0.882063	1.02557
H	4.85354	-2.17034	-0.1289
