18
  This energy is -1.1204 and Call times are: 195794
C	0.911131	-0.421329	-0.527942
C	0.854488	-0.275348	0.826996
C	-0.43233	0.277541	1.10723
C	-1.04845	0.420615	-0.101204
O	-0.242454	-0.00125987	-1.11086
H	1.70459	-0.806503	-1.18924
H	1.64007	-0.531327	1.55599
H	-0.84284	0.53547	2.0967
H	-2.04547	0.804732	-0.37259
C	5.75032	0.0753352	0.978008
C	5.68394	-0.992818	0.108647
N	4.83288	-0.737806	-0.914663
C	4.37302	0.483904	-0.681025
N	4.89622	1.0168	0.448522
H	6.32571	0.227072	1.90507
H	6.2349	-1.94292	0.201451
H	3.65158	1.03575	-1.30489
H	4.69045	1.96625	0.845337
