18
  This energy is -0.9308 and Call times are: 4159
C	-0.218884	-1.0676	-0.314191
C	-0.50893	0.00188975	-1.10945
C	-0.0929045	1.15659	-0.378893
C	0.414644	0.690783	0.798304
O	0.345646	-0.665337	0.854783
H	-0.363211	-2.15024	-0.463598
H	-0.969629	-0.0201256	-2.11013
H	-0.16691	2.20786	-0.700531
H	0.849176	1.2148	1.66539
C	5.596	0.813999	-0.827092
C	6.53004	0.247556	0.0142473
N	5.95542	-0.656542	0.844264
C	4.66979	-0.650998	0.519081
N	4.40258	0.219151	-0.483433
H	5.69287	1.57299	-1.61961
H	7.60827	0.475029	0.037235
H	3.88069	-1.2644	0.983089
H	3.46495	0.40521	-0.916421
