18
  This energy is -0.7428 and Call times are: 128381
C	0.469522	0.987359	0.301781
C	-0.404282	0.317715	1.10702
C	-0.770091	-0.862648	0.390752
C	-0.0875334	-0.810108	-0.788964
O	0.674466	0.312966	-0.860202
H	1.00716	1.93992	0.438977
H	-0.755963	0.624211	2.10526
H	-1.46179	-1.65329	0.723219
H	-0.0588841	-1.4999	-1.64839
C	6.615	0.333198	0.175639
C	6.17887	-0.899355	-0.262253
N	4.82716	-0.935763	-0.352076
C	4.42625	0.26962	0.0286446
N	5.46684	1.07146	0.356984
H	7.62739	0.724164	0.364735
H	6.81532	-1.76301	-0.514985
H	3.38244	0.618141	0.0854363
H	5.40986	2.06605	0.686849
