18
  This energy is -1.1908 and Call times are: 68078
C	0.863682	0.550914	-0.486774
C	1.02406	-0.648926	0.141747
C	-0.271102	-1.0167	0.61864
C	-1.1086	-0.00913437	0.239443
O	-0.432437	0.956601	-0.436705
H	1.58319	1.20836	-1.00188
H	1.96046	-1.21792	0.257897
H	-0.538539	-1.92754	1.17806
H	-2.19118	0.13659	0.387888
C	5.72568	-0.736381	0.752658
C	5.75656	0.641703	0.785453
N	5.04042	1.17095	-0.236091
C	4.56707	0.125169	-0.9001
N	4.95234	-1.04753	-0.343388
H	6.18401	-1.49245	1.4098
H	6.28275	1.26358	1.52791
H	3.93324	0.161383	-1.80076
H	4.70842	-2.01034	-0.68215
