18
  This energy is -1.0297 and Call times are: 148035
C	-9.52745e-05	-0.630989	-0.942472
C	0.689677	-0.991291	0.177693
C	0.447008	0.0405124	1.13509
C	-0.369635	0.94025	0.515462
O	-0.652821	0.546051	-0.753957
H	-0.105325	-1.11958	-1.92505
H	1.3074	-1.89318	0.315919
H	0.839175	0.0976779	2.16321
H	-0.812516	1.88731	0.86501
C	5.76795	-0.934208	-0.435641
C	5.91725	0.380256	-0.824277
N	5.10487	1.19634	-0.109746
C	4.45406	0.391214	0.719014
N	4.81868	-0.903316	0.561416
H	6.25383	-1.85858	-0.786337
H	6.5966	0.754402	-1.60745
H	3.6998	0.69711	1.46181
H	4.44874	-1.72661	1.09676
