18
  This energy is -0.9677 and Call times are: 140857
C	0.0288011	0.0166315	-1.13371
C	0.82759	-0.805706	-0.394742
C	0.505102	-0.540088	0.971116
C	-0.462287	0.421116	0.946231
O	-0.765392	0.772915	-0.331023
H	-0.0681564	0.156313	-2.2229
H	1.56948	-1.52699	-0.773479
H	0.947245	-1.01448	1.86193
H	-1.00796	0.930378	1.75749
C	5.64879	-0.327795	0.988165
C	5.73582	0.896797	0.360515
N	4.96993	0.928605	-0.75703
C	4.40989	-0.27169	-0.822426
N	4.7877	-1.06589	0.207184
H	6.12288	-0.713387	1.90474
H	6.33752	1.75795	0.694019
H	3.71537	-0.621764	-1.60301
H	4.48277	-2.05538	0.377994
