18
  This energy is -0.4959 and Call times are: 203218
C	1.03427	-0.338778	-0.319245
C	0.748038	0.963936	-0.0339705
C	-0.63457	0.991249	0.323475
C	-1.07118	-0.297186	0.225077
O	-0.0651673	-1.1229	-0.166268
H	1.96879	-0.829175	-0.63772
H	1.44101	1.81979	-0.0714872
H	-1.22673	1.87249	0.618202
H	-2.06042	-0.749582	0.403953
C	7.19508	0.577485	0.647646
C	7.31083	0.219316	-0.678801
N	6.20466	-0.436657	-1.10612
C	5.40571	-0.48525	-0.0487854
N	5.95769	0.112612	1.03356
H	7.88276	1.11244	1.32179
H	8.17268	0.422467	-1.33515
H	4.40569	-0.946598	-0.0120735
H	5.5254	0.204513	1.98537
