18
  This energy is -0.8915 and Call times are: 187911
C	0.658846	0.155754	-0.90998
C	1.17049	0.0106139	0.346017
C	0.0454607	-0.16168	1.209
C	-1.05436	-0.106617	0.404179
O	-0.698345	0.0867598	-0.893077
H	1.14836	0.312041	-1.88527
H	2.2335	0.0235801	0.635728
H	0.0627658	-0.308859	2.30085
H	-2.13021	-0.190059	0.629641
C	5.98316	0.218558	-1.15051
C	7.12437	-0.199508	-0.499348
N	6.90072	-0.35357	0.828341
C	5.62563	-0.0323014	1.00019
N	5.02869	0.319787	-0.163124
H	5.78918	0.443685	-2.21128
H	8.1051	-0.392735	-0.963754
H	5.07858	-0.0376271	1.95672
H	4.02922	0.613854	-0.288936
