18
  This energy is -2.085 and Call times are: 105167
C	-0.494164	-0.877381	-0.521925
C	-0.356143	0.342566	-1.11611
C	0.304009	1.17148	-0.158398
C	0.511122	0.384904	0.936485
O	0.0299415	-0.869549	0.731974
H	-0.940864	-1.8191	-0.880921
H	-0.686106	0.629911	-2.12737
H	0.587653	2.2293	-0.279476
H	0.982959	0.596545	1.91005
C	3.40003	-0.574827	-0.982184
C	3.65177	0.775077	-0.85756
N	3.9706	1.0968	0.419684
C	3.91687	-0.0491654	1.0849
N	3.57706	-1.08669	0.283853
H	3.11688	-1.18702	-1.85315
H	3.60905	1.52265	-1.66636
H	4.11715	-0.185169	2.1599
H	3.46903	-2.08988	0.572265
