18
  This energy is -1.0415 and Call times are: 72764
C	-1.02487	0.180339	-0.451122
C	-0.331486	-0.976817	-0.65256
C	0.894324	-0.828131	0.0653539
C	0.841799	0.406758	0.642123
O	-0.323249	1.03662	0.337244
H	-2.01337	0.512072	-0.809
H	-0.651149	-1.84772	-1.24706
H	1.71404	-1.56084	0.138148
H	1.5589	0.945373	1.28315
C	6.04326	-0.215696	0.792141
C	5.02464	-1.06532	0.415718
N	4.23203	-0.492401	-0.522392
C	4.75694	0.708081	-0.727167
N	5.85068	0.922739	0.0417637
H	6.86417	-0.336606	1.51672
H	4.84742	-2.08144	0.804221
H	4.38024	1.46965	-1.42884
H	6.43974	1.79098	0.0623878
