18
  This energy is -0.6925 and Call times are: 50803
C	0.649451	-0.792536	0.486313
C	0.869453	0.541835	0.663592
C	-0.139441	1.20879	-0.0962892
C	-0.886903	0.223109	-0.67084
O	-0.41926	-1.00542	-0.325813
H	1.17533	-1.67861	0.878186
H	1.66263	1.00954	1.26875
H	-0.28403	2.29643	-0.197431
H	-1.7648	0.265033	-1.33627
C	5.74388	-0.845313	0.777781
C	4.84751	-0.0792228	0.0630951
N	5.4903	0.80035	-0.742942
C	6.78052	0.580758	-0.529112
N	6.98531	-0.402073	0.379565
H	5.59129	-1.64777	1.51691
H	3.74851	-0.145397	0.114614
H	7.61741	1.11118	-1.01129
H	7.91303	-0.758525	0.716533
