18
  This energy is -0.8151 and Call times are: 33112
C	-0.0363713	1.13318	-0.0312293
C	-0.825892	0.399809	0.804949
C	-0.495809	-0.967263	0.555395
C	0.466282	-0.948606	-0.411251
O	0.759079	0.3259	-0.781272
H	0.0526527	2.22107	-0.185595
H	-1.56643	0.783073	1.52523
H	-0.929541	-1.85468	1.04372
H	1.01458	-1.76287	-0.912846
C	6.23392	-0.0839983	0.711218
C	6.06961	-0.693977	-0.514372
N	4.8704	-0.377799	-1.06068
C	4.29296	0.425274	-0.177359
N	5.07504	0.633172	0.908327
H	7.06577	-0.108691	1.43299
H	6.79487	-1.35655	-1.01422
H	3.29823	0.889092	-0.275492
H	4.84285	1.22745	1.7415
