18
  This energy is -0.6884 and Call times are: 61108
C	0.421305	0.66733	0.814601
C	1.20558	-0.173171	0.0805356
C	0.325263	-0.834401	-0.829378
C	-0.919242	-0.339596	-0.571024
O	-0.879191	0.578669	0.430075
H	0.664654	1.37027	1.62817
H	2.29474	-0.313459	0.17076
H	0.596181	-1.5893	-1.58491
H	-1.90076	-0.556687	-1.0235
C	7.05848	-0.395537	-0.329049
C	6.3486	-0.766645	0.793228
N	5.16407	-0.111807	0.860836
C	5.13918	0.6626	-0.215407
N	6.25878	0.527637	-0.96499
H	8.04328	-0.712486	-0.707531
H	6.66992	-1.49517	1.55537
H	4.32556	1.34795	-0.502708
H	6.47621	1.03045	-1.86007
