18
  This energy is -1.2207 and Call times are: 205542
C	0.304947	-1.02089	-0.388833
C	0.594041	-0.605453	0.877741
C	0.0549186	0.712485	0.989565
C	-0.516034	0.986076	-0.218547
O	-0.372711	-0.0614704	-1.07243
H	0.52355	-1.96359	-0.916837
H	1.13288	-1.17041	1.65528
H	0.0926497	1.37254	1.87104
H	-1.04757	1.87716	-0.59096
C	5.55951	0.410352	-0.691333
C	4.37589	1.04434	-0.377885
N	3.61647	0.281951	0.445865
C	4.32627	-0.820801	0.642702
N	5.50583	-0.791665	-0.0216615
H	6.40792	0.719197	-1.3225
H	4.05627	2.03819	-0.731358
H	4.02941	-1.68101	1.26411
H	6.23967	-1.54182	-0.0258277
