18
  This energy is -1.8242 and Call times are: 191786
C	0.2354	0.609229	-0.927269
C	0.471679	-0.732169	-0.855181
C	0.0508931	-1.13375	0.449346
C	-0.405377	-0.00230011	1.05928
O	-0.300124	1.07163	0.233079
H	0.402148	1.33848	-1.73698
H	0.899379	-1.37443	-1.64174
H	0.0874759	-2.14927	0.875337
H	-0.82411	0.168195	2.06468
C	4.04093	0.696249	0.947017
C	4.37446	-0.641408	0.922903
N	4.34256	-1.13025	-0.340636
C	3.99058	-0.0997696	-1.09751
N	3.79721	1.02446	-0.367921
H	3.96239	1.41389	1.7791
H	4.63754	-1.26255	1.79458
H	3.85988	-0.113232	-2.19157
H	3.51532	1.96663	-0.734158
