18
  This energy is -1.4102 and Call times are: 24445
C	-0.834523	0.761484	0.100572
C	-0.298801	0.420067	-1.10641
C	0.709504	-0.551882	-0.825784
C	0.700933	-0.718609	0.527916
O	-0.235875	0.0757033	1.1097
H	-1.63502	1.46945	0.371191
H	-0.584962	0.813223	-2.09517
H	1.36056	-1.06215	-1.5537
H	1.30339	-1.36301	1.189
C	5.31066	0.369597	-1.0733
C	6.10825	-0.289786	-0.162141
N	5.42517	-0.566185	0.975186
C	4.20844	-0.0801226	0.77037
N	4.08905	0.494086	-0.45013
H	5.519	0.746484	-2.08725
H	7.16434	-0.571039	-0.305013
H	3.3669	-0.117648	1.48074
H	3.22963	0.947691	-0.84623
