18
  This energy is -1.097 and Call times are: 10669
C	-0.663812	0.450551	-0.801722
C	-1.1618	-0.0316048	0.372972
C	-0.0344557	-0.508069	1.10931
C	1.05292	-0.275011	0.319579
O	0.687034	0.309945	-0.851303
H	-1.15969	0.912143	-1.67137
H	-2.21714	-0.0499079	0.689231
H	-0.0419359	-0.969242	2.10999
H	2.12563	-0.476372	0.47447
C	5.23276	-0.824178	0.771423
C	5.08082	0.524371	1.01529
N	4.68468	1.18135	-0.101829
C	4.59122	0.243938	-1.03518
N	4.91148	-0.982253	-0.55823
H	5.53665	-1.65484	1.42808
H	5.24993	1.03506	1.97729
H	4.29276	0.400617	-2.08428
H	4.91447	-1.88195	-1.09841
