18
  This energy is -1.6161 and Call times are: 154098
C	0.53814	0.796906	0.601455
C	0.604729	-0.527754	0.919602
C	-0.190519	-1.20439	-0.0550042
C	-0.67287	-0.233488	-0.882683
O	-0.237889	0.994807	-0.496555
H	0.991528	1.68527	1.07103
H	1.15832	-0.982754	1.75662
H	-0.376105	-2.28833	-0.123871
H	-1.32599	-0.286605	-1.76917
C	5.28091	-0.795628	0.867009
C	6.39647	-0.275648	0.24548
N	6.05013	0.619276	-0.711427
C	4.72475	0.654348	-0.683643
N	4.21344	-0.181163	0.251275
H	5.17467	-1.53479	1.67688
H	7.44503	-0.530189	0.470369
H	4.07866	1.27408	-1.32608
H	3.19742	-0.332112	0.466153
