18
  This energy is -0.5085 and Call times are: 77462
C	1.06185	0.348355	-0.193694
C	0.0719111	0.470452	-1.12401
C	-1.10254	-0.0721438	-0.518729
C	-0.726618	-0.477914	0.728028
O	0.591913	-0.228756	0.943456
H	2.12741	0.629807	-0.218722
H	0.159901	0.89956	-2.13506
H	-2.1062	-0.147375	-0.967176
H	-1.2952	-0.95143	1.54519
C	5.98126	1.07068	-0.473948
C	5.18991	-0.0327221	-0.713547
N	5.61322	-1.10243	0.00272526
C	6.66318	-0.664309	0.684089
N	6.92547	0.639821	0.431037
H	5.94066	2.09776	-0.870183
H	4.32111	-0.0761323	-1.39041
H	7.27634	-1.25642	1.38242
H	7.70046	1.21344	0.845305
