18
  This energy is -0.7359 and Call times are: 179731
C	-0.377526	-1.04899	-0.208568
C	0.834925	-0.607659	-0.650798
C	0.949583	0.741462	-0.195998
C	-0.202923	1.00547	0.484006
O	-1.02488	-0.0768451	0.486332
H	-0.887539	-2.01983	-0.32081
H	1.57436	-1.17522	-1.23834
H	1.7956	1.4279	-0.360802
H	-0.553401	1.91179	1.00457
C	6.79744	-0.282665	0.317535
C	6.41675	0.745738	-0.518293
N	5.07014	0.782367	-0.665954
C	4.61714	-0.219503	0.0754486
N	5.61971	-0.892071	0.68872
H	7.78998	-0.612957	0.662942
H	7.08961	1.46195	-1.01743
H	3.56067	-0.504848	0.204588
H	5.51905	-1.72001	1.32562
