18
  This energy is -1.4019 and Call times are: 31663
C	0.769689	0.829098	0.0810888
C	0.0582839	0.601946	-1.06026
C	-0.795194	-0.507199	-0.774793
C	-0.529994	-0.859917	0.515801
O	0.423221	-0.0544149	1.05391
H	1.54112	1.57789	0.324922
H	0.12758	1.15951	-2.00811
H	-1.5192	-0.980581	-1.4573
H	-0.946089	-1.65439	1.15683
C	4.32124	0.938674	0.709601
C	4.71847	0.889632	-0.609849
N	4.55749	-0.354392	-1.12269
C	4.06228	-1.07437	-0.125179
N	3.9015	-0.340015	1.00108
H	4.308	1.76544	1.43749
H	5.11834	1.72959	-1.20097
H	3.7994	-2.14373	-0.16518
H	3.52822	-0.679952	1.92106
