18
  This energy is -0.8556 and Call times are: 26969
C	0.048943	0.982669	-0.56424
C	-0.765715	-0.041122	-0.949672
C	-0.549142	-1.0901	-0.00475581
C	0.378742	-0.614717	0.874687
O	0.755148	0.649681	0.548147
H	0.215286	1.98518	-0.991506
H	-1.45046	-0.0561324	-1.8128
H	-1.03258	-2.08012	0.0104072
H	0.846425	-1.07175	1.76218
C	5.53548	0.975144	0.174231
C	5.17493	0.0418826	1.12301
N	4.44188	-0.956276	0.572701
C	4.34803	-0.643434	-0.712579
N	4.99097	0.512398	-1.00287
H	6.12146	1.90482	0.250839
H	5.4306	0.0708846	2.19475
H	3.82022	-1.22566	-1.48502
H	5.06127	0.969036	-1.9451
