18
  This energy is -1.0287 and Call times are: 139796
C	1.03686	0.323679	-0.326415
C	-0.072163	1.08309	-0.558204
C	-1.16886	0.351546	-0.00846335
C	-0.633195	-0.790325	0.510735
O	0.712743	-0.823941	0.325448
H	2.09905	0.486725	-0.572246
H	-0.113772	2.06038	-1.06542
H	-2.22984	0.648867	-0.00470326
H	-1.09696	-1.64515	1.02981
C	4.83523	-0.0564024	-1.17376
C	4.54721	-1.06574	-0.279661
N	4.73021	-0.653455	0.998243
C	5.13024	0.606866	0.897303
N	5.20936	1.01357	-0.391853
H	4.80157	-0.0248636	-2.2744
H	4.21063	-2.08408	-0.533757
H	5.37864	1.27768	1.73548
H	5.50026	1.96307	-0.731097
