18
  This energy is -1.2548 and Call times are: 11486
C	0.111564	0.780292	0.815536
C	0.392747	1.0455	-0.492506
C	0.133761	-0.16696	-1.20172
C	-0.282822	-1.06606	-0.264455
O	-0.302385	-0.504565	0.973024
H	0.164799	1.41199	1.71741
H	0.747	1.99926	-0.915521
H	0.247289	-0.340174	-2.28394
H	-0.58994	-2.12138	-0.349375
C	5.21697	-0.0372336	-1.05662
C	3.86272	-0.0380116	-0.797492
N	3.62014	0.0122421	0.534851
C	4.81934	0.0440751	1.10012
N	5.81487	0.0161588	0.182671
H	5.77879	-0.0698101	-2.00364
H	3.05633	-0.0739332	-1.54802
H	5.02567	0.0881245	2.18166
H	6.84579	0.0321427	0.378161
