18
  This energy is -1.3501 and Call times are: 21849
C	-0.781014	-0.688207	-0.450321
C	0.212592	-0.124438	-1.19549
C	0.982975	0.664147	-0.28733
C	0.392131	0.512655	0.93264
O	-0.686637	-0.309966	0.851616
H	-1.60522	-1.36695	-0.724622
H	0.385662	-0.251176	-2.27627
H	1.87211	1.27039	-0.523975
H	0.639835	0.93115	1.92196
C	5.50516	0.857099	-0.0467544
C	4.97538	0.280434	1.08812
N	4.07092	-0.678126	0.772483
C	4.03972	-0.696058	-0.55316
N	4.88683	0.211357	-1.09407
H	6.25347	1.65469	-0.178791
H	5.22956	0.538856	2.12901
H	3.4147	-1.35378	-1.17844
H	5.04287	0.389122	-2.11648
