18
  This energy is -0.7586 and Call times are: 185722
C	-0.956358	0.234449	0.562863
C	-0.338777	1.14781	-0.24009
C	0.815451	0.490051	-0.764708
C	0.80131	-0.767198	-0.236031
O	-0.273763	-0.940657	0.577075
H	-1.87428	0.297165	1.1701
H	-0.663449	2.18109	-0.442633
H	1.56363	0.911941	-1.45488
H	1.48938	-1.61969	-0.35875
C	5.21897	0.850692	-0.444534
C	4.79965	-0.339962	0.110136
N	5.8539	-1.08519	0.522071
C	6.92319	-0.359615	0.224088
N	6.59299	0.816381	-0.360368
H	4.65562	1.69193	-0.87871
H	3.7553	-0.674638	0.220472
H	7.97161	-0.64194	0.412073
H	7.25712	1.56029	-0.687138
