18
  This energy is -1.1581 and Call times are: 88239
C	-0.373858	1.06699	-0.0903414
C	0.503388	0.680074	0.879766
C	0.730781	-0.714021	0.667848
C	-0.0275809	-1.05595	-0.413052
O	-0.708807	0.0194964	-0.888825
H	-0.829615	2.04505	-0.31604
H	0.945958	1.31289	1.66575
H	1.38471	-1.377	1.25685
H	-0.166942	-2.01764	-0.933615
C	5.71897	-0.607642	-0.587502
C	5.20446	0.626632	-0.923644
N	4.27637	1.03097	-0.0227097
C	4.21536	0.0512583	0.868957
N	5.06614	-0.959674	0.572707
H	6.47814	-1.23932	-1.07553
H	5.48628	1.23264	-1.8001
H	3.56502	0.0229505	1.75806
H	5.2025	-1.84329	1.12215
