18
  This energy is -0.6124 and Call times are: 44972
C	0.634513	-0.895401	-0.286445
C	0.922771	0.36914	-0.708603
C	-0.0887262	1.20821	-0.149176
C	-0.905803	0.382337	0.565455
O	-0.479008	-0.905901	0.49264
H	1.13712	-1.85944	-0.468828
H	1.76337	0.679885	-1.34964
H	-0.188311	2.29886	-0.270234
H	-1.81059	0.585777	1.16146
C	8.34124	0.65077	0.641997
C	8.62503	-0.536469	0.000849482
N	7.53513	-1.0144	-0.647388
C	6.57883	-0.127026	-0.409295
N	7.01509	0.895696	0.363562
H	8.96823	1.31648	1.2562
H	9.59668	-1.05676	-0.00560836
H	5.54115	-0.177383	-0.776598
H	6.45065	1.71846	0.688722
