18
  This energy is -0.6488 and Call times are: 36718
C	1.10475	-0.24676	-0.0709747
C	0.214697	-1.05833	0.568974
C	-1.05644	-0.418742	0.445499
C	-0.830955	0.727208	-0.259004
O	0.483431	0.848311	-0.582632
H	2.19203	-0.335598	-0.229663
H	0.43153	-2.01173	1.07702
H	-2.02113	-0.777651	0.838772
H	-1.51234	1.52829	-0.589496
C	5.06032	-0.945541	-0.286093
C	5.50935	-0.599666	0.970842
N	6.21854	0.554603	0.935871
C	6.2095	0.923402	-0.337915
N	5.52396	0.0516355	-1.11486
H	4.46355	-1.80214	-0.637723
H	5.33431	-1.16231	1.90232
H	6.68921	1.82294	-0.756183
H	5.37418	0.121957	-2.15114
