18
  This energy is -0.9471 and Call times are: 139155
C	-0.912268	0.38143	0.555588
C	-0.983515	-0.111204	-0.714297
C	0.349953	-0.484844	-1.06412
C	1.11835	-0.187553	0.0228781
O	0.363867	0.342322	1.02138
H	-1.68721	0.785079	1.22774
H	-1.88468	-0.202335	-1.34174
H	0.688232	-0.923271	-2.01672
H	2.19879	-0.303787	0.208285
C	5.2583	1.10108	0.411481
C	4.90622	-0.0290182	1.11863
N	4.94533	-1.13064	0.330333
C	5.32026	-0.68565	-0.861321
N	5.52132	0.653439	-0.863913
H	5.33766	2.15694	0.715444
H	4.62467	-0.0692313	2.18351
H	5.46298	-1.29735	-1.76669
H	5.82055	1.23909	-1.68168
