18
  This energy is -1.6542 and Call times are: 25323
C	-0.42771	-0.29843	-1.00718
C	-0.803538	0.843851	-0.363498
C	-0.0578158	0.869769	0.854428
C	0.707882	-0.258961	0.847492
O	0.494693	-0.984165	-0.281951
H	-0.738836	-0.729616	-1.97285
H	-1.53275	1.59304	-0.711441
H	-0.0938815	1.64305	1.63854
H	1.43435	-0.654084	1.57644
C	3.56562	-0.259155	-0.956815
C	3.94732	0.995816	-0.531963
N	4.67184	0.925329	0.611109
C	4.73936	-0.368449	0.894311
N	4.08783	-1.12407	-0.0211853
H	2.97891	-0.587014	-1.82963
H	3.71291	1.95086	-1.02975
H	5.2532	-0.817072	1.75972
H	3.99766	-2.1696	-0.0187248
