18
  This energy is -0.8285 and Call times are: 39755
C	-0.378088	-0.573015	-0.902831
C	-1.20508	-0.165001	0.102145
C	-0.371714	0.5132	1.04324
C	0.890975	0.459756	0.530272
O	0.905587	-0.199977	-0.657815
H	-0.577698	-1.12879	-1.8337
H	-2.29285	-0.325515	0.173585
H	-0.684865	0.98307	1.98941
H	1.85092	0.84763	0.908838
C	4.85364	0.962502	-0.581995
C	4.78516	0.748638	0.778416
N	5.27306	-0.472423	1.10626
C	5.64281	-1.01401	-0.0463893
N	5.4104	-0.188163	-1.09403
H	4.55552	1.82338	-1.20131
H	4.39245	1.45352	1.52926
H	6.08926	-2.0125	-0.180298
H	5.61529	-0.386598	-2.10393
