18
  This energy is -0.9025 and Call times are: 56213
C	-0.658073	0.350266	-0.854783
C	-0.63132	0.983162	0.353149
C	0.30308	0.258021	1.15389
C	0.76484	-0.753986	0.364588
O	0.188515	-0.712836	-0.865521
H	-1.229	0.555498	-1.77521
H	-1.21139	1.87154	0.650475
H	0.591526	0.47238	2.19549
H	1.49404	-1.55772	0.558315
C	5.77542	-0.9377	0.417976
C	4.48762	-0.55248	0.725093
N	4.1444	0.578141	0.061462
C	5.2152	0.89313	-0.65463
N	6.22551	0.00979352	-0.474134
H	6.38315	-1.79058	0.75973
H	3.79999	-1.0701	1.41363
H	5.3133	1.75991	-1.3279
H	7.17147	0.0407893	-0.927415
