18
  This energy is -0.9237 and Call times are: 54524
C	-0.83663	-0.609456	0.463697
C	0.386847	-0.481427	1.05284
C	1.15608	0.347595	0.180413
C	0.334762	0.652987	-0.864837
O	-0.886132	0.0768626	-0.70828
H	-1.74379	-1.15394	0.773305
H	0.714759	-0.926165	2.00614
H	2.19898	0.673428	0.3228
H	0.497915	1.26201	-1.76912
C	5.38059	-0.0429008	1.17596
C	5.92149	-0.981081	0.322501
N	5.76719	-0.610649	-0.971904
C	5.13298	0.552911	-0.921652
N	4.87736	0.938171	0.35107
H	5.32018	-0.00523616	2.27526
H	6.42032	-1.91862	0.617531
H	4.8316	1.16528	-1.78675
H	4.38888	1.81682	0.65211
