18
  This energy is -1.2112 and Call times are: 82821
C	-0.733656	0.23158	-0.833379
C	-0.518302	1.08529	0.208343
C	0.458112	0.452637	1.03689
C	0.753234	-0.731822	0.42834
O	0.0345687	-0.883259	-0.715162
H	-1.39844	0.30092	-1.71003
H	-0.998825	2.06249	0.376445
H	0.885157	0.841802	1.97512
H	1.44704	-1.54275	0.704534
C	4.18436	0.263142	0.967905
C	4.51449	-0.996317	0.514119
N	5.23104	-0.929688	-0.634196
C	5.34501	0.366178	-0.891813
N	4.73067	1.12683	0.0449868
H	3.61822	0.594858	1.85277
H	4.24848	-1.95189	0.994714
H	5.86782	0.812823	-1.75287
H	4.68016	2.17484	0.0645341
