18
  This energy is -1.2574 and Call times are: 62438
C	0.695131	0.425694	0.788656
C	0.0332966	1.21564	-0.104837
C	-0.730697	0.327037	-0.921421
C	-0.468286	-0.927483	-0.454845
O	0.400531	-0.885992	0.5894
H	1.39479	0.671957	1.60419
H	0.0785568	2.31392	-0.181224
H	-1.39556	0.599361	-1.75682
H	-0.831653	-1.91763	-0.775511
C	5.2792	-0.089821	0.877421
C	5.0089	-1.03515	-0.0892404
N	4.05278	-0.599334	-0.945047
C	3.73115	0.611758	-0.510955
N	4.443	0.964586	0.585574
H	5.98393	-0.0927125	1.72411
H	5.48665	-2.02385	-0.1845
H	2.98104	1.28333	-0.958783
H	4.37153	1.86904	1.11294
