18
  This energy is -1.3905 and Call times are: 112173
C	-0.344774	0.735887	-0.791203
C	0.374536	-0.381855	-1.09718
C	0.615812	-1.04382	0.145283
C	0.0226432	-0.272157	1.10083
O	-0.568776	0.818792	0.546692
H	-0.751404	1.54015	-1.42608
H	0.702343	-0.707531	-2.09746
H	1.16788	-1.98479	0.299854
H	-0.0482743	-0.388955	2.19471
C	5.29346	-0.86913	0.0115381
C	4.15606	-0.776701	0.785443
N	3.46992	0.359478	0.511899
C	4.17897	0.969583	-0.428131
N	5.2878	0.268693	-0.764036
H	6.08025	-1.63841	-0.0404387
H	3.81823	-1.50947	1.53629
H	3.93172	1.93154	-0.905355
H	6.0063	0.54029	-1.47905
