18
  This energy is -0.9604 and Call times are: 181555
C	-1.10878	0.238732	0.00479668
C	-0.474269	-0.26245	-1.09365
C	0.892601	-0.428422	-0.713868
C	0.972705	-0.0140117	0.583137
O	-0.240256	0.396781	1.03809
H	-2.16057	0.520769	0.176374
H	-0.923684	-0.492218	-2.07311
H	1.71368	-0.81246	-1.34031
H	1.82278	0.0370913	1.28315
C	5.02794	-0.818861	-0.512734
C	4.66952	0.479224	-0.216663
N	5.69142	1.14589	0.373074
C	6.68004	0.264738	0.442595
N	6.32952	-0.934941	-0.0784619
H	4.46758	-1.64081	-0.985945
H	3.69188	0.946689	-0.418012
H	7.68146	0.445432	0.865359
H	6.93409	-1.7905	-0.139924
