18
  This energy is -1.1881 and Call times are: 199534
C	-0.524904	1.00216	-0.0809417
C	-1.07202	-0.0576167	0.580802
C	-0.126609	-1.12188	0.463949
C	0.914784	-0.618505	-0.258886
O	0.688399	0.677407	-0.600021
H	-0.893639	2.02694	-0.251537
H	-2.04387	-0.0869681	1.09922
H	-0.219696	-2.14045	0.873748
H	1.8615	-1.07454	-0.592071
C	4.98644	1.07805	0.421063
C	6.09099	0.674714	-0.298955
N	6.00944	-0.638316	-0.624241
C	4.85867	-1.04799	-0.107985
N	4.20465	-0.0500534	0.532294
H	4.71061	2.05541	0.84793
H	6.9453	1.30761	-0.589559
H	4.44681	-2.0682	-0.16942
H	3.27847	-0.12198	1.02045
