18
  This energy is -0.5741 and Call times are: 151118
C	-0.209145	-0.823744	0.75107
C	-1.19384	-0.0218769	0.253307
C	-0.547257	0.877283	-0.64867
C	0.775472	0.545505	-0.62247
O	0.999944	-0.491277	0.227064
H	-0.239193	-1.65553	1.4739
H	-2.26777	-0.0597637	0.496868
H	-1.0202	1.67516	-1.24349
H	1.64508	0.964812	-1.15465
C	6.13064	0.456877	0.697415
C	4.85356	0.0880282	1.06368
N	4.16407	-0.40244	0.00512106
C	5.0102	-0.33811	-1.01398
N	6.20947	0.172959	-0.647711
H	6.96124	0.886963	1.27938
H	4.41731	0.167019	2.07279
H	4.80313	-0.651885	-2.04978
H	7.04092	0.324122	-1.26988
