18
  This energy is -0.5962 and Call times are: 145043
C	-0.477374	-0.92947	-0.441135
C	-1.11485	-0.145649	0.475177
C	-0.205793	0.911498	0.785309
C	0.906939	0.680362	0.0311359
O	0.758469	-0.439841	-0.723922
H	-0.791396	-1.84957	-0.960798
H	-2.12399	-0.296745	0.890987
H	-0.369977	1.74301	1.48938
H	1.85777	1.23117	-0.0570097
C	5.86763	1.09684	-0.405596
C	4.95658	0.0657965	-0.495398
N	5.43809	-1.06316	0.0791473
C	6.64328	-0.733746	0.523692
N	6.94855	0.558013	0.255812
H	5.8247	2.14104	-0.753931
H	3.96044	0.116285	-0.964462
H	7.34412	-1.39983	1.05226
H	7.839	1.05449	0.504566
