18
  This energy is -0.5741 and Call times are: 37614
C	0.584375	0.967099	-0.0981108
C	-0.729031	0.868159	-0.45244
C	-1.10482	-0.484041	-0.187001
C	0.0121223	-1.09204	0.306102
O	1.05322	-0.220607	0.367244
H	1.28795	1.81521	-0.128607
H	-1.36903	1.66722	-0.85986
H	-2.09411	-0.941834	-0.347698
H	0.192829	-2.12538	0.644938
C	6.40058	-0.398931	-0.121134
C	5.24895	-1.15441	-0.0567105
N	4.15518	-0.366849	0.084457
C	4.62647	0.872497	0.107522
N	5.97477	0.906139	-0.0131174
H	7.45773	-0.688016	-0.232487
H	5.18768	-2.25364	-0.109561
H	4.02826	1.79213	0.21071
H	6.58038	1.76311	-0.0225686
