18
  This energy is -1.0735 and Call times are: 170658
C	-0.296626	0.420595	-1.0107
C	-0.920834	0.78798	0.145054
C	-0.275682	0.0554331	1.18778
C	0.685817	-0.694933	0.577168
O	0.687183	-0.484389	-0.765471
H	-0.456978	0.726882	-2.05747
H	-1.75219	1.5031	0.252532
H	-0.507375	0.0896508	2.26446
H	1.42313	-1.40791	0.981244
C	5.27245	-0.948752	-0.18104
C	4.12241	-0.607651	-0.860902
N	3.60297	0.552521	-0.391121
C	4.42762	0.929724	0.576499
N	5.45023	0.0576469	0.741858
H	5.95418	-1.80778	-0.285192
H	3.65817	-1.17789	-1.68197
H	4.3296	1.83588	1.19578
H	6.22996	0.133667	1.44007
