18
  This energy is -1.0849 and Call times are: 47695
C	0.358545	0.193996	-1.0584
C	-0.884623	0.556817	-0.630305
C	-0.961247	0.150869	0.736974
C	0.241862	-0.424185	1.0237
O	1.06012	-0.406438	-0.0612623
H	0.856893	0.305791	-2.03534
H	-1.669	1.05985	-1.21836
H	-1.81684	0.276579	1.4198
H	0.633596	-0.877228	1.9492
C	5.31023	-1.09898	0.364895
C	6.14713	-0.0105663	0.491817
N	5.58579	1.10213	-0.0404559
C	4.40514	0.705516	-0.495854
N	4.192	-0.613409	-0.2754
H	5.42737	-2.14965	0.674574
H	7.14593	-0.0082243	0.957918
H	3.65759	1.33973	-0.999023
H	3.33769	-1.16166	-0.54153
