18
  This energy is -0.8025 and Call times are: 30849
C	-0.571882	0.972212	-0.118977
C	-0.413023	0.361516	1.09023
C	0.351258	-0.817874	0.835218
C	0.591972	-0.823772	-0.507315
O	0.035473	0.262095	-1.10582
H	-1.0887	1.90274	-0.405791
H	-0.795658	0.706906	2.06409
H	0.679016	-1.56872	1.57204
H	1.13857	-1.53425	-1.14896
C	6.06937	0.943327	-0.217199
C	6.50369	-0.34691	0.00142145
N	5.4601	-1.18332	0.220162
C	4.38245	-0.414886	0.137556
N	4.69712	0.875777	-0.124676
H	6.62128	1.87375	-0.425133
H	7.55136	-0.689277	0.00523982
H	3.3387	-0.745974	0.260797
H	4.02399	1.67309	-0.236252
