18
  This energy is -0.9339 and Call times are: 122567
C	-1.01382	0.50786	0.025323
C	-0.7719	-0.602858	-0.728437
C	0.596981	-0.940254	-0.499425
C	1.07072	-0.00593017	0.374064
O	0.10046	0.886239	0.705185
H	-1.92398	1.11463	0.162037
H	-1.48579	-1.13155	-1.38032
H	1.15546	-1.78255	-0.938442
H	2.06522	0.131389	0.829426
C	5.90679	1.17666	-0.0225773
C	7.00214	0.344482	0.0713959
N	6.62779	-0.957965	0.0703764
C	5.30523	-0.933877	-0.0238709
N	4.82256	0.329906	-0.0828601
H	5.82487	2.27488	-0.0499075
H	8.05584	0.660521	0.139914
H	4.64095	-1.81255	-0.053752
H	3.81447	0.611131	-0.15985
