18
  This energy is -1.0868 and Call times are: 98150
C	0.458364	1.03462	-0.0765987
C	-0.826034	0.774897	-0.455071
C	-1.03131	-0.617543	-0.211987
C	0.145775	-1.0858	0.293573
O	1.06671	-0.0903717	0.383105
H	1.04898	1.9654	-0.0848849
H	-1.55571	1.49193	-0.86437
H	-1.95178	-1.19477	-0.39534
H	0.450773	-2.09246	0.623515
C	4.22019	-0.514236	0.98813
C	5.06094	0.57438	0.892243
N	5.29058	0.901867	-0.402567
C	4.59493	0.0197678	-1.10726
N	3.9322	-0.855394	-0.314505
H	3.8198	-1.05235	1.86201
H	5.50596	1.12938	1.73414
H	4.53573	-0.0305968	-2.20644
H	3.31632	-1.64363	-0.63173
