18
  This energy is -0.6627 and Call times are: 144435
C	-0.936563	0.35779	0.530317
C	-0.257658	-0.758973	0.920576
C	0.846593	-0.87901	0.0226131
C	0.745	0.174997	-0.837109
O	-0.338236	0.940725	-0.541692
H	-1.84678	0.836219	0.927627
H	-0.509236	-1.43082	1.75689
H	1.62141	-1.66243	0.0242777
H	1.37124	0.486406	-1.68923
C	4.95312	-0.258343	0.0550088
C	5.63161	0.2698	-1.02289
N	6.94531	0.440578	-0.737335
C	7.08129	0.0199805	0.512958
N	5.90856	-0.411331	1.03476
H	3.89335	-0.527177	0.18971
H	5.19677	0.530685	-2.00151
H	8.01719	0.00591767	1.09444
H	5.75618	-0.790112	2.00149
