18
  This energy is -0.9003 and Call times are: 185914
C	0.241537	-0.836865	-0.726441
C	-0.917332	-0.120943	-0.796093
C	-0.855815	0.82729	0.270298
C	0.335215	0.607111	0.897467
O	1.01835	-0.405669	0.301974
H	0.626247	-1.66685	-1.34156
H	-1.7336	-0.247853	-1.52527
H	-1.61491	1.58175	0.532327
H	0.80552	1.0965	1.76612
C	6.07536	0.0837607	0.470836
C	5.12724	1.08163	0.390347
N	3.99948	0.636431	-0.215016
C	4.24702	-0.632798	-0.508959
N	5.48554	-1.01363	-0.115718
H	7.09407	0.0771244	0.890022
H	5.23672	2.11484	0.758231
H	3.55639	-1.32876	-1.01186
H	5.91471	-1.96381	-0.234933
