18
  This energy is -0.8971 and Call times are: 109319
C	-0.285117	-0.0540777	-1.09644
C	-0.893048	-0.81934	-0.145038
C	-0.270131	-0.472401	1.09259
C	0.663465	0.474243	0.788231
O	0.668036	0.741872	-0.544198
H	-0.438038	0.0159965	-2.18592
H	-1.69926	-1.5544	-0.299295
H	-0.497348	-0.88499	2.0887
H	1.37727	1.02705	1.42079
C	5.02775	-0.269685	-1.08342
C	4.38796	0.535701	-0.165172
N	5.10112	0.629264	0.983373
C	6.17924	-0.115248	0.778434
N	6.1816	-0.67864	-0.452896
H	4.75276	-0.570704	-2.1068
H	3.42455	1.05095	-0.310827
H	6.99832	-0.282157	1.4964
H	6.92146	-1.30722	-0.851349
