18
  This energy is -1.7313 and Call times are: 134281
C	-0.709341	0.463387	0.753995
C	0.178397	-0.515421	1.09197
C	0.883252	-0.835468	-0.108389
C	0.364018	-0.0239828	-1.07393
O	-0.609725	0.775842	-0.564891
H	-1.45567	1.01174	1.35194
H	0.32243	-0.966782	2.08677
H	1.68244	-1.58431	-0.229318
H	0.598421	0.0790608	-2.14616
C	4.25724	0.343072	-1.12433
C	3.96801	1.13298	-0.0318415
N	3.98759	0.408944	1.11354
C	4.28783	-0.825446	0.73306
N	4.46009	-0.916823	-0.606927
H	4.33063	0.580429	-2.19756
H	3.74556	2.21236	-0.0495539
H	4.39413	-1.70033	1.39451
H	4.70207	-1.78249	-1.14852
