18
  This energy is -0.9352 and Call times are: 127620
C	1.00012	0.20347	-0.494731
C	0.637644	0.783214	0.685473
C	-0.669149	0.287319	0.97958
C	-0.989874	-0.551683	-0.0468625
O	0.0180937	-0.614829	-0.956272
H	1.91685	0.290359	-1.10079
H	1.23098	1.48924	1.28845
H	-1.29047	0.532414	1.85592
H	-1.89141	-1.15478	-0.243698
C	6.23818	0.560348	-0.725388
C	4.93388	0.906707	-0.442578
N	4.37762	0.0388261	0.437115
C	5.33319	-0.842591	0.699047
N	6.4744	-0.571503	0.0224776
H	6.98991	1.02375	-1.38395
H	4.38425	1.76728	-0.857519
H	5.25065	-1.70603	1.37867
H	7.36875	-1.11919	0.0603962
