18
  This energy is -1.1344 and Call times are: 126108
C	0.0235263	0.957264	0.60786
C	-1.14044	0.317646	0.2973
C	-0.764454	-0.830124	-0.465181
C	0.59608	-0.79057	-0.553253
O	1.09402	0.294326	0.0964174
H	0.221224	1.87933	1.17879
H	-2.16138	0.623412	0.577083
H	-1.43592	-1.5912	-0.894119
H	1.31692	-1.46551	-1.04324
C	4.14652	0.958475	0.198443
C	4.94317	0.297047	1.10894
N	5.55498	-0.769369	0.538889
C	5.13945	-0.769517	-0.720462
N	4.28862	0.252599	-0.975326
H	3.50977	1.85173	0.299345
H	5.08745	0.570205	2.16696
H	5.42703	-1.49511	-1.49831
H	3.82545	0.466586	-1.89236
