18
  This energy is -1.0352 and Call times are: 85705
C	-0.896068	0.666751	-0.197244
C	-0.263049	0.632242	1.01043
C	0.799276	-0.311875	0.868205
C	0.721649	-0.770957	-0.413821
O	-0.307966	-0.183993	-1.07894
H	-1.76441	1.24633	-0.551239
H	-0.518555	1.21333	1.91106
H	1.53119	-0.608335	1.63665
H	1.33142	-1.50502	-0.965704
C	5.84859	-0.72831	-0.542467
C	4.8163	-1.08045	0.301047
N	4.15536	0.0148874	0.748167
C	4.77527	1.04263	0.184178
N	5.80323	0.646621	-0.603255
H	6.58762	-1.33849	-1.08566
H	4.53657	-2.10523	0.595026
H	4.51756	2.10613	0.313721
H	6.44367	1.26849	-1.15496
