18
  This energy is -0.6405 and Call times are: 149660
C	0.361995	-0.886898	0.607266
C	-0.950866	-0.519898	0.561647
C	-1.0079	0.622916	-0.293245
C	0.275136	0.853389	-0.69457
O	1.12496	-0.0591651	-0.154149
H	0.873937	-1.70679	1.1373
H	-1.7945	-1.00525	1.07819
H	-1.90455	1.1998	-0.57132
H	0.707716	1.62361	-1.35403
C	4.86731	0.300265	-0.109325
C	5.91913	0.742868	-0.883226
N	7.0893	0.192114	-0.478383
C	6.76465	-0.589191	0.542789
N	5.43643	-0.558386	0.804465
H	3.79002	0.527964	-0.143067
H	5.85464	1.44973	-1.72645
H	7.46024	-1.20586	1.13447
H	4.93559	-1.08774	1.55958
