18
  This energy is -0.7944 and Call times are: 36974
C	0.787112	-0.752766	0.316543
C	-0.519812	-0.861121	0.691486
C	-1.18865	0.256648	0.105512
C	-0.231399	0.949383	-0.575784
O	0.981203	0.347161	-0.457732
H	1.66433	-1.38466	0.532049
H	-0.967917	-1.64912	1.31787
H	-2.25843	0.507604	0.187232
H	-0.284798	1.87275	-1.1756
C	4.71677	-0.951032	-0.117601
C	5.66008	-0.493921	-1.01335
N	6.26292	0.630629	-0.556766
C	5.69577	0.870248	0.617771
N	4.75704	-0.0552249	0.927433
H	4.04218	-1.82137	-0.148822
H	5.91648	-0.955397	-1.9809
H	5.93028	1.70956	1.29216
H	4.17148	-0.0847428	1.79778
