18
  This energy is -1.0715 and Call times are: 92768
C	0.583278	-0.91647	-0.32599
C	1.16151	0.313087	-0.206782
C	0.121421	1.19469	0.218795
C	-1.00058	0.426036	0.322082
O	-0.736812	-0.865944	-0.00689874
H	0.997554	-1.89332	-0.62496
H	2.2148	0.573161	-0.399232
H	0.207955	2.2742	0.421915
H	-2.03348	0.675839	0.61526
C	4.58899	-0.325786	0.951643
C	5.23337	-1.15498	0.0581371
N	5.83892	-0.441055	-0.921722
C	5.57123	0.826225	-0.637176
N	4.82046	0.94822	0.483112
H	4.00169	-0.544839	1.85753
H	5.27219	-2.25559	0.102947
H	5.90032	1.70442	-1.21572
H	4.47962	1.84286	0.912901
