18
  This energy is -1.2749 and Call times are: 42958
C	0.81569	-0.0223651	0.78775
C	-0.313074	-0.782056	0.883324
C	-1.08561	-0.482561	-0.280121
C	-0.360739	0.433708	-0.983954
O	0.803293	0.726295	-0.346431
H	1.69037	0.0741758	1.45173
H	-0.575373	-1.48302	1.69199
H	-2.06598	-0.905148	-0.552868
H	-0.56097	0.946968	-1.9388
C	4.51576	-1.12364	0.330356
C	3.95623	-0.658954	-0.84103
N	3.98737	0.694831	-0.894018
C	4.56402	1.06858	0.240183
N	4.90108	0.00871641	1.01263
H	4.66212	-2.14588	0.713925
H	3.53063	-1.27627	-1.64889
H	4.76378	2.10539	0.555379
H	5.36713	0.0430344	1.95224
