18
  This energy is -0.5705 and Call times are: 114541
C	0.538834	-0.977966	-0.1991
C	-0.634028	-0.651839	-0.81425
C	-0.993973	0.635974	-0.312159
C	-0.00929301	0.983126	0.565488
O	0.934993	0.00911134	0.646919
H	1.18176	-1.87007	-0.276827
H	-1.18995	-1.25739	-1.54798
H	-1.88446	1.22743	-0.579195
H	0.132805	1.88288	1.18637
C	6.14344	0.481659	-0.512861
C	4.876	1.01969	-0.440164
N	4.03185	0.193554	0.224225
C	4.77277	-0.853006	0.562411
N	6.05336	-0.72701	0.140739
H	7.07213	0.860708	-0.968263
H	4.55554	1.98917	-0.855203
H	4.42789	-1.73918	1.11917
H	6.8297	-1.41834	0.284341
