18
  This energy is -2.2724 and Call times are: 128741
C	0.260142	-1.02593	-0.407676
C	0.444572	0.11572	-1.13086
C	0.00655093	1.18525	-0.2916
C	-0.406879	0.60276	0.870362
O	-0.259089	-0.747172	0.816949
H	0.456108	-2.08366	-0.648596
H	0.848541	0.196586	-2.15281
H	0.00338241	2.26023	-0.533452
H	-0.820377	1.03317	1.7972
C	4.16675	0.0433854	-1.11745
C	4.27391	1.0413	-0.172025
N	3.74573	0.650297	1.01316
C	3.31256	-0.585479	0.803781
N	3.54322	-0.996973	-0.465492
H	4.47965	0.0013531	-2.17285
H	4.72287	2.0364	-0.323847
H	2.81906	-1.2342	1.5453
H	3.29447	-1.93064	-0.874936
