18
  This energy is -0.6607 and Call times are: 64801
C	-0.447968	0.797903	-0.670131
C	0.768042	0.232737	-0.919692
C	0.982477	-0.712683	0.129267
C	-0.121424	-0.64179	0.927233
O	-1.00536	0.275642	0.453957
H	-1.0192	1.57135	-1.20932
H	1.44601	0.458913	-1.75832
H	1.85976	-1.36527	0.26564
H	-0.394293	-1.1838	1.84757
C	6.79267	0.576229	-0.506163
C	6.40197	0.651055	0.814026
N	5.33364	-0.14761	1.05346
C	5.06261	-0.715745	-0.113758
N	5.9142	-0.311673	-1.08592
H	7.60651	1.07534	-1.05578
H	6.87179	1.26701	1.59806
H	4.25183	-1.43507	-0.31233
H	5.90671	-0.616658	-2.09001
