18
  This energy is -0.5998 and Call times are: 144211
C	0.882393	0.669534	-0.243942
C	0.535383	0.356384	1.03742
C	-0.608007	-0.493639	0.936235
C	-0.85877	-0.624888	-0.39803
O	0.0417097	0.0788283	-1.13351
H	1.69536	1.29399	-0.649396
H	1.03451	0.690457	1.9612
H	-1.17166	-0.949656	1.76596
H	-1.63672	-1.18316	-0.944277
C	6.88106	-0.590067	-0.653348
C	7.1465	0.179657	0.459401
N	6.00925	0.715295	0.965629
C	5.04197	0.279523	0.169956
N	5.51663	-0.511179	-0.821549
H	7.54443	-1.16907	-1.31534
H	8.13822	0.358111	0.906038
H	3.96867	0.508998	0.267965
H	4.9527	-0.975642	-1.57489
