18
  This energy is -1.1335 and Call times are: 92568
C	0.922111	0.43102	0.500334
C	0.431559	-0.802993	0.811694
C	-0.718267	-0.986783	-0.0154938
C	-0.828853	0.151142	-0.759315
O	0.164662	1.0279	-0.457274
H	1.79117	0.990399	0.883845
H	0.838573	-1.51264	1.54982
H	-1.38001	-1.86727	-0.0462318
H	-1.55966	0.454795	-1.52675
C	4.72043	1.03076	-0.422552
C	5.46453	0.0843942	-1.09475
N	5.72607	-0.984074	-0.303241
C	5.14643	-0.701628	0.855578
N	4.52692	0.50226	0.8342
H	4.32801	2.01025	-0.739025
H	5.81737	0.153412	-2.13667
H	5.14486	-1.34111	1.75296
H	3.99965	0.948119	1.62442
