18
  This energy is -0.7367 and Call times are: 90645
C	0.383136	-1.0327	-0.27043
C	1.008	0.108517	-0.679747
C	0.23854	1.18791	-0.14781
C	-0.788597	0.611012	0.53961
O	-0.71591	-0.744565	0.475282
H	0.617906	-2.09621	-0.440975
H	1.91934	0.18278	-1.29459
H	0.434683	2.26547	-0.268218
H	-1.62445	1.04938	1.1092
C	6.81643	-0.367882	-0.0576999
C	5.88274	-0.704282	0.899485
N	4.69502	-0.0981494	0.657795
C	4.89113	0.611579	-0.445133
N	6.1544	0.48215	-0.915219
H	7.87	-0.663374	-0.185075
H	6.04483	-1.37349	1.76015
H	4.14377	1.24376	-0.951133
H	6.55349	0.941763	-1.77005
