18
  This energy is -1.2538 and Call times are: 206924
C	-0.335264	-0.117902	1.07708
C	-1.20744	-0.176252	0.0300486
C	-0.419588	0.0133853	-1.14615
C	0.86449	0.170878	-0.714044
O	0.934436	0.0935373	0.640998
H	-0.491098	-0.210566	2.16445
H	-2.29637	-0.336734	0.0808809
H	-0.776206	0.0291696	-2.18858
H	1.80488	0.342076	-1.26323
C	4.17166	-0.923452	0.590637
C	4.79275	-0.944178	-0.6402
N	5.16079	0.302671	-1.02285
C	4.76952	1.0939	-0.0331606
N	4.16777	0.402169	0.963334
H	3.74635	-1.73128	1.20713
H	4.98189	-1.83646	-1.25899
H	4.89875	2.18724	0.0129928
H	3.7734	0.799896	1.85077
