18
  This energy is -0.7384 and Call times are: 207972
C	-0.720979	-0.441083	-0.75633
C	0.277848	-1.17397	-0.185717
C	0.96029	-0.283377	0.698161
C	0.318249	0.915114	0.589647
O	-0.711087	0.836981	-0.294307
H	-1.49427	-0.709301	-1.4948
H	0.510699	-2.23526	-0.368855
H	1.82747	-0.51687	1.33658
H	0.494509	1.88606	1.08101
C	5.56505	-1.00636	-0.563141
C	4.67943	0.0138456	-0.287441
N	5.29021	1.02493	0.376771
C	6.54994	0.633459	0.512612
N	6.76601	-0.584791	-0.0376343
H	5.43015	-1.97038	-1.0789
H	3.61071	0.0384795	-0.55589
H	7.35561	1.20013	1.00659
H	7.67517	-1.10842	-0.0597285
