18
  This energy is -1.8228 and Call times are: 26134
C	0.598237	-0.369483	0.889941
C	0.23882	-1.18886	-0.139533
C	-0.492662	-0.370513	-1.05351
C	-0.51567	0.8767	-0.501878
O	0.145786	0.895577	0.685191
H	1.16833	-0.562841	1.81344
H	0.466011	-2.2619	-0.244747
H	-0.94538	-0.682904	-2.00827
H	-0.963361	1.82199	-0.85009
C	4.10172	-1.17071	0.0646186
C	4.18686	-0.39416	-1.07154
N	4.02189	0.918846	-0.779464
C	3.83512	0.956702	0.532903
N	3.87441	-0.277789	1.08795
H	4.18406	-2.25925	0.212418
H	4.36437	-0.757765	-2.09679
H	3.66503	1.86175	1.13804
H	3.75456	-0.510399	2.10421
