18
  This energy is -1.0596 and Call times are: 183992
C	-0.44183	0.683636	-0.789828
C	-1.0191	-0.503106	-0.445196
C	-0.182219	-1.06584	0.566273
C	0.832585	-0.173303	0.750445
O	0.689943	0.901078	-0.0695367
H	-0.734412	1.45341	-1.5227
H	-1.9417	-0.938546	-0.861487
H	-0.326939	-2.02434	1.09013
H	1.70445	-0.186524	1.42493
C	4.76497	-0.028269	-1.17476
C	5.08105	1.03348	-0.353835
N	4.88842	0.717408	0.949814
C	4.45449	-0.535662	0.937679
N	4.36304	-1.02998	-0.319651
H	4.79656	-0.138235	-2.27041
H	5.44463	2.02193	-0.678839
H	4.18905	-1.13877	1.82088
H	4.0463	-1.99285	-0.591327
