18
  This energy is -0.5474 and Call times are: 197364
C	1.10129	0.0765522	-0.260211
C	0.178801	0.97113	-0.717513
C	-1.07596	0.546438	-0.183341
C	-0.809468	-0.570173	0.553232
O	0.515254	-0.871569	0.517378
H	2.19053	0.0061248	-0.414639
H	0.363404	1.84265	-1.36595
H	-2.05764	1.02321	-0.33527
H	-1.4661	-1.23152	1.14205
C	5.62985	-0.247359	0.752831
C	5.5014	0.263354	-0.52146
N	6.71259	0.425195	-1.1074
C	7.58911	0.016439	-0.200062
N	6.98582	-0.398772	0.9389
H	4.8774	-0.505166	1.51499
H	4.55647	0.51795	-1.02856
H	8.68461	-3.67466e-05	-0.317724
H	7.46056	-0.76606	1.7997
