18
  This energy is -0.8415 and Call times are: 107128
C	-0.0325649	1.08749	-0.320489
C	-1.02754	0.512394	0.414134
C	-0.630593	-0.844857	0.61519
C	0.571906	-0.979346	-0.0143201
O	0.952297	0.19094	-0.591161
H	0.0910564	2.11188	-0.708534
H	-1.9486	0.995482	0.777948
H	-1.1827	-1.62332	1.16588
H	1.24784	-1.84343	-0.122617
C	6.33276	-0.699381	-0.161012
C	6.21654	0.623511	-0.531951
N	5.00286	1.12148	-0.19207
C	4.36855	0.111352	0.387517
N	5.12833	-1.00868	0.430498
H	7.15972	-1.41859	-0.272393
H	6.98669	1.22758	-1.03873
H	3.34637	0.137327	0.798251
H	4.85247	-1.93601	0.836974
