18
  This energy is -0.793 and Call times are: 148901
C	-0.124806	0.18127	1.11264
C	-1.16638	-0.181926	0.310401
C	-0.620738	-0.314057	-1.00297
C	0.706103	-0.0199414	-0.887368
O	1.02638	0.284852	0.397754
H	-0.0735349	0.392776	2.19333
H	-2.21385	-0.340846	0.613127
H	-1.16104	-0.595793	-1.921
H	1.51658	0.00771637	-1.6341
C	5.59875	0.835226	0.822945
C	4.64079	-0.0865729	0.457231
N	5.09617	-0.900683	-0.525809
C	6.33193	-0.485514	-0.769023
N	6.6817	0.559007	0.0185189
H	5.58685	1.64133	1.57367
H	3.62921	-0.178804	0.885078
H	7.02445	-0.910832	-1.51317
H	7.60243	1.0625	0.0166811
