18
  This energy is -1.0811 and Call times are: 129920
C	-0.0288861	-1.06735	-0.382531
C	-1.16132	-0.363575	-0.0950238
C	-0.721266	0.919498	0.352403
C	0.641237	0.886524	0.298814
O	1.08121	-0.319277	-0.147818
H	0.118859	-2.09402	-0.755861
H	-2.20214	-0.712923	-0.188628
H	-1.35305	1.76276	0.674678
H	1.40128	1.64513	0.548034
C	4.81084	0.0444664	1.01785
C	6.17946	0.00573921	0.854925
N	6.51418	-0.0410535	-0.457433
C	5.35761	-0.031392	-1.1062
N	4.30089	0.0196083	-0.261026
H	4.18459	0.0865518	1.92315
H	6.93138	0.0107232	1.6608
H	5.22717	-0.0602356	-2.19999
H	3.28639	0.0369167	-0.528914
