18
  This energy is -0.617 and Call times are: 151474
C	-0.710389	0.700256	0.539807
C	0.623387	0.960488	0.422776
C	1.17273	-0.135433	-0.310226
C	0.126163	-0.968622	-0.576416
O	-1.03155	-0.473845	-0.06464
H	-1.52562	1.26377	1.02262
H	1.16597	1.83633	0.813435
H	2.22593	-0.278247	-0.600887
H	0.0752977	-1.92998	-1.1135
C	6.9192	-0.827606	-0.170491
C	5.56067	-0.954736	-0.368892
N	4.9137	0.198898	-0.0738147
C	5.86725	1.03852	0.306198
N	7.09411	0.466928	0.265143
H	7.7463	-1.54288	-0.304024
H	5.03573	-1.8582	-0.719664
H	5.72237	2.08343	0.624643
H	8.00501	0.923006	0.517151
