18
  This energy is -1.0917 and Call times are: 50934
C	0.157909	1.01923	0.471839
C	-0.741335	0.118636	0.962412
C	-0.651268	-1.02614	0.113007
C	0.295064	-0.724047	-0.821641
O	0.799799	0.521198	-0.617634
H	0.431007	2.03446	0.803486
H	-1.40183	0.24753	1.8349
H	-1.22804	-1.96131	0.195979
H	0.693481	-1.30167	-1.67186
C	3.84477	0.773404	0.465373
C	4.49758	-0.245781	1.12587
N	5.29396	-0.944408	0.280767
C	5.13582	-0.360852	-0.899519
N	4.27182	0.680113	-0.840428
H	3.13037	1.53313	0.82032
H	4.4082	-0.489532	2.19706
H	5.62868	-0.655452	-1.84002
H	3.9824	1.29834	-1.63748
