18
  This energy is -1.3955 and Call times are: 176552
C	-0.405695	1.02863	-0.252449
C	-0.183028	0.626207	1.03163
C	0.320444	-0.707413	0.941685
C	0.360998	-1.00222	-0.389412
O	-0.0789203	0.0466381	-1.13331
H	-0.789092	1.97601	-0.665643
H	-0.355972	1.20993	1.95002
H	0.615474	-1.36328	1.77648
H	0.678132	-1.91044	-0.927751
C	3.80648	0.0576945	0.763803
C	3.87784	0.662116	-0.473423
N	5.05379	0.383109	-1.08646
C	5.70947	-0.391454	-0.232784
N	4.99946	-0.616843	0.898
H	3.01752	0.0597757	1.53261
H	3.10187	1.29452	-0.934719
H	6.7126	-0.821153	-0.385497
H	5.3004	-1.19524	1.72028
