18
  This energy is -0.6664 and Call times are: 153841
C	0.31238	-1.08222	0.13277
C	1.21382	-0.0587758	0.114294
C	0.448488	1.13309	-0.0696233
C	-0.853082	0.732772	-0.1473
O	-0.954699	-0.617001	-0.0256549
H	0.444041	-2.17042	0.249951
H	2.30796	-0.135453	0.219612
H	0.831244	2.16425	-0.135255
H	-1.78631	1.30294	-0.286021
C	6.56688	-0.811513	-0.713133
C	5.27861	-0.321387	-0.748668
N	5.08128	0.604821	0.22072
C	6.24272	0.688968	0.855223
N	7.17086	-0.145305	0.329733
H	7.07951	-1.5622	-1.33541
H	4.48797	-0.61948	-1.4564
H	6.46815	1.34519	1.71126
H	8.16176	-0.262341	0.654799
