18
  This energy is -0.4646 and Call times are: 179394
C	-0.452141	-0.86097	-0.583695
C	-1.2026	-0.0394262	0.205131
C	-0.289966	0.906198	0.764601
C	0.93763	0.579034	0.26827
O	0.857212	-0.497804	-0.556936
H	-0.727204	-1.72782	-1.20672
H	-2.28979	-0.0938592	0.3759
H	-0.528861	1.73072	1.45539
H	1.93241	1.02793	0.42369
C	6.28599	-0.687268	0.931105
C	5.36581	0.0549404	0.22151
N	5.95999	0.730266	-0.792096
C	7.2439	0.408237	-0.71162
N	7.49127	-0.443992	0.311173
H	6.17223	-1.34927	1.80423
H	4.28381	0.115252	0.422754
H	8.04577	0.767975	-1.37632
H	8.42358	-0.84334	0.580592
