18
  This energy is -2.0586 and Call times are: 12867
C	-0.686707	0.280822	0.857889
C	-0.183484	-0.977904	0.707055
C	0.624261	-0.937579	-0.470247
C	0.543335	0.342228	-0.934916
O	-0.253146	1.1001	-0.136003
H	-1.35493	0.714592	1.61984
H	-0.363077	-1.84755	1.3594
H	1.19546	-1.76975	-0.912197
H	0.999012	0.832107	-1.81106
C	4.18077	-0.803523	-0.812781
C	3.88341	-1.03672	0.513244
N	3.60557	0.119945	1.16243
C	3.73009	1.0671	0.242641
N	4.07564	0.56103	-0.964867
H	4.45075	-1.48917	-1.63164
H	3.86437	-2.01884	1.01317
H	3.57961	2.14738	0.399476
H	4.23341	1.10458	-1.84856
