18
  This energy is -2.732 and Call times are: 202223
C	-0.126963	-1.07047	0.352657
C	0.255641	-0.761028	-0.919441
C	0.303052	0.665333	-0.977436
C	-0.054764	1.1016	0.264342
O	-0.320868	0.0549601	1.08941
H	-0.294648	-2.03972	0.850342
H	0.481792	-1.46644	-1.73513
H	0.573272	1.28572	-1.84703
H	-0.156481	2.11699	0.681333
C	3.61344	-1.06402	-0.467056
C	4.51506	-0.115875	-0.902077
N	4.46492	0.99666	-0.129898
C	3.53573	0.739675	0.7807
N	2.99258	-0.490254	0.619913
H	3.37757	-2.07281	-0.84157
H	5.20085	-0.214616	-1.75928
H	3.21386	1.41702	1.58806
H	2.24159	-0.924106	1.21071
