18
  This energy is -1.2154 and Call times are: 141209
C	-1.12515	0.07742	-0.120211
C	-0.440607	-1.07396	-0.377301
C	0.93213	-0.779702	-0.114395
C	0.965269	0.525523	0.280146
O	-0.282291	1.0646	0.282391
H	-2.19867	0.319622	-0.184567
H	-0.860234	-2.03417	-0.717912
H	1.78845	-1.46639	-0.210636
H	1.80178	1.17716	0.581598
C	5.32332	-1.13153	-0.0138627
C	4.51808	-0.489713	-0.930812
N	4.35245	0.81561	-0.60645
C	5.05228	0.982941	0.507489
N	5.65632	-0.161805	0.905336
H	5.67134	-2.17491	0.0475536
H	4.05364	-0.945122	-1.82062
H	5.15632	1.92286	1.07315
H	6.26278	-0.286824	1.75259
