18
  This energy is -0.4173 and Call times are: 107256
C	0.13261	-0.464647	-1.02612
C	1.18052	-0.253446	-0.178972
C	0.621453	0.338613	0.994498
C	-0.718738	0.436945	0.760851
O	-1.03491	-0.0489134	-0.468372
H	0.0870957	-0.897077	-2.03913
H	2.24083	-0.490769	-0.362059
H	1.16211	0.651605	1.90214
H	-1.54214	0.828307	1.38061
C	7.5518	-0.676155	0.449833
C	7.61345	0.679502	0.205829
N	6.44917	1.13536	-0.31681
C	5.66819	0.066565	-0.396733
N	6.28731	-1.05043	0.0533886
H	8.29353	-1.37763	0.863727
H	8.47717	1.33684	0.397531
H	4.6342	0.0457212	-0.777068
H	5.8814	-2.01736	0.0928592
