18
  This energy is -0.8038 and Call times are: 206281
C	0.0717581	-1.03267	-0.463511
C	0.550488	0.0823696	-1.08631
C	0.279054	1.17094	-0.202304
C	-0.341584	0.625007	0.882659
O	-0.476422	-0.719798	0.740075
H	0.0605922	-2.09216	-0.767829
H	1.04514	0.133214	-2.06958
H	0.52141	2.23359	-0.363902
H	-0.730424	1.08015	1.80835
C	4.3917	0.232651	-0.320383
C	5.50486	0.229017	-1.13402
N	6.62182	-0.0821562	-0.432537
C	6.20319	-0.270849	0.811554
N	4.86616	-0.0926331	0.930723
H	3.33087	0.436882	-0.535947
H	5.52206	0.445349	-2.21465
H	6.83348	-0.540996	1.6741
H	4.29902	-0.184708	1.80886
