18
  This energy is -1.1322 and Call times are: 32821
C	-0.299128	0.729332	-0.815474
C	-0.630821	0.921054	0.49357
C	-0.0850485	-0.192453	1.20234
C	0.53198	-0.966325	0.263844
O	0.411138	-0.41845	-0.973994
H	-0.506226	1.32833	-1.71745
H	-1.20248	1.76222	0.917541
H	-0.149412	-0.386287	2.2851
H	1.08427	-1.91666	0.348049
C	3.98536	0.247359	-0.285469
C	5.11493	0.564136	-1.00995
N	6.23493	0.126375	-0.385076
C	5.80183	-0.459748	0.722853
N	4.45269	-0.413064	0.828818
H	2.91766	0.438777	-0.477581
H	5.14182	1.10071	-1.97235
H	6.42971	-0.939099	1.49111
H	3.87309	-0.805242	1.61082
