18
  This energy is -1.2694 and Call times are: 167386
C	0.864241	-0.724838	0.118733
C	1.03448	0.627824	0.159938
C	-0.264954	1.19125	-0.0248549
C	-1.11454	0.133147	-0.162672
O	-0.441953	-1.04473	-0.0775809
H	1.58273	-1.55539	0.214725
H	1.98023	1.17406	0.305827
H	-0.527017	2.26118	-0.05073
H	-2.20409	0.086541	-0.323801
C	4.59155	0.348342	-1.00261
C	4.557	-0.915695	-0.452921
N	5.25123	-0.961939	0.710018
C	5.71469	0.268729	0.881131
N	5.34413	1.09609	-0.124727
H	4.14863	0.755109	-1.92559
H	4.04359	-1.79515	-0.874611
H	6.33054	0.618389	1.72534
H	5.58435	2.11336	-0.218062
