18
  This energy is -0.7103 and Call times are: 159642
C	-0.0981977	0.568379	-0.976577
C	-1.12857	-0.147153	-0.441106
C	-0.625029	-0.710457	0.771024
C	0.668591	-0.289424	0.869264
O	1.00712	0.492542	-0.189478
H	-0.0257154	1.16704	-1.8994
H	-2.14158	-0.266334	-0.857881
H	-1.17001	-1.35322	1.48091
H	1.44169	-0.474544	1.633
C	6.86225	0.144361	0.115839
C	6.21691	-0.705224	-0.757592
N	4.87151	-0.615773	-0.621893
C	4.68293	0.285874	0.332093
N	5.85256	0.773822	0.80901
H	7.93285	0.339069	0.287458
H	6.69797	-1.38113	-1.48325
H	3.70916	0.625962	0.719855
H	5.96822	1.49436	1.56313
