18
  This energy is -0.7332 and Call times are: 192950
C	-0.171493	1.11469	0.120278
C	-1.19436	0.236431	-0.0865813
C	-0.588342	-1.05311	-0.186269
C	0.751354	-0.849043	-0.0315275
O	1.02384	0.469036	0.156704
H	-0.16329	2.20873	0.255415
H	-2.26793	0.472951	-0.16146
H	-1.09862	-2.01521	-0.353807
H	1.60277	-1.54928	-0.035096
C	6.28631	-0.420212	0.485495
C	5.16715	-1.14208	0.12839
N	4.21598	-0.337153	-0.404421
C	4.74306	0.879444	-0.377957
N	5.99017	0.881965	0.149604
H	7.24069	-0.730648	0.939726
H	5.02896	-2.22928	0.245647
H	4.25916	1.80385	-0.732267
H	6.61284	1.71682	0.278253
