18
  This energy is -1.0433 and Call times are: 149340
C	-0.702927	0.705817	-0.542326
C	0.64332	0.917155	-0.484618
C	1.17758	-0.16953	0.272881
C	0.110642	-0.948997	0.611198
O	-1.04578	-0.429376	0.121605
H	-1.51363	1.28157	-1.01827
H	1.20392	1.7543	-0.930722
H	2.23476	-0.342448	0.530867
H	0.0433048	-1.88526	1.18924
C	5.55099	-0.539935	0.985073
C	4.91523	-1.11742	-0.093567
N	4.65594	-0.199883	-1.05658
C	5.12904	0.942477	-0.577193
N	5.6786	0.789819	0.650922
H	5.90967	-0.966903	1.93512
H	4.63899	-2.17969	-0.194183
H	5.09914	1.92051	-1.08393
H	6.11815	1.54126	1.23692
