18
  This energy is -2.215 and Call times are: 92279
C	-0.162869	1.02164	-0.464894
C	0.199178	-0.0671284	-1.20238
C	0.305323	-1.14912	-0.276018
C	-0.0012304	-0.626029	0.945773
O	-0.289745	0.698516	0.849071
H	-0.358349	2.06762	-0.752922
H	0.37396	-0.104566	-2.28964
H	0.578767	-2.19226	-0.502238
H	-0.0490206	-1.08553	1.94668
C	3.95017	-0.380076	1.08538
C	3.33811	0.80767	0.745108
N	3.20629	0.921963	-0.598793
C	3.73456	-0.190649	-1.09037
N	4.19704	-1.00812	-0.114954
H	4.21858	-0.80854	2.06411
H	2.98927	1.5842	1.44523
H	3.80847	-0.45745	-2.15695
H	4.65619	-1.94236	-0.247766
