18
  This energy is -1.0433 and Call times are: 114765
C	-1.01885	0.0191474	0.497985
C	-0.618555	-1.00643	-0.307205
C	0.701781	-0.672879	-0.737988
C	0.991774	0.527083	-0.158014
O	-0.0477984	0.96446	0.600275
H	-1.95747	0.191977	1.04968
H	-1.19521	-1.90744	-0.571304
H	1.35237	-1.26386	-1.4025
H	1.89027	1.16402	-0.205713
C	4.79819	0.0846376	-0.751449
C	6.12917	-0.0806339	-1.07135
N	6.89624	-0.13917	0.0443028
C	6.04438	-0.0107016	1.05249
N	4.76709	0.127149	0.624565
H	3.9009	0.17209	-1.38449
H	6.54971	-0.158688	-2.08718
H	6.30245	-0.0107429	2.12377
H	3.91536	0.244124	1.22634
