18
  This energy is -1.2412 and Call times are: 64234
C	-0.194709	0.471315	1.01309
C	0.405565	1.15125	-0.00560225
C	0.473518	0.235939	-1.1
C	-0.0912309	-0.922526	-0.65347
O	-0.504875	-0.796689	0.634969
H	-0.453931	0.773644	2.04103
H	0.764498	2.19286	0.0118776
H	0.895611	0.426778	-2.09976
H	-0.255904	-1.89376	-1.14828
C	5.81698	0.196292	-0.314498
C	5.03166	-0.877415	-0.677219
N	3.79372	-0.782962	-0.13399
C	3.811	0.345051	0.563085
N	5.00861	0.972231	0.4859
H	6.85913	0.454503	-0.561082
H	5.33612	-1.71855	-1.32116
H	2.9741	0.758644	1.14855
H	5.2713	1.87717	0.947777
