18
  This energy is -1.053 and Call times are: 138824
C	0.505365	0.920121	-0.429402
C	1.05479	-0.324894	-0.521295
C	0.136587	-1.20629	0.126907
C	-0.892885	-0.422072	0.557685
O	-0.684232	0.879387	0.226505
H	0.856918	1.90247	-0.785269
H	2.01077	-0.595461	-0.997741
H	0.239097	-2.2961	0.252959
H	-1.81892	-0.666089	1.10373
C	6.00059	0.710437	-0.489308
C	5.74746	-0.603692	-0.821172
N	4.75689	-1.11943	-0.0535116
C	4.39687	-0.12901	0.751527
N	5.11731	0.995514	0.527909
H	6.72269	1.43863	-0.891603
H	6.26183	-1.18893	-1.60077
H	3.61143	-0.173178	1.52313
H	5.02131	1.91026	1.03316
