18
  This energy is -1.1411 and Call times are: 77922
C	-0.344005	1.02944	0.329125
C	-0.749256	0.464415	-0.844288
C	-0.113227	-0.813123	-0.903271
C	0.624546	-0.916011	0.239304
O	0.495341	0.20027	1.00366
H	-0.578546	2.00229	0.791498
H	-1.42799	0.903242	-1.59319
H	-0.200772	-1.56176	-1.707
H	1.27498	-1.72072	0.619607
C	4.74253	1.01308	-0.547659
C	4.916	0.734169	0.791468
N	4.5325	-0.533118	1.0803
C	4.12269	-1.03847	-0.0752476
N	4.22953	-0.145257	-1.08735
H	4.94122	1.92352	-1.13517
H	5.31099	1.42465	1.5544
H	3.73486	-2.05719	-0.236595
H	3.97087	-0.304734	-2.09179
