18
  This energy is -1.2885 and Call times are: 110410
C	-0.263771	-0.319701	-1.05575
C	-0.452995	-1.13321	0.0225608
C	-0.0080824	-0.388331	1.15716
C	0.413746	0.814615	0.672025
O	0.264806	0.873853	-0.677537
H	-0.462131	-0.471072	-2.12953
H	-0.864589	-2.15531	0.0193231
H	-0.00613312	-0.71806	2.20853
H	0.834438	1.69968	1.17694
C	4.96192	-0.80245	-0.8201
C	5.6857	-0.515591	0.317884
N	5.09267	0.466225	1.0396
C	4.00514	0.787237	0.351962
N	3.88162	0.0503694	-0.777357
H	5.13345	-1.52888	-1.63029
H	6.62517	-0.999468	0.631103
H	3.26487	1.55464	0.630038
H	3.10993	0.116174	-1.48547
