18
  This energy is -1.284 and Call times are: 48879
C	-0.2962	1.01127	0.419513
C	0.739454	0.858081	-0.454745
C	0.799708	-0.538377	-0.748669
C	-0.204445	-1.11526	-0.0280779
O	-0.883971	-0.183612	0.691144
H	-0.709211	1.90571	0.914141
H	1.39519	1.6491	-0.852732
H	1.51145	-1.04536	-1.41986
H	-0.53362	-2.16386	0.0575828
C	5.28047	0.848509	0.795335
C	6.09982	0.519013	-0.263548
N	5.5843	-0.51043	-0.978385
C	4.44944	-0.818401	-0.3653
N	4.22152	-0.0275842	0.709992
H	5.37293	1.61874	1.57747
H	7.05373	1.00564	-0.524535
H	3.74725	-1.61417	-0.661785
H	3.39551	-0.0731462	1.35566
