18
  This energy is -1.3256 and Call times are: 127588
C	-0.567548	-0.701333	0.68733
C	0.282644	0.25489	1.15975
C	0.797354	0.924152	0.00767867
C	0.216256	0.317826	-1.06706
O	-0.620264	-0.677146	-0.67048
H	-1.18602	-1.45121	1.20736
H	0.5232	0.467613	2.21378
H	1.51633	1.75895	-0.00913889
H	0.313951	0.499164	-2.15003
C	3.88569	-0.58369	-0.124774
C	4.5872	-0.384409	1.0454
N	5.71522	0.332875	0.822754
C	5.71352	0.577647	-0.480591
N	4.63116	0.0458364	-1.09645
H	2.94027	-1.11134	-0.328034
H	4.29961	-0.745338	2.04634
H	6.48045	1.14146	-1.0357
H	4.40329	0.102307	-2.11926
