18
  This energy is -0.832 and Call times are: 198669
C	-0.866635	-0.677266	-0.276866
C	0.064477	-0.273067	-1.18792
C	0.979657	0.555996	-0.470138
C	0.527009	0.585238	0.816185
O	-0.599666	-0.162492	0.952258
H	-1.75507	-1.32226	-0.376471
H	0.102982	-0.532686	-2.25807
H	1.86881	1.06699	-0.873105
H	0.911958	1.0938	1.71531
C	6.6071	-0.16402	0.586466
C	6.23668	0.95796	-0.124233
N	5.00794	0.804079	-0.674717
C	4.61757	-0.408753	-0.306922
N	5.54699	-1.03294	0.454759
H	7.51963	-0.397816	1.15758
H	6.83401	1.87574	-0.249655
H	3.66069	-0.889046	-0.567549
H	5.47395	-1.99542	0.866527
