18
  This energy is -1.0439 and Call times are: 48975
C	0.416063	0.0583703	-1.05351
C	-0.894118	0.310864	-0.770587
C	-1.02965	0.138268	0.640782
C	0.209681	-0.20446	1.09573
O	1.10486	-0.257945	0.0745498
H	0.97417	0.0701596	-2.00411
H	-1.68572	0.590593	-1.48418
H	-1.94722	0.25757	1.23905
H	0.579216	-0.432821	2.10892
C	4.52852	0.987029	0.640354
C	5.03669	0.809193	-0.629009
N	4.82895	-0.456813	-1.06557
C	4.19432	-1.06207	-0.0708167
N	3.98965	-0.233651	0.980573
H	4.51275	1.86652	1.30352
H	5.5495	1.5717	-1.23766
H	3.85645	-2.11086	-0.059774
H	3.51156	-0.475212	1.88298
