18
  This energy is -1.2848 and Call times are: 39242
C	0.978212	-0.526367	0.228996
C	0.577982	0.593958	0.896124
C	-0.684099	0.954517	0.332859
C	-0.943695	0.0226937	-0.628749
O	0.060945	-0.88932	-0.705829
H	1.88183	-1.15055	0.324552
H	1.11739	1.11426	1.70385
H	-1.31779	1.80996	0.61703
H	-1.79614	-0.0998043	-1.31692
C	5.49986	-1.10738	-0.262487
C	6.24475	-0.196633	0.456424
N	5.59375	0.986584	0.569156
C	4.44935	0.810546	-0.07736
N	4.34521	-0.435629	-0.596776
H	5.70294	-2.15116	-0.550259
H	7.24025	-0.372097	0.895789
H	3.65202	1.56105	-0.200878
H	3.53859	-0.817371	-1.14894
