18
  This energy is -0.9397 and Call times are: 72348
C	0.322539	-1.05228	0.273987
C	-0.890557	-0.783295	-0.288522
C	-0.926126	0.631219	-0.483469
C	0.268375	1.10175	-0.0228802
O	1.04336	0.0873404	0.44337
H	0.785288	-1.9997	0.595739
H	-1.68105	-1.50824	-0.54086
H	-1.74968	1.22105	-0.917008
H	0.681633	2.12249	0.0276231
C	5.61243	-0.460712	-0.893174
C	5.65786	0.841967	-0.44361
N	4.82039	1.02621	0.60577
C	4.25755	-0.157671	0.80645
N	4.7022	-1.08754	-0.0717448
H	6.14564	-0.969083	-1.71219
H	6.27992	1.6522	-0.857638
H	3.51346	-0.398952	1.58256
H	4.40935	-2.09419	-0.118063
