18
  This energy is -0.46 and Call times are: 184538
C	0.452233	1.03938	-0.0398077
C	-0.821653	0.780761	-0.452974
C	-1.02183	-0.618891	-0.250443
C	0.147399	-1.09203	0.268608
O	1.05875	-0.0929653	0.403986
H	1.03596	1.97409	-0.0111145
H	-1.54755	1.50315	-0.859577
H	-1.93379	-1.19747	-0.468795
H	0.452601	-2.10479	0.579104
C	6.06587	0.430948	-0.782829
C	4.69037	0.504504	-0.843985
N	4.12067	-0.0986657	0.227527
C	5.13887	-0.544715	0.95067
N	6.3328	-0.250355	0.383688
H	6.84758	0.802811	-1.46414
H	4.09883	0.981987	-1.64207
H	5.06659	-1.09323	1.90364
H	7.28114	-0.494595	0.760853
