18
  This energy is -1.7357 and Call times are: 106711
C	0.663391	0.64239	-0.658519
C	0.739179	0.670248	0.703044
C	-0.238945	-0.260883	1.16822
C	-0.826103	-0.775544	0.0498523
O	-0.287294	-0.235106	-1.0747
H	1.22327	1.19148	-1.4333
H	1.41598	1.28484	1.31812
H	-0.471307	-0.511771	2.21567
H	-1.62719	-1.52203	-0.0776885
C	3.79742	-0.899082	0.288325
C	4.60873	-0.806157	-0.82266
N	5.28157	0.370074	-0.839352
C	4.88917	1.00444	0.257109
N	3.99454	0.280591	0.97075
H	3.11646	-1.69466	0.630202
H	4.72065	-1.56675	-1.61248
H	5.22542	2.00116	0.585312
H	3.53806	0.564015	1.87216
