18
  This energy is -0.4625 and Call times are: 143891
C	0.964044	0.206522	-0.560687
C	-0.2205	-0.0123732	-1.20046
C	-1.18617	-0.231517	-0.171112
C	-0.506493	-0.127192	1.00682
O	0.80788	0.140071	0.787723
H	1.97501	0.417783	-0.946121
H	-0.396588	-0.0188702	-2.28814
H	-2.25985	-0.441707	-0.302015
H	-0.839163	-0.220848	2.05363
C	7.28007	0.56174	0.543155
C	7.39258	-0.386121	-0.451855
N	6.17338	-0.824325	-0.849383
C	5.3078	-0.150875	-0.103824
N	5.92572	0.697659	0.7516
H	8.0425	1.1302	1.09911
H	8.33164	-0.761658	-0.89003
H	4.21023	-0.240453	-0.143399
H	5.46154	1.33723	1.44207
