18
  This energy is -1.5635 and Call times are: 41797
C	0.00778038	-0.549935	0.991923
C	-0.847062	0.481441	0.735248
C	-0.557308	0.907112	-0.59703
C	0.44902	0.0982796	-1.03688
O	0.806557	-0.797473	-0.0793811
H	0.144792	-1.18086	1.88547
H	-1.60558	0.900445	1.41582
H	-1.0465	1.72177	-1.1548
H	0.989197	0.0596378	-1.99707
C	3.62217	0.103536	0.877125
C	4.6101	-0.850588	0.75554
N	5.32509	-0.671463	-0.381653
C	4.78279	0.389748	-0.963338
N	3.75238	0.893264	-0.243394
H	2.86106	0.270844	1.65576
H	4.81978	-1.66502	1.46799
H	5.1013	0.840262	-1.91718
H	3.16465	1.72649	-0.49151
