18
  This energy is -1.1401 and Call times are: 210774
C	0.655807	0.657374	-0.651289
C	-0.645171	0.388657	-0.960514
C	-1.12778	-0.459568	0.0824237
C	-0.0791169	-0.634309	0.936906
O	1.01824	0.0407254	0.504305
H	1.41902	1.26458	-1.16515
H	-1.20847	0.751366	-1.83529
H	-2.13967	-0.885278	0.177053
H	0.0125913	-1.20732	1.87419
C	4.26115	-0.701865	0.105032
C	5.48451	-0.858503	0.721461
N	6.33721	0.136135	0.374889
C	5.64547	0.906888	-0.453393
N	4.38798	0.443886	-0.648197
H	3.34001	-1.30454	0.147645
H	5.76717	-1.67138	1.41007
H	6.01139	1.8223	-0.945696
H	3.6502	0.875481	-1.25703
