18
  This energy is -0.8431 and Call times are: 33578
C	-1.05459	0.37487	-0.183596
C	-0.607986	0.0294117	1.05801
C	0.747316	-0.386628	0.884266
C	1.00927	-0.258678	-0.448168
O	-0.0800196	0.205157	-1.11548
H	-2.03107	0.750435	-0.531008
H	-1.17596	0.064079	2.00156
H	1.43908	-0.738667	1.66633
H	1.91856	-0.461992	-1.03732
C	6.24336	0.665903	0.907618
C	6.9959	0.316259	-0.193553
N	6.28394	-0.461277	-1.04505
C	5.09424	-0.593492	-0.474302
N	5.01972	0.0676884	0.705053
H	6.48397	1.27768	1.79157
H	8.03982	0.611097	-0.38889
H	4.24141	-1.16344	-0.876878
H	4.18823	0.115505	1.34349
