18
  This energy is -0.9397 and Call times are: 92119
C	-0.627567	0.311065	-0.892076
C	-0.860416	0.784802	0.365591
C	0.121614	0.171908	1.20231
C	0.867877	-0.622255	0.382084
O	0.424309	-0.549458	-0.900476
H	-1.13264	0.506792	-1.8522
H	-1.64501	1.49464	0.673233
H	0.249812	0.312064	2.28767
H	1.7292	-1.27931	0.586167
C	5.62072	0.693362	-0.925
C	4.49077	-0.0676119	-0.712191
N	4.57118	-0.744863	0.458867
C	5.74654	-0.405329	0.970603
N	6.41731	0.459883	0.173691
H	5.90485	1.36221	-1.75292
H	3.61895	-0.140108	-1.38265
H	6.16524	-0.760956	1.92583
H	7.36385	0.873954	0.357716
