18
  This energy is -2.1564 and Call times are: 35801
C	-0.0517768	-1.13201	0.0477065
C	0.221378	-0.366507	1.14305
C	0.199484	0.987572	0.689054
C	-0.0851172	0.929994	-0.643635
O	-0.24171	-0.35669	-1.05221
H	-0.138015	-2.22378	-0.0781717
H	0.418512	-0.719917	2.1679
H	0.376268	1.89277	1.29193
H	-0.201819	1.72229	-1.4012
C	3.45728	1.12556	-0.0273889
C	4.05685	0.46852	1.02616
N	4.31711	-0.823709	0.711637
C	3.88065	-0.967784	-0.532298
N	3.35348	0.179208	-1.02229
H	3.10875	2.16493	-0.135925
H	4.30631	0.903733	2.00759
H	3.92256	-1.89159	-1.13152
H	2.94375	0.320646	-1.978
