18
  This energy is -1.0181 and Call times are: 199758
C	0.239806	-0.831547	-0.733092
C	-0.194242	0.396482	-1.13796
C	-0.385387	1.15682	0.0559663
C	-0.0512702	0.326303	1.08503
O	0.332892	-0.892092	0.621412
H	0.512535	-1.73502	-1.30284
H	-0.362896	0.733136	-2.17349
H	-0.731708	2.2002	0.130188
H	-0.0445008	0.480768	2.17652
C	4.01975	-0.211879	-0.416244
C	4.4258	0.887607	0.309979
N	5.74088	0.805487	0.626726
C	6.14912	-0.340585	0.0990111
N	5.1483	-0.991078	-0.540374
H	3.04024	-0.485822	-0.839385
H	3.79342	1.73866	0.611067
H	7.17028	-0.75138	0.151088
H	5.21864	-1.91329	-1.0362
