18
  This energy is -0.5691 and Call times are: 211318
C	0.0696382	0.61809	-0.948429
C	1.01855	0.671974	0.0298526
C	0.584649	-0.233466	1.04574
C	-0.591112	-0.760723	0.59857
O	-0.920749	-0.251844	-0.617733
H	-0.0150277	1.14228	-1.91451
H	1.93239	1.28757	0.0355298
H	1.09518	-0.459468	1.99567
H	-1.27951	-1.49636	1.046
C	6.70227	-1.00588	-0.102809
C	7.02925	0.0775886	0.684803
N	6.11154	1.06693	0.560225
C	5.21863	0.599002	-0.301396
N	5.53018	-0.647054	-0.730203
H	7.20399	-1.97454	-0.256122
H	7.9109	0.163162	1.34072
H	4.31773	1.1272	-0.652987
H	4.98309	-1.22894	-1.41091
