18
  This energy is -1.3124 and Call times are: 31086
C	0.163408	1.02474	0.45783
C	1.14635	0.360054	-0.214769
C	0.565984	-0.875666	-0.634634
C	-0.720381	-0.857026	-0.181544
O	-0.983428	0.296126	0.487829
H	0.154326	2.00875	0.954721
H	2.17674	0.705302	-0.396966
H	1.05693	-1.67901	-1.20709
H	-1.53699	-1.5924	-0.268852
C	5.20737	0.697894	-0.896416
C	5.13296	1.04616	0.43562
N	4.74506	-0.00704474	1.1951
C	4.57945	-1.00489	0.337487
N	4.8459	-0.630244	-0.936183
H	5.48277	1.28172	-1.78908
H	5.35223	2.0385	0.862274
H	4.26425	-2.03047	0.588618
H	4.78814	-1.23608	-1.7911
