18
  This energy is -2.2736 and Call times are: 28221
C	-0.234367	0.0650567	1.10781
C	-0.399649	1.12297	0.262894
C	-0.00533516	0.657267	-1.02852
C	0.366097	-0.644115	-0.858772
O	0.23259	-1.02242	0.439716
H	-0.41105	-0.040171	2.19084
H	-0.76281	2.13023	0.522963
H	-0.00198329	1.23166	-1.96882
H	0.738064	-1.39732	-1.57262
C	3.94666	-1.08749	0.286854
C	3.59853	-0.0740563	1.15455
N	3.24915	1.04822	0.480063
C	3.38002	0.732215	-0.801201
N	3.7982	-0.544601	-0.969896
H	4.27847	-2.12208	0.468689
H	3.5932	-0.132548	2.25519
H	3.18285	1.39791	-1.65689
H	3.97555	-1.02875	-1.8839
