18
  This energy is -0.8202 and Call times are: 7775
C	-0.403987	0.547229	0.907599
C	0.911497	0.596567	0.550609
C	1.02784	-0.205644	-0.625418
C	-0.226822	-0.674384	-0.883265
O	-1.1138	-0.224514	0.0429643
H	-0.952501	1.01108	1.7438
H	1.71893	1.14305	1.06393
H	1.94341	-0.404811	-1.2052
H	-0.613458	-1.32673	-1.68339
C	6.28684	0.382388	1.04366
C	5.02425	0.552261	0.516278
N	4.92582	-0.0178214	-0.709214
C	6.12281	-0.539375	-0.941212
N	6.97876	-0.324772	0.085866
H	6.72725	0.703955	2.00083
H	4.18254	1.07596	0.99808
H	6.42654	-1.08876	-1.84684
H	7.97892	-0.637497	0.141891
