18
  This energy is -0.9069 and Call times are: 118749
C	0.779672	-0.0999291	0.817635
C	1.11413	0.0605452	-0.494904
C	-0.121817	0.147376	-1.20554
C	-1.10244	0.0322982	-0.26453
O	-0.569907	-0.119413	0.976599
H	1.40028	-0.210467	1.722
H	2.12935	0.112554	-0.920021
H	-0.255407	0.280094	-2.29119
H	-2.20154	0.0425764	-0.348941
C	5.14056	-1.09426	-0.346946
C	4.99787	0.0629148	-1.08297
N	5.39381	1.14635	-0.371695
C	5.78065	0.663149	0.801118
N	5.64726	-0.682825	0.865554
H	4.92458	-2.14632	-0.592024
H	4.61633	0.13546	-2.11448
H	6.16983	1.25064	1.64825
H	5.88462	-1.29612	1.68335
