18
  This energy is -0.8043 and Call times are: 134115
C	0.740096	-0.59992	-0.615431
C	-0.597074	-0.868902	-0.615142
C	-1.18783	0.0861954	0.267417
C	-0.159518	0.854511	0.728536
O	1.02511	0.449524	0.199705
H	1.58143	-1.07567	-1.14559
H	-1.11542	-1.66048	-1.17978
H	-2.25529	0.182373	0.523114
H	-0.140167	1.70768	1.42637
C	5.74367	0.844753	-0.613113
C	5.88223	0.579617	0.732862
N	5.10603	-0.466243	1.1073
C	4.48829	-0.848476	-0.00216806
N	4.83926	-0.0891731	-1.067
H	6.20913	1.60653	-1.25855
H	6.52836	1.12423	1.4405
H	3.76888	-1.67841	-0.0910029
H	4.48913	-0.192264	-2.05089
