18
  This energy is -0.8795 and Call times are: 186490
C	-0.878281	-0.715086	0.0606237
C	-0.0486485	-0.667226	-1.02095
C	0.918956	0.341513	-0.727171
C	0.595195	0.821031	0.507987
O	-0.499834	0.187063	1.00398
H	-1.76128	-1.33834	0.277716
H	-0.111726	-1.28072	-1.93404
H	1.75526	0.665631	-1.3672
H	1.05853	1.60134	1.13384
C	4.63816	0.362534	0.355172
C	5.03496	-0.938109	0.127098
N	6.32841	-0.991203	-0.273749
C	6.73249	0.271699	-0.294272
N	5.74976	1.12614	0.0769008
H	3.67552	0.78468	0.68481
H	4.41113	-1.83915	0.244596
H	7.73764	0.62668	-0.573349
H	5.82104	2.17118	0.140571
