18
  This energy is -1.5758 and Call times are: 158923
C	0.754925	0.403959	-0.743846
C	0.886161	0.585388	0.601604
C	-0.242759	-0.0578408	1.19483
C	-0.964205	-0.575555	0.159519
O	-0.369519	-0.302981	-1.03173
H	1.38519	0.724262	-1.58967
H	1.69664	1.11868	1.12393
H	-0.481604	-0.122427	2.26855
H	-1.90472	-1.15024	0.139104
C	5.28511	0.751093	0.886953
C	6.04078	-0.357913	0.570369
N	5.54025	-0.996633	-0.514998
C	4.47812	-0.286571	-0.870396
N	4.28209	0.777461	-0.0561481
H	5.38675	1.49847	1.68985
H	6.93817	-0.708624	1.10566
H	3.80865	-0.501236	-1.7189
H	3.51264	1.48728	-0.129327
