18
  This energy is -1.7148 and Call times are: 203909
C	-0.145544	-0.928832	0.63442
C	-0.109069	-0.973419	-0.728318
C	0.0868325	0.37442	-1.15852
C	0.152777	1.12367	-0.020688
O	0.0127711	0.344017	1.08365
H	-0.276472	-1.72211	1.38863
H	-0.209992	-1.86591	-1.36657
H	0.167998	0.734732	-2.19663
H	0.294427	2.20578	0.134941
C	4.89219	0.321509	-0.808798
C	4.44674	-0.957321	-0.549352
N	3.53158	-0.962603	0.450128
C	3.40975	0.308117	0.809365
N	4.20946	1.1217	0.0798882
H	5.62236	0.705942	-1.5386
H	4.7693	-1.87627	-1.06544
H	2.74938	0.698049	1.60063
H	4.29342	2.16355	0.173455
