18
  This energy is -0.6225 and Call times are: 185466
C	-0.744862	-0.847322	0.116739
C	0.0620471	-0.729572	-0.976608
C	0.846298	0.44422	-0.759168
C	0.449403	0.940138	0.447858
O	-0.52168	0.163884	0.99689
H	-1.50947	-1.59513	0.383963
H	0.10108	-1.40185	-1.84874
H	1.61429	0.862974	-1.42919
H	0.776005	1.82554	1.01763
C	4.84563	-0.0750159	-0.216556
C	5.66287	-1.07327	0.27002
N	6.94036	-0.639686	0.39855
C	6.91574	0.622752	-0.00674862
N	5.67554	1.01039	-0.387829
H	3.76816	-0.060683	-0.445425
H	5.3536	-2.09859	0.530642
H	7.77728	1.30871	-0.044817
H	5.39889	1.95735	-0.745595
