18
  This energy is -1.2117 and Call times are: 127860
C	-0.0484385	-0.801142	0.80139
C	-1.01223	0.154228	0.664452
C	-0.603494	0.966938	-0.436709
C	0.573986	0.43646	-0.875468
O	0.927941	-0.643907	-0.130797
H	0.056756	-1.63686	1.51256
H	-1.91993	0.274576	1.27738
H	-1.13128	1.84269	-0.8473
H	1.24789	0.731549	-1.69645
C	4.44931	-0.196515	-0.960769
C	4.24028	-0.713603	0.30021
N	5.18367	-0.27732	1.16979
C	5.97495	0.507442	0.451012
N	5.57413	0.588563	-0.83986
H	3.89569	-0.327291	-1.90414
H	3.42565	-1.39366	0.598124
H	6.86185	1.0473	0.820048
H	6.03283	1.14373	-1.60317
