18
  This energy is -0.9512 and Call times are: 34215
C	-0.0617654	-0.766475	0.833728
C	-0.835859	0.356379	0.814998
C	-0.474786	1.06041	-0.374153
C	0.48808	0.305634	-0.977121
O	0.752729	-0.813692	-0.253186
H	0.00303266	-1.59786	1.55473
H	-1.58589	0.65856	1.56349
H	-0.889201	2.01699	-0.730971
H	1.05528	0.453841	-1.9107
C	5.91311	-0.935428	0.0393273
C	6.27932	0.375625	-0.180157
N	5.19971	1.19448	-0.159778
C	4.16766	0.394472	0.0714704
N	4.54585	-0.899465	0.199071
H	6.50883	-1.8606	0.0914103
H	7.3032	0.745357	-0.352853
H	3.11351	0.703841	0.156951
H	3.9173	-1.71912	0.384385
