18
  This energy is -0.946 and Call times are: 85865
C	0.0946697	0.0371449	1.12963
C	-0.453129	-1.02804	0.477185
C	-0.396075	-0.706355	-0.913277
C	0.181551	0.527002	-0.98778
O	0.487715	0.996095	0.250456
H	0.259721	0.231514	2.20212
H	-0.856884	-1.948	0.929674
H	-0.7468	-1.32732	-1.75321
H	0.425987	1.16896	-1.84998
C	4.51667	-1.00264	-0.482558
C	3.96427	0.25181	-0.632045
N	4.66317	1.17979	0.0657414
C	5.64541	0.503606	0.645909
N	5.60045	-0.816143	0.34619
H	4.22497	-1.98219	-0.89357
H	3.07395	0.503924	-1.23089
H	6.4251	0.925565	1.30033
H	6.26465	-1.55629	0.681283
