18
  This energy is -1.4606 and Call times are: 128258
C	-0.108496	1.12761	0.0558592
C	0.275619	0.486401	-1.08505
C	0.296014	-0.905124	-0.763554
C	-0.0774392	-0.991414	0.545438
O	-0.3283	0.240481	1.06169
H	-0.260506	2.19665	0.277893
H	0.520076	0.947099	-2.05567
H	0.559428	-1.73784	-1.43534
H	-0.201072	-1.85854	1.2148
C	4.67277	0.0264585	-1.11599
C	4.49019	-1.09218	-0.33084
N	4.05055	-0.754705	0.905824
C	3.96072	0.568259	0.887932
N	4.32499	1.08654	-0.308852
H	5.01418	0.139401	-2.15725
H	4.66782	-2.13672	-0.634523
H	3.63379	1.20757	1.72377
H	4.33968	2.10236	-0.571795
