18
  This energy is -1.1548 and Call times are: 107487
C	1.02638	0.167132	-0.452791
C	0.721187	-0.945815	0.274246
C	-0.643426	-0.79375	0.667721
C	-1.05167	0.398698	0.146397
O	-0.0446599	0.999066	-0.54099
H	1.95699	0.480751	-0.953641
H	1.38993	-1.78925	0.509827
H	-1.24308	-1.49584	1.26904
H	-2.01978	0.9239	0.193029
C	5.77135	0.917453	0.304404
C	5.0885	0.0735637	1.15453
N	4.41476	-0.876932	0.462333
C	4.67863	-0.623667	-0.812364
N	5.49234	0.448571	-0.95991
H	6.41463	1.78939	0.503034
H	5.06991	0.13351	2.25494
H	4.30195	-1.19192	-1.67807
H	5.84373	0.846842	-1.86498
