18
  This energy is -1.1551 and Call times are: 167258
C	0.839698	-0.332538	-0.686095
C	0.812418	0.904132	-0.111398
C	-0.382287	0.945743	0.67031
C	-0.979608	-0.269173	0.504297
O	-0.247033	-1.06242	-0.320994
H	1.56715	-0.807492	-1.36468
H	1.55873	1.70656	-0.226411
H	-0.746445	1.78685	1.28189
H	-1.91447	-0.686231	0.913377
C	5.48678	0.311061	0.97161
C	4.79286	-0.862184	0.763964
N	4.23636	-0.888644	-0.471399
C	4.58372	0.263804	-1.02802
N	5.33817	1.02243	-0.198029
H	6.05682	0.677864	1.83997
H	4.68378	-1.69005	1.4834
H	4.31268	0.602699	-2.0409
H	5.73441	1.97166	-0.405907
