18
  This energy is -1.2911 and Call times are: 100376
C	-0.536447	0.993851	0.104336
C	-0.677316	-0.0113979	1.01538
C	0.14165	-1.08294	0.545045
C	0.710683	-0.637896	-0.611897
O	0.307644	0.628497	-0.896184
H	-0.977054	2.00317	0.0553302
H	-1.29589	0.000463223	1.92715
H	0.284304	-2.06706	1.01964
H	1.40959	-1.11952	-1.31533
C	4.82584	-0.762976	-0.78843
C	4.00241	0.31395	-1.04012
N	3.7052	0.979322	0.102448
C	4.34181	0.317691	1.05931
N	5.03177	-0.741074	0.57293
H	5.26519	-1.5182	-1.45937
H	3.61745	0.622762	-2.02566
H	4.33675	0.565488	2.133
H	5.61287	-1.41658	1.12726
