18
  This energy is -1.2329 and Call times are: 7550
C	-0.488988	0.645478	-0.794135
C	-0.12666	-0.648854	-1.02608
C	0.447111	-1.11899	0.194528
C	0.384755	-0.0704502	1.06461
O	-0.184042	1.01531	0.477575
H	-0.965422	1.39878	-1.44282
H	-0.250964	-1.21568	-1.96275
H	0.856123	-2.12281	0.392402
H	0.706666	0.0287043	2.11428
C	4.01162	0.403779	-0.495134
C	4.14029	-0.711372	0.305507
N	5.42451	-0.881697	0.703367
C	6.08999	0.123964	0.151646
N	5.28244	0.927098	-0.580765
H	3.13489	0.847196	-0.9934
H	3.32951	-1.3961	0.603213
H	7.16982	0.319522	0.251475
H	5.56968	1.78499	-1.11253
