18
  This energy is -1.4921 and Call times are: 160996
C	0.536376	-0.174639	-0.983973
C	0.24795	1.07555	-0.521148
C	-0.4198	0.885942	0.727161
C	-0.480478	-0.463378	0.916963
O	0.098697	-1.12653	-0.118317
H	1.04236	-0.515644	-1.90209
H	0.481943	2.03502	-1.00978
H	-0.806475	1.66917	1.39882
H	-0.903599	-1.06821	1.73574
C	4.56976	-0.190685	-1.10091
C	3.70158	-0.97556	-0.37195
N	3.49458	-0.457813	0.863202
C	4.23154	0.644067	0.900353
N	4.89886	0.848873	-0.25996
H	4.96355	-0.294867	-2.12444
H	3.22086	-1.90615	-0.715111
H	4.31893	1.33756	1.75221
H	5.54403	1.64742	-0.477516
