18
  This energy is -1.4382 and Call times are: 84023
C	-0.147057	0.751921	-0.836296
C	1.08735	0.311022	-0.459162
C	0.863736	-0.612192	0.607511
C	-0.487574	-0.653958	0.788042
O	-1.12055	0.172968	-0.0851995
H	-0.461897	1.46681	-1.61415
H	2.05799	0.606295	-0.888994
H	1.62654	-1.17504	1.16914
H	-1.11355	-1.22363	1.49436
C	5.59854	-1.11108	-0.333442
C	6.42871	-0.0276316	-0.528643
N	5.88532	1.10297	-0.0158349
C	4.72245	0.722364	0.495553
N	4.50344	-0.603535	0.329382
H	5.70597	-2.17196	-0.610073
H	7.41003	-0.0414689	-1.03031
H	3.99262	1.37372	1.00282
H	3.66009	-1.14226	0.645279
