18
  This energy is -0.579 and Call times are: 127300
C	-0.707604	0.721228	-0.515294
C	0.62886	0.96733	-0.398367
C	1.17327	-0.153696	0.299516
C	0.121424	-0.985879	0.547448
O	-1.035	-0.467286	0.0567719
H	-1.52084	1.30496	-0.976979
H	1.1764	1.84976	-0.766618
H	2.22683	-0.313249	0.579943
H	0.065674	-1.96194	1.0568
C	6.90792	0.854778	0.0414767
C	6.59497	0.0638931	-1.04375
N	5.61451	-0.820121	-0.73758
C	5.32033	-0.578574	0.532749
N	6.07297	0.422485	1.04754
H	7.64123	1.66752	0.164904
H	7.05906	0.115303	-2.04216
H	4.56216	-1.10522	1.13446
H	6.02886	0.797812	2.02655
