18
  This energy is -1.2033 and Call times are: 74069
C	-0.659705	0.83358	0.395393
C	-0.457492	-0.326604	1.08348
C	0.417485	-1.11374	0.274186
C	0.672718	-0.365078	-0.837
O	0.0229771	0.827218	-0.779731
H	-1.25878	1.72846	0.631084
H	-0.881908	-0.600626	2.0627
H	0.806354	-2.1194	0.50118
H	1.29109	-0.56542	-1.72736
C	5.02458	-0.311419	1.11251
C	3.86334	0.253961	0.629805
N	3.94899	0.483589	-0.703029
C	5.15877	0.0622661	-1.04588
N	5.84641	-0.425918	0.0135653
H	5.31462	-0.629767	2.12645
H	2.96524	0.500303	1.21937
H	5.5917	0.088018	-2.05886
H	6.82009	-0.817108	0.000350783
