18
  This energy is -1.1207 and Call times are: 73877
C	-1.06462	0.345699	-0.182969
C	-0.21849	1.00211	0.661755
C	1.01056	0.275243	0.626821
C	0.806984	-0.761185	-0.236167
O	-0.454899	-0.733611	-0.740054
H	-2.11064	0.543412	-0.469342
H	-0.437828	1.90736	1.25041
H	1.93361	0.504868	1.18301
H	1.47106	-1.57484	-0.571147
C	5.57756	0.878583	-0.762665
C	6.22333	-0.339423	-0.738513
N	5.76959	-1.11298	0.27748
C	4.84585	-0.377666	0.881326
N	4.69303	0.831683	0.291656
H	5.68139	1.74646	-1.43315
H	7.00852	-0.673899	-1.43598
H	4.25107	-0.676249	1.75957
H	4.02752	1.58926	0.582255
