18
  This energy is -0.9611 and Call times are: 187162
C	0.901929	0.363824	-0.583573
C	0.472479	-0.92977	-0.634175
C	-0.66991	-0.996214	0.220606
C	-0.83771	0.262643	0.718095
O	0.113388	1.10613	0.237521
H	1.74429	0.874405	-1.07853
H	0.915697	-1.75447	-1.21515
H	-1.28853	-1.88267	0.434144
H	-1.58487	0.680774	1.41248
C	7.48494	-0.90324	-0.316405
C	7.71964	0.435075	-0.550864
N	6.7217	1.20162	-0.0478421
C	5.87114	0.342124	0.496607
N	6.28652	-0.939521	0.360853
H	8.06651	-1.80238	-0.574951
H	8.59117	0.861285	-1.07397
H	4.92877	0.59748	1.00745
H	5.79022	-1.7974	0.705795
