18
  This energy is -1.3875 and Call times are: 71108
C	-1.04979	-0.120782	0.412002
C	-0.523047	1.09825	0.100765
C	0.797163	0.842368	-0.380575
C	0.960632	-0.510444	-0.320987
O	-0.15743	-1.11454	0.1607
H	-2.03435	-0.410648	0.814333
H	-1.01484	2.07925	0.200168
H	1.53249	1.58552	-0.728574
H	1.81301	-1.15635	-0.588393
C	5.40839	-1.15977	-0.0574545
C	6.6207	-0.514324	-0.179203
N	6.47375	0.827709	-0.0614615
C	5.17521	1.01411	0.132592
N	4.48984	-0.15369	0.143202
H	5.14315	-2.2282	-0.0980508
H	7.59878	-0.992943	-0.34989
H	4.67308	1.98491	0.272795
H	3.45577	-0.27046	0.278504
