18
  This energy is -0.6639 and Call times are: 173956
C	1.09094	-0.250688	-0.182767
C	0.114049	-0.534925	-1.09121
C	-1.10672	-0.0753305	-0.509301
C	-0.768055	0.449186	0.703366
O	0.570109	0.350482	0.919204
H	2.17956	-0.423296	-0.201717
H	0.240426	-1.01961	-2.07264
H	-2.11504	-0.132829	-0.949851
H	-1.37801	0.91606	1.49408
C	5.53869	1.10866	-0.360481
C	4.97943	-0.0280912	-0.904691
N	5.3825	-1.13767	-0.239204
C	6.18876	-0.690973	0.714231
N	6.31538	0.656832	0.682969
H	5.44216	2.1717	-0.632812
H	4.2923	-0.0675038	-1.7656
H	6.71268	-1.30755	1.46227
H	6.89483	1.24548	1.33027
