18
  This energy is -0.7455 and Call times are: 37006
C	0.00662987	1.09407	-0.298939
C	-0.819898	0.606743	0.670461
C	-0.538461	-0.790845	0.757966
C	0.435205	-1.03419	-0.165686
O	0.780133	0.105733	-0.820373
H	0.138335	2.11076	-0.704211
H	-1.55412	1.17448	1.26434
H	-1.01108	-1.52215	1.43318
H	0.958502	-1.9621	-0.449204
C	7.95007	-0.22749	0.480304
C	7.54037	0.959376	-0.0894675
N	6.26703	0.869082	-0.544396
C	5.88822	-0.369092	-0.25794
N	6.86776	-1.07035	0.360394
H	8.90342	-0.522129	0.947046
H	8.14075	1.87922	-0.180447
H	4.90458	-0.813971	-0.478745
H	6.81315	-2.06635	0.686356
