18
  This energy is -0.7655 and Call times are: 170056
C	0.923972	0.489968	-0.438871
C	-0.318868	0.664474	-0.972977
C	-1.20655	-0.0996732	-0.155532
C	-0.427798	-0.673682	0.805942
O	0.876078	-0.324376	0.648125
H	1.90931	0.885413	-0.735484
H	-0.583953	1.27051	-1.8542
H	-2.29673	-0.203909	-0.276943
H	-0.677579	-1.34147	1.64672
C	6.01333	1.15513	0.0725717
C	6.88054	0.131818	0.391828
N	6.30494	-1.07798	0.187931
C	5.08527	-0.806232	-0.256128
N	4.86098	0.526321	-0.343224
H	6.13075	2.2498	0.110573
H	7.91125	0.244771	0.765637
H	4.31593	-1.54518	-0.532371
H	3.97757	0.991793	-0.665997
