18
  This energy is -1.1065 and Call times are: 135878
C	-0.310783	0.784922	0.757438
C	-1.21789	0.0270279	0.0768975
C	-0.452848	-0.831932	-0.769875
C	0.854223	-0.52311	-0.532033
O	0.959535	0.462272	0.39799
H	-0.440205	1.57656	1.51362
H	-2.31562	0.0686673	0.162592
H	-0.839484	-1.58869	-1.47125
H	1.78928	-0.926626	-0.954055
C	4.78494	-1.1055	-0.358826
C	4.50976	-0.0127158	-1.15333
N	4.35319	1.10728	-0.406609
C	4.53057	0.710823	0.846381
N	4.7935	-0.615004	0.927847
H	4.96914	-2.16225	-0.609625
H	4.42139	-0.012355	-2.25199
H	4.47897	1.35005	1.74246
H	4.97021	-1.16459	1.80419
