18
  This energy is -0.7716 and Call times are: 89984
C	-1.10928	-0.0205971	0.235515
C	-0.610628	-0.422948	-0.968574
C	0.80479	-0.251776	-0.882502
C	1.04613	0.240065	0.366586
O	-0.111511	0.387507	1.06311
H	-2.1408	0.0229944	0.621931
H	-1.18219	-0.80223	-1.83087
H	1.54885	-0.471954	-1.6648
H	1.98402	0.521827	0.872762
C	4.95752	-0.00224903	0.913131
C	5.75563	-1.04515	0.492991
N	6.48645	-0.694387	-0.592997
C	6.14303	0.561349	-0.845613
N	5.224	1.02411	0.0346254
H	4.24263	0.0794528	1.74728
H	5.81722	-2.04441	0.954006
H	6.53391	1.18888	-1.66271
H	4.79599	1.9822	0.0457552
