18
  This energy is -0.8918 and Call times are: 7646
C	-0.566421	0.950289	0.250037
C	-1.19564	-0.241918	0.0424439
C	-0.161782	-1.18517	-0.243089
C	1.00795	-0.4861	-0.184774
O	0.779596	0.819603	0.115234
H	-0.958403	1.95058	0.497058
H	-2.27913	-0.437496	0.0860117
H	-0.284304	-2.25749	-0.464921
H	2.05449	-0.798247	-0.335043
C	5.3286	0.536342	-0.99471
C	5.01689	-0.797592	-0.83788
N	4.6796	-1.07296	0.445444
C	4.78169	0.085735	1.08233
N	5.16995	1.08693	0.257435
H	5.64167	1.11352	-1.87924
H	5.02931	-1.56625	-1.62772
H	4.58383	0.257217	2.15269
H	5.32128	2.09125	0.521425
