18
  This energy is -0.5933 and Call times are: 152338
C	0.370492	-0.763585	0.752379
C	-0.842465	-0.872384	0.138154
C	-0.946857	0.261059	-0.724705
C	0.211523	0.962431	-0.561591
O	1.02764	0.351096	0.336868
H	0.874524	-1.40473	1.49409
H	-1.58881	-1.67071	0.278604
H	-1.79024	0.516256	-1.38628
H	0.570304	1.89836	-1.02046
C	6.04476	0.6581	-0.243755
C	4.80413	0.738468	-0.840005
N	3.94925	-0.171975	-0.313896
C	4.65685	-0.814712	0.605242
N	5.92652	-0.350963	0.68576
H	6.97247	1.22853	-0.40959
H	4.51055	1.43707	-1.64038
H	4.29436	-1.63319	1.24783
H	6.67772	-0.694608	1.33296
