18
  This energy is -1.3746 and Call times are: 35737
C	0.326226	-1.0694	-0.190666
C	-0.624873	-0.450004	-0.947058
C	-0.757955	0.865715	-0.407345
C	0.123567	0.934185	0.631213
O	0.794186	-0.238751	0.77786
H	0.752213	-2.08498	-0.239597
H	-1.17731	-0.876811	-1.79955
H	-1.4341	1.66186	-0.758177
H	0.364383	1.7493	1.33324
C	4.05077	-0.657832	0.728591
C	5.07812	0.193584	1.07612
N	5.6073	0.792972	-0.018056
C	4.91088	0.315216	-1.04049
N	3.96053	-0.563306	-0.642215
H	3.39923	-1.30279	1.33938
H	5.447	0.386122	2.09676
H	5.05524	0.575062	-2.10156
H	3.28388	-1.07496	-1.25997
