18
  This energy is -1.5371 and Call times are: 182003
C	-0.681283	-0.755262	0.50183
C	-0.0815646	-0.997269	-0.699063
C	0.684434	0.171128	-0.996069
C	0.485187	1.02398	0.0495468
O	-0.346239	0.474469	0.973548
H	-1.35954	-1.36893	1.11716
H	-0.16975	-1.90727	-1.31405
H	1.30824	0.347142	-1.88713
H	0.87274	2.03602	0.251617
C	3.89722	1.06382	0.0243339
C	3.96423	0.156339	1.06026
N	4.61698	-0.969483	0.682163
C	4.95364	-0.761223	-0.583503
N	4.54215	0.450439	-1.02639
H	3.45111	2.06916	-0.0374486
H	3.55327	0.293771	2.0737
H	5.502	-1.4627	-1.2327
H	4.68684	0.84705	-1.98713
