18
  This energy is -1.0788 and Call times are: 90677
C	-0.629671	-0.879151	0.342066
C	-0.917305	-0.170152	-0.787075
C	0.0870276	0.841165	-0.880203
C	0.899736	0.66089	0.200251
O	0.476845	-0.385376	0.95755
H	-1.12821	-1.74451	0.808837
H	-1.7529	-0.342075	-1.48444
H	0.184955	1.60925	-1.66413
H	1.79863	1.20268	0.537444
C	4.80438	-1.12983	0.265162
C	4.41446	-0.0284984	0.997404
N	4.80714	1.12132	0.397206
C	5.43826	0.734771	-0.703198
N	5.46343	-0.613329	-0.828031
H	4.66419	-2.20859	0.438852
H	3.85684	-0.042952	1.94803
H	5.90088	1.39736	-1.45233
H	5.90151	-1.16078	-1.60882
