18
  This energy is -0.8261 and Call times are: 180883
C	0.57247	0.722866	0.660411
C	1.13911	-0.410219	0.15503
C	0.118603	-1.04811	-0.614242
C	-0.981568	-0.248515	-0.511043
O	-0.72233	0.837546	0.263734
H	0.979203	1.51825	1.30631
H	2.1721	-0.761591	0.308553
H	0.203036	-1.99239	-1.17575
H	-1.99477	-0.34069	-0.93551
C	6.36008	0.174182	-0.88149
C	5.60464	1.132	-0.238816
N	4.83595	0.578747	0.730485
C	5.11347	-0.717367	0.689295
N	6.02687	-1.01172	-0.266033
H	7.08698	0.250021	-1.70576
H	5.60047	2.21235	-0.457169
H	4.67643	-1.49517	1.33602
H	6.4085	-1.96223	-0.494379
