18
  This energy is -1.2267 and Call times are: 70426
C	-1.00824	-0.509267	0.102509
C	-0.609633	0.495708	0.934082
C	0.696082	0.872345	0.494341
C	0.980117	0.0642795	-0.567133
O	-0.0496492	-0.785699	-0.820372
H	-1.93747	-1.10113	0.0640433
H	-1.17806	0.928392	1.773
H	1.34131	1.65511	0.924518
H	1.86766	-0.00353264	-1.21746
C	4.75876	-0.26226	-1.01162
C	5.78809	-0.961934	-0.418252
N	6.1716	-0.376492	0.742215
C	5.3832	0.682347	0.868293
N	4.51394	0.794879	-0.163851
H	4.20173	-0.436018	-1.946
H	6.26088	-1.87868	-0.806694
H	5.39997	1.40857	1.69688
H	3.79119	1.54459	-0.293576
