18
  This energy is -0.5782 and Call times are: 103584
C	0.276314	0.733187	-0.820054
C	1.13425	-0.234004	-0.385482
C	0.435958	-0.945091	0.637678
C	-0.787058	-0.349662	0.738022
O	-0.901804	0.677177	-0.144841
H	0.38354	1.51217	-1.59267
H	2.15632	-0.427314	-0.74896
H	0.808958	-1.79935	1.22522
H	-1.65144	-0.560084	1.38903
C	7.14187	-0.6291	0.319687
C	7.03339	0.19903	-0.777389
N	5.80489	0.767603	-0.840829
C	5.15372	0.294001	0.212883
N	5.91698	-0.55234	0.944136
H	7.97621	-1.247	0.687941
H	7.81954	0.39645	-1.52428
H	4.11624	0.534169	0.496041
H	5.63029	-1.0544	1.81992
