18
  This energy is -0.616 and Call times are: 157003
C	0.890124	-0.608844	-0.351269
C	0.752151	-0.195575	0.941227
C	-0.475909	0.532163	0.990051
C	-0.979977	0.499361	-0.276919
O	-0.158651	-0.19331	-1.10917
H	1.67788	-1.19628	-0.850869
H	1.4456	-0.384266	1.77646
H	-0.923931	1.0199	1.87067
H	-1.90094	0.924497	-0.708585
C	6.915	0.387047	0.755686
C	7.13467	-0.147522	-0.496163
N	5.9671	-0.488971	-1.09342
C	5.02669	-0.167449	-0.215432
N	5.5475	0.364418	0.915702
H	7.6118	0.769216	1.51855
H	8.1147	-0.292953	-0.979109
H	3.94108	-0.300187	-0.349882
H	5.01166	0.696316	1.75474
