18
  This energy is -0.7183 and Call times are: 23093
C	0.653103	0.13751	-0.917033
C	-0.435198	-0.684653	-0.911999
C	-0.988795	-0.592462	0.401451
C	-0.18992	0.277898	1.0831
O	0.817827	0.733472	0.293218
H	1.38157	0.381286	-1.70771
H	-0.810491	-1.29483	-1.74922
H	-1.87865	-1.11695	0.785072
H	-0.231731	0.649949	2.11996
C	4.49828	-0.239349	-0.827675
C	4.99495	-1.10957	0.119523
N	5.90583	-0.498022	0.915024
C	5.97398	0.746848	0.463052
N	5.14423	0.952723	-0.587048
H	3.75565	-0.37934	-1.6292
H	4.71236	-2.16773	0.243174
H	6.61482	1.54844	0.864313
H	5.01717	1.84956	-1.11695
