18
  This energy is -0.7625 and Call times are: 198765
C	-1.0939	-0.0788091	0.28908
C	-0.161128	-0.982063	0.706737
C	1.07942	-0.55108	0.145115
C	0.79521	0.577496	-0.566162
O	-0.527391	0.880515	-0.489235
H	-2.17835	-0.00900266	0.474419
H	-0.329739	-1.86343	1.34616
H	2.06388	-1.03185	0.262518
H	1.43686	1.24697	-1.16227
C	6.82486	-0.435549	-0.380858
C	5.56753	-0.742128	-0.856556
N	4.61068	-0.0550812	-0.186552
C	5.27188	0.674946	0.70142
N	6.60978	0.480873	0.624178
H	7.82412	-0.792749	-0.676548
H	5.33367	-1.44675	-1.67121
H	4.82564	1.36847	1.43226
H	7.34345	0.940866	1.21696
