18
  This energy is -1.0579 and Call times are: 152146
C	-0.490035	0.901809	-0.482709
C	0.825992	0.890013	-0.124507
C	1.06555	-0.399222	0.44171
C	-0.125229	-1.06145	0.379532
O	-1.08635	-0.281871	-0.182176
H	-1.11275	1.6804	-0.953104
H	1.55493	1.7072	-0.246744
H	2.01716	-0.780365	0.845768
H	-0.41462	-2.0767	0.696972
C	5.23068	-0.566984	-1.02301
C	4.7757	-1.09818	0.165252
N	4.75194	-0.159757	1.14265
C	5.19052	0.949394	0.562947
N	5.49234	0.755588	-0.742782
H	5.38174	-1.02138	-2.0151
H	4.46414	-2.14174	0.334837
H	5.31017	1.93135	1.04841
H	5.85634	1.47563	-1.41383
