18
  This energy is -0.8123 and Call times are: 166377
C	-0.615845	0.469486	0.828685
C	-0.129041	-0.801972	0.911085
C	0.582852	-1.02775	-0.306432
C	0.468233	0.125669	-1.02536
O	-0.260632	1.05085	-0.347264
H	-1.22052	1.06771	1.52993
H	-0.258297	-1.50986	1.74553
H	1.1153	-1.94549	-0.603666
H	0.854083	0.409743	-2.01817
C	4.4744	-0.686949	-0.237622
C	5.2918	-0.754027	0.870757
N	6.26207	0.19072	0.820237
C	6.04741	0.841419	-0.315164
N	4.98078	0.349854	-0.989158
H	3.59745	-1.28374	-0.534845
H	5.19883	-1.46718	1.70599
H	6.64106	1.6857	-0.701154
H	4.61016	0.693134	-1.90897
