18
  This energy is -0.8726 and Call times are: 203186
C	0.0203586	0.528663	1.00325
C	-0.755242	-0.56916	0.771722
C	-0.511422	-0.940931	-0.585649
C	0.39165	-0.0374743	-1.06377
O	0.72747	0.867275	-0.106866
H	0.156126	1.15139	1.90271
H	-1.43124	-1.0672	1.48521
H	-0.960794	-1.78453	-1.13382
H	0.866669	0.0679685	-2.05296
C	4.86569	-1.04774	0.482109
C	4.09369	0.0917994	0.563383
N	4.66572	1.11865	-0.111055
C	5.78832	0.618049	-0.608839
N	5.95428	-0.684758	-0.279082
H	4.72224	-2.05761	0.8982
H	3.1342	0.191434	1.09658
H	6.52516	1.16165	-1.22186
H	6.7589	-1.30095	-0.551386
