18
  This energy is -0.7866 and Call times are: 86185
C	0.860949	0.309167	0.67051
C	1.05603	-0.22422	-0.569578
C	-0.247427	-0.479875	-1.09471
C	-1.12396	-0.0801461	-0.129166
O	-0.464396	0.404376	0.955832
H	1.57281	0.656785	1.4371
H	2.02101	-0.418183	-1.06485
H	-0.494	-0.911468	-2.07808
H	-2.22573	-0.0882477	-0.0932391
C	7.09438	-0.0800113	0.42547
C	6.61867	-0.634118	-0.744062
N	5.30784	-0.341923	-0.92538
C	4.97164	0.390667	0.127664
N	6.0142	0.576708	0.971483
H	8.09187	-0.105692	0.892266
H	7.19779	-1.2395	-1.46029
H	3.97568	0.81634	0.330416
H	6.00201	1.11808	1.87039
