18
  This energy is -1.3877 and Call times are: 207116
C	0.768191	-0.729534	0.405047
C	1.11137	0.330953	-0.381063
C	-0.111181	1.00396	-0.685269
C	-1.09352	0.295326	-0.0582005
O	-0.57443	-0.766666	0.612416
H	1.37758	-1.51959	0.873777
H	2.12386	0.611178	-0.713378
H	-0.235047	1.90974	-1.30034
H	-2.1852	0.441689	-0.0127434
C	5.19912	0.828515	-0.7805
C	5.14335	0.964695	0.590444
N	4.76031	-0.193177	1.18131
C	4.57914	-1.04443	0.180725
N	4.83103	-0.476184	-1.02228
H	5.46581	1.54386	-1.57467
H	5.37263	1.87767	1.16381
H	4.26243	-2.09583	0.27286
H	4.75955	-0.940941	-1.96045
