18
  This energy is -0.8611 and Call times are: 118044
C	-0.992578	0.448913	-0.315702
C	-0.217619	1.0033	0.660243
C	0.933157	0.164313	0.769486
C	0.759834	-0.828703	-0.149346
O	-0.410947	-0.670583	-0.821121
H	-1.96569	0.751085	-0.736411
H	-0.434577	1.9119	1.2446
H	1.78584	0.293081	1.45538
H	1.38791	-1.6939	-0.418055
C	5.38663	1.13208	-0.321416
C	4.77582	0.5784	0.783792
N	4.99744	-0.757048	0.846843
C	5.7429	-1.0308	-0.215212
N	6.00479	0.0751074	-0.9514
H	5.42392	2.16887	-0.691839
H	4.17918	1.1186	1.53683
H	6.12455	-2.02417	-0.50122
H	6.57087	0.119009	-1.83394
