18
  This energy is -1.7064 and Call times are: 31860
C	0.14133	-0.995118	0.525515
C	0.393529	-0.829226	-0.804616
C	0.102054	0.539591	-1.0901
C	-0.30253	1.08933	0.0907801
O	-0.284623	0.166343	1.08817
H	0.224624	-1.87757	1.18094
H	0.749143	-1.59404	-1.51362
H	0.186743	1.04708	-2.06446
H	-0.624795	2.11145	0.348987
C	3.37503	0.304299	0.660997
C	3.90915	-0.958624	0.516483
N	4.97303	-0.946103	-0.322865
C	5.09844	0.319775	-0.697633
N	4.15845	1.11321	-0.131533
H	2.52135	0.672371	1.25201
H	3.54592	-1.87862	1.00281
H	5.8611	0.72032	-1.38476
H	4.04756	2.14752	-0.269971
