18
  This energy is -0.8922 and Call times are: 141145
C	0.492518	0.450313	-0.917085
C	1.20966	-0.141745	0.0806848
C	0.250845	-0.579179	1.04476
C	-0.967579	-0.215817	0.551012
O	-0.838799	0.414041	-0.646363
H	0.80744	0.928452	-1.85914
H	2.30407	-0.258701	0.132587
H	0.454035	-1.10273	1.99276
H	-1.98676	-0.346325	0.950372
C	6.22296	-0.695366	0.892893
C	6.9345	-0.446974	-0.26173
N	6.2636	0.403884	-1.07564
C	5.14012	0.682282	-0.428401
N	5.06838	0.0438308	0.763582
H	6.44897	-1.32484	1.76823
H	7.91995	-0.866457	-0.522084
H	4.33574	1.34739	-0.781713
H	4.28288	0.101026	1.45711
